# Generated by pormake.
# Topology ctn, (3,4)-cn, num edge types: 1
# Building blocks:
#     Node 0, Type 0, BuildingBlock: OLANEW_clean_sbu_2, # of connection points: 3
#     Node 1, Type 0, BuildingBlock: OLANEW_clean_sbu_2, # of connection points: 3
#     Node 2, Type 0, BuildingBlock: OLANEW_clean_sbu_2, # of connection points: 3
#     Node 3, Type 0, BuildingBlock: OLANEW_clean_sbu_2, # of connection points: 3
#     Node 4, Type 0, BuildingBlock: OLANEW_clean_sbu_2, # of connection points: 3
#     Node 5, Type 0, BuildingBlock: OLANEW_clean_sbu_2, # of connection points: 3
#     Node 6, Type 0, BuildingBlock: OLANEW_clean_sbu_2, # of connection points: 3
#     Node 7, Type 0, BuildingBlock: OLANEW_clean_sbu_2, # of connection points: 3
#     Node 8, Type 0, BuildingBlock: OLANEW_clean_sbu_2, # of connection points: 3
#     Node 9, Type 0, BuildingBlock: OLANEW_clean_sbu_2, # of connection points: 3
#     Node 10, Type 0, BuildingBlock: OLANEW_clean_sbu_2, # of connection points: 3
#     Node 11, Type 0, BuildingBlock: OLANEW_clean_sbu_2, # of connection points: 3
#     Node 12, Type 0, BuildingBlock: OLANEW_clean_sbu_2, # of connection points: 3
#     Node 13, Type 0, BuildingBlock: OLANEW_clean_sbu_2, # of connection points: 3
#     Node 14, Type 0, BuildingBlock: OLANEW_clean_sbu_2, # of connection points: 3
#     Node 15, Type 0, BuildingBlock: OLANEW_clean_sbu_2, # of connection points: 3
#     Node 16, Type 1, BuildingBlock: TATPOV_clean_sbu_0, # of connection points: 4
#     Node 17, Type 1, BuildingBlock: TATPOV_clean_sbu_0, # of connection points: 4
#     Node 18, Type 1, BuildingBlock: TATPOV_clean_sbu_0, # of connection points: 4
#     Node 19, Type 1, BuildingBlock: TATPOV_clean_sbu_0, # of connection points: 4
#     Node 20, Type 1, BuildingBlock: TATPOV_clean_sbu_0, # of connection points: 4
#     Node 21, Type 1, BuildingBlock: TATPOV_clean_sbu_0, # of connection points: 4
#     Node 22, Type 1, BuildingBlock: TATPOV_clean_sbu_0, # of connection points: 4
#     Node 23, Type 1, BuildingBlock: TATPOV_clean_sbu_0, # of connection points: 4
#     Node 24, Type 1, BuildingBlock: TATPOV_clean_sbu_0, # of connection points: 4
#     Node 25, Type 1, BuildingBlock: TATPOV_clean_sbu_0, # of connection points: 4
#     Node 26, Type 1, BuildingBlock: TATPOV_clean_sbu_0, # of connection points: 4
#     Node 27, Type 1, BuildingBlock: TATPOV_clean_sbu_0, # of connection points: 4
#     Edge 28, Type (0, 1), BuildingBlock: XUDNAN_clean_linker_2, # of connection points: 2
#     Edge 29, Type (0, 1), BuildingBlock: XUDNAN_clean_linker_2, # of connection points: 2
#     Edge 30, Type (0, 1), BuildingBlock: XUDNAN_clean_linker_2, # of connection points: 2
#     Edge 31, Type (0, 1), BuildingBlock: XUDNAN_clean_linker_2, # of connection points: 2
#     Edge 32, Type (0, 1), BuildingBlock: XUDNAN_clean_linker_2, # of connection points: 2
#     Edge 33, Type (0, 1), BuildingBlock: XUDNAN_clean_linker_2, # of connection points: 2
#     Edge 34, Type (0, 1), BuildingBlock: XUDNAN_clean_linker_2, # of connection points: 2
#     Edge 35, Type (0, 1), BuildingBlock: XUDNAN_clean_linker_2, # of connection points: 2
#     Edge 36, Type (0, 1), BuildingBlock: XUDNAN_clean_linker_2, # of connection points: 2
#     Edge 37, Type (0, 1), BuildingBlock: XUDNAN_clean_linker_2, # of connection points: 2
#     Edge 38, Type (0, 1), BuildingBlock: XUDNAN_clean_linker_2, # of connection points: 2
#     Edge 39, Type (0, 1), BuildingBlock: XUDNAN_clean_linker_2, # of connection points: 2
#     Edge 40, Type (0, 1), BuildingBlock: XUDNAN_clean_linker_2, # of connection points: 2
#     Edge 41, Type (0, 1), BuildingBlock: XUDNAN_clean_linker_2, # of connection points: 2
#     Edge 42, Type (0, 1), BuildingBlock: XUDNAN_clean_linker_2, # of connection points: 2
#     Edge 43, Type (0, 1), BuildingBlock: XUDNAN_clean_linker_2, # of connection points: 2
#     Edge 44, Type (0, 1), BuildingBlock: XUDNAN_clean_linker_2, # of connection points: 2
#     Edge 45, Type (0, 1), BuildingBlock: XUDNAN_clean_linker_2, # of connection points: 2
#     Edge 46, Type (0, 1), BuildingBlock: XUDNAN_clean_linker_2, # of connection points: 2
#     Edge 47, Type (0, 1), BuildingBlock: XUDNAN_clean_linker_2, # of connection points: 2
#     Edge 48, Type (0, 1), BuildingBlock: XUDNAN_clean_linker_2, # of connection points: 2
#     Edge 49, Type (0, 1), BuildingBlock: XUDNAN_clean_linker_2, # of connection points: 2
#     Edge 50, Type (0, 1), BuildingBlock: XUDNAN_clean_linker_2, # of connection points: 2
#     Edge 51, Type (0, 1), BuildingBlock: XUDNAN_clean_linker_2, # of connection points: 2
#     Edge 52, Type (0, 1), BuildingBlock: XUDNAN_clean_linker_2, # of connection points: 2
#     Edge 53, Type (0, 1), BuildingBlock: XUDNAN_clean_linker_2, # of connection points: 2
#     Edge 54, Type (0, 1), BuildingBlock: XUDNAN_clean_linker_2, # of connection points: 2
#     Edge 55, Type (0, 1), BuildingBlock: XUDNAN_clean_linker_2, # of connection points: 2
#     Edge 56, Type (0, 1), BuildingBlock: XUDNAN_clean_linker_2, # of connection points: 2
#     Edge 57, Type (0, 1), BuildingBlock: XUDNAN_clean_linker_2, # of connection points: 2
#     Edge 58, Type (0, 1), BuildingBlock: XUDNAN_clean_linker_2, # of connection points: 2
#     Edge 59, Type (0, 1), BuildingBlock: XUDNAN_clean_linker_2, # of connection points: 2
#     Edge 60, Type (0, 1), BuildingBlock: XUDNAN_clean_linker_2, # of connection points: 2
#     Edge 61, Type (0, 1), BuildingBlock: XUDNAN_clean_linker_2, # of connection points: 2
#     Edge 62, Type (0, 1), BuildingBlock: XUDNAN_clean_linker_2, # of connection points: 2
#     Edge 63, Type (0, 1), BuildingBlock: XUDNAN_clean_linker_2, # of connection points: 2
#     Edge 64, Type (0, 1), BuildingBlock: XUDNAN_clean_linker_2, # of connection points: 2
#     Edge 65, Type (0, 1), BuildingBlock: XUDNAN_clean_linker_2, # of connection points: 2
#     Edge 66, Type (0, 1), BuildingBlock: XUDNAN_clean_linker_2, # of connection points: 2
#     Edge 67, Type (0, 1), BuildingBlock: XUDNAN_clean_linker_2, # of connection points: 2
#     Edge 68, Type (0, 1), BuildingBlock: XUDNAN_clean_linker_2, # of connection points: 2
#     Edge 69, Type (0, 1), BuildingBlock: XUDNAN_clean_linker_2, # of connection points: 2
#     Edge 70, Type (0, 1), BuildingBlock: XUDNAN_clean_linker_2, # of connection points: 2
#     Edge 71, Type (0, 1), BuildingBlock: XUDNAN_clean_linker_2, # of connection points: 2
#     Edge 72, Type (0, 1), BuildingBlock: XUDNAN_clean_linker_2, # of connection points: 2
#     Edge 73, Type (0, 1), BuildingBlock: XUDNAN_clean_linker_2, # of connection points: 2
#     Edge 74, Type (0, 1), BuildingBlock: XUDNAN_clean_linker_2, # of connection points: 2
#     Edge 75, Type (0, 1), BuildingBlock: XUDNAN_clean_linker_2, # of connection points: 2
# Relax obj value: 0.053
# Max RMSD: 0.169
# Mean RMSD: 0.094
data_MOF--net-ctn--node1-OLANEW_clean_sbu_2--node2-TATPOV_clean_sbu_0--edge1-XUDNAN_clean_linker_2
_symmetry_space_group_name_H-M    P1
_symmetry_Int_Tables_number       1
_symmetry_cell_setting            triclinic
loop_
_symmetry_equiv_pos_as_xyz
'x, y, z'
_cell_length_a     57.602188
_cell_length_b     58.948235
_cell_length_c     55.922738
_cell_angle_alpha  92.203786
_cell_angle_beta   95.708561
_cell_angle_gamma 96.677245
loop_
_atom_site_label
_atom_site_type_symbol
_atom_site_fract_x
_atom_site_fract_y
_atom_site_fract_z
_atom_type_partial_charge
O0 O 0.04113 0.06121 0.0236 0.0
Cd1 Cd 0.0408 0.02424 0.04258 0.0
O2 O 0.02969 0.0787 0.05521 0.0
Cd3 Cd 0.02347 0.05025 0.07863 0.0
O4 O 0.00497 0.0376 0.10881 0.0
C5 C 0.99757 0.05269 0.12203 0.0
O6 O 0.00199 0.0743 0.11715 0.0
C7 C 0.03602 0.07927 0.03406 0.0
C8 C 0.07409 0.9969 0.02784 0.0
O9 O 0.05389 0.99653 0.01583 0.0
O10 O 0.07875 0.01042 0.04665 0.0
O11 O 0.32747 0.75583 0.26559 0.0
Cd12 Cd 0.28525 0.75867 0.25881 0.0
O13 O 0.32343 0.72604 0.28805 0.0
Cd14 Cd 0.28529 0.71881 0.28186 0.0
O15 O 0.25405 0.69522 0.28601 0.0
C16 C 0.24455 0.69616 0.30552 0.0
O17 O 0.25271 0.71252 0.32185 0.0
C18 C 0.33656 0.74148 0.27891 0.0
C19 C 0.27349 0.78472 0.21971 0.0
O20 O 0.2832 0.79431 0.23973 0.0
O21 O 0.26939 0.76285 0.21802 0.0
O22 O 0.99883 0.45741 0.13006 0.0
Cd23 Cd 0.9716 0.44561 0.09419 0.0
O24 O 0.02379 0.47984 0.11163 0.0
Cd25 Cd 0.00813 0.46418 0.07691 0.0
O26 O 0.00339 0.43528 0.05055 0.0
C27 C 0.00597 0.41598 0.05918 0.0
O28 O 0.01033 0.41493 0.08261 0.0
C29 C 0.01701 0.47202 0.13099 0.0
C30 C 0.94093 0.47846 0.08568 0.0
O31 O 0.93743 0.46337 0.10123 0.0
O32 O 0.95879 0.47792 0.0738 0.0
O33 O 0.79273 0.7976 0.26239 0.0
Cd34 Cd 0.78193 0.75688 0.26744 0.0
O35 O 0.77425 0.80777 0.29293 0.0
Cd36 Cd 0.75933 0.77381 0.30193 0.0
O37 O 0.73102 0.75715 0.32066 0.0
C38 C 0.72132 0.77141 0.33274 0.0
O39 O 0.72954 0.79318 0.33298 0.0
C40 C 0.78674 0.81316 0.27603 0.0
C41 C 0.78067 0.73178 0.22395 0.0
O42 O 0.76224 0.73958 0.23037 0.0
O43 O 0.79969 0.73573 0.23819 0.0
O44 O 0.11801 0.98162 0.46375 0.0
Cd45 Cd 0.07609 0.96724 0.4559 0.0
O46 O 0.11371 0.01504 0.48055 0.0
Cd47 Cd 0.07554 0.0089 0.47441 0.0
O48 O 0.03886 0.0099 0.46093 0.0
C49 C 0.03394 0.01192 0.43851 0.0
O50 O 0.05095 0.01276 0.42445 0.0
C51 C 0.12699 0.00088 0.4736 0.0
C52 C 0.05504 0.94601 0.49353 0.0
O53 O 0.06754 0.93524 0.48033 0.0
O54 O 0.05301 0.96696 0.4894 0.0
O55 O 0.24972 0.74933 0.84537 0.0
Cd56 Cd 0.23656 0.72839 0.8067 0.0
O57 O 0.21709 0.76537 0.84591 0.0
Cd58 Cd 0.20024 0.75135 0.81098 0.0
O59 O 0.17475 0.75244 0.77958 0.0
C60 C 0.17839 0.76843 0.7653 0.0
O61 O 0.19796 0.78251 0.76916 0.0
C62 C 0.23729 0.76239 0.85578 0.0
C63 C 0.26136 0.69129 0.79794 0.0
O64 O 0.26812 0.71118 0.79084 0.0
O65 O 0.24305 0.68902 0.80933 0.0
O66 O 0.92793 0.53814 0.41856 0.0
Cd67 Cd 0.8856 0.535 0.42078 0.0
O68 O 0.93547 0.55325 0.45534 0.0
Cd69 Cd 0.95819 0.57006 0.48606 0.0
O70 O 0.97002 0.59798 0.51289 0.0
C71 C 0.95616 0.61313 0.51435 0.0
O72 O 0.93627 0.6107 0.50027 0.0
C73 C 0.94276 0.54582 0.43616 0.0
C74 C 0.87256 0.49855 0.44876 0.0
O75 O 0.87686 0.49527 0.42695 0.0
O76 O 0.87397 0.51915 0.45745 0.0
O77 O 0.83135 0.78488 0.8705 0.0
Cd78 Cd 0.82908 0.81453 0.84107 0.0
O79 O 0.82488 0.80861 0.89983 0.0
Cd80 Cd 0.81454 0.83621 0.87754 0.0
O81 O 0.79065 0.86161 0.86818 0.0
C82 C 0.7711 0.85875 0.87707 0.0
O83 O 0.76687 0.84115 0.89039 0.0
C84 C 0.82974 0.78911 0.89271 0.0
C85 C 0.86248 0.81359 0.80805 0.0
O86 O 0.86764 0.82417 0.82869 0.0
O87 O 0.8416 0.8033 0.80306 0.0
O88 O 0.33556 0.29738 0.38911 0.0
Cd89 Cd 0.33579 0.33017 0.36345 0.0
O90 O 0.32214 0.31601 0.41868 0.0
Cd91 Cd 0.31462 0.3462 0.39902 0.0
O92 O 0.29529 0.37472 0.38824 0.0
C93 C 0.27299 0.37095 0.38662 0.0
O94 O 0.26317 0.3504 0.39071 0.0
C95 C 0.32976 0.29817 0.41047 0.0
C96 C 0.36724 0.32816 0.32863 0.0
O97 O 0.37422 0.33643 0.35001 0.0
O98 O 0.34538 0.32084 0.32367 0.0
O99 O 0.46672 0.92677 0.65437 0.0
Cd100 Cd 0.45013 0.92394 0.61218 0.0
O101 O 0.44951 0.89257 0.66099 0.0
Cd102 Cd 0.43911 0.88236 0.62323 0.0
O103 O 0.44232 0.85962 0.59233 0.0
C104 C 0.45681 0.86566 0.57739 0.0
O105 O 0.46849 0.88628 0.57995 0.0
C106 C 0.46188 0.91115 0.6688 0.0
C107 C 0.44086 0.96585 0.59393 0.0
O108 O 0.42583 0.954 0.60527 0.0
O109 O 0.46041 0.95804 0.59151 0.0
O110 O 0.25552 0.29286 0.71438 0.0
Cd111 Cd 0.23556 0.25386 0.71447 0.0
O112 O 0.23485 0.30449 0.74253 0.0
Cd113 Cd 0.21391 0.27223 0.74826 0.0
O114 O 0.1855 0.25663 0.7676 0.0
C115 C 0.16919 0.2691 0.76976 0.0
O116 O 0.1704 0.28884 0.7595 0.0
C117 C 0.25039 0.30879 0.72816 0.0
C118 C 0.2576 0.22196 0.68955 0.0
O119 O 0.24186 0.23269 0.67871 0.0
O120 O 0.263 0.2264 0.71217 0.0
O121 O 0.78821 0.22029 0.79126 0.0
Cd122 Cd 0.74841 0.21771 0.77045 0.0
O123 O 0.78388 0.1841 0.80022 0.0
Cd124 Cd 0.74749 0.17527 0.78488 0.0
O125 O 0.7162 0.15028 0.78269 0.0
C126 C 0.69521 0.15507 0.78197 0.0
O127 O 0.69123 0.17655 0.78133 0.0
C128 C 0.79652 0.20333 0.80086 0.0
C129 C 0.74539 0.2474 0.73277 0.0
O130 O 0.74052 0.25345 0.75378 0.0
O131 O 0.75167 0.22743 0.72966 0.0
O132 O 0.54307 0.54517 0.51624 0.0
Cd133 Cd 0.54515 0.51683 0.54726 0.0
O134 O 0.51962 0.56569 0.53431 0.0
Cd135 Cd 0.51468 0.54489 0.56545 0.0
O136 O 0.50001 0.53473 0.59873 0.0
C137 C 0.47831 0.53623 0.60006 0.0
O138 O 0.46576 0.543 0.58133 0.0
C139 C 0.53158 0.56235 0.51683 0.0
C140 C 0.58435 0.49261 0.54689 0.0
O141 O 0.56478 0.48503 0.53467 0.0
O142 O 0.58545 0.51166 0.55903 0.0
O143 O 0.60671 0.48062 0.97367 0.0
Cd144 Cd 0.57301 0.45121 0.96358 0.0
O145 O 0.58634 0.5052 0.9902 0.0
Cd146 Cd 0.55251 0.48539 0.97871 0.0
O147 O 0.51711 0.4787 0.9602 0.0
C148 C 0.51433 0.48394 0.93835 0.0
O149 O 0.53284 0.49197 0.92795 0.0
C150 C 0.60591 0.49974 0.98471 0.0
C151 C 0.56265 0.4241 0.00202 0.0
O152 O 0.57904 0.42017 0.9891 0.0
O153 O 0.55117 0.44096 0.99694 0.0
O154 O 0.70907 0.24479 0.32439 0.0
Cd155 Cd 0.70644 0.22113 0.28668 0.0
O156 O 0.69451 0.21725 0.34613 0.0
Cd157 Cd 0.6818 0.19679 0.31322 0.0
O158 O 0.65866 0.19736 0.28 0.0
C159 C 0.64632 0.21388 0.28003 0.0
O160 O 0.64857 0.22784 0.29924 0.0
C161 C 0.70374 0.23775 0.34462 0.0
C162 C 0.73934 0.18967 0.28522 0.0
O163 O 0.74371 0.20977 0.27754 0.0
O164 O 0.71973 0.18464 0.29388 0.0
O165 O 0.4445 0.07467 0.92862 0.0
Cd166 Cd 0.4107 0.09451 0.93608 0.0
O167 O 0.45109 0.07893 0.96764 0.0
Cd168 Cd 0.46856 0.08047 0.00419 0.0
O169 O 0.46543 0.10369 0.0347 0.0
C170 C 0.44461 0.10836 0.03624 0.0
O171 O 0.4275 0.0977 0.02116 0.0
C172 C 0.45725 0.07166 0.94783 0.0
C173 C 0.37702 0.0659 0.95673 0.0
O174 O 0.37453 0.06954 0.93423 0.0
O175 O 0.3953 0.07587 0.96953 0.0
Zn176 Zn 0.29706 0.89278 0.04324 0.0
Zn177 Zn 0.25153 0.8986 0.03188 0.0
O178 O 0.25314 0.88485 0.06535 0.0
O179 O 0.29059 0.88297 0.07643 0.0
O180 O 0.21865 0.90795 0.02763 0.0
O181 O 0.30833 0.92566 0.03723 0.0
O182 O 0.27118 0.92912 0.02663 0.0
C183 C 0.26934 0.87987 0.08079 0.0
C184 C 0.27215 0.86419 0.00163 0.0
O185 O 0.25437 0.87433 0.00546 0.0
O186 O 0.29139 0.86901 0.015 0.0
C187 C 0.2056 0.90741 0.00784 0.0
O188 O 0.21277 0.89886 0.98821 0.0
C189 C 0.2927 0.93763 0.0292 0.0
Zn190 Zn 0.09744 0.46905 0.34367 0.0
Zn191 Zn 0.12229 0.51098 0.34233 0.0
O192 O 0.09812 0.51548 0.36615 0.0
O193 O 0.0798 0.48109 0.37025 0.0
O194 O 0.13972 0.54261 0.34258 0.0
O195 O 0.12823 0.45614 0.3519 0.0
O196 O 0.148 0.49043 0.35184 0.0
C197 C 0.08307 0.50231 0.37586 0.0
C198 C 0.09277 0.48927 0.29704 0.0
O199 O 0.10738 0.50521 0.3077 0.0
O200 O 0.08535 0.47217 0.30844 0.0
C201 C 0.15075 0.54966 0.32519 0.0
O202 O 0.15153 0.53566 0.30652 0.0
C203 C 0.14763 0.46901 0.35453 0.0
Zn204 Zn 0.80735 0.60165 0.98537 0.0
Zn205 Zn 0.80097 0.62398 0.02787 0.0
O206 O 0.82521 0.60298 0.03902 0.0
O207 O 0.83259 0.58631 0.00508 0.0
O208 O 0.79354 0.6405 0.05778 0.0
O209 O 0.8155 0.63313 0.97174 0.0
O210 O 0.81224 0.64977 0.00698 0.0
C211 C 0.8363 0.58921 0.02781 0.0
C212 C 0.76031 0.59268 0.99917 0.0
O213 O 0.76902 0.60683 0.01635 0.0
O214 O 0.773 0.5869 0.98324 0.0
C215 C 0.80793 0.64807 0.07579 0.0
O216 O 0.83023 0.64527 0.07586 0.0
C217 C 0.81682 0.65113 0.98523 0.0
Zn218 Zn 0.83497 0.01788 0.32372 0.0
Zn219 Zn 0.86444 0.02341 0.28914 0.0
O220 O 0.84559 0.05122 0.28514 0.0
O221 O 0.82074 0.04581 0.31248 0.0
O222 O 0.88596 0.02433 0.26268 0.0
O223 O 0.86337 0.02114 0.34859 0.0
O224 O 0.88712 0.02501 0.3201 0.0
C225 C 0.82863 0.05746 0.29584 0.0
C226 C 0.83031 0.97891 0.29118 0.0
O227 O 0.84607 0.99147 0.28169 0.0
O228 O 0.822 0.98633 0.30968 0.0
C229 C 0.89671 0.0418 0.25423 0.0
O230 O 0.89414 0.0623 0.26287 0.0
C231 C 0.88401 0.02375 0.34229 0.0
Zn232 Zn 0.33415 0.10086 0.47745 0.0
Zn233 Zn 0.32097 0.11348 0.52111 0.0
O234 O 0.3489 0.09562 0.53004 0.0
O235 O 0.36229 0.08857 0.49526 0.0
O236 O 0.31148 0.12571 0.55248 0.0
O237 O 0.33635 0.13392 0.46753 0.0
O238 O 0.32749 0.14318 0.50369 0.0
C239 C 0.36379 0.08728 0.51793 0.0
C240 C 0.28768 0.07998 0.48727 0.0
O241 O 0.29194 0.09254 0.5066 0.0
O242 O 0.30282 0.08008 0.47226 0.0
C243 C 0.32016 0.12185 0.57353 0.0
O244 O 0.33652 0.10811 0.57618 0.0
C245 C 0.33282 0.14902 0.48305 0.0
Zn246 Zn 0.32532 0.50017 0.80783 0.0
Zn247 Zn 0.35846 0.50771 0.77739 0.0
O248 O 0.34275 0.53765 0.77707 0.0
O249 O 0.31563 0.53144 0.80194 0.0
O250 O 0.38359 0.51267 0.7547 0.0
O251 O 0.35067 0.49604 0.83452 0.0
O252 O 0.37751 0.50264 0.80941 0.0
C253 C 0.32609 0.54443 0.78786 0.0
C254 C 0.31991 0.46647 0.7686 0.0
O255 O 0.33825 0.47831 0.76272 0.0
O256 O 0.31052 0.47259 0.78696 0.0
C257 C 0.37863 0.51603 0.73256 0.0
O258 O 0.35659 0.51689 0.72431 0.0
C259 C 0.37201 0.49797 0.83035 0.0
Zn260 Zn 0.77332 0.32861 0.53821 0.0
Zn261 Zn 0.74339 0.35986 0.54082 0.0
O262 O 0.74282 0.34357 0.57328 0.0
O263 O 0.76834 0.3187 0.57124 0.0
O264 O 0.72161 0.3843 0.54437 0.0
O265 O 0.79909 0.35346 0.53252 0.0
O266 O 0.77444 0.37906 0.53529 0.0
C267 C 0.75366 0.32782 0.58265 0.0
C268 C 0.73558 0.32201 0.50029 0.0
O269 O 0.72984 0.34028 0.50988 0.0
O270 O 0.75293 0.31295 0.5097 0.0
C271 C 0.70012 0.38291 0.5359 0.0
O272 O 0.69029 0.36419 0.52367 0.0
C273 C 0.79483 0.37405 0.53185 0.0
Zn274 Zn 0.58317 0.93935 0.87197 0.0
Zn275 Zn 0.59842 0.97603 0.84739 0.0
O276 O 0.58339 0.98937 0.87562 0.0
O277 O 0.57324 0.96047 0.89771 0.0
O278 O 0.61045 0.00417 0.83107 0.0
O279 O 0.61605 0.92982 0.87432 0.0
O280 O 0.62799 0.95988 0.85464 0.0
C281 C 0.57443 0.98162 0.89402 0.0
C282 C 0.55965 0.94083 0.82329 0.0
O283 O 0.57382 0.95897 0.82242 0.0
O284 O 0.56007 0.92957 0.84218 0.0
C285 C 0.59704 0.01913 0.82507 0.0
O286 O 0.57485 0.01576 0.82913 0.0
C287 C 0.63229 0.94178 0.86513 0.0
Zn288 Zn 0.99724 0.28516 0.87979 0.0
Zn289 Zn 0.00444 0.24877 0.90695 0.0
O290 O 0.03125 0.24946 0.88524 0.0
O291 O 0.02594 0.27911 0.86342 0.0
O292 O 0.01044 0.22395 0.92989 0.0
O293 O 0.00041 0.30638 0.90961 0.0
O294 O 0.00576 0.27641 0.9308 0.0
C295 C 0.03742 0.26262 0.86884 0.0
C296 C 0.95841 0.24859 0.87433 0.0
O297 O 0.97164 0.23873 0.88924 0.0
O298 O 0.96528 0.26833 0.86764 0.0
C299 C 0.0152 0.20387 0.92492 0.0
O300 O 0.01611 0.19721 0.90238 0.0
C301 C 0.00393 0.2977 0.92981 0.0
Zn302 Zn 0.52919 0.78363 0.39818 0.0
Zn303 Zn 0.52017 0.74 0.41029 0.0
O304 O 0.55473 0.74383 0.40232 0.0
O305 O 0.56291 0.78006 0.39476 0.0
O306 O 0.51658 0.70774 0.42188 0.0
O307 O 0.51953 0.79493 0.42974 0.0
O308 O 0.51205 0.75914 0.43933 0.0
C309 C 0.56927 0.76034 0.39688 0.0
C310 C 0.4923 0.75636 0.36644 0.0
O311 O 0.49574 0.7405 0.38083 0.0
O312 O 0.50462 0.7757 0.36972 0.0
C313 C 0.52524 0.6917 0.4113 0.0
O314 O 0.53516 0.69589 0.3915 0.0
C315 C 0.51248 0.78048 0.4444 0.0
Zn316 Zn 0.9492 0.80166 0.61572 0.0
Zn317 Zn 0.99356 0.80239 0.63756 0.0
O318 O 0.99667 0.82886 0.61491 0.0
O319 O 0.96032 0.83071 0.59926 0.0
O320 O 0.02648 0.8027 0.65343 0.0
O321 O 0.93752 0.8039 0.64875 0.0
O322 O 0.97391 0.80665 0.6659 0.0
C323 C 0.98197 0.83836 0.60135 0.0
C324 C 0.9705 0.76061 0.60586 0.0
O325 O 0.98737 0.77089 0.62012 0.0
O326 O 0.95222 0.77022 0.60049 0.0
C327 C 0.03164 0.78696 0.66719 0.0
O328 O 0.01504 0.77077 0.67132 0.0
C329 C 0.95196 0.80634 0.66756 0.0
Zn330 Zn 0.44727 0.30358 0.13368 0.0
Zn331 Zn 0.48674 0.28881 0.15634 0.0
O332 O 0.50041 0.31279 0.13458 0.0
O333 O 0.4693 0.326 0.11662 0.0
O334 O 0.5151 0.27707 0.17327 0.0
O335 O 0.43745 0.31174 0.16665 0.0
O336 O 0.46996 0.3007 0.18413 0.0
C337 C 0.49145 0.32614 0.11988 0.0
C338 C 0.45062 0.25562 0.12403 0.0
O339 O 0.46964 0.26024 0.13784 0.0
O340 O 0.43756 0.2711 0.11927 0.0
C341 C 0.52627 0.26298 0.16267 0.0
O342 O 0.51962 0.25661 0.14002 0.0
C343 C 0.45058 0.30885 0.18558 0.0
H344 H 0.21526 0.7922 0.88191 0.0
H345 H 0.27989 0.76083 0.88222 0.0
H346 H 0.29533 0.78271 0.92017 0.0
H347 H 0.24161 0.84761 0.90352 0.0
H348 H 0.21841 0.85293 0.92161 0.0
H349 H 0.21206 0.8341 0.89506 0.0
H350 H 0.19454 0.80178 0.92049 0.0
H351 H 0.20079 0.82054 0.94713 0.0
H352 H 0.21206 0.79327 0.94639 0.0
H353 H 0.30421 0.80901 0.95725 0.0
H354 H 0.3059 0.83744 0.99103 0.0
H355 H 0.23532 0.8516 0.96652 0.0
C356 C 0.23261 0.78976 0.88999 0.0
C357 C 0.24636 0.77473 0.87905 0.0
C358 C 0.26901 0.77218 0.89025 0.0
C359 C 0.27793 0.78454 0.91181 0.0
C360 C 0.26396 0.79932 0.92196 0.0
C361 C 0.24177 0.80193 0.91147 0.0
C362 C 0.23051 0.81927 0.92574 0.0
C363 C 0.22536 0.83969 0.91058 0.0
C364 C 0.20815 0.80804 0.93552 0.0
C365 C 0.24994 0.82619 0.94584 0.0
C366 C 0.26905 0.81444 0.94335 0.0
C367 C 0.28931 0.81823 0.95944 0.0
C368 C 0.29009 0.83447 0.97857 0.0
C369 C 0.27072 0.84678 0.9815 0.0
C370 C 0.25037 0.84243 0.96489 0.0
H371 H 0.96636 0.55397 0.397 0.0
H372 H 0.97528 0.53374 0.47069 0.0
H373 H 0.01517 0.52431 0.46485 0.0
H374 H 0.99182 0.51152 0.3712 0.0
H375 H 0.00646 0.52844 0.34971 0.0
H376 H 0.9804 0.537 0.36076 0.0
H377 H 0.00275 0.57668 0.375 0.0
H378 H 0.02891 0.56834 0.36369 0.0
H379 H 0.02973 0.57837 0.39465 0.0
H380 H 0.05017 0.50975 0.44822 0.0
H381 H 0.07984 0.49608 0.4236 0.0
H382 H 0.04976 0.52905 0.36208 0.0
C383 C 0.97707 0.54829 0.41212 0.0
C384 C 0.96797 0.54478 0.43435 0.0
C385 C 0.98221 0.53699 0.45368 0.0
C386 C 0.0048 0.53147 0.45046 0.0
C387 C 0.01302 0.53441 0.42801 0.0
C388 C 0.99981 0.54324 0.40936 0.0
C389 C 0.012 0.54354 0.3866 0.0
C390 C 0.99676 0.52927 0.36586 0.0
C391 C 0.01875 0.5682 0.37958 0.0
C392 C 0.03354 0.5324 0.39495 0.0
C393 C 0.03388 0.52725 0.4189 0.0
C394 C 0.05055 0.5144 0.42972 0.0
C395 C 0.06724 0.50664 0.41567 0.0
C396 C 0.06726 0.51212 0.39131 0.0
C397 C 0.05045 0.52538 0.38096 0.0
H398 H 0.82804 0.74259 0.88383 0.0
H399 H 0.83657 0.79517 0.94163 0.0
H400 H 0.83735 0.76551 0.97146 0.0
H401 H 0.78891 0.70383 0.91063 0.0
H402 H 0.80034 0.67844 0.90028 0.0
H403 H 0.80309 0.70376 0.8833 0.0
H404 H 0.84819 0.70332 0.88584 0.0
H405 H 0.84557 0.6779 0.90276 0.0
H406 H 0.86482 0.70288 0.91484 0.0
H407 H 0.83396 0.73051 0.99495 0.0
H408 H 0.82663 0.69219 0.01074 0.0
H409 H 0.82004 0.66184 0.938 0.0
C410 C 0.83058 0.74788 0.90276 0.0
C411 C 0.83236 0.77124 0.91038 0.0
C412 C 0.83518 0.77741 0.93534 0.0
C413 C 0.83572 0.76068 0.95245 0.0
C414 C 0.83344 0.73782 0.94436 0.0
C415 C 0.831 0.73135 0.92014 0.0
C416 C 0.82732 0.70551 0.91633 0.0
C417 C 0.8035 0.69742 0.90178 0.0
C418 C 0.84769 0.6969 0.90423 0.0
C419 C 0.82757 0.69853 0.94217 0.0
C420 C 0.83134 0.71747 0.95802 0.0
C421 C 0.83124 0.71552 0.98275 0.0
C422 C 0.82699 0.69365 0.99153 0.0
C423 C 0.82282 0.67395 0.97565 0.0
C424 C 0.82341 0.67651 0.95064 0.0
H425 H 0.01766 0.01595 0.39126 0.0
H426 H 0.99513 0.01277 0.46303 0.0
H427 H 0.95465 0.017 0.44631 0.0
H428 H 0.98079 0.05794 0.36985 0.0
H429 H 0.97465 0.04478 0.33991 0.0
H430 H 0.00198 0.04186 0.35752 0.0
H431 H 0.99327 0.99773 0.35212 0.0
H432 H 0.96599 1.00051 0.3344 0.0
H433 H 0.96605 0.98365 0.36062 0.0
H434 H 0.91665 0.02113 0.42184 0.0
H435 H 0.88335 0.02356 0.39114 0.0
H436 H 0.93064 0.02404 0.33525 0.0
C437 C 0.00424 0.01617 0.4035 0.0
C438 C 0.00959 0.01407 0.42848 0.0
C439 C 0.99147 0.01436 0.44384 0.0
C440 C 0.96843 0.01681 0.43452 0.0
C441 C 0.96381 0.01895 0.40984 0.0
C442 C 0.98116 0.01858 0.39452 0.0
C443 C 0.97144 0.02073 0.36863 0.0
C444 C 0.9829 0.04263 0.35838 0.0
C445 C 0.97436 0.99938 0.35303 0.0
C446 C 0.94585 0.02225 0.37178 0.0
C447 C 0.94186 0.02129 0.3957 0.0
C448 C 0.91956 0.02196 0.40305 0.0
C449 C 0.90075 0.02335 0.38545 0.0
C450 C 0.90435 0.02403 0.36075 0.0
C451 C 0.9273 0.02371 0.35396 0.0
H452 H 0.25156 0.21068 0.64111 0.0
H453 H 0.28982 0.19478 0.70803 0.0
H454 H 0.30915 0.16648 0.68587 0.0
H455 H 0.242 0.15324 0.61421 0.0
H456 H 0.24602 0.16236 0.58434 0.0
H457 H 0.23482 0.18095 0.60558 0.0
H458 H 0.26836 0.21296 0.5998 0.0
H459 H 0.27962 0.19449 0.57853 0.0
H460 H 0.29847 0.2071 0.60445 0.0
H461 H 0.32477 0.14026 0.65615 0.0
H462 H 0.33603 0.11884 0.62111 0.0
H463 H 0.28754 0.1522 0.57386 0.0
C464 C 0.26393 0.20121 0.65115 0.0
C465 C 0.26915 0.20493 0.67632 0.0
C466 C 0.28554 0.19223 0.68874 0.0
C467 C 0.29658 0.17608 0.67632 0.0
C468 C 0.29104 0.17285 0.6515 0.0
C469 C 0.27513 0.18509 0.63906 0.0
C470 C 0.27261 0.17876 0.61235 0.0
C471 C 0.24736 0.16819 0.60361 0.0
C472 C 0.28023 0.19957 0.59794 0.0
C473 C 0.28968 0.16113 0.61169 0.0
C474 C 0.30008 0.15788 0.63445 0.0
C475 C 0.31669 0.14263 0.63825 0.0
C476 C 0.32297 0.13053 0.61823 0.0
C477 C 0.31269 0.1338 0.59472 0.0
C478 C 0.29571 0.14923 0.59157 0.0
H479 H 0.43211 0.53669 0.60776 0.0
H480 H 0.49991 0.52519 0.64339 0.0
H481 H 0.48184 0.51874 0.68123 0.0
H482 H 0.41275 0.56695 0.6571 0.0
H483 H 0.38256 0.55441 0.65117 0.0
H484 H 0.40074 0.55767 0.62684 0.0
H485 H 0.39161 0.51429 0.61539 0.0
H486 H 0.37332 0.51091 0.63963 0.0
H487 H 0.39723 0.49394 0.63787 0.0
H488 H 0.45638 0.5145 0.71551 0.0
H489 H 0.42537 0.51155 0.74313 0.0
H490 H 0.37429 0.52549 0.68473 0.0
C491 C 0.44319 0.53273 0.62347 0.0
C492 C 0.46746 0.53147 0.62258 0.0
C493 C 0.48128 0.52622 0.64359 0.0
C494 C 0.47118 0.52257 0.66519 0.0
C495 C 0.44724 0.52413 0.66545 0.0
C496 C 0.43341 0.52897 0.6451 0.0
C497 C 0.40814 0.52974 0.65012 0.0
C498 C 0.40062 0.55361 0.64607 0.0
C499 C 0.3916 0.51111 0.63485 0.0
C500 C 0.4099 0.52466 0.67652 0.0
C501 C 0.4326 0.52152 0.68506 0.0
C502 C 0.43854 0.51686 0.70899 0.0
C503 C 0.4208 0.51526 0.72455 0.0
C504 C 0.39736 0.51826 0.71612 0.0
C505 C 0.39198 0.52306 0.69176 0.0
H506 H 0.76187 0.24236 0.68895 0.0
H507 H 0.72566 0.28766 0.73111 0.0
H508 H 0.72303 0.31327 0.69712 0.0
H509 H 0.79642 0.28644 0.66132 0.0
H510 H 0.79475 0.27041 0.63297 0.0
H511 H 0.79315 0.25562 0.66044 0.0
H512 H 0.75345 0.23293 0.64287 0.0
H513 H 0.75492 0.24768 0.61535 0.0
H514 H 0.72959 0.24825 0.63178 0.0
H515 H 0.724 0.33368 0.65758 0.0
H516 H 0.73026 0.34771 0.61717 0.0
H517 H 0.76687 0.28919 0.60245 0.0
C518 C 0.7533 0.25762 0.69106 0.0
C519 C 0.74387 0.26295 0.71264 0.0
C520 C 0.73301 0.28322 0.71471 0.0
C521 C 0.73139 0.29785 0.6955 0.0
C522 C 0.74087 0.29203 0.67442 0.0
C523 C 0.75174 0.27244 0.67222 0.0
C524 C 0.76103 0.27021 0.64801 0.0
C525 C 0.78793 0.27071 0.65087 0.0
C526 C 0.74902 0.24848 0.63366 0.0
C527 C 0.75366 0.29155 0.63685 0.0
C528 C 0.74192 0.30391 0.6522 0.0
C529 C 0.73326 0.32415 0.64546 0.0
C530 C 0.73685 0.33197 0.62249 0.0
C531 C 0.74916 0.31965 0.60669 0.0
C532 C 0.75754 0.29916 0.61411 0.0
H533 H 0.49576 0.94446 0.69027 0.0
H534 H 0.45111 0.88307 0.70493 0.0
H535 H 0.47042 0.88478 0.74641 0.0
H536 H 0.54746 0.93059 0.72232 0.0
H537 H 0.55787 0.95935 0.73379 0.0
H538 H 0.53927 0.95462 0.7058 0.0
H539 H 0.50973 0.97966 0.72227 0.0
H540 H 0.52837 0.98466 0.75026 0.0
H541 H 0.49802 0.973 0.75024 0.0
H542 H 0.49617 0.89154 0.7853 0.0
H543 H 0.52577 0.90382 0.81968 0.0
H544 H 0.55385 0.96073 0.77978 0.0
C545 C 0.48974 0.93161 0.70232 0.0
C546 C 0.47187 0.91366 0.69433 0.0
C547 C 0.46475 0.897 0.7106 0.0
C548 C 0.4756 0.89782 0.73422 0.0
C549 C 0.49352 0.91541 0.74134 0.0
C550 C 0.50045 0.93211 0.72596 0.0
C551 C 0.52082 0.94863 0.73785 0.0
C552 C 0.54264 0.94826 0.72412 0.0
C553 C 0.5138 0.97293 0.7403 0.0
C554 C 0.52445 0.93837 0.76216 0.0
C555 C 0.50846 0.91928 0.76382 0.0
C556 C 0.50868 0.90657 0.7843 0.0
C557 C 0.52563 0.91365 0.80371 0.0
C558 C 0.54216 0.93324 0.80248 0.0
C559 C 0.54147 0.9457 0.78135 0.0
H560 H 0.83007 0.24093 0.80368 0.0
H561 H 0.81791 0.17108 0.82582 0.0
H562 H 0.85802 0.17487 0.84666 0.0
H563 H 0.89064 0.23945 0.79279 0.0
H564 H 0.89976 0.2685 0.80409 0.0
H565 H 0.87005 0.2603 0.79077 0.0
H566 H 0.85426 0.27503 0.82956 0.0
H567 H 0.88391 0.28327 0.84299 0.0
H568 H 0.86403 0.26424 0.85809 0.0
H569 H 0.89926 0.18641 0.86585 0.0
H570 H 0.93893 0.20486 0.88133 0.0
H571 H 0.92427 0.26684 0.84617 0.0
C572 C 0.83583 0.22642 0.81288 0.0
C573 C 0.82078 0.20572 0.8131 0.0
C574 C 0.82907 0.18713 0.82534 0.0
C575 C 0.85185 0.18909 0.83727 0.0
C576 C 0.86619 0.20972 0.83674 0.0
C577 C 0.85856 0.22803 0.82482 0.0
C578 C 0.87749 0.24831 0.82702 0.0
C579 C 0.88492 0.25449 0.80219 0.0
C580 C 0.86944 0.26893 0.84021 0.0
C581 C 0.89689 0.23854 0.84214 0.0
C582 C 0.89003 0.21627 0.84759 0.0
C583 C 0.90488 0.20383 0.86164 0.0
C584 C 0.92736 0.21445 0.87036 0.0
C585 C 0.93478 0.23727 0.86494 0.0
C586 C 0.91924 0.24935 0.85058 0.0
H587 H 0.48329 0.87413 0.53991 0.0
H588 H 0.44233 0.81958 0.57283 0.0
H589 H 0.45313 0.79153 0.54319 0.0
H590 H 0.46803 0.85198 0.47862 0.0
H591 H 0.49671 0.86109 0.46966 0.0
H592 H 0.48571 0.8767 0.49354 0.0
H593 H 0.52285 0.87126 0.52193 0.0
H594 H 0.53386 0.85544 0.49819 0.0
H595 H 0.53036 0.8428 0.52665 0.0
H596 H 0.46947 0.76924 0.51055 0.0
H597 H 0.48737 0.75498 0.47537 0.0
H598 H 0.51671 0.82439 0.46354 0.0
C599 C 0.47651 0.8563 0.54086 0.0
C600 C 0.46202 0.84905 0.55873 0.0
C601 C 0.45342 0.82556 0.55926 0.0
C602 C 0.45954 0.80947 0.54257 0.0
C603 C 0.47412 0.81717 0.52539 0.0
C604 C 0.48228 0.84007 0.52426 0.0
C605 C 0.49733 0.84398 0.50377 0.0
C606 C 0.48628 0.85934 0.4853 0.0
C607 C 0.52259 0.85396 0.51321 0.0
C608 C 0.49641 0.81971 0.49357 0.0
C609 C 0.48311 0.80445 0.50638 0.0
C610 C 0.47987 0.78105 0.50033 0.0
C611 C 0.49019 0.7731 0.48039 0.0
C612 C 0.5034 0.78855 0.46666 0.0
C613 C 0.50667 0.81212 0.4736 0.0
H614 H 0.13195 0.29232 0.77687 0.0
H615 H 0.16334 0.23149 0.79725 0.0
H616 H 0.13255 0.22248 0.8245 0.0
H617 H 0.11736 0.30827 0.83453 0.0
H618 H 0.09009 0.31832 0.82353 0.0
H619 H 0.11387 0.3192 0.80488 0.0
H620 H 0.08656 0.29535 0.77102 0.0
H621 H 0.06264 0.29451 0.78953 0.0
H622 H 0.07121 0.26825 0.7776 0.0
H623 H 0.09891 0.22133 0.851 0.0
H624 H 0.06493 0.22747 0.87327 0.0
H625 H 0.0563 0.28906 0.83485 0.0
C626 C 0.1323 0.27697 0.78687 0.0
C627 C 0.15006 0.2626 0.78491 0.0
C628 C 0.14986 0.24272 0.7984 0.0
C629 C 0.13246 0.23749 0.81395 0.0
C630 C 0.1154 0.25226 0.81568 0.0
C631 C 0.11515 0.27152 0.80236 0.0
C632 C 0.09527 0.28493 0.80771 0.0
C633 C 0.10473 0.3091 0.8183 0.0
C634 C 0.07789 0.2858 0.78512 0.0
C635 C 0.08444 0.27035 0.82631 0.0
C636 C 0.09621 0.25156 0.83071 0.0
C637 C 0.08951 0.23593 0.84758 0.0
C638 C 0.07022 0.23958 0.86018 0.0
C639 C 0.0579 0.25873 0.85581 0.0
C640 C 0.06523 0.27421 0.83861 0.0
H641 H 0.51301 0.60316 0.51508 0.0
H642 H 0.55128 0.5586 0.47426 0.0
H643 H 0.55208 0.58598 0.44187 0.0
H644 H 0.47746 0.62229 0.46444 0.0
H645 H 0.47904 0.65107 0.47712 0.0
H646 H 0.48071 0.62757 0.49664 0.0
H647 H 0.52033 0.64733 0.51792 0.0
H648 H 0.51874 0.67091 0.49854 0.0
H649 H 0.54415 0.65563 0.50024 0.0
H650 H 0.54935 0.61871 0.41427 0.0
H651 H 0.54474 0.65481 0.39437 0.0
H652 H 0.5086 0.67805 0.45357 0.0
C653 C 0.52145 0.59903 0.49929 0.0
C654 C 0.53203 0.57863 0.49722 0.0
C655 C 0.54305 0.57407 0.47629 0.0
C656 C 0.54353 0.58949 0.45776 0.0
C657 C 0.53295 0.60942 0.46042 0.0
C658 C 0.52219 0.61425 0.4807 0.0
C659 C 0.51279 0.63719 0.47954 0.0
C660 C 0.4859 0.63435 0.47942 0.0
C661 C 0.52472 0.65374 0.50029 0.0
C662 C 0.52011 0.64464 0.4555 0.0
C663 C 0.53157 0.62832 0.44467 0.0
C664 C 0.54034 0.63157 0.42256 0.0
C665 C 0.5376 0.65215 0.41138 0.0
C666 C 0.52627 0.6693 0.42235 0.0
C667 C 0.51723 0.66528 0.44461 0.0
H668 H 0.8546 0.80087 0.75998 0.0
H669 H 0.90998 0.82642 0.81614 0.0
H670 H 0.93916 0.82677 0.78654 0.0
H671 H 0.88809 0.76438 0.72745 0.0
H672 H 0.87486 0.7709 0.69834 0.0
H673 H 0.85856 0.77199 0.72414 0.0
H674 H 0.85186 0.81384 0.71594 0.0
H675 H 0.86816 0.81289 0.69014 0.0
H676 H 0.87683 0.83485 0.7137 0.0
H677 H 0.96238 0.82399 0.7506 0.0
H678 H 0.97743 0.81994 0.71094 0.0
H679 H 0.90646 0.79766 0.67828 0.0
C680 C 0.87288 0.8064 0.7661 0.0
C681 C 0.88003 0.81351 0.79041 0.0
C682 C 0.9041 0.82089 0.79761 0.0
C683 C 0.92081 0.8211 0.78095 0.0
C684 C 0.91315 0.81406 0.7571 0.0
C685 C 0.88973 0.80697 0.74967 0.0
C686 C 0.88594 0.8009 0.7229 0.0
C687 C 0.8763 0.77554 0.71792 0.0
C688 C 0.86974 0.81656 0.70991 0.0
C689 C 0.91087 0.80568 0.71641 0.0
C690 C 0.92636 0.81309 0.73639 0.0
C691 C 0.95039 0.81828 0.73482 0.0
C692 C 0.95878 0.81589 0.71222 0.0
C693 C 0.94314 0.8086 0.69146 0.0
C694 C 0.91888 0.80345 0.69373 0.0
H695 H 0.06519 0.90746 0.51646 0.0
H696 H 0.01586 0.95783 0.51218 0.0
H697 H 0.99242 0.93649 0.54055 0.0
H698 H 0.02422 0.8586 0.51914 0.0
H699 H 0.04237 0.8446 0.54066 0.0
H700 H 0.05579 0.86428 0.52078 0.0
H701 H 0.07867 0.88808 0.55742 0.0
H702 H 0.0654 0.86839 0.57743 0.0
H703 H 0.06279 0.89849 0.58093 0.0
H704 H 0.97222 0.9075 0.56591 0.0
H705 H 0.95898 0.87509 0.59011 0.0
H706 H 0.02313 0.84541 0.58076 0.0
C707 C 0.04958 0.91411 0.5217 0.0
C708 C 0.04227 0.93425 0.51209 0.0
C709 C 0.02182 0.94248 0.51943 0.0
C710 C 0.00836 0.93045 0.53547 0.0
C711 C 0.01586 0.91047 0.54437 0.0
C712 C 0.03622 0.90257 0.5381 0.0
C713 C 0.0404 0.88067 0.55028 0.0
C714 C 0.0407 0.86087 0.5316 0.0
C715 C 0.06316 0.88412 0.56754 0.0
C716 C 0.01892 0.87719 0.56392 0.0
C717 C 0.00489 0.89447 0.56011 0.0
C718 C 0.98328 0.89411 0.56941 0.0
C719 C 0.97586 0.87562 0.58302 0.0
C720 C 0.9902 0.85801 0.58753 0.0
C721 C 0.01207 0.85894 0.57799 0.0
H722 H 0.13364 0.74599 0.75631 0.0
H723 H 0.181 0.80093 0.73171 0.0
H724 H 0.149 0.81054 0.70257 0.0
H725 H 0.10059 0.72907 0.69746 0.0
H726 H 0.0731 0.72329 0.7102 0.0
H727 H 0.10027 0.71957 0.7277 0.0
H728 H 0.09021 0.74703 0.76145 0.0
H729 H 0.06313 0.75097 0.744 0.0
H730 H 0.08398 0.77542 0.75434 0.0
H731 H 0.1112 0.81599 0.67826 0.0
H732 H 0.07057 0.81605 0.65952 0.0
H733 H 0.04791 0.75753 0.69996 0.0
C734 C 0.13742 0.7598 0.74453 0.0
C735 C 0.15986 0.77268 0.74627 0.0
C736 C 0.16398 0.79078 0.73068 0.0
C737 C 0.14591 0.79638 0.71406 0.0
C738 C 0.12387 0.78365 0.71318 0.0
C739 C 0.1196 0.76563 0.72786 0.0
C740 C 0.09409 0.75531 0.72405 0.0
C741 C 0.09189 0.73033 0.71426 0.0
C742 C 0.08216 0.75731 0.74734 0.0
C743 C 0.0846 0.77061 0.70524 0.0
C744 C 0.10208 0.78677 0.69913 0.0
C745 C 0.09741 0.80327 0.68273 0.0
C746 C 0.07425 0.80322 0.67225 0.0
C747 C 0.05605 0.78677 0.67823 0.0
C748 C 0.06143 0.77024 0.6949 0.0
H749 H 0.9303 0.6486 0.52056 0.0
H750 H 0.99612 0.62391 0.54575 0.0
H751 H 0.00664 0.6586 0.57272 0.0
H752 H 0.95292 0.70725 0.51952 0.0
H753 H 0.92715 0.71771 0.52956 0.0
H754 H 0.92454 0.6906 0.51295 0.0
H755 H 0.90455 0.67076 0.54746 0.0
H756 H 0.90707 0.69782 0.56417 0.0
H757 H 0.91923 0.67391 0.57762 0.0
H758 H 0.0103 0.69659 0.59616 0.0
H759 H 0.00683 0.73474 0.61431 0.0
H760 H 0.93853 0.73422 0.5735 0.0
C761 C 0.94689 0.65037 0.53182 0.0
C762 C 0.96239 0.63351 0.53105 0.0
C763 C 0.98395 0.63658 0.54605 0.0
C764 C 0.99008 0.65622 0.56142 0.0
C765 C 0.97442 0.67256 0.56161 0.0
C766 C 0.95326 0.6698 0.54722 0.0
C767 C 0.93971 0.69003 0.55043 0.0
C768 C 0.93587 0.70211 0.5267 0.0
C769 C 0.91625 0.68269 0.56053 0.0
C770 C 0.95663 0.70473 0.56876 0.0
C771 C 0.97652 0.69435 0.57504 0.0
C772 C 0.99476 0.70484 0.59143 0.0
C773 C 0.99263 0.72653 0.60162 0.0
C774 C 0.9724 0.73752 0.59535 0.0
C775 C 0.95419 0.72632 0.57874 0.0
H776 H 0.77622 0.85018 0.30199 0.0
H777 H 0.81398 0.83155 0.24215 0.0
H778 H 0.82671 0.8725 0.23719 0.0
H779 H 0.75672 0.9021 0.27772 0.0
H780 H 0.76052 0.91712 0.30679 0.0
H781 H 0.75321 0.8865 0.30449 0.0
H782 H 0.78985 0.88202 0.33403 0.0
H783 H 0.7972 0.91257 0.33649 0.0
H784 H 0.81841 0.89462 0.32746 0.0
H785 H 0.83714 0.91557 0.24049 0.0
H786 H 0.84526 0.95676 0.25244 0.0
H787 H 0.80019 0.94651 0.30985 0.0
C788 C 0.78701 0.85463 0.28768 0.0
C789 C 0.79409 0.83761 0.27245 0.0
C790 C 0.80831 0.84427 0.25404 0.0
C791 C 0.81556 0.86748 0.25103 0.0
C792 C 0.80833 0.88379 0.26648 0.0
C793 C 0.79434 0.87761 0.28442 0.0
C794 C 0.7898 0.89825 0.29938 0.0
C795 C 0.7635 0.90116 0.29694 0.0
C796 C 0.7994 0.89677 0.3259 0.0
C797 C 0.80384 0.91703 0.28741 0.0
C798 C 0.81423 0.90843 0.26833 0.0
C799 C 0.8289 0.92251 0.25526 0.0
C800 C 0.83339 0.94589 0.26217 0.0
C801 C 0.82331 0.95492 0.28204 0.0
C802 C 0.80801 0.94026 0.29445 0.0
H803 H 0.73703 0.14782 0.30491 0.0
H804 H 0.77953 0.19267 0.2622 0.0
H805 H 0.8067 0.16335 0.25898 0.0
H806 H 0.785 0.12562 0.33833 0.0
H807 H 0.76944 0.09732 0.3389 0.0
H808 H 0.7534 0.12177 0.33732 0.0
H809 H 0.72846 0.10354 0.29872 0.0
H810 H 0.74452 0.07909 0.30012 0.0
H811 H 0.74301 0.0951 0.2733 0.0
H812 H 0.82906 0.12829 0.26022 0.0
H813 H 0.84557 0.09192 0.26785 0.0
H814 H 0.78833 0.07114 0.31028 0.0
C815 C 0.75203 0.15152 0.29485 0.0
C816 C 0.75612 0.17253 0.28375 0.0
C817 C 0.77606 0.17671 0.27089 0.0
C818 C 0.79154 0.16012 0.26889 0.0
C819 C 0.78689 0.13951 0.27996 0.0
C820 C 0.76768 0.13528 0.29282 0.0
C821 C 0.76676 0.11206 0.30349 0.0
C822 C 0.76878 0.11434 0.33115 0.0
C823 C 0.74436 0.09654 0.29329 0.0
C824 C 0.78845 0.10382 0.29467 0.0
C825 C 0.79981 0.11975 0.28099 0.0
C826 C 0.8203 0.11572 0.27095 0.0
C827 C 0.82951 0.09499 0.2753 0.0
C828 C 0.81831 0.07868 0.28971 0.0
C829 C 0.79742 0.08324 0.29927 0.0
H830 H 0.38489 0.03918 0.99482 0.0
H831 H 0.33012 0.05653 0.94219 0.0
H832 H 0.30126 0.02867 0.95886 0.0
H833 H 0.3671 0.98026 0.98967 0.0
H834 H 0.37461 0.97534 0.02096 0.0
H835 H 0.39003 0.99894 0.00734 0.0
H836 H 0.37893 0.02692 0.04004 0.0
H837 H 0.36338 0.00334 0.05374 0.0
H838 H 0.34847 0.02737 0.04474 0.0
H839 H 0.27897 0.99759 0.97974 0.0
H840 H 0.26573 0.96268 -2e-05 0.0
H841 H 0.33572 0.96375 0.0372 0.0
C842 C 0.3667 0.03744 0.98719 0.0
C843 C 0.35958 0.05017 0.96747 0.0
C844 C 0.33583 0.04699 0.95741 0.0
C845 C 0.31932 0.03134 0.96685 0.0
C846 C 0.32695 0.01883 0.98616 0.0
C847 C 0.35013 0.02153 0.99605 0.0
C848 C 0.35433 0.00423 0.01487 0.0
C849 C 0.37259 0.98878 0.00777 0.0
C850 C 0.36171 0.01619 0.03983 0.0
C851 C 0.33001 0.99106 0.01365 0.0
C852 C 0.31435 1.00011 0.9974 0.0
C853 C 0.29103 0.99043 0.99262 0.0
C854 C 0.28366 0.97062 0.00427 0.0
C855 C 0.29968 0.96045 0.02017 0.0
C856 C 0.32303 0.97115 0.02522 0.0
H857 H 0.22498 0.36739 0.38062 0.0
H858 H 0.28739 0.41635 0.38053 0.0
H859 H 0.26225 0.44714 0.37279 0.0
H860 H 0.19018 0.39111 0.33307 0.0
H861 H 0.16321 0.38525 0.34675 0.0
H862 H 0.18625 0.36731 0.35217 0.0
H863 H 0.18642 0.37503 0.39815 0.0
H864 H 0.16346 0.39308 0.39287 0.0
H865 H 0.19063 0.4041 0.41048 0.0
H866 H 0.22978 0.47274 0.36553 0.0
H867 H 0.19302 0.49049 0.35811 0.0
H868 H 0.15247 0.42426 0.36294 0.0
C869 C 0.23344 0.38456 0.37893 0.0
C870 C 0.25818 0.38944 0.38121 0.0
C871 C 0.26846 0.41218 0.37883 0.0
C872 C 0.25433 0.42979 0.37447 0.0
C873 C 0.22997 0.42437 0.3725 0.0
C874 C 0.21965 0.40226 0.37456 0.0
C875 C 0.19312 0.40079 0.37163 0.0
C876 C 0.18258 0.3852 0.34959 0.0
C877 C 0.18281 0.39278 0.39466 0.0
C878 C 0.19005 0.42554 0.36765 0.0
C879 C 0.21146 0.43894 0.36825 0.0
C880 C 0.21292 0.46239 0.365 0.0
C881 C 0.19194 0.47233 0.36085 0.0
C882 C 0.16981 0.45881 0.35993 0.0
C883 C 0.16904 0.43513 0.36351 0.0
H884 H 0.15293 0.03738 0.49951 0.0
H885 H 0.15908 0.97993 0.45052 0.0
H886 H 0.20111 0.99352 0.44933 0.0
H887 H 0.18981 0.07861 0.47282 0.0
H888 H 0.20308 0.09302 0.50072 0.0
H889 H 0.1738 0.07814 0.49894 0.0
H890 H 0.18637 0.05389 0.53461 0.0
H891 H 0.21565 0.06888 0.53666 0.0
H892 H 0.21122 0.03811 0.53305 0.0
H893 H 0.24142 0.01528 0.45049 0.0
H894 H 0.27838 0.04157 0.45725 0.0
H895 H 0.24648 0.08379 0.50696 0.0
C896 C 0.16318 0.02748 0.48878 0.0
C897 C 0.15269 0.00761 0.47507 0.0
C898 C 0.16673 0.99514 0.46127 0.0
C899 C 0.19061 0.00276 0.4604 0.0
C900 C 0.20025 0.0227 0.47369 0.0
C901 C 0.18709 0.03468 0.48794 0.0
C902 C 0.20166 0.0557 0.5003 0.0
C903 C 0.19147 0.07766 0.49273 0.0
C904 C 0.20386 0.05403 0.52779 0.0
C905 C 0.22494 0.05391 0.4904 0.0
C906 C 0.22372 0.03481 0.47499 0.0
C907 C 0.24269 0.03012 0.46277 0.0
C908 C 0.26355 0.04522 0.46661 0.0
C909 C 0.26533 0.06464 0.48272 0.0
C910 C 0.24572 0.06895 0.49474 0.0
H911 H 0.69882 0.10986 0.7886 0.0
H912 H 0.64795 0.15866 0.78103 0.0
H913 H 0.61641 0.12826 0.78826 0.0
H914 H 0.66024 0.05981 0.7609 0.0
H915 H 0.67252 0.04076 0.78179 0.0
H916 H 0.69045 0.0658 0.7736 0.0
H917 H 0.69992 0.07891 0.81865 0.0
H918 H 0.68196 0.05401 0.82697 0.0
H919 H 0.67613 0.08211 0.83669 0.0
H920 H 0.59102 0.093 0.79936 0.0
H921 H 0.57404 0.05613 0.81359 0.0
H922 H 0.64202 0.03103 0.81422 0.0
C923 C 0.681 0.11414 0.78803 0.0
C924 C 0.67585 0.13665 0.78416 0.0
C925 C 0.65232 0.14152 0.78388 0.0
C926 C 0.63428 0.12436 0.78793 0.0
C927 C 0.64009 0.10244 0.79214 0.0
C928 C 0.66289 0.0973 0.79212 0.0
C929 C 0.66488 0.07286 0.79856 0.0
C930 C 0.67247 0.05899 0.77745 0.0
C931 C 0.68171 0.07194 0.82158 0.0
C932 C 0.63972 0.06513 0.80273 0.0
C933 C 0.62561 0.08232 0.79872 0.0
C934 C 0.60187 0.07936 0.80233 0.0
C935 C 0.59239 0.05836 0.81044 0.0
C936 C 0.60668 0.04066 0.815 0.0
C937 C 0.63058 0.04414 0.81081 0.0
H938 H 0.40378 0.98982 0.60094 0.0
H939 H 0.46532 0.99031 0.56195 0.0
H940 H 0.45439 0.02429 0.5411 0.0
H941 H 0.36516 0.00412 0.55363 0.0
H942 H 0.34969 0.0222 0.57153 0.0
H943 H 0.3636 0.99939 0.58512 0.0
H944 H 0.38738 0.02835 0.61707 0.0
H945 H 0.37352 0.0513 0.60353 0.0
H946 H 0.40512 0.05289 0.60745 0.0
H947 H 0.4341 0.05491 0.5208 0.0
H948 H 0.40687 0.08113 0.504 0.0
H949 H 0.35981 0.06234 0.5578 0.0
C950 C 0.41517 0.9973 0.58831 0.0
C951 C 0.43541 0.98739 0.58307 0.0
C952 C 0.44979 0.99764 0.56634 0.0
C953 C 0.44374 0.01697 0.55442 0.0
C954 C 0.42346 0.02607 0.5597 0.0
C955 C 0.40954 0.01676 0.57647 0.0
C956 C 0.38808 0.02915 0.57802 0.0
C957 C 0.3653 0.01274 0.57169 0.0
C958 C 0.38857 0.04113 0.603 0.0
C959 C 0.39167 0.04637 0.55891 0.0
C960 C 0.41223 0.04437 0.54861 0.0
C961 C 0.41823 0.05699 0.52908 0.0
C962 C 0.40265 0.0718 0.51962 0.0
C963 C 0.38147 0.07402 0.52986 0.0
C964 C 0.3762 0.06146 0.55005 0.0
H965 H 0.58674 0.45017 0.52554 0.0
H966 H 0.62861 0.50554 0.56936 0.0
H967 H 0.66278 0.48374 0.57088 0.0
H968 H 0.61079 0.40442 0.55593 0.0
H969 H 0.61025 0.38652 0.52896 0.0
H970 H 0.58921 0.4067 0.53076 0.0
H971 H 0.60239 0.42492 0.49212 0.0
H972 H 0.62345 0.40478 0.49018 0.0
H973 H 0.63298 0.43504 0.49085 0.0
H974 H 0.69232 0.45576 0.56808 0.0
H975 H 0.71508 0.42357 0.56127 0.0
H976 H 0.65397 0.38619 0.51951 0.0
C977 C 0.60312 0.45778 0.53537 0.0
C978 C 0.60497 0.47963 0.5473 0.0
C979 C 0.62672 0.48887 0.56006 0.0
C980 C 0.64625 0.47661 0.56103 0.0
C981 C 0.64379 0.45511 0.54917 0.0
C982 C 0.62279 0.44575 0.53658 0.0
C983 C 0.62475 0.42217 0.52569 0.0
C984 C 0.60774 0.40388 0.53596 0.0
C985 C 0.62065 0.42171 0.49807 0.0
C986 C 0.65011 0.4197 0.5342 0.0
C987 C 0.66079 0.43892 0.54767 0.0
C988 C 0.68414 0.44063 0.55754 0.0
C989 C 0.69693 0.42222 0.55357 0.0
C990 C 0.68636 0.40229 0.53986 0.0
C991 C 0.66261 0.40114 0.53008 0.0
H992 H 0.71328 0.2284 0.39196 0.0
H993 H 0.70006 0.28341 0.34506 0.0
H994 H 0.70206 0.31018 0.38056 0.0
H995 H 0.68183 0.246 0.44133 0.0
H996 H 0.70353 0.23854 0.46424 0.0
H997 H 0.69912 0.22322 0.43532 0.0
H998 H 0.7433 0.23298 0.42992 0.0
H999 H 0.74787 0.24799 0.45894 0.0
H1000 H 0.75629 0.26243 0.43274 0.0
H1001 H 0.7053 0.3309 0.42134 0.0
H1002 H 0.71639 0.34545 0.46355 0.0
H1003 H 0.73039 0.27755 0.48332 0.0
C1004 C 0.71069 0.24606 0.38922 0.0
C1005 C 0.70637 0.25386 0.36585 0.0
C1006 C 0.70347 0.27715 0.36287 0.0
C1007 C 0.70434 0.29241 0.38291 0.0
C1008 C 0.70844 0.28416 0.40577 0.0
C1009 C 0.71205 0.26163 0.409 0.0
C1010 C 0.71828 0.25758 0.4353 0.0
C1011 C 0.69957 0.24031 0.44458 0.0
C1012 C 0.7429 0.2498 0.43946 0.0
C1013 C 0.71782 0.28136 0.44633 0.0
C1014 C 0.71154 0.29634 0.4291 0.0
C1015 C 0.71023 0.31933 0.435 0.0
C1016 C 0.71637 0.32741 0.45902 0.0
C1017 C 0.72419 0.3126 0.47661 0.0
C1018 C 0.72437 0.28921 0.47021 0.0
H1019 H 0.48493 0.07108 0.91111 0.0
H1020 H 0.47689 0.04528 0.98175 0.0
H1021 H 0.51004 0.02268 0.97793 0.0
H1022 H 0.49592 0.02079 0.88337 0.0
H1023 H 0.51741 0.03366 0.86507 0.0
H1024 H 0.49519 0.04988 0.87476 0.0
H1025 H 0.52746 0.08145 0.89403 0.0
H1026 H 0.54983 0.06525 0.88435 0.0
H1027 H 0.55029 0.07395 0.91567 0.0
H1028 H 0.5398 0.99851 0.96358 0.0
H1029 H 0.5651 0.97642 0.94078 0.0
H1030 H 0.55532 0.0199 0.88068 0.0
C1031 C 0.49049 0.06103 0.92598 0.0
C1032 C 0.47855 0.06007 0.94683 0.0
C1033 C 0.48613 0.04662 0.96584 0.0
C1034 C 0.50488 0.03366 0.96377 0.0
C1035 C 0.51608 0.03471 0.94278 0.0
C1036 C 0.50937 0.04834 0.92436 0.0
C1037 C 0.52329 0.04549 0.9031 0.0
C1038 C 0.50698 0.03694 0.88024 0.0
C1039 C 0.53863 0.06787 0.89906 0.0
C1040 C 0.53818 0.0274 0.91198 0.0
C1041 C 0.53389 0.02145 0.93495 0.0
C1042 C 0.54376 0.00343 0.94585 0.0
C1043 C 0.55806 0.99095 0.93278 0.0
C1044 C 0.56248 0.99671 0.90917 0.0
C1045 C 0.55283 0.01552 0.89896 0.0
H1046 H 0.33854 0.25467 0.39723 0.0
H1047 H 0.32441 0.29665 0.45843 0.0
H1048 H 0.32565 0.26353 0.4839 0.0
H1049 H 0.30279 0.20446 0.41065 0.0
H1050 H 0.32228 0.18495 0.40098 0.0
H1051 H 0.32175 0.21227 0.38776 0.0
H1052 H 0.36658 0.22171 0.39959 0.0
H1053 H 0.36725 0.19439 0.41286 0.0
H1054 H 0.37829 0.2203 0.43055 0.0
H1055 H 0.32686 0.22578 0.50245 0.0
H1056 H 0.32732 0.18556 0.51276 0.0
H1057 H 0.34034 0.16769 0.43959 0.0
C1058 C 0.33595 0.25697 0.41604 0.0
C1059 C 0.33144 0.27833 0.42581 0.0
C1060 C 0.32789 0.2805 0.45048 0.0
C1061 C 0.32862 0.26179 0.46515 0.0
C1062 C 0.3329 0.24098 0.45492 0.0
C1063 C 0.3365 0.23842 0.43095 0.0
C1064 C 0.33984 0.21391 0.42429 0.0
C1065 C 0.32051 0.20328 0.40477 0.0
C1066 C 0.36446 0.2125 0.41636 0.0
C1067 C 0.33728 0.20308 0.44819 0.0
C1068 C 0.33344 0.21906 0.46563 0.0
C1069 C 0.32998 0.21312 0.48899 0.0
C1070 C 0.33026 0.19019 0.49465 0.0
C1071 C 0.33391 0.1734 0.47702 0.0
C1072 C 0.33765 0.18008 0.45354 0.0
H1073 H 0.50265 0.49437 0.89168 0.0
H1074 H 0.47214 0.47123 0.95576 0.0
H1075 H 0.43239 0.47179 0.93484 0.0
H1076 H 0.46169 0.5329 0.87517 0.0
H1077 H 0.46082 0.52668 0.84326 0.0
H1078 H 0.48688 0.52345 0.86282 0.0
H1079 H 0.48511 0.48131 0.84701 0.0
H1080 H 0.45912 0.48445 0.82727 0.0
H1081 H 0.45862 0.46202 0.84829 0.0
H1082 H 0.39612 0.47664 0.90767 0.0
H1083 H 0.36569 0.48378 0.87555 0.0
H1084 H 0.41994 0.50342 0.82905 0.0
C1085 C 0.48763 0.48921 0.90128 0.0
C1086 C 0.49051 0.48276 0.92538 0.0
C1087 C 0.47037 0.4762 0.93729 0.0
C1088 C 0.44773 0.47649 0.92557 0.0
C1089 C 0.44554 0.48327 0.90194 0.0
C1090 C 0.46493 0.48935 0.88986 0.0
C1091 C 0.45776 0.49631 0.86464 0.0
C1092 C 0.46736 0.52132 0.86129 0.0
C1093 C 0.46562 0.48005 0.84569 0.0
C1094 C 0.4313 0.49342 0.86452 0.0
C1095 C 0.42462 0.48589 0.8862 0.0
C1096 C 0.40112 0.48241 0.89056 0.0
C1097 C 0.38397 0.48659 0.8722 0.0
C1098 C 0.39039 0.49414 0.84973 0.0
C1099 C 0.41442 0.49759 0.84596 0.0
H1100 H 0.81734 0.71474 0.2043 0.0
H1101 H 0.74254 0.71956 0.19086 0.0
H1102 H 0.74144 0.69837 0.15176 0.0
H1103 H 0.83073 0.72259 0.14371 0.0
H1104 H 0.85216 0.70258 0.14471 0.0
H1105 H 0.84704 0.71774 0.17189 0.0
H1106 H 0.83813 0.67925 0.192 0.0
H1107 H 0.84324 0.66396 0.16488 0.0
H1108 H 0.81576 0.65777 0.17755 0.0
H1109 H 0.74843 0.67705 0.11412 0.0
H1110 H 0.763 0.65704 0.08021 0.0
H1111 H 0.83339 0.66618 0.11789 0.0
C1112 C 0.8007 0.71128 0.19318 0.0
C1113 C 0.78 0.71879 0.20066 0.0
C1114 C 0.75862 0.71398 0.18553 0.0
C1115 C 0.75781 0.70195 0.16329 0.0
C1116 C 0.77853 0.69486 0.15644 0.0
C1117 C 0.79958 0.69933 0.1709 0.0
C1118 C 0.81935 0.69001 0.15915 0.0
C1119 C 0.83844 0.70939 0.1546 0.0
C1120 C 0.82972 0.67166 0.1743 0.0
C1121 C 0.80611 0.67964 0.13578 0.0
C1122 C 0.78259 0.68261 0.13463 0.0
C1123 C 0.76681 0.6746 0.11482 0.0
C1124 C 0.77529 0.66324 0.09563 0.0
C1125 C 0.79936 0.66002 0.09635 0.0
C1126 C 0.81491 0.66836 0.11677 0.0
H1127 H 0.97962 0.08131 0.15331 0.0
H1128 H 0.98331 0.00949 0.13587 0.0
H1129 H 0.9585 0.99895 0.16829 0.0
H1130 H 0.98168 0.077 0.21795 0.0
H1131 H 0.96141 0.09772 0.22131 0.0
H1132 H 0.97996 0.09954 0.19719 0.0
H1133 H 0.94322 0.09861 0.16623 0.0
H1134 H 0.92455 0.09672 0.19023 0.0
H1135 H 0.91987 0.07535 0.16574 0.0
H1136 H 0.9323 0.99628 0.20181 0.0
H1137 H 0.90719 0.00154 0.23433 0.0
H1138 H 0.9208 0.07522 0.22999 0.0
C1139 C 0.97535 0.06335 0.15635 0.0
C1140 C 0.98344 0.04621 0.14201 0.0
C1141 C 0.97737 0.02292 0.14661 0.0
C1142 C 0.96328 0.01677 0.16499 0.0
C1143 C 0.95546 0.0341 0.17864 0.0
C1144 C 0.96135 0.05692 0.1746 0.0
C1145 C 0.95044 0.07223 0.19159 0.0
C1146 C 0.96951 0.08752 0.20798 0.0
C1147 C 0.93352 0.08657 0.17761 0.0
C1148 C 0.9373 0.05446 0.20572 0.0
C1149 C 0.94046 0.03258 0.19798 0.0
C1150 C 0.92978 0.01334 0.20807 0.0
C1151 C 0.91551 0.01653 0.22653 0.0
C1152 C 0.91201 0.03881 0.23478 0.0
C1153 C 0.92315 0.05798 0.22418 0.0
H1154 H 0.29909 0.82256 0.20499 0.0
H1155 H 0.23416 0.77737 0.18775 0.0
H1156 H 0.22377 0.80018 0.15284 0.0
H1157 H 0.27813 0.87599 0.18535 0.0
H1158 H 0.3048 0.88541 0.17238 0.0
H1159 H 0.3057 0.86744 0.19774 0.0
H1160 H 0.32561 0.83807 0.17365 0.0
H1161 H 0.32493 0.856 0.14834 0.0
H1162 H 0.3117 0.82666 0.14468 0.0
H1163 H 0.22092 0.82748 0.11944 0.0
H1164 H 0.22844 0.85318 0.08647 0.0
H1165 H 0.297 0.87824 0.12338 0.0
C1166 C 0.28251 0.81776 0.19406 0.0
C1167 C 0.2672 0.79849 0.19914 0.0
C1168 C 0.24601 0.7922 0.18412 0.0
C1169 C 0.23991 0.80513 0.16441 0.0
C1170 C 0.25543 0.82404 0.15977 0.0
C1171 C 0.27649 0.8301 0.17392 0.0
C1172 C 0.29125 0.84951 0.16351 0.0
C1173 C 0.29519 0.87085 0.18078 0.0
C1174 C 0.31475 0.84211 0.15717 0.0
C1175 C 0.27535 0.85324 0.14113 0.0
C1176 C 0.2545 0.8388 0.13965 0.0
C1177 C 0.23716 0.83889 0.12042 0.0
C1178 C 0.24153 0.85364 0.10184 0.0
C1179 C 0.26329 0.86768 0.10238 0.0
C1180 C 0.28018 0.86773 0.12253 0.0
H1181 H 0.01205 0.45288 0.17429 0.0
H1182 H 0.05295 0.50705 0.14075 0.0
H1183 H 0.07638 0.51794 0.17983 0.0
H1184 H 0.01083 0.4831 0.23159 0.0
H1185 H 0.01361 0.45799 0.24855 0.0
H1186 H 0.99953 0.4552 0.21818 0.0
H1187 H 0.0286 0.4272 0.20665 0.0
H1188 H 0.04282 0.42996 0.23695 0.0
H1189 H 0.05978 0.43602 0.21204 0.0
H1190 H 0.09559 0.52255 0.22263 0.0
H1191 H 0.10964 0.52006 0.26553 0.0
H1192 H 0.05671 0.46209 0.27041 0.0
C1193 C 0.02579 0.46718 0.17515 0.0
C1194 C 0.03059 0.4792 0.15447 0.0
C1195 C 0.04893 0.49762 0.15636 0.0
C1196 C 0.06231 0.50394 0.17848 0.0
C1197 C 0.0572 0.4916 0.19846 0.0
C1198 C 0.0394 0.47358 0.19697 0.0
C1199 C 0.0379 0.46261 0.22089 0.0
C1200 C 0.01405 0.46487 0.23036 0.0
C1201 C 0.04256 0.43746 0.21901 0.0
C1202 C 0.0577 0.47722 0.23609 0.0
C1203 C 0.06853 0.49394 0.22289 0.0
C1204 C 0.08724 0.50953 0.23314 0.0
C1205 C 0.09509 0.50797 0.25752 0.0
C1206 C 0.08434 0.49083 0.27134 0.0
C1207 C 0.0654 0.47531 0.26035 0.0
H1208 H 0.3609 0.71749 0.31184 0.0
H1209 H 0.37048 0.7706 0.26079 0.0
H1210 H 0.41297 0.77649 0.27432 0.0
H1211 H 0.39807 0.74545 0.35866 0.0
H1212 H 0.40959 0.72034 0.36996 0.0
H1213 H 0.38075 0.71785 0.35383 0.0
H1214 H 0.39272 0.68794 0.32366 0.0
H1215 H 0.42168 0.69032 0.33977 0.0
H1216 H 0.41829 0.69498 0.30801 0.0
H1217 H 0.45305 0.77989 0.29661 0.0
H1218 H 0.48781 0.78096 0.32631 0.0
H1219 H 0.45239 0.72549 0.36287 0.0
C1220 C 0.37199 0.72999 0.30306 0.0
C1221 C 0.36235 0.74351 0.28514 0.0
C1222 C 0.37745 0.75998 0.27447 0.0
C1223 C 0.40162 0.76338 0.28197 0.0
C1224 C 0.41044 0.75009 0.30005 0.0
C1225 C 0.39611 0.73364 0.31038 0.0
C1226 C 0.40954 0.72312 0.33096 0.0
C1227 C 0.39885 0.72694 0.35475 0.0
C1228 C 0.41062 0.69757 0.32525 0.0
C1229 C 0.4335 0.73679 0.33116 0.0
C1230 C 0.43371 0.75203 0.31296 0.0
C1231 C 0.45323 0.76777 0.31066 0.0
C1232 C 0.47287 0.76829 0.32767 0.0
C1233 C 0.47286 0.7532 0.3468 0.0
C1234 C 0.45309 0.7369 0.34817 0.0
H1235 H 0.00011 0.41238 0.00966 0.0
H1236 H 0.01066 0.37257 0.07275 0.0
H1237 H 0.01132 0.3381 0.04655 0.0
H1238 H 0.96208 0.36824 0.97309 0.0
H1239 H 0.9743 0.37585 0.94563 0.0
H1240 H 0.97418 0.39735 0.96938 0.0
H1241 H 0.01927 0.40724 0.96984 0.0
H1242 H 0.01954 0.3857 0.94619 0.0
H1243 H 0.03799 0.38494 0.97407 0.0
H1244 H 0.01167 0.3081 0.01364 0.0
H1245 H 0.01066 0.28438 0.97615 0.0
H1246 H 0.99991 0.34365 0.93444 0.0
C1247 C 0.00242 0.39639 0.01798 0.0
C1248 C 0.00533 0.3952 0.04328 0.0
C1249 C 0.00839 0.37394 0.05342 0.0
C1250 C 0.00881 0.35424 0.03869 0.0
C1251 C 0.00612 0.35606 0.01385 0.0
C1252 C 0.00289 0.37654 0.00354 0.0
C1253 C 0.00061 0.37384 0.97633 0.0
C1254 C 0.97635 0.37913 0.96547 0.0
C1255 C 0.02054 0.38882 0.96601 0.0
C1256 C 0.00315 0.34866 0.97298 0.0
C1257 C 0.00631 0.33873 0.99485 0.0
C1258 C 0.00915 0.31567 0.99639 0.0
C1259 C 0.00859 0.30234 0.97498 0.0
C1260 C 0.00521 0.31211 0.95231 0.0
C1261 C 0.00254 0.33563 0.95144 0.0
H1262 H 0.69425 0.79905 0.3547 0.0
H1263 H 0.70047 0.72764 0.33806 0.0
H1264 H 0.66377 0.71645 0.35656 0.0
H1265 H 0.66901 0.79153 0.41197 0.0
H1266 H 0.64987 0.81325 0.4062 0.0
H1267 H 0.67784 0.81522 0.3941 0.0
H1268 H 0.65691 0.81756 0.35116 0.0
H1269 H 0.62894 0.81562 0.36311 0.0
H1270 H 0.63382 0.79539 0.33968 0.0
H1271 H 0.62466 0.71355 0.37461 0.0
H1272 H 0.58618 0.71928 0.38856 0.0
H1273 H 0.60614 0.79272 0.39214 0.0
C1274 C 0.68818 0.78101 0.35527 0.0
C1275 C 0.7003 0.7642 0.34505 0.0
C1276 C 0.69151 0.74081 0.34587 0.0
C1277 C 0.67073 0.7343 0.35641 0.0
C1278 C 0.65905 0.75141 0.36604 0.0
C1279 C 0.66752 0.77428 0.36552 0.0
C1280 C 0.65097 0.78951 0.37537 0.0
C1281 C 0.66262 0.80318 0.39827 0.0
C1282 C 0.64214 0.80544 0.35618 0.0
C1283 C 0.63152 0.77169 0.38102 0.0
C1284 C 0.63657 0.74978 0.3759 0.0
C1285 C 0.62064 0.73063 0.37886 0.0
C1286 C 0.59885 0.73405 0.38683 0.0
C1287 C 0.59315 0.75645 0.39141 0.0
C1288 C 0.60995 0.77538 0.38883 0.0
H1289 H 0.03628 0.08576 0.98537 0.0
H1290 H 0.0354 0.12191 0.05438 0.0
H1291 H 0.03183 0.15773 0.03391 0.0
H1292 H 0.06923 0.13293 0.95665 0.0
H1293 H 0.05228 0.12658 0.92782 0.0
H1294 H 0.05678 0.10396 0.94794 0.0
H1295 H 0.01173 0.09299 0.94593 0.0
H1296 H 0.00709 0.11566 0.92596 0.0
H1297 H 0.99339 0.11442 0.95357 0.0
H1298 H 0.02567 0.18896 0.00639 0.0
H1299 H 0.01823 0.21426 0.97322 0.0
H1300 H 0.02284 0.15849 0.92146 0.0
C1301 C 0.03579 0.1013 0.99618 0.0
C1302 C 0.03619 0.10099 0.02152 0.0
C1303 C 0.03511 0.12165 0.03498 0.0
C1304 C 0.03312 0.14214 0.02352 0.0
C1305 C 0.03224 0.14177 0.99855 0.0
C1306 C 0.03366 0.12198 0.98499 0.0
C1307 C 0.03118 0.12624 0.9583 0.0
C1308 C 0.05371 0.12219 0.94702 0.0
C1309 C 0.00956 0.11145 0.94517 0.0
C1310 C 0.02777 0.1514 0.95906 0.0
C1311 C 0.02858 0.15998 0.9825 0.0
C1312 C 0.02519 0.18251 0.98794 0.0
C1313 C 0.02089 0.19674 0.96892 0.0
C1314 C 0.01997 0.18842 0.94468 0.0
C1315 C 0.02355 0.16542 0.93977 0.0
H1316 H 0.35695 0.32129 0.27976 0.0
H1317 H 0.41527 0.33246 0.336 0.0
H1318 H 0.44316 0.32969 0.30546 0.0
H1319 H 0.38068 0.28077 0.24314 0.0
H1320 H 0.3696 0.29161 0.21509 0.0
H1321 H 0.35433 0.29467 0.24137 0.0
H1322 H 0.35739 0.33849 0.23686 0.0
H1323 H 0.3727 0.33555 0.21056 0.0
H1324 H 0.38582 0.35453 0.23555 0.0
H1325 H 0.46454 0.32361 0.26887 0.0
H1326 H 0.47784 0.31675 0.22879 0.0
H1327 H 0.40565 0.31171 0.1964 0.0
C1328 C 0.37559 0.32317 0.28566 0.0
C1329 C 0.38394 0.32699 0.31027 0.0
C1330 C 0.40848 0.32955 0.31723 0.0
C1331 C 0.42445 0.32798 0.30003 0.0
C1332 C 0.41562 0.32414 0.27591 0.0
C1333 C 0.39177 0.32198 0.2687 0.0
C1334 C 0.38684 0.31811 0.24165 0.0
C1335 C 0.37199 0.29491 0.23493 0.0
C1336 C 0.37499 0.33785 0.2305 0.0
C1337 C 0.41161 0.31813 0.23479 0.0
C1338 C 0.42797 0.32151 0.2548 0.0
C1339 C 0.45191 0.32119 0.25304 0.0
C1340 C 0.4593 0.31725 0.23022 0.0
C1341 C 0.44282 0.31393 0.20946 0.0
C1342 C 0.41871 0.31456 0.21188 0.0
H1343 H 0.52141 0.41841 0.02295 0.0
H1344 H 0.59075 0.39608 0.02566 0.0
H1345 H 0.58088 0.37047 0.05809 0.0
H1346 H 0.51469 0.41645 0.0871 0.0
H1347 H 0.48396 0.40551 0.08213 0.0
H1348 H 0.49711 0.42345 0.06051 0.0
H1349 H 0.48304 0.39208 0.02677 0.0
H1350 H 0.46985 0.37407 0.04825 0.0
H1351 H 0.49103 0.36363 0.03029 0.0
H1352 H 0.5632 0.34669 0.0895 0.0
H1353 H 0.53815 0.32442 0.11572 0.0
H1354 H 0.47959 0.36085 0.09122 0.0
C1355 C 0.53462 0.40836 0.0306 0.0
C1356 C 0.55693 0.40936 0.02196 0.0
C1357 C 0.57358 0.3956 0.03207 0.0
C1358 C 0.56816 0.38108 0.05055 0.0
C1359 C 0.54595 0.38036 0.05855 0.0
C1360 C 0.52937 0.3935 0.0488 0.0
C1361 C 0.50629 0.38842 0.05954 0.0
C1362 C 0.50016 0.40973 0.07313 0.0
C1363 C 0.48638 0.37899 0.04005 0.0
C1364 C 0.51242 0.37023 0.0767 0.0
C1365 C 0.53548 0.36606 0.07608 0.0
C1366 C 0.54513 0.34983 0.09017 0.0
C1367 C 0.53075 0.33729 0.10505 0.0
C1368 C 0.50687 0.34084 0.10554 0.0
C1369 C 0.49774 0.35771 0.09128 0.0
H1370 H 0.61536 0.24562 0.27681 0.0
H1371 H 0.63994 0.19087 0.23569 0.0
H1372 H 0.61245 0.19796 0.20062 0.0
H1373 H 0.55483 0.23405 0.25373 0.0
H1374 H 0.55032 0.26379 0.25352 0.0
H1375 H 0.57222 0.25455 0.27501 0.0
H1376 H 0.60395 0.28393 0.26003 0.0
H1377 H 0.58216 0.29322 0.23844 0.0
H1378 H 0.6083 0.28345 0.22854 0.0
H1379 H 0.58207 0.21131 0.17005 0.0
H1380 H 0.55053 0.22888 0.14697 0.0
H1381 H 0.54602 0.27444 0.20878 0.0
C1382 C 0.61505 0.23511 0.26044 0.0
C1383 C 0.62984 0.21771 0.25896 0.0
C1384 C 0.62876 0.20429 0.23722 0.0
C1385 C 0.61324 0.20822 0.21721 0.0
C1386 C 0.59894 0.22558 0.21931 0.0
C1387 C 0.59968 0.23873 0.24042 0.0
C1388 C 0.58228 0.25607 0.23826 0.0
C1389 C 0.56382 0.25185 0.25619 0.0
C1390 C 0.59493 0.28062 0.2415 0.0
C1391 C 0.57154 0.25063 0.21262 0.0
C1392 C 0.58142 0.23307 0.20191 0.0
C1393 C 0.57422 0.22507 0.17826 0.0
C1394 C 0.55633 0.23519 0.16529 0.0
C1395 C 0.5458 0.25304 0.17606 0.0
C1396 C 0.55367 0.26084 0.20001 0.0
H1397 H 0.47645 0.13648 0.06734 0.0
H1398 H 0.40243 0.12413 0.04071 0.0
H1399 H 0.39531 0.15906 0.06304 0.0
H1400 H 0.46793 0.16112 0.12773 0.0
H1401 H 0.49373 0.18169 0.12826 0.0
H1402 H 0.49253 0.15429 0.11242 0.0
H1403 H 0.50164 0.17469 0.07359 0.0
H1404 H 0.50266 0.20208 0.08924 0.0
H1405 H 0.483 0.19521 0.06213 0.0
H1406 H 0.39706 0.19767 0.08379 0.0
H1407 H 0.40723 0.23606 0.10403 0.0
H1408 H 0.47972 0.22272 0.11839 0.0
C1409 C 0.45865 0.14082 0.06665 0.0
C1410 C 0.44001 0.12755 0.05225 0.0
C1411 C 0.41701 0.13398 0.05163 0.0
C1412 C 0.41276 0.15381 0.06427 0.0
C1413 C 0.43163 0.16688 0.0777 0.0
C1414 C 0.45407 0.16051 0.07928 0.0
C1415 C 0.47147 0.17824 0.09391 0.0
C1416 C 0.48203 0.16824 0.11695 0.0
C1417 C 0.49082 0.18814 0.07881 0.0
C1418 C 0.45544 0.19588 0.09964 0.0
C1419 C 0.43251 0.18896 0.0902 0.0
C1420 C 0.41486 0.20311 0.09166 0.0
C1421 C 0.42082 0.22491 0.10307 0.0
C1422 C 0.4442 0.23228 0.11295 0.0
C1423 C 0.46161 0.21741 0.11138 0.0
H1424 H 0.24162 0.34632 0.75427 0.0
H1425 H 0.28659 0.32476 0.70203 0.0
H1426 H 0.30743 0.3641 0.70375 0.0
H1427 H 0.23742 0.40367 0.73315 0.0
H1428 H 0.23797 0.41597 0.76324 0.0
H1429 H 0.22562 0.38669 0.75625 0.0
H1430 H 0.25397 0.37348 0.79048 0.0
H1431 H 0.26633 0.40267 0.7976 0.0
H1432 H 0.28518 0.38147 0.79075 0.0
H1433 H 0.32504 0.40564 0.71369 0.0
H1434 H 0.3382 0.44468 0.73152 0.0
H1435 H 0.28098 0.43795 0.77673 0.0
C1436 C 0.25568 0.34981 0.74294 0.0
C1437 C 0.26245 0.33241 0.72799 0.0
C1438 C 0.28104 0.33781 0.71359 0.0
C1439 C 0.29293 0.36012 0.7144 0.0
C1440 C 0.28589 0.37681 0.72957 0.0
C1441 C 0.26762 0.37184 0.74351 0.0
C1442 C 0.26409 0.39229 0.75928 0.0
C1443 C 0.23983 0.40011 0.75257 0.0
C1444 C 0.26762 0.38716 0.78611 0.0
C1445 C 0.28358 0.40949 0.75251 0.0
C1446 C 0.29587 0.40042 0.73519 0.0
C1447 C 0.31537 0.41296 0.72707 0.0
C1448 C 0.32269 0.43513 0.73728 0.0
C1449 C 0.31061 0.44444 0.7555 0.0
C1450 C 0.29055 0.43148 0.76275 0.0
H1451 H 0.25267 0.64775 0.8131 0.0
H1452 H 0.29904 0.69 0.77166 0.0
H1453 H 0.32013 0.6568 0.76333 0.0
H1454 H 0.29641 0.61582 0.84035 0.0
H1455 H 0.27691 0.58947 0.83919 0.0
H1456 H 0.26529 0.61645 0.84127 0.0
H1457 H 0.23682 0.60469 0.80278 0.0
H1458 H 0.24842 0.57769 0.80054 0.0
H1459 H 0.24848 0.59611 0.77554 0.0
H1460 H 0.33635 0.61855 0.75982 0.0
H1461 H 0.34693 0.57913 0.76263 0.0
H1462 H 0.28987 0.56267 0.80664 0.0
C1463 C 0.26722 0.65006 0.80222 0.0
C1464 C 0.27417 0.67149 0.793 0.0
C1465 C 0.29339 0.67375 0.77893 0.0
C1466 C 0.30545 0.65498 0.77405 0.0
C1467 C 0.2981 0.63407 0.78341 0.0
C1468 C 0.27946 0.63157 0.79725 0.0
C1469 C 0.27528 0.60747 0.80561 0.0
C1470 C 0.27868 0.60731 0.83324 0.0
C1471 C 0.2508 0.59581 0.79551 0.0
C1472 C 0.29453 0.59679 0.7944 0.0
C1473 C 0.30747 0.61231 0.78155 0.0
C1474 C 0.3263 0.60626 0.76982 0.0
C1475 C 0.33216 0.58382 0.77148 0.0
C1476 C 0.31927 0.56776 0.78486 0.0
C1477 C 0.30012 0.57445 0.79626 0.0
H1478 H 0.8386 0.49365 0.47973 0.0
H1479 H 0.89255 0.45917 0.45001 0.0
H1480 H 0.88178 0.42533 0.47317 0.0
H1481 H 0.84163 0.46851 0.53963 0.0
H1482 H 0.81018 0.4654 0.54011 0.0
H1483 H 0.82444 0.4883 0.52434 0.0
H1484 H 0.79755 0.47462 0.4853 0.0
H1485 H 0.78319 0.45181 0.50096 0.0
H1486 H 0.79634 0.44542 0.47394 0.0
H1487 H 0.86398 0.39476 0.49732 0.0
H1488 H 0.83726 0.36733 0.51669 0.0
H1489 H 0.79253 0.4203 0.52852 0.0
C1490 C 0.84842 0.47912 0.47861 0.0
C1491 C 0.8666 0.47898 0.46347 0.0
C1492 C 0.87865 0.45951 0.46168 0.0
C1493 C 0.87277 0.44034 0.47488 0.0
C1494 C 0.85458 0.44084 0.48948 0.0
C1495 C 0.84234 0.45957 0.49119 0.0
C1496 C 0.82167 0.45455 0.50578 0.0
C1497 C 0.82467 0.47012 0.52884 0.0
C1498 C 0.79831 0.45672 0.49058 0.0
C1499 C 0.82392 0.42992 0.51151 0.0
C1500 C 0.84339 0.4226 0.50245 0.0
C1501 C 0.84875 0.40031 0.50463 0.0
C1502 C 0.83343 0.38485 0.51571 0.0
C1503 C 0.81272 0.39161 0.52412 0.0
C1504 C 0.80827 0.41462 0.52244 0.0
H1505 H 0.72727 0.85564 0.89235 0.0
H1506 H 0.77477 0.89837 0.85247 0.0
H1507 H 0.74494 0.92517 0.84608 0.0
H1508 H 0.6746 0.86232 0.85537 0.0
H1509 H 0.6569 0.86259 0.88018 0.0
H1510 H 0.68224 0.84729 0.88196 0.0
H1511 H 0.69894 0.8704 0.92154 0.0
H1512 H 0.67367 0.88584 0.91985 0.0
H1513 H 0.70281 0.90121 0.92199 0.0
H1514 H 0.70932 0.94712 0.84384 0.0
H1515 H 0.67081 0.96161 0.84489 0.0
H1516 H 0.64717 0.90405 0.88619 0.0
C1517 C 0.7315 0.87065 0.8823 0.0
C1518 C 0.7534 0.87491 0.87294 0.0
C1519 C 0.75811 0.89473 0.85982 0.0
C1520 C 0.7413 0.91008 0.85615 0.0
C1521 C 0.71989 0.90534 0.8657 0.0
C1522 C 0.71497 0.88606 0.87845 0.0
C1523 C 0.69055 0.88455 0.88649 0.0
C1524 C 0.67517 0.86291 0.87533 0.0
C1525 C 0.69157 0.88557 0.9141 0.0
C1526 C 0.68237 0.90595 0.87617 0.0
C1527 C 0.69953 0.91781 0.86433 0.0
C1528 C 0.69579 0.93798 0.85312 0.0
C1529 C 0.67386 0.9461 0.85384 0.0
C1530 C 0.65592 0.93401 0.86564 0.0
C1531 C 0.66046 0.91377 0.87707 0.0
H1532 H 0.64888 0.49825 0.96753 0.0
H1533 H 0.61159 0.53848 0.01417 0.0
H1534 H 0.6468 0.56683 0.02215 0.0
H1535 H 0.70567 0.5087 0.00241 0.0
H1536 H 0.72177 0.5105 0.97638 0.0
H1537 H 0.69376 0.49308 0.97471 0.0
H1538 H 0.67854 0.51518 0.93835 0.0
H1539 H 0.70645 0.53279 0.94002 0.0
H1540 H 0.6798 0.54587 0.94128 0.0
H1541 H 0.68576 0.59063 0.0253 0.0
H1542 H 0.72638 0.6085 0.02369 0.0
H1543 H 0.73835 0.5536 0.97403 0.0
C1544 C 0.64817 0.51292 0.97957 0.0
C1545 C 0.62747 0.5161 0.9903 0.0
C1546 C 0.62722 0.53567 0.00575 0.0
C1547 C 0.64712 0.55188 0.01038 0.0
C1548 C 0.66711 0.54837 0.99932 0.0
C1549 C 0.66784 0.5294 0.98424 0.0
C1550 C 0.6915 0.52992 0.97444 0.0
C1551 C 0.70391 0.50933 0.98247 0.0
C1552 C 0.6889 0.53101 0.94689 0.0
C1553 C 0.70398 0.55211 0.98647 0.0
C1554 C 0.68956 0.56241 0.00076 0.0
C1555 C 0.69721 0.58278 0.01412 0.0
C1556 C 0.72033 0.59278 0.01308 0.0
C1557 C 0.73553 0.5825 0.99866 0.0
C1558 C 0.72709 0.562 0.985 0.0
H1559 H 0.22952 0.65608 0.27903 0.0
H1560 H 0.21972 0.69373 0.34482 0.0
H1561 H 0.19311 0.66089 0.35612 0.0
H1562 H 0.16943 0.62622 0.26795 0.0
H1563 H 0.17938 0.60026 0.25696 0.0
H1564 H 0.19588 0.62752 0.25306 0.0
H1565 H 0.23316 0.6135 0.27458 0.0
H1566 H 0.21675 0.5863 0.27875 0.0
H1567 H 0.2323 0.60295 0.30435 0.0
H1568 H 0.16998 0.62301 0.36168 0.0
H1569 H 0.151 0.58319 0.36056 0.0
H1570 H 0.1762 0.57021 0.29125 0.0
C1571 C 0.22144 0.65762 0.2956 0.0
C1572 C 0.22665 0.67753 0.31101 0.0
C1573 C 0.21595 0.67869 0.33269 0.0
C1574 C 0.20081 0.66012 0.33927 0.0
C1575 C 0.1965 0.64056 0.32394 0.0
C1576 C 0.20637 0.63924 0.30248 0.0
C1577 C 0.19983 0.61586 0.28981 0.0
C1578 C 0.18526 0.61758 0.26551 0.0
C1579 C 0.22182 0.60396 0.2867 0.0
C1580 C 0.18508 0.60411 0.30771 0.0
C1581 C 0.18326 0.61869 0.32721 0.0
C1582 C 0.1711 0.61149 0.34641 0.0
C1583 C 0.16045 0.58881 0.34563 0.0
C1584 C 0.16209 0.57356 0.32581 0.0
C1585 C 0.17455 0.58144 0.30662 0.0
H1586 H 0.9319 0.50156 0.0448 0.0
H1587 H 0.91368 0.49496 0.11785 0.0
H1588 H 0.88691 0.52458 0.11176 0.0
H1589 H 0.92941 0.5627 0.0413 0.0
H1590 H 0.91608 0.5603 0.01061 0.0
H1591 H 0.93511 0.5398 0.02121 0.0
H1592 H 0.90206 0.50673 0.00803 0.0
H1593 H 0.88298 0.5271 0.99731 0.0
H1594 H 0.87372 0.50707 0.01904 0.0
H1595 H 0.86226 0.55489 0.09778 0.0
H1596 H 0.83818 0.58084 0.07565 0.0
H1597 H 0.87039 0.56585 0.0108 0.0
C1598 C 0.92243 0.50654 0.05956 0.0
C1599 C 0.92497 0.49616 0.08187 0.0
C1600 C 0.91197 0.50274 0.10062 0.0
C1601 C 0.89684 0.51962 0.09738 0.0
C1602 C 0.89468 0.52951 0.07516 0.0
C1603 C 0.90688 0.52303 0.05646 0.0
C1604 C 0.90016 0.5352 0.03387 0.0
C1605 C 0.92146 0.5504 0.02631 0.0
C1606 C 0.88907 0.51799 0.01336 0.0
C1607 C 0.88221 0.54945 0.04278 0.0
C1608 C 0.87961 0.5462 0.06675 0.0
C1609 C 0.8641 0.55755 0.07899 0.0
C1610 C 0.85056 0.57232 0.06628 0.0
C1611 C 0.85234 0.57532 0.04148 0.0
C1612 C 0.86858 0.56386 0.02972 0.0
H1613 H 0.11536 0.98864 0.05322 0.0
H1614 H 0.07181 0.97106 0.98569 0.0
H1615 H 0.10029 0.94574 0.97341 0.0
H1616 H 0.17125 0.98948 0.02973 0.0
H1617 H 0.18501 0.97702 0.0556 0.0
H1618 H 0.16125 0.99384 0.05892 0.0
H1619 H 0.13834 0.95995 0.07811 0.0
H1620 H 0.162 0.943 0.07476 0.0
H1621 H 0.13257 0.93247 0.06199 0.0
H1622 H 0.13414 0.92289 0.96815 0.0
H1623 H 0.17028 0.90382 0.97068 0.0
H1624 H 0.19089 0.93537 0.04223 0.0
C1625 C 0.11182 0.97953 0.03582 0.0
C1626 C 0.09136 0.98191 0.02038 0.0
C1627 C 0.08734 0.96953 0.99782 0.0
C1628 C 0.10343 0.9551 0.99069 0.0
C1629 C 0.12338 0.95308 0.00637 0.0
C1630 C 0.12758 0.96489 0.0285 0.0
C1631 C 0.15024 0.95958 0.04209 0.0
C1632 C 0.16799 0.98127 0.04685 0.0
C1633 C 0.14549 0.94806 0.06563 0.0
C1634 C 0.15821 0.94302 0.0241 0.0
C1635 C 0.14252 0.93954 0.00357 0.0
C1636 C 0.14647 0.92539 0.9842 0.0
C1637 C 0.16706 0.91464 0.9858 0.0
C1638 C 0.18337 0.91795 0.00669 0.0
C1639 C 0.17868 0.93225 0.0261 0.0
loop_
_geom_bond_atom_site_label_1
_geom_bond_atom_site_label_2
_geom_bond_distance
_geom_bond_site_symmetry_2
_ccdc_geom_bond_type
O0 Cd1 2.300 . S
O0 C7 1.275 . S
Cd1 O0 2.300 . S
Cd1 O9 2.381 . S
Cd1 O10 2.378 . S
O2 Cd3 2.385 . S
O2 C7 1.255 . S
Cd3 O2 2.385 . S
Cd3 O4 2.317 . S
O4 Cd3 2.317 . S
O4 C5 1.232 1_455 S
C5 O4 1.232 1_655 S
C5 O6 1.218 . S
O6 C5 1.218 . S
C7 O0 1.275 . S
C7 O2 1.255 . S
C8 O9 1.231 1_565 S
C8 O10 1.247 1_565 S
O9 Cd1 2.381 . S
O9 C8 1.231 1_545 S
O10 Cd1 2.378 . S
O10 C8 1.247 1_545 S
O11 Cd12 2.300 . S
O11 C18 1.275 . S
Cd12 O11 2.300 . S
Cd12 O20 2.381 . S
Cd12 O21 2.378 . S
O13 Cd14 2.385 . S
O13 C18 1.255 . S
Cd14 O13 2.385 . S
Cd14 O15 2.317 . S
O15 Cd14 2.317 . S
O15 C16 1.232 . S
C16 O15 1.232 . S
C16 O17 1.218 . S
O17 C16 1.218 . S
C18 O11 1.275 . S
C18 O13 1.255 . S
C19 O20 1.258 . S
C19 O21 1.256 . S
O20 Cd12 2.381 . S
O20 C19 1.258 . S
O21 Cd12 2.378 . S
O21 C19 1.256 . S
O22 Cd23 2.300 . S
O22 C29 1.275 . S
Cd23 O22 2.300 . S
Cd23 O31 2.381 . S
Cd23 O32 2.378 . S
O24 Cd25 2.385 . S
O24 C29 1.255 . S
Cd25 O24 2.385 . S
Cd25 O26 2.317 . S
O26 Cd25 2.317 . S
O26 C27 1.232 . S
C27 O26 1.232 . S
C27 O28 1.218 . S
O28 C27 1.218 . S
C29 O22 1.275 . S
C29 O24 1.255 . S
C30 O31 1.258 . S
C30 O32 1.256 . S
O31 Cd23 2.381 . S
O31 C30 1.258 . S
O32 Cd23 2.378 . S
O32 C30 1.256 . S
O33 Cd34 2.300 . S
O33 C40 1.275 . S
Cd34 O33 2.300 . S
Cd34 O42 2.381 . S
Cd34 O43 2.378 . S
O35 Cd36 2.385 . S
O35 C40 1.255 . S
Cd36 O35 2.385 . S
Cd36 O37 2.317 . S
O37 Cd36 2.317 . S
O37 C38 1.232 . S
C38 O37 1.232 . S
C38 O39 1.218 . S
O39 C38 1.218 . S
C40 O33 1.275 . S
C40 O35 1.255 . S
C41 O42 1.258 . S
C41 O43 1.256 . S
O42 Cd34 2.381 . S
O42 C41 1.258 . S
O43 Cd34 2.378 . S
O43 C41 1.256 . S
O44 Cd45 2.300 . S
O44 C51 1.275 . S
Cd45 O44 2.300 . S
Cd45 O53 2.381 . S
Cd45 O54 2.378 . S
O46 Cd47 2.376 1_565 S
O46 C51 1.255 . S
Cd47 O46 2.376 1_545 S
Cd47 O48 2.303 1_545 S
O48 Cd47 2.303 1_565 S
O48 C49 1.232 . S
C49 O48 1.232 . S
C49 O50 1.218 1_565 S
O50 C49 1.218 1_545 S
C51 O44 1.275 . S
C51 O46 1.255 . S
C52 O53 1.258 . S
C52 O54 1.256 . S
O53 Cd45 2.381 . S
O53 C52 1.258 . S
O54 Cd45 2.378 . S
O54 C52 1.256 . S
O55 Cd56 2.300 . S
O55 C62 1.275 . S
Cd56 O55 2.300 . S
Cd56 O64 2.381 . S
Cd56 O65 2.378 . S
O57 Cd58 2.385 . S
O57 C62 1.255 . S
Cd58 O57 2.385 . S
Cd58 O59 2.317 . S
O59 Cd58 2.317 . S
O59 C60 1.232 . S
C60 O59 1.232 . S
C60 O61 1.218 . S
O61 C60 1.218 . S
C62 O55 1.275 . S
C62 O57 1.255 . S
C63 O64 1.258 . S
C63 O65 1.256 . S
O64 Cd56 2.381 . S
O64 C63 1.258 . S
O65 Cd56 2.378 . S
O65 C63 1.256 . S
O66 Cd67 2.300 . S
O66 C73 1.275 . S
Cd67 O66 2.300 . S
Cd67 O75 2.381 . S
Cd67 O76 2.378 . S
O68 Cd69 2.385 1_655 S
O68 C73 1.255 . S
Cd69 O68 2.385 1_455 S
Cd69 O70 2.317 1_455 S
O70 Cd69 2.317 1_655 S
O70 C71 1.232 . S
C71 O70 1.232 . S
C71 O72 1.218 1_655 S
O72 C71 1.218 1_455 S
C73 O66 1.275 . S
C73 O68 1.255 . S
C74 O75 1.258 . S
C74 O76 1.256 . S
O75 Cd67 2.381 . S
O75 C74 1.258 . S
O76 Cd67 2.378 . S
O76 C74 1.256 . S
O77 Cd78 2.300 . S
O77 C84 1.275 . S
Cd78 O77 2.300 . S
Cd78 O86 2.381 . S
Cd78 O87 2.378 . S
O79 Cd80 2.385 . S
O79 C84 1.255 . S
Cd80 O79 2.385 . S
Cd80 O81 2.317 . S
O81 Cd80 2.317 . S
O81 C82 1.232 . S
C82 O81 1.232 . S
C82 O83 1.218 . S
O83 C82 1.218 . S
C84 O77 1.275 . S
C84 O79 1.255 . S
C85 O86 1.258 . S
C85 O87 1.256 . S
O86 Cd78 2.381 . S
O86 C85 1.258 . S
O87 Cd78 2.378 . S
O87 C85 1.256 . S
O88 Cd89 2.300 . S
O88 C95 1.275 . S
Cd89 O88 2.300 . S
Cd89 O97 2.381 . S
Cd89 O98 2.378 . S
O90 Cd91 2.385 . S
O90 C95 1.255 . S
Cd91 O90 2.385 . S
Cd91 O92 2.317 . S
O92 Cd91 2.317 . S
O92 C93 1.232 . S
C93 O92 1.232 . S
C93 O94 1.218 . S
O94 C93 1.218 . S
C95 O88 1.275 . S
C95 O90 1.255 . S
C96 O97 1.258 . S
C96 O98 1.256 . S
O97 Cd89 2.381 . S
O97 C96 1.258 . S
O98 Cd89 2.378 . S
O98 C96 1.256 . S
O99 Cd100 2.300 . S
O99 C106 1.275 . S
Cd100 O99 2.300 . S
Cd100 O108 2.381 1_565 S
Cd100 O109 2.378 1_565 S
O101 Cd102 2.385 . S
O101 C106 1.255 . S
Cd102 O101 2.385 . S
Cd102 O103 2.317 . S
O103 Cd102 2.317 . S
O103 C104 1.232 . S
C104 O103 1.232 . S
C104 O105 1.218 . S
O105 C104 1.218 . S
C106 O99 1.275 . S
C106 O101 1.255 . S
C107 O108 1.258 . S
C107 O109 1.256 . S
O108 Cd100 2.381 1_545 S
O108 C107 1.258 . S
O109 Cd100 2.378 1_545 S
O109 C107 1.256 . S
O110 Cd111 2.300 . S
O110 C117 1.275 . S
Cd111 O110 2.300 . S
Cd111 O119 2.381 . S
Cd111 O120 2.378 . S
O112 Cd113 2.385 . S
O112 C117 1.255 . S
Cd113 O112 2.385 . S
Cd113 O114 2.317 . S
O114 Cd113 2.317 . S
O114 C115 1.232 . S
C115 O114 1.232 . S
C115 O116 1.218 . S
O116 C115 1.218 . S
C117 O110 1.275 . S
C117 O112 1.255 . S
C118 O119 1.258 . S
C118 O120 1.256 . S
O119 Cd111 2.381 . S
O119 C118 1.258 . S
O120 Cd111 2.378 . S
O120 C118 1.256 . S
O121 Cd122 2.300 . S
O121 C128 1.275 . S
Cd122 O121 2.300 . S
Cd122 O130 2.381 . S
Cd122 O131 2.378 . S
O123 Cd124 2.385 . S
O123 C128 1.255 . S
Cd124 O123 2.385 . S
Cd124 O125 2.317 . S
O125 Cd124 2.317 . S
O125 C126 1.232 . S
C126 O125 1.232 . S
C126 O127 1.218 . S
O127 C126 1.218 . S
C128 O121 1.275 . S
C128 O123 1.255 . S
C129 O130 1.258 . S
C129 O131 1.256 . S
O130 Cd122 2.381 . S
O130 C129 1.258 . S
O131 Cd122 2.378 . S
O131 C129 1.256 . S
O132 Cd133 2.300 . S
O132 C139 1.275 . S
Cd133 O132 2.300 . S
Cd133 O141 2.381 . S
Cd133 O142 2.378 . S
O134 Cd135 2.385 . S
O134 C139 1.255 . S
Cd135 O134 2.385 . S
Cd135 O136 2.317 . S
O136 Cd135 2.317 . S
O136 C137 1.232 . S
C137 O136 1.232 . S
C137 O138 1.218 . S
O138 C137 1.218 . S
C139 O132 1.275 . S
C139 O134 1.255 . S
C140 O141 1.258 . S
C140 O142 1.256 . S
O141 Cd133 2.381 . S
O141 C140 1.258 . S
O142 Cd133 2.378 . S
O142 C140 1.256 . S
O143 Cd144 2.300 1_556 S
O143 C150 1.275 . S
Cd144 O143 2.300 1_554 S
Cd144 O152 2.381 . S
Cd144 O153 2.378 . S
O145 Cd146 2.385 . S
O145 C150 1.255 . S
Cd146 O145 2.385 . S
Cd146 O147 2.317 . S
O147 Cd146 2.317 . S
O147 C148 1.232 . S
C148 O147 1.232 . S
C148 O149 1.218 . S
O149 C148 1.218 . S
C150 O143 1.275 . S
C150 O145 1.255 . S
C151 O152 1.258 . S
C151 O153 1.256 . S
O152 Cd144 2.381 . S
O152 C151 1.258 . S
O153 Cd144 2.378 . S
O153 C151 1.256 . S
O154 Cd155 2.300 . S
O154 C161 1.275 . S
Cd155 O154 2.300 . S
Cd155 O163 2.381 . S
Cd155 O164 2.378 . S
O156 Cd157 2.385 . S
O156 C161 1.255 . S
Cd157 O156 2.385 . S
Cd157 O158 2.317 . S
O158 Cd157 2.317 . S
O158 C159 1.232 . S
C159 O158 1.232 . S
C159 O160 1.218 . S
O160 C159 1.218 . S
C161 O154 1.275 . S
C161 O156 1.255 . S
C162 O163 1.258 . S
C162 O164 1.256 . S
O163 Cd155 2.381 . S
O163 C162 1.258 . S
O164 Cd155 2.378 . S
O164 C162 1.256 . S
O165 Cd166 2.300 . S
O165 C172 1.275 . S
Cd166 O165 2.300 . S
Cd166 O174 2.381 . S
Cd166 O175 2.378 1_556 S
O167 Cd168 2.385 1_556 S
O167 C172 1.255 . S
Cd168 O167 2.385 1_554 S
Cd168 O169 2.317 . S
O169 Cd168 2.317 . S
O169 C170 1.232 . S
C170 O169 1.232 . S
C170 O171 1.218 . S
O171 C170 1.218 . S
C172 O165 1.275 . S
C172 O167 1.255 . S
C173 O174 1.258 . S
C173 O175 1.256 1_556 S
O174 Cd166 2.381 . S
O174 C173 1.258 . S
O175 Cd166 2.378 1_554 S
O175 C173 1.256 1_554 S
Zn176 O179 2.031 . S
Zn176 O181 2.049 . S
Zn176 O186 2.067 1_554 S
Zn177 O178 1.962 . S
Zn177 O180 1.986 . S
Zn177 O182 1.996 . S
Zn177 O185 1.943 1_554 S
O178 Zn177 1.962 . S
O178 C183 1.254 . S
O179 Zn176 2.031 . S
O179 C183 1.269 . S
O180 Zn177 1.986 . S
O180 C187 1.262 . S
O181 Zn176 2.049 . S
O181 C189 1.260 . S
O182 Zn177 1.996 . S
O182 C189 1.257 . S
C183 O178 1.254 . S
C183 O179 1.269 . S
C184 O185 1.249 . S
C184 O186 1.270 . S
O185 Zn177 1.943 1_556 S
O185 C184 1.249 . S
O186 Zn176 2.067 1_556 S
O186 C184 1.270 . S
C187 O180 1.262 . S
C187 O188 1.232 . S
O188 C187 1.232 . S
C189 O181 1.260 . S
C189 O182 1.257 . S
Zn190 O193 2.031 . S
Zn190 O195 2.049 . S
Zn190 O200 2.067 . S
Zn191 O192 1.962 . S
Zn191 O194 1.986 . S
Zn191 O196 1.996 . S
Zn191 O199 1.943 . S
O192 Zn191 1.962 . S
O192 C197 1.254 . S
O193 Zn190 2.031 . S
O193 C197 1.269 . S
O194 Zn191 1.986 . S
O194 C201 1.262 . S
O195 Zn190 2.049 . S
O195 C203 1.260 . S
O196 Zn191 1.996 . S
O196 C203 1.257 . S
C197 O192 1.254 . S
C197 O193 1.269 . S
C198 O199 1.249 . S
C198 O200 1.270 . S
O199 Zn191 1.943 . S
O199 C198 1.249 . S
O200 Zn190 2.067 . S
O200 C198 1.270 . S
C201 O194 1.262 . S
C201 O202 1.232 . S
O202 C201 1.232 . S
C203 O195 1.260 . S
C203 O196 1.257 . S
Zn204 O207 2.031 1_556 S
Zn204 O209 2.049 . S
Zn204 O214 2.067 . S
Zn205 O206 1.962 . S
Zn205 O208 1.986 . S
Zn205 O210 1.996 1_554 S
Zn205 O213 1.943 . S
O206 Zn205 1.962 . S
O206 C211 1.254 . S
O207 Zn204 2.031 1_554 S
O207 C211 1.269 . S
O208 Zn205 1.986 . S
O208 C215 1.262 . S
O209 Zn204 2.049 . S
O209 C217 1.260 . S
O210 Zn205 1.996 1_556 S
O210 C217 1.257 . S
C211 O206 1.254 . S
C211 O207 1.269 . S
C212 O213 1.249 . S
C212 O214 1.270 1_554 S
O213 Zn205 1.943 . S
O213 C212 1.249 . S
O214 Zn204 2.067 . S
O214 C212 1.270 1_556 S
C215 O208 1.262 . S
C215 O216 1.232 . S
O216 C215 1.232 . S
C217 O209 1.260 . S
C217 O210 1.257 . S
Zn218 O221 2.031 . S
Zn218 O223 2.073 . S
Zn218 O228 2.067 1_545 S
Zn219 O220 1.962 . S
Zn219 O222 1.986 . S
Zn219 O224 1.996 . S
Zn219 O227 1.943 1_545 S
O220 Zn219 1.962 . S
O220 C225 1.254 . S
O221 Zn218 2.031 . S
O221 C225 1.269 . S
O222 Zn219 1.986 . S
O222 C229 1.262 . S
O223 Zn218 2.073 . S
O223 C231 1.273 . S
O224 Zn219 1.996 . S
O224 C231 1.257 . S
C225 O220 1.254 . S
C225 O221 1.269 . S
C226 O227 1.249 . S
C226 O228 1.270 . S
O227 Zn219 1.943 1_565 S
O227 C226 1.249 . S
O228 Zn218 2.067 1_565 S
O228 C226 1.270 . S
C229 O222 1.262 . S
C229 O230 1.232 . S
O230 C229 1.232 . S
C231 O223 1.273 . S
C231 O224 1.257 . S
Zn232 O235 2.031 . S
Zn232 O237 2.049 . S
Zn232 O242 2.067 . S
Zn233 O234 1.962 . S
Zn233 O236 1.986 . S
Zn233 O238 1.996 . S
Zn233 O241 1.943 . S
O234 Zn233 1.962 . S
O234 C239 1.254 . S
O235 Zn232 2.031 . S
O235 C239 1.269 . S
O236 Zn233 1.986 . S
O236 C243 1.262 . S
O237 Zn232 2.049 . S
O237 C245 1.260 . S
O238 Zn233 1.996 . S
O238 C245 1.257 . S
C239 O234 1.254 . S
C239 O235 1.269 . S
C240 O241 1.249 . S
C240 O242 1.270 . S
O241 Zn233 1.943 . S
O241 C240 1.249 . S
O242 Zn232 2.067 . S
O242 C240 1.270 . S
C243 O236 1.262 . S
C243 O244 1.232 . S
O244 C243 1.232 . S
C245 O237 1.260 . S
C245 O238 1.257 . S
Zn246 O249 2.031 . S
Zn246 O251 2.049 . S
Zn246 O256 2.067 . S
Zn247 O248 1.962 . S
Zn247 O250 1.986 . S
Zn247 O252 1.996 . S
Zn247 O255 1.943 . S
O248 Zn247 1.962 . S
O248 C253 1.254 . S
O249 Zn246 2.031 . S
O249 C253 1.269 . S
O250 Zn247 1.986 . S
O250 C257 1.262 . S
O251 Zn246 2.049 . S
O251 C259 1.260 . S
O252 Zn247 1.996 . S
O252 C259 1.257 . S
C253 O248 1.254 . S
C253 O249 1.269 . S
C254 O255 1.249 . S
C254 O256 1.270 . S
O255 Zn247 1.943 . S
O255 C254 1.249 . S
O256 Zn246 2.067 . S
O256 C254 1.270 . S
C257 O250 1.262 . S
C257 O258 1.232 . S
O258 C257 1.232 . S
C259 O251 1.260 . S
C259 O252 1.257 . S
Zn260 O263 2.031 . S
Zn260 O265 2.049 . S
Zn260 O270 2.067 . S
Zn261 O262 1.962 . S
Zn261 O264 1.986 . S
Zn261 O266 1.996 . S
Zn261 O269 1.943 . S
O262 Zn261 1.962 . S
O262 C267 1.254 . S
O263 Zn260 2.031 . S
O263 C267 1.269 . S
O264 Zn261 1.986 . S
O264 C271 1.262 . S
O265 Zn260 2.049 . S
O265 C273 1.260 . S
O266 Zn261 1.996 . S
O266 C273 1.257 . S
C267 O262 1.254 . S
C267 O263 1.269 . S
C268 O269 1.249 . S
C268 O270 1.270 . S
O269 Zn261 1.943 . S
O269 C268 1.249 . S
O270 Zn260 2.067 . S
O270 C268 1.270 . S
C271 O264 1.262 . S
C271 O272 1.232 . S
O272 C271 1.232 . S
C273 O265 1.260 . S
C273 O266 1.257 . S
Zn274 O277 2.031 . S
Zn274 O279 2.049 . S
Zn274 O284 2.067 . S
Zn275 O276 1.962 . S
Zn275 O278 1.986 . S
Zn275 O280 1.996 1_545 S
Zn275 O283 1.943 . S
O276 Zn275 1.962 . S
O276 C281 1.254 . S
O277 Zn274 2.031 . S
O277 C281 1.269 1_565 S
O278 Zn275 1.986 . S
O278 C285 1.262 . S
O279 Zn274 2.049 . S
O279 C287 1.260 . S
O280 Zn275 1.996 1_565 S
O280 C287 1.257 . S
C281 O276 1.254 . S
C281 O277 1.269 1_545 S
C282 O283 1.249 1_565 S
C282 O284 1.270 . S
O283 Zn275 1.943 . S
O283 C282 1.249 1_545 S
O284 Zn274 2.067 . S
O284 C282 1.270 . S
C285 O278 1.262 . S
C285 O286 1.232 . S
O286 C285 1.232 . S
C287 O279 1.260 . S
C287 O280 1.257 . S
Zn288 O291 2.031 . S
Zn288 O293 2.049 1_455 S
Zn288 O298 2.067 1_455 S
Zn289 O290 1.962 . S
Zn289 O292 1.986 . S
Zn289 O294 1.996 . S
Zn289 O297 1.943 1_455 S
O290 Zn289 1.962 . S
O290 C295 1.254 . S
O291 Zn288 2.031 . S
O291 C295 1.269 . S
O292 Zn289 1.986 . S
O292 C299 1.262 . S
O293 Zn288 2.049 1_655 S
O293 C301 1.260 1_655 S
O294 Zn289 1.996 . S
O294 C301 1.257 . S
C295 O290 1.254 . S
C295 O291 1.269 . S
C296 O297 1.249 . S
C296 O298 1.270 . S
O297 Zn289 1.943 1_655 S
O297 C296 1.249 . S
O298 Zn288 2.067 1_655 S
O298 C296 1.270 . S
C299 O292 1.262 . S
C299 O300 1.232 . S
O300 C299 1.232 . S
C301 O293 1.260 1_455 S
C301 O294 1.257 . S
Zn302 O305 2.031 . S
Zn302 O307 2.049 . S
Zn302 O312 2.067 . S
Zn303 O304 1.962 . S
Zn303 O306 1.986 . S
Zn303 O308 1.996 . S
Zn303 O311 1.943 . S
O304 Zn303 1.962 . S
O304 C309 1.254 . S
O305 Zn302 2.031 . S
O305 C309 1.269 . S
O306 Zn303 1.986 . S
O306 C313 1.262 . S
O307 Zn302 2.049 . S
O307 C315 1.260 . S
O308 Zn303 1.996 . S
O308 C315 1.257 . S
C309 O304 1.254 . S
C309 O305 1.269 . S
C310 O311 1.249 . S
C310 O312 1.270 . S
O311 Zn303 1.943 . S
O311 C310 1.249 . S
O312 Zn302 2.067 . S
O312 C310 1.270 . S
C313 O306 1.262 . S
C313 O314 1.232 . S
O314 C313 1.232 . S
C315 O307 1.260 . S
C315 O308 1.257 . S
Zn316 O319 2.031 1_655 S
Zn316 O321 2.049 . S
Zn316 O326 2.067 . S
Zn317 O318 1.962 . S
Zn317 O320 1.986 . S
Zn317 O322 1.996 1_455 S
Zn317 O325 1.943 . S
O318 Zn317 1.962 . S
O318 C323 1.254 . S
O319 Zn316 2.031 1_455 S
O319 C323 1.269 . S
O320 Zn317 1.986 . S
O320 C327 1.262 . S
O321 Zn316 2.049 . S
O321 C329 1.260 . S
O322 Zn317 1.996 1_655 S
O322 C329 1.257 . S
C323 O318 1.254 . S
C323 O319 1.269 . S
C324 O325 1.249 . S
C324 O326 1.270 1_455 S
O325 Zn317 1.943 . S
O325 C324 1.249 . S
O326 Zn316 2.067 . S
O326 C324 1.270 1_655 S
C327 O320 1.262 . S
C327 O328 1.232 . S
O328 C327 1.232 . S
C329 O321 1.260 . S
C329 O322 1.257 . S
Zn330 O333 2.031 . S
Zn330 O335 2.049 . S
Zn330 O340 2.067 . S
Zn331 O332 1.962 . S
Zn331 O334 1.986 . S
Zn331 O336 1.996 . S
Zn331 O339 1.943 . S
O332 Zn331 1.962 . S
O332 C337 1.254 . S
O333 Zn330 2.031 . S
O333 C337 1.269 . S
O334 Zn331 1.986 . S
O334 C341 1.262 . S
O335 Zn330 2.049 . S
O335 C343 1.260 . S
O336 Zn331 1.996 . S
O336 C343 1.257 . S
C337 O332 1.254 . S
C337 O333 1.269 . S
C338 O339 1.249 . S
C338 O340 1.270 . S
O339 Zn331 1.943 . S
O339 C338 1.249 . S
O340 Zn330 2.067 . S
O340 C338 1.270 . S
C341 O334 1.262 . S
C341 O342 1.232 . S
O342 C341 1.232 . S
C343 O335 1.260 . S
C343 O336 1.257 . S
H344 C356 0.930 . S
H345 C358 0.930 . S
H346 C359 0.930 . S
H347 C363 0.959 . S
H348 C363 0.959 . S
H349 C363 0.961 . S
H350 C364 0.960 . S
H351 C364 0.961 . S
H352 C364 0.959 . S
H353 C367 0.929 . S
H354 C368 0.931 . S
H355 C370 0.930 . S
C356 H344 0.930 . S
C356 C357 1.399 . S
C356 C361 1.399 . S
C357 C356 1.399 . S
C357 C358 1.376 . S
C358 H345 0.930 . S
C358 C357 1.376 . S
C358 C359 1.388 . S
C359 H346 0.930 . S
C359 C358 1.388 . S
C359 C360 1.390 . S
C360 C359 1.390 . S
C360 C361 1.394 . S
C360 C366 1.465 . S
C361 C356 1.399 . S
C361 C360 1.394 . S
C361 C362 1.516 . S
C362 C361 1.516 . S
C362 C363 1.502 . S
C362 C364 1.561 . S
C362 C365 1.526 . S
C363 H347 0.959 . S
C363 H348 0.959 . S
C363 H349 0.961 . S
C363 C362 1.502 . S
C364 H350 0.960 . S
C364 H351 0.961 . S
C364 H352 0.959 . S
C364 C362 1.561 . S
C365 C362 1.526 . S
C365 C366 1.396 . S
C365 C370 1.390 . S
C366 C360 1.465 . S
C366 C365 1.396 . S
C366 C367 1.399 . S
C367 H353 0.929 . S
C367 C366 1.399 . S
C367 C368 1.385 . S
C368 H354 0.931 . S
C368 C367 1.385 . S
C368 C369 1.389 . S
C369 C368 1.389 . S
C369 C370 1.387 . S
C370 H355 0.930 . S
C370 C365 1.390 . S
C370 C369 1.387 . S
H371 C383 0.930 . S
H372 C385 0.930 . S
H373 C386 0.930 . S
H374 C390 0.959 . S
H375 C390 0.959 . S
H376 C390 0.961 . S
H377 C391 0.960 . S
H378 C391 0.961 . S
H379 C391 0.959 . S
H380 C394 0.929 . S
H381 C395 0.931 . S
H382 C397 0.930 . S
C383 H371 0.930 . S
C383 C384 1.399 . S
C383 C388 1.399 . S
C384 C383 1.399 . S
C384 C385 1.376 . S
C385 H372 0.930 . S
C385 C384 1.376 . S
C385 C386 1.388 . S
C386 H373 0.930 . S
C386 C385 1.388 . S
C386 C387 1.390 . S
C387 C386 1.390 . S
C387 C388 1.394 . S
C387 C393 1.465 . S
C388 C383 1.399 . S
C388 C387 1.394 . S
C388 C389 1.516 . S
C389 C388 1.516 . S
C389 C390 1.502 . S
C389 C391 1.561 . S
C389 C392 1.526 . S
C390 H374 0.959 . S
C390 H375 0.959 . S
C390 H376 0.961 . S
C390 C389 1.502 . S
C391 H377 0.960 . S
C391 H378 0.961 . S
C391 H379 0.959 . S
C391 C389 1.561 . S
C392 C389 1.526 . S
C392 C393 1.396 . S
C392 C397 1.390 . S
C393 C387 1.465 . S
C393 C392 1.396 . S
C393 C394 1.399 . S
C394 H380 0.929 . S
C394 C393 1.399 . S
C394 C395 1.385 . S
C395 H381 0.931 . S
C395 C394 1.385 . S
C395 C396 1.389 . S
C396 C395 1.389 . S
C396 C397 1.387 . S
C397 H382 0.930 . S
C397 C392 1.390 . S
C397 C396 1.387 . S
H398 C410 0.930 . S
H399 C412 0.930 . S
H400 C413 0.930 . S
H401 C417 0.959 . S
H402 C417 0.959 . S
H403 C417 0.961 . S
H404 C418 0.960 . S
H405 C418 0.961 . S
H406 C418 0.959 . S
H407 C421 0.929 . S
H408 C422 0.931 . S
H409 C424 0.930 . S
C410 H398 0.930 . S
C410 C411 1.399 . S
C410 C415 1.399 . S
C411 C410 1.399 . S
C411 C412 1.376 . S
C412 H399 0.930 . S
C412 C411 1.376 . S
C412 C413 1.388 . S
C413 H400 0.930 . S
C413 C412 1.388 . S
C413 C414 1.390 . S
C414 C413 1.390 . S
C414 C415 1.394 . S
C414 C420 1.465 . S
C415 C410 1.399 . S
C415 C414 1.394 . S
C415 C416 1.516 . S
C416 C415 1.516 . S
C416 C417 1.502 . S
C416 C418 1.561 . S
C416 C419 1.526 . S
C417 H401 0.959 . S
C417 H402 0.959 . S
C417 H403 0.961 . S
C417 C416 1.502 . S
C418 H404 0.960 . S
C418 H405 0.961 . S
C418 H406 0.959 . S
C418 C416 1.561 . S
C419 C416 1.526 . S
C419 C420 1.396 . S
C419 C424 1.390 . S
C420 C414 1.465 . S
C420 C419 1.396 . S
C420 C421 1.399 . S
C421 H407 0.929 . S
C421 C420 1.399 . S
C421 C422 1.385 . S
C422 H408 0.931 . S
C422 C421 1.385 . S
C422 C423 1.389 . S
C423 C422 1.389 . S
C423 C424 1.387 . S
C424 H409 0.930 . S
C424 C419 1.390 . S
C424 C423 1.387 . S
H425 C437 0.930 1_545 S
H426 C439 0.930 . S
H427 C440 0.930 . S
H428 C444 0.959 . S
H429 C444 0.959 . S
H430 C444 0.951 1_455 S
H431 C445 0.960 . S
H432 C445 0.961 1_655 S
H433 C445 0.959 . S
H434 C448 0.929 . S
H435 C449 0.931 . S
H436 C451 0.930 . S
C437 H425 0.930 1_565 S
C437 C438 1.399 . S
C437 C442 1.399 1_455 S
C438 C437 1.399 . S
C438 C439 1.376 . S
C439 H426 0.930 . S
C439 C438 1.376 . S
C439 C440 1.388 1_455 S
C440 H427 0.930 . S
C440 C439 1.388 1_655 S
C440 C441 1.390 . S
C441 C440 1.390 . S
C441 C442 1.394 . S
C441 C447 1.465 . S
C442 C437 1.399 1_655 S
C442 C441 1.394 . S
C442 C443 1.516 1_565 S
C443 C442 1.516 1_545 S
C443 C444 1.502 . S
C443 C445 1.561 1_655 S
C443 C446 1.526 . S
C444 H428 0.959 . S
C444 H429 0.959 . S
C444 H430 0.951 1_655 S
C444 C443 1.502 . S
C445 H431 0.960 . S
C445 H432 0.961 1_455 S
C445 H433 0.959 . S
C445 C443 1.561 1_455 S
C446 C443 1.526 . S
C446 C447 1.396 1_545 S
C446 C451 1.390 . S
C447 C441 1.465 . S
C447 C446 1.396 1_565 S
C447 C448 1.399 . S
C448 H434 0.929 . S
C448 C447 1.399 . S
C448 C449 1.385 . S
C449 H435 0.931 . S
C449 C448 1.385 . S
C449 C450 1.390 . S
C450 C449 1.390 . S
C450 C451 1.386 1_565 S
C451 H436 0.930 . S
C451 C446 1.390 . S
C451 C450 1.386 1_545 S
H452 C464 0.930 . S
H453 C466 0.930 . S
H454 C467 0.930 . S
H455 C471 0.959 . S
H456 C471 0.959 . S
H457 C471 0.961 . S
H458 C472 0.960 . S
H459 C472 0.961 . S
H460 C472 0.959 . S
H461 C475 0.929 . S
H462 C476 0.931 . S
H463 C478 0.930 . S
C464 H452 0.930 . S
C464 C465 1.399 . S
C464 C469 1.399 . S
C465 C464 1.399 . S
C465 C466 1.376 . S
C466 H453 0.930 . S
C466 C465 1.376 . S
C466 C467 1.388 . S
C467 H454 0.930 . S
C467 C466 1.388 . S
C467 C468 1.390 . S
C468 C467 1.390 . S
C468 C469 1.394 . S
C468 C474 1.465 . S
C469 C464 1.399 . S
C469 C468 1.394 . S
C469 C470 1.516 . S
C470 C469 1.516 . S
C470 C471 1.502 . S
C470 C472 1.561 . S
C470 C473 1.526 . S
C471 H455 0.959 . S
C471 H456 0.959 . S
C471 H457 0.961 . S
C471 C470 1.502 . S
C472 H458 0.960 . S
C472 H459 0.961 . S
C472 H460 0.959 . S
C472 C470 1.561 . S
C473 C470 1.526 . S
C473 C474 1.396 . S
C473 C478 1.390 . S
C474 C468 1.465 . S
C474 C473 1.396 . S
C474 C475 1.399 . S
C475 H461 0.929 . S
C475 C474 1.399 . S
C475 C476 1.385 . S
C476 H462 0.931 . S
C476 C475 1.385 . S
C476 C477 1.389 . S
C477 C476 1.389 . S
C477 C478 1.387 . S
C478 H463 0.930 . S
C478 C473 1.390 . S
C478 C477 1.387 . S
H479 C491 0.930 . S
H480 C493 0.930 . S
H481 C494 0.930 . S
H482 C498 0.959 . S
H483 C498 0.959 . S
H484 C498 0.961 . S
H485 C499 0.960 . S
H486 C499 0.961 . S
H487 C499 0.959 . S
H488 C502 0.929 . S
H489 C503 0.931 . S
H490 C505 0.930 . S
C491 H479 0.930 . S
C491 C492 1.399 . S
C491 C496 1.399 . S
C492 C491 1.399 . S
C492 C493 1.376 . S
C493 H480 0.930 . S
C493 C492 1.376 . S
C493 C494 1.388 . S
C494 H481 0.930 . S
C494 C493 1.388 . S
C494 C495 1.390 . S
C495 C494 1.390 . S
C495 C496 1.394 . S
C495 C501 1.465 . S
C496 C491 1.399 . S
C496 C495 1.394 . S
C496 C497 1.516 . S
C497 C496 1.516 . S
C497 C498 1.502 . S
C497 C499 1.561 . S
C497 C500 1.526 . S
C498 H482 0.959 . S
C498 H483 0.959 . S
C498 H484 0.961 . S
C498 C497 1.502 . S
C499 H485 0.960 . S
C499 H486 0.961 . S
C499 H487 0.959 . S
C499 C497 1.561 . S
C500 C497 1.526 . S
C500 C501 1.396 . S
C500 C505 1.390 . S
C501 C495 1.465 . S
C501 C500 1.396 . S
C501 C502 1.399 . S
C502 H488 0.929 . S
C502 C501 1.399 . S
C502 C503 1.385 . S
C503 H489 0.931 . S
C503 C502 1.385 . S
C503 C504 1.389 . S
C504 C503 1.389 . S
C504 C505 1.387 . S
C505 H490 0.930 . S
C505 C500 1.390 . S
C505 C504 1.387 . S
H506 C518 0.930 . S
H507 C520 0.930 . S
H508 C521 0.930 . S
H509 C525 0.959 . S
H510 C525 0.959 . S
H511 C525 0.961 . S
H512 C526 0.960 . S
H513 C526 0.961 . S
H514 C526 0.959 . S
H515 C529 0.929 . S
H516 C530 0.931 . S
H517 C532 0.930 . S
C518 H506 0.930 . S
C518 C519 1.399 . S
C518 C523 1.399 . S
C519 C518 1.399 . S
C519 C520 1.376 . S
C520 H507 0.930 . S
C520 C519 1.376 . S
C520 C521 1.388 . S
C521 H508 0.930 . S
C521 C520 1.388 . S
C521 C522 1.390 . S
C522 C521 1.390 . S
C522 C523 1.394 . S
C522 C528 1.465 . S
C523 C518 1.399 . S
C523 C522 1.394 . S
C523 C524 1.516 . S
C524 C523 1.516 . S
C524 C525 1.502 . S
C524 C526 1.561 . S
C524 C527 1.526 . S
C525 H509 0.959 . S
C525 H510 0.959 . S
C525 H511 0.961 . S
C525 C524 1.502 . S
C526 H512 0.960 . S
C526 H513 0.961 . S
C526 H514 0.959 . S
C526 C524 1.561 . S
C527 C524 1.526 . S
C527 C528 1.396 . S
C527 C532 1.390 . S
C528 C522 1.465 . S
C528 C527 1.396 . S
C528 C529 1.399 . S
C529 H515 0.929 . S
C529 C528 1.399 . S
C529 C530 1.385 . S
C530 H516 0.931 . S
C530 C529 1.385 . S
C530 C531 1.389 . S
C531 C530 1.389 . S
C531 C532 1.387 . S
C532 H517 0.930 . S
C532 C527 1.390 . S
C532 C531 1.387 . S
H533 C545 0.930 1_545 S
H534 C547 0.930 . S
H535 C548 0.930 . S
H536 C552 0.959 . S
H537 C552 0.959 . S
H538 C552 0.961 . S
H539 C553 0.960 . S
H540 C553 0.961 . S
H541 C553 0.959 . S
H542 C556 0.929 . S
H543 C557 0.931 . S
H544 C559 0.930 . S
C545 H533 0.930 1_565 S
C545 C546 1.399 . S
C545 C550 1.399 . S
C546 C545 1.399 . S
C546 C547 1.376 . S
C547 H534 0.930 . S
C547 C546 1.376 . S
C547 C548 1.388 . S
C548 H535 0.930 . S
C548 C547 1.388 . S
C548 C549 1.390 . S
C549 C548 1.390 . S
C549 C550 1.394 . S
C549 C555 1.465 . S
C550 C545 1.399 . S
C550 C549 1.394 . S
C550 C551 1.516 1_565 S
C551 C550 1.516 1_545 S
C551 C552 1.502 . S
C551 C553 1.561 . S
C551 C554 1.526 1_545 S
C552 H536 0.959 . S
C552 H537 0.959 . S
C552 H538 0.961 . S
C552 C551 1.502 . S
C553 H539 0.960 . S
C553 H540 0.961 . S
C553 H541 0.959 . S
C553 C551 1.561 . S
C554 C551 1.526 1_565 S
C554 C555 1.396 . S
C554 C559 1.390 1_565 S
C555 C549 1.465 . S
C555 C554 1.396 . S
C555 C556 1.399 . S
C556 H542 0.929 . S
C556 C555 1.399 . S
C556 C557 1.385 . S
C557 H543 0.931 . S
C557 C556 1.385 . S
C557 C558 1.389 . S
C558 C557 1.389 . S
C558 C559 1.387 1_565 S
C559 H544 0.930 . S
C559 C554 1.390 1_545 S
C559 C558 1.387 1_545 S
H560 C572 0.930 . S
H561 C574 0.930 . S
H562 C575 0.930 . S
H563 C579 0.959 . S
H564 C579 0.959 . S
H565 C579 0.961 . S
H566 C580 0.960 . S
H567 C580 0.961 . S
H568 C580 0.959 . S
H569 C583 0.929 . S
H570 C584 0.931 . S
H571 C586 0.930 . S
C572 H560 0.930 . S
C572 C573 1.399 . S
C572 C577 1.399 . S
C573 C572 1.399 . S
C573 C574 1.376 . S
C574 H561 0.930 . S
C574 C573 1.376 . S
C574 C575 1.388 . S
C575 H562 0.930 . S
C575 C574 1.388 . S
C575 C576 1.390 . S
C576 C575 1.390 . S
C576 C577 1.394 . S
C576 C582 1.465 . S
C577 C572 1.399 . S
C577 C576 1.394 . S
C577 C578 1.516 . S
C578 C577 1.516 . S
C578 C579 1.502 . S
C578 C580 1.561 . S
C578 C581 1.526 . S
C579 H563 0.959 . S
C579 H564 0.959 . S
C579 H565 0.961 . S
C579 C578 1.502 . S
C580 H566 0.960 . S
C580 H567 0.961 . S
C580 H568 0.959 . S
C580 C578 1.561 . S
C581 C578 1.526 . S
C581 C582 1.396 . S
C581 C586 1.390 . S
C582 C576 1.465 . S
C582 C581 1.396 . S
C582 C583 1.399 . S
C583 H569 0.929 . S
C583 C582 1.399 . S
C583 C584 1.385 . S
C584 H570 0.931 . S
C584 C583 1.385 . S
C584 C585 1.389 . S
C585 C584 1.389 . S
C585 C586 1.387 . S
C586 H571 0.930 . S
C586 C581 1.390 . S
C586 C585 1.387 . S
H587 C599 0.930 . S
H588 C601 0.930 . S
H589 C602 0.930 . S
H590 C606 0.959 . S
H591 C606 0.959 . S
H592 C606 0.961 . S
H593 C607 0.960 . S
H594 C607 0.961 . S
H595 C607 0.959 . S
H596 C610 0.929 . S
H597 C611 0.931 . S
H598 C613 0.930 . S
C599 H587 0.930 . S
C599 C600 1.399 . S
C599 C604 1.399 . S
C600 C599 1.399 . S
C600 C601 1.376 . S
C601 H588 0.930 . S
C601 C600 1.376 . S
C601 C602 1.388 . S
C602 H589 0.930 . S
C602 C601 1.388 . S
C602 C603 1.390 . S
C603 C602 1.390 . S
C603 C604 1.394 . S
C603 C609 1.465 . S
C604 C599 1.399 . S
C604 C603 1.394 . S
C604 C605 1.516 . S
C605 C604 1.516 . S
C605 C606 1.502 . S
C605 C607 1.561 . S
C605 C608 1.526 . S
C606 H590 0.959 . S
C606 H591 0.959 . S
C606 H592 0.961 . S
C606 C605 1.502 . S
C607 H593 0.960 . S
C607 H594 0.961 . S
C607 H595 0.959 . S
C607 C605 1.561 . S
C608 C605 1.526 . S
C608 C609 1.396 . S
C608 C613 1.390 . S
C609 C603 1.465 . S
C609 C608 1.396 . S
C609 C610 1.399 . S
C610 H596 0.929 . S
C610 C609 1.399 . S
C610 C611 1.385 . S
C611 H597 0.931 . S
C611 C610 1.385 . S
C611 C612 1.389 . S
C612 C611 1.389 . S
C612 C613 1.387 . S
C613 H598 0.930 . S
C613 C608 1.390 . S
C613 C612 1.387 . S
H614 C626 0.930 . S
H615 C628 0.930 . S
H616 C629 0.930 . S
H617 C633 0.959 . S
H618 C633 0.959 . S
H619 C633 0.961 . S
H620 C634 0.960 . S
H621 C634 0.961 . S
H622 C634 0.959 . S
H623 C637 0.929 . S
H624 C638 0.931 . S
H625 C640 0.930 . S
C626 H614 0.930 . S
C626 C627 1.399 . S
C626 C631 1.399 . S
C627 C626 1.399 . S
C627 C628 1.376 . S
C628 H615 0.930 . S
C628 C627 1.376 . S
C628 C629 1.388 . S
C629 H616 0.930 . S
C629 C628 1.388 . S
C629 C630 1.390 . S
C630 C629 1.390 . S
C630 C631 1.394 . S
C630 C636 1.465 . S
C631 C626 1.399 . S
C631 C630 1.394 . S
C631 C632 1.516 . S
C632 C631 1.516 . S
C632 C633 1.502 . S
C632 C634 1.561 . S
C632 C635 1.526 . S
C633 H617 0.959 . S
C633 H618 0.959 . S
C633 H619 0.961 . S
C633 C632 1.502 . S
C634 H620 0.960 . S
C634 H621 0.961 . S
C634 H622 0.959 . S
C634 C632 1.561 . S
C635 C632 1.526 . S
C635 C636 1.396 . S
C635 C640 1.390 . S
C636 C630 1.465 . S
C636 C635 1.396 . S
C636 C637 1.399 . S
C637 H623 0.929 . S
C637 C636 1.399 . S
C637 C638 1.385 . S
C638 H624 0.931 . S
C638 C637 1.385 . S
C638 C639 1.389 . S
C639 C638 1.389 . S
C639 C640 1.387 . S
C640 H625 0.930 . S
C640 C635 1.390 . S
C640 C639 1.387 . S
H641 C653 0.930 . S
H642 C655 0.930 . S
H643 C656 0.930 . S
H644 C660 0.959 . S
H645 C660 0.959 . S
H646 C660 0.961 . S
H647 C661 0.960 . S
H648 C661 0.961 . S
H649 C661 0.959 . S
H650 C664 0.929 . S
H651 C665 0.931 . S
H652 C667 0.930 . S
C653 H641 0.930 . S
C653 C654 1.399 . S
C653 C658 1.399 . S
C654 C653 1.399 . S
C654 C655 1.376 . S
C655 H642 0.930 . S
C655 C654 1.376 . S
C655 C656 1.388 . S
C656 H643 0.930 . S
C656 C655 1.388 . S
C656 C657 1.390 . S
C657 C656 1.390 . S
C657 C658 1.394 . S
C657 C663 1.465 . S
C658 C653 1.399 . S
C658 C657 1.394 . S
C658 C659 1.516 . S
C659 C658 1.516 . S
C659 C660 1.502 . S
C659 C661 1.561 . S
C659 C662 1.526 . S
C660 H644 0.959 . S
C660 H645 0.959 . S
C660 H646 0.961 . S
C660 C659 1.502 . S
C661 H647 0.960 . S
C661 H648 0.961 . S
C661 H649 0.959 . S
C661 C659 1.561 . S
C662 C659 1.526 . S
C662 C663 1.396 . S
C662 C667 1.390 . S
C663 C657 1.465 . S
C663 C662 1.396 . S
C663 C664 1.399 . S
C664 H650 0.929 . S
C664 C663 1.399 . S
C664 C665 1.385 . S
C665 H651 0.931 . S
C665 C664 1.385 . S
C665 C666 1.389 . S
C666 C665 1.389 . S
C666 C667 1.387 . S
C667 H652 0.930 . S
C667 C662 1.390 . S
C667 C666 1.387 . S
H668 C680 0.930 . S
H669 C682 0.930 . S
H670 C683 0.930 . S
H671 C687 0.959 . S
H672 C687 0.959 . S
H673 C687 0.961 . S
H674 C688 0.960 . S
H675 C688 0.961 . S
H676 C688 0.959 . S
H677 C691 0.929 . S
H678 C692 0.931 . S
H679 C694 0.930 . S
C680 H668 0.930 . S
C680 C681 1.399 . S
C680 C685 1.399 . S
C681 C680 1.399 . S
C681 C682 1.376 . S
C682 H669 0.930 . S
C682 C681 1.376 . S
C682 C683 1.388 . S
C683 H670 0.930 . S
C683 C682 1.388 . S
C683 C684 1.390 . S
C684 C683 1.390 . S
C684 C685 1.394 . S
C684 C690 1.465 . S
C685 C680 1.399 . S
C685 C684 1.394 . S
C685 C686 1.516 . S
C686 C685 1.516 . S
C686 C687 1.502 . S
C686 C688 1.561 . S
C686 C689 1.526 . S
C687 H671 0.959 . S
C687 H672 0.959 . S
C687 H673 0.961 . S
C687 C686 1.502 . S
C688 H674 0.960 . S
C688 H675 0.961 . S
C688 H676 0.959 . S
C688 C686 1.561 . S
C689 C686 1.526 . S
C689 C690 1.396 . S
C689 C694 1.390 . S
C690 C684 1.465 . S
C690 C689 1.396 . S
C690 C691 1.399 . S
C691 H677 0.929 . S
C691 C690 1.399 . S
C691 C692 1.385 . S
C692 H678 0.931 . S
C692 C691 1.385 . S
C692 C693 1.389 . S
C693 C692 1.389 . S
C693 C694 1.387 . S
C694 H679 0.930 . S
C694 C689 1.390 . S
C694 C693 1.387 . S
H695 C707 0.930 . S
H696 C709 0.930 . S
H697 C710 0.930 . S
H698 C714 0.959 . S
H699 C714 0.959 . S
H700 C714 0.961 . S
H701 C715 0.960 . S
H702 C715 0.961 . S
H703 C715 0.959 . S
H704 C718 0.918 1_655 S
H705 C719 0.934 1_655 S
H706 C721 0.930 . S
C707 H695 0.930 . S
C707 C708 1.399 . S
C707 C712 1.399 . S
C708 C707 1.399 . S
C708 C709 1.376 . S
C709 H696 0.930 . S
C709 C708 1.376 . S
C709 C710 1.388 . S
C710 H697 0.930 . S
C710 C709 1.388 . S
C710 C711 1.390 . S
C711 C710 1.390 . S
C711 C712 1.394 . S
C711 C717 1.465 . S
C712 C707 1.399 . S
C712 C711 1.394 . S
C712 C713 1.516 . S
C713 C712 1.516 . S
C713 C714 1.502 . S
C713 C715 1.561 . S
C713 C716 1.526 . S
C714 H698 0.959 . S
C714 H699 0.959 . S
C714 H700 0.961 . S
C714 C713 1.502 . S
C715 H701 0.960 . S
C715 H702 0.961 . S
C715 H703 0.959 . S
C715 C713 1.561 . S
C716 C713 1.526 . S
C716 C717 1.396 . S
C716 C721 1.390 . S
C717 C711 1.465 . S
C717 C716 1.396 . S
C717 C718 1.399 . S
C718 H704 0.918 1_455 S
C718 C717 1.399 . S
C718 C719 1.385 . S
C719 H705 0.934 1_455 S
C719 C718 1.385 . S
C719 C720 1.389 . S
C720 C719 1.389 . S
C720 C721 1.387 . S
C721 H706 0.930 . S
C721 C716 1.390 . S
C721 C720 1.387 . S
H722 C734 0.930 . S
H723 C736 0.930 . S
H724 C737 0.930 . S
H725 C741 0.959 . S
H726 C741 0.959 . S
H727 C741 0.961 . S
H728 C742 0.960 . S
H729 C742 0.961 . S
H730 C742 0.959 . S
H731 C745 0.929 . S
H732 C746 0.931 . S
H733 C748 0.930 . S
C734 H722 0.930 . S
C734 C735 1.399 . S
C734 C739 1.399 . S
C735 C734 1.399 . S
C735 C736 1.376 . S
C736 H723 0.930 . S
C736 C735 1.376 . S
C736 C737 1.388 . S
C737 H724 0.930 . S
C737 C736 1.388 . S
C737 C738 1.390 . S
C738 C737 1.390 . S
C738 C739 1.394 . S
C738 C744 1.465 . S
C739 C734 1.399 . S
C739 C738 1.394 . S
C739 C740 1.516 . S
C740 C739 1.516 . S
C740 C741 1.502 . S
C740 C742 1.561 . S
C740 C743 1.526 . S
C741 H725 0.959 . S
C741 H726 0.959 . S
C741 H727 0.961 . S
C741 C740 1.502 . S
C742 H728 0.960 . S
C742 H729 0.961 . S
C742 H730 0.959 . S
C742 C740 1.561 . S
C743 C740 1.526 . S
C743 C744 1.396 . S
C743 C748 1.390 . S
C744 C738 1.465 . S
C744 C743 1.396 . S
C744 C745 1.399 . S
C745 H731 0.929 . S
C745 C744 1.399 . S
C745 C746 1.385 . S
C746 H732 0.931 . S
C746 C745 1.385 . S
C746 C747 1.389 . S
C747 C746 1.389 . S
C747 C748 1.387 . S
C748 H733 0.930 . S
C748 C743 1.390 . S
C748 C747 1.387 . S
H749 C761 0.930 . S
H750 C763 0.930 . S
H751 C764 0.930 . S
H752 C768 0.959 . S
H753 C768 0.959 . S
H754 C768 0.961 . S
H755 C769 0.960 . S
H756 C769 0.961 . S
H757 C769 0.959 . S
H758 C772 0.929 . S
H759 C773 0.931 . S
H760 C775 0.926 1_655 S
C761 H749 0.930 . S
C761 C762 1.399 . S
C761 C766 1.399 . S
C762 C761 1.399 . S
C762 C763 1.376 . S
C763 H750 0.930 . S
C763 C762 1.376 . S
C763 C764 1.388 . S
C764 H751 0.930 . S
C764 C763 1.388 . S
C764 C765 1.390 . S
C765 C764 1.390 . S
C765 C766 1.394 . S
C765 C771 1.465 . S
C766 C761 1.399 . S
C766 C765 1.394 . S
C766 C767 1.516 . S
C767 C766 1.516 . S
C767 C768 1.502 1_655 S
C767 C769 1.561 . S
C767 C770 1.526 . S
C768 H752 0.959 . S
C768 H753 0.959 . S
C768 H754 0.961 . S
C768 C767 1.502 1_455 S
C769 H755 0.960 . S
C769 H756 0.961 . S
C769 H757 0.959 . S
C769 C767 1.561 . S
C770 C767 1.526 . S
C770 C771 1.396 . S
C770 C775 1.391 1_655 S
C771 C765 1.465 . S
C771 C770 1.396 . S
C771 C772 1.399 1_655 S
C772 H758 0.929 . S
C772 C771 1.399 1_455 S
C772 C773 1.385 . S
C773 H759 0.931 . S
C773 C772 1.385 . S
C773 C774 1.389 . S
C774 C773 1.389 . S
C774 C775 1.392 . S
C775 H760 0.926 1_455 S
C775 C770 1.391 1_455 S
C775 C774 1.392 . S
H776 C788 0.930 . S
H777 C790 0.930 . S
H778 C791 0.930 . S
H779 C795 0.959 . S
H780 C795 0.959 . S
H781 C795 0.961 . S
H782 C796 0.960 . S
H783 C796 0.961 . S
H784 C796 0.959 . S
H785 C799 0.929 . S
H786 C800 0.931 . S
H787 C802 0.930 . S
C788 H776 0.930 . S
C788 C789 1.399 . S
C788 C793 1.399 . S
C789 C788 1.399 . S
C789 C790 1.376 . S
C790 H777 0.930 . S
C790 C789 1.376 . S
C790 C791 1.388 . S
C791 H778 0.930 . S
C791 C790 1.388 . S
C791 C792 1.390 . S
C792 C791 1.390 . S
C792 C793 1.394 . S
C792 C798 1.465 . S
C793 C788 1.399 . S
C793 C792 1.394 . S
C793 C794 1.516 . S
C794 C793 1.516 . S
C794 C795 1.502 . S
C794 C796 1.561 . S
C794 C797 1.526 . S
C795 H779 0.959 . S
C795 H780 0.959 . S
C795 H781 0.961 . S
C795 C794 1.502 . S
C796 H782 0.960 . S
C796 H783 0.961 . S
C796 H784 0.959 . S
C796 C794 1.561 . S
C797 C794 1.526 . S
C797 C798 1.396 . S
C797 C802 1.390 . S
C798 C792 1.465 . S
C798 C797 1.396 . S
C798 C799 1.399 . S
C799 H785 0.929 . S
C799 C798 1.399 . S
C799 C800 1.385 . S
C800 H786 0.931 . S
C800 C799 1.385 . S
C800 C801 1.389 . S
C801 C800 1.389 . S
C801 C802 1.387 . S
C802 H787 0.930 . S
C802 C797 1.390 . S
C802 C801 1.387 . S
H803 C815 0.930 . S
H804 C817 0.930 . S
H805 C818 0.930 . S
H806 C822 0.959 . S
H807 C822 0.959 . S
H808 C822 0.961 . S
H809 C823 0.960 . S
H810 C823 0.961 . S
H811 C823 0.959 . S
H812 C826 0.929 . S
H813 C827 0.931 . S
H814 C829 0.930 . S
C815 H803 0.930 . S
C815 C816 1.399 . S
C815 C820 1.399 . S
C816 C815 1.399 . S
C816 C817 1.376 . S
C817 H804 0.930 . S
C817 C816 1.376 . S
C817 C818 1.388 . S
C818 H805 0.930 . S
C818 C817 1.388 . S
C818 C819 1.390 . S
C819 C818 1.390 . S
C819 C820 1.394 . S
C819 C825 1.465 . S
C820 C815 1.399 . S
C820 C819 1.394 . S
C820 C821 1.516 . S
C821 C820 1.516 . S
C821 C822 1.502 . S
C821 C823 1.561 . S
C821 C824 1.526 . S
C822 H806 0.959 . S
C822 H807 0.959 . S
C822 H808 0.961 . S
C822 C821 1.502 . S
C823 H809 0.960 . S
C823 H810 0.961 . S
C823 H811 0.959 . S
C823 C821 1.561 . S
C824 C821 1.526 . S
C824 C825 1.396 . S
C824 C829 1.390 . S
C825 C819 1.465 . S
C825 C824 1.396 . S
C825 C826 1.399 . S
C826 H812 0.929 . S
C826 C825 1.399 . S
C826 C827 1.385 . S
C827 H813 0.931 . S
C827 C826 1.385 . S
C827 C828 1.389 . S
C828 C827 1.389 . S
C828 C829 1.387 . S
C829 H814 0.930 . S
C829 C824 1.390 . S
C829 C828 1.387 . S
H830 C842 0.930 . S
H831 C844 0.923 1_545 S
H832 C845 0.930 . S
H833 C849 0.959 . S
H834 C849 0.959 . S
H835 C849 0.961 . S
H836 C850 0.960 . S
H837 C850 0.961 . S
H838 C850 0.959 . S
H839 C853 0.929 . S
H840 C854 0.931 . S
H841 C856 0.930 . S
C842 H830 0.930 . S
C842 C843 1.399 1_554 S
C842 C847 1.399 . S
C843 C842 1.399 1_556 S
C843 C844 1.376 . S
C844 H831 0.923 1_565 S
C844 C843 1.376 . S
C844 C845 1.388 . S
C845 H832 0.930 . S
C845 C844 1.388 . S
C845 C846 1.390 . S
C846 C845 1.390 . S
C846 C847 1.394 1_556 S
C846 C852 1.465 . S
C847 C842 1.399 . S
C847 C846 1.394 1_554 S
C847 C848 1.516 . S
C848 C847 1.516 . S
C848 C849 1.502 . S
C848 C850 1.561 . S
C848 C851 1.526 . S
C849 H833 0.959 . S
C849 H834 0.959 . S
C849 H835 0.961 . S
C849 C848 1.502 . S
C850 H836 0.960 . S
C850 H837 0.961 . S
C850 H838 0.959 . S
C850 C848 1.561 . S
C851 C848 1.526 . S
C851 C852 1.396 1_554 S
C851 C856 1.390 . S
C852 C846 1.465 . S
C852 C851 1.396 1_556 S
C852 C853 1.399 . S
C853 H839 0.929 . S
C853 C852 1.399 . S
C853 C854 1.385 . S
C854 H840 0.931 . S
C854 C853 1.385 . S
C854 C855 1.389 1_556 S
C855 C854 1.389 1_554 S
C855 C856 1.387 . S
C856 H841 0.930 . S
C856 C851 1.390 . S
C856 C855 1.387 . S
H857 C869 0.930 . S
H858 C871 0.930 . S
H859 C872 0.930 . S
H860 C876 0.959 . S
H861 C876 0.959 . S
H862 C876 0.961 . S
H863 C877 0.960 . S
H864 C877 0.961 . S
H865 C877 0.959 . S
H866 C880 0.929 . S
H867 C881 0.931 . S
H868 C883 0.930 . S
C869 H857 0.930 . S
C869 C870 1.399 . S
C869 C874 1.399 . S
C870 C869 1.399 . S
C870 C871 1.376 . S
C871 H858 0.930 . S
C871 C870 1.376 . S
C871 C872 1.388 . S
C872 H859 0.930 . S
C872 C871 1.388 . S
C872 C873 1.390 . S
C873 C872 1.390 . S
C873 C874 1.394 . S
C873 C879 1.465 . S
C874 C869 1.399 . S
C874 C873 1.394 . S
C874 C875 1.516 . S
C875 C874 1.516 . S
C875 C876 1.502 . S
C875 C877 1.561 . S
C875 C878 1.526 . S
C876 H860 0.959 . S
C876 H861 0.959 . S
C876 H862 0.961 . S
C876 C875 1.502 . S
C877 H863 0.960 . S
C877 H864 0.961 . S
C877 H865 0.959 . S
C877 C875 1.561 . S
C878 C875 1.526 . S
C878 C879 1.396 . S
C878 C883 1.390 . S
C879 C873 1.465 . S
C879 C878 1.396 . S
C879 C880 1.399 . S
C880 H866 0.929 . S
C880 C879 1.399 . S
C880 C881 1.385 . S
C881 H867 0.931 . S
C881 C880 1.385 . S
C881 C882 1.389 . S
C882 C881 1.389 . S
C882 C883 1.387 . S
C883 H868 0.930 . S
C883 C878 1.390 . S
C883 C882 1.387 . S
H884 C896 0.930 . S
H885 C898 0.930 1_565 S
H886 C899 0.930 . S
H887 C903 0.959 . S
H888 C903 0.959 . S
H889 C903 0.961 . S
H890 C904 0.960 . S
H891 C904 0.961 . S
H892 C904 0.959 . S
H893 C907 0.929 . S
H894 C908 0.931 . S
H895 C910 0.930 . S
C896 H884 0.930 . S
C896 C897 1.385 1_545 S
C896 C901 1.399 . S
C897 C896 1.385 1_565 S
C897 C898 1.374 1_565 S
C898 H885 0.930 1_545 S
C898 C897 1.374 1_545 S
C898 C899 1.388 . S
C899 H886 0.930 . S
C899 C898 1.388 . S
C899 C900 1.390 . S
C900 C899 1.390 . S
C900 C901 1.394 . S
C900 C906 1.465 . S
C901 C896 1.399 . S
C901 C900 1.394 . S
C901 C902 1.516 . S
C902 C901 1.516 . S
C902 C903 1.502 . S
C902 C904 1.561 . S
C902 C905 1.526 . S
C903 H887 0.959 . S
C903 H888 0.959 . S
C903 H889 0.961 . S
C903 C902 1.502 . S
C904 H890 0.960 . S
C904 H891 0.961 . S
C904 H892 0.959 . S
C904 C902 1.561 . S
C905 C902 1.526 . S
C905 C906 1.396 . S
C905 C910 1.390 . S
C906 C900 1.465 . S
C906 C905 1.396 . S
C906 C907 1.399 . S
C907 H893 0.929 . S
C907 C906 1.399 . S
C907 C908 1.385 . S
C908 H894 0.931 . S
C908 C907 1.385 . S
C908 C909 1.389 . S
C909 C908 1.389 . S
C909 C910 1.387 . S
C910 H895 0.930 . S
C910 C905 1.390 . S
C910 C909 1.387 . S
H911 C923 0.930 . S
H912 C925 0.930 . S
H913 C926 0.930 . S
H914 C930 0.959 . S
H915 C930 0.959 . S
H916 C930 0.961 . S
H917 C931 0.960 . S
H918 C931 0.961 . S
H919 C931 0.959 . S
H920 C934 0.929 . S
H921 C935 0.931 . S
H922 C937 0.930 . S
C923 H911 0.930 . S
C923 C924 1.399 . S
C923 C928 1.399 . S
C924 C923 1.399 . S
C924 C925 1.376 . S
C925 H912 0.930 . S
C925 C924 1.376 . S
C925 C926 1.388 . S
C926 H913 0.930 . S
C926 C925 1.388 . S
C926 C927 1.390 . S
C927 C926 1.390 . S
C927 C928 1.394 . S
C927 C933 1.465 . S
C928 C923 1.399 . S
C928 C927 1.394 . S
C928 C929 1.516 . S
C929 C928 1.516 . S
C929 C930 1.502 . S
C929 C931 1.561 . S
C929 C932 1.526 . S
C930 H914 0.959 . S
C930 H915 0.959 . S
C930 H916 0.961 . S
C930 C929 1.502 . S
C931 H917 0.960 . S
C931 H918 0.961 . S
C931 H919 0.959 . S
C931 C929 1.561 . S
C932 C929 1.526 . S
C932 C933 1.396 . S
C932 C937 1.390 . S
C933 C927 1.465 . S
C933 C932 1.396 . S
C933 C934 1.399 . S
C934 H920 0.929 . S
C934 C933 1.399 . S
C934 C935 1.385 . S
C935 H921 0.931 . S
C935 C934 1.385 . S
C935 C936 1.389 . S
C936 C935 1.389 . S
C936 C937 1.387 . S
C937 H922 0.930 . S
C937 C932 1.390 . S
C937 C936 1.387 . S
H938 C950 0.930 . S
H939 C952 0.930 . S
H940 C953 0.930 . S
H941 C957 0.959 . S
H942 C957 0.959 . S
H943 C957 0.961 . S
H944 C958 0.960 . S
H945 C958 0.961 . S
H946 C958 0.959 . S
H947 C961 0.929 . S
H948 C962 0.931 . S
H949 C964 0.930 . S
C950 H938 0.930 . S
C950 C951 1.399 . S
C950 C955 1.399 . S
C951 C950 1.399 . S
C951 C952 1.376 . S
C952 H939 0.930 . S
C952 C951 1.376 . S
C952 C953 1.388 . S
C953 H940 0.930 . S
C953 C952 1.388 . S
C953 C954 1.390 . S
C954 C953 1.390 . S
C954 C955 1.394 . S
C954 C960 1.465 . S
C955 C950 1.399 . S
C955 C954 1.394 . S
C955 C956 1.516 . S
C956 C955 1.516 . S
C956 C957 1.502 . S
C956 C958 1.561 . S
C956 C959 1.526 . S
C957 H941 0.959 . S
C957 H942 0.959 . S
C957 H943 0.961 . S
C957 C956 1.502 . S
C958 H944 0.960 . S
C958 H945 0.961 . S
C958 H946 0.959 . S
C958 C956 1.561 . S
C959 C956 1.526 . S
C959 C960 1.396 . S
C959 C964 1.390 . S
C960 C954 1.465 . S
C960 C959 1.396 . S
C960 C961 1.399 . S
C961 H947 0.929 . S
C961 C960 1.399 . S
C961 C962 1.385 . S
C962 H948 0.931 . S
C962 C961 1.385 . S
C962 C963 1.389 . S
C963 C962 1.389 . S
C963 C964 1.387 . S
C964 H949 0.930 . S
C964 C959 1.390 . S
C964 C963 1.387 . S
H965 C977 0.930 . S
H966 C979 0.930 . S
H967 C980 0.930 . S
H968 C984 0.959 . S
H969 C984 0.959 . S
H970 C984 0.961 . S
H971 C985 0.960 . S
H972 C985 0.961 . S
H973 C985 0.959 . S
H974 C988 0.929 . S
H975 C989 0.931 . S
H976 C991 0.930 . S
C977 H965 0.930 . S
C977 C978 1.399 . S
C977 C982 1.399 . S
C978 C977 1.399 . S
C978 C979 1.376 . S
C979 H966 0.930 . S
C979 C978 1.376 . S
C979 C980 1.388 . S
C980 H967 0.930 . S
C980 C979 1.388 . S
C980 C981 1.390 . S
C981 C980 1.390 . S
C981 C982 1.394 . S
C981 C987 1.465 . S
C982 C977 1.399 . S
C982 C981 1.394 . S
C982 C983 1.516 . S
C983 C982 1.516 . S
C983 C984 1.502 . S
C983 C985 1.561 . S
C983 C986 1.526 . S
C984 H968 0.959 . S
C984 H969 0.959 . S
C984 H970 0.961 . S
C984 C983 1.502 . S
C985 H971 0.960 . S
C985 H972 0.961 . S
C985 H973 0.959 . S
C985 C983 1.561 . S
C986 C983 1.526 . S
C986 C987 1.396 . S
C986 C991 1.390 . S
C987 C981 1.465 . S
C987 C986 1.396 . S
C987 C988 1.399 . S
C988 H974 0.929 . S
C988 C987 1.399 . S
C988 C989 1.385 . S
C989 H975 0.931 . S
C989 C988 1.385 . S
C989 C990 1.389 . S
C990 C989 1.389 . S
C990 C991 1.387 . S
C991 H976 0.930 . S
C991 C986 1.390 . S
C991 C990 1.387 . S
H992 C1004 0.930 . S
H993 C1006 0.930 . S
H994 C1007 0.930 . S
H995 C1011 0.959 . S
H996 C1011 0.959 . S
H997 C1011 0.961 . S
H998 C1012 0.960 . S
H999 C1012 0.961 . S
H1000 C1012 0.959 . S
H1001 C1015 0.929 . S
H1002 C1016 0.931 . S
H1003 C1018 0.930 . S
C1004 H992 0.930 . S
C1004 C1005 1.399 . S
C1004 C1009 1.399 . S
C1005 C1004 1.399 . S
C1005 C1006 1.376 . S
C1006 H993 0.930 . S
C1006 C1005 1.376 . S
C1006 C1007 1.388 . S
C1007 H994 0.930 . S
C1007 C1006 1.388 . S
C1007 C1008 1.390 . S
C1008 C1007 1.390 . S
C1008 C1009 1.394 . S
C1008 C1014 1.465 . S
C1009 C1004 1.399 . S
C1009 C1008 1.394 . S
C1009 C1010 1.516 . S
C1010 C1009 1.516 . S
C1010 C1011 1.502 . S
C1010 C1012 1.561 . S
C1010 C1013 1.526 . S
C1011 H995 0.959 . S
C1011 H996 0.959 . S
C1011 H997 0.961 . S
C1011 C1010 1.502 . S
C1012 H998 0.960 . S
C1012 H999 0.961 . S
C1012 H1000 0.959 . S
C1012 C1010 1.561 . S
C1013 C1010 1.526 . S
C1013 C1014 1.396 . S
C1013 C1018 1.390 . S
C1014 C1008 1.465 . S
C1014 C1013 1.396 . S
C1014 C1015 1.399 . S
C1015 H1001 0.929 . S
C1015 C1014 1.399 . S
C1015 C1016 1.385 . S
C1016 H1002 0.931 . S
C1016 C1015 1.385 . S
C1016 C1017 1.389 . S
C1017 C1016 1.389 . S
C1017 C1018 1.387 . S
C1018 H1003 0.930 . S
C1018 C1013 1.390 . S
C1018 C1017 1.387 . S
H1019 C1031 0.930 . S
H1020 C1033 0.930 . S
H1021 C1034 0.930 1_565 S
H1022 C1038 0.959 . S
H1023 C1038 0.959 . S
H1024 C1038 0.961 . S
H1025 C1039 0.960 . S
H1026 C1039 0.961 . S
H1027 C1039 0.959 . S
H1028 C1042 0.929 . S
H1029 C1043 0.931 . S
H1030 C1045 0.930 . S
C1031 H1019 0.930 . S
C1031 C1032 1.399 . S
C1031 C1036 1.399 . S
C1032 C1031 1.399 . S
C1032 C1033 1.376 . S
C1033 H1020 0.930 . S
C1033 C1032 1.376 . S
C1033 C1034 1.388 . S
C1034 H1021 0.930 1_545 S
C1034 C1033 1.388 . S
C1034 C1035 1.390 . S
C1035 C1034 1.390 . S
C1035 C1036 1.394 . S
C1035 C1041 1.465 . S
C1036 C1031 1.399 . S
C1036 C1035 1.394 . S
C1036 C1037 1.516 . S
C1037 C1036 1.516 . S
C1037 C1038 1.502 . S
C1037 C1039 1.561 . S
C1037 C1040 1.526 . S
C1038 H1022 0.959 . S
C1038 H1023 0.959 . S
C1038 H1024 0.961 . S
C1038 C1037 1.502 . S
C1039 H1025 0.960 . S
C1039 H1026 0.961 . S
C1039 H1027 0.959 . S
C1039 C1037 1.561 . S
C1040 C1037 1.526 . S
C1040 C1041 1.396 . S
C1040 C1045 1.390 . S
C1041 C1035 1.465 . S
C1041 C1040 1.396 . S
C1041 C1042 1.399 1_545 S
C1042 H1028 0.929 . S
C1042 C1041 1.399 1_565 S
C1042 C1043 1.385 . S
C1043 H1029 0.931 . S
C1043 C1042 1.385 . S
C1043 C1044 1.389 1_565 S
C1044 C1043 1.389 1_545 S
C1044 C1045 1.387 . S
C1045 H1030 0.930 . S
C1045 C1040 1.390 . S
C1045 C1044 1.387 . S
H1046 C1058 0.930 . S
H1047 C1060 0.930 . S
H1048 C1061 0.930 . S
H1049 C1065 0.959 . S
H1050 C1065 0.959 . S
H1051 C1065 0.961 . S
H1052 C1066 0.960 . S
H1053 C1066 0.961 . S
H1054 C1066 0.959 . S
H1055 C1069 0.929 . S
H1056 C1070 0.931 . S
H1057 C1072 0.930 . S
C1058 H1046 0.930 . S
C1058 C1059 1.399 . S
C1058 C1063 1.399 . S
C1059 C1058 1.399 . S
C1059 C1060 1.376 . S
C1060 H1047 0.930 . S
C1060 C1059 1.376 . S
C1060 C1061 1.388 . S
C1061 H1048 0.930 . S
C1061 C1060 1.388 . S
C1061 C1062 1.390 . S
C1062 C1061 1.390 . S
C1062 C1063 1.394 . S
C1062 C1068 1.465 . S
C1063 C1058 1.399 . S
C1063 C1062 1.394 . S
C1063 C1064 1.516 . S
C1064 C1063 1.516 . S
C1064 C1065 1.502 . S
C1064 C1066 1.561 . S
C1064 C1067 1.526 . S
C1065 H1049 0.959 . S
C1065 H1050 0.959 . S
C1065 H1051 0.961 . S
C1065 C1064 1.502 . S
C1066 H1052 0.960 . S
C1066 H1053 0.961 . S
C1066 H1054 0.959 . S
C1066 C1064 1.561 . S
C1067 C1064 1.526 . S
C1067 C1068 1.396 . S
C1067 C1072 1.390 . S
C1068 C1062 1.465 . S
C1068 C1067 1.396 . S
C1068 C1069 1.399 . S
C1069 H1055 0.929 . S
C1069 C1068 1.399 . S
C1069 C1070 1.385 . S
C1070 H1056 0.931 . S
C1070 C1069 1.385 . S
C1070 C1071 1.389 . S
C1071 C1070 1.389 . S
C1071 C1072 1.387 . S
C1072 H1057 0.930 . S
C1072 C1067 1.390 . S
C1072 C1071 1.387 . S
H1073 C1085 0.930 . S
H1074 C1087 0.930 . S
H1075 C1088 0.930 . S
H1076 C1092 0.959 . S
H1077 C1092 0.959 . S
H1078 C1092 0.961 . S
H1079 C1093 0.960 . S
H1080 C1093 0.961 . S
H1081 C1093 0.959 . S
H1082 C1096 0.929 . S
H1083 C1097 0.931 . S
H1084 C1099 0.930 . S
C1085 H1073 0.930 . S
C1085 C1086 1.399 . S
C1085 C1090 1.399 . S
C1086 C1085 1.399 . S
C1086 C1087 1.376 . S
C1087 H1074 0.930 . S
C1087 C1086 1.376 . S
C1087 C1088 1.388 . S
C1088 H1075 0.930 . S
C1088 C1087 1.388 . S
C1088 C1089 1.390 . S
C1089 C1088 1.390 . S
C1089 C1090 1.394 . S
C1089 C1095 1.465 . S
C1090 C1085 1.399 . S
C1090 C1089 1.394 . S
C1090 C1091 1.516 . S
C1091 C1090 1.516 . S
C1091 C1092 1.502 . S
C1091 C1093 1.561 . S
C1091 C1094 1.526 . S
C1092 H1076 0.959 . S
C1092 H1077 0.959 . S
C1092 H1078 0.961 . S
C1092 C1091 1.502 . S
C1093 H1079 0.960 . S
C1093 H1080 0.961 . S
C1093 H1081 0.959 . S
C1093 C1091 1.561 . S
C1094 C1091 1.526 . S
C1094 C1095 1.396 . S
C1094 C1099 1.390 . S
C1095 C1089 1.465 . S
C1095 C1094 1.396 . S
C1095 C1096 1.399 . S
C1096 H1082 0.929 . S
C1096 C1095 1.399 . S
C1096 C1097 1.385 . S
C1097 H1083 0.931 . S
C1097 C1096 1.385 . S
C1097 C1098 1.389 . S
C1098 C1097 1.389 . S
C1098 C1099 1.387 . S
C1099 H1084 0.930 . S
C1099 C1094 1.390 . S
C1099 C1098 1.387 . S
H1100 C1112 0.930 . S
H1101 C1114 0.930 . S
H1102 C1115 0.930 . S
H1103 C1119 0.959 . S
H1104 C1119 0.959 . S
H1105 C1119 0.961 . S
H1106 C1120 0.960 . S
H1107 C1120 0.961 . S
H1108 C1120 0.959 . S
H1109 C1123 0.929 . S
H1110 C1124 0.931 . S
H1111 C1126 0.930 . S
C1112 H1100 0.930 . S
C1112 C1113 1.399 . S
C1112 C1117 1.399 . S
C1113 C1112 1.399 . S
C1113 C1114 1.376 . S
C1114 H1101 0.930 . S
C1114 C1113 1.376 . S
C1114 C1115 1.388 . S
C1115 H1102 0.930 . S
C1115 C1114 1.388 . S
C1115 C1116 1.390 . S
C1116 C1115 1.390 . S
C1116 C1117 1.394 . S
C1116 C1122 1.465 . S
C1117 C1112 1.399 . S
C1117 C1116 1.394 . S
C1117 C1118 1.516 . S
C1118 C1117 1.516 . S
C1118 C1119 1.502 . S
C1118 C1120 1.561 . S
C1118 C1121 1.526 . S
C1119 H1103 0.959 . S
C1119 H1104 0.959 . S
C1119 H1105 0.961 . S
C1119 C1118 1.502 . S
C1120 H1106 0.960 . S
C1120 H1107 0.961 . S
C1120 H1108 0.959 . S
C1120 C1118 1.561 . S
C1121 C1118 1.526 . S
C1121 C1122 1.396 . S
C1121 C1126 1.390 . S
C1122 C1116 1.465 . S
C1122 C1121 1.396 . S
C1122 C1123 1.399 . S
C1123 H1109 0.929 . S
C1123 C1122 1.399 . S
C1123 C1124 1.385 . S
C1124 H1110 0.931 . S
C1124 C1123 1.385 . S
C1124 C1125 1.389 . S
C1125 C1124 1.389 . S
C1125 C1126 1.387 . S
C1126 H1111 0.930 . S
C1126 C1121 1.390 . S
C1126 C1125 1.387 . S
H1127 C1139 0.930 . S
H1128 C1141 0.918 1_565 S
H1129 C1142 0.930 1_565 S
H1130 C1146 0.959 . S
H1131 C1146 0.959 . S
H1132 C1146 0.961 . S
H1133 C1147 0.960 . S
H1134 C1147 0.961 . S
H1135 C1147 0.959 . S
H1136 C1150 0.939 . S
H1137 C1151 0.931 1_565 S
H1138 C1153 0.930 . S
C1139 H1127 0.930 . S
C1139 C1140 1.399 . S
C1139 C1144 1.399 . S
C1140 C1139 1.399 . S
C1140 C1141 1.376 . S
C1141 H1128 0.918 1_545 S
C1141 C1140 1.376 . S
C1141 C1142 1.388 . S
C1142 H1129 0.930 1_545 S
C1142 C1141 1.388 . S
C1142 C1143 1.390 . S
C1143 C1142 1.390 . S
C1143 C1144 1.394 . S
C1143 C1149 1.465 . S
C1144 C1139 1.399 . S
C1144 C1143 1.394 . S
C1144 C1145 1.516 . S
C1145 C1144 1.516 . S
C1145 C1146 1.502 . S
C1145 C1147 1.561 . S
C1145 C1148 1.526 . S
C1146 H1130 0.959 . S
C1146 H1131 0.959 . S
C1146 H1132 0.961 . S
C1146 C1145 1.502 . S
C1147 H1133 0.960 . S
C1147 H1134 0.961 . S
C1147 H1135 0.959 . S
C1147 C1145 1.561 . S
C1148 C1145 1.526 . S
C1148 C1149 1.396 . S
C1148 C1153 1.390 . S
C1149 C1143 1.465 . S
C1149 C1148 1.396 . S
C1149 C1150 1.391 1_545 S
C1150 H1136 0.939 . S
C1150 C1149 1.391 1_565 S
C1150 C1151 1.384 1_565 S
C1151 H1137 0.931 1_545 S
C1151 C1150 1.384 1_545 S
C1151 C1152 1.389 . S
C1152 C1151 1.389 . S
C1152 C1153 1.387 . S
C1153 H1138 0.930 . S
C1153 C1148 1.390 . S
C1153 C1152 1.387 . S
H1154 C1166 0.930 . S
H1155 C1168 0.930 . S
H1156 C1169 0.930 . S
H1157 C1173 0.959 . S
H1158 C1173 0.959 . S
H1159 C1173 0.961 . S
H1160 C1174 0.960 . S
H1161 C1174 0.961 . S
H1162 C1174 0.959 . S
H1163 C1177 0.929 . S
H1164 C1178 0.931 . S
H1165 C1180 0.930 . S
C1166 H1154 0.930 . S
C1166 C1167 1.399 . S
C1166 C1171 1.399 . S
C1167 C1166 1.399 . S
C1167 C1168 1.376 . S
C1168 H1155 0.930 . S
C1168 C1167 1.376 . S
C1168 C1169 1.388 . S
C1169 H1156 0.930 . S
C1169 C1168 1.388 . S
C1169 C1170 1.390 . S
C1170 C1169 1.390 . S
C1170 C1171 1.394 . S
C1170 C1176 1.465 . S
C1171 C1166 1.399 . S
C1171 C1170 1.394 . S
C1171 C1172 1.516 . S
C1172 C1171 1.516 . S
C1172 C1173 1.502 . S
C1172 C1174 1.561 . S
C1172 C1175 1.526 . S
C1173 H1157 0.959 . S
C1173 H1158 0.959 . S
C1173 H1159 0.961 . S
C1173 C1172 1.502 . S
C1174 H1160 0.960 . S
C1174 H1161 0.961 . S
C1174 H1162 0.959 . S
C1174 C1172 1.561 . S
C1175 C1172 1.526 . S
C1175 C1176 1.396 . S
C1175 C1180 1.390 . S
C1176 C1170 1.465 . S
C1176 C1175 1.396 . S
C1176 C1177 1.399 . S
C1177 H1163 0.929 . S
C1177 C1176 1.399 . S
C1177 C1178 1.385 . S
C1178 H1164 0.931 . S
C1178 C1177 1.385 . S
C1178 C1179 1.389 . S
C1179 C1178 1.389 . S
C1179 C1180 1.387 . S
C1180 H1165 0.930 . S
C1180 C1175 1.390 . S
C1180 C1179 1.387 . S
H1181 C1193 0.930 . S
H1182 C1195 0.930 . S
H1183 C1196 0.930 . S
H1184 C1200 0.959 . S
H1185 C1200 0.959 . S
H1186 C1200 0.961 1_655 S
H1187 C1201 0.960 . S
H1188 C1201 0.961 . S
H1189 C1201 0.959 . S
H1190 C1204 0.929 . S
H1191 C1205 0.931 . S
H1192 C1207 0.930 . S
C1193 H1181 0.930 . S
C1193 C1194 1.399 . S
C1193 C1198 1.399 1_655 S
C1194 C1193 1.399 . S
C1194 C1195 1.376 1_655 S
C1195 H1182 0.930 . S
C1195 C1194 1.376 1_455 S
C1195 C1196 1.388 . S
C1196 H1183 0.930 . S
C1196 C1195 1.388 . S
C1196 C1197 1.390 . S
C1197 C1196 1.390 . S
C1197 C1198 1.394 . S
C1197 C1203 1.465 . S
C1198 C1193 1.399 1_455 S
C1198 C1197 1.394 . S
C1198 C1199 1.516 . S
C1199 C1198 1.516 . S
C1199 C1200 1.502 . S
C1199 C1201 1.561 . S
C1199 C1202 1.526 . S
C1200 H1184 0.959 . S
C1200 H1185 0.959 . S
C1200 H1186 0.961 1_455 S
C1200 C1199 1.502 . S
C1201 H1187 0.960 . S
C1201 H1188 0.961 . S
C1201 H1189 0.959 . S
C1201 C1199 1.561 . S
C1202 C1199 1.526 . S
C1202 C1203 1.396 . S
C1202 C1207 1.390 . S
C1203 C1197 1.465 . S
C1203 C1202 1.396 . S
C1203 C1204 1.399 . S
C1204 H1190 0.929 . S
C1204 C1203 1.399 . S
C1204 C1205 1.385 . S
C1205 H1191 0.931 . S
C1205 C1204 1.385 . S
C1205 C1206 1.389 . S
C1206 C1205 1.389 . S
C1206 C1207 1.387 . S
C1207 H1192 0.930 . S
C1207 C1202 1.390 . S
C1207 C1206 1.387 . S
H1208 C1220 0.930 . S
H1209 C1222 0.930 . S
H1210 C1223 0.930 . S
H1211 C1227 0.959 . S
H1212 C1227 0.959 . S
H1213 C1227 0.961 . S
H1214 C1228 0.960 . S
H1215 C1228 0.961 . S
H1216 C1228 0.959 . S
H1217 C1231 0.929 . S
H1218 C1232 0.931 . S
H1219 C1234 0.930 . S
C1220 H1208 0.930 . S
C1220 C1221 1.399 . S
C1220 C1225 1.399 . S
C1221 C1220 1.399 . S
C1221 C1222 1.376 . S
C1222 H1209 0.930 . S
C1222 C1221 1.376 . S
C1222 C1223 1.388 . S
C1223 H1210 0.930 . S
C1223 C1222 1.388 . S
C1223 C1224 1.390 . S
C1224 C1223 1.390 . S
C1224 C1225 1.394 . S
C1224 C1230 1.465 . S
C1225 C1220 1.399 . S
C1225 C1224 1.394 . S
C1225 C1226 1.516 . S
C1226 C1225 1.516 . S
C1226 C1227 1.502 . S
C1226 C1228 1.561 . S
C1226 C1229 1.526 . S
C1227 H1211 0.959 . S
C1227 H1212 0.959 . S
C1227 H1213 0.961 . S
C1227 C1226 1.502 . S
C1228 H1214 0.960 . S
C1228 H1215 0.961 . S
C1228 H1216 0.959 . S
C1228 C1226 1.561 . S
C1229 C1226 1.526 . S
C1229 C1230 1.396 . S
C1229 C1234 1.390 . S
C1230 C1224 1.465 . S
C1230 C1229 1.396 . S
C1230 C1231 1.399 . S
C1231 H1217 0.929 . S
C1231 C1230 1.399 . S
C1231 C1232 1.385 . S
C1232 H1218 0.931 . S
C1232 C1231 1.385 . S
C1232 C1233 1.389 . S
C1233 C1232 1.389 . S
C1233 C1234 1.387 . S
C1234 H1219 0.930 . S
C1234 C1229 1.390 . S
C1234 C1233 1.387 . S
H1235 C1247 0.930 . S
H1236 C1249 0.930 . S
H1237 C1250 0.930 . S
H1238 C1254 0.959 1_655 S
H1239 C1254 0.959 . S
H1240 C1254 0.961 1_554 S
H1241 C1255 0.960 . S
H1242 C1255 0.961 . S
H1243 C1255 0.959 . S
H1244 C1258 0.929 . S
H1245 C1259 0.930 1_556 S
H1246 C1261 0.930 . S
C1247 H1235 0.930 . S
C1247 C1248 1.399 . S
C1247 C1252 1.399 . S
C1248 C1247 1.399 . S
C1248 C1249 1.376 . S
C1249 H1236 0.930 . S
C1249 C1248 1.376 . S
C1249 C1250 1.388 . S
C1250 H1237 0.930 . S
C1250 C1249 1.388 . S
C1250 C1251 1.390 . S
C1251 C1250 1.390 . S
C1251 C1252 1.394 . S
C1251 C1257 1.465 . S
C1252 C1247 1.399 . S
C1252 C1251 1.394 . S
C1252 C1253 1.516 1_655 S
C1253 C1252 1.516 1_455 S
C1253 C1254 1.502 1_554 S
C1253 C1255 1.561 . S
C1253 C1256 1.526 1_455 S
C1254 H1238 0.959 1_455 S
C1254 H1239 0.959 . S
C1254 H1240 0.961 1_556 S
C1254 C1253 1.502 1_556 S
C1255 H1241 0.960 . S
C1255 H1242 0.961 . S
C1255 H1243 0.959 . S
C1255 C1253 1.561 . S
C1256 C1253 1.526 1_655 S
C1256 C1257 1.396 . S
C1256 C1261 1.390 1_654 S
C1257 C1251 1.465 . S
C1257 C1256 1.396 . S
C1257 C1258 1.399 . S
C1258 H1244 0.929 . S
C1258 C1257 1.399 . S
C1258 C1259 1.385 . S
C1259 H1245 0.930 1_554 S
C1259 C1258 1.385 . S
C1259 C1260 1.389 1_554 S
C1260 C1259 1.389 1_556 S
C1260 C1261 1.387 1_655 S
C1261 H1246 0.930 . S
C1261 C1256 1.390 1_456 S
C1261 C1260 1.387 1_455 S
H1262 C1274 0.930 . S
H1263 C1276 0.930 . S
H1264 C1277 0.930 . S
H1265 C1281 0.959 . S
H1266 C1281 0.959 . S
H1267 C1281 0.961 . S
H1268 C1282 0.960 . S
H1269 C1282 0.961 . S
H1270 C1282 0.959 . S
H1271 C1285 0.929 . S
H1272 C1286 0.931 . S
H1273 C1288 0.930 . S
C1274 H1262 0.930 . S
C1274 C1275 1.399 . S
C1274 C1279 1.399 . S
C1275 C1274 1.399 . S
C1275 C1276 1.376 . S
C1276 H1263 0.930 . S
C1276 C1275 1.376 . S
C1276 C1277 1.388 . S
C1277 H1264 0.930 . S
C1277 C1276 1.388 . S
C1277 C1278 1.390 . S
C1278 C1277 1.390 . S
C1278 C1279 1.394 . S
C1278 C1284 1.465 . S
C1279 C1274 1.399 . S
C1279 C1278 1.394 . S
C1279 C1280 1.516 . S
C1280 C1279 1.516 . S
C1280 C1281 1.502 . S
C1280 C1282 1.561 . S
C1280 C1283 1.526 . S
C1281 H1265 0.959 . S
C1281 H1266 0.959 . S
C1281 H1267 0.961 . S
C1281 C1280 1.502 . S
C1282 H1268 0.960 . S
C1282 H1269 0.961 . S
C1282 H1270 0.959 . S
C1282 C1280 1.561 . S
C1283 C1280 1.526 . S
C1283 C1284 1.396 . S
C1283 C1288 1.390 . S
C1284 C1278 1.465 . S
C1284 C1283 1.396 . S
C1284 C1285 1.399 . S
C1285 H1271 0.929 . S
C1285 C1284 1.399 . S
C1285 C1286 1.385 . S
C1286 H1272 0.931 . S
C1286 C1285 1.385 . S
C1286 C1287 1.389 . S
C1287 C1286 1.389 . S
C1287 C1288 1.387 . S
C1288 H1273 0.930 . S
C1288 C1283 1.390 . S
C1288 C1287 1.387 . S
H1289 C1301 0.930 . S
H1290 C1303 0.930 1_655 S
H1291 C1304 0.930 . S
H1292 C1308 0.959 1_554 S
H1293 C1308 0.959 . S
H1294 C1308 0.961 . S
H1295 C1309 0.960 . S
H1296 C1309 0.961 . S
H1297 C1309 0.959 . S
H1298 C1312 0.929 . S
H1299 C1313 0.944 . S
H1300 C1315 0.930 . S
C1301 H1289 0.930 . S
C1301 C1302 1.399 . S
C1301 C1306 1.399 . S
C1302 C1301 1.399 . S
C1302 C1303 1.376 . S
C1303 H1290 0.930 1_455 S
C1303 C1302 1.376 . S
C1303 C1304 1.388 1_455 S
C1304 H1291 0.930 . S
C1304 C1303 1.388 1_655 S
C1304 C1305 1.390 1_655 S
C1305 C1304 1.390 1_455 S
C1305 C1306 1.394 . S
C1305 C1311 1.465 . S
C1306 C1301 1.399 . S
C1306 C1305 1.394 . S
C1306 C1307 1.516 1_554 S
C1307 C1306 1.516 1_556 S
C1307 C1308 1.502 . S
C1307 C1309 1.561 . S
C1307 C1310 1.526 . S
C1308 H1292 0.959 1_556 S
C1308 H1293 0.959 . S
C1308 H1294 0.961 . S
C1308 C1307 1.502 . S
C1309 H1295 0.960 . S
C1309 H1296 0.961 . S
C1309 H1297 0.959 . S
C1309 C1307 1.561 . S
C1310 C1307 1.526 . S
C1310 C1311 1.396 1_556 S
C1310 C1315 1.390 . S
C1311 C1305 1.465 . S
C1311 C1310 1.396 1_554 S
C1311 C1312 1.399 1_455 S
C1312 H1298 0.929 . S
C1312 C1311 1.399 1_655 S
C1312 C1313 1.387 1_554 S
C1313 H1299 0.944 . S
C1313 C1312 1.387 1_556 S
C1313 C1314 1.375 1_655 S
C1314 C1313 1.375 1_455 S
C1314 C1315 1.387 . S
C1315 H1300 0.930 . S
C1315 C1310 1.390 . S
C1315 C1314 1.387 . S
H1316 C1328 0.930 . S
H1317 C1330 0.930 . S
H1318 C1331 0.930 . S
H1319 C1335 0.959 . S
H1320 C1335 0.959 . S
H1321 C1335 0.961 . S
H1322 C1336 0.960 . S
H1323 C1336 0.961 . S
H1324 C1336 0.959 . S
H1325 C1339 0.929 . S
H1326 C1340 0.931 . S
H1327 C1342 0.930 . S
C1328 H1316 0.930 . S
C1328 C1329 1.399 . S
C1328 C1333 1.399 . S
C1329 C1328 1.399 . S
C1329 C1330 1.376 . S
C1330 H1317 0.930 . S
C1330 C1329 1.376 . S
C1330 C1331 1.388 . S
C1331 H1318 0.930 . S
C1331 C1330 1.388 . S
C1331 C1332 1.390 . S
C1332 C1331 1.390 . S
C1332 C1333 1.394 . S
C1332 C1338 1.465 . S
C1333 C1328 1.399 . S
C1333 C1332 1.394 . S
C1333 C1334 1.516 . S
C1334 C1333 1.516 . S
C1334 C1335 1.502 . S
C1334 C1336 1.561 . S
C1334 C1337 1.526 . S
C1335 H1319 0.959 . S
C1335 H1320 0.959 . S
C1335 H1321 0.961 . S
C1335 C1334 1.502 . S
C1336 H1322 0.960 . S
C1336 H1323 0.961 . S
C1336 H1324 0.959 . S
C1336 C1334 1.561 . S
C1337 C1334 1.526 . S
C1337 C1338 1.396 . S
C1337 C1342 1.390 . S
C1338 C1332 1.465 . S
C1338 C1337 1.396 . S
C1338 C1339 1.399 . S
C1339 H1325 0.929 . S
C1339 C1338 1.399 . S
C1339 C1340 1.385 . S
C1340 H1326 0.931 . S
C1340 C1339 1.385 . S
C1340 C1341 1.389 . S
C1341 C1340 1.389 . S
C1341 C1342 1.387 . S
C1342 H1327 0.930 . S
C1342 C1337 1.390 . S
C1342 C1341 1.387 . S
H1343 C1355 0.930 . S
H1344 C1357 0.930 . S
H1345 C1358 0.930 . S
H1346 C1362 0.959 . S
H1347 C1362 0.959 . S
H1348 C1362 0.961 . S
H1349 C1363 0.960 . S
H1350 C1363 0.961 . S
H1351 C1363 0.959 . S
H1352 C1366 0.929 . S
H1353 C1367 0.931 . S
H1354 C1369 0.930 . S
C1355 H1343 0.930 . S
C1355 C1356 1.399 . S
C1355 C1360 1.399 . S
C1356 C1355 1.399 . S
C1356 C1357 1.376 . S
C1357 H1344 0.930 . S
C1357 C1356 1.376 . S
C1357 C1358 1.388 . S
C1358 H1345 0.930 . S
C1358 C1357 1.388 . S
C1358 C1359 1.390 . S
C1359 C1358 1.390 . S
C1359 C1360 1.394 . S
C1359 C1365 1.465 . S
C1360 C1355 1.399 . S
C1360 C1359 1.394 . S
C1360 C1361 1.516 . S
C1361 C1360 1.516 . S
C1361 C1362 1.502 . S
C1361 C1363 1.561 . S
C1361 C1364 1.526 . S
C1362 H1346 0.959 . S
C1362 H1347 0.959 . S
C1362 H1348 0.961 . S
C1362 C1361 1.502 . S
C1363 H1349 0.960 . S
C1363 H1350 0.961 . S
C1363 H1351 0.959 . S
C1363 C1361 1.561 . S
C1364 C1361 1.526 . S
C1364 C1365 1.396 . S
C1364 C1369 1.390 . S
C1365 C1359 1.465 . S
C1365 C1364 1.396 . S
C1365 C1366 1.399 . S
C1366 H1352 0.929 . S
C1366 C1365 1.399 . S
C1366 C1367 1.385 . S
C1367 H1353 0.931 . S
C1367 C1366 1.385 . S
C1367 C1368 1.389 . S
C1368 C1367 1.389 . S
C1368 C1369 1.387 . S
C1369 H1354 0.930 . S
C1369 C1364 1.390 . S
C1369 C1368 1.387 . S
H1370 C1382 0.930 . S
H1371 C1384 0.930 . S
H1372 C1385 0.930 . S
H1373 C1389 0.959 . S
H1374 C1389 0.959 . S
H1375 C1389 0.961 . S
H1376 C1390 0.960 . S
H1377 C1390 0.961 . S
H1378 C1390 0.959 . S
H1379 C1393 0.929 . S
H1380 C1394 0.931 . S
H1381 C1396 0.930 . S
C1382 H1370 0.930 . S
C1382 C1383 1.399 . S
C1382 C1387 1.399 . S
C1383 C1382 1.399 . S
C1383 C1384 1.376 . S
C1384 H1371 0.930 . S
C1384 C1383 1.376 . S
C1384 C1385 1.388 . S
C1385 H1372 0.930 . S
C1385 C1384 1.388 . S
C1385 C1386 1.390 . S
C1386 C1385 1.390 . S
C1386 C1387 1.394 . S
C1386 C1392 1.465 . S
C1387 C1382 1.399 . S
C1387 C1386 1.394 . S
C1387 C1388 1.516 . S
C1388 C1387 1.516 . S
C1388 C1389 1.502 . S
C1388 C1390 1.561 . S
C1388 C1391 1.526 . S
C1389 H1373 0.959 . S
C1389 H1374 0.959 . S
C1389 H1375 0.961 . S
C1389 C1388 1.502 . S
C1390 H1376 0.960 . S
C1390 H1377 0.961 . S
C1390 H1378 0.959 . S
C1390 C1388 1.561 . S
C1391 C1388 1.526 . S
C1391 C1392 1.396 . S
C1391 C1396 1.390 . S
C1392 C1386 1.465 . S
C1392 C1391 1.396 . S
C1392 C1393 1.399 . S
C1393 H1379 0.929 . S
C1393 C1392 1.399 . S
C1393 C1394 1.385 . S
C1394 H1380 0.931 . S
C1394 C1393 1.385 . S
C1394 C1395 1.389 . S
C1395 C1394 1.389 . S
C1395 C1396 1.387 . S
C1396 H1381 0.930 . S
C1396 C1391 1.390 . S
C1396 C1395 1.387 . S
H1397 C1409 0.930 . S
H1398 C1411 0.930 1_556 S
H1399 C1412 0.930 . S
H1400 C1416 0.959 . S
H1401 C1416 0.959 . S
H1402 C1416 0.961 . S
H1403 C1417 0.960 . S
H1404 C1417 0.961 . S
H1405 C1417 0.959 . S
H1406 C1420 0.929 . S
H1407 C1421 0.931 . S
H1408 C1423 0.930 . S
C1409 H1397 0.930 . S
C1409 C1410 1.399 . S
C1409 C1414 1.399 . S
C1410 C1409 1.399 . S
C1410 C1411 1.376 . S
C1411 H1398 0.930 1_554 S
C1411 C1410 1.376 . S
C1411 C1412 1.388 . S
C1412 H1399 0.930 . S
C1412 C1411 1.388 . S
C1412 C1413 1.390 . S
C1413 C1412 1.390 . S
C1413 C1414 1.394 . S
C1413 C1419 1.465 . S
C1414 C1409 1.399 . S
C1414 C1413 1.394 . S
C1414 C1415 1.516 . S
C1415 C1414 1.516 . S
C1415 C1416 1.502 . S
C1415 C1417 1.561 . S
C1415 C1418 1.526 . S
C1416 H1400 0.959 . S
C1416 H1401 0.959 . S
C1416 H1402 0.961 . S
C1416 C1415 1.502 . S
C1417 H1403 0.960 . S
C1417 H1404 0.961 . S
C1417 H1405 0.959 . S
C1417 C1415 1.561 . S
C1418 C1415 1.526 . S
C1418 C1419 1.396 . S
C1418 C1423 1.390 . S
C1419 C1413 1.465 . S
C1419 C1418 1.396 . S
C1419 C1420 1.399 . S
C1420 H1406 0.929 . S
C1420 C1419 1.399 . S
C1420 C1421 1.385 . S
C1421 H1407 0.931 . S
C1421 C1420 1.385 . S
C1421 C1422 1.389 . S
C1422 C1421 1.389 . S
C1422 C1423 1.387 . S
C1423 H1408 0.930 . S
C1423 C1418 1.390 . S
C1423 C1422 1.387 . S
H1424 C1436 0.930 . S
H1425 C1438 0.930 . S
H1426 C1439 0.930 . S
H1427 C1443 0.959 . S
H1428 C1443 0.959 . S
H1429 C1443 0.961 . S
H1430 C1444 0.960 . S
H1431 C1444 0.961 . S
H1432 C1444 0.959 . S
H1433 C1447 0.929 . S
H1434 C1448 0.931 . S
H1435 C1450 0.930 . S
C1436 H1424 0.930 . S
C1436 C1437 1.399 . S
C1436 C1441 1.399 . S
C1437 C1436 1.399 . S
C1437 C1438 1.376 . S
C1438 H1425 0.930 . S
C1438 C1437 1.376 . S
C1438 C1439 1.388 . S
C1439 H1426 0.930 . S
C1439 C1438 1.388 . S
C1439 C1440 1.390 . S
C1440 C1439 1.390 . S
C1440 C1441 1.394 . S
C1440 C1446 1.465 . S
C1441 C1436 1.399 . S
C1441 C1440 1.394 . S
C1441 C1442 1.516 . S
C1442 C1441 1.516 . S
C1442 C1443 1.502 . S
C1442 C1444 1.561 . S
C1442 C1445 1.526 . S
C1443 H1427 0.959 . S
C1443 H1428 0.959 . S
C1443 H1429 0.961 . S
C1443 C1442 1.502 . S
C1444 H1430 0.960 . S
C1444 H1431 0.961 . S
C1444 H1432 0.959 . S
C1444 C1442 1.561 . S
C1445 C1442 1.526 . S
C1445 C1446 1.396 . S
C1445 C1450 1.390 . S
C1446 C1440 1.465 . S
C1446 C1445 1.396 . S
C1446 C1447 1.399 . S
C1447 H1433 0.929 . S
C1447 C1446 1.399 . S
C1447 C1448 1.385 . S
C1448 H1434 0.931 . S
C1448 C1447 1.385 . S
C1448 C1449 1.389 . S
C1449 C1448 1.389 . S
C1449 C1450 1.387 . S
C1450 H1435 0.930 . S
C1450 C1445 1.390 . S
C1450 C1449 1.387 . S
H1451 C1463 0.930 . S
H1452 C1465 0.930 . S
H1453 C1466 0.930 . S
H1454 C1470 0.959 . S
H1455 C1470 0.959 . S
H1456 C1470 0.961 . S
H1457 C1471 0.960 . S
H1458 C1471 0.961 . S
H1459 C1471 0.959 . S
H1460 C1474 0.929 . S
H1461 C1475 0.931 . S
H1462 C1477 0.930 . S
C1463 H1451 0.930 . S
C1463 C1464 1.399 . S
C1463 C1468 1.399 . S
C1464 C1463 1.399 . S
C1464 C1465 1.376 . S
C1465 H1452 0.930 . S
C1465 C1464 1.376 . S
C1465 C1466 1.388 . S
C1466 H1453 0.930 . S
C1466 C1465 1.388 . S
C1466 C1467 1.390 . S
C1467 C1466 1.390 . S
C1467 C1468 1.394 . S
C1467 C1473 1.465 . S
C1468 C1463 1.399 . S
C1468 C1467 1.394 . S
C1468 C1469 1.516 . S
C1469 C1468 1.516 . S
C1469 C1470 1.502 . S
C1469 C1471 1.561 . S
C1469 C1472 1.526 . S
C1470 H1454 0.959 . S
C1470 H1455 0.959 . S
C1470 H1456 0.961 . S
C1470 C1469 1.502 . S
C1471 H1457 0.960 . S
C1471 H1458 0.961 . S
C1471 H1459 0.959 . S
C1471 C1469 1.561 . S
C1472 C1469 1.526 . S
C1472 C1473 1.396 . S
C1472 C1477 1.390 . S
C1473 C1467 1.465 . S
C1473 C1472 1.396 . S
C1473 C1474 1.399 . S
C1474 H1460 0.929 . S
C1474 C1473 1.399 . S
C1474 C1475 1.385 . S
C1475 H1461 0.931 . S
C1475 C1474 1.385 . S
C1475 C1476 1.389 . S
C1476 C1475 1.389 . S
C1476 C1477 1.387 . S
C1477 H1462 0.930 . S
C1477 C1472 1.390 . S
C1477 C1476 1.387 . S
H1478 C1490 0.930 . S
H1479 C1492 0.930 . S
H1480 C1493 0.930 . S
H1481 C1497 0.959 . S
H1482 C1497 0.959 . S
H1483 C1497 0.961 . S
H1484 C1498 0.960 . S
H1485 C1498 0.961 . S
H1486 C1498 0.959 . S
H1487 C1501 0.929 . S
H1488 C1502 0.931 . S
H1489 C1504 0.930 . S
C1490 H1478 0.930 . S
C1490 C1491 1.399 . S
C1490 C1495 1.399 . S
C1491 C1490 1.399 . S
C1491 C1492 1.376 . S
C1492 H1479 0.930 . S
C1492 C1491 1.376 . S
C1492 C1493 1.388 . S
C1493 H1480 0.930 . S
C1493 C1492 1.388 . S
C1493 C1494 1.390 . S
C1494 C1493 1.390 . S
C1494 C1495 1.394 . S
C1494 C1500 1.465 . S
C1495 C1490 1.399 . S
C1495 C1494 1.394 . S
C1495 C1496 1.516 . S
C1496 C1495 1.516 . S
C1496 C1497 1.502 . S
C1496 C1498 1.561 . S
C1496 C1499 1.526 . S
C1497 H1481 0.959 . S
C1497 H1482 0.959 . S
C1497 H1483 0.961 . S
C1497 C1496 1.502 . S
C1498 H1484 0.960 . S
C1498 H1485 0.961 . S
C1498 H1486 0.959 . S
C1498 C1496 1.561 . S
C1499 C1496 1.526 . S
C1499 C1500 1.396 . S
C1499 C1504 1.390 . S
C1500 C1494 1.465 . S
C1500 C1499 1.396 . S
C1500 C1501 1.399 . S
C1501 H1487 0.929 . S
C1501 C1500 1.399 . S
C1501 C1502 1.385 . S
C1502 H1488 0.931 . S
C1502 C1501 1.385 . S
C1502 C1503 1.389 . S
C1503 C1502 1.389 . S
C1503 C1504 1.387 . S
C1504 H1489 0.930 . S
C1504 C1499 1.390 . S
C1504 C1503 1.387 . S
H1505 C1517 0.930 . S
H1506 C1519 0.930 . S
H1507 C1520 0.930 . S
H1508 C1524 0.959 . S
H1509 C1524 0.959 . S
H1510 C1524 0.961 . S
H1511 C1525 0.960 . S
H1512 C1525 0.961 . S
H1513 C1525 0.959 . S
H1514 C1528 0.929 . S
H1515 C1529 0.931 . S
H1516 C1531 0.930 . S
C1517 H1505 0.930 . S
C1517 C1518 1.399 . S
C1517 C1522 1.399 . S
C1518 C1517 1.399 . S
C1518 C1519 1.376 . S
C1519 H1506 0.930 . S
C1519 C1518 1.376 . S
C1519 C1520 1.388 . S
C1520 H1507 0.930 . S
C1520 C1519 1.388 . S
C1520 C1521 1.390 . S
C1521 C1520 1.390 . S
C1521 C1522 1.394 . S
C1521 C1527 1.465 . S
C1522 C1517 1.399 . S
C1522 C1521 1.394 . S
C1522 C1523 1.516 . S
C1523 C1522 1.516 . S
C1523 C1524 1.502 . S
C1523 C1525 1.561 . S
C1523 C1526 1.526 . S
C1524 H1508 0.959 . S
C1524 H1509 0.959 . S
C1524 H1510 0.961 . S
C1524 C1523 1.502 . S
C1525 H1511 0.960 . S
C1525 H1512 0.961 . S
C1525 H1513 0.959 . S
C1525 C1523 1.561 . S
C1526 C1523 1.526 . S
C1526 C1527 1.396 . S
C1526 C1531 1.390 . S
C1527 C1521 1.465 . S
C1527 C1526 1.396 . S
C1527 C1528 1.399 . S
C1528 H1514 0.929 . S
C1528 C1527 1.399 . S
C1528 C1529 1.385 . S
C1529 H1515 0.931 . S
C1529 C1528 1.385 . S
C1529 C1530 1.389 . S
C1530 C1529 1.389 . S
C1530 C1531 1.387 . S
C1531 H1516 0.930 . S
C1531 C1526 1.390 . S
C1531 C1530 1.387 . S
H1532 C1544 0.930 . S
H1533 C1546 0.930 . S
H1534 C1547 0.930 . S
H1535 C1551 0.959 . S
H1536 C1551 0.959 . S
H1537 C1551 0.961 . S
H1538 C1552 0.960 . S
H1539 C1552 0.961 . S
H1540 C1552 0.959 1_554 S
H1541 C1555 0.929 . S
H1542 C1556 0.931 . S
H1543 C1558 0.930 . S
C1544 H1532 0.930 . S
C1544 C1545 1.399 . S
C1544 C1549 1.399 . S
C1545 C1544 1.399 . S
C1545 C1546 1.376 1_556 S
C1546 H1533 0.930 . S
C1546 C1545 1.376 1_554 S
C1546 C1547 1.388 . S
C1547 H1534 0.930 . S
C1547 C1546 1.388 . S
C1547 C1548 1.390 . S
C1548 C1547 1.390 . S
C1548 C1549 1.394 1_554 S
C1548 C1554 1.465 . S
C1549 C1544 1.399 . S
C1549 C1548 1.394 1_556 S
C1549 C1550 1.516 . S
C1550 C1549 1.516 . S
C1550 C1551 1.502 . S
C1550 C1552 1.561 . S
C1550 C1553 1.526 . S
C1551 H1535 0.959 . S
C1551 H1536 0.959 . S
C1551 H1537 0.961 . S
C1551 C1550 1.502 . S
C1552 H1538 0.960 . S
C1552 H1539 0.961 . S
C1552 H1540 0.959 1_556 S
C1552 C1550 1.561 . S
C1553 C1550 1.526 . S
C1553 C1554 1.396 1_556 S
C1553 C1558 1.390 . S
C1554 C1548 1.465 . S
C1554 C1553 1.396 1_554 S
C1554 C1555 1.399 . S
C1555 H1541 0.929 . S
C1555 C1554 1.399 . S
C1555 C1556 1.385 . S
C1556 H1542 0.931 . S
C1556 C1555 1.385 . S
C1556 C1557 1.389 . S
C1557 C1556 1.389 . S
C1557 C1558 1.387 1_554 S
C1558 H1543 0.930 . S
C1558 C1553 1.390 . S
C1558 C1557 1.387 1_556 S
H1559 C1571 0.930 . S
H1560 C1573 0.930 . S
H1561 C1574 0.930 . S
H1562 C1578 0.959 . S
H1563 C1578 0.959 . S
H1564 C1578 0.961 . S
H1565 C1579 0.960 . S
H1566 C1579 0.961 . S
H1567 C1579 0.959 . S
H1568 C1582 0.929 . S
H1569 C1583 0.931 . S
H1570 C1585 0.930 . S
C1571 H1559 0.930 . S
C1571 C1572 1.399 . S
C1571 C1576 1.399 . S
C1572 C1571 1.399 . S
C1572 C1573 1.376 . S
C1573 H1560 0.930 . S
C1573 C1572 1.376 . S
C1573 C1574 1.388 . S
C1574 H1561 0.930 . S
C1574 C1573 1.388 . S
C1574 C1575 1.390 . S
C1575 C1574 1.390 . S
C1575 C1576 1.394 . S
C1575 C1581 1.465 . S
C1576 C1571 1.399 . S
C1576 C1575 1.394 . S
C1576 C1577 1.516 . S
C1577 C1576 1.516 . S
C1577 C1578 1.502 . S
C1577 C1579 1.561 . S
C1577 C1580 1.526 . S
C1578 H1562 0.959 . S
C1578 H1563 0.959 . S
C1578 H1564 0.961 . S
C1578 C1577 1.502 . S
C1579 H1565 0.960 . S
C1579 H1566 0.961 . S
C1579 H1567 0.959 . S
C1579 C1577 1.561 . S
C1580 C1577 1.526 . S
C1580 C1581 1.396 . S
C1580 C1585 1.390 . S
C1581 C1575 1.465 . S
C1581 C1580 1.396 . S
C1581 C1582 1.399 . S
C1582 H1568 0.929 . S
C1582 C1581 1.399 . S
C1582 C1583 1.385 . S
C1583 H1569 0.931 . S
C1583 C1582 1.385 . S
C1583 C1584 1.389 . S
C1584 C1583 1.389 . S
C1584 C1585 1.387 . S
C1585 H1570 0.930 . S
C1585 C1580 1.390 . S
C1585 C1584 1.387 . S
H1586 C1598 0.930 . S
H1587 C1600 0.930 . S
H1588 C1601 0.930 . S
H1589 C1605 0.959 . S
H1590 C1605 0.959 . S
H1591 C1605 0.961 . S
H1592 C1606 0.960 . S
H1593 C1606 0.961 . S
H1594 C1606 0.959 . S
H1595 C1609 0.929 . S
H1596 C1610 0.931 . S
H1597 C1612 0.930 . S
C1598 H1586 0.930 . S
C1598 C1599 1.399 . S
C1598 C1603 1.399 . S
C1599 C1598 1.399 . S
C1599 C1600 1.376 . S
C1600 H1587 0.930 . S
C1600 C1599 1.376 . S
C1600 C1601 1.388 . S
C1601 H1588 0.930 . S
C1601 C1600 1.388 . S
C1601 C1602 1.390 . S
C1602 C1601 1.390 . S
C1602 C1603 1.394 . S
C1602 C1608 1.465 . S
C1603 C1598 1.399 . S
C1603 C1602 1.394 . S
C1603 C1604 1.516 . S
C1604 C1603 1.516 . S
C1604 C1605 1.502 . S
C1604 C1606 1.561 . S
C1604 C1607 1.526 . S
C1605 H1589 0.959 . S
C1605 H1590 0.959 . S
C1605 H1591 0.961 . S
C1605 C1604 1.502 . S
C1606 H1592 0.960 . S
C1606 H1593 0.961 . S
C1606 H1594 0.959 . S
C1606 C1604 1.561 . S
C1607 C1604 1.526 . S
C1607 C1608 1.396 . S
C1607 C1612 1.390 . S
C1608 C1602 1.465 . S
C1608 C1607 1.396 . S
C1608 C1609 1.399 . S
C1609 H1595 0.929 . S
C1609 C1608 1.399 . S
C1609 C1610 1.385 . S
C1610 H1596 0.931 . S
C1610 C1609 1.385 . S
C1610 C1611 1.389 . S
C1611 C1610 1.389 . S
C1611 C1612 1.387 . S
C1612 H1597 0.930 . S
C1612 C1607 1.390 . S
C1612 C1611 1.387 . S
H1613 C1625 0.930 . S
H1614 C1627 0.930 . S
H1615 C1628 0.930 1_556 S
H1616 C1632 0.959 . S
H1617 C1632 0.959 . S
H1618 C1632 0.961 . S
H1619 C1633 0.960 . S
H1620 C1633 0.961 . S
H1621 C1633 0.959 . S
H1622 C1636 0.929 . S
H1623 C1637 0.915 1_556 S
H1624 C1639 0.930 . S
C1625 H1613 0.930 . S
C1625 C1626 1.399 . S
C1625 C1630 1.399 . S
C1626 C1625 1.399 . S
C1626 C1627 1.376 . S
C1627 H1614 0.930 . S
C1627 C1626 1.376 . S
C1627 C1628 1.388 . S
C1628 H1615 0.930 1_554 S
C1628 C1627 1.388 . S
C1628 C1629 1.390 . S
C1629 C1628 1.390 . S
C1629 C1630 1.394 . S
C1629 C1635 1.465 . S
C1630 C1625 1.399 . S
C1630 C1629 1.394 . S
C1630 C1631 1.516 . S
C1631 C1630 1.516 . S
C1631 C1632 1.502 . S
C1631 C1633 1.561 . S
C1631 C1634 1.526 . S
C1632 H1616 0.959 . S
C1632 H1617 0.959 . S
C1632 H1618 0.961 . S
C1632 C1631 1.502 . S
C1633 H1619 0.960 . S
C1633 H1620 0.961 . S
C1633 H1621 0.959 . S
C1633 C1631 1.561 . S
C1634 C1631 1.526 . S
C1634 C1635 1.396 . S
C1634 C1639 1.390 . S
C1635 C1629 1.465 . S
C1635 C1634 1.396 . S
C1635 C1636 1.399 1_554 S
C1636 H1622 0.929 . S
C1636 C1635 1.399 1_556 S
C1636 C1637 1.385 1_556 S
C1637 H1623 0.915 1_554 S
C1637 C1636 1.385 1_554 S
C1637 C1638 1.405 . S
C1638 C1637 1.405 . S
C1638 C1639 1.387 . S
C1639 H1624 0.930 . S
C1639 C1634 1.390 . S
C1639 C1638 1.387 . S
C369 C184 1.108 . S
C357 C62 1.160 . S
C396 C197 1.535 . S
C384 C73 1.406 1_455 S
C411 C84 1.673 . S
C423 C217 1.638 . S
C450 C231 1.216 1_565 S
C438 C49 1.135 . S
C477 C243 1.374 . S
C465 C118 1.355 . S
C504 C257 1.557 . S
C492 C137 1.248 . S
C519 C129 1.579 . S
C531 C267 1.543 . S
C558 C282 1.863 . S
C546 C106 1.876 . S
C573 C128 1.826 . S
C585 C296 1.813 . S
C612 C315 1.451 . S
C600 C104 1.399 . S
C627 C115 1.505 . S
C639 C295 1.787 . S
C666 C313 1.689 . S
C654 C139 1.619 . S
C681 C85 1.703 . S
C693 C329 1.543 . S
C708 C52 1.171 . S
C720 C323 1.187 . S
C735 C60 0.906 . S
C747 C327 1.088 . S
C762 C71 1.355 . S
C774 C324 1.585 . S
C789 C40 1.660 . S
C801 C226 1.770 . S
C816 C162 1.093 . S
C828 C225 1.127 . S
C855 C189 1.052 . S
C843 C173 1.090 1_565 S
C882 C203 1.759 . S
C870 C93 1.711 . S
C897 C51 1.506 . S
C909 C240 1.468 . S
C936 C285 1.548 . S
C924 C126 1.435 . S
C963 C239 1.739 . S
C951 C107 1.707 . S
C990 C271 1.524 . S
C978 C140 1.496 . S
C1017 C268 1.113 . S
C1005 C161 1.173 . S
C1032 C172 1.399 . S
C1044 C281 1.531 . S
C1059 C95 1.635 . S
C1071 C245 1.564 . S
C1098 C259 1.174 . S
C1086 C148 0.994 . S
C1113 C41 1.399 . S
C1125 C215 1.398 . S
C1152 C229 1.558 . S
C1140 C5 1.396 . S
C1179 C183 1.548 . S
C1167 C19 1.549 . S
C1206 C198 1.895 . S
C1194 C29 1.824 . S
C1221 C18 1.776 . S
C1233 C310 1.798 . S
C1248 C27 1.422 . S
C1260 C301 1.522 1_655 S
C1275 C38 1.610 . S
C1287 C309 1.778 . S
C1302 C7 1.669 . S
C1314 C299 1.713 . S
C1341 C343 1.611 . S
C1329 C96 1.704 . S
C1368 C337 1.225 . S
C1356 C151 1.212 . S
C1395 C341 1.067 . S
C1383 C159 1.066 . S
C1410 C170 1.423 . S
C1422 C338 1.583 . S
C1437 C117 1.669 . S
C1449 C254 1.777 . S
C1476 C253 1.123 . S
C1464 C63 1.083 . S
C1503 C273 1.006 . S
C1491 C74 1.084 . S
C1530 C287 1.775 . S
C1518 C82 1.733 . S
C1545 C150 1.417 . S
C1557 C212 1.508 . S
C1584 C201 1.560 . S
C1572 C16 1.346 . S
C1599 C30 1.723 . S
C1611 C211 1.738 . S
C1638 C187 1.540 . S
C1626 C8 1.577 . S
