# Generated by pormake.
# Topology pyr, (3,6)-cn, num edge types: 1
# Building blocks:
#     Node 0, Type 0, BuildingBlock: OLANEW_clean_sbu_2, # of connection points: 3
#     Node 1, Type 0, BuildingBlock: OLANEW_clean_sbu_2, # of connection points: 3
#     Node 2, Type 0, BuildingBlock: OLANEW_clean_sbu_2, # of connection points: 3
#     Node 3, Type 0, BuildingBlock: OLANEW_clean_sbu_2, # of connection points: 3
#     Node 4, Type 0, BuildingBlock: OLANEW_clean_sbu_2, # of connection points: 3
#     Node 5, Type 0, BuildingBlock: OLANEW_clean_sbu_2, # of connection points: 3
#     Node 6, Type 0, BuildingBlock: OLANEW_clean_sbu_2, # of connection points: 3
#     Node 7, Type 0, BuildingBlock: OLANEW_clean_sbu_2, # of connection points: 3
#     Node 8, Type 1, BuildingBlock: VOLQOD_clean_sbu_1, # of connection points: 6
#     Node 9, Type 1, BuildingBlock: VOLQOD_clean_sbu_1, # of connection points: 6
#     Node 10, Type 1, BuildingBlock: VOLQOD_clean_sbu_1, # of connection points: 6
#     Node 11, Type 1, BuildingBlock: VOLQOD_clean_sbu_1, # of connection points: 6
#     Edge 12, Type (0, 1), BuildingBlock: CIFDUS_clean_linker_0, # of connection points: 2
#     Edge 13, Type (0, 1), BuildingBlock: CIFDUS_clean_linker_0, # of connection points: 2
#     Edge 14, Type (0, 1), BuildingBlock: CIFDUS_clean_linker_0, # of connection points: 2
#     Edge 15, Type (0, 1), BuildingBlock: CIFDUS_clean_linker_0, # of connection points: 2
#     Edge 16, Type (0, 1), BuildingBlock: CIFDUS_clean_linker_0, # of connection points: 2
#     Edge 17, Type (0, 1), BuildingBlock: CIFDUS_clean_linker_0, # of connection points: 2
#     Edge 18, Type (0, 1), BuildingBlock: CIFDUS_clean_linker_0, # of connection points: 2
#     Edge 19, Type (0, 1), BuildingBlock: CIFDUS_clean_linker_0, # of connection points: 2
#     Edge 20, Type (0, 1), BuildingBlock: CIFDUS_clean_linker_0, # of connection points: 2
#     Edge 21, Type (0, 1), BuildingBlock: CIFDUS_clean_linker_0, # of connection points: 2
#     Edge 22, Type (0, 1), BuildingBlock: CIFDUS_clean_linker_0, # of connection points: 2
#     Edge 23, Type (0, 1), BuildingBlock: CIFDUS_clean_linker_0, # of connection points: 2
#     Edge 24, Type (0, 1), BuildingBlock: CIFDUS_clean_linker_0, # of connection points: 2
#     Edge 25, Type (0, 1), BuildingBlock: CIFDUS_clean_linker_0, # of connection points: 2
#     Edge 26, Type (0, 1), BuildingBlock: CIFDUS_clean_linker_0, # of connection points: 2
#     Edge 27, Type (0, 1), BuildingBlock: CIFDUS_clean_linker_0, # of connection points: 2
#     Edge 28, Type (0, 1), BuildingBlock: CIFDUS_clean_linker_0, # of connection points: 2
#     Edge 29, Type (0, 1), BuildingBlock: CIFDUS_clean_linker_0, # of connection points: 2
#     Edge 30, Type (0, 1), BuildingBlock: CIFDUS_clean_linker_0, # of connection points: 2
#     Edge 31, Type (0, 1), BuildingBlock: CIFDUS_clean_linker_0, # of connection points: 2
#     Edge 32, Type (0, 1), BuildingBlock: CIFDUS_clean_linker_0, # of connection points: 2
#     Edge 33, Type (0, 1), BuildingBlock: CIFDUS_clean_linker_0, # of connection points: 2
#     Edge 34, Type (0, 1), BuildingBlock: CIFDUS_clean_linker_0, # of connection points: 2
#     Edge 35, Type (0, 1), BuildingBlock: CIFDUS_clean_linker_0, # of connection points: 2
# Relax obj value: 0.093
# Max RMSD: 0.152
# Mean RMSD: 0.134
data_MOF--net-pry--node1-OLANEW_clean_sbu_2--node2-VOLQOD_clean_sbu_1--edge1-CIFDUS_clean_linker_0
_symmetry_space_group_name_H-M    P1
_symmetry_Int_Tables_number       1
_symmetry_cell_setting            triclinic
loop_
_symmetry_equiv_pos_as_xyz
'x, y, z'
_cell_length_a     34.823424
_cell_length_b     34.99494
_cell_length_c     34.492758
_cell_angle_alpha  94.745445
_cell_angle_beta   89.365329
_cell_angle_gamma 95.231835
loop_
_atom_site_label
_atom_site_type_symbol
_atom_site_fract_x
_atom_site_fract_y
_atom_site_fract_z
_atom_type_partial_charge
O0 O 0.19298 0.15126 0.11722 0.0
Cd1 Cd 0.13593 0.1811 0.14391 0.0
O2 O 0.18902 0.10769 0.16008 0.0
Cd3 Cd 0.13737 0.12281 0.19205 0.0
O4 O 0.10694 0.11386 0.24681 0.0
C5 C 0.12551 0.12561 0.27769 0.0
O6 O 0.15966 0.14446 0.27455 0.0
C7 C 0.2062 0.12274 0.13158 0.0
C8 C 0.10782 0.23739 0.10105 0.0
O9 O 0.13763 0.24509 0.12274 0.0
O10 O 0.09168 0.20287 0.09875 0.0
O11 O 0.49156 0.93852 0.71933 0.0
Cd12 Cd 0.48667 0.93279 0.64842 0.0
O13 O 0.43099 0.95002 0.72271 0.0
Cd14 Cd 0.37392 0.95802 0.74699 0.0
O15 O 0.31315 0.9584 0.7322 0.0
C16 C 0.30709 0.9694 0.69876 0.0
O17 O 0.33688 0.98052 0.67739 0.0
C18 C 0.46217 0.94561 0.73989 0.0
C19 C 0.48519 0.8558 0.61985 0.0
O20 O 0.51711 0.8766 0.62608 0.0
O21 O 0.45373 0.87156 0.62667 0.0
O22 O 0.67945 0.49474 0.95189 0.0
Cd23 Cd 0.60947 0.49694 0.94945 0.0
O24 O 0.6641 0.44563 0.98556 0.0
Cd25 Cd 0.67103 0.39374 0.01405 0.0
O26 O 0.64759 0.33665 0.02703 0.0
C27 C 0.66147 0.31768 0.05247 0.0
O28 O 0.69209 0.33265 0.07212 0.0
C29 C 0.69003 0.46778 0.97059 0.0
C30 C 0.5817 0.49208 0.87358 0.0
O31 O 0.59198 0.5246 0.89214 0.0
O32 O 0.58459 0.46147 0.89095 0.0
O33 O 0.01827 0.67101 0.42853 0.0
Cd34 Cd 0.00884 0.60342 0.40347 0.0
O35 O 0.97093 0.64978 0.46504 0.0
Cd36 Cd 0.92167 0.65147 0.50431 0.0
O37 O 0.86285 0.62914 0.51712 0.0
C38 C 0.84683 0.63358 0.55022 0.0
O39 O 0.86607 0.65326 0.57901 0.0
C40 C 0.99395 0.67769 0.45536 0.0
C41 C 0.9986 0.59324 0.32338 0.0
O42 O 0.9715 0.60448 0.34569 0.0
O43 O 0.03058 0.58709 0.33871 0.0
O44 O 0.92758 0.9299 0.89831 0.0
Cd45 Cd 0.90852 0.90841 0.96198 0.0
O46 O 0.93494 0.99174 0.9172 0.0
Cd47 Cd 0.91177 0.98344 0.97515 0.0
O48 O 0.86038 0.98599 0.01153 0.0
C49 C 0.83 0.9692 0.99558 0.0
O50 O 0.83296 0.95041 0.96122 0.0
C51 C 0.93653 0.96451 0.8906 0.0
C52 C 0.93574 0.8373 0.97223 0.0
O53 O 0.90393 0.83945 0.95456 0.0
O54 O 0.95463 0.86879 0.98533 0.0
O55 O 0.57873 0.00898 0.4218 0.0
Cd56 Cd 0.60325 0.0082 0.48799 0.0
O57 O 0.58163 0.07198 0.42465 0.0
Cd58 Cd 0.57289 0.12975 0.4079 0.0
O59 O 0.56795 0.19214 0.41519 0.0
C60 C 0.55177 0.20557 0.446 0.0
O61 O 0.53797 0.18154 0.47112 0.0
C62 C 0.57329 0.03949 0.40583 0.0
C63 C 0.68277 0.00388 0.49282 0.0
O64 O 0.65983 0.97368 0.48428 0.0
O65 O 0.66826 0.03627 0.49845 0.0
O66 O 0.51641 0.67941 0.14359 0.0
Cd67 Cd 0.52265 0.61065 0.14612 0.0
O68 O 0.45436 0.6641 0.13779 0.0
Cd69 Cd 0.39577 0.67358 0.12217 0.0
O70 O 0.33885 0.66046 0.09647 0.0
C71 C 0.3101 0.67895 0.10639 0.0
O72 O 0.31456 0.70815 0.13293 0.0
C73 C 0.48274 0.68966 0.1393 0.0
C74 C 0.52819 0.58945 0.22172 0.0
O75 O 0.55856 0.59748 0.20155 0.0
O76 O 0.4953 0.59161 0.20613 0.0
O77 O 0.08562 0.52324 0.63817 0.0
Cd78 Cd 0.10593 0.5101 0.57081 0.0
O79 O 0.09039 0.46198 0.64277 0.0
Cd80 Cd 0.08275 0.40722 0.66915 0.0
O81 O 0.07287 0.34478 0.66844 0.0
C82 C 0.04001 0.32811 0.67605 0.0
O83 O 0.01179 0.34912 0.687 0.0
C84 C 0.08295 0.49456 0.65862 0.0
C85 C 0.18606 0.51745 0.56432 0.0
O86 O 0.1662 0.54571 0.55924 0.0
O87 O 0.16797 0.48549 0.57235 0.0
O88 O 0.99644 0.0871 0.61132 0.0
Zn89 Zn 0.97521 0.03162 0.60016 0.0
O90 O 0.0088 0.00278 0.565 0.0
Zn91 Zn 0.98186 0.98494 0.51642 0.0
Zn92 Zn 0.05453 0.03623 0.55309 0.0
Zn93 Zn 0.02425 0.95848 0.59026 0.0
O94 O 0.98573 0.92801 0.50384 0.0
O95 O 0.01175 0.90885 0.55673 0.0
O96 O 0.92217 0.03062 0.57683 0.0
O97 O 0.92553 0.99486 0.52068 0.0
O98 O 0.0052 0.01221 0.47092 0.0
O99 O 0.05817 0.04435 0.49616 0.0
O100 O 0.10296 0.01586 0.57056 0.0
O101 O 0.96985 0.00837 0.65193 0.0
O102 O 0.08159 0.96443 0.60082 0.0
O103 O 0.99869 0.95428 0.64243 0.0
C104 C 0.02826 0.10514 0.60223 0.0
C105 C 0.99743 0.90157 0.52279 0.0
C106 C 0.03606 0.03419 0.46727 0.0
C107 C 0.90646 0.0143 0.5458 0.0
C108 C 0.1091 0.98802 0.59051 0.0
C109 C 0.97961 0.97717 0.66391 0.0
O110 O 0.05289 0.08865 0.58085 0.0
O111 O 0.51008 0.09984 0.04645 0.0
Zn112 Zn 0.48029 0.04703 0.04533 0.0
O113 O 0.50833 0.01164 0.07326 0.0
Zn114 Zn 0.52253 0.97099 0.036 0.0
Zn115 Zn 0.55595 0.03786 0.09536 0.0
Zn116 Zn 0.47647 0.98971 0.11501 0.0
O117 O 0.50884 0.92035 0.05653 0.0
O118 O 0.47533 0.93071 0.11098 0.0
O119 O 0.47072 0.02732 0.98874 0.0
O120 O 0.49799 0.9723 0.98404 0.0
O121 O 0.57944 0.97307 0.02749 0.0
O122 O 0.60383 0.01354 0.07559 0.0
O123 O 0.55467 0.04135 0.15358 0.0
O124 O 0.4281 0.05183 0.06999 0.0
O125 O 0.49922 0.009 0.16812 0.0
O126 O 0.42253 0.00786 0.11333 0.0
C127 C 0.54236 0.11282 0.06173 0.0
C128 C 0.49091 0.90793 0.0859 0.0
C129 C 0.60829 0.9894 0.04655 0.0
C130 C 0.47907 0.99674 0.969 0.0
C131 C 0.53038 0.02912 0.17854 0.0
C132 C 0.4084 0.03376 0.09521 0.0
O133 O 0.56197 0.09176 0.08063 0.0
O134 O 0.54793 0.54852 0.63734 0.0
Zn135 Zn 0.5543 0.56247 0.583 0.0
O136 O 0.521 0.52845 0.54819 0.0
Zn137 Zn 0.55271 0.50588 0.50627 0.0
Zn138 Zn 0.4943 0.48784 0.57754 0.0
Zn139 Zn 0.48357 0.55947 0.52685 0.0
O140 O 0.53749 0.52269 0.45431 0.0
O141 O 0.48783 0.55706 0.46862 0.0
O142 O 0.60962 0.56081 0.56871 0.0
O143 O 0.60974 0.52298 0.51391 0.0
O144 O 0.54537 0.44757 0.50393 0.0
O145 O 0.50662 0.43543 0.55398 0.0
O146 O 0.43611 0.48985 0.57502 0.0
O147 O 0.54337 0.61735 0.58291 0.0
O148 O 0.4299 0.53983 0.54059 0.0
O149 O 0.49115 0.6159 0.54658 0.0
C150 C 0.53059 0.52082 0.65404 0.0
C151 C 0.51086 0.54233 0.44394 0.0
C152 C 0.52664 0.4238 0.52485 0.0
C153 C 0.62767 0.54478 0.54056 0.0
C154 C 0.41508 0.51235 0.55945 0.0
C155 C 0.5172 0.63446 0.56804 0.0
O156 O 0.50986 0.49389 0.63492 0.0
O157 O 0.98668 0.5024 0.07703 0.0
Zn158 Zn 0.98966 0.48366 0.02006 0.0
O159 O 0.01966 0.52316 0.99171 0.0
Zn160 Zn 0.99055 0.53591 0.94753 0.0
Zn161 Zn 0.03093 0.57045 0.02559 0.0
Zn162 Zn 0.06775 0.50339 0.97297 0.0
O163 O 0.01652 0.52151 0.89684 0.0
O164 O 0.06928 0.49609 0.91414 0.0
O165 O 0.93466 0.47318 0.99876 0.0
O166 O 0.93808 0.50801 0.94761 0.0
O167 O 0.98187 0.59229 0.95003 0.0
O168 O 0.00723 0.61582 0.00664 0.0
O169 O 0.08797 0.58482 0.02898 0.0
O170 O 0.01699 0.43438 0.01977 0.0
O171 O 0.11375 0.53938 0.99122 0.0
O172 O 0.07399 0.4526 0.99436 0.0
C173 C 0.99625 0.53451 0.0962 0.0
C174 C 0.04716 0.50545 0.88798 0.0
C175 C 0.98926 0.62026 0.97564 0.0
C176 C 0.91915 0.48517 0.96918 0.0
C177 C 0.11731 0.57022 0.01375 0.0
C178 C 0.05164 0.42797 0.0109 0.0
O179 O 0.01229 0.56318 0.07989 0.0
H180 H 0.0623 0.07721 0.29372 0.0
H181 H 0.15684 0.14958 0.3485 0.0
H182 H 0.13713 0.12811 0.41173 0.0
H183 H 0.09488 0.08711 0.45117 0.0
H184 H 0.00039 0.01416 0.39704 0.0
H185 H 0.01836 0.03755 0.33393 0.0
C186 C 0.07838 0.08855 0.31953 0.0
C187 C 0.1111 0.11489 0.31626 0.0
C188 C 0.06712 0.07577 0.35592 0.0
C189 C 0.13163 0.12921 0.35006 0.0
C190 C 0.12044 0.11688 0.38628 0.0
C191 C 0.07813 0.07625 0.42563 0.0
C192 C 0.04645 0.04868 0.42893 0.0
C193 C 0.08856 0.08982 0.38948 0.0
C194 C 0.02498 0.03528 0.39544 0.0
C195 C 0.03523 0.04866 0.35929 0.0
H196 H 0.42661 0.99279 0.79324 0.0
H197 H 0.50504 0.90391 0.78224 0.0
H198 H 0.51512 0.91029 0.85242 0.0
H199 H 0.50479 0.94333 0.91607 0.0
H200 H 0.42966 0.03515 0.92795 0.0
H201 H 0.41502 0.02534 0.85836 0.0
C202 C 0.44534 0.97443 0.80641 0.0
C203 C 0.46489 0.94776 0.78271 0.0
C204 C 0.45188 0.97902 0.84683 0.0
C205 C 0.48975 0.92469 0.79993 0.0
C206 C 0.49555 0.92833 0.84003 0.0
C207 C 0.48493 0.96107 0.90364 0.0
C208 C 0.46839 0.98996 0.9273 0.0
C209 C 0.47727 0.95579 0.86365 0.0
C210 C 0.44293 0.01278 0.91043 0.0
C211 C 0.43453 0.00717 0.87063 0.0
H212 H 0.5719 0.55197 0.83112 0.0
H213 H 0.5598 0.42782 0.825 0.0
H214 H 0.53958 0.42537 0.75701 0.0
H215 H 0.52893 0.45893 0.69797 0.0
H216 H 0.5437 0.58314 0.70527 0.0
H217 H 0.55879 0.58507 0.77411 0.0
C218 C 0.56468 0.52432 0.81505 0.0
C219 C 0.56762 0.49017 0.83306 0.0
C220 C 0.55349 0.52313 0.77606 0.0
C221 C 0.55795 0.4546 0.81178 0.0
C222 C 0.54637 0.45317 0.77289 0.0
C223 C 0.53495 0.48633 0.71486 0.0
C224 C 0.53544 0.52081 0.69652 0.0
C225 C 0.54448 0.48729 0.75454 0.0
C226 C 0.54353 0.55617 0.71863 0.0
C227 C 0.55218 0.55735 0.75802 0.0
H228 H 0.00878 0.52896 0.27736 0.0
H229 H 0.9757 0.64442 0.27554 0.0
H230 H 0.97051 0.63617 0.20441 0.0
H231 H 0.97884 0.59688 0.14266 0.0
H232 H 0.00611 0.47936 0.14518 0.0
H233 H 0.00948 0.48719 0.21622 0.0
C234 C 0.00027 0.55212 0.26122 0.0
C235 C 0.99318 0.58738 0.28112 0.0
C236 C 0.99616 0.54668 0.22066 0.0
C237 C 0.98145 0.61712 0.26043 0.0
C238 C 0.97852 0.6124 0.21991 0.0
C239 C 0.98503 0.57292 0.1589 0.0
C240 C 0.99249 0.53772 0.13891 0.0
C241 C 0.98625 0.57744 0.1997 0.0
C242 C 1.00008 0.50666 0.16008 0.0
C243 C 0.0023 0.51121 0.20062 0.0
H244 H 0.24184 0.06393 0.1577 0.0
H245 H 0.25367 0.14895 0.07344 0.0
H246 H 0.3166 0.12785 0.05385 0.0
H247 H 0.3694 0.08735 0.06281 0.0
H248 H 0.35758 0.00323 0.14806 0.0
H249 H 0.29336 0.02204 0.165 0.0
C250 C 0.25796 0.07777 0.13484 0.0
C251 C 0.24296 0.10815 0.1172 0.0
C252 C 0.29425 0.06581 0.12403 0.0
C253 C 0.26441 0.12555 0.08757 0.0
C254 C 0.30048 0.11356 0.07642 0.0
C255 C 0.35279 0.07295 0.085 0.0
C256 C 0.36858 0.04398 0.10424 0.0
C257 C 0.31588 0.08405 0.09481 0.0
C258 C 0.34638 0.02566 0.13281 0.0
C259 C 0.30959 0.03641 0.14256 0.0
H260 H 0.28546 0.9989 0.633 0.0
H261 H 0.23976 0.93834 0.72989 0.0
H262 H 0.17466 0.93656 0.70354 0.0
H263 H 0.1306 0.95343 0.65359 0.0
H264 H 0.17648 0.01648 0.55844 0.0
H265 H 0.24172 0.01567 0.58334 0.0
C266 C 0.2613 0.98524 0.64838 0.0
C267 C 0.2675 0.96879 0.68338 0.0
C268 C 0.22399 0.98461 0.63327 0.0
C269 C 0.2358 0.95136 0.70298 0.0
C270 C 0.19857 0.95023 0.68786 0.0
C271 C 0.15493 0.9666 0.63808 0.0
C272 C 0.14872 0.98483 0.60411 0.0
C273 C 0.19232 0.96682 0.65306 0.0
C274 C 0.18048 0.00228 0.58466 0.0
C275 C 0.21779 0.0019 0.5989 0.0
H276 H 0.74626 0.48315 0.91827 0.0
H277 H 0.72668 0.4415 0.03159 0.0
H278 H 0.79611 0.43897 0.03983 0.0
H279 H 0.86293 0.45448 0.01699 0.0
H280 H 0.88118 0.49618 0.90319 0.0
H281 H 0.812 0.49238 0.89293 0.0
C282 C 0.75721 0.47318 0.94461 0.0
C283 C 0.73145 0.46254 0.97424 0.0
C284 C 0.79705 0.47194 0.94916 0.0
C285 C 0.74591 0.44934 0.0081 0.0
C286 C 0.78566 0.44819 0.01295 0.0
C287 C 0.85177 0.46202 0.98967 0.0
C288 C 0.87737 0.47608 0.96118 0.0
C289 C 0.81161 0.46012 0.98395 0.0
C290 C 0.86229 0.48571 0.92591 0.0
C291 C 0.82263 0.48364 0.91996 0.0
H292 H 0.80272 0.58543 0.49915 0.0
H293 H 0.80049 0.64511 0.61376 0.0
H294 H 0.73314 0.62075 0.62161 0.0
H295 H 0.67436 0.58524 0.59486 0.0
H296 H 0.67608 0.52575 0.48011 0.0
H297 H 0.74452 0.54702 0.47365 0.0
C298 C 0.78756 0.59305 0.52592 0.0
C299 C 0.80656 0.61736 0.55571 0.0
C300 C 0.74884 0.57896 0.53024 0.0
C301 C 0.78657 0.62659 0.59032 0.0
C302 C 0.74804 0.61269 0.59483 0.0
C303 C 0.68966 0.57665 0.56846 0.0
C304 C 0.66993 0.55414 0.53787 0.0
C305 C 0.72881 0.58923 0.56481 0.0
C306 C 0.69045 0.54307 0.50409 0.0
C307 C 0.72956 0.55536 0.50031 0.0
H308 H 0.14613 0.30231 0.07711 0.0
H309 H 0.03312 0.24098 0.07948 0.0
H310 H 0.00538 0.29404 0.05098 0.0
H311 H 0.01298 0.3596 0.02824 0.0
H312 H 0.12711 0.41848 0.02244 0.0
H313 H 0.15454 0.36472 0.04902 0.0
C314 C 0.11547 0.30049 0.07116 0.0
C315 C 0.09167 0.26797 0.08071 0.0
C316 C 0.09985 0.33076 0.05415 0.0
C317 C 0.05207 0.26574 0.07236 0.0
C318 C 0.03616 0.29613 0.05619 0.0
C319 C 0.04387 0.36048 0.03252 0.0
C320 C 0.06784 0.39321 0.02353 0.0
C321 C 0.05971 0.32904 0.04739 0.0
C322 C 0.1079 0.39369 0.02892 0.0
C323 C 0.12368 0.36299 0.04433 0.0
H324 H 0.59539 0.28193 0.02043 0.0
H325 H 0.68632 0.2667 0.10037 0.0
H326 H 0.65667 0.20242 0.11086 0.0
H327 H 0.60603 0.15042 0.09641 0.0
H328 H 0.51484 0.16524 0.01658 0.0
H329 H 0.54359 0.23022 0.00717 0.0
C330 C 0.60876 0.2646 0.04018 0.0
C331 C 0.64316 0.27906 0.05946 0.0
C332 C 0.59155 0.22772 0.04611 0.0
C333 C 0.65992 0.25628 0.08512 0.0
C334 C 0.64299 0.21952 0.09112 0.0
C335 C 0.59228 0.16779 0.07695 0.0
C336 C 0.55837 0.15284 0.05707 0.0
C337 C 0.60896 0.20493 0.07162 0.0
C338 C 0.54093 0.17597 0.03224 0.0
C339 C 0.5574 0.2131 0.02677 0.0
H340 H 0.00339 0.74424 0.42032 0.0
H341 H 0.9796 0.69901 0.53143 0.0
H342 H 0.9788 0.76446 0.56249 0.0
H343 H 0.98642 0.83478 0.55807 0.0
H344 H 0.00501 0.87952 0.4459 0.0
H345 H 0.00617 0.81415 0.41513 0.0
C346 C 0.99797 0.74883 0.45132 0.0
C347 C 0.99176 0.71705 0.47368 0.0
C348 C 0.99665 0.78642 0.46872 0.0
C349 C 0.98423 0.72315 0.51368 0.0
C350 C 0.98395 0.76052 0.53143 0.0
C351 C 0.99063 0.83011 0.52689 0.0
C352 C 0.99591 0.86185 0.5043 0.0
C353 C 0.99034 0.7924 0.50927 0.0
C354 C 0.00079 0.8555 0.46386 0.0
C355 C 0.00159 0.81816 0.44627 0.0
H356 H 0.54554 0.81207 0.6172 0.0
H357 H 0.4239 0.80681 0.59245 0.0
H358 H 0.42328 0.73807 0.57217 0.0
H359 H 0.45712 0.6789 0.56354 0.0
H360 H 0.57813 0.68464 0.59165 0.0
H361 H 0.57913 0.7537 0.60837 0.0
C362 C 0.51891 0.79598 0.60713 0.0
C363 C 0.48485 0.81454 0.60628 0.0
C364 C 0.51863 0.75647 0.5962 0.0
C365 C 0.45053 0.79317 0.59346 0.0
C366 C 0.45016 0.75388 0.58184 0.0
C367 C 0.48373 0.69537 0.57304 0.0
C368 C 0.51746 0.67663 0.57636 0.0
C369 C 0.484 0.73514 0.58336 0.0
C370 C 0.55167 0.69829 0.58905 0.0
C371 C 0.55233 0.73783 0.59859 0.0
H372 H 0.94933 0.91381 0.8286 0.0
H373 H 0.94487 0.0351 0.86156 0.0
H374 H 0.95611 0.04944 0.79414 0.0
H375 H 0.96654 0.02762 0.72568 0.0
H376 H 0.97359 0.90673 0.69304 0.0
H377 H 0.96161 0.89217 0.76043 0.0
C378 C 0.95097 0.94341 0.8211 0.0
C379 C 0.94618 0.97329 0.85016 0.0
C380 C 0.95757 0.95152 0.78226 0.0
C381 C 0.94858 0.0115 0.83987 0.0
C382 C 0.95482 0.01976 0.80126 0.0
C383 C 0.96514 0.99805 0.73327 0.0
C384 C 0.97061 0.96826 0.70436 0.0
C385 C 0.95909 0.98998 0.77218 0.0
C386 C 0.96939 0.93017 0.71476 0.0
C387 C 0.96261 0.92183 0.75329 0.0
H388 H 0.59226 0.08541 0.34724 0.0
H389 H 0.51956 0.98494 0.37513 0.0
H390 H 0.49745 0.97431 0.3078 0.0
H391 H 0.50202 0.991 0.23999 0.0
H392 H 0.57852 0.08865 0.21105 0.0
H393 H 0.59571 0.10301 0.27945 0.0
C394 C 0.57104 0.06167 0.33863 0.0
C395 C 0.55731 0.03618 0.36607 0.0
C396 C 0.55943 0.05496 0.29951 0.0
C397 C 0.53051 0.00496 0.35443 0.0
C398 C 0.51791 0.99881 0.31594 0.0
C399 C 0.52217 0.01562 0.24872 0.0
C400 C 0.53901 0.0386 0.22041 0.0
C401 C 0.53268 0.02321 0.28805 0.0
C402 C 0.56534 0.07025 0.2322 0.0
C403 C 0.57515 0.07858 0.27135 0.0
H404 H 0.4713 0.58551 0.27598 0.0
H405 H 0.59148 0.56819 0.25762 0.0
H406 H 0.5962 0.54996 0.32417 0.0
H407 H 0.56654 0.54047 0.3881 0.0
H408 H 0.44723 0.56116 0.40719 0.0
H409 H 0.44178 0.57632 0.33976 0.0
C410 C 0.49849 0.5776 0.28648 0.0
C411 C 0.53096 0.57816 0.26189 0.0
C412 C 0.50115 0.56773 0.3249 0.0
C413 C 0.56607 0.56812 0.27602 0.0
C414 C 0.56879 0.55761 0.31404 0.0
C415 C 0.53926 0.54796 0.37738 0.0
C416 C 0.50731 0.54957 0.40256 0.0
C417 C 0.53655 0.55748 0.3388 0.0
C418 C 0.47229 0.55982 0.38841 0.0
C419 C 0.46914 0.56849 0.34986 0.0
H420 H 0.10826 0.45866 0.719 0.0
H421 H 0.03178 0.54229 0.69037 0.0
H422 H 0.01306 0.55218 0.75875 0.0
H423 H 0.01931 0.53791 0.82659 0.0
H424 H 0.09815 0.45658 0.85601 0.0
H425 H 0.11491 0.44469 0.78732 0.0
C426 C 0.087 0.47851 0.72771 0.0
C427 C 0.07089 0.49925 0.69973 0.0
C428 C 0.07699 0.4846 0.76717 0.0
C429 C 0.0444 0.52591 0.71148 0.0
C430 C 0.03371 0.53155 0.75051 0.0
C431 C 0.04002 0.51742 0.818 0.0
C432 C 0.05733 0.49806 0.8464 0.0
C433 C 0.04995 0.51119 0.77861 0.0
C434 C 0.08446 0.47195 0.83477 0.0
C435 C 0.09401 0.46508 0.79548 0.0
H436 H 0.7611 0.93743 0.96753 0.0
H437 H 0.81239 0.01224 0.06249 0.0
H438 H 0.74822 0.02445 0.08742 0.0
H439 H 0.67744 0.01614 0.08033 0.0
H440 H 0.62732 0.94147 0.98444 0.0
H441 H 0.69119 0.92716 0.9619 0.0
C442 C 0.75835 0.95622 0.99385 0.0
C443 C 0.79152 0.97403 0.01297 0.0
C444 C 0.72152 0.9634 0.00776 0.0
C445 C 0.78732 0.99816 0.04715 0.0
C446 C 0.75063 0.00528 0.06136 0.0
C447 C 0.68048 0.99665 0.05458 0.0
C448 C 0.64748 0.98015 0.03407 0.0
C449 C 0.7175 0.98845 0.04158 0.0
C450 C 0.65206 0.95478 0.00083 0.0
C451 C 0.68865 0.94649 0.98784 0.0
H452 H 0.73375 0.05393 0.53452 0.0
H453 H 0.72545 0.94733 0.46153 0.0
H454 H 0.79427 0.9418 0.47026 0.0
H455 H 0.85658 0.96663 0.4998 0.0
H456 H 0.86362 0.07096 0.57639 0.0
H457 H 0.79559 0.07796 0.56518 0.0
C458 C 0.74709 0.02964 0.52031 0.0
C459 C 0.72463 0.00121 0.49722 0.0
C460 C 0.78642 0.02615 0.52627 0.0
C461 C 0.74215 0.96959 0.47946 0.0
C462 C 0.78149 0.96642 0.48444 0.0
C463 C 0.84325 0.99097 0.51389 0.0
C464 C 0.86518 0.01829 0.53878 0.0
C465 C 0.80388 0.99442 0.50795 0.0
C466 C 0.84736 0.04943 0.55721 0.0
C467 C 0.80847 0.05353 0.55074 0.0
H468 H 0.2923 0.62019 0.05126 0.0
H469 H 0.24132 0.70819 0.12462 0.0
H470 H 0.17731 0.68351 0.1007 0.0
H471 H 0.1357 0.63494 0.06172 0.0
H472 H 0.18686 0.54639 0.98914 0.0
H473 H 0.25101 0.57359 0.00995 0.0
C474 C 0.26725 0.63417 0.06191 0.0
C475 C 0.27161 0.66583 0.08994 0.0
C476 C 0.23055 0.61968 0.04828 0.0
C477 C 0.23881 0.68369 0.10318 0.0
C478 C 0.20217 0.66956 0.08955 0.0
C479 C 0.16084 0.62167 0.0502 0.0
C480 C 0.15633 0.58846 0.02408 0.0
C481 C 0.19768 0.63725 0.06253 0.0
C482 C 0.18936 0.57185 0.00938 0.0
C483 C 0.22611 0.58735 0.02131 0.0
H484 H 0.23678 0.46721 0.58368 0.0
H485 H 0.23096 0.57758 0.53762 0.0
H486 H 0.30101 0.58535 0.53201 0.0
H487 H 0.36367 0.56121 0.54014 0.0
H488 H 0.37066 0.45163 0.58747 0.0
H489 H 0.3003 0.44326 0.59272 0.0
C490 C 0.25085 0.49292 0.57234 0.0
C491 C 0.22861 0.52173 0.56101 0.0
C492 C 0.2913 0.4974 0.56948 0.0
C493 C 0.24732 0.55498 0.54661 0.0
C494 C 0.28741 0.55946 0.54335 0.0
C495 C 0.34993 0.53539 0.55156 0.0
C496 C 0.37251 0.50703 0.56326 0.0
C497 C 0.30964 0.53089 0.5547 0.0
C498 C 0.35404 0.47396 0.57827 0.0
C499 C 0.3138 0.46912 0.58123 0.0
H500 H 0.91266 0.76833 0.93371 0.0
H501 H 0.99173 0.82167 0.02187 0.0
H502 H 0.01523 0.75928 0.03077 0.0
H503 H 0.01294 0.68948 0.01388 0.0
H504 H 0.93558 0.63669 0.92385 0.0
H505 H 0.91197 0.69899 0.91524 0.0
C506 C 0.93498 0.76629 0.95493 0.0
C507 C 0.95024 0.79955 0.97726 0.0
C508 C 0.94874 0.73043 0.95951 0.0
C509 C 0.97948 0.7965 0.0043 0.0
C510 C 0.99292 0.76083 0.00945 0.0
C511 C 0.9909 0.69158 0.99238 0.0
C512 C 0.97595 0.65838 0.96969 0.0
C513 C 0.9777 0.72759 0.98727 0.0
C514 C 0.94768 0.66175 0.94167 0.0
C515 C 0.93406 0.69736 0.93678 0.0
H516 H 0.53006 0.73757 0.0999 0.0
H517 H 0.42363 0.73206 0.16487 0.0
H518 H 0.41622 0.79959 0.15467 0.0
H519 H 0.44102 0.86082 0.12739 0.0
H520 H 0.54602 0.86294 0.05939 0.0
H521 H 0.55292 0.79646 0.07069 0.0
C522 C 0.50527 0.75121 0.11187 0.0
C523 C 0.47746 0.73006 0.13303 0.0
C524 C 0.50094 0.78955 0.10531 0.0
C525 C 0.44522 0.7478 0.14806 0.0
C526 C 0.4411 0.78642 0.1424 0.0
C527 C 0.46527 0.84658 0.11504 0.0
C528 C 0.49285 0.86689 0.09253 0.0
C529 C 0.46886 0.80768 0.12105 0.0
C530 C 0.52408 0.848 0.07651 0.0
C531 C 0.52825 0.80993 0.08307 0.0
H532 H 0.08936 0.27856 0.64412 0.0
H533 H 0.97408 0.28261 0.69065 0.0
H534 H 0.96062 0.21357 0.67328 0.0
H535 H 0.9807 0.15269 0.64202 0.0
H536 H 0.09568 0.14994 0.59409 0.0
H537 H 0.10998 0.21784 0.6149 0.0
C538 C 0.06136 0.26436 0.6508 0.0
C539 C 0.03275 0.2858 0.66856 0.0
C540 C 0.05363 0.22488 0.64023 0.0
C541 C 0.99663 0.26684 0.67691 0.0
C542 C 0.98887 0.22736 0.66691 0.0
C543 C 0.00894 0.16688 0.63628 0.0
C544 C 0.03694 0.14615 0.6163 0.0
C545 C 0.017 0.20619 0.64807 0.0
C546 C 0.07342 0.1651 0.60917 0.0
C547 C 0.08171 0.20399 0.62111 0.0
H548 H 0.51713 0.24194 0.50775 0.0
H549 H 0.58185 0.26394 0.40323 0.0
H550 H 0.57993 0.33323 0.41839 0.0
H551 H 0.56044 0.38765 0.46174 0.0
H552 H 0.49529 0.36503 0.56597 0.0
H553 H 0.49693 0.296 0.5504 0.0
C554 C 0.53078 0.26183 0.48818 0.0
C555 C 0.54966 0.24764 0.45441 0.0
C556 C 0.52959 0.30162 0.49706 0.0
C557 C 0.56709 0.27397 0.42941 0.0
C558 C 0.56606 0.31365 0.4381 0.0
C559 C 0.54662 0.36767 0.48112 0.0
C560 C 0.52786 0.38174 0.51508 0.0
C561 C 0.54751 0.32782 0.47193 0.0
C562 C 0.50997 0.35523 0.53965 0.0
C563 C 0.51087 0.31564 0.53079 0.0
loop_
_geom_bond_atom_site_label_1
_geom_bond_atom_site_label_2
_geom_bond_distance
_geom_bond_site_symmetry_2
_ccdc_geom_bond_type
O0 Cd1 2.300 . S
O0 C7 1.275 . S
Cd1 O0 2.300 . S
Cd1 O9 2.381 . S
Cd1 O10 2.378 . S
O2 Cd3 2.385 . S
O2 C7 1.255 . S
Cd3 O2 2.385 . S
Cd3 O4 2.317 . S
O4 Cd3 2.317 . S
O4 C5 1.232 . S
C5 O4 1.232 . S
C5 O6 1.218 . S
O6 C5 1.218 . S
C7 O0 1.275 . S
C7 O2 1.255 . S
C8 O9 1.258 . S
C8 O10 1.256 . S
O9 Cd1 2.381 . S
O9 C8 1.258 . S
O10 Cd1 2.378 . S
O10 C8 1.256 . S
O11 Cd12 2.300 . S
O11 C18 1.275 . S
Cd12 O11 2.300 . S
Cd12 O20 2.381 . S
Cd12 O21 2.378 . S
O13 Cd14 2.385 . S
O13 C18 1.255 . S
Cd14 O13 2.385 . S
Cd14 O15 2.317 . S
O15 Cd14 2.317 . S
O15 C16 1.232 . S
C16 O15 1.232 . S
C16 O17 1.218 . S
O17 C16 1.218 . S
C18 O11 1.275 . S
C18 O13 1.255 . S
C19 O20 1.258 . S
C19 O21 1.256 . S
O20 Cd12 2.381 . S
O20 C19 1.258 . S
O21 Cd12 2.378 . S
O21 C19 1.256 . S
O22 Cd23 2.300 . S
O22 C29 1.275 . S
Cd23 O22 2.300 . S
Cd23 O31 2.381 . S
Cd23 O32 2.378 . S
O24 Cd25 2.385 . S
O24 C29 1.255 . S
Cd25 O24 2.385 . S
Cd25 O26 2.317 . S
O26 Cd25 2.317 . S
O26 C27 1.232 . S
C27 O26 1.232 . S
C27 O28 1.218 . S
O28 C27 1.218 . S
C29 O22 1.275 . S
C29 O24 1.255 . S
C30 O31 1.258 . S
C30 O32 1.256 . S
O31 Cd23 2.381 . S
O31 C30 1.258 . S
O32 Cd23 2.378 . S
O32 C30 1.256 . S
O33 Cd34 2.300 . S
O33 C40 1.275 . S
Cd34 O33 2.300 . S
Cd34 O42 2.381 . S
Cd34 O43 2.378 . S
O35 Cd36 2.385 . S
O35 C40 1.255 . S
Cd36 O35 2.385 . S
Cd36 O37 2.317 . S
O37 Cd36 2.317 . S
O37 C38 1.232 . S
C38 O37 1.232 . S
C38 O39 1.218 . S
O39 C38 1.218 . S
C40 O33 1.275 . S
C40 O35 1.255 . S
C41 O42 1.258 . S
C41 O43 1.256 . S
O42 Cd34 2.381 . S
O42 C41 1.258 . S
O43 Cd34 2.378 . S
O43 C41 1.256 . S
O44 Cd45 2.300 . S
O44 C51 1.275 . S
Cd45 O44 2.300 . S
Cd45 O53 2.381 . S
Cd45 O54 2.378 1_556 S
O46 Cd47 2.374 1_566 S
O46 C51 1.255 . S
Cd47 O46 2.374 1_544 S
Cd47 O48 2.319 1_545 S
O48 Cd47 2.319 1_565 S
O48 C49 1.232 1_564 S
C49 O48 1.232 1_546 S
C49 O50 1.218 . S
O50 C49 1.218 . S
C51 O44 1.275 . S
C51 O46 1.255 . S
C52 O53 1.258 . S
C52 O54 1.256 1_556 S
O53 Cd45 2.381 . S
O53 C52 1.258 . S
O54 Cd45 2.378 1_554 S
O54 C52 1.256 1_554 S
O55 Cd56 2.300 . S
O55 C62 1.275 . S
Cd56 O55 2.300 . S
Cd56 O64 2.381 . S
Cd56 O65 2.378 . S
O57 Cd58 2.385 . S
O57 C62 1.255 . S
Cd58 O57 2.385 . S
Cd58 O59 2.317 . S
O59 Cd58 2.317 . S
O59 C60 1.232 . S
C60 O59 1.232 . S
C60 O61 1.218 . S
O61 C60 1.218 . S
C62 O55 1.275 . S
C62 O57 1.255 . S
C63 O64 1.258 . S
C63 O65 1.256 . S
O64 Cd56 2.381 . S
O64 C63 1.258 . S
O65 Cd56 2.378 . S
O65 C63 1.256 . S
O66 Cd67 2.300 . S
O66 C73 1.275 . S
Cd67 O66 2.300 . S
Cd67 O75 2.381 . S
Cd67 O76 2.378 . S
O68 Cd69 2.385 . S
O68 C73 1.255 . S
Cd69 O68 2.385 . S
Cd69 O70 2.317 . S
O70 Cd69 2.317 . S
O70 C71 1.232 . S
C71 O70 1.232 . S
C71 O72 1.218 . S
O72 C71 1.218 . S
C73 O66 1.275 . S
C73 O68 1.255 . S
C74 O75 1.258 . S
C74 O76 1.256 . S
O75 Cd67 2.381 . S
O75 C74 1.258 . S
O76 Cd67 2.378 . S
O76 C74 1.256 . S
O77 Cd78 2.300 . S
O77 C84 1.275 . S
Cd78 O77 2.300 . S
Cd78 O86 2.381 . S
Cd78 O87 2.378 . S
O79 Cd80 2.385 . S
O79 C84 1.255 . S
Cd80 O79 2.385 . S
Cd80 O81 2.317 . S
O81 Cd80 2.317 . S
O81 C82 1.232 . S
C82 O81 1.232 . S
C82 O83 1.218 . S
O83 C82 1.218 . S
C84 O77 1.275 . S
C84 O79 1.255 . S
C85 O86 1.258 . S
C85 O87 1.256 . S
O86 Cd78 2.381 . S
O86 C85 1.258 . S
O87 Cd78 2.378 . S
O87 C85 1.256 . S
O88 Zn89 1.953 . S
O88 C104 1.225 1_655 S
Zn89 O88 1.953 . S
Zn89 O90 1.949 1_655 S
Zn89 O96 1.919 . S
Zn89 O101 1.924 . S
O90 Zn89 1.949 1_455 S
O90 Zn91 1.923 1_445 S
O90 Zn92 1.950 . S
O90 Zn93 1.945 1_545 S
Zn91 O90 1.923 1_665 S
Zn91 O94 1.933 . S
Zn91 O97 1.941 1_565 S
Zn91 O98 1.965 1_665 S
Zn92 O90 1.950 . S
Zn92 O99 1.938 . S
Zn92 O100 1.906 . S
Zn92 O110 1.953 . S
Zn93 O90 1.945 1_565 S
Zn93 O95 1.932 1_455 S
Zn93 O102 1.977 . S
Zn93 O103 1.910 1_455 S
O94 Zn91 1.933 . S
O94 C105 1.226 . S
O95 Zn93 1.932 1_655 S
O95 C105 1.307 . S
O96 Zn89 1.919 . S
O96 C107 1.253 . S
O97 Zn91 1.941 1_545 S
O97 C107 1.283 . S
O98 Zn91 1.965 1_445 S
O98 C106 1.303 . S
O99 Zn92 1.938 . S
O99 C106 1.247 . S
O100 Zn92 1.906 . S
O100 C108 1.304 1_545 S
O101 Zn89 1.924 . S
O101 C109 1.311 . S
O102 Zn93 1.977 . S
O102 C108 1.272 . S
O103 Zn93 1.910 1_655 S
O103 C109 1.231 1_565 S
C104 O88 1.225 1_455 S
C104 O110 1.298 . S
C105 O94 1.226 . S
C105 O95 1.307 . S
C106 O98 1.303 . S
C106 O99 1.247 . S
C107 O96 1.253 . S
C107 O97 1.283 . S
C108 O100 1.304 1_565 S
C108 O102 1.272 . S
C109 O101 1.311 . S
C109 O103 1.231 1_545 S
O110 Zn92 1.953 . S
O110 C104 1.298 . S
O111 Zn112 1.953 . S
O111 C127 1.225 . S
Zn112 O111 1.953 . S
Zn112 O113 1.949 . S
Zn112 O119 1.919 1_554 S
Zn112 O124 1.924 . S
O113 Zn112 1.949 . S
O113 Zn114 1.923 1_545 S
O113 Zn115 1.950 . S
O113 Zn116 1.945 . S
Zn114 O113 1.923 1_565 S
Zn114 O117 1.933 . S
Zn114 O120 1.941 1_554 S
Zn114 O121 1.965 . S
Zn115 O113 1.950 . S
Zn115 O122 1.938 . S
Zn115 O123 1.906 . S
Zn115 O133 1.953 . S
Zn116 O113 1.945 . S
Zn116 O118 1.932 1_545 S
Zn116 O125 1.977 . S
Zn116 O126 1.910 . S
O117 Zn114 1.933 . S
O117 C128 1.226 . S
O118 Zn116 1.932 1_565 S
O118 C128 1.307 . S
O119 Zn112 1.919 1_556 S
O119 C130 1.253 1_545 S
O120 Zn114 1.941 1_556 S
O120 C130 1.283 . S
O121 Zn114 1.965 . S
O121 C129 1.303 1_565 S
O122 Zn115 1.938 . S
O122 C129 1.247 . S
O123 Zn115 1.906 . S
O123 C131 1.304 . S
O124 Zn112 1.924 . S
O124 C132 1.311 . S
O125 Zn116 1.977 . S
O125 C131 1.272 . S
O126 Zn116 1.910 . S
O126 C132 1.231 . S
C127 O111 1.225 . S
C127 O133 1.298 . S
C128 O117 1.226 . S
C128 O118 1.307 . S
C129 O121 1.303 1_545 S
C129 O122 1.247 . S
C130 O119 1.253 1_565 S
C130 O120 1.283 . S
C131 O123 1.304 . S
C131 O125 1.272 . S
C132 O124 1.311 . S
C132 O126 1.231 . S
O133 Zn115 1.953 . S
O133 C127 1.298 . S
O134 Zn135 1.953 . S
O134 C150 1.225 . S
Zn135 O134 1.953 . S
Zn135 O136 1.949 . S
Zn135 O142 1.919 . S
Zn135 O147 1.924 . S
O136 Zn135 1.949 . S
O136 Zn137 1.923 . S
O136 Zn138 1.950 . S
O136 Zn139 1.945 . S
Zn137 O136 1.923 . S
Zn137 O140 1.933 . S
Zn137 O143 1.941 . S
Zn137 O144 1.965 . S
Zn138 O136 1.950 . S
Zn138 O145 1.938 . S
Zn138 O146 1.906 . S
Zn138 O156 1.953 . S
Zn139 O136 1.945 . S
Zn139 O141 1.932 . S
Zn139 O148 1.977 . S
Zn139 O149 1.910 . S
O140 Zn137 1.933 . S
O140 C151 1.226 . S
O141 Zn139 1.932 . S
O141 C151 1.307 . S
O142 Zn135 1.919 . S
O142 C153 1.253 . S
O143 Zn137 1.941 . S
O143 C153 1.283 . S
O144 Zn137 1.965 . S
O144 C152 1.303 . S
O145 Zn138 1.938 . S
O145 C152 1.247 . S
O146 Zn138 1.906 . S
O146 C154 1.304 . S
O147 Zn135 1.924 . S
O147 C155 1.311 . S
O148 Zn139 1.977 . S
O148 C154 1.272 . S
O149 Zn139 1.910 . S
O149 C155 1.231 . S
C150 O134 1.225 . S
C150 O156 1.298 . S
C151 O140 1.226 . S
C151 O141 1.307 . S
C152 O144 1.303 . S
C152 O145 1.247 . S
C153 O142 1.253 . S
C153 O143 1.283 . S
C154 O146 1.304 . S
C154 O148 1.272 . S
C155 O147 1.311 . S
C155 O149 1.231 . S
O156 Zn138 1.953 . S
O156 C150 1.298 . S
O157 Zn158 1.953 . S
O157 C173 1.225 . S
Zn158 O157 1.953 . S
Zn158 O159 1.949 1_655 S
Zn158 O165 1.919 . S
Zn158 O170 1.924 1_655 S
O159 Zn158 1.949 1_455 S
O159 Zn160 1.923 1_554 S
O159 Zn161 1.950 . S
O159 Zn162 1.945 1_554 S
Zn160 O159 1.923 1_556 S
Zn160 O163 1.933 . S
Zn160 O166 1.941 1_455 S
Zn160 O167 1.965 . S
Zn161 O159 1.950 . S
Zn161 O168 1.938 . S
Zn161 O169 1.906 . S
Zn161 O179 1.953 . S
Zn162 O159 1.945 1_556 S
Zn162 O164 1.932 . S
Zn162 O171 1.977 1_556 S
Zn162 O172 1.910 1_556 S
O163 Zn160 1.933 . S
O163 C174 1.226 . S
O164 Zn162 1.932 . S
O164 C174 1.307 . S
O165 Zn158 1.919 . S
O165 C176 1.253 1_554 S
O166 Zn160 1.941 1_655 S
O166 C176 1.283 . S
O167 Zn160 1.965 . S
O167 C175 1.303 . S
O168 Zn161 1.938 . S
O168 C175 1.247 1_554 S
O169 Zn161 1.906 . S
O169 C177 1.304 . S
O170 Zn158 1.924 1_455 S
O170 C178 1.311 . S
O171 Zn162 1.977 1_554 S
O171 C177 1.272 . S
O172 Zn162 1.910 1_554 S
O172 C178 1.231 . S
C173 O157 1.225 . S
C173 O179 1.298 1_655 S
C174 O163 1.226 . S
C174 O164 1.307 . S
C175 O167 1.303 . S
C175 O168 1.247 1_556 S
C176 O165 1.253 1_556 S
C176 O166 1.283 . S
C177 O169 1.304 . S
C177 O171 1.272 . S
C178 O170 1.311 . S
C178 O172 1.231 . S
O179 Zn161 1.953 . S
O179 C173 1.298 1_455 S
H180 C186 0.930 . S
H181 C189 0.930 . S
H182 C190 0.930 . S
H183 C191 0.930 . S
H184 C194 0.930 1_655 S
H185 C195 0.930 . S
C186 H180 0.930 . S
C186 C187 1.355 . S
C186 C188 1.415 . S
C187 C186 1.355 . S
C187 C189 1.419 . S
C188 C186 1.415 . S
C188 C193 1.425 . S
C188 C195 1.409 . S
C189 H181 0.930 . S
C189 C187 1.419 . S
C189 C190 1.362 . S
C190 H182 0.930 . S
C190 C189 1.362 . S
C190 C193 1.409 . S
C191 H183 0.930 . S
C191 C192 1.355 . S
C191 C193 1.415 . S
C192 C191 1.355 . S
C192 C194 1.419 . S
C193 C188 1.425 . S
C193 C190 1.409 . S
C193 C191 1.415 . S
C194 H184 0.930 1_455 S
C194 C192 1.419 . S
C194 C195 1.362 . S
C195 H185 0.930 . S
C195 C188 1.409 . S
C195 C194 1.362 . S
H196 C202 0.930 . S
H197 C205 0.930 . S
H198 C206 0.930 . S
H199 C207 0.930 . S
H200 C210 0.930 . S
H201 C211 0.930 . S
C202 H196 0.930 . S
C202 C203 1.355 . S
C202 C204 1.415 . S
C203 C202 1.355 . S
C203 C205 1.419 . S
C204 C202 1.415 . S
C204 C209 1.425 . S
C204 C211 1.409 1_565 S
C205 H197 0.930 . S
C205 C203 1.419 . S
C205 C206 1.362 . S
C206 H198 0.930 . S
C206 C205 1.362 . S
C206 C209 1.409 . S
C207 H199 0.930 . S
C207 C208 1.355 . S
C207 C209 1.415 . S
C208 C207 1.355 . S
C208 C210 1.419 1_565 S
C209 C204 1.425 . S
C209 C206 1.409 . S
C209 C207 1.415 . S
C210 H200 0.930 . S
C210 C208 1.419 1_545 S
C210 C211 1.362 . S
C211 H201 0.930 . S
C211 C204 1.409 1_545 S
C211 C210 1.362 . S
H212 C218 0.930 . S
H213 C221 0.930 . S
H214 C222 0.930 . S
H215 C223 0.930 . S
H216 C226 0.930 . S
H217 C227 0.930 . S
C218 H212 0.930 . S
C218 C219 1.355 . S
C218 C220 1.415 . S
C219 C218 1.355 . S
C219 C221 1.419 . S
C220 C218 1.415 . S
C220 C225 1.425 . S
C220 C227 1.409 . S
C221 H213 0.930 . S
C221 C219 1.419 . S
C221 C222 1.362 . S
C222 H214 0.930 . S
C222 C221 1.362 . S
C222 C225 1.409 . S
C223 H215 0.930 . S
C223 C224 1.355 . S
C223 C225 1.415 . S
C224 C223 1.355 . S
C224 C226 1.419 . S
C225 C220 1.425 . S
C225 C222 1.409 . S
C225 C223 1.415 . S
C226 H216 0.930 . S
C226 C224 1.419 . S
C226 C227 1.362 . S
C227 H217 0.930 . S
C227 C220 1.409 . S
C227 C226 1.362 . S
H228 C234 0.930 . S
H229 C237 0.930 . S
H230 C238 0.930 . S
H231 C239 0.930 . S
H232 C242 0.930 . S
H233 C243 0.930 . S
C234 H228 0.930 . S
C234 C235 1.355 . S
C234 C236 1.415 . S
C235 C234 1.355 . S
C235 C237 1.419 . S
C236 C234 1.415 . S
C236 C241 1.425 . S
C236 C243 1.409 . S
C237 H229 0.930 . S
C237 C235 1.419 . S
C237 C238 1.362 . S
C238 H230 0.930 . S
C238 C237 1.362 . S
C238 C241 1.409 . S
C239 H231 0.930 . S
C239 C240 1.355 . S
C239 C241 1.415 . S
C240 C239 1.355 . S
C240 C242 1.419 . S
C241 C236 1.425 . S
C241 C238 1.409 . S
C241 C239 1.415 . S
C242 H232 0.930 . S
C242 C240 1.419 . S
C242 C243 1.362 . S
C243 H233 0.930 . S
C243 C236 1.409 . S
C243 C242 1.362 . S
H244 C250 0.930 . S
H245 C253 0.930 . S
H246 C254 0.930 . S
H247 C255 0.930 . S
H248 C258 0.930 . S
H249 C259 0.930 . S
C250 H244 0.930 . S
C250 C251 1.355 . S
C250 C252 1.415 . S
C251 C250 1.355 . S
C251 C253 1.419 . S
C252 C250 1.415 . S
C252 C257 1.425 . S
C252 C259 1.409 . S
C253 H245 0.930 . S
C253 C251 1.419 . S
C253 C254 1.362 . S
C254 H246 0.930 . S
C254 C253 1.362 . S
C254 C257 1.409 . S
C255 H247 0.930 . S
C255 C256 1.355 . S
C255 C257 1.415 . S
C256 C255 1.355 . S
C256 C258 1.419 . S
C257 C252 1.425 . S
C257 C254 1.409 . S
C257 C255 1.415 . S
C258 H248 0.930 . S
C258 C256 1.419 . S
C258 C259 1.362 . S
C259 H249 0.930 . S
C259 C252 1.409 . S
C259 C258 1.362 . S
H260 C266 0.930 . S
H261 C269 0.930 . S
H262 C270 0.930 . S
H263 C271 0.930 . S
H264 C274 0.930 . S
H265 C275 0.930 . S
C266 H260 0.930 . S
C266 C267 1.355 . S
C266 C268 1.415 . S
C267 C266 1.355 . S
C267 C269 1.419 . S
C268 C266 1.415 . S
C268 C273 1.425 . S
C268 C275 1.409 . S
C269 H261 0.930 . S
C269 C267 1.419 . S
C269 C270 1.362 . S
C270 H262 0.930 . S
C270 C269 1.362 . S
C270 C273 1.409 . S
C271 H263 0.930 . S
C271 C272 1.355 . S
C271 C273 1.415 . S
C272 C271 1.355 . S
C272 C274 1.419 . S
C273 C268 1.425 . S
C273 C270 1.409 . S
C273 C271 1.415 . S
C274 H264 0.930 . S
C274 C272 1.419 . S
C274 C275 1.362 . S
C275 H265 0.930 . S
C275 C268 1.409 . S
C275 C274 1.362 . S
H276 C282 0.930 . S
H277 C285 0.930 . S
H278 C286 0.930 . S
H279 C287 0.930 . S
H280 C290 0.930 . S
H281 C291 0.930 . S
C282 H276 0.930 . S
C282 C283 1.355 . S
C282 C284 1.415 . S
C283 C282 1.355 . S
C283 C285 1.419 . S
C284 C282 1.415 . S
C284 C289 1.425 . S
C284 C291 1.409 . S
C285 H277 0.930 . S
C285 C283 1.419 . S
C285 C286 1.362 . S
C286 H278 0.930 . S
C286 C285 1.362 . S
C286 C289 1.409 . S
C287 H279 0.930 . S
C287 C288 1.355 . S
C287 C289 1.415 . S
C288 C287 1.355 . S
C288 C290 1.419 . S
C289 C284 1.425 . S
C289 C286 1.409 . S
C289 C287 1.415 . S
C290 H280 0.930 . S
C290 C288 1.419 . S
C290 C291 1.362 . S
C291 H281 0.930 . S
C291 C284 1.409 . S
C291 C290 1.362 . S
H292 C298 0.930 . S
H293 C301 0.930 . S
H294 C302 0.930 . S
H295 C303 0.930 . S
H296 C306 0.930 . S
H297 C307 0.930 . S
C298 H292 0.930 . S
C298 C299 1.355 . S
C298 C300 1.415 . S
C299 C298 1.355 . S
C299 C301 1.419 . S
C300 C298 1.415 . S
C300 C305 1.425 . S
C300 C307 1.409 . S
C301 H293 0.930 . S
C301 C299 1.419 . S
C301 C302 1.362 . S
C302 H294 0.930 . S
C302 C301 1.362 . S
C302 C305 1.409 . S
C303 H295 0.930 . S
C303 C304 1.355 . S
C303 C305 1.415 . S
C304 C303 1.355 . S
C304 C306 1.419 . S
C305 C300 1.425 . S
C305 C302 1.409 . S
C305 C303 1.415 . S
C306 H296 0.930 . S
C306 C304 1.419 . S
C306 C307 1.362 . S
C307 H297 0.930 . S
C307 C300 1.409 . S
C307 C306 1.362 . S
H308 C314 0.930 . S
H309 C317 0.930 . S
H310 C318 0.930 . S
H311 C319 0.930 . S
H312 C322 0.930 . S
H313 C323 0.930 . S
C314 H308 0.930 . S
C314 C315 1.355 . S
C314 C316 1.415 . S
C315 C314 1.355 . S
C315 C317 1.419 . S
C316 C314 1.415 . S
C316 C321 1.425 . S
C316 C323 1.409 . S
C317 H309 0.930 . S
C317 C315 1.419 . S
C317 C318 1.362 . S
C318 H310 0.930 . S
C318 C317 1.362 . S
C318 C321 1.409 . S
C319 H311 0.930 . S
C319 C320 1.355 . S
C319 C321 1.415 . S
C320 C319 1.355 . S
C320 C322 1.419 . S
C321 C316 1.425 . S
C321 C318 1.409 . S
C321 C319 1.415 . S
C322 H312 0.930 . S
C322 C320 1.419 . S
C322 C323 1.362 . S
C323 H313 0.930 . S
C323 C316 1.409 . S
C323 C322 1.362 . S
H324 C330 0.930 . S
H325 C333 0.930 . S
H326 C334 0.930 . S
H327 C335 0.930 . S
H328 C338 0.930 . S
H329 C339 0.930 . S
C330 H324 0.930 . S
C330 C331 1.355 . S
C330 C332 1.415 . S
C331 C330 1.355 . S
C331 C333 1.419 1_556 S
C332 C330 1.415 . S
C332 C337 1.425 1_556 S
C332 C339 1.409 . S
C333 H325 0.930 . S
C333 C331 1.419 1_554 S
C333 C334 1.362 . S
C334 H326 0.930 . S
C334 C333 1.362 . S
C334 C337 1.409 . S
C335 H327 0.930 . S
C335 C336 1.355 . S
C335 C337 1.415 . S
C336 C335 1.355 . S
C336 C338 1.419 1_554 S
C337 C332 1.425 1_554 S
C337 C334 1.409 . S
C337 C335 1.415 . S
C338 H328 0.930 . S
C338 C336 1.419 1_556 S
C338 C339 1.362 . S
C339 H329 0.930 . S
C339 C332 1.409 . S
C339 C338 1.362 . S
H340 C346 0.930 . S
H341 C349 0.930 . S
H342 C350 0.931 . S
H343 C351 0.930 . S
H344 C354 0.930 . S
H345 C355 0.930 . S
C346 H340 0.930 . S
C346 C347 1.355 . S
C346 C348 1.415 . S
C347 C346 1.355 . S
C347 C349 1.419 . S
C348 C346 1.415 . S
C348 C353 1.425 . S
C348 C355 1.409 . S
C349 H341 0.930 . S
C349 C347 1.419 . S
C349 C350 1.362 . S
C350 H342 0.931 . S
C350 C349 1.362 . S
C350 C353 1.409 . S
C351 H343 0.930 . S
C351 C352 1.355 . S
C351 C353 1.415 . S
C352 C351 1.355 . S
C352 C354 1.419 . S
C353 C348 1.425 . S
C353 C350 1.409 . S
C353 C351 1.415 . S
C354 H344 0.930 . S
C354 C352 1.419 . S
C354 C355 1.362 . S
C355 H345 0.930 . S
C355 C348 1.409 . S
C355 C354 1.362 . S
H356 C362 0.930 . S
H357 C365 0.930 . S
H358 C366 0.930 . S
H359 C367 0.930 . S
H360 C370 0.930 . S
H361 C371 0.930 . S
C362 H356 0.930 . S
C362 C363 1.355 . S
C362 C364 1.415 . S
C363 C362 1.355 . S
C363 C365 1.419 . S
C364 C362 1.415 . S
C364 C369 1.425 . S
C364 C371 1.409 . S
C365 H357 0.930 . S
C365 C363 1.419 . S
C365 C366 1.362 . S
C366 H358 0.930 . S
C366 C365 1.362 . S
C366 C369 1.409 . S
C367 H359 0.930 . S
C367 C368 1.355 . S
C367 C369 1.415 . S
C368 C367 1.355 . S
C368 C370 1.419 . S
C369 C364 1.425 . S
C369 C366 1.409 . S
C369 C367 1.415 . S
C370 H360 0.930 . S
C370 C368 1.419 . S
C370 C371 1.362 . S
C371 H361 0.930 . S
C371 C364 1.409 . S
C371 C370 1.362 . S
H372 C378 0.930 . S
H373 C381 0.930 . S
H374 C382 0.930 . S
H375 C383 0.930 . S
H376 C386 0.930 . S
H377 C387 0.930 . S
C378 H372 0.930 . S
C378 C379 1.355 . S
C378 C380 1.415 . S
C379 C378 1.355 . S
C379 C381 1.419 1_565 S
C380 C378 1.415 . S
C380 C385 1.425 1_565 S
C380 C387 1.409 . S
C381 H373 0.930 . S
C381 C379 1.419 1_545 S
C381 C382 1.362 . S
C382 H374 0.930 . S
C382 C381 1.362 . S
C382 C385 1.409 . S
C383 H375 0.930 . S
C383 C384 1.355 1_545 S
C383 C385 1.415 . S
C384 C383 1.355 1_565 S
C384 C386 1.419 . S
C385 C380 1.425 1_545 S
C385 C382 1.409 . S
C385 C383 1.415 . S
C386 H376 0.930 . S
C386 C384 1.419 . S
C386 C387 1.362 . S
C387 H377 0.930 . S
C387 C380 1.409 . S
C387 C386 1.362 . S
H388 C394 0.930 . S
H389 C397 0.930 . S
H390 C398 0.930 . S
H391 C399 0.930 . S
H392 C402 0.930 . S
H393 C403 0.930 . S
C394 H388 0.930 . S
C394 C395 1.355 . S
C394 C396 1.415 . S
C395 C394 1.355 . S
C395 C397 1.419 . S
C396 C394 1.415 . S
C396 C401 1.425 . S
C396 C403 1.409 . S
C397 H389 0.930 . S
C397 C395 1.419 . S
C397 C398 1.362 . S
C398 H390 0.930 . S
C398 C397 1.362 . S
C398 C401 1.409 . S
C399 H391 0.930 . S
C399 C400 1.355 . S
C399 C401 1.415 . S
C400 C399 1.355 . S
C400 C402 1.419 . S
C401 C396 1.425 . S
C401 C398 1.409 . S
C401 C399 1.415 . S
C402 H392 0.930 . S
C402 C400 1.419 . S
C402 C403 1.362 . S
C403 H393 0.930 . S
C403 C396 1.409 . S
C403 C402 1.362 . S
H404 C410 0.930 . S
H405 C413 0.930 . S
H406 C414 0.930 . S
H407 C415 0.930 . S
H408 C418 0.930 . S
H409 C419 0.930 . S
C410 H404 0.930 . S
C410 C411 1.355 . S
C410 C412 1.415 . S
C411 C410 1.355 . S
C411 C413 1.419 . S
C412 C410 1.415 . S
C412 C417 1.425 . S
C412 C419 1.409 . S
C413 H405 0.930 . S
C413 C411 1.419 . S
C413 C414 1.362 . S
C414 H406 0.930 . S
C414 C413 1.362 . S
C414 C417 1.409 . S
C415 H407 0.930 . S
C415 C416 1.355 . S
C415 C417 1.415 . S
C416 C415 1.355 . S
C416 C418 1.419 . S
C417 C412 1.425 . S
C417 C414 1.409 . S
C417 C415 1.415 . S
C418 H408 0.930 . S
C418 C416 1.419 . S
C418 C419 1.362 . S
C419 H409 0.930 . S
C419 C412 1.409 . S
C419 C418 1.362 . S
H420 C426 0.930 . S
H421 C429 0.930 . S
H422 C430 0.930 . S
H423 C431 0.930 . S
H424 C434 0.930 . S
H425 C435 0.930 . S
C426 H420 0.930 . S
C426 C427 1.355 . S
C426 C428 1.415 . S
C427 C426 1.355 . S
C427 C429 1.419 . S
C428 C426 1.415 . S
C428 C433 1.425 . S
C428 C435 1.409 . S
C429 H421 0.930 . S
C429 C427 1.419 . S
C429 C430 1.362 . S
C430 H422 0.930 . S
C430 C429 1.362 . S
C430 C433 1.409 . S
C431 H423 0.930 . S
C431 C432 1.355 . S
C431 C433 1.415 . S
C432 C431 1.355 . S
C432 C434 1.419 . S
C433 C428 1.425 . S
C433 C430 1.409 . S
C433 C431 1.415 . S
C434 H424 0.930 . S
C434 C432 1.419 . S
C434 C435 1.362 . S
C435 H425 0.930 . S
C435 C428 1.409 . S
C435 C434 1.362 . S
H436 C442 0.930 . S
H437 C445 0.930 . S
H438 C446 0.930 . S
H439 C447 0.930 . S
H440 C450 0.930 . S
H441 C451 0.930 . S
C442 H436 0.930 . S
C442 C443 1.348 1_566 S
C442 C444 1.415 1_565 S
C443 C442 1.348 1_544 S
C443 C445 1.430 . S
C444 C442 1.415 1_545 S
C444 C449 1.425 1_556 S
C444 C451 1.409 1_545 S
C445 H437 0.930 . S
C445 C443 1.430 . S
C445 C446 1.362 . S
C446 H438 0.930 . S
C446 C445 1.362 . S
C446 C449 1.409 . S
C447 H439 0.930 . S
C447 C448 1.355 . S
C447 C449 1.415 . S
C448 C447 1.355 . S
C448 C450 1.419 1_544 S
C449 C444 1.425 1_554 S
C449 C446 1.409 . S
C449 C447 1.415 . S
C450 H440 0.930 . S
C450 C448 1.419 1_566 S
C450 C451 1.362 . S
C451 H441 0.930 . S
C451 C444 1.409 1_565 S
C451 C450 1.362 . S
H452 C458 0.930 . S
H453 C461 0.930 1_565 S
H454 C462 0.930 . S
H455 C463 0.930 1_565 S
H456 C466 0.930 . S
H457 C467 0.930 . S
C458 H452 0.930 . S
C458 C459 1.355 . S
C458 C460 1.415 . S
C459 C458 1.355 . S
C459 C461 1.419 . S
C460 C458 1.415 . S
C460 C465 1.425 . S
C460 C467 1.409 . S
C461 H453 0.930 1_545 S
C461 C459 1.419 . S
C461 C462 1.362 1_545 S
C462 H454 0.930 . S
C462 C461 1.362 1_565 S
C462 C465 1.409 1_565 S
C463 H455 0.930 1_545 S
C463 C464 1.355 . S
C463 C465 1.415 . S
C464 C463 1.355 . S
C464 C466 1.419 . S
C465 C460 1.425 . S
C465 C462 1.409 1_545 S
C465 C463 1.415 . S
C466 H456 0.930 . S
C466 C464 1.419 . S
C466 C467 1.362 . S
C467 H457 0.930 . S
C467 C460 1.409 . S
C467 C466 1.362 . S
H468 C474 0.930 . S
H469 C477 0.930 . S
H470 C478 0.930 . S
H471 C479 0.930 . S
H472 C482 0.930 . S
H473 C483 0.930 . S
C474 H468 0.930 . S
C474 C475 1.355 . S
C474 C476 1.415 . S
C475 C474 1.355 . S
C475 C477 1.419 . S
C476 C474 1.415 . S
C476 C481 1.425 . S
C476 C483 1.409 . S
C477 H469 0.930 . S
C477 C475 1.419 . S
C477 C478 1.362 . S
C478 H470 0.930 . S
C478 C477 1.362 . S
C478 C481 1.409 . S
C479 H471 0.930 . S
C479 C480 1.355 . S
C479 C481 1.415 . S
C480 C479 1.355 . S
C480 C482 1.419 . S
C481 C476 1.425 . S
C481 C478 1.409 . S
C481 C479 1.415 . S
C482 H472 0.930 . S
C482 C480 1.419 . S
C482 C483 1.362 . S
C483 H473 0.930 . S
C483 C476 1.409 . S
C483 C482 1.362 . S
H484 C490 0.930 . S
H485 C493 0.930 . S
H486 C494 0.930 . S
H487 C495 0.930 . S
H488 C498 0.930 . S
H489 C499 0.930 . S
C490 H484 0.930 . S
C490 C491 1.355 . S
C490 C492 1.415 . S
C491 C490 1.355 . S
C491 C493 1.419 . S
C492 C490 1.415 . S
C492 C497 1.425 . S
C492 C499 1.409 . S
C493 H485 0.930 . S
C493 C491 1.419 . S
C493 C494 1.362 . S
C494 H486 0.930 . S
C494 C493 1.362 . S
C494 C497 1.409 . S
C495 H487 0.930 . S
C495 C496 1.355 . S
C495 C497 1.415 . S
C496 C495 1.355 . S
C496 C498 1.419 . S
C497 C492 1.425 . S
C497 C494 1.409 . S
C497 C495 1.415 . S
C498 H488 0.930 . S
C498 C496 1.419 . S
C498 C499 1.362 . S
C499 H489 0.930 . S
C499 C492 1.409 . S
C499 C498 1.362 . S
H500 C506 0.930 . S
H501 C509 0.930 . S
H502 C510 0.930 . S
H503 C511 0.930 . S
H504 C514 0.931 . S
H505 C515 0.930 . S
C506 H500 0.930 . S
C506 C507 1.355 . S
C506 C508 1.415 . S
C507 C506 1.355 . S
C507 C509 1.419 1_655 S
C508 C506 1.415 . S
C508 C513 1.425 1_655 S
C508 C515 1.409 . S
C509 H501 0.930 . S
C509 C507 1.419 1_455 S
C509 C510 1.362 . S
C510 H502 0.930 . S
C510 C509 1.362 . S
C510 C513 1.409 . S
C511 H503 0.930 . S
C511 C512 1.355 1_455 S
C511 C513 1.415 . S
C512 C511 1.355 1_655 S
C512 C514 1.419 . S
C513 C508 1.425 1_455 S
C513 C510 1.409 . S
C513 C511 1.415 . S
C514 H504 0.931 . S
C514 C512 1.419 . S
C514 C515 1.362 . S
C515 H505 0.930 . S
C515 C508 1.409 . S
C515 C514 1.362 . S
H516 C522 0.930 . S
H517 C525 0.930 . S
H518 C526 0.930 . S
H519 C527 0.930 . S
H520 C530 0.930 . S
H521 C531 0.930 . S
C522 H516 0.930 . S
C522 C523 1.355 . S
C522 C524 1.415 . S
C523 C522 1.355 . S
C523 C525 1.419 . S
C524 C522 1.415 . S
C524 C529 1.425 . S
C524 C531 1.409 . S
C525 H517 0.930 . S
C525 C523 1.419 . S
C525 C526 1.362 . S
C526 H518 0.930 . S
C526 C525 1.362 . S
C526 C529 1.409 . S
C527 H519 0.930 . S
C527 C528 1.355 . S
C527 C529 1.415 . S
C528 C527 1.355 . S
C528 C530 1.419 . S
C529 C524 1.425 . S
C529 C526 1.409 . S
C529 C527 1.415 . S
C530 H520 0.930 . S
C530 C528 1.419 . S
C530 C531 1.362 . S
C531 H521 0.930 . S
C531 C524 1.409 . S
C531 C530 1.362 . S
H532 C538 0.930 . S
H533 C541 0.930 . S
H534 C542 0.930 1_655 S
H535 C543 0.930 1_655 S
H536 C546 0.930 . S
H537 C547 0.930 . S
C538 H532 0.930 . S
C538 C539 1.355 . S
C538 C540 1.415 . S
C539 C538 1.355 . S
C539 C541 1.419 . S
C540 C538 1.415 . S
C540 C545 1.425 . S
C540 C547 1.409 . S
C541 H533 0.930 . S
C541 C539 1.419 . S
C541 C542 1.362 . S
C542 H534 0.930 1_455 S
C542 C541 1.362 . S
C542 C545 1.409 . S
C543 H535 0.930 1_455 S
C543 C544 1.355 . S
C543 C545 1.415 . S
C544 C543 1.355 . S
C544 C546 1.419 . S
C545 C540 1.425 . S
C545 C542 1.409 . S
C545 C543 1.415 . S
C546 H536 0.930 . S
C546 C544 1.419 . S
C546 C547 1.362 . S
C547 H537 0.930 . S
C547 C540 1.409 . S
C547 C546 1.362 . S
H548 C554 0.930 . S
H549 C557 0.930 . S
H550 C558 0.930 . S
H551 C559 0.930 . S
H552 C562 0.930 . S
H553 C563 0.930 . S
C554 H548 0.930 . S
C554 C555 1.355 . S
C554 C556 1.415 . S
C555 C554 1.355 . S
C555 C557 1.419 . S
C556 C554 1.415 . S
C556 C561 1.425 . S
C556 C563 1.409 . S
C557 H549 0.930 . S
C557 C555 1.419 . S
C557 C558 1.362 . S
C558 H550 0.930 . S
C558 C557 1.362 . S
C558 C561 1.409 . S
C559 H551 0.930 . S
C559 C560 1.355 . S
C559 C561 1.415 . S
C560 C559 1.355 . S
C560 C562 1.419 . S
C561 C556 1.425 . S
C561 C558 1.409 . S
C561 C559 1.415 . S
C562 H552 0.930 . S
C562 C560 1.419 . S
C562 C563 1.362 . S
C563 H553 0.930 . S
C563 C556 1.409 . S
C563 C562 1.362 . S
C187 C5 1.735 . S
C192 C106 1.815 . S
C203 C18 1.535 . S
C208 C130 1.620 . S
C224 C150 1.280 . S
C219 C30 1.208 . S
C235 C41 1.247 . S
C240 C173 1.243 . S
C256 C132 1.889 . S
C251 C7 1.850 . S
C272 C108 1.858 . S
C267 C16 1.596 . S
C288 C176 1.610 . S
C283 C29 1.548 . S
C304 C153 1.182 . S
C299 C38 1.254 . S
C315 C8 1.550 . S
C320 C178 1.535 . S
C336 C127 1.742 . S
C331 C27 1.524 . S
C347 C40 1.590 . S
C352 C105 1.623 . S
C363 C19 1.176 . S
C368 C155 1.194 . S
C384 C109 1.667 1_565 S
C379 C51 1.671 . S
C395 C62 1.645 . S
C400 C131 1.731 . S
C411 C74 1.605 . S
C416 C151 1.661 . S
C427 C84 1.469 . S
C432 C174 1.618 . S
C443 C49 1.785 1_554 S
C448 C129 1.855 . S
C464 C107 1.489 . S
C459 C63 1.498 . S
C480 C177 1.387 . S
C475 C71 1.146 . S
C496 C154 1.263 . S
C491 C85 1.264 . S
C507 C52 1.838 . S
C512 C175 1.816 1_655 S
C528 C128 1.793 . S
C523 C73 1.631 . S
C544 C104 1.460 . S
C539 C82 1.154 . S
C555 C60 1.471 . S
C560 C152 1.820 . S
