# Generated by pormake.
# Topology anh, (6,3)-cn, num edge types: 1
# Building blocks:
#     Node 0, Type 0, BuildingBlock: PAMTOO_clean_sbu_0, # of connection points: 6
#     Node 1, Type 0, BuildingBlock: PAMTOO_clean_sbu_0, # of connection points: 6
#     Node 2, Type 0, BuildingBlock: PAMTOO_clean_sbu_0, # of connection points: 6
#     Node 3, Type 1, BuildingBlock: WUSLED_clean_sbu_0, # of connection points: 3
#     Node 4, Type 1, BuildingBlock: WUSLED_clean_sbu_0, # of connection points: 3
#     Node 5, Type 1, BuildingBlock: WUSLED_clean_sbu_0, # of connection points: 3
#     Node 6, Type 1, BuildingBlock: WUSLED_clean_sbu_0, # of connection points: 3
#     Node 7, Type 1, BuildingBlock: WUSLED_clean_sbu_0, # of connection points: 3
#     Node 8, Type 1, BuildingBlock: WUSLED_clean_sbu_0, # of connection points: 3
#     Edge 9, Type (0, 1), BuildingBlock: KIFKEQ_clean_linker_1, # of connection points: 2
#     Edge 10, Type (0, 1), BuildingBlock: KIFKEQ_clean_linker_1, # of connection points: 2
#     Edge 11, Type (0, 1), BuildingBlock: KIFKEQ_clean_linker_1, # of connection points: 2
#     Edge 12, Type (0, 1), BuildingBlock: KIFKEQ_clean_linker_1, # of connection points: 2
#     Edge 13, Type (0, 1), BuildingBlock: KIFKEQ_clean_linker_1, # of connection points: 2
#     Edge 14, Type (0, 1), BuildingBlock: KIFKEQ_clean_linker_1, # of connection points: 2
#     Edge 15, Type (0, 1), BuildingBlock: KIFKEQ_clean_linker_1, # of connection points: 2
#     Edge 16, Type (0, 1), BuildingBlock: KIFKEQ_clean_linker_1, # of connection points: 2
#     Edge 17, Type (0, 1), BuildingBlock: KIFKEQ_clean_linker_1, # of connection points: 2
#     Edge 18, Type (0, 1), BuildingBlock: KIFKEQ_clean_linker_1, # of connection points: 2
#     Edge 19, Type (0, 1), BuildingBlock: KIFKEQ_clean_linker_1, # of connection points: 2
#     Edge 20, Type (0, 1), BuildingBlock: KIFKEQ_clean_linker_1, # of connection points: 2
#     Edge 21, Type (0, 1), BuildingBlock: KIFKEQ_clean_linker_1, # of connection points: 2
#     Edge 22, Type (0, 1), BuildingBlock: KIFKEQ_clean_linker_1, # of connection points: 2
#     Edge 23, Type (0, 1), BuildingBlock: KIFKEQ_clean_linker_1, # of connection points: 2
#     Edge 24, Type (0, 1), BuildingBlock: KIFKEQ_clean_linker_1, # of connection points: 2
#     Edge 25, Type (0, 1), BuildingBlock: KIFKEQ_clean_linker_1, # of connection points: 2
#     Edge 26, Type (0, 1), BuildingBlock: KIFKEQ_clean_linker_1, # of connection points: 2
# Relax obj value: 0.165
# Max RMSD: 0.187
# Mean RMSD: 0.148
data_MOF--net-anh--node1-PAMTOO_clean_sbu_0--node2-WUSLED_clean_sbu_0--edge1-KIFKEQ_clean_linker_1
_symmetry_space_group_name_H-M    P1
_symmetry_Int_Tables_number       1
_symmetry_cell_setting            triclinic
loop_
_symmetry_equiv_pos_as_xyz
'x, y, z'
_cell_length_a     39.55233
_cell_length_b     38.491235
_cell_length_c     70.526859
_cell_angle_alpha  90.526288
_cell_angle_beta   95.231085
_cell_angle_gamma 106.71667
loop_
_atom_site_label
_atom_site_type_symbol
_atom_site_fract_x
_atom_site_fract_y
_atom_site_fract_z
_atom_type_partial_charge
Dy0 Dy 0.08291 0.59735 0.17639 0.0
Dy1 Dy 1.05276 0.50856 0.17292 0.0
C2 C 0.07493 0.5556 0.13661 0.0
O3 O 1.02413 0.5868 0.16659 0.0
O4 O 1.00387 0.52725 0.17491 0.0
O5 O 0.09222 0.65164 0.16589 0.0
O6 O 0.11029 0.64338 0.19507 0.0
O7 O 0.07412 0.52538 0.20313 0.0
O8 O 1.05899 0.57768 0.20306 0.0
O9 O 0.11008 0.51875 0.16701 0.0
O10 O 0.13198 0.57709 0.17973 0.0
O11 O 1.04271 0.4574 0.18693 0.0
O12 O 1.02603 0.45827 0.15697 0.0
C13 C 0.9976 0.55761 0.16921 0.0
O14 O 0.09348 0.5834 0.14754 0.0
O15 O 1.0523 0.52747 0.14324 0.0
C16 C 0.14588 0.69321 0.18013 0.0
C17 C 0.21465 0.74162 0.17994 0.0
C18 C 0.19987 0.71703 0.16446 0.0
C19 C 0.16577 0.69272 0.16461 0.0
C20 C 0.16034 0.7185 0.19526 0.0
C21 C 0.19435 0.74236 0.1952 0.0
C22 C 0.11102 0.6666 0.18164 0.0
C23 C 0.06626 0.55117 0.21237 0.0
C24 C 0.1372 0.54739 0.1724 0.0
C25 C 0.98911 0.41405 0.17485 0.0
C26 C 0.92205 0.36546 0.18002 0.0
C27 C 0.93537 0.39794 0.19115 0.0
C28 C 0.96849 0.42207 0.18853 0.0
C29 C 0.97576 0.38202 0.16357 0.0
C30 C 0.94258 0.35801 0.16608 0.0
C31 C 1.02434 0.43876 0.17201 0.0
H32 H 0.21509 0.71582 0.15258 0.0
H33 H 0.1553 0.67319 0.15283 0.0
H34 H 0.14553 0.7193 0.20736 0.0
H35 H 0.20497 0.76129 0.20723 0.0
H36 H 0.92053 0.40445 0.20215 0.0
H37 H 0.97809 0.44684 0.19731 0.0
H38 H 0.99107 0.37554 0.15278 0.0
H39 H 0.93294 0.33368 0.15698 0.0
Dy40 Dy 0.5615 0.0178 0.52212 0.0
Dy41 Dy 0.64852 0.04875 0.52757 0.0
C42 C 0.6033 0.03658 0.56271 0.0
O43 O 0.57126 0.07698 0.51695 0.0
O44 O 0.62934 0.09758 0.53009 0.0
O45 O 0.51415 0.99714 0.53621 0.0
O46 O 0.51026 1.00097 0.50553 0.0
O47 O 0.63144 0.05772 0.49733 0.0
O48 O 0.57966 0.01156 0.49348 0.0
O49 O 0.63831 0.98894 0.52235 0.0
O50 O 0.58044 0.96982 0.5295 0.0
O51 O 0.70015 0.05655 0.5176 0.0
O52 O 0.69542 0.07889 0.54523 0.0
C53 C 0.59958 0.1035 0.52315 0.0
O54 O 0.57829 0.04337 0.55121 0.0
O55 O 0.63031 0.02933 0.5558 0.0
C56 C 0.46934 0.9509 0.51852 0.0
C57 C 0.42053 0.88081 0.51512 0.0
C58 C 0.43951 0.89412 0.53275 0.0
C59 C 0.46375 0.9288 0.53444 0.0
C60 C 0.45041 0.93745 0.50091 0.0
C61 C 0.42637 0.90278 0.49922 0.0
C62 C 0.4937 0.98828 0.52032 0.0
C63 C 0.60565 0.03548 0.48624 0.0
C64 C 0.6101 0.96303 0.52614 0.0
C65 C 0.73963 0.1137 0.52757 0.0
C66 C 0.78424 0.18266 0.51996 0.0
C67 C 0.74921 0.17059 0.51127 0.0
C68 C 0.72705 0.1364 0.51508 0.0
C69 C 0.77431 0.12572 0.53641 0.0
C70 C 0.79645 0.15988 0.53265 0.0
C71 C 0.71636 0.07816 0.53209 0.0
H72 H 0.43563 0.87773 0.54522 0.0
H73 H 0.4778 0.93836 0.54827 0.0
H74 H 0.45383 0.95393 0.48847 0.0
H75 H 0.41163 0.89352 0.48551 0.0
H76 H 0.73908 0.1873 0.50131 0.0
H77 H 0.70014 0.12767 0.50828 0.0
H78 H 0.78422 0.10874 0.54631 0.0
H79 H 0.82305 0.16859 0.53983 0.0
Dy80 Dy 0.59572 0.53095 0.84706 0.0
Dy81 Dy 0.51165 0.49744 0.83957 0.0
C82 C 0.56146 0.51526 0.8044 0.0
O83 O 0.58071 0.58209 0.84567 0.0
O84 O 0.52071 0.55765 0.83757 0.0
O85 O 0.64861 0.56282 0.8426 0.0
O86 O 0.63965 0.52446 0.86546 0.0
O87 O 0.52069 0.49765 0.87152 0.0
O88 O 0.57637 0.53749 0.87518 0.0
O89 O 0.52883 0.44924 0.84746 0.0
O90 O 0.58384 0.47212 0.83777 0.0
O91 O 0.45861 0.48651 0.8477 0.0
O92 O 0.46712 0.46956 0.81958 0.0
C93 C 0.54913 0.58573 0.84085 0.0
O94 O 0.58744 0.53617 0.81581 0.0
O95 O 0.5328 0.49435 0.81107 0.0
C96 C 0.68528 0.52519 0.84718 0.0
C97 C 0.72779 0.48648 0.83287 0.0
C98 C 0.69542 0.48568 0.82274 0.0
C99 C 0.67411 0.50477 0.82994 0.0
C100 C 0.71671 0.52477 0.85772 0.0
C101 C 0.73791 0.50552 0.85061 0.0
C102 C 0.66255 0.54431 0.85484 0.0
C103 C 0.54765 0.5187 0.88238 0.0
C104 C 0.55801 0.44444 0.84225 0.0
C105 C 0.42202 0.49706 0.82169 0.0
C106 C 0.37799 0.53696 0.80573 0.0
C107 C 0.40331 0.55162 0.82121 0.0
C108 C 0.42522 0.532 0.82901 0.0
C109 C 0.3986 0.48322 0.80549 0.0
C110 C 0.37686 0.50316 0.79746 0.0
C111 C 0.44452 0.47612 0.83039 0.0
H112 H 0.68739 0.47154 0.80898 0.0
H113 H 0.64924 0.50416 0.82189 0.0
H114 H 0.72511 0.53981 0.87123 0.0
H115 H 0.76324 0.50735 0.85848 0.0
H116 H 0.40472 0.57719 0.82826 0.0
H117 H 0.44387 0.54382 0.84119 0.0
H118 H 0.39662 0.45674 0.79932 0.0
H119 H 0.35798 0.49136 0.78537 0.0
C120 C 0.63183 0.12608 0.2153 0.0
C121 C 0.65598 0.1467 0.22987 0.0
C122 C 0.69161 0.18188 0.20629 0.0
C123 C 0.6856 0.17436 0.22542 0.0
C124 C 0.6669 0.16143 0.19178 0.0
C125 C 0.63733 0.13379 0.19626 0.0
U126 U 0.57722 0.06642 0.25111 0.0
O127 O 0.51946 0.04236 0.25078 0.0
O128 O 0.55446 0.00713 0.25097 0.0
C129 C 0.52172 0.00895 0.25032 0.0
C130 C 0.60151 0.09577 0.21973 0.0
C131 C 0.49518 0.98225 0.23752 0.0
C132 C 0.46315 0.96049 0.20652 0.0
C133 C 0.4891 0.98715 0.2179 0.0
C134 C 0.44985 0.92417 0.23425 0.0
C135 C 0.44352 0.92859 0.21463 0.0
C136 C 0.47533 0.9507 0.24553 0.0
C137 C 0.60712 0.0859 0.30464 0.0
C138 C 0.57731 0.0508 0.33002 0.0
C139 C 0.63235 0.0985 0.33757 0.0
C140 C 0.63371 0.10599 0.31825 0.0
C141 C 0.60429 0.07066 0.34373 0.0
C142 C 0.57878 0.05828 0.31061 0.0
C143 C 0.61017 0.09383 0.28435 0.0
O144 O 0.60984 0.06791 0.22732 0.0
O145 O 0.57677 0.10479 0.22816 0.0
O146 O 0.58472 0.10498 0.27548 0.0
O147 O 0.61957 0.07001 0.27418 0.0
H148 H 0.65219 0.14102 0.24468 0.0
H149 H 0.70426 0.18921 0.23695 0.0
H150 H 0.67037 0.16679 0.17693 0.0
H151 H 0.61891 0.11818 0.18483 0.0
H152 H 0.45869 0.96456 0.19142 0.0
H153 H 0.50427 0.01141 0.21146 0.0
H154 H 0.43466 0.90029 0.24099 0.0
H155 H 0.4795 0.94657 0.26065 0.0
H156 H 0.55546 0.02903 0.33424 0.0
H157 H 0.65324 0.11476 0.34771 0.0
H158 H 0.65574 0.12746 0.31391 0.0
H159 H 0.55803 0.04237 0.30027 0.0
C160 C 0.61128 0.62716 0.54136 0.0
C161 C 0.6087 0.6475 0.5575 0.0
C162 C 0.61376 0.7012 0.5384 0.0
C163 C 0.60995 0.68417 0.55604 0.0
C164 C 0.61642 0.68052 0.52233 0.0
C165 C 0.61521 0.64395 0.52382 0.0
U166 U 0.60181 0.53843 0.56821 0.0
O167 O 0.57185 0.4825 0.55812 0.0
O168 O 0.63046 0.49742 0.56504 0.0
C169 C 0.60097 0.47238 0.55895 0.0
C170 C 0.60967 0.58844 0.54239 0.0
C171 C 0.60049 0.43509 0.55377 0.0
C172 C 0.6024 0.38963 0.53001 0.0
C173 C 0.6034 0.42532 0.53491 0.0
C174 C 0.59563 0.37324 0.56282 0.0
C175 C 0.59832 0.36307 0.54391 0.0
C176 C 0.59672 0.40891 0.56769 0.0
C177 C 0.58961 0.54692 0.62306 0.0
C178 C 0.58862 0.50634 0.6495 0.0
C179 C 0.58057 0.56558 0.65474 0.0
C180 C 0.58361 0.57255 0.63551 0.0
C181 C 0.58355 0.53267 0.66214 0.0
C182 C 0.5918 0.51349 0.63007 0.0
C183 C 0.59454 0.55738 0.60319 0.0
O184 O 0.63642 0.58121 0.55232 0.0
O185 O 0.57881 0.56612 0.5455 0.0
O186 O 0.56758 0.54472 0.59022 0.0
O187 O 0.62542 0.55953 0.59703 0.0
H188 H 0.60571 0.63503 0.57119 0.0
H189 H 0.60826 0.69926 0.56877 0.0
H190 H 0.6188 0.69237 0.50847 0.0
H191 H 0.61711 0.62865 0.51119 0.0
H192 H 0.60421 0.38271 0.5153 0.0
H193 H 0.60625 0.44523 0.52396 0.0
H194 H 0.59304 0.3537 0.57394 0.0
H195 H 0.59456 0.41604 0.58233 0.0
H196 H 0.59108 0.48072 0.65472 0.0
H197 H 0.57589 0.58617 0.66386 0.0
H198 H 0.58169 0.59844 0.63038 0.0
H199 H 0.59641 0.49328 0.62065 0.0
C200 C 1.02875 0.58179 0.86476 0.0
C201 C 0.99833 0.57831 0.87414 0.0
C202 C 0.96349 0.57109 0.84353 0.0
C203 C 0.96576 0.57301 0.86355 0.0
C204 C 0.99456 0.57798 0.83429 0.0
C205 C 1.02716 0.58323 0.84491 0.0
U206 U 0.07831 0.56518 0.91056 0.0
O207 O 0.11274 0.52958 0.91529 0.0
O208 O 0.13454 0.58834 0.92104 0.0
C209 C 0.14136 0.5576 0.91741 0.0
C210 C 0.06036 0.57734 0.87522 0.0
C211 C 0.16426 0.56016 0.9021 0.0
C212 C 0.16926 0.56928 0.86848 0.0
C213 C 0.14879 0.56138 0.88356 0.0
C214 C 0.22158 0.57242 0.88998 0.0
C215 C 0.20592 0.57474 0.87136 0.0
C216 C 0.20081 0.56566 0.90537 0.0
C217 C 1.04303 0.55735 0.95739 0.0
C218 C 0.08146 0.54413 0.98329 0.0
C219 C 1.03516 0.57123 0.98983 0.0
C220 C 1.02486 0.57079 0.97039 0.0
C221 C 0.06385 0.55837 0.99638 0.0
C222 C 0.07121 0.54378 0.96389 0.0
C223 C 1.03615 0.56204 0.93712 0.0
O224 O 0.07711 0.60348 0.88775 0.0
O225 O 1.05614 0.5446 0.8817 0.0
O226 O 1.03459 0.53372 0.92609 0.0
O227 O 1.05602 0.59288 0.93129 0.0
H228 H 0.99939 0.57686 0.88952 0.0
H229 H 0.94213 0.56727 0.87103 0.0
H230 H 0.99331 0.57687 0.81888 0.0
H231 H 1.05067 0.58584 0.83761 0.0
H232 H 0.15611 0.57176 0.85463 0.0
H233 H 0.12074 0.5574 0.88077 0.0
H234 H 0.24973 0.57578 0.8927 0.0
H235 H 0.21319 0.56516 0.91967 0.0
H236 H 0.10378 0.53431 0.98802 0.0
H237 H 1.02085 0.58183 0.99973 0.0
H238 H 1.00344 0.58182 0.96549 0.0
H239 H 0.086 0.53403 0.95391 0.0
C240 C 1.00879 0.48344 0.48093 0.0
C241 C 0.98814 0.46071 0.46592 0.0
C242 C 0.95355 0.42187 0.48858 0.0
C243 C 0.96078 0.43017 0.46971 0.0
C244 C 0.97353 0.44551 0.50353 0.0
C245 C 1.00102 0.47603 0.49972 0.0
U246 U 0.06352 0.54117 0.44537 0.0
O247 O 0.12115 0.55888 0.44369 0.0
O248 O 0.0919 0.5994 0.44564 0.0
C249 C 0.12289 0.59344 0.44492 0.0
C250 C 1.03951 0.51364 0.47706 0.0
C251 C 0.15315 0.61687 0.45702 0.0
C252 C 0.17945 0.65509 0.48535 0.0
C253 C 0.15032 0.62956 0.47541 0.0
C254 C 0.21428 0.65395 0.45891 0.0
C255 C 0.21132 0.6682 0.47687 0.0
C256 C 0.18549 0.6286 0.44911 0.0
C257 C 1.03407 0.52175 0.39246 0.0
C258 C 0.07067 0.55179 0.36809 0.0
C259 C 1.01275 0.50952 0.35902 0.0
C260 C 1.00774 0.50366 0.37822 0.0
C261 C 1.04428 0.53358 0.35372 0.0
C262 C 0.06555 0.546 0.38733 0.0
C263 C 1.02849 0.51457 0.41254 0.0
O264 O 0.0639 0.50389 0.4687 0.0
O265 O 1.03205 0.54199 0.4695 0.0
O266 O 1.02192 0.54073 0.42232 0.0
O267 O 1.05127 0.50032 0.42184 0.0
H268 H 0.99372 0.46617 0.4513 0.0
H269 H 0.94555 0.41278 0.45787 0.0
H270 H 0.96881 0.4397 0.51821 0.0
H271 H 1.01676 0.49332 0.51146 0.0
H272 H 0.17661 0.66573 0.4992 0.0
H273 H 0.1255 0.62061 0.48178 0.0
H274 H 0.2387 0.66322 0.45218 0.0
H275 H 0.18818 0.61898 0.43499 0.0
H276 H 0.09509 0.57073 0.36446 0.0
H277 H 0.99214 0.49471 0.34831 0.0
H278 H 0.98337 0.48475 0.38194 0.0
H279 H 0.08615 0.56028 0.3982 0.0
C280 C 0.5317 0.91458 0.82099 0.0
C281 C 0.53732 0.89589 0.80495 0.0
C282 C 0.53113 0.8411 0.8232 0.0
C283 C 0.53704 0.85943 0.80604 0.0
C284 C 0.52539 0.86012 0.83915 0.0
C285 C 0.52574 0.89645 0.83804 0.0
U286 U 0.53867 1.00483 0.79583 0.0
O287 O 0.50964 0.04486 0.80115 0.0
O288 O 0.56806 0.05959 0.80725 0.0
C289 C 0.53896 0.06929 0.80812 0.0
C290 C 0.53229 0.95299 0.8205 0.0
C291 C 0.54106 0.10811 0.80901 0.0
C292 C 0.52635 0.15646 0.8257 0.0
C293 C 0.52345 0.11977 0.82301 0.0
C294 C 0.56456 0.17086 0.80017 0.0
C295 C 0.5469 0.18258 0.81435 0.0
C296 C 0.56176 0.13383 0.79755 0.0
C297 C 0.55318 0.99873 0.74094 0.0
C298 C 0.56647 0.04209 0.71581 0.0
C299 C 0.56009 0.97854 0.70919 0.0
C300 C 0.55329 0.97099 0.72799 0.0
C301 C 0.5672 0.0142 0.70285 0.0
C302 C 0.55968 0.03443 0.7348 0.0
C303 C 0.54724 0.98865 0.76069 0.0
O304 O 0.56273 0.97619 0.81751 0.0
O305 O 0.505 0.95992 0.81096 0.0
O306 O 0.51591 0.98596 0.76647 0.0
O307 O 0.57375 1.00137 0.77392 0.0
H308 H 0.54195 0.90948 0.79163 0.0
H309 H 0.54119 0.84552 0.79344 0.0
H310 H 0.52133 0.84715 0.85266 0.0
H311 H 0.52156 0.91053 0.8506 0.0
H312 H 0.51303 0.1644 0.83702 0.0
H313 H 0.50789 0.1004 0.83223 0.0
H314 H 0.58039 0.19025 0.79109 0.0
H315 H 0.57583 0.12537 0.78675 0.0
H316 H 0.57189 0.06986 0.71139 0.0
H317 H 0.55962 0.95626 0.69958 0.0
H318 H 0.5483 0.94325 0.73248 0.0
H319 H 0.5598 0.05622 0.74466 0.0
C320 C 0.65945 0.5535 0.14098 0.0
C321 C 0.67474 0.53914 0.12664 0.0
C322 C 0.73364 0.55567 0.14554 0.0
C323 C 0.71118 0.54033 0.12885 0.0
C324 C 0.71782 0.56985 0.15978 0.0
C325 C 0.68173 0.56886 0.1575 0.0
U326 U 0.55559 0.54671 0.12418 0.0
O327 O 0.51075 0.51642 0.14005 0.0
O328 O 0.52502 0.57552 0.13993 0.0
C329 C 0.50303 0.54573 0.14556 0.0
C330 C 0.62045 0.55114 0.14029 0.0
C331 C 0.46447 0.54425 0.14619 0.0
C332 C 0.41375 0.53503 0.16532 0.0
C333 C 0.44878 0.53462 0.16325 0.0
C334 C 0.40807 0.55402 0.13303 0.0
C335 C 0.39256 0.545 0.15036 0.0
C336 C 0.44351 0.5539 0.13102 0.0
C337 C 0.54749 0.54429 0.06668 0.0
C338 C 0.53247 0.56076 0.03436 0.0
C339 C 0.56899 0.52033 0.03948 0.0
C340 C 0.56697 0.52285 0.05928 0.0
C341 C 0.55149 0.53908 0.02673 0.0
C342 C 0.53056 0.56331 0.05401 0.0
C343 C 0.54022 0.5445 0.08697 0.0
O344 O 0.60964 0.57964 0.13601 0.0
O345 O 0.59613 0.52031 0.13529 0.0
O346 O 0.53841 0.51535 0.09688 0.0
O347 O 0.55171 0.57501 0.09725 0.0
H348 H 0.65854 0.52684 0.11375 0.0
H349 H 0.72173 0.52936 0.11732 0.0
H350 H 0.73307 0.58113 0.17307 0.0
H351 H 0.67093 0.57967 0.16902 0.0
H352 H 0.4032 0.52721 0.17879 0.0
H353 H 0.46396 0.52709 0.17526 0.0
H354 H 0.39313 0.56209 0.12112 0.0
H355 H 0.45459 0.56173 0.11768 0.0
H356 H 0.51803 0.57501 0.0251 0.0
H357 H 0.58415 0.50363 0.03415 0.0
H358 H 0.58004 0.5076 0.06871 0.0
H359 H 0.51474 0.5794 0.05928 0.0
H360 H 0.20151 0.59599 0.18624 0.0
H361 H 0.15881 0.49794 0.15128 0.0
H362 H 0.26163 0.596 0.18063 0.0
H363 H 0.21894 0.49794 0.14562 0.0
H364 H 0.33161 0.52666 0.12464 0.0
H365 H 0.27133 0.52738 0.12972 0.0
H366 H 0.30705 0.56635 0.18772 0.0
H367 H 0.3671 0.56621 0.18258 0.0
C368 C 0.20478 0.57424 0.17742 0.0
C369 C 0.17468 0.5468 0.16942 0.0
C370 C 0.23958 0.57415 0.17421 0.0
C371 C 0.24591 0.54693 0.16262 0.0
C372 C 0.21574 0.51966 0.15448 0.0
C373 C 0.18094 0.51947 0.1579 0.0
C374 C 0.32683 0.53568 0.13847 0.0
C375 C 0.35497 0.54621 0.15315 0.0
C376 C 0.29186 0.53575 0.14147 0.0
C377 C 0.28355 0.54686 0.15922 0.0
C378 C 0.31182 0.55785 0.17378 0.0
C379 C 0.34659 0.55739 0.17085 0.0
H380 H 0.85423 0.19895 0.51396 0.0
H381 H 0.76869 0.24748 0.51594 0.0
H382 H 0.89389 0.25735 0.50665 0.0
H383 H 0.80832 0.30591 0.50799 0.0
H384 H 0.9037 0.41148 0.51426 0.0
H385 H 0.86197 0.35408 0.52201 0.0
H386 H 0.90103 0.29775 0.47967 0.0
H387 H 0.94316 0.35466 0.4723 0.0
C388 C 0.84391 0.22212 0.51291 0.0
C389 C 0.80828 0.21851 0.51555 0.0
C390 C 0.86655 0.25551 0.5085 0.0
C391 C 0.85418 0.28619 0.50662 0.0
C392 C 0.81866 0.28279 0.50945 0.0
C393 C 0.7959 0.24926 0.5138 0.0
C394 C 0.90335 0.38678 0.50666 0.0
C395 C 0.92674 0.3876 0.49268 0.0
C396 C 0.87928 0.35401 0.51097 0.0
C397 C 0.87836 0.32138 0.50152 0.0
C398 C 0.90139 0.32235 0.48737 0.0
C399 C 0.92526 0.35505 0.48299 0.0
H400 H 0.48808 0.60577 0.83357 0.0
H401 H 0.60212 0.65009 0.8425 0.0
H402 H 0.4826 0.66664 0.82859 0.0
H403 H 0.59652 0.71082 0.83771 0.0
H404 H 0.57679 0.80895 0.80825 0.0
H405 H 0.57991 0.74699 0.81207 0.0
H406 H 0.49122 0.72458 0.84612 0.0
H407 H 0.48737 0.78622 0.84181 0.0
C408 C 0.51198 0.62843 0.83457 0.0
C409 C 0.54555 0.62289 0.83845 0.0
C410 C 0.50881 0.66339 0.83178 0.0
C411 C 0.53913 0.69363 0.83266 0.0
C412 C 0.57265 0.68809 0.83665 0.0
C413 C 0.57582 0.65322 0.83955 0.0
C414 C 0.55761 0.79068 0.81632 0.0
C415 C 0.53189 0.80269 0.82475 0.0
C416 C 0.55967 0.75527 0.8187 0.0
C417 C 0.53598 0.73087 0.82952 0.0
C418 C 0.50976 0.74258 0.83761 0.0
C419 C 0.50778 0.77806 0.83529 0.0
H420 H 0.93686 0.49972 0.16425 0.0
H421 H 0.97031 0.6167 0.16574 0.0
H422 H 0.87511 0.49961 0.15835 0.0
H423 H 0.90827 0.61672 0.15978 0.0
H424 H 0.7905 0.6059 0.1664 0.0
H425 H 0.85218 0.60628 0.1721 0.0
H426 H 0.82983 0.50932 0.13635 0.0
H427 H 0.76762 0.50793 0.13128 0.0
C428 C 0.93118 0.52559 0.16335 0.0
C429 C 0.95923 0.55824 0.16556 0.0
C430 C 0.89538 0.52552 0.15977 0.0
C431 C 0.88579 0.55813 0.15845 0.0
C432 C 0.9139 0.59086 0.1608 0.0
C433 C 0.94984 0.5909 0.16414 0.0
C434 C 0.79826 0.58423 0.15984 0.0
C435 C 0.77289 0.5567 0.14838 0.0
C436 C 0.83429 0.58479 0.16295 0.0
C437 C 0.84692 0.55786 0.15479 0.0
C438 C 0.82171 0.53047 0.14321 0.0
C439 C 0.78564 0.52994 0.14005 0.0
H440 H 0.41063 0.82923 0.48691 0.0
H441 H 0.36957 0.85109 0.53901 0.0
H442 H 0.36027 0.77525 0.48046 0.0
H443 H 0.31895 0.79657 0.53251 0.0
H444 H 0.24477 0.67599 0.51339 0.0
H445 H 0.2982 0.72465 0.52573 0.0
H446 H 0.29663 0.77728 0.47198 0.0
H447 H 0.244 0.72948 0.45987 0.0
C448 C 0.39105 0.82223 0.49709 0.0
C449 C 0.39357 0.84481 0.51321 0.0
C450 C 0.36232 0.79131 0.49344 0.0
C451 C 0.33545 0.78229 0.5058 0.0
C452 C 0.33932 0.80306 0.52276 0.0
C453 C 0.36824 0.83419 0.52644 0.0
C454 C 0.25578 0.69829 0.50441 0.0
C455 C 0.24081 0.69875 0.48558 0.0
C456 C 0.28624 0.72593 0.51141 0.0
C457 C 0.30192 0.7541 0.4996 0.0
C458 C 0.28568 0.75531 0.48119 0.0
C459 C 0.25552 0.72803 0.47428 0.0
H460 H 0.52169 0.38367 0.85929 0.0
H461 H 0.59853 0.42046 0.81868 0.0
H462 H 0.52135 0.32129 0.8531 0.0
H463 H 0.59692 0.35776 0.81165 0.0
H464 H 0.60602 0.24159 0.81422 0.0
H465 H 0.6112 0.30501 0.82188 0.0
H466 H 0.49942 0.27531 0.82958 0.0
H467 H 0.49452 0.21232 0.82225 0.0
C468 C 0.53846 0.37835 0.84898 0.0
C469 C 0.55999 0.40694 0.83942 0.0
C470 C 0.53806 0.3425 0.84527 0.0
C471 C 0.55864 0.33415 0.83159 0.0
C472 C 0.58093 0.36298 0.82239 0.0
C473 C 0.58179 0.39899 0.82637 0.0
C474 C 0.58252 0.24873 0.81737 0.0
C475 C 0.54991 0.22174 0.81772 0.0
C476 C 0.58547 0.28515 0.8218 0.0
C477 C 0.55584 0.2955 0.8266 0.0
C478 C 0.52311 0.26849 0.8265 0.0
C479 C 0.52022 0.23221 0.82218 0.0
H480 H 0.55487 0.90195 0.52877 0.0
H481 H 0.66823 0.93729 0.52574 0.0
H482 H 0.55645 0.83958 0.53123 0.0
H483 H 0.66996 0.8746 0.52876 0.0
H484 H 0.65439 0.75307 0.51665 0.0
H485 H 0.65362 0.81576 0.51294 0.0
H486 H 0.57498 0.80076 0.55317 0.0
H487 H 0.57443 0.73772 0.55612 0.0
C488 C 0.58025 0.8965 0.52873 0.0
C489 C 0.61149 0.92484 0.52717 0.0
C490 C 0.58117 0.86059 0.53027 0.0
C491 C 0.61338 0.85188 0.53042 0.0
C492 C 0.64461 0.88015 0.52855 0.0
C493 C 0.64366 0.91619 0.52691 0.0
C494 C 0.63665 0.76301 0.52457 0.0
C495 C 0.61439 0.74009 0.53666 0.0
C496 C 0.63655 0.79919 0.52261 0.0
C497 C 0.61419 0.81351 0.53271 0.0
C498 C 0.59221 0.79067 0.54493 0.0
C499 C 0.59225 0.75452 0.54685 0.0
H500 H 0.76897 0.44523 0.84728 0.0
H501 H 0.74856 0.50462 0.798 0.0
H502 H 0.83068 0.45809 0.84073 0.0
H503 H 0.81018 0.5175 0.79164 0.0
H504 H 0.94605 0.51689 0.8163 0.0
H505 H 0.88593 0.48052 0.80456 0.0
H506 H 0.84285 0.55205 0.8358 0.0
H507 H 0.90261 0.58855 0.84751 0.0
C508 C 0.77704 0.45866 0.83429 0.0
C509 C 0.75468 0.47507 0.82351 0.0
C510 C 0.81224 0.46585 0.83049 0.0
C511 C 0.82473 0.48927 0.81592 0.0
C512 C 0.80072 0.49928 0.80289 0.0
C513 C 0.76546 0.49189 0.8066 0.0
C514 C 0.92374 0.52566 0.82002 0.0
C515 C 0.92873 0.55546 0.83279 0.0
C516 C 0.88961 0.50471 0.81342 0.0
C517 C 0.86049 0.51384 0.81936 0.0
C518 C 0.8654 0.54503 0.83099 0.0
C519 C 0.89936 0.56576 0.83768 0.0
H520 H 0.26575 0.74942 0.20921 0.0
H521 H 0.24679 0.78781 0.15308 0.0
H522 H 0.32438 0.79283 0.21303 0.0
H523 H 0.30637 0.8316 0.15679 0.0
H524 H 0.38877 0.93635 0.1898 0.0
H525 H 0.33592 0.88802 0.17727 0.0
H526 H 0.38272 0.80785 0.2014 0.0
H527 H 0.43498 0.85597 0.21407 0.0
C528 C 0.27439 0.76698 0.19758 0.0
C529 C 0.25165 0.76553 0.18094 0.0
C530 C 0.30816 0.79165 0.19967 0.0
C531 C 0.32015 0.81566 0.18518 0.0
C532 C 0.29781 0.81355 0.16823 0.0
C533 C 0.26389 0.78842 0.16605 0.0
C534 C 0.38808 0.90833 0.19193 0.0
C535 C 0.4156 0.8999 0.20324 0.0
C536 C 0.35786 0.88064 0.18474 0.0
C537 C 0.35482 0.84415 0.18872 0.0
C538 C 0.38388 0.83573 0.19849 0.0
C539 C 0.41384 0.86327 0.20571 0.0
H540 H 0.54064 0.12795 0.52062 0.0
H541 H 0.6552 0.16527 0.52616 0.0
H542 H 0.53893 0.19079 0.52359 0.0
H543 H 0.65347 0.22772 0.52929 0.0
H544 H 0.63845 0.33923 0.5198 0.0
H545 H 0.63696 0.27669 0.51229 0.0
H546 H 0.55385 0.23803 0.54928 0.0
H547 H 0.55458 0.30035 0.55634 0.0
C548 C 0.56541 0.14953 0.52227 0.0
C549 C 0.59802 0.14155 0.52329 0.0
C550 C 0.56446 0.18552 0.52411 0.0
C551 C 0.59607 0.2143 0.52678 0.0
C552 C 0.62862 0.20631 0.5271 0.0
C553 C 0.62959 0.17041 0.52545 0.0
C554 C 0.61953 0.31738 0.52613 0.0
C555 C 0.59677 0.3249 0.53877 0.0
C556 C 0.61889 0.28153 0.52195 0.0
C557 C 0.59532 0.25232 0.5302 0.0
C558 C 0.57207 0.25982 0.54251 0.0
C559 C 0.57282 0.29562 0.54676 0.0
H560 H 0.38051 0.60927 0.80502 0.0
H561 H 0.30816 0.50083 0.79746 0.0
H562 H 0.33214 0.63175 0.8137 0.0
H563 H 0.2607 0.52288 0.80568 0.0
H564 H 0.18492 0.54908 0.83441 0.0
H565 H 0.22057 0.55598 0.80805 0.0
H566 H 0.31159 0.61965 0.84453 0.0
H567 H 0.27471 0.61689 0.87038 0.0
C568 C 0.35406 0.59053 0.80438 0.0
C569 C 0.34851 0.553 0.80147 0.0
C570 C 0.3264 0.60342 0.80934 0.0
C571 C 0.29298 0.57891 0.81118 0.0
C572 C 0.28612 0.5427 0.80461 0.0
C573 C 0.31368 0.52985 0.79981 0.0
C574 C 0.21207 0.56611 0.83672 0.0
C575 C 0.2271 0.5818 0.8548 0.0
C576 C 0.23262 0.56978 0.82151 0.0
C577 C 0.26908 0.58748 0.82425 0.0
C578 C 0.28352 0.60581 0.84182 0.0
C579 C 0.26259 0.60329 0.85689 0.0
H580 H 0.90438 0.29114 0.17889 0.0
H581 H 0.86075 0.38 0.18831 0.0
H582 H 0.848 0.24807 0.18431 0.0
H583 H 0.80428 0.33673 0.1939 0.0
H584 H 0.72334 0.24874 0.22395 0.0
H585 H 0.7782 0.29333 0.21711 0.0
H586 H 0.78744 0.22415 0.17048 0.0
H587 H 0.73354 0.17894 0.17781 0.0
C588 C 0.88266 0.30155 0.18189 0.0
C589 C 0.88724 0.33916 0.18313 0.0
C590 C 0.85026 0.27678 0.18502 0.0
C591 C 0.82153 0.28888 0.18952 0.0
C592 C 0.826 0.32646 0.19071 0.0
C593 C 0.85842 0.35129 0.18753 0.0
C594 C 0.73719 0.24293 0.21231 0.0
C595 C 0.72404 0.2101 0.20151 0.0
C596 C 0.76843 0.26872 0.20824 0.0
C597 C 0.78734 0.2623 0.19328 0.0
C598 C 0.77384 0.22978 0.18226 0.0
C599 C 0.74264 0.20402 0.18633 0.0
H600 H 0.11874 0.60922 0.11776 0.0
H601 H 1.04369 0.5021 0.10966 0.0
H602 H 0.12571 0.61033 0.0838 0.0
H603 H 1.0503 0.50364 0.07577 0.0
H604 H 0.08019 0.50512 0.01714 0.0
H605 H 0.09225 0.50509 0.0517 0.0
H606 H 0.08415 0.61445 0.05612 0.0
H607 H 0.0734 0.61494 0.0216 0.0
C608 C 0.10385 0.58587 0.10877 0.0
C609 C 0.08023 0.55577 0.1163 0.0
C610 C 0.10795 0.58654 0.08938 0.0
C611 C 0.08857 0.55709 0.07726 0.0
C612 C 0.06597 0.52648 0.08489 0.0
C613 C 0.06183 0.52581 0.10425 0.0
C614 C 0.08186 0.52941 0.0255 0.0
C615 C 0.07521 0.55978 0.01686 0.0
C616 C 0.08857 0.52932 0.04521 0.0
C617 C 0.08866 0.55958 0.05649 0.0
C618 C 0.08438 0.59082 0.04773 0.0
C619 C 0.0777 0.59092 0.02804 0.0
H620 H 0.55496 0.99728 0.45843 0.0
H621 H 0.65555 0.08075 0.46627 0.0
H622 H 0.55419 1.00351 0.42398 0.0
H623 H 0.65439 0.08749 0.432 0.0
H624 H 0.65984 0.06766 0.36915 0.0
H625 H 0.65986 0.05727 0.40313 0.0
H626 H 0.54734 0.04487 0.39926 0.0
H627 H 0.54733 0.05503 0.36511 0.0
C628 C 0.57694 0.01694 0.45284 0.0
C629 C 0.60535 0.03845 0.4652 0.0
C630 C 0.57636 0.0207 0.43306 0.0
C631 C 0.60423 0.046 0.42512 0.0
C632 C 0.63271 0.06732 0.43751 0.0
C633 C 0.63327 0.0636 0.45725 0.0
C634 C 0.6351 0.06289 0.37554 0.0
C635 C 0.60364 0.06251 0.36438 0.0
C636 C 0.63511 0.05695 0.39507 0.0
C637 C 0.60367 0.05052 0.40407 0.0
C638 C 0.572 0.04934 0.39283 0.0
C639 C 0.57198 0.05521 0.37323 0.0
H640 H 0.62027 0.54756 0.78639 0.0
H641 H 0.5115 0.48148 0.77505 0.0
H642 H 0.62682 0.54832 0.75251 0.0
H643 H 0.51778 0.48313 0.74085 0.0
H644 H 0.54935 0.47105 0.6804 0.0
H645 H 0.54476 0.46413 0.71468 0.0
H646 H 0.60885 0.5754 0.72515 0.0
H647 H 0.61465 0.58163 0.69136 0.0
C648 C 0.59761 0.53328 0.77667 0.0
C649 C 0.56523 0.51472 0.78355 0.0
C650 C 0.60134 0.53386 0.75713 0.0
C651 C 0.57274 0.51612 0.74377 0.0
C652 C 0.54051 0.49685 0.75065 0.0
C653 C 0.53682 0.49611 0.77029 0.0
C654 C 0.56287 0.49379 0.6901 0.0
C655 C 0.58214 0.52698 0.68305 0.0
C656 C 0.5599 0.48999 0.70975 0.0
C657 C 0.57634 0.51922 0.72282 0.0
C658 C 0.59614 0.55207 0.71569 0.0
C659 C 0.59911 0.55582 0.69618 0.0
H660 H 0.65354 0.03406 0.59181 0.0
H661 H 0.54563 0.03839 0.58072 0.0
H662 H 0.64731 0.0327 0.62594 0.0
H663 H 0.53898 0.03577 0.61462 0.0
H664 H 0.5444 0.05928 0.67794 0.0
H665 H 0.55555 0.06807 0.64456 0.0
H666 H 0.61874 0.99315 0.64892 0.0
H667 H 0.60906 0.98587 0.68234 0.0
C668 C 0.62848 0.03463 0.59664 0.0
C669 C 0.60013 0.03637 0.58352 0.0
C670 C 0.62481 0.03368 0.61622 0.0
C671 C 0.5926 0.03412 0.62314 0.0
C672 C 0.56438 0.03609 0.60995 0.0
C673 C 0.56815 0.03734 0.59043 0.0
C674 C 0.56117 0.04521 0.67184 0.0
C675 C 0.57558 0.02165 0.68282 0.0
C676 C 0.56723 0.04987 0.65261 0.0
C677 C 0.58789 0.03113 0.64391 0.0
C678 C 0.60301 0.00835 0.65508 0.0
C679 C 0.59704 1.00378 0.67425 0.0
H680 H 0.50286 0.47305 0.90532 0.0
H681 H 0.59066 0.57093 0.90731 0.0
H682 H 0.5041 0.47726 0.94015 0.0
H683 H 0.59178 0.57509 0.94181 0.0
H684 H 0.55768 0.59268 1.00075 0.0
H685 H 0.55497 0.58715 0.96617 0.0
H686 H 0.54419 0.47267 0.96971 0.0
H687 H 0.54622 0.47802 1.00448 0.0
C688 C 0.52224 0.49554 0.91312 0.0
C689 C 0.54662 0.52162 0.90343 0.0
C690 C 0.52315 0.4978 0.9331 0.0
C691 C 0.54809 0.5265 0.94383 0.0
C692 C 0.57204 0.55279 0.93406 0.0
C693 C 0.57145 0.55028 0.91421 0.0
C694 C 0.55459 0.56624 0.99423 0.0
C695 C 0.55208 0.53579 1.00554 0.0
C696 C 0.55329 0.56313 0.97434 0.0
C697 C 0.54924 0.52944 0.96509 0.0
C698 C 0.54693 0.49896 0.97634 0.0
C699 C 0.54854 0.50213 0.99631 0.0
H700 H 0.08935 0.50673 0.2373 0.0
H701 H 1.04071 0.59398 0.23483 0.0
H702 H 0.08609 0.50489 0.27175 0.0
H703 H 1.03755 0.59211 0.26917 0.0
H704 H 0.99648 0.54297 0.32522 0.0
H705 H 1.00354 0.5485 0.29129 0.0
H706 H 0.11106 0.54284 0.30188 0.0
H707 H 0.10378 0.53663 0.33589 0.0
C708 C 0.07805 0.52555 0.24409 0.0
C709 C 0.06512 0.55036 0.2333 0.0
C710 C 0.07642 0.52466 0.26383 0.0
C711 C 0.06147 0.54829 0.27315 0.0
C712 C 1.04888 0.57331 0.26237 0.0
C713 C 1.05083 0.57445 0.2427 0.0
C714 C 1.02161 0.54285 0.32032 0.0
C715 C 1.0495 0.53916 0.33323 0.0
C716 C 1.02576 0.54634 0.3009 0.0
C717 C 1.05783 0.54603 0.29391 0.0
C718 C 0.08593 0.54284 0.30683 0.0
C719 C 0.08187 0.53963 0.32631 0.0
loop_
_geom_bond_atom_site_label_1
_geom_bond_atom_site_label_2
_geom_bond_distance
_geom_bond_site_symmetry_2
_ccdc_geom_bond_type
Dy0 O3 2.307 1_455 S
Dy0 O5 2.395 . S
Dy0 O6 2.379 . S
Dy0 O8 2.339 . S
Dy0 O10 2.298 . S
Dy0 O14 2.275 . S
Dy0 C22 2.738 . S
Dy1 O4 2.298 . S
Dy1 O7 2.275 1_655 S
Dy1 O9 2.307 1_655 S
Dy1 O11 2.395 . S
Dy1 O12 2.379 . S
Dy1 O15 2.339 . S
Dy1 C31 2.738 . S
C2 O14 1.254 . S
C2 O15 1.257 1_455 S
O3 Dy0 2.307 1_655 S
O3 C13 1.266 . S
O4 Dy1 2.298 . S
O4 C13 1.236 . S
O5 Dy0 2.395 . S
O5 C22 1.255 . S
O6 Dy0 2.379 . S
O6 C22 1.249 . S
O7 Dy1 2.275 1_455 S
O7 C23 1.254 . S
O8 Dy0 2.339 . S
O8 C23 1.257 . S
O9 Dy1 2.307 1_455 S
O9 C24 1.266 . S
O10 Dy0 2.298 . S
O10 C24 1.236 . S
O11 Dy1 2.395 . S
O11 C31 1.255 . S
O12 Dy1 2.379 . S
O12 C31 1.249 . S
C13 O3 1.266 . S
C13 O4 1.236 . S
O14 Dy0 2.275 . S
O14 C2 1.254 . S
O15 Dy1 2.339 . S
O15 C2 1.257 1_655 S
C16 C19 1.344 . S
C16 C20 1.328 . S
C16 C22 1.516 . S
C17 C18 1.304 . S
C17 C21 1.323 . S
C18 C17 1.304 . S
C18 C19 1.371 . S
C18 H32 0.930 . S
C19 C16 1.344 . S
C19 C18 1.371 . S
C19 H33 0.931 . S
C20 C16 1.328 . S
C20 C21 1.433 . S
C20 H34 0.931 . S
C21 C17 1.323 . S
C21 C20 1.433 . S
C21 H35 0.933 . S
C22 Dy0 2.738 . S
C22 O5 1.255 . S
C22 O6 1.249 . S
C22 C16 1.516 . S
C23 O7 1.254 . S
C23 O8 1.257 . S
C24 O9 1.266 . S
C24 O10 1.236 . S
C25 C28 1.344 . S
C25 C29 1.328 . S
C25 C31 1.516 . S
C26 C27 1.304 . S
C26 C30 1.323 . S
C27 C26 1.304 . S
C27 C28 1.371 . S
C27 H36 0.930 . S
C28 C25 1.344 . S
C28 C27 1.371 . S
C28 H37 0.931 . S
C29 C25 1.328 . S
C29 C30 1.433 . S
C29 H38 0.931 . S
C30 C26 1.323 . S
C30 C29 1.433 . S
C30 H39 0.933 . S
C31 Dy1 2.738 . S
C31 O11 1.255 . S
C31 O12 1.249 . S
C31 C25 1.516 . S
H32 C18 0.930 . S
H33 C19 0.931 . S
H34 C20 0.931 . S
H35 C21 0.933 . S
H36 C27 0.930 . S
H37 C28 0.931 . S
H38 C29 0.931 . S
H39 C30 0.933 . S
Dy40 O43 2.307 . S
Dy40 O45 2.395 1_545 S
Dy40 O46 2.379 1_545 S
Dy40 O48 2.339 . S
Dy40 O50 2.298 1_545 S
Dy40 O54 2.275 . S
Dy40 C62 2.738 1_545 S
Dy41 O44 2.298 . S
Dy41 O47 2.275 . S
Dy41 O49 2.307 1_545 S
Dy41 O51 2.395 . S
Dy41 O52 2.379 . S
Dy41 O55 2.339 . S
Dy41 C71 2.738 . S
C42 O54 1.254 . S
C42 O55 1.257 . S
O43 Dy40 2.307 . S
O43 C53 1.266 . S
O44 Dy41 2.298 . S
O44 C53 1.236 . S
O45 Dy40 2.395 1_565 S
O45 C62 1.255 . S
O46 Dy40 2.379 1_565 S
O46 C62 1.249 . S
O47 Dy41 2.275 . S
O47 C63 1.254 . S
O48 Dy40 2.339 . S
O48 C63 1.257 . S
O49 Dy41 2.307 1_565 S
O49 C64 1.266 . S
O50 Dy40 2.298 1_565 S
O50 C64 1.236 . S
O51 Dy41 2.395 . S
O51 C71 1.255 . S
O52 Dy41 2.379 . S
O52 C71 1.249 . S
C53 O43 1.266 . S
C53 O44 1.236 . S
O54 Dy40 2.275 . S
O54 C42 1.254 . S
O55 Dy41 2.339 . S
O55 C42 1.257 . S
C56 C59 1.344 . S
C56 C60 1.328 . S
C56 C62 1.516 . S
C57 C58 1.304 . S
C57 C61 1.323 . S
C58 C57 1.304 . S
C58 C59 1.371 . S
C58 H72 0.930 . S
C59 C56 1.344 . S
C59 C58 1.371 . S
C59 H73 0.931 . S
C60 C56 1.328 . S
C60 C61 1.433 . S
C60 H74 0.931 . S
C61 C57 1.323 . S
C61 C60 1.433 . S
C61 H75 0.933 . S
C62 Dy40 2.738 1_565 S
C62 O45 1.255 . S
C62 O46 1.249 . S
C62 C56 1.516 . S
C63 O47 1.254 . S
C63 O48 1.257 . S
C64 O49 1.266 . S
C64 O50 1.236 . S
C65 C68 1.344 . S
C65 C69 1.328 . S
C65 C71 1.516 . S
C66 C67 1.304 . S
C66 C70 1.323 . S
C67 C66 1.304 . S
C67 C68 1.371 . S
C67 H76 0.930 . S
C68 C65 1.344 . S
C68 C67 1.371 . S
C68 H77 0.931 . S
C69 C65 1.328 . S
C69 C70 1.433 . S
C69 H78 0.931 . S
C70 C66 1.323 . S
C70 C69 1.433 . S
C70 H79 0.933 . S
C71 Dy41 2.738 . S
C71 O51 1.255 . S
C71 O52 1.249 . S
C71 C65 1.516 . S
H72 C58 0.930 . S
H73 C59 0.931 . S
H74 C60 0.931 . S
H75 C61 0.933 . S
H76 C67 0.930 . S
H77 C68 0.931 . S
H78 C69 0.931 . S
H79 C70 0.933 . S
Dy80 O83 2.307 . S
Dy80 O85 2.395 . S
Dy80 O86 2.379 . S
Dy80 O88 2.339 . S
Dy80 O90 2.298 . S
Dy80 O94 2.275 . S
Dy80 C102 2.738 . S
Dy81 O84 2.298 . S
Dy81 O87 2.275 . S
Dy81 O89 2.307 . S
Dy81 O91 2.395 . S
Dy81 O92 2.379 . S
Dy81 O95 2.339 . S
Dy81 C111 2.738 . S
C82 O94 1.254 . S
C82 O95 1.257 . S
O83 Dy80 2.307 . S
O83 C93 1.266 . S
O84 Dy81 2.298 . S
O84 C93 1.236 . S
O85 Dy80 2.395 . S
O85 C102 1.255 . S
O86 Dy80 2.379 . S
O86 C102 1.249 . S
O87 Dy81 2.275 . S
O87 C103 1.254 . S
O88 Dy80 2.339 . S
O88 C103 1.257 . S
O89 Dy81 2.307 . S
O89 C104 1.266 . S
O90 Dy80 2.298 . S
O90 C104 1.236 . S
O91 Dy81 2.395 . S
O91 C111 1.255 . S
O92 Dy81 2.379 . S
O92 C111 1.249 . S
C93 O83 1.266 . S
C93 O84 1.236 . S
O94 Dy80 2.275 . S
O94 C82 1.254 . S
O95 Dy81 2.339 . S
O95 C82 1.257 . S
C96 C99 1.344 . S
C96 C100 1.328 . S
C96 C102 1.516 . S
C97 C98 1.304 . S
C97 C101 1.323 . S
C98 C97 1.304 . S
C98 C99 1.371 . S
C98 H112 0.930 . S
C99 C96 1.344 . S
C99 C98 1.371 . S
C99 H113 0.931 . S
C100 C96 1.328 . S
C100 C101 1.433 . S
C100 H114 0.931 . S
C101 C97 1.323 . S
C101 C100 1.433 . S
C101 H115 0.933 . S
C102 Dy80 2.738 . S
C102 O85 1.255 . S
C102 O86 1.249 . S
C102 C96 1.516 . S
C103 O87 1.254 . S
C103 O88 1.257 . S
C104 O89 1.266 . S
C104 O90 1.236 . S
C105 C108 1.344 . S
C105 C109 1.328 . S
C105 C111 1.516 . S
C106 C107 1.304 . S
C106 C110 1.323 . S
C107 C106 1.304 . S
C107 C108 1.371 . S
C107 H116 0.930 . S
C108 C105 1.344 . S
C108 C107 1.371 . S
C108 H117 0.931 . S
C109 C105 1.328 . S
C109 C110 1.433 . S
C109 H118 0.931 . S
C110 C106 1.323 . S
C110 C109 1.433 . S
C110 H119 0.933 . S
C111 Dy81 2.738 . S
C111 O91 1.255 . S
C111 O92 1.249 . S
C111 C105 1.516 . S
H112 C98 0.930 . S
H113 C99 0.931 . S
H114 C100 0.931 . S
H115 C101 0.933 . S
H116 C107 0.930 . S
H117 C108 0.931 . S
H118 C109 0.931 . S
H119 C110 0.933 . S
C120 C121 1.264 . S
C120 C125 1.479 . S
C120 C130 1.465 . S
C121 C120 1.264 . S
C121 C123 1.339 . S
C121 H148 0.931 . S
C122 C123 1.395 . S
C122 C124 1.320 . S
C123 C121 1.339 . S
C123 C122 1.395 . S
C123 H149 0.929 . S
C124 C122 1.320 . S
C124 C125 1.405 . S
C124 H150 0.930 . S
C125 C120 1.479 . S
C125 C124 1.405 . S
C125 H151 0.931 . S
U126 O127 2.454 . S
U126 O128 2.458 . S
U126 C129 2.984 . S
U126 C130 2.847 . S
U126 C143 2.882 . S
U126 O144 2.441 . S
U126 O145 2.420 . S
U126 O146 2.455 . S
U126 O147 2.449 . S
O127 U126 2.454 . S
O127 C129 1.353 . S
O128 U126 2.458 . S
O128 C129 1.286 . S
C129 U126 2.984 . S
C129 O127 1.353 . S
C129 O128 1.286 . S
C129 C131 1.363 1_545 S
C130 C120 1.465 . S
C130 U126 2.847 . S
C130 O144 1.249 . S
C130 O145 1.202 . S
C131 C129 1.363 1_565 S
C131 C133 1.408 . S
C131 C136 1.342 . S
C132 C133 1.310 . S
C132 C135 1.461 . S
C132 H152 0.932 . S
C133 C131 1.408 . S
C133 C132 1.310 . S
C133 H153 0.930 . S
C134 C135 1.474 . S
C134 C136 1.285 . S
C134 H154 0.929 . S
C135 C132 1.461 . S
C135 C134 1.474 . S
C136 C131 1.342 . S
C136 C134 1.285 . S
C136 H155 0.930 . S
C137 C140 1.424 . S
C137 C142 1.245 . S
C137 C143 1.428 . S
C138 C141 1.260 . S
C138 C142 1.477 . S
C138 H156 0.932 . S
C139 C140 1.384 . S
C139 C141 1.479 . S
C139 H157 0.929 . S
C140 C137 1.424 . S
C140 C139 1.384 . S
C140 H158 0.928 . S
C141 C138 1.260 . S
C141 C139 1.479 . S
C142 C137 1.245 . S
C142 C138 1.477 . S
C142 H159 0.932 . S
C143 U126 2.882 . S
C143 C137 1.428 . S
C143 O146 1.301 . S
C143 O147 1.282 . S
O144 U126 2.441 . S
O144 C130 1.249 . S
O145 U126 2.420 . S
O145 C130 1.202 . S
O146 U126 2.455 . S
O146 C143 1.301 . S
O147 U126 2.449 . S
O147 C143 1.282 . S
H148 C121 0.931 . S
H149 C123 0.929 . S
H150 C124 0.930 . S
H151 C125 0.931 . S
H152 C132 0.932 . S
H153 C133 0.930 . S
H154 C134 0.929 . S
H155 C136 0.930 . S
H156 C138 0.932 . S
H157 C139 0.929 . S
H158 C140 0.928 . S
H159 C142 0.932 . S
C160 C161 1.264 . S
C160 C165 1.479 . S
C160 C170 1.465 . S
C161 C160 1.264 . S
C161 C163 1.339 . S
C161 H188 0.931 . S
C162 C163 1.395 . S
C162 C164 1.320 . S
C163 C161 1.339 . S
C163 C162 1.395 . S
C163 H189 0.929 . S
C164 C162 1.320 . S
C164 C165 1.405 . S
C164 H190 0.930 . S
C165 C160 1.479 . S
C165 C164 1.405 . S
C165 H191 0.931 . S
U166 O167 2.454 . S
U166 O168 2.458 . S
U166 C169 2.984 . S
U166 C170 2.847 . S
U166 C183 2.882 . S
U166 O184 2.441 . S
U166 O185 2.420 . S
U166 O186 2.455 . S
U166 O187 2.449 . S
O167 U166 2.454 . S
O167 C169 1.353 . S
O168 U166 2.458 . S
O168 C169 1.286 . S
C169 U166 2.984 . S
C169 O167 1.353 . S
C169 O168 1.286 . S
C169 C171 1.363 . S
C170 C160 1.465 . S
C170 U166 2.847 . S
C170 O184 1.249 . S
C170 O185 1.202 . S
C171 C169 1.363 . S
C171 C173 1.408 . S
C171 C176 1.342 . S
C172 C173 1.310 . S
C172 C175 1.461 . S
C172 H192 0.932 . S
C173 C171 1.408 . S
C173 C172 1.310 . S
C173 H193 0.930 . S
C174 C175 1.474 . S
C174 C176 1.285 . S
C174 H194 0.929 . S
C175 C172 1.461 . S
C175 C174 1.474 . S
C176 C171 1.342 . S
C176 C174 1.285 . S
C176 H195 0.930 . S
C177 C180 1.424 . S
C177 C182 1.245 . S
C177 C183 1.428 . S
C178 C181 1.260 . S
C178 C182 1.477 . S
C178 H196 0.932 . S
C179 C180 1.384 . S
C179 C181 1.479 . S
C179 H197 0.929 . S
C180 C177 1.424 . S
C180 C179 1.384 . S
C180 H198 0.928 . S
C181 C178 1.260 . S
C181 C179 1.479 . S
C182 C177 1.245 . S
C182 C178 1.477 . S
C182 H199 0.932 . S
C183 U166 2.882 . S
C183 C177 1.428 . S
C183 O186 1.301 . S
C183 O187 1.282 . S
O184 U166 2.441 . S
O184 C170 1.249 . S
O185 U166 2.420 . S
O185 C170 1.202 . S
O186 U166 2.455 . S
O186 C183 1.301 . S
O187 U166 2.449 . S
O187 C183 1.282 . S
H188 C161 0.931 . S
H189 C163 0.929 . S
H190 C164 0.930 . S
H191 C165 0.931 . S
H192 C172 0.932 . S
H193 C173 0.930 . S
H194 C174 0.929 . S
H195 C176 0.930 . S
H196 C178 0.932 . S
H197 C179 0.929 . S
H198 C180 0.928 . S
H199 C182 0.932 . S
C200 C201 1.264 . S
C200 C205 1.479 . S
C200 C210 1.465 . S
C201 C200 1.264 . S
C201 C203 1.339 . S
C201 H228 0.931 . S
C202 C203 1.395 . S
C202 C204 1.320 . S
C203 C201 1.339 . S
C203 C202 1.395 . S
C203 H229 0.929 . S
C204 C202 1.320 . S
C204 C205 1.405 . S
C204 H230 0.930 . S
C205 C200 1.479 . S
C205 C204 1.405 . S
C205 H231 0.931 . S
U206 O207 2.454 . S
U206 O208 2.458 . S
U206 C209 2.984 . S
U206 C210 2.847 1_455 S
U206 C223 2.882 . S
U206 O224 2.441 1_455 S
U206 O225 2.420 1_455 S
U206 O226 2.455 . S
U206 O227 2.449 1_455 S
O207 U206 2.454 . S
O207 C209 1.353 . S
O208 U206 2.458 . S
O208 C209 1.286 . S
C209 U206 2.984 . S
C209 O207 1.353 . S
C209 O208 1.286 . S
C209 C211 1.363 . S
C210 C200 1.465 . S
C210 U206 2.847 1_655 S
C210 O224 1.249 . S
C210 O225 1.202 . S
C211 C209 1.363 . S
C211 C213 1.408 . S
C211 C216 1.342 . S
C212 C213 1.310 . S
C212 C215 1.461 . S
C212 H232 0.932 . S
C213 C211 1.408 . S
C213 C212 1.310 . S
C213 H233 0.930 . S
C214 C215 1.474 . S
C214 C216 1.285 . S
C214 H234 0.929 . S
C215 C212 1.461 . S
C215 C214 1.474 . S
C216 C211 1.342 . S
C216 C214 1.285 . S
C216 H235 0.930 . S
C217 C220 1.424 1_455 S
C217 C222 1.245 . S
C217 C223 1.428 . S
C218 C221 1.270 . S
C218 C222 1.477 . S
C218 H236 0.932 . S
C219 C220 1.384 . S
C219 C221 1.487 1_655 S
C219 H237 0.929 . S
C220 C217 1.424 1_655 S
C220 C219 1.384 . S
C220 H238 0.928 . S
C221 C218 1.270 . S
C221 C219 1.487 1_455 S
C222 C217 1.245 . S
C222 C218 1.477 . S
C222 H239 0.932 . S
C223 U206 2.882 . S
C223 C217 1.428 . S
C223 O226 1.301 . S
C223 O227 1.282 1_455 S
O224 U206 2.441 1_655 S
O224 C210 1.249 . S
O225 U206 2.420 1_655 S
O225 C210 1.202 . S
O226 U206 2.455 . S
O226 C223 1.301 . S
O227 U206 2.449 1_655 S
O227 C223 1.282 1_655 S
H228 C201 0.931 . S
H229 C203 0.929 . S
H230 C204 0.930 . S
H231 C205 0.931 . S
H232 C212 0.932 . S
H233 C213 0.930 . S
H234 C214 0.929 . S
H235 C216 0.930 . S
H236 C218 0.932 . S
H237 C219 0.929 . S
H238 C220 0.928 . S
H239 C222 0.932 . S
C240 C241 1.264 . S
C240 C245 1.479 . S
C240 C250 1.465 . S
C241 C240 1.264 . S
C241 C243 1.339 . S
C241 H268 0.931 . S
C242 C243 1.395 . S
C242 C244 1.320 . S
C243 C241 1.339 . S
C243 C242 1.395 . S
C243 H269 0.929 . S
C244 C242 1.320 . S
C244 C245 1.405 . S
C244 H270 0.930 . S
C245 C240 1.479 . S
C245 C244 1.405 . S
C245 H271 0.931 . S
U246 O247 2.454 . S
U246 O248 2.458 . S
U246 C249 2.984 . S
U246 C250 2.847 1_455 S
U246 C263 2.882 1_455 S
U246 O264 2.441 1_455 S
U246 O265 2.420 1_455 S
U246 O266 2.455 . S
U246 O267 2.449 1_455 S
O247 U246 2.454 . S
O247 C249 1.353 . S
O248 U246 2.458 . S
O248 C249 1.286 . S
C249 U246 2.984 . S
C249 O247 1.353 . S
C249 O248 1.286 . S
C249 C251 1.363 . S
C250 C240 1.465 . S
C250 U246 2.847 1_655 S
C250 O264 1.249 . S
C250 O265 1.202 . S
C251 C249 1.363 . S
C251 C253 1.408 . S
C251 C256 1.342 . S
C252 C253 1.310 . S
C252 C255 1.461 . S
C252 H272 0.932 . S
C253 C251 1.408 . S
C253 C252 1.310 . S
C253 H273 0.930 . S
C254 C255 1.474 . S
C254 C256 1.285 . S
C254 H274 0.929 . S
C255 C252 1.461 . S
C255 C254 1.474 . S
C256 C251 1.342 . S
C256 C254 1.285 . S
C256 H275 0.930 . S
C257 C260 1.424 . S
C257 C262 1.245 1_655 S
C257 C263 1.428 . S
C258 C261 1.260 1_455 S
C258 C262 1.477 . S
C258 H276 0.932 . S
C259 C260 1.384 . S
C259 C261 1.479 . S
C259 H277 0.929 . S
C260 C257 1.424 . S
C260 C259 1.384 . S
C260 H278 0.928 . S
C261 C258 1.260 1_655 S
C261 C259 1.479 . S
C262 C257 1.245 1_455 S
C262 C258 1.477 . S
C262 H279 0.932 . S
C263 U246 2.882 1_655 S
C263 C257 1.428 . S
C263 O266 1.301 1_655 S
C263 O267 1.282 . S
O264 U246 2.441 1_655 S
O264 C250 1.249 . S
O265 U246 2.420 1_655 S
O265 C250 1.202 . S
O266 U246 2.455 . S
O266 C263 1.301 1_455 S
O267 U246 2.449 1_655 S
O267 C263 1.282 . S
H268 C241 0.931 . S
H269 C243 0.929 . S
H270 C244 0.930 . S
H271 C245 0.931 . S
H272 C252 0.932 . S
H273 C253 0.930 . S
H274 C254 0.929 . S
H275 C256 0.930 . S
H276 C258 0.932 . S
H277 C259 0.929 . S
H278 C260 0.928 . S
H279 C262 0.932 . S
C280 C281 1.264 . S
C280 C285 1.479 . S
C280 C290 1.465 . S
C281 C280 1.264 . S
C281 C283 1.339 . S
C281 H308 0.931 . S
C282 C283 1.395 . S
C282 C284 1.320 . S
C283 C281 1.339 . S
C283 C282 1.395 . S
C283 H309 0.929 . S
C284 C282 1.320 . S
C284 C285 1.405 . S
C284 H310 0.930 . S
C285 C280 1.479 . S
C285 C284 1.405 . S
C285 H311 0.931 . S
U286 O287 2.474 . S
U286 O288 2.493 . S
U286 C289 3.015 . S
U286 C290 2.817 1_545 S
U286 C303 2.882 . S
U286 O304 2.421 1_545 S
U286 O305 2.385 1_545 S
U286 O306 2.471 . S
U286 O307 2.434 1_545 S
O287 U286 2.474 . S
O287 C289 1.353 . S
O288 U286 2.493 . S
O288 C289 1.286 . S
C289 U286 3.015 . S
C289 O287 1.353 . S
C289 O288 1.286 . S
C289 C291 1.363 . S
C290 C280 1.465 . S
C290 U286 2.817 1_565 S
C290 O304 1.249 . S
C290 O305 1.202 . S
C291 C289 1.363 . S
C291 C293 1.408 . S
C291 C296 1.342 . S
C292 C293 1.310 . S
C292 C295 1.461 . S
C292 H312 0.932 . S
C293 C291 1.408 . S
C293 C292 1.310 . S
C293 H313 0.930 . S
C294 C295 1.474 . S
C294 C296 1.285 . S
C294 H314 0.929 . S
C295 C292 1.461 . S
C295 C294 1.474 . S
C296 C291 1.342 . S
C296 C294 1.285 . S
C296 H315 0.930 . S
C297 C300 1.424 1_545 S
C297 C302 1.245 . S
C297 C303 1.428 . S
C298 C301 1.260 . S
C298 C302 1.477 . S
C298 H316 0.932 . S
C299 C300 1.384 . S
C299 C301 1.479 1_565 S
C299 H317 0.929 . S
C300 C297 1.424 1_565 S
C300 C299 1.384 . S
C300 H318 0.928 . S
C301 C298 1.260 . S
C301 C299 1.479 1_545 S
C302 C297 1.245 . S
C302 C298 1.477 . S
C302 H319 0.932 . S
C303 U286 2.882 . S
C303 C297 1.428 . S
C303 O306 1.301 . S
C303 O307 1.282 1_545 S
O304 U286 2.421 1_565 S
O304 C290 1.249 . S
O305 U286 2.385 1_565 S
O305 C290 1.202 . S
O306 U286 2.471 . S
O306 C303 1.301 . S
O307 U286 2.434 1_565 S
O307 C303 1.282 1_565 S
H308 C281 0.931 . S
H309 C283 0.929 . S
H310 C284 0.930 . S
H311 C285 0.931 . S
H312 C292 0.932 . S
H313 C293 0.930 . S
H314 C294 0.929 . S
H315 C296 0.930 . S
H316 C298 0.932 . S
H317 C299 0.929 . S
H318 C300 0.928 . S
H319 C302 0.932 . S
C320 C321 1.264 . S
C320 C325 1.479 . S
C320 C330 1.465 . S
C321 C320 1.264 . S
C321 C323 1.339 . S
C321 H348 0.931 . S
C322 C323 1.395 . S
C322 C324 1.320 . S
C323 C321 1.339 . S
C323 C322 1.395 . S
C323 H349 0.929 . S
C324 C322 1.320 . S
C324 C325 1.405 . S
C324 H350 0.930 . S
C325 C320 1.479 . S
C325 C324 1.405 . S
C325 H351 0.931 . S
U326 O327 2.454 . S
U326 O328 2.458 . S
U326 C329 2.984 . S
U326 C330 2.847 . S
U326 C343 2.882 . S
U326 O344 2.441 . S
U326 O345 2.420 . S
U326 O346 2.455 . S
U326 O347 2.449 . S
O327 U326 2.454 . S
O327 C329 1.353 . S
O328 U326 2.458 . S
O328 C329 1.286 . S
C329 U326 2.984 . S
C329 O327 1.353 . S
C329 O328 1.286 . S
C329 C331 1.363 . S
C330 C320 1.465 . S
C330 U326 2.847 . S
C330 O344 1.249 . S
C330 O345 1.202 . S
C331 C329 1.363 . S
C331 C333 1.408 . S
C331 C336 1.342 . S
C332 C333 1.310 . S
C332 C335 1.461 . S
C332 H352 0.932 . S
C333 C331 1.408 . S
C333 C332 1.310 . S
C333 H353 0.930 . S
C334 C335 1.474 . S
C334 C336 1.285 . S
C334 H354 0.929 . S
C335 C332 1.461 . S
C335 C334 1.474 . S
C336 C331 1.342 . S
C336 C334 1.285 . S
C336 H355 0.930 . S
C337 C340 1.424 . S
C337 C342 1.245 . S
C337 C343 1.428 . S
C338 C341 1.260 . S
C338 C342 1.477 . S
C338 H356 0.932 . S
C339 C340 1.384 . S
C339 C341 1.479 . S
C339 H357 0.929 . S
C340 C337 1.424 . S
C340 C339 1.384 . S
C340 H358 0.928 . S
C341 C338 1.260 . S
C341 C339 1.479 . S
C342 C337 1.245 . S
C342 C338 1.477 . S
C342 H359 0.932 . S
C343 U326 2.882 . S
C343 C337 1.428 . S
C343 O346 1.301 . S
C343 O347 1.282 . S
O344 U326 2.441 . S
O344 C330 1.249 . S
O345 U326 2.420 . S
O345 C330 1.202 . S
O346 U326 2.455 . S
O346 C343 1.301 . S
O347 U326 2.449 . S
O347 C343 1.282 . S
H348 C321 0.931 . S
H349 C323 0.929 . S
H350 C324 0.930 . S
H351 C325 0.931 . S
H352 C332 0.932 . S
H353 C333 0.930 . S
H354 C334 0.929 . S
H355 C336 0.930 . S
H356 C338 0.932 . S
H357 C339 0.929 . S
H358 C340 0.928 . S
H359 C342 0.932 . S
H360 C368 0.950 . S
H361 C373 0.950 . S
H362 C370 0.950 . S
H363 C372 0.950 . S
H364 C374 0.950 . S
H365 C376 0.950 . S
H366 C378 0.950 . S
H367 C379 0.950 . S
C368 H360 0.950 . S
C368 C369 1.386 . S
C368 C370 1.391 . S
C369 C368 1.386 . S
C369 C373 1.393 . S
C370 H362 0.950 . S
C370 C368 1.391 . S
C370 C371 1.400 . S
C371 C370 1.400 . S
C371 C372 1.398 . S
C371 C377 1.491 . S
C372 H363 0.950 . S
C372 C371 1.398 . S
C372 C373 1.391 . S
C373 H361 0.950 . S
C373 C369 1.393 . S
C373 C372 1.391 . S
C374 H364 0.950 . S
C374 C375 1.386 . S
C374 C376 1.391 . S
C375 C374 1.386 . S
C375 C379 1.393 . S
C376 H365 0.950 . S
C376 C374 1.391 . S
C376 C377 1.400 . S
C377 C371 1.491 . S
C377 C376 1.400 . S
C377 C378 1.398 . S
C378 H366 0.950 . S
C378 C377 1.398 . S
C378 C379 1.391 . S
C379 H367 0.950 . S
C379 C375 1.393 . S
C379 C378 1.391 . S
H380 C388 0.950 . S
H381 C393 0.950 . S
H382 C390 0.950 . S
H383 C392 0.950 . S
H384 C394 0.950 . S
H385 C396 0.950 . S
H386 C398 0.950 . S
H387 C399 0.950 . S
C388 H380 0.950 . S
C388 C389 1.386 . S
C388 C390 1.391 . S
C389 C388 1.386 . S
C389 C393 1.393 . S
C390 H382 0.950 . S
C390 C388 1.391 . S
C390 C391 1.400 . S
C391 C390 1.400 . S
C391 C392 1.398 . S
C391 C397 1.491 . S
C392 H383 0.950 . S
C392 C391 1.398 . S
C392 C393 1.391 . S
C393 H381 0.950 . S
C393 C389 1.393 . S
C393 C392 1.391 . S
C394 H384 0.950 . S
C394 C395 1.386 . S
C394 C396 1.391 . S
C395 C394 1.386 . S
C395 C399 1.393 . S
C396 H385 0.950 . S
C396 C394 1.391 . S
C396 C397 1.400 . S
C397 C391 1.491 . S
C397 C396 1.400 . S
C397 C398 1.398 . S
C398 H386 0.950 . S
C398 C397 1.398 . S
C398 C399 1.391 . S
C399 H387 0.950 . S
C399 C395 1.393 . S
C399 C398 1.391 . S
H400 C408 0.950 . S
H401 C413 0.950 . S
H402 C410 0.950 . S
H403 C412 0.950 . S
H404 C414 0.950 . S
H405 C416 0.950 . S
H406 C418 0.950 . S
H407 C419 0.950 . S
C408 H400 0.950 . S
C408 C409 1.386 . S
C408 C410 1.391 . S
C409 C408 1.386 . S
C409 C413 1.393 . S
C410 H402 0.950 . S
C410 C408 1.391 . S
C410 C411 1.400 . S
C411 C410 1.400 . S
C411 C412 1.398 . S
C411 C417 1.491 . S
C412 H403 0.950 . S
C412 C411 1.398 . S
C412 C413 1.391 . S
C413 H401 0.950 . S
C413 C409 1.393 . S
C413 C412 1.391 . S
C414 H404 0.950 . S
C414 C415 1.386 . S
C414 C416 1.391 . S
C415 C414 1.386 . S
C415 C419 1.393 . S
C416 H405 0.950 . S
C416 C414 1.391 . S
C416 C417 1.400 . S
C417 C411 1.491 . S
C417 C416 1.400 . S
C417 C418 1.398 . S
C418 H406 0.950 . S
C418 C417 1.398 . S
C418 C419 1.391 . S
C419 H407 0.950 . S
C419 C415 1.393 . S
C419 C418 1.391 . S
H420 C428 0.950 . S
H421 C433 0.950 . S
H422 C430 0.950 . S
H423 C432 0.950 . S
H424 C434 0.950 . S
H425 C436 0.950 . S
H426 C438 0.950 . S
H427 C439 0.950 . S
C428 H420 0.950 . S
C428 C429 1.386 . S
C428 C430 1.391 . S
C429 C428 1.386 . S
C429 C433 1.393 . S
C430 H422 0.950 . S
C430 C428 1.391 . S
C430 C431 1.400 . S
C431 C430 1.400 . S
C431 C432 1.398 . S
C431 C437 1.491 . S
C432 H423 0.950 . S
C432 C431 1.398 . S
C432 C433 1.391 . S
C433 H421 0.950 . S
C433 C429 1.393 . S
C433 C432 1.391 . S
C434 H424 0.950 . S
C434 C435 1.386 . S
C434 C436 1.391 . S
C435 C434 1.386 . S
C435 C439 1.393 . S
C436 H425 0.950 . S
C436 C434 1.391 . S
C436 C437 1.400 . S
C437 C431 1.491 . S
C437 C436 1.400 . S
C437 C438 1.398 . S
C438 H426 0.950 . S
C438 C437 1.398 . S
C438 C439 1.391 . S
C439 H427 0.950 . S
C439 C435 1.393 . S
C439 C438 1.391 . S
H440 C448 0.950 . S
H441 C453 0.950 . S
H442 C450 0.950 . S
H443 C452 0.950 . S
H444 C454 0.950 . S
H445 C456 0.950 . S
H446 C458 0.950 . S
H447 C459 0.950 . S
C448 H440 0.950 . S
C448 C449 1.386 . S
C448 C450 1.391 . S
C449 C448 1.386 . S
C449 C453 1.393 . S
C450 H442 0.950 . S
C450 C448 1.391 . S
C450 C451 1.400 . S
C451 C450 1.400 . S
C451 C452 1.398 . S
C451 C457 1.491 . S
C452 H443 0.950 . S
C452 C451 1.398 . S
C452 C453 1.391 . S
C453 H441 0.950 . S
C453 C449 1.393 . S
C453 C452 1.391 . S
C454 H444 0.950 . S
C454 C455 1.386 . S
C454 C456 1.391 . S
C455 C454 1.386 . S
C455 C459 1.393 . S
C456 H445 0.950 . S
C456 C454 1.391 . S
C456 C457 1.400 . S
C457 C451 1.491 . S
C457 C456 1.400 . S
C457 C458 1.398 . S
C458 H446 0.950 . S
C458 C457 1.398 . S
C458 C459 1.391 . S
C459 H447 0.950 . S
C459 C455 1.393 . S
C459 C458 1.391 . S
H460 C468 0.950 . S
H461 C473 0.950 . S
H462 C470 0.950 . S
H463 C472 0.950 . S
H464 C474 0.950 . S
H465 C476 0.950 . S
H466 C478 0.950 . S
H467 C479 0.950 . S
C468 H460 0.950 . S
C468 C469 1.386 . S
C468 C470 1.391 . S
C469 C468 1.386 . S
C469 C473 1.393 . S
C470 H462 0.950 . S
C470 C468 1.391 . S
C470 C471 1.400 . S
C471 C470 1.400 . S
C471 C472 1.398 . S
C471 C477 1.491 . S
C472 H463 0.950 . S
C472 C471 1.398 . S
C472 C473 1.391 . S
C473 H461 0.950 . S
C473 C469 1.393 . S
C473 C472 1.391 . S
C474 H464 0.950 . S
C474 C475 1.386 . S
C474 C476 1.391 . S
C475 C474 1.386 . S
C475 C479 1.393 . S
C476 H465 0.950 . S
C476 C474 1.391 . S
C476 C477 1.400 . S
C477 C471 1.491 . S
C477 C476 1.400 . S
C477 C478 1.398 . S
C478 H466 0.950 . S
C478 C477 1.398 . S
C478 C479 1.391 . S
C479 H467 0.950 . S
C479 C475 1.393 . S
C479 C478 1.391 . S
H480 C488 0.950 . S
H481 C493 0.950 . S
H482 C490 0.950 . S
H483 C492 0.950 . S
H484 C494 0.950 . S
H485 C496 0.950 . S
H486 C498 0.950 . S
H487 C499 0.950 . S
C488 H480 0.950 . S
C488 C489 1.386 . S
C488 C490 1.391 . S
C489 C488 1.386 . S
C489 C493 1.393 . S
C490 H482 0.950 . S
C490 C488 1.391 . S
C490 C491 1.400 . S
C491 C490 1.400 . S
C491 C492 1.398 . S
C491 C497 1.491 . S
C492 H483 0.950 . S
C492 C491 1.398 . S
C492 C493 1.391 . S
C493 H481 0.950 . S
C493 C489 1.393 . S
C493 C492 1.391 . S
C494 H484 0.950 . S
C494 C495 1.386 . S
C494 C496 1.391 . S
C495 C494 1.386 . S
C495 C499 1.393 . S
C496 H485 0.950 . S
C496 C494 1.391 . S
C496 C497 1.400 . S
C497 C491 1.491 . S
C497 C496 1.400 . S
C497 C498 1.398 . S
C498 H486 0.950 . S
C498 C497 1.398 . S
C498 C499 1.391 . S
C499 H487 0.950 . S
C499 C495 1.393 . S
C499 C498 1.391 . S
H500 C508 0.950 . S
H501 C513 0.950 . S
H502 C510 0.950 . S
H503 C512 0.950 . S
H504 C514 0.950 . S
H505 C516 0.950 . S
H506 C518 0.950 . S
H507 C519 0.950 . S
C508 H500 0.950 . S
C508 C509 1.386 . S
C508 C510 1.391 . S
C509 C508 1.386 . S
C509 C513 1.393 . S
C510 H502 0.950 . S
C510 C508 1.391 . S
C510 C511 1.400 . S
C511 C510 1.400 . S
C511 C512 1.398 . S
C511 C517 1.491 . S
C512 H503 0.950 . S
C512 C511 1.398 . S
C512 C513 1.391 . S
C513 H501 0.950 . S
C513 C509 1.393 . S
C513 C512 1.391 . S
C514 H504 0.950 . S
C514 C515 1.386 . S
C514 C516 1.391 . S
C515 C514 1.386 . S
C515 C519 1.393 . S
C516 H505 0.950 . S
C516 C514 1.391 . S
C516 C517 1.400 . S
C517 C511 1.491 . S
C517 C516 1.400 . S
C517 C518 1.398 . S
C518 H506 0.950 . S
C518 C517 1.398 . S
C518 C519 1.391 . S
C519 H507 0.950 . S
C519 C515 1.393 . S
C519 C518 1.391 . S
H520 C528 0.950 . S
H521 C533 0.950 . S
H522 C530 0.950 . S
H523 C532 0.950 . S
H524 C534 0.950 . S
H525 C536 0.950 . S
H526 C538 0.950 . S
H527 C539 0.950 . S
C528 H520 0.950 . S
C528 C529 1.386 . S
C528 C530 1.391 . S
C529 C528 1.386 . S
C529 C533 1.393 . S
C530 H522 0.950 . S
C530 C528 1.391 . S
C530 C531 1.400 . S
C531 C530 1.400 . S
C531 C532 1.398 . S
C531 C537 1.491 . S
C532 H523 0.950 . S
C532 C531 1.398 . S
C532 C533 1.391 . S
C533 H521 0.950 . S
C533 C529 1.393 . S
C533 C532 1.391 . S
C534 H524 0.950 . S
C534 C535 1.386 . S
C534 C536 1.391 . S
C535 C534 1.386 . S
C535 C539 1.393 . S
C536 H525 0.950 . S
C536 C534 1.391 . S
C536 C537 1.400 . S
C537 C531 1.491 . S
C537 C536 1.400 . S
C537 C538 1.398 . S
C538 H526 0.950 . S
C538 C537 1.398 . S
C538 C539 1.391 . S
C539 H527 0.950 . S
C539 C535 1.393 . S
C539 C538 1.391 . S
H540 C548 0.950 . S
H541 C553 0.950 . S
H542 C550 0.950 . S
H543 C552 0.950 . S
H544 C554 0.950 . S
H545 C556 0.950 . S
H546 C558 0.950 . S
H547 C559 0.950 . S
C548 H540 0.950 . S
C548 C549 1.386 . S
C548 C550 1.391 . S
C549 C548 1.386 . S
C549 C553 1.393 . S
C550 H542 0.950 . S
C550 C548 1.391 . S
C550 C551 1.400 . S
C551 C550 1.400 . S
C551 C552 1.398 . S
C551 C557 1.491 . S
C552 H543 0.950 . S
C552 C551 1.398 . S
C552 C553 1.391 . S
C553 H541 0.950 . S
C553 C549 1.393 . S
C553 C552 1.391 . S
C554 H544 0.950 . S
C554 C555 1.386 . S
C554 C556 1.391 . S
C555 C554 1.386 . S
C555 C559 1.393 . S
C556 H545 0.950 . S
C556 C554 1.391 . S
C556 C557 1.400 . S
C557 C551 1.491 . S
C557 C556 1.400 . S
C557 C558 1.398 . S
C558 H546 0.950 . S
C558 C557 1.398 . S
C558 C559 1.391 . S
C559 H547 0.950 . S
C559 C555 1.393 . S
C559 C558 1.391 . S
H560 C568 0.950 . S
H561 C573 0.950 . S
H562 C570 0.950 . S
H563 C572 0.950 . S
H564 C574 0.950 . S
H565 C576 0.950 . S
H566 C578 0.950 . S
H567 C579 0.950 . S
C568 H560 0.950 . S
C568 C569 1.386 . S
C568 C570 1.391 . S
C569 C568 1.386 . S
C569 C573 1.393 . S
C570 H562 0.950 . S
C570 C568 1.391 . S
C570 C571 1.400 . S
C571 C570 1.400 . S
C571 C572 1.398 . S
C571 C577 1.491 . S
C572 H563 0.950 . S
C572 C571 1.398 . S
C572 C573 1.391 . S
C573 H561 0.950 . S
C573 C569 1.393 . S
C573 C572 1.391 . S
C574 H564 0.950 . S
C574 C575 1.386 . S
C574 C576 1.391 . S
C575 C574 1.386 . S
C575 C579 1.393 . S
C576 H565 0.950 . S
C576 C574 1.391 . S
C576 C577 1.400 . S
C577 C571 1.491 . S
C577 C576 1.400 . S
C577 C578 1.398 . S
C578 H566 0.950 . S
C578 C577 1.398 . S
C578 C579 1.391 . S
C579 H567 0.950 . S
C579 C575 1.393 . S
C579 C578 1.391 . S
H580 C588 0.950 . S
H581 C593 0.950 . S
H582 C590 0.950 . S
H583 C592 0.950 . S
H584 C594 0.950 . S
H585 C596 0.950 . S
H586 C598 0.950 . S
H587 C599 0.950 . S
C588 H580 0.950 . S
C588 C589 1.386 . S
C588 C590 1.391 . S
C589 C588 1.386 . S
C589 C593 1.393 . S
C590 H582 0.950 . S
C590 C588 1.391 . S
C590 C591 1.400 . S
C591 C590 1.400 . S
C591 C592 1.398 . S
C591 C597 1.491 . S
C592 H583 0.950 . S
C592 C591 1.398 . S
C592 C593 1.391 . S
C593 H581 0.950 . S
C593 C589 1.393 . S
C593 C592 1.391 . S
C594 H584 0.950 . S
C594 C595 1.386 . S
C594 C596 1.391 . S
C595 C594 1.386 . S
C595 C599 1.393 . S
C596 H585 0.950 . S
C596 C594 1.391 . S
C596 C597 1.400 . S
C597 C591 1.491 . S
C597 C596 1.400 . S
C597 C598 1.398 . S
C598 H586 0.950 . S
C598 C597 1.398 . S
C598 C599 1.391 . S
C599 H587 0.950 . S
C599 C595 1.393 . S
C599 C598 1.391 . S
H600 C608 0.950 . S
H601 C613 0.950 . S
H602 C610 0.950 . S
H603 C612 0.950 . S
H604 C614 0.950 1_655 S
H605 C616 0.950 1_655 S
H606 C618 0.950 . S
H607 C619 0.950 . S
C608 H600 0.950 . S
C608 C609 1.386 . S
C608 C610 1.391 . S
C609 C608 1.386 . S
C609 C613 1.393 1_455 S
C610 H602 0.950 . S
C610 C608 1.391 . S
C610 C611 1.400 . S
C611 C610 1.400 . S
C611 C612 1.398 1_455 S
C611 C617 1.491 . S
C612 H603 0.950 . S
C612 C611 1.398 1_655 S
C612 C613 1.391 . S
C613 H601 0.950 . S
C613 C609 1.393 1_655 S
C613 C612 1.391 . S
C614 H604 0.950 1_455 S
C614 C615 1.386 . S
C614 C616 1.391 . S
C615 C614 1.386 . S
C615 C619 1.393 . S
C616 H605 0.950 1_455 S
C616 C614 1.391 . S
C616 C617 1.400 . S
C617 C611 1.491 . S
C617 C616 1.400 . S
C617 C618 1.398 . S
C618 H606 0.950 . S
C618 C617 1.398 . S
C618 C619 1.391 . S
C619 H607 0.950 . S
C619 C615 1.393 . S
C619 C618 1.391 . S
H620 C628 0.950 . S
H621 C633 0.950 . S
H622 C630 0.950 . S
H623 C632 0.950 . S
H624 C634 0.950 . S
H625 C636 0.950 . S
H626 C638 0.950 . S
H627 C639 0.950 . S
C628 H620 0.950 . S
C628 C629 1.386 . S
C628 C630 1.391 . S
C629 C628 1.386 . S
C629 C633 1.393 . S
C630 H622 0.950 . S
C630 C628 1.391 . S
C630 C631 1.400 . S
C631 C630 1.400 . S
C631 C632 1.398 . S
C631 C637 1.491 . S
C632 H623 0.950 . S
C632 C631 1.398 . S
C632 C633 1.391 . S
C633 H621 0.950 . S
C633 C629 1.393 . S
C633 C632 1.391 . S
C634 H624 0.950 . S
C634 C635 1.386 . S
C634 C636 1.391 . S
C635 C634 1.386 . S
C635 C639 1.393 . S
C636 H625 0.950 . S
C636 C634 1.391 . S
C636 C637 1.400 . S
C637 C631 1.491 . S
C637 C636 1.400 . S
C637 C638 1.398 . S
C638 H626 0.950 . S
C638 C637 1.398 . S
C638 C639 1.391 . S
C639 H627 0.950 . S
C639 C635 1.393 . S
C639 C638 1.391 . S
H640 C648 0.950 . S
H641 C653 0.950 . S
H642 C650 0.950 . S
H643 C652 0.950 . S
H644 C654 0.950 . S
H645 C656 0.950 . S
H646 C658 0.950 . S
H647 C659 0.950 . S
C648 H640 0.950 . S
C648 C649 1.386 . S
C648 C650 1.391 . S
C649 C648 1.386 . S
C649 C653 1.393 . S
C650 H642 0.950 . S
C650 C648 1.391 . S
C650 C651 1.400 . S
C651 C650 1.400 . S
C651 C652 1.398 . S
C651 C657 1.491 . S
C652 H643 0.950 . S
C652 C651 1.398 . S
C652 C653 1.391 . S
C653 H641 0.950 . S
C653 C649 1.393 . S
C653 C652 1.391 . S
C654 H644 0.950 . S
C654 C655 1.386 . S
C654 C656 1.391 . S
C655 C654 1.386 . S
C655 C659 1.393 . S
C656 H645 0.950 . S
C656 C654 1.391 . S
C656 C657 1.400 . S
C657 C651 1.491 . S
C657 C656 1.400 . S
C657 C658 1.398 . S
C658 H646 0.950 . S
C658 C657 1.398 . S
C658 C659 1.391 . S
C659 H647 0.950 . S
C659 C655 1.393 . S
C659 C658 1.391 . S
H660 C668 0.950 . S
H661 C673 0.950 . S
H662 C670 0.950 . S
H663 C672 0.950 . S
H664 C674 0.950 . S
H665 C676 0.950 . S
H666 C678 0.963 . S
H667 C679 0.947 1_565 S
C668 H660 0.950 . S
C668 C669 1.386 . S
C668 C670 1.391 . S
C669 C668 1.386 . S
C669 C673 1.393 . S
C670 H662 0.950 . S
C670 C668 1.391 . S
C670 C671 1.400 . S
C671 C670 1.400 . S
C671 C672 1.398 . S
C671 C677 1.491 . S
C672 H663 0.950 . S
C672 C671 1.398 . S
C672 C673 1.391 . S
C673 H661 0.950 . S
C673 C669 1.393 . S
C673 C672 1.391 . S
C674 H664 0.950 . S
C674 C675 1.386 . S
C674 C676 1.391 . S
C675 C674 1.386 . S
C675 C679 1.393 . S
C676 H665 0.950 . S
C676 C674 1.391 . S
C676 C677 1.400 . S
C677 C671 1.491 . S
C677 C676 1.400 . S
C677 C678 1.398 . S
C678 H666 0.963 . S
C678 C677 1.398 . S
C678 C679 1.391 . S
C679 H667 0.947 1_545 S
C679 C675 1.393 . S
C679 C678 1.391 . S
H680 C688 0.950 . S
H681 C693 0.950 . S
H682 C690 0.950 . S
H683 C692 0.950 . S
H684 C694 0.950 . S
H685 C696 0.950 . S
H686 C698 0.950 . S
H687 C699 0.950 . S
C688 H680 0.950 . S
C688 C689 1.386 . S
C688 C690 1.391 . S
C689 C688 1.386 . S
C689 C693 1.393 . S
C690 H682 0.950 . S
C690 C688 1.391 . S
C690 C691 1.400 . S
C691 C690 1.400 . S
C691 C692 1.398 . S
C691 C697 1.491 . S
C692 H683 0.950 . S
C692 C691 1.398 . S
C692 C693 1.391 . S
C693 H681 0.950 . S
C693 C689 1.393 . S
C693 C692 1.391 . S
C694 H684 0.950 . S
C694 C695 1.386 . S
C694 C696 1.391 . S
C695 C694 1.386 . S
C695 C699 1.393 . S
C696 H685 0.950 . S
C696 C694 1.391 . S
C696 C697 1.400 . S
C697 C691 1.491 . S
C697 C696 1.400 . S
C697 C698 1.398 . S
C698 H686 0.950 . S
C698 C697 1.398 . S
C698 C699 1.391 . S
C699 H687 0.950 . S
C699 C695 1.393 . S
C699 C698 1.391 . S
H700 C708 0.950 . S
H701 C713 0.950 . S
H702 C710 0.950 . S
H703 C712 0.950 . S
H704 C714 0.950 . S
H705 C716 0.950 . S
H706 C718 0.950 . S
H707 C719 0.950 . S
C708 H700 0.950 . S
C708 C709 1.386 . S
C708 C710 1.391 . S
C709 C708 1.386 . S
C709 C713 1.393 1_455 S
C710 H702 0.950 . S
C710 C708 1.391 . S
C710 C711 1.400 . S
C711 C710 1.400 . S
C711 C712 1.398 1_455 S
C711 C717 1.491 1_455 S
C712 H703 0.950 . S
C712 C711 1.398 1_655 S
C712 C713 1.391 . S
C713 H701 0.950 . S
C713 C709 1.393 1_655 S
C713 C712 1.391 . S
C714 H704 0.950 . S
C714 C715 1.386 . S
C714 C716 1.391 . S
C715 C714 1.386 . S
C715 C719 1.393 1_655 S
C716 H705 0.950 . S
C716 C714 1.391 . S
C716 C717 1.400 . S
C717 C711 1.491 1_655 S
C717 C716 1.400 . S
C717 C718 1.398 1_655 S
C718 H706 0.950 . S
C718 C717 1.398 1_455 S
C718 C719 1.391 . S
C719 H707 0.950 . S
C719 C715 1.393 1_455 S
C719 C718 1.391 . S
C369 C24 2.978 . S
C375 C335 2.926 . S
C389 C66 1.084 . S
C395 C242 1.124 . S
C409 C93 1.877 . S
C415 C282 1.829 . S
C429 C13 3.147 . S
C435 C322 3.093 . S
C455 C255 1.301 . S
C449 C57 1.317 . S
C475 C295 2.008 . S
C469 C104 2.062 . S
C489 C64 2.012 . S
C495 C162 1.963 . S
C509 C97 0.510 . S
C515 C202 0.562 . S
C529 C17 1.287 . S
C535 C135 1.283 . S
C555 C175 1.854 . S
C549 C53 1.908 . S
C575 C215 0.154 . S
C569 C106 0.358 . S
C589 C26 1.111 . S
C595 C122 1.139 . S
C615 C221 1.072 1_554 S
C609 C2 1.087 . S
C629 C63 1.478 . S
C635 C141 1.508 . S
C649 C82 1.380 . S
C655 C181 1.372 . S
C675 C301 1.409 . S
C669 C42 1.388 . S
C695 C341 1.768 1_556 S
C689 C103 1.728 . S
C709 C23 1.478 . S
C715 C261 1.519 . S
