# Generated by pormake.
# Topology tph, (6,8)-cn, num edge types: 1
# Building blocks:
#     Node 0, Type 0, BuildingBlock: OJICUG_clean_sbu_0, # of connection points: 6
#     Node 1, Type 0, BuildingBlock: OJICUG_clean_sbu_0, # of connection points: 6
#     Node 2, Type 0, BuildingBlock: OJICUG_clean_sbu_0, # of connection points: 6
#     Node 3, Type 0, BuildingBlock: OJICUG_clean_sbu_0, # of connection points: 6
#     Node 4, Type 0, BuildingBlock: OJICUG_clean_sbu_0, # of connection points: 6
#     Node 5, Type 0, BuildingBlock: OJICUG_clean_sbu_0, # of connection points: 6
#     Node 6, Type 0, BuildingBlock: OJICUG_clean_sbu_0, # of connection points: 6
#     Node 7, Type 0, BuildingBlock: OJICUG_clean_sbu_0, # of connection points: 6
#     Node 8, Type 0, BuildingBlock: OJICUG_clean_sbu_0, # of connection points: 6
#     Node 9, Type 0, BuildingBlock: OJICUG_clean_sbu_0, # of connection points: 6
#     Node 10, Type 0, BuildingBlock: OJICUG_clean_sbu_0, # of connection points: 6
#     Node 11, Type 0, BuildingBlock: OJICUG_clean_sbu_0, # of connection points: 6
#     Node 12, Type 0, BuildingBlock: OJICUG_clean_sbu_0, # of connection points: 6
#     Node 13, Type 0, BuildingBlock: OJICUG_clean_sbu_0, # of connection points: 6
#     Node 14, Type 0, BuildingBlock: OJICUG_clean_sbu_0, # of connection points: 6
#     Node 15, Type 0, BuildingBlock: OJICUG_clean_sbu_0, # of connection points: 6
#     Node 16, Type 1, BuildingBlock: TAGTUT_clean_sbu_1, # of connection points: 8
#     Node 17, Type 1, BuildingBlock: TAGTUT_clean_sbu_1, # of connection points: 8
#     Node 18, Type 1, BuildingBlock: TAGTUT_clean_sbu_1, # of connection points: 8
#     Node 19, Type 1, BuildingBlock: TAGTUT_clean_sbu_1, # of connection points: 8
#     Node 20, Type 1, BuildingBlock: TAGTUT_clean_sbu_1, # of connection points: 8
#     Node 21, Type 1, BuildingBlock: TAGTUT_clean_sbu_1, # of connection points: 8
#     Node 22, Type 1, BuildingBlock: TAGTUT_clean_sbu_1, # of connection points: 8
#     Node 23, Type 1, BuildingBlock: TAGTUT_clean_sbu_1, # of connection points: 8
#     Node 24, Type 1, BuildingBlock: TAGTUT_clean_sbu_1, # of connection points: 8
#     Node 25, Type 1, BuildingBlock: TAGTUT_clean_sbu_1, # of connection points: 8
#     Node 26, Type 1, BuildingBlock: TAGTUT_clean_sbu_1, # of connection points: 8
#     Node 27, Type 1, BuildingBlock: TAGTUT_clean_sbu_1, # of connection points: 8
#     Edge 28, Type (0, 1), BuildingBlock: AJUNOK_clean_linker_0, # of connection points: 2
#     Edge 29, Type (0, 1), BuildingBlock: AJUNOK_clean_linker_0, # of connection points: 2
#     Edge 30, Type (0, 1), BuildingBlock: AJUNOK_clean_linker_0, # of connection points: 2
#     Edge 31, Type (0, 1), BuildingBlock: AJUNOK_clean_linker_0, # of connection points: 2
#     Edge 32, Type (0, 1), BuildingBlock: AJUNOK_clean_linker_0, # of connection points: 2
#     Edge 33, Type (0, 1), BuildingBlock: AJUNOK_clean_linker_0, # of connection points: 2
#     Edge 34, Type (0, 1), BuildingBlock: AJUNOK_clean_linker_0, # of connection points: 2
#     Edge 35, Type (0, 1), BuildingBlock: AJUNOK_clean_linker_0, # of connection points: 2
#     Edge 36, Type (0, 1), BuildingBlock: AJUNOK_clean_linker_0, # of connection points: 2
#     Edge 37, Type (0, 1), BuildingBlock: AJUNOK_clean_linker_0, # of connection points: 2
#     Edge 38, Type (0, 1), BuildingBlock: AJUNOK_clean_linker_0, # of connection points: 2
#     Edge 39, Type (0, 1), BuildingBlock: AJUNOK_clean_linker_0, # of connection points: 2
#     Edge 40, Type (0, 1), BuildingBlock: AJUNOK_clean_linker_0, # of connection points: 2
#     Edge 41, Type (0, 1), BuildingBlock: AJUNOK_clean_linker_0, # of connection points: 2
#     Edge 42, Type (0, 1), BuildingBlock: AJUNOK_clean_linker_0, # of connection points: 2
#     Edge 43, Type (0, 1), BuildingBlock: AJUNOK_clean_linker_0, # of connection points: 2
#     Edge 44, Type (0, 1), BuildingBlock: AJUNOK_clean_linker_0, # of connection points: 2
#     Edge 45, Type (0, 1), BuildingBlock: AJUNOK_clean_linker_0, # of connection points: 2
#     Edge 46, Type (0, 1), BuildingBlock: AJUNOK_clean_linker_0, # of connection points: 2
#     Edge 47, Type (0, 1), BuildingBlock: AJUNOK_clean_linker_0, # of connection points: 2
#     Edge 48, Type (0, 1), BuildingBlock: AJUNOK_clean_linker_0, # of connection points: 2
#     Edge 49, Type (0, 1), BuildingBlock: AJUNOK_clean_linker_0, # of connection points: 2
#     Edge 50, Type (0, 1), BuildingBlock: AJUNOK_clean_linker_0, # of connection points: 2
#     Edge 51, Type (0, 1), BuildingBlock: AJUNOK_clean_linker_0, # of connection points: 2
#     Edge 52, Type (0, 1), BuildingBlock: AJUNOK_clean_linker_0, # of connection points: 2
#     Edge 53, Type (0, 1), BuildingBlock: AJUNOK_clean_linker_0, # of connection points: 2
#     Edge 54, Type (0, 1), BuildingBlock: AJUNOK_clean_linker_0, # of connection points: 2
#     Edge 55, Type (0, 1), BuildingBlock: AJUNOK_clean_linker_0, # of connection points: 2
#     Edge 56, Type (0, 1), BuildingBlock: AJUNOK_clean_linker_0, # of connection points: 2
#     Edge 57, Type (0, 1), BuildingBlock: AJUNOK_clean_linker_0, # of connection points: 2
#     Edge 58, Type (0, 1), BuildingBlock: AJUNOK_clean_linker_0, # of connection points: 2
#     Edge 59, Type (0, 1), BuildingBlock: AJUNOK_clean_linker_0, # of connection points: 2
#     Edge 60, Type (0, 1), BuildingBlock: AJUNOK_clean_linker_0, # of connection points: 2
#     Edge 61, Type (0, 1), BuildingBlock: AJUNOK_clean_linker_0, # of connection points: 2
#     Edge 62, Type (0, 1), BuildingBlock: AJUNOK_clean_linker_0, # of connection points: 2
#     Edge 63, Type (0, 1), BuildingBlock: AJUNOK_clean_linker_0, # of connection points: 2
#     Edge 64, Type (0, 1), BuildingBlock: AJUNOK_clean_linker_0, # of connection points: 2
#     Edge 65, Type (0, 1), BuildingBlock: AJUNOK_clean_linker_0, # of connection points: 2
#     Edge 66, Type (0, 1), BuildingBlock: AJUNOK_clean_linker_0, # of connection points: 2
#     Edge 67, Type (0, 1), BuildingBlock: AJUNOK_clean_linker_0, # of connection points: 2
#     Edge 68, Type (0, 1), BuildingBlock: AJUNOK_clean_linker_0, # of connection points: 2
#     Edge 69, Type (0, 1), BuildingBlock: AJUNOK_clean_linker_0, # of connection points: 2
#     Edge 70, Type (0, 1), BuildingBlock: AJUNOK_clean_linker_0, # of connection points: 2
#     Edge 71, Type (0, 1), BuildingBlock: AJUNOK_clean_linker_0, # of connection points: 2
#     Edge 72, Type (0, 1), BuildingBlock: AJUNOK_clean_linker_0, # of connection points: 2
#     Edge 73, Type (0, 1), BuildingBlock: AJUNOK_clean_linker_0, # of connection points: 2
#     Edge 74, Type (0, 1), BuildingBlock: AJUNOK_clean_linker_0, # of connection points: 2
#     Edge 75, Type (0, 1), BuildingBlock: AJUNOK_clean_linker_0, # of connection points: 2
#     Edge 76, Type (0, 1), BuildingBlock: AJUNOK_clean_linker_0, # of connection points: 2
#     Edge 77, Type (0, 1), BuildingBlock: AJUNOK_clean_linker_0, # of connection points: 2
#     Edge 78, Type (0, 1), BuildingBlock: AJUNOK_clean_linker_0, # of connection points: 2
#     Edge 79, Type (0, 1), BuildingBlock: AJUNOK_clean_linker_0, # of connection points: 2
#     Edge 80, Type (0, 1), BuildingBlock: AJUNOK_clean_linker_0, # of connection points: 2
#     Edge 81, Type (0, 1), BuildingBlock: AJUNOK_clean_linker_0, # of connection points: 2
#     Edge 82, Type (0, 1), BuildingBlock: AJUNOK_clean_linker_0, # of connection points: 2
#     Edge 83, Type (0, 1), BuildingBlock: AJUNOK_clean_linker_0, # of connection points: 2
#     Edge 84, Type (0, 1), BuildingBlock: AJUNOK_clean_linker_0, # of connection points: 2
#     Edge 85, Type (0, 1), BuildingBlock: AJUNOK_clean_linker_0, # of connection points: 2
#     Edge 86, Type (0, 1), BuildingBlock: AJUNOK_clean_linker_0, # of connection points: 2
#     Edge 87, Type (0, 1), BuildingBlock: AJUNOK_clean_linker_0, # of connection points: 2
#     Edge 88, Type (0, 1), BuildingBlock: AJUNOK_clean_linker_0, # of connection points: 2
#     Edge 89, Type (0, 1), BuildingBlock: AJUNOK_clean_linker_0, # of connection points: 2
#     Edge 90, Type (0, 1), BuildingBlock: AJUNOK_clean_linker_0, # of connection points: 2
#     Edge 91, Type (0, 1), BuildingBlock: AJUNOK_clean_linker_0, # of connection points: 2
#     Edge 92, Type (0, 1), BuildingBlock: AJUNOK_clean_linker_0, # of connection points: 2
#     Edge 93, Type (0, 1), BuildingBlock: AJUNOK_clean_linker_0, # of connection points: 2
#     Edge 94, Type (0, 1), BuildingBlock: AJUNOK_clean_linker_0, # of connection points: 2
#     Edge 95, Type (0, 1), BuildingBlock: AJUNOK_clean_linker_0, # of connection points: 2
#     Edge 96, Type (0, 1), BuildingBlock: AJUNOK_clean_linker_0, # of connection points: 2
#     Edge 97, Type (0, 1), BuildingBlock: AJUNOK_clean_linker_0, # of connection points: 2
#     Edge 98, Type (0, 1), BuildingBlock: AJUNOK_clean_linker_0, # of connection points: 2
#     Edge 99, Type (0, 1), BuildingBlock: AJUNOK_clean_linker_0, # of connection points: 2
#     Edge 100, Type (0, 1), BuildingBlock: AJUNOK_clean_linker_0, # of connection points: 2
#     Edge 101, Type (0, 1), BuildingBlock: AJUNOK_clean_linker_0, # of connection points: 2
#     Edge 102, Type (0, 1), BuildingBlock: AJUNOK_clean_linker_0, # of connection points: 2
#     Edge 103, Type (0, 1), BuildingBlock: AJUNOK_clean_linker_0, # of connection points: 2
#     Edge 104, Type (0, 1), BuildingBlock: AJUNOK_clean_linker_0, # of connection points: 2
#     Edge 105, Type (0, 1), BuildingBlock: AJUNOK_clean_linker_0, # of connection points: 2
#     Edge 106, Type (0, 1), BuildingBlock: AJUNOK_clean_linker_0, # of connection points: 2
#     Edge 107, Type (0, 1), BuildingBlock: AJUNOK_clean_linker_0, # of connection points: 2
#     Edge 108, Type (0, 1), BuildingBlock: AJUNOK_clean_linker_0, # of connection points: 2
#     Edge 109, Type (0, 1), BuildingBlock: AJUNOK_clean_linker_0, # of connection points: 2
#     Edge 110, Type (0, 1), BuildingBlock: AJUNOK_clean_linker_0, # of connection points: 2
#     Edge 111, Type (0, 1), BuildingBlock: AJUNOK_clean_linker_0, # of connection points: 2
#     Edge 112, Type (0, 1), BuildingBlock: AJUNOK_clean_linker_0, # of connection points: 2
#     Edge 113, Type (0, 1), BuildingBlock: AJUNOK_clean_linker_0, # of connection points: 2
#     Edge 114, Type (0, 1), BuildingBlock: AJUNOK_clean_linker_0, # of connection points: 2
#     Edge 115, Type (0, 1), BuildingBlock: AJUNOK_clean_linker_0, # of connection points: 2
#     Edge 116, Type (0, 1), BuildingBlock: AJUNOK_clean_linker_0, # of connection points: 2
#     Edge 117, Type (0, 1), BuildingBlock: AJUNOK_clean_linker_0, # of connection points: 2
#     Edge 118, Type (0, 1), BuildingBlock: AJUNOK_clean_linker_0, # of connection points: 2
#     Edge 119, Type (0, 1), BuildingBlock: AJUNOK_clean_linker_0, # of connection points: 2
#     Edge 120, Type (0, 1), BuildingBlock: AJUNOK_clean_linker_0, # of connection points: 2
#     Edge 121, Type (0, 1), BuildingBlock: AJUNOK_clean_linker_0, # of connection points: 2
#     Edge 122, Type (0, 1), BuildingBlock: AJUNOK_clean_linker_0, # of connection points: 2
#     Edge 123, Type (0, 1), BuildingBlock: AJUNOK_clean_linker_0, # of connection points: 2
# Relax obj value: 0.212
# Max RMSD: 0.316
# Mean RMSD: 0.273
data_MOF--net-tph--node1-OJICUG_clean_sbu_0--node2-TAGTUT_clean_sbu_1--edge1-AJUNOK_clean_linker_0
_symmetry_space_group_name_H-M    P1
_symmetry_Int_Tables_number       1
_symmetry_cell_setting            triclinic
loop_
_symmetry_equiv_pos_as_xyz
'x, y, z'
_cell_length_a     36.803465
_cell_length_b     36.503691
_cell_length_c     36.106085
_cell_angle_alpha  90.53052
_cell_angle_beta   91.982642
_cell_angle_gamma 90.147991
loop_
_atom_site_label
_atom_site_type_symbol
_atom_site_fract_x
_atom_site_fract_y
_atom_site_fract_z
_atom_type_partial_charge
Sc0 Sc 0.15434 0.20855 0.19968 0.0
Sc1 Sc 0.21947 0.14137 0.19915 0.0
Sc2 Sc 0.21206 0.20446 0.12856 0.0
O3 O 0.19639 0.18525 0.17631 0.0
C4 C 0.13541 0.22228 0.11413 0.0
C5 C 0.13476 0.13015 0.21027 0.0
C6 C 0.20995 0.11805 0.11649 0.0
C7 C 0.20173 0.17824 0.26919 0.0
C8 C 0.19161 0.27581 0.17841 0.0
C9 C 0.28613 0.18502 0.16543 0.0
O10 O 0.13075 0.23123 0.14782 0.0
O11 O 0.16771 0.12237 0.21907 0.0
O12 O 0.22036 0.1494 0.10513 0.0
O13 O 0.17229 0.19002 0.25408 0.0
O14 O 0.20058 0.26132 0.14741 0.0
O15 O 0.27356 0.15624 0.18039 0.0
O16 O 0.185 0.25677 0.20651 0.0
O17 O 0.22896 0.17021 0.25005 0.0
O18 O 0.26616 0.20908 0.14997 0.0
O19 O 0.12586 0.15882 0.19242 0.0
O20 O 0.15897 0.19902 0.1059 0.0
O21 O 0.20713 0.111 0.15047 0.0
Sc22 Sc 0.42934 0.63287 0.04716 0.0
Sc23 Sc 0.38249 0.55235 0.05484 0.0
Sc24 Sc 0.44992 0.57564 0.12098 0.0
O25 O 0.42302 0.58561 0.07339 0.0
C26 C 0.51101 0.61179 0.06717 0.0
C27 C 0.41695 0.56825 0.98322 0.0
C28 C 0.43856 0.49521 0.09644 0.0
C29 C 0.35344 0.62972 0.02738 0.0
C30 C 0.43122 0.65991 0.13091 0.0
C31 C 0.36489 0.56239 0.13818 0.0
O32 O 0.48742 0.62613 0.04496 0.0
O33 O 0.41194 0.54304 0.00662 0.0
O34 O 0.4615 0.52 0.1057 0.0
O35 O 0.37332 0.64058 0.05393 0.0
O36 O 0.43802 0.62805 0.14248 0.0
O37 O 0.35407 0.56408 0.10423 0.0
O38 O 0.43303 0.66811 0.09681 0.0
O39 O 0.35239 0.5953 0.02114 0.0
O40 O 0.3988 0.5598 0.14801 0.0
O41 O 0.42119 0.60223 0.99297 0.0
O42 O 0.50189 0.59387 0.09618 0.0
O43 O 0.40744 0.5032 0.08144 0.0
Sc44 Sc 0.85551 0.27255 0.22712 0.0
Sc45 Sc 0.80135 0.27799 0.14755 0.0
Sc46 Sc 0.80751 0.35154 0.20597 0.0
O47 O 0.82213 0.30094 0.19402 0.0
C48 C 0.80364 0.3143 0.28287 0.0
C49 C 0.81336 0.20834 0.19665 0.0
C50 C 0.73438 0.31077 0.17549 0.0
C51 C 0.88174 0.2623 0.14372 0.0
C52 C 0.89168 0.34977 0.23589 0.0
C53 C 0.80689 0.36036 0.12423 0.0
O54 O 0.82998 0.29235 0.27733 0.0
O55 O 0.80954 0.22279 0.16515 0.0
O56 O 0.75184 0.34045 0.1835 0.0
O57 O 0.88428 0.25315 0.178 0.0
O58 O 0.86157 0.36655 0.22958 0.0
O59 O 0.79088 0.3297 0.12078 0.0
O60 O 0.89461 0.3154 0.232 0.0
O61 O 0.85389 0.27681 0.12827 0.0
O62 O 0.82455 0.36943 0.15351 0.0
O63 O 0.81786 0.22801 0.2254 0.0
O64 O 0.79 0.33516 0.25829 0.0
O65 O 0.74968 0.28031 0.16984 0.0
Sc66 Sc 0.62164 0.95162 0.07128 0.0
Sc67 Sc 0.56176 0.88339 0.03856 0.0
Sc68 Sc 0.54793 0.92845 0.12412 0.0
O69 O 0.5758 0.92243 0.07737 0.0
C70 C 0.62835 0.93787 0.15827 0.0
C71 C 0.64441 0.87254 0.04592 0.0
C72 C 0.55934 0.84139 0.11482 0.0
C73 C 0.58704 0.94562 0.98697 0.0
C74 C 0.56569 0.01257 0.10074 0.0
C75 C 0.48301 0.90278 0.07005 0.0
O76 O 0.64058 0.94955 0.12821 0.0
O77 O 0.61681 0.87295 0.02415 0.0
O78 O 0.54877 0.86988 0.13221 0.0
O79 O 0.6107 0.95519 0.01195 0.0
O80 O 0.54813 0.98855 0.11889 0.0
O81 O 0.50353 0.88617 0.04772 0.0
O82 O 0.59233 0.00393 0.08018 0.0
O83 O 0.56077 0.92368 0.99382 0.0
O84 O 0.49559 0.92479 0.095 0.0
O85 O 0.65183 0.90014 0.06664 0.0
O86 O 0.59534 0.92902 0.16147 0.0
O87 O 0.56652 0.84111 0.0805 0.0
Sc88 Sc 0.20628 0.84962 0.28504 0.0
Sc89 Sc 0.13843 0.78827 0.29822 0.0
Sc90 Sc 0.2105 0.79488 0.35973 0.0
O91 O 0.18404 0.81229 0.31574 0.0
C92 C 0.27588 0.807 0.31674 0.0
C93 C 0.17922 0.80713 0.22422 0.0
C94 C 0.17892 0.72058 0.32204 0.0
C95 C 0.11911 0.86335 0.27693 0.0
C96 C 0.22247 0.88364 0.35914 0.0
C97 C 0.13623 0.78793 0.38771 0.0
O98 O 0.26264 0.83634 0.30294 0.0
O99 O 0.14872 0.80045 0.23885 0.0
O100 O 0.19146 0.73729 0.35123 0.0
O101 O 0.1513 0.86842 0.26516 0.0
O102 O 0.2309 0.85176 0.372 0.0
O103 O 0.12415 0.77514 0.35629 0.0
O104 O 0.20495 0.88765 0.32859 0.0
O105 O 0.11295 0.83983 0.30164 0.0
O106 O 0.16462 0.80741 0.39006 0.0
O107 O 0.20758 0.80788 0.24458 0.0
O108 O 0.25533 0.78176 0.32718 0.0
O109 O 0.16569 0.73773 0.29435 0.0
Sc110 Sc 0.06828 0.62723 0.96457 0.0
Sc111 Sc 0.04934 0.57849 0.88231 0.0
Sc112 Sc 0.11428 0.54676 0.94686 0.0
O113 O 0.07676 0.58401 0.93102 0.0
C114 C 0.14766 0.62082 0.98352 0.0
C115 C 0.06314 0.6644 0.88524 0.0
C116 C 0.13491 0.56225 0.86445 0.0
C117 C 0.98732 0.60456 0.94094 0.0
C118 C 0.08225 0.5594 0.02036 0.0
C119 C 0.05592 0.49513 0.90321 0.0
O120 O 0.12453 0.64006 0.96583 0.0
O121 O 0.06006 0.63403 0.86814 0.0
O122 O 0.14385 0.55778 0.89851 0.0
O123 O 0.01122 0.61628 0.96445 0.0
O124 O 0.08443 0.53603 0.99443 0.0
O125 O 0.03678 0.5216 0.89105 0.0
O126 O 0.07746 0.59348 0.01388 0.0
O127 O 0.99611 0.59219 0.90875 0.0
O128 O 0.0867 0.50034 0.91962 0.0
O129 O 0.06178 0.66721 0.9203 0.0
O130 O 0.14747 0.58597 0.98076 0.0
O131 O 0.1013 0.56575 0.85335 0.0
Sc132 Sc 0.8485 0.71267 0.2802 0.0
Sc133 Sc 0.78722 0.64445 0.29735 0.0
Sc134 Sc 0.79703 0.71774 0.35672 0.0
O135 O 0.81072 0.69138 0.31119 0.0
C136 C 0.87682 0.73145 0.36215 0.0
C137 C 0.87101 0.63266 0.28273 0.0
C138 C 0.79533 0.63501 0.38144 0.0
C139 C 0.79544 0.67357 0.22001 0.0
C140 C 0.81463 0.78097 0.29983 0.0
C141 C 0.723 0.69351 0.33096 0.0
O142 O 0.87769 0.73833 0.32762 0.0
O143 O 0.83806 0.62213 0.27723 0.0
O144 O 0.78518 0.6679 0.38701 0.0
O145 O 0.82545 0.68871 0.22987 0.0
O146 O 0.80957 0.77044 0.33283 0.0
O147 O 0.73511 0.6627 0.31936 0.0
O148 O 0.81411 0.75825 0.27332 0.0
O149 O 0.77229 0.66372 0.24326 0.0
O150 O 0.74317 0.72127 0.33639 0.0
O151 O 0.88029 0.66572 0.28861 0.0
O152 O 0.85119 0.71366 0.37609 0.0
O153 O 0.80312 0.62332 0.34961 0.0
Sc154 Sc 0.95834 0.93443 0.87171 0.0
Sc155 Sc 0.88119 0.95894 0.9221 0.0
Sc156 Sc 0.93117 0.88048 0.94688 0.0
O157 O 0.92424 0.9253 0.91433 0.0
C158 C 0.94129 0.84906 0.86474 0.0
C159 C 0.87998 0.94864 0.8345 0.0
C160 C 0.84474 0.88159 0.93779 0.0
C161 C 0.94254 0.01628 0.89712 0.0
C162 C 0.01482 0.90287 0.93224 0.0
C163 C 0.90868 0.9433 0.00632 0.0
O164 O 0.95588 0.87843 0.85394 0.0
O165 O 0.86497 0.95578 0.8648 0.0
O166 O 0.87467 0.86656 0.94662 0.0
O167 O 0.96253 0.99254 0.88194 0.0
O168 O 0.99023 0.88541 0.94894 0.0
O169 O 0.89244 0.96229 0.98127 0.0
O170 O 0.00743 0.92483 0.90575 0.0
O171 O 0.91357 0.00794 0.91363 0.0
O172 O 0.92605 0.91372 -0.00147 0.0
O173 O 0.91372 0.94233 0.83208 0.0
O174 O 0.93155 0.84449 0.89795 0.0
O175 O 0.84219 0.91503 0.92888 0.0
Sc176 Sc 0.38165 0.45935 0.41437 0.0
Sc177 Sc 0.42899 0.38192 0.44605 0.0
Sc178 Sc 0.46113 0.43083 0.37076 0.0
O179 O 0.42441 0.42494 0.41118 0.0
C180 C 0.38728 0.44538 0.32701 0.0
C181 C 0.34269 0.38434 0.4326 0.0
C182 C 0.44272 0.34637 0.36746 0.0
C183 C 0.4044 0.4446 0.5013 0.0
C184 C 0.44389 0.51461 0.39071 0.0
C185 C 0.51347 0.40468 0.43436 0.0
O186 O 0.37135 0.45781 0.3552 0.0
O187 O 0.37138 0.37111 0.44763 0.0
O188 O 0.46343 0.37277 0.35915 0.0
O189 O 0.3873 0.46128 0.4749 0.0
O190 O 0.46213 0.4895 0.37547 0.0
O191 O 0.48861 0.38461 0.44765 0.0
O192 O 0.41552 0.50809 0.40903 0.0
O193 O 0.42555 0.41736 0.49544 0.0
O194 O 0.50677 0.42835 0.40955 0.0
O195 O 0.3421 0.41523 0.41674 0.0
O196 O 0.41944 0.43313 0.32804 0.0
O197 O 0.42716 0.34494 0.39833 0.0
Sc198 Sc 0.35932 0.76997 0.72533 0.0
Sc199 Sc 0.29824 0.77882 0.65227 0.0
Sc200 Sc 0.30423 0.84583 0.71825 0.0
O201 O 0.32166 0.7988 0.69846 0.0
C202 C 0.31186 0.80232 0.79024 0.0
C203 C 0.31602 0.70668 0.69626 0.0
C204 C 0.23172 0.80479 0.68709 0.0
C205 C 0.37688 0.764 0.63872 0.0
C206 C 0.39102 0.84763 0.73578 0.0
C207 C 0.30023 0.86374 0.63721 0.0
O208 O 0.34069 0.78634 0.77997 0.0
O209 O 0.30946 0.72259 0.66575 0.0
O210 O 0.24786 0.83465 0.69723 0.0
O211 O 0.38229 0.75315 0.67217 0.0
O212 O 0.35941 0.86173 0.7396 0.0
O213 O 0.28516 0.83282 0.63058 0.0
O214 O 0.3956 0.81462 0.726 0.0
O215 O 0.34867 0.781 0.6274 0.0
O216 O 0.31646 0.8711 0.66785 0.0
O217 O 0.32291 0.72476 0.72567 0.0
O218 O 0.29135 0.82066 0.7686 0.0
O219 O 0.24931 0.77616 0.67985 0.0
Sc220 Sc 0.12256 0.45663 0.57537 0.0
Sc221 Sc 0.0645 0.38549 0.54182 0.0
Sc222 Sc 0.04474 0.43379 0.62391 0.0
O223 O 0.07667 0.42598 0.5797 0.0
C224 C 0.12304 0.44639 0.66287 0.0
C225 C 0.15027 0.37517 0.55774 0.0
C226 C 0.05278 0.34748 0.61969 0.0
C227 C 0.09712 0.44762 0.48951 0.0
C228 C 0.06117 0.51616 0.59896 0.0
C229 C 0.98436 0.40897 0.56089 0.0
O230 O 0.13828 0.45187 0.63257 0.0
O231 O 0.11911 0.36525 0.54506 0.0
O232 O 0.04963 0.37744 0.63742 0.0
O233 O 0.11465 0.46318 0.5163 0.0
O234 O 0.04035 0.49204 0.61275 0.0
O235 O 0.00694 0.39883 0.53685 0.0
O236 O 0.09171 0.50773 0.58486 0.0
O237 O 0.07631 0.42005 0.49431 0.0
O238 O 0.99431 0.42196 0.59254 0.0
O239 O 0.15698 0.40793 0.56873 0.0
O240 O 0.08896 0.44213 0.66481 0.0
O241 O 0.05433 0.3454 0.58456 0.0
Sc242 Sc 0.94057 0.13111 0.54654 0.0
Sc243 Sc 0.88103 0.05702 0.56187 0.0
Sc244 Sc 0.95435 0.07575 0.62445 0.0
O245 O 0.92577 0.08745 0.57694 0.0
C246 C 0.01927 0.10521 0.57303 0.0
C247 C 0.91826 0.06779 0.48578 0.0
C248 C 0.93724 0.99581 0.59819 0.0
C249 C 0.85637 0.13705 0.53236 0.0
C250 C 0.94599 0.16153 0.63043 0.0
C251 C 0.87013 0.06875 0.64736 0.0
O252 O 0.99718 0.12105 0.55106 0.0
O253 O 0.9002 0.04849 0.50781 0.0
O254 O 0.95948 0.01959 0.61093 0.0
O255 O 0.88821 0.14897 0.5363 0.0
O256 O 0.951 0.12962 0.64243 0.0
O257 O 0.85816 0.06646 0.6141 0.0
O258 O 0.94232 0.1685 0.59576 0.0
O259 O 0.848 0.10383 0.53944 0.0
O260 O 0.90419 0.06717 0.65604 0.0
O261 O 0.93556 0.0973 0.49539 0.0
O262 O 0.00833 0.08642 0.60044 0.0
O263 O 0.90695 0.00458 0.58168 0.0
Sc264 Sc 0.70527 0.70617 0.624 0.0
Sc265 Sc 0.65103 0.71012 0.69779 0.0
Sc266 Sc 0.72002 0.64772 0.69723 0.0
O267 O 0.69329 0.68798 0.67314 0.0
C268 C 0.71364 0.61921 0.61592 0.0
C269 C 0.62913 0.72044 0.61345 0.0
C270 C 0.6354 0.63031 0.70603 0.0
C271 C 0.68682 0.77722 0.67568 0.0
C272 C 0.78257 0.69304 0.65772 0.0
C273 C 0.70101 0.68475 0.76624 0.0
O274 O 0.71573 0.65101 0.60146 0.0
O275 O 0.62569 0.73294 0.64616 0.0
O276 O 0.66877 0.62497 0.71587 0.0
O277 O 0.6921 0.76351 0.64316 0.0
O278 O 0.77197 0.66653 0.67753 0.0
O279 O 0.66968 0.69205 0.75227 0.0
O280 O 0.76118 0.71413 0.6396 0.0
O281 O 0.68346 0.75684 0.70339 0.0
O282 O 0.72785 0.68014 0.74587 0.0
O283 O 0.6508 0.69468 0.60859 0.0
O284 O 0.71254 0.61416 0.65041 0.0
O285 O 0.62333 0.65983 0.69173 0.0
Sc286 Sc 0.70627 0.34419 0.78431 0.0
Sc287 Sc 0.63821 0.28221 0.79057 0.0
Sc288 Sc 0.69906 0.2957 0.86291 0.0
O289 O 0.67999 0.30947 0.81411 0.0
C290 C 0.77199 0.3045 0.82874 0.0
C291 C 0.68787 0.29865 0.72403 0.0
C292 C 0.67784 0.2187 0.8236 0.0
C293 C 0.61947 0.35866 0.76974 0.0
C294 C 0.71367 0.38389 0.85732 0.0
C295 C 0.62335 0.28397 0.87779 0.0
O296 O 0.76049 0.3309 0.80851 0.0
O297 O 0.65481 0.29429 0.7326 0.0
O298 O 0.6834 0.2371 0.85383 0.0
O299 O 0.6525 0.36342 0.75959 0.0
O300 O 0.71704 0.3531 0.87429 0.0
O301 O 0.617 0.26853 0.8461 0.0
O302 O 0.70233 0.3863 0.82386 0.0
O303 O 0.60997 0.33173 0.78924 0.0
O304 O 0.64697 0.30897 0.88129 0.0
O305 O 0.71094 0.29776 0.74999 0.0
O306 O 0.75045 0.28197 0.84279 0.0
O307 O 0.66962 0.23411 0.79306 0.0
Sc308 Sc 0.56504 0.12258 0.45982 0.0
Sc309 Sc 0.55248 0.07189 0.37946 0.0
Sc310 Sc 0.6176 0.04559 0.44432 0.0
O311 O 0.57744 0.07905 0.42835 0.0
C312 C 0.64552 0.12437 0.4742 0.0
C313 C 0.5578 0.15556 0.37984 0.0
C314 C 0.63622 0.05555 0.36143 0.0
C315 C 0.48805 0.09727 0.43535 0.0
C316 C 0.58809 0.05985 0.51799 0.0
C317 C 0.55969 0.99088 0.40324 0.0
O318 O 0.61968 0.14073 0.45714 0.0
O319 O 0.5683 0.12562 0.36632 0.0
O320 O 0.64649 0.05624 0.39539 0.0
O321 O 0.50979 0.10494 0.46249 0.0
O322 O 0.58985 0.03528 0.49322 0.0
O323 O 0.53921 0.01621 0.39071 0.0
O324 O 0.58046 0.09307 0.51019 0.0
O325 O 0.49928 0.08898 0.40287 0.0
O326 O 0.59069 0.99717 0.41918 0.0
O327 O 0.54957 0.15862 0.41363 0.0
O328 O 0.64821 0.08949 0.47398 0.0
O329 O 0.60256 0.05576 0.35103 0.0
Sc330 Sc 0.35122 0.21888 0.77663 0.0
Sc331 Sc 0.28638 0.15168 0.78626 0.0
Sc332 Sc 0.3074 0.21166 0.85737 0.0
O333 O 0.31304 0.1947 0.80591 0.0
C334 C 0.38495 0.22304 0.85614 0.0
C335 C 0.36889 0.13813 0.76663 0.0
C336 C 0.30037 0.12701 0.86726 0.0
C337 C 0.29532 0.18981 0.71422 0.0
C338 C 0.32121 0.28384 0.80946 0.0
C339 C 0.22821 0.19787 0.834 0.0
O340 O 0.38331 0.23863 0.82492 0.0
O341 O 0.33528 0.12977 0.76172 0.0
O342 O 0.29609 0.15908 0.87986 0.0
O343 O 0.32622 0.20217 0.72474 0.0
O344 O 0.3195 0.26784 0.84073 0.0
O345 O 0.23704 0.17163 0.81212 0.0
O346 O 0.31856 0.26586 0.77933 0.0
O347 O 0.27165 0.18059 0.73704 0.0
O348 O 0.25081 0.21993 0.84972 0.0
O349 O 0.38056 0.16957 0.77677 0.0
O350 O 0.36279 0.19802 0.86284 0.0
O351 O 0.30106 0.11956 0.83309 0.0
C352 C 0.96472 0.25861 0.0153 0.0
C353 C 0.06772 0.27703 0.98301 0.0
C354 C 0.00597 0.34647 0.86546 0.0
Mg355 Mg 0.01408 0.22223 0.95748 0.0
O356 O 0.98706 0.25375 0.92795 0.0
Mg357 Mg 0.98881 0.30704 0.94241 0.0
Mg358 Mg 0.99949 0.2558 0.87528 0.0
O359 O 0.00915 0.2597 0.82307 0.0
Mg360 Mg 0.98073 0.2957 0.79723 0.0
Mg361 Mg 0.99999 0.20761 0.80911 0.0
C362 C 0.99283 0.16737 0.89198 0.0
C363 C 0.07505 0.21553 0.85564 0.0
O364 O 0.96341 0.28789 0.9958 0.0
O365 O 0.98245 0.23 0.00589 0.0
O366 O 0.04303 0.30113 0.97746 0.0
O367 O 0.06596 0.24606 0.96672 0.0
O368 O 0.00808 0.17368 0.92387 0.0
O369 O 0.98362 0.19374 0.86973 0.0
C370 C 0.92194 0.2959 0.88164 0.0
O371 O 0.94153 0.27349 0.86407 0.0
O372 O 0.93326 0.31151 0.91173 0.0
O373 O 0.02183 0.22977 0.75135 0.0
O374 O 0.01373 0.29116 0.75167 0.0
O375 O 0.94045 0.22203 0.79592 0.0
C376 C 0.02567 0.26176 0.73704 0.0
O377 O 0.9306 0.27475 0.77025 0.0
O378 O 0.99113 0.34388 0.83273 0.0
C379 C 0.92825 0.23996 0.76825 0.0
O380 O 0.0138 0.31781 0.88471 0.0
O381 O 0.06027 0.23673 0.87969 0.0
O382 O 0.05676 0.2001 0.82908 0.0
C383 C 0.4597 0.75538 0.50942 0.0
C384 C 0.56405 0.76807 0.47849 0.0
C385 C 0.51306 0.84279 0.36078 0.0
Mg386 Mg 0.50606 0.71697 0.45105 0.0
O387 O 0.48226 0.75115 0.42146 0.0
Mg388 Mg 0.48814 0.80374 0.43773 0.0
Mg389 Mg 0.50007 0.75351 0.37022 0.0
O390 O 0.51678 0.75616 0.31911 0.0
Mg391 Mg 0.49408 0.79214 0.28989 0.0
Mg392 Mg 0.51048 0.70389 0.30261 0.0
C393 C 0.48837 0.66501 0.38189 0.0
C394 C 0.57547 0.70915 0.36467 0.0
O395 O 0.46056 0.7856 0.49138 0.0
O396 O 0.4747 0.72572 0.49873 0.0
O397 O 0.54131 0.7939 0.4727 0.0
O398 O 0.55927 0.73645 0.464 0.0
O399 O 0.49762 0.66939 0.41619 0.0
O400 O 0.48329 0.69236 0.35971 0.0
C401 C 0.42429 0.79709 0.37275 0.0
O402 O 0.44404 0.775 0.35463 0.0
O403 O 0.43446 0.81065 0.40434 0.0
O404 O 0.53969 0.72293 0.24761 0.0
O405 O 0.5293 0.78395 0.24591 0.0
O406 O 0.45726 0.71525 0.27107 0.0
C407 C 0.54346 0.75481 0.23284 0.0
O408 O 0.44256 0.77413 0.2656 0.0
O409 O 0.50344 0.83951 0.3263 0.0
C410 C 0.43618 0.74035 0.25861 0.0
O411 O 0.51636 0.81442 0.38168 0.0
O412 O 0.55765 0.73231 0.38384 0.0
O413 O 0.56288 0.69527 0.33425 0.0
C414 C 0.97371 0.75892 0.48266 0.0
C415 C 0.07472 0.74564 0.5261 0.0
C416 C 0.019 0.66733 0.63311 0.0
Mg417 Mg 0.0173 0.79566 0.5471 0.0
O418 O 0.99037 0.76176 0.57251 0.0
Mg419 Mg 0.99705 0.70914 0.55649 0.0
Mg420 Mg 0.00604 0.75851 0.62544 0.0
O421 O 0.02061 0.75416 0.67755 0.0
Mg422 Mg 0.00172 0.71524 0.70446 0.0
Mg423 Mg 0.01426 0.80552 0.69527 0.0
C424 C 0.9934 0.84749 0.61347 0.0
C425 C 0.08165 0.80244 0.64169 0.0
O426 O 0.97148 0.72928 0.50148 0.0
O427 O 0.99038 0.78779 0.49429 0.0
O428 O 0.05133 0.71976 0.52707 0.0
O429 O 0.0705 0.77489 0.54474 0.0
O430 O 0.00565 0.84261 0.58097 0.0
O431 O 0.98786 0.82011 0.63551 0.0
C432 C 0.93035 0.71507 0.61429 0.0
O433 O 0.94979 0.73734 0.63395 0.0
O434 O 0.94191 0.70085 0.58425 0.0
O435 O 0.04248 0.78398 0.75197 0.0
O436 O 0.04019 0.72209 0.74805 0.0
O437 O 0.96099 0.79193 0.72138 0.0
C438 C 0.0505 0.75174 0.7644 0.0
O439 O 0.95328 0.73225 0.73221 0.0
O440 O 0.00906 0.66825 0.6669 0.0
C441 C 0.94405 0.76569 0.73654 0.0
O442 O 0.02321 0.69708 0.61457 0.0
O443 O 0.06436 0.78001 0.6198 0.0
O444 O 0.06746 0.81623 0.6703 0.0
C445 C 0.01646 0.03706 0.24435 0.0
C446 C 0.98724 0.92919 0.22564 0.0
C447 C 0.869 0.98363 0.15873 0.0
Mg448 Mg 0.9658 0.98238 0.28144 0.0
O449 O 0.93491 0.00976 0.25117 0.0
Mg450 Mg 0.94436 0.00663 0.19673 0.0
Mg451 Mg 0.88465 0.99242 0.25064 0.0
O452 O 0.83413 0.97753 0.24837 0.0
Mg453 Mg 0.80421 0.0022 0.2132 0.0
Mg454 Mg 0.82256 0.98187 0.30131 0.0
C455 C 0.90635 0.00103 0.33902 0.0
C456 C 0.87911 0.91591 0.28987 0.0
O457 O 0.99516 0.03626 0.21546 0.0
O458 O 0.01187 0.01745 0.27312 0.0
O459 O 0.98097 0.95412 0.20163 0.0
O460 O 0.97287 0.93057 0.257 0.0
O461 O 0.93584 0.98465 0.33117 0.0
O462 O 0.88151 0.00839 0.31375 0.0
C463 C 0.88281 0.06876 0.21114 0.0
O464 O 0.86943 0.04771 0.23481 0.0
O465 O 0.91058 0.0599 0.1926 0.0
O466 O 0.76626 0.95373 0.27866 0.0
O467 O 0.76602 0.96069 0.21642 0.0
O468 O 0.79585 0.03824 0.29507 0.0
C469 C 0.75237 0.94785 0.24568 0.0
O470 O 0.7672 0.04121 0.24035 0.0
O471 O 0.83644 0.99623 0.16183 0.0
C472 C 0.76764 0.0466 0.27548 0.0
O473 O 0.88941 0.97741 0.18763 0.0
O474 O 0.89771 0.93464 0.26757 0.0
O475 O 0.85087 0.92843 0.30518 0.0
C476 C 0.27266 -0.00043 0.95186 0.0
C477 C 0.20203 0.98451 0.03599 0.0
C478 C 0.16603 0.85702 0.96377 0.0
Mg479 Mg 0.27524 0.95485 0.02407 0.0
O480 O 0.25849 0.91914 0.9918 0.0
Mg481 Mg 0.21507 0.93067 0.95934 0.0
Mg482 Mg 0.24678 0.86923 0.00869 0.0
O483 O 0.23535 0.81865 0.02118 0.0
Mg484 Mg 0.21961 0.78956 0.98073 0.0
Mg485 Mg 0.2806 0.80504 0.04954 0.0
C486 C 0.32578 0.88914 0.05222 0.0
C487 C 0.22869 0.86109 0.09379 0.0
O488 O 0.24673 0.97904 0.93942 0.0
O489 O 0.28855 0.99521 0.98362 0.0
O490 O 0.19313 0.9734 0.00307 0.0
O491 O 0.2298 0.97201 0.05345 0.0
O492 O 0.31639 0.92289 0.05083 0.0
O493 O 0.30579 0.86377 0.0359 0.0
C494 C 0.26004 0.86359 0.92202 0.0
O495 O 0.26658 0.85083 0.95411 0.0
O496 O 0.24074 0.89227 0.9165 0.0
O497 O 0.25015 0.74775 0.05852 0.0
O498 O 0.20472 0.74632 0.01465 0.0
O499 O 0.30698 0.77595 0.00119 0.0
C500 C 0.2218 0.7326 0.04263 0.0
O501 O 0.26602 0.76275 0.95579 0.0
O502 O 0.17343 0.8229 0.95851 0.0
C503 C 0.29766 0.75883 0.97123 0.0
O504 O 0.18849 0.87805 0.98203 0.0
O505 O 0.22472 0.88256 0.06597 0.0
O506 O 0.2495 0.83305 0.09373 0.0
C507 C 0.9969 0.54224 0.26842 0.0
C508 C 0.02403 0.43325 0.26259 0.0
C509 C 0.14797 0.48041 0.34155 0.0
Mg510 Mg 0.04721 0.49791 0.21866 0.0
O511 O 0.08163 0.51062 0.25454 0.0
Mg512 Mg 0.07081 0.50321 0.30778 0.0
Mg513 Mg 0.13355 0.49637 0.25247 0.0
O514 O 0.18532 0.48544 0.25242 0.0
Mg515 Mg 0.21615 0.50255 0.29171 0.0
Mg516 Mg 0.19628 0.50281 0.20156 0.0
C517 C 0.11241 0.5183 0.16763 0.0
C518 C 0.15187 0.4276 0.19697 0.0
O519 O 0.01735 0.53416 0.29666 0.0
O520 O 0.00394 0.53226 0.23539 0.0
O521 O 0.03564 0.45028 0.29207 0.0
O522 O 0.0317 0.44386 0.2303 0.0
O523 O 0.07894 0.51011 0.17189 0.0
O524 O 0.13599 0.52062 0.19474 0.0
C525 C 0.13001 0.57036 0.30333 0.0
O526 O 0.14439 0.55132 0.27811 0.0
O527 O 0.1024 0.55841 0.32036 0.0
O528 O 0.25447 0.47795 0.21519 0.0
O529 O 0.25337 0.46239 0.27572 0.0
O530 O 0.21375 0.55757 0.22598 0.0
C531 C 0.26756 0.46084 0.24378 0.0
O532 O 0.24979 0.54938 0.27439 0.0
O533 O 0.18105 0.49216 0.33997 0.0
C534 C 0.24489 0.56196 0.24169 0.0
O535 O 0.12787 0.47484 0.31221 0.0
O536 O 0.13001 0.43823 0.22243 0.0
O537 O 0.17595 0.44884 0.18428 0.0
C538 C 0.76341 0.48596 0.04056 0.0
C539 C 0.75068 0.51788 0.9326 0.0
C540 C 0.83699 0.63643 0.98404 0.0
Mg541 Mg 0.71058 0.53965 0.00198 0.0
O542 O 0.74759 0.57316 0.00958 0.0
Mg543 Mg 0.79944 0.56014 0.00244 0.0
Mg544 Mg 0.74766 0.62481 0.99391 0.0
O545 O 0.75065 0.67663 0.98232 0.0
Mg546 Mg 0.78702 0.70358 0.00955 0.0
Mg547 Mg 0.69971 0.69131 0.99001 0.0
C548 C 0.66102 0.60863 0.02021 0.0
C549 C 0.70598 0.64072 0.91685 0.0
O550 O 0.78943 0.50638 0.03061 0.0
O551 O 0.72994 0.49444 0.0351 0.0
O552 O 0.78124 0.52834 0.94781 0.0
O553 O 0.71999 0.52496 0.94652 0.0
O554 O 0.66558 0.5738 0.01868 0.0
O555 O 0.68621 0.63122 0.01016 0.0
C556 C 0.79233 0.61808 0.07078 0.0
O557 O 0.76835 0.63496 0.05139 0.0
O558 O 0.80908 0.58976 0.05886 0.0
O559 O 0.72276 0.75025 0.968 0.0
O560 O 0.78407 0.74541 0.97108 0.0
O561 O 0.71311 0.70655 0.04965 0.0
C562 C 0.75511 0.76242 0.9613 0.0
O563 O 0.76303 0.73859 0.0533 0.0
O564 O 0.8351 0.66824 -0.00015 0.0
C565 C 0.72886 0.73637 0.05836 0.0
O566 O 0.80808 0.61723 0.97647 0.0
O567 O 0.72666 0.61799 0.93439 0.0
O568 O 0.69238 0.66917 0.9321 0.0
C569 C 0.26917 0.99018 0.54759 0.0
C570 C 0.25723 0.01779 0.43706 0.0
C571 C 0.34137 0.13854 0.47984 0.0
Mg572 Mg 0.21742 0.04186 0.50474 0.0
O573 O 0.25365 0.07586 0.51376 0.0
Mg574 Mg 0.30523 0.0625 0.50612 0.0
Mg575 Mg 0.25267 0.12725 0.49646 0.0
O576 O 0.25429 0.17883 0.48313 0.0
Mg577 Mg 0.29263 0.2074 0.50352 0.0
Mg578 Mg 0.20437 0.19517 0.49346 0.0
C579 C 0.16869 0.11073 0.52681 0.0
C580 C 0.20497 0.14045 0.42206 0.0
O581 O 0.29546 0.01032 0.53765 0.0
O582 O 0.23597 0.99744 0.53906 0.0
O583 O 0.28738 0.02804 0.45312 0.0
O584 O 0.22629 0.02641 0.44942 0.0
O585 O 0.17387 0.07623 0.52248 0.0
O586 O 0.19286 0.13483 0.51729 0.0
C587 C 0.30094 0.12403 0.57111 0.0
O588 O 0.27656 0.13987 0.55145 0.0
O589 O 0.31669 0.09459 0.56069 0.0
O590 O 0.22504 0.25246 0.46583 0.0
O591 O 0.28577 0.24547 0.46179 0.0
O592 O 0.22021 0.21816 0.55087 0.0
C593 C 0.25647 0.26287 0.45422 0.0
O594 O 0.27339 0.24567 0.54636 0.0
O595 O 0.33963 0.17178 0.49216 0.0
C596 C 0.24099 0.24551 0.55815 0.0
O597 O 0.31245 0.11835 0.47645 0.0
O598 O 0.22732 0.11831 0.43835 0.0
O599 O 0.19311 0.16941 0.43784 0.0
C600 C 0.51641 0.53497 0.72941 0.0
C601 C 0.48298 0.43071 0.73251 0.0
C602 C 0.3615 0.4783 0.65476 0.0
Mg603 Mg 0.46167 0.49331 0.7764 0.0
O604 O 0.43067 0.51396 0.74145 0.0
Mg605 Mg 0.44148 0.5016 0.6882 0.0
Mg606 Mg 0.37952 0.49681 0.74401 0.0
O607 O 0.32859 0.48211 0.74562 0.0
Mg608 Mg 0.29447 0.49621 0.70898 0.0
Mg609 Mg 0.31641 0.4936 0.79756 0.0
C610 C 0.40033 0.51735 0.83137 0.0
C611 C 0.37301 0.42661 0.79639 0.0
O612 O 0.49561 0.5311 0.70033 0.0
O613 O 0.50893 0.5225 0.76126 0.0
O614 O 0.47725 0.44939 0.703 0.0
O615 O 0.46511 0.43771 0.76111 0.0
O616 O 0.43293 0.5076 0.82487 0.0
O617 O 0.37553 0.51983 0.80505 0.0
C618 C 0.38095 0.56638 0.69231 0.0
O619 O 0.36566 0.54935 0.71814 0.0
O620 O 0.40983 0.55496 0.67705 0.0
O621 O 0.25888 0.46376 0.7807 0.0
O622 O 0.26382 0.44992 0.72017 0.0
O623 O 0.29063 0.54789 0.78073 0.0
C624 C 0.24719 0.44739 0.7505 0.0
O625 O 0.25449 0.53564 0.73256 0.0
O626 O 0.32828 0.48836 0.65948 0.0
C627 C 0.25927 0.55003 0.76487 0.0
O628 O 0.38397 0.47428 0.68285 0.0
O629 O 0.39109 0.44172 0.77084 0.0
O630 O 0.34474 0.44114 0.80995 0.0
C631 C 0.76386 0.51389 0.47309 0.0
C632 C 0.69685 0.47602 0.54722 0.0
C633 C 0.66621 0.36351 0.45871 0.0
Mg634 Mg 0.76929 0.4546 0.53483 0.0
O635 O 0.75769 0.42686 0.49254 0.0
Mg636 Mg 0.71109 0.43994 0.46397 0.0
Mg637 Mg 0.74701 0.37469 0.50306 0.0
O638 O 0.73683 0.32308 0.50996 0.0
Mg639 Mg 0.7201 0.29584 0.46742 0.0
Mg640 Mg 0.78439 0.30851 0.53159 0.0
C641 C 0.82756 0.39056 0.54389 0.0
C642 C 0.73961 0.35586 0.58978 0.0
O643 O 0.74211 0.4934 0.45329 0.0
O644 O 0.77627 0.5054 0.5055 0.0
O645 O 0.6882 0.47384 0.51276 0.0
O646 O 0.71888 0.45281 0.56106 0.0
O647 O 0.81636 0.42261 0.553 0.0
O648 O 0.80732 0.36849 0.52371 0.0
C649 C 0.75533 0.37982 0.41581 0.0
O650 O 0.76358 0.36392 0.44592 0.0
O651 O 0.73536 0.40851 0.41454 0.0
O652 O 0.75372 0.25088 0.53872 0.0
O653 O 0.70249 0.25538 0.50278 0.0
O654 O 0.80014 0.29363 0.47254 0.0
C655 C 0.72191 0.23922 0.52765 0.0
O656 O 0.76109 0.26079 0.44121 0.0
O657 O 0.67579 0.3313 0.44805 0.0
C658 C 0.79195 0.2627 0.45819 0.0
O659 O 0.68715 0.38332 0.48024 0.0
O660 O 0.73018 0.37892 0.56444 0.0
O661 O 0.76119 0.3291 0.58401 0.0
C662 C 0.49285 0.04493 0.75874 0.0
C663 C 0.5211 0.93562 0.75667 0.0
C664 C 0.6395 0.97895 0.83943 0.0
Mg665 Mg 0.54587 -0.00034 0.71294 0.0
O666 O 0.57791 0.01494 0.75016 0.0
Mg667 Mg 0.56464 0.00644 0.80255 0.0
Mg668 Mg 0.62824 0.99584 0.75045 0.0
O669 O 0.67878 0.97972 0.75147 0.0
Mg670 Mg 0.70993 0.99524 0.79018 0.0
Mg671 Mg 0.6926 0.9905 0.69942 0.0
C672 C 0.613 0.01834 0.66452 0.0
C673 C 0.63642 0.92289 0.69849 0.0
O674 O 0.51225 0.0384 0.78821 0.0
O675 O 0.50143 0.03342 0.72665 0.0
O676 O 0.5298 0.95391 0.78625 0.0
O677 O 0.53105 0.94565 0.72491 0.0
O678 O 0.57897 0.01188 0.66721 0.0
O679 O 0.63565 0.01751 0.6923 0.0
C680 C 0.6281 0.06999 0.80087 0.0
O681 O 0.64305 0.05016 0.77645 0.0
O682 O 0.5985 0.05987 0.81573 0.0
O683 O 0.74771 0.9606 0.71612 0.0
O684 O 0.74426 0.95154 0.7778 0.0
O685 O 0.72088 0.04426 0.71357 0.0
C686 C 0.75949 0.94627 0.74681 0.0
O687 O 0.74628 0.03879 0.77011 0.0
O688 O 0.67345 0.98815 0.83851 0.0
C689 C 0.7459 0.05253 0.73751 0.0
O690 O 0.61968 0.97574 0.80962 0.0
O691 O 0.61685 0.93835 0.72314 0.0
O692 O 0.66453 0.9382 0.68595 0.0
C693 C 0.46494 0.25902 0.98724 0.0
C694 C 0.56969 0.24199 0.01833 0.0
C695 C 0.51892 0.16471 0.13418 0.0
Mg696 Mg 0.51616 0.29446 0.04602 0.0
O697 O 0.49163 0.2597 0.07307 0.0
Mg698 Mg 0.49446 0.20682 0.05741 0.0
Mg699 Mg 0.50699 0.25691 0.12509 0.0
O700 O 0.51982 0.25342 0.1772 0.0
Mg701 Mg 0.48505 0.21836 0.19302 0.0
Mg702 Mg 0.51447 0.30712 0.19507 0.0
C703 C 0.49354 0.34638 0.11282 0.0
C704 C 0.58237 0.30047 0.1421 0.0
O705 O 0.46535 0.22901 0.0057 0.0
O706 O 0.4832 0.28763 0.99675 0.0
O707 O 0.54614 0.21694 0.0237 0.0
O708 O 0.56823 0.27293 0.03482 0.0
O709 O 0.5063 0.34201 0.08044 0.0
O710 O 0.48862 0.31876 0.13465 0.0
C711 C 0.43044 0.21376 0.11721 0.0
O712 O 0.4503 0.23746 0.13419 0.0
O713 O 0.44094 0.19756 0.0879 0.0
O714 O 0.54362 0.29011 0.25433 0.0
O715 O 0.51635 0.24198 0.23354 0.0
O716 O 0.46098 0.29436 0.22324 0.0
C717 C 0.5356 0.25638 0.25855 0.0
O718 O 0.43819 0.23745 0.22246 0.0
O719 O 0.50349 0.16781 0.16554 0.0
C720 C 0.43742 0.27098 0.23336 0.0
O721 O 0.52402 0.19356 0.11418 0.0
O722 O 0.56601 0.27766 0.11984 0.0
O723 O 0.56699 0.31548 0.16939 0.0
C724 C 0.03109 0.28575 0.63875 0.0
C725 C 0.05651 0.31441 0.64243 0.0
C726 C 0.02523 0.26233 0.66871 0.0
C727 C 0.04477 0.26717 0.70262 0.0
H728 H 0.01277 0.28423 0.61465 0.0
H729 H 0.00206 0.24408 0.66698 0.0
S730 S 0.11904 0.3336 0.72286 0.0
N731 N 0.10551 0.34213 0.67975 0.0
N732 N 0.09399 0.2988 0.73587 0.0
C733 C 0.07374 0.29216 0.70428 0.0
C734 C 0.07963 0.31583 0.67415 0.0
C735 C 0.58585 0.76313 0.57991 0.0
C736 C 0.61715 0.74122 0.58009 0.0
C737 C 0.57114 0.777 0.54643 0.0
C738 C 0.58733 0.76925 0.51236 0.0
H739 H 0.57123 0.76728 0.60513 0.0
H740 H 0.54498 0.79053 0.54683 0.0
S741 S 0.6744 0.72156 0.49909 0.0
N742 N 0.66796 0.71925 0.54401 0.0
N743 N 0.63918 0.74423 0.48161 0.0
C744 C 0.62073 0.75127 0.51287 0.0
C745 C 0.63591 0.73743 0.54665 0.0
C746 C 0.96622 0.18103 0.69267 0.0
C747 C 0.9448 0.18924 0.66075 0.0
C748 C 0.95829 0.19522 0.7272 0.0
C749 C 0.93238 0.22287 0.73124 0.0
H750 H 0.98755 0.16063 0.69166 0.0
H751 H 0.97321 0.18436 0.75092 0.0
S752 S 0.86626 0.25278 0.65851 0.0
N753 N 0.89244 0.22317 0.63703 0.0
N754 N 0.883 0.25637 0.70139 0.0
C755 C 0.91137 0.2328 0.69974 0.0
C756 C 0.91683 0.21511 0.66461 0.0
C757 C 0.43518 0.773 0.6083 0.0
C758 C 0.40199 0.75428 0.61006 0.0
C759 C 0.45419 0.77311 0.57537 0.0
C760 C 0.44042 0.75422 0.54384 0.0
H761 H 0.44518 0.78947 0.63156 0.0
H762 H 0.47925 0.78864 0.57427 0.0
S763 S 0.35579 0.69953 0.53534 0.0
N764 N 0.35688 0.71536 0.57838 0.0
N765 N 0.3932 0.71489 0.5167 0.0
C766 C 0.40835 0.73388 0.54592 0.0
C767 C 0.38891 0.73406 0.57912 0.0
C768 C 0.04604 0.72698 0.86219 0.0
C769 C 0.06988 0.69694 0.86235 0.0
C770 C 0.04467 0.75133 0.8321 0.0
C771 C 0.06701 0.74603 0.80158 0.0
H772 H 0.02575 0.7293 0.8831 0.0
H773 H 0.02265 0.77095 0.83034 0.0
S774 S 0.13993 0.67699 0.79366 0.0
N775 N 0.12093 0.66761 0.83325 0.0
N776 N 0.11837 0.71333 0.77722 0.0
C777 C 0.09467 0.71972 0.80462 0.0
C778 C 0.09583 0.69483 0.83474 0.0
C779 C 0.89011 0.75914 0.42305 0.0
C780 C 0.90303 0.74799 0.38853 0.0
C781 C 0.91394 0.76544 0.45301 0.0
C782 C 0.95131 0.76138 0.44908 0.0
H783 H 0.86118 0.76052 0.42765 0.0
H784 H 0.90298 0.77121 0.47993 0.0
S785 S 0.99926 0.74119 0.36289 0.0
N786 N 0.95561 0.73914 0.35047 0.0
N787 N 1.00105 0.75173 0.40757 0.0
C788 C 0.96501 0.75446 0.41397 0.0
C789 C 0.94056 0.74778 0.38323 0.0
C790 C 0.93898 0.78501 0.83677 0.0
C791 C 0.93031 0.82244 0.8349 0.0
C792 C 0.93649 0.76266 0.80458 0.0
C793 C 0.9247 0.77713 0.76999 0.0
H794 H 0.95115 0.77393 0.86199 0.0
H795 H 0.94839 0.73557 0.80588 0.0
S796 S 0.89184 0.87085 0.75235 0.0
N797 N 0.90495 0.87114 0.79654 0.0
N798 N 0.89719 0.82836 0.73797 0.0
C799 C 0.91005 0.81244 0.76972 0.0
C800 C 0.91432 0.83556 0.80152 0.0
C801 C 0.0963 0.74667 0.42465 0.0
C802 C 0.1217 0.77547 0.42349 0.0
C803 C 0.08386 0.73392 0.45862 0.0
C804 C 0.09658 0.74934 0.49268 0.0
H805 H 0.0855 0.73426 0.39921 0.0
H806 H 0.0625 0.71342 0.45795 0.0
S807 S 0.16595 0.82252 0.50555 0.0
N808 N 0.16074 0.81744 0.46026 0.0
N809 N 0.13841 0.79219 0.52329 0.0
C810 C 0.12368 0.77633 0.49196 0.0
C811 C 0.13577 0.78988 0.45766 0.0
C812 C 0.67137 0.07399 0.30475 0.0
C813 C 0.66566 0.05014 0.33459 0.0
C814 C 0.704 0.07264 0.28485 0.0
C815 C 0.73233 0.04829 0.29505 0.0
H816 H 0.6513 0.09468 0.29776 0.0
H817 H 0.70765 0.09163 0.26241 0.0
S818 S 0.72817 0.97745 0.36839 0.0
N819 N 0.68875 0.99861 0.36983 0.0
N820 N 0.75056 0.99832 0.33588 0.0
C821 C 0.72597 0.02378 0.32418 0.0
C822 C 0.69255 0.02411 0.34296 0.0
C823 C 0.3229 0.07696 0.90766 0.0
C824 C 0.29396 0.09667 0.89143 0.0
C825 C 0.31603 0.04532 0.9279 0.0
C826 C 0.28026 0.03247 0.93096 0.0
H827 H 0.35072 0.08579 0.9043 0.0
H828 H 0.33867 0.03042 0.94037 0.0
S829 S 0.19567 0.07672 0.89479 0.0
N830 N 0.22891 0.10328 0.88118 0.0
N831 N 0.2157 0.04295 0.91763 0.0
C832 C 0.25127 0.05246 0.91487 0.0
C833 C 0.25825 0.08496 0.89547 0.0
C834 C 0.36297 0.46851 0.26669 0.0
C835 C 0.36513 0.44048 0.29298 0.0
C836 C 0.33293 0.47048 0.24181 0.0
C837 C 0.30415 0.44532 0.24403 0.0
H838 H 0.38237 0.4909 0.26796 0.0
H839 H 0.32953 0.49479 0.22524 0.0
S840 S 0.30266 0.36149 0.30044 0.0
N841 N 0.34044 0.3829 0.31414 0.0
N842 N 0.28441 0.38661 0.2669 0.0
C843 C 0.30974 0.41365 0.26507 0.0
C844 C 0.33989 0.41169 0.29053 0.0
C845 C 0.70867 0.4514 0.865 0.0
C846 C 0.7261 0.4185 0.87508 0.0
C847 C 0.72005 0.485 0.88027 0.0
C848 C 0.74961 0.48714 0.90589 0.0
H849 H 0.68513 0.45105 0.84611 0.0
H850 H 0.70405 0.50918 0.87396 0.0
S851 S 0.80798 0.40966 0.93691 0.0
N852 N 0.77696 0.39054 0.90875 0.0
N853 N 0.79845 0.45387 0.93782 0.0
C854 C 0.76904 0.45482 0.91403 0.0
C855 C 0.7571 0.42041 0.89877 0.0
C856 C 0.65463 0.94967 0.22273 0.0
C857 C 0.6551 0.93032 0.18885 0.0
C858 C 0.68533 0.94972 0.2473 0.0
C859 C 0.71687 0.93 0.23869 0.0
H860 H 0.63209 0.96764 0.22848 0.0
H861 H 0.68609 0.96894 0.27035 0.0
S862 S 0.72819 0.86837 0.15841 0.0
N863 N 0.68738 0.88635 0.15132 0.0
N864 N 0.7436 0.88501 0.19849 0.0
C865 C 0.71489 0.90595 0.20821 0.0
C866 C 0.68461 0.90696 0.18261 0.0
C867 C 0.17868 0.05847 0.10244 0.0
C868 C 0.20071 0.08757 0.09038 0.0
C869 C 0.17465 0.02587 0.0819 0.0
C870 C 0.19161 0.02154 0.04806 0.0
H871 H 0.16617 0.05991 0.12914 0.0
H872 H 0.16067 0.00296 0.09396 0.0
S873 S 0.24801 0.09095 0.00189 0.0
N874 N 0.23653 0.11113 0.0408 0.0
N875 N 0.22818 0.05029 0.00164 0.0
C876 C 0.21053 0.05177 0.03396 0.0
C877 C 0.21522 0.08475 0.05521 0.0
C878 C 0.29931 0.55935 0.15408 0.0
C879 C 0.33589 0.56304 0.16647 0.0
C880 C 0.27067 0.56058 0.17848 0.0
C881 C 0.27671 0.56513 0.217 0.0
H882 H 0.29234 0.55513 0.12496 0.0
H883 H 0.24342 0.55689 0.16672 0.0
S884 S 0.36704 0.57801 0.2645 0.0
N885 N 0.3765 0.57308 0.22031 0.0
N886 N 0.32235 0.5748 0.26648 0.0
C887 C 0.31305 0.56954 0.23009 0.0
C888 C 0.34259 0.56854 0.20489 0.0
C889 C 0.76171 0.40695 0.10659 0.0
C890 C 0.79492 0.38964 0.10005 0.0
C891 C 0.75071 0.43735 0.08598 0.0
C892 C 0.77315 0.45161 0.05897 0.0
H893 H 0.74477 0.39766 0.12859 0.0
H894 H 0.72536 0.45066 0.09236 0.0
S895 S 0.86171 0.41377 0.03036 0.0
N896 N 0.84908 0.38678 0.06406 0.0
N897 N 0.82914 0.44456 0.02523 0.0
C898 C 0.80605 0.43362 0.05159 0.0
C899 C 0.81687 0.40246 0.07233 0.0
C900 C 0.36578 0.69013 -0.00148 0.0
C901 C 0.34406 0.65809 -0.0012 0.0
C902 C 0.35353 0.72233 0.98157 0.0
C903 C 0.3185 0.7244 0.96503 0.0
H904 H 0.3914 0.69147 0.01419 0.0
H905 H 0.36947 0.74704 0.98612 0.0
S906 S 0.25978 0.64446 0.9413 0.0
N907 N 0.29225 0.62722 0.96874 0.0
N908 N 0.2687 0.68855 0.93752 0.0
C909 C 0.30008 0.69094 0.95824 0.0
C910 C 0.31279 0.65763 0.97532 0.0
C911 C 0.2822 0.36109 0.4532 0.0
C912 C 0.31095 0.35943 0.42855 0.0
C913 C 0.25842 0.33097 0.457 0.0
C914 C 0.26287 0.29851 0.43621 0.0
H915 H 0.28014 0.3843 0.47187 0.0
H916 H 0.23955 0.33144 0.47935 0.0
S917 S 0.33018 0.28344 0.36351 0.0
N918 N 0.33962 0.32484 0.38002 0.0
N919 N 0.29446 0.26933 0.38595 0.0
C920 C 0.28839 0.29894 0.408 0.0
C921 C 0.3129 0.32897 0.40478 0.0
C922 C 0.56466 0.39236 0.78556 0.0
C923 C 0.5893 0.38312 0.75827 0.0
C924 C 0.53032 0.4061 0.77639 0.0
C925 C 0.51873 0.41213 0.73926 0.0
H926 H 0.57144 0.38734 0.81454 0.0
H927 H 0.51285 0.41219 0.79916 0.0
S928 S 0.57404 0.39387 0.65696 0.0
N929 N 0.6006 0.38121 0.69242 0.0
N930 N 0.53606 0.40909 0.67478 0.0
C931 C 0.54375 0.40434 0.71146 0.0
C932 C 0.579 0.38953 0.72102 0.0
C933 C 0.70532 0.1447 0.50353 0.0
C934 C 0.66721 0.1464 0.50139 0.0
C935 C 0.72543 0.17248 0.52224 0.0
C936 C 0.70799 0.20297 0.53749 0.0
H937 H 0.71956 0.12397 0.48807 0.0
H938 H 0.75444 0.1728 0.52045 0.0
S939 S 0.60939 0.21218 0.55141 0.0
N940 N 0.6131 0.17466 0.52592 0.0
N941 N 0.65136 0.227 0.55961 0.0
C942 C 0.67042 0.20057 0.54205 0.0
C943 C 0.64982 0.17262 0.52339 0.0
C944 C 0.90311 0.58191 0.25183 0.0
C945 C 0.90045 0.60621 0.28182 0.0
C946 C 0.93448 0.56093 0.24788 0.0
C947 C 0.9637 0.56344 0.27409 0.0
H948 H 0.88164 0.58035 0.23056 0.0
H949 H 0.93598 0.54297 0.22393 0.0
S950 S 0.96806 0.62187 0.35883 0.0
N951 N 0.92803 0.63071 0.33897 0.0
N952 N 0.98702 0.59114 0.33184 0.0
C953 C 0.9605 0.58672 0.30499 0.0
C954 C 0.92879 0.6082 0.30876 0.0
C955 C 0.16315 0.31027 0.57366 0.0
C956 C 0.17702 0.3449 0.56446 0.0
C957 C 0.18523 0.27922 0.57585 0.0
C958 C 0.22248 0.28072 0.56819 0.0
H959 H 0.13439 0.30671 0.57817 0.0
H960 H 0.17217 0.25326 0.58119 0.0
S961 S 0.27449 0.36647 0.55298 0.0
N962 N 0.2319 0.38037 0.55537 0.0
N963 N 0.2737 0.32152 0.55823 0.0
C964 C 0.23769 0.31588 0.56294 0.0
C965 C 0.21493 0.348 0.56132 0.0
C966 C 0.60352 0.57195 0.69363 0.0
C967 C 0.60862 0.60337 0.71576 0.0
C968 C 0.57371 0.54903 0.69875 0.0
C969 C 0.54915 0.55681 0.72662 0.0
H970 H 0.62161 0.5661 0.67127 0.0
H971 H 0.56944 0.52556 0.6805 0.0
S972 S 0.552 0.6353 0.79232 0.0
N973 N 0.58757 0.64118 0.76633 0.0
N974 N 0.53235 0.59697 0.77729 0.0
C975 C 0.55503 0.58727 0.74993 0.0
C976 C 0.5847 0.61099 0.74409 0.0
C977 C 0.42807 0.89511 0.77165 0.0
C978 C 0.42466 0.86944 0.74245 0.0
C979 C 0.46099 0.91411 0.77876 0.0
C980 C 0.49139 0.90824 0.75668 0.0
H981 H 0.40523 0.90056 0.789 0.0
H982 H 0.46195 0.93497 0.80031 0.0
S983 S 0.4965 0.84352 0.67728 0.0
N984 N 0.4547 0.83891 0.69171 0.0
N985 N 0.51612 0.87413 0.70534 0.0
C986 C 0.48847 0.88184 0.72821 0.0
C987 C 0.45522 0.8627 0.72095 0.0
C988 C 0.5892 0.81467 0.17036 0.0
C989 C 0.56758 0.80909 0.13796 0.0
C990 C 0.58777 0.79037 0.19995 0.0
C991 C 0.56346 0.76055 0.19869 0.0
H992 H 0.60458 0.83987 0.17431 0.0
H993 H 0.6012 0.79834 0.226 0.0
S994 S 0.51411 0.72559 0.11445 0.0
N995 N 0.53108 0.76533 0.10165 0.0
N996 N 0.52678 0.72031 0.15848 0.0
C997 C 0.5471 0.75106 0.16415 0.0
C998 C 0.54926 0.77549 0.13345 0.0
C999 C 0.13977 0.24848 0.05102 0.0
C1000 C 0.11983 0.2443 0.08342 0.0
C1001 C 0.12423 0.26439 0.01919 0.0
C1002 C 0.08838 0.27715 0.0187 0.0
H1003 H 0.16709 0.2377 0.04955 0.0
H1004 H 0.13928 0.26393 0.99392 0.0
S1005 S 0.02735 0.27856 0.09864 0.0
N1006 N 0.06458 0.25846 0.11483 0.0
N1007 N 0.03505 0.28911 0.05516 0.0
C1008 C 0.06959 0.27678 0.05221 0.0
C1009 C 0.08542 0.26014 0.08458 0.0
C1010 C 0.40434 0.67188 0.19209 0.0
C1011 C 0.4188 0.68635 0.15953 0.0
C1012 C 0.40146 0.69317 0.22417 0.0
C1013 C 0.41415 0.72945 0.2253 0.0
H1014 H 0.39792 0.64299 0.19391 0.0
H1015 H 0.39485 0.6795 0.24962 0.0
S1016 S 0.4372 0.78463 0.14345 0.0
N1017 N 0.43214 0.74249 0.12684 0.0
N1018 N 0.42938 0.78231 0.18818 0.0
C1019 C 0.42123 0.74617 0.1912 0.0
C1020 C 0.42333 0.7245 0.15802 0.0
C1021 C 0.9187 0.2262 0.10133 0.0
C1022 C 0.91251 0.25935 0.11995 0.0
C1023 C 0.93647 0.22595 0.06764 0.0
C1024 C 0.94736 0.25896 0.05134 0.0
H1025 H 0.90744 0.20086 0.1114 0.0
H1026 H 0.93999 0.20001 0.05339 0.0
S1027 S 0.93925 0.35246 0.09162 0.0
N1028 N 0.92082 0.3252 0.122 0.0
N1029 N 0.9527 0.32533 0.05798 0.0
C1030 C 0.94234 0.29206 0.0707 0.0
C1031 C 0.92557 0.29203 0.10539 0.0
C1032 C 0.56073 0.22054 0.35581 0.0
C1033 C 0.54895 0.18389 0.3523 0.0
C1034 C 0.55725 0.24489 0.32557 0.0
C1035 C 0.54333 0.23236 0.29087 0.0
H1036 H 0.57366 0.22984 0.38153 0.0
H1037 H 0.56567 0.27317 0.32923 0.0
S1038 S 0.50888 0.1376 0.26854 0.0
N1039 N 0.52026 0.13716 0.31292 0.0
N1040 N 0.51933 0.17911 0.25536 0.0
C1041 C 0.53235 0.19501 0.28753 0.0
C1042 C 0.53348 0.17183 0.31844 0.0
C1043 C 0.38878 0.23336 0.92332 0.0
C1044 C 0.40305 0.24039 0.88839 0.0
C1045 C 0.40796 0.24272 0.95554 0.0
C1046 C 0.44179 0.25982 0.954 0.0
H1047 H 0.36337 0.21871 0.92608 0.0
H1048 H 0.39724 0.23446 0.98181 0.0
S1049 S 0.48621 0.29361 0.87035 0.0
N1050 N 0.44925 0.27217 0.8542 0.0
N1051 N 0.48588 0.29028 0.91598 0.0
C1052 C 0.45434 0.2715 0.91976 0.0
C1053 C 0.4347 0.26164 0.88649 0.0
C1054 C 0.41502 0.33798 0.30446 0.0
C1055 C 0.43045 0.32181 0.33648 0.0
C1056 C 0.40915 0.31806 0.27149 0.0
C1057 C 0.42046 0.28145 0.26851 0.0
H1058 H 0.40984 0.36707 0.30401 0.0
H1059 H 0.40074 0.33292 0.24681 0.0
S1060 S 0.45574 0.22434 0.34641 0.0
N1061 N 0.45074 0.26538 0.36525 0.0
N1062 N 0.44214 0.22798 0.30246 0.0
C1063 C 0.43187 0.26369 0.30155 0.0
C1064 C 0.43684 0.28398 0.33564 0.0
C1065 C 0.57801 0.2495 0.91513 0.0
C1066 C 0.61209 0.26648 0.91262 0.0
C1067 C 0.56586 0.23756 0.94954 0.0
C1068 C 0.58749 0.24209 0.98239 0.0
H1069 H 0.55987 0.2474 0.89094 0.0
H1070 H 0.53823 0.22746 0.95084 0.0
S1071 S 0.68167 0.27736 0.98945 0.0
N1072 N 0.66976 0.2811 0.94515 0.0
N1073 N 0.64597 0.25987 0.00943 0.0
C1074 C 0.62261 0.25602 0.97965 0.0
C1075 C 0.63517 0.26785 0.94484 0.0
C1076 C 0.1609 0.56043 0.79894 0.0
C1077 C 0.16607 0.5629 0.83789 0.0
C1078 C 0.19081 0.55817 0.77501 0.0
C1079 C 0.22729 0.55858 0.78888 0.0
H1080 H 0.13359 0.55906 0.78684 0.0
H1081 H 0.18522 0.55477 0.74554 0.0
S1082 S 0.25626 0.5659 0.88853 0.0
N1083 N 0.21156 0.56694 0.88862 0.0
N1084 N 0.26625 0.56304 0.84458 0.0
C1085 C 0.23263 0.56254 0.82764 0.0
C1086 C 0.20257 0.56454 0.85177 0.0
C1087 C 0.80822 0.5723 0.4037 0.0
C1088 C 0.79371 0.60729 0.41082 0.0
C1089 C 0.7999 0.54248 0.42557 0.0
C1090 C 0.77775 0.54677 0.45592 0.0
H1091 H 0.82437 0.56722 0.37966 0.0
H1092 H 0.80955 0.51556 0.41772 0.0
S1093 S 0.73973 0.63333 0.49181 0.0
N1094 N 0.76055 0.64533 0.45394 0.0
N1095 N 0.74604 0.58872 0.49604 0.0
C1096 C 0.7663 0.58195 0.46603 0.0
C1097 C 0.7742 0.61249 0.44328 0.0
C1098 C 0.85399 0.96128 0.77073 0.0
C1099 C 0.85549 0.93974 0.80274 0.0
C1100 C 0.82486 0.95721 0.74473 0.0
C1101 C 0.79661 0.9321 0.75089 0.0
H1102 H 0.87334 0.98334 0.76751 0.0
H1103 H 0.82164 0.97736 0.72307 0.0
S1104 S 0.79537 0.86141 0.82329 0.0
N1105 N 0.83142 0.88682 0.83433 0.0
N1106 N 0.77798 0.8785 0.78445 0.0
C1107 C 0.80221 0.90582 0.7785 0.0
C1108 C 0.83074 0.91062 0.80556 0.0
C1109 C 0.21807 0.95127 0.36754 0.0
C1110 C 0.23505 0.91804 0.3778 0.0
C1111 C 0.22853 0.98463 0.38387 0.0
C1112 C 0.25659 0.98644 0.41107 0.0
H1113 H 0.19548 0.95156 0.34748 0.0
H1114 H 0.21299 0.00893 0.37681 0.0
S1115 S 0.3122 0.9084 0.44577 0.0
N1116 N 0.28335 0.88963 0.41503 0.0
N1117 N 0.30284 0.95264 0.44625 0.0
C1118 C 0.27531 0.95392 0.42023 0.0
C1119 C 0.26443 0.91965 0.40368 0.0
C1120 C 0.15066 0.46213 0.72601 0.0
C1121 C 0.14739 0.43831 0.69522 0.0
C1122 C 0.18118 0.46017 0.75073 0.0
C1123 C 0.20916 0.43463 0.74498 0.0
H1124 H 0.13166 0.48451 0.7289 0.0
H1125 H 0.18519 0.48172 0.77123 0.0
S1126 S 0.20862 0.36109 0.67354 0.0
N1127 N 0.17149 0.38494 0.66396 0.0
N1128 N 0.2272 0.38016 0.7113 0.0
C1129 C 0.20272 0.40707 0.71804 0.0
C1130 C 0.17259 0.40967 0.6924 0.0
C1131 C 0.72923 0.55433 0.60887 0.0
C1132 C 0.71203 0.58527 0.59358 0.0
C1133 C 0.72214 0.51932 0.595 0.0
C1134 C 0.69831 0.51335 0.56417 0.0
H1135 H 0.7476 0.55705 0.63288 0.0
H1136 H 0.73626 0.49682 0.60847 0.0
S1137 S 0.64662 0.58571 0.51333 0.0
N1138 N 0.66958 0.60827 0.54647 0.0
N1139 N 0.65776 0.54213 0.51817 0.0
C1140 C 0.68136 0.54429 0.54789 0.0
C1141 C 0.68805 0.58028 0.5629 0.0
C1142 C 0.84483 0.05775 0.71126 0.0
C1143 C 0.84183 0.07361 0.67586 0.0
C1144 C 0.81434 0.05539 0.73406 0.0
C1145 C 0.77974 0.0683 0.72202 0.0
H1146 H 0.86996 0.04467 0.72022 0.0
H1147 H 0.81717 0.04019 0.75961 0.0
S1148 S 0.75971 0.11908 0.63488 0.0
N1149 N 0.80321 0.10876 0.63323 0.0
N1150 N 0.74625 0.10213 0.6743 0.0
C1151 C 0.77769 0.0875 0.68833 0.0
C1152 C 0.80858 0.0906 0.66573 0.0
C1153 C 0.26185 0.89623 0.58998 0.0
C1154 C 0.29442 0.89396 0.61132 0.0
C1155 C 0.25368 0.9276 0.5694 0.0
C1156 C 0.27802 0.95737 0.56932 0.0
H1157 H 0.24197 0.87428 0.59028 0.0
H1158 H 0.22813 0.92856 0.55361 0.0
S1159 S 0.36788 0.96359 0.61918 0.0
N1160 N 0.35185 0.92293 0.62981 0.0
N1161 N 0.3365 0.98204 0.59154 0.0
C1162 C 0.31116 0.95483 0.58974 0.0
C1163 C 0.31937 0.92304 0.61063 0.0
C1164 C 0.81226 0.16191 0.48334 0.0
C1165 C 0.83078 0.16556 0.5181 0.0
C1166 C 0.79895 0.19315 0.464 0.0
C1167 C 0.80643 0.2291 0.47727 0.0
H1168 H 0.80888 0.13507 0.47065 0.0
H1169 H 0.78385 0.18917 0.438 0.0
S1170 S 0.85997 0.25303 0.56313 0.0
N1171 N 0.85571 0.20813 0.56435 0.0
N1172 N 0.8391 0.26535 0.52442 0.0
C1173 C 0.82703 0.23259 0.51065 0.0
C1174 C 0.83667 0.20135 0.53203 0.0
C1175 C 0.81081 0.82798 0.91146 0.0
C1176 C 0.81225 0.85782 0.93629 0.0
C1177 C 0.78566 0.79944 0.91537 0.0
C1178 C 0.76216 0.79882 0.94535 0.0
H1179 H 0.8311 0.82529 0.89057 0.0
H1180 H 0.78799 0.77542 0.89773 0.0
S1181 S 0.75417 0.87231 0.01607 0.0
N1182 N 0.78631 0.88716 0.98931 0.0
N1183 N 0.74022 0.8326 -0.00179 0.0
C1184 C 0.76144 0.83012 0.96839 0.0
C1185 C 0.7865 0.85968 0.96374 0.0
C1186 C 0.05338 0.85936 0.25831 0.0
C1187 C 0.0868 0.8782 0.25635 0.0
C1188 C 0.02123 0.87365 0.24279 0.0
C1189 C 0.02095 0.90747 0.22474 0.0
H1190 H 0.05155 0.83391 0.27332 0.0
H1191 H 0.99587 0.85971 0.2479 0.0
S1192 S 0.10192 0.96422 0.20531 0.0
N1193 N 0.1185 0.92954 0.22959 0.0
N1194 N 0.05762 0.95706 0.20094 0.0
C1195 C 0.05462 0.92478 0.21903 0.0
C1196 C 0.08764 0.91004 0.23483 0.0
C1197 C 0.20701 0.63806 0.01614 0.0
C1198 C 0.16894 0.63967 0.01367 0.0
C1199 C 0.2271 0.66612 0.03469 0.0
C1200 C 0.20929 0.6956 0.05184 0.0
H1201 H 0.22108 0.61737 0.00061 0.0
H1202 H 0.25612 0.66757 0.03089 0.0
S1203 S 0.11069 0.70261 0.06662 0.0
N1204 N 0.11471 0.66648 0.03922 0.0
N1205 N 0.15252 0.71745 0.0756 0.0
C1206 C 0.17186 0.69213 0.05678 0.0
C1207 C 0.15145 0.6648 0.03679 0.0
C1208 C 0.40839 0.09799 0.73055 0.0
C1209 C 0.39589 0.10959 0.76479 0.0
C1210 C 0.43956 0.07642 0.72893 0.0
C1211 C 0.45906 0.0661 0.76156 0.0
H1212 H 0.39501 0.10699 0.70502 0.0
H1213 H 0.44893 0.06875 0.70183 0.0
S1214 S 0.43419 0.08821 0.8581 0.0
N1215 N 0.40286 0.10845 0.83174 0.0
N1216 N 0.46146 0.06751 0.82924 0.0
C1217 C 0.44551 0.07658 0.79606 0.0
C1218 C 0.41385 0.09849 0.79751 0.0
C1219 C 0.69821 0.83594 0.07092 0.0
C1220 C 0.66616 0.83793 0.0486 0.0
C1221 C 0.71824 0.80312 0.07462 0.0
C1222 C 0.70635 0.77053 0.0569 0.0
H1223 H 0.70885 0.86053 0.08405 0.0
H1224 H 0.74343 0.80341 0.09105 0.0
S1225 S 0.62241 0.75996 0.99683 0.0
N1226 N 0.62316 0.8036 0.00883 0.0
N1227 N 0.65861 0.74214 0.01772 0.0
C1228 C 0.67334 0.77183 0.03566 0.0
C1229 C 0.65387 0.80537 0.03092 0.0
C1230 C 0.06939 0.11702 0.21401 0.0
C1231 C 0.10533 0.10726 0.22372 0.0
C1232 C 0.04057 0.09529 0.22382 0.0
C1233 C 0.04651 0.06283 0.24346 0.0
H1234 H 0.0632 0.14109 0.19767 0.0
H1235 H 0.01342 0.10314 0.21439 0.0
S1236 S 0.1342 0.02884 0.28264 0.0
N1237 N 0.14488 0.06592 0.25942 0.0
N1238 N 0.0896 0.02447 0.27762 0.0
C1239 C 0.08167 0.05423 0.25654 0.0
C1240 C 0.11146 0.07653 0.2465 0.0
C1241 C 0.92543 0.40914 0.24619 0.0
C1242 C 0.92511 0.37068 0.24772 0.0
C1243 C 0.95743 0.42908 0.25396 0.0
C1244 C 0.99036 0.4115 0.26379 0.0
H1245 H 0.90118 0.42399 0.23758 0.0
H1246 H 0.95684 0.45856 0.25055 0.0
S1247 S 0.00389 0.31214 0.27632 0.0
N1248 N 0.96057 0.31605 0.2635 0.0
N1249 N 0.0205 0.35422 0.27744 0.0
C1250 C 0.99029 0.37349 0.26738 0.0
C1251 C 0.95771 0.35293 0.25955 0.0
C1252 C 0.17603 0.20217 0.87626 0.0
C1253 C 0.18974 0.20387 0.84032 0.0
C1254 C 0.13874 0.20719 0.88205 0.0
C1255 C 0.1147 0.21427 0.85196 0.0
H1256 H 0.19406 0.19602 0.89972 0.0
H1257 H 0.1286 0.20442 0.9097 0.0
S1258 S 0.13893 0.22553 0.75347 0.0
N1259 N 0.17765 0.21549 0.77529 0.0
N1260 N 0.10811 0.22614 0.78561 0.0
C1261 C 0.12885 0.21768 0.81626 0.0
C1262 C 0.16629 0.21206 0.81054 0.0
C1263 C 0.42974 0.58125 0.38009 0.0
C1264 C 0.45558 0.55309 0.3846 0.0
C1265 C 0.44052 0.61764 0.37372 0.0
C1266 C 0.47748 0.62724 0.37184 0.0
H1267 H 0.40104 0.57525 0.38205 0.0
H1268 H 0.41994 0.63883 0.37304 0.0
S1269 S 0.55568 0.56391 0.38091 0.0
N1270 N 0.51976 0.53731 0.38518 0.0
N1271 N 0.53968 0.60565 0.37432 0.0
C1272 C 0.50335 0.59917 0.37496 0.0
C1273 C 0.4925 0.56216 0.38105 0.0
C1274 C 0.83878 0.31548 0.82018 0.0
C1275 C 0.81047 0.30285 0.84198 0.0
C1276 C 0.87517 0.31371 0.83329 0.0
C1277 C 0.88401 0.30032 0.86889 0.0
H1278 H 0.83284 0.32614 0.79273 0.0
H1279 H 0.89648 0.323 0.81565 0.0
S1280 S 0.82054 0.26481 0.93718 0.0
N1281 N 0.79431 0.27685 0.90137 0.0
N1282 N 0.86243 0.27437 0.92551 0.0
C1283 C 0.85617 0.28827 0.89106 0.0
C1284 C 0.81943 0.28933 0.87771 0.0
C1285 C 0.53744 0.94399 0.35791 0.0
C1286 C 0.54844 0.95276 0.39447 0.0
C1287 C 0.52559 0.90874 0.348 0.0
C1288 C 0.52379 0.88037 0.37425 0.0
H1289 H 0.5384 0.96458 0.33651 0.0
H1290 H 0.5182 0.90381 0.31909 0.0
S1291 S 0.54753 0.89038 0.47477 0.0
N1292 N 0.55577 0.93128 0.45766 0.0
N1293 N 0.53308 0.86468 0.43929 0.0
C1294 C 0.53434 0.88906 0.41127 0.0
C1295 C 0.54681 0.92524 0.4213 0.0
C1296 C 0.17532 0.837 0.6644 0.0
C1297 C 0.19304 0.8044 0.6748 0.0
C1298 C 0.13974 0.83625 0.64918 0.0
C1299 C 0.12127 0.80288 0.64296 0.0
H1300 H 0.18884 0.86322 0.66822 0.0
H1301 H 0.12595 0.86195 0.64383 0.0
S1302 S 0.15491 0.71002 0.66591 0.0
N1303 N 0.18864 0.73777 0.67858 0.0
N1304 N 0.12275 0.73671 0.64831 0.0
C1305 C 0.13906 0.77013 0.65191 0.0
C1306 C 0.17461 0.77082 0.66847 0.0
C1307 C 0.01472 0.56446 0.61463 0.0
C1308 C 0.0496 0.55583 0.60181 0.0
C1309 C 0.00428 0.60077 0.6224 0.0
C1310 C 0.02779 0.63056 0.61705 0.0
H1311 H 0.99548 0.54283 0.62007 0.0
H1312 H 0.97785 0.60546 0.63385 0.0
S1313 S 0.12155 0.62436 0.5831 0.0
N1314 N 0.10739 0.58137 0.58336 0.0
N1315 N 0.08727 0.64934 0.59731 0.0
C1316 C 0.06205 0.62285 0.60269 0.0
C1317 C 0.07303 0.58569 0.59522 0.0
C1318 C 0.8423 0.72426 0.66506 0.0
C1319 C 0.8211 0.69569 0.64981 0.0
C1320 C 0.87793 0.72964 0.6539 0.0
C1321 C 0.89321 0.70706 0.62654 0.0
H1322 H 0.83107 0.74291 0.68517 0.0
H1323 H 0.89315 0.7524 0.66616 0.0
S1324 S 0.84743 0.62852 0.57816 0.0
N1325 N 0.81689 0.64448 0.60657 0.0
N1326 N 0.8838 0.65469 0.58493 0.0
C1327 C 0.87202 0.67813 0.61137 0.0
C1328 C 0.83592 0.67245 0.62318 0.0
C1329 C 0.98636 0.94896 0.59821 0.0
C1330 C 0.9494 0.95691 0.60317 0.0
C1331 C 1.00109 0.9144 0.60614 0.0
C1332 C 0.97984 0.88559 0.61965 0.0
H1333 H 0.00422 0.96969 0.5875 0.0
H1334 H 0.02924 0.90956 0.59967 0.0
S1335 S 0.88244 0.89286 0.64207 0.0
N1336 N 0.89247 0.93389 0.62615 0.0
N1337 N 0.92004 0.86829 0.64011 0.0
C1338 C 0.94314 0.89344 0.62646 0.0
C1339 C 0.92795 0.92906 0.6183 0.0
C1340 C 0.83143 0.15411 0.23345 0.0
C1341 C 0.82524 0.16994 0.19851 0.0
C1342 C 0.85071 0.12155 0.23707 0.0
C1343 C 0.86461 0.10378 0.20594 0.0
H1344 H 0.82258 0.16764 0.2584 0.0
H1345 H 0.85536 0.11054 0.2646 0.0
S1346 S 0.85124 0.13025 0.10787 0.0
N1347 N 0.83108 0.16285 0.13154 0.0
N1348 N 0.86777 0.10139 0.13903 0.0
C1349 C 0.85713 0.11795 0.17072 0.0
C1350 C 0.83705 0.15099 0.16681 0.0
C1351 C 0.41935 0.92059 0.08449 0.0
C1352 C 0.44284 0.89539 0.06828 0.0
C1353 C 0.38169 0.91512 0.0834 0.0
C1354 C 0.36492 0.8848 0.06474 0.0
H1355 H 0.42997 0.94549 0.09742 0.0
H1356 H 0.36535 0.93663 0.09525 0.0
S1357 S 0.41468 0.80546 0.0271 0.0
N1358 N 0.44717 0.83454 0.04045 0.0
N1359 N 0.37577 0.82562 0.03615 0.0
C1360 C 0.38816 0.85759 0.05142 0.0
C1361 C 0.42708 0.86272 0.0534 0.0
C1362 C 0.19941 0.34187 0.16457 0.0
C1363 C 0.17877 0.31394 0.17941 0.0
C1364 C 0.18863 0.37833 0.16809 0.0
C1365 C 0.15675 0.38842 0.18683 0.0
H1366 H 0.22478 0.33568 0.1515 0.0
H1367 H 0.20681 0.39878 0.15749 0.0
S1368 S 0.08916 0.32392 0.22292 0.0
N1369 N 0.12194 0.29744 0.20787 0.0
N1370 N 0.10208 0.36644 0.21514 0.0
C1371 C 0.13444 0.36032 0.19921 0.0
C1372 C 0.14538 0.323 0.19542 0.0
C1373 C 0.55985 0.62801 0.02181 0.0
C1374 C 0.55055 0.61602 0.05757 0.0
C1375 C 0.5963 0.62973 0.01067 0.0
C1376 C 0.62535 0.62025 0.03495 0.0
H1377 H 0.53866 0.63459 0.00141 0.0
H1378 H 0.60155 0.63625 0.98213 0.0
S1379 S 0.61728 0.59066 0.13246 0.0
N1380 N 0.57475 0.5972 0.11792 0.0
N1381 N 0.64265 0.60049 0.09702 0.0
C1382 C 0.61672 0.61016 0.07125 0.0
C1383 C 0.57966 0.60807 0.08256 0.0
C1384 C 0.85666 0.82835 0.32651 0.0
C1385 C 0.83714 0.81375 0.29546 0.0
C1386 C 0.87873 0.85906 0.32323 0.0
C1387 C 0.88126 0.87646 0.28905 0.0
H1388 H 0.85407 0.81684 0.35383 0.0
H1389 H 0.89001 0.87195 0.34826 0.0
S1390 S 0.84215 0.84526 0.19834 0.0
N1391 N 0.82674 0.81575 0.22847 0.0
N1392 N 0.86853 0.87388 0.22267 0.0
C1393 C 0.86614 0.85948 0.25713 0.0
C1394 C 0.84328 0.82841 0.26035 0.0
C1395 C 0.06278 0.85634 0.9482 0.0
C1396 C 0.05371 0.89308 0.94077 0.0
C1397 C 0.09905 0.84518 0.95413 0.0
C1398 C 0.12825 0.87027 0.95379 0.0
H1399 H 0.04161 0.83569 0.9488 0.0
H1400 H 0.1041 0.81654 0.95991 0.0
S1401 S 0.1193 0.97001 0.93539 0.0
N1402 N 0.07704 0.95463 0.93263 0.0
N1403 N 0.14499 0.93405 0.94496 0.0
C1404 C 0.11953 0.90725 0.94646 0.0
C1405 C 0.08246 0.9185 0.93958 0.0
C1406 C 0.15813 0.6614 0.34997 0.0
C1407 C 0.17388 0.68031 0.32062 0.0
C1408 C 0.1439 0.62565 0.3447 0.0
C1409 C 0.14499 0.60786 0.30994 0.0
H1410 H 0.15494 0.67502 0.37644 0.0
H1411 H 0.13153 0.61213 0.36771 0.0
S1412 S 0.18355 0.6461 0.22445 0.0
N1413 N 0.19097 0.67811 0.25634 0.0
N1414 N 0.16273 0.6127 0.24575 0.0
C1415 C 0.16142 0.6265 0.2808 0.0
C1416 C 0.17634 0.66217 0.28636 0.0
C1417 C 0.91797 0.60352 0.92733 0.0
C1418 C 0.948 0.60756 0.95259 0.0
C1419 C 0.88176 0.61059 0.93806 0.0
C1420 C 0.87396 0.62239 0.97437 0.0
H1421 H 0.9225 0.59608 0.89877 0.0
H1422 H 0.85991 0.60854 0.91725 0.0
S1423 S 0.94098 0.63259 0.05271 0.0
N1424 N 0.96561 0.62027 0.01739 0.0
N1425 N 0.89873 0.63455 0.03613 0.0
C1426 C 0.90325 0.62484 0.00014 0.0
C1427 C 0.93978 0.61714 0.98967 0.0
C1428 C 0.16607 0.81721 0.15661 0.0
C1429 C 0.18054 0.83009 0.19066 0.0
C1430 C 0.17711 0.83287 0.12343 0.0
C1431 C 0.20294 0.86157 0.12361 0.0
H1432 H 0.14929 0.79277 0.15538 0.0
H1433 H 0.1691 0.81935 0.09755 0.0
S1434 S 0.2411 0.9114 0.20526 0.0
N1435 N 0.21583 0.87866 0.22237 0.0
N1436 N 0.2368 0.90674 0.15983 0.0
C1437 C 0.21333 0.87793 0.15721 0.0
C1438 C 0.20216 0.86234 0.19091 0.0
C1439 C 0.23043 0.14588 0.32358 0.0
C1440 C 0.20067 0.16517 0.30783 0.0
C1441 C 0.22985 0.13294 0.35992 0.0
C1442 C 0.19957 0.13905 0.38173 0.0
H1443 H 0.25482 0.14158 0.30819 0.0
H1444 H 0.25439 0.12089 0.3719 0.0
S1445 S 0.11232 0.18189 0.35217 0.0
N1446 N 0.13812 0.18528 0.31589 0.0
N1447 N 0.13742 0.16067 0.38399 0.0
C1448 C 0.16851 0.1552 0.36541 0.0
C1449 C 0.16905 0.16861 0.32863 0.0
C1450 C 0.42173 0.52132 0.93332 0.0
C1451 C 0.41155 0.55698 0.94365 0.0
C1452 C 0.41366 0.50729 0.89782 0.0
C1453 C 0.39511 0.52817 0.87055 0.0
H1454 H 0.43653 0.50405 0.95285 0.0
H1455 H 0.42391 0.48034 0.89095 0.0
S1456 S 0.35774 0.62127 0.88462 0.0
N1457 N 0.37809 0.61155 0.92487 0.0
N1458 N 0.36396 0.58536 0.85731 0.0
C1459 C 0.383 0.5632 0.88086 0.0
C1460 C 0.39119 0.57763 0.91743 0.0
C1461 C 0.81657 0.3361 0.34682 0.0
C1462 C 0.7915 0.32178 0.32026 0.0
C1463 C 0.80455 0.35565 0.3776 0.0
C1464 C 0.76728 0.36195 0.38209 0.0
H1465 H 0.84551 0.33427 0.34254 0.0
H1466 H 0.82448 0.36675 0.39749 0.0
S1467 S 0.69104 0.32459 0.32381 0.0
N1468 N 0.72797 0.31117 0.3028 0.0
N1469 N 0.70548 0.34818 0.36076 0.0
C1470 C 0.74202 0.34582 0.35709 0.0
C1471 C 0.75417 0.32557 0.32612 0.0
C1472 C 0.09635 0.43685 0.42003 0.0
C1473 C 0.1052 0.4596 0.45089 0.0
C1474 C 0.10914 0.44452 0.38453 0.0
C1475 C 0.13178 0.47492 0.37843 0.0
H1476 H 0.08064 0.41207 0.4235 0.0
H1477 H 0.10251 0.42559 0.362 0.0
S1478 S 0.15751 0.54691 0.44758 0.0
N1479 N 0.13396 0.517 0.47109 0.0
N1480 N 0.1585 0.53045 0.40489 0.0
C1481 C 0.13903 0.49905 0.4083 0.0
C1482 C 0.1256 0.49166 0.44429 0.0
C1483 C 0.30667 0.19324 0.6474 0.0
C1484 C 0.29384 0.17326 0.67727 0.0
C1485 C 0.312 0.17614 0.6133 0.0
C1486 C 0.3059 0.13836 0.60856 0.0
H1487 H 0.31258 0.22223 0.65047 0.0
H1488 H 0.31999 0.19268 0.59016 0.0
S1489 S 0.274 0.07351 0.67862 0.0
N1490 N 0.27611 0.11351 0.70036 0.0
N1491 N 0.28702 0.08131 0.63608 0.0
C1492 C 0.29409 0.11785 0.63839 0.0
C1493 C 0.28769 0.13537 0.67283 0.0
C1494 C 0.41978 0.45307 0.57074 0.0
C1495 C 0.39458 0.45438 0.54038 0.0
C1496 C 0.40939 0.46142 0.60741 0.0
C1497 C 0.37323 0.47101 0.6155 0.0
H1498 H 0.44775 0.44567 0.56614 0.0
H1499 H 0.42987 0.45993 0.62959 0.0
S1500 S 0.29591 0.47432 0.54612 0.0
N1501 N 0.33133 0.4636 0.52153 0.0
N1502 N 0.31188 0.47885 0.58914 0.0
C1503 C 0.34779 0.47164 0.58519 0.0
C1504 C 0.3584 0.46346 0.54816 0.0
C1505 C 0.59675 0.07645 0.58463 0.0
C1506 C 0.60187 0.05123 0.55569 0.0
C1507 C 0.60728 0.0679 0.62097 0.0
C1508 C 0.62286 0.03379 0.62947 0.0
H1509 H 0.58272 0.10209 0.57963 0.0
H1510 H 0.59939 0.0863 0.64301 0.0
S1511 S 0.6512 0.96258 0.56331 0.0
N1512 N 0.63111 0.99407 0.53727 0.0
N1513 N 0.64916 0.97776 0.60641 0.0
C1514 C 0.63212 0.0103 0.60068 0.0
C1515 C 0.6218 0.01898 0.56349 0.0
C1516 C 0.66977 0.73179 0.34557 0.0
C1517 C 0.68571 0.69681 0.34388 0.0
C1518 C 0.6349 0.73649 0.35867 0.0
C1519 C 0.61466 0.70634 0.37004 0.0
H1520 H 0.6838 0.75564 0.33544 0.0
H1521 H 0.62245 0.76331 0.35645 0.0
S1522 S 0.64681 0.61084 0.37959 0.0
N1523 N 0.68111 0.63275 0.36136 0.0
N1524 N 0.61446 0.64164 0.38455 0.0
C1525 C 0.63123 0.67186 0.3716 0.0
C1526 C 0.66701 0.66702 0.35865 0.0
C1527 C 0.96977 0.06909 0.86261 0.0
C1528 C 0.95297 0.05556 0.89444 0.0
C1529 C 0.98055 0.10616 0.8601 0.0
C1530 C 0.97504 0.13075 0.88948 0.0
H1531 H 0.97494 0.0508 0.83961 0.0
H1532 H 0.99462 0.11513 0.83592 0.0
S1533 S 0.93121 0.10941 0.97824 0.0
N1534 N 0.93068 0.07014 0.95524 0.0
N1535 N 0.95009 0.13922 0.95067 0.0
C1536 C 0.95699 0.11768 0.92076 0.0
C1537 C 0.9462 0.08029 0.92325 0.0
C1538 C 0.34259 0.8195 0.31043 0.0
C1539 C 0.31387 0.80608 0.33114 0.0
C1540 C 0.37873 0.81711 0.32415 0.0
C1541 C 0.38674 0.80248 0.3594 0.0
H1542 H 0.33718 0.83092 0.28321 0.0
H1543 H 0.40048 0.82664 0.3072 0.0
S1544 S 0.32156 0.76512 0.42512 0.0
N1545 N 0.29616 0.77841 0.38917 0.0
N1546 N 0.36377 0.77493 0.41474 0.0
C1547 C 0.35834 0.78998 0.38067 0.0
C1548 C 0.32191 0.79158 0.3666 0.0
C1549 C 0.01267 0.45045 0.87149 0.0
C1550 C 0.04211 0.45685 0.89676 0.0
C1551 C 1.00025 0.41487 0.86298 0.0
C1552 C 0.01637 0.38382 0.87952 0.0
H1553 H 0.99953 0.47308 0.85725 0.0
H1554 H 0.97821 0.41171 0.84251 0.0
S1555 S 0.09242 0.38518 0.94992 0.0
N1556 N 0.08563 0.42878 0.94013 0.0
N1557 N 0.06234 0.36202 0.92398 0.0
C1558 C 0.04485 0.38975 0.90603 0.0
C1559 C 0.05772 0.42612 0.91459 0.0
C1560 C 0.67276 0.29269 0.19027 0.0
C1561 C 0.6956 0.31157 0.16694 0.0
C1562 C 0.63639 0.28726 0.1801 0.0
C1563 C 0.62177 0.30046 0.14625 0.0
H1564 H 0.68319 0.28174 0.21635 0.0
H1565 H 0.6192 0.27336 0.19937 0.0
S1566 S 0.67166 0.3478 0.07365 0.0
N1567 N 0.70258 0.34027 0.10702 0.0
N1568 N 0.63299 0.33116 0.08847 0.0
C1569 C 0.64448 0.31832 0.12203 0.0
C1570 C 0.68183 0.32368 0.13234 0.0
C1571 C 0.54417 0.0764 0.07933 0.0
C1572 C 0.55678 0.05249 0.10763 0.0
C1573 C 0.53295 0.11299 0.08732 0.0
C1574 C 0.53386 0.12723 0.12397 0.0
H1575 H 0.54192 0.06645 0.051 0.0
H1576 H 0.52244 0.12977 0.06483 0.0
S1577 S 0.57032 0.07771 0.20688 0.0
N1578 N 0.57291 0.04737 0.17292 0.0
N1579 N 0.55283 0.11494 0.18783 0.0
C1580 C 0.5482 0.10391 0.15191 0.0
C1581 C 0.55931 0.06702 0.14382 0.0
C1582 C 0.3451 0.16236 0.14277 0.0
C1583 C 0.32534 0.18962 0.16098 0.0
C1584 C 0.37927 0.17021 0.12854 0.0
C1585 C 0.39469 0.20541 0.13247 0.0
H1586 H 0.33313 0.13559 0.13748 0.0
H1587 H 0.39343 0.14879 0.11395 0.0
S1588 S 0.35408 0.28551 0.17977 0.0
N1589 N 0.32402 0.25229 0.18383 0.0
N1590 N 0.38784 0.26732 0.15701 0.0
C1591 C 0.37566 0.23235 0.15204 0.0
C1592 C 0.34109 0.22435 0.16639 0.0
C1593 C 0.47598 0.44747 0.13156 0.0
C1594 C 0.44865 0.45593 0.10431 0.0
C1595 C 0.48824 0.41118 0.13749 0.0
C1596 C 0.47344 0.38166 0.11671 0.0
H1597 H 0.4889 0.46928 0.14777 0.0
H1598 H 0.51084 0.40654 0.15688 0.0
S1599 S 0.4014 0.3881 0.04234 0.0
N1600 N 0.40706 0.4308 0.05693 0.0
N1601 N 0.42965 0.36326 0.06815 0.0
C1602 C 0.44515 0.38953 0.09054 0.0
C1603 C 0.43284 0.42634 0.08436 0.0
C1604 C 0.36794 0.66556 0.7065 0.0
C1605 C 0.33175 0.67032 0.69374 0.0
C1606 C 0.38545 0.63218 0.70191 0.0
C1607 C 0.36705 0.60262 0.6849 0.0
H1608 H 0.38288 0.68783 0.72008 0.0
H1609 H 0.4127 0.62881 0.71375 0.0
S1610 S 0.27264 0.60132 0.64611 0.0
N1611 N 0.27873 0.64364 0.66187 0.0
N1612 N 0.31129 0.57964 0.65503 0.0
C1613 C 0.33119 0.60712 0.67137 0.0
C1614 C 0.31358 0.64142 0.6753 0.0
C1615 C 0.92606 0.37743 0.57687 0.0
C1616 C 0.94487 0.40145 0.55367 0.0
C1617 C 0.88828 0.37097 0.57189 0.0
C1618 C 0.86797 0.38826 0.5434 0.0
H1619 H 0.9406 0.36405 0.59955 0.0
H1620 H 0.87468 0.35378 0.59142 0.0
S1621 S 0.90395 0.45439 0.476 0.0
N1622 N 0.94012 0.44246 0.50141 0.0
N1623 N 0.86956 0.43095 0.49218 0.0
C1624 C 0.88674 0.41171 0.51964 0.0
C1625 C 0.92504 0.4181 0.52465 0.0
C1626 C 0.65647 0.83446 0.65145 0.0
C1627 C 0.67287 0.815 0.68102 0.0
C1628 C 0.63923 0.86823 0.65764 0.0
C1629 C 0.6367 0.88304 0.69367 0.0
H1630 H 0.65722 0.82378 0.6234 0.0
H1631 H 0.62971 0.88396 0.63393 0.0
S1632 S 0.67423 0.84304 0.78063 0.0
N1633 N 0.68542 0.81374 0.74791 0.0
N1634 N 0.65088 0.87546 0.75912 0.0
C1635 C 0.65103 0.8629 0.7235 0.0
C1636 C 0.66993 0.82958 0.71727 0.0
C1637 C 0.06931 0.13411 0.5363 0.0
C1638 C 0.05899 0.11069 0.56549 0.0
C1639 C 0.10581 0.13805 0.52605 0.0
C1640 C 0.13379 0.11918 0.54487 0.0
H1641 H 0.04884 0.14862 0.51999 0.0
H1642 H 0.1117 0.15381 0.50169 0.0
S1643 S 0.12301 0.05777 0.62554 0.0
N1644 N 0.08111 0.07081 0.61463 0.0
N1645 N 0.14929 0.07864 0.59612 0.0
C1646 C 0.12426 0.09787 0.57572 0.0
C1647 C 0.08714 0.09346 0.58581 0.0
C1648 C 0.35057 0.33255 0.77336 0.0
C1649 C 0.34011 0.31939 0.80804 0.0
C1650 C 0.36887 0.36568 0.77045 0.0
C1651 C 0.37607 0.38746 0.80193 0.0
H1652 H 0.3436 0.31785 0.74788 0.0
H1653 H 0.37324 0.37624 0.74298 0.0
S1654 S 0.36314 0.36229 0.8996 0.0
N1655 N 0.34543 0.32772 0.87521 0.0
N1656 N 0.37826 0.39151 0.86901 0.0
C1657 C 0.3697 0.37314 0.83697 0.0
C1658 C 0.35162 0.33893 0.84018 0.0
C1659 C 0.57902 0.42122 0.45112 0.0
C1660 C 0.55216 0.39476 0.44189 0.0
C1661 C 0.616 0.41135 0.45607 0.0
C1662 C 0.62762 0.3749 0.45057 0.0
H1663 H 0.57133 0.44959 0.45499 0.0
H1664 H 0.63555 0.4324 0.4642 0.0
S1665 S 0.56752 0.29628 0.42323 0.0
N1666 N 0.53965 0.33134 0.42599 0.0
N1667 N 0.60836 0.31273 0.43378 0.0
C1668 C 0.60077 0.34863 0.44013 0.0
C1669 C 0.56333 0.35856 0.43618 0.0
C1670 C 0.65176 0.16105 0.84955 0.0
C1671 C 0.67337 0.17844 0.82346 0.0
C1672 C 0.63776 0.12548 0.84279 0.0
C1673 C 0.64498 0.1063 0.80978 0.0
H1674 H 0.64355 0.17589 0.874 0.0
H1675 H 0.62028 0.11345 0.86295 0.0
S1676 S 0.70086 0.14046 0.73344 0.0
N1677 N 0.70279 0.1735 0.76473 0.0
N1678 N 0.67587 0.10791 0.75115 0.0
C1679 C 0.66795 0.12312 0.78442 0.0
C1680 C 0.68237 0.15879 0.79156 0.0
C1681 C 0.43816 0.14219 0.44413 0.0
C1682 C 0.4489 0.10539 0.44127 0.0
C1683 C 0.40356 0.152 0.45628 0.0
C1684 C 0.37767 0.12554 0.46636 0.0
H1685 H 0.45716 0.16381 0.43786 0.0
H1686 H 0.39724 0.18091 0.45795 0.0
S1687 S 0.39273 0.02478 0.46409 0.0
N1688 N 0.43133 0.04207 0.44987 0.0
N1689 N 0.366 0.06015 0.47176 0.0
C1690 C 0.38792 0.08837 0.4628 0.0
C1691 C 0.42355 0.07842 0.45066 0.0
C1692 C 0.67465 0.32473 0.66002 0.0
C1693 C 0.6985 0.31991 0.69089 0.0
C1694 C 0.68654 0.34199 0.62778 0.0
C1695 C 0.72238 0.35537 0.62575 0.0
H1696 H 0.64742 0.3134 0.65998 0.0
H1697 H 0.66868 0.3419 0.60328 0.0
S1698 S 0.79403 0.35507 0.69994 0.0
N1699 N 0.75906 0.33432 0.71798 0.0
N1700 N 0.78001 0.36657 0.65781 0.0
C1701 C 0.74519 0.35385 0.6573 0.0
C1702 C 0.73369 0.33602 0.6897 0.0
C1703 C 0.67185 0.65854 0.82113 0.0
C1704 C 0.7036 0.67083 0.80435 0.0
C1705 C 0.67314 0.64427 0.85682 0.0
C1706 C 0.70626 0.64145 0.87671 0.0
H1707 H 0.6456 0.66063 0.80699 0.0
H1708 H 0.6479 0.63738 0.86975 0.0
S1709 S 0.79722 0.66916 0.84587 0.0
N1710 N 0.76931 0.6785 0.81042 0.0
N1711 N 0.7716 0.65129 0.87777 0.0
C1712 C 0.73845 0.65196 0.85992 0.0
C1713 C 0.73716 0.6669 0.82367 0.0
C1714 C 0.88135 0.04642 0.43033 0.0
C1715 C 0.9157 0.05578 0.44659 0.0
C1716 C 0.87791 0.02998 0.39495 0.0
C1717 C 0.90885 0.02159 0.37497 0.0
H1718 H 0.8569 0.0512 0.44553 0.0
H1719 H 0.85113 0.02259 0.38387 0.0
S1720 S 0.00493 0.04366 0.40455 0.0
N1721 N 0.98067 0.05781 0.43945 0.0
N1722 N 0.97525 0.02721 0.37332 0.0
C1723 C 0.94336 0.03253 0.39056 0.0
C1724 C 0.94655 0.04956 0.42625 0.0
C1725 C 0.3236 0.8382 0.84678 0.0
C1726 C 0.3055 0.80841 0.82937 0.0
C1727 C 0.30874 0.85599 0.8772 0.0
C1728 C 0.27555 0.84425 0.89091 0.0
H1729 H 0.34769 0.84974 0.83487 0.0
H1730 H 0.32257 0.87973 0.88923 0.0
S1731 S 0.22014 0.76493 0.85814 0.0
N1732 N 0.25447 0.76619 0.82984 0.0
N1733 N 0.22699 0.7991 0.88794 0.0
C1734 C 0.25862 0.81296 0.8756 0.0
C1735 C 0.27356 0.79507 0.8445 0.0
C1736 C 0.62135 0.9847 0.94282 0.0
C1737 C 0.59454 0.95752 0.94811 0.0
C1738 C 0.63511 0.99193 0.90775 0.0
C1739 C 0.62236 0.97285 0.87593 0.0
H1740 H 0.63302 -0.00018 0.9663 0.0
H1741 H 0.65633 0.01235 0.9057 0.0
S1742 S 0.55086 0.90067 0.87312 0.0
N1743 N 0.55474 0.91255 0.91735 0.0
N1744 N 0.57997 0.9267 0.85148 0.0
C1745 C 0.59425 0.94696 0.88022 0.0
C1746 C 0.58047 0.93922 0.91616 0.0
C1747 C 0.81068 0.67849 0.1537 0.0
C1748 C 0.79172 0.66038 0.18142 0.0
C1749 C 0.81249 0.66357 0.11801 0.0
C1750 C 0.79635 0.62964 0.10933 0.0
H1751 H 0.82433 0.70431 0.15968 0.0
H1752 H 0.82622 0.6788 0.09696 0.0
S1753 S 0.74189 0.5721 0.17058 0.0
N1754 N 0.75505 0.60728 0.19688 0.0
N1755 N 0.75916 0.57923 0.12966 0.0
C1756 C 0.77693 0.61145 0.13631 0.0
C1757 C 0.77438 0.62688 0.17245 0.0
C1758 C 0.87987 0.98507 0.05348 0.0
C1759 C 0.90322 0.9552 0.04615 0.0
C1760 C 0.86978 0.99455 0.08966 0.0
C1761 C 0.88297 0.97524 0.12082 0.0
H1762 H 0.86807 0.00087 0.03089 0.0
H1763 H 0.85104 0.01706 0.09314 0.0
S1764 S 0.94644 0.89621 0.11848 0.0
N1765 N 0.94028 0.90725 0.07443 0.0
N1766 N 0.92197 0.92551 0.14216 0.0
C1767 C 0.90753 0.94632 0.11437 0.0
C1768 C 0.91745 0.93624 0.0773 0.0
C1769 C 0.10352 0.57491 0.08517 0.0
C1770 C 0.09474 0.5481 0.05794 0.0
C1771 C 0.11644 0.56506 0.12058 0.0
C1772 C 0.12081 0.52813 0.13001 0.0
H1773 H 0.09937 0.60371 0.07961 0.0
H1774 H 0.11949 0.58624 0.14172 0.0
S1775 S 0.10642 0.44746 0.06845 0.0
N1776 N 0.09523 0.48284 0.04232 0.0
N1777 N 0.11916 0.46491 0.1092 0.0
C1778 C 0.11514 0.5013 0.10247 0.0
C1779 C 0.10186 0.51109 0.06646 0.0
loop_
_geom_bond_atom_site_label_1
_geom_bond_atom_site_label_2
_geom_bond_distance
_geom_bond_site_symmetry_2
_ccdc_geom_bond_type
Sc0 O3 2.025 . S
Sc0 O10 2.105 . S
Sc0 O13 2.105 . S
Sc0 O16 2.105 . S
Sc0 O19 2.105 . S
Sc1 O3 2.025 . S
Sc1 O11 2.105 . S
Sc1 O15 2.105 . S
Sc1 O17 2.105 . S
Sc1 O21 2.105 . S
Sc2 O3 2.025 . S
Sc2 O12 2.105 . S
Sc2 O14 2.105 . S
Sc2 O18 2.105 . S
Sc2 O20 2.105 . S
O3 Sc0 2.025 . S
O3 Sc1 2.025 . S
O3 Sc2 2.025 . S
C4 O10 1.268 . S
C4 O20 1.268 . S
C5 O11 1.268 . S
C5 O19 1.268 . S
C6 O12 1.268 . S
C6 O21 1.268 . S
C7 O13 1.268 . S
C7 O17 1.268 . S
C8 O14 1.268 . S
C8 O16 1.268 . S
C9 O15 1.268 . S
C9 O18 1.268 . S
O10 Sc0 2.105 . S
O10 C4 1.268 . S
O11 Sc1 2.105 . S
O11 C5 1.268 . S
O12 Sc2 2.105 . S
O12 C6 1.268 . S
O13 Sc0 2.105 . S
O13 C7 1.268 . S
O14 Sc2 2.105 . S
O14 C8 1.268 . S
O15 Sc1 2.105 . S
O15 C9 1.268 . S
O16 Sc0 2.105 . S
O16 C8 1.268 . S
O17 Sc1 2.105 . S
O17 C7 1.268 . S
O18 Sc2 2.105 . S
O18 C9 1.268 . S
O19 Sc0 2.105 . S
O19 C5 1.268 . S
O20 Sc2 2.105 . S
O20 C4 1.268 . S
O21 Sc1 2.105 . S
O21 C6 1.268 . S
Sc22 O25 2.025 . S
Sc22 O32 2.105 . S
Sc22 O35 2.105 . S
Sc22 O38 2.105 . S
Sc22 O41 2.105 1_554 S
Sc23 O25 2.025 . S
Sc23 O33 2.105 1_554 S
Sc23 O37 2.105 . S
Sc23 O39 2.105 . S
Sc23 O43 2.105 . S
Sc24 O25 2.025 . S
Sc24 O34 2.105 . S
Sc24 O36 2.105 . S
Sc24 O40 2.105 . S
Sc24 O42 2.105 . S
O25 Sc22 2.025 . S
O25 Sc23 2.025 . S
O25 Sc24 2.025 . S
C26 O32 1.268 . S
C26 O42 1.268 . S
C27 O33 1.268 . S
C27 O41 1.268 . S
C28 O34 1.268 . S
C28 O43 1.268 . S
C29 O35 1.268 . S
C29 O39 1.268 . S
C30 O36 1.268 . S
C30 O38 1.268 . S
C31 O37 1.268 . S
C31 O40 1.268 . S
O32 Sc22 2.105 . S
O32 C26 1.268 . S
O33 Sc23 2.105 1_556 S
O33 C27 1.268 . S
O34 Sc24 2.105 . S
O34 C28 1.268 . S
O35 Sc22 2.105 . S
O35 C29 1.268 . S
O36 Sc24 2.105 . S
O36 C30 1.268 . S
O37 Sc23 2.105 . S
O37 C31 1.268 . S
O38 Sc22 2.105 . S
O38 C30 1.268 . S
O39 Sc23 2.105 . S
O39 C29 1.268 . S
O40 Sc24 2.105 . S
O40 C31 1.268 . S
O41 Sc22 2.105 1_556 S
O41 C27 1.268 . S
O42 Sc24 2.105 . S
O42 C26 1.268 . S
O43 Sc23 2.105 . S
O43 C28 1.268 . S
Sc44 O47 2.025 . S
Sc44 O54 2.105 . S
Sc44 O57 2.105 . S
Sc44 O60 2.105 . S
Sc44 O63 2.105 . S
Sc45 O47 2.025 . S
Sc45 O55 2.105 . S
Sc45 O59 2.105 . S
Sc45 O61 2.105 . S
Sc45 O65 2.105 . S
Sc46 O47 2.025 . S
Sc46 O56 2.105 . S
Sc46 O58 2.105 . S
Sc46 O62 2.105 . S
Sc46 O64 2.105 . S
O47 Sc44 2.025 . S
O47 Sc45 2.025 . S
O47 Sc46 2.025 . S
C48 O54 1.268 . S
C48 O64 1.268 . S
C49 O55 1.268 . S
C49 O63 1.268 . S
C50 O56 1.268 . S
C50 O65 1.268 . S
C51 O57 1.268 . S
C51 O61 1.268 . S
C52 O58 1.268 . S
C52 O60 1.268 . S
C53 O59 1.268 . S
C53 O62 1.268 . S
O54 Sc44 2.105 . S
O54 C48 1.268 . S
O55 Sc45 2.105 . S
O55 C49 1.268 . S
O56 Sc46 2.105 . S
O56 C50 1.268 . S
O57 Sc44 2.105 . S
O57 C51 1.268 . S
O58 Sc46 2.105 . S
O58 C52 1.268 . S
O59 Sc45 2.105 . S
O59 C53 1.268 . S
O60 Sc44 2.105 . S
O60 C52 1.268 . S
O61 Sc45 2.105 . S
O61 C51 1.268 . S
O62 Sc46 2.105 . S
O62 C53 1.268 . S
O63 Sc44 2.105 . S
O63 C49 1.268 . S
O64 Sc46 2.105 . S
O64 C48 1.268 . S
O65 Sc45 2.105 . S
O65 C50 1.268 . S
Sc66 O69 2.025 . S
Sc66 O76 2.105 . S
Sc66 O79 2.126 . S
Sc66 O82 2.105 . S
Sc66 O85 2.105 . S
Sc67 O69 2.025 . S
Sc67 O77 2.105 . S
Sc67 O81 2.105 . S
Sc67 O83 2.105 1_554 S
Sc67 O87 2.105 . S
Sc68 O69 2.025 . S
Sc68 O78 2.105 . S
Sc68 O80 2.105 . S
Sc68 O84 2.105 . S
Sc68 O86 2.105 . S
O69 Sc66 2.025 . S
O69 Sc67 2.025 . S
O69 Sc68 2.025 . S
C70 O76 1.268 . S
C70 O86 1.268 . S
C71 O77 1.268 . S
C71 O85 1.268 . S
C72 O78 1.268 . S
C72 O87 1.268 . S
C73 O79 1.259 1_556 S
C73 O83 1.268 . S
C74 O80 1.268 1_545 S
C74 O82 1.268 1_545 S
C75 O81 1.268 . S
C75 O84 1.268 . S
O76 Sc66 2.105 . S
O76 C70 1.268 . S
O77 Sc67 2.105 . S
O77 C71 1.268 . S
O78 Sc68 2.105 . S
O78 C72 1.268 . S
O79 Sc66 2.126 . S
O79 C73 1.259 1_554 S
O80 Sc68 2.105 . S
O80 C74 1.268 1_565 S
O81 Sc67 2.105 . S
O81 C75 1.268 . S
O82 Sc66 2.105 . S
O82 C74 1.268 1_565 S
O83 Sc67 2.105 1_556 S
O83 C73 1.268 . S
O84 Sc68 2.105 . S
O84 C75 1.268 . S
O85 Sc66 2.105 . S
O85 C71 1.268 . S
O86 Sc68 2.105 . S
O86 C70 1.268 . S
O87 Sc67 2.105 . S
O87 C72 1.268 . S
Sc88 O91 2.025 . S
Sc88 O98 2.105 . S
Sc88 O101 2.105 . S
Sc88 O104 2.105 . S
Sc88 O107 2.105 . S
Sc89 O91 2.025 . S
Sc89 O99 2.105 . S
Sc89 O103 2.105 . S
Sc89 O105 2.105 . S
Sc89 O109 2.105 . S
Sc90 O91 2.025 . S
Sc90 O100 2.105 . S
Sc90 O102 2.105 . S
Sc90 O106 2.105 . S
Sc90 O108 2.105 . S
O91 Sc88 2.025 . S
O91 Sc89 2.025 . S
O91 Sc90 2.025 . S
C92 O98 1.268 . S
C92 O108 1.268 . S
C93 O99 1.268 . S
C93 O107 1.268 . S
C94 O100 1.268 . S
C94 O109 1.268 . S
C95 O101 1.268 . S
C95 O105 1.268 . S
C96 O102 1.268 . S
C96 O104 1.268 . S
C97 O103 1.268 . S
C97 O106 1.268 . S
O98 Sc88 2.105 . S
O98 C92 1.268 . S
O99 Sc89 2.105 . S
O99 C93 1.268 . S
O100 Sc90 2.105 . S
O100 C94 1.268 . S
O101 Sc88 2.105 . S
O101 C95 1.268 . S
O102 Sc90 2.105 . S
O102 C96 1.268 . S
O103 Sc89 2.105 . S
O103 C97 1.268 . S
O104 Sc88 2.105 . S
O104 C96 1.268 . S
O105 Sc89 2.105 . S
O105 C95 1.268 . S
O106 Sc90 2.105 . S
O106 C97 1.268 . S
O107 Sc88 2.105 . S
O107 C93 1.268 . S
O108 Sc90 2.105 . S
O108 C92 1.268 . S
O109 Sc89 2.105 . S
O109 C94 1.268 . S
Sc110 O113 2.025 . S
Sc110 O120 2.105 . S
Sc110 O123 2.105 . S
Sc110 O126 2.105 1_556 S
Sc110 O129 2.105 . S
Sc111 O113 2.025 . S
Sc111 O121 2.105 . S
Sc111 O125 2.105 . S
Sc111 O127 2.105 . S
Sc111 O131 2.105 . S
Sc112 O113 2.025 . S
Sc112 O122 2.105 . S
Sc112 O124 2.105 1_556 S
Sc112 O128 2.105 . S
Sc112 O130 2.105 . S
O113 Sc110 2.025 . S
O113 Sc111 2.025 . S
O113 Sc112 2.025 . S
C114 O120 1.268 . S
C114 O130 1.268 . S
C115 O121 1.268 . S
C115 O129 1.268 . S
C116 O122 1.268 . S
C116 O131 1.268 . S
C117 O123 1.268 1_655 S
C117 O127 1.268 1_655 S
C118 O124 1.268 . S
C118 O126 1.268 . S
C119 O125 1.268 . S
C119 O128 1.268 . S
O120 Sc110 2.105 . S
O120 C114 1.268 . S
O121 Sc111 2.105 . S
O121 C115 1.268 . S
O122 Sc112 2.105 . S
O122 C116 1.268 . S
O123 Sc110 2.105 . S
O123 C117 1.268 1_455 S
O124 Sc112 2.105 1_554 S
O124 C118 1.268 . S
O125 Sc111 2.105 . S
O125 C119 1.268 . S
O126 Sc110 2.105 1_554 S
O126 C118 1.268 . S
O127 Sc111 2.105 . S
O127 C117 1.268 1_455 S
O128 Sc112 2.105 . S
O128 C119 1.268 . S
O129 Sc110 2.105 . S
O129 C115 1.268 . S
O130 Sc112 2.105 . S
O130 C114 1.268 . S
O131 Sc111 2.105 . S
O131 C116 1.268 . S
Sc132 O135 2.025 . S
Sc132 O142 2.105 . S
Sc132 O145 2.105 . S
Sc132 O148 2.105 . S
Sc132 O151 2.105 . S
Sc133 O135 2.025 . S
Sc133 O143 2.105 . S
Sc133 O147 2.105 . S
Sc133 O149 2.105 . S
Sc133 O153 2.105 . S
Sc134 O135 2.025 . S
Sc134 O144 2.105 . S
Sc134 O146 2.105 . S
Sc134 O150 2.105 . S
Sc134 O152 2.105 . S
O135 Sc132 2.025 . S
O135 Sc133 2.025 . S
O135 Sc134 2.025 . S
C136 O142 1.268 . S
C136 O152 1.268 . S
C137 O143 1.268 . S
C137 O151 1.268 . S
C138 O144 1.268 . S
C138 O153 1.268 . S
C139 O145 1.268 . S
C139 O149 1.268 . S
C140 O146 1.268 . S
C140 O148 1.268 . S
C141 O147 1.268 . S
C141 O150 1.268 . S
O142 Sc132 2.105 . S
O142 C136 1.268 . S
O143 Sc133 2.105 . S
O143 C137 1.268 . S
O144 Sc134 2.105 . S
O144 C138 1.268 . S
O145 Sc132 2.105 . S
O145 C139 1.268 . S
O146 Sc134 2.105 . S
O146 C140 1.268 . S
O147 Sc133 2.105 . S
O147 C141 1.268 . S
O148 Sc132 2.105 . S
O148 C140 1.268 . S
O149 Sc133 2.105 . S
O149 C139 1.268 . S
O150 Sc134 2.105 . S
O150 C141 1.268 . S
O151 Sc132 2.105 . S
O151 C137 1.268 . S
O152 Sc134 2.105 . S
O152 C136 1.268 . S
O153 Sc133 2.105 . S
O153 C138 1.268 . S
Sc154 O157 2.025 . S
Sc154 O164 2.105 . S
Sc154 O167 2.105 . S
Sc154 O170 2.105 . S
Sc154 O173 2.105 . S
Sc155 O157 2.025 . S
Sc155 O165 2.105 . S
Sc155 O169 2.105 . S
Sc155 O171 2.105 . S
Sc155 O175 2.105 . S
Sc156 O157 2.025 . S
Sc156 O166 2.105 . S
Sc156 O168 2.105 . S
Sc156 O172 2.105 . S
Sc156 O174 2.105 . S
O157 Sc154 2.025 . S
O157 Sc155 2.025 . S
O157 Sc156 2.025 . S
C158 O164 1.268 . S
C158 O174 1.268 . S
C159 O165 1.268 . S
C159 O173 1.268 . S
C160 O166 1.268 . S
C160 O175 1.268 . S
C161 O167 1.268 1_545 S
C161 O171 1.268 1_545 S
C162 O168 1.268 1_455 S
C162 O170 1.268 1_455 S
C163 O169 1.268 1_554 S
C163 O172 1.268 1_554 S
O164 Sc154 2.105 . S
O164 C158 1.268 . S
O165 Sc155 2.105 . S
O165 C159 1.268 . S
O166 Sc156 2.105 . S
O166 C160 1.268 . S
O167 Sc154 2.105 . S
O167 C161 1.268 1_565 S
O168 Sc156 2.105 . S
O168 C162 1.268 1_655 S
O169 Sc155 2.105 . S
O169 C163 1.268 1_556 S
O170 Sc154 2.105 . S
O170 C162 1.268 1_655 S
O171 Sc155 2.105 . S
O171 C161 1.268 1_565 S
O172 Sc156 2.105 . S
O172 C163 1.268 1_556 S
O173 Sc154 2.105 . S
O173 C159 1.268 . S
O174 Sc156 2.105 . S
O174 C158 1.268 . S
O175 Sc155 2.105 . S
O175 C160 1.268 . S
Sc176 O179 2.025 . S
Sc176 O186 2.105 . S
Sc176 O189 2.105 . S
Sc176 O192 2.105 . S
Sc176 O195 2.105 . S
Sc177 O179 2.025 . S
Sc177 O187 2.105 . S
Sc177 O191 2.105 . S
Sc177 O193 2.105 . S
Sc177 O197 2.105 . S
Sc178 O179 2.025 . S
Sc178 O188 2.105 . S
Sc178 O190 2.105 . S
Sc178 O194 2.105 . S
Sc178 O196 2.105 . S
O179 Sc176 2.025 . S
O179 Sc177 2.025 . S
O179 Sc178 2.025 . S
C180 O186 1.268 . S
C180 O196 1.268 . S
C181 O187 1.268 . S
C181 O195 1.268 . S
C182 O188 1.268 . S
C182 O197 1.268 . S
C183 O189 1.268 . S
C183 O193 1.268 . S
C184 O190 1.268 . S
C184 O192 1.268 . S
C185 O191 1.268 . S
C185 O194 1.268 . S
O186 Sc176 2.105 . S
O186 C180 1.268 . S
O187 Sc177 2.105 . S
O187 C181 1.268 . S
O188 Sc178 2.105 . S
O188 C182 1.268 . S
O189 Sc176 2.105 . S
O189 C183 1.268 . S
O190 Sc178 2.105 . S
O190 C184 1.268 . S
O191 Sc177 2.105 . S
O191 C185 1.268 . S
O192 Sc176 2.105 . S
O192 C184 1.268 . S
O193 Sc177 2.105 . S
O193 C183 1.268 . S
O194 Sc178 2.105 . S
O194 C185 1.268 . S
O195 Sc176 2.105 . S
O195 C181 1.268 . S
O196 Sc178 2.105 . S
O196 C180 1.268 . S
O197 Sc177 2.105 . S
O197 C182 1.268 . S
Sc198 O201 2.025 . S
Sc198 O208 2.105 . S
Sc198 O211 2.105 . S
Sc198 O214 2.105 . S
Sc198 O217 2.105 . S
Sc199 O201 2.025 . S
Sc199 O209 2.105 . S
Sc199 O213 2.105 . S
Sc199 O215 2.105 . S
Sc199 O219 2.105 . S
Sc200 O201 2.025 . S
Sc200 O210 2.105 . S
Sc200 O212 2.105 . S
Sc200 O216 2.105 . S
Sc200 O218 2.105 . S
O201 Sc198 2.025 . S
O201 Sc199 2.025 . S
O201 Sc200 2.025 . S
C202 O208 1.268 . S
C202 O218 1.268 . S
C203 O209 1.268 . S
C203 O217 1.268 . S
C204 O210 1.268 . S
C204 O219 1.268 . S
C205 O211 1.268 . S
C205 O215 1.268 . S
C206 O212 1.268 . S
C206 O214 1.268 . S
C207 O213 1.268 . S
C207 O216 1.268 . S
O208 Sc198 2.105 . S
O208 C202 1.268 . S
O209 Sc199 2.105 . S
O209 C203 1.268 . S
O210 Sc200 2.105 . S
O210 C204 1.268 . S
O211 Sc198 2.105 . S
O211 C205 1.268 . S
O212 Sc200 2.105 . S
O212 C206 1.268 . S
O213 Sc199 2.105 . S
O213 C207 1.268 . S
O214 Sc198 2.105 . S
O214 C206 1.268 . S
O215 Sc199 2.105 . S
O215 C205 1.268 . S
O216 Sc200 2.105 . S
O216 C207 1.268 . S
O217 Sc198 2.105 . S
O217 C203 1.268 . S
O218 Sc200 2.105 . S
O218 C202 1.268 . S
O219 Sc199 2.105 . S
O219 C204 1.268 . S
Sc220 O223 2.025 . S
Sc220 O230 2.105 . S
Sc220 O233 2.105 . S
Sc220 O236 2.105 . S
Sc220 O239 2.105 . S
Sc221 O223 2.025 . S
Sc221 O231 2.105 . S
Sc221 O235 2.105 . S
Sc221 O237 2.105 . S
Sc221 O241 2.105 . S
Sc222 O223 2.025 . S
Sc222 O232 2.105 . S
Sc222 O234 2.105 . S
Sc222 O238 2.105 . S
Sc222 O240 2.105 . S
O223 Sc220 2.025 . S
O223 Sc221 2.025 . S
O223 Sc222 2.025 . S
C224 O230 1.268 . S
C224 O240 1.268 . S
C225 O231 1.268 . S
C225 O239 1.268 . S
C226 O232 1.268 . S
C226 O241 1.268 . S
C227 O233 1.268 . S
C227 O237 1.268 . S
C228 O234 1.268 . S
C228 O236 1.268 . S
C229 O235 1.268 1_655 S
C229 O238 1.268 1_655 S
O230 Sc220 2.105 . S
O230 C224 1.268 . S
O231 Sc221 2.105 . S
O231 C225 1.268 . S
O232 Sc222 2.105 . S
O232 C226 1.268 . S
O233 Sc220 2.105 . S
O233 C227 1.268 . S
O234 Sc222 2.105 . S
O234 C228 1.268 . S
O235 Sc221 2.105 . S
O235 C229 1.268 1_455 S
O236 Sc220 2.105 . S
O236 C228 1.268 . S
O237 Sc221 2.105 . S
O237 C227 1.268 . S
O238 Sc222 2.105 . S
O238 C229 1.268 1_455 S
O239 Sc220 2.105 . S
O239 C225 1.268 . S
O240 Sc222 2.105 . S
O240 C224 1.268 . S
O241 Sc221 2.105 . S
O241 C226 1.268 . S
Sc242 O245 2.025 . S
Sc242 O252 2.105 . S
Sc242 O255 2.105 . S
Sc242 O258 2.105 . S
Sc242 O261 2.105 . S
Sc243 O245 2.025 . S
Sc243 O253 2.105 . S
Sc243 O257 2.105 . S
Sc243 O259 2.105 . S
Sc243 O263 2.105 . S
Sc244 O245 2.025 . S
Sc244 O254 2.105 . S
Sc244 O256 2.105 . S
Sc244 O260 2.105 . S
Sc244 O262 2.105 . S
O245 Sc242 2.025 . S
O245 Sc243 2.025 . S
O245 Sc244 2.025 . S
C246 O252 1.268 1_455 S
C246 O262 1.268 1_455 S
C247 O253 1.268 . S
C247 O261 1.268 . S
C248 O254 1.268 1_565 S
C248 O263 1.268 1_565 S
C249 O255 1.268 . S
C249 O259 1.268 . S
C250 O256 1.268 . S
C250 O258 1.268 . S
C251 O257 1.268 . S
C251 O260 1.268 . S
O252 Sc242 2.105 . S
O252 C246 1.268 1_655 S
O253 Sc243 2.105 . S
O253 C247 1.268 . S
O254 Sc244 2.105 . S
O254 C248 1.268 1_545 S
O255 Sc242 2.105 . S
O255 C249 1.268 . S
O256 Sc244 2.105 . S
O256 C250 1.268 . S
O257 Sc243 2.105 . S
O257 C251 1.268 . S
O258 Sc242 2.105 . S
O258 C250 1.268 . S
O259 Sc243 2.105 . S
O259 C249 1.268 . S
O260 Sc244 2.105 . S
O260 C251 1.268 . S
O261 Sc242 2.105 . S
O261 C247 1.268 . S
O262 Sc244 2.105 . S
O262 C246 1.268 1_655 S
O263 Sc243 2.105 . S
O263 C248 1.268 1_545 S
Sc264 O267 2.025 . S
Sc264 O274 2.105 . S
Sc264 O277 2.105 . S
Sc264 O280 2.105 . S
Sc264 O283 2.105 . S
Sc265 O267 2.025 . S
Sc265 O275 2.105 . S
Sc265 O279 2.105 . S
Sc265 O281 2.105 . S
Sc265 O285 2.105 . S
Sc266 O267 2.025 . S
Sc266 O276 2.105 . S
Sc266 O278 2.105 . S
Sc266 O282 2.105 . S
Sc266 O284 2.105 . S
O267 Sc264 2.025 . S
O267 Sc265 2.025 . S
O267 Sc266 2.025 . S
C268 O274 1.268 . S
C268 O284 1.268 . S
C269 O275 1.268 . S
C269 O283 1.268 . S
C270 O276 1.268 . S
C270 O285 1.268 . S
C271 O277 1.268 . S
C271 O281 1.268 . S
C272 O278 1.268 . S
C272 O280 1.268 . S
C273 O279 1.268 . S
C273 O282 1.268 . S
O274 Sc264 2.105 . S
O274 C268 1.268 . S
O275 Sc265 2.105 . S
O275 C269 1.268 . S
O276 Sc266 2.105 . S
O276 C270 1.268 . S
O277 Sc264 2.105 . S
O277 C271 1.268 . S
O278 Sc266 2.105 . S
O278 C272 1.268 . S
O279 Sc265 2.105 . S
O279 C273 1.268 . S
O280 Sc264 2.105 . S
O280 C272 1.268 . S
O281 Sc265 2.105 . S
O281 C271 1.268 . S
O282 Sc266 2.105 . S
O282 C273 1.268 . S
O283 Sc264 2.105 . S
O283 C269 1.268 . S
O284 Sc266 2.105 . S
O284 C268 1.268 . S
O285 Sc265 2.105 . S
O285 C270 1.268 . S
Sc286 O289 2.025 . S
Sc286 O296 2.105 . S
Sc286 O299 2.105 . S
Sc286 O302 2.105 . S
Sc286 O305 2.105 . S
Sc287 O289 2.025 . S
Sc287 O297 2.105 . S
Sc287 O301 2.105 . S
Sc287 O303 2.105 . S
Sc287 O307 2.105 . S
Sc288 O289 2.025 . S
Sc288 O298 2.105 . S
Sc288 O300 2.105 . S
Sc288 O304 2.105 . S
Sc288 O306 2.105 . S
O289 Sc286 2.025 . S
O289 Sc287 2.025 . S
O289 Sc288 2.025 . S
C290 O296 1.268 . S
C290 O306 1.268 . S
C291 O297 1.268 . S
C291 O305 1.268 . S
C292 O298 1.268 . S
C292 O307 1.268 . S
C293 O299 1.268 . S
C293 O303 1.268 . S
C294 O300 1.268 . S
C294 O302 1.268 . S
C295 O301 1.268 . S
C295 O304 1.268 . S
O296 Sc286 2.105 . S
O296 C290 1.268 . S
O297 Sc287 2.105 . S
O297 C291 1.268 . S
O298 Sc288 2.105 . S
O298 C292 1.268 . S
O299 Sc286 2.105 . S
O299 C293 1.268 . S
O300 Sc288 2.105 . S
O300 C294 1.268 . S
O301 Sc287 2.105 . S
O301 C295 1.268 . S
O302 Sc286 2.105 . S
O302 C294 1.268 . S
O303 Sc287 2.105 . S
O303 C293 1.268 . S
O304 Sc288 2.105 . S
O304 C295 1.268 . S
O305 Sc286 2.105 . S
O305 C291 1.268 . S
O306 Sc288 2.105 . S
O306 C290 1.268 . S
O307 Sc287 2.105 . S
O307 C292 1.268 . S
Sc308 O311 2.025 . S
Sc308 O318 2.105 . S
Sc308 O321 2.105 . S
Sc308 O324 2.105 . S
Sc308 O327 2.105 . S
Sc309 O311 2.025 . S
Sc309 O319 2.105 . S
Sc309 O323 2.105 . S
Sc309 O325 2.105 . S
Sc309 O329 2.105 . S
Sc310 O311 2.025 . S
Sc310 O320 2.105 . S
Sc310 O322 2.105 . S
Sc310 O326 2.105 . S
Sc310 O328 2.105 . S
O311 Sc308 2.025 . S
O311 Sc309 2.025 . S
O311 Sc310 2.025 . S
C312 O318 1.268 . S
C312 O328 1.268 . S
C313 O319 1.268 . S
C313 O327 1.268 . S
C314 O320 1.268 . S
C314 O329 1.268 . S
C315 O321 1.268 . S
C315 O325 1.268 . S
C316 O322 1.268 . S
C316 O324 1.268 . S
C317 O323 1.268 1_565 S
C317 O326 1.268 1_565 S
O318 Sc308 2.105 . S
O318 C312 1.268 . S
O319 Sc309 2.105 . S
O319 C313 1.268 . S
O320 Sc310 2.105 . S
O320 C314 1.268 . S
O321 Sc308 2.105 . S
O321 C315 1.268 . S
O322 Sc310 2.105 . S
O322 C316 1.268 . S
O323 Sc309 2.105 . S
O323 C317 1.268 1_545 S
O324 Sc308 2.105 . S
O324 C316 1.268 . S
O325 Sc309 2.105 . S
O325 C315 1.268 . S
O326 Sc310 2.105 . S
O326 C317 1.268 1_545 S
O327 Sc308 2.105 . S
O327 C313 1.268 . S
O328 Sc310 2.105 . S
O328 C312 1.268 . S
O329 Sc309 2.105 . S
O329 C314 1.268 . S
Sc330 O333 2.025 . S
Sc330 O340 2.105 . S
Sc330 O343 2.105 . S
Sc330 O346 2.105 . S
Sc330 O349 2.105 . S
Sc331 O333 2.025 . S
Sc331 O341 2.105 . S
Sc331 O345 2.105 . S
Sc331 O347 2.105 . S
Sc331 O351 2.105 . S
Sc332 O333 2.025 . S
Sc332 O342 2.105 . S
Sc332 O344 2.105 . S
Sc332 O348 2.105 . S
Sc332 O350 2.105 . S
O333 Sc330 2.025 . S
O333 Sc331 2.025 . S
O333 Sc332 2.025 . S
C334 O340 1.268 . S
C334 O350 1.268 . S
C335 O341 1.268 . S
C335 O349 1.268 . S
C336 O342 1.268 . S
C336 O351 1.268 . S
C337 O343 1.268 . S
C337 O347 1.268 . S
C338 O344 1.268 . S
C338 O346 1.268 . S
C339 O345 1.268 . S
C339 O348 1.268 . S
O340 Sc330 2.105 . S
O340 C334 1.268 . S
O341 Sc331 2.105 . S
O341 C335 1.268 . S
O342 Sc332 2.105 . S
O342 C336 1.268 . S
O343 Sc330 2.105 . S
O343 C337 1.268 . S
O344 Sc332 2.105 . S
O344 C338 1.268 . S
O345 Sc331 2.105 . S
O345 C339 1.268 . S
O346 Sc330 2.105 . S
O346 C338 1.268 . S
O347 Sc331 2.105 . S
O347 C337 1.268 . S
O348 Sc332 2.105 . S
O348 C339 1.268 . S
O349 Sc330 2.105 . S
O349 C335 1.268 . S
O350 Sc332 2.105 . S
O350 C334 1.268 . S
O351 Sc331 2.105 . S
O351 C336 1.268 . S
C352 O364 1.237 1_554 S
C352 O365 1.276 1_554 S
C353 O366 1.277 . S
C353 O367 1.245 . S
C354 O378 1.254 . S
C354 O380 1.289 . S
Mg355 O356 1.926 1_455 S
Mg355 O365 1.984 1_455 S
Mg355 O367 1.988 . S
Mg355 O368 2.059 1_455 S
O356 Mg355 1.926 1_655 S
O356 Mg357 1.986 . S
O356 Mg358 1.917 1_655 S
Mg357 O356 1.986 . S
Mg357 O364 2.042 . S
Mg357 O366 2.041 1_655 S
Mg357 O372 2.038 . S
Mg357 O380 2.238 1_655 S
Mg358 O356 1.917 1_455 S
Mg358 O359 1.917 . S
Mg358 O369 2.106 1_455 S
Mg358 O371 2.079 1_455 S
Mg358 O380 2.106 . S
Mg358 O381 2.079 . S
O359 Mg358 1.917 . S
O359 Mg360 1.926 1_455 S
O359 Mg361 1.986 . S
Mg360 O359 1.926 1_655 S
Mg360 O374 1.984 1_655 S
Mg360 O377 1.988 . S
Mg360 O378 2.058 1_655 S
Mg361 O359 1.986 . S
Mg361 O369 2.238 1_455 S
Mg361 O373 2.042 . S
Mg361 O375 2.041 1_455 S
Mg361 O382 2.038 . S
C362 O368 1.252 . S
C362 O369 1.289 . S
C363 O381 1.245 . S
C363 O382 1.274 . S
O364 C352 1.237 1_556 S
O364 Mg357 2.042 . S
O365 C352 1.276 1_556 S
O365 Mg355 1.984 1_655 S
O366 C353 1.277 . S
O366 Mg357 2.041 1_455 S
O367 C353 1.245 . S
O367 Mg355 1.988 . S
O368 Mg355 2.059 1_655 S
O368 C362 1.252 . S
O369 Mg358 2.106 1_655 S
O369 Mg361 2.238 1_655 S
O369 C362 1.289 . S
C370 O371 1.245 . S
C370 O372 1.274 . S
O371 Mg358 2.079 1_655 S
O371 C370 1.245 . S
O372 Mg357 2.038 . S
O372 C370 1.274 . S
O373 Mg361 2.042 . S
O373 C376 1.241 . S
O374 Mg360 1.984 1_455 S
O374 C376 1.280 . S
O375 Mg361 2.041 1_655 S
O375 C379 1.277 . S
C376 O373 1.241 . S
C376 O374 1.280 . S
O377 Mg360 1.988 . S
O377 C379 1.245 . S
O378 C354 1.254 . S
O378 Mg360 2.058 1_455 S
C379 O375 1.277 . S
C379 O377 1.245 . S
O380 C354 1.289 . S
O380 Mg357 2.238 1_455 S
O380 Mg358 2.106 . S
O381 Mg358 2.079 . S
O381 C363 1.245 . S
O382 Mg361 2.038 . S
O382 C363 1.274 . S
C383 O395 1.241 . S
C383 O396 1.280 . S
C384 O397 1.277 . S
C384 O398 1.245 . S
C385 O409 1.247 . S
C385 O411 1.289 . S
Mg386 O387 1.926 . S
Mg386 O396 1.984 . S
Mg386 O398 1.988 . S
Mg386 O399 2.061 . S
O387 Mg386 1.926 . S
O387 Mg388 1.986 . S
O387 Mg389 1.917 . S
Mg388 O387 1.986 . S
Mg388 O395 2.042 . S
Mg388 O397 2.041 . S
Mg388 O403 2.038 . S
Mg388 O411 2.238 . S
Mg389 O387 1.917 . S
Mg389 O390 1.917 . S
Mg389 O400 2.106 . S
Mg389 O402 2.079 . S
Mg389 O411 2.106 . S
Mg389 O412 2.079 . S
O390 Mg389 1.917 . S
O390 Mg391 1.926 . S
O390 Mg392 1.986 . S
Mg391 O390 1.926 . S
Mg391 O405 1.984 . S
Mg391 O408 1.988 . S
Mg391 O409 2.061 . S
Mg392 O390 1.986 . S
Mg392 O400 2.238 . S
Mg392 O404 2.042 . S
Mg392 O406 2.041 . S
Mg392 O413 2.038 . S
C393 O399 1.247 . S
C393 O400 1.289 . S
C394 O412 1.245 . S
C394 O413 1.274 . S
O395 C383 1.241 . S
O395 Mg388 2.042 . S
O396 C383 1.280 . S
O396 Mg386 1.984 . S
O397 C384 1.277 . S
O397 Mg388 2.041 . S
O398 C384 1.245 . S
O398 Mg386 1.988 . S
O399 Mg386 2.061 . S
O399 C393 1.247 . S
O400 Mg389 2.106 . S
O400 Mg392 2.238 . S
O400 C393 1.289 . S
C401 O402 1.245 . S
C401 O403 1.274 . S
O402 Mg389 2.079 . S
O402 C401 1.245 . S
O403 Mg388 2.038 . S
O403 C401 1.274 . S
O404 Mg392 2.042 . S
O404 C407 1.241 . S
O405 Mg391 1.984 . S
O405 C407 1.280 . S
O406 Mg392 2.041 . S
O406 C410 1.277 . S
C407 O404 1.241 . S
C407 O405 1.280 . S
O408 Mg391 1.988 . S
O408 C410 1.245 . S
O409 C385 1.247 . S
O409 Mg391 2.061 . S
C410 O406 1.277 . S
C410 O408 1.245 . S
O411 C385 1.289 . S
O411 Mg388 2.238 . S
O411 Mg389 2.106 . S
O412 Mg389 2.079 . S
O412 C394 1.245 . S
O413 Mg392 2.038 . S
O413 C394 1.274 . S
C414 O426 1.241 . S
C414 O427 1.280 . S
C415 O428 1.277 . S
C415 O429 1.245 . S
C416 O440 1.247 . S
C416 O442 1.289 . S
Mg417 O418 1.926 1_455 S
Mg417 O427 1.984 1_455 S
Mg417 O429 1.988 . S
Mg417 O430 2.061 . S
O418 Mg417 1.926 1_655 S
O418 Mg419 1.986 . S
O418 Mg420 1.917 1_655 S
Mg419 O418 1.986 . S
Mg419 O426 2.042 . S
Mg419 O428 2.041 1_655 S
Mg419 O434 2.038 . S
Mg419 O442 2.238 1_655 S
Mg420 O418 1.917 1_455 S
Mg420 O421 1.917 . S
Mg420 O431 2.105 1_455 S
Mg420 O433 2.079 1_455 S
Mg420 O442 2.106 . S
Mg420 O443 2.079 . S
O421 Mg420 1.917 . S
O421 Mg422 1.926 1_455 S
O421 Mg423 1.986 . S
Mg422 O421 1.926 1_655 S
Mg422 O436 1.984 1_655 S
Mg422 O439 1.988 . S
Mg422 O440 2.061 1_655 S
Mg423 O421 1.986 . S
Mg423 O431 2.226 1_455 S
Mg423 O435 2.042 . S
Mg423 O437 2.041 1_455 S
Mg423 O444 2.038 . S
C424 O430 1.247 1_655 S
C424 O431 1.293 . S
C425 O443 1.245 . S
C425 O444 1.274 . S
O426 C414 1.241 . S
O426 Mg419 2.042 . S
O427 C414 1.280 . S
O427 Mg417 1.984 1_655 S
O428 C415 1.277 . S
O428 Mg419 2.041 1_455 S
O429 C415 1.245 . S
O429 Mg417 1.988 . S
O430 Mg417 2.061 . S
O430 C424 1.247 1_455 S
O431 Mg420 2.105 1_655 S
O431 Mg423 2.226 1_655 S
O431 C424 1.293 . S
C432 O433 1.245 . S
C432 O434 1.274 . S
O433 Mg420 2.079 1_655 S
O433 C432 1.245 . S
O434 Mg419 2.038 . S
O434 C432 1.274 . S
O435 Mg423 2.042 . S
O435 C438 1.241 . S
O436 Mg422 1.984 1_455 S
O436 C438 1.280 . S
O437 Mg423 2.041 1_655 S
O437 C441 1.277 . S
C438 O435 1.241 . S
C438 O436 1.280 . S
O439 Mg422 1.988 . S
O439 C441 1.245 . S
O440 C416 1.247 . S
O440 Mg422 2.061 1_455 S
C441 O437 1.277 . S
C441 O439 1.245 . S
O442 C416 1.289 . S
O442 Mg419 2.238 1_455 S
O442 Mg420 2.106 . S
O443 Mg420 2.079 . S
O443 C425 1.245 . S
O444 Mg423 2.038 . S
O444 C425 1.274 . S
C445 O457 1.241 . S
C445 O458 1.280 . S
C446 O459 1.277 . S
C446 O460 1.245 . S
C447 O471 1.247 . S
C447 O473 1.289 . S
Mg448 O449 1.926 1_565 S
Mg448 O458 1.984 1_565 S
Mg448 O460 1.988 . S
Mg448 O461 2.061 1_565 S
O449 Mg448 1.926 1_545 S
O449 Mg450 1.986 . S
O449 Mg451 1.920 . S
Mg450 O449 1.986 . S
Mg450 O457 2.042 . S
Mg450 O459 2.041 1_545 S
Mg450 O465 2.038 . S
Mg450 O473 2.238 1_545 S
Mg451 O449 1.920 . S
Mg451 O452 1.914 1_545 S
Mg451 O462 2.107 . S
Mg451 O464 2.092 . S
Mg451 O473 2.106 1_545 S
Mg451 O474 2.065 1_545 S
O452 Mg451 1.914 1_565 S
O452 Mg453 1.926 1_565 S
O452 Mg454 1.986 . S
Mg453 O452 1.926 1_545 S
Mg453 O467 1.984 1_545 S
Mg453 O470 1.988 . S
Mg453 O471 2.061 1_545 S
Mg454 O452 1.986 . S
Mg454 O462 2.238 1_565 S
Mg454 O466 2.042 . S
Mg454 O468 2.041 1_565 S
Mg454 O475 2.038 . S
C455 O461 1.247 . S
C455 O462 1.289 . S
C456 O474 1.245 . S
C456 O475 1.274 . S
O457 C445 1.241 . S
O457 Mg450 2.042 . S
O458 C445 1.280 . S
O458 Mg448 1.984 1_545 S
O459 C446 1.277 . S
O459 Mg450 2.041 1_565 S
O460 C446 1.245 . S
O460 Mg448 1.988 . S
O461 Mg448 2.061 1_545 S
O461 C455 1.247 . S
O462 Mg451 2.107 . S
O462 Mg454 2.238 1_545 S
O462 C455 1.289 . S
C463 O464 1.245 . S
C463 O465 1.274 . S
O464 Mg451 2.092 . S
O464 C463 1.245 . S
O465 Mg450 2.038 . S
O465 C463 1.274 . S
O466 Mg454 2.042 . S
O466 C469 1.241 . S
O467 Mg453 1.984 1_565 S
O467 C469 1.280 . S
O468 Mg454 2.041 1_545 S
O468 C472 1.277 . S
C469 O466 1.241 . S
C469 O467 1.280 . S
O470 Mg453 1.988 . S
O470 C472 1.245 . S
O471 C447 1.247 . S
O471 Mg453 2.061 1_565 S
C472 O468 1.277 . S
C472 O470 1.245 . S
O473 C447 1.289 . S
O473 Mg450 2.238 1_565 S
O473 Mg451 2.106 1_565 S
O474 Mg451 2.065 1_565 S
O474 C456 1.245 . S
O475 Mg454 2.038 . S
O475 C456 1.274 . S
C476 O488 1.241 1_545 S
C476 O489 1.280 1_545 S
C477 O490 1.277 . S
C477 O491 1.245 . S
C478 O502 1.247 . S
C478 O504 1.289 . S
Mg479 O480 1.916 1_554 S
Mg479 O489 1.984 1_554 S
Mg479 O491 1.988 . S
Mg479 O492 2.061 . S
O480 Mg479 1.916 1_556 S
O480 Mg481 1.997 . S
O480 Mg482 1.915 1_556 S
Mg481 O480 1.997 . S
Mg481 O488 2.042 . S
Mg481 O490 2.041 1_556 S
Mg481 O496 2.038 . S
Mg481 O504 2.238 . S
Mg482 O480 1.915 1_554 S
Mg482 O483 1.917 . S
Mg482 O493 2.106 . S
Mg482 O495 2.079 1_554 S
Mg482 O504 2.106 1_554 S
Mg482 O505 2.079 . S
O483 Mg482 1.917 . S
O483 Mg484 1.926 1_554 S
O483 Mg485 1.986 . S
Mg484 O483 1.926 1_556 S
Mg484 O498 1.984 1_556 S
Mg484 O501 1.988 . S
Mg484 O502 2.061 . S
Mg485 O483 1.986 . S
Mg485 O493 2.238 . S
Mg485 O497 2.042 . S
Mg485 O499 2.041 . S
Mg485 O506 2.038 . S
C486 O492 1.247 . S
C486 O493 1.289 . S
C487 O505 1.245 . S
C487 O506 1.274 . S
O488 C476 1.241 1_565 S
O488 Mg481 2.042 . S
O489 C476 1.280 1_565 S
O489 Mg479 1.984 1_556 S
O490 C477 1.277 . S
O490 Mg481 2.041 1_554 S
O491 C477 1.245 . S
O491 Mg479 1.988 . S
O492 Mg479 2.061 . S
O492 C486 1.247 . S
O493 Mg482 2.106 . S
O493 Mg485 2.238 . S
O493 C486 1.289 . S
C494 O495 1.245 . S
C494 O496 1.274 . S
O495 Mg482 2.079 1_556 S
O495 C494 1.245 . S
O496 Mg481 2.038 . S
O496 C494 1.274 . S
O497 Mg485 2.042 . S
O497 C500 1.241 . S
O498 Mg484 1.984 1_554 S
O498 C500 1.280 . S
O499 Mg485 2.041 . S
O499 C503 1.277 1_554 S
C500 O497 1.241 . S
C500 O498 1.280 . S
O501 Mg484 1.988 . S
O501 C503 1.245 . S
O502 C478 1.247 . S
O502 Mg484 2.061 . S
C503 O499 1.277 1_556 S
C503 O501 1.245 . S
O504 C478 1.289 . S
O504 Mg481 2.238 . S
O504 Mg482 2.106 1_556 S
O505 Mg482 2.079 . S
O505 C487 1.245 . S
O506 Mg485 2.038 . S
O506 C487 1.274 . S
C507 O519 1.241 . S
C507 O520 1.280 . S
C508 O521 1.277 . S
C508 O522 1.245 . S
C509 O533 1.247 . S
C509 O535 1.289 . S
Mg510 O511 1.926 . S
Mg510 O520 1.984 . S
Mg510 O522 1.988 . S
Mg510 O523 2.061 . S
O511 Mg510 1.926 . S
O511 Mg512 1.986 . S
O511 Mg513 1.917 . S
Mg512 O511 1.986 . S
Mg512 O519 2.042 . S
Mg512 O521 2.041 . S
Mg512 O527 2.038 . S
Mg512 O535 2.238 . S
Mg513 O511 1.917 . S
Mg513 O514 1.917 . S
Mg513 O524 2.106 . S
Mg513 O526 2.079 . S
Mg513 O535 2.106 . S
Mg513 O536 2.079 . S
O514 Mg513 1.917 . S
O514 Mg515 1.926 . S
O514 Mg516 1.986 . S
Mg515 O514 1.926 . S
Mg515 O529 1.984 . S
Mg515 O532 1.988 . S
Mg515 O533 2.061 . S
Mg516 O514 1.986 . S
Mg516 O524 2.238 . S
Mg516 O528 2.042 . S
Mg516 O530 2.041 . S
Mg516 O537 2.038 . S
C517 O523 1.247 . S
C517 O524 1.289 . S
C518 O536 1.245 . S
C518 O537 1.274 . S
O519 C507 1.241 . S
O519 Mg512 2.042 . S
O520 C507 1.280 . S
O520 Mg510 1.984 . S
O521 C508 1.277 . S
O521 Mg512 2.041 . S
O522 C508 1.245 . S
O522 Mg510 1.988 . S
O523 Mg510 2.061 . S
O523 C517 1.247 . S
O524 Mg513 2.106 . S
O524 Mg516 2.238 . S
O524 C517 1.289 . S
C525 O526 1.245 . S
C525 O527 1.274 . S
O526 Mg513 2.079 . S
O526 C525 1.245 . S
O527 Mg512 2.038 . S
O527 C525 1.274 . S
O528 Mg516 2.042 . S
O528 C531 1.241 . S
O529 Mg515 1.984 . S
O529 C531 1.280 . S
O530 Mg516 2.041 . S
O530 C534 1.277 . S
C531 O528 1.241 . S
C531 O529 1.280 . S
O532 Mg515 1.988 . S
O532 C534 1.245 . S
O533 C509 1.247 . S
O533 Mg515 2.061 . S
C534 O530 1.277 . S
C534 O532 1.245 . S
O535 C509 1.289 . S
O535 Mg512 2.238 . S
O535 Mg513 2.106 . S
O536 Mg513 2.079 . S
O536 C518 1.245 . S
O537 Mg516 2.038 . S
O537 C518 1.274 . S
C538 O550 1.241 . S
C538 O551 1.280 . S
C539 O552 1.277 . S
C539 O553 1.245 . S
C540 O564 1.240 1_556 S
C540 O566 1.289 . S
Mg541 O542 1.926 1_556 S
Mg541 O551 1.984 1_556 S
Mg541 O553 1.988 . S
Mg541 O554 2.065 . S
O542 Mg541 1.926 1_554 S
O542 Mg543 1.986 . S
O542 Mg544 1.917 . S
Mg543 O542 1.986 . S
Mg543 O550 2.042 . S
Mg543 O552 2.041 1_554 S
Mg543 O558 2.038 . S
Mg543 O566 2.238 1_554 S
Mg544 O542 1.917 . S
Mg544 O545 1.917 1_554 S
Mg544 O555 2.106 . S
Mg544 O557 2.079 . S
Mg544 O566 2.106 1_554 S
Mg544 O567 2.079 1_554 S
O545 Mg544 1.917 1_556 S
O545 Mg546 1.926 1_556 S
O545 Mg547 1.986 . S
Mg546 O545 1.926 1_554 S
Mg546 O560 1.984 1_554 S
Mg546 O563 1.988 . S
Mg546 O564 2.066 . S
Mg547 O545 1.986 . S
Mg547 O555 2.238 1_556 S
Mg547 O559 2.042 . S
Mg547 O561 2.041 1_556 S
Mg547 O568 2.038 . S
C548 O554 1.242 1_554 S
C548 O555 1.289 . S
C549 O567 1.245 . S
C549 O568 1.274 . S
O550 C538 1.241 . S
O550 Mg543 2.042 . S
O551 C538 1.280 . S
O551 Mg541 1.984 1_554 S
O552 C539 1.277 . S
O552 Mg543 2.041 1_556 S
O553 C539 1.245 . S
O553 Mg541 1.988 . S
O554 Mg541 2.065 . S
O554 C548 1.242 1_556 S
O555 Mg544 2.106 . S
O555 Mg547 2.238 1_554 S
O555 C548 1.289 . S
C556 O557 1.245 . S
C556 O558 1.274 . S
O557 Mg544 2.079 . S
O557 C556 1.245 . S
O558 Mg543 2.038 . S
O558 C556 1.274 . S
O559 Mg547 2.042 . S
O559 C562 1.241 . S
O560 Mg546 1.984 1_556 S
O560 C562 1.280 . S
O561 Mg547 2.041 1_554 S
O561 C565 1.277 . S
C562 O559 1.241 . S
C562 O560 1.280 . S
O563 Mg546 1.988 . S
O563 C565 1.245 . S
O564 C540 1.240 1_554 S
O564 Mg546 2.066 . S
C565 O561 1.277 . S
C565 O563 1.245 . S
O566 C540 1.289 . S
O566 Mg543 2.238 1_556 S
O566 Mg544 2.106 1_556 S
O567 Mg544 2.079 1_556 S
O567 C549 1.245 . S
O568 Mg547 2.038 . S
O568 C549 1.274 . S
C569 O581 1.241 . S
C569 O582 1.280 . S
C570 O583 1.277 . S
C570 O584 1.245 . S
C571 O595 1.247 . S
C571 O597 1.289 . S
Mg572 O573 1.926 . S
Mg572 O582 1.984 . S
Mg572 O584 1.988 . S
Mg572 O585 2.061 . S
O573 Mg572 1.926 . S
O573 Mg574 1.986 . S
O573 Mg575 1.917 . S
Mg574 O573 1.986 . S
Mg574 O581 2.042 . S
Mg574 O583 2.041 . S
Mg574 O589 2.038 . S
Mg574 O597 2.238 . S
Mg575 O573 1.917 . S
Mg575 O576 1.917 . S
Mg575 O586 2.106 . S
Mg575 O588 2.079 . S
Mg575 O597 2.106 . S
Mg575 O598 2.079 . S
O576 Mg575 1.917 . S
O576 Mg577 1.926 . S
O576 Mg578 1.986 . S
Mg577 O576 1.926 . S
Mg577 O591 1.984 . S
Mg577 O594 1.988 . S
Mg577 O595 2.061 . S
Mg578 O576 1.986 . S
Mg578 O586 2.238 . S
Mg578 O590 2.042 . S
Mg578 O592 2.041 . S
Mg578 O599 2.038 . S
C579 O585 1.247 . S
C579 O586 1.289 . S
C580 O598 1.245 . S
C580 O599 1.274 . S
O581 C569 1.241 . S
O581 Mg574 2.042 . S
O582 C569 1.280 . S
O582 Mg572 1.984 . S
O583 C570 1.277 . S
O583 Mg574 2.041 . S
O584 C570 1.245 . S
O584 Mg572 1.988 . S
O585 Mg572 2.061 . S
O585 C579 1.247 . S
O586 Mg575 2.106 . S
O586 Mg578 2.238 . S
O586 C579 1.289 . S
C587 O588 1.245 . S
C587 O589 1.274 . S
O588 Mg575 2.079 . S
O588 C587 1.245 . S
O589 Mg574 2.038 . S
O589 C587 1.274 . S
O590 Mg578 2.042 . S
O590 C593 1.241 . S
O591 Mg577 1.984 . S
O591 C593 1.280 . S
O592 Mg578 2.041 . S
O592 C596 1.277 . S
C593 O590 1.241 . S
C593 O591 1.280 . S
O594 Mg577 1.988 . S
O594 C596 1.245 . S
O595 C571 1.247 . S
O595 Mg577 2.061 . S
C596 O592 1.277 . S
C596 O594 1.245 . S
O597 C571 1.289 . S
O597 Mg574 2.238 . S
O597 Mg575 2.106 . S
O598 Mg575 2.079 . S
O598 C580 1.245 . S
O599 Mg578 2.038 . S
O599 C580 1.274 . S
C600 O612 1.241 . S
C600 O613 1.280 . S
C601 O614 1.277 . S
C601 O615 1.245 . S
C602 O626 1.247 . S
C602 O628 1.289 . S
Mg603 O604 1.926 . S
Mg603 O613 1.984 . S
Mg603 O615 1.988 . S
Mg603 O616 2.061 . S
O604 Mg603 1.926 . S
O604 Mg605 1.986 . S
O604 Mg606 1.917 . S
Mg605 O604 1.986 . S
Mg605 O612 2.042 . S
Mg605 O614 2.041 . S
Mg605 O620 2.038 . S
Mg605 O628 2.238 . S
Mg606 O604 1.917 . S
Mg606 O607 1.917 . S
Mg606 O617 2.106 . S
Mg606 O619 2.079 . S
Mg606 O628 2.106 . S
Mg606 O629 2.079 . S
O607 Mg606 1.917 . S
O607 Mg608 1.926 . S
O607 Mg609 1.986 . S
Mg608 O607 1.926 . S
Mg608 O622 1.984 . S
Mg608 O625 1.988 . S
Mg608 O626 2.061 . S
Mg609 O607 1.986 . S
Mg609 O617 2.238 . S
Mg609 O621 2.042 . S
Mg609 O623 2.041 . S
Mg609 O630 2.038 . S
C610 O616 1.247 . S
C610 O617 1.289 . S
C611 O629 1.245 . S
C611 O630 1.274 . S
O612 C600 1.241 . S
O612 Mg605 2.042 . S
O613 C600 1.280 . S
O613 Mg603 1.984 . S
O614 C601 1.277 . S
O614 Mg605 2.041 . S
O615 C601 1.245 . S
O615 Mg603 1.988 . S
O616 Mg603 2.061 . S
O616 C610 1.247 . S
O617 Mg606 2.106 . S
O617 Mg609 2.238 . S
O617 C610 1.289 . S
C618 O619 1.245 . S
C618 O620 1.274 . S
O619 Mg606 2.079 . S
O619 C618 1.245 . S
O620 Mg605 2.038 . S
O620 C618 1.274 . S
O621 Mg609 2.042 . S
O621 C624 1.241 . S
O622 Mg608 1.984 . S
O622 C624 1.280 . S
O623 Mg609 2.041 . S
O623 C627 1.277 . S
C624 O621 1.241 . S
C624 O622 1.280 . S
O625 Mg608 1.988 . S
O625 C627 1.245 . S
O626 C602 1.247 . S
O626 Mg608 2.061 . S
C627 O623 1.277 . S
C627 O625 1.245 . S
O628 C602 1.289 . S
O628 Mg605 2.238 . S
O628 Mg606 2.106 . S
O629 Mg606 2.079 . S
O629 C611 1.245 . S
O630 Mg609 2.038 . S
O630 C611 1.274 . S
C631 O643 1.241 . S
C631 O644 1.280 . S
C632 O645 1.277 . S
C632 O646 1.245 . S
C633 O657 1.247 . S
C633 O659 1.289 . S
Mg634 O635 1.926 . S
Mg634 O644 1.984 . S
Mg634 O646 1.988 . S
Mg634 O647 2.061 . S
O635 Mg634 1.926 . S
O635 Mg636 1.986 . S
O635 Mg637 1.917 . S
Mg636 O635 1.986 . S
Mg636 O643 2.042 . S
Mg636 O645 2.041 . S
Mg636 O651 2.038 . S
Mg636 O659 2.238 . S
Mg637 O635 1.917 . S
Mg637 O638 1.917 . S
Mg637 O648 2.106 . S
Mg637 O650 2.079 . S
Mg637 O659 2.106 . S
Mg637 O660 2.079 . S
O638 Mg637 1.917 . S
O638 Mg639 1.926 . S
O638 Mg640 1.986 . S
Mg639 O638 1.926 . S
Mg639 O653 1.984 . S
Mg639 O656 1.988 . S
Mg639 O657 2.061 . S
Mg640 O638 1.986 . S
Mg640 O648 2.238 . S
Mg640 O652 2.042 . S
Mg640 O654 2.041 . S
Mg640 O661 2.038 . S
C641 O647 1.247 . S
C641 O648 1.289 . S
C642 O660 1.245 . S
C642 O661 1.274 . S
O643 C631 1.241 . S
O643 Mg636 2.042 . S
O644 C631 1.280 . S
O644 Mg634 1.984 . S
O645 C632 1.277 . S
O645 Mg636 2.041 . S
O646 C632 1.245 . S
O646 Mg634 1.988 . S
O647 Mg634 2.061 . S
O647 C641 1.247 . S
O648 Mg637 2.106 . S
O648 Mg640 2.238 . S
O648 C641 1.289 . S
C649 O650 1.245 . S
C649 O651 1.274 . S
O650 Mg637 2.079 . S
O650 C649 1.245 . S
O651 Mg636 2.038 . S
O651 C649 1.274 . S
O652 Mg640 2.042 . S
O652 C655 1.241 . S
O653 Mg639 1.984 . S
O653 C655 1.280 . S
O654 Mg640 2.041 . S
O654 C658 1.277 . S
C655 O652 1.241 . S
C655 O653 1.280 . S
O656 Mg639 1.988 . S
O656 C658 1.245 . S
O657 C633 1.247 . S
O657 Mg639 2.061 . S
C658 O654 1.277 . S
C658 O656 1.245 . S
O659 C633 1.289 . S
O659 Mg636 2.238 . S
O659 Mg637 2.106 . S
O660 Mg637 2.079 . S
O660 C642 1.245 . S
O661 Mg640 2.038 . S
O661 C642 1.274 . S
C662 O674 1.241 . S
C662 O675 1.280 . S
C663 O676 1.277 . S
C663 O677 1.245 . S
C664 O688 1.247 . S
C664 O690 1.289 . S
Mg665 O666 1.926 1_565 S
Mg665 O675 1.984 1_565 S
Mg665 O677 1.988 . S
Mg665 O678 2.061 1_565 S
O666 Mg665 1.926 1_545 S
O666 Mg667 1.986 . S
O666 Mg668 1.921 . S
Mg667 O666 1.986 . S
Mg667 O674 2.042 . S
Mg667 O676 2.041 1_545 S
Mg667 O682 2.038 . S
Mg667 O690 2.238 1_545 S
Mg668 O666 1.921 . S
Mg668 O669 1.913 1_545 S
Mg668 O679 2.108 . S
Mg668 O681 2.096 . S
Mg668 O690 2.105 1_545 S
Mg668 O691 2.062 1_545 S
O669 Mg668 1.913 1_565 S
O669 Mg670 1.926 1_565 S
O669 Mg671 1.986 . S
Mg670 O669 1.926 1_545 S
Mg670 O684 1.984 1_545 S
Mg670 O687 1.988 . S
Mg670 O688 2.061 1_545 S
Mg671 O669 1.986 . S
Mg671 O679 2.238 1_565 S
Mg671 O683 2.042 . S
Mg671 O685 2.041 1_565 S
Mg671 O692 2.038 . S
C672 O678 1.247 . S
C672 O679 1.289 . S
C673 O691 1.245 . S
C673 O692 1.274 . S
O674 C662 1.241 . S
O674 Mg667 2.042 . S
O675 C662 1.280 . S
O675 Mg665 1.984 1_545 S
O676 C663 1.277 . S
O676 Mg667 2.041 1_565 S
O677 C663 1.245 . S
O677 Mg665 1.988 . S
O678 Mg665 2.061 1_545 S
O678 C672 1.247 . S
O679 Mg668 2.108 . S
O679 Mg671 2.238 1_545 S
O679 C672 1.289 . S
C680 O681 1.245 . S
C680 O682 1.274 . S
O681 Mg668 2.096 . S
O681 C680 1.245 . S
O682 Mg667 2.038 . S
O682 C680 1.274 . S
O683 Mg671 2.042 . S
O683 C686 1.241 . S
O684 Mg670 1.984 1_565 S
O684 C686 1.280 . S
O685 Mg671 2.041 1_545 S
O685 C689 1.277 . S
C686 O683 1.241 . S
C686 O684 1.280 . S
O687 Mg670 1.988 . S
O687 C689 1.245 . S
O688 C664 1.247 . S
O688 Mg670 2.061 1_565 S
C689 O685 1.277 . S
C689 O687 1.245 . S
O690 C664 1.289 . S
O690 Mg667 2.238 1_565 S
O690 Mg668 2.105 1_565 S
O691 Mg668 2.062 1_565 S
O691 C673 1.245 . S
O692 Mg671 2.038 . S
O692 C673 1.274 . S
C693 O705 1.241 . S
C693 O706 1.280 . S
C694 O707 1.277 . S
C694 O708 1.245 . S
C695 O719 1.247 . S
C695 O721 1.289 . S
Mg696 O697 1.926 . S
Mg696 O706 1.984 . S
Mg696 O708 1.988 . S
Mg696 O709 2.061 . S
O697 Mg696 1.926 . S
O697 Mg698 1.986 . S
O697 Mg699 1.917 . S
Mg698 O697 1.986 . S
Mg698 O705 2.042 . S
Mg698 O707 2.041 . S
Mg698 O713 2.038 . S
Mg698 O721 2.238 . S
Mg699 O697 1.917 . S
Mg699 O700 1.917 . S
Mg699 O710 2.106 . S
Mg699 O712 2.079 . S
Mg699 O721 2.106 . S
Mg699 O722 2.079 . S
O700 Mg699 1.917 . S
O700 Mg701 1.926 . S
O700 Mg702 1.986 . S
Mg701 O700 1.926 . S
Mg701 O715 1.984 . S
Mg701 O718 1.988 . S
Mg701 O719 2.061 . S
Mg702 O700 1.986 . S
Mg702 O710 2.238 . S
Mg702 O714 2.042 . S
Mg702 O716 2.041 . S
Mg702 O723 2.038 . S
C703 O709 1.247 . S
C703 O710 1.289 . S
C704 O722 1.245 . S
C704 O723 1.274 . S
O705 C693 1.241 . S
O705 Mg698 2.042 . S
O706 C693 1.280 . S
O706 Mg696 1.984 . S
O707 C694 1.277 . S
O707 Mg698 2.041 . S
O708 C694 1.245 . S
O708 Mg696 1.988 . S
O709 Mg696 2.061 . S
O709 C703 1.247 . S
O710 Mg699 2.106 . S
O710 Mg702 2.238 . S
O710 C703 1.289 . S
C711 O712 1.245 . S
C711 O713 1.274 . S
O712 Mg699 2.079 . S
O712 C711 1.245 . S
O713 Mg698 2.038 . S
O713 C711 1.274 . S
O714 Mg702 2.042 . S
O714 C717 1.241 . S
O715 Mg701 1.984 . S
O715 C717 1.280 . S
O716 Mg702 2.041 . S
O716 C720 1.277 . S
C717 O714 1.241 . S
C717 O715 1.280 . S
O718 Mg701 1.988 . S
O718 C720 1.245 . S
O719 C695 1.247 . S
O719 Mg701 2.061 . S
C720 O716 1.277 . S
C720 O718 1.245 . S
O721 C695 1.289 . S
O721 Mg698 2.238 . S
O721 Mg699 2.106 . S
O722 Mg699 2.079 . S
O722 C704 1.245 . S
O723 Mg702 2.038 . S
O723 C704 1.274 . S
C724 C725 1.369 . S
C724 C726 1.419 . S
C724 H728 0.930 . S
C725 C724 1.369 . S
C725 C734 1.429 . S
C726 C724 1.419 . S
C726 C727 1.363 . S
C726 H729 0.929 . S
C727 C726 1.363 . S
C727 C733 1.428 . S
H728 C724 0.930 . S
H729 C726 0.929 . S
S730 N731 1.613 . S
S730 N732 1.610 . S
N731 S730 1.613 . S
N731 C734 1.350 . S
N732 S730 1.610 . S
N732 C733 1.351 . S
C733 C727 1.428 . S
C733 N732 1.351 . S
C733 C734 1.434 . S
C734 C725 1.429 . S
C734 N731 1.350 . S
C734 C733 1.434 . S
C735 C736 1.369 . S
C735 C737 1.419 . S
C735 H739 0.930 . S
C736 C735 1.369 . S
C736 C745 1.429 . S
C737 C735 1.419 . S
C737 C738 1.363 . S
C737 H740 0.929 . S
C738 C737 1.363 . S
C738 C744 1.428 . S
H739 C735 0.930 . S
H740 C737 0.929 . S
S741 N742 1.613 . S
S741 N743 1.610 . S
N742 S741 1.613 . S
N742 C745 1.350 . S
N743 S741 1.610 . S
N743 C744 1.351 . S
C744 C738 1.428 . S
C744 N743 1.351 . S
C744 C745 1.434 . S
C745 C736 1.429 . S
C745 N742 1.350 . S
C745 C744 1.434 . S
C746 C747 1.369 . S
C746 C748 1.419 . S
C746 H750 0.930 . S
C747 C746 1.369 . S
C747 C756 1.429 . S
C748 C746 1.419 . S
C748 C749 1.363 . S
C748 H751 0.929 . S
C749 C748 1.363 . S
C749 C755 1.428 . S
H750 C746 0.930 . S
H751 C748 0.929 . S
S752 N753 1.613 . S
S752 N754 1.610 . S
N753 S752 1.613 . S
N753 C756 1.350 . S
N754 S752 1.610 . S
N754 C755 1.351 . S
C755 C749 1.428 . S
C755 N754 1.351 . S
C755 C756 1.434 . S
C756 C747 1.429 . S
C756 N753 1.350 . S
C756 C755 1.434 . S
C757 C758 1.369 . S
C757 C759 1.419 . S
C757 H761 0.930 . S
C758 C757 1.369 . S
C758 C767 1.429 . S
C759 C757 1.419 . S
C759 C760 1.363 . S
C759 H762 0.929 . S
C760 C759 1.363 . S
C760 C766 1.428 . S
H761 C757 0.930 . S
H762 C759 0.929 . S
S763 N764 1.613 . S
S763 N765 1.610 . S
N764 S763 1.613 . S
N764 C767 1.350 . S
N765 S763 1.610 . S
N765 C766 1.351 . S
C766 C760 1.428 . S
C766 N765 1.351 . S
C766 C767 1.434 . S
C767 C758 1.429 . S
C767 N764 1.350 . S
C767 C766 1.434 . S
C768 C769 1.369 . S
C768 C770 1.419 . S
C768 H772 0.930 . S
C769 C768 1.369 . S
C769 C778 1.429 . S
C770 C768 1.419 . S
C770 C771 1.363 . S
C770 H773 0.929 . S
C771 C770 1.363 . S
C771 C777 1.428 . S
H772 C768 0.930 . S
H773 C770 0.929 . S
S774 N775 1.613 . S
S774 N776 1.610 . S
N775 S774 1.613 . S
N775 C778 1.350 . S
N776 S774 1.610 . S
N776 C777 1.351 . S
C777 C771 1.428 . S
C777 N776 1.351 . S
C777 C778 1.434 . S
C778 C769 1.429 . S
C778 N775 1.350 . S
C778 C777 1.434 . S
C779 C780 1.369 . S
C779 C781 1.419 . S
C779 H783 0.930 . S
C780 C779 1.369 . S
C780 C789 1.429 . S
C781 C779 1.419 . S
C781 C782 1.363 . S
C781 H784 0.929 . S
C782 C781 1.363 . S
C782 C788 1.428 . S
H783 C779 0.930 . S
H784 C781 0.929 . S
S785 N786 1.613 . S
S785 N787 1.610 . S
N786 S785 1.613 . S
N786 C789 1.350 . S
N787 S785 1.610 . S
N787 C788 1.351 . S
C788 C782 1.428 . S
C788 N787 1.351 . S
C788 C789 1.434 . S
C789 C780 1.429 . S
C789 N786 1.350 . S
C789 C788 1.434 . S
C790 C791 1.369 . S
C790 C792 1.419 . S
C790 H794 0.930 . S
C791 C790 1.369 . S
C791 C800 1.429 . S
C792 C790 1.419 . S
C792 C793 1.363 . S
C792 H795 0.929 . S
C793 C792 1.363 . S
C793 C799 1.428 . S
H794 C790 0.930 . S
H795 C792 0.929 . S
S796 N797 1.613 . S
S796 N798 1.610 . S
N797 S796 1.613 . S
N797 C800 1.350 . S
N798 S796 1.610 . S
N798 C799 1.351 . S
C799 C793 1.428 . S
C799 N798 1.351 . S
C799 C800 1.434 . S
C800 C791 1.429 . S
C800 N797 1.350 . S
C800 C799 1.434 . S
C801 C802 1.369 . S
C801 C803 1.419 . S
C801 H805 0.930 . S
C802 C801 1.369 . S
C802 C811 1.429 . S
C803 C801 1.419 . S
C803 C804 1.363 . S
C803 H806 0.929 . S
C804 C803 1.363 . S
C804 C810 1.428 . S
H805 C801 0.930 . S
H806 C803 0.929 . S
S807 N808 1.613 . S
S807 N809 1.610 . S
N808 S807 1.613 . S
N808 C811 1.350 . S
N809 S807 1.610 . S
N809 C810 1.351 . S
C810 C804 1.428 . S
C810 N809 1.351 . S
C810 C811 1.434 . S
C811 C802 1.429 . S
C811 N808 1.350 . S
C811 C810 1.434 . S
C812 C813 1.369 . S
C812 C814 1.419 . S
C812 H816 0.930 . S
C813 C812 1.369 . S
C813 C822 1.429 . S
C814 C812 1.419 . S
C814 C815 1.363 . S
C814 H817 0.929 . S
C815 C814 1.363 . S
C815 C821 1.428 . S
H816 C812 0.930 . S
H817 C814 0.929 . S
S818 N819 1.613 . S
S818 N820 1.610 . S
N819 S818 1.613 . S
N819 C822 1.350 1_565 S
N820 S818 1.610 . S
N820 C821 1.351 1_565 S
C821 C815 1.428 . S
C821 N820 1.351 1_545 S
C821 C822 1.434 . S
C822 C813 1.429 . S
C822 N819 1.350 1_545 S
C822 C821 1.434 . S
C823 C824 1.369 . S
C823 C825 1.419 . S
C823 H827 0.930 . S
C824 C823 1.369 . S
C824 C833 1.429 . S
C825 C823 1.419 . S
C825 C826 1.363 . S
C825 H828 0.929 . S
C826 C825 1.363 . S
C826 C832 1.428 . S
H827 C823 0.930 . S
H828 C825 0.929 . S
S829 N830 1.613 . S
S829 N831 1.610 . S
N830 S829 1.613 . S
N830 C833 1.350 . S
N831 S829 1.610 . S
N831 C832 1.351 . S
C832 C826 1.428 . S
C832 N831 1.351 . S
C832 C833 1.434 . S
C833 C824 1.429 . S
C833 N830 1.350 . S
C833 C832 1.434 . S
C834 C835 1.369 . S
C834 C836 1.419 . S
C834 H838 0.930 . S
C835 C834 1.369 . S
C835 C844 1.429 . S
C836 C834 1.419 . S
C836 C837 1.363 . S
C836 H839 0.929 . S
C837 C836 1.363 . S
C837 C843 1.428 . S
H838 C834 0.930 . S
H839 C836 0.929 . S
S840 N841 1.613 . S
S840 N842 1.610 . S
N841 S840 1.613 . S
N841 C844 1.350 . S
N842 S840 1.610 . S
N842 C843 1.351 . S
C843 C837 1.428 . S
C843 N842 1.351 . S
C843 C844 1.434 . S
C844 C835 1.429 . S
C844 N841 1.350 . S
C844 C843 1.434 . S
C845 C846 1.369 . S
C845 C847 1.419 . S
C845 H849 0.930 . S
C846 C845 1.369 . S
C846 C855 1.429 . S
C847 C845 1.419 . S
C847 C848 1.363 . S
C847 H850 0.929 . S
C848 C847 1.363 . S
C848 C854 1.428 . S
H849 C845 0.930 . S
H850 C847 0.929 . S
S851 N852 1.613 . S
S851 N853 1.610 . S
N852 S851 1.613 . S
N852 C855 1.350 . S
N853 S851 1.610 . S
N853 C854 1.351 . S
C854 C848 1.428 . S
C854 N853 1.351 . S
C854 C855 1.434 . S
C855 C846 1.429 . S
C855 N852 1.350 . S
C855 C854 1.434 . S
C856 C857 1.369 . S
C856 C858 1.419 . S
C856 H860 0.930 . S
C857 C856 1.369 . S
C857 C866 1.429 . S
C858 C856 1.419 . S
C858 C859 1.363 . S
C858 H861 0.929 . S
C859 C858 1.363 . S
C859 C865 1.428 . S
H860 C856 0.930 . S
H861 C858 0.929 . S
S862 N863 1.613 . S
S862 N864 1.610 . S
N863 S862 1.613 . S
N863 C866 1.350 . S
N864 S862 1.610 . S
N864 C865 1.351 . S
C865 C859 1.428 . S
C865 N864 1.351 . S
C865 C866 1.434 . S
C866 C857 1.429 . S
C866 N863 1.350 . S
C866 C865 1.434 . S
C867 C868 1.369 . S
C867 C869 1.419 . S
C867 H871 0.930 . S
C868 C867 1.369 . S
C868 C877 1.429 . S
C869 C867 1.419 . S
C869 C870 1.363 . S
C869 H872 0.929 . S
C870 C869 1.363 . S
C870 C876 1.428 . S
H871 C867 0.930 . S
H872 C869 0.929 . S
S873 N874 1.613 . S
S873 N875 1.610 . S
N874 S873 1.613 . S
N874 C877 1.350 . S
N875 S873 1.610 . S
N875 C876 1.351 . S
C876 C870 1.428 . S
C876 N875 1.351 . S
C876 C877 1.434 . S
C877 C868 1.429 . S
C877 N874 1.350 . S
C877 C876 1.434 . S
C878 C879 1.369 . S
C878 C880 1.419 . S
C878 H882 0.930 . S
C879 C878 1.369 . S
C879 C888 1.429 . S
C880 C878 1.419 . S
C880 C881 1.363 . S
C880 H883 0.929 . S
C881 C880 1.363 . S
C881 C887 1.428 . S
H882 C878 0.930 . S
H883 C880 0.929 . S
S884 N885 1.613 . S
S884 N886 1.610 . S
N885 S884 1.613 . S
N885 C888 1.350 . S
N886 S884 1.610 . S
N886 C887 1.351 . S
C887 C881 1.428 . S
C887 N886 1.351 . S
C887 C888 1.434 . S
C888 C879 1.429 . S
C888 N885 1.350 . S
C888 C887 1.434 . S
C889 C890 1.369 . S
C889 C891 1.419 . S
C889 H893 0.930 . S
C890 C889 1.369 . S
C890 C899 1.429 . S
C891 C889 1.419 . S
C891 C892 1.363 . S
C891 H894 0.929 . S
C892 C891 1.363 . S
C892 C898 1.428 . S
H893 C889 0.930 . S
H894 C891 0.929 . S
S895 N896 1.613 . S
S895 N897 1.610 . S
N896 S895 1.613 . S
N896 C899 1.350 . S
N897 S895 1.610 . S
N897 C898 1.351 . S
C898 C892 1.428 . S
C898 N897 1.351 . S
C898 C899 1.434 . S
C899 C890 1.429 . S
C899 N896 1.350 . S
C899 C898 1.434 . S
C900 C901 1.369 . S
C900 C902 1.419 1_554 S
C900 H904 0.930 . S
C901 C900 1.369 . S
C901 C910 1.429 . S
C902 C900 1.419 1_556 S
C902 C903 1.363 . S
C902 H905 0.929 . S
C903 C902 1.363 . S
C903 C909 1.428 . S
H904 C900 0.930 . S
H905 C902 0.929 . S
S906 N907 1.613 1_556 S
S906 N908 1.610 . S
N907 S906 1.613 1_554 S
N907 C910 1.350 . S
N908 S906 1.610 . S
N908 C909 1.351 . S
C909 C903 1.428 . S
C909 N908 1.351 . S
C909 C910 1.434 1_556 S
C910 C901 1.429 . S
C910 N907 1.350 . S
C910 C909 1.434 1_554 S
C911 C912 1.369 . S
C911 C913 1.419 . S
C911 H915 0.930 . S
C912 C911 1.369 . S
C912 C921 1.429 . S
C913 C911 1.419 . S
C913 C914 1.363 . S
C913 H916 0.929 . S
C914 C913 1.363 . S
C914 C920 1.428 . S
H915 C911 0.930 . S
H916 C913 0.929 . S
S917 N918 1.613 . S
S917 N919 1.610 . S
N918 S917 1.613 . S
N918 C921 1.350 . S
N919 S917 1.610 . S
N919 C920 1.351 . S
C920 C914 1.428 . S
C920 N919 1.351 . S
C920 C921 1.434 . S
C921 C912 1.429 . S
C921 N918 1.350 . S
C921 C920 1.434 . S
C922 C923 1.369 . S
C922 C924 1.419 . S
C922 H926 0.930 . S
C923 C922 1.369 . S
C923 C932 1.429 . S
C924 C922 1.419 . S
C924 C925 1.363 . S
C924 H927 0.929 . S
C925 C924 1.363 . S
C925 C931 1.428 . S
H926 C922 0.930 . S
H927 C924 0.929 . S
S928 N929 1.613 . S
S928 N930 1.610 . S
N929 S928 1.613 . S
N929 C932 1.350 . S
N930 S928 1.610 . S
N930 C931 1.351 . S
C931 C925 1.428 . S
C931 N930 1.351 . S
C931 C932 1.434 . S
C932 C923 1.429 . S
C932 N929 1.350 . S
C932 C931 1.434 . S
C933 C934 1.369 . S
C933 C935 1.419 . S
C933 H937 0.930 . S
C934 C933 1.369 . S
C934 C943 1.429 . S
C935 C933 1.419 . S
C935 C936 1.363 . S
C935 H938 0.929 . S
C936 C935 1.363 . S
C936 C942 1.428 . S
H937 C933 0.930 . S
H938 C935 0.929 . S
S939 N940 1.613 . S
S939 N941 1.610 . S
N940 S939 1.613 . S
N940 C943 1.350 . S
N941 S939 1.610 . S
N941 C942 1.351 . S
C942 C936 1.428 . S
C942 N941 1.351 . S
C942 C943 1.434 . S
C943 C934 1.429 . S
C943 N940 1.350 . S
C943 C942 1.434 . S
C944 C945 1.369 . S
C944 C946 1.419 . S
C944 H948 0.930 . S
C945 C944 1.369 . S
C945 C954 1.429 . S
C946 C944 1.419 . S
C946 C947 1.363 . S
C946 H949 0.929 . S
C947 C946 1.363 . S
C947 C953 1.428 . S
H948 C944 0.930 . S
H949 C946 0.929 . S
S950 N951 1.613 . S
S950 N952 1.610 1_655 S
N951 S950 1.613 . S
N951 C954 1.350 . S
N952 S950 1.610 1_455 S
N952 C953 1.351 1_455 S
C953 C947 1.428 . S
C953 N952 1.351 1_655 S
C953 C954 1.434 . S
C954 C945 1.429 . S
C954 N951 1.350 . S
C954 C953 1.434 . S
C955 C956 1.369 . S
C955 C957 1.419 . S
C955 H959 0.930 . S
C956 C955 1.369 . S
C956 C965 1.429 . S
C957 C955 1.419 . S
C957 C958 1.363 . S
C957 H960 0.929 . S
C958 C957 1.363 . S
C958 C964 1.428 . S
H959 C955 0.930 . S
H960 C957 0.929 . S
S961 N962 1.613 . S
S961 N963 1.610 . S
N962 S961 1.613 . S
N962 C965 1.350 . S
N963 S961 1.610 . S
N963 C964 1.351 . S
C964 C958 1.428 . S
C964 N963 1.351 . S
C964 C965 1.434 . S
C965 C956 1.429 . S
C965 N962 1.350 . S
C965 C964 1.434 . S
C966 C967 1.369 . S
C966 C968 1.419 . S
C966 H970 0.930 . S
C967 C966 1.369 . S
C967 C976 1.429 . S
C968 C966 1.419 . S
C968 C969 1.363 . S
C968 H971 0.929 . S
C969 C968 1.363 . S
C969 C975 1.428 . S
H970 C966 0.930 . S
H971 C968 0.929 . S
S972 N973 1.613 . S
S972 N974 1.610 . S
N973 S972 1.613 . S
N973 C976 1.350 . S
N974 S972 1.610 . S
N974 C975 1.351 . S
C975 C969 1.428 . S
C975 N974 1.351 . S
C975 C976 1.434 . S
C976 C967 1.429 . S
C976 N973 1.350 . S
C976 C975 1.434 . S
C977 C978 1.369 . S
C977 C979 1.419 . S
C977 H981 0.930 . S
C978 C977 1.369 . S
C978 C987 1.429 . S
C979 C977 1.419 . S
C979 C980 1.363 . S
C979 H982 0.929 . S
C980 C979 1.363 . S
C980 C986 1.428 . S
H981 C977 0.930 . S
H982 C979 0.929 . S
S983 N984 1.613 . S
S983 N985 1.610 . S
N984 S983 1.613 . S
N984 C987 1.350 . S
N985 S983 1.610 . S
N985 C986 1.351 . S
C986 C980 1.428 . S
C986 N985 1.351 . S
C986 C987 1.434 . S
C987 C978 1.429 . S
C987 N984 1.350 . S
C987 C986 1.434 . S
C988 C989 1.369 . S
C988 C990 1.419 . S
C988 H992 0.930 . S
C989 C988 1.369 . S
C989 C998 1.429 . S
C990 C988 1.419 . S
C990 C991 1.363 . S
C990 H993 0.929 . S
C991 C990 1.363 . S
C991 C997 1.428 . S
H992 C988 0.930 . S
H993 C990 0.929 . S
S994 N995 1.613 . S
S994 N996 1.610 . S
N995 S994 1.613 . S
N995 C998 1.350 . S
N996 S994 1.610 . S
N996 C997 1.351 . S
C997 C991 1.428 . S
C997 N996 1.351 . S
C997 C998 1.434 . S
C998 C989 1.429 . S
C998 N995 1.350 . S
C998 C997 1.434 . S
C999 C1000 1.369 . S
C999 C1001 1.419 . S
C999 H1003 0.930 . S
C1000 C999 1.369 . S
C1000 C1009 1.429 . S
C1001 C999 1.419 . S
C1001 C1002 1.363 . S
C1001 H1004 0.929 . S
C1002 C1001 1.363 . S
C1002 C1008 1.428 . S
H1003 C999 0.930 . S
H1004 C1001 0.929 . S
S1005 N1006 1.613 . S
S1005 N1007 1.610 . S
N1006 S1005 1.613 . S
N1006 C1009 1.350 . S
N1007 S1005 1.610 . S
N1007 C1008 1.351 . S
C1008 C1002 1.428 . S
C1008 N1007 1.351 . S
C1008 C1009 1.434 . S
C1009 C1000 1.429 . S
C1009 N1006 1.350 . S
C1009 C1008 1.434 . S
C1010 C1011 1.369 . S
C1010 C1012 1.419 . S
C1010 H1014 0.930 . S
C1011 C1010 1.369 . S
C1011 C1020 1.429 . S
C1012 C1010 1.419 . S
C1012 C1013 1.363 . S
C1012 H1015 0.929 . S
C1013 C1012 1.363 . S
C1013 C1019 1.428 . S
H1014 C1010 0.930 . S
H1015 C1012 0.929 . S
S1016 N1017 1.613 . S
S1016 N1018 1.610 . S
N1017 S1016 1.613 . S
N1017 C1020 1.350 . S
N1018 S1016 1.610 . S
N1018 C1019 1.351 . S
C1019 C1013 1.428 . S
C1019 N1018 1.351 . S
C1019 C1020 1.434 . S
C1020 C1011 1.429 . S
C1020 N1017 1.350 . S
C1020 C1019 1.434 . S
C1021 C1022 1.369 . S
C1021 C1023 1.419 . S
C1021 H1025 0.930 . S
C1022 C1021 1.369 . S
C1022 C1031 1.429 . S
C1023 C1021 1.419 . S
C1023 C1024 1.363 . S
C1023 H1026 0.929 . S
C1024 C1023 1.363 . S
C1024 C1030 1.428 . S
H1025 C1021 0.930 . S
H1026 C1023 0.929 . S
S1027 N1028 1.613 . S
S1027 N1029 1.610 . S
N1028 S1027 1.613 . S
N1028 C1031 1.350 . S
N1029 S1027 1.610 . S
N1029 C1030 1.351 . S
C1030 C1024 1.428 . S
C1030 N1029 1.351 . S
C1030 C1031 1.434 . S
C1031 C1022 1.429 . S
C1031 N1028 1.350 . S
C1031 C1030 1.434 . S
C1032 C1033 1.369 . S
C1032 C1034 1.419 . S
C1032 H1036 0.930 . S
C1033 C1032 1.369 . S
C1033 C1042 1.429 . S
C1034 C1032 1.419 . S
C1034 C1035 1.363 . S
C1034 H1037 0.929 . S
C1035 C1034 1.363 . S
C1035 C1041 1.428 . S
H1036 C1032 0.930 . S
H1037 C1034 0.929 . S
S1038 N1039 1.613 . S
S1038 N1040 1.610 . S
N1039 S1038 1.613 . S
N1039 C1042 1.350 . S
N1040 S1038 1.610 . S
N1040 C1041 1.351 . S
C1041 C1035 1.428 . S
C1041 N1040 1.351 . S
C1041 C1042 1.434 . S
C1042 C1033 1.429 . S
C1042 N1039 1.350 . S
C1042 C1041 1.434 . S
C1043 C1044 1.369 . S
C1043 C1045 1.419 . S
C1043 H1047 0.930 . S
C1044 C1043 1.369 . S
C1044 C1053 1.429 . S
C1045 C1043 1.419 . S
C1045 C1046 1.363 . S
C1045 H1048 0.929 . S
C1046 C1045 1.363 . S
C1046 C1052 1.428 . S
H1047 C1043 0.930 . S
H1048 C1045 0.929 . S
S1049 N1050 1.613 . S
S1049 N1051 1.610 . S
N1050 S1049 1.613 . S
N1050 C1053 1.350 . S
N1051 S1049 1.610 . S
N1051 C1052 1.351 . S
C1052 C1046 1.428 . S
C1052 N1051 1.351 . S
C1052 C1053 1.434 . S
C1053 C1044 1.429 . S
C1053 N1050 1.350 . S
C1053 C1052 1.434 . S
C1054 C1055 1.369 . S
C1054 C1056 1.419 . S
C1054 H1058 0.930 . S
C1055 C1054 1.369 . S
C1055 C1064 1.429 . S
C1056 C1054 1.419 . S
C1056 C1057 1.363 . S
C1056 H1059 0.929 . S
C1057 C1056 1.363 . S
C1057 C1063 1.428 . S
H1058 C1054 0.930 . S
H1059 C1056 0.929 . S
S1060 N1061 1.613 . S
S1060 N1062 1.610 . S
N1061 S1060 1.613 . S
N1061 C1064 1.350 . S
N1062 S1060 1.610 . S
N1062 C1063 1.351 . S
C1063 C1057 1.428 . S
C1063 N1062 1.351 . S
C1063 C1064 1.434 . S
C1064 C1055 1.429 . S
C1064 N1061 1.350 . S
C1064 C1063 1.434 . S
C1065 C1066 1.369 . S
C1065 C1067 1.419 . S
C1065 H1069 0.930 . S
C1066 C1065 1.369 . S
C1066 C1075 1.429 . S
C1067 C1065 1.419 . S
C1067 C1068 1.363 . S
C1067 H1070 0.929 . S
C1068 C1067 1.363 . S
C1068 C1074 1.428 . S
H1069 C1065 0.930 . S
H1070 C1067 0.929 . S
S1071 N1072 1.613 . S
S1071 N1073 1.610 1_556 S
N1072 S1071 1.613 . S
N1072 C1075 1.350 . S
N1073 S1071 1.610 1_554 S
N1073 C1074 1.351 1_554 S
C1074 C1068 1.428 . S
C1074 N1073 1.351 1_556 S
C1074 C1075 1.434 . S
C1075 C1066 1.429 . S
C1075 N1072 1.350 . S
C1075 C1074 1.434 . S
C1076 C1077 1.369 . S
C1076 C1078 1.419 . S
C1076 H1080 0.930 . S
C1077 C1076 1.369 . S
C1077 C1086 1.429 . S
C1078 C1076 1.419 . S
C1078 C1079 1.363 . S
C1078 H1081 0.929 . S
C1079 C1078 1.363 . S
C1079 C1085 1.428 . S
H1080 C1076 0.930 . S
H1081 C1078 0.929 . S
S1082 N1083 1.613 . S
S1082 N1084 1.610 . S
N1083 S1082 1.613 . S
N1083 C1086 1.350 . S
N1084 S1082 1.610 . S
N1084 C1085 1.351 . S
C1085 C1079 1.428 . S
C1085 N1084 1.351 . S
C1085 C1086 1.434 . S
C1086 C1077 1.429 . S
C1086 N1083 1.350 . S
C1086 C1085 1.434 . S
C1087 C1088 1.369 . S
C1087 C1089 1.419 . S
C1087 H1091 0.930 . S
C1088 C1087 1.369 . S
C1088 C1097 1.429 . S
C1089 C1087 1.419 . S
C1089 C1090 1.363 . S
C1089 H1092 0.929 . S
C1090 C1089 1.363 . S
C1090 C1096 1.428 . S
H1091 C1087 0.930 . S
H1092 C1089 0.929 . S
S1093 N1094 1.613 . S
S1093 N1095 1.610 . S
N1094 S1093 1.613 . S
N1094 C1097 1.350 . S
N1095 S1093 1.610 . S
N1095 C1096 1.351 . S
C1096 C1090 1.428 . S
C1096 N1095 1.351 . S
C1096 C1097 1.434 . S
C1097 C1088 1.429 . S
C1097 N1094 1.350 . S
C1097 C1096 1.434 . S
C1098 C1099 1.369 . S
C1098 C1100 1.419 . S
C1098 H1102 0.930 . S
C1099 C1098 1.369 . S
C1099 C1108 1.429 . S
C1100 C1098 1.419 . S
C1100 C1101 1.363 . S
C1100 H1103 0.929 . S
C1101 C1100 1.363 . S
C1101 C1107 1.428 . S
H1102 C1098 0.930 . S
H1103 C1100 0.929 . S
S1104 N1105 1.613 . S
S1104 N1106 1.610 . S
N1105 S1104 1.613 . S
N1105 C1108 1.350 . S
N1106 S1104 1.610 . S
N1106 C1107 1.351 . S
C1107 C1101 1.428 . S
C1107 N1106 1.351 . S
C1107 C1108 1.434 . S
C1108 C1099 1.429 . S
C1108 N1105 1.350 . S
C1108 C1107 1.434 . S
C1109 C1110 1.369 . S
C1109 C1111 1.419 . S
C1109 H1113 0.930 . S
C1110 C1109 1.369 . S
C1110 C1119 1.429 . S
C1111 C1109 1.419 . S
C1111 C1112 1.363 . S
C1111 H1114 0.903 1_565 S
C1112 C1111 1.363 . S
C1112 C1118 1.428 . S
H1113 C1109 0.930 . S
H1114 C1111 0.903 1_545 S
S1115 N1116 1.613 . S
S1115 N1117 1.610 . S
N1116 S1115 1.613 . S
N1116 C1119 1.350 . S
N1117 S1115 1.610 . S
N1117 C1118 1.351 . S
C1118 C1112 1.428 . S
C1118 N1117 1.351 . S
C1118 C1119 1.434 . S
C1119 C1110 1.429 . S
C1119 N1116 1.350 . S
C1119 C1118 1.434 . S
C1120 C1121 1.369 . S
C1120 C1122 1.419 . S
C1120 H1124 0.930 . S
C1121 C1120 1.369 . S
C1121 C1130 1.429 . S
C1122 C1120 1.419 . S
C1122 C1123 1.363 . S
C1122 H1125 0.929 . S
C1123 C1122 1.363 . S
C1123 C1129 1.428 . S
H1124 C1120 0.930 . S
H1125 C1122 0.929 . S
S1126 N1127 1.613 . S
S1126 N1128 1.610 . S
N1127 S1126 1.613 . S
N1127 C1130 1.350 . S
N1128 S1126 1.610 . S
N1128 C1129 1.351 . S
C1129 C1123 1.428 . S
C1129 N1128 1.351 . S
C1129 C1130 1.434 . S
C1130 C1121 1.429 . S
C1130 N1127 1.350 . S
C1130 C1129 1.434 . S
C1131 C1132 1.369 . S
C1131 C1133 1.419 . S
C1131 H1135 0.930 . S
C1132 C1131 1.369 . S
C1132 C1141 1.429 . S
C1133 C1131 1.419 . S
C1133 C1134 1.363 . S
C1133 H1136 0.929 . S
C1134 C1133 1.363 . S
C1134 C1140 1.428 . S
H1135 C1131 0.930 . S
H1136 C1133 0.929 . S
S1137 N1138 1.613 . S
S1137 N1139 1.610 . S
N1138 S1137 1.613 . S
N1138 C1141 1.350 . S
N1139 S1137 1.610 . S
N1139 C1140 1.351 . S
C1140 C1134 1.428 . S
C1140 N1139 1.351 . S
C1140 C1141 1.434 . S
C1141 C1132 1.429 . S
C1141 N1138 1.350 . S
C1141 C1140 1.434 . S
C1142 C1143 1.369 . S
C1142 C1144 1.419 . S
C1142 H1146 0.930 . S
C1143 C1142 1.369 . S
C1143 C1152 1.429 . S
C1144 C1142 1.419 . S
C1144 C1145 1.363 . S
C1144 H1147 0.929 . S
C1145 C1144 1.363 . S
C1145 C1151 1.428 . S
H1146 C1142 0.930 . S
H1147 C1144 0.929 . S
S1148 N1149 1.613 . S
S1148 N1150 1.610 . S
N1149 S1148 1.613 . S
N1149 C1152 1.350 . S
N1150 S1148 1.610 . S
N1150 C1151 1.351 . S
C1151 C1145 1.428 . S
C1151 N1150 1.351 . S
C1151 C1152 1.434 . S
C1152 C1143 1.429 . S
C1152 N1149 1.350 . S
C1152 C1151 1.434 . S
C1153 C1154 1.369 . S
C1153 C1155 1.419 . S
C1153 H1157 0.930 . S
C1154 C1153 1.369 . S
C1154 C1163 1.429 . S
C1155 C1153 1.419 . S
C1155 C1156 1.363 . S
C1155 H1158 0.929 . S
C1156 C1155 1.363 . S
C1156 C1162 1.428 . S
H1157 C1153 0.930 . S
H1158 C1155 0.929 . S
S1159 N1160 1.613 . S
S1159 N1161 1.610 1_565 S
N1160 S1159 1.613 . S
N1160 C1163 1.350 . S
N1161 S1159 1.610 1_545 S
N1161 C1162 1.351 1_545 S
C1162 C1156 1.428 . S
C1162 N1161 1.351 1_565 S
C1162 C1163 1.434 . S
C1163 C1154 1.429 . S
C1163 N1160 1.350 . S
C1163 C1162 1.434 . S
C1164 C1165 1.369 . S
C1164 C1166 1.419 . S
C1164 H1168 0.930 . S
C1165 C1164 1.369 . S
C1165 C1174 1.429 . S
C1166 C1164 1.419 . S
C1166 C1167 1.363 . S
C1166 H1169 0.929 . S
C1167 C1166 1.363 . S
C1167 C1173 1.428 . S
H1168 C1164 0.930 . S
H1169 C1166 0.929 . S
S1170 N1171 1.613 . S
S1170 N1172 1.610 . S
N1171 S1170 1.613 . S
N1171 C1174 1.350 . S
N1172 S1170 1.610 . S
N1172 C1173 1.351 . S
C1173 C1167 1.428 . S
C1173 N1172 1.351 . S
C1173 C1174 1.434 . S
C1174 C1165 1.429 . S
C1174 N1171 1.350 . S
C1174 C1173 1.434 . S
C1175 C1176 1.369 . S
C1175 C1177 1.419 . S
C1175 H1179 0.930 . S
C1176 C1175 1.369 . S
C1176 C1185 1.429 . S
C1177 C1175 1.419 . S
C1177 C1178 1.363 . S
C1177 H1180 0.929 . S
C1178 C1177 1.363 . S
C1178 C1184 1.428 . S
H1179 C1175 0.930 . S
H1180 C1177 0.929 . S
S1181 N1182 1.613 . S
S1181 N1183 1.610 1_554 S
N1182 S1181 1.613 . S
N1182 C1185 1.350 1_554 S
N1183 S1181 1.610 1_556 S
N1183 C1184 1.351 . S
C1184 C1178 1.428 . S
C1184 N1183 1.351 . S
C1184 C1185 1.434 . S
C1185 C1176 1.429 . S
C1185 N1182 1.350 1_556 S
C1185 C1184 1.434 . S
C1186 C1187 1.369 . S
C1186 C1188 1.419 . S
C1186 H1190 0.930 . S
C1187 C1186 1.369 . S
C1187 C1196 1.429 . S
C1188 C1186 1.419 . S
C1188 C1189 1.363 . S
C1188 H1191 0.929 1_455 S
C1189 C1188 1.363 . S
C1189 C1195 1.428 . S
H1190 C1186 0.930 . S
H1191 C1188 0.929 1_655 S
S1192 N1193 1.613 . S
S1192 N1194 1.610 . S
N1193 S1192 1.613 . S
N1193 C1196 1.350 . S
N1194 S1192 1.610 . S
N1194 C1195 1.351 . S
C1195 C1189 1.428 . S
C1195 N1194 1.351 . S
C1195 C1196 1.434 . S
C1196 C1187 1.429 . S
C1196 N1193 1.350 . S
C1196 C1195 1.434 . S
C1197 C1198 1.369 . S
C1197 C1199 1.419 1_556 S
C1197 H1201 0.930 . S
C1198 C1197 1.369 . S
C1198 C1207 1.429 1_556 S
C1199 C1197 1.419 1_554 S
C1199 C1200 1.363 . S
C1199 H1202 0.929 . S
C1200 C1199 1.363 . S
C1200 C1206 1.428 . S
H1201 C1197 0.930 . S
H1202 C1199 0.929 . S
S1203 N1204 1.613 . S
S1203 N1205 1.610 . S
N1204 S1203 1.613 . S
N1204 C1207 1.350 . S
N1205 S1203 1.610 . S
N1205 C1206 1.351 . S
C1206 C1200 1.428 . S
C1206 N1205 1.351 . S
C1206 C1207 1.434 . S
C1207 C1198 1.429 1_554 S
C1207 N1204 1.350 . S
C1207 C1206 1.434 . S
C1208 C1209 1.369 . S
C1208 C1210 1.419 . S
C1208 H1212 0.930 . S
C1209 C1208 1.369 . S
C1209 C1218 1.429 . S
C1210 C1208 1.419 . S
C1210 C1211 1.363 . S
C1210 H1213 0.929 . S
C1211 C1210 1.363 . S
C1211 C1217 1.428 . S
H1212 C1208 0.930 . S
H1213 C1210 0.929 . S
S1214 N1215 1.613 . S
S1214 N1216 1.610 . S
N1215 S1214 1.613 . S
N1215 C1218 1.350 . S
N1216 S1214 1.610 . S
N1216 C1217 1.351 . S
C1217 C1211 1.428 . S
C1217 N1216 1.351 . S
C1217 C1218 1.434 . S
C1218 C1209 1.429 . S
C1218 N1215 1.350 . S
C1218 C1217 1.434 . S
C1219 C1220 1.369 . S
C1219 C1221 1.419 . S
C1219 H1223 0.930 . S
C1220 C1219 1.369 . S
C1220 C1229 1.429 . S
C1221 C1219 1.419 . S
C1221 C1222 1.363 . S
C1221 H1224 0.929 . S
C1222 C1221 1.363 . S
C1222 C1228 1.428 . S
H1223 C1219 0.930 . S
H1224 C1221 0.929 . S
S1225 N1226 1.613 . S
S1225 N1227 1.610 . S
N1226 S1225 1.613 . S
N1226 C1229 1.350 1_556 S
N1227 S1225 1.610 . S
N1227 C1228 1.351 1_556 S
C1228 C1222 1.428 . S
C1228 N1227 1.351 1_554 S
C1228 C1229 1.434 . S
C1229 C1220 1.429 . S
C1229 N1226 1.350 1_554 S
C1229 C1228 1.434 . S
C1230 C1231 1.369 . S
C1230 C1232 1.419 . S
C1230 H1234 0.930 . S
C1231 C1230 1.369 . S
C1231 C1240 1.429 . S
C1232 C1230 1.419 . S
C1232 C1233 1.363 . S
C1232 H1235 0.912 1_455 S
C1233 C1232 1.363 . S
C1233 C1239 1.428 . S
H1234 C1230 0.930 . S
H1235 C1232 0.912 1_655 S
S1236 N1237 1.613 . S
S1236 N1238 1.610 . S
N1237 S1236 1.613 . S
N1237 C1240 1.350 . S
N1238 S1236 1.610 . S
N1238 C1239 1.351 . S
C1239 C1233 1.428 . S
C1239 N1238 1.351 . S
C1239 C1240 1.434 . S
C1240 C1231 1.429 . S
C1240 N1237 1.350 . S
C1240 C1239 1.434 . S
C1241 C1242 1.369 . S
C1241 C1243 1.419 . S
C1241 H1245 0.930 . S
C1242 C1241 1.369 . S
C1242 C1251 1.429 . S
C1243 C1241 1.419 . S
C1243 C1244 1.363 . S
C1243 H1246 0.929 . S
C1244 C1243 1.363 . S
C1244 C1250 1.428 . S
H1245 C1241 0.930 . S
H1246 C1243 0.929 . S
S1247 N1248 1.613 . S
S1247 N1249 1.610 1_655 S
N1248 S1247 1.613 . S
N1248 C1251 1.350 . S
N1249 S1247 1.610 1_455 S
N1249 C1250 1.351 1_455 S
C1250 C1244 1.428 . S
C1250 N1249 1.351 1_655 S
C1250 C1251 1.434 . S
C1251 C1242 1.429 . S
C1251 N1248 1.350 . S
C1251 C1250 1.434 . S
C1252 C1253 1.369 . S
C1252 C1254 1.419 . S
C1252 H1256 0.930 . S
C1253 C1252 1.369 . S
C1253 C1262 1.429 . S
C1254 C1252 1.419 . S
C1254 C1255 1.363 . S
C1254 H1257 0.929 . S
C1255 C1254 1.363 . S
C1255 C1261 1.428 . S
H1256 C1252 0.930 . S
H1257 C1254 0.929 . S
S1258 N1259 1.613 . S
S1258 N1260 1.610 . S
N1259 S1258 1.613 . S
N1259 C1262 1.350 . S
N1260 S1258 1.610 . S
N1260 C1261 1.351 . S
C1261 C1255 1.428 . S
C1261 N1260 1.351 . S
C1261 C1262 1.434 . S
C1262 C1253 1.429 . S
C1262 N1259 1.350 . S
C1262 C1261 1.434 . S
C1263 C1264 1.369 . S
C1263 C1265 1.419 . S
C1263 H1267 0.930 . S
C1264 C1263 1.369 . S
C1264 C1273 1.429 . S
C1265 C1263 1.419 . S
C1265 C1266 1.363 . S
C1265 H1268 0.929 . S
C1266 C1265 1.363 . S
C1266 C1272 1.428 . S
H1267 C1263 0.930 . S
H1268 C1265 0.929 . S
S1269 N1270 1.613 . S
S1269 N1271 1.610 . S
N1270 S1269 1.613 . S
N1270 C1273 1.350 . S
N1271 S1269 1.610 . S
N1271 C1272 1.351 . S
C1272 C1266 1.428 . S
C1272 N1271 1.351 . S
C1272 C1273 1.434 . S
C1273 C1264 1.429 . S
C1273 N1270 1.350 . S
C1273 C1272 1.434 . S
C1274 C1275 1.369 . S
C1274 C1276 1.419 . S
C1274 H1278 0.930 . S
C1275 C1274 1.369 . S
C1275 C1284 1.429 . S
C1276 C1274 1.419 . S
C1276 C1277 1.363 . S
C1276 H1279 0.929 . S
C1277 C1276 1.363 . S
C1277 C1283 1.428 . S
H1278 C1274 0.930 . S
H1279 C1276 0.929 . S
S1280 N1281 1.613 . S
S1280 N1282 1.610 . S
N1281 S1280 1.613 . S
N1281 C1284 1.350 . S
N1282 S1280 1.610 . S
N1282 C1283 1.351 . S
C1283 C1277 1.428 . S
C1283 N1282 1.351 . S
C1283 C1284 1.434 . S
C1284 C1275 1.429 . S
C1284 N1281 1.350 . S
C1284 C1283 1.434 . S
C1285 C1286 1.369 . S
C1285 C1287 1.419 . S
C1285 H1289 0.930 . S
C1286 C1285 1.369 . S
C1286 C1295 1.429 . S
C1287 C1285 1.419 . S
C1287 C1288 1.363 . S
C1287 H1290 0.929 . S
C1288 C1287 1.363 . S
C1288 C1294 1.428 . S
H1289 C1285 0.930 . S
H1290 C1287 0.929 . S
S1291 N1292 1.613 . S
S1291 N1293 1.610 . S
N1292 S1291 1.613 . S
N1292 C1295 1.350 . S
N1293 S1291 1.610 . S
N1293 C1294 1.351 . S
C1294 C1288 1.428 . S
C1294 N1293 1.351 . S
C1294 C1295 1.434 . S
C1295 C1286 1.429 . S
C1295 N1292 1.350 . S
C1295 C1294 1.434 . S
C1296 C1297 1.369 . S
C1296 C1298 1.419 . S
C1296 H1300 0.930 . S
C1297 C1296 1.369 . S
C1297 C1306 1.429 . S
C1298 C1296 1.419 . S
C1298 C1299 1.363 . S
C1298 H1301 0.929 . S
C1299 C1298 1.363 . S
C1299 C1305 1.428 . S
H1300 C1296 0.930 . S
H1301 C1298 0.929 . S
S1302 N1303 1.613 . S
S1302 N1304 1.610 . S
N1303 S1302 1.613 . S
N1303 C1306 1.350 . S
N1304 S1302 1.610 . S
N1304 C1305 1.351 . S
C1305 C1299 1.428 . S
C1305 N1304 1.351 . S
C1305 C1306 1.434 . S
C1306 C1297 1.429 . S
C1306 N1303 1.350 . S
C1306 C1305 1.434 . S
C1307 C1308 1.369 . S
C1307 C1309 1.419 . S
C1307 H1311 0.930 . S
C1308 C1307 1.369 . S
C1308 C1317 1.429 . S
C1309 C1307 1.419 . S
C1309 C1310 1.363 . S
C1309 H1312 0.929 1_455 S
C1310 C1309 1.363 . S
C1310 C1316 1.428 . S
H1311 C1307 0.930 . S
H1312 C1309 0.929 1_655 S
S1313 N1314 1.613 . S
S1313 N1315 1.610 . S
N1314 S1313 1.613 . S
N1314 C1317 1.350 . S
N1315 S1313 1.610 . S
N1315 C1316 1.351 . S
C1316 C1310 1.428 . S
C1316 N1315 1.351 . S
C1316 C1317 1.434 . S
C1317 C1308 1.429 . S
C1317 N1314 1.350 . S
C1317 C1316 1.434 . S
C1318 C1319 1.369 . S
C1318 C1320 1.419 . S
C1318 H1322 0.930 . S
C1319 C1318 1.369 . S
C1319 C1328 1.429 . S
C1320 C1318 1.419 . S
C1320 C1321 1.363 . S
C1320 H1323 0.929 . S
C1321 C1320 1.363 . S
C1321 C1327 1.428 . S
H1322 C1318 0.930 . S
H1323 C1320 0.929 . S
S1324 N1325 1.613 . S
S1324 N1326 1.610 . S
N1325 S1324 1.613 . S
N1325 C1328 1.350 . S
N1326 S1324 1.610 . S
N1326 C1327 1.351 . S
C1327 C1321 1.428 . S
C1327 N1326 1.351 . S
C1327 C1328 1.434 . S
C1328 C1319 1.429 . S
C1328 N1325 1.350 . S
C1328 C1327 1.434 . S
C1329 C1330 1.369 . S
C1329 C1331 1.419 . S
C1329 H1333 0.930 . S
C1330 C1329 1.369 . S
C1330 C1339 1.429 . S
C1331 C1329 1.419 . S
C1331 C1332 1.363 . S
C1331 H1334 0.929 . S
C1332 C1331 1.363 . S
C1332 C1338 1.428 . S
H1333 C1329 0.930 . S
H1334 C1331 0.929 . S
S1335 N1336 1.613 . S
S1335 N1337 1.610 . S
N1336 S1335 1.613 . S
N1336 C1339 1.350 . S
N1337 S1335 1.610 . S
N1337 C1338 1.351 . S
C1338 C1332 1.428 . S
C1338 N1337 1.351 . S
C1338 C1339 1.434 . S
C1339 C1330 1.429 . S
C1339 N1336 1.350 . S
C1339 C1338 1.434 . S
C1340 C1341 1.369 . S
C1340 C1342 1.419 . S
C1340 H1344 0.930 . S
C1341 C1340 1.369 . S
C1341 C1350 1.429 . S
C1342 C1340 1.419 . S
C1342 C1343 1.363 . S
C1342 H1345 0.929 . S
C1343 C1342 1.363 . S
C1343 C1349 1.428 . S
H1344 C1340 0.930 . S
H1345 C1342 0.929 . S
S1346 N1347 1.613 . S
S1346 N1348 1.610 . S
N1347 S1346 1.613 . S
N1347 C1350 1.350 . S
N1348 S1346 1.610 . S
N1348 C1349 1.351 . S
C1349 C1343 1.428 . S
C1349 N1348 1.351 . S
C1349 C1350 1.434 . S
C1350 C1341 1.429 . S
C1350 N1347 1.350 . S
C1350 C1349 1.434 . S
C1351 C1352 1.369 . S
C1351 C1353 1.419 . S
C1351 H1355 0.930 . S
C1352 C1351 1.369 . S
C1352 C1361 1.429 . S
C1353 C1351 1.419 . S
C1353 C1354 1.363 . S
C1353 H1356 0.929 . S
C1354 C1353 1.363 . S
C1354 C1360 1.428 . S
H1355 C1351 0.930 . S
H1356 C1353 0.929 . S
S1357 N1358 1.613 . S
S1357 N1359 1.610 . S
N1358 S1357 1.613 . S
N1358 C1361 1.350 . S
N1359 S1357 1.610 . S
N1359 C1360 1.351 . S
C1360 C1354 1.428 . S
C1360 N1359 1.351 . S
C1360 C1361 1.434 . S
C1361 C1352 1.429 . S
C1361 N1358 1.350 . S
C1361 C1360 1.434 . S
C1362 C1363 1.369 . S
C1362 C1364 1.419 . S
C1362 H1366 0.930 . S
C1363 C1362 1.369 . S
C1363 C1372 1.429 . S
C1364 C1362 1.419 . S
C1364 C1365 1.363 . S
C1364 H1367 0.929 . S
C1365 C1364 1.363 . S
C1365 C1371 1.428 . S
H1366 C1362 0.930 . S
H1367 C1364 0.929 . S
S1368 N1369 1.613 . S
S1368 N1370 1.610 . S
N1369 S1368 1.613 . S
N1369 C1372 1.350 . S
N1370 S1368 1.610 . S
N1370 C1371 1.351 . S
C1371 C1365 1.428 . S
C1371 N1370 1.351 . S
C1371 C1372 1.434 . S
C1372 C1363 1.429 . S
C1372 N1369 1.350 . S
C1372 C1371 1.434 . S
C1373 C1374 1.369 . S
C1373 C1375 1.419 . S
C1373 H1377 0.930 . S
C1374 C1373 1.369 . S
C1374 C1383 1.429 . S
C1375 C1373 1.419 . S
C1375 C1376 1.363 . S
C1375 H1378 0.929 1_554 S
C1376 C1375 1.363 . S
C1376 C1382 1.428 . S
H1377 C1373 0.930 . S
H1378 C1375 0.929 1_556 S
S1379 N1380 1.613 . S
S1379 N1381 1.610 . S
N1380 S1379 1.613 . S
N1380 C1383 1.350 . S
N1381 S1379 1.610 . S
N1381 C1382 1.351 . S
C1382 C1376 1.428 . S
C1382 N1381 1.351 . S
C1382 C1383 1.434 . S
C1383 C1374 1.429 . S
C1383 N1380 1.350 . S
C1383 C1382 1.434 . S
C1384 C1385 1.369 . S
C1384 C1386 1.419 . S
C1384 H1388 0.930 . S
C1385 C1384 1.369 . S
C1385 C1394 1.429 . S
C1386 C1384 1.419 . S
C1386 C1387 1.363 . S
C1386 H1389 0.929 . S
C1387 C1386 1.363 . S
C1387 C1393 1.428 . S
H1388 C1384 0.930 . S
H1389 C1386 0.929 . S
S1390 N1391 1.613 . S
S1390 N1392 1.610 . S
N1391 S1390 1.613 . S
N1391 C1394 1.350 . S
N1392 S1390 1.610 . S
N1392 C1393 1.351 . S
C1393 C1387 1.428 . S
C1393 N1392 1.351 . S
C1393 C1394 1.434 . S
C1394 C1385 1.429 . S
C1394 N1391 1.350 . S
C1394 C1393 1.434 . S
C1395 C1396 1.369 . S
C1395 C1397 1.419 . S
C1395 H1399 0.930 . S
C1396 C1395 1.369 . S
C1396 C1405 1.429 . S
C1397 C1395 1.419 . S
C1397 C1398 1.363 . S
C1397 H1400 0.929 . S
C1398 C1397 1.363 . S
C1398 C1404 1.428 . S
H1399 C1395 0.930 . S
H1400 C1397 0.929 . S
S1401 N1402 1.613 . S
S1401 N1403 1.610 . S
N1402 S1401 1.613 . S
N1402 C1405 1.350 . S
N1403 S1401 1.610 . S
N1403 C1404 1.351 . S
C1404 C1398 1.428 . S
C1404 N1403 1.351 . S
C1404 C1405 1.434 . S
C1405 C1396 1.429 . S
C1405 N1402 1.350 . S
C1405 C1404 1.434 . S
C1406 C1407 1.369 . S
C1406 C1408 1.419 . S
C1406 H1410 0.930 . S
C1407 C1406 1.369 . S
C1407 C1416 1.429 . S
C1408 C1406 1.419 . S
C1408 C1409 1.363 . S
C1408 H1411 0.929 . S
C1409 C1408 1.363 . S
C1409 C1415 1.428 . S
H1410 C1406 0.930 . S
H1411 C1408 0.929 . S
S1412 N1413 1.613 . S
S1412 N1414 1.610 . S
N1413 S1412 1.613 . S
N1413 C1416 1.350 . S
N1414 S1412 1.610 . S
N1414 C1415 1.351 . S
C1415 C1409 1.428 . S
C1415 N1414 1.351 . S
C1415 C1416 1.434 . S
C1416 C1407 1.429 . S
C1416 N1413 1.350 . S
C1416 C1415 1.434 . S
C1417 C1418 1.369 . S
C1417 C1419 1.419 . S
C1417 H1421 0.930 . S
C1418 C1417 1.369 . S
C1418 C1427 1.429 . S
C1419 C1417 1.419 . S
C1419 C1420 1.363 . S
C1419 H1422 0.929 . S
C1420 C1419 1.363 . S
C1420 C1426 1.428 . S
H1421 C1417 0.930 . S
H1422 C1419 0.929 . S
S1423 N1424 1.613 . S
S1423 N1425 1.610 . S
N1424 S1423 1.613 . S
N1424 C1427 1.350 1_554 S
N1425 S1423 1.610 . S
N1425 C1426 1.351 1_554 S
C1426 C1420 1.428 . S
C1426 N1425 1.351 1_556 S
C1426 C1427 1.434 . S
C1427 C1418 1.429 . S
C1427 N1424 1.350 1_556 S
C1427 C1426 1.434 . S
C1428 C1429 1.369 . S
C1428 C1430 1.419 . S
C1428 H1432 0.930 . S
C1429 C1428 1.369 . S
C1429 C1438 1.429 . S
C1430 C1428 1.419 . S
C1430 C1431 1.363 . S
C1430 H1433 0.929 . S
C1431 C1430 1.363 . S
C1431 C1437 1.428 . S
H1432 C1428 0.930 . S
H1433 C1430 0.929 . S
S1434 N1435 1.613 . S
S1434 N1436 1.610 . S
N1435 S1434 1.613 . S
N1435 C1438 1.350 . S
N1436 S1434 1.610 . S
N1436 C1437 1.351 . S
C1437 C1431 1.428 . S
C1437 N1436 1.351 . S
C1437 C1438 1.434 . S
C1438 C1429 1.429 . S
C1438 N1435 1.350 . S
C1438 C1437 1.434 . S
C1439 C1440 1.369 . S
C1439 C1441 1.419 . S
C1439 H1443 0.930 . S
C1440 C1439 1.369 . S
C1440 C1449 1.429 . S
C1441 C1439 1.419 . S
C1441 C1442 1.363 . S
C1441 H1444 0.929 . S
C1442 C1441 1.363 . S
C1442 C1448 1.428 . S
H1443 C1439 0.930 . S
H1444 C1441 0.929 . S
S1445 N1446 1.613 . S
S1445 N1447 1.610 . S
N1446 S1445 1.613 . S
N1446 C1449 1.350 . S
N1447 S1445 1.610 . S
N1447 C1448 1.351 . S
C1448 C1442 1.428 . S
C1448 N1447 1.351 . S
C1448 C1449 1.434 . S
C1449 C1440 1.429 . S
C1449 N1446 1.350 . S
C1449 C1448 1.434 . S
C1450 C1451 1.369 . S
C1450 C1452 1.419 . S
C1450 H1454 0.930 . S
C1451 C1450 1.369 . S
C1451 C1460 1.429 . S
C1452 C1450 1.419 . S
C1452 C1453 1.363 . S
C1452 H1455 0.929 . S
C1453 C1452 1.363 . S
C1453 C1459 1.428 . S
H1454 C1450 0.930 . S
H1455 C1452 0.929 . S
S1456 N1457 1.613 . S
S1456 N1458 1.610 . S
N1457 S1456 1.613 . S
N1457 C1460 1.350 . S
N1458 S1456 1.610 . S
N1458 C1459 1.351 . S
C1459 C1453 1.428 . S
C1459 N1458 1.351 . S
C1459 C1460 1.434 . S
C1460 C1451 1.429 . S
C1460 N1457 1.350 . S
C1460 C1459 1.434 . S
C1461 C1462 1.369 . S
C1461 C1463 1.419 . S
C1461 H1465 0.930 . S
C1462 C1461 1.369 . S
C1462 C1471 1.429 . S
C1463 C1461 1.419 . S
C1463 C1464 1.363 . S
C1463 H1466 0.929 . S
C1464 C1463 1.363 . S
C1464 C1470 1.428 . S
H1465 C1461 0.930 . S
H1466 C1463 0.929 . S
S1467 N1468 1.613 . S
S1467 N1469 1.610 . S
N1468 S1467 1.613 . S
N1468 C1471 1.350 . S
N1469 S1467 1.610 . S
N1469 C1470 1.351 . S
C1470 C1464 1.428 . S
C1470 N1469 1.351 . S
C1470 C1471 1.434 . S
C1471 C1462 1.429 . S
C1471 N1468 1.350 . S
C1471 C1470 1.434 . S
C1472 C1473 1.369 . S
C1472 C1474 1.419 . S
C1472 H1476 0.930 . S
C1473 C1472 1.369 . S
C1473 C1482 1.429 . S
C1474 C1472 1.419 . S
C1474 C1475 1.363 . S
C1474 H1477 0.929 . S
C1475 C1474 1.363 . S
C1475 C1481 1.428 . S
H1476 C1472 0.930 . S
H1477 C1474 0.929 . S
S1478 N1479 1.613 . S
S1478 N1480 1.610 . S
N1479 S1478 1.613 . S
N1479 C1482 1.350 . S
N1480 S1478 1.610 . S
N1480 C1481 1.351 . S
C1481 C1475 1.428 . S
C1481 N1480 1.351 . S
C1481 C1482 1.434 . S
C1482 C1473 1.429 . S
C1482 N1479 1.350 . S
C1482 C1481 1.434 . S
C1483 C1484 1.369 . S
C1483 C1485 1.419 . S
C1483 H1487 0.930 . S
C1484 C1483 1.369 . S
C1484 C1493 1.429 . S
C1485 C1483 1.419 . S
C1485 C1486 1.363 . S
C1485 H1488 0.929 . S
C1486 C1485 1.363 . S
C1486 C1492 1.428 . S
H1487 C1483 0.930 . S
H1488 C1485 0.929 . S
S1489 N1490 1.613 . S
S1489 N1491 1.610 . S
N1490 S1489 1.613 . S
N1490 C1493 1.350 . S
N1491 S1489 1.610 . S
N1491 C1492 1.351 . S
C1492 C1486 1.428 . S
C1492 N1491 1.351 . S
C1492 C1493 1.434 . S
C1493 C1484 1.429 . S
C1493 N1490 1.350 . S
C1493 C1492 1.434 . S
C1494 C1495 1.369 . S
C1494 C1496 1.419 . S
C1494 H1498 0.930 . S
C1495 C1494 1.369 . S
C1495 C1504 1.429 . S
C1496 C1494 1.419 . S
C1496 C1497 1.363 . S
C1496 H1499 0.929 . S
C1497 C1496 1.363 . S
C1497 C1503 1.428 . S
H1498 C1494 0.930 . S
H1499 C1496 0.929 . S
S1500 N1501 1.613 . S
S1500 N1502 1.610 . S
N1501 S1500 1.613 . S
N1501 C1504 1.350 . S
N1502 S1500 1.610 . S
N1502 C1503 1.351 . S
C1503 C1497 1.428 . S
C1503 N1502 1.351 . S
C1503 C1504 1.434 . S
C1504 C1495 1.429 . S
C1504 N1501 1.350 . S
C1504 C1503 1.434 . S
C1505 C1506 1.369 . S
C1505 C1507 1.419 . S
C1505 H1509 0.930 . S
C1506 C1505 1.369 . S
C1506 C1515 1.429 . S
C1507 C1505 1.419 . S
C1507 C1508 1.363 . S
C1507 H1510 0.929 . S
C1508 C1507 1.363 . S
C1508 C1514 1.428 . S
H1509 C1505 0.930 . S
H1510 C1507 0.929 . S
S1511 N1512 1.613 . S
S1511 N1513 1.610 . S
N1512 S1511 1.613 . S
N1512 C1515 1.350 . S
N1513 S1511 1.610 . S
N1513 C1514 1.351 . S
C1514 C1508 1.428 . S
C1514 N1513 1.351 . S
C1514 C1515 1.434 . S
C1515 C1506 1.429 . S
C1515 N1512 1.350 . S
C1515 C1514 1.434 . S
C1516 C1517 1.369 . S
C1516 C1518 1.419 . S
C1516 H1520 0.930 . S
C1517 C1516 1.369 . S
C1517 C1526 1.429 . S
C1518 C1516 1.419 . S
C1518 C1519 1.363 . S
C1518 H1521 0.929 . S
C1519 C1518 1.363 . S
C1519 C1525 1.428 . S
H1520 C1516 0.930 . S
H1521 C1518 0.929 . S
S1522 N1523 1.613 . S
S1522 N1524 1.610 . S
N1523 S1522 1.613 . S
N1523 C1526 1.350 . S
N1524 S1522 1.610 . S
N1524 C1525 1.351 . S
C1525 C1519 1.428 . S
C1525 N1524 1.351 . S
C1525 C1526 1.434 . S
C1526 C1517 1.429 . S
C1526 N1523 1.350 . S
C1526 C1525 1.434 . S
C1527 C1528 1.369 . S
C1527 C1529 1.419 . S
C1527 H1531 0.930 . S
C1528 C1527 1.369 . S
C1528 C1537 1.429 . S
C1529 C1527 1.419 . S
C1529 C1530 1.363 . S
C1529 H1532 0.929 . S
C1530 C1529 1.363 . S
C1530 C1536 1.428 . S
H1531 C1527 0.930 . S
H1532 C1529 0.929 . S
S1533 N1534 1.613 . S
S1533 N1535 1.610 . S
N1534 S1533 1.613 . S
N1534 C1537 1.350 . S
N1535 S1533 1.610 . S
N1535 C1536 1.351 . S
C1536 C1530 1.428 . S
C1536 N1535 1.351 . S
C1536 C1537 1.434 . S
C1537 C1528 1.429 . S
C1537 N1534 1.350 . S
C1537 C1536 1.434 . S
C1538 C1539 1.369 . S
C1538 C1540 1.419 . S
C1538 H1542 0.930 . S
C1539 C1538 1.369 . S
C1539 C1548 1.429 . S
C1540 C1538 1.419 . S
C1540 C1541 1.363 . S
C1540 H1543 0.929 . S
C1541 C1540 1.363 . S
C1541 C1547 1.428 . S
H1542 C1538 0.930 . S
H1543 C1540 0.929 . S
S1544 N1545 1.613 . S
S1544 N1546 1.610 . S
N1545 S1544 1.613 . S
N1545 C1548 1.350 . S
N1546 S1544 1.610 . S
N1546 C1547 1.351 . S
C1547 C1541 1.428 . S
C1547 N1546 1.351 . S
C1547 C1548 1.434 . S
C1548 C1539 1.429 . S
C1548 N1545 1.350 . S
C1548 C1547 1.434 . S
C1549 C1550 1.369 . S
C1549 C1551 1.419 . S
C1549 H1553 0.930 . S
C1550 C1549 1.369 . S
C1550 C1559 1.429 . S
C1551 C1549 1.419 . S
C1551 C1552 1.363 . S
C1551 H1554 0.929 . S
C1552 C1551 1.363 . S
C1552 C1558 1.428 . S
H1553 C1549 0.930 . S
H1554 C1551 0.929 . S
S1555 N1556 1.613 . S
S1555 N1557 1.610 . S
N1556 S1555 1.613 . S
N1556 C1559 1.350 . S
N1557 S1555 1.610 . S
N1557 C1558 1.351 . S
C1558 C1552 1.428 . S
C1558 N1557 1.351 . S
C1558 C1559 1.434 . S
C1559 C1550 1.429 . S
C1559 N1556 1.350 . S
C1559 C1558 1.434 . S
C1560 C1561 1.369 . S
C1560 C1562 1.419 . S
C1560 H1564 0.930 . S
C1561 C1560 1.369 . S
C1561 C1570 1.429 . S
C1562 C1560 1.419 . S
C1562 C1563 1.363 . S
C1562 H1565 0.929 . S
C1563 C1562 1.363 . S
C1563 C1569 1.428 . S
H1564 C1560 0.930 . S
H1565 C1562 0.929 . S
S1566 N1567 1.613 . S
S1566 N1568 1.610 . S
N1567 S1566 1.613 . S
N1567 C1570 1.350 . S
N1568 S1566 1.610 . S
N1568 C1569 1.351 . S
C1569 C1563 1.428 . S
C1569 N1568 1.351 . S
C1569 C1570 1.434 . S
C1570 C1561 1.429 . S
C1570 N1567 1.350 . S
C1570 C1569 1.434 . S
C1571 C1572 1.369 . S
C1571 C1573 1.419 . S
C1571 H1575 0.930 . S
C1572 C1571 1.369 . S
C1572 C1581 1.429 . S
C1573 C1571 1.419 . S
C1573 C1574 1.363 . S
C1573 H1576 0.929 . S
C1574 C1573 1.363 . S
C1574 C1580 1.428 . S
H1575 C1571 0.930 . S
H1576 C1573 0.929 . S
S1577 N1578 1.613 . S
S1577 N1579 1.610 . S
N1578 S1577 1.613 . S
N1578 C1581 1.350 . S
N1579 S1577 1.610 . S
N1579 C1580 1.351 . S
C1580 C1574 1.428 . S
C1580 N1579 1.351 . S
C1580 C1581 1.434 . S
C1581 C1572 1.429 . S
C1581 N1578 1.350 . S
C1581 C1580 1.434 . S
C1582 C1583 1.369 . S
C1582 C1584 1.419 . S
C1582 H1586 0.930 . S
C1583 C1582 1.369 . S
C1583 C1592 1.429 . S
C1584 C1582 1.419 . S
C1584 C1585 1.363 . S
C1584 H1587 0.929 . S
C1585 C1584 1.363 . S
C1585 C1591 1.428 . S
H1586 C1582 0.930 . S
H1587 C1584 0.929 . S
S1588 N1589 1.613 . S
S1588 N1590 1.610 . S
N1589 S1588 1.613 . S
N1589 C1592 1.350 . S
N1590 S1588 1.610 . S
N1590 C1591 1.351 . S
C1591 C1585 1.428 . S
C1591 N1590 1.351 . S
C1591 C1592 1.434 . S
C1592 C1583 1.429 . S
C1592 N1589 1.350 . S
C1592 C1591 1.434 . S
C1593 C1594 1.369 . S
C1593 C1595 1.419 . S
C1593 H1597 0.930 . S
C1594 C1593 1.369 . S
C1594 C1603 1.429 . S
C1595 C1593 1.419 . S
C1595 C1596 1.363 . S
C1595 H1598 0.929 . S
C1596 C1595 1.363 . S
C1596 C1602 1.428 . S
H1597 C1593 0.930 . S
H1598 C1595 0.929 . S
S1599 N1600 1.613 . S
S1599 N1601 1.610 . S
N1600 S1599 1.613 . S
N1600 C1603 1.350 . S
N1601 S1599 1.610 . S
N1601 C1602 1.351 . S
C1602 C1596 1.428 . S
C1602 N1601 1.351 . S
C1602 C1603 1.434 . S
C1603 C1594 1.429 . S
C1603 N1600 1.350 . S
C1603 C1602 1.434 . S
C1604 C1605 1.369 . S
C1604 C1606 1.419 . S
C1604 H1608 0.930 . S
C1605 C1604 1.369 . S
C1605 C1614 1.429 . S
C1606 C1604 1.419 . S
C1606 C1607 1.363 . S
C1606 H1609 0.929 . S
C1607 C1606 1.363 . S
C1607 C1613 1.428 . S
H1608 C1604 0.930 . S
H1609 C1606 0.929 . S
S1610 N1611 1.613 . S
S1610 N1612 1.610 . S
N1611 S1610 1.613 . S
N1611 C1614 1.350 . S
N1612 S1610 1.610 . S
N1612 C1613 1.351 . S
C1613 C1607 1.428 . S
C1613 N1612 1.351 . S
C1613 C1614 1.434 . S
C1614 C1605 1.429 . S
C1614 N1611 1.350 . S
C1614 C1613 1.434 . S
C1615 C1616 1.369 . S
C1615 C1617 1.419 . S
C1615 H1619 0.930 . S
C1616 C1615 1.369 . S
C1616 C1625 1.429 . S
C1617 C1615 1.419 . S
C1617 C1618 1.363 . S
C1617 H1620 0.929 . S
C1618 C1617 1.363 . S
C1618 C1624 1.428 . S
H1619 C1615 0.930 . S
H1620 C1617 0.929 . S
S1621 N1622 1.613 . S
S1621 N1623 1.610 . S
N1622 S1621 1.613 . S
N1622 C1625 1.350 . S
N1623 S1621 1.610 . S
N1623 C1624 1.351 . S
C1624 C1618 1.428 . S
C1624 N1623 1.351 . S
C1624 C1625 1.434 . S
C1625 C1616 1.429 . S
C1625 N1622 1.350 . S
C1625 C1624 1.434 . S
C1626 C1627 1.369 . S
C1626 C1628 1.419 . S
C1626 H1630 0.930 . S
C1627 C1626 1.369 . S
C1627 C1636 1.429 . S
C1628 C1626 1.419 . S
C1628 C1629 1.363 . S
C1628 H1631 0.929 . S
C1629 C1628 1.363 . S
C1629 C1635 1.428 . S
H1630 C1626 0.930 . S
H1631 C1628 0.929 . S
S1632 N1633 1.613 . S
S1632 N1634 1.610 . S
N1633 S1632 1.613 . S
N1633 C1636 1.350 . S
N1634 S1632 1.610 . S
N1634 C1635 1.351 . S
C1635 C1629 1.428 . S
C1635 N1634 1.351 . S
C1635 C1636 1.434 . S
C1636 C1627 1.429 . S
C1636 N1633 1.350 . S
C1636 C1635 1.434 . S
C1637 C1638 1.369 . S
C1637 C1639 1.419 . S
C1637 H1641 0.930 . S
C1638 C1637 1.369 . S
C1638 C1647 1.429 . S
C1639 C1637 1.419 . S
C1639 C1640 1.363 . S
C1639 H1642 0.929 . S
C1640 C1639 1.363 . S
C1640 C1646 1.428 . S
H1641 C1637 0.930 . S
H1642 C1639 0.929 . S
S1643 N1644 1.613 . S
S1643 N1645 1.610 . S
N1644 S1643 1.613 . S
N1644 C1647 1.350 . S
N1645 S1643 1.610 . S
N1645 C1646 1.351 . S
C1646 C1640 1.428 . S
C1646 N1645 1.351 . S
C1646 C1647 1.434 . S
C1647 C1638 1.429 . S
C1647 N1644 1.350 . S
C1647 C1646 1.434 . S
C1648 C1649 1.369 . S
C1648 C1650 1.419 . S
C1648 H1652 0.930 . S
C1649 C1648 1.369 . S
C1649 C1658 1.429 . S
C1650 C1648 1.419 . S
C1650 C1651 1.363 . S
C1650 H1653 0.929 . S
C1651 C1650 1.363 . S
C1651 C1657 1.428 . S
H1652 C1648 0.930 . S
H1653 C1650 0.929 . S
S1654 N1655 1.613 . S
S1654 N1656 1.610 . S
N1655 S1654 1.613 . S
N1655 C1658 1.350 . S
N1656 S1654 1.610 . S
N1656 C1657 1.351 . S
C1657 C1651 1.428 . S
C1657 N1656 1.351 . S
C1657 C1658 1.434 . S
C1658 C1649 1.429 . S
C1658 N1655 1.350 . S
C1658 C1657 1.434 . S
C1659 C1660 1.369 . S
C1659 C1661 1.419 . S
C1659 H1663 0.930 . S
C1660 C1659 1.369 . S
C1660 C1669 1.429 . S
C1661 C1659 1.419 . S
C1661 C1662 1.363 . S
C1661 H1664 0.929 . S
C1662 C1661 1.363 . S
C1662 C1668 1.428 . S
H1663 C1659 0.930 . S
H1664 C1661 0.929 . S
S1665 N1666 1.613 . S
S1665 N1667 1.610 . S
N1666 S1665 1.613 . S
N1666 C1669 1.350 . S
N1667 S1665 1.610 . S
N1667 C1668 1.351 . S
C1668 C1662 1.428 . S
C1668 N1667 1.351 . S
C1668 C1669 1.434 . S
C1669 C1660 1.429 . S
C1669 N1666 1.350 . S
C1669 C1668 1.434 . S
C1670 C1671 1.369 . S
C1670 C1672 1.419 . S
C1670 H1674 0.930 . S
C1671 C1670 1.369 . S
C1671 C1680 1.429 . S
C1672 C1670 1.419 . S
C1672 C1673 1.363 . S
C1672 H1675 0.929 . S
C1673 C1672 1.363 . S
C1673 C1679 1.428 . S
H1674 C1670 0.930 . S
H1675 C1672 0.929 . S
S1676 N1677 1.613 . S
S1676 N1678 1.610 . S
N1677 S1676 1.613 . S
N1677 C1680 1.350 . S
N1678 S1676 1.610 . S
N1678 C1679 1.351 . S
C1679 C1673 1.428 . S
C1679 N1678 1.351 . S
C1679 C1680 1.434 . S
C1680 C1671 1.429 . S
C1680 N1677 1.350 . S
C1680 C1679 1.434 . S
C1681 C1682 1.369 . S
C1681 C1683 1.419 . S
C1681 H1685 0.930 . S
C1682 C1681 1.369 . S
C1682 C1691 1.429 . S
C1683 C1681 1.419 . S
C1683 C1684 1.363 . S
C1683 H1686 0.929 . S
C1684 C1683 1.363 . S
C1684 C1690 1.428 . S
H1685 C1681 0.930 . S
H1686 C1683 0.929 . S
S1687 N1688 1.613 . S
S1687 N1689 1.610 . S
N1688 S1687 1.613 . S
N1688 C1691 1.350 . S
N1689 S1687 1.610 . S
N1689 C1690 1.351 . S
C1690 C1684 1.428 . S
C1690 N1689 1.351 . S
C1690 C1691 1.434 . S
C1691 C1682 1.429 . S
C1691 N1688 1.350 . S
C1691 C1690 1.434 . S
C1692 C1693 1.369 . S
C1692 C1694 1.419 . S
C1692 H1696 0.930 . S
C1693 C1692 1.369 . S
C1693 C1702 1.429 . S
C1694 C1692 1.419 . S
C1694 C1695 1.363 . S
C1694 H1697 0.929 . S
C1695 C1694 1.363 . S
C1695 C1701 1.428 . S
H1696 C1692 0.930 . S
H1697 C1694 0.929 . S
S1698 N1699 1.613 . S
S1698 N1700 1.610 . S
N1699 S1698 1.613 . S
N1699 C1702 1.350 . S
N1700 S1698 1.610 . S
N1700 C1701 1.351 . S
C1701 C1695 1.428 . S
C1701 N1700 1.351 . S
C1701 C1702 1.434 . S
C1702 C1693 1.429 . S
C1702 N1699 1.350 . S
C1702 C1701 1.434 . S
C1703 C1704 1.369 . S
C1703 C1705 1.419 . S
C1703 H1707 0.930 . S
C1704 C1703 1.369 . S
C1704 C1713 1.429 . S
C1705 C1703 1.419 . S
C1705 C1706 1.363 . S
C1705 H1708 0.929 . S
C1706 C1705 1.363 . S
C1706 C1712 1.428 . S
H1707 C1703 0.930 . S
H1708 C1705 0.929 . S
S1709 N1710 1.613 . S
S1709 N1711 1.610 . S
N1710 S1709 1.613 . S
N1710 C1713 1.350 . S
N1711 S1709 1.610 . S
N1711 C1712 1.351 . S
C1712 C1706 1.428 . S
C1712 N1711 1.351 . S
C1712 C1713 1.434 . S
C1713 C1704 1.429 . S
C1713 N1710 1.350 . S
C1713 C1712 1.434 . S
C1714 C1715 1.369 . S
C1714 C1716 1.419 . S
C1714 H1718 0.930 . S
C1715 C1714 1.369 . S
C1715 C1724 1.429 . S
C1716 C1714 1.419 . S
C1716 C1717 1.363 . S
C1716 H1719 0.929 . S
C1717 C1716 1.363 . S
C1717 C1723 1.428 . S
H1718 C1714 0.930 . S
H1719 C1716 0.929 . S
S1720 N1721 1.613 . S
S1720 N1722 1.610 . S
N1721 S1720 1.613 . S
N1721 C1724 1.350 . S
N1722 S1720 1.610 . S
N1722 C1723 1.351 . S
C1723 C1717 1.428 . S
C1723 N1722 1.351 . S
C1723 C1724 1.434 . S
C1724 C1715 1.429 . S
C1724 N1721 1.350 . S
C1724 C1723 1.434 . S
C1725 C1726 1.369 . S
C1725 C1727 1.419 . S
C1725 H1729 0.930 . S
C1726 C1725 1.369 . S
C1726 C1735 1.429 . S
C1727 C1725 1.419 . S
C1727 C1728 1.363 . S
C1727 H1730 0.929 . S
C1728 C1727 1.363 . S
C1728 C1734 1.428 . S
H1729 C1725 0.930 . S
H1730 C1727 0.929 . S
S1731 N1732 1.613 . S
S1731 N1733 1.610 . S
N1732 S1731 1.613 . S
N1732 C1735 1.350 . S
N1733 S1731 1.610 . S
N1733 C1734 1.351 . S
C1734 C1728 1.428 . S
C1734 N1733 1.351 . S
C1734 C1735 1.434 . S
C1735 C1726 1.429 . S
C1735 N1732 1.350 . S
C1735 C1734 1.434 . S
C1736 C1737 1.369 . S
C1736 C1738 1.419 . S
C1736 H1740 0.930 . S
C1737 C1736 1.369 . S
C1737 C1746 1.429 . S
C1738 C1736 1.419 . S
C1738 C1739 1.363 . S
C1738 H1741 0.929 . S
C1739 C1738 1.363 . S
C1739 C1745 1.428 . S
H1740 C1736 0.930 . S
H1741 C1738 0.929 . S
S1742 N1743 1.613 . S
S1742 N1744 1.610 . S
N1743 S1742 1.613 . S
N1743 C1746 1.350 . S
N1744 S1742 1.610 . S
N1744 C1745 1.351 . S
C1745 C1739 1.428 . S
C1745 N1744 1.351 . S
C1745 C1746 1.434 . S
C1746 C1737 1.429 . S
C1746 N1743 1.350 . S
C1746 C1745 1.434 . S
C1747 C1748 1.369 . S
C1747 C1749 1.419 . S
C1747 H1751 0.930 . S
C1748 C1747 1.369 . S
C1748 C1757 1.429 . S
C1749 C1747 1.419 . S
C1749 C1750 1.363 . S
C1749 H1752 0.929 . S
C1750 C1749 1.363 . S
C1750 C1756 1.428 . S
H1751 C1747 0.930 . S
H1752 C1749 0.929 . S
S1753 N1754 1.613 . S
S1753 N1755 1.610 . S
N1754 S1753 1.613 . S
N1754 C1757 1.350 . S
N1755 S1753 1.610 . S
N1755 C1756 1.351 . S
C1756 C1750 1.428 . S
C1756 N1755 1.351 . S
C1756 C1757 1.434 . S
C1757 C1748 1.429 . S
C1757 N1754 1.350 . S
C1757 C1756 1.434 . S
C1758 C1759 1.369 . S
C1758 C1760 1.419 . S
C1758 H1762 0.930 . S
C1759 C1758 1.369 . S
C1759 C1768 1.429 . S
C1760 C1758 1.419 . S
C1760 C1761 1.363 . S
C1760 H1763 0.929 1_565 S
C1761 C1760 1.363 . S
C1761 C1767 1.428 . S
H1762 C1758 0.930 . S
H1763 C1760 0.929 1_545 S
S1764 N1765 1.613 . S
S1764 N1766 1.610 . S
N1765 S1764 1.613 . S
N1765 C1768 1.350 . S
N1766 S1764 1.610 . S
N1766 C1767 1.351 . S
C1767 C1761 1.428 . S
C1767 N1766 1.351 . S
C1767 C1768 1.434 . S
C1768 C1759 1.429 . S
C1768 N1765 1.350 . S
C1768 C1767 1.434 . S
C1769 C1770 1.369 . S
C1769 C1771 1.419 . S
C1769 H1773 0.930 . S
C1770 C1769 1.369 . S
C1770 C1779 1.429 . S
C1771 C1769 1.419 . S
C1771 C1772 1.363 . S
C1771 H1774 0.929 . S
C1772 C1771 1.363 . S
C1772 C1778 1.428 . S
H1773 C1769 0.930 . S
H1774 C1771 0.929 . S
S1775 N1776 1.613 . S
S1775 N1777 1.610 . S
N1776 S1775 1.613 . S
N1776 C1779 1.350 . S
N1777 S1775 1.610 . S
N1777 C1778 1.351 . S
C1778 C1772 1.428 . S
C1778 N1777 1.351 . S
C1778 C1779 1.434 . S
C1779 C1770 1.429 . S
C1779 N1776 1.350 . S
C1779 C1778 1.434 . S
C727 C376 1.183 . S
C725 C226 1.371 . S
C738 C384 1.276 . S
C736 C269 1.389 . S
C749 C379 1.348 . S
C747 C250 1.525 . S
C758 C205 1.646 . S
C760 C383 1.536 . S
C771 C438 1.375 . S
C769 C115 1.643 . S
C780 C136 1.337 . S
C782 C414 1.232 . S
C793 C441 1.242 . S
C791 C158 1.368 . S
C802 C97 1.736 . S
C804 C415 1.591 . S
C813 C314 1.825 . S
C815 C472 1.629 . S
C824 C336 1.521 . S
C826 C476 1.394 . S
C837 C531 1.107 . S
C835 C180 1.308 . S
C848 C539 1.619 . S
C846 C294 1.767 . S
C859 C469 1.151 . S
C857 C70 1.353 . S
C870 C477 1.540 1_545 S
C868 C6 1.676 . S
C879 C31 1.770 . S
C881 C534 1.598 . S
C890 C53 1.620 . S
C892 C538 1.498 . S
C901 C29 1.579 . S
C903 C503 1.381 . S
C914 C593 1.224 . S
C912 C181 1.453 . S
C923 C293 1.655 . S
C925 C601 1.533 . S
C936 C655 1.273 . S
C934 C312 1.567 . S
C945 C137 1.504 . S
C947 C507 1.404 1_655 S
C958 C596 1.243 . S
C956 C225 1.406 . S
C969 C600 1.477 . S
C967 C270 1.576 . S
C980 C663 1.434 . S
C978 C206 1.548 . S
C989 C72 1.372 . S
C991 C407 1.174 . S
C1000 C4 1.398 . S
C1002 C353 1.264 1_554 S
C1013 C410 1.345 . S
C1011 C30 1.527 . S
C1022 C51 1.653 . S
C1024 C352 1.544 . S
C1033 C313 1.643 . S
C1035 C717 1.373 . S
C1044 C334 1.331 . S
C1046 C693 1.239 1_556 S
C1057 C720 1.242 . S
C1055 C182 1.372 . S
C1066 C295 1.734 . S
C1068 C694 1.594 1_556 S
C1077 C116 1.825 . S
C1079 C627 1.634 . S
C1090 C631 1.395 . S
C1088 C138 1.522 . S
C1101 C686 1.099 . S
C1099 C159 1.306 . S
C1112 C570 1.619 1_565 S
C1110 C96 1.766 . S
C1123 C624 1.152 . S
C1121 C224 1.353 . S
C1132 C268 1.675 . S
C1134 C632 1.547 . S
C1143 C251 1.767 . S
C1145 C689 1.596 . S
C1156 C569 1.503 1_565 S
C1154 C207 1.617 . S
C1165 C249 1.585 . S
C1167 C658 1.374 . S
C1178 C562 1.211 . S
C1176 C160 1.454 . S
C1187 C95 1.660 . S
C1189 C446 1.526 1_455 S
C1198 C114 1.559 . S
C1200 C500 1.283 . S
C1209 C335 1.506 . S
C1211 C662 1.402 . S
C1220 C71 1.405 . S
C1222 C565 1.242 . S
C1231 C5 1.582 . S
C1233 C445 1.470 1_455 S
C1244 C508 1.441 1_655 S
C1242 C52 1.543 . S
C1255 C363 1.710 . S
C1253 C339 1.739 . S
C1266 C393 1.830 . S
C1264 C184 1.863 . S
C1277 C370 1.810 . S
C1275 C290 1.696 . S
C1288 C385 2.029 . S
C1286 C317 1.915 . S
C1299 C425 1.657 . S
C1297 C204 1.680 . S
C1308 C228 2.005 . S
C1310 C416 2.102 . S
C1319 C272 1.782 . S
C1321 C432 1.909 . S
C1330 C248 1.995 . S
C1332 C424 1.977 . S
C1343 C463 1.579 . S
C1341 C49 1.467 . S
C1354 C486 1.737 . S
C1352 C75 1.763 . S
C1363 C8 1.388 . S
C1365 C518 1.363 . S
C1376 C548 1.821 . S
C1374 C26 1.850 . S
C1385 C140 1.420 . S
C1387 C456 1.388 . S
C1398 C478 1.881 . S
C1396 C162 1.834 . S
C1409 C525 1.539 . S
C1407 C94 1.431 . S
C1418 C117 1.864 . S
C1420 C540 1.930 . S
C1431 C487 1.561 . S
C1429 C93 1.560 . S
C1440 C7 1.612 . S
C1442 C580 1.559 . S
C1451 C27 1.529 . S
C1453 C610 1.528 . S
C1462 C48 1.451 . S
C1464 C649 1.598 . S
C1475 C509 1.866 . S
C1473 C227 1.758 . S
C1486 C587 1.612 . S
C1484 C337 1.479 . S
C1495 C183 1.843 . S
C1497 C602 1.948 . S
C1508 C672 1.362 . S
C1506 C316 1.366 . S
C1519 C394 1.713 . S
C1517 C141 1.735 . S
C1528 C161 1.866 . S
C1530 C362 1.829 . S
C1539 C92 1.694 . S
C1541 C401 1.810 . S
C1550 C119 1.913 . S
C1552 C354 2.028 . S
C1563 C704 1.659 . S
C1561 C50 1.674 . S
C1574 C695 2.101 . S
C1572 C74 2.003 . S
C1583 C9 1.789 . S
C1585 C711 1.911 . S
C1594 C28 2.003 . S
C1596 C703 1.971 . S
C1605 C203 1.470 . S
C1607 C618 1.579 . S
C1618 C641 1.730 . S
C1616 C229 1.771 . S
C1629 C673 1.358 . S
C1627 C271 1.396 . S
C1638 C246 1.855 . S
C1640 C579 1.819 . S
C1651 C611 1.385 . S
C1649 C338 1.419 . S
C1660 C185 1.826 . S
C1662 C633 1.881 . S
C1673 C680 1.538 . S
C1671 C292 1.435 . S
C1682 C315 1.869 . S
C1684 C571 1.931 . S
C1693 C291 1.565 . S
C1695 C642 1.555 . S
C1704 C273 1.607 . S
C1706 C549 1.569 . S
C1717 C455 1.519 . S
C1715 C247 1.540 . S
C1726 C202 1.456 . S
C1728 C494 1.597 . S
C1737 C73 1.762 . S
C1739 C664 1.867 . S
C1748 C139 1.479 . S
C1750 C556 1.609 . S
C1761 C447 1.949 . S
C1759 C163 1.849 . S
C1770 C118 1.369 . S
C1772 C517 1.359 . S
