# Generated by pormake.
# Topology gar, (4,6)-cn, num edge types: 1
# Building blocks:
#     Node 0, Type 0, BuildingBlock: CEKHIL_clean_sbu_0, # of connection points: 4
#     Node 1, Type 0, BuildingBlock: CEKHIL_clean_sbu_0, # of connection points: 4
#     Node 2, Type 0, BuildingBlock: CEKHIL_clean_sbu_0, # of connection points: 4
#     Node 3, Type 0, BuildingBlock: CEKHIL_clean_sbu_0, # of connection points: 4
#     Node 4, Type 0, BuildingBlock: CEKHIL_clean_sbu_0, # of connection points: 4
#     Node 5, Type 0, BuildingBlock: CEKHIL_clean_sbu_0, # of connection points: 4
#     Node 6, Type 0, BuildingBlock: CEKHIL_clean_sbu_0, # of connection points: 4
#     Node 7, Type 0, BuildingBlock: CEKHIL_clean_sbu_0, # of connection points: 4
#     Node 8, Type 0, BuildingBlock: CEKHIL_clean_sbu_0, # of connection points: 4
#     Node 9, Type 0, BuildingBlock: CEKHIL_clean_sbu_0, # of connection points: 4
#     Node 10, Type 0, BuildingBlock: CEKHIL_clean_sbu_0, # of connection points: 4
#     Node 11, Type 0, BuildingBlock: CEKHIL_clean_sbu_0, # of connection points: 4
#     Node 12, Type 0, BuildingBlock: CEKHIL_clean_sbu_0, # of connection points: 4
#     Node 13, Type 0, BuildingBlock: CEKHIL_clean_sbu_0, # of connection points: 4
#     Node 14, Type 0, BuildingBlock: CEKHIL_clean_sbu_0, # of connection points: 4
#     Node 15, Type 0, BuildingBlock: CEKHIL_clean_sbu_0, # of connection points: 4
#     Node 16, Type 0, BuildingBlock: CEKHIL_clean_sbu_0, # of connection points: 4
#     Node 17, Type 0, BuildingBlock: CEKHIL_clean_sbu_0, # of connection points: 4
#     Node 18, Type 0, BuildingBlock: CEKHIL_clean_sbu_0, # of connection points: 4
#     Node 19, Type 0, BuildingBlock: CEKHIL_clean_sbu_0, # of connection points: 4
#     Node 20, Type 0, BuildingBlock: CEKHIL_clean_sbu_0, # of connection points: 4
#     Node 21, Type 0, BuildingBlock: CEKHIL_clean_sbu_0, # of connection points: 4
#     Node 22, Type 0, BuildingBlock: CEKHIL_clean_sbu_0, # of connection points: 4
#     Node 23, Type 0, BuildingBlock: CEKHIL_clean_sbu_0, # of connection points: 4
#     Node 24, Type 1, BuildingBlock: MIFKUJ_clean_sbu_0, # of connection points: 6
#     Node 25, Type 1, BuildingBlock: MIFKUJ_clean_sbu_0, # of connection points: 6
#     Node 26, Type 1, BuildingBlock: MIFKUJ_clean_sbu_0, # of connection points: 6
#     Node 27, Type 1, BuildingBlock: MIFKUJ_clean_sbu_0, # of connection points: 6
#     Node 28, Type 1, BuildingBlock: MIFKUJ_clean_sbu_0, # of connection points: 6
#     Node 29, Type 1, BuildingBlock: MIFKUJ_clean_sbu_0, # of connection points: 6
#     Node 30, Type 1, BuildingBlock: MIFKUJ_clean_sbu_0, # of connection points: 6
#     Node 31, Type 1, BuildingBlock: MIFKUJ_clean_sbu_0, # of connection points: 6
#     Node 32, Type 1, BuildingBlock: MIFKUJ_clean_sbu_0, # of connection points: 6
#     Node 33, Type 1, BuildingBlock: MIFKUJ_clean_sbu_0, # of connection points: 6
#     Node 34, Type 1, BuildingBlock: MIFKUJ_clean_sbu_0, # of connection points: 6
#     Node 35, Type 1, BuildingBlock: MIFKUJ_clean_sbu_0, # of connection points: 6
#     Node 36, Type 1, BuildingBlock: MIFKUJ_clean_sbu_0, # of connection points: 6
#     Node 37, Type 1, BuildingBlock: MIFKUJ_clean_sbu_0, # of connection points: 6
#     Node 38, Type 1, BuildingBlock: MIFKUJ_clean_sbu_0, # of connection points: 6
#     Node 39, Type 1, BuildingBlock: MIFKUJ_clean_sbu_0, # of connection points: 6
#     Edge 40, Type (0, 1), BuildingBlock: EZIPEK_clean_linker_0, # of connection points: 2
#     Edge 41, Type (0, 1), BuildingBlock: EZIPEK_clean_linker_0, # of connection points: 2
#     Edge 42, Type (0, 1), BuildingBlock: EZIPEK_clean_linker_0, # of connection points: 2
#     Edge 43, Type (0, 1), BuildingBlock: EZIPEK_clean_linker_0, # of connection points: 2
#     Edge 44, Type (0, 1), BuildingBlock: EZIPEK_clean_linker_0, # of connection points: 2
#     Edge 45, Type (0, 1), BuildingBlock: EZIPEK_clean_linker_0, # of connection points: 2
#     Edge 46, Type (0, 1), BuildingBlock: EZIPEK_clean_linker_0, # of connection points: 2
#     Edge 47, Type (0, 1), BuildingBlock: EZIPEK_clean_linker_0, # of connection points: 2
#     Edge 48, Type (0, 1), BuildingBlock: EZIPEK_clean_linker_0, # of connection points: 2
#     Edge 49, Type (0, 1), BuildingBlock: EZIPEK_clean_linker_0, # of connection points: 2
#     Edge 50, Type (0, 1), BuildingBlock: EZIPEK_clean_linker_0, # of connection points: 2
#     Edge 51, Type (0, 1), BuildingBlock: EZIPEK_clean_linker_0, # of connection points: 2
#     Edge 52, Type (0, 1), BuildingBlock: EZIPEK_clean_linker_0, # of connection points: 2
#     Edge 53, Type (0, 1), BuildingBlock: EZIPEK_clean_linker_0, # of connection points: 2
#     Edge 54, Type (0, 1), BuildingBlock: EZIPEK_clean_linker_0, # of connection points: 2
#     Edge 55, Type (0, 1), BuildingBlock: EZIPEK_clean_linker_0, # of connection points: 2
#     Edge 56, Type (0, 1), BuildingBlock: EZIPEK_clean_linker_0, # of connection points: 2
#     Edge 57, Type (0, 1), BuildingBlock: EZIPEK_clean_linker_0, # of connection points: 2
#     Edge 58, Type (0, 1), BuildingBlock: EZIPEK_clean_linker_0, # of connection points: 2
#     Edge 59, Type (0, 1), BuildingBlock: EZIPEK_clean_linker_0, # of connection points: 2
#     Edge 60, Type (0, 1), BuildingBlock: EZIPEK_clean_linker_0, # of connection points: 2
#     Edge 61, Type (0, 1), BuildingBlock: EZIPEK_clean_linker_0, # of connection points: 2
#     Edge 62, Type (0, 1), BuildingBlock: EZIPEK_clean_linker_0, # of connection points: 2
#     Edge 63, Type (0, 1), BuildingBlock: EZIPEK_clean_linker_0, # of connection points: 2
#     Edge 64, Type (0, 1), BuildingBlock: EZIPEK_clean_linker_0, # of connection points: 2
#     Edge 65, Type (0, 1), BuildingBlock: EZIPEK_clean_linker_0, # of connection points: 2
#     Edge 66, Type (0, 1), BuildingBlock: EZIPEK_clean_linker_0, # of connection points: 2
#     Edge 67, Type (0, 1), BuildingBlock: EZIPEK_clean_linker_0, # of connection points: 2
#     Edge 68, Type (0, 1), BuildingBlock: EZIPEK_clean_linker_0, # of connection points: 2
#     Edge 69, Type (0, 1), BuildingBlock: EZIPEK_clean_linker_0, # of connection points: 2
#     Edge 70, Type (0, 1), BuildingBlock: EZIPEK_clean_linker_0, # of connection points: 2
#     Edge 71, Type (0, 1), BuildingBlock: EZIPEK_clean_linker_0, # of connection points: 2
#     Edge 72, Type (0, 1), BuildingBlock: EZIPEK_clean_linker_0, # of connection points: 2
#     Edge 73, Type (0, 1), BuildingBlock: EZIPEK_clean_linker_0, # of connection points: 2
#     Edge 74, Type (0, 1), BuildingBlock: EZIPEK_clean_linker_0, # of connection points: 2
#     Edge 75, Type (0, 1), BuildingBlock: EZIPEK_clean_linker_0, # of connection points: 2
#     Edge 76, Type (0, 1), BuildingBlock: EZIPEK_clean_linker_0, # of connection points: 2
#     Edge 77, Type (0, 1), BuildingBlock: EZIPEK_clean_linker_0, # of connection points: 2
#     Edge 78, Type (0, 1), BuildingBlock: EZIPEK_clean_linker_0, # of connection points: 2
#     Edge 79, Type (0, 1), BuildingBlock: EZIPEK_clean_linker_0, # of connection points: 2
#     Edge 80, Type (0, 1), BuildingBlock: EZIPEK_clean_linker_0, # of connection points: 2
#     Edge 81, Type (0, 1), BuildingBlock: EZIPEK_clean_linker_0, # of connection points: 2
#     Edge 82, Type (0, 1), BuildingBlock: EZIPEK_clean_linker_0, # of connection points: 2
#     Edge 83, Type (0, 1), BuildingBlock: EZIPEK_clean_linker_0, # of connection points: 2
#     Edge 84, Type (0, 1), BuildingBlock: EZIPEK_clean_linker_0, # of connection points: 2
#     Edge 85, Type (0, 1), BuildingBlock: EZIPEK_clean_linker_0, # of connection points: 2
#     Edge 86, Type (0, 1), BuildingBlock: EZIPEK_clean_linker_0, # of connection points: 2
#     Edge 87, Type (0, 1), BuildingBlock: EZIPEK_clean_linker_0, # of connection points: 2
#     Edge 88, Type (0, 1), BuildingBlock: EZIPEK_clean_linker_0, # of connection points: 2
#     Edge 89, Type (0, 1), BuildingBlock: EZIPEK_clean_linker_0, # of connection points: 2
#     Edge 90, Type (0, 1), BuildingBlock: EZIPEK_clean_linker_0, # of connection points: 2
#     Edge 91, Type (0, 1), BuildingBlock: EZIPEK_clean_linker_0, # of connection points: 2
#     Edge 92, Type (0, 1), BuildingBlock: EZIPEK_clean_linker_0, # of connection points: 2
#     Edge 93, Type (0, 1), BuildingBlock: EZIPEK_clean_linker_0, # of connection points: 2
#     Edge 94, Type (0, 1), BuildingBlock: EZIPEK_clean_linker_0, # of connection points: 2
#     Edge 95, Type (0, 1), BuildingBlock: EZIPEK_clean_linker_0, # of connection points: 2
#     Edge 96, Type (0, 1), BuildingBlock: EZIPEK_clean_linker_0, # of connection points: 2
#     Edge 97, Type (0, 1), BuildingBlock: EZIPEK_clean_linker_0, # of connection points: 2
#     Edge 98, Type (0, 1), BuildingBlock: EZIPEK_clean_linker_0, # of connection points: 2
#     Edge 99, Type (0, 1), BuildingBlock: EZIPEK_clean_linker_0, # of connection points: 2
#     Edge 100, Type (0, 1), BuildingBlock: EZIPEK_clean_linker_0, # of connection points: 2
#     Edge 101, Type (0, 1), BuildingBlock: EZIPEK_clean_linker_0, # of connection points: 2
#     Edge 102, Type (0, 1), BuildingBlock: EZIPEK_clean_linker_0, # of connection points: 2
#     Edge 103, Type (0, 1), BuildingBlock: EZIPEK_clean_linker_0, # of connection points: 2
#     Edge 104, Type (0, 1), BuildingBlock: EZIPEK_clean_linker_0, # of connection points: 2
#     Edge 105, Type (0, 1), BuildingBlock: EZIPEK_clean_linker_0, # of connection points: 2
#     Edge 106, Type (0, 1), BuildingBlock: EZIPEK_clean_linker_0, # of connection points: 2
#     Edge 107, Type (0, 1), BuildingBlock: EZIPEK_clean_linker_0, # of connection points: 2
#     Edge 108, Type (0, 1), BuildingBlock: EZIPEK_clean_linker_0, # of connection points: 2
#     Edge 109, Type (0, 1), BuildingBlock: EZIPEK_clean_linker_0, # of connection points: 2
#     Edge 110, Type (0, 1), BuildingBlock: EZIPEK_clean_linker_0, # of connection points: 2
#     Edge 111, Type (0, 1), BuildingBlock: EZIPEK_clean_linker_0, # of connection points: 2
#     Edge 112, Type (0, 1), BuildingBlock: EZIPEK_clean_linker_0, # of connection points: 2
#     Edge 113, Type (0, 1), BuildingBlock: EZIPEK_clean_linker_0, # of connection points: 2
#     Edge 114, Type (0, 1), BuildingBlock: EZIPEK_clean_linker_0, # of connection points: 2
#     Edge 115, Type (0, 1), BuildingBlock: EZIPEK_clean_linker_0, # of connection points: 2
#     Edge 116, Type (0, 1), BuildingBlock: EZIPEK_clean_linker_0, # of connection points: 2
#     Edge 117, Type (0, 1), BuildingBlock: EZIPEK_clean_linker_0, # of connection points: 2
#     Edge 118, Type (0, 1), BuildingBlock: EZIPEK_clean_linker_0, # of connection points: 2
#     Edge 119, Type (0, 1), BuildingBlock: EZIPEK_clean_linker_0, # of connection points: 2
#     Edge 120, Type (0, 1), BuildingBlock: EZIPEK_clean_linker_0, # of connection points: 2
#     Edge 121, Type (0, 1), BuildingBlock: EZIPEK_clean_linker_0, # of connection points: 2
#     Edge 122, Type (0, 1), BuildingBlock: EZIPEK_clean_linker_0, # of connection points: 2
#     Edge 123, Type (0, 1), BuildingBlock: EZIPEK_clean_linker_0, # of connection points: 2
#     Edge 124, Type (0, 1), BuildingBlock: EZIPEK_clean_linker_0, # of connection points: 2
#     Edge 125, Type (0, 1), BuildingBlock: EZIPEK_clean_linker_0, # of connection points: 2
#     Edge 126, Type (0, 1), BuildingBlock: EZIPEK_clean_linker_0, # of connection points: 2
#     Edge 127, Type (0, 1), BuildingBlock: EZIPEK_clean_linker_0, # of connection points: 2
#     Edge 128, Type (0, 1), BuildingBlock: EZIPEK_clean_linker_0, # of connection points: 2
#     Edge 129, Type (0, 1), BuildingBlock: EZIPEK_clean_linker_0, # of connection points: 2
#     Edge 130, Type (0, 1), BuildingBlock: EZIPEK_clean_linker_0, # of connection points: 2
#     Edge 131, Type (0, 1), BuildingBlock: EZIPEK_clean_linker_0, # of connection points: 2
#     Edge 132, Type (0, 1), BuildingBlock: EZIPEK_clean_linker_0, # of connection points: 2
#     Edge 133, Type (0, 1), BuildingBlock: EZIPEK_clean_linker_0, # of connection points: 2
#     Edge 134, Type (0, 1), BuildingBlock: EZIPEK_clean_linker_0, # of connection points: 2
#     Edge 135, Type (0, 1), BuildingBlock: EZIPEK_clean_linker_0, # of connection points: 2
# Relax obj value: 0.105
# Max RMSD: 0.307
# Mean RMSD: 0.134
data_MOF--net-gar--node1-CEKHIL_clean_sbu_0--node2-MIFKUJ_clean_sbu_0--edge1-EZIPEK_clean_linker_0
_symmetry_space_group_name_H-M    P1
_symmetry_Int_Tables_number       1
_symmetry_cell_setting            triclinic
loop_
_symmetry_equiv_pos_as_xyz
'x, y, z'
_cell_length_a     42.682467
_cell_length_b     42.166094
_cell_length_c     39.474857
_cell_angle_alpha  95.081807
_cell_angle_beta   95.078174
_cell_angle_gamma 99.841831
loop_
_atom_site_label
_atom_site_type_symbol
_atom_site_fract_x
_atom_site_fract_y
_atom_site_fract_z
_atom_type_partial_charge
Co0 Co 0.04309 0.2913 0.41183 0.0
O1 O 0.0889 0.29182 0.41281 0.0
O2 O 0.05337 0.27852 0.36711 0.0
C3 C 0.04606 0.33966 0.44352 0.0
O4 O 0.99631 0.28921 0.39655 0.0
Co5 Co 0.00297 0.28985 0.47229 0.0
O6 O 0.9645 0.28289 0.4383 0.0
C7 C 0.02753 0.23201 0.44994 0.0
C8 C 0.08285 0.28272 0.38007 0.0
C9 C 0.96855 0.28457 0.40697 0.0
O10 O 0.03581 0.24458 0.42272 0.0
O11 O 0.01701 0.24748 0.47442 0.0
O12 O 0.05007 0.33835 0.41115 0.0
O13 O 0.04209 0.31217 0.45619 0.0
Co14 Co 0.00634 0.75375 0.63861 0.0
O15 O 0.96144 0.75589 0.63603 0.0
O16 O 0.99004 0.74361 0.68121 0.0
C17 C 0.02028 0.80117 0.61616 0.0
O18 O 0.05263 0.75057 0.65271 0.0
Co19 Co 0.0436 0.75072 0.5755 0.0
O20 O 0.08146 0.74993 0.60782 0.0
C21 C 0.00295 0.69143 0.59215 0.0
C22 C 0.96284 0.74871 0.66736 0.0
C23 C 0.07891 0.74935 0.63957 0.0
O24 O 0.9961 0.70655 0.61953 0.0
O25 O 0.0197 0.70543 0.57062 0.0
O26 O 0.01715 0.80067 0.64855 0.0
O27 O 0.01393 0.77336 0.59801 0.0
Co28 Co 0.5522 0.78827 0.91458 0.0
O29 O 0.59661 0.78585 0.91137 0.0
O30 O 0.55686 0.76694 0.87059 0.0
C31 C 0.55911 0.84052 0.9366 0.0
O32 O 0.50426 0.78652 0.90678 0.0
Co33 Co 0.52411 0.80268 0.9832 0.0
O34 O 0.48363 0.80202 0.954 0.0
C35 C 0.53678 0.73732 0.96351 0.0
C36 C 0.58723 0.77175 0.88061 0.0
C37 C 0.48009 0.79114 0.92254 0.0
O38 O 0.54485 0.74557 0.93443 0.0
O39 O 0.52984 0.75692 0.98714 0.0
O40 O 0.55992 0.83323 0.90403 0.0
O41 O 0.55769 0.81662 0.955 0.0
Co42 Co 0.50127 0.25018 0.1394 0.0
O43 O 0.4569 0.25116 0.14383 0.0
O44 O 0.49244 0.24408 0.18579 0.0
C45 C 0.5105 0.29457 0.11116 0.0
O46 O 0.54879 0.2499 0.14582 0.0
Co47 Co 0.52623 0.23871 0.06996 0.0
O48 O 0.5669 0.23476 0.0966 0.0
C49 C 0.49111 0.18372 0.09813 0.0
C50 C 0.46337 0.24706 0.17573 0.0
C51 C 0.57127 0.24269 0.12871 0.0
O52 O 0.49145 0.20164 0.12634 0.0
O53 O 0.50044 0.19489 0.07102 0.0
O54 O 0.51105 0.29709 0.14424 0.0
O55 O 0.50178 0.26558 0.09568 0.0
Co56 Co 0.03545 0.7747 0.16858 0.0
O57 O 0.98939 0.76441 0.16052 0.0
O58 O 0.01771 0.7623 0.20984 0.0
C59 C 0.03862 0.82009 0.1422 0.0
O60 O 0.08236 0.78411 0.18817 0.0
Co61 Co 0.0806 0.7822 0.11135 0.0
O62 O 0.11629 0.79382 0.14838 0.0
C63 C 0.04966 0.71684 0.12602 0.0
C64 C 0.98984 0.75973 0.19262 0.0
C65 C 0.11079 0.79091 0.1792 0.0
O66 O 0.03926 0.72886 0.15303 0.0
O67 O 0.06278 0.7346 0.10458 0.0
O68 O 0.03278 0.82069 0.174 0.0
O69 O 0.04174 0.79253 0.12743 0.0
Co70 Co 0.50847 0.76092 0.3782 0.0
O71 O 0.5544 0.76746 0.38347 0.0
O72 O 0.52381 0.74489 0.33626 0.0
C73 C 0.50639 0.81113 0.40113 0.0
O74 O 0.46032 0.75197 0.36245 0.0
Co75 Co 0.4705 0.76412 0.44044 0.0
O76 O 0.43163 0.75253 0.40747 0.0
C77 C 0.50624 0.71232 0.42856 0.0
C78 C 0.55234 0.75508 0.35201 0.0
C79 C 0.43337 0.74951 0.37535 0.0
O80 O 0.50689 0.71803 0.39716 0.0
O81 O 0.49664 0.73081 0.45124 0.0
O82 O 0.51004 0.80557 0.36895 0.0
O83 O 0.50564 0.78673 0.41879 0.0
Co84 Co 0.53537 0.27492 0.66758 0.0
O85 O 0.48947 0.26654 0.65684 0.0
O86 O 0.51488 0.26124 0.70689 0.0
C87 C 0.54133 0.32164 0.64372 0.0
O88 O 0.58106 0.28197 0.69007 0.0
Co89 Co 0.58462 0.28399 0.61443 0.0
O90 O 0.61815 0.29135 0.65352 0.0
C91 C 0.54752 0.21943 0.62145 0.0
C92 C 0.48801 0.26032 0.68834 0.0
C93 C 0.61026 0.28743 0.68338 0.0
O94 O 0.53762 0.22951 0.64961 0.0
O95 O 0.56344 0.23773 0.60243 0.0
O96 O 0.53457 0.32099 0.67515 0.0
O97 O 0.54477 0.29459 0.62796 0.0
Co98 Co 0.01484 0.25692 0.88957 0.0
O99 O 0.06084 0.26784 0.89557 0.0
O100 O 0.03169 0.24373 0.8479 0.0
C101 C 0.00805 0.30531 0.91401 0.0
O102 O 0.96788 0.24414 0.87113 0.0
Co103 Co 0.97191 0.25372 0.94748 0.0
O104 O 0.93507 0.24782 0.91202 0.0
C105 C 0.01388 0.20628 0.93801 0.0
C106 C 0.05963 0.25579 0.86395 0.0
C107 C 0.93987 0.24334 0.88083 0.0
O108 O 0.01745 0.21411 0.90764 0.0
O109 O 0.99918 0.22145 0.9591 0.0
O110 O 0.01222 0.30125 0.88177 0.0
O111 O 0.00823 0.28024 0.9306 0.0
Co112 Co 0.40813 0.03961 0.3096 0.0
O113 O 0.40803 0.08396 0.30028 0.0
O114 O 0.36696 0.04311 0.28846 0.0
C115 C 0.43228 0.04915 0.3638 0.0
O116 O 0.39603 0.99238 0.31507 0.0
Co117 Co 0.4686 0.0093 0.32652 0.0
O118 O 0.43796 0.96777 0.32514 0.0
C119 C 0.44874 0.01874 0.25522 0.0
C120 C 0.37821 0.07356 0.28831 0.0
C121 C 0.40803 0.96703 0.31897 0.0
O122 O 0.42298 0.02804 0.26364 0.0
O123 O 0.47104 0.01362 0.27678 0.0
O124 O 0.40221 0.05073 0.35758 0.0
O125 O 0.44735 0.04548 0.33727 0.0
Co126 Co 0.26748 0.13063 0.48951 0.0
O127 O 0.31407 0.13962 0.4965 0.0
O128 O 0.28378 0.09216 0.49981 0.0
C129 C 0.26423 0.15733 0.44162 0.0
O130 O 0.22037 0.10872 0.48379 0.0
Co131 Co 0.22268 0.18015 0.48926 0.0
O132 O 0.18623 0.14344 0.48589 0.0
C133 C 0.25726 0.16984 0.55407 0.0
C134 C 0.31224 0.10926 0.50146 0.0
C135 C 0.19191 0.11476 0.48467 0.0
O136 O 0.26533 0.14415 0.53975 0.0
O137 O 0.24315 0.18907 0.5376 0.0
O138 O 0.26919 0.12762 0.43964 0.0
O139 O 0.26157 0.16999 0.47196 0.0
Co140 Co 0.14989 0.0132 0.81494 0.0
O141 O 0.14016 0.96624 0.80464 0.0
O142 O 0.18777 0.9964 0.80424 0.0
C143 C 0.12203 0.01437 0.86189 0.0
O144 O 0.17215 0.06076 0.82377 0.0
Co145 Co 0.1016 0.05928 0.81699 0.0
O146 O 0.13829 0.0959 0.824 0.0
C147 C 0.11688 0.0317 0.75006 0.0
C148 C 0.17014 0.96781 0.79984 0.0
C149 C 0.16652 0.08987 0.82495 0.0
O150 O 0.13885 0.01889 0.7652 0.0
O151 O 0.0974 0.04521 0.76669 0.0
O152 O 0.15112 0.00861 0.86429 0.0
O153 O 0.11049 0.01865 0.83169 0.0
Co154 Co 0.2534 0.88234 0.99124 0.0
O155 O 0.20875 0.88059 0.99802 0.0
O156 O 0.2452 0.92534 8e-05 0.0
C157 C 0.2444 0.84388 0.94523 0.0
O158 O 0.3 0.89682 0.98564 0.0
Co159 Co 0.29212 0.82708 0.99321 0.0
O160 O 0.32983 0.85812 0.98342 0.0
C161 C 0.27002 0.85536 0.05631 0.0
C162 C 0.21606 0.91209 0.00312 0.0
C163 C 0.32678 0.88755 0.9831 0.0
O164 O 0.26326 0.87962 0.04148 0.0
O165 O 0.27877 0.83096 0.04067 0.0
O166 O 0.2427 0.87402 0.94149 0.0
O167 O 0.25173 0.83859 0.9762 0.0
Co168 Co 0.27324 0.39802 0.05 0.0
O169 O 0.22689 0.38932 0.03995 0.0
O170 O 0.25486 0.43459 0.06729 0.0
C171 C 0.2837 0.38078 0.99614 0.0
O172 O 0.32067 0.41879 0.06266 0.0
Co173 Co 0.31643 0.3475 0.04592 0.0
O174 O 0.35109 0.38452 0.04264 0.0
C175 C 0.27747 0.34975 0.10327 0.0
C176 C 0.22725 0.41859 0.05366 0.0
C177 C 0.34765 0.41278 0.05383 0.0
O178 O 0.27 0.37674 0.09476 0.0
O179 O 0.2939 0.33324 0.08561 0.0
O180 O 0.27697 0.40931 0.00345 0.0
O181 O 0.28149 0.36271 0.02098 0.0
Co182 Co 0.78754 0.14264 0.03769 0.0
O183 O 0.83244 0.14916 0.0308 0.0
O184 O 0.80397 0.10348 0.04352 0.0
C185 C 0.77159 0.16559 0.99111 0.0
O186 O 0.74144 0.12437 0.04415 0.0
Co187 Co 0.7496 0.19791 0.05025 0.0
O188 O 0.71261 0.16337 0.05432 0.0
C189 C 0.79743 0.18712 0.10304 0.0
C190 C 0.83085 0.1188 0.03546 0.0
C191 C 0.71521 0.1337 0.05021 0.0
O192 O 0.79768 0.15875 0.088 0.0
O193 O 0.78447 0.20833 0.0887 0.0
O194 O 0.77644 0.13592 0.98817 0.0
O195 O 0.77863 0.18112 0.02119 0.0
Co196 Co 0.13541 0.48378 0.27237 0.0
O197 O 0.13605 0.43823 0.2735 0.0
O198 O 0.17578 0.47482 0.26015 0.0
C199 C 0.11566 0.49115 0.32247 0.0
O200 O 0.14636 0.53208 0.27119 0.0
Co201 Co 0.07452 0.51519 0.27314 0.0
O202 O 0.10401 0.55693 0.27171 0.0
C203 C 0.08549 0.47604 0.21241 0.0
C204 C 0.16568 0.44556 0.26707 0.0
C205 C 0.13391 0.55764 0.27098 0.0
O206 O 0.11532 0.47789 0.22314 0.0
O207 O 0.06469 0.48241 0.23209 0.0
O208 O 0.14581 0.49007 0.32191 0.0
O209 O 0.09825 0.48524 0.29354 0.0
Co210 Co 0.77378 0.8967 0.54964 0.0
O211 O 0.72715 0.88895 0.54454 0.0
O212 O 0.75753 0.93551 0.56489 0.0
C213 C 0.77733 0.87304 0.49604 0.0
O214 O 0.82166 0.91756 0.55584 0.0
Co215 Co 0.81574 0.84518 0.54636 0.0
O216 O 0.85261 0.88062 0.54568 0.0
C217 C 0.78066 0.85278 0.6063 0.0
C218 C 0.72901 0.91931 0.55514 0.0
C219 C 0.84911 0.90984 0.55145 0.0
O220 O 0.77433 0.88 0.59708 0.0
O221 O 0.79457 0.83413 0.58796 0.0
O222 O 0.77331 0.90283 0.50113 0.0
O223 O 0.77833 0.8579 0.52309 0.0
Co224 Co 0.89154 0.00514 0.25609 0.0
O225 O 0.89903 0.05191 0.25837 0.0
O226 O 0.85345 0.02 0.23787 0.0
C227 C 0.91285 0.00437 0.31035 0.0
O228 O 0.87283 0.95633 0.25292 0.0
Co229 Co 0.94586 0.96564 0.26507 0.0
O230 O 0.91149 0.92774 0.26529 0.0
C231 C 0.93802 0.99829 0.203 0.0
C232 C 0.86914 0.04921 0.2469 0.0
C233 C 0.88211 0.92958 0.2591 0.0
O234 O 0.90969 0.00232 0.20978 0.0
O235 O 0.95712 0.98695 0.22348 0.0
O236 O 0.88359 0.00869 0.30402 0.0
O237 O 0.92861 0.00223 0.28403 0.0
Co238 Co 0.29014 0.64218 0.54469 0.0
O239 O 0.33472 0.64621 0.53673 0.0
O240 O 0.30479 0.60195 0.55064 0.0
C241 C 0.27554 0.6653 0.49764 0.0
O242 O 0.24347 0.62625 0.55188 0.0
Co243 Co 0.25486 0.69952 0.55648 0.0
O244 O 0.21683 0.66704 0.56212 0.0
C245 C 0.30301 0.68827 0.60925 0.0
C246 C 0.33189 0.61581 0.54162 0.0
C247 C 0.21792 0.63705 0.55808 0.0
O248 O 0.30226 0.65937 0.59483 0.0
O249 O 0.28925 0.70909 0.59517 0.0
O250 O 0.27824 0.63498 0.49531 0.0
O251 O 0.28313 0.68107 0.52757 0.0
Co252 Co 0.39463 0.50545 0.75224 0.0
O253 O 0.40283 0.55246 0.75585 0.0
O254 O 0.35662 0.52173 0.73571 0.0
C255 C 0.41682 0.50286 0.80593 0.0
O256 O 0.37504 0.45654 0.74802 0.0
Co257 Co 0.44768 0.46446 0.75769 0.0
O258 O 0.41319 0.42693 0.7587 0.0
C259 C 0.43959 0.49921 0.69718 0.0
C260 C 0.37295 0.55064 0.74489 0.0
C261 C 0.3839 0.42939 0.75358 0.0
O262 O 0.41184 0.50394 0.70532 0.0
O263 O 0.45859 0.48652 0.71643 0.0
O264 O 0.38769 0.50777 0.80045 0.0
O265 O 0.43215 0.50126 0.77917 0.0
Co266 Co 0.64691 -4e-05 0.77542 0.0
O267 O 0.63708 0.95367 0.7772 0.0
O268 O 0.68297 0.98064 0.76425 0.0
C269 C 0.62711 0.01231 0.82487 0.0
O270 O 0.66799 0.04653 0.77241 0.0
Co271 Co 0.59725 0.0461 0.77504 0.0
O272 O 0.63387 0.08168 0.77317 0.0
C273 C 0.59723 0.99664 0.71945 0.0
C274 C 0.66632 0.95345 0.7705 0.0
C275 C 0.66182 0.07524 0.7717 0.0
O276 O 0.62709 0.99572 0.72656 0.0
O277 O 0.58046 0.00645 0.74209 0.0
O278 O 0.65592 0.00593 0.82543 0.0
O279 O 0.61133 0.01018 0.79537 0.0
Co280 Co 0.76744 0.62766 0.99126 0.0
O281 O 0.81406 0.63568 0.99456 0.0
O282 O 0.78379 0.58879 0.00016 0.0
C283 C 0.76154 0.65411 0.94288 0.0
O284 O 0.72001 0.60668 0.98904 0.0
Co285 Co 0.7241 0.67729 0.99534 0.0
O286 O 0.68638 0.64186 0.9885 0.0
C287 C 0.76049 0.66555 0.05853 0.0
C288 C 0.81224 0.60545 -0.0 0.0
C289 C 0.69152 0.61306 0.9882 0.0
O290 O 0.7696 0.6415 0.04212 0.0
O291 O 0.74389 0.68402 0.04396 0.0
O292 O 0.76522 0.62405 0.94118 0.0
O293 O 0.76128 0.66733 0.97372 0.0
Co294 Co 0.90371 0.53638 0.80472 0.0
O295 O 0.90809 0.58029 0.79261 0.0
O296 O 0.86295 0.54457 0.78653 0.0
C297 C 0.93243 0.54729 0.85663 0.0
O298 O 0.88775 0.49007 0.81339 0.0
Co299 Co 0.96053 0.5 0.81873 0.0
O300 O 0.92708 0.46141 0.82137 0.0
C301 C 0.93814 0.50975 0.74815 0.0
C302 C 0.87737 0.5737 0.78359 0.0
C303 C 0.89756 0.46339 0.81742 0.0
O304 O 0.91362 0.52053 0.75801 0.0
O305 O 0.96104 0.50416 0.76865 0.0
O306 O 0.90285 0.55142 0.85306 0.0
O307 O 0.94423 0.53951 0.82885 0.0
Co308 Co 0.75759 0.38489 0.49603 0.0
O309 O 0.71369 0.38229 0.50633 0.0
O310 O 0.74906 0.42766 0.50773 0.0
C311 C 0.74528 0.3472 0.44932 0.0
O312 O 0.80364 0.39973 0.48698 0.0
Co313 Co 0.7955 0.32806 0.49206 0.0
O314 O 0.83264 0.36022 0.48313 0.0
C315 C 0.7763 0.35402 0.55757 0.0
C316 C 0.72046 0.41372 0.5122 0.0
C317 C 0.83016 0.3899 0.48368 0.0
O318 O 0.77093 0.38007 0.54519 0.0
O319 O 0.78264 0.32956 0.53968 0.0
O320 O 0.7431 0.37739 0.44656 0.0
O321 O 0.75532 0.34181 0.47944 0.0
Co322 Co 0.64795 0.51161 0.31699 0.0
O323 O 0.63744 0.46473 0.30825 0.0
O324 O 0.68451 0.49375 0.30334 0.0
C325 C 0.62391 0.51347 0.36676 0.0
O326 O 0.6705 0.55903 0.32418 0.0
Co327 Co 0.5997 0.55713 0.32195 0.0
O328 O 0.63634 0.59385 0.32613 0.0
C329 C 0.60948 0.5277 0.25412 0.0
C330 C 0.66673 0.46528 0.30145 0.0
C331 C 0.66458 0.58803 0.32548 0.0
O332 O 0.63394 0.51721 0.26756 0.0
O333 O 0.59051 0.5405 0.27218 0.0
O334 O 0.65285 0.50766 0.36648 0.0
O335 O 0.61011 0.51727 0.33733 0.0
Zn336 Zn 0.05648 0.98998 0.04817 0.0
Zn337 Zn 0.99622 0.03752 0.00912 0.0
C338 C 0.05079 0.91968 0.05216 0.0
O339 O 0.07756 0.92084 0.03813 0.0
C340 C 0.02091 0.10463 0.01394 0.0
O341 O 0.99363 0.10729 0.0258 0.0
O342 O 0.10465 0.99176 0.05768 0.0
O343 O 0.04874 0.9994 -0.00051 0.0
O344 O 0.00944 0.01285 0.96763 0.0
C345 C 0.11722 0.98135 0.03176 0.0
O346 O 0.09965 0.97442 0.00217 0.0
O347 O 0.03703 0.94405 0.05355 0.0
C348 C 0.92969 0.04342 0.01282 0.0
O349 O 0.92952 0.01916 0.03149 0.0
O350 O 0.95424 0.05315 0.99785 0.0
O351 O 0.99082 0.02016 0.05528 0.0
O352 O 0.03544 0.01344 0.08534 0.0
O353 O 0.03007 0.07757 0.01309 0.0
C354 C 0.03728 0.00584 0.97074 0.0
C355 C 0.00578 0.01533 0.08312 0.0
Zn356 Zn 0.25407 0.73981 0.31288 0.0
Zn357 Zn 0.29195 0.78818 0.24474 0.0
C358 C 0.22692 0.67577 0.27568 0.0
O359 O 0.24101 0.68551 0.24918 0.0
C360 C 0.33228 0.84224 0.27865 0.0
O361 O 0.35147 0.82762 0.2612 0.0
O362 O 0.26602 0.74593 0.36309 0.0
O363 O 0.29161 0.74674 0.28797 0.0
O364 O 0.32739 0.76212 0.2556 0.0
C365 C 0.24577 0.72966 0.37935 0.0
O366 O 0.2167 0.71864 0.36454 0.0
O367 O 0.23138 0.69398 0.30358 0.0
C368 C 0.27439 0.82135 0.19197 0.0
O369 O 0.25647 0.82952 0.21541 0.0
O370 O 0.29387 0.80246 0.19824 0.0
O371 O 0.24482 0.76609 0.2449 0.0
O372 O 0.22429 0.76833 0.29433 0.0
O373 O 0.30293 0.82936 0.27715 0.0
C374 C 0.32031 0.74861 0.28185 0.0
C375 C 0.22399 0.77482 0.26332 0.0
Zn376 Zn 0.48068 0.0254 0.54605 0.0
Zn377 Zn 0.55371 0.99197 0.51933 0.0
C378 C 0.50472 0.08619 0.57581 0.0
O379 O 0.48415 0.07467 0.59641 0.0
C380 C 0.53085 0.94209 0.46534 0.0
O381 O 0.53394 0.96628 0.44642 0.0
O382 O 0.43471 0.03528 0.54469 0.0
O383 O 0.48814 0.00033 0.5039 0.0
O384 O 0.53417 0.02086 0.48709 0.0
C385 C 0.42604 0.05192 0.5212 0.0
O386 O 0.44517 0.0593 0.49778 0.0
O387 O 0.50886 0.06857 0.54951 0.0
C388 C 0.61024 0.96905 0.5392 0.0
O389 O 0.58764 0.94893 0.55068 0.0
O390 O 0.60255 0.9927 0.52405 0.0
O391 O 0.53991 0.99403 0.56691 0.0
O392 O 0.49568 0.00496 0.5873 0.0
O393 O 0.5369 0.94734 0.49759 0.0
C394 C 0.50365 0.01672 0.4834 0.0
C395 C 0.52309 0.99687 0.59167 0.0
Zn396 Zn 0.3067 0.24029 0.76577 0.0
Zn397 Zn 0.24421 0.27518 0.79776 0.0
C398 C 0.2884 0.20722 0.69885 0.0
O399 O 0.30582 0.18781 0.71233 0.0
C400 C 0.25436 0.3216 0.85807 0.0
O401 O 0.2325 0.33387 0.84069 0.0
O402 O 0.35185 0.23319 0.7604 0.0
O403 O 0.3142 0.28818 0.78285 0.0
O404 O 0.26872 0.30176 0.76403 0.0
C405 C 0.36429 0.25041 0.7385 0.0
O406 O 0.34738 0.26954 0.72367 0.0
O407 O 0.28344 0.23184 0.71734 0.0
C408 C 0.18448 0.2666 0.81976 0.0
O409 O 0.20237 0.25523 0.84283 0.0
O410 O 0.19733 0.27874 0.79478 0.0
O411 O 0.24093 0.22649 0.79887 0.0
O412 O 0.28539 0.20688 0.79457 0.0
O413 O 0.26367 0.29666 0.84478 0.0
C414 C 0.29912 0.30838 0.76965 0.0
C415 C 0.25617 0.20317 0.80022 0.0
Zn416 Zn 0.03941 0.98271 0.54055 0.0
Zn417 Zn 0.01103 0.04332 0.51067 0.0
C418 C 0.0635 0.99399 0.61097 0.0
O419 O 0.05529 0.01353 0.58922 0.0
C420 C 0.97127 0.02653 0.44987 0.0
O421 O 0.9567 0.04645 0.46744 0.0
O422 O 0.0492 0.93947 0.55095 0.0
O423 O 0.99118 0.97485 0.53282 0.0
O424 O 0.97763 0.023 0.54038 0.0
C425 C 0.02839 0.914 0.54256 0.0
O426 O 0.00247 0.91511 0.52252 0.0
O427 O 0.05494 0.01132 0.58808 0.0
C428 C 0.02397 0.1009 0.4814 0.0
O429 O 0.04163 0.08283 0.46592 0.0
O430 O 0.00692 0.0895 0.50395 0.0
O431 O 0.05929 0.04855 0.52315 0.0
O432 O 0.06724 0.00021 0.50473 0.0
O433 O 0.99697 0.01941 0.46358 0.0
C434 C 0.97043 0.99226 0.53902 0.0
C435 C 0.07628 0.03072 0.5084 0.0
Zn436 Zn 0.25172 0.79506 0.75763 0.0
Zn437 Zn 0.30918 0.73182 0.79676 0.0
C438 C 0.1996 0.74885 0.71655 0.0
O439 O 0.22187 0.73936 0.69937 0.0
C440 C 0.35809 0.77814 0.84111 0.0
O441 O 0.33368 0.79125 0.84918 0.0
O442 O 0.24551 0.8433 0.7615 0.0
O443 O 0.27066 0.78578 0.80572 0.0
O444 O 0.27561 0.74091 0.82834 0.0
C445 C 0.21734 0.85018 0.75957 0.0
O446 O 0.19261 0.82679 0.75123 0.0
O447 O 0.20751 0.76877 0.7432 0.0
C448 C 0.33642 0.67476 0.77662 0.0
O449 O 0.36294 0.69601 0.78468 0.0
O450 O 0.30966 0.68396 0.77953 0.0
O451 O 0.29713 0.75657 0.75976 0.0
O452 O 0.27926 0.78187 0.71942 0.0
O453 O 0.35273 0.75274 0.81998 0.0
C454 C 0.26134 0.76525 0.82642 0.0
C455 C 0.29518 0.7606 0.72854 0.0
Zn456 Zn 0.53035 0.0239 -0.00071 0.0
Zn457 Zn 0.50426 0.99285 0.05905 0.0
C458 C 0.58619 0.0663 0.03076 0.0
O459 O 0.56789 0.08708 0.02245 0.0
C460 C 0.44615 0.96118 0.01956 0.0
O461 O 0.45532 0.93645 0.03307 0.0
O462 O 0.53836 0.03478 0.95216 0.0
O463 O 0.51623 0.97546 0.98901 0.0
O464 O 0.53208 0.96229 0.03926 0.0
C465 C 0.56081 0.02061 0.94326 0.0
O466 O 0.57414 0.00377 0.96502 0.0
O467 O 0.57466 0.03618 0.02589 0.0
C468 C 0.46696 0.98004 0.11576 0.0
O469 O 0.44235 0.97571 0.09262 0.0
O470 O 0.49504 0.98349 0.10673 0.0
O471 O 0.52142 0.03999 0.06947 0.0
O472 O 0.50156 0.05181 0.02019 0.0
O473 O 0.46293 0.9891 0.0276 0.0
C474 C 0.52795 0.95597 0.0069 0.0
C475 C 0.50773 0.05876 0.05236 0.0
Zn476 Zn 0.28739 0.22696 0.25672 0.0
Zn477 Zn 0.24925 0.28894 0.29868 0.0
C478 C 0.34783 0.23808 0.2351 0.0
O479 O 0.32921 0.22251 0.20843 0.0
C480 C 0.18151 0.27585 0.29176 0.0
O481 O 0.18735 0.30074 0.27409 0.0
O482 O 0.28735 0.17963 0.24131 0.0
O483 O 0.26829 0.22323 0.30306 0.0
O484 O 0.27891 0.27139 0.33294 0.0
C485 C 0.30515 0.17041 0.26465 0.0
O486 O 0.31679 0.19086 0.29151 0.0
O487 O 0.3354 0.24568 0.2622 0.0
C488 C 0.25231 0.35698 0.29375 0.0
O489 O 0.27548 0.35403 0.27464 0.0
O490 O 0.24277 0.33462 0.31208 0.0
O491 O 0.2574 0.29085 0.24939 0.0
O492 O 0.2692 0.24961 0.21775 0.0
O493 O 0.20528 0.26373 0.30251 0.0
C494 C 0.27527 0.24066 0.33168 0.0
C495 C 0.2628 0.27801 0.22076 0.0
Zn496 Zn 0.5377 0.47821 0.04518 0.0
Zn497 Zn 0.50976 0.54232 0.01008 0.0
C498 C 0.57046 0.52273 0.10855 0.0
O499 O 0.57908 0.54646 0.09007 0.0
C500 C 0.47368 0.52708 0.9449 0.0
O501 O 0.45905 0.54914 0.9587 0.0
O502 O 0.54477 0.43238 0.04778 0.0
O503 O 0.4889 0.47391 0.03889 0.0
O504 O 0.47758 0.52328 0.04159 0.0
C505 C 0.52267 0.40821 0.03821 0.0
O506 O 0.49628 0.4125 0.02093 0.0
O507 O 0.55369 0.49616 0.09454 0.0
C508 C 0.52345 0.60289 0.98626 0.0
O509 O 0.54274 0.58707 0.97051 0.0
O510 O 0.50496 0.58865 0.00597 0.0
O511 O 0.55775 0.54791 0.0217 0.0
O512 O 0.56752 0.49843 0.01176 0.0
O513 O 0.49704 0.51881 0.96215 0.0
C514 C 0.46914 0.49301 0.04303 0.0
C515 C 0.57584 0.52885 0.01163 0.0
Zn516 Zn 0.74469 0.29077 0.25969 0.0
Zn517 Zn 0.79332 0.22357 0.29181 0.0
C518 C 0.69362 0.27541 0.20871 0.0
O519 O 0.7117 0.29992 0.19752 0.0
C520 C 0.84957 0.25006 0.32755 0.0
O521 O 0.83515 0.22983 0.3471 0.0
O522 O 0.74137 0.33933 0.26657 0.0
O523 O 0.7521 0.27218 0.30455 0.0
O524 O 0.77167 0.23693 0.33331 0.0
C525 C 0.71379 0.34579 0.27116 0.0
O526 O 0.68958 0.32184 0.27002 0.0
O527 O 0.7029 0.26583 0.23679 0.0
C528 C 0.81436 0.1669 0.2606 0.0
O529 O 0.81533 0.1849 0.23524 0.0
O530 O 0.80366 0.17716 0.28795 0.0
O531 O 0.76699 0.23346 0.25101 0.0
O532 O 0.77523 0.27815 0.22659 0.0
O533 O 0.83575 0.25303 0.29851 0.0
C534 C 0.75669 0.26058 0.33285 0.0
C535 C 0.77958 0.24917 0.2282 0.0
Zn536 Zn 0.03369 0.52463 0.50249 0.0
Zn537 Zn 0.00685 0.49749 0.56164 0.0
C538 C 0.08659 0.57436 0.53816 0.0
O539 O 0.06725 0.59479 0.53225 0.0
C540 C 0.95516 0.45945 0.51061 0.0
O541 O 0.96969 0.43503 0.51554 0.0
O542 O 0.03884 0.53264 0.45372 0.0
O543 O 0.02995 0.47619 0.49792 0.0
O544 O 0.03918 0.46884 0.55188 0.0
C545 C 0.06626 0.52941 0.44532 0.0
O546 O 0.08861 0.52571 0.46881 0.0
O547 O 0.07664 0.5442 0.53018 0.0
C548 C 0.96199 0.47701 0.61039 0.0
O549 O 0.9418 0.46447 0.58371 0.0
O550 O 0.99063 0.48943 0.60679 0.0
O551 O 0.02247 0.54583 0.56854 0.0
O552 O 0.99766 0.54625 0.51843 0.0
O553 O 0.96722 0.48707 0.52628 0.0
C554 C 0.03986 0.45965 0.52055 0.0
C555 C 0.00553 0.55969 0.54865 0.0
Zn556 Zn 0.80634 0.73931 0.26826 0.0
Zn557 Zn 0.7412 0.76939 0.29553 0.0
C558 C 0.7881 0.70445 0.20389 0.0
O559 O 0.80274 0.68469 0.22058 0.0
C560 C 0.75858 0.81432 0.35547 0.0
O561 O 0.75382 0.83451 0.33283 0.0
O562 O 0.85135 0.7312 0.26128 0.0
O563 O 0.81396 0.78704 0.28529 0.0
O564 O 0.76811 0.80044 0.26704 0.0
C565 C 0.86771 0.75231 0.24556 0.0
O566 O 0.85569 0.77753 0.23717 0.0
O567 O 0.78402 0.73083 0.21976 0.0
C568 C 0.67971 0.76307 0.31549 0.0
O569 O 0.69585 0.75156 0.33993 0.0
O570 O 0.69438 0.77441 0.29117 0.0
O571 O 0.73618 0.72023 0.28927 0.0
O572 O 0.78399 0.7068 0.29814 0.0
O573 O 0.75627 0.78445 0.34542 0.0
C574 C 0.79848 0.80751 0.27337 0.0
C575 C 0.75369 0.70017 0.29807 0.0
Zn576 Zn 0.765 0.25744 0.81495 0.0
Zn577 Zn 0.78646 0.28192 0.74945 0.0
C578 C 0.7522 0.19194 0.76874 0.0
O579 O 0.77335 0.20102 0.74773 0.0
C580 C 0.81927 0.34185 0.77631 0.0
O581 O 0.83519 0.33291 0.75136 0.0
O582 O 0.76092 0.25469 0.86457 0.0
O583 O 0.81288 0.26877 0.81662 0.0
O584 O 0.82041 0.25536 0.76324 0.0
C585 C 0.74206 0.23093 0.87336 0.0
O586 O 0.71947 0.21406 0.85094 0.0
O587 O 0.74835 0.21128 0.79397 0.0
C588 C 0.77458 0.31669 0.69335 0.0
O589 O 0.75401 0.32498 0.71369 0.0
O590 O 0.7922 0.29676 0.70234 0.0
O591 O 0.7399 0.26191 0.74597 0.0
O592 O 0.7349 0.2854 0.79655 0.0
O593 O 0.79439 0.32302 0.78235 0.0
C594 C 0.83001 0.25853 0.79497 0.0
C595 C 0.72357 0.2761 0.76577 0.0
Zn596 Zn 0.78886 0.72956 0.7568 0.0
Zn597 Zn 0.75359 0.7897 0.79745 0.0
C598 C 0.84272 0.74595 0.72265 0.0
O599 O 0.81968 0.73726 0.6975 0.0
C600 C 0.69702 0.76556 0.81755 0.0
O601 O 0.71445 0.78344 0.84366 0.0
O602 O 0.79093 0.68315 0.73834 0.0
O603 O 0.78116 0.72752 0.80782 0.0
O604 O 0.77552 0.77227 0.83811 0.0
C605 C 0.79056 0.66133 0.75871 0.0
O606 O 0.77757 0.66517 0.78733 0.0
O607 O 0.83538 0.74842 0.75324 0.0
C608 C 0.72396 0.83975 0.78215 0.0
O609 O 0.71646 0.81798 0.75547 0.0
O610 O 0.74184 0.83392 0.80769 0.0
O611 O 0.77751 0.79883 0.75636 0.0
O612 O 0.76335 0.75318 0.72307 0.0
O613 O 0.70931 0.76163 0.78952 0.0
C614 C 0.77859 0.74267 0.83664 0.0
C615 C 0.76963 0.78404 0.72665 0.0
Zn616 Zn 0.56231 0.48934 0.54793 0.0
Zn617 Zn 0.49333 0.53492 0.50163 0.0
C618 C 0.53089 0.4275 0.56364 0.0
O619 O 0.50594 0.44159 0.56441 0.0
C620 C 0.51943 0.59001 0.47263 0.0
O621 O 0.51177 0.56896 0.44541 0.0
O622 O 0.61037 0.50128 0.54831 0.0
O623 O 0.54147 0.49772 0.50367 0.0
O624 O 0.51132 0.51066 0.46241 0.0
C625 C 0.62586 0.48274 0.56401 0.0
O626 O 0.6132 0.46792 0.58874 0.0
O627 O 0.55617 0.44194 0.55322 0.0
C628 C 0.42803 0.53751 0.51501 0.0
O629 O 0.43467 0.52024 0.53974 0.0
O630 O 0.44741 0.54225 0.49251 0.0
O631 O 0.50126 0.52289 0.55075 0.0
O632 O 0.53759 0.5067 0.58576 0.0
O633 O 0.51685 0.58042 0.50204 0.0
C634 C 0.53708 0.50156 0.47227 0.0
C635 C 0.51017 0.5148 0.58 0.0
Zn636 Zn 0.9834 0.52411 0.04327 0.0
Zn637 Zn 0.05199 0.49441 0.01646 0.0
C638 C 0.00974 0.59318 0.053 0.0
O639 O 0.98655 0.59616 0.03011 0.0
C640 C 0.03333 0.42435 0.00163 0.0
O641 O 0.05793 0.42288 0.02335 0.0
O642 O 0.93771 0.5354 0.04339 0.0
O643 O 0.98887 0.50676 0.99621 0.0
O644 O 0.03721 0.52392 0.98224 0.0
C645 C 0.92568 0.54653 0.01705 0.0
O646 O 0.94138 0.54799 0.98996 0.0
O647 O 0.01419 0.56532 0.05957 0.0
C648 C 0.11157 0.47594 0.0436 0.0
O649 O 0.09423 0.47049 0.06905 0.0
O650 O 0.09968 0.4884 0.01807 0.0
O651 O 0.04417 0.5079 0.0646 0.0
O652 O 0.99475 0.49274 0.07637 0.0
O653 O 0.02524 0.4514 0.99742 0.0
C654 C 0.00691 0.52162 0.97662 0.0
C655 C 0.02452 0.49206 0.08201 0.0
C656 C 0.04681 0.18534 0.98269 0.0
C657 C 0.02765 0.1792 0.95074 0.0
C658 C 0.0221 0.12122 0.95501 0.0
C659 C 0.03297 0.12812 0.99039 0.0
N660 N 0.05944 0.16588 0.03747 0.0
N661 N 0.99809 0.14095 0.90505 0.0
C662 C 0.04715 0.15994 0.00393 0.0
C663 C 0.01637 0.147 0.93592 0.0
N664 N 0.064 0.21564 0.99265 0.0
N665 N 0.0167 0.09013 0.93989 0.0
H666 H 0.99382 0.15905 0.88988 0.0
H667 H 0.98565 0.11806 0.8953 0.0
H668 H 0.02156 0.07092 0.95296 0.0
H669 H 0.01121 0.08399 0.91364 0.0
H670 H 0.08013 0.22132 0.01461 0.0
H671 H 0.06424 0.23434 0.97695 0.0
H672 H 0.06687 0.18903 0.05016 0.0
H673 H 0.06118 0.1472 0.05285 0.0
C674 C 0.16062 0.81522 0.21876 0.0
C675 C 0.13802 0.78772 0.20399 0.0
C676 C 0.171 0.75196 0.22939 0.0
C677 C 0.19309 0.77936 0.24539 0.0
N678 N 0.20608 0.83692 0.2609 0.0
N679 N 0.11873 0.72998 0.19993 0.0
C680 C 0.18695 0.81101 0.24185 0.0
C681 C 0.14221 0.75617 0.21101 0.0
N682 N 0.15725 0.84522 0.21012 0.0
N683 N 0.17824 0.72177 0.23045 0.0
H684 H 0.09824 0.7312 0.18413 0.0
H685 H 0.11842 0.70722 0.20833 0.0
H686 H 0.19845 0.71774 0.2447 0.0
H687 H 0.16556 0.70115 0.21562 0.0
H688 H 0.17469 0.86584 0.21684 0.0
H689 H 0.13763 0.84912 0.19434 0.0
H690 H 0.20135 0.86038 0.26194 0.0
H691 H 0.22559 0.8345 0.27775 0.0
C692 C 0.54191 0.865 0.41518 0.0
C693 C 0.51257 0.84443 0.41842 0.0
C694 C 0.49667 0.88714 0.45585 0.0
C695 C 0.52423 0.90866 0.44907 0.0
N696 N 0.57252 0.91921 0.42094 0.0
N697 N 0.4618 0.83519 0.44155 0.0
C698 C 0.54653 0.89799 0.42812 0.0
C699 C 0.48998 0.85523 0.43892 0.0
N700 N 0.56642 0.85249 0.40215 0.0
N701 N 0.47712 0.89711 0.47873 0.0
H702 H 0.45716 0.8111 0.43144 0.0
H703 H 0.44242 0.84258 0.45213 0.0
H704 H 0.48012 0.92077 0.4903 0.0
H705 H 0.4589 0.88164 0.48796 0.0
H706 H 0.58961 0.86542 0.403 0.0
H707 H 0.56482 0.82813 0.39381 0.0
H708 H 0.58684 0.91389 0.40194 0.0
H709 H 0.57905 0.94288 0.4325 0.0
C710 C 0.44169 0.22642 0.71104 0.0
C711 C 0.45741 0.25709 0.70372 0.0
C712 C 0.4166 0.2827 0.72925 0.0
C713 C 0.39799 0.25178 0.73112 0.0
N714 N 0.39161 0.19348 0.72071 0.0
N715 N 0.4576 0.3143 0.70178 0.0
C716 C 0.41032 0.22333 0.72166 0.0
C717 C 0.44421 0.28519 0.7116 0.0
N718 N 0.45656 0.20025 0.70756 0.0
N719 N 0.4085 0.30972 0.74548 0.0
H720 H 0.47833 0.31765 0.68956 0.0
H721 H 0.44657 0.33454 0.70322 0.0
H722 H 0.38947 0.30868 0.76047 0.0
H723 H 0.42278 0.33261 0.74746 0.0
H724 H 0.44785 0.17807 0.71609 0.0
H725 H 0.47892 0.20144 0.6985 0.0
H726 H 0.39804 0.17228 0.71021 0.0
H727 H 0.36856 0.18991 0.72803 0.0
C728 C 0.00465 0.85488 0.60617 0.0
C729 C 0.02466 0.83178 0.59967 0.0
C730 C 0.04683 0.86258 0.55461 0.0
C731 C 0.02865 0.88657 0.56305 0.0
N732 N 0.99654 0.90993 0.60238 0.0
N733 N 0.07035 0.81828 0.57358 0.0
C734 C 0.00967 0.88417 0.59072 0.0
C735 C 0.04733 0.83692 0.57547 0.0
N736 N 0.97935 0.8481 0.62494 0.0
N737 N 0.06315 0.86397 0.52635 0.0
H738 H 0.07261 0.80092 0.5902 0.0
H739 H 0.08924 0.82261 0.55863 0.0
H740 H 0.06399 0.88302 0.51109 0.0
H741 H 0.0738 0.84512 0.51667 0.0
H742 H 0.96234 0.86295 0.62745 0.0
H743 H 0.97302 0.8261 0.63482 0.0
H744 H 0.98546 0.91067 0.62486 0.0
H745 H 0.99939 0.93177 0.59149 0.0
C746 C 0.42104 0.79636 0.91673 0.0
C747 C 0.44749 0.78575 0.90242 0.0
C748 C 0.41688 0.77802 0.84566 0.0
C749 C 0.39079 0.78862 0.86006 0.0
N750 N 0.37532 0.82204 0.90644 0.0
N751 N 0.46218 0.75198 0.85556 0.0
C752 C 0.39495 0.80214 0.8947 0.0
C753 C 0.44334 0.77277 0.86737 0.0
N754 N 0.4187 0.79737 0.95109 0.0
N755 N 0.41692 0.77424 0.81094 0.0
H756 H 0.4778 0.74223 0.8717 0.0
H757 H 0.4584 0.74003 0.83088 0.0
H758 H 0.39884 0.78027 0.79446 0.0
H759 H 0.43665 0.76939 0.79896 0.0
H760 H 0.39872 0.80285 0.96214 0.0
H761 H 0.43331 0.78687 0.9676 0.0
H762 H 0.37903 0.83411 0.93107 0.0
H763 H 0.35905 0.83094 0.8903 0.0
C764 C 0.50967 0.13431 0.11426 0.0
C765 C 0.48557 0.14802 0.09734 0.0
C766 C 0.46923 0.0975 0.05961 0.0
C767 C 0.49893 0.08827 0.0699 0.0
N768 N 0.54977 0.10161 0.10576 0.0
N769 N 0.44022 0.14197 0.05528 0.0
C770 C 0.51963 0.10729 0.09737 0.0
C771 C 0.46437 0.12915 0.07065 0.0
N772 N 0.52362 0.14755 0.14592 0.0
N773 N 0.44541 0.07593 0.04032 0.0
H774 H 0.43524 0.16438 0.06447 0.0
H775 H 0.42625 0.13104 0.03295 0.0
H776 H 0.44735 0.05196 0.03348 0.0
H777 H 0.42251 0.08073 0.03449 0.0
H778 H 0.54008 0.1371 0.16024 0.0
H779 H 0.51537 0.1662 0.15954 0.0
H780 H 0.56641 0.11703 0.12341 0.0
H781 H 0.55969 0.08406 0.09253 0.0
C782 C 0.10929 0.29753 0.32851 0.0
C783 C 0.10792 0.27919 0.357 0.0
C784 C 0.14706 0.24873 0.3342 0.0
C785 C 0.15087 0.26979 0.30811 0.0
N786 N 0.12284 0.29994 0.27054 0.0
N787 N 0.12509 0.237 0.38747 0.0
C788 C 0.12809 0.28993 0.30219 0.0
C789 C 0.12663 0.25455 0.35998 0.0
N790 N 0.09392 0.3234 0.32736 0.0
N791 N 0.16044 0.22152 0.33222 0.0
H792 H 0.10933 0.23953 0.40584 0.0
H793 H 0.14067 0.2213 0.39326 0.0
H794 H 0.17198 0.21481 0.31123 0.0
H795 H 0.15679 0.20365 0.34874 0.0
H796 H 0.09694 0.33955 0.3089 0.0
H797 H 0.08088 0.33077 0.3468 0.0
H798 H 0.10472 0.31267 0.26394 0.0
H799 H 0.13348 0.29131 0.24964 0.0
C800 C 0.95261 0.97651 0.14703 0.0
C801 C 0.94938 0.00391 0.16902 0.0
C802 C 0.98122 0.0394 0.13333 0.0
C803 C 0.98723 0.01163 0.11349 0.0
N804 N 0.97967 0.9536 0.1021 0.0
N805 N 0.96093 0.06145 0.18451 0.0
C806 C 0.97312 0.98016 0.12054 0.0
C807 C 0.96346 0.03546 0.1623 0.0
N808 N 0.93517 0.94695 0.15106 0.0
N809 N 0.99252 0.06951 0.12439 0.0
H810 H 0.94728 0.05928 0.20512 0.0
H811 H 0.9732 0.08484 0.18357 0.0
H812 H 0.00675 0.07323 0.10442 0.0
H813 H 0.98644 0.0907 0.13528 0.0
H814 H 0.93387 0.92626 0.13417 0.0
H815 H 0.91949 0.9437 0.16984 0.0
H816 H 0.97463 0.93019 0.10913 0.0
H817 H 0.99156 0.95524 0.08032 0.0
C818 C 0.24293 0.69967 0.46585 0.0
C819 C 0.26856 0.6822 0.46726 0.0
C820 C 0.28014 0.69637 0.41037 0.0
C821 C 0.2564 0.71634 0.41071 0.0
N822 N 0.22045 0.74274 0.44196 0.0
N823 N 0.31649 0.67055 0.44423 0.0
C824 C 0.23956 0.7199 0.43957 0.0
C825 C 0.2887 0.68252 0.44054 0.0
N826 N 0.22045 0.69526 0.48819 0.0
N827 N 0.29323 0.68898 0.38091 0.0
H828 H 0.324 0.6606 0.46612 0.0
H829 H 0.33361 0.67344 0.42696 0.0
H830 H 0.28714 0.69747 0.35768 0.0
H831 H 0.30797 0.67176 0.37869 0.0
H832 H 0.19958 0.705 0.48644 0.0
H833 H 0.22081 0.67835 0.50557 0.0
H834 H 0.21001 0.74847 0.46406 0.0
H835 H 0.2177 0.75822 0.42312 0.0
C836 C 0.57414 0.96677 0.66193 0.0
C837 C 0.58285 0.99596 0.68389 0.0
C838 C 0.54401 0.02039 0.65106 0.0
C839 C 0.53787 0.99313 0.62628 0.0
N840 N 0.5469 0.9397 0.60765 0.0
N841 N 0.58313 0.05328 0.69325 0.0
C842 C 0.55311 0.9661 0.63149 0.0
C843 C 0.57024 0.0237 0.67611 0.0
N844 N 0.58508 0.93971 0.67074 0.0
N845 N 0.52404 0.04241 0.65206 0.0
H846 H 0.60287 0.05658 0.71156 0.0
H847 H 0.57634 0.07474 0.68678 0.0
H848 H 0.50214 0.03871 0.6373 0.0
H849 H 0.52675 0.06163 0.67123 0.0
H850 H 0.57718 0.91676 0.65774 0.0
H851 H 0.60132 0.94013 0.69222 0.0
H852 H 0.55962 0.92073 0.60781 0.0
H853 H 0.52934 0.93731 0.58697 0.0
C854 C 0.28569 0.33378 0.95259 0.0
C855 C 0.28703 0.36749 0.96012 0.0
C856 C 0.27855 0.37136 0.89818 0.0
C857 C 0.26812 0.33721 0.89271 0.0
N858 N 0.25922 0.28589 0.91689 0.0
N859 N 0.29328 0.41972 0.93838 0.0
C860 C 0.27123 0.31831 0.92041 0.0
C861 C 0.28608 0.3868 0.93234 0.0
N862 N 0.30019 0.31683 0.97515 0.0
N863 N 0.28288 0.38873 0.87077 0.0
H864 H 0.30558 0.43151 0.96124 0.0
H865 H 0.28781 0.43521 0.92049 0.0
H866 H 0.27919 0.37803 0.84556 0.0
H867 H 0.29312 0.41315 0.87285 0.0
H868 H 0.30145 0.29243 0.96984 0.0
H869 H 0.31574 0.3286 0.99595 0.0
H870 H 0.2586 0.27214 0.9376 0.0
H871 H 0.24696 0.27338 0.89439 0.0
C872 C 0.91221 0.99231 0.37181 0.0
C873 C 0.92865 0.00697 0.34582 0.0
C874 C 0.9763 0.0247 0.38687 0.0
C875 C 0.95831 0.01493 0.4139 0.0
N876 N 0.9074 0.99242 0.43238 0.0
N877 N 0.97347 0.04566 0.33218 0.0
C878 C 0.92576 0.9995 0.40644 0.0
C879 C 0.96007 0.02519 0.3541 0.0
N880 N 0.88399 0.9711 0.36358 0.0
N881 N 0.00863 0.03474 0.39236 0.0
H882 H 0.96135 0.0501 0.30951 0.0
H883 H 0.99502 0.06175 0.33874 0.0
H884 H 0.02164 0.03603 0.41607 0.0
H885 H 0.02288 0.03891 0.37251 0.0
H886 H 0.87295 0.957 0.38106 0.0
H887 H 0.87309 0.96503 0.33864 0.0
H888 H 0.8827 0.9848 0.42856 0.0
H889 H 0.9164 0.99627 0.45808 0.0
C890 C 0.33439 0.73025 0.65251 0.0
C891 C 0.31627 0.69852 0.64532 0.0
C892 C 0.29143 0.70462 0.69818 0.0
C893 C 0.30613 0.73794 0.70309 0.0
N894 N 0.34826 0.77991 0.69131 0.0
N895 N 0.29053 0.65143 0.66834 0.0
C896 C 0.33008 0.74987 0.68241 0.0
C897 C 0.29941 0.68426 0.67083 0.0
N898 N 0.35388 0.74192 0.6291 0.0
N899 N 0.26809 0.69293 0.71776 0.0
H900 H 0.2971 0.63642 0.64877 0.0
H901 H 0.28032 0.63916 0.68758 0.0
H902 H 0.26107 0.70683 0.7379 0.0
H903 H 0.2541 0.66993 0.7126 0.0
H904 H 0.36543 0.76585 0.63016 0.0
H905 H 0.35784 0.72701 0.60791 0.0
H906 H 0.36744 0.78952 0.67859 0.0
H907 H 0.34547 0.79451 0.71321 0.0
C908 C 0.59402 0.98631 0.867 0.0
C909 C 0.60994 0.01509 0.8554 0.0
C910 C 0.58364 0.048 0.89443 0.0
C911 C 0.57072 0.0194 0.9084 0.0
N912 N 0.55375 0.9617 0.9011 0.0
N913 N 0.62084 0.07319 0.85737 0.0
C914 C 0.57304 0.9886 0.89256 0.0
C915 C 0.60471 0.04594 0.86866 0.0
N916 N 0.59944 0.95683 0.85398 0.0
N917 N 0.5749 0.0767 0.90489 0.0
H918 H 0.63637 0.07227 0.83856 0.0
H919 H 0.62077 0.09664 0.86799 0.0
H920 H 0.55851 0.07867 0.92262 0.0
H921 H 0.58147 0.0981 0.89402 0.0
H922 H 0.59189 0.93526 0.86422 0.0
H923 H 0.61319 0.95398 0.83387 0.0
H924 H 0.55195 0.93849 0.88882 0.0
H925 H 0.53687 0.96315 0.91851 0.0
C926 C 0.28915 0.34649 0.16597 0.0
C927 C 0.26829 0.33653 0.13556 0.0
C928 C 0.24043 0.29086 0.16287 0.0
C929 C 0.26417 0.29818 0.19134 0.0
N930 N 0.31256 0.33195 0.21934 0.0
N931 N 0.22412 0.29928 0.1042 0.0
C932 C 0.28869 0.326 0.19289 0.0
C933 C 0.24372 0.30885 0.13393 0.0
N934 N 0.30959 0.37556 0.16892 0.0
N935 N 0.21432 0.26731 0.16394 0.0
H936 H 0.22469 0.31303 0.08346 0.0
H937 H 0.2083 0.27729 0.09953 0.0
H938 H 0.21137 0.25368 0.18462 0.0
H939 H 0.19449 0.26292 0.14572 0.0
H940 H 0.32334 0.38599 0.19151 0.0
H941 H 0.31061 0.39078 0.14944 0.0
H942 H 0.33308 0.34945 0.22012 0.0
H943 H 0.31308 0.3178 0.23966 0.0
C944 C 0.18734 0.95823 0.99459 0.0
C945 C 0.19308 0.93257 0.0139 0.0
C946 C 0.15605 0.94726 0.05428 0.0
C947 C 0.14921 0.97183 0.03381 0.0
N948 N 0.16612 0.00798 0.99271 0.0
N949 N 0.19005 0.90826 0.06693 0.0
C950 C 0.16777 0.97979 0.00682 0.0
C951 C 0.17957 0.92872 0.04524 0.0
N952 N 0.19895 0.96085 0.96356 0.0
N953 N 0.13941 0.94084 0.08159 0.0
H954 H 0.20733 0.89441 0.06136 0.0
H955 H 0.18367 0.90688 0.09167 0.0
H956 H 0.12534 0.95634 0.09175 0.0
H957 H 0.1392 0.91997 0.09391 0.0
H958 H 0.1928 0.97706 0.94681 0.0
H959 H 0.21246 0.94484 0.95301 0.0
H960 H 0.1809 0.01679 0.97475 0.0
H961 H 0.15206 0.02417 0.00185 0.0
C962 C 0.66271 0.57049 0.02148 0.0
C963 C 0.66396 0.58644 0.99108 0.0
C964 C 0.60984 0.55665 0.97016 0.0
C965 C 0.60779 0.54323 0.00176 0.0
N966 N 0.63506 0.52855 0.05223 0.0
N967 N 0.63938 0.59429 0.9359 0.0
C968 C 0.6352 0.54731 0.02571 0.0
C969 C 0.63777 0.57908 0.96505 0.0
N970 N 0.68671 0.57945 0.04758 0.0
N971 N 0.58551 0.54653 0.94458 0.0
H972 H 0.66014 0.60912 0.9305 0.0
H973 H 0.62011 0.59322 0.91751 0.0
H974 H 0.5656 0.52924 0.94759 0.0
H975 H 0.58585 0.55311 0.91983 0.0
H976 H 0.68568 0.57182 0.07188 0.0
H977 H 0.70679 0.59681 0.04593 0.0
H978 H 0.65517 0.52784 0.0689 0.0
H979 H 0.61546 0.51105 0.0555 0.0
C980 C 0.66527 0.41176 0.26583 0.0
C981 C 0.67997 0.435 0.29349 0.0
C982 C 0.72116 0.40128 0.3047 0.0
C983 C 0.70717 0.37945 0.27573 0.0
N984 N 0.67247 0.36955 0.2231 0.0
N985 N 0.72298 0.45252 0.33892 0.0
C986 C 0.68136 0.38663 0.25455 0.0
C987 C 0.70856 0.43016 0.31249 0.0
N988 N 0.63529 0.41247 0.25105 0.0
N989 N 0.74519 0.39352 0.32589 0.0
H990 H 0.71239 0.47136 0.34877 0.0
H991 H 0.74586 0.45296 0.35072 0.0
H992 H 0.75532 0.37306 0.32074 0.0
H993 H 0.75398 0.40615 0.3496 0.0
H994 H 0.62251 0.39425 0.23302 0.0
H995 H 0.62138 0.42879 0.25959 0.0
H996 H 0.65596 0.37576 0.20494 0.0
H997 H 0.68437 0.35153 0.21372 0.0
C998 C 0.86782 0.44047 0.51085 0.0
C999 C 0.85976 0.41445 0.48418 0.0
C1000 C 0.91337 0.42795 0.46582 0.0
C1001 C 0.92166 0.4523 0.49387 0.0
N1002 N 0.90161 0.49225 0.52947 0.0
N1003 N 0.87084 0.39163 0.42937 0.0
C1004 C 0.89714 0.46227 0.51174 0.0
C1005 C 0.88128 0.41083 0.45929 0.0
N1006 N 0.84908 0.44325 0.53691 0.0
N1007 N 0.93644 0.4208 0.44608 0.0
H1008 H 0.8473 0.3793 0.42389 0.0
H1009 H 0.88443 0.39068 0.40878 0.0
H1010 H 0.95944 0.43468 0.44901 0.0
H1011 H 0.93299 0.40098 0.42759 0.0
H1012 H 0.85623 0.45981 0.55858 0.0
H1013 H 0.82811 0.4272 0.53896 0.0
H1014 H 0.88346 0.50106 0.54127 0.0
H1015 H 0.92165 0.50988 0.5281 0.0
C1016 C 0.35305 0.10497 0.24562 0.0
C1017 C 0.35621 0.0956 0.27923 0.0
C1018 C 0.31281 0.12336 0.29428 0.0
C1019 C 0.3142 0.13806 0.2635 0.0
N1020 N 0.33339 0.14149 0.20808 0.0
N1021 N 0.33998 0.09646 0.33637 0.0
C1022 C 0.33311 0.12791 0.23821 0.0
C1023 C 0.33602 0.10459 0.30368 0.0
N1024 N 0.36889 0.09175 0.22091 0.0
N1025 N 0.28935 0.128 0.31465 0.0
H1026 H 0.35658 0.08247 0.34432 0.0
H1027 H 0.32861 0.10563 0.35633 0.0
H1028 H 0.27189 0.14153 0.30775 0.0
H1029 H 0.28529 0.1161 0.33629 0.0
H1030 H 0.36521 0.09502 0.19513 0.0
H1031 H 0.38426 0.07556 0.22589 0.0
H1032 H 0.3499 0.13871 0.19065 0.0
H1033 H 0.31748 0.15643 0.20087 0.0
C1034 C 0.36344 0.10525 0.53685 0.0
C1035 C 0.34109 0.09412 0.50764 0.0
C1036 C 0.37098 0.05071 0.49274 0.0
C1037 C 0.39509 0.06393 0.51971 0.0
N1038 N 0.41628 0.10599 0.56539 0.0
N1039 N 0.3261 0.05929 0.45474 0.0
C1040 C 0.39179 0.09173 0.54134 0.0
C1041 C 0.34541 0.06749 0.48487 0.0
N1042 N 0.35707 0.12795 0.56097 0.0
N1043 N 0.37235 0.02174 0.47494 0.0
H1044 H 0.30766 0.07145 0.44752 0.0
H1045 H 0.33015 0.04248 0.4354 0.0
H1046 H 0.39073 0.00886 0.48019 0.0
H1047 H 0.35394 0.00903 0.45728 0.0
H1048 H 0.37064 0.13454 0.58457 0.0
H1049 H 0.3366 0.13835 0.55868 0.0
H1050 H 0.41734 0.12863 0.57877 0.0
H1051 H 0.43665 0.09602 0.5704 0.0
C1052 C 0.70819 0.6142 0.29225 0.0
C1053 C 0.69112 0.61535 0.32166 0.0
C1054 C 0.72062 0.67077 0.33952 0.0
C1055 C 0.73735 0.66936 0.30997 0.0
N1056 N 0.75457 0.63633 0.26504 0.0
N1057 N 0.68425 0.64262 0.37596 0.0
C1058 C 0.73363 0.6399 0.28866 0.0
C1059 C 0.69833 0.6431 0.34616 0.0
N1060 N 0.6986 0.58982 0.26627 0.0
N1061 N 0.72646 0.69867 0.36129 0.0
H1062 H 0.66852 0.62253 0.38174 0.0
H1063 H 0.68935 0.66107 0.39599 0.0
H1064 H 0.74465 0.71796 0.35861 0.0
H1065 H 0.71329 0.70318 0.38155 0.0
H1066 H 0.70775 0.58983 0.24266 0.0
H1067 H 0.67919 0.57121 0.26662 0.0
H1068 H 0.75501 0.61441 0.25083 0.0
H1069 H 0.77388 0.65438 0.26265 0.0
C1070 C 0.87077 0.40956 0.8346 0.0
C1071 C 0.87334 0.43313 0.81083 0.0
C1072 C 0.82801 0.40039 0.77419 0.0
C1073 C 0.82962 0.37464 0.79417 0.0
N1074 N 0.84942 0.35431 0.84511 0.0
N1075 N 0.8581 0.44704 0.754 0.0
C1076 C 0.84973 0.3793 0.82531 0.0
C1077 C 0.85261 0.4278 0.77974 0.0
N1078 N 0.88842 0.41607 0.86575 0.0
N1079 N 0.80318 0.39813 0.74933 0.0
H1080 H 0.87755 0.46581 0.75527 0.0
H1081 H 0.84561 0.44186 0.72967 0.0
H1082 H 0.78457 0.37821 0.74564 0.0
H1083 H 0.79937 0.41722 0.73535 0.0
H1084 H 0.88552 0.40144 0.88555 0.0
H1085 H 0.90511 0.43723 0.87241 0.0
H1086 H 0.86582 0.35438 0.86625 0.0
H1087 H 0.8328 0.33284 0.83953 0.0
C1088 C 0.01815 0.84287 0.0902 0.0
C1089 C 0.03776 0.84781 0.12196 0.0
C1090 C 0.05813 0.90322 0.11099 0.0
C1091 C 0.04347 0.89595 0.07681 0.0
N1092 N 0.01007 0.85886 0.033 0.0
N1093 N 0.07889 0.88184 0.16147 0.0
C1094 C 0.02348 0.86579 0.06615 0.0
C1095 C 0.05813 0.87792 0.13236 0.0
N1096 N 0.99369 0.81686 0.08362 0.0
N1097 N 0.07176 0.93433 0.12317 0.0
H1098 H 0.07996 0.86382 0.17774 0.0
H1099 H 0.09691 0.90204 0.16796 0.0
H1100 H 0.07218 0.95367 0.10841 0.0
H1101 H 0.07992 0.94143 0.14883 0.0
H1102 H 0.9769 0.81352 0.06222 0.0
H1103 H 0.98807 0.80046 0.10141 0.0
H1104 H 0.99822 0.83589 0.02274 0.0
H1105 H 0.01254 0.87572 0.01515 0.0
C1106 C 0.90957 0.2768 0.84643 0.0
C1107 C 0.91369 0.24562 0.85467 0.0
C1108 C 0.86573 0.22109 0.81625 0.0
C1109 C 0.8619 0.25241 0.80804 0.0
N1110 N 0.88614 0.30763 0.80575 0.0
N1111 N 0.90028 0.18769 0.84249 0.0
C1112 C 0.88572 0.27951 0.82027 0.0
C1113 C 0.89327 0.21753 0.83786 0.0
N1114 N 0.92789 0.30399 0.86412 0.0
N1115 N 0.84254 0.19506 0.80436 0.0
H1116 H 0.91998 0.18458 0.85866 0.0
H1117 H 0.88808 0.16637 0.82855 0.0
H1118 H 0.82323 0.19689 0.78704 0.0
H1119 H 0.84181 0.17216 0.81251 0.0
H1120 H 0.92295 0.32717 0.86224 0.0
H1121 H 0.94664 0.30334 0.88261 0.0
H1122 H 0.90414 0.32793 0.81165 0.0
H1123 H 0.87058 0.30861 0.78436 0.0
C1124 C 0.512 0.17594 0.58291 0.0
C1125 C 0.53822 0.18521 0.60851 0.0
C1126 C 0.54678 0.12933 0.60753 0.0
C1127 C 0.52035 0.12021 0.58222 0.0
N1128 N 0.4844 0.13502 0.53841 0.0
N1129 N 0.58483 0.17313 0.6403 0.0
C1130 C 0.50504 0.14363 0.5675 0.0
C1131 C 0.557 0.16259 0.6194 0.0
N1132 N 0.49315 0.19775 0.57416 0.0
N1133 N 0.5618 0.10607 0.62017 0.0
H1134 H 0.5929 0.19745 0.64917 0.0
H1135 H 0.60108 0.15838 0.647 0.0
H1136 H 0.55635 0.08189 0.60979 0.0
H1137 H 0.57906 0.11043 0.64116 0.0
H1138 H 0.47164 0.1914 0.55846 0.0
H1139 H 0.49763 0.22186 0.58475 0.0
H1140 H 0.47456 0.15153 0.52463 0.0
H1141 H 0.47975 0.11158 0.52608 0.0
C1142 C 0.59699 0.78412 0.32348 0.0
C1143 C 0.58171 0.75494 0.33479 0.0
C1144 C 0.62702 0.72923 0.32166 0.0
C1145 C 0.64454 0.75983 0.31604 0.0
N1146 N 0.64681 0.81712 0.31297 0.0
N1147 N 0.58238 0.70009 0.34688 0.0
C1148 C 0.62955 0.78742 0.31666 0.0
C1149 C 0.59662 0.72744 0.33414 0.0
N1150 N 0.58029 0.80868 0.31935 0.0
N1151 N 0.63937 0.70182 0.31449 0.0
H1152 H 0.5596 0.69759 0.35511 0.0
H1153 H 0.59389 0.68073 0.35126 0.0
H1154 H 0.6611 0.70221 0.30414 0.0
H1155 H 0.62676 0.67853 0.31544 0.0
H1156 H 0.58895 0.82945 0.3082 0.0
H1157 H 0.55646 0.80693 0.32422 0.0
H1158 H 0.63846 0.83871 0.31775 0.0
H1159 H 0.67039 0.82058 0.30713 0.0
C1160 C 0.01056 0.17216 0.43273 0.0
C1161 C 0.03008 0.19804 0.4544 0.0
C1162 C 0.04337 0.16034 0.49501 0.0
C1163 C 0.02496 0.13435 0.47271 0.0
N1164 N 0.99537 0.11421 0.41789 0.0
N1165 N 0.07076 0.2162 0.50168 0.0
C1166 C 0.01009 0.13986 0.44067 0.0
C1167 C 0.04819 0.1919 0.48425 0.0
N1168 N 0.99095 0.1785 0.40585 0.0
N1169 N 0.05603 0.15494 0.52658 0.0
H1170 H 0.07553 0.23936 0.49378 0.0
H1171 H 0.08686 0.21271 0.5218 0.0
H1172 H 0.05412 0.13195 0.53489 0.0
H1173 H 0.06646 0.17343 0.54552 0.0
H1174 H 0.97345 0.161 0.39154 0.0
H1175 H 0.99049 0.20177 0.39925 0.0
H1176 H 0.98775 0.11636 0.39253 0.0
H1177 H 0.99242 0.09037 0.4238 0.0
C1178 C 0.60586 0.23786 0.18218 0.0
C1179 C 0.60354 0.24484 0.14755 0.0
C1180 C 0.66187 0.25757 0.15229 0.0
C1181 C 0.66308 0.25984 0.18839 0.0
N1182 N 0.63364 0.25462 0.2383 0.0
N1183 N 0.63156 0.26751 0.10147 0.0
C1184 C 0.63448 0.25032 0.20371 0.0
C1185 C 0.63214 0.25597 0.13274 0.0
N1186 N 0.58115 0.21877 0.19445 0.0
N1187 N 0.68903 0.25677 0.13661 0.0
H1188 H 0.61088 0.27058 0.08716 0.0
H1189 H 0.65231 0.27803 0.09167 0.0
H1190 H 0.71097 0.25607 0.15022 0.0
H1191 H 0.68868 0.25264 0.11011 0.0
H1192 H 0.58288 0.21109 0.21883 0.0
H1193 H 0.56066 0.2073 0.17885 0.0
H1194 H 0.61228 0.25109 0.24956 0.0
H1195 H 0.65335 0.26437 0.2557 0.0
C1196 C 0.52439 0.88251 0.94198 0.0
C1197 C 0.55365 0.87248 0.95133 0.0
C1198 C 0.56811 0.91944 0.99501 0.0
C1199 C 0.53677 0.92638 0.98915 0.0
N1200 N 0.48307 0.90921 0.96161 0.0
N1201 N 0.60294 0.87994 0.98844 0.0
C1202 C 0.51449 0.90661 0.96366 0.0
C1203 C 0.57535 0.89047 0.97847 0.0
N1204 N 0.50561 0.86902 0.91265 0.0
N1205 N 0.59143 0.94119 0.01484 0.0
H1206 H 0.61017 0.86026 0.9754 0.0
H1207 H 0.61774 0.88969 0.01064 0.0
H1208 H 0.58745 0.96311 0.02649 0.0
H1209 H 0.61544 0.93899 0.01708 0.0
H1210 H 0.48586 0.87824 0.90304 0.0
H1211 H 0.51112 0.85077 0.896 0.0
H1212 H 0.46503 0.89282 0.94658 0.0
H1213 H 0.47472 0.92542 0.97814 0.0
C1214 C 0.92811 0.77535 0.70455 0.0
C1215 C 0.93454 0.74691 0.68654 0.0
C1216 C 0.8833 0.71641 0.69838 0.0
C1217 C 0.87616 0.74524 0.71523 0.0
N1218 N 0.89496 0.79927 0.74281 0.0
N1219 N 0.9224 0.68919 0.67227 0.0
C1220 C 0.89965 0.77383 0.72111 0.0
C1221 C 0.9134 0.71701 0.68541 0.0
N1222 N 0.94879 0.80401 0.70488 0.0
N1223 N 0.86102 0.68853 0.69448 0.0
H1224 H 0.94413 0.68897 0.66212 0.0
H1225 H 0.90966 0.66605 0.67352 0.0
H1226 H 0.84025 0.68618 0.70667 0.0
H1227 H 0.86255 0.66792 0.67862 0.0
H1228 H 0.94373 0.82638 0.71376 0.0
H1229 H 0.97057 0.80569 0.6945 0.0
H1230 H 0.91226 0.81982 0.75049 0.0
H1231 H 0.87479 0.79855 0.75593 0.0
C1232 C 0.10692 0.03548 0.91907 0.0
C1233 C 0.10119 0.01164 0.89051 0.0
C1234 C 0.05154 0.98597 0.91246 0.0
C1235 C 0.0584 0.00846 0.94223 0.0
N1236 N 0.09438 0.0531 0.97565 0.0
N1237 N 0.07103 0.96116 0.86244 0.0
C1238 C 0.08668 0.03269 0.94605 0.0
C1239 C 0.0742 0.98614 0.8878 0.0
N1240 N 0.1309 0.06166 0.91965 0.0
N1241 N 0.02334 0.96437 0.90771 0.0
H1242 H 0.0873 0.9601 0.84434 0.0
H1243 H 0.05401 0.94009 0.86097 0.0
H1244 H 0.00701 0.96244 0.92589 0.0
H1245 H 0.01503 0.94986 0.88489 0.0
H1246 H 0.13404 0.08202 0.9374 0.0
H1247 H 0.14646 0.06419 0.90073 0.0
H1248 H 0.11644 0.06829 0.98198 0.0
H1249 H 0.07943 0.05371 0.99505 0.0
C1250 C 0.74643 0.32949 0.60253 0.0
C1251 C 0.77352 0.35043 0.59394 0.0
C1252 C 0.80016 0.35223 0.6517 0.0
C1253 C 0.77459 0.3283 0.65909 0.0
N1254 N 0.72427 0.29238 0.64147 0.0
N1255 N 0.82572 0.38291 0.60906 0.0
C1256 C 0.74775 0.31669 0.6346 0.0
C1257 C 0.80017 0.36244 0.61832 0.0
N1258 N 0.71938 0.3222 0.57992 0.0
N1259 N 0.82404 0.36554 0.67681 0.0
H1260 H 0.8256 0.39185 0.58526 0.0
H1261 H 0.84738 0.39047 0.62418 0.0
H1262 H 0.82465 0.35851 0.70132 0.0
H1263 H 0.84221 0.38477 0.67437 0.0
H1264 H 0.69769 0.30945 0.58552 0.0
H1265 H 0.71782 0.33146 0.55629 0.0
H1266 H 0.70575 0.28045 0.6235 0.0
H1267 H 0.72439 0.28226 0.66464 0.0
C1268 C 0.43644 0.0159 0.41305 0.0
C1269 C 0.44731 0.04448 0.39796 0.0
C1270 C 0.49358 0.05756 0.44185 0.0
C1271 C 0.48557 0.02629 0.45292 0.0
N1272 N 0.45272 0.97285 0.44266 0.0
N1273 N 0.48732 0.09213 0.39671 0.0
C1274 C 0.45778 0.00474 0.43689 0.0
C1275 C 0.47629 0.06515 0.41196 0.0
N1276 N 0.40613 0.99889 0.40434 0.0
N1277 N 0.51631 0.08064 0.46078 0.0
H1278 H 0.47414 0.09986 0.37648 0.0
H1279 H 0.51015 0.10586 0.40307 0.0
H1280 H 0.52865 0.07661 0.4835 0.0
H1281 H 0.52065 0.10477 0.45582 0.0
H1282 H 0.39616 0.97995 0.41752 0.0
H1283 H 0.38964 0.00546 0.38653 0.0
H1284 H 0.43353 0.95573 0.43081 0.0
H1285 H 0.46968 0.96242 0.45609 0.0
C1286 C 0.75876 0.65345 0.11989 0.0
C1287 C 0.77074 0.67419 0.09578 0.0
C1288 C 0.79469 0.71583 0.14297 0.0
C1289 C 0.77932 0.69642 0.16648 0.0
N1290 N 0.74145 0.64983 0.17645 0.0
N1291 N 0.7998 0.72564 0.08392 0.0
C1292 C 0.75982 0.6661 0.15463 0.0
C1293 C 0.78851 0.70561 0.10725 0.0
N1294 N 0.74725 0.62145 0.11 0.0
N1295 N 0.81646 0.74315 0.15474 0.0
H1296 H 0.79906 0.7179 0.05796 0.0
H1297 H 0.80886 0.75022 0.09002 0.0
H1298 H 0.82119 0.75195 0.18046 0.0
H1299 H 0.83153 0.75598 0.13936 0.0
H1300 H 0.74055 0.60469 0.12707 0.0
H1301 H 0.74833 0.61082 0.08547 0.0
H1302 H 0.72434 0.62914 0.16856 0.0
H1303 H 0.74082 0.65905 0.20174 0.0
C1304 C 0.0898 0.04673 0.69601 0.0
C1305 C 0.11122 0.02872 0.71162 0.0
C1306 C 0.10524 0.99225 0.65869 0.0
C1307 C 0.07987 0.00708 0.64539 0.0
N1308 N 0.04374 0.04465 0.6554 0.0
N1309 N 0.15195 0.9974 0.69975 0.0
C1310 C 0.07125 0.0337 0.66476 0.0
C1311 C 0.12274 0.00507 0.69078 0.0
N1312 N 0.08862 0.0772 0.71012 0.0
N1313 N 0.11215 0.9653 0.64109 0.0
H1314 H 0.16768 0.01024 0.71996 0.0
H1315 H 0.16275 0.98209 0.68429 0.0
H1316 H 0.1007 0.95554 0.61705 0.0
H1317 H 0.12748 0.95111 0.65149 0.0
H1318 H 0.07539 0.09254 0.69829 0.0
H1319 H 0.10443 0.08862 0.73106 0.0
H1320 H 0.03515 0.06201 0.67067 0.0
H1321 H 0.0273 0.03363 0.63491 0.0
C1322 C 0.72442 0.32326 0.38746 0.0
C1323 C 0.73899 0.32025 0.42048 0.0
C1324 C 0.75582 0.27024 0.39831 0.0
C1325 C 0.74504 0.27554 0.36441 0.0
N1326 N 0.70152 0.29368 0.33315 0.0
N1327 N 0.74539 0.27806 0.45708 0.0
C1328 C 0.72412 0.29822 0.36064 0.0
C1329 C 0.74799 0.28999 0.42617 0.0
N1330 N 0.70935 0.34861 0.38172 0.0
N1331 N 0.77246 0.24616 0.40486 0.0
H1332 H 0.73334 0.28819 0.47592 0.0
H1333 H 0.74976 0.25515 0.46162 0.0
H1334 H 0.77319 0.22629 0.38766 0.0
H1335 H 0.78492 0.24567 0.42872 0.0
H1336 H 0.70171 0.35347 0.35721 0.0
H1337 H 0.70375 0.36425 0.40123 0.0
H1338 H 0.68313 0.30703 0.33131 0.0
H1339 H 0.69818 0.2734 0.31516 0.0
C1340 C 0.45264 0.03193 0.19462 0.0
C1341 C 0.45145 0.00899 0.21885 0.0
C1342 C 0.46352 0.96813 0.17615 0.0
C1343 C 0.46248 0.99019 0.15137 0.0
N1344 N 0.45331 0.04205 0.13509 0.0
N1345 N 0.44844 0.95336 0.23096 0.0
C1346 C 0.45605 0.02178 0.16 0.0
C1347 C 0.45489 0.97654 0.20915 0.0
N1348 N 0.45205 0.06362 0.20501 0.0
N1349 N 0.47316 0.9393 0.16829 0.0
H1350 H 0.44107 0.95816 0.25506 0.0
H1351 H 0.44724 0.92875 0.22395 0.0
H1352 H 0.47885 0.93197 0.14399 0.0
H1353 H 0.47803 0.92387 0.18649 0.0
H1354 H 0.4563 0.08225 0.18947 0.0
H1355 H 0.44952 0.07185 0.23015 0.0
H1356 H 0.44496 0.06376 0.13879 0.0
H1357 H 0.45779 0.03647 0.10991 0.0
C1358 C 0.78619 0.67186 0.8886 0.0
C1359 C 0.76397 0.67478 0.91322 0.0
C1360 C 0.75721 0.7277 0.8935 0.0
C1361 C 0.77815 0.72392 0.86791 0.0
N1362 N 0.82291 0.70018 0.85336 0.0
N1363 N 0.72135 0.70099 0.93073 0.0
C1364 C 0.79542 0.69805 0.86886 0.0
C1365 C 0.74769 0.7016 0.91337 0.0
N1366 N 0.79759 0.64377 0.88232 0.0
N1367 N 0.74828 0.75687 0.90099 0.0
H1368 H 0.71132 0.68043 0.94148 0.0
H1369 H 0.70694 0.71856 0.93028 0.0
H1370 H 0.75831 0.7778 0.89104 0.0
H1371 H 0.73509 0.76168 0.92119 0.0
H1372 H 0.81078 0.63961 0.86189 0.0
H1373 H 0.79083 0.62296 0.89398 0.0
H1374 H 0.83892 0.68433 0.85652 0.0
H1375 H 0.83184 0.72055 0.84158 0.0
C1376 C 0.88621 0.10792 0.05024 0.0
C1377 C 0.85724 0.10124 0.02828 0.0
C1378 C 0.87791 0.05986 0.99309 0.0
C1379 C 0.90548 0.0644 0.01692 0.0
N1380 N 0.93522 0.09024 0.06987 0.0
N1381 N 0.82435 0.07039 0.97939 0.0
C1382 C 0.90955 0.08791 0.04587 0.0
C1383 C 0.85278 0.07707 -0.00018 0.0
N1384 N 0.8914 0.13339 0.07528 0.0
N1385 N 0.87612 0.03948 0.96374 0.0
H1386 H 0.80628 0.08397 0.9817 0.0
H1387 H 0.81789 0.0505 0.96102 0.0
H1388 H 0.89392 0.02615 0.9585 0.0
H1389 H 0.85831 0.03734 0.94348 0.0
H1390 H 0.91339 0.14199 0.08953 0.0
H1391 H 0.87422 0.14751 0.08044 0.0
H1392 H 0.93773 0.10395 0.09352 0.0
H1393 H 0.95329 0.07671 0.06712 0.0
C1394 C 0.37799 0.4637 0.03453 0.0
C1395 C 0.3764 0.43914 0.05708 0.0
C1396 C 0.43285 0.45938 0.07833 0.0
C1397 C 0.43613 0.47898 0.05101 0.0
N1398 N 0.41118 0.50078 0.00327 0.0
N1399 N 0.40235 0.41376 0.10129 0.0
C1400 C 0.40837 0.48193 0.02957 0.0
C1401 C 0.40383 0.4372 0.0794 0.0
N1402 N 0.35053 0.46945 0.01758 0.0
N1403 N 0.45709 0.4631 0.10414 0.0
H1404 H 0.38103 0.39865 0.10462 0.0
H1405 H 0.4225 0.4084 0.1149 0.0
H1406 H 0.47821 0.47986 0.10451 0.0
H1407 H 0.45495 0.45214 0.12666 0.0
H1408 H 0.34959 0.48907 0.00351 0.0
H1409 H 0.32803 0.45636 0.02007 0.0
H1410 H 0.39293 0.50067 0.9839 0.0
H1411 H 0.43254 0.51528 -0.00042 0.0
C1412 C 0.33827 0.58435 0.77528 0.0
C1413 C 0.3575 0.57995 0.74813 0.0
C1414 C 0.35653 0.63585 0.73506 0.0
C1415 C 0.33881 0.64084 0.76343 0.0
N1416 N 0.30676 0.61801 0.80571 0.0
N1417 N 0.37964 0.5985 0.69809 0.0
C1418 C 0.3275 0.61439 0.78175 0.0
C1419 C 0.36495 0.60486 0.72672 0.0
N1420 N 0.33204 0.5605 0.79637 0.0
N1421 N 0.36555 0.66104 0.71634 0.0
H1422 H 0.38576 0.576 0.69148 0.0
H1423 H 0.38387 0.61435 0.6796 0.0
H1424 H 0.35745 0.68297 0.71982 0.0
H1425 H 0.38132 0.66073 0.69776 0.0
H1426 H 0.32227 0.56358 0.81941 0.0
H1427 H 0.33821 0.53777 0.79191 0.0
H1428 H 0.29453 0.59883 0.81694 0.0
H1429 H 0.29972 0.63988 0.81279 0.0
C1430 C 0.17177 0.60276 0.58092 0.0
C1431 C 0.18696 0.61444 0.55283 0.0
C1432 C 0.13698 0.59865 0.51548 0.0
C1433 C 0.12149 0.58663 0.54332 0.0
N1434 N 0.12502 0.5709 0.60053 0.0
N1435 N 0.187 0.61375 0.49172 0.0
C1436 C 0.13925 0.58646 0.57544 0.0
C1437 C 0.1705 0.60916 0.51956 0.0
N1438 N 0.18824 0.60801 0.61278 0.0
N1439 N 0.11963 0.60111 0.48534 0.0
H1440 H 0.21178 0.62061 0.49373 0.0
H1441 H 0.17667 0.6073 0.4666 0.0
H1442 H 0.09509 0.59282 0.48058 0.0
H1443 H 0.1292 0.61376 0.46602 0.0
H1444 H 0.17779 0.60317 0.63504 0.0
H1445 H 0.21242 0.61856 0.61696 0.0
H1446 H 0.13736 0.56731 0.62341 0.0
H1447 H 0.10107 0.55953 0.5974 0.0
C1448 C 0.69742 0.91264 0.74676 0.0
C1449 C 0.68142 0.92452 0.7738 0.0
C1450 C 0.69291 0.88037 0.80667 0.0
C1451 C 0.71157 0.87042 0.78115 0.0
N1452 N 0.73748 0.8816 0.73042 0.0
N1453 N 0.67224 0.92497 0.83343 0.0
C1454 C 0.71558 0.88792 0.75219 0.0
C1455 C 0.68144 0.90988 0.8049 0.0
N1456 N 0.69436 0.92407 0.71552 0.0
N1457 N 0.68487 0.86115 0.83182 0.0
H1458 H 0.66601 0.94779 0.83403 0.0
H1459 H 0.67458 0.91666 0.85746 0.0
H1460 H 0.69228 0.83905 0.83388 0.0
H1461 H 0.66829 0.86574 0.84866 0.0
H1462 H 0.70283 0.9139 0.6939 0.0
H1463 H 0.68065 0.94166 0.71035 0.0
H1464 H 0.74345 0.89552 0.71062 0.0
H1465 H 0.75219 0.8646 0.73434 0.0
C1466 C 0.68877 0.94282 0.51884 0.0
C1467 C 0.7005 0.93564 0.55166 0.0
C1468 C 0.6578 0.95939 0.57668 0.0
C1469 C 0.64363 0.96234 0.54333 0.0
N1470 N 0.64395 0.95348 0.48216 0.0
N1471 N 0.69543 0.93551 0.61185 0.0
C1472 C 0.65885 0.95347 0.51427 0.0
C1473 C 0.68493 0.94375 0.58066 0.0
N1474 N 0.7067 0.94032 0.49205 0.0
N1475 N 0.64556 0.97221 0.60457 0.0
H1476 H 0.71553 0.92472 0.61571 0.0
H1477 H 0.68315 0.93735 0.63337 0.0
H1478 H 0.62618 0.98428 0.60244 0.0
H1479 H 0.65619 0.97356 0.62954 0.0
H1480 H 0.70117 0.94832 0.46841 0.0
H1481 H 0.72888 0.93323 0.49447 0.0
H1482 H 0.65163 0.94312 0.46016 0.0
H1483 H 0.62252 0.96179 0.47755 0.0
C1484 C 0.36069 0.38619 0.78953 0.0
C1485 C 0.3595 0.40011 0.75788 0.0
C1486 C 0.31699 0.35421 0.73361 0.0
C1487 C 0.31721 0.3415 0.76585 0.0
N1488 N 0.3335 0.35036 0.82647 0.0
N1489 N 0.33328 0.39955 0.70108 0.0
C1490 C 0.33738 0.359 0.79431 0.0
C1491 C 0.33635 0.38497 0.73045 0.0
N1492 N 0.38454 0.39836 0.81517 0.0
N1493 N 0.29986 0.33601 0.7055 0.0
H1494 H 0.34833 0.42071 0.69684 0.0
H1495 H 0.31455 0.39184 0.68179 0.0
H1496 H 0.28568 0.31349 0.70667 0.0
H1497 H 0.30153 0.34198 0.68061 0.0
H1498 H 0.38922 0.38632 0.83647 0.0
H1499 H 0.40122 0.41932 0.8145 0.0
H1500 H 0.34465 0.36446 0.84867 0.0
H1501 H 0.31646 0.33097 0.83129 0.0
C1502 C 0.18181 0.58995 0.24921 0.0
C1503 C 0.15585 0.58887 0.26973 0.0
C1504 C 0.17302 0.64673 0.28727 0.0
C1505 C 0.20202 0.64614 0.27216 0.0
N1506 N 0.23644 0.61438 0.24443 0.0
N1507 N 0.13167 0.61597 0.31478 0.0
C1508 C 0.20711 0.61701 0.25458 0.0
C1509 C 0.15269 0.61717 0.29054 0.0
N1510 N 0.18207 0.56576 0.22385 0.0
N1511 N 0.16404 0.67539 0.29749 0.0
H1512 H 0.1169 0.59491 0.31955 0.0
H1513 H 0.13146 0.63551 0.33286 0.0
H1514 H 0.17696 0.69793 0.29403 0.0
H1515 H 0.14167 0.67663 0.30567 0.0
H1516 H 0.19904 0.56725 0.20635 0.0
H1517 H 0.16352 0.54604 0.21768 0.0
H1518 H 0.24193 0.59248 0.2345 0.0
H1519 H 0.25627 0.63297 0.24938 0.0
C1520 C 0.54202 0.67287 0.44282 0.0
C1521 C 0.51099 0.68069 0.43849 0.0
C1522 C 0.48935 0.63452 0.46739 0.0
C1523 C 0.51918 0.62406 0.46774 0.0
N1524 N 0.57378 0.63165 0.45453 0.0
N1525 N 0.45398 0.66517 0.43919 0.0
C1526 C 0.5456 0.64282 0.4551 0.0
C1527 C 0.48431 0.66037 0.44858 0.0
N1528 N 0.56789 0.69439 0.43605 0.0
N1529 N 0.46592 0.62011 0.48535 0.0
H1530 H 0.44925 0.68351 0.42443 0.0
H1531 H 0.43355 0.64894 0.44284 0.0
H1532 H 0.46928 0.60227 0.50114 0.0
H1533 H 0.44467 0.62866 0.48805 0.0
H1534 H 0.59144 0.69154 0.44197 0.0
H1535 H 0.56579 0.71621 0.42627 0.0
H1536 H 0.59292 0.6424 0.44237 0.0
H1537 H 0.57744 0.61064 0.46522 0.0
C1538 C 0.65941 0.31413 0.72179 0.0
C1539 C 0.63588 0.28618 0.71084 0.0
C1540 C 0.66713 0.25289 0.743 0.0
C1541 C 0.69124 0.28056 0.75264 0.0
N1542 N 0.70695 0.33862 0.75972 0.0
N1543 N 0.61338 0.23056 0.71725 0.0
C1544 C 0.68617 0.31162 0.74494 0.0
C1545 C 0.63835 0.25611 0.72368 0.0
N1546 N 0.65657 0.34283 0.70927 0.0
N1547 N 0.6723 0.22332 0.75148 0.0
H1548 H 0.59237 0.23109 0.70198 0.0
H1549 H 0.61234 0.20932 0.72899 0.0
H1550 H 0.69178 0.2206 0.76816 0.0
H1551 H 0.65811 0.20141 0.74123 0.0
H1552 H 0.67476 0.36306 0.71258 0.0
H1553 H 0.63631 0.34602 0.69405 0.0
H1554 H 0.7031 0.36213 0.75769 0.0
H1555 H 0.72704 0.33756 0.77633 0.0
C1556 C 0.99042 0.34264 0.95892 0.0
C1557 C 0.01062 0.33795 0.93278 0.0
C1558 C 0.03731 0.39441 0.94571 0.0
C1559 C 0.02157 0.3967 0.97566 0.0
N1560 N 0.984 0.37289 0.01224 0.0
N1561 N 0.05874 0.35845 0.90707 0.0
C1562 C 0.99827 0.3708 0.98268 0.0
C1563 C 0.03527 0.36369 0.92722 0.0
N1564 N 0.9632 0.32079 0.96038 0.0
N1565 N 0.05483 0.42137 0.9353 0.0
H1566 H 0.06085 0.33578 0.89582 0.0
H1567 H 0.07872 0.376 0.90513 0.0
H1568 H 0.05718 0.44437 0.94842 0.0
H1569 H 0.06422 0.42132 0.9118 0.0
H1570 H 0.94621 0.32426 0.97706 0.0
H1571 H 0.95587 0.30101 0.94217 0.0
H1572 H 0.96976 0.35323 0.02082 0.0
H1573 H 0.9879 0.39398 0.02912 0.0
C1574 C 0.95568 0.7767 0.23733 0.0
C1575 C 0.95979 0.75466 0.20932 0.0
C1576 C 0.90365 0.72827 0.20731 0.0
C1577 C 0.90006 0.74934 0.23624 0.0
N1578 N 0.92394 0.78872 0.28328 0.0
N1579 N 0.93966 0.70581 0.17173 0.0
C1580 C 0.92661 0.77187 0.25276 0.0
C1581 C 0.93436 0.72926 0.19562 0.0
N1582 N 0.97846 0.80364 0.24762 0.0
N1583 N 0.87744 0.70852 0.18984 0.0
H1584 H 0.9617 0.70603 0.16224 0.0
H1585 H 0.92314 0.68478 0.16344 0.0
H1586 H 0.85481 0.70656 0.19813 0.0
H1587 H 0.87766 0.69578 0.16605 0.0
H1588 H 0.97506 0.82238 0.26515 0.0
H1589 H 0.99964 0.80903 0.23637 0.0
H1590 H 0.9433 0.80315 0.29836 0.0
H1591 H 0.90286 0.78577 0.29511 0.0
C1592 C 0.49775 0.34905 0.10126 0.0
C1593 C 0.51445 0.3237 0.09231 0.0
C1594 C 0.53582 0.35325 0.04601 0.0
C1595 C 0.52149 0.37957 0.05728 0.0
N1596 N 0.49688 0.40611 0.10178 0.0
N1597 N 0.55562 0.30554 0.06152 0.0
C1598 C 0.505 0.37861 0.08687 0.0
C1599 C 0.53517 0.32674 0.06602 0.0
N1600 N 0.47361 0.34446 0.12187 0.0
N1601 N 0.54989 0.35348 0.01626 0.0
H1602 H 0.55736 0.28747 0.07746 0.0
H1603 H 0.57323 0.30819 0.04481 0.0
H1604 H 0.55157 0.37307 0.00168 0.0
H1605 H 0.55776 0.33342 0.00492 0.0
H1606 H 0.45903 0.36147 0.12662 0.0
H1607 H 0.46551 0.32231 0.1308 0.0
H1608 H 0.48796 0.40728 0.12552 0.0
H1609 H 0.50237 0.42848 0.09232 0.0
C1610 C 0.9364 0.25861 0.35168 0.0
C1611 C 0.9403 0.28132 0.3814 0.0
C1612 C 0.88598 0.29133 0.36821 0.0
C1613 C 0.8819 0.26769 0.33972 0.0
N1614 N 0.90562 0.23825 0.29714 0.0
N1615 N 0.92323 0.32701 0.4107 0.0
C1616 C 0.90812 0.25474 0.3289 0.0
C1617 C 0.91644 0.30022 0.38738 0.0
N1618 N 0.95827 0.23896 0.3464 0.0
N1619 N 0.86045 0.30453 0.37731 0.0
H1620 H 0.94598 0.33527 0.42349 0.0
H1621 H 0.90741 0.3428 0.41479 0.0
H1622 H 0.83844 0.29981 0.36228 0.0
H1623 H 0.86069 0.31901 0.40015 0.0
H1624 H 0.95446 0.21955 0.32736 0.0
H1625 H 0.97908 0.23999 0.36257 0.0
H1626 H 0.92482 0.23036 0.28656 0.0
H1627 H 0.88515 0.23587 0.27997 0.0
C1628 C 0.99787 0.63356 0.60785 0.0
C1629 C 0.99227 0.65587 0.58407 0.0
C1630 C 0.99222 0.61475 0.53662 0.0
C1631 C 0.99727 0.59179 0.56008 0.0
N1632 N 0.9908 0.57718 0.61746 0.0
N1633 N 0.96934 0.66239 0.5278 0.0
C1634 C 0.99554 0.60043 0.59556 0.0
C1635 C 0.98389 0.6443 0.54918 0.0
N1636 N 0.00695 0.64361 0.64167 0.0
N1637 N 0.99822 0.6105 0.50322 0.0
H1638 H 0.96276 0.68411 0.53679 0.0
H1639 H 0.96076 0.65392 0.50248 0.0
H1640 H 0.00868 0.59187 0.49288 0.0
H1641 H 0.99696 0.62831 0.48669 0.0
H1642 H 0.01524 0.62857 0.65865 0.0
H1643 H 0.00802 0.66715 0.65262 0.0
H1644 H 0.98691 0.58229 0.64291 0.0
H1645 H 0.98646 0.55255 0.60919 0.0
C1646 C 0.62836 0.73846 0.86567 0.0
C1647 C 0.61044 0.76269 0.85746 0.0
C1648 C 0.64095 0.77337 0.80866 0.0
C1649 C 0.66287 0.75466 0.82141 0.0
N1650 N 0.67534 0.71421 0.85656 0.0
N1651 N 0.59903 0.80339 0.82107 0.0
C1652 C 0.6555 0.73511 0.84797 0.0
C1653 C 0.61598 0.77965 0.82837 0.0
N1654 N 0.61954 0.71923 0.89061 0.0
N1655 N 0.64454 0.78548 0.77804 0.0
H1656 H 0.58055 0.80885 0.83483 0.0
H1657 H 0.60465 0.81925 0.80284 0.0
H1658 H 0.66214 0.78 0.76296 0.0
H1659 H 0.62822 0.79764 0.76591 0.0
H1660 H 0.63085 0.7005 0.89767 0.0
H1661 H 0.59943 0.72102 0.90341 0.0
H1662 H 0.6728 0.69977 0.87648 0.0
H1663 H 0.69456 0.71104 0.84274 0.0
C1664 C 0.48043 0.5332 0.66707 0.0
C1665 C 0.45201 0.50951 0.66484 0.0
C1666 C 0.45925 0.49236 0.60532 0.0
C1667 C 0.48845 0.51517 0.60793 0.0
N1668 N 0.52265 0.56232 0.63803 0.0
N1669 N 0.41025 0.47232 0.62985 0.0
C1670 C 0.49772 0.53716 0.63788 0.0
C1671 C 0.44002 0.49112 0.6332 0.0
N1672 N 0.49126 0.55134 0.69762 0.0
N1673 N 0.45062 0.47063 0.57685 0.0
H1674 H 0.39598 0.47042 0.64994 0.0
H1675 H 0.39849 0.46092 0.6066 0.0
H1676 H 0.46239 0.47206 0.55487 0.0
H1677 H 0.43251 0.45045 0.57527 0.0
H1678 H 0.51374 0.56595 0.70273 0.0
H1679 H 0.4779 0.5509 0.71853 0.0
H1680 H 0.52903 0.58107 0.65769 0.0
H1681 H 0.53549 0.56595 0.61697 0.0
C1682 C 0.78751 0.18933 0.93804 0.0
C1683 C 0.76412 0.1826 0.96103 0.0
C1684 C 0.72942 0.21349 0.92994 0.0
C1685 C 0.75101 0.21682 0.90483 0.0
N1686 N 0.79899 0.2044 0.8822 0.0
N1687 N 0.71092 0.1842 0.97624 0.0
C1688 C 0.77973 0.20395 0.90815 0.0
C1689 C 0.73462 0.19376 0.9564 0.0
N1690 N 0.81753 0.18276 0.94531 0.0
N1691 N 0.70431 0.22977 0.92886 0.0
H1692 H 0.71371 0.16879 0.99482 0.0
H1693 H 0.68773 0.18868 0.97199 0.0
H1694 H 0.69991 0.24448 0.9097 0.0
H1695 H 0.68969 0.23115 0.9485 0.0
H1696 H 0.83666 0.19066 0.93165 0.0
H1697 H 0.82423 0.17182 0.96682 0.0
H1698 H 0.81789 0.19175 0.88142 0.0
H1699 H 0.79475 0.21512 0.85988 0.0
C1700 C 0.07382 0.50961 0.16685 0.0
C1701 C 0.07572 0.47819 0.17599 0.0
C1702 C 0.04243 0.45456 0.12294 0.0
C1703 C 0.0377 0.48605 0.11624 0.0
N1704 N 0.04292 0.54262 0.13582 0.0
N1705 N 0.06071 0.42045 0.16442 0.0
C1706 C 0.05173 0.51332 0.13938 0.0
C1707 C 0.05978 0.45046 0.15439 0.0
N1708 N 0.09307 0.53604 0.1848 0.0
N1709 N 0.03083 0.42886 0.09902 0.0
H1710 H 0.07461 0.41708 0.18649 0.0
H1711 H 0.04694 0.39925 0.15173 0.0
H1712 H 0.01678 0.43111 0.07667 0.0
H1713 H 0.03634 0.40587 0.10053 0.0
H1714 H 0.09505 0.55934 0.17738 0.0
H1715 H 0.10951 0.53399 0.20516 0.0
H1716 H 0.05016 0.56282 0.15373 0.0
H1717 H 0.02534 0.54567 0.11698 0.0
C1718 C 0.79582 0.83976 0.44746 0.0
C1719 C 0.77182 0.85521 0.461 0.0
C1720 C 0.738 0.84075 0.40622 0.0
C1721 C 0.76226 0.82587 0.39254 0.0
N1722 N 0.81099 0.80462 0.40205 0.0
N1723 N 0.71672 0.86222 0.45643 0.0
C1724 C 0.79011 0.8232 0.4138 0.0
C1725 C 0.74199 0.85352 0.44119 0.0
N1726 N 0.82462 0.84195 0.46631 0.0
N1727 N 0.71076 0.84225 0.38584 0.0
H1728 H 0.71817 0.8703 0.48226 0.0
H1729 H 0.69343 0.85842 0.44458 0.0
H1730 H 0.70476 0.82947 0.36166 0.0
H1731 H 0.69452 0.857 0.39235 0.0
H1732 H 0.84474 0.83538 0.45657 0.0
H1733 H 0.82896 0.85228 0.49146 0.0
H1734 H 0.82974 0.79867 0.41747 0.0
H1735 H 0.8083 0.7928 0.3774 0.0
C1736 C 0.41934 0.48752 0.86652 0.0
C1737 C 0.43338 0.50572 0.84117 0.0
C1738 C 0.47908 0.53019 0.883 0.0
C1739 C 0.46379 0.51433 0.9087 0.0
N1740 N 0.4244 0.47236 0.92473 0.0
N1741 N 0.47295 0.55009 0.82785 0.0
C1742 C 0.43529 0.49132 0.90035 0.0
C1743 C 0.4626 0.52817 0.84985 0.0
N1744 N 0.39024 0.46765 0.85863 0.0
N1745 N 0.50951 0.54722 0.89038 0.0
H1746 H 0.46041 0.55195 0.80448 0.0
H1747 H 0.49207 0.56922 0.8344 0.0
H1748 H 0.52199 0.5491 0.91456 0.0
H1749 H 0.52345 0.55649 0.87193 0.0
H1750 H 0.37703 0.45624 0.87644 0.0
H1751 H 0.37826 0.46323 0.83407 0.0
H1752 H 0.40491 0.45346 0.92054 0.0
H1753 H 0.43695 0.47383 0.9489 0.0
C1754 C 0.7785 0.18104 0.15872 0.0
C1755 C 0.80375 0.19394 0.14054 0.0
C1756 C 0.81831 0.24001 0.18501 0.0
C1757 C 0.7884 0.23073 0.19786 0.0
N1758 N 0.73663 0.1951 0.19075 0.0
N1759 N 0.84958 0.23466 0.13686 0.0
C1760 C 0.76758 0.20179 0.18325 0.0
C1761 C 0.82464 0.22293 0.15427 0.0
N1762 N 0.764 0.14946 0.1514 0.0
N1763 N 0.84056 0.26459 0.20224 0.0
H1764 H 0.85513 0.22147 0.11522 0.0
H1765 H 0.86373 0.25749 0.14311 0.0
H1766 H 0.83652 0.27746 0.22477 0.0
H1767 H 0.86379 0.27049 0.19567 0.0
H1768 H 0.74672 0.13839 0.16579 0.0
H1769 H 0.77211 0.13367 0.13376 0.0
H1770 H 0.72013 0.17547 0.17838 0.0
H1771 H 0.72628 0.21116 0.20585 0.0
C1772 C 0.07676 0.47928 0.36508 0.0
C1773 C 0.10182 0.50107 0.35358 0.0
C1774 C 0.09288 0.54433 0.39485 0.0
C1775 C 0.07148 0.52163 0.40957 0.0
N1776 N 0.04322 0.4671 0.41033 0.0
N1777 N 0.13695 0.55328 0.36052 0.0
C1778 C 0.06304 0.48904 0.39484 0.0
C1779 C 0.1109 0.53332 0.36932 0.0
N1780 N 0.06642 0.44915 0.3479 0.0
N1781 N 0.09511 0.57654 0.4047 0.0
H1782 H 0.15055 0.54669 0.34135 0.0
H1783 H 0.14655 0.57567 0.37411 0.0
H1784 H 0.08026 0.58486 0.42178 0.0
H1785 H 0.1085 0.59472 0.39304 0.0
H1786 H 0.04572 0.43382 0.35243 0.0
H1787 H 0.07772 0.43986 0.32787 0.0
H1788 H 0.03976 0.44218 0.40388 0.0
H1789 H 0.03115 0.4738 0.43087 0.0
C1790 C 0.74615 0.81756 0.64205 0.0
C1791 C 0.77339 0.8417 0.64015 0.0
C1792 C 0.79839 0.82721 0.69371 0.0
C1793 C 0.7708 0.80345 0.69637 0.0
N1794 N 0.71547 0.78169 0.67691 0.0
N1795 N 0.8216 0.87492 0.66803 0.0
C1796 C 0.74377 0.80027 0.67162 0.0
C1797 C 0.7981 0.84837 0.66746 0.0
N1798 N 0.72292 0.81052 0.61502 0.0
N1799 N 0.82575 0.82824 0.71486 0.0
H1800 H 0.82191 0.89061 0.64899 0.0
H1801 H 0.8387 0.88314 0.68884 0.0
H1802 H 0.82762 0.81245 0.73342 0.0
H1803 H 0.84757 0.84249 0.71179 0.0
H1804 H 0.70445 0.79056 0.61263 0.0
H1805 H 0.72309 0.82401 0.59407 0.0
H1806 H 0.69408 0.78107 0.66175 0.0
H1807 H 0.71265 0.76899 0.69826 0.0
C1808 C 0.70269 0.4501 0.55772 0.0
C1809 C 0.69702 0.43312 0.52441 0.0
C1810 C 0.64542 0.45087 0.51552 0.0
C1811 C 0.65183 0.46938 0.54822 0.0
N1812 N 0.68885 0.4915 0.59754 0.0
N1813 N 0.66678 0.42302 0.46887 0.0
C1814 C 0.68125 0.47051 0.56839 0.0
C1815 C 0.66954 0.43527 0.50247 0.0
N1816 N 0.72774 0.44558 0.57976 0.0
N1817 N 0.61574 0.44635 0.49771 0.0
H1818 H 0.68378 0.4111 0.45846 0.0
H1819 H 0.64918 0.42721 0.45064 0.0
H1820 H 0.59699 0.45688 0.5058 0.0
H1821 H 0.60874 0.42988 0.47599 0.0
H1822 H 0.73107 0.45436 0.60556 0.0
H1823 H 0.74387 0.43073 0.57303 0.0
H1824 H 0.7112 0.4959 0.61171 0.0
H1825 H 0.67367 0.50686 0.60584 0.0
C1826 C 0.13862 0.0799 0.46179 0.0
C1827 C 0.16492 0.0877 0.48761 0.0
C1828 C 0.13477 0.05297 0.52514 0.0
C1829 C 0.10837 0.04578 0.49958 0.0
N1830 N 0.08862 0.04392 0.44046 0.0
N1831 N 0.19118 0.07417 0.53994 0.0
C1832 C 0.11143 0.0566 0.46685 0.0
C1833 C 0.16407 0.07172 0.51796 0.0
N1834 N 0.13949 0.09505 0.4326 0.0
N1835 N 0.13154 0.04268 0.55672 0.0
H1836 H 0.21309 0.08782 0.53627 0.0
H1837 H 0.19278 0.06041 0.56045 0.0
H1838 H 0.11137 0.02696 0.56201 0.0
H1839 H 0.14807 0.05087 0.57802 0.0
H1840 H 0.11972 0.09345 0.41467 0.0
H1841 H 0.15978 0.11052 0.42707 0.0
H1842 H 0.09042 0.04867 0.41521 0.0
H1843 H 0.06924 0.02602 0.44351 0.0
C1844 C 0.1743 0.92158 0.7562 0.0
C1845 C 0.18388 0.93857 0.7892 0.0
C1846 C 0.2202 0.90028 0.80157 0.0
C1847 C 0.21089 0.88364 0.76825 0.0
N1848 N 0.18572 0.88335 0.71125 0.0
N1849 N 0.21868 0.94691 0.84199 0.0
C1850 C 0.18987 0.89583 0.74484 0.0
C1851 C 0.20793 0.92892 0.81132 0.0
N1852 N 0.15003 0.92978 0.73572 0.0
N1853 N 0.23929 0.88778 0.82462 0.0
H1854 H 0.20843 0.96618 0.85144 0.0
H1855 H 0.23875 0.94391 0.8575 0.0
H1856 H 0.2494 0.8675 0.8186 0.0
H1857 H 0.24389 0.89628 0.85045 0.0
H1858 H 0.1394 0.91608 0.71311 0.0
H1859 H 0.13883 0.94919 0.74238 0.0
H1860 H 0.17318 0.8929 0.69197 0.0
H1861 H 0.19777 0.8654 0.70198 0.0
C1862 C 0.37689 0.9166 0.9619 0.0
C1863 C 0.35566 0.91312 0.98761 0.0
C1864 C 0.38895 0.95934 0.02274 0.0
C1865 C 0.41348 0.95673 0.00197 0.0
N1866 N 0.42768 0.94448 0.94592 0.0
N1867 N 0.34307 0.93012 0.04443 0.0
C1868 C 0.40645 0.9388 0.96947 0.0
C1869 C 0.36166 0.93475 0.01825 0.0
N1870 N 0.36882 0.89855 0.93092 0.0
N1871 N 0.392 0.98529 0.04672 0.0
H1872 H 0.32431 0.91068 0.04355 0.0
H1873 H 0.34857 0.94346 0.06838 0.0
H1874 H 0.4117 0.00408 0.04895 0.0
H1875 H 0.37366 0.98977 0.06123 0.0
H1876 H 0.38356 0.89873 0.91131 0.0
H1877 H 0.34674 0.88319 0.92472 0.0
H1878 H 0.42482 0.93278 0.92124 0.0
H1879 H 0.448 0.96259 0.95133 0.0
C1880 C 0.86382 0.62981 0.79028 0.0
C1881 C 0.85868 0.59837 0.77229 0.0
C1882 C 0.81001 0.60959 0.74079 0.0
C1883 C 0.81581 0.64105 0.75839 0.0
N1884 N 0.85434 0.68447 0.78981 0.0
N1885 N 0.83249 0.56243 0.72305 0.0
C1886 C 0.84485 0.65227 0.7796 0.0
C1887 C 0.83345 0.58948 0.74518 0.0
N1888 N 0.88461 0.63768 0.8194 0.0
N1889 N 0.78192 0.5987 0.72055 0.0
H1890 H 0.85025 0.54824 0.72441 0.0
H1891 H 0.81618 0.55616 0.70127 0.0
H1892 H 0.76503 0.61344 0.7159 0.0
H1893 H 0.77472 0.57472 0.71005 0.0
H1894 H 0.88648 0.65935 0.83499 0.0
H1895 H 0.89732 0.62157 0.8304 0.0
H1896 H 0.87703 0.69433 0.80202 0.0
H1897 H 0.84044 0.70148 0.78351 0.0
C1898 C 0.84543 0.56433 0.9816 0.0
C1899 C 0.84109 0.59012 0.00537 0.0
C1900 C 0.89165 0.58643 0.03876 0.0
C1901 C 0.89493 0.55922 0.01615 0.0
N1902 N 0.8715 0.51825 0.97023 0.0
N1903 N 0.85683 0.62191 0.05991 0.0
C1904 C 0.87073 0.54701 0.98881 0.0
C1905 C 0.86328 0.60008 0.03493 0.0
N1906 N 0.82621 0.55726 0.95133 0.0
N1907 N 0.91625 0.60039 0.06282 0.0
H1908 H 0.83653 0.63261 0.05794 0.0
H1909 H 0.87015 0.62742 0.08375 0.0
H1910 H 0.93708 0.59099 0.06689 0.0
H1911 H 0.91704 0.62257 0.07706 0.0
H1912 H 0.8304 0.54127 0.93129 0.0
H1913 H 0.8077 0.56962 0.94488 0.0
H1914 H 0.85303 0.5064 0.95212 0.0
H1915 H 0.8892 0.50454 0.97535 0.0
C1916 C 0.20038 0.14465 0.84654 0.0
C1917 C 0.19346 0.11705 0.82184 0.0
C1918 C 0.23462 0.14295 0.78786 0.0
C1919 C 0.23897 0.17187 0.81039 0.0
N1920 N 0.23248 0.198 0.86528 0.0
N1921 N 0.2004 0.09222 0.76597 0.0
C1922 C 0.22355 0.17206 0.84094 0.0
C1923 C 0.21006 0.11655 0.79204 0.0
N1924 N 0.18424 0.14475 0.87496 0.0
N1925 N 0.254 0.14042 0.76238 0.0
H1926 H 0.18194 0.07282 0.76686 0.0
H1927 H 0.20846 0.09276 0.74186 0.0
H1928 H 0.27155 0.15924 0.75743 0.0
H1929 H 0.25477 0.11867 0.74803 0.0
H1930 H 0.18513 0.1649 0.89244 0.0
H1931 H 0.16895 0.12438 0.88084 0.0
H1932 H 0.22384 0.19981 0.88904 0.0
H1933 H 0.25068 0.21728 0.86263 0.0
C1934 C 0.36411 0.92979 0.28129 0.0
C1935 C 0.38589 0.93557 0.31162 0.0
C1936 C 0.36721 0.88031 0.32452 0.0
C1937 C 0.34463 0.87537 0.29514 0.0
N1938 N 0.31449 0.89884 0.25271 0.0
N1939 N 0.40284 0.91869 0.36602 0.0
C1940 C 0.34053 0.90141 0.27615 0.0
C1941 C 0.38575 0.91157 0.33458 0.0
N1942 N 0.36743 0.94985 0.25594 0.0
N1943 N 0.37172 0.85483 0.34211 0.0
H1944 H 0.41708 0.94119 0.37383 0.0
H1945 H 0.40085 0.90329 0.38525 0.0
H1946 H 0.35751 0.83209 0.33598 0.0
H1947 H 0.39051 0.85594 0.36114 0.0
H1948 H 0.35412 0.94454 0.23205 0.0
H1949 H 0.3859 0.96962 0.25692 0.0
H1950 H 0.30913 0.91821 0.24002 0.0
H1951 H 0.29654 0.87839 0.24885 0.0
C1952 C 0.51589 0.34425 0.59398 0.0
C1953 C 0.53765 0.34927 0.62428 0.0
C1954 C 0.55089 0.40668 0.61706 0.0
C1955 C 0.53295 0.40054 0.58435 0.0
N1956 N 0.50102 0.3632 0.5397 0.0
N1957 N 0.57908 0.38429 0.66245 0.0
C1958 C 0.5162 0.36922 0.5722 0.0
C1959 C 0.556 0.38026 0.63533 0.0
N1960 N 0.49374 0.31636 0.58692 0.0
N1961 N 0.56188 0.43778 0.63132 0.0
H1962 H 0.58359 0.36543 0.67648 0.0
H1963 H 0.59555 0.40568 0.66915 0.0
H1964 H 0.55788 0.45791 0.61915 0.0
H1965 H 0.57224 0.44361 0.65649 0.0
H1966 H 0.47537 0.31287 0.56702 0.0
H1967 H 0.49137 0.29805 0.60305 0.0
H1968 H 0.49145 0.33999 0.52811 0.0
H1969 H 0.50026 0.38121 0.52328 0.0
C1970 C 0.38084 0.76708 0.3602 0.0
C1971 C 0.40301 0.74658 0.35227 0.0
C1972 C 0.36883 0.72447 0.29903 0.0
C1973 C 0.34618 0.74407 0.30794 0.0
N1974 N 0.32779 0.77898 0.35117 0.0
N1975 N 0.41393 0.70006 0.31835 0.0
C1976 C 0.3509 0.76301 0.34019 0.0
C1977 C 0.39585 0.7236 0.32282 0.0
N1978 N 0.38957 0.79283 0.38477 0.0
N1979 N 0.36456 0.70674 0.26775 0.0
H1980 H 0.433 0.6979 0.3359 0.0
H1981 H 0.40815 0.68079 0.29916 0.0
H1982 H 0.34393 0.70481 0.25084 0.0
H1983 H 0.38205 0.69523 0.25795 0.0
H1984 H 0.375 0.80939 0.39114 0.0
H1985 H 0.41289 0.8004 0.3959 0.0
H1986 H 0.32773 0.78788 0.37665 0.0
H1987 H 0.30823 0.78288 0.33554 0.0
C1988 C 0.02022 0.6586 0.12743 0.0
C1989 C 0.0458 0.6809 0.11733 0.0
C1990 C 0.05268 0.64155 0.07039 0.0
C1991 C 0.02458 0.62134 0.07734 0.0
N1992 N 0.98813 0.60446 0.11833 0.0
N1993 N 0.096 0.68511 0.09306 0.0
C1994 C 0.01036 0.62791 0.1078 0.0
C1995 C 0.06519 0.66959 0.09315 0.0
N1996 N 0.00549 0.66637 0.15551 0.0
N1997 N 0.06698 0.63442 0.04176 0.0
H1998 H 0.10642 0.70413 0.11156 0.0
H1999 H 0.11209 0.67668 0.07768 0.0
H2000 H 0.05906 0.61329 0.02523 0.0
H2001 H 0.0855 0.65036 0.03349 0.0
H2002 H 0.98333 0.6541 0.16045 0.0
H2003 H 0.01612 0.68415 0.17502 0.0
H2004 H 0.97883 0.60632 0.14175 0.0
H2005 H 0.98061 0.58168 0.10473 0.0
C2006 C 0.10245 0.28618 0.83412 0.0
C2007 C 0.08894 0.25698 0.84661 0.0
C2008 C 0.13337 0.23196 0.82921 0.0
C2009 C 0.1497 0.26278 0.82278 0.0
N2010 N 0.15033 0.31996 0.82015 0.0
N2011 N 0.09125 0.20201 0.8573 0.0
C2012 C 0.13422 0.29005 0.82489 0.0
C2013 C 0.10413 0.22968 0.84418 0.0
N2014 N 0.08472 0.31004 0.83074 0.0
N2015 N 0.14565 0.20484 0.82035 0.0
H2016 H 0.06935 0.1992 0.86755 0.0
H2017 H 0.10315 0.18264 0.86002 0.0
H2018 H 0.16644 0.20566 0.80814 0.0
H2019 H 0.13369 0.18139 0.82181 0.0
H2020 H 0.09202 0.33062 0.81867 0.0
H2021 H 0.06129 0.30778 0.83708 0.0
H2022 H 0.14176 0.34127 0.82592 0.0
H2023 H 0.17317 0.32389 0.8123 0.0
C2024 C 0.51075 0.67944 0.94756 0.0
C2025 C 0.53321 0.70284 0.96941 0.0
C2026 C 0.54451 0.66108 0.00572 0.0
C2027 C 0.52471 0.63735 0.98182 0.0
N2028 N 0.4926 0.62281 0.92744 0.0
N2029 N 0.57518 0.71559 0.01621 0.0
C2030 C 0.50893 0.64618 0.95193 0.0
C2031 C 0.55102 0.69362 0.99781 0.0
N2032 N 0.48999 0.68904 0.92381 0.0
N2033 N 0.55706 0.6525 0.03593 0.0
H2034 H 0.58118 0.73945 0.01062 0.0
H2035 H 0.59118 0.70952 0.03496 0.0
H2036 H 0.55349 0.6287 0.04215 0.0
H2037 H 0.56883 0.66922 0.05595 0.0
H2038 H 0.47098 0.67324 0.90962 0.0
H2039 H 0.48969 0.71325 0.9206 0.0
H2040 H 0.48397 0.6277 0.90329 0.0
H2041 H 0.48965 0.5982 0.93034 0.0
C2042 C 0.13313 0.77699 0.66437 0.0
C2043 C 0.10829 0.74978 0.66239 0.0
C2044 C 0.14205 0.72312 0.70003 0.0
C2045 C 0.16803 0.7485 0.69802 0.0
N2046 N 0.18986 0.7975 0.67429 0.0
N2047 N 0.08897 0.69569 0.67595 0.0
C2048 C 0.16402 0.77485 0.67905 0.0
C2049 C 0.11255 0.72251 0.67982 0.0
N2050 N 0.12685 0.80537 0.65347 0.0
N2051 N 0.14553 0.69994 0.72146 0.0
H2052 H 0.06704 0.69461 0.66157 0.0
H2053 H 0.09183 0.67383 0.68505 0.0
H2054 H 0.16713 0.69946 0.73586 0.0
H2055 H 0.12661 0.68265 0.72679 0.0
H2056 H 0.14329 0.827 0.65743 0.0
H2057 H 0.10403 0.8082 0.64391 0.0
H2058 H 0.18876 0.81482 0.65718 0.0
H2059 H 0.21301 0.79753 0.68525 0.0
C2060 C 0.02399 0.37277 0.48884 0.0
C2061 C 0.04717 0.37071 0.46544 0.0
C2062 C 0.07143 0.42717 0.48502 0.0
C2063 C 0.04862 0.42813 0.50902 0.0
N2064 N 0.01247 0.39734 0.54272 0.0
N2065 N 0.09813 0.39406 0.44774 0.0
C2066 C 0.02833 0.39932 0.51424 0.0
C2067 C 0.07251 0.3974 0.46531 0.0
N2068 N 0.996 0.35124 0.48461 0.0
N2069 N 0.09217 0.45479 0.48139 0.0
H2070 H 0.10048 0.37235 0.43426 0.0
H2071 H 0.11849 0.41188 0.44912 0.0
H2072 H 0.09435 0.47559 0.49846 0.0
H2073 H 0.10639 0.45717 0.46131 0.0
H2074 H 0.97718 0.35311 0.49938 0.0
H2075 H 0.98997 0.33518 0.46271 0.0
H2076 H 0.99907 0.37571 0.54835 0.0
H2077 H 0.0155 0.41616 0.56233 0.0
C2078 C 0.42543 0.21812 0.21268 0.0
C2079 C 0.43863 0.24714 0.19964 0.0
C2080 C 0.39708 0.27421 0.22188 0.0
C2081 C 0.38275 0.2446 0.23277 0.0
N2082 N 0.38915 0.19297 0.25049 0.0
N2083 N 0.44333 0.30495 0.20052 0.0
C2084 C 0.39898 0.21803 0.2321 0.0
C2085 C 0.42648 0.27598 0.20714 0.0
N2086 N 0.43688 0.19029 0.2049 0.0
N2087 N 0.38188 0.30012 0.22454 0.0
H2088 H 0.46533 0.30687 0.19054 0.0
H2089 H 0.43713 0.32723 0.20767 0.0
H2090 H 0.36174 0.29979 0.23771 0.0
H2091 H 0.38865 0.32131 0.2133 0.0
H2092 H 0.42567 0.16761 0.21025 0.0
H2093 H 0.4565 0.18952 0.19107 0.0
H2094 H 0.40125 0.17375 0.25327 0.0
H2095 H 0.37084 0.19364 0.26615 0.0
C2096 C 0.58158 0.47969 0.39578 0.0
C2097 C 0.60496 0.50829 0.39668 0.0
C2098 C 0.58882 0.52809 0.45199 0.0
C2099 C 0.56281 0.50145 0.44876 0.0
N2100 N 0.53339 0.45254 0.41701 0.0
N2101 N 0.62991 0.56072 0.42439 0.0
C2102 C 0.55904 0.47736 0.42054 0.0
C2103 C 0.60861 0.53258 0.42471 0.0
N2104 N 0.5815 0.45432 0.37168 0.0
N2105 N 0.59448 0.5493 0.48104 0.0
H2106 H 0.64522 0.5644 0.40535 0.0
H2107 H 0.63111 0.58117 0.44161 0.0
H2108 H 0.57988 0.54782 0.50085 0.0
H2109 H 0.61489 0.56706 0.48673 0.0
H2110 H 0.56741 0.43157 0.37156 0.0
H2111 H 0.59769 0.45506 0.35339 0.0
H2112 H 0.52673 0.43643 0.39499 0.0
H2113 H 0.51761 0.44902 0.43564 0.0
C2114 C 0.28786 0.87158 0.11813 0.0
C2115 C 0.26507 0.85323 0.09259 0.0
C2116 C 0.2437 0.81856 0.1348 0.0
C2117 C 0.2706 0.83292 0.15817 0.0
N2118 N 0.31971 0.87166 0.17198 0.0
N2119 N 0.21938 0.8109 0.07602 0.0
C2120 C 0.29305 0.85918 0.14992 0.0
C2121 C 0.24208 0.82742 0.10092 0.0
N2122 N 0.30384 0.9011 0.11224 0.0
N2123 N 0.21997 0.7964 0.14494 0.0
H2124 H 0.21619 0.8185 0.05169 0.0
H2125 H 0.20444 0.7893 0.07899 0.0
H2126 H 0.22107 0.78821 0.16911 0.0
H2127 H 0.19824 0.78756 0.13026 0.0
H2128 H 0.31935 0.91668 0.13076 0.0
H2129 H 0.298 0.91172 0.09029 0.0
H2130 H 0.3384 0.88876 0.16579 0.0
H2131 H 0.32443 0.86297 0.19547 0.0
C2132 C 0.97886 0.56569 0.90192 0.0
C2133 C 0.9498 0.54415 0.88997 0.0
C2134 C 0.96428 0.50556 0.92809 0.0
C2135 C 0.99119 0.52846 0.94355 0.0
N2136 N 0.02109 0.58303 0.94853 0.0
N2137 N 0.91081 0.49823 0.89992 0.0
C2138 C 0.99786 0.55934 0.93132 0.0
C2139 C 0.94114 0.51563 0.90573 0.0
N2140 N 0.98822 0.59221 0.8853 0.0
N2141 N 0.96138 0.47374 0.93378 0.0
H2142 H 0.89283 0.50475 0.88384 0.0
H2143 H 0.90274 0.47952 0.91437 0.0
H2144 H 0.97935 0.4648 0.94761 0.0
H2145 H 0.94309 0.45581 0.92138 0.0
H2146 H 0.01076 0.60678 0.89044 0.0
H2147 H 0.97389 0.59862 0.86512 0.0
H2148 H 0.02451 0.60698 0.94292 0.0
H2149 H 0.03543 0.57935 0.97005 0.0
C2150 C 0.28826 0.2066 0.60317 0.0
C2151 C 0.26494 0.17874 0.59139 0.0
C2152 C 0.25386 0.17167 0.65046 0.0
C2153 C 0.27622 0.2004 0.66201 0.0
N2154 N 0.30726 0.25007 0.64828 0.0
N2155 N 0.22029 0.1392 0.60262 0.0
C2156 C 0.29113 0.21941 0.63803 0.0
C2157 C 0.24625 0.16241 0.61471 0.0
N2158 N 0.30827 0.22036 0.5812 0.0
N2159 N 0.23971 0.15342 0.67373 0.0
H2160 H 0.21358 0.13269 0.57659 0.0
H2161 H 0.20383 0.12854 0.61807 0.0
H2162 H 0.2423 0.16123 0.69979 0.0
H2163 H 0.22638 0.13021 0.66736 0.0
H2164 H 0.32795 0.2386 0.58913 0.0
H2165 H 0.30703 0.21147 0.55549 0.0
H2166 H 0.3164 0.26604 0.63141 0.0
H2167 H 0.30789 0.26098 0.67304 0.0
C2168 C 0.60507 0.4998 0.19326 0.0
C2169 C 0.60342 0.5274 0.21605 0.0
C2170 C 0.57947 0.55189 0.16821 0.0
C2171 C 0.58312 0.52532 0.14523 0.0
N2172 N 0.60899 0.47922 0.13487 0.0
N2173 N 0.59979 0.58425 0.22169 0.0
C2174 C 0.59893 0.50088 0.15742 0.0
C2175 C 0.59387 0.55487 0.20246 0.0
N2176 N 0.61064 0.47187 0.20557 0.0
N2177 N 0.56122 0.57365 0.15798 0.0
H2178 H 0.61267 0.58815 0.24587 0.0
H2179 H 0.59552 0.60546 0.21192 0.0
H2180 H 0.54946 0.57191 0.1334 0.0
H2181 H 0.55523 0.5915 0.17494 0.0
H2182 H 0.60912 0.45021 0.19007 0.0
H2183 H 0.61326 0.46946 0.23153 0.0
H2184 H 0.62339 0.46298 0.14256 0.0
H2185 H 0.60609 0.47992 0.10845 0.0
C2186 C 0.22346 0.82204 0.88394 0.0
C2187 C 0.23896 0.81722 0.91597 0.0
C2188 C 0.25113 0.76617 0.88917 0.0
C2189 C 0.24562 0.77712 0.8567 0.0
N2190 N 0.2116 0.80451 0.82308 0.0
N2191 N 0.25825 0.77787 0.95037 0.0
C2192 C 0.22734 0.80208 0.85399 0.0
C2193 C 0.24986 0.78717 0.91911 0.0
N2194 N 0.20388 0.84449 0.88264 0.0
N2195 N 0.25389 0.73458 0.89142 0.0
H2196 H 0.2483 0.78481 0.97233 0.0
H2197 H 0.27325 0.76108 0.95382 0.0
H2198 H 0.2489 0.71722 0.87026 0.0
H2199 H 0.25593 0.72437 0.91439 0.0
H2200 H 0.1936 0.85153 0.86032 0.0
H2201 H 0.19592 0.85477 0.90454 0.0
H2202 H 0.1969 0.8212 0.81839 0.0
H2203 H 0.21123 0.78724 0.80251 0.0
C2204 C 0.93546 0.52141 0.68651 0.0
C2205 C 0.93888 0.49969 0.71147 0.0
C2206 C 0.95419 0.46104 0.66878 0.0
C2207 C 0.95022 0.48246 0.64388 0.0
N2208 N 0.92782 0.52792 0.62618 0.0
N2209 N 0.94065 0.44474 0.72361 0.0
C2210 C 0.93765 0.51094 0.65179 0.0
C2211 C 0.94492 0.46817 0.70176 0.0
N2212 N 0.93221 0.55256 0.696 0.0
N2213 N 0.96736 0.43426 0.66118 0.0
H2214 H 0.93223 0.44856 0.74737 0.0
H2215 H 0.94201 0.42064 0.71666 0.0
H2216 H 0.97318 0.4276 0.63675 0.0
H2217 H 0.9743 0.41988 0.6796 0.0
H2218 H 0.93316 0.57027 0.67913 0.0
H2219 H 0.9314 0.5616 0.72128 0.0
H2220 H 0.91562 0.54708 0.63025 0.0
H2221 H 0.92944 0.52111 0.60043 0.0
C2222 C 0.24186 0.19388 0.40248 0.0
C2223 C 0.26747 0.17816 0.41279 0.0
C2224 C 0.3008 0.20845 0.37396 0.0
C2225 C 0.27493 0.22385 0.36369 0.0
N2226 N 0.22537 0.2393 0.37677 0.0
N2227 N 0.32313 0.1739 0.41235 0.0
C2228 C 0.2468 0.21897 0.38054 0.0
C2229 C 0.29748 0.18628 0.39949 0.0
N2230 N 0.21227 0.18385 0.41253 0.0
N2231 N 0.32887 0.21592 0.35983 0.0
H2232 H 0.32177 0.15783 0.43096 0.0
H2233 H 0.34633 0.18056 0.40611 0.0
H2234 H 0.33292 0.23465 0.34425 0.0
H2235 H 0.34778 0.20341 0.3626 0.0
H2236 H 0.19186 0.19207 0.40318 0.0
H2237 H 0.20752 0.16484 0.42759 0.0
H2238 H 0.20616 0.23936 0.39129 0.0
H2239 H 0.22908 0.25875 0.3622 0.0
C2240 C 0.35159 0.57285 0.50513 0.0
C2241 C 0.35722 0.59686 0.53383 0.0
C2242 C 0.41023 0.58349 0.54835 0.0
C2243 C 0.40446 0.55929 0.51983 0.0
N2244 N 0.37274 0.53424 0.46796 0.0
N2245 N 0.39267 0.62805 0.58038 0.0
C2246 C 0.37605 0.55502 0.49722 0.0
C2247 C 0.38685 0.6031 0.55469 0.0
N2248 N 0.32264 0.56687 0.48564 0.0
N2249 N 0.43811 0.58749 0.56956 0.0
H2250 H 0.3755 0.64169 0.58701 0.0
H2251 H 0.41484 0.6365 0.59427 0.0
H2252 H 0.45732 0.57635 0.56392 0.0
H2253 H 0.44222 0.60114 0.59329 0.0
H2254 H 0.31534 0.54732 0.46701 0.0
H2255 H 0.30495 0.58074 0.48899 0.0
H2256 H 0.3543 0.53225 0.44838 0.0
H2257 H 0.38979 0.5202 0.46202 0.0
C2258 C 0.88964 0.93587 0.51572 0.0
C2259 C 0.87715 0.93554 0.5478 0.0
C2260 C 0.92206 0.97883 0.57206 0.0
C2261 C 0.93688 0.97541 0.54129 0.0
N2262 N 0.9357 0.94767 0.48463 0.0
N2263 N 0.88148 0.95584 0.60719 0.0
C2264 C 0.9209 0.95307 0.51339 0.0
C2265 C 0.89311 0.95717 0.5761 0.0
N2266 N 0.87091 0.92077 0.48696 0.0
N2267 N 0.93597 0.00224 0.5977 0.0
H2268 H 0.86024 0.94071 0.6107 0.0
H2269 H 0.89362 0.9682 0.62985 0.0
H2270 H 0.95793 0.01713 0.59658 0.0
H2271 H 0.92489 0.00836 0.61918 0.0
H2272 H 0.87739 0.92275 0.4623 0.0
H2273 H 0.84727 0.90942 0.48747 0.0
H2274 H 0.92726 0.92829 0.46597 0.0
H2275 H 0.95699 0.96182 0.47972 0.0
C2276 C 0.86683 0.10599 0.23357 0.0
C2277 C 0.85317 0.07813 0.24825 0.0
C2278 C 0.81162 0.10716 0.26809 0.0
C2279 C 0.82789 0.13631 0.25745 0.0
N2280 N 0.87605 0.16428 0.23724 0.0
N2281 N 0.81625 0.05469 0.28625 0.0
C2282 C 0.85687 0.13594 0.24206 0.0
C2283 C 0.82651 0.07932 0.26733 0.0
N2284 N 0.88891 0.10378 0.21084 0.0
N2285 N 0.78142 0.10543 0.27761 0.0
H2286 H 0.82676 0.03421 0.28738 0.0
H2287 H 0.79932 0.05613 0.30353 0.0
H2288 H 0.76904 0.12468 0.27724 0.0
H2289 H 0.76739 0.08383 0.28233 0.0
H2290 H 0.8973 0.12261 0.19671 0.0
H2291 H 0.89614 0.08203 0.20336 0.0
H2292 H 0.89878 0.16532 0.22922 0.0
H2293 H 0.87113 0.18695 0.24508 0.0
C2294 C 0.67021 0.10037 0.01194 0.0
C2295 C 0.6854 0.1094 0.04554 0.0
C2296 C 0.63841 0.08037 0.06848 0.0
C2297 C 0.62125 0.0775 0.03559 0.0
N2298 N 0.62028 0.08688 0.97601 0.0
N2299 N 0.68544 0.10723 0.10618 0.0
C2300 C 0.63709 0.0878 0.00725 0.0
C2301 C 0.67003 0.09889 0.07401 0.0
N2302 N 0.68742 0.1036 0.98445 0.0
N2303 N 0.62449 0.06552 0.09416 0.0
H2304 H 0.70907 0.11942 0.11049 0.0
H2305 H 0.67457 0.10328 0.1284 0.0
H2306 H 0.60149 0.05171 0.0905 0.0
H2307 H 0.63656 0.06454 0.11803 0.0
H2308 H 0.6781 0.09456 0.95951 0.0
H2309 H 0.71197 0.1121 0.98687 0.0
H2310 H 0.62975 0.09801 0.9557 0.0
H2311 H 0.59609 0.07721 0.97117 0.0
C2312 C 0.18705 0.39539 0.25019 0.0
C2313 C 0.1885 0.4234 0.27315 0.0
C2314 C 0.23106 0.40729 0.31045 0.0
C2315 C 0.23122 0.38054 0.28624 0.0
N2316 N 0.21299 0.35171 0.23024 0.0
N2317 N 0.2151 0.45909 0.3226 0.0
C2318 C 0.21033 0.37539 0.25522 0.0
C2319 C 0.21151 0.43032 0.3025 0.0
N2320 N 0.16312 0.3876 0.22382 0.0
N2321 N 0.24922 0.4104 0.34131 0.0
H2322 H 0.2008 0.47634 0.31865 0.0
H2323 H 0.23389 0.46711 0.34176 0.0
H2324 H 0.26489 0.39479 0.34738 0.0
H2325 H 0.24721 0.42703 0.36177 0.0
H2326 H 0.15827 0.36541 0.20879 0.0
H2327 H 0.14656 0.40248 0.21835 0.0
H2328 H 0.20141 0.34948 0.20557 0.0
H2329 H 0.22844 0.33541 0.23328 0.0
C2330 C 0.18116 0.43444 0.01805 0.0
C2331 C 0.19826 0.4343 0.05063 0.0
C2332 C 0.16331 0.46865 0.07578 0.0
C2333 C 0.14311 0.46437 0.04435 0.0
N2334 N 0.13039 0.43668 0.987 0.0
N2335 N 0.20198 0.44718 0.11174 0.0
C2336 C 0.15142 0.44565 0.01576 0.0
C2337 C 0.18838 0.45037 0.07986 0.0
N2338 N 0.19373 0.42501 0.98894 0.0
N2339 N 0.15926 0.49101 0.10152 0.0
H2340 H 0.21982 0.43344 0.11586 0.0
H2341 H 0.19333 0.45544 0.13413 0.0
H2342 H 0.14245 0.50615 0.09895 0.0
H2343 H 0.17494 0.49711 0.12383 0.0
H2344 H 0.18389 0.42798 0.96456 0.0
H2345 H 0.21579 0.41756 0.98913 0.0
H2346 H 0.13406 0.42012 0.96717 0.0
H2347 H 0.10784 0.44285 0.98423 0.0
C2348 C 0.83507 0.88497 0.23535 0.0
C2349 C 0.85792 0.90012 0.26303 0.0
C2350 C 0.8365 0.85813 0.2988 0.0
C2351 C 0.8164 0.84084 0.27011 0.0
N2352 N 0.799 0.83601 0.20979 0.0
N2353 N 0.88203 0.89928 0.32083 0.0
C2354 C 0.81596 0.85402 0.23812 0.0
C2355 C 0.85903 0.88617 0.29463 0.0
N2356 N 0.83203 0.89977 0.20611 0.0
N2357 N 0.83329 0.84841 0.33063 0.0
H2358 H 0.89739 0.92128 0.32085 0.0
H2359 H 0.88724 0.88739 0.34209 0.0
H2360 H 0.81749 0.82787 0.33485 0.0
H2361 H 0.84394 0.8622 0.35319 0.0
H2362 H 0.81335 0.89216 0.18674 0.0
H2363 H 0.84707 0.92097 0.20198 0.0
H2364 H 0.80053 0.84235 0.18503 0.0
H2365 H 0.78513 0.81326 0.21057 0.0
C2366 C 0.69142 0.11526 0.73711 0.0
C2367 C 0.68855 0.10195 0.76878 0.0
C2368 C 0.73468 0.14152 0.79553 0.0
C2369 C 0.73417 0.15821 0.76588 0.0
N2370 N 0.71615 0.1589 0.70628 0.0
N2371 N 0.70697 0.1018 0.8283 0.0
C2372 C 0.71396 0.14428 0.73578 0.0
C2373 C 0.71031 0.11465 0.79793 0.0
N2374 N 0.67207 0.10025 0.70868 0.0
N2375 N 0.75949 0.15066 0.82076 0.0
H2376 H 0.6907 0.08088 0.83067 0.0
H2377 H 0.71907 0.11282 0.85156 0.0
H2378 H 0.77876 0.1689 0.81848 0.0
H2379 H 0.76292 0.13806 0.8419 0.0
H2380 H 0.6712 0.10876 0.68479 0.0
H2381 H 0.65692 0.07807 0.70872 0.0
H2382 H 0.70323 0.1498 0.6829 0.0
H2383 H 0.7315 0.18056 0.70462 0.0
loop_
_geom_bond_atom_site_label_1
_geom_bond_atom_site_label_2
_geom_bond_distance
_geom_bond_site_symmetry_2
_ccdc_geom_bond_type
Co0 O1 2.216 . S
Co0 O2 2.091 . S
Co0 O4 2.004 1_455 S
Co0 O10 2.021 . S
Co0 O12 2.137 . S
Co0 O13 2.244 . S
O1 Co0 2.216 . S
O1 C8 1.247 . S
O2 Co0 2.091 . S
O2 C8 1.261 . S
C3 O12 1.247 . S
C3 O13 1.272 . S
O4 Co0 2.004 1_655 S
O4 C9 1.259 . S
Co5 O6 2.061 . S
Co5 O11 2.052 1_655 S
Co5 O13 2.135 1_655 S
O6 Co5 2.061 . S
O6 C9 1.235 . S
C7 O10 1.238 . S
C7 O11 1.241 . S
C8 O1 1.247 . S
C8 O2 1.261 . S
C9 O4 1.259 . S
C9 O6 1.235 . S
O10 Co0 2.021 . S
O10 C7 1.238 . S
O11 Co5 2.052 1_455 S
O11 C7 1.241 . S
O12 Co0 2.137 . S
O12 C3 1.247 . S
O13 Co0 2.244 . S
O13 C3 1.272 . S
O13 Co5 2.135 1_455 S
Co14 O15 2.216 1_455 S
Co14 O16 2.091 1_455 S
Co14 O18 2.004 . S
Co14 O24 2.021 . S
Co14 O26 2.137 . S
Co14 O27 2.244 . S
O15 Co14 2.216 1_655 S
O15 C22 1.247 . S
O16 Co14 2.091 1_655 S
O16 C22 1.261 . S
C17 O26 1.247 . S
C17 O27 1.272 . S
O18 Co14 2.004 . S
O18 C23 1.259 . S
Co19 O20 2.061 . S
Co19 O25 2.052 . S
Co19 O27 2.135 . S
O20 Co19 2.061 . S
O20 C23 1.235 . S
C21 O24 1.238 . S
C21 O25 1.241 . S
C22 O15 1.247 . S
C22 O16 1.261 . S
C23 O18 1.259 . S
C23 O20 1.235 . S
O24 Co14 2.021 . S
O24 C21 1.238 . S
O25 Co19 2.052 . S
O25 C21 1.241 . S
O26 Co14 2.137 . S
O26 C17 1.247 . S
O27 Co14 2.244 . S
O27 C17 1.272 . S
O27 Co19 2.135 . S
Co28 O29 2.216 . S
Co28 O30 2.091 . S
Co28 O32 2.004 . S
Co28 O38 2.021 . S
Co28 O40 2.137 . S
Co28 O41 2.244 . S
O29 Co28 2.216 . S
O29 C36 1.247 . S
O30 Co28 2.091 . S
O30 C36 1.261 . S
C31 O40 1.247 . S
C31 O41 1.272 . S
O32 Co28 2.004 . S
O32 C37 1.259 . S
Co33 O34 2.061 . S
Co33 O39 2.052 . S
Co33 O41 2.135 . S
O34 Co33 2.061 . S
O34 C37 1.235 . S
C35 O38 1.238 . S
C35 O39 1.241 . S
C36 O29 1.247 . S
C36 O30 1.261 . S
C37 O32 1.259 . S
C37 O34 1.235 . S
O38 Co28 2.021 . S
O38 C35 1.238 . S
O39 Co33 2.052 . S
O39 C35 1.241 . S
O40 Co28 2.137 . S
O40 C31 1.247 . S
O41 Co28 2.244 . S
O41 C31 1.272 . S
O41 Co33 2.135 . S
Co42 O43 2.216 . S
Co42 O44 2.091 . S
Co42 O46 2.004 . S
Co42 O52 2.021 . S
Co42 O54 2.137 . S
Co42 O55 2.244 . S
O43 Co42 2.216 . S
O43 C50 1.247 . S
O44 Co42 2.091 . S
O44 C50 1.261 . S
C45 O54 1.247 . S
C45 O55 1.272 . S
O46 Co42 2.004 . S
O46 C51 1.259 . S
Co47 O48 2.061 . S
Co47 O53 2.052 . S
Co47 O55 2.135 . S
O48 Co47 2.061 . S
O48 C51 1.235 . S
C49 O52 1.238 . S
C49 O53 1.241 . S
C50 O43 1.247 . S
C50 O44 1.261 . S
C51 O46 1.259 . S
C51 O48 1.235 . S
O52 Co42 2.021 . S
O52 C49 1.238 . S
O53 Co47 2.052 . S
O53 C49 1.241 . S
O54 Co42 2.137 . S
O54 C45 1.247 . S
O55 Co42 2.244 . S
O55 C45 1.272 . S
O55 Co47 2.135 . S
Co56 O57 2.216 1_455 S
Co56 O58 2.091 . S
Co56 O60 2.004 . S
Co56 O66 2.021 . S
Co56 O68 2.137 . S
Co56 O69 2.244 . S
O57 Co56 2.216 1_655 S
O57 C64 1.247 . S
O58 Co56 2.091 . S
O58 C64 1.261 1_455 S
C59 O68 1.247 . S
C59 O69 1.272 . S
O60 Co56 2.004 . S
O60 C65 1.259 . S
Co61 O62 2.061 . S
Co61 O67 2.052 . S
Co61 O69 2.135 . S
O62 Co61 2.061 . S
O62 C65 1.235 . S
C63 O66 1.238 . S
C63 O67 1.241 . S
C64 O57 1.247 . S
C64 O58 1.261 1_655 S
C65 O60 1.259 . S
C65 O62 1.235 . S
O66 Co56 2.021 . S
O66 C63 1.238 . S
O67 Co61 2.052 . S
O67 C63 1.241 . S
O68 Co56 2.137 . S
O68 C59 1.247 . S
O69 Co56 2.244 . S
O69 C59 1.272 . S
O69 Co61 2.135 . S
Co70 O71 2.216 . S
Co70 O72 2.091 . S
Co70 O74 2.004 . S
Co70 O80 2.021 . S
Co70 O82 2.137 . S
Co70 O83 2.244 . S
O71 Co70 2.216 . S
O71 C78 1.247 . S
O72 Co70 2.091 . S
O72 C78 1.261 . S
C73 O82 1.247 . S
C73 O83 1.272 . S
O74 Co70 2.004 . S
O74 C79 1.259 . S
Co75 O76 2.061 . S
Co75 O81 2.052 . S
Co75 O83 2.135 . S
O76 Co75 2.061 . S
O76 C79 1.235 . S
C77 O80 1.238 . S
C77 O81 1.241 . S
C78 O71 1.247 . S
C78 O72 1.261 . S
C79 O74 1.259 . S
C79 O76 1.235 . S
O80 Co70 2.021 . S
O80 C77 1.238 . S
O81 Co75 2.052 . S
O81 C77 1.241 . S
O82 Co70 2.137 . S
O82 C73 1.247 . S
O83 Co70 2.244 . S
O83 C73 1.272 . S
O83 Co75 2.135 . S
Co84 O85 2.216 . S
Co84 O86 2.091 . S
Co84 O88 2.004 . S
Co84 O94 2.021 . S
Co84 O96 2.137 . S
Co84 O97 2.244 . S
O85 Co84 2.216 . S
O85 C92 1.247 . S
O86 Co84 2.091 . S
O86 C92 1.261 . S
C87 O96 1.247 . S
C87 O97 1.272 . S
O88 Co84 2.004 . S
O88 C93 1.259 . S
Co89 O90 2.061 . S
Co89 O95 2.052 . S
Co89 O97 2.135 . S
O90 Co89 2.061 . S
O90 C93 1.235 . S
C91 O94 1.238 . S
C91 O95 1.241 . S
C92 O85 1.247 . S
C92 O86 1.261 . S
C93 O88 1.259 . S
C93 O90 1.235 . S
O94 Co84 2.021 . S
O94 C91 1.238 . S
O95 Co89 2.052 . S
O95 C91 1.241 . S
O96 Co84 2.137 . S
O96 C87 1.247 . S
O97 Co84 2.244 . S
O97 C87 1.272 . S
O97 Co89 2.135 . S
Co98 O99 2.216 . S
Co98 O100 2.091 . S
Co98 O102 2.004 1_455 S
Co98 O108 2.021 . S
Co98 O110 2.137 . S
Co98 O111 2.244 1_455 S
O99 Co98 2.216 . S
O99 C106 1.247 . S
O100 Co98 2.091 . S
O100 C106 1.261 . S
C101 O110 1.247 . S
C101 O111 1.272 1_455 S
O102 Co98 2.004 1_655 S
O102 C107 1.259 . S
Co103 O104 2.061 . S
Co103 O109 2.052 . S
Co103 O111 2.135 . S
O104 Co103 2.061 . S
O104 C107 1.235 . S
C105 O108 1.238 1_655 S
C105 O109 1.241 . S
C106 O99 1.247 . S
C106 O100 1.261 . S
C107 O102 1.259 . S
C107 O104 1.235 . S
O108 Co98 2.021 . S
O108 C105 1.238 1_455 S
O109 Co103 2.052 . S
O109 C105 1.241 . S
O110 Co98 2.137 . S
O110 C101 1.247 . S
O111 Co98 2.244 1_655 S
O111 C101 1.272 1_655 S
O111 Co103 2.135 . S
Co112 O113 2.216 . S
Co112 O114 2.091 . S
Co112 O116 2.004 1_545 S
Co112 O122 2.021 . S
Co112 O124 2.137 . S
Co112 O125 2.244 . S
O113 Co112 2.216 . S
O113 C120 1.247 . S
O114 Co112 2.091 . S
O114 C120 1.261 . S
C115 O124 1.247 . S
C115 O125 1.272 . S
O116 Co112 2.004 1_565 S
O116 C121 1.259 . S
Co117 O118 2.061 . S
Co117 O123 2.052 1_565 S
Co117 O125 2.135 1_565 S
O118 Co117 2.061 . S
O118 C121 1.235 . S
C119 O122 1.238 . S
C119 O123 1.241 . S
C120 O113 1.247 . S
C120 O114 1.261 . S
C121 O116 1.259 . S
C121 O118 1.235 . S
O122 Co112 2.021 . S
O122 C119 1.238 . S
O123 Co117 2.052 1_545 S
O123 C119 1.241 . S
O124 Co112 2.137 . S
O124 C115 1.247 . S
O125 Co112 2.244 . S
O125 C115 1.272 . S
O125 Co117 2.135 1_545 S
Co126 O127 2.216 . S
Co126 O128 2.091 . S
Co126 O130 2.004 . S
Co126 O136 2.021 . S
Co126 O138 2.137 . S
Co126 O139 2.244 . S
O127 Co126 2.216 . S
O127 C134 1.247 . S
O128 Co126 2.091 . S
O128 C134 1.261 . S
C129 O138 1.247 . S
C129 O139 1.272 . S
O130 Co126 2.004 . S
O130 C135 1.259 . S
Co131 O132 2.061 . S
Co131 O137 2.052 . S
Co131 O139 2.135 . S
O132 Co131 2.061 . S
O132 C135 1.235 . S
C133 O136 1.238 . S
C133 O137 1.241 . S
C134 O127 1.247 . S
C134 O128 1.261 . S
C135 O130 1.259 . S
C135 O132 1.235 . S
O136 Co126 2.021 . S
O136 C133 1.238 . S
O137 Co131 2.052 . S
O137 C133 1.241 . S
O138 Co126 2.137 . S
O138 C129 1.247 . S
O139 Co126 2.244 . S
O139 C129 1.272 . S
O139 Co131 2.135 . S
Co140 O141 2.216 1_545 S
Co140 O142 2.091 1_545 S
Co140 O144 2.004 . S
Co140 O150 2.021 . S
Co140 O152 2.137 . S
Co140 O153 2.244 . S
O141 Co140 2.216 1_565 S
O141 C148 1.247 . S
O142 Co140 2.091 1_565 S
O142 C148 1.261 . S
C143 O152 1.247 . S
C143 O153 1.272 . S
O144 Co140 2.004 . S
O144 C149 1.259 . S
Co145 O146 2.061 . S
Co145 O151 2.052 . S
Co145 O153 2.135 . S
O146 Co145 2.061 . S
O146 C149 1.235 . S
C147 O150 1.238 . S
C147 O151 1.241 . S
C148 O141 1.247 . S
C148 O142 1.261 . S
C149 O144 1.259 . S
C149 O146 1.235 . S
O150 Co140 2.021 . S
O150 C147 1.238 . S
O151 Co145 2.052 . S
O151 C147 1.241 . S
O152 Co140 2.137 . S
O152 C143 1.247 . S
O153 Co140 2.244 . S
O153 C143 1.272 . S
O153 Co145 2.135 . S
Co154 O155 2.216 . S
Co154 O156 2.091 . S
Co154 O158 2.004 . S
Co154 O164 2.021 . S
Co154 O166 2.137 1_554 S
Co154 O167 2.244 1_554 S
O155 Co154 2.216 . S
O155 C162 1.247 . S
O156 Co154 2.091 . S
O156 C162 1.261 . S
C157 O166 1.247 . S
C157 O167 1.272 . S
O158 Co154 2.004 . S
O158 C163 1.259 . S
Co159 O160 2.061 . S
Co159 O165 2.052 . S
Co159 O167 2.135 1_554 S
O160 Co159 2.061 . S
O160 C163 1.235 . S
C161 O164 1.238 . S
C161 O165 1.241 . S
C162 O155 1.247 . S
C162 O156 1.261 . S
C163 O158 1.259 . S
C163 O160 1.235 . S
O164 Co154 2.021 . S
O164 C161 1.238 . S
O165 Co159 2.052 . S
O165 C161 1.241 . S
O166 Co154 2.137 1_556 S
O166 C157 1.247 . S
O167 Co154 2.244 1_556 S
O167 C157 1.272 . S
O167 Co159 2.135 1_556 S
Co168 O169 2.216 . S
Co168 O170 2.091 . S
Co168 O172 2.004 . S
Co168 O178 2.021 . S
Co168 O180 2.137 1_554 S
Co168 O181 2.244 . S
O169 Co168 2.216 . S
O169 C176 1.247 . S
O170 Co168 2.091 . S
O170 C176 1.261 . S
C171 O180 1.247 . S
C171 O181 1.272 1_556 S
O172 Co168 2.004 . S
O172 C177 1.259 . S
Co173 O174 2.061 . S
Co173 O179 2.052 . S
Co173 O181 2.135 . S
O174 Co173 2.061 . S
O174 C177 1.235 . S
C175 O178 1.238 . S
C175 O179 1.241 . S
C176 O169 1.247 . S
C176 O170 1.261 . S
C177 O172 1.259 . S
C177 O174 1.235 . S
O178 Co168 2.021 . S
O178 C175 1.238 . S
O179 Co173 2.052 . S
O179 C175 1.241 . S
O180 Co168 2.137 1_556 S
O180 C171 1.247 . S
O181 Co168 2.244 . S
O181 C171 1.272 1_554 S
O181 Co173 2.135 . S
Co182 O183 2.216 . S
Co182 O184 2.091 . S
Co182 O186 2.004 . S
Co182 O192 2.021 . S
Co182 O194 2.137 1_554 S
Co182 O195 2.244 . S
O183 Co182 2.216 . S
O183 C190 1.247 . S
O184 Co182 2.091 . S
O184 C190 1.261 . S
C185 O194 1.247 . S
C185 O195 1.272 1_556 S
O186 Co182 2.004 . S
O186 C191 1.259 . S
Co187 O188 2.061 . S
Co187 O193 2.052 . S
Co187 O195 2.135 . S
O188 Co187 2.061 . S
O188 C191 1.235 . S
C189 O192 1.238 . S
C189 O193 1.241 . S
C190 O183 1.247 . S
C190 O184 1.261 . S
C191 O186 1.259 . S
C191 O188 1.235 . S
O192 Co182 2.021 . S
O192 C189 1.238 . S
O193 Co187 2.052 . S
O193 C189 1.241 . S
O194 Co182 2.137 1_556 S
O194 C185 1.247 . S
O195 Co182 2.244 . S
O195 C185 1.272 1_554 S
O195 Co187 2.135 . S
Co196 O197 2.216 . S
Co196 O198 2.091 . S
Co196 O200 2.004 . S
Co196 O206 2.021 . S
Co196 O208 2.137 . S
Co196 O209 2.244 . S
O197 Co196 2.216 . S
O197 C204 1.247 . S
O198 Co196 2.091 . S
O198 C204 1.261 . S
C199 O208 1.247 . S
C199 O209 1.272 . S
O200 Co196 2.004 . S
O200 C205 1.259 . S
Co201 O202 2.061 . S
Co201 O207 2.052 . S
Co201 O209 2.135 . S
O202 Co201 2.061 . S
O202 C205 1.235 . S
C203 O206 1.238 . S
C203 O207 1.241 . S
C204 O197 1.247 . S
C204 O198 1.261 . S
C205 O200 1.259 . S
C205 O202 1.235 . S
O206 Co196 2.021 . S
O206 C203 1.238 . S
O207 Co201 2.052 . S
O207 C203 1.241 . S
O208 Co196 2.137 . S
O208 C199 1.247 . S
O209 Co196 2.244 . S
O209 C199 1.272 . S
O209 Co201 2.135 . S
Co210 O211 2.216 . S
Co210 O212 2.091 . S
Co210 O214 2.004 . S
Co210 O220 2.021 . S
Co210 O222 2.137 . S
Co210 O223 2.244 . S
O211 Co210 2.216 . S
O211 C218 1.247 . S
O212 Co210 2.091 . S
O212 C218 1.261 . S
C213 O222 1.247 . S
C213 O223 1.272 . S
O214 Co210 2.004 . S
O214 C219 1.259 . S
Co215 O216 2.061 . S
Co215 O221 2.052 . S
Co215 O223 2.135 . S
O216 Co215 2.061 . S
O216 C219 1.235 . S
C217 O220 1.238 . S
C217 O221 1.241 . S
C218 O211 1.247 . S
C218 O212 1.261 . S
C219 O214 1.259 . S
C219 O216 1.235 . S
O220 Co210 2.021 . S
O220 C217 1.238 . S
O221 Co215 2.052 . S
O221 C217 1.241 . S
O222 Co210 2.137 . S
O222 C213 1.247 . S
O223 Co210 2.244 . S
O223 C213 1.272 . S
O223 Co215 2.135 . S
Co224 O225 2.216 . S
Co224 O226 2.091 . S
Co224 O228 2.004 1_545 S
Co224 O234 2.021 . S
Co224 O236 2.137 . S
Co224 O237 2.244 . S
O225 Co224 2.216 . S
O225 C232 1.247 . S
O226 Co224 2.091 . S
O226 C232 1.261 . S
C227 O236 1.247 . S
C227 O237 1.272 . S
O228 Co224 2.004 1_565 S
O228 C233 1.259 . S
Co229 O230 2.061 . S
Co229 O235 2.052 . S
Co229 O237 2.135 1_565 S
O230 Co229 2.061 . S
O230 C233 1.235 . S
C231 O234 1.238 . S
C231 O235 1.241 1_545 S
C232 O225 1.247 . S
C232 O226 1.261 . S
C233 O228 1.259 . S
C233 O230 1.235 . S
O234 Co224 2.021 . S
O234 C231 1.238 . S
O235 Co229 2.052 . S
O235 C231 1.241 1_565 S
O236 Co224 2.137 . S
O236 C227 1.247 . S
O237 Co224 2.244 . S
O237 C227 1.272 . S
O237 Co229 2.135 1_545 S
Co238 O239 2.216 . S
Co238 O240 2.091 . S
Co238 O242 2.004 . S
Co238 O248 2.021 . S
Co238 O250 2.137 . S
Co238 O251 2.244 . S
O239 Co238 2.216 . S
O239 C246 1.247 . S
O240 Co238 2.091 . S
O240 C246 1.261 . S
C241 O250 1.247 . S
C241 O251 1.272 . S
O242 Co238 2.004 . S
O242 C247 1.259 . S
Co243 O244 2.061 . S
Co243 O249 2.052 . S
Co243 O251 2.135 . S
O244 Co243 2.061 . S
O244 C247 1.235 . S
C245 O248 1.238 . S
C245 O249 1.241 . S
C246 O239 1.247 . S
C246 O240 1.261 . S
C247 O242 1.259 . S
C247 O244 1.235 . S
O248 Co238 2.021 . S
O248 C245 1.238 . S
O249 Co243 2.052 . S
O249 C245 1.241 . S
O250 Co238 2.137 . S
O250 C241 1.247 . S
O251 Co238 2.244 . S
O251 C241 1.272 . S
O251 Co243 2.135 . S
Co252 O253 2.216 . S
Co252 O254 2.091 . S
Co252 O256 2.004 . S
Co252 O262 2.021 . S
Co252 O264 2.137 . S
Co252 O265 2.244 . S
O253 Co252 2.216 . S
O253 C260 1.247 . S
O254 Co252 2.091 . S
O254 C260 1.261 . S
C255 O264 1.247 . S
C255 O265 1.272 . S
O256 Co252 2.004 . S
O256 C261 1.259 . S
Co257 O258 2.061 . S
Co257 O263 2.052 . S
Co257 O265 2.135 . S
O258 Co257 2.061 . S
O258 C261 1.235 . S
C259 O262 1.238 . S
C259 O263 1.241 . S
C260 O253 1.247 . S
C260 O254 1.261 . S
C261 O256 1.259 . S
C261 O258 1.235 . S
O262 Co252 2.021 . S
O262 C259 1.238 . S
O263 Co257 2.052 . S
O263 C259 1.241 . S
O264 Co252 2.137 . S
O264 C255 1.247 . S
O265 Co252 2.244 . S
O265 C255 1.272 . S
O265 Co257 2.135 . S
Co266 O267 2.216 . S
Co266 O268 2.091 . S
Co266 O270 2.004 1_565 S
Co266 O276 2.021 . S
Co266 O278 2.137 . S
Co266 O279 2.244 1_565 S
O267 Co266 2.216 . S
O267 C274 1.247 . S
O268 Co266 2.091 . S
O268 C274 1.261 . S
C269 O278 1.233 1_545 S
C269 O279 1.284 . S
O270 Co266 2.004 1_545 S
O270 C275 1.259 . S
Co271 O272 2.061 . S
Co271 O277 2.052 . S
Co271 O279 2.135 . S
O272 Co271 2.061 . S
O272 C275 1.235 . S
C273 O276 1.248 . S
C273 O277 1.227 1_565 S
C274 O267 1.247 . S
C274 O268 1.261 . S
C275 O270 1.259 . S
C275 O272 1.235 . S
O276 Co266 2.021 . S
O276 C273 1.248 . S
O277 Co271 2.052 . S
O277 C273 1.227 1_545 S
O278 Co266 2.137 . S
O278 C269 1.233 1_565 S
O279 Co266 2.244 1_545 S
O279 C269 1.284 . S
O279 Co271 2.135 . S
Co280 O281 2.216 1_556 S
Co280 O282 2.094 . S
Co280 O284 2.004 . S
Co280 O290 2.021 1_556 S
Co280 O292 2.137 . S
Co280 O293 2.244 . S
O281 Co280 2.216 1_554 S
O281 C288 1.247 . S
O282 Co280 2.094 . S
O282 C288 1.264 1_556 S
C283 O292 1.247 . S
C283 O293 1.272 . S
O284 Co280 2.004 . S
O284 C289 1.259 . S
Co285 O286 2.063 1_554 S
Co285 O291 2.064 . S
Co285 O293 2.126 1_554 S
O286 Co285 2.063 1_556 S
O286 C289 1.235 . S
C287 O290 1.238 . S
C287 O291 1.241 . S
C288 O281 1.247 . S
C288 O282 1.264 1_554 S
C289 O284 1.259 . S
C289 O286 1.235 . S
O290 Co280 2.021 1_554 S
O290 C287 1.238 . S
O291 Co285 2.064 . S
O291 C287 1.241 . S
O292 Co280 2.137 . S
O292 C283 1.247 . S
O293 Co280 2.244 . S
O293 C283 1.272 . S
O293 Co285 2.126 1_556 S
Co294 O295 2.216 . S
Co294 O296 2.091 . S
Co294 O298 2.004 . S
Co294 O304 2.021 . S
Co294 O306 2.137 . S
Co294 O307 2.244 . S
O295 Co294 2.216 . S
O295 C302 1.247 . S
O296 Co294 2.091 . S
O296 C302 1.261 . S
C297 O306 1.247 . S
C297 O307 1.272 . S
O298 Co294 2.004 . S
O298 C303 1.259 . S
Co299 O300 2.061 . S
Co299 O305 2.052 . S
Co299 O307 2.135 . S
O300 Co299 2.061 . S
O300 C303 1.235 . S
C301 O304 1.238 . S
C301 O305 1.241 . S
C302 O295 1.247 . S
C302 O296 1.261 . S
C303 O298 1.259 . S
C303 O300 1.235 . S
O304 Co294 2.021 . S
O304 C301 1.238 . S
O305 Co299 2.052 . S
O305 C301 1.241 . S
O306 Co294 2.137 . S
O306 C297 1.247 . S
O307 Co294 2.244 . S
O307 C297 1.272 . S
O307 Co299 2.135 . S
Co308 O309 2.216 . S
Co308 O310 2.091 . S
Co308 O312 2.004 . S
Co308 O318 2.021 . S
Co308 O320 2.137 . S
Co308 O321 2.244 . S
O309 Co308 2.216 . S
O309 C316 1.247 . S
O310 Co308 2.091 . S
O310 C316 1.261 . S
C311 O320 1.247 . S
C311 O321 1.272 . S
O312 Co308 2.004 . S
O312 C317 1.259 . S
Co313 O314 2.061 . S
Co313 O319 2.052 . S
Co313 O321 2.135 . S
O314 Co313 2.061 . S
O314 C317 1.235 . S
C315 O318 1.238 . S
C315 O319 1.241 . S
C316 O309 1.247 . S
C316 O310 1.261 . S
C317 O312 1.259 . S
C317 O314 1.235 . S
O318 Co308 2.021 . S
O318 C315 1.238 . S
O319 Co313 2.052 . S
O319 C315 1.241 . S
O320 Co308 2.137 . S
O320 C311 1.247 . S
O321 Co308 2.244 . S
O321 C311 1.272 . S
O321 Co313 2.135 . S
Co322 O323 2.216 . S
Co322 O324 2.091 . S
Co322 O326 2.004 . S
Co322 O332 2.021 . S
Co322 O334 2.137 . S
Co322 O335 2.244 . S
O323 Co322 2.216 . S
O323 C330 1.247 . S
O324 Co322 2.091 . S
O324 C330 1.261 . S
C325 O334 1.247 . S
C325 O335 1.272 . S
O326 Co322 2.004 . S
O326 C331 1.259 . S
Co327 O328 2.061 . S
Co327 O333 2.052 . S
Co327 O335 2.135 . S
O328 Co327 2.061 . S
O328 C331 1.235 . S
C329 O332 1.238 . S
C329 O333 1.241 . S
C330 O323 1.247 . S
C330 O324 1.261 . S
C331 O326 1.259 . S
C331 O328 1.235 . S
O332 Co322 2.021 . S
O332 C329 1.238 . S
O333 Co327 2.052 . S
O333 C329 1.241 . S
O334 Co322 2.137 . S
O334 C325 1.247 . S
O335 Co322 2.244 . S
O335 C325 1.272 . S
O335 Co327 2.135 . S
Zn336 O342 1.969 . S
Zn336 O343 1.965 1_565 S
Zn336 O347 2.024 . S
Zn336 O352 1.954 1_565 S
Zn337 O344 1.969 1_654 S
Zn337 O350 1.969 1_554 S
Zn337 O351 1.965 . S
Zn337 O353 2.024 1_655 S
C338 O339 1.229 . S
C338 O347 1.058 . S
O339 C338 1.229 . S
C340 O341 1.229 1_454 S
C340 O353 1.058 . S
O341 C340 1.229 1_656 S
O342 Zn336 1.969 . S
O342 C345 1.267 . S
O343 Zn336 1.965 1_545 S
O343 C354 1.260 1_554 S
O344 Zn337 1.969 1_456 S
O344 C354 1.258 . S
C345 O342 1.267 . S
C345 O346 1.228 . S
O346 C345 1.228 . S
O347 Zn336 2.024 . S
O347 C338 1.058 . S
C348 O349 1.228 . S
C348 O350 1.267 1_554 S
O349 C348 1.228 . S
O350 Zn337 1.969 1_556 S
O350 C348 1.267 1_556 S
O351 Zn337 1.965 . S
O351 C355 1.260 1_655 S
O352 Zn336 1.954 1_545 S
O352 C355 1.283 . S
O353 Zn337 2.024 1_455 S
O353 C340 1.058 . S
C354 O343 1.260 1_556 S
C354 O344 1.258 . S
C355 O351 1.260 1_455 S
C355 O352 1.283 . S
Zn356 O362 1.969 . S
Zn356 O363 1.965 . S
Zn356 O367 2.024 . S
Zn356 O372 1.969 . S
Zn357 O364 1.969 . S
Zn357 O370 1.969 . S
Zn357 O371 1.965 . S
Zn357 O373 2.024 . S
C358 O359 1.229 . S
C358 O367 1.058 . S
O359 C358 1.229 . S
C360 O361 1.229 . S
C360 O373 1.058 . S
O361 C360 1.229 . S
O362 Zn356 1.969 . S
O362 C365 1.267 . S
O363 Zn356 1.965 . S
O363 C374 1.260 . S
O364 Zn357 1.969 . S
O364 C374 1.258 . S
C365 O362 1.267 . S
C365 O366 1.228 . S
O366 C365 1.228 . S
O367 Zn356 2.024 . S
O367 C358 1.058 . S
C368 O369 1.228 . S
C368 O370 1.267 . S
O369 C368 1.228 . S
O370 Zn357 1.969 . S
O370 C368 1.267 . S
O371 Zn357 1.965 . S
O371 C375 1.260 . S
O372 Zn356 1.969 . S
O372 C375 1.258 . S
O373 Zn357 2.024 . S
O373 C360 1.058 . S
C374 O363 1.260 . S
C374 O364 1.258 . S
C375 O371 1.260 . S
C375 O372 1.258 . S
Zn376 O382 1.969 . S
Zn376 O383 1.965 . S
Zn376 O387 2.024 . S
Zn376 O392 1.969 . S
Zn377 O384 1.969 . S
Zn377 O390 1.969 . S
Zn377 O391 1.965 1_565 S
Zn377 O393 2.024 . S
C378 O379 1.229 . S
C378 O387 1.058 . S
O379 C378 1.229 . S
C380 O381 1.229 . S
C380 O393 1.058 . S
O381 C380 1.229 . S
O382 Zn376 1.969 . S
O382 C385 1.267 . S
O383 Zn376 1.965 . S
O383 C394 1.260 . S
O384 Zn377 1.969 . S
O384 C394 1.258 1_565 S
C385 O382 1.267 . S
C385 O386 1.228 . S
O386 C385 1.228 . S
O387 Zn376 2.024 . S
O387 C378 1.058 . S
C388 O389 1.228 . S
C388 O390 1.267 . S
O389 C388 1.228 . S
O390 Zn377 1.969 . S
O390 C388 1.267 . S
O391 Zn377 1.965 1_545 S
O391 C395 1.260 . S
O392 Zn376 1.969 . S
O392 C395 1.258 . S
O393 Zn377 2.024 . S
O393 C380 1.058 . S
C394 O383 1.260 . S
C394 O384 1.258 1_545 S
C395 O391 1.260 . S
C395 O392 1.258 . S
Zn396 O402 1.969 . S
Zn396 O403 1.965 . S
Zn396 O407 2.024 . S
Zn396 O412 1.969 . S
Zn397 O404 1.969 . S
Zn397 O410 1.969 . S
Zn397 O411 1.965 . S
Zn397 O413 2.024 . S
C398 O399 1.229 . S
C398 O407 1.058 . S
O399 C398 1.229 . S
C400 O401 1.229 . S
C400 O413 1.058 . S
O401 C400 1.229 . S
O402 Zn396 1.969 . S
O402 C405 1.267 . S
O403 Zn396 1.965 . S
O403 C414 1.260 . S
O404 Zn397 1.969 . S
O404 C414 1.258 . S
C405 O402 1.267 . S
C405 O406 1.228 . S
O406 C405 1.228 . S
O407 Zn396 2.024 . S
O407 C398 1.058 . S
C408 O409 1.228 . S
C408 O410 1.267 . S
O409 C408 1.228 . S
O410 Zn397 1.969 . S
O410 C408 1.267 . S
O411 Zn397 1.965 . S
O411 C415 1.260 . S
O412 Zn396 1.969 . S
O412 C415 1.258 . S
O413 Zn397 2.024 . S
O413 C400 1.058 . S
C414 O403 1.260 . S
C414 O404 1.258 . S
C415 O411 1.260 . S
C415 O412 1.258 . S
Zn416 O422 1.969 . S
Zn416 O423 1.965 1_455 S
Zn416 O427 2.024 1_565 S
Zn416 O432 1.969 1_565 S
Zn417 O424 1.969 1_455 S
Zn417 O430 1.969 1_455 S
Zn417 O431 1.965 . S
Zn417 O433 2.024 . S
C418 O419 1.229 1_545 S
C418 O427 1.058 . S
O419 C418 1.229 1_565 S
C420 O421 1.229 . S
C420 O433 1.058 1_655 S
O421 C420 1.229 . S
O422 Zn416 1.969 . S
O422 C425 1.267 . S
O423 Zn416 1.965 1_655 S
O423 C434 1.260 . S
O424 Zn417 1.969 1_655 S
O424 C434 1.258 1_545 S
C425 O422 1.267 . S
C425 O426 1.228 . S
O426 C425 1.228 . S
O427 Zn416 2.024 1_545 S
O427 C418 1.058 . S
C428 O429 1.228 . S
C428 O430 1.267 1_455 S
O429 C428 1.228 . S
O430 Zn417 1.969 1_655 S
O430 C428 1.267 1_655 S
O431 Zn417 1.965 . S
O431 C435 1.260 . S
O432 Zn416 1.969 1_545 S
O432 C435 1.258 . S
O433 Zn417 2.024 . S
O433 C420 1.058 1_455 S
C434 O423 1.260 . S
C434 O424 1.258 1_565 S
C435 O431 1.260 . S
C435 O432 1.258 . S
Zn436 O442 1.969 . S
Zn436 O443 1.965 . S
Zn436 O447 2.024 . S
Zn436 O452 1.969 . S
Zn437 O444 1.969 . S
Zn437 O450 1.969 . S
Zn437 O451 1.965 . S
Zn437 O453 2.024 . S
C438 O439 1.229 . S
C438 O447 1.058 . S
O439 C438 1.229 . S
C440 O441 1.229 . S
C440 O453 1.058 . S
O441 C440 1.229 . S
O442 Zn436 1.969 . S
O442 C445 1.267 . S
O443 Zn436 1.965 . S
O443 C454 1.260 . S
O444 Zn437 1.969 . S
O444 C454 1.258 . S
C445 O442 1.267 . S
C445 O446 1.228 . S
O446 C445 1.228 . S
O447 Zn436 2.024 . S
O447 C438 1.058 . S
C448 O449 1.228 . S
C448 O450 1.267 . S
O449 C448 1.228 . S
O450 Zn437 1.969 . S
O450 C448 1.267 . S
O451 Zn437 1.965 . S
O451 C455 1.260 . S
O452 Zn436 1.969 . S
O452 C455 1.258 . S
O453 Zn437 2.024 . S
O453 C440 1.058 . S
C454 O443 1.260 . S
C454 O444 1.258 . S
C455 O451 1.260 . S
C455 O452 1.258 . S
Zn456 O462 1.969 . S
Zn456 O463 1.965 1_545 S
Zn456 O467 2.024 1_556 S
Zn456 O472 1.969 1_556 S
Zn457 O464 1.969 . S
Zn457 O470 1.969 . S
Zn457 O471 1.965 1_565 S
Zn457 O473 2.024 . S
C458 O459 1.229 . S
C458 O467 1.058 . S
O459 C458 1.229 . S
C460 O461 1.229 . S
C460 O473 1.058 . S
O461 C460 1.229 . S
O462 Zn456 1.969 . S
O462 C465 1.267 . S
O463 Zn456 1.965 1_565 S
O463 C474 1.260 1_556 S
O464 Zn457 1.969 . S
O464 C474 1.258 . S
C465 O462 1.267 . S
C465 O466 1.228 . S
O466 C465 1.228 . S
O467 Zn456 2.024 1_554 S
O467 C458 1.058 . S
C468 O469 1.234 . S
C468 O470 1.263 1_545 S
O469 C468 1.234 . S
O470 Zn457 1.969 . S
O470 C468 1.263 1_565 S
O471 Zn457 1.965 1_545 S
O471 C475 1.260 . S
O472 Zn456 1.969 1_554 S
O472 C475 1.258 . S
O473 Zn457 2.024 . S
O473 C460 1.058 . S
C474 O463 1.260 1_554 S
C474 O464 1.258 . S
C475 O471 1.260 . S
C475 O472 1.258 . S
Zn476 O482 1.969 . S
Zn476 O483 1.965 . S
Zn476 O487 2.024 . S
Zn476 O492 1.969 . S
Zn477 O484 1.969 . S
Zn477 O490 1.969 . S
Zn477 O491 1.965 . S
Zn477 O493 2.024 . S
C478 O479 1.229 . S
C478 O487 1.058 . S
O479 C478 1.229 . S
C480 O481 1.229 . S
C480 O493 1.058 . S
O481 C480 1.229 . S
O482 Zn476 1.969 . S
O482 C485 1.267 . S
O483 Zn476 1.965 . S
O483 C494 1.260 . S
O484 Zn477 1.969 . S
O484 C494 1.258 . S
C485 O482 1.267 . S
C485 O486 1.228 . S
O486 C485 1.228 . S
O487 Zn476 2.024 . S
O487 C478 1.058 . S
C488 O489 1.228 . S
C488 O490 1.267 . S
O489 C488 1.228 . S
O490 Zn477 1.969 . S
O490 C488 1.267 . S
O491 Zn477 1.965 . S
O491 C495 1.260 . S
O492 Zn476 1.969 . S
O492 C495 1.258 . S
O493 Zn477 2.024 . S
O493 C480 1.058 . S
C494 O483 1.260 . S
C494 O484 1.258 . S
C495 O491 1.260 . S
C495 O492 1.258 . S
Zn496 O502 1.969 . S
Zn496 O503 1.965 . S
Zn496 O507 2.024 . S
Zn496 O512 1.969 . S
Zn497 O504 1.969 1_556 S
Zn497 O510 1.969 1_556 S
Zn497 O511 1.965 1_556 S
Zn497 O513 2.024 . S
C498 O499 1.229 . S
C498 O507 1.058 . S
O499 C498 1.229 . S
C500 O501 1.229 . S
C500 O513 1.058 . S
O501 C500 1.229 . S
O502 Zn496 1.969 . S
O502 C505 1.267 . S
O503 Zn496 1.965 . S
O503 C514 1.260 . S
O504 Zn497 1.969 1_554 S
O504 C514 1.258 . S
C505 O502 1.267 . S
C505 O506 1.228 . S
O506 C505 1.228 . S
O507 Zn496 2.024 . S
O507 C498 1.058 . S
C508 O509 1.228 . S
C508 O510 1.267 1_556 S
O509 C508 1.228 . S
O510 Zn497 1.969 1_554 S
O510 C508 1.267 1_554 S
O511 Zn497 1.965 1_554 S
O511 C515 1.260 . S
O512 Zn496 1.969 . S
O512 C515 1.258 . S
O513 Zn497 2.024 . S
O513 C500 1.058 . S
C514 O503 1.260 . S
C514 O504 1.258 . S
C515 O511 1.260 . S
C515 O512 1.258 . S
Zn516 O522 1.969 . S
Zn516 O523 1.965 . S
Zn516 O527 2.024 . S
Zn516 O532 1.969 . S
Zn517 O524 1.969 . S
Zn517 O530 1.969 . S
Zn517 O531 1.965 . S
Zn517 O533 2.024 . S
C518 O519 1.229 . S
C518 O527 1.058 . S
O519 C518 1.229 . S
C520 O521 1.229 . S
C520 O533 1.058 . S
O521 C520 1.229 . S
O522 Zn516 1.969 . S
O522 C525 1.267 . S
O523 Zn516 1.965 . S
O523 C534 1.260 . S
O524 Zn517 1.969 . S
O524 C534 1.258 . S
C525 O522 1.267 . S
C525 O526 1.228 . S
O526 C525 1.228 . S
O527 Zn516 2.024 . S
O527 C518 1.058 . S
C528 O529 1.228 . S
C528 O530 1.267 . S
O529 C528 1.228 . S
O530 Zn517 1.969 . S
O530 C528 1.267 . S
O531 Zn517 1.965 . S
O531 C535 1.260 . S
O532 Zn516 1.969 . S
O532 C535 1.258 . S
O533 Zn517 2.024 . S
O533 C520 1.058 . S
C534 O523 1.260 . S
C534 O524 1.258 . S
C535 O531 1.260 . S
C535 O532 1.258 . S
Zn536 O542 1.969 . S
Zn536 O543 1.965 . S
Zn536 O547 2.024 . S
Zn536 O552 1.969 . S
Zn537 O544 1.951 1_655 S
Zn537 O550 1.969 . S
Zn537 O551 1.965 1_655 S
Zn537 O553 2.024 . S
C538 O539 1.229 . S
C538 O547 1.058 . S
O539 C538 1.229 . S
C540 O541 1.229 . S
C540 O553 1.058 . S
O541 C540 1.229 . S
O542 Zn536 1.969 . S
O542 C545 1.267 . S
O543 Zn536 1.965 . S
O543 C554 1.260 . S
O544 Zn537 1.951 1_455 S
O544 C554 1.280 . S
C545 O542 1.267 . S
C545 O546 1.228 . S
O546 C545 1.228 . S
O547 Zn536 2.024 . S
O547 C538 1.058 . S
C548 O549 1.228 . S
C548 O550 1.267 . S
O549 C548 1.228 . S
O550 Zn537 1.969 . S
O550 C548 1.267 . S
O551 Zn537 1.965 1_455 S
O551 C555 1.260 . S
O552 Zn536 1.969 . S
O552 C555 1.258 . S
O553 Zn537 2.024 . S
O553 C540 1.058 . S
C554 O543 1.260 . S
C554 O544 1.280 . S
C555 O551 1.260 . S
C555 O552 1.258 . S
Zn556 O562 1.969 . S
Zn556 O563 1.965 . S
Zn556 O567 2.024 . S
Zn556 O572 1.969 . S
Zn557 O564 1.969 . S
Zn557 O570 1.969 . S
Zn557 O571 1.965 . S
Zn557 O573 2.024 . S
C558 O559 1.229 . S
C558 O567 1.058 . S
O559 C558 1.229 . S
C560 O561 1.229 . S
C560 O573 1.058 . S
O561 C560 1.229 . S
O562 Zn556 1.969 . S
O562 C565 1.267 . S
O563 Zn556 1.965 . S
O563 C574 1.260 . S
O564 Zn557 1.969 . S
O564 C574 1.258 . S
C565 O562 1.267 . S
C565 O566 1.228 . S
O566 C565 1.228 . S
O567 Zn556 2.024 . S
O567 C558 1.058 . S
C568 O569 1.228 . S
C568 O570 1.267 . S
O569 C568 1.228 . S
O570 Zn557 1.969 . S
O570 C568 1.267 . S
O571 Zn557 1.965 . S
O571 C575 1.260 . S
O572 Zn556 1.969 . S
O572 C575 1.258 . S
O573 Zn557 2.024 . S
O573 C560 1.058 . S
C574 O563 1.260 . S
C574 O564 1.258 . S
C575 O571 1.260 . S
C575 O572 1.258 . S
Zn576 O582 1.969 . S
Zn576 O583 1.965 . S
Zn576 O587 2.024 . S
Zn576 O592 1.969 . S
Zn577 O584 1.969 . S
Zn577 O590 1.969 . S
Zn577 O591 1.965 . S
Zn577 O593 2.024 . S
C578 O579 1.229 . S
C578 O587 1.058 . S
O579 C578 1.229 . S
C580 O581 1.229 . S
C580 O593 1.058 . S
O581 C580 1.229 . S
O582 Zn576 1.969 . S
O582 C585 1.267 . S
O583 Zn576 1.965 . S
O583 C594 1.260 . S
O584 Zn577 1.969 . S
O584 C594 1.258 . S
C585 O582 1.267 . S
C585 O586 1.228 . S
O586 C585 1.228 . S
O587 Zn576 2.024 . S
O587 C578 1.058 . S
C588 O589 1.228 . S
C588 O590 1.267 . S
O589 C588 1.228 . S
O590 Zn577 1.969 . S
O590 C588 1.267 . S
O591 Zn577 1.965 . S
O591 C595 1.260 . S
O592 Zn576 1.969 . S
O592 C595 1.258 . S
O593 Zn577 2.024 . S
O593 C580 1.058 . S
C594 O583 1.260 . S
C594 O584 1.258 . S
C595 O591 1.260 . S
C595 O592 1.258 . S
Zn596 O602 1.969 . S
Zn596 O603 1.965 . S
Zn596 O607 2.024 . S
Zn596 O612 1.969 . S
Zn597 O604 1.969 . S
Zn597 O610 1.969 . S
Zn597 O611 1.965 . S
Zn597 O613 2.024 . S
C598 O599 1.229 . S
C598 O607 1.058 . S
O599 C598 1.229 . S
C600 O601 1.229 . S
C600 O613 1.058 . S
O601 C600 1.229 . S
O602 Zn596 1.969 . S
O602 C605 1.267 . S
O603 Zn596 1.965 . S
O603 C614 1.260 . S
O604 Zn597 1.969 . S
O604 C614 1.258 . S
C605 O602 1.267 . S
C605 O606 1.228 . S
O606 C605 1.228 . S
O607 Zn596 2.024 . S
O607 C598 1.058 . S
C608 O609 1.228 . S
C608 O610 1.267 . S
O609 C608 1.228 . S
O610 Zn597 1.969 . S
O610 C608 1.267 . S
O611 Zn597 1.965 . S
O611 C615 1.260 . S
O612 Zn596 1.969 . S
O612 C615 1.258 . S
O613 Zn597 2.024 . S
O613 C600 1.058 . S
C614 O603 1.260 . S
C614 O604 1.258 . S
C615 O611 1.260 . S
C615 O612 1.258 . S
Zn616 O622 1.969 . S
Zn616 O623 1.965 . S
Zn616 O627 2.024 . S
Zn616 O632 1.969 . S
Zn617 O624 1.969 . S
Zn617 O630 1.969 . S
Zn617 O631 1.965 . S
Zn617 O633 2.024 . S
C618 O619 1.229 . S
C618 O627 1.058 . S
O619 C618 1.229 . S
C620 O621 1.229 . S
C620 O633 1.058 . S
O621 C620 1.229 . S
O622 Zn616 1.969 . S
O622 C625 1.267 . S
O623 Zn616 1.965 . S
O623 C634 1.260 . S
O624 Zn617 1.969 . S
O624 C634 1.258 . S
C625 O622 1.267 . S
C625 O626 1.228 . S
O626 C625 1.228 . S
O627 Zn616 2.024 . S
O627 C618 1.058 . S
C628 O629 1.228 . S
C628 O630 1.267 . S
O629 C628 1.228 . S
O630 Zn617 1.969 . S
O630 C628 1.267 . S
O631 Zn617 1.965 . S
O631 C635 1.260 . S
O632 Zn616 1.969 . S
O632 C635 1.258 . S
O633 Zn617 2.024 . S
O633 C620 1.058 . S
C634 O623 1.260 . S
C634 O624 1.258 . S
C635 O631 1.260 . S
C635 O632 1.258 . S
Zn636 O642 1.969 . S
Zn636 O643 1.965 . S
Zn636 O647 2.024 1_655 S
Zn636 O652 1.969 1_655 S
Zn637 O644 1.969 1_554 S
Zn637 O650 1.969 . S
Zn637 O651 1.965 . S
Zn637 O653 2.024 . S
C638 O639 1.235 . S
C638 O647 1.058 . S
O639 C638 1.235 . S
C640 O641 1.229 . S
C640 O653 1.058 1_556 S
O641 C640 1.229 . S
O642 Zn636 1.969 . S
O642 C645 1.267 . S
O643 Zn636 1.965 . S
O643 C654 1.260 1_654 S
O644 Zn637 1.969 1_556 S
O644 C654 1.258 . S
C645 O642 1.267 . S
C645 O646 1.228 . S
O646 C645 1.228 . S
O647 Zn636 2.024 1_455 S
O647 C638 1.058 . S
C648 O649 1.228 . S
C648 O650 1.267 . S
O649 C648 1.228 . S
O650 Zn637 1.969 . S
O650 C648 1.267 . S
O651 Zn637 1.965 . S
O651 C655 1.260 . S
O652 Zn636 1.969 1_455 S
O652 C655 1.258 . S
O653 Zn637 2.024 . S
O653 C640 1.058 1_554 S
C654 O643 1.260 1_456 S
C654 O644 1.258 . S
C655 O651 1.260 . S
C655 O652 1.258 . S
C656 C657 1.363 . S
C656 C662 1.379 1_556 S
C656 N664 1.356 . S
C657 C656 1.363 . S
C657 C663 1.363 1_455 S
C658 C659 1.363 . S
C658 C663 1.379 1_455 S
C658 N665 1.354 . S
C659 C658 1.363 . S
C659 C662 1.363 1_556 S
N660 C662 1.356 . S
N660 H672 0.984 . S
N660 H673 0.985 . S
N661 C663 1.356 . S
N661 H666 0.984 . S
N661 H667 0.985 . S
C662 C656 1.379 1_554 S
C662 C659 1.363 1_554 S
C662 N660 1.356 . S
C663 C657 1.363 1_655 S
C663 C658 1.379 1_655 S
C663 N661 1.356 . S
N664 C656 1.356 . S
N664 H670 0.984 . S
N664 H671 0.984 . S
N665 C658 1.354 . S
N665 H668 0.997 . S
N665 H669 0.976 1_455 S
H666 N661 0.984 . S
H667 N661 0.985 . S
H668 N665 0.997 . S
H669 N665 0.976 1_655 S
H670 N664 0.984 . S
H671 N664 0.984 . S
H672 N660 0.984 . S
H673 N660 0.985 . S
C674 C675 1.363 . S
C674 C680 1.379 . S
C674 N682 1.356 . S
C675 C674 1.363 . S
C675 C681 1.363 . S
C676 C677 1.363 . S
C676 C681 1.379 . S
C676 N683 1.356 . S
C677 C676 1.363 . S
C677 C680 1.363 . S
N678 C680 1.356 . S
N678 H690 0.984 . S
N678 H691 0.985 . S
N679 C681 1.356 . S
N679 H684 0.984 . S
N679 H685 0.985 . S
C680 C674 1.379 . S
C680 C677 1.363 . S
C680 N678 1.356 . S
C681 C675 1.363 . S
C681 C676 1.379 . S
C681 N679 1.356 . S
N682 C674 1.356 . S
N682 H688 0.984 . S
N682 H689 0.984 . S
N683 C676 1.356 . S
N683 H686 0.984 . S
N683 H687 0.985 . S
H684 N679 0.984 . S
H685 N679 0.985 . S
H686 N683 0.984 . S
H687 N683 0.985 . S
H688 N682 0.984 . S
H689 N682 0.984 . S
H690 N678 0.984 . S
H691 N678 0.985 . S
C692 C693 1.363 . S
C692 C698 1.379 . S
C692 N700 1.356 . S
C693 C692 1.363 . S
C693 C699 1.363 . S
C694 C695 1.363 . S
C694 C699 1.379 . S
C694 N701 1.356 . S
C695 C694 1.363 . S
C695 C698 1.363 . S
N696 C698 1.356 . S
N696 H708 0.984 . S
N696 H709 0.985 . S
N697 C699 1.356 . S
N697 H702 0.984 . S
N697 H703 0.985 . S
C698 C692 1.379 . S
C698 C695 1.363 . S
C698 N696 1.356 . S
C699 C693 1.363 . S
C699 C694 1.379 . S
C699 N697 1.356 . S
N700 C692 1.356 . S
N700 H706 0.984 . S
N700 H707 0.984 . S
N701 C694 1.356 . S
N701 H704 0.984 . S
N701 H705 0.985 . S
H702 N697 0.984 . S
H703 N697 0.985 . S
H704 N701 0.984 . S
H705 N701 0.985 . S
H706 N700 0.984 . S
H707 N700 0.984 . S
H708 N696 0.984 . S
H709 N696 0.985 . S
C710 C711 1.363 . S
C710 C716 1.379 . S
C710 N718 1.356 . S
C711 C710 1.363 . S
C711 C717 1.363 . S
C712 C713 1.363 . S
C712 C717 1.379 . S
C712 N719 1.356 . S
C713 C712 1.363 . S
C713 C716 1.363 . S
N714 C716 1.356 . S
N714 H726 0.984 . S
N714 H727 0.985 . S
N715 C717 1.356 . S
N715 H720 0.984 . S
N715 H721 0.985 . S
C716 C710 1.379 . S
C716 C713 1.363 . S
C716 N714 1.356 . S
C717 C711 1.363 . S
C717 C712 1.379 . S
C717 N715 1.356 . S
N718 C710 1.356 . S
N718 H724 0.984 . S
N718 H725 0.984 . S
N719 C712 1.356 . S
N719 H722 0.984 . S
N719 H723 0.985 . S
H720 N715 0.984 . S
H721 N715 0.985 . S
H722 N719 0.984 . S
H723 N719 0.985 . S
H724 N718 0.984 . S
H725 N718 0.984 . S
H726 N714 0.984 . S
H727 N714 0.985 . S
C728 C729 1.363 . S
C728 C734 1.379 . S
C728 N736 1.356 1_455 S
C729 C728 1.363 . S
C729 C735 1.363 . S
C730 C731 1.363 . S
C730 C735 1.379 . S
C730 N737 1.356 . S
C731 C730 1.363 . S
C731 C734 1.363 . S
N732 C734 1.356 . S
N732 H744 0.984 1_455 S
N732 H745 0.985 . S
N733 C735 1.356 . S
N733 H738 0.984 . S
N733 H739 0.985 . S
C734 C728 1.379 . S
C734 C731 1.363 . S
C734 N732 1.356 . S
C735 C729 1.363 . S
C735 C730 1.379 . S
C735 N733 1.356 . S
N736 C728 1.356 1_655 S
N736 H742 0.984 . S
N736 H743 0.984 . S
N737 C730 1.356 . S
N737 H740 0.984 . S
N737 H741 0.985 . S
H738 N733 0.984 . S
H739 N733 0.985 . S
H740 N737 0.984 . S
H741 N737 0.985 . S
H742 N736 0.984 . S
H743 N736 0.984 . S
H744 N732 0.984 1_655 S
H745 N732 0.985 . S
C746 C747 1.363 . S
C746 C752 1.379 . S
C746 N754 1.356 . S
C747 C746 1.363 . S
C747 C753 1.363 . S
C748 C749 1.363 . S
C748 C753 1.379 . S
C748 N755 1.356 . S
C749 C748 1.363 . S
C749 C752 1.363 . S
N750 C752 1.356 . S
N750 H762 0.984 . S
N750 H763 0.985 . S
N751 C753 1.356 . S
N751 H756 0.984 . S
N751 H757 0.985 . S
C752 C746 1.379 . S
C752 C749 1.363 . S
C752 N750 1.356 . S
C753 C747 1.363 . S
C753 C748 1.379 . S
C753 N751 1.356 . S
N754 C746 1.356 . S
N754 H760 0.984 . S
N754 H761 0.984 . S
N755 C748 1.356 . S
N755 H758 0.984 . S
N755 H759 0.985 . S
H756 N751 0.984 . S
H757 N751 0.985 . S
H758 N755 0.984 . S
H759 N755 0.985 . S
H760 N754 0.984 . S
H761 N754 0.984 . S
H762 N750 0.984 . S
H763 N750 0.985 . S
C764 C765 1.363 . S
C764 C770 1.379 . S
C764 N772 1.356 . S
C765 C764 1.363 . S
C765 C771 1.363 . S
C766 C767 1.363 . S
C766 C771 1.379 . S
C766 N773 1.356 . S
C767 C766 1.363 . S
C767 C770 1.363 . S
N768 C770 1.356 . S
N768 H780 0.984 . S
N768 H781 0.985 . S
N769 C771 1.356 . S
N769 H774 0.984 . S
N769 H775 0.985 . S
C770 C764 1.379 . S
C770 C767 1.363 . S
C770 N768 1.356 . S
C771 C765 1.363 . S
C771 C766 1.379 . S
C771 N769 1.356 . S
N772 C764 1.356 . S
N772 H778 0.984 . S
N772 H779 0.984 . S
N773 C766 1.356 . S
N773 H776 0.984 . S
N773 H777 0.985 . S
H774 N769 0.984 . S
H775 N769 0.985 . S
H776 N773 0.984 . S
H777 N773 0.985 . S
H778 N772 0.984 . S
H779 N772 0.984 . S
H780 N768 0.984 . S
H781 N768 0.985 . S
C782 C783 1.363 . S
C782 C788 1.379 . S
C782 N790 1.356 . S
C783 C782 1.363 . S
C783 C789 1.363 . S
C784 C785 1.363 . S
C784 C789 1.379 . S
C784 N791 1.356 . S
C785 C784 1.363 . S
C785 C788 1.363 . S
N786 C788 1.356 . S
N786 H798 0.984 . S
N786 H799 0.985 . S
N787 C789 1.356 . S
N787 H792 0.984 . S
N787 H793 0.985 . S
C788 C782 1.379 . S
C788 C785 1.363 . S
C788 N786 1.356 . S
C789 C783 1.363 . S
C789 C784 1.379 . S
C789 N787 1.356 . S
N790 C782 1.356 . S
N790 H796 0.984 . S
N790 H797 0.984 . S
N791 C784 1.356 . S
N791 H794 0.984 . S
N791 H795 0.985 . S
H792 N787 0.984 . S
H793 N787 0.985 . S
H794 N791 0.984 . S
H795 N791 0.985 . S
H796 N790 0.984 . S
H797 N790 0.984 . S
H798 N786 0.984 . S
H799 N786 0.985 . S
C800 C801 1.363 1_565 S
C800 C806 1.379 . S
C800 N808 1.356 . S
C801 C800 1.363 1_545 S
C801 C807 1.363 . S
C802 C803 1.363 . S
C802 C807 1.379 . S
C802 N809 1.356 . S
C803 C802 1.363 . S
C803 C806 1.363 1_545 S
N804 C806 1.356 1_455 S
N804 H816 0.984 . S
N804 H817 0.985 . S
N805 C807 1.356 . S
N805 H810 0.984 . S
N805 H811 0.985 . S
C806 C800 1.379 . S
C806 C803 1.363 1_565 S
C806 N804 1.356 1_655 S
C807 C801 1.363 . S
C807 C802 1.379 . S
C807 N805 1.356 . S
N808 C800 1.356 . S
N808 H814 0.984 . S
N808 H815 0.984 . S
N809 C802 1.356 . S
N809 H812 0.984 . S
N809 H813 0.985 . S
H810 N805 0.984 . S
H811 N805 0.985 . S
H812 N809 0.984 . S
H813 N809 0.985 . S
H814 N808 0.984 . S
H815 N808 0.984 . S
H816 N804 0.984 . S
H817 N804 0.985 . S
C818 C819 1.363 . S
C818 C824 1.379 . S
C818 N826 1.356 . S
C819 C818 1.363 . S
C819 C825 1.363 . S
C820 C821 1.363 . S
C820 C825 1.379 . S
C820 N827 1.356 . S
C821 C820 1.363 . S
C821 C824 1.363 . S
N822 C824 1.356 . S
N822 H834 0.984 . S
N822 H835 0.985 . S
N823 C825 1.356 . S
N823 H828 0.984 . S
N823 H829 0.985 . S
C824 C818 1.379 . S
C824 C821 1.363 . S
C824 N822 1.356 . S
C825 C819 1.363 . S
C825 C820 1.379 . S
C825 N823 1.356 . S
N826 C818 1.356 . S
N826 H832 0.984 . S
N826 H833 0.984 . S
N827 C820 1.356 . S
N827 H830 0.984 . S
N827 H831 0.985 . S
H828 N823 0.984 . S
H829 N823 0.985 . S
H830 N827 0.984 . S
H831 N827 0.985 . S
H832 N826 0.984 . S
H833 N826 0.984 . S
H834 N822 0.984 . S
H835 N822 0.985 . S
C836 C837 1.363 . S
C836 C842 1.379 . S
C836 N844 1.356 . S
C837 C836 1.363 . S
C837 C843 1.363 1_565 S
C838 C839 1.348 1_545 S
C838 C843 1.379 . S
C838 N845 1.356 . S
C839 C838 1.348 1_565 S
C839 C842 1.386 . S
N840 C842 1.356 . S
N840 H852 0.984 . S
N840 H853 0.985 . S
N841 C843 1.356 . S
N841 H846 0.984 . S
N841 H847 0.985 . S
C842 C836 1.379 . S
C842 C839 1.386 . S
C842 N840 1.356 . S
C843 C837 1.363 1_545 S
C843 C838 1.379 . S
C843 N841 1.356 . S
N844 C836 1.356 . S
N844 H850 0.984 . S
N844 H851 0.984 . S
N845 C838 1.356 . S
N845 H848 0.984 . S
N845 H849 0.985 . S
H846 N841 0.984 . S
H847 N841 0.985 . S
H848 N845 0.984 . S
H849 N845 0.985 . S
H850 N844 0.984 . S
H851 N844 0.984 . S
H852 N840 0.984 . S
H853 N840 0.985 . S
C854 C855 1.363 . S
C854 C860 1.379 . S
C854 N862 1.356 1_556 S
C855 C854 1.363 . S
C855 C861 1.363 . S
C856 C857 1.363 . S
C856 C861 1.379 . S
C856 N863 1.356 . S
C857 C856 1.363 . S
C857 C860 1.363 . S
N858 C860 1.356 . S
N858 H870 0.984 . S
N858 H871 0.985 . S
N859 C861 1.356 . S
N859 H864 0.984 . S
N859 H865 0.985 . S
C860 C854 1.379 . S
C860 C857 1.363 . S
C860 N858 1.356 . S
C861 C855 1.363 . S
C861 C856 1.379 . S
C861 N859 1.356 . S
N862 C854 1.356 1_554 S
N862 H868 0.984 . S
N862 H869 0.984 . S
N863 C856 1.356 . S
N863 H866 0.984 . S
N863 H867 0.985 . S
H864 N859 0.984 . S
H865 N859 0.985 . S
H866 N863 0.984 . S
H867 N863 0.985 . S
H868 N862 0.984 . S
H869 N862 0.984 . S
H870 N858 0.984 . S
H871 N858 0.985 . S
C872 C873 1.363 1_565 S
C872 C878 1.379 . S
C872 N880 1.356 . S
C873 C872 1.363 1_545 S
C873 C879 1.363 . S
C874 C875 1.363 . S
C874 C879 1.379 . S
C874 N881 1.356 1_655 S
C875 C874 1.363 . S
C875 C878 1.363 1_545 S
N876 C878 1.356 . S
N876 H888 0.984 . S
N876 H889 0.985 . S
N877 C879 1.356 . S
N877 H882 0.984 . S
N877 H883 0.985 . S
C878 C872 1.379 . S
C878 C875 1.363 1_565 S
C878 N876 1.356 . S
C879 C873 1.363 . S
C879 C874 1.379 . S
C879 N877 1.356 . S
N880 C872 1.356 . S
N880 H886 0.984 . S
N880 H887 0.984 . S
N881 C874 1.356 1_455 S
N881 H884 0.984 . S
N881 H885 0.985 . S
H882 N877 0.984 . S
H883 N877 0.985 . S
H884 N881 0.984 . S
H885 N881 0.985 . S
H886 N880 0.984 . S
H887 N880 0.984 . S
H888 N876 0.984 . S
H889 N876 0.985 . S
C890 C891 1.363 . S
C890 C896 1.379 . S
C890 N898 1.356 . S
C891 C890 1.363 . S
C891 C897 1.363 . S
C892 C893 1.363 . S
C892 C897 1.379 . S
C892 N899 1.356 . S
C893 C892 1.363 . S
C893 C896 1.363 . S
N894 C896 1.356 . S
N894 H906 0.984 . S
N894 H907 0.985 . S
N895 C897 1.356 . S
N895 H900 0.984 . S
N895 H901 0.985 . S
C896 C890 1.379 . S
C896 C893 1.363 . S
C896 N894 1.356 . S
C897 C891 1.363 . S
C897 C892 1.379 . S
C897 N895 1.356 . S
N898 C890 1.356 . S
N898 H904 0.984 . S
N898 H905 0.984 . S
N899 C892 1.356 . S
N899 H902 0.984 . S
N899 H903 0.985 . S
H900 N895 0.984 . S
H901 N895 0.985 . S
H902 N899 0.984 . S
H903 N899 0.985 . S
H904 N898 0.984 . S
H905 N898 0.984 . S
H906 N894 0.984 . S
H907 N894 0.985 . S
C908 C909 1.363 1_565 S
C908 C914 1.379 . S
C908 N916 1.356 . S
C909 C908 1.363 1_545 S
C909 C915 1.363 . S
C910 C911 1.363 . S
C910 C915 1.379 . S
C910 N917 1.356 . S
C911 C910 1.363 . S
C911 C914 1.363 1_545 S
N912 C914 1.356 . S
N912 H924 0.984 . S
N912 H925 0.985 . S
N913 C915 1.356 . S
N913 H918 0.984 . S
N913 H919 0.985 . S
C914 C908 1.379 . S
C914 C911 1.363 1_565 S
C914 N912 1.356 . S
C915 C909 1.363 . S
C915 C910 1.379 . S
C915 N913 1.356 . S
N916 C908 1.356 . S
N916 H922 0.984 . S
N916 H923 0.984 . S
N917 C910 1.356 . S
N917 H920 0.984 . S
N917 H921 0.985 . S
H918 N913 0.984 . S
H919 N913 0.985 . S
H920 N917 0.984 . S
H921 N917 0.985 . S
H922 N916 0.984 . S
H923 N916 0.984 . S
H924 N912 0.984 . S
H925 N912 0.985 . S
C926 C927 1.363 . S
C926 C932 1.379 . S
C926 N934 1.356 . S
C927 C926 1.363 . S
C927 C933 1.363 . S
C928 C929 1.363 . S
C928 C933 1.379 . S
C928 N935 1.356 . S
C929 C928 1.363 . S
C929 C932 1.363 . S
N930 C932 1.356 . S
N930 H942 0.984 . S
N930 H943 0.985 . S
N931 C933 1.356 . S
N931 H936 0.984 . S
N931 H937 0.985 . S
C932 C926 1.379 . S
C932 C929 1.363 . S
C932 N930 1.356 . S
C933 C927 1.363 . S
C933 C928 1.379 . S
C933 N931 1.356 . S
N934 C926 1.356 . S
N934 H940 0.984 . S
N934 H941 0.984 . S
N935 C928 1.356 . S
N935 H938 0.984 . S
N935 H939 0.985 . S
H936 N931 0.984 . S
H937 N931 0.985 . S
H938 N935 0.984 . S
H939 N935 0.985 . S
H940 N934 0.984 . S
H941 N934 0.984 . S
H942 N930 0.984 . S
H943 N930 0.985 . S
C944 C945 1.363 . S
C944 C950 1.379 . S
C944 N952 1.356 . S
C945 C944 1.363 . S
C945 C951 1.363 . S
C946 C947 1.363 . S
C946 C951 1.379 . S
C946 N953 1.356 . S
C947 C946 1.363 . S
C947 C950 1.363 . S
N948 C950 1.356 1_545 S
N948 H960 0.984 . S
N948 H961 0.985 . S
N949 C951 1.356 . S
N949 H954 0.984 . S
N949 H955 0.985 . S
C950 C944 1.379 . S
C950 C947 1.363 . S
C950 N948 1.356 1_565 S
C951 C945 1.363 . S
C951 C946 1.379 . S
C951 N949 1.356 . S
N952 C944 1.356 . S
N952 H958 0.984 1_554 S
N952 H959 0.984 1_554 S
N953 C946 1.356 . S
N953 H956 0.984 . S
N953 H957 0.985 . S
H954 N949 0.984 . S
H955 N949 0.985 . S
H956 N953 0.984 . S
H957 N953 0.985 . S
H958 N952 0.984 1_556 S
H959 N952 0.984 1_556 S
H960 N948 0.984 . S
H961 N948 0.985 . S
C962 C963 1.363 1_554 S
C962 C968 1.379 . S
C962 N970 1.356 . S
C963 C962 1.363 1_556 S
C963 C969 1.363 . S
C964 C965 1.363 1_556 S
C964 C969 1.379 . S
C964 N971 1.356 . S
C965 C964 1.363 1_554 S
C965 C968 1.363 . S
N966 C968 1.356 . S
N966 H978 0.984 . S
N966 H979 0.985 . S
N967 C969 1.356 . S
N967 H972 0.984 . S
N967 H973 0.985 . S
C968 C962 1.379 . S
C968 C965 1.363 . S
C968 N966 1.356 . S
C969 C963 1.363 . S
C969 C964 1.379 . S
C969 N967 1.356 . S
N970 C962 1.356 . S
N970 H976 0.984 . S
N970 H977 0.984 . S
N971 C964 1.356 . S
N971 H974 0.984 . S
N971 H975 0.985 . S
H972 N967 0.984 . S
H973 N967 0.985 . S
H974 N971 0.984 . S
H975 N971 0.985 . S
H976 N970 0.984 . S
H977 N970 0.984 . S
H978 N966 0.984 . S
H979 N966 0.985 . S
C980 C981 1.363 . S
C980 C986 1.379 . S
C980 N988 1.356 . S
C981 C980 1.363 . S
C981 C987 1.363 . S
C982 C983 1.363 . S
C982 C987 1.379 . S
C982 N989 1.356 . S
C983 C982 1.363 . S
C983 C986 1.363 . S
N984 C986 1.356 . S
N984 H996 0.984 . S
N984 H997 0.985 . S
N985 C987 1.356 . S
N985 H990 0.984 . S
N985 H991 0.985 . S
C986 C980 1.379 . S
C986 C983 1.363 . S
C986 N984 1.356 . S
C987 C981 1.363 . S
C987 C982 1.379 . S
C987 N985 1.356 . S
N988 C980 1.356 . S
N988 H994 0.984 . S
N988 H995 0.984 . S
N989 C982 1.356 . S
N989 H992 0.984 . S
N989 H993 0.985 . S
H990 N985 0.984 . S
H991 N985 0.985 . S
H992 N989 0.984 . S
H993 N989 0.985 . S
H994 N988 0.984 . S
H995 N988 0.984 . S
H996 N984 0.984 . S
H997 N984 0.985 . S
C998 C999 1.363 . S
C998 C1004 1.379 . S
C998 N1006 1.356 . S
C999 C998 1.363 . S
C999 C1005 1.363 . S
C1000 C1001 1.363 . S
C1000 C1005 1.379 . S
C1000 N1007 1.356 . S
C1001 C1000 1.363 . S
C1001 C1004 1.363 . S
N1002 C1004 1.356 . S
N1002 H1014 0.984 . S
N1002 H1015 0.985 . S
N1003 C1005 1.356 . S
N1003 H1008 0.984 . S
N1003 H1009 0.985 . S
C1004 C998 1.379 . S
C1004 C1001 1.363 . S
C1004 N1002 1.356 . S
C1005 C999 1.363 . S
C1005 C1000 1.379 . S
C1005 N1003 1.356 . S
N1006 C998 1.356 . S
N1006 H1012 0.984 . S
N1006 H1013 0.984 . S
N1007 C1000 1.356 . S
N1007 H1010 0.984 . S
N1007 H1011 0.985 . S
H1008 N1003 0.984 . S
H1009 N1003 0.985 . S
H1010 N1007 0.984 . S
H1011 N1007 0.985 . S
H1012 N1006 0.984 . S
H1013 N1006 0.984 . S
H1014 N1002 0.984 . S
H1015 N1002 0.985 . S
C1016 C1017 1.363 . S
C1016 C1022 1.379 . S
C1016 N1024 1.356 . S
C1017 C1016 1.363 . S
C1017 C1023 1.363 . S
C1018 C1019 1.363 . S
C1018 C1023 1.379 . S
C1018 N1025 1.356 . S
C1019 C1018 1.363 . S
C1019 C1022 1.363 . S
N1020 C1022 1.356 . S
N1020 H1032 0.984 . S
N1020 H1033 0.985 . S
N1021 C1023 1.356 . S
N1021 H1026 0.984 . S
N1021 H1027 0.985 . S
C1022 C1016 1.379 . S
C1022 C1019 1.363 . S
C1022 N1020 1.356 . S
C1023 C1017 1.363 . S
C1023 C1018 1.379 . S
C1023 N1021 1.356 . S
N1024 C1016 1.356 . S
N1024 H1030 0.984 . S
N1024 H1031 0.984 . S
N1025 C1018 1.356 . S
N1025 H1028 0.984 . S
N1025 H1029 0.985 . S
H1026 N1021 0.984 . S
H1027 N1021 0.985 . S
H1028 N1025 0.984 . S
H1029 N1025 0.985 . S
H1030 N1024 0.984 . S
H1031 N1024 0.984 . S
H1032 N1020 0.984 . S
H1033 N1020 0.985 . S
C1034 C1035 1.363 . S
C1034 C1040 1.379 . S
C1034 N1042 1.356 . S
C1035 C1034 1.363 . S
C1035 C1041 1.363 . S
C1036 C1037 1.363 . S
C1036 C1041 1.379 . S
C1036 N1043 1.356 . S
C1037 C1036 1.363 . S
C1037 C1040 1.363 . S
N1038 C1040 1.356 . S
N1038 H1050 0.984 . S
N1038 H1051 0.985 . S
N1039 C1041 1.356 . S
N1039 H1044 0.984 . S
N1039 H1045 0.985 . S
C1040 C1034 1.379 . S
C1040 C1037 1.363 . S
C1040 N1038 1.356 . S
C1041 C1035 1.363 . S
C1041 C1036 1.379 . S
C1041 N1039 1.356 . S
N1042 C1034 1.356 . S
N1042 H1048 0.984 . S
N1042 H1049 0.984 . S
N1043 C1036 1.356 . S
N1043 H1046 0.984 . S
N1043 H1047 0.984 1_545 S
H1044 N1039 0.984 . S
H1045 N1039 0.985 . S
H1046 N1043 0.984 . S
H1047 N1043 0.984 1_565 S
H1048 N1042 0.984 . S
H1049 N1042 0.984 . S
H1050 N1038 0.984 . S
H1051 N1038 0.985 . S
C1052 C1053 1.363 . S
C1052 C1058 1.379 . S
C1052 N1060 1.356 . S
C1053 C1052 1.363 . S
C1053 C1059 1.363 . S
C1054 C1055 1.363 . S
C1054 C1059 1.379 . S
C1054 N1061 1.356 . S
C1055 C1054 1.363 . S
C1055 C1058 1.363 . S
N1056 C1058 1.356 . S
N1056 H1068 0.984 . S
N1056 H1069 0.985 . S
N1057 C1059 1.356 . S
N1057 H1062 0.984 . S
N1057 H1063 0.985 . S
C1058 C1052 1.379 . S
C1058 C1055 1.363 . S
C1058 N1056 1.356 . S
C1059 C1053 1.363 . S
C1059 C1054 1.379 . S
C1059 N1057 1.356 . S
N1060 C1052 1.356 . S
N1060 H1066 0.984 . S
N1060 H1067 0.984 . S
N1061 C1054 1.356 . S
N1061 H1064 0.984 . S
N1061 H1065 0.985 . S
H1062 N1057 0.984 . S
H1063 N1057 0.985 . S
H1064 N1061 0.984 . S
H1065 N1061 0.985 . S
H1066 N1060 0.984 . S
H1067 N1060 0.984 . S
H1068 N1056 0.984 . S
H1069 N1056 0.985 . S
C1070 C1071 1.363 . S
C1070 C1076 1.379 . S
C1070 N1078 1.356 . S
C1071 C1070 1.363 . S
C1071 C1077 1.363 . S
C1072 C1073 1.363 . S
C1072 C1077 1.379 . S
C1072 N1079 1.356 . S
C1073 C1072 1.363 . S
C1073 C1076 1.363 . S
N1074 C1076 1.356 . S
N1074 H1086 0.984 . S
N1074 H1087 0.985 . S
N1075 C1077 1.356 . S
N1075 H1080 0.984 . S
N1075 H1081 0.985 . S
C1076 C1070 1.379 . S
C1076 C1073 1.363 . S
C1076 N1074 1.356 . S
C1077 C1071 1.363 . S
C1077 C1072 1.379 . S
C1077 N1075 1.356 . S
N1078 C1070 1.356 . S
N1078 H1084 0.984 . S
N1078 H1085 0.984 . S
N1079 C1072 1.356 . S
N1079 H1082 0.984 . S
N1079 H1083 0.985 . S
H1080 N1075 0.984 . S
H1081 N1075 0.985 . S
H1082 N1079 0.984 . S
H1083 N1079 0.985 . S
H1084 N1078 0.984 . S
H1085 N1078 0.984 . S
H1086 N1074 0.984 . S
H1087 N1074 0.985 . S
C1088 C1089 1.363 . S
C1088 C1094 1.379 . S
C1088 N1096 1.356 . S
C1089 C1088 1.363 . S
C1089 C1095 1.363 . S
C1090 C1091 1.363 . S
C1090 C1095 1.379 . S
C1090 N1097 1.356 . S
C1091 C1090 1.363 . S
C1091 C1094 1.363 . S
N1092 C1094 1.356 1_655 S
N1092 H1104 0.984 . S
N1092 H1105 0.985 . S
N1093 C1095 1.356 . S
N1093 H1098 0.984 . S
N1093 H1099 0.985 . S
C1094 C1088 1.379 . S
C1094 C1091 1.363 . S
C1094 N1092 1.356 1_455 S
C1095 C1089 1.363 . S
C1095 C1090 1.379 . S
C1095 N1093 1.356 . S
N1096 C1088 1.356 . S
N1096 H1102 0.984 . S
N1096 H1103 0.984 . S
N1097 C1090 1.356 . S
N1097 H1100 0.984 . S
N1097 H1101 0.985 . S
H1098 N1093 0.984 . S
H1099 N1093 0.985 . S
H1100 N1097 0.984 . S
H1101 N1097 0.985 . S
H1102 N1096 0.984 . S
H1103 N1096 0.984 . S
H1104 N1092 0.984 . S
H1105 N1092 0.985 . S
C1106 C1107 1.363 . S
C1106 C1112 1.379 . S
C1106 N1114 1.356 . S
C1107 C1106 1.363 . S
C1107 C1113 1.363 . S
C1108 C1109 1.363 . S
C1108 C1113 1.379 . S
C1108 N1115 1.356 . S
C1109 C1108 1.363 . S
C1109 C1112 1.363 . S
N1110 C1112 1.356 . S
N1110 H1122 0.984 . S
N1110 H1123 0.985 . S
N1111 C1113 1.356 . S
N1111 H1116 0.984 . S
N1111 H1117 0.985 . S
C1112 C1106 1.379 . S
C1112 C1109 1.363 . S
C1112 N1110 1.356 . S
C1113 C1107 1.363 . S
C1113 C1108 1.379 . S
C1113 N1111 1.356 . S
N1114 C1106 1.356 . S
N1114 H1120 0.984 . S
N1114 H1121 0.984 . S
N1115 C1108 1.356 . S
N1115 H1118 0.984 . S
N1115 H1119 0.985 . S
H1116 N1111 0.984 . S
H1117 N1111 0.985 . S
H1118 N1115 0.984 . S
H1119 N1115 0.985 . S
H1120 N1114 0.984 . S
H1121 N1114 0.984 . S
H1122 N1110 0.984 . S
H1123 N1110 0.985 . S
C1124 C1125 1.363 . S
C1124 C1130 1.379 . S
C1124 N1132 1.356 . S
C1125 C1124 1.363 . S
C1125 C1131 1.363 . S
C1126 C1127 1.363 . S
C1126 C1131 1.379 . S
C1126 N1133 1.356 . S
C1127 C1126 1.363 . S
C1127 C1130 1.363 . S
N1128 C1130 1.356 . S
N1128 H1140 0.984 . S
N1128 H1141 0.985 . S
N1129 C1131 1.356 . S
N1129 H1134 0.984 . S
N1129 H1135 0.985 . S
C1130 C1124 1.379 . S
C1130 C1127 1.363 . S
C1130 N1128 1.356 . S
C1131 C1125 1.363 . S
C1131 C1126 1.379 . S
C1131 N1129 1.356 . S
N1132 C1124 1.356 . S
N1132 H1138 0.984 . S
N1132 H1139 0.984 . S
N1133 C1126 1.356 . S
N1133 H1136 0.984 . S
N1133 H1137 0.985 . S
H1134 N1129 0.984 . S
H1135 N1129 0.985 . S
H1136 N1133 0.984 . S
H1137 N1133 0.985 . S
H1138 N1132 0.984 . S
H1139 N1132 0.984 . S
H1140 N1128 0.984 . S
H1141 N1128 0.985 . S
C1142 C1143 1.363 . S
C1142 C1148 1.379 . S
C1142 N1150 1.356 . S
C1143 C1142 1.363 . S
C1143 C1149 1.363 . S
C1144 C1145 1.363 . S
C1144 C1149 1.379 . S
C1144 N1151 1.356 . S
C1145 C1144 1.363 . S
C1145 C1148 1.363 . S
N1146 C1148 1.356 . S
N1146 H1158 0.984 . S
N1146 H1159 0.985 . S
N1147 C1149 1.356 . S
N1147 H1152 0.984 . S
N1147 H1153 0.985 . S
C1148 C1142 1.379 . S
C1148 C1145 1.363 . S
C1148 N1146 1.356 . S
C1149 C1143 1.363 . S
C1149 C1144 1.379 . S
C1149 N1147 1.356 . S
N1150 C1142 1.356 . S
N1150 H1156 0.984 . S
N1150 H1157 0.984 . S
N1151 C1144 1.356 . S
N1151 H1154 0.984 . S
N1151 H1155 0.985 . S
H1152 N1147 0.984 . S
H1153 N1147 0.985 . S
H1154 N1151 0.984 . S
H1155 N1151 0.985 . S
H1156 N1150 0.984 . S
H1157 N1150 0.984 . S
H1158 N1146 0.984 . S
H1159 N1146 0.985 . S
C1160 C1161 1.363 . S
C1160 C1166 1.379 . S
C1160 N1168 1.356 . S
C1161 C1160 1.363 . S
C1161 C1167 1.363 . S
C1162 C1163 1.363 . S
C1162 C1167 1.379 . S
C1162 N1169 1.356 . S
C1163 C1162 1.363 . S
C1163 C1166 1.363 . S
N1164 C1166 1.355 1_655 S
N1164 H1176 0.986 . S
N1164 H1177 0.985 . S
N1165 C1167 1.356 . S
N1165 H1170 0.984 . S
N1165 H1171 0.985 . S
C1166 C1160 1.379 . S
C1166 C1163 1.363 . S
C1166 N1164 1.355 1_455 S
C1167 C1161 1.363 . S
C1167 C1162 1.379 . S
C1167 N1165 1.356 . S
N1168 C1160 1.356 . S
N1168 H1174 0.984 . S
N1168 H1175 0.984 . S
N1169 C1162 1.356 . S
N1169 H1172 0.984 . S
N1169 H1173 0.985 . S
H1170 N1165 0.984 . S
H1171 N1165 0.985 . S
H1172 N1169 0.984 . S
H1173 N1169 0.985 . S
H1174 N1168 0.984 . S
H1175 N1168 0.984 . S
H1176 N1164 0.986 . S
H1177 N1164 0.985 . S
C1178 C1179 1.363 . S
C1178 C1184 1.379 . S
C1178 N1186 1.356 . S
C1179 C1178 1.363 . S
C1179 C1185 1.363 . S
C1180 C1181 1.363 . S
C1180 C1185 1.379 . S
C1180 N1187 1.356 . S
C1181 C1180 1.363 . S
C1181 C1184 1.363 . S
N1182 C1184 1.356 . S
N1182 H1194 0.984 . S
N1182 H1195 0.985 . S
N1183 C1185 1.356 . S
N1183 H1188 0.984 . S
N1183 H1189 0.985 . S
C1184 C1178 1.379 . S
C1184 C1181 1.363 . S
C1184 N1182 1.356 . S
C1185 C1179 1.363 . S
C1185 C1180 1.379 . S
C1185 N1183 1.356 . S
N1186 C1178 1.356 . S
N1186 H1192 0.984 . S
N1186 H1193 0.984 . S
N1187 C1180 1.356 . S
N1187 H1190 0.984 . S
N1187 H1191 0.985 . S
H1188 N1183 0.984 . S
H1189 N1183 0.985 . S
H1190 N1187 0.984 . S
H1191 N1187 0.985 . S
H1192 N1186 0.984 . S
H1193 N1186 0.984 . S
H1194 N1182 0.984 . S
H1195 N1182 0.985 . S
C1196 C1197 1.363 . S
C1196 C1202 1.379 . S
C1196 N1204 1.356 . S
C1197 C1196 1.363 . S
C1197 C1203 1.363 . S
C1198 C1199 1.363 . S
C1198 C1203 1.379 . S
C1198 N1205 1.356 1_556 S
C1199 C1198 1.363 . S
C1199 C1202 1.363 . S
N1200 C1202 1.356 . S
N1200 H1212 0.984 . S
N1200 H1213 0.985 1_556 S
N1201 C1203 1.356 . S
N1201 H1206 0.984 . S
N1201 H1207 0.985 . S
C1202 C1196 1.379 . S
C1202 C1199 1.363 . S
C1202 N1200 1.356 . S
C1203 C1197 1.363 . S
C1203 C1198 1.379 . S
C1203 N1201 1.356 . S
N1204 C1196 1.356 . S
N1204 H1210 0.984 . S
N1204 H1211 0.984 . S
N1205 C1198 1.356 1_554 S
N1205 H1208 0.984 . S
N1205 H1209 0.985 . S
H1206 N1201 0.984 . S
H1207 N1201 0.985 . S
H1208 N1205 0.984 . S
H1209 N1205 0.985 . S
H1210 N1204 0.984 . S
H1211 N1204 0.984 . S
H1212 N1200 0.984 . S
H1213 N1200 0.985 1_554 S
C1214 C1215 1.363 . S
C1214 C1220 1.379 . S
C1214 N1222 1.356 . S
C1215 C1214 1.363 . S
C1215 C1221 1.363 . S
C1216 C1217 1.363 . S
C1216 C1221 1.379 . S
C1216 N1223 1.356 . S
C1217 C1216 1.363 . S
C1217 C1220 1.363 . S
N1218 C1220 1.356 . S
N1218 H1230 0.984 . S
N1218 H1231 0.985 . S
N1219 C1221 1.356 . S
N1219 H1224 0.984 . S
N1219 H1225 0.985 . S
C1220 C1214 1.379 . S
C1220 C1217 1.363 . S
C1220 N1218 1.356 . S
C1221 C1215 1.363 . S
C1221 C1216 1.379 . S
C1221 N1219 1.356 . S
N1222 C1214 1.356 . S
N1222 H1228 0.984 . S
N1222 H1229 0.984 . S
N1223 C1216 1.356 . S
N1223 H1226 0.984 . S
N1223 H1227 0.985 . S
H1224 N1219 0.984 . S
H1225 N1219 0.985 . S
H1226 N1223 0.984 . S
H1227 N1223 0.985 . S
H1228 N1222 0.984 . S
H1229 N1222 0.984 . S
H1230 N1218 0.984 . S
H1231 N1218 0.985 . S
C1232 C1233 1.363 . S
C1232 C1238 1.379 . S
C1232 N1240 1.356 . S
C1233 C1232 1.363 . S
C1233 C1239 1.363 1_545 S
C1234 C1235 1.363 1_565 S
C1234 C1239 1.379 . S
C1234 N1241 1.356 . S
C1235 C1234 1.363 1_545 S
C1235 C1238 1.363 . S
N1236 C1238 1.356 . S
N1236 H1248 0.984 . S
N1236 H1249 0.985 . S
N1237 C1239 1.356 . S
N1237 H1242 0.984 . S
N1237 H1243 0.985 . S
C1238 C1232 1.379 . S
C1238 C1235 1.363 . S
C1238 N1236 1.356 . S
C1239 C1233 1.363 1_565 S
C1239 C1234 1.379 . S
C1239 N1237 1.356 . S
N1240 C1232 1.356 . S
N1240 H1246 0.984 . S
N1240 H1247 0.984 . S
N1241 C1234 1.356 . S
N1241 H1244 0.984 . S
N1241 H1245 0.985 . S
H1242 N1237 0.984 . S
H1243 N1237 0.985 . S
H1244 N1241 0.984 . S
H1245 N1241 0.985 . S
H1246 N1240 0.984 . S
H1247 N1240 0.984 . S
H1248 N1236 0.984 . S
H1249 N1236 0.985 . S
C1250 C1251 1.363 . S
C1250 C1256 1.379 . S
C1250 N1258 1.356 . S
C1251 C1250 1.363 . S
C1251 C1257 1.363 . S
C1252 C1253 1.363 . S
C1252 C1257 1.379 . S
C1252 N1259 1.356 . S
C1253 C1252 1.363 . S
C1253 C1256 1.363 . S
N1254 C1256 1.356 . S
N1254 H1266 0.984 . S
N1254 H1267 0.985 . S
N1255 C1257 1.356 . S
N1255 H1260 0.984 . S
N1255 H1261 0.985 . S
C1256 C1250 1.379 . S
C1256 C1253 1.363 . S
C1256 N1254 1.356 . S
C1257 C1251 1.363 . S
C1257 C1252 1.379 . S
C1257 N1255 1.356 . S
N1258 C1250 1.356 . S
N1258 H1264 0.984 . S
N1258 H1265 0.984 . S
N1259 C1252 1.356 . S
N1259 H1262 0.984 . S
N1259 H1263 0.985 . S
H1260 N1255 0.984 . S
H1261 N1255 0.985 . S
H1262 N1259 0.984 . S
H1263 N1259 0.985 . S
H1264 N1258 0.984 . S
H1265 N1258 0.984 . S
H1266 N1254 0.984 . S
H1267 N1254 0.985 . S
C1268 C1269 1.363 . S
C1268 C1274 1.379 . S
C1268 N1276 1.356 1_545 S
C1269 C1268 1.363 . S
C1269 C1275 1.363 . S
C1270 C1271 1.363 . S
C1270 C1275 1.379 . S
C1270 N1277 1.356 . S
C1271 C1270 1.363 . S
C1271 C1274 1.363 . S
N1272 C1274 1.356 1_565 S
N1272 H1284 0.984 . S
N1272 H1285 0.985 . S
N1273 C1275 1.356 . S
N1273 H1278 0.984 . S
N1273 H1279 0.985 . S
C1274 C1268 1.379 . S
C1274 C1271 1.363 . S
C1274 N1272 1.356 1_545 S
C1275 C1269 1.363 . S
C1275 C1270 1.379 . S
C1275 N1273 1.356 . S
N1276 C1268 1.356 1_565 S
N1276 H1282 0.984 . S
N1276 H1283 0.984 . S
N1277 C1270 1.356 . S
N1277 H1280 0.984 . S
N1277 H1281 0.985 . S
H1278 N1273 0.984 . S
H1279 N1273 0.985 . S
H1280 N1277 0.984 . S
H1281 N1277 0.985 . S
H1282 N1276 0.984 . S
H1283 N1276 0.984 . S
H1284 N1272 0.984 . S
H1285 N1272 0.985 . S
C1286 C1287 1.363 . S
C1286 C1292 1.379 . S
C1286 N1294 1.356 . S
C1287 C1286 1.363 . S
C1287 C1293 1.363 . S
C1288 C1289 1.363 . S
C1288 C1293 1.379 . S
C1288 N1295 1.356 . S
C1289 C1288 1.363 . S
C1289 C1292 1.363 . S
N1290 C1292 1.356 . S
N1290 H1302 0.984 . S
N1290 H1303 0.985 . S
N1291 C1293 1.356 . S
N1291 H1296 0.984 . S
N1291 H1297 0.985 . S
C1292 C1286 1.379 . S
C1292 C1289 1.363 . S
C1292 N1290 1.356 . S
C1293 C1287 1.363 . S
C1293 C1288 1.379 . S
C1293 N1291 1.356 . S
N1294 C1286 1.356 . S
N1294 H1300 0.984 . S
N1294 H1301 0.984 . S
N1295 C1288 1.356 . S
N1295 H1298 0.984 . S
N1295 H1299 0.985 . S
H1296 N1291 0.984 . S
H1297 N1291 0.985 . S
H1298 N1295 0.984 . S
H1299 N1295 0.985 . S
H1300 N1294 0.984 . S
H1301 N1294 0.984 . S
H1302 N1290 0.984 . S
H1303 N1290 0.985 . S
C1304 C1305 1.363 . S
C1304 C1310 1.379 . S
C1304 N1312 1.356 . S
C1305 C1304 1.363 . S
C1305 C1311 1.363 1_545 S
C1306 C1307 1.363 1_565 S
C1306 C1311 1.379 . S
C1306 N1313 1.356 . S
C1307 C1306 1.363 1_545 S
C1307 C1310 1.363 . S
N1308 C1310 1.356 . S
N1308 H1320 0.984 . S
N1308 H1321 0.985 . S
N1309 C1311 1.356 . S
N1309 H1314 0.984 . S
N1309 H1315 0.985 . S
C1310 C1304 1.379 . S
C1310 C1307 1.363 . S
C1310 N1308 1.356 . S
C1311 C1305 1.363 1_565 S
C1311 C1306 1.379 . S
C1311 N1309 1.356 . S
N1312 C1304 1.356 . S
N1312 H1318 0.984 . S
N1312 H1319 0.984 . S
N1313 C1306 1.356 . S
N1313 H1316 0.984 . S
N1313 H1317 0.985 . S
H1314 N1309 0.984 . S
H1315 N1309 0.985 . S
H1316 N1313 0.984 . S
H1317 N1313 0.985 . S
H1318 N1312 0.984 . S
H1319 N1312 0.984 . S
H1320 N1308 0.984 . S
H1321 N1308 0.985 . S
C1322 C1323 1.363 . S
C1322 C1328 1.379 . S
C1322 N1330 1.356 . S
C1323 C1322 1.363 . S
C1323 C1329 1.363 . S
C1324 C1325 1.363 . S
C1324 C1329 1.379 . S
C1324 N1331 1.356 . S
C1325 C1324 1.363 . S
C1325 C1328 1.363 . S
N1326 C1328 1.356 . S
N1326 H1338 0.984 . S
N1326 H1339 0.985 . S
N1327 C1329 1.356 . S
N1327 H1332 0.984 . S
N1327 H1333 0.985 . S
C1328 C1322 1.379 . S
C1328 C1325 1.363 . S
C1328 N1326 1.356 . S
C1329 C1323 1.363 . S
C1329 C1324 1.379 . S
C1329 N1327 1.356 . S
N1330 C1322 1.356 . S
N1330 H1336 0.984 . S
N1330 H1337 0.984 . S
N1331 C1324 1.356 . S
N1331 H1334 0.984 . S
N1331 H1335 0.985 . S
H1332 N1327 0.984 . S
H1333 N1327 0.985 . S
H1334 N1331 0.984 . S
H1335 N1331 0.985 . S
H1336 N1330 0.984 . S
H1337 N1330 0.984 . S
H1338 N1326 0.984 . S
H1339 N1326 0.985 . S
C1340 C1341 1.363 . S
C1340 C1346 1.379 . S
C1340 N1348 1.356 . S
C1341 C1340 1.363 . S
C1341 C1347 1.361 . S
C1342 C1343 1.351 1_565 S
C1342 C1347 1.380 1_565 S
C1342 N1349 1.356 . S
C1343 C1342 1.351 1_545 S
C1343 C1346 1.384 . S
N1344 C1346 1.356 . S
N1344 H1356 0.984 . S
N1344 H1357 0.985 . S
N1345 C1347 1.357 1_565 S
N1345 H1350 0.984 1_565 S
N1345 H1351 0.985 . S
C1346 C1340 1.379 . S
C1346 C1343 1.384 . S
C1346 N1344 1.356 . S
C1347 C1341 1.361 . S
C1347 C1342 1.380 1_545 S
C1347 N1345 1.357 1_545 S
N1348 C1340 1.356 . S
N1348 H1354 0.984 . S
N1348 H1355 0.984 . S
N1349 C1342 1.356 . S
N1349 H1352 0.984 . S
N1349 H1353 0.985 . S
H1350 N1345 0.984 1_545 S
H1351 N1345 0.985 . S
H1352 N1349 0.984 . S
H1353 N1349 0.985 . S
H1354 N1348 0.984 . S
H1355 N1348 0.984 . S
H1356 N1344 0.984 . S
H1357 N1344 0.985 . S
C1358 C1359 1.363 . S
C1358 C1364 1.379 . S
C1358 N1366 1.356 . S
C1359 C1358 1.363 . S
C1359 C1365 1.363 . S
C1360 C1361 1.363 . S
C1360 C1365 1.379 . S
C1360 N1367 1.356 . S
C1361 C1360 1.363 . S
C1361 C1364 1.363 . S
N1362 C1364 1.356 . S
N1362 H1374 0.984 . S
N1362 H1375 0.985 . S
N1363 C1365 1.356 . S
N1363 H1368 0.984 . S
N1363 H1369 0.985 . S
C1364 C1358 1.379 . S
C1364 C1361 1.363 . S
C1364 N1362 1.356 . S
C1365 C1359 1.363 . S
C1365 C1360 1.379 . S
C1365 N1363 1.356 . S
N1366 C1358 1.356 . S
N1366 H1372 0.984 . S
N1366 H1373 0.984 . S
N1367 C1360 1.356 . S
N1367 H1370 0.984 . S
N1367 H1371 0.985 . S
H1368 N1363 0.984 . S
H1369 N1363 0.985 . S
H1370 N1367 0.984 . S
H1371 N1367 0.985 . S
H1372 N1366 0.984 . S
H1373 N1366 0.984 . S
H1374 N1362 0.984 . S
H1375 N1362 0.985 . S
C1376 C1377 1.363 . S
C1376 C1382 1.379 . S
C1376 N1384 1.356 . S
C1377 C1376 1.363 . S
C1377 C1383 1.363 . S
C1378 C1379 1.363 . S
C1378 C1383 1.379 . S
C1378 N1385 1.356 1_554 S
C1379 C1378 1.363 . S
C1379 C1382 1.363 . S
N1380 C1382 1.356 . S
N1380 H1392 0.984 . S
N1380 H1393 0.985 . S
N1381 C1383 1.356 . S
N1381 H1386 0.984 . S
N1381 H1387 0.985 . S
C1382 C1376 1.379 . S
C1382 C1379 1.363 . S
C1382 N1380 1.356 . S
C1383 C1377 1.363 . S
C1383 C1378 1.379 . S
C1383 N1381 1.356 . S
N1384 C1376 1.356 . S
N1384 H1390 0.984 . S
N1384 H1391 0.984 . S
N1385 C1378 1.356 1_556 S
N1385 H1388 0.984 . S
N1385 H1389 0.985 . S
H1386 N1381 0.984 . S
H1387 N1381 0.985 . S
H1388 N1385 0.984 . S
H1389 N1385 0.985 . S
H1390 N1384 0.984 . S
H1391 N1384 0.984 . S
H1392 N1380 0.984 . S
H1393 N1380 0.985 . S
C1394 C1395 1.363 . S
C1394 C1400 1.379 . S
C1394 N1402 1.356 . S
C1395 C1394 1.363 . S
C1395 C1401 1.363 . S
C1396 C1397 1.363 . S
C1396 C1401 1.379 . S
C1396 N1403 1.356 . S
C1397 C1396 1.363 . S
C1397 C1400 1.363 . S
N1398 C1400 1.356 . S
N1398 H1410 0.984 . S
N1398 H1411 0.985 . S
N1399 C1401 1.356 . S
N1399 H1404 0.984 . S
N1399 H1405 0.985 . S
C1400 C1394 1.379 . S
C1400 C1397 1.363 . S
C1400 N1398 1.356 . S
C1401 C1395 1.363 . S
C1401 C1396 1.379 . S
C1401 N1399 1.356 . S
N1402 C1394 1.356 . S
N1402 H1408 0.984 . S
N1402 H1409 0.984 . S
N1403 C1396 1.356 . S
N1403 H1406 0.984 . S
N1403 H1407 0.985 . S
H1404 N1399 0.984 . S
H1405 N1399 0.985 . S
H1406 N1403 0.984 . S
H1407 N1403 0.985 . S
H1408 N1402 0.984 . S
H1409 N1402 0.984 . S
H1410 N1398 0.984 . S
H1411 N1398 0.985 . S
C1412 C1413 1.363 . S
C1412 C1418 1.379 . S
C1412 N1420 1.356 . S
C1413 C1412 1.363 . S
C1413 C1419 1.363 . S
C1414 C1415 1.363 . S
C1414 C1419 1.379 . S
C1414 N1421 1.356 . S
C1415 C1414 1.363 . S
C1415 C1418 1.363 . S
N1416 C1418 1.356 . S
N1416 H1428 0.984 . S
N1416 H1429 0.985 . S
N1417 C1419 1.356 . S
N1417 H1422 0.984 . S
N1417 H1423 0.985 . S
C1418 C1412 1.379 . S
C1418 C1415 1.363 . S
C1418 N1416 1.356 . S
C1419 C1413 1.363 . S
C1419 C1414 1.379 . S
C1419 N1417 1.356 . S
N1420 C1412 1.356 . S
N1420 H1426 0.984 . S
N1420 H1427 0.984 . S
N1421 C1414 1.356 . S
N1421 H1424 0.984 . S
N1421 H1425 0.985 . S
H1422 N1417 0.984 . S
H1423 N1417 0.985 . S
H1424 N1421 0.984 . S
H1425 N1421 0.985 . S
H1426 N1420 0.984 . S
H1427 N1420 0.984 . S
H1428 N1416 0.984 . S
H1429 N1416 0.985 . S
C1430 C1431 1.363 . S
C1430 C1436 1.379 . S
C1430 N1438 1.356 . S
C1431 C1430 1.363 . S
C1431 C1437 1.363 . S
C1432 C1433 1.363 . S
C1432 C1437 1.379 . S
C1432 N1439 1.356 . S
C1433 C1432 1.363 . S
C1433 C1436 1.363 . S
N1434 C1436 1.356 . S
N1434 H1446 0.984 . S
N1434 H1447 0.985 . S
N1435 C1437 1.356 . S
N1435 H1440 0.984 . S
N1435 H1441 0.985 . S
C1436 C1430 1.379 . S
C1436 C1433 1.363 . S
C1436 N1434 1.356 . S
C1437 C1431 1.363 . S
C1437 C1432 1.379 . S
C1437 N1435 1.356 . S
N1438 C1430 1.356 . S
N1438 H1444 0.984 . S
N1438 H1445 0.984 . S
N1439 C1432 1.356 . S
N1439 H1442 0.984 . S
N1439 H1443 0.985 . S
H1440 N1435 0.984 . S
H1441 N1435 0.985 . S
H1442 N1439 0.984 . S
H1443 N1439 0.985 . S
H1444 N1438 0.984 . S
H1445 N1438 0.984 . S
H1446 N1434 0.984 . S
H1447 N1434 0.985 . S
C1448 C1449 1.363 . S
C1448 C1454 1.379 . S
C1448 N1456 1.356 . S
C1449 C1448 1.363 . S
C1449 C1455 1.363 . S
C1450 C1451 1.363 . S
C1450 C1455 1.379 . S
C1450 N1457 1.356 . S
C1451 C1450 1.363 . S
C1451 C1454 1.363 . S
N1452 C1454 1.356 . S
N1452 H1464 0.984 . S
N1452 H1465 0.985 . S
N1453 C1455 1.356 . S
N1453 H1458 0.984 . S
N1453 H1459 0.985 . S
C1454 C1448 1.379 . S
C1454 C1451 1.363 . S
C1454 N1452 1.356 . S
C1455 C1449 1.363 . S
C1455 C1450 1.379 . S
C1455 N1453 1.356 . S
N1456 C1448 1.356 . S
N1456 H1462 0.984 . S
N1456 H1463 0.984 . S
N1457 C1450 1.356 . S
N1457 H1460 0.984 . S
N1457 H1461 0.985 . S
H1458 N1453 0.984 . S
H1459 N1453 0.985 . S
H1460 N1457 0.984 . S
H1461 N1457 0.985 . S
H1462 N1456 0.984 . S
H1463 N1456 0.984 . S
H1464 N1452 0.984 . S
H1465 N1452 0.985 . S
C1466 C1467 1.363 . S
C1466 C1472 1.379 . S
C1466 N1474 1.356 . S
C1467 C1466 1.363 . S
C1467 C1473 1.363 . S
C1468 C1469 1.363 . S
C1468 C1473 1.379 . S
C1468 N1475 1.356 . S
C1469 C1468 1.363 . S
C1469 C1472 1.363 . S
N1470 C1472 1.356 . S
N1470 H1482 0.984 . S
N1470 H1483 0.985 . S
N1471 C1473 1.356 . S
N1471 H1476 0.984 . S
N1471 H1477 0.985 . S
C1472 C1466 1.379 . S
C1472 C1469 1.363 . S
C1472 N1470 1.356 . S
C1473 C1467 1.363 . S
C1473 C1468 1.379 . S
C1473 N1471 1.356 . S
N1474 C1466 1.356 . S
N1474 H1480 0.984 . S
N1474 H1481 0.984 . S
N1475 C1468 1.356 . S
N1475 H1478 0.984 . S
N1475 H1479 0.985 . S
H1476 N1471 0.984 . S
H1477 N1471 0.985 . S
H1478 N1475 0.984 . S
H1479 N1475 0.985 . S
H1480 N1474 0.984 . S
H1481 N1474 0.984 . S
H1482 N1470 0.984 . S
H1483 N1470 0.985 . S
C1484 C1485 1.363 . S
C1484 C1490 1.379 . S
C1484 N1492 1.356 . S
C1485 C1484 1.363 . S
C1485 C1491 1.363 . S
C1486 C1487 1.363 . S
C1486 C1491 1.379 . S
C1486 N1493 1.356 . S
C1487 C1486 1.363 . S
C1487 C1490 1.363 . S
N1488 C1490 1.356 . S
N1488 H1500 0.984 . S
N1488 H1501 0.985 . S
N1489 C1491 1.356 . S
N1489 H1494 0.984 . S
N1489 H1495 0.985 . S
C1490 C1484 1.379 . S
C1490 C1487 1.363 . S
C1490 N1488 1.356 . S
C1491 C1485 1.363 . S
C1491 C1486 1.379 . S
C1491 N1489 1.356 . S
N1492 C1484 1.356 . S
N1492 H1498 0.984 . S
N1492 H1499 0.984 . S
N1493 C1486 1.356 . S
N1493 H1496 0.984 . S
N1493 H1497 0.985 . S
H1494 N1489 0.984 . S
H1495 N1489 0.985 . S
H1496 N1493 0.984 . S
H1497 N1493 0.985 . S
H1498 N1492 0.984 . S
H1499 N1492 0.984 . S
H1500 N1488 0.984 . S
H1501 N1488 0.985 . S
C1502 C1503 1.363 . S
C1502 C1508 1.379 . S
C1502 N1510 1.356 . S
C1503 C1502 1.363 . S
C1503 C1509 1.363 . S
C1504 C1505 1.363 . S
C1504 C1509 1.379 . S
C1504 N1511 1.356 . S
C1505 C1504 1.363 . S
C1505 C1508 1.363 . S
N1506 C1508 1.356 . S
N1506 H1518 0.984 . S
N1506 H1519 0.985 . S
N1507 C1509 1.356 . S
N1507 H1512 0.984 . S
N1507 H1513 0.985 . S
C1508 C1502 1.379 . S
C1508 C1505 1.363 . S
C1508 N1506 1.356 . S
C1509 C1503 1.363 . S
C1509 C1504 1.379 . S
C1509 N1507 1.356 . S
N1510 C1502 1.356 . S
N1510 H1516 0.984 . S
N1510 H1517 0.984 . S
N1511 C1504 1.356 . S
N1511 H1514 0.984 . S
N1511 H1515 0.985 . S
H1512 N1507 0.984 . S
H1513 N1507 0.985 . S
H1514 N1511 0.984 . S
H1515 N1511 0.985 . S
H1516 N1510 0.984 . S
H1517 N1510 0.984 . S
H1518 N1506 0.984 . S
H1519 N1506 0.985 . S
C1520 C1521 1.363 . S
C1520 C1526 1.379 . S
C1520 N1528 1.356 . S
C1521 C1520 1.363 . S
C1521 C1527 1.363 . S
C1522 C1523 1.363 . S
C1522 C1527 1.379 . S
C1522 N1529 1.356 . S
C1523 C1522 1.363 . S
C1523 C1526 1.363 . S
N1524 C1526 1.356 . S
N1524 H1536 0.984 . S
N1524 H1537 0.985 . S
N1525 C1527 1.356 . S
N1525 H1530 0.984 . S
N1525 H1531 0.985 . S
C1526 C1520 1.379 . S
C1526 C1523 1.363 . S
C1526 N1524 1.356 . S
C1527 C1521 1.363 . S
C1527 C1522 1.379 . S
C1527 N1525 1.356 . S
N1528 C1520 1.356 . S
N1528 H1534 0.984 . S
N1528 H1535 0.984 . S
N1529 C1522 1.356 . S
N1529 H1532 0.984 . S
N1529 H1533 0.985 . S
H1530 N1525 0.984 . S
H1531 N1525 0.985 . S
H1532 N1529 0.984 . S
H1533 N1529 0.985 . S
H1534 N1528 0.984 . S
H1535 N1528 0.984 . S
H1536 N1524 0.984 . S
H1537 N1524 0.985 . S
C1538 C1539 1.363 . S
C1538 C1544 1.379 . S
C1538 N1546 1.356 . S
C1539 C1538 1.363 . S
C1539 C1545 1.363 . S
C1540 C1541 1.363 . S
C1540 C1545 1.379 . S
C1540 N1547 1.356 . S
C1541 C1540 1.363 . S
C1541 C1544 1.363 . S
N1542 C1544 1.356 . S
N1542 H1554 0.984 . S
N1542 H1555 0.985 . S
N1543 C1545 1.356 . S
N1543 H1548 0.984 . S
N1543 H1549 0.985 . S
C1544 C1538 1.379 . S
C1544 C1541 1.363 . S
C1544 N1542 1.356 . S
C1545 C1539 1.363 . S
C1545 C1540 1.379 . S
C1545 N1543 1.356 . S
N1546 C1538 1.356 . S
N1546 H1552 0.984 . S
N1546 H1553 0.984 . S
N1547 C1540 1.356 . S
N1547 H1550 0.984 . S
N1547 H1551 0.985 . S
H1548 N1543 0.984 . S
H1549 N1543 0.985 . S
H1550 N1547 0.984 . S
H1551 N1547 0.985 . S
H1552 N1546 0.984 . S
H1553 N1546 0.984 . S
H1554 N1542 0.984 . S
H1555 N1542 0.985 . S
C1556 C1557 1.363 1_655 S
C1556 C1562 1.379 . S
C1556 N1564 1.356 . S
C1557 C1556 1.363 1_455 S
C1557 C1563 1.363 . S
C1558 C1559 1.363 . S
C1558 C1563 1.379 . S
C1558 N1565 1.356 . S
C1559 C1558 1.363 . S
C1559 C1562 1.363 1_455 S
N1560 C1562 1.356 1_554 S
N1560 H1572 0.984 . S
N1560 H1573 0.985 . S
N1561 C1563 1.356 . S
N1561 H1566 0.984 . S
N1561 H1567 0.985 . S
C1562 C1556 1.379 . S
C1562 C1559 1.363 1_655 S
C1562 N1560 1.356 1_556 S
C1563 C1557 1.363 . S
C1563 C1558 1.379 . S
C1563 N1561 1.356 . S
N1564 C1556 1.356 . S
N1564 H1570 0.984 . S
N1564 H1571 0.984 . S
N1565 C1558 1.356 . S
N1565 H1568 0.984 . S
N1565 H1569 0.985 . S
H1566 N1561 0.984 . S
H1567 N1561 0.985 . S
H1568 N1565 0.984 . S
H1569 N1565 0.985 . S
H1570 N1564 0.984 . S
H1571 N1564 0.984 . S
H1572 N1560 0.984 . S
H1573 N1560 0.985 . S
C1574 C1575 1.363 . S
C1574 C1580 1.379 . S
C1574 N1582 1.356 . S
C1575 C1574 1.363 . S
C1575 C1581 1.363 . S
C1576 C1577 1.363 . S
C1576 C1581 1.379 . S
C1576 N1583 1.356 . S
C1577 C1576 1.363 . S
C1577 C1580 1.363 . S
N1578 C1580 1.356 . S
N1578 H1590 0.984 . S
N1578 H1591 0.985 . S
N1579 C1581 1.356 . S
N1579 H1584 0.984 . S
N1579 H1585 0.985 . S
C1580 C1574 1.379 . S
C1580 C1577 1.363 . S
C1580 N1578 1.356 . S
C1581 C1575 1.363 . S
C1581 C1576 1.379 . S
C1581 N1579 1.356 . S
N1582 C1574 1.356 . S
N1582 H1588 0.984 . S
N1582 H1589 0.984 . S
N1583 C1576 1.356 . S
N1583 H1586 0.984 . S
N1583 H1587 0.985 . S
H1584 N1579 0.984 . S
H1585 N1579 0.985 . S
H1586 N1583 0.984 . S
H1587 N1583 0.985 . S
H1588 N1582 0.984 . S
H1589 N1582 0.984 . S
H1590 N1578 0.984 . S
H1591 N1578 0.985 . S
C1592 C1593 1.363 . S
C1592 C1598 1.379 . S
C1592 N1600 1.356 . S
C1593 C1592 1.363 . S
C1593 C1599 1.363 . S
C1594 C1595 1.363 . S
C1594 C1599 1.379 . S
C1594 N1601 1.356 . S
C1595 C1594 1.363 . S
C1595 C1598 1.363 . S
N1596 C1598 1.356 . S
N1596 H1608 0.984 . S
N1596 H1609 0.985 . S
N1597 C1599 1.356 . S
N1597 H1602 0.984 . S
N1597 H1603 0.985 . S
C1598 C1592 1.379 . S
C1598 C1595 1.363 . S
C1598 N1596 1.356 . S
C1599 C1593 1.363 . S
C1599 C1594 1.379 . S
C1599 N1597 1.356 . S
N1600 C1592 1.356 . S
N1600 H1606 0.984 . S
N1600 H1607 0.984 . S
N1601 C1594 1.356 . S
N1601 H1604 0.984 . S
N1601 H1605 0.985 . S
H1602 N1597 0.984 . S
H1603 N1597 0.985 . S
H1604 N1601 0.984 . S
H1605 N1601 0.985 . S
H1606 N1600 0.984 . S
H1607 N1600 0.984 . S
H1608 N1596 0.984 . S
H1609 N1596 0.985 . S
C1610 C1611 1.363 . S
C1610 C1616 1.379 . S
C1610 N1618 1.356 . S
C1611 C1610 1.363 . S
C1611 C1617 1.363 . S
C1612 C1613 1.363 . S
C1612 C1617 1.379 . S
C1612 N1619 1.356 . S
C1613 C1612 1.363 . S
C1613 C1616 1.363 . S
N1614 C1616 1.356 . S
N1614 H1626 0.984 . S
N1614 H1627 0.985 . S
N1615 C1617 1.356 . S
N1615 H1620 0.984 . S
N1615 H1621 0.985 . S
C1616 C1610 1.379 . S
C1616 C1613 1.363 . S
C1616 N1614 1.356 . S
C1617 C1611 1.363 . S
C1617 C1612 1.379 . S
C1617 N1615 1.356 . S
N1618 C1610 1.356 . S
N1618 H1624 0.984 . S
N1618 H1625 0.984 . S
N1619 C1612 1.356 . S
N1619 H1622 0.984 . S
N1619 H1623 0.985 . S
H1620 N1615 0.984 . S
H1621 N1615 0.985 . S
H1622 N1619 0.984 . S
H1623 N1619 0.985 . S
H1624 N1618 0.984 . S
H1625 N1618 0.984 . S
H1626 N1614 0.984 . S
H1627 N1614 0.985 . S
C1628 C1629 1.363 1_655 S
C1628 C1634 1.379 . S
C1628 N1636 1.356 . S
C1629 C1628 1.363 1_455 S
C1629 C1635 1.363 . S
C1630 C1631 1.363 . S
C1630 C1635 1.379 . S
C1630 N1637 1.356 . S
C1631 C1630 1.363 . S
C1631 C1634 1.363 1_455 S
N1632 C1634 1.356 . S
N1632 H1644 0.984 . S
N1632 H1645 0.985 . S
N1633 C1635 1.356 . S
N1633 H1638 0.984 . S
N1633 H1639 0.985 . S
C1634 C1628 1.379 . S
C1634 C1631 1.363 1_655 S
C1634 N1632 1.356 . S
C1635 C1629 1.363 . S
C1635 C1630 1.379 . S
C1635 N1633 1.356 . S
N1636 C1628 1.356 . S
N1636 H1642 0.984 . S
N1636 H1643 0.984 . S
N1637 C1630 1.356 . S
N1637 H1640 0.984 . S
N1637 H1641 0.985 . S
H1638 N1633 0.984 . S
H1639 N1633 0.985 . S
H1640 N1637 0.984 . S
H1641 N1637 0.985 . S
H1642 N1636 0.984 . S
H1643 N1636 0.984 . S
H1644 N1632 0.984 . S
H1645 N1632 0.985 . S
C1646 C1647 1.363 . S
C1646 C1652 1.379 . S
C1646 N1654 1.356 . S
C1647 C1646 1.363 . S
C1647 C1653 1.363 . S
C1648 C1649 1.363 . S
C1648 C1653 1.379 . S
C1648 N1655 1.356 . S
C1649 C1648 1.363 . S
C1649 C1652 1.363 . S
N1650 C1652 1.356 . S
N1650 H1662 0.984 . S
N1650 H1663 0.985 . S
N1651 C1653 1.356 . S
N1651 H1656 0.984 . S
N1651 H1657 0.985 . S
C1652 C1646 1.379 . S
C1652 C1649 1.363 . S
C1652 N1650 1.356 . S
C1653 C1647 1.363 . S
C1653 C1648 1.379 . S
C1653 N1651 1.356 . S
N1654 C1646 1.356 . S
N1654 H1660 0.984 . S
N1654 H1661 0.984 . S
N1655 C1648 1.356 . S
N1655 H1658 0.984 . S
N1655 H1659 0.985 . S
H1656 N1651 0.984 . S
H1657 N1651 0.985 . S
H1658 N1655 0.984 . S
H1659 N1655 0.985 . S
H1660 N1654 0.984 . S
H1661 N1654 0.984 . S
H1662 N1650 0.984 . S
H1663 N1650 0.985 . S
C1664 C1665 1.363 . S
C1664 C1670 1.379 . S
C1664 N1672 1.356 . S
C1665 C1664 1.363 . S
C1665 C1671 1.363 . S
C1666 C1667 1.363 . S
C1666 C1671 1.379 . S
C1666 N1673 1.356 . S
C1667 C1666 1.363 . S
C1667 C1670 1.363 . S
N1668 C1670 1.356 . S
N1668 H1680 0.984 . S
N1668 H1681 0.985 . S
N1669 C1671 1.356 . S
N1669 H1674 0.984 . S
N1669 H1675 0.985 . S
C1670 C1664 1.379 . S
C1670 C1667 1.363 . S
C1670 N1668 1.356 . S
C1671 C1665 1.363 . S
C1671 C1666 1.379 . S
C1671 N1669 1.356 . S
N1672 C1664 1.356 . S
N1672 H1678 0.984 . S
N1672 H1679 0.984 . S
N1673 C1666 1.356 . S
N1673 H1676 0.984 . S
N1673 H1677 0.985 . S
H1674 N1669 0.984 . S
H1675 N1669 0.985 . S
H1676 N1673 0.984 . S
H1677 N1673 0.985 . S
H1678 N1672 0.984 . S
H1679 N1672 0.984 . S
H1680 N1668 0.984 . S
H1681 N1668 0.985 . S
C1682 C1683 1.363 . S
C1682 C1688 1.379 . S
C1682 N1690 1.356 . S
C1683 C1682 1.363 . S
C1683 C1689 1.363 . S
C1684 C1685 1.363 . S
C1684 C1689 1.379 . S
C1684 N1691 1.356 . S
C1685 C1684 1.363 . S
C1685 C1688 1.363 . S
N1686 C1688 1.356 . S
N1686 H1698 0.984 . S
N1686 H1699 0.985 . S
N1687 C1689 1.356 . S
N1687 H1692 0.984 1_556 S
N1687 H1693 0.985 1_556 S
C1688 C1682 1.379 . S
C1688 C1685 1.363 . S
C1688 N1686 1.356 . S
C1689 C1683 1.363 . S
C1689 C1684 1.379 . S
C1689 N1687 1.356 . S
N1690 C1682 1.356 . S
N1690 H1696 0.984 . S
N1690 H1697 0.984 . S
N1691 C1684 1.356 . S
N1691 H1694 0.984 . S
N1691 H1695 0.985 . S
H1692 N1687 0.984 1_554 S
H1693 N1687 0.985 1_554 S
H1694 N1691 0.984 . S
H1695 N1691 0.985 . S
H1696 N1690 0.984 . S
H1697 N1690 0.984 . S
H1698 N1686 0.984 . S
H1699 N1686 0.985 . S
C1700 C1701 1.363 . S
C1700 C1706 1.379 . S
C1700 N1708 1.356 . S
C1701 C1700 1.363 . S
C1701 C1707 1.363 . S
C1702 C1703 1.363 . S
C1702 C1707 1.379 . S
C1702 N1709 1.356 . S
C1703 C1702 1.363 . S
C1703 C1706 1.363 . S
N1704 C1706 1.356 . S
N1704 H1716 0.984 . S
N1704 H1717 0.985 . S
N1705 C1707 1.356 . S
N1705 H1710 0.984 . S
N1705 H1711 0.985 . S
C1706 C1700 1.379 . S
C1706 C1703 1.363 . S
C1706 N1704 1.356 . S
C1707 C1701 1.363 . S
C1707 C1702 1.379 . S
C1707 N1705 1.356 . S
N1708 C1700 1.356 . S
N1708 H1714 0.984 . S
N1708 H1715 0.984 . S
N1709 C1702 1.356 . S
N1709 H1712 0.984 . S
N1709 H1713 0.985 . S
H1710 N1705 0.984 . S
H1711 N1705 0.985 . S
H1712 N1709 0.984 . S
H1713 N1709 0.985 . S
H1714 N1708 0.984 . S
H1715 N1708 0.984 . S
H1716 N1704 0.984 . S
H1717 N1704 0.985 . S
C1718 C1719 1.363 . S
C1718 C1724 1.379 . S
C1718 N1726 1.356 . S
C1719 C1718 1.363 . S
C1719 C1725 1.363 . S
C1720 C1721 1.363 . S
C1720 C1725 1.379 . S
C1720 N1727 1.356 . S
C1721 C1720 1.363 . S
C1721 C1724 1.363 . S
N1722 C1724 1.356 . S
N1722 H1734 0.984 . S
N1722 H1735 0.985 . S
N1723 C1725 1.356 . S
N1723 H1728 0.984 . S
N1723 H1729 0.985 . S
C1724 C1718 1.379 . S
C1724 C1721 1.363 . S
C1724 N1722 1.356 . S
C1725 C1719 1.363 . S
C1725 C1720 1.379 . S
C1725 N1723 1.356 . S
N1726 C1718 1.356 . S
N1726 H1732 0.984 . S
N1726 H1733 0.984 . S
N1727 C1720 1.356 . S
N1727 H1730 0.984 . S
N1727 H1731 0.985 . S
H1728 N1723 0.984 . S
H1729 N1723 0.985 . S
H1730 N1727 0.984 . S
H1731 N1727 0.985 . S
H1732 N1726 0.984 . S
H1733 N1726 0.984 . S
H1734 N1722 0.984 . S
H1735 N1722 0.985 . S
C1736 C1737 1.363 . S
C1736 C1742 1.379 . S
C1736 N1744 1.356 . S
C1737 C1736 1.363 . S
C1737 C1743 1.363 . S
C1738 C1739 1.363 . S
C1738 C1743 1.379 . S
C1738 N1745 1.356 . S
C1739 C1738 1.363 . S
C1739 C1742 1.363 . S
N1740 C1742 1.356 . S
N1740 H1752 0.984 . S
N1740 H1753 0.985 . S
N1741 C1743 1.356 . S
N1741 H1746 0.984 . S
N1741 H1747 0.985 . S
C1742 C1736 1.379 . S
C1742 C1739 1.363 . S
C1742 N1740 1.356 . S
C1743 C1737 1.363 . S
C1743 C1738 1.379 . S
C1743 N1741 1.356 . S
N1744 C1736 1.356 . S
N1744 H1750 0.984 . S
N1744 H1751 0.984 . S
N1745 C1738 1.356 . S
N1745 H1748 0.984 . S
N1745 H1749 0.985 . S
H1746 N1741 0.984 . S
H1747 N1741 0.985 . S
H1748 N1745 0.984 . S
H1749 N1745 0.985 . S
H1750 N1744 0.984 . S
H1751 N1744 0.984 . S
H1752 N1740 0.984 . S
H1753 N1740 0.985 . S
C1754 C1755 1.363 . S
C1754 C1760 1.379 . S
C1754 N1762 1.356 . S
C1755 C1754 1.363 . S
C1755 C1761 1.363 . S
C1756 C1757 1.363 . S
C1756 C1761 1.379 . S
C1756 N1763 1.356 . S
C1757 C1756 1.363 . S
C1757 C1760 1.363 . S
N1758 C1760 1.356 . S
N1758 H1770 0.984 . S
N1758 H1771 0.985 . S
N1759 C1761 1.356 . S
N1759 H1764 0.984 . S
N1759 H1765 0.985 . S
C1760 C1754 1.379 . S
C1760 C1757 1.363 . S
C1760 N1758 1.356 . S
C1761 C1755 1.363 . S
C1761 C1756 1.379 . S
C1761 N1759 1.356 . S
N1762 C1754 1.356 . S
N1762 H1768 0.984 . S
N1762 H1769 0.984 . S
N1763 C1756 1.356 . S
N1763 H1766 0.984 . S
N1763 H1767 0.985 . S
H1764 N1759 0.984 . S
H1765 N1759 0.985 . S
H1766 N1763 0.984 . S
H1767 N1763 0.985 . S
H1768 N1762 0.984 . S
H1769 N1762 0.984 . S
H1770 N1758 0.984 . S
H1771 N1758 0.985 . S
C1772 C1773 1.363 . S
C1772 C1778 1.379 . S
C1772 N1780 1.356 . S
C1773 C1772 1.363 . S
C1773 C1779 1.363 . S
C1774 C1775 1.363 . S
C1774 C1779 1.379 . S
C1774 N1781 1.356 . S
C1775 C1774 1.363 . S
C1775 C1778 1.363 . S
N1776 C1778 1.356 . S
N1776 H1788 0.984 . S
N1776 H1789 0.985 . S
N1777 C1779 1.356 . S
N1777 H1782 0.984 . S
N1777 H1783 0.985 . S
C1778 C1772 1.379 . S
C1778 C1775 1.363 . S
C1778 N1776 1.356 . S
C1779 C1773 1.363 . S
C1779 C1774 1.379 . S
C1779 N1777 1.356 . S
N1780 C1772 1.356 . S
N1780 H1786 0.984 . S
N1780 H1787 0.984 . S
N1781 C1774 1.356 . S
N1781 H1784 0.984 . S
N1781 H1785 0.985 . S
H1782 N1777 0.984 . S
H1783 N1777 0.985 . S
H1784 N1781 0.984 . S
H1785 N1781 0.985 . S
H1786 N1780 0.984 . S
H1787 N1780 0.984 . S
H1788 N1776 0.984 . S
H1789 N1776 0.985 . S
C1790 C1791 1.363 . S
C1790 C1796 1.379 . S
C1790 N1798 1.356 . S
C1791 C1790 1.363 . S
C1791 C1797 1.363 . S
C1792 C1793 1.363 . S
C1792 C1797 1.379 . S
C1792 N1799 1.356 . S
C1793 C1792 1.363 . S
C1793 C1796 1.363 . S
N1794 C1796 1.356 . S
N1794 H1806 0.984 . S
N1794 H1807 0.985 . S
N1795 C1797 1.356 . S
N1795 H1800 0.984 . S
N1795 H1801 0.985 . S
C1796 C1790 1.379 . S
C1796 C1793 1.363 . S
C1796 N1794 1.356 . S
C1797 C1791 1.363 . S
C1797 C1792 1.379 . S
C1797 N1795 1.356 . S
N1798 C1790 1.356 . S
N1798 H1804 0.984 . S
N1798 H1805 0.984 . S
N1799 C1792 1.356 . S
N1799 H1802 0.984 . S
N1799 H1803 0.985 . S
H1800 N1795 0.984 . S
H1801 N1795 0.985 . S
H1802 N1799 0.984 . S
H1803 N1799 0.985 . S
H1804 N1798 0.984 . S
H1805 N1798 0.984 . S
H1806 N1794 0.984 . S
H1807 N1794 0.985 . S
C1808 C1809 1.363 . S
C1808 C1814 1.379 . S
C1808 N1816 1.356 . S
C1809 C1808 1.363 . S
C1809 C1815 1.363 . S
C1810 C1811 1.363 . S
C1810 C1815 1.379 . S
C1810 N1817 1.356 . S
C1811 C1810 1.363 . S
C1811 C1814 1.363 . S
N1812 C1814 1.356 . S
N1812 H1824 0.984 . S
N1812 H1825 0.985 . S
N1813 C1815 1.356 . S
N1813 H1818 0.984 . S
N1813 H1819 0.985 . S
C1814 C1808 1.379 . S
C1814 C1811 1.363 . S
C1814 N1812 1.356 . S
C1815 C1809 1.363 . S
C1815 C1810 1.379 . S
C1815 N1813 1.356 . S
N1816 C1808 1.356 . S
N1816 H1822 0.984 . S
N1816 H1823 0.984 . S
N1817 C1810 1.356 . S
N1817 H1820 0.984 . S
N1817 H1821 0.985 . S
H1818 N1813 0.984 . S
H1819 N1813 0.985 . S
H1820 N1817 0.984 . S
H1821 N1817 0.985 . S
H1822 N1816 0.984 . S
H1823 N1816 0.984 . S
H1824 N1812 0.984 . S
H1825 N1812 0.985 . S
C1826 C1827 1.363 . S
C1826 C1832 1.379 . S
C1826 N1834 1.356 . S
C1827 C1826 1.363 . S
C1827 C1833 1.363 . S
C1828 C1829 1.363 . S
C1828 C1833 1.379 . S
C1828 N1835 1.356 . S
C1829 C1828 1.363 . S
C1829 C1832 1.363 . S
N1830 C1832 1.356 . S
N1830 H1842 0.984 . S
N1830 H1843 0.985 . S
N1831 C1833 1.356 . S
N1831 H1836 0.984 . S
N1831 H1837 0.985 . S
C1832 C1826 1.379 . S
C1832 C1829 1.363 . S
C1832 N1830 1.356 . S
C1833 C1827 1.363 . S
C1833 C1828 1.379 . S
C1833 N1831 1.356 . S
N1834 C1826 1.356 . S
N1834 H1840 0.984 . S
N1834 H1841 0.984 . S
N1835 C1828 1.356 . S
N1835 H1838 0.984 . S
N1835 H1839 0.985 . S
H1836 N1831 0.984 . S
H1837 N1831 0.985 . S
H1838 N1835 0.984 . S
H1839 N1835 0.985 . S
H1840 N1834 0.984 . S
H1841 N1834 0.984 . S
H1842 N1830 0.984 . S
H1843 N1830 0.985 . S
C1844 C1845 1.363 . S
C1844 C1850 1.379 . S
C1844 N1852 1.356 . S
C1845 C1844 1.363 . S
C1845 C1851 1.363 . S
C1846 C1847 1.363 . S
C1846 C1851 1.379 . S
C1846 N1853 1.356 . S
C1847 C1846 1.363 . S
C1847 C1850 1.363 . S
N1848 C1850 1.356 . S
N1848 H1860 0.984 . S
N1848 H1861 0.985 . S
N1849 C1851 1.356 . S
N1849 H1854 0.984 . S
N1849 H1855 0.985 . S
C1850 C1844 1.379 . S
C1850 C1847 1.363 . S
C1850 N1848 1.356 . S
C1851 C1845 1.363 . S
C1851 C1846 1.379 . S
C1851 N1849 1.356 . S
N1852 C1844 1.356 . S
N1852 H1858 0.984 . S
N1852 H1859 0.984 . S
N1853 C1846 1.356 . S
N1853 H1856 0.984 . S
N1853 H1857 0.985 . S
H1854 N1849 0.984 . S
H1855 N1849 0.985 . S
H1856 N1853 0.984 . S
H1857 N1853 0.985 . S
H1858 N1852 0.984 . S
H1859 N1852 0.984 . S
H1860 N1848 0.984 . S
H1861 N1848 0.985 . S
C1862 C1863 1.363 1_556 S
C1862 C1868 1.379 . S
C1862 N1870 1.356 . S
C1863 C1862 1.363 1_554 S
C1863 C1869 1.363 . S
C1864 C1865 1.363 . S
C1864 C1869 1.379 . S
C1864 N1871 1.356 . S
C1865 C1864 1.363 . S
C1865 C1868 1.363 1_554 S
N1866 C1868 1.356 . S
N1866 H1878 0.984 . S
N1866 H1879 0.985 . S
N1867 C1869 1.356 . S
N1867 H1872 0.984 . S
N1867 H1873 0.985 . S
C1868 C1862 1.379 . S
C1868 C1865 1.363 1_556 S
C1868 N1866 1.356 . S
C1869 C1863 1.363 . S
C1869 C1864 1.379 . S
C1869 N1867 1.356 . S
N1870 C1862 1.356 . S
N1870 H1876 0.984 . S
N1870 H1877 0.984 . S
N1871 C1864 1.356 . S
N1871 H1874 0.984 1_565 S
N1871 H1875 0.985 1_565 S
H1872 N1867 0.984 . S
H1873 N1867 0.985 . S
H1874 N1871 0.984 1_545 S
H1875 N1871 0.985 1_545 S
H1876 N1870 0.984 . S
H1877 N1870 0.984 . S
H1878 N1866 0.984 . S
H1879 N1866 0.985 . S
C1880 C1881 1.363 . S
C1880 C1886 1.379 . S
C1880 N1888 1.356 . S
C1881 C1880 1.363 . S
C1881 C1887 1.363 . S
C1882 C1883 1.363 . S
C1882 C1887 1.379 . S
C1882 N1889 1.356 . S
C1883 C1882 1.363 . S
C1883 C1886 1.363 . S
N1884 C1886 1.356 . S
N1884 H1896 0.984 . S
N1884 H1897 0.985 . S
N1885 C1887 1.356 . S
N1885 H1890 0.984 . S
N1885 H1891 0.985 . S
C1886 C1880 1.379 . S
C1886 C1883 1.363 . S
C1886 N1884 1.356 . S
C1887 C1881 1.363 . S
C1887 C1882 1.379 . S
C1887 N1885 1.356 . S
N1888 C1880 1.356 . S
N1888 H1894 0.984 . S
N1888 H1895 0.984 . S
N1889 C1882 1.356 . S
N1889 H1892 0.984 . S
N1889 H1893 0.985 . S
H1890 N1885 0.984 . S
H1891 N1885 0.985 . S
H1892 N1889 0.984 . S
H1893 N1889 0.985 . S
H1894 N1888 0.984 . S
H1895 N1888 0.984 . S
H1896 N1884 0.984 . S
H1897 N1884 0.985 . S
C1898 C1899 1.363 1_556 S
C1898 C1904 1.379 1_556 S
C1898 N1906 1.356 . S
C1899 C1898 1.363 1_554 S
C1899 C1905 1.363 . S
C1900 C1901 1.363 . S
C1900 C1905 1.379 . S
C1900 N1907 1.356 . S
C1901 C1900 1.363 . S
C1901 C1904 1.363 . S
N1902 C1904 1.356 1_556 S
N1902 H1914 0.984 . S
N1902 H1915 0.985 1_556 S
N1903 C1905 1.356 . S
N1903 H1908 0.984 . S
N1903 H1909 0.985 . S
C1904 C1898 1.379 1_554 S
C1904 C1901 1.363 . S
C1904 N1902 1.356 1_554 S
C1905 C1899 1.363 . S
C1905 C1900 1.379 . S
C1905 N1903 1.356 . S
N1906 C1898 1.356 . S
N1906 H1912 0.984 . S
N1906 H1913 0.984 . S
N1907 C1900 1.356 . S
N1907 H1910 0.984 . S
N1907 H1911 0.985 . S
H1908 N1903 0.984 . S
H1909 N1903 0.985 . S
H1910 N1907 0.984 . S
H1911 N1907 0.985 . S
H1912 N1906 0.984 . S
H1913 N1906 0.984 . S
H1914 N1902 0.984 . S
H1915 N1902 0.985 1_554 S
C1916 C1917 1.363 . S
C1916 C1922 1.379 . S
C1916 N1924 1.356 . S
C1917 C1916 1.363 . S
C1917 C1923 1.363 . S
C1918 C1919 1.363 . S
C1918 C1923 1.379 . S
C1918 N1925 1.356 . S
C1919 C1918 1.363 . S
C1919 C1922 1.363 . S
N1920 C1922 1.356 . S
N1920 H1932 0.984 . S
N1920 H1933 0.985 . S
N1921 C1923 1.356 . S
N1921 H1926 0.984 . S
N1921 H1927 0.985 . S
C1922 C1916 1.379 . S
C1922 C1919 1.363 . S
C1922 N1920 1.356 . S
C1923 C1917 1.363 . S
C1923 C1918 1.379 . S
C1923 N1921 1.356 . S
N1924 C1916 1.356 . S
N1924 H1930 0.984 . S
N1924 H1931 0.984 . S
N1925 C1918 1.356 . S
N1925 H1928 0.984 . S
N1925 H1929 0.985 . S
H1926 N1921 0.984 . S
H1927 N1921 0.985 . S
H1928 N1925 0.984 . S
H1929 N1925 0.985 . S
H1930 N1924 0.984 . S
H1931 N1924 0.984 . S
H1932 N1920 0.984 . S
H1933 N1920 0.985 . S
C1934 C1935 1.363 . S
C1934 C1940 1.379 . S
C1934 N1942 1.356 . S
C1935 C1934 1.363 . S
C1935 C1941 1.363 . S
C1936 C1937 1.363 . S
C1936 C1941 1.379 . S
C1936 N1943 1.356 . S
C1937 C1936 1.363 . S
C1937 C1940 1.363 . S
N1938 C1940 1.356 . S
N1938 H1950 0.984 . S
N1938 H1951 0.985 . S
N1939 C1941 1.356 . S
N1939 H1944 0.984 . S
N1939 H1945 0.985 . S
C1940 C1934 1.379 . S
C1940 C1937 1.363 . S
C1940 N1938 1.356 . S
C1941 C1935 1.363 . S
C1941 C1936 1.379 . S
C1941 N1939 1.356 . S
N1942 C1934 1.356 . S
N1942 H1948 0.984 . S
N1942 H1949 0.984 . S
N1943 C1936 1.356 . S
N1943 H1946 0.984 . S
N1943 H1947 0.985 . S
H1944 N1939 0.984 . S
H1945 N1939 0.985 . S
H1946 N1943 0.984 . S
H1947 N1943 0.985 . S
H1948 N1942 0.984 . S
H1949 N1942 0.984 . S
H1950 N1938 0.984 . S
H1951 N1938 0.985 . S
C1952 C1953 1.363 . S
C1952 C1958 1.379 . S
C1952 N1960 1.356 . S
C1953 C1952 1.363 . S
C1953 C1959 1.363 . S
C1954 C1955 1.363 . S
C1954 C1959 1.379 . S
C1954 N1961 1.356 . S
C1955 C1954 1.363 . S
C1955 C1958 1.363 . S
N1956 C1958 1.356 . S
N1956 H1968 0.984 . S
N1956 H1969 0.985 . S
N1957 C1959 1.356 . S
N1957 H1962 0.984 . S
N1957 H1963 0.985 . S
C1958 C1952 1.379 . S
C1958 C1955 1.363 . S
C1958 N1956 1.356 . S
C1959 C1953 1.363 . S
C1959 C1954 1.379 . S
C1959 N1957 1.356 . S
N1960 C1952 1.356 . S
N1960 H1966 0.984 . S
N1960 H1967 0.984 . S
N1961 C1954 1.356 . S
N1961 H1964 0.984 . S
N1961 H1965 0.985 . S
H1962 N1957 0.984 . S
H1963 N1957 0.985 . S
H1964 N1961 0.984 . S
H1965 N1961 0.985 . S
H1966 N1960 0.984 . S
H1967 N1960 0.984 . S
H1968 N1956 0.984 . S
H1969 N1956 0.985 . S
C1970 C1971 1.363 . S
C1970 C1976 1.379 . S
C1970 N1978 1.356 . S
C1971 C1970 1.363 . S
C1971 C1977 1.363 . S
C1972 C1973 1.363 . S
C1972 C1977 1.379 . S
C1972 N1979 1.356 . S
C1973 C1972 1.363 . S
C1973 C1976 1.363 . S
N1974 C1976 1.356 . S
N1974 H1986 0.984 . S
N1974 H1987 0.985 . S
N1975 C1977 1.356 . S
N1975 H1980 0.984 . S
N1975 H1981 0.985 . S
C1976 C1970 1.379 . S
C1976 C1973 1.363 . S
C1976 N1974 1.356 . S
C1977 C1971 1.363 . S
C1977 C1972 1.379 . S
C1977 N1975 1.356 . S
N1978 C1970 1.356 . S
N1978 H1984 0.984 . S
N1978 H1985 0.984 . S
N1979 C1972 1.356 . S
N1979 H1982 0.984 . S
N1979 H1983 0.985 . S
H1980 N1975 0.984 . S
H1981 N1975 0.985 . S
H1982 N1979 0.984 . S
H1983 N1979 0.985 . S
H1984 N1978 0.984 . S
H1985 N1978 0.984 . S
H1986 N1974 0.984 . S
H1987 N1974 0.985 . S
C1988 C1989 1.363 . S
C1988 C1994 1.379 . S
C1988 N1996 1.356 . S
C1989 C1988 1.363 . S
C1989 C1995 1.363 . S
C1990 C1991 1.363 . S
C1990 C1995 1.379 . S
C1990 N1997 1.356 . S
C1991 C1990 1.363 . S
C1991 C1994 1.363 . S
N1992 C1994 1.356 . S
N1992 H2004 0.984 1_455 S
N1992 H2005 0.985 . S
N1993 C1995 1.356 . S
N1993 H1998 0.984 . S
N1993 H1999 0.985 . S
C1994 C1988 1.379 . S
C1994 C1991 1.363 . S
C1994 N1992 1.356 . S
C1995 C1989 1.363 . S
C1995 C1990 1.379 . S
C1995 N1993 1.356 . S
N1996 C1988 1.356 . S
N1996 H2002 0.984 1_455 S
N1996 H2003 0.984 . S
N1997 C1990 1.356 . S
N1997 H2000 0.984 . S
N1997 H2001 0.985 . S
H1998 N1993 0.984 . S
H1999 N1993 0.985 . S
H2000 N1997 0.984 . S
H2001 N1997 0.985 . S
H2002 N1996 0.984 1_655 S
H2003 N1996 0.984 . S
H2004 N1992 0.984 1_655 S
H2005 N1992 0.985 . S
C2006 C2007 1.363 . S
C2006 C2012 1.379 . S
C2006 N2014 1.356 . S
C2007 C2006 1.363 . S
C2007 C2013 1.363 . S
C2008 C2009 1.363 . S
C2008 C2013 1.379 . S
C2008 N2015 1.356 . S
C2009 C2008 1.363 . S
C2009 C2012 1.363 . S
N2010 C2012 1.356 . S
N2010 H2022 0.984 . S
N2010 H2023 0.985 . S
N2011 C2013 1.356 . S
N2011 H2016 0.984 . S
N2011 H2017 0.985 . S
C2012 C2006 1.379 . S
C2012 C2009 1.363 . S
C2012 N2010 1.356 . S
C2013 C2007 1.363 . S
C2013 C2008 1.379 . S
C2013 N2011 1.356 . S
N2014 C2006 1.356 . S
N2014 H2020 0.984 . S
N2014 H2021 0.984 . S
N2015 C2008 1.356 . S
N2015 H2018 0.984 . S
N2015 H2019 0.985 . S
H2016 N2011 0.984 . S
H2017 N2011 0.985 . S
H2018 N2015 0.984 . S
H2019 N2015 0.985 . S
H2020 N2014 0.984 . S
H2021 N2014 0.984 . S
H2022 N2010 0.984 . S
H2023 N2010 0.985 . S
C2024 C2025 1.363 . S
C2024 C2030 1.379 . S
C2024 N2032 1.356 . S
C2025 C2024 1.363 . S
C2025 C2031 1.363 . S
C2026 C2027 1.374 . S
C2026 C2031 1.391 . S
C2026 N2033 1.334 1_556 S
C2027 C2026 1.374 . S
C2027 C2030 1.363 . S
N2028 C2030 1.356 . S
N2028 H2040 0.984 . S
N2028 H2041 0.985 . S
N2029 C2031 1.356 . S
N2029 H2034 0.984 . S
N2029 H2035 0.985 1_556 S
C2030 C2024 1.379 . S
C2030 C2027 1.363 . S
C2030 N2028 1.356 . S
C2031 C2025 1.363 . S
C2031 C2026 1.391 . S
C2031 N2029 1.356 . S
N2032 C2024 1.356 . S
N2032 H2038 0.984 . S
N2032 H2039 0.984 . S
N2033 C2026 1.334 1_554 S
N2033 H2036 0.984 . S
N2033 H2037 0.985 . S
H2034 N2029 0.984 . S
H2035 N2029 0.985 1_554 S
H2036 N2033 0.984 . S
H2037 N2033 0.985 . S
H2038 N2032 0.984 . S
H2039 N2032 0.984 . S
H2040 N2028 0.984 . S
H2041 N2028 0.985 . S
C2042 C2043 1.363 . S
C2042 C2048 1.379 . S
C2042 N2050 1.356 . S
C2043 C2042 1.363 . S
C2043 C2049 1.363 . S
C2044 C2045 1.363 . S
C2044 C2049 1.379 . S
C2044 N2051 1.356 . S
C2045 C2044 1.363 . S
C2045 C2048 1.363 . S
N2046 C2048 1.356 . S
N2046 H2058 0.984 . S
N2046 H2059 0.985 . S
N2047 C2049 1.356 . S
N2047 H2052 0.984 . S
N2047 H2053 0.985 . S
C2048 C2042 1.379 . S
C2048 C2045 1.363 . S
C2048 N2046 1.356 . S
C2049 C2043 1.363 . S
C2049 C2044 1.379 . S
C2049 N2047 1.356 . S
N2050 C2042 1.356 . S
N2050 H2056 0.984 . S
N2050 H2057 0.984 . S
N2051 C2044 1.356 . S
N2051 H2054 0.984 . S
N2051 H2055 0.985 . S
H2052 N2047 0.984 . S
H2053 N2047 0.985 . S
H2054 N2051 0.984 . S
H2055 N2051 0.985 . S
H2056 N2050 0.984 . S
H2057 N2050 0.984 . S
H2058 N2046 0.984 . S
H2059 N2046 0.985 . S
C2060 C2061 1.363 . S
C2060 C2066 1.379 . S
C2060 N2068 1.352 1_455 S
C2061 C2060 1.363 . S
C2061 C2067 1.363 . S
C2062 C2063 1.363 . S
C2062 C2067 1.379 . S
C2062 N2069 1.356 . S
C2063 C2062 1.363 . S
C2063 C2066 1.363 . S
N2064 C2066 1.356 1_655 S
N2064 H2076 0.984 . S
N2064 H2077 0.985 . S
N2065 C2067 1.356 . S
N2065 H2070 0.984 . S
N2065 H2071 0.985 . S
C2066 C2060 1.379 . S
C2066 C2063 1.363 . S
C2066 N2064 1.356 1_455 S
C2067 C2061 1.363 . S
C2067 C2062 1.379 . S
C2067 N2065 1.356 . S
N2068 C2060 1.352 1_655 S
N2068 H2074 0.997 . S
N2068 H2075 0.977 1_655 S
N2069 C2062 1.356 . S
N2069 H2072 0.984 . S
N2069 H2073 0.985 . S
H2070 N2065 0.984 . S
H2071 N2065 0.985 . S
H2072 N2069 0.984 . S
H2073 N2069 0.985 . S
H2074 N2068 0.997 . S
H2075 N2068 0.977 1_455 S
H2076 N2064 0.984 . S
H2077 N2064 0.985 . S
C2078 C2079 1.363 . S
C2078 C2084 1.379 . S
C2078 N2086 1.356 . S
C2079 C2078 1.363 . S
C2079 C2085 1.363 . S
C2080 C2081 1.363 . S
C2080 C2085 1.379 . S
C2080 N2087 1.356 . S
C2081 C2080 1.363 . S
C2081 C2084 1.363 . S
N2082 C2084 1.356 . S
N2082 H2094 0.984 . S
N2082 H2095 0.985 . S
N2083 C2085 1.356 . S
N2083 H2088 0.984 . S
N2083 H2089 0.985 . S
C2084 C2078 1.379 . S
C2084 C2081 1.363 . S
C2084 N2082 1.356 . S
C2085 C2079 1.363 . S
C2085 C2080 1.379 . S
C2085 N2083 1.356 . S
N2086 C2078 1.356 . S
N2086 H2092 0.984 . S
N2086 H2093 0.984 . S
N2087 C2080 1.356 . S
N2087 H2090 0.984 . S
N2087 H2091 0.985 . S
H2088 N2083 0.984 . S
H2089 N2083 0.985 . S
H2090 N2087 0.984 . S
H2091 N2087 0.985 . S
H2092 N2086 0.984 . S
H2093 N2086 0.984 . S
H2094 N2082 0.984 . S
H2095 N2082 0.985 . S
C2096 C2097 1.363 . S
C2096 C2102 1.379 . S
C2096 N2104 1.356 . S
C2097 C2096 1.363 . S
C2097 C2103 1.363 . S
C2098 C2099 1.363 . S
C2098 C2103 1.379 . S
C2098 N2105 1.356 . S
C2099 C2098 1.363 . S
C2099 C2102 1.363 . S
N2100 C2102 1.356 . S
N2100 H2112 0.984 . S
N2100 H2113 0.985 . S
N2101 C2103 1.356 . S
N2101 H2106 0.984 . S
N2101 H2107 0.985 . S
C2102 C2096 1.379 . S
C2102 C2099 1.363 . S
C2102 N2100 1.356 . S
C2103 C2097 1.363 . S
C2103 C2098 1.379 . S
C2103 N2101 1.356 . S
N2104 C2096 1.356 . S
N2104 H2110 0.984 . S
N2104 H2111 0.984 . S
N2105 C2098 1.356 . S
N2105 H2108 0.984 . S
N2105 H2109 0.985 . S
H2106 N2101 0.984 . S
H2107 N2101 0.985 . S
H2108 N2105 0.984 . S
H2109 N2105 0.985 . S
H2110 N2104 0.984 . S
H2111 N2104 0.984 . S
H2112 N2100 0.984 . S
H2113 N2100 0.985 . S
C2114 C2115 1.363 . S
C2114 C2120 1.379 . S
C2114 N2122 1.356 . S
C2115 C2114 1.363 . S
C2115 C2121 1.363 . S
C2116 C2117 1.363 . S
C2116 C2121 1.379 . S
C2116 N2123 1.356 . S
C2117 C2116 1.363 . S
C2117 C2120 1.363 . S
N2118 C2120 1.356 . S
N2118 H2130 0.984 . S
N2118 H2131 0.985 . S
N2119 C2121 1.356 . S
N2119 H2124 0.984 . S
N2119 H2125 0.985 . S
C2120 C2114 1.379 . S
C2120 C2117 1.363 . S
C2120 N2118 1.356 . S
C2121 C2115 1.363 . S
C2121 C2116 1.379 . S
C2121 N2119 1.356 . S
N2122 C2114 1.356 . S
N2122 H2128 0.984 . S
N2122 H2129 0.984 . S
N2123 C2116 1.356 . S
N2123 H2126 0.984 . S
N2123 H2127 0.985 . S
H2124 N2119 0.984 . S
H2125 N2119 0.985 . S
H2126 N2123 0.984 . S
H2127 N2123 0.985 . S
H2128 N2122 0.984 . S
H2129 N2122 0.984 . S
H2130 N2118 0.984 . S
H2131 N2118 0.985 . S
C2132 C2133 1.363 . S
C2132 C2138 1.379 . S
C2132 N2140 1.356 . S
C2133 C2132 1.363 . S
C2133 C2139 1.363 . S
C2134 C2135 1.363 . S
C2134 C2139 1.379 . S
C2134 N2141 1.356 . S
C2135 C2134 1.363 . S
C2135 C2138 1.363 . S
N2136 C2138 1.356 1_455 S
N2136 H2148 0.984 . S
N2136 H2149 0.985 . S
N2137 C2139 1.356 . S
N2137 H2142 0.984 . S
N2137 H2143 0.985 . S
C2138 C2132 1.379 . S
C2138 C2135 1.363 . S
C2138 N2136 1.356 1_655 S
C2139 C2133 1.363 . S
C2139 C2134 1.379 . S
C2139 N2137 1.356 . S
N2140 C2132 1.356 . S
N2140 H2146 0.984 . S
N2140 H2147 0.984 . S
N2141 C2134 1.356 . S
N2141 H2144 0.984 . S
N2141 H2145 0.985 . S
H2142 N2137 0.984 . S
H2143 N2137 0.985 . S
H2144 N2141 0.984 . S
H2145 N2141 0.985 . S
H2146 N2140 0.984 . S
H2147 N2140 0.984 . S
H2148 N2136 0.984 . S
H2149 N2136 0.985 . S
C2150 C2151 1.363 . S
C2150 C2156 1.379 . S
C2150 N2158 1.356 . S
C2151 C2150 1.363 . S
C2151 C2157 1.363 . S
C2152 C2153 1.363 . S
C2152 C2157 1.379 . S
C2152 N2159 1.356 . S
C2153 C2152 1.363 . S
C2153 C2156 1.363 . S
N2154 C2156 1.356 . S
N2154 H2166 0.984 . S
N2154 H2167 0.985 . S
N2155 C2157 1.356 . S
N2155 H2160 0.984 . S
N2155 H2161 0.985 . S
C2156 C2150 1.379 . S
C2156 C2153 1.363 . S
C2156 N2154 1.356 . S
C2157 C2151 1.363 . S
C2157 C2152 1.379 . S
C2157 N2155 1.356 . S
N2158 C2150 1.356 . S
N2158 H2164 0.984 . S
N2158 H2165 0.984 . S
N2159 C2152 1.356 . S
N2159 H2162 0.984 . S
N2159 H2163 0.985 . S
H2160 N2155 0.984 . S
H2161 N2155 0.985 . S
H2162 N2159 0.984 . S
H2163 N2159 0.985 . S
H2164 N2158 0.984 . S
H2165 N2158 0.984 . S
H2166 N2154 0.984 . S
H2167 N2154 0.985 . S
C2168 C2169 1.363 . S
C2168 C2174 1.379 . S
C2168 N2176 1.356 . S
C2169 C2168 1.363 . S
C2169 C2175 1.363 . S
C2170 C2171 1.363 . S
C2170 C2175 1.379 . S
C2170 N2177 1.356 . S
C2171 C2170 1.363 . S
C2171 C2174 1.363 . S
N2172 C2174 1.356 . S
N2172 H2184 0.984 . S
N2172 H2185 0.985 . S
N2173 C2175 1.356 . S
N2173 H2178 0.984 . S
N2173 H2179 0.985 . S
C2174 C2168 1.379 . S
C2174 C2171 1.363 . S
C2174 N2172 1.356 . S
C2175 C2169 1.363 . S
C2175 C2170 1.379 . S
C2175 N2173 1.356 . S
N2176 C2168 1.356 . S
N2176 H2182 0.984 . S
N2176 H2183 0.984 . S
N2177 C2170 1.356 . S
N2177 H2180 0.984 . S
N2177 H2181 0.985 . S
H2178 N2173 0.984 . S
H2179 N2173 0.985 . S
H2180 N2177 0.984 . S
H2181 N2177 0.985 . S
H2182 N2176 0.984 . S
H2183 N2176 0.984 . S
H2184 N2172 0.984 . S
H2185 N2172 0.985 . S
C2186 C2187 1.363 . S
C2186 C2192 1.379 . S
C2186 N2194 1.356 . S
C2187 C2186 1.363 . S
C2187 C2193 1.363 . S
C2188 C2189 1.363 . S
C2188 C2193 1.379 . S
C2188 N2195 1.356 . S
C2189 C2188 1.363 . S
C2189 C2192 1.363 . S
N2190 C2192 1.356 . S
N2190 H2202 0.984 . S
N2190 H2203 0.985 . S
N2191 C2193 1.356 . S
N2191 H2196 0.984 . S
N2191 H2197 0.985 . S
C2192 C2186 1.379 . S
C2192 C2189 1.363 . S
C2192 N2190 1.356 . S
C2193 C2187 1.363 . S
C2193 C2188 1.379 . S
C2193 N2191 1.356 . S
N2194 C2186 1.356 . S
N2194 H2200 0.984 . S
N2194 H2201 0.984 . S
N2195 C2188 1.356 . S
N2195 H2198 0.984 . S
N2195 H2199 0.985 . S
H2196 N2191 0.984 . S
H2197 N2191 0.985 . S
H2198 N2195 0.984 . S
H2199 N2195 0.985 . S
H2200 N2194 0.984 . S
H2201 N2194 0.984 . S
H2202 N2190 0.984 . S
H2203 N2190 0.985 . S
C2204 C2205 1.363 . S
C2204 C2210 1.379 . S
C2204 N2212 1.356 . S
C2205 C2204 1.363 . S
C2205 C2211 1.363 . S
C2206 C2207 1.363 . S
C2206 C2211 1.379 . S
C2206 N2213 1.356 . S
C2207 C2206 1.363 . S
C2207 C2210 1.363 . S
N2208 C2210 1.356 . S
N2208 H2220 0.984 . S
N2208 H2221 0.985 . S
N2209 C2211 1.356 . S
N2209 H2214 0.984 . S
N2209 H2215 0.985 . S
C2210 C2204 1.379 . S
C2210 C2207 1.363 . S
C2210 N2208 1.356 . S
C2211 C2205 1.363 . S
C2211 C2206 1.379 . S
C2211 N2209 1.356 . S
N2212 C2204 1.356 . S
N2212 H2218 0.984 . S
N2212 H2219 0.984 . S
N2213 C2206 1.356 . S
N2213 H2216 0.984 . S
N2213 H2217 0.985 . S
H2214 N2209 0.984 . S
H2215 N2209 0.985 . S
H2216 N2213 0.984 . S
H2217 N2213 0.985 . S
H2218 N2212 0.984 . S
H2219 N2212 0.984 . S
H2220 N2208 0.984 . S
H2221 N2208 0.985 . S
C2222 C2223 1.363 . S
C2222 C2228 1.379 . S
C2222 N2230 1.356 . S
C2223 C2222 1.363 . S
C2223 C2229 1.363 . S
C2224 C2225 1.363 . S
C2224 C2229 1.379 . S
C2224 N2231 1.356 . S
C2225 C2224 1.363 . S
C2225 C2228 1.363 . S
N2226 C2228 1.356 . S
N2226 H2238 0.984 . S
N2226 H2239 0.985 . S
N2227 C2229 1.356 . S
N2227 H2232 0.984 . S
N2227 H2233 0.985 . S
C2228 C2222 1.379 . S
C2228 C2225 1.363 . S
C2228 N2226 1.356 . S
C2229 C2223 1.363 . S
C2229 C2224 1.379 . S
C2229 N2227 1.356 . S
N2230 C2222 1.356 . S
N2230 H2236 0.984 . S
N2230 H2237 0.984 . S
N2231 C2224 1.356 . S
N2231 H2234 0.984 . S
N2231 H2235 0.985 . S
H2232 N2227 0.984 . S
H2233 N2227 0.985 . S
H2234 N2231 0.984 . S
H2235 N2231 0.985 . S
H2236 N2230 0.984 . S
H2237 N2230 0.984 . S
H2238 N2226 0.984 . S
H2239 N2226 0.985 . S
C2240 C2241 1.363 . S
C2240 C2246 1.379 . S
C2240 N2248 1.356 . S
C2241 C2240 1.363 . S
C2241 C2247 1.363 . S
C2242 C2243 1.363 . S
C2242 C2247 1.379 . S
C2242 N2249 1.356 . S
C2243 C2242 1.363 . S
C2243 C2246 1.363 . S
N2244 C2246 1.356 . S
N2244 H2256 0.984 . S
N2244 H2257 0.985 . S
N2245 C2247 1.356 . S
N2245 H2250 0.984 . S
N2245 H2251 0.985 . S
C2246 C2240 1.379 . S
C2246 C2243 1.363 . S
C2246 N2244 1.356 . S
C2247 C2241 1.363 . S
C2247 C2242 1.379 . S
C2247 N2245 1.356 . S
N2248 C2240 1.356 . S
N2248 H2254 0.984 . S
N2248 H2255 0.984 . S
N2249 C2242 1.356 . S
N2249 H2252 0.984 . S
N2249 H2253 0.985 . S
H2250 N2245 0.984 . S
H2251 N2245 0.985 . S
H2252 N2249 0.984 . S
H2253 N2249 0.985 . S
H2254 N2248 0.984 . S
H2255 N2248 0.984 . S
H2256 N2244 0.984 . S
H2257 N2244 0.985 . S
C2258 C2259 1.363 . S
C2258 C2264 1.379 . S
C2258 N2266 1.356 . S
C2259 C2258 1.363 . S
C2259 C2265 1.363 . S
C2260 C2261 1.363 . S
C2260 C2265 1.379 . S
C2260 N2267 1.356 1_565 S
C2261 C2260 1.363 . S
C2261 C2264 1.363 . S
N2262 C2264 1.356 . S
N2262 H2274 0.984 . S
N2262 H2275 0.985 . S
N2263 C2265 1.356 . S
N2263 H2268 0.984 . S
N2263 H2269 0.985 . S
C2264 C2258 1.379 . S
C2264 C2261 1.363 . S
C2264 N2262 1.356 . S
C2265 C2259 1.363 . S
C2265 C2260 1.379 . S
C2265 N2263 1.356 . S
N2266 C2258 1.356 . S
N2266 H2272 0.984 . S
N2266 H2273 0.984 . S
N2267 C2260 1.356 1_545 S
N2267 H2270 0.984 . S
N2267 H2271 0.985 . S
H2268 N2263 0.984 . S
H2269 N2263 0.985 . S
H2270 N2267 0.984 . S
H2271 N2267 0.985 . S
H2272 N2266 0.984 . S
H2273 N2266 0.984 . S
H2274 N2262 0.984 . S
H2275 N2262 0.985 . S
C2276 C2277 1.363 . S
C2276 C2282 1.379 . S
C2276 N2284 1.356 . S
C2277 C2276 1.363 . S
C2277 C2283 1.363 . S
C2278 C2279 1.363 . S
C2278 C2283 1.379 . S
C2278 N2285 1.356 . S
C2279 C2278 1.363 . S
C2279 C2282 1.363 . S
N2280 C2282 1.356 . S
N2280 H2292 0.984 . S
N2280 H2293 0.985 . S
N2281 C2283 1.356 . S
N2281 H2286 0.984 . S
N2281 H2287 0.985 . S
C2282 C2276 1.379 . S
C2282 C2279 1.363 . S
C2282 N2280 1.356 . S
C2283 C2277 1.363 . S
C2283 C2278 1.379 . S
C2283 N2281 1.356 . S
N2284 C2276 1.356 . S
N2284 H2290 0.984 . S
N2284 H2291 0.984 . S
N2285 C2278 1.356 . S
N2285 H2288 0.984 . S
N2285 H2289 0.985 . S
H2286 N2281 0.984 . S
H2287 N2281 0.985 . S
H2288 N2285 0.984 . S
H2289 N2285 0.985 . S
H2290 N2284 0.984 . S
H2291 N2284 0.984 . S
H2292 N2280 0.984 . S
H2293 N2280 0.985 . S
C2294 C2295 1.363 . S
C2294 C2300 1.379 . S
C2294 N2302 1.356 1_554 S
C2295 C2294 1.363 . S
C2295 C2301 1.363 . S
C2296 C2297 1.363 . S
C2296 C2301 1.379 . S
C2296 N2303 1.356 . S
C2297 C2296 1.363 . S
C2297 C2300 1.363 . S
N2298 C2300 1.356 1_556 S
N2298 H2310 0.984 . S
N2298 H2311 0.985 . S
N2299 C2301 1.356 . S
N2299 H2304 0.984 . S
N2299 H2305 0.985 . S
C2300 C2294 1.379 . S
C2300 C2297 1.363 . S
C2300 N2298 1.356 1_554 S
C2301 C2295 1.363 . S
C2301 C2296 1.379 . S
C2301 N2299 1.356 . S
N2302 C2294 1.356 1_556 S
N2302 H2308 0.984 . S
N2302 H2309 0.985 1_556 S
N2303 C2296 1.356 . S
N2303 H2306 0.984 . S
N2303 H2307 0.985 . S
H2304 N2299 0.984 . S
H2305 N2299 0.985 . S
H2306 N2303 0.984 . S
H2307 N2303 0.985 . S
H2308 N2302 0.984 . S
H2309 N2302 0.985 1_554 S
H2310 N2298 0.984 . S
H2311 N2298 0.985 . S
C2312 C2313 1.363 . S
C2312 C2318 1.379 . S
C2312 N2320 1.356 . S
C2313 C2312 1.363 . S
C2313 C2319 1.363 . S
C2314 C2315 1.363 . S
C2314 C2319 1.379 . S
C2314 N2321 1.356 . S
C2315 C2314 1.363 . S
C2315 C2318 1.363 . S
N2316 C2318 1.356 . S
N2316 H2328 0.984 . S
N2316 H2329 0.985 . S
N2317 C2319 1.356 . S
N2317 H2322 0.984 . S
N2317 H2323 0.985 . S
C2318 C2312 1.379 . S
C2318 C2315 1.363 . S
C2318 N2316 1.356 . S
C2319 C2313 1.363 . S
C2319 C2314 1.379 . S
C2319 N2317 1.356 . S
N2320 C2312 1.356 . S
N2320 H2326 0.984 . S
N2320 H2327 0.984 . S
N2321 C2314 1.356 . S
N2321 H2324 0.984 . S
N2321 H2325 0.985 . S
H2322 N2317 0.984 . S
H2323 N2317 0.985 . S
H2324 N2321 0.984 . S
H2325 N2321 0.985 . S
H2326 N2320 0.984 . S
H2327 N2320 0.984 . S
H2328 N2316 0.984 . S
H2329 N2316 0.985 . S
C2330 C2331 1.363 . S
C2330 C2336 1.379 . S
C2330 N2338 1.356 . S
C2331 C2330 1.363 . S
C2331 C2337 1.363 . S
C2332 C2333 1.363 . S
C2332 C2337 1.379 . S
C2332 N2339 1.356 . S
C2333 C2332 1.363 . S
C2333 C2336 1.363 . S
N2334 C2336 1.356 1_556 S
N2334 H2346 0.984 . S
N2334 H2347 0.985 . S
N2335 C2337 1.356 . S
N2335 H2340 0.984 . S
N2335 H2341 0.985 . S
C2336 C2330 1.379 . S
C2336 C2333 1.363 . S
C2336 N2334 1.356 1_554 S
C2337 C2331 1.363 . S
C2337 C2332 1.379 . S
C2337 N2335 1.356 . S
N2338 C2330 1.356 . S
N2338 H2344 0.984 1_554 S
N2338 H2345 0.984 . S
N2339 C2332 1.356 . S
N2339 H2342 0.984 . S
N2339 H2343 0.985 . S
H2340 N2335 0.984 . S
H2341 N2335 0.985 . S
H2342 N2339 0.984 . S
H2343 N2339 0.985 . S
H2344 N2338 0.984 1_556 S
H2345 N2338 0.984 . S
H2346 N2334 0.984 . S
H2347 N2334 0.985 . S
C2348 C2349 1.363 . S
C2348 C2354 1.379 . S
C2348 N2356 1.356 . S
C2349 C2348 1.363 . S
C2349 C2355 1.363 . S
C2350 C2351 1.363 . S
C2350 C2355 1.379 . S
C2350 N2357 1.356 . S
C2351 C2350 1.363 . S
C2351 C2354 1.363 . S
N2352 C2354 1.356 . S
N2352 H2364 0.984 . S
N2352 H2365 0.985 . S
N2353 C2355 1.356 . S
N2353 H2358 0.984 . S
N2353 H2359 0.985 . S
C2354 C2348 1.379 . S
C2354 C2351 1.363 . S
C2354 N2352 1.356 . S
C2355 C2349 1.363 . S
C2355 C2350 1.379 . S
C2355 N2353 1.356 . S
N2356 C2348 1.356 . S
N2356 H2362 0.984 . S
N2356 H2363 0.984 . S
N2357 C2350 1.356 . S
N2357 H2360 0.984 . S
N2357 H2361 0.985 . S
H2358 N2353 0.984 . S
H2359 N2353 0.985 . S
H2360 N2357 0.984 . S
H2361 N2357 0.985 . S
H2362 N2356 0.984 . S
H2363 N2356 0.984 . S
H2364 N2352 0.984 . S
H2365 N2352 0.985 . S
C2366 C2367 1.363 . S
C2366 C2372 1.379 . S
C2366 N2374 1.356 . S
C2367 C2366 1.363 . S
C2367 C2373 1.363 . S
C2368 C2369 1.363 . S
C2368 C2373 1.379 . S
C2368 N2375 1.356 . S
C2369 C2368 1.363 . S
C2369 C2372 1.363 . S
N2370 C2372 1.356 . S
N2370 H2382 0.984 . S
N2370 H2383 0.985 . S
N2371 C2373 1.356 . S
N2371 H2376 0.984 . S
N2371 H2377 0.985 . S
C2372 C2366 1.379 . S
C2372 C2369 1.363 . S
C2372 N2370 1.356 . S
C2373 C2367 1.363 . S
C2373 C2368 1.379 . S
C2373 N2371 1.356 . S
N2374 C2366 1.356 . S
N2374 H2380 0.984 . S
N2374 H2381 0.984 . S
N2375 C2368 1.356 . S
N2375 H2378 0.984 . S
N2375 H2379 0.985 . S
H2376 N2371 0.984 . S
H2377 N2371 0.985 . S
H2378 N2375 0.984 . S
H2379 N2375 0.985 . S
H2380 N2374 0.984 . S
H2381 N2374 0.984 . S
H2382 N2370 0.984 . S
H2383 N2370 0.985 . S
C657 C105 1.575 1_455 S
C659 C340 1.334 1_556 S
C675 C65 1.587 . S
C677 C375 1.549 . S
C693 C73 1.257 . S
C695 C380 1.127 . S
C713 C405 1.373 . S
C711 C92 1.470 . S
C729 C17 1.512 . S
C731 C425 1.425 . S
C749 C440 1.113 . S
C747 C37 1.254 . S
C767 C475 1.565 . S
C765 C49 1.540 . S
C783 C8 1.568 . S
C785 C480 1.297 . S
C803 C355 1.647 1_655 S
C801 C231 1.703 . S
C819 C241 1.163 . S
C821 C365 1.075 . S
C839 C395 1.438 1_565 S
C837 C273 1.424 . S
C857 C400 1.198 . S
C855 C171 1.323 . S
C873 C227 1.308 . S
C875 C420 1.188 . S
C893 C455 1.454 . S
C891 C245 1.428 . S
C911 C465 1.082 . S
C909 C269 1.176 . S
C929 C495 1.639 . S
C927 C175 1.696 . S
C947 C345 1.385 . S
C945 C162 1.606 . S
C963 C289 1.799 . S
C965 C515 1.778 . S
C983 C525 1.476 . S
C981 C330 1.623 . S
C1001 C540 1.080 . S
C999 C317 1.200 . S
C1017 C120 1.583 . S
C1019 C485 1.358 . S
C1035 C134 1.639 . S
C1037 C385 1.496 . S
C1053 C331 1.765 . S
C1055 C575 1.742 . S
C1073 C580 1.064 . S
C1071 C303 1.187 . S
C1091 C338 1.335 . S
C1089 C59 1.592 . S
C1109 C594 1.576 . S
C1107 C107 1.602 . S
C1125 C91 1.228 . S
C1127 C378 1.150 . S
C1143 C78 1.487 . S
C1145 C568 1.402 . S
C1163 C428 1.459 . S
C1161 C7 1.502 . S
C1179 C51 1.264 . S
C1181 C518 1.128 . S
C1199 C474 1.590 1_556 S
C1197 C31 1.625 . S
C1217 C598 1.299 . S
C1215 C22 1.537 . S
C1235 C354 1.657 . S
C1233 C143 1.759 . S
C1253 C588 1.107 . S
C1251 C315 1.132 . S
C1269 C115 1.508 . S
C1271 C394 1.469 . S
C1287 C287 1.295 . S
C1289 C558 1.220 . S
C1305 C147 1.286 . S
C1307 C418 1.216 . S
C1325 C534 1.472 . S
C1323 C311 1.513 . S
C1341 C119 1.135 . S
C1343 C468 1.112 . S
C1359 C283 1.751 . S
C1361 C614 1.651 . S
C1377 C190 1.574 . S
C1379 C348 1.389 . S
C1395 C177 1.812 . S
C1397 C514 1.805 . S
C1413 C260 1.615 . S
C1415 C448 1.495 . S
C1431 C247 1.213 . S
C1433 C538 1.098 . S
C1451 C608 1.361 . S
C1449 C274 1.550 . S
C1467 C218 1.633 . S
C1469 C388 1.518 . S
C1487 C414 1.767 . S
C1485 C261 1.778 . S
C1505 C358 1.080 . S
C1503 C205 1.198 . S
C1521 C77 1.575 . S
C1523 C620 1.334 . S
C1541 C595 1.549 . S
C1539 C93 1.587 . S
C1557 C101 1.257 . S
C1559 C640 1.127 . S
C1575 C64 1.470 . S
C1577 C565 1.373 . S
C1593 C45 1.512 . S
C1595 C505 1.425 . S
C1613 C520 1.113 . S
C1611 C9 1.254 . S
C1631 C555 1.566 . S
C1629 C21 1.540 . S
C1649 C600 1.296 . S
C1647 C36 1.567 . S
C1667 C635 1.647 . S
C1665 C259 1.703 . S
C1683 C185 1.163 . S
C1685 C585 1.075 . S
C1703 C655 1.451 . S
C1701 C203 1.424 . S
C1721 C560 1.198 . S
C1719 C213 1.323 . S
C1739 C500 1.188 . S
C1737 C255 1.308 . S
C1755 C189 1.427 . S
C1757 C535 1.454 . S
C1775 C545 1.082 . S
C1773 C199 1.171 . S
C1791 C217 1.696 . S
C1793 C615 1.639 . S
C1811 C625 1.385 . S
C1809 C316 1.606 . S
C1827 C135 1.799 . S
C1829 C435 1.780 . S
C1847 C445 1.476 . S
C1845 C148 1.623 . S
C1865 C460 1.080 . S
C1863 C163 1.200 . S
C1883 C605 1.358 . S
C1881 C302 1.583 . S
C1899 C288 1.639 . S
C1901 C645 1.496 . S
C1919 C415 1.742 . S
C1917 C149 1.765 . S
C1937 C360 1.064 . S
C1935 C121 1.187 . S
C1953 C87 1.592 . S
C1955 C618 1.335 . S
C1973 C374 1.576 . S
C1971 C79 1.602 . S
C1989 C63 1.228 . S
C1991 C638 1.150 . S
C2007 C106 1.487 . S
C2009 C408 1.402 . S
C2025 C35 1.503 . S
C2027 C508 1.459 . S
C2045 C438 1.128 . S
C2043 C23 1.264 . S
C2061 C3 1.625 . S
C2063 C554 1.590 . S
C2079 C50 1.537 . S
C2081 C478 1.299 . S
C2099 C634 1.657 . S
C2097 C325 1.759 . S
C2115 C161 1.132 . S
C2117 C368 1.107 . S
C2135 C654 1.469 1_655 S
C2133 C297 1.508 . S
C2151 C133 1.295 . S
C2153 C398 1.224 . S
C2169 C329 1.286 . S
C2171 C498 1.216 . S
C2189 C454 1.472 . S
C2187 C157 1.513 . S
C2205 C301 1.135 . S
C2207 C548 1.110 . S
C2225 C494 1.647 . S
C2223 C129 1.750 . S
C2243 C628 1.389 . S
C2241 C246 1.574 . S
C2261 C434 1.805 . S
C2259 C219 1.812 . S
C2277 C232 1.615 . S
C2279 C528 1.495 . S
C2297 C458 1.098 . S
C2295 C191 1.213 . S
C2313 C204 1.547 . S
C2315 C488 1.361 . S
C2331 C176 1.633 . S
C2333 C648 1.518 . S
C2351 C574 1.767 . S
C2349 C233 1.778 . S
C2369 C578 1.080 . S
C2367 C275 1.196 . S
