# Generated by pormake.
# Topology ocu, (6,8)-cn, num edge types: 1
# Building blocks:
#     Node 0, Type 0, BuildingBlock: CUKXOW_clean_sbu_0, # of connection points: 6
#     Node 1, Type 0, BuildingBlock: CUKXOW_clean_sbu_0, # of connection points: 6
#     Node 2, Type 0, BuildingBlock: CUKXOW_clean_sbu_0, # of connection points: 6
#     Node 3, Type 0, BuildingBlock: CUKXOW_clean_sbu_0, # of connection points: 6
#     Node 4, Type 0, BuildingBlock: CUKXOW_clean_sbu_0, # of connection points: 6
#     Node 5, Type 0, BuildingBlock: CUKXOW_clean_sbu_0, # of connection points: 6
#     Node 6, Type 0, BuildingBlock: CUKXOW_clean_sbu_0, # of connection points: 6
#     Node 7, Type 0, BuildingBlock: CUKXOW_clean_sbu_0, # of connection points: 6
#     Node 8, Type 1, BuildingBlock: TAGTUT_clean_sbu_1, # of connection points: 8
#     Node 9, Type 1, BuildingBlock: TAGTUT_clean_sbu_1, # of connection points: 8
#     Node 10, Type 1, BuildingBlock: TAGTUT_clean_sbu_1, # of connection points: 8
#     Node 11, Type 1, BuildingBlock: TAGTUT_clean_sbu_1, # of connection points: 8
#     Node 12, Type 1, BuildingBlock: TAGTUT_clean_sbu_1, # of connection points: 8
#     Node 13, Type 1, BuildingBlock: TAGTUT_clean_sbu_1, # of connection points: 8
#     Edge 14, Type (0, 1), BuildingBlock: UVAHIK_clean_linker_0, # of connection points: 2
#     Edge 15, Type (0, 1), BuildingBlock: UVAHIK_clean_linker_0, # of connection points: 2
#     Edge 16, Type (0, 1), BuildingBlock: UVAHIK_clean_linker_0, # of connection points: 2
#     Edge 17, Type (0, 1), BuildingBlock: UVAHIK_clean_linker_0, # of connection points: 2
#     Edge 18, Type (0, 1), BuildingBlock: UVAHIK_clean_linker_0, # of connection points: 2
#     Edge 19, Type (0, 1), BuildingBlock: UVAHIK_clean_linker_0, # of connection points: 2
#     Edge 20, Type (0, 1), BuildingBlock: UVAHIK_clean_linker_0, # of connection points: 2
#     Edge 21, Type (0, 1), BuildingBlock: UVAHIK_clean_linker_0, # of connection points: 2
#     Edge 22, Type (0, 1), BuildingBlock: UVAHIK_clean_linker_0, # of connection points: 2
#     Edge 23, Type (0, 1), BuildingBlock: UVAHIK_clean_linker_0, # of connection points: 2
#     Edge 24, Type (0, 1), BuildingBlock: UVAHIK_clean_linker_0, # of connection points: 2
#     Edge 25, Type (0, 1), BuildingBlock: UVAHIK_clean_linker_0, # of connection points: 2
#     Edge 26, Type (0, 1), BuildingBlock: UVAHIK_clean_linker_0, # of connection points: 2
#     Edge 27, Type (0, 1), BuildingBlock: UVAHIK_clean_linker_0, # of connection points: 2
#     Edge 28, Type (0, 1), BuildingBlock: UVAHIK_clean_linker_0, # of connection points: 2
#     Edge 29, Type (0, 1), BuildingBlock: UVAHIK_clean_linker_0, # of connection points: 2
#     Edge 30, Type (0, 1), BuildingBlock: UVAHIK_clean_linker_0, # of connection points: 2
#     Edge 31, Type (0, 1), BuildingBlock: UVAHIK_clean_linker_0, # of connection points: 2
#     Edge 32, Type (0, 1), BuildingBlock: UVAHIK_clean_linker_0, # of connection points: 2
#     Edge 33, Type (0, 1), BuildingBlock: UVAHIK_clean_linker_0, # of connection points: 2
#     Edge 34, Type (0, 1), BuildingBlock: UVAHIK_clean_linker_0, # of connection points: 2
#     Edge 35, Type (0, 1), BuildingBlock: UVAHIK_clean_linker_0, # of connection points: 2
#     Edge 36, Type (0, 1), BuildingBlock: UVAHIK_clean_linker_0, # of connection points: 2
#     Edge 37, Type (0, 1), BuildingBlock: UVAHIK_clean_linker_0, # of connection points: 2
#     Edge 38, Type (0, 1), BuildingBlock: UVAHIK_clean_linker_0, # of connection points: 2
#     Edge 39, Type (0, 1), BuildingBlock: UVAHIK_clean_linker_0, # of connection points: 2
#     Edge 40, Type (0, 1), BuildingBlock: UVAHIK_clean_linker_0, # of connection points: 2
#     Edge 41, Type (0, 1), BuildingBlock: UVAHIK_clean_linker_0, # of connection points: 2
#     Edge 42, Type (0, 1), BuildingBlock: UVAHIK_clean_linker_0, # of connection points: 2
#     Edge 43, Type (0, 1), BuildingBlock: UVAHIK_clean_linker_0, # of connection points: 2
#     Edge 44, Type (0, 1), BuildingBlock: UVAHIK_clean_linker_0, # of connection points: 2
#     Edge 45, Type (0, 1), BuildingBlock: UVAHIK_clean_linker_0, # of connection points: 2
#     Edge 46, Type (0, 1), BuildingBlock: UVAHIK_clean_linker_0, # of connection points: 2
#     Edge 47, Type (0, 1), BuildingBlock: UVAHIK_clean_linker_0, # of connection points: 2
#     Edge 48, Type (0, 1), BuildingBlock: UVAHIK_clean_linker_0, # of connection points: 2
#     Edge 49, Type (0, 1), BuildingBlock: UVAHIK_clean_linker_0, # of connection points: 2
#     Edge 50, Type (0, 1), BuildingBlock: UVAHIK_clean_linker_0, # of connection points: 2
#     Edge 51, Type (0, 1), BuildingBlock: UVAHIK_clean_linker_0, # of connection points: 2
#     Edge 52, Type (0, 1), BuildingBlock: UVAHIK_clean_linker_0, # of connection points: 2
#     Edge 53, Type (0, 1), BuildingBlock: UVAHIK_clean_linker_0, # of connection points: 2
#     Edge 54, Type (0, 1), BuildingBlock: UVAHIK_clean_linker_0, # of connection points: 2
#     Edge 55, Type (0, 1), BuildingBlock: UVAHIK_clean_linker_0, # of connection points: 2
#     Edge 56, Type (0, 1), BuildingBlock: UVAHIK_clean_linker_0, # of connection points: 2
#     Edge 57, Type (0, 1), BuildingBlock: UVAHIK_clean_linker_0, # of connection points: 2
#     Edge 58, Type (0, 1), BuildingBlock: UVAHIK_clean_linker_0, # of connection points: 2
#     Edge 59, Type (0, 1), BuildingBlock: UVAHIK_clean_linker_0, # of connection points: 2
#     Edge 60, Type (0, 1), BuildingBlock: UVAHIK_clean_linker_0, # of connection points: 2
#     Edge 61, Type (0, 1), BuildingBlock: UVAHIK_clean_linker_0, # of connection points: 2
# Relax obj value: 0.096
# Max RMSD: 0.232
# Mean RMSD: 0.144
data_MOF--net-ocu--node1-CUKXOW_clean_sbu_0--node2-TAGTUT_clean_sbu_1--edge1-UVAHIK_clean_linker_0
_symmetry_space_group_name_H-M    P1
_symmetry_Int_Tables_number       1
_symmetry_cell_setting            triclinic
loop_
_symmetry_equiv_pos_as_xyz
'x, y, z'
_cell_length_a     47.375583
_cell_length_b     47.581384
_cell_length_c     49.962803
_cell_angle_alpha  91.341524
_cell_angle_beta   93.036071
_cell_angle_gamma 95.254393
loop_
_atom_site_label
_atom_site_type_symbol
_atom_site_fract_x
_atom_site_fract_y
_atom_site_fract_z
_atom_type_partial_charge
Tb0 Tb 0.24778 0.20936 0.22301 0.0
C1 C 0.2857 0.26711 0.21139 0.0
Tb2 Tb 0.24642 0.26328 0.26242 0.0
O3 O 0.21578 0.22206 0.1926 0.0
O4 O 0.22817 0.24678 0.22571 0.0
O5 O 0.28116 0.23911 0.20686 0.0
C6 C 0.23139 0.31072 0.28402 0.0
O7 O 0.27266 0.28064 0.23029 0.0
C8 C 0.28236 0.22722 0.28059 0.0
C9 C 0.20909 0.20539 0.27458 0.0
O10 O 0.25714 0.30337 0.2843 0.0
O11 O 0.2141 0.29131 0.27158 0.0
O12 O 0.27885 0.25114 0.29256 0.0
O13 O 0.26611 0.22581 0.25978 0.0
O14 O 0.21356 0.23337 0.27908 0.0
O15 O 0.22203 0.19194 0.25555 0.0
C16 C 0.26017 0.1613 0.20054 0.0
O17 O 0.23477 0.16903 0.2025 0.0
O18 O 0.27875 0.18067 0.21137 0.0
C19 C 0.21224 0.24583 0.20474 0.0
Tb20 Tb 0.72863 0.22636 0.2618 0.0
C21 C 0.72685 0.19728 0.20379 0.0
Tb22 Tb 0.77282 0.24847 0.21892 0.0
O23 O 0.69344 0.25074 0.24747 0.0
O24 O 0.73081 0.25255 0.22873 0.0
O25 O 0.72044 0.19484 0.22931 0.0
C26 C 0.80053 0.27684 0.1821 0.0
O27 O 0.74416 0.21825 0.19495 0.0
C28 C 0.79445 0.21325 0.25374 0.0
C29 C 0.77352 0.27835 0.2763 0.0
O30 O 0.79923 0.24966 0.18461 0.0
O31 O 0.78539 0.2879 0.19981 0.0
O32 O 0.80805 0.2243 0.2341 0.0
O33 O 0.7705 0.22251 0.25204 0.0
O34 O 0.77952 0.28098 0.25071 0.0
O35 O 0.75716 0.25686 0.28542 0.0
C36 C 0.70407 0.19635 0.29925 0.0
O37 O 0.703 0.22333 0.29667 0.0
O38 O 0.71926 0.18641 0.28098 0.0
C39 C 0.7068 0.26186 0.22766 0.0
Tb40 Tb 0.72727 0.75303 0.22946 0.0
C41 C 0.71631 0.68808 0.2198 0.0
Tb42 Tb 0.76933 0.71606 0.25585 0.0
O43 O 0.73817 0.73977 0.18917 0.0
O44 O 0.76796 0.74068 0.2213 0.0
O45 O 0.70405 0.71201 0.22104 0.0
C46 C 0.808 0.68 0.26548 0.0
O47 O 0.74244 0.6858 0.22992 0.0
C48 C 0.73339 0.73641 0.28817 0.0
C49 C 0.78084 0.78082 0.26506 0.0
O50 O 0.8112 0.70176 0.25046 0.0
O51 O 0.78318 0.67876 0.2755 0.0
O52 O 0.75862 0.73019 0.29595 0.0
O53 O 0.72863 0.72839 0.26396 0.0
O54 O 0.79299 0.75687 0.2633 0.0
O55 O 0.75442 0.78313 0.25565 0.0
C56 C 0.68778 0.78842 0.22064 0.0
O57 O 0.68426 0.76495 0.2332 0.0
O58 O 0.71345 0.79182 0.21257 0.0
C59 C 0.76321 0.73304 0.19699 0.0
Tb60 Tb 0.26341 0.75749 0.2234 0.0
C61 C 0.27484 0.76532 0.28586 0.0
Tb62 Tb 0.22781 0.71904 0.26063 0.0
O63 O 0.24524 0.79623 0.23629 0.0
O64 O 0.22337 0.75693 0.24031 0.0
O65 O 0.28526 0.76909 0.26194 0.0
C66 C 0.1866 0.70049 0.2911 0.0
O67 O 0.25178 0.74819 0.28977 0.0
C68 C 0.2676 0.69386 0.23713 0.0
C69 C 0.21659 0.71094 0.19816 0.0
O70 O 0.21352 0.6995 0.2973 0.0
O71 O 0.18308 0.71158 0.26789 0.0
O72 O 0.24635 0.68032 0.24819 0.0
O73 O 0.26777 0.71969 0.2438 0.0
O74 O 0.20619 0.70711 0.22207 0.0
O75 O 0.23948 0.7283 0.19424 0.0
C76 C 0.30433 0.77592 0.19249 0.0
O77 O 0.2774 0.77767 0.18691 0.0
O78 O 0.30803 0.76421 0.21538 0.0
C79 C 0.22385 0.78275 0.2472 0.0
Tb80 Tb 0.21991 0.7251 0.76267 0.0
C81 C 0.2303 0.69322 0.70992 0.0
Tb82 Tb 0.2669 0.74913 0.72931 0.0
O83 O 0.18887 0.73194 0.73044 0.0
O84 O 0.22513 0.76021 0.73618 0.0
O85 O 0.22236 0.68985 0.73478 0.0
C86 C 0.30004 0.77754 0.69635 0.0
O87 O 0.24492 0.71657 0.70247 0.0
C88 C 0.28781 0.7116 0.76163 0.0
C89 C 0.25876 0.77859 0.78434 0.0
O90 O 0.30321 0.77853 0.72223 0.0
O91 O 0.27749 0.76109 0.68873 0.0
O92 O 0.30191 0.72517 0.74379 0.0
O93 O 0.2629 0.71889 0.7596 0.0
O94 O 0.26673 0.78262 0.75962 0.0
O95 O 0.24261 0.75585 0.79073 0.0
C96 C 0.18432 0.70635 0.79875 0.0
O97 O 0.18343 0.72996 0.78651 0.0
O98 O 0.20539 0.69323 0.79084 0.0
C99 C 0.20284 0.75395 0.72123 0.0
Tb100 Tb 0.24024 0.25593 0.72686 0.0
C101 C 0.20695 0.19444 0.7226 0.0
Tb102 Tb 0.26091 0.20678 0.76165 0.0
O103 O 0.27821 0.25539 0.70321 0.0
O104 O 0.2614 0.2194 0.7213 0.0
O105 O 0.20564 0.22215 0.72038 0.0
C106 C 0.29518 0.16711 0.77144 0.0
O107 O 0.22799 0.18346 0.73611 0.0
C108 C 0.22505 0.23585 0.78727 0.0
C109 C 0.28814 0.27016 0.77233 0.0
O110 O 0.30193 0.19037 0.75927 0.0
O111 O 0.2692 0.16643 0.77895 0.0
O112 O 0.23626 0.21408 0.79739 0.0
O113 O 0.23407 0.23863 0.7642 0.0
O114 O 0.29101 0.24273 0.77476 0.0
O115 O 0.26857 0.28013 0.7561 0.0
C116 C 0.20811 0.29204 0.70352 0.0
O117 O 0.22043 0.29564 0.72729 0.0
O118 O 0.21448 0.26858 0.69272 0.0
C119 C 0.28193 0.22924 0.7084 0.0
Tb120 Tb 0.75992 0.25406 0.72216 0.0
C121 C 0.78088 0.26393 0.7821 0.0
Tb122 Tb 0.72988 0.21831 0.76315 0.0
O123 O 0.74632 0.29281 0.73968 0.0
O124 O 0.7213 0.25467 0.74189 0.0
O125 O 0.78801 0.26641 0.75691 0.0
C126 C 0.69591 0.20274 0.80158 0.0
O127 O 0.75828 0.24764 0.78894 0.0
C128 C 0.76612 0.19212 0.7359 0.0
C129 C 0.70986 0.20785 0.70269 0.0
O130 O 0.72151 0.19532 0.79976 0.0
O131 O 0.68956 0.21835 0.78171 0.0
O132 O 0.74424 0.17935 0.74665 0.0
O133 O 0.76851 0.21781 0.74359 0.0
O134 O 0.70297 0.20429 0.72786 0.0
O135 O 0.73181 0.22515 0.69609 0.0
C136 C 0.79197 0.27297 0.68345 0.0
O137 O 0.79833 0.25396 0.70027 0.0
O138 O 0.76739 0.28138 0.68832 0.0
C139 C 0.72409 0.28026 0.74992 0.0
Tb140 Tb 0.74769 0.70903 0.72344 0.0
C141 C 0.78474 0.76672 0.71053 0.0
Tb142 Tb 0.74644 0.76316 0.76233 0.0
O143 O 0.71516 0.72097 0.69324 0.0
O144 O 0.7276 0.74622 0.72601 0.0
O145 O 0.78064 0.73865 0.70648 0.0
C146 C 0.73389 0.8115 0.784 0.0
O147 O 0.7716 0.78028 0.72932 0.0
C148 C 0.7828 0.7276 0.78069 0.0
C149 C 0.70951 0.70547 0.77534 0.0
O150 O 0.75934 0.80396 0.78195 0.0
O151 O 0.71536 0.79175 0.77378 0.0
O152 O 0.77898 0.75147 0.79252 0.0
O153 O 0.76663 0.72593 0.75983 0.0
O154 O 0.71364 0.73353 0.7794 0.0
O155 O 0.72261 0.6919 0.75651 0.0
C156 C 0.75942 0.66071 0.70107 0.0
O157 O 0.73413 0.6685 0.70361 0.0
O158 O 0.77827 0.68015 0.71133 0.0
C159 C 0.71139 0.74476 0.70521 0.0
C160 C 0.92324 0.05574 0.5349 0.0
C161 C 0.94324 0.05457 0.45113 0.0
C162 C 0.94881 0.94122 0.46293 0.0
Mg163 Mg 0.9793 0.05378 0.50462 0.0
O164 O 0.97036 0.01484 0.50791 0.0
Mg165 Mg 0.93165 -0.00065 0.49289 0.0
Mg166 Mg 0.99547 -0.01273 0.49243 0.0
O167 O 0.02038 0.95965 0.47692 0.0
Mg168 Mg 0.01113 0.92065 0.47983 0.0
Mg169 Mg 0.05919 0.97506 0.49176 0.0
C170 C 0.04177 0.03354 0.52169 0.0
C171 C 0.03894 0.02155 0.44903 0.0
O172 O 0.91307 0.03278 0.52209 0.0
O173 O 0.94858 0.06681 0.53186 0.0
O174 O 0.93033 0.03149 0.45856 0.0
O175 O 0.96474 0.06652 0.46491 0.0
O176 O 0.02441 0.0526 0.51754 0.0
O177 O 0.03455 0.00698 0.51723 0.0
C178 C 0.95197 0.9529 0.53573 0.0
O179 O 0.97736 0.95549 0.5269 0.0
O180 O 0.93277 0.96768 0.52624 0.0
O181 O 0.07751 0.94171 0.46232 0.0
O182 O 0.04163 0.90815 0.45206 0.0
O183 O 0.06063 0.94267 0.52582 0.0
C184 C 0.06704 0.91911 0.4491 0.0
O185 O 0.02618 0.90767 0.51951 0.0
O186 O 0.96575 0.92174 0.46691 0.0
C187 C 0.04783 0.91952 0.53322 0.0
O188 O 0.95651 0.96761 0.46769 0.0
O189 O 0.01356 0.01903 0.45788 0.0
O190 O 0.05811 0.00676 0.45853 0.0
C191 C 0.40031 0.02766 0.0104 0.0
C192 C 0.44834 0.03027 0.9378 0.0
C193 C 0.46801 0.92729 0.95844 0.0
Mg194 Mg 0.46345 0.04143 -0.00219 0.0
O195 O 0.46269 0.00225 0.00219 0.0
Mg196 Mg 0.43367 0.97725 0.97966 0.0
Mg197 Mg 0.49662 0.98319 0.99267 0.0
O198 O 0.5302 0.96346 0.98352 0.0
Mg199 Mg 0.52814 0.92418 0.98891 0.0
Mg200 Mg 0.55902 -0.01233 0.00687 0.0
C201 C 0.52431 0.03882 0.02776 0.0
C202 C 0.53687 0.02378 0.95725 0.0
O203 O 0.40052 0.00314 -0.00091 0.0
O204 O 0.42221 0.04571 0.01246 0.0
O205 O 0.43645 0.00627 0.94388 0.0
O206 O 0.46122 0.04731 0.95543 0.0
O207 O 0.5039 0.05365 0.0206 0.0
O208 O 0.5233 0.01228 0.02209 0.0
C209 C 0.45785 0.94151 0.02825 0.0
O210 O 0.48294 0.95171 0.02357 0.0
O211 O 0.43563 0.94819 0.01504 0.0
O212 O 0.59167 0.96106 0.98824 0.0
O213 O 0.56955 0.9187 0.97483 0.0
O214 O 0.55572 0.95844 0.04282 0.0
C215 C 0.59168 0.93649 0.97702 0.0
O216 O 0.52912 0.91842 0.03141 0.0
O217 O 0.48769 0.91189 0.96618 0.0
C218 C 0.54305 0.9348 0.04896 0.0
O219 O 0.46971 0.95393 0.96353 0.0
O220 O 0.5111 0.01502 0.96145 0.0
O221 O 0.55811 0.01601 0.97124 0.0
C222 C 0.92893 0.55845 0.03562 0.0
C223 C 0.94274 0.55154 0.95112 0.0
C224 C 0.95097 0.43799 0.9702 0.0
Mg225 Mg 0.98283 0.55508 0.00309 0.0
O226 O 0.97508 0.51637 0.00763 0.0
Mg227 Mg 0.93589 0.49928 -0.00332 0.0
Mg228 Mg -0.00098 0.48751 0.99274 0.0
O229 O 0.02284 0.45858 0.97789 0.0
Mg230 Mg 0.0147 0.42014 0.98401 0.0
Mg231 Mg 0.06201 0.47568 0.98903 0.0
C232 C 0.04695 0.53708 0.01484 0.0
C233 C 0.03332 0.51522 0.94433 0.0
O234 O 0.91856 0.53497 0.02393 0.0
O235 O 0.9542 0.56926 0.03188 0.0
O236 O 0.93069 0.52835 0.95949 0.0
O237 O 0.96427 0.56453 0.9641 0.0
O238 O 0.0291 0.55582 0.01162 0.0
O239 O 0.03957 0.51032 0.0127 0.0
C240 C 0.96515 0.46048 0.0416 0.0
O241 O 0.98849 0.46254 0.02968 0.0
O242 O 0.94325 0.47224 0.03296 0.0
O243 O 0.07895 0.4398 0.96177 0.0
O244 O 0.04385 0.40451 0.95669 0.0
O245 O 0.06722 0.44668 0.02644 0.0
C246 C 0.06873 0.41549 0.95173 0.0
O247 O 0.03272 0.41139 0.02332 0.0
O248 O 0.96865 0.41918 0.97405 0.0
C249 C 0.05479 0.42408 0.03562 0.0
O250 O 0.95848 0.46471 0.97285 0.0
O251 O 0.00972 0.51265 0.95584 0.0
O252 O 0.05505 0.50325 0.95306 0.0
C253 C 0.42705 0.55526 0.03918 0.0
C254 C 0.44568 0.55507 0.95525 0.0
C255 C 0.45105 0.44087 0.96667 0.0
Mg256 Mg 0.48288 0.55372 0.00832 0.0
O257 O 0.47348 0.51469 0.01086 0.0
Mg258 Mg 0.43451 0.49938 -0.00361 0.0
Mg259 Mg 0.49801 0.48707 -0.00524 0.0
O260 O 0.52272 0.45943 0.97879 0.0
Mg261 Mg 0.51375 0.42052 0.98236 0.0
Mg262 Mg 0.56163 0.47482 -0.00661 0.0
C263 C 0.54506 0.53266 0.02475 0.0
C264 C 0.54087 0.52137 0.95096 0.0
O265 O 0.41654 0.53269 0.02596 0.0
O266 O 0.45248 0.56617 0.03624 0.0
O267 O 0.43298 0.53186 0.96259 0.0
O268 O 0.4674 0.56694 0.96886 0.0
O269 O 0.52828 0.55237 0.02133 0.0
O270 O 0.53722 0.50647 0.01909 0.0
C271 C 0.4552 0.45267 0.03854 0.0
O272 O 0.48042 0.45522 0.02934 0.0
O273 O 0.43591 0.46756 0.02946 0.0
O274 O 0.57961 0.44132 0.96391 0.0
O275 O 0.54387 0.4074 0.95459 0.0
O276 O 0.56352 0.44275 0.02757 0.0
C277 C 0.56917 0.41839 0.95122 0.0
O278 O 0.52911 0.40768 0.0218 0.0
O279 O 0.46835 0.4217 0.97054 0.0
C280 C 0.55084 0.41968 0.03521 0.0
O281 O 0.45859 0.46744 0.9706 0.0
O282 O 0.51563 0.5189 0.96013 0.0
O283 O 0.56012 0.50649 0.96015 0.0
C284 C 0.90136 0.5444 0.50459 0.0
C285 C 0.95603 0.54635 0.43618 0.0
C286 C 0.96699 0.44039 0.45639 0.0
Mg287 Mg 0.96601 0.55507 0.4973 0.0
O288 O 0.96227 0.51547 0.50072 0.0
Mg289 Mg 0.93417 0.49282 0.47526 0.0
Mg290 Mg 0.9954 0.49442 0.49299 0.0
O291 O 0.02872 0.47376 0.48499 0.0
Mg292 Mg 0.02488 0.43466 0.48962 0.0
Mg293 Mg 0.05783 0.49689 0.50905 0.0
C294 C 0.02423 0.5481 0.53043 0.0
C295 C 0.03805 0.53461 0.45985 0.0
O296 O 0.90135 0.52045 0.49217 0.0
O297 O 0.92395 0.56121 0.50928 0.0
O298 O 0.94257 0.52253 0.44051 0.0
O299 O 0.96761 0.56244 0.45521 0.0
O300 O 0.00555 0.56464 0.52262 0.0
O301 O 0.02195 0.52176 0.52385 0.0
C302 C 0.95111 0.4551 0.52536 0.0
O303 O 0.97738 0.46298 0.5226 0.0
O304 O 0.93099 0.46376 0.51044 0.0
O305 O 0.0904 0.46922 0.49079 0.0
O306 O 0.06641 0.4276 0.47757 0.0
O307 O 0.05252 0.46716 0.54452 0.0
C308 C 0.08932 0.44426 0.4801 0.0
O309 O 0.02404 0.42879 0.53168 0.0
O310 O 0.98553 0.4241 0.4649 0.0
C311 C 0.03823 0.44408 0.54987 0.0
O312 O 0.96947 0.46697 0.46195 0.0
O313 O 0.01232 0.52576 0.46356 0.0
O314 O 0.05919 0.52646 0.47371 0.0
C315 C 0.43097 0.05834 0.52904 0.0
C316 C 0.44471 0.0473 0.445 0.0
C317 C 0.44881 0.9345 0.46879 0.0
Mg318 Mg 0.48448 0.05107 0.49662 0.0
O319 O 0.47495 0.01316 0.50417 0.0
Mg320 Mg 0.43552 -0.00282 0.4928 0.0
Mg321 Mg 0.49789 0.98295 0.49047 0.0
O322 O 0.52096 0.95282 0.47662 0.0
Mg323 Mg 0.51197 0.91438 0.48207 0.0
Mg324 Mg 0.56031 0.96901 0.48795 0.0
C325 C 0.54705 0.03147 0.51218 0.0
C326 C 0.53318 0.00776 0.44195 0.0
O327 O 0.41986 0.03419 0.51934 0.0
O328 O 0.45602 0.06845 0.52364 0.0
O329 O 0.43142 0.02556 0.45491 0.0
O330 O 0.46749 0.05924 0.45671 0.0
O331 O 0.53018 0.05073 0.50714 0.0
O332 O 0.53873 0.00488 0.51072 0.0
C333 C 0.462 0.95778 0.53865 0.0
O334 O 0.48581 0.95871 0.52755 0.0
O335 O 0.4411 0.97052 0.52926 0.0
O336 O 0.5769 0.93229 0.46171 0.0
O337 O 0.54062 0.89865 0.45393 0.0
O338 O 0.56401 0.9408 0.52571 0.0
C339 C 0.56615 0.90881 0.45031 0.0
O340 O 0.52961 0.90538 0.5217 0.0
O341 O 0.46588 0.91516 0.47281 0.0
C342 C 0.55128 0.91821 0.53458 0.0
O343 O 0.45712 0.96109 0.47029 0.0
O344 O 0.50963 0.00705 0.45341 0.0
O345 O 0.55434 -0.00469 0.4512 0.0
C346 C 0.18587 0.15815 0.28937 0.0
C347 C 0.18911 0.1879 0.29192 0.0
C348 C 0.16749 0.14161 0.30539 0.0
C349 C 0.12554 0.14403 0.36822 0.0
H350 H 0.09044 0.07231 0.33915 0.0
C351 C 0.04484 0.07068 0.42866 0.0
C352 C 0.04807 0.04151 0.42734 0.0
C353 C 0.05949 0.08966 0.41144 0.0
C354 C 0.10014 0.09214 0.34787 0.0
H355 H 0.17477 0.22313 0.31405 0.0
H356 H 0.14255 0.19457 0.34149 0.0
H357 H 0.12059 0.10238 0.31163 0.0
H358 H 0.06905 0.00984 0.4062 0.0
H359 H 0.09349 0.04214 0.37625 0.0
H360 H 0.10472 0.1336 0.4045 0.0
C361 C 0.15461 0.1838 0.3273 0.0
C362 C 0.11777 0.10958 0.33193 0.0
C363 C 0.17313 0.20039 0.31129 0.0
C364 C 0.06551 0.032 0.40764 0.0
C365 C 0.07971 0.05072 0.39033 0.0
C366 C 0.10771 0.12659 0.38416 0.0
C367 C 0.15128 0.15397 0.32469 0.0
C368 C 0.13125 0.1358 0.34178 0.0
C369 C 0.07755 0.08006 0.39212 0.0
C370 C 0.09492 0.10006 0.37446 0.0
H371 H 0.19776 0.1474 0.27501 0.0
H372 H 0.16643 0.11889 0.30278 0.0
H373 H 0.13545 0.16373 0.37704 0.0
H374 H 0.03221 0.07902 0.4439 0.0
H375 H 0.05692 0.11197 0.41353 0.0
C376 C 0.83086 0.18126 0.26787 0.0
C377 C 0.80636 0.19425 0.27375 0.0
C378 C 0.8441 0.16482 0.28675 0.0
C379 C 0.85485 0.15497 0.35909 0.0
H380 H 0.88295 0.08447 0.33691 0.0
C381 C 0.93618 0.0987 0.42538 0.0
C382 C 0.9303 0.06939 0.42813 0.0
C383 C 0.92067 0.11333 0.40639 0.0
C384 C 0.87519 0.10405 0.34351 0.0
H385 H 0.77651 0.20025 0.30423 0.0
H386 H 0.80002 0.17164 0.33772 0.0
H387 H 0.85489 0.11012 0.30496 0.0
H388 H 0.90405 0.03246 0.41209 0.0
H389 H 0.87761 0.0578 0.37869 0.0
H390 H 0.8755 0.14902 0.3976 0.0
C391 C 0.80881 0.17409 0.31825 0.0
C392 C 0.85918 0.11885 0.32513 0.0
C393 C 0.7952 0.19026 0.29905 0.0
C394 C 0.90928 0.05499 0.41057 0.0
C395 C 0.89407 0.06955 0.39137 0.0
C396 C 0.87121 0.14033 0.37741 0.0
C397 C 0.83351 0.1612 0.31231 0.0
C398 C 0.84889 0.14458 0.33259 0.0
C399 C 0.89913 0.09901 0.38935 0.0
C400 C 0.88171 0.11471 0.36984 0.0
H401 H 0.84008 0.18403 0.24861 0.0
H402 H 0.8632 0.15556 0.28154 0.0
H403 H 0.84748 0.17481 0.36548 0.0
H404 H 0.95202 0.11059 0.43863 0.0
H405 H 0.92543 0.13595 0.40517 0.0
C406 C 0.82519 0.80481 0.28754 0.0
C407 C 0.79587 0.80432 0.28153 0.0
C408 C 0.83864 0.82384 0.30686 0.0
C409 C 0.8308 0.88747 0.34946 0.0
H410 H 0.88346 0.85216 0.39702 0.0
C411 C 0.91175 0.94753 0.42686 0.0
C412 C 0.92112 0.93253 0.44899 0.0
C413 C 0.89105 0.93473 0.40828 0.0
C414 C 0.86846 0.86232 0.3843 0.0
H415 H 0.7579 0.82444 0.29003 0.0
H416 H 0.78136 0.85735 0.32419 0.0
H417 H 0.85983 0.82527 0.35934 0.0
H418 H 0.91386 0.89422 0.47111 0.0
H419 H 0.87674 0.87251 0.43962 0.0
H420 H 0.83936 0.92454 0.37498 0.0
C421 C 0.79402 0.84329 0.3137 0.0
C422 C 0.85531 0.84699 0.36228 0.0
C423 C 0.78059 0.8244 0.29411 0.0
C424 C 0.90719 0.90605 0.454 0.0
C425 C 0.88617 0.89353 0.43579 0.0
C426 C 0.84401 0.90291 0.37168 0.0
C427 C 0.82303 0.84256 0.32091 0.0
C428 C 0.83659 0.85941 0.34438 0.0
C429 C 0.87919 0.90693 0.41183 0.0
C430 C 0.8631 0.89049 0.38932 0.0
H431 H 0.83761 0.78982 0.27798 0.0
H432 H 0.86118 0.82325 0.31143 0.0
H433 H 0.81647 0.89764 0.33603 0.0
H434 H 0.92229 0.96797 0.42253 0.0
H435 H 0.88616 0.94573 0.39012 0.0
C436 C 0.20362 0.82498 0.26703 0.0
C437 C 0.20652 0.79584 0.26737 0.0
C438 C 0.18897 0.83814 0.28681 0.0
C439 C 0.13885 0.8224 0.3416 0.0
H440 H 0.16212 0.90017 0.36328 0.0
C441 C 0.11359 0.91253 0.42763 0.0
C442 C 0.08422 0.90532 0.42907 0.0
C443 C 0.12921 0.89917 0.40863 0.0
C444 C 0.15544 0.87834 0.3578 0.0
H445 H 0.19745 0.75824 0.28977 0.0
H446 H 0.17226 0.78069 0.32429 0.0
H447 H 0.18794 0.87687 0.32972 0.0
H448 H 0.04837 0.87858 0.41093 0.0
H449 H 0.07504 0.85624 0.37774 0.0
H450 H 0.10712 0.82343 0.37041 0.0
C451 C 0.18026 0.79344 0.3082 0.0
C452 C 0.17006 0.865 0.33807 0.0
C453 C 0.19463 0.7803 0.28819 0.0
C454 C 0.07098 0.88459 0.41079 0.0
C455 C 0.08644 0.8715 0.39172 0.0
C456 C 0.12443 0.83562 0.36149 0.0
C457 C 0.17717 0.82265 0.3079 0.0
C458 C 0.16188 0.83684 0.32944 0.0
C459 C 0.11588 0.87837 0.39033 0.0
C460 C 0.13225 0.86394 0.36978 0.0
H461 H 0.21269 0.83768 0.25136 0.0
H462 H 0.1868 0.86051 0.28537 0.0
H463 H 0.13151 0.80087 0.33553 0.0
H464 H 0.1246 0.92832 0.44136 0.0
H465 H 0.15184 0.90493 0.40859 0.0
C466 C 0.16524 0.76092 0.6858 0.0
C467 C 0.18997 0.77191 0.70071 0.0
C468 C 0.15096 0.7776 0.66787 0.0
C469 C 0.14109 0.85218 0.65219 0.0
H470 H 0.10439 0.81827 0.5865 0.0
C471 C 0.08536 0.91727 0.57072 0.0
C472 C 0.06113 0.90451 0.556 0.0
C473 C 0.10074 0.90197 0.5892 0.0
C474 C 0.11411 0.82806 0.60493 0.0
H475 H 0.21949 0.80911 0.70791 0.0
H476 H 0.19457 0.83851 0.67625 0.0
H477 H 0.13334 0.79053 0.61541 0.0
H478 H 0.03359 0.86562 0.55041 0.0
H479 H 0.06007 0.83911 0.58289 0.0
H480 H 0.12179 0.88977 0.6416 0.0
C481 C 0.18604 0.81689 0.67874 0.0
C482 C 0.13089 0.81211 0.62156 0.0
C483 C 0.2005 0.80001 0.69673 0.0
C484 C 0.05208 0.87626 0.56126 0.0
C485 C 0.06753 0.86091 0.57973 0.0
C486 C 0.12428 0.86819 0.6355 0.0
C487 C 0.16089 0.80594 0.66415 0.0
C488 C 0.14447 0.82378 0.6456 0.0
C489 C 0.09247 0.87334 0.59359 0.0
C490 C 0.11033 0.85632 0.61167 0.0
H491 H 0.15651 0.73935 0.68832 0.0
H492 H 0.13157 0.76836 0.65745 0.0
H493 H 0.15082 0.8619 0.67064 0.0
H494 H 0.09313 0.93894 0.56731 0.0
H495 H 0.11983 0.91236 0.59923 0.0
C496 C 0.18674 0.14564 0.70793 0.0
C497 C 0.18671 0.17507 0.70581 0.0
C498 C 0.17163 0.12735 0.68883 0.0
C499 C 0.11702 0.12513 0.63215 0.0
H500 H 0.15481 0.06136 0.60675 0.0
C501 C 0.08037 0.0711 0.53343 0.0
C502 C 0.06893 0.04311 0.53627 0.0
C503 C 0.09893 0.08437 0.55335 0.0
C504 C 0.14408 0.07905 0.61377 0.0
H505 H 0.16965 0.20826 0.68259 0.0
H506 H 0.14394 0.17662 0.64922 0.0
H507 H 0.17592 0.09039 0.64515 0.0
H508 H 0.07072 0.00589 0.56027 0.0
H509 H 0.10373 0.02922 0.59517 0.0
H510 H 0.08577 0.11438 0.60024 0.0
C511 C 0.15519 0.16748 0.6658 0.0
C512 C 0.15595 0.09555 0.63586 0.0
C513 C 0.17004 0.18572 0.685 0.0
C514 C 0.07928 0.02748 0.55758 0.0
C515 C 0.09801 0.04085 0.57761 0.0
C516 C 0.10548 0.10898 0.60994 0.0
C517 C 0.15631 0.13807 0.6671 0.0
C518 C 0.1427 0.11903 0.6451 0.0
C519 C 0.1065 0.06984 0.57635 0.0
C520 C 0.11908 0.08607 0.60032 0.0
H521 H 0.19924 0.13671 0.72381 0.0
H522 H 0.17246 0.10482 0.69081 0.0
H523 H 0.10582 0.14253 0.63906 0.0
H524 H 0.07297 0.08352 0.51702 0.0
H525 H 0.10566 0.10663 0.55175 0.0
C526 C 0.80925 0.19052 0.70825 0.0
C527 C 0.7822 0.17902 0.7148 0.0
C528 C 0.82393 0.17763 0.68825 0.0
C529 C 0.82608 0.10888 0.65069 0.0
H530 H 0.87112 0.15417 0.60224 0.0
C531 C 0.87828 0.05855 0.56012 0.0
C532 C 0.90571 0.06996 0.55436 0.0
C533 C 0.86256 0.07193 0.57901 0.0
C534 C 0.8589 0.1411 0.61574 0.0
H535 H 0.74933 0.14499 0.70541 0.0
H536 H 0.77461 0.1227 0.67068 0.0
H537 H 0.84577 0.1773 0.63643 0.0
H538 H 0.93781 0.10475 0.56427 0.0
H539 H 0.9108 0.12759 0.59699 0.0
H540 H 0.83928 0.07269 0.63008 0.0
C541 C 0.78484 0.14144 0.68109 0.0
C542 C 0.84432 0.15445 0.63546 0.0
C543 C 0.77024 0.15431 0.701 0.0
C544 C 0.91678 0.09522 0.56794 0.0
C545 C 0.90112 0.10854 0.58672 0.0
C546 C 0.84066 0.09554 0.63098 0.0
C547 C 0.81199 0.15278 0.67441 0.0
C548 C 0.82769 0.13857 0.6533 0.0
C549 C 0.87377 0.09715 0.59265 0.0
C550 C 0.8574 0.11141 0.61322 0.0
H551 H 0.81931 0.20915 0.71894 0.0
H552 H 0.84493 0.18685 0.68405 0.0
H553 H 0.81393 0.09581 0.66424 0.0
H554 H 0.86896 0.0392 0.55013 0.0
H555 H 0.84148 0.0626 0.58274 0.0
C556 C 0.82092 0.77193 0.67395 0.0
C557 C 0.80448 0.78428 0.69302 0.0
C558 C 0.83923 0.7887 0.65787 0.0
C559 C 0.87437 0.86358 0.6527 0.0
H560 H 0.88871 0.83935 0.58051 0.0
C561 C 0.9247 0.9418 0.5766 0.0
C562 C 0.94288 0.93277 0.55732 0.0
C563 C 0.91087 0.9228 0.5939 0.0
C564 C 0.88533 0.84643 0.60075 0.0
H565 H 0.79472 0.82471 0.70926 0.0
H566 H 0.82562 0.85347 0.68138 0.0
H567 H 0.85853 0.80869 0.60805 0.0
H568 H 0.96048 0.89585 0.54152 0.0
H569 H 0.93635 0.86242 0.57186 0.0
H570 H 0.90072 0.90145 0.64529 0.0
C571 C 0.82514 0.83076 0.67908 0.0
C572 C 0.86784 0.82868 0.61673 0.0
C573 C 0.807 0.81406 0.69516 0.0
C574 C 0.94721 0.90383 0.55641 0.0
C575 C 0.93292 0.88456 0.57361 0.0
C576 C 0.89164 0.88132 0.63672 0.0
C577 C 0.84186 0.81857 0.66012 0.0
C578 C 0.86165 0.83699 0.64302 0.0
C579 C 0.91416 0.89366 0.59254 0.0
C580 C 0.89728 0.87334 0.61026 0.0
H581 H 0.81982 0.74918 0.6715 0.0
H582 H 0.85168 0.77808 0.64393 0.0
H583 H 0.87119 0.87088 0.6729 0.0
H584 H 0.92035 0.96375 0.57775 0.0
H585 H 0.89653 0.93099 0.60767 0.0
C586 C 0.2458 0.1223 0.16728 0.0
C587 C 0.26693 0.13686 0.18445 0.0
C588 C 0.25301 0.10239 0.14849 0.0
C589 C 0.30862 0.05872 0.12816 0.0
H590 H 0.29064 0.08318 0.05617 0.0
C591 C 0.36955 0.06262 0.02827 0.0
C592 C 0.37493 0.03438 0.02412 0.0
C593 C 0.34853 0.06939 0.04516 0.0
C594 C 0.29532 0.07576 0.07611 0.0
H595 H 0.31158 0.14071 0.1971 0.0
H596 H 0.32416 0.10546 0.16449 0.0
H597 H 0.2686 0.10381 0.09422 0.0
H598 H 0.36171 -0.00907 0.03319 0.0
H599 H 0.32539 0.00297 0.0635 0.0
H600 H 0.33635 0.03162 0.11011 0.0
C601 C 0.30211 0.10954 0.16546 0.0
C602 C 0.28268 0.08742 0.09783 0.0
C603 C 0.29498 0.12977 0.18398 0.0
C604 C 0.35788 0.01288 0.03596 0.0
C605 C 0.33723 0.01971 0.05334 0.0
C606 C 0.32089 0.0467 0.10638 0.0
C607 C 0.28134 0.09643 0.14697 0.0
C608 C 0.29004 0.07975 0.12409 0.0
C609 C 0.33291 0.04805 0.05853 0.0
C610 C 0.31512 0.05592 0.08033 0.0
H611 H 0.22398 0.12739 0.16734 0.0
H612 H 0.23667 0.09246 0.13446 0.0
H613 H 0.31456 0.05251 0.14826 0.0
H614 H 0.38234 0.07955 0.01929 0.0
H615 H 0.34573 0.09142 0.04907 0.0
C616 C 0.8434 0.27923 0.15548 0.0
C617 C 0.82216 0.29303 0.1675 0.0
C618 C 0.86721 0.29482 0.14643 0.0
C619 C 0.90723 0.36496 0.15572 0.0
H620 H 0.93247 0.35039 0.08463 0.0
C621 C 0.94291 0.4482 0.08413 0.0
C622 C 0.96254 0.44273 0.0651 0.0
C623 C 0.93643 0.42863 0.10364 0.0
C624 C 0.92637 0.35424 0.10489 0.0
H625 H 0.80807 0.33363 0.17828 0.0
H626 H 0.84915 0.36096 0.16161 0.0
H627 H 0.89744 0.31701 0.10338 0.0
H628 H 0.99239 0.41386 0.05271 0.0
H629 H 0.98073 0.37925 0.08663 0.0
H630 H 0.93465 0.40333 0.15627 0.0
C631 C 0.84795 0.33813 0.15998 0.0
C632 C 0.90617 0.3352 0.11555 0.0
C633 C 0.82424 0.32257 0.16909 0.0
C634 C 0.97731 0.41856 0.06722 0.0
C635 C 0.9706 0.39876 0.08656 0.0
C636 C 0.92732 0.38407 0.145 0.0
C637 C 0.87001 0.32438 0.14925 0.0
C638 C 0.89538 0.34117 0.14046 0.0
C639 C 0.94923 0.40315 0.10417 0.0
C640 C 0.93592 0.37953 0.11895 0.0
H641 H 0.84228 0.25639 0.15423 0.0
H642 H 0.88384 0.28373 0.13809 0.0
H643 H 0.89981 0.36958 0.17535 0.0
H644 H 0.93149 0.46689 0.08308 0.0
H645 H 0.91964 0.43241 0.11682 0.0
C646 C 0.67248 0.83395 0.2045 0.0
C647 C 0.6656 0.80743 0.21526 0.0
C648 C 0.65106 0.85092 0.19706 0.0
C649 C 0.60023 0.88593 0.18996 0.0
H650 H 0.55363 0.84561 0.1328 0.0
C651 C 0.5682 0.93815 0.09416 0.0
C652 C 0.54605 0.92561 0.07686 0.0
C653 C 0.57393 0.92679 0.11909 0.0
C654 C 0.56555 0.85728 0.1492 0.0
H655 H 0.63143 0.77826 0.22814 0.0
H656 H 0.59374 0.80765 0.21413 0.0
H657 H 0.58117 0.81958 0.16405 0.0
H658 H 0.51072 0.89326 0.07322 0.0
H659 H 0.51971 0.87424 0.11731 0.0
H660 H 0.58524 0.92377 0.17472 0.0
C661 C 0.61568 0.8154 0.21183 0.0
C662 C 0.58149 0.84224 0.1671 0.0
C663 C 0.63717 0.79862 0.21969 0.0
C664 C 0.52818 0.90308 0.08596 0.0
C665 C 0.53348 0.8921 0.1112 0.0
C666 C 0.5838 0.901 0.17238 0.0
C667 C 0.62245 0.84142 0.19995 0.0
C668 C 0.60009 0.85657 0.18666 0.0
C669 C 0.55729 0.90294 0.12754 0.0
C670 C 0.56762 0.88699 0.15077 0.0
H671 H 0.6943 0.84121 0.20109 0.0
H672 H 0.65675 0.87073 0.18757 0.0
H673 H 0.61423 0.89735 0.20517 0.0
H674 H 0.58228 0.95567 0.08781 0.0
H675 H 0.59267 0.93563 0.13079 0.0
C676 C 0.18741 0.6675 0.18037 0.0
C677 C 0.20359 0.69293 0.17541 0.0
C678 C 0.17682 0.64918 0.15923 0.0
C679 C 0.15235 0.64709 0.08978 0.0
H680 H 0.16184 0.56706 0.09234 0.0
C681 C 0.08909 0.57199 0.01384 0.0
C682 C 0.07592 0.54753 0.02463 0.0
C683 C 0.11191 0.58742 0.02788 0.0
C684 C 0.1588 0.58929 0.09133 0.0
H685 H 0.22111 0.71919 0.1443 0.0
H686 H 0.20151 0.68745 0.10713 0.0
H687 H 0.18639 0.59956 0.12632 0.0
H688 H 0.0774 0.51867 0.05735 0.0
H689 H 0.11633 0.54602 0.08254 0.0
H690 H 0.12331 0.63708 0.05619 0.0
C691 C 0.19749 0.68168 0.12752 0.0
C692 C 0.173 0.60789 0.11074 0.0
C693 C 0.20861 0.69982 0.14875 0.0
C694 C 0.08745 0.53735 0.04851 0.0
C695 C 0.10983 0.55317 0.06296 0.0
C696 C 0.13774 0.62849 0.07068 0.0
C697 C 0.18176 0.65607 0.13263 0.0
C698 C 0.16946 0.63687 0.11041 0.0
C699 C 0.12142 0.57919 0.05345 0.0
C700 C 0.14029 0.5992 0.07146 0.0
H701 H 0.1834 0.66137 0.20067 0.0
H702 H 0.16445 0.62972 0.16368 0.0
H703 H 0.14908 0.66932 0.08924 0.0
H704 H 0.08058 0.58014 -0.00468 0.0
H705 H 0.12093 0.60671 0.01936 0.0
C706 C 0.28514 0.82458 0.79999 0.0
C707 C 0.271 0.7984 0.806 0.0
C708 C 0.30092 0.84102 0.82008 0.0
C709 C 0.34537 0.83028 0.87782 0.0
H710 H 0.34584 0.91044 0.89369 0.0
C711 C 0.43138 0.88635 0.95062 0.0
C712 C 0.44189 0.91383 0.94456 0.0
C713 C 0.40682 0.87355 0.93707 0.0
C714 C 0.34626 0.88811 0.88928 0.0
H715 H 0.26087 0.76977 0.83807 0.0
H716 H 0.28901 0.79821 0.87288 0.0
H717 H 0.3085 0.88673 0.8633 0.0
H718 H 0.43502 0.9497 0.91996 0.0
H719 H 0.39327 0.92694 0.89513 0.0
H720 H 0.38389 0.83153 0.90194 0.0
C721 C 0.28766 0.80601 0.85269 0.0
C722 C 0.32471 0.87457 0.87207 0.0
C723 C 0.27152 0.78982 0.83275 0.0
C724 C 0.42725 0.92847 0.92502 0.0
C725 C 0.40312 0.91545 0.91097 0.0
C726 C 0.36721 0.84386 0.89448 0.0
C727 C 0.30312 0.83131 0.84635 0.0
C728 C 0.32423 0.84558 0.86614 0.0
C729 C 0.39266 0.88768 0.91663 0.0
C730 C 0.36815 0.87303 0.90032 0.0
H731 H 0.28502 0.83182 0.77959 0.0
H732 H 0.31282 0.86043 0.81474 0.0
H733 H 0.34567 0.80796 0.87315 0.0
H734 H 0.44202 0.87484 0.96601 0.0
H735 H 0.39907 0.85249 0.9426 0.0
C736 C 0.19261 0.24522 0.82362 0.0
C737 C 0.20785 0.25511 0.80188 0.0
C738 C 0.17785 0.2635 0.83887 0.0
C739 C 0.15224 0.33627 0.84029 0.0
H740 H 0.14504 0.32007 0.91544 0.0
C741 C 0.10813 0.4119 0.91975 0.0
C742 C 0.08616 0.39887 0.93435 0.0
C743 C 0.12377 0.39572 0.903 0.0
C744 C 0.14686 0.32487 0.89447 0.0
H745 H 0.21993 0.29209 0.77932 0.0
H746 H 0.19516 0.32434 0.80632 0.0
H747 H 0.17066 0.28969 0.88755 0.0
H748 H 0.06388 0.35849 0.94302 0.0
H749 H 0.09159 0.33049 0.91463 0.0
H750 H 0.12904 0.37218 0.84791 0.0
C751 C 0.19361 0.30224 0.81121 0.0
C752 C 0.16135 0.30724 0.87828 0.0
C753 C 0.20791 0.28373 0.79561 0.0
C754 C 0.08053 0.36931 0.93203 0.0
C755 C 0.0965 0.35319 0.91584 0.0
C756 C 0.13818 0.35425 0.85669 0.0
C757 C 0.17849 0.29249 0.8333 0.0
C758 C 0.16391 0.31229 0.85076 0.0
C759 C 0.11823 0.36614 0.90104 0.0
C760 C 0.13497 0.34849 0.88388 0.0
H761 H 0.1921 0.22323 0.82889 0.0
H762 H 0.16592 0.25473 0.85509 0.0
H763 H 0.15332 0.34089 0.81924 0.0
H764 H 0.11296 0.4346 0.92098 0.0
H765 H 0.14047 0.40628 0.89189 0.0
C766 C 0.68353 0.17426 0.84103 0.0
C767 C 0.676 0.19336 0.82162 0.0
C768 C 0.66331 0.16297 0.85804 0.0
C769 C 0.58813 0.14298 0.85684 0.0
H770 H 0.6058 0.12347 0.93037 0.0
C771 C 0.52763 0.06867 0.93522 0.0
C772 C 0.54284 0.04473 0.93687 0.0
C773 C 0.53748 0.09149 0.92009 0.0
C774 C 0.6004 0.12932 0.91002 0.0
H775 H 0.64235 0.21723 0.8056 0.0
H776 H 0.60687 0.1972 0.83526 0.0
H777 H 0.6375 0.15832 0.90869 0.0
H778 H 0.57883 0.0247 0.92293 0.0
H779 H 0.59598 0.06458 0.8964 0.0
H780 H 0.55192 0.11245 0.85788 0.0
C781 C 0.62825 0.19085 0.83721 0.0
C782 C 0.61851 0.14902 0.89763 0.0
C783 C 0.64851 0.20223 0.82031 0.0
C784 C 0.5668 0.04299 0.92186 0.0
C785 C 0.57654 0.06564 0.90674 0.0
C786 C 0.57001 0.12318 0.86928 0.0
C787 C 0.63532 0.17065 0.85577 0.0
C788 C 0.61314 0.15512 0.87062 0.0
C789 C 0.5625 0.09029 0.90658 0.0
C790 C 0.57672 0.11561 0.89557 0.0
H791 H 0.70466 0.16723 0.84239 0.0
H792 H 0.6692 0.14714 0.87198 0.0
H793 H 0.58368 0.14718 0.8359 0.0
H794 H 0.50964 0.07075 0.94728 0.0
H795 H 0.52669 0.1106 0.9203 0.0
C796 C 0.82503 0.71702 0.80894 0.0
C797 C 0.80179 0.70694 0.79169 0.0
C798 C 0.84129 0.69845 0.82285 0.0
C799 C 0.85515 0.62208 0.82949 0.0
H800 H 0.88497 0.6497 0.89996 0.0
C801 C 0.9047 0.55329 0.91356 0.0
C802 C 0.92944 0.56568 0.92776 0.0
C803 C 0.89001 0.56855 0.89439 0.0
C804 C 0.87705 0.64169 0.88025 0.0
H805 H 0.77769 0.66922 0.77496 0.0
H806 H 0.80551 0.63639 0.80009 0.0
H807 H 0.85734 0.67933 0.87213 0.0
H808 H 0.95871 0.60363 0.93153 0.0
H809 H 0.93301 0.63005 0.89864 0.0
H810 H 0.87425 0.58378 0.83862 0.0
C811 C 0.81169 0.65881 0.80243 0.0
C812 C 0.86123 0.65883 0.86404 0.0
C813 C 0.79566 0.6776 0.78796 0.0
C814 C 0.93971 0.59328 0.92127 0.0
C815 C 0.92486 0.60859 0.90245 0.0
C816 C 0.87069 0.60467 0.84601 0.0
C817 C 0.83441 0.669 0.82065 0.0
C818 C 0.85037 0.64963 0.83815 0.0
C819 C 0.89946 0.59671 0.88918 0.0
C820 C 0.8822 0.61445 0.87147 0.0
H821 H 0.83043 0.73953 0.81208 0.0
H822 H 0.85912 0.7074 0.8357 0.0
H823 H 0.84739 0.61409 0.80975 0.0
H824 H 0.8961 0.53211 0.91791 0.0
H825 H 0.87053 0.55875 0.88456 0.0
C826 C 0.17132 0.25847 0.17548 0.0
C827 C 0.19393 0.26727 0.19402 0.0
C828 C 0.15524 0.27809 0.16279 0.0
C829 C 0.15934 0.35001 0.13879 0.0
H830 H 0.07723 0.33792 0.13238 0.0
C831 C 0.09275 0.42279 0.07331 0.0
C832 C 0.06816 0.41018 0.05913 0.0
C833 C 0.10715 0.408 0.09307 0.0
C834 C 0.10014 0.34155 0.13351 0.0
H835 H 0.21751 0.30379 0.21373 0.0
H836 H 0.18972 0.33846 0.19083 0.0
H837 H 0.10403 0.30737 0.16036 0.0
H838 H 0.03923 0.37205 0.05546 0.0
H839 H 0.06443 0.34625 0.08877 0.0
H840 H 0.15577 0.38317 0.11088 0.0
C841 C 0.18423 0.31616 0.18651 0.0
C842 C 0.11553 0.32406 0.14986 0.0
C843 C 0.19999 0.29634 0.19979 0.0
C844 C 0.05797 0.38268 0.06592 0.0
C845 C 0.0725 0.3678 0.08535 0.0
C846 C 0.14397 0.36725 0.12201 0.0
C847 C 0.16169 0.30723 0.16775 0.0
C848 C 0.14535 0.3278 0.15249 0.0
C849 C 0.0976 0.37999 0.09911 0.0
C850 C 0.11406 0.36307 0.11872 0.0
H851 H 0.16623 0.23624 0.17047 0.0
H852 H 0.13827 0.27043 0.14833 0.0
H853 H 0.1823 0.35332 0.14013 0.0
H854 H 0.10129 0.44393 0.06878 0.0
H855 H 0.12595 0.41856 0.10342 0.0
C856 C 0.13556 0.70436 0.81498 0.0
C857 C 0.16274 0.69472 0.81628 0.0
C858 C 0.11395 0.69096 0.82931 0.0
C859 C 0.09972 0.64692 0.88596 0.0
H860 H 0.04238 0.60201 0.84084 0.0
C861 C 0.06215 0.537 0.90876 0.0
C862 C 0.03698 0.5353 0.9225 0.0
C863 C 0.06909 0.56007 0.89305 0.0
C864 C 0.05768 0.61508 0.85369 0.0
H865 H 0.18937 0.66483 0.83424 0.0
H866 H 0.15179 0.64194 0.86006 0.0
H867 H 0.07242 0.64024 0.82129 0.0
H868 H -0.00222 0.55446 0.92775 0.0
H869 H 0.01051 0.59548 0.90071 0.0
H870 H 0.08642 0.62056 0.91789 0.0
C871 C 0.14715 0.65962 0.84779 0.0
C872 C 0.07476 0.63683 0.84262 0.0
C873 C 0.16852 0.67254 0.83301 0.0
C874 C 0.01753 0.55555 0.91788 0.0
C875 C 0.02465 0.57888 0.90232 0.0
C876 C 0.08252 0.62549 0.89702 0.0
C877 C 0.11963 0.66837 0.84559 0.0
C878 C 0.09675 0.65186 0.85848 0.0
C879 C 0.05101 0.58168 0.89083 0.0
C880 C 0.06238 0.60869 0.88066 0.0
H881 H 0.13071 0.72142 0.80201 0.0
H882 H 0.09277 0.69781 0.82732 0.0
H883 H 0.11662 0.65832 0.89842 0.0
H884 H 0.07736 0.52151 0.9115 0.0
H885 H 0.08954 0.56204 0.88414 0.0
C886 C 0.34016 0.14629 0.7631 0.0
C887 C 0.31448 0.14516 0.77599 0.0
C888 C 0.35985 0.127 0.76915 0.0
C889 C 0.37029 0.06218 0.80765 0.0
H890 H 0.44413 0.1015 0.82704 0.0
C891 C 0.44912 0.0673 0.90328 0.0
C892 C 0.44596 0.0387 0.90968 0.0
C893 C 0.44161 0.07552 0.87747 0.0
C894 C 0.42375 0.09007 0.82151 0.0
H895 H 0.28824 0.12236 0.80394 0.0
H896 H 0.32292 0.08929 0.8154 0.0
H897 H 0.41049 0.12403 0.7983 0.0
H898 H 0.43641 -0.00401 0.89343 0.0
H899 H 0.424 0.0103 0.84819 0.0
H900 H 0.38222 0.02959 0.83314 0.0
C901 C 0.32779 0.10453 0.80016 0.0
C902 C 0.40453 0.10284 0.80474 0.0
C903 C 0.30801 0.12365 0.79389 0.0
C904 C 0.43823 0.01828 0.8892 0.0
C905 C 0.43116 0.02647 0.86328 0.0
C906 C 0.38933 0.04959 0.82471 0.0
C907 C 0.35424 0.10645 0.78838 0.0
C908 C 0.37698 0.08972 0.79902 0.0
C909 C 0.4312 0.05523 0.85752 0.0
C910 C 0.41559 0.0642 0.83315 0.0
H911 H 0.34533 0.1625 0.74881 0.0
H912 H 0.37982 0.12876 0.75946 0.0
H913 H 0.3495 0.05122 0.80294 0.0
H914 H 0.45542 0.08347 0.91861 0.0
H915 H 0.4418 0.09789 0.87392 0.0
C916 C 0.79585 0.2767 0.83016 0.0
C917 C 0.79669 0.28277 0.80283 0.0
C918 C 0.80897 0.2959 0.84968 0.0
C919 C 0.82532 0.34548 0.88848 0.0
H920 H 0.89365 0.39159 0.8721 0.0
C921 C 0.91161 0.44139 0.93569 0.0
C922 C 0.92274 0.42783 0.95801 0.0
C923 C 0.89062 0.42702 0.91839 0.0
C924 C 0.87428 0.37922 0.8768 0.0
H925 H 0.81127 0.31406 0.77456 0.0
H926 H 0.83299 0.34781 0.80829 0.0
H927 H 0.87082 0.35817 0.8385 0.0
H928 H 0.91856 0.39015 0.98152 0.0
H929 H 0.88121 0.36551 0.95186 0.0
H930 H 0.8303 0.36561 0.92762 0.0
C931 C 0.82333 0.32785 0.81489 0.0
C932 C 0.86109 0.35999 0.8575 0.0
C933 C 0.81079 0.30844 0.79543 0.0
C934 C 0.91029 0.40105 0.96443 0.0
C935 C 0.88894 0.38695 0.94745 0.0
C936 C 0.83892 0.36438 0.90802 0.0
C937 C 0.82269 0.32191 0.84234 0.0
C938 C 0.83644 0.34273 0.86302 0.0
C939 C 0.88005 0.39919 0.92353 0.0
C940 C 0.86356 0.38139 0.90234 0.0
H941 H 0.78505 0.25711 0.83646 0.0
H942 H 0.80843 0.29022 0.87051 0.0
H943 H 0.8061 0.33305 0.89342 0.0
H944 H 0.92098 0.46193 0.93018 0.0
H945 H 0.88392 0.43697 0.90013 0.0
C946 C 0.7481 0.85045 0.81727 0.0
C947 C 0.72705 0.83594 0.79999 0.0
C948 C 0.74069 0.86981 0.83647 0.0
C949 C 0.6847 0.91171 0.85873 0.0
H950 H 0.70123 0.88242 0.92918 0.0
C951 C 0.62154 0.90179 0.95705 0.0
C952 C 0.61701 0.92991 0.96314 0.0
C953 C 0.64267 0.89575 0.93998 0.0
C954 C 0.69697 0.89117 0.9097 0.0
H955 H 0.68241 0.83188 0.78731 0.0
H956 H 0.66948 0.86624 0.82061 0.0
H957 H 0.72414 0.86452 0.89034 0.0
H958 H 0.63186 0.97377 0.95728 0.0
H959 H 0.66828 0.96304 0.92672 0.0
H960 H 0.65656 0.93746 0.87799 0.0
C961 C 0.69161 0.8625 0.81945 0.0
C962 C 0.71011 0.88109 0.88757 0.0
C963 C 0.69893 0.84278 0.80055 0.0
C964 C 0.63497 0.95187 0.95303 0.0
C965 C 0.65571 0.94582 0.93551 0.0
C966 C 0.67196 0.92218 0.88097 0.0
C967 C 0.71226 0.87527 0.83822 0.0
C968 C 0.70327 0.89055 0.86181 0.0
C969 C 0.65921 0.91775 0.92839 0.0
C970 C 0.67724 0.9112 0.90641 0.0
H971 H 0.76998 0.84554 0.81713 0.0
H972 H 0.75692 0.87951 0.85075 0.0
H973 H 0.67911 0.91919 0.83901 0.0
H974 H 0.60804 0.88449 0.96464 0.0
H975 H 0.6449 0.87392 0.93453 0.0
C976 C 0.80933 0.71318 0.18742 0.0
C977 C 0.78015 0.71419 0.18148 0.0
C978 C 0.82502 0.69526 0.17253 0.0
C979 C 0.82107 0.65258 0.10772 0.0
H980 H 0.88641 0.62065 0.14052 0.0
C981 C 0.88147 0.56885 0.05273 0.0
C982 C 0.91126 0.57401 0.05381 0.0
C983 C 0.86505 0.58474 0.06894 0.0
C984 C 0.86827 0.62949 0.13102 0.0
H985 H 0.74438 0.69674 0.15568 0.0
H986 H 0.77114 0.66491 0.13048 0.0
H987 H 0.85874 0.65019 0.16753 0.0
H988 H 0.947 0.5996 0.07352 0.0
H989 H 0.91849 0.62676 0.10195 0.0
H990 H 0.83042 0.63129 0.07135 0.0
C991 C 0.78244 0.67851 0.14594 0.0
C992 C 0.85241 0.64665 0.1465 0.0
C993 C 0.76694 0.69672 0.16054 0.0
C994 C 0.92415 0.59503 0.072 0.0
C995 C 0.90779 0.61055 0.08848 0.0
C996 C 0.83669 0.6351 0.09238 0.0
C997 C 0.81185 0.67761 0.15146 0.0
C998 C 0.82861 0.65869 0.13509 0.0
C999 C 0.878 0.60586 0.08699 0.0
C1000 C 0.86063 0.62347 0.10374 0.0
H1001 H 0.82017 0.72667 0.20323 0.0
H1002 H 0.84761 0.69574 0.17729 0.0
H1003 H 0.80338 0.66177 0.09782 0.0
H1004 H 0.87077 0.55292 0.03896 0.0
H1005 H 0.84217 0.58043 0.06741 0.0
C1006 C 0.3556 0.78203 0.18423 0.0
C1007 C 0.32738 0.78465 0.17532 0.0
C1008 C 0.37781 0.79123 0.16847 0.0
C1009 C 0.39445 0.8127 0.10033 0.0
H1010 H 0.44803 0.86952 0.13657 0.0
C1011 C 0.45994 0.89189 0.04018 0.0
C1012 C 0.45465 0.91938 0.0476 0.0
C1013 C 0.45397 0.86984 0.05746 0.0
C1014 C 0.43357 0.85334 0.12628 0.0
H1015 H 0.29987 0.79769 0.14284 0.0
H1016 H 0.33875 0.81414 0.11527 0.0
H1017 H 0.41693 0.83867 0.16288 0.0
H1018 H 0.44051 0.94637 0.07858 0.0
H1019 H 0.42983 0.90782 0.10902 0.0
H1020 H 0.40941 0.8288 0.06368 0.0
C1021 C 0.34372 0.8047 0.13427 0.0
C1022 C 0.41592 0.8356 0.14128 0.0
C1023 C 0.32152 0.79564 0.1501 0.0
C1024 C 0.44469 0.92512 0.07277 0.0
C1025 C 0.43896 0.90316 0.09017 0.0
C1026 C 0.41211 0.83038 0.08534 0.0
C1027 C 0.37205 0.80295 0.14352 0.0
C1028 C 0.39524 0.81618 0.12831 0.0
C1029 C 0.44279 0.87522 0.08234 0.0
C1030 C 0.43073 0.8518 0.09817 0.0
H1031 H 0.36054 0.77335 0.20359 0.0
H1032 H 0.39948 0.78964 0.17595 0.0
H1033 H 0.37891 0.79756 0.08997 0.0
H1034 H 0.46771 0.88736 0.02067 0.0
H1035 H 0.45712 0.8485 0.05103 0.0
C1036 C 0.69063 0.15682 0.19154 0.0
C1037 C 0.71249 0.17649 0.18392 0.0
C1038 C 0.67525 0.1389 0.17243 0.0
C1039 C 0.65166 0.09565 0.13009 0.0
H1040 H 0.62807 0.13087 0.06443 0.0
C1041 C 0.57148 0.03716 0.05267 0.0
C1042 C 0.55001 0.05299 0.04219 0.0
C1043 C 0.59525 0.05047 0.06707 0.0
C1044 C 0.63443 0.12074 0.08268 0.0
H1045 H 0.73631 0.19171 0.15037 0.0
H1046 H 0.70969 0.16005 0.11707 0.0
H1047 H 0.66276 0.1565 0.09582 0.0
H1048 H 0.53693 0.09536 0.03838 0.0
H1049 H 0.57792 0.11837 0.06413 0.0
H1050 H 0.62206 0.06058 0.11775 0.0
C1051 C 0.70408 0.15894 0.13778 0.0
C1052 C 0.65464 0.13527 0.10051 0.0
C1053 C 0.7194 0.177 0.1569 0.0
C1054 C 0.55307 0.08245 0.04616 0.0
C1055 C 0.57674 0.09574 0.0607 0.0
C1056 C 0.63132 0.0812 0.11235 0.0
C1057 C 0.68146 0.14008 0.14526 0.0
C1058 C 0.66297 0.12316 0.12474 0.0
C1059 C 0.598 0.07986 0.07153 0.0
C1060 C 0.62197 0.09385 0.08874 0.0
H1061 H 0.68469 0.15582 0.21216 0.0
H1062 H 0.6577 0.12495 0.17887 0.0
H1063 H 0.65798 0.08554 0.14836 0.0
H1064 H 0.56979 0.01449 0.05024 0.0
H1065 H 0.61137 0.03763 0.0749 0.0
C1066 C 0.68684 0.6582 0.79047 0.0
C1067 C 0.68986 0.68796 0.79295 0.0
C1068 C 0.66905 0.64156 0.8069 0.0
C1069 C 0.60862 0.64366 0.85343 0.0
H1070 H 0.63309 0.57188 0.87539 0.0
C1071 C 0.54786 0.57072 0.9313 0.0
C1072 C 0.54975 0.54134 0.92923 0.0
C1073 C 0.56292 0.58953 0.9142 0.0
C1074 C 0.62537 0.59157 0.86921 0.0
H1075 H 0.67557 0.72311 0.81525 0.0
H1076 H 0.64468 0.69422 0.84382 0.0
H1077 H 0.66266 0.60199 0.8476 0.0
H1078 H 0.56821 0.50906 0.90654 0.0
H1079 H 0.59282 0.54096 0.87644 0.0
H1080 H 0.57121 0.63303 0.87523 0.0
C1081 C 0.65604 0.68366 0.82892 0.0
C1082 C 0.64264 0.6091 0.85309 0.0
C1083 C 0.67403 0.70037 0.8125 0.0
C1084 C 0.56599 0.53145 0.90876 0.0
C1085 C 0.58068 0.55002 0.89166 0.0
C1086 C 0.59119 0.62598 0.86956 0.0
C1087 C 0.65331 0.65383 0.8266 0.0
C1088 C 0.63463 0.63546 0.84461 0.0
C1089 C 0.58037 0.57958 0.89448 0.0
C1090 C 0.59905 0.59934 0.87761 0.0
H1091 H 0.69838 0.64752 0.77577 0.0
H1092 H 0.66745 0.61886 0.80385 0.0
H1093 H 0.6013 0.66357 0.84739 0.0
H1094 H 0.53618 0.5793 0.94715 0.0
H1095 H 0.56191 0.61198 0.91736 0.0
C1096 C 0.32779 0.68419 0.77615 0.0
C1097 C 0.30078 0.69254 0.781 0.0
C1098 C 0.34254 0.66889 0.79489 0.0
C1099 C 0.33555 0.62503 0.85528 0.0
H1100 H 0.41699 0.64425 0.86299 0.0
C1101 C 0.43944 0.59896 0.92868 0.0
C1102 C 0.4321 0.57008 0.93267 0.0
C1103 C 0.4235 0.61394 0.91029 0.0
C1104 C 0.39428 0.63868 0.86138 0.0
H1105 H 0.2677 0.69071 0.80931 0.0
H1106 H 0.29368 0.66385 0.84256 0.0
H1107 H 0.38822 0.67025 0.83239 0.0
H1108 H 0.40275 0.5342 0.91926 0.0
H1109 H 0.37568 0.55996 0.88693 0.0
H1110 H 0.34164 0.59383 0.8848 0.0
C1111 C 0.30335 0.66905 0.82394 0.0
C1112 C 0.3777 0.65342 0.84346 0.0
C1113 C 0.2884 0.68441 0.80492 0.0
C1114 C 0.40907 0.55642 0.91692 0.0
C1115 C 0.39324 0.57134 0.89851 0.0
C1116 C 0.35218 0.61025 0.87327 0.0
C1117 C 0.33094 0.66156 0.81937 0.0
C1118 C 0.34811 0.64664 0.83983 0.0
C1119 C 0.3998 0.60048 0.89524 0.0
C1120 C 0.38188 0.61666 0.87644 0.0
H1121 H 0.3379 0.68989 0.75784 0.0
H1122 H 0.36325 0.66293 0.79014 0.0
H1123 H 0.31292 0.61907 0.85306 0.0
H1124 H 0.4568 0.61033 0.94056 0.0
H1125 H 0.42923 0.63635 0.9086 0.0
C1126 C 0.32013 0.28063 0.8134 0.0
C1127 C 0.30539 0.2904 0.79088 0.0
C1128 C 0.33333 0.29961 0.83288 0.0
C1129 C 0.33305 0.37329 0.85908 0.0
H1130 H 0.40245 0.35535 0.89678 0.0
C1131 C 0.41234 0.44534 0.93166 0.0
C1132 C 0.42307 0.43122 0.95383 0.0
C1133 C 0.39247 0.43095 0.9132 0.0
C1134 C 0.38291 0.36049 0.88657 0.0
H1135 H 0.29384 0.32794 0.77068 0.0
H1136 H 0.31783 0.36114 0.80426 0.0
H1137 H 0.38204 0.32491 0.85973 0.0
H1138 H 0.41865 0.39287 0.97637 0.0
H1139 H 0.38386 0.36802 0.94444 0.0
H1140 H 0.33492 0.40965 0.88579 0.0
C1141 C 0.31849 0.33873 0.80723 0.0
C1142 C 0.37116 0.34301 0.86536 0.0
C1143 C 0.30499 0.31969 0.78783 0.0
C1144 C 0.41091 0.40407 0.95923 0.0
C1145 C 0.39114 0.38981 0.94094 0.0
C1146 C 0.34516 0.39111 0.88019 0.0
C1147 C 0.33249 0.3289 0.83019 0.0
C1148 C 0.34582 0.34885 0.8516 0.0
C1149 C 0.38319 0.40249 0.91696 0.0
C1150 C 0.3699 0.3845 0.89438 0.0
H1151 H 0.32059 0.25824 0.81661 0.0
H1152 H 0.34344 0.29117 0.8505 0.0
H1153 H 0.31339 0.37831 0.84908 0.0
H1154 H 0.42148 0.46626 0.92704 0.0
H1155 H 0.38652 0.44115 0.89486 0.0
C1156 C 0.6807 0.2826 0.77709 0.0
C1157 C 0.70819 0.29337 0.77112 0.0
C1158 C 0.66617 0.29563 0.79711 0.0
C1159 C 0.66554 0.36401 0.83542 0.0
H1160 H 0.61899 0.3193 0.88313 0.0
C1161 C 0.614 0.41491 0.926 0.0
C1162 C 0.58635 0.40403 0.93158 0.0
C1163 C 0.62946 0.40132 0.90706 0.0
C1164 C 0.63164 0.33221 0.86982 0.0
H1165 H 0.74197 0.32624 0.78152 0.0
H1166 H 0.71692 0.34878 0.81625 0.0
H1167 H 0.64397 0.29579 0.84889 0.0
H1168 H 0.55354 0.36999 0.92125 0.0
H1169 H 0.5801 0.34681 0.88841 0.0
H1170 H 0.6531 0.40042 0.85621 0.0
C1171 C 0.70628 0.3305 0.80541 0.0
C1172 C 0.64601 0.31865 0.8501 0.0
C1173 C 0.72073 0.31748 0.7855 0.0
C1174 C 0.57476 0.3791 0.91773 0.0
C1175 C 0.59016 0.36558 0.89889 0.0
C1176 C 0.65115 0.37757 0.85512 0.0
C1177 C 0.67871 0.3199 0.8115 0.0
C1178 C 0.66318 0.33432 0.83255 0.0
C1179 C 0.61775 0.37642 0.89318 0.0
C1180 C 0.63388 0.36191 0.87261 0.0
H1181 H 0.67017 0.26452 0.76589 0.0
H1182 H 0.64484 0.28702 0.80089 0.0
H1183 H 0.67815 0.37691 0.82208 0.0
H1184 H 0.62371 0.434 0.9362 0.0
H1185 H 0.65075 0.41022 0.9035 0.0
C1186 C 0.67018 0.294 0.21473 0.0
C1187 C 0.69451 0.28109 0.20812 0.0
C1188 C 0.65631 0.31038 0.19627 0.0
C1189 C 0.64314 0.32012 0.12424 0.0
H1190 H 0.615 0.39018 0.14763 0.0
C1191 C 0.55903 0.37555 0.06055 0.0
C1192 C 0.56442 0.40492 0.05789 0.0
C1193 C 0.5753 0.36103 0.07903 0.0
C1194 C 0.62276 0.37073 0.14069 0.0
H1195 H 0.72349 0.27533 0.17682 0.0
H1196 H 0.69882 0.30387 0.14402 0.0
H1197 H 0.64454 0.36491 0.17859 0.0
H1198 H 0.59057 0.44208 0.07357 0.0
H1199 H 0.61836 0.41694 0.10604 0.0
H1200 H 0.62104 0.32584 0.08639 0.0
C1201 C 0.69066 0.30135 0.16374 0.0
C1202 C 0.63962 0.35615 0.1585 0.0
C1203 C 0.70492 0.28522 0.18254 0.0
C1204 C 0.5857 0.41949 0.07505 0.0
C1205 C 0.60169 0.40505 0.09372 0.0
C1206 C 0.62595 0.33455 0.10649 0.0
C1207 C 0.66608 0.31408 0.17041 0.0
C1208 C 0.64993 0.33055 0.15061 0.0
C1209 C 0.59714 0.37553 0.09562 0.0
C1210 C 0.61541 0.36002 0.11451 0.0
H1211 H 0.66154 0.29113 0.23423 0.0
H1212 H 0.63734 0.31952 0.20205 0.0
H1213 H 0.65049 0.30038 0.11755 0.0
H1214 H 0.543 0.36355 0.04759 0.0
H1215 H 0.57091 0.33837 0.0802 0.0
C1216 C 0.71814 0.64471 0.19108 0.0
C1217 C 0.70195 0.66422 0.20337 0.0
C1218 C 0.70534 0.62463 0.17232 0.0
C1219 C 0.63817 0.58643 0.14819 0.0
H1220 H 0.66725 0.59184 0.07712 0.0
C1221 C 0.58576 0.56795 0.03826 0.0
C1222 C 0.5726 0.54037 0.03948 0.0
C1223 C 0.60751 0.57775 0.05703 0.0
C1224 C 0.65923 0.58979 0.09695 0.0
H1225 H 0.65952 0.67705 0.20672 0.0
H1226 H 0.63698 0.64123 0.17451 0.0
H1227 H 0.69263 0.61874 0.1149 0.0
H1228 H 0.5732 0.50074 0.05999 0.0
H1229 H 0.61084 0.51823 0.09333 0.0
H1230 H 0.60439 0.55808 0.13016 0.0
C1231 C 0.65961 0.64178 0.17924 0.0
C1232 C 0.67371 0.60508 0.11852 0.0
C1233 C 0.6725 0.66229 0.19758 0.0
C1234 C 0.58306 0.52206 0.05851 0.0
C1235 C 0.60443 0.53209 0.07768 0.0
C1236 C 0.62401 0.57072 0.12674 0.0
C1237 C 0.67604 0.62325 0.16598 0.0
C1238 C 0.66287 0.6041 0.14416 0.0
C1239 C 0.6161 0.56031 0.07763 0.0
C1240 C 0.63401 0.57285 0.10081 0.0
H1241 H 0.74094 0.64581 0.19493 0.0
H1242 H 0.71841 0.61054 0.16236 0.0
H1243 H 0.62947 0.58533 0.1678 0.0
H1244 H 0.57811 0.58245 0.02375 0.0
H1245 H 0.61609 0.59963 0.05664 0.0
C1246 C 0.28904 0.65176 0.21869 0.0
C1247 C 0.28535 0.68068 0.21743 0.0
C1248 C 0.30404 0.63837 0.19934 0.0
C1249 C 0.35389 0.65337 0.14433 0.0
H1250 H 0.33176 0.57492 0.1244 0.0
C1251 C 0.42284 0.59026 0.07703 0.0
C1252 C 0.40977 0.5692 0.05899 0.0
C1253 C 0.40718 0.60359 0.09578 0.0
C1254 C 0.33812 0.59692 0.12941 0.0
H1255 H 0.2933 0.71763 0.19382 0.0
H1256 H 0.31924 0.69478 0.1601 0.0
H1257 H 0.30549 0.59867 0.15731 0.0
H1258 H 0.36954 0.54587 0.04678 0.0
H1259 H 0.342 0.56963 0.07901 0.0
H1260 H 0.3858 0.65199 0.11573 0.0
C1261 C 0.31155 0.68242 0.17658 0.0
C1262 C 0.32325 0.61052 0.14874 0.0
C1263 C 0.2968 0.6958 0.19614 0.0
C1264 C 0.38042 0.56189 0.06034 0.0
C1265 C 0.36462 0.57547 0.07902 0.0
C1266 C 0.36859 0.63985 0.12486 0.0
C1267 C 0.31542 0.65342 0.1778 0.0
C1268 C 0.331 0.63894 0.15671 0.0
C1269 C 0.37776 0.59661 0.09706 0.0
C1270 C 0.36117 0.6113 0.1172 0.0
H1271 H 0.2803 0.63939 0.23474 0.0
H1272 H 0.30681 0.61619 0.20145 0.0
H1273 H 0.36087 0.67511 0.14992 0.0
H1274 H 0.44542 0.59636 0.07692 0.0
H1275 H 0.41841 0.61915 0.10958 0.0
C1276 C 0.30928 0.31433 0.19712 0.0
C1277 C 0.30585 0.28461 0.19425 0.0
C1278 C 0.32772 0.33095 0.18126 0.0
C1279 C 0.36914 0.3292 0.11821 0.0
H1280 H 0.40518 0.40014 0.14825 0.0
C1281 C 0.44943 0.40324 0.05814 0.0
C1282 C 0.44637 0.43242 0.06006 0.0
C1283 C 0.43495 0.384 0.07522 0.0
C1284 C 0.39521 0.38053 0.13927 0.0
H1285 H 0.31987 0.2495 0.1717 0.0
H1286 H 0.35222 0.27824 0.14447 0.0
H1287 H 0.3751 0.36973 0.17555 0.0
H1288 H 0.42593 0.46384 0.08206 0.0
H1289 H 0.40177 0.43108 0.11179 0.0
H1290 H 0.38958 0.34022 0.08187 0.0
C1291 C 0.34027 0.2889 0.15884 0.0
C1292 C 0.37764 0.36291 0.15508 0.0
C1293 C 0.32169 0.27222 0.17472 0.0
C1294 C 0.42932 0.44168 0.08019 0.0
C1295 C 0.41529 0.42269 0.09735 0.0
C1296 C 0.3869 0.34684 0.10238 0.0
C1297 C 0.34379 0.3187 0.16178 0.0
C1298 C 0.36382 0.33698 0.14486 0.0
C1299 C 0.41724 0.39335 0.09497 0.0
C1300 C 0.40001 0.3731 0.11246 0.0
H1301 H 0.29749 0.32501 0.21161 0.0
H1302 H 0.32895 0.35365 0.18411 0.0
H1303 H 0.35895 0.30974 0.10914 0.0
H1304 H 0.46176 0.39512 0.04255 0.0
H1305 H 0.43735 0.3617 0.07268 0.0
C1306 C 0.79364 0.62961 0.68282 0.0
C1307 C 0.76569 0.63677 0.68408 0.0
C1308 C 0.80049 0.6108 0.66286 0.0
C1309 C 0.80584 0.5634 0.62091 0.0
H1310 H 0.79119 0.59837 0.55273 0.0
C1311 C 0.85603 0.52871 0.52516 0.0
C1312 C 0.87531 0.55087 0.51734 0.0
C1313 C 0.83475 0.5341 0.54231 0.0
C1314 C 0.79487 0.58804 0.57152 0.0
H1315 H 0.72256 0.62859 0.66704 0.0
H1316 H 0.73482 0.59632 0.63157 0.0
H1317 H 0.76848 0.61415 0.59258 0.0
H1318 H 0.88595 0.59618 0.51927 0.0
H1319 H 0.84814 0.60568 0.54871 0.0
H1320 H 0.83323 0.53815 0.60006 0.0
C1321 C 0.75125 0.60501 0.64614 0.0
C1322 C 0.78186 0.59691 0.59423 0.0
C1323 C 0.74432 0.6234 0.6664 0.0
C1324 C 0.87144 0.57874 0.52509 0.0
C1325 C 0.84977 0.58417 0.54178 0.0
C1326 C 0.81841 0.55412 0.59809 0.0
C1327 C 0.77953 0.59933 0.64373 0.0
C1328 C 0.7881 0.58538 0.61924 0.0
C1329 C 0.83203 0.56177 0.55132 0.0
C1330 C 0.81382 0.56713 0.57349 0.0
H1331 H 0.81042 0.63965 0.69632 0.0
H1332 H 0.82251 0.60686 0.6612 0.0
H1333 H 0.81098 0.55434 0.64006 0.0
H1334 H 0.85858 0.50698 0.5196 0.0
H1335 H 0.82125 0.51658 0.54951 0.0
C1336 C 0.34534 0.80607 0.69042 0.0
C1337 C 0.32091 0.79065 0.67886 0.0
C1338 C 0.36572 0.81843 0.67429 0.0
C1339 C 0.37019 0.84882 0.60946 0.0
H1340 H 0.45108 0.8579 0.6289 0.0
C1341 C 0.4686 0.91301 0.56199 0.0
C1342 C 0.45673 0.93898 0.56098 0.0
C1343 C 0.45717 0.89175 0.57813 0.0
C1344 C 0.42859 0.85524 0.62319 0.0
H1345 H 0.29879 0.77498 0.64168 0.0
H1346 H 0.33452 0.79712 0.61312 0.0
H1347 H 0.42014 0.82243 0.65113 0.0
H1348 H 0.42649 0.96467 0.57833 0.0
H1349 H 0.40673 0.92767 0.60661 0.0
H1350 H 0.37835 0.8821 0.58224 0.0
C1351 C 0.33781 0.79959 0.6347 0.0
C1352 C 0.41096 0.83511 0.63581 0.0
C1353 C 0.31737 0.78712 0.65093 0.0
C1354 C 0.43565 0.94462 0.57849 0.0
C1355 C 0.42435 0.92352 0.59457 0.0
C1356 C 0.3877 0.86893 0.59706 0.0
C1357 C 0.36199 0.81561 0.64629 0.0
C1358 C 0.38149 0.83239 0.62957 0.0
C1359 C 0.43393 0.89653 0.59329 0.0
C1360 C 0.41678 0.87292 0.6045 0.0
H1361 H 0.3486 0.80889 0.71198 0.0
H1362 H 0.38384 0.83113 0.68373 0.0
H1363 H 0.34757 0.84736 0.60442 0.0
H1364 H 0.48477 0.9082 0.54858 0.0
H1365 H 0.46486 0.87102 0.57704 0.0
C1366 C 0.18441 0.33658 0.70111 0.0
C1367 C 0.18565 0.30839 0.69291 0.0
C1368 C 0.16207 0.35146 0.69146 0.0
C1369 C 0.10731 0.34762 0.6356 0.0
H1370 H 0.07905 0.40953 0.67492 0.0
C1371 C 0.02779 0.40626 0.58256 0.0
C1372 C 0.0411 0.43296 0.57708 0.0
C1373 C 0.03658 0.39205 0.60506 0.0
C1374 C 0.08651 0.39197 0.66401 0.0
H1375 H 0.16423 0.27289 0.66977 0.0
H1376 H 0.12458 0.29803 0.65421 0.0
H1377 H 0.11376 0.38121 0.69705 0.0
H1378 H 0.07073 0.46757 0.59309 0.0
H1379 H 0.08691 0.44212 0.63189 0.0
H1380 H 0.08041 0.35825 0.60267 0.0
C1381 C 0.14133 0.30939 0.66683 0.0
C1382 C 0.10659 0.37601 0.67645 0.0
C1383 C 0.16402 0.29491 0.67576 0.0
C1384 C 0.06051 0.44676 0.59646 0.0
C1385 C 0.06953 0.43235 0.61889 0.0
C1386 C 0.08696 0.36302 0.62352 0.0
C1387 C 0.14032 0.33801 0.67409 0.0
C1388 C 0.11753 0.35392 0.66216 0.0
C1389 C 0.05909 0.40417 0.62215 0.0
C1390 C 0.07668 0.38555 0.63741 0.0
H1391 H 0.20088 0.34719 0.71459 0.0
H1392 H 0.16221 0.37356 0.69718 0.0
H1393 H 0.11578 0.33147 0.62359 0.0
H1394 H 0.01256 0.39511 0.56825 0.0
H1395 H 0.02807 0.37038 0.60744 0.0
C1396 C 0.67914 0.16415 0.68748 0.0
C1397 C 0.69446 0.18965 0.68123 0.0
C1398 C 0.66745 0.14531 0.66708 0.0
C1399 C 0.64212 0.1414 0.59671 0.0
H1400 H 0.65296 0.06175 0.60079 0.0
C1401 C 0.58363 0.03111 0.54959 0.0
C1402 C 0.57516 0.04135 0.52461 0.0
C1403 C 0.60403 0.04703 0.56636 0.0
C1404 C 0.64957 0.08387 0.59938 0.0
H1405 H 0.70896 0.21564 0.64865 0.0
H1406 H 0.68788 0.18303 0.61307 0.0
H1407 H 0.67468 0.09484 0.63577 0.0
H1408 H 0.58362 0.0741 0.49602 0.0
H1409 H 0.62056 0.10089 0.52436 0.0
H1410 H 0.61602 0.1307 0.56125 0.0
C1411 C 0.68515 0.17756 0.63376 0.0
C1412 C 0.66203 0.1028 0.61943 0.0
C1413 C 0.69718 0.19622 0.65414 0.0
C1414 C 0.58976 0.06587 0.5153 0.0
C1415 C 0.61057 0.08143 0.53176 0.0
C1416 C 0.62939 0.1225 0.57689 0.0
C1417 C 0.6705 0.15175 0.64003 0.0
C1418 C 0.65821 0.13171 0.61838 0.0
C1419 C 0.61661 0.07321 0.55818 0.0
C1420 C 0.63274 0.09341 0.578 0.0
H1421 H 0.67691 0.1583 0.70813 0.0
H1422 H 0.65596 0.12569 0.67246 0.0
H1423 H 0.63857 0.16352 0.59553 0.0
H1424 H 0.57243 0.0124 0.55732 0.0
H1425 H 0.60803 0.03991 0.58651 0.0
C1426 C 0.79188 0.29237 0.32281 0.0
C1427 C 0.78711 0.29959 0.29598 0.0
C1428 C 0.80671 0.31161 0.34111 0.0
C1429 C 0.85789 0.37529 0.34287 0.0
H1430 H 0.84654 0.37269 0.41913 0.0
C1431 C 0.9277 0.44446 0.42181 0.0
C1432 C 0.94167 0.42806 0.44042 0.0
C1433 C 0.90493 0.43227 0.4053 0.0
C1434 C 0.84974 0.37372 0.39785 0.0
H1435 H 0.79273 0.33304 0.26751 0.0
H1436 H 0.81764 0.36716 0.29972 0.0
H1437 H 0.8126 0.34585 0.38757 0.0
H1438 H 0.94203 0.38655 0.45736 0.0
H1439 H 0.90175 0.36538 0.42882 0.0
H1440 H 0.89497 0.40337 0.35337 0.0
C1441 C 0.81083 0.34629 0.30648 0.0
C1442 C 0.8305 0.35822 0.37977 0.0
C1443 C 0.79644 0.32682 0.28803 0.0
C1444 C 0.93177 0.39958 0.44302 0.0
C1445 C 0.90864 0.38756 0.4269 0.0
C1446 C 0.87678 0.39119 0.36093 0.0
C1447 C 0.81669 0.33874 0.33314 0.0
C1448 C 0.83479 0.35816 0.35209 0.0
C1449 C 0.89541 0.40367 0.4076 0.0
C1450 C 0.87325 0.38995 0.38856 0.0
H1451 H 0.78512 0.27143 0.32947 0.0
H1452 H 0.81126 0.30472 0.36125 0.0
H1453 H 0.86225 0.37549 0.32182 0.0
H1454 H 0.93497 0.46645 0.41936 0.0
H1455 H 0.89499 0.44504 0.39051 0.0
C1456 C 0.7291 0.7726 0.32457 0.0
C1457 C 0.71613 0.75498 0.30362 0.0
C1458 C 0.71325 0.79036 0.33931 0.0
C1459 C 0.64249 0.82062 0.33935 0.0
H1460 H 0.66479 0.83587 0.41446 0.0
C1461 C 0.57074 0.87148 0.41451 0.0
C1462 C 0.58369 0.89274 0.43242 0.0
C1463 C 0.58703 0.8559 0.39801 0.0
C1464 C 0.65841 0.83206 0.39345 0.0
H1465 H 0.67625 0.74191 0.28187 0.0
H1466 H 0.64822 0.77203 0.30809 0.0
H1467 H 0.69219 0.80608 0.38764 0.0
H1468 H 0.62422 0.91415 0.44677 0.0
H1469 H 0.65268 0.88657 0.41833 0.0
H1470 H 0.60804 0.84595 0.3457 0.0
C1471 C 0.67085 0.77293 0.31277 0.0
C1472 C 0.67424 0.81499 0.3779 0.0
C1473 C 0.68688 0.75548 0.29773 0.0
C1474 C 0.61346 0.89801 0.43325 0.0
C1475 C 0.62981 0.88208 0.41703 0.0
C1476 C 0.62641 0.83736 0.35504 0.0
C1477 C 0.68375 0.79065 0.33393 0.0
C1478 C 0.66664 0.80899 0.35053 0.0
C1479 C 0.61681 0.8608 0.3992 0.0
C1480 C 0.63418 0.84336 0.38229 0.0
H1481 H 0.75171 0.77299 0.32938 0.0
H1482 H 0.72434 0.80405 0.35481 0.0
H1483 H 0.63607 0.81712 0.31834 0.0
H1484 H 0.54789 0.86683 0.41319 0.0
H1485 H 0.57631 0.83956 0.3847 0.0
C1486 C 0.16888 0.68296 0.33407 0.0
C1487 C 0.16331 0.69139 0.30783 0.0
C1488 C 0.14652 0.67331 0.34946 0.0
C1489 C 0.0791 0.63396 0.34117 0.0
H1490 H 0.07774 0.64889 0.41771 0.0
C1491 C 0.05944 0.55027 0.41807 0.0
C1492 C 0.04312 0.55577 0.43975 0.0
C1493 C 0.06441 0.5708 0.39906 0.0
C1494 C 0.07727 0.64495 0.39624 0.0
H1495 H 0.13045 0.69758 0.27717 0.0
H1496 H 0.09129 0.67989 0.30398 0.0
H1497 H 0.10608 0.68135 0.39043 0.0
H1498 H 0.01924 0.58628 0.45922 0.0
H1499 H 0.02838 0.62264 0.42602 0.0
H1500 H 0.05211 0.59635 0.34737 0.0
C1501 C 0.11283 0.681 0.31265 0.0
C1502 C 0.09359 0.66337 0.38074 0.0
C1503 C 0.13517 0.69095 0.29738 0.0
C1504 C 0.03149 0.58168 0.44223 0.0
C1505 C 0.03672 0.60236 0.4234 0.0
C1506 C 0.06303 0.61538 0.35672 0.0
C1507 C 0.1184 0.67179 0.33865 0.0
C1508 C 0.09566 0.65722 0.35338 0.0
C1509 C 0.05346 0.59713 0.40187 0.0
C1510 C 0.06317 0.62009 0.38453 0.0
H1511 H 0.19046 0.68335 0.34251 0.0
H1512 H 0.1513 0.66583 0.36936 0.0
H1513 H 0.0805 0.6288 0.32007 0.0
H1514 H 0.06845 0.53026 0.41599 0.0
H1515 H 0.0779 0.56658 0.38287 0.0
C1516 C 0.2952 0.17708 0.28702 0.0
C1517 C 0.30137 0.20637 0.29121 0.0
C1518 C 0.31136 0.158 0.30094 0.0
C1519 C 0.36236 0.1567 0.36156 0.0
H1520 H 0.37361 0.08175 0.3346 0.0
C1521 C 0.44173 0.0891 0.41521 0.0
C1522 C 0.43113 0.06166 0.42191 0.0
C1523 C 0.42652 0.10488 0.39706 0.0
C1524 C 0.37056 0.10262 0.34242 0.0
H1525 H 0.33022 0.23855 0.31191 0.0
H1526 H 0.35919 0.20597 0.33452 0.0
H1527 H 0.34641 0.11283 0.30693 0.0
H1528 H 0.39671 0.02892 0.41315 0.0
H1529 H 0.37058 0.05632 0.38085 0.0
H1530 H 0.38707 0.14677 0.39666 0.0
C1531 C 0.3412 0.19723 0.32176 0.0
C1532 C 0.35481 0.12048 0.32659 0.0
C1533 C 0.32477 0.2161 0.30842 0.0
C1534 C 0.40563 0.04991 0.40857 0.0
C1535 C 0.3906 0.06563 0.39002 0.0
C1536 C 0.37844 0.13913 0.37705 0.0
C1537 C 0.33433 0.1678 0.31905 0.0
C1538 C 0.35061 0.148 0.33581 0.0
C1539 C 0.40044 0.09365 0.38465 0.0
C1540 C 0.38294 0.1119 0.3677 0.0
H1541 H 0.27711 0.16894 0.27404 0.0
H1542 H 0.30512 0.13562 0.29821 0.0
H1543 H 0.35898 0.17714 0.37012 0.0
H1544 H 0.46124 0.09901 0.42491 0.0
H1545 H 0.43494 0.12624 0.39314 0.0
C1546 C 0.69765 0.79475 0.70041 0.0
C1547 C 0.69247 0.76563 0.69453 0.0
C1548 C 0.68127 0.81408 0.68718 0.0
C1549 C 0.61237 0.81977 0.64981 0.0
H1550 H 0.65137 0.88056 0.61195 0.0
C1551 C 0.5548 0.87664 0.56461 0.0
C1552 C 0.56412 0.90457 0.55846 0.0
C1553 C 0.56929 0.86217 0.58439 0.0
C1554 C 0.6399 0.86413 0.62277 0.0
H1555 H 0.66565 0.73394 0.6709 0.0
H1556 H 0.63668 0.76725 0.64876 0.0
H1557 H 0.67851 0.85154 0.6415 0.0
H1558 H 0.59547 0.93953 0.56961 0.0
H1559 H 0.62001 0.91481 0.60477 0.0
H1560 H 0.57378 0.83223 0.63157 0.0
C1561 C 0.65341 0.77535 0.66329 0.0
C1562 C 0.65561 0.8474 0.63972 0.0
C1563 C 0.67008 0.75623 0.67597 0.0
C1564 C 0.58766 0.91802 0.57362 0.0
C1565 C 0.602 0.90363 0.59368 0.0
C1566 C 0.59662 0.83672 0.63323 0.0
C1567 C 0.65899 0.80456 0.66835 0.0
C1568 C 0.64211 0.82461 0.65301 0.0
C1569 C 0.59344 0.87522 0.59905 0.0
C1570 C 0.61012 0.85883 0.61888 0.0
H1571 H 0.71497 0.80263 0.71441 0.0
H1572 H 0.68608 0.83645 0.69156 0.0
H1573 H 0.60124 0.8026 0.65999 0.0
H1574 H 0.53691 0.8654 0.55335 0.0
H1575 H 0.56206 0.84029 0.58735 0.0
C1576 C 0.6655 0.19044 0.331 0.0
C1577 C 0.68636 0.17875 0.3165 0.0
C1578 C 0.64569 0.17285 0.34394 0.0
C1579 C 0.63293 0.10098 0.36843 0.0
H1580 H 0.55304 0.11219 0.35712 0.0
C1581 C 0.55376 0.01614 0.39834 0.0
C1582 C 0.53758 0.02547 0.41886 0.0
C1583 C 0.56602 0.03542 0.38095 0.0
C1584 C 0.57529 0.10894 0.3603 0.0
H1585 H 0.70394 0.14011 0.30486 0.0
H1586 H 0.66946 0.1094 0.32737 0.0
H1587 H 0.58917 0.14639 0.33987 0.0
H1588 H 0.5186 0.06112 0.43572 0.0
H1589 H 0.54068 0.09521 0.40548 0.0
H1590 H 0.61936 0.06363 0.3886 0.0
C1591 C 0.66837 0.13201 0.32895 0.0
C1592 C 0.59589 0.12851 0.35075 0.0
C1593 C 0.68807 0.14954 0.31605 0.0
C1594 C 0.53091 0.05358 0.41985 0.0
C1595 C 0.54353 0.07303 0.4026 0.0
C1596 C 0.61248 0.08145 0.37771 0.0
C1597 C 0.64671 0.14346 0.34259 0.0
C1598 C 0.62486 0.12442 0.3545 0.0
C1599 C 0.56266 0.06426 0.38432 0.0
C1600 C 0.58353 0.08501 0.37338 0.0
H1601 H 0.66383 0.213 0.3315 0.0
H1602 H 0.62938 0.18214 0.35464 0.0
H1603 H 0.65512 0.09767 0.37208 0.0
H1604 H 0.55881 -0.0056 0.39716 0.0
H1605 H 0.58033 0.02822 0.36659 0.0
C1606 C 0.82407 0.63832 0.28866 0.0
C1607 C 0.82949 0.66028 0.27096 0.0
C1608 C 0.84513 0.62081 0.29556 0.0
C1609 C 0.92179 0.62328 0.30369 0.0
H1610 H 0.90163 0.54734 0.32692 0.0
C1611 C 0.95206 0.53613 0.38689 0.0
C1612 C 0.95699 0.55582 0.40839 0.0
C1613 C 0.9476 0.54524 0.36081 0.0
C1614 C 0.90829 0.56816 0.31999 0.0
H1615 H 0.86036 0.68048 0.24534 0.0
H1616 H 0.89747 0.64971 0.25751 0.0
H1617 H 0.86974 0.56885 0.29594 0.0
H1618 H 0.96454 0.60033 0.41925 0.0
H1619 H 0.95524 0.6163 0.37424 0.0
H1620 H 0.96006 0.62285 0.32834 0.0
C1621 C 0.87702 0.6462 0.2662 0.0
C1622 C 0.88967 0.58064 0.30243 0.0
C1623 C 0.85586 0.66377 0.25929 0.0
C1624 C 0.9603 0.5847 0.40308 0.0
C1625 C 0.95528 0.59383 0.37708 0.0
C1626 C 0.94067 0.61063 0.321 0.0
C1627 C 0.87202 0.62486 0.28479 0.0
C1628 C 0.89531 0.60898 0.29568 0.0
C1629 C 0.94729 0.57418 0.35588 0.0
C1630 C 0.93315 0.58368 0.33086 0.0
H1631 H 0.80386 0.6352 0.29786 0.0
H1632 H 0.84071 0.60496 0.31036 0.0
H1633 H 0.92691 0.64509 0.29863 0.0
H1634 H 0.9503 0.51366 0.39037 0.0
H1635 H 0.94247 0.52954 0.34483 0.0
C1636 C 0.30468 0.80828 0.30381 0.0
C1637 C 0.28808 0.78307 0.30866 0.0
C1638 C 0.31558 0.82633 0.32502 0.0
C1639 C 0.34005 0.82749 0.39443 0.0
H1640 H 0.33275 0.90796 0.39214 0.0
C1641 C 0.40832 0.93537 0.43524 0.0
C1642 C 0.41962 0.92485 0.45907 0.0
C1643 C 0.38536 0.92025 0.421 0.0
C1644 C 0.33516 0.88559 0.39307 0.0
H1645 H 0.2701 0.75693 0.33965 0.0
H1646 H 0.29021 0.7882 0.37695 0.0
H1647 H 0.30726 0.87609 0.35816 0.0
H1648 H 0.41398 0.89253 0.48856 0.0
H1649 H 0.3727 0.86719 0.46483 0.0
H1650 H 0.36938 0.8367 0.42793 0.0
C1651 C 0.29433 0.79401 0.35659 0.0
C1652 C 0.32043 0.86736 0.37367 0.0
C1653 C 0.28292 0.77614 0.33528 0.0
C1654 C 0.40569 0.90088 0.47005 0.0
C1655 C 0.38231 0.88617 0.45621 0.0
C1656 C 0.35517 0.84571 0.41352 0.0
C1657 C 0.31052 0.81939 0.35159 0.0
C1658 C 0.32322 0.83824 0.37389 0.0
C1659 C 0.37297 0.89463 0.43068 0.0
C1660 C 0.35344 0.87512 0.41281 0.0
H1661 H 0.30881 0.81443 0.28354 0.0
H1662 H 0.32831 0.8456 0.32067 0.0
H1663 H 0.34274 0.80513 0.39488 0.0
H1664 H 0.41891 0.9537 0.42629 0.0
H1665 H 0.37898 0.92754 0.40144 0.0
C1666 C 0.24058 0.3475 0.32039 0.0
C1667 C 0.22237 0.33431 0.29984 0.0
C1668 C 0.23006 0.36533 0.3393 0.0
C1669 C 0.2026 0.40646 0.37563 0.0
H1670 H 0.13038 0.37201 0.39742 0.0
C1671 C 0.1312 0.45454 0.45261 0.0
C1672 C 0.11425 0.43527 0.46715 0.0
C1673 C 0.1496 0.44474 0.43427 0.0
C1674 C 0.15074 0.38171 0.39186 0.0
H1675 H 0.18002 0.33162 0.28087 0.0
H1676 H 0.1618 0.36351 0.3133 0.0
H1677 H 0.15118 0.35308 0.35858 0.0
H1678 H 0.10562 0.39126 0.4767 0.0
H1679 H 0.13852 0.37423 0.4456 0.0
H1680 H 0.20215 0.43473 0.40972 0.0
C1681 C 0.1839 0.35937 0.31547 0.0
C1682 C 0.16239 0.37122 0.36919 0.0
C1683 C 0.19431 0.34126 0.29683 0.0
C1684 C 0.1182 0.40646 0.46537 0.0
C1685 C 0.13686 0.39675 0.44746 0.0
C1686 C 0.19085 0.41703 0.39851 0.0
C1687 C 0.20126 0.37037 0.33769 0.0
C1688 C 0.18844 0.38341 0.36077 0.0
C1689 C 0.15142 0.4156 0.43058 0.0
C1690 C 0.1649 0.40452 0.40696 0.0
H1691 H 0.26239 0.34248 0.32301 0.0
H1692 H 0.24396 0.37343 0.35618 0.0
H1693 H 0.22271 0.41628 0.36959 0.0
H1694 H 0.12844 0.47689 0.45363 0.0
H1695 H 0.16059 0.45977 0.42157 0.0
C1696 C 0.29477 0.1817 0.6931 0.0
C1697 C 0.29984 0.21131 0.69302 0.0
C1698 C 0.30948 0.16461 0.67656 0.0
C1699 C 0.37385 0.16313 0.63816 0.0
H1700 H 0.32964 0.10389 0.59551 0.0
C1701 C 0.42348 0.10397 0.55279 0.0
C1702 C 0.41485 0.0752 0.54749 0.0
C1703 C 0.4094 0.11991 0.57085 0.0
C1704 C 0.34249 0.11998 0.60753 0.0
H1705 H 0.32502 0.24611 0.67615 0.0
H1706 H 0.35115 0.21621 0.64754 0.0
H1707 H 0.30627 0.13254 0.62718 0.0
H1708 H 0.38431 0.04073 0.55719 0.0
H1709 H 0.36014 0.06828 0.58929 0.0
H1710 H 0.41016 0.1504 0.61909 0.0
C1711 C 0.33566 0.20624 0.66035 0.0
C1712 C 0.32901 0.13651 0.62568 0.0
C1713 C 0.32068 0.22338 0.67669 0.0
C1714 C 0.39146 0.06286 0.56063 0.0
C1715 C 0.37752 0.07877 0.57902 0.0
C1716 C 0.3874 0.1464 0.62028 0.0
C1717 C 0.32988 0.17665 0.65973 0.0
C1718 C 0.34447 0.15846 0.64107 0.0
C1719 C 0.38639 0.10755 0.58455 0.0
C1720 C 0.37192 0.12472 0.60443 0.0
H1721 H 0.27883 0.1717 0.70543 0.0
H1722 H 0.30476 0.14191 0.67686 0.0
H1723 H 0.38647 0.17958 0.64998 0.0
H1724 H 0.4412 0.11436 0.54288 0.0
H1725 H 0.41653 0.14208 0.57386 0.0
C1726 C 0.83787 0.27545 0.66157 0.0
C1727 C 0.81211 0.28686 0.66579 0.0
C1728 C 0.85917 0.29106 0.6486 0.0
C1729 C 0.88992 0.32753 0.60541 0.0
H1730 H 0.90827 0.40353 0.63513 0.0
C1731 C 0.95715 0.41097 0.54959 0.0
C1732 C 0.94352 0.43568 0.54648 0.0
C1733 C 0.94839 0.39152 0.56859 0.0
C1734 C 0.90355 0.3823 0.62677 0.0
H1735 H 0.78755 0.32252 0.65892 0.0
H1736 H 0.82496 0.34996 0.63646 0.0
H1737 H 0.87689 0.36998 0.65849 0.0
H1738 H 0.91058 0.4601 0.56045 0.0
H1739 H 0.89481 0.42603 0.59338 0.0
H1740 H 0.91483 0.34037 0.57266 0.0
C1741 C 0.82867 0.32909 0.64328 0.0
C1742 C 0.88569 0.36321 0.64008 0.0
C1743 C 0.80728 0.31336 0.65583 0.0
C1744 C 0.92142 0.44113 0.56276 0.0
C1745 C 0.9127 0.42181 0.58177 0.0
C1746 C 0.90759 0.34675 0.59189 0.0
C1747 C 0.85494 0.31832 0.64023 0.0
C1748 C 0.87788 0.33616 0.62888 0.0
C1749 C 0.92582 0.39663 0.58459 0.0
C1750 C 0.91347 0.37466 0.6019 0.0
H1751 H 0.8419 0.25494 0.66912 0.0
H1752 H 0.87928 0.28242 0.64615 0.0
H1753 H 0.88408 0.30665 0.59659 0.0
H1754 H 0.97361 0.40611 0.5365 0.0
H1755 H 0.95869 0.37218 0.57028 0.0
C1756 C 0.20838 0.64496 0.69573 0.0
C1757 C 0.21846 0.6724 0.689 0.0
C1758 C 0.19277 0.627 0.6767 0.0
C1759 C 0.1674 0.62097 0.60399 0.0
H1760 H 0.10227 0.57907 0.63276 0.0
C1761 C 0.06043 0.58801 0.54484 0.0
C1762 C 0.0497 0.55966 0.5467 0.0
C1763 C 0.08455 0.59868 0.56049 0.0
C1764 C 0.12054 0.59043 0.62448 0.0
H1765 H 0.22128 0.70214 0.65679 0.0
H1766 H 0.19319 0.67156 0.62413 0.0
H1767 H 0.13921 0.60241 0.66327 0.0
H1768 H 0.05561 0.52029 0.56636 0.0
H1769 H 0.09728 0.5392 0.59419 0.0
H1770 H 0.14731 0.61024 0.56511 0.0
C1771 C 0.19789 0.66331 0.6437 0.0
C1772 C 0.14191 0.60364 0.64194 0.0
C1773 C 0.21398 0.68101 0.66255 0.0
C1774 C 0.06354 0.54217 0.56438 0.0
C1775 C 0.08728 0.55296 0.58036 0.0
C1776 C 0.14568 0.6082 0.58654 0.0
C1777 C 0.18633 0.63636 0.65073 0.0
C1778 C 0.16546 0.61948 0.63197 0.0
C1779 C 0.09794 0.58129 0.57858 0.0
C1780 C 0.12194 0.59314 0.5967 0.0
H1781 H 0.21179 0.63769 0.71593 0.0
H1782 H 0.18496 0.60611 0.68266 0.0
H1783 H 0.18545 0.63241 0.5955 0.0
H1784 H 0.05026 0.60187 0.53123 0.0
H1785 H 0.09231 0.62069 0.55899 0.0
loop_
_geom_bond_atom_site_label_1
_geom_bond_atom_site_label_2
_geom_bond_distance
_geom_bond_site_symmetry_2
_ccdc_geom_bond_type
Tb0 O3 2.453 . S
Tb0 O4 2.596 . S
Tb0 O5 2.374 . S
Tb0 O13 2.343 . S
Tb0 O15 2.353 . S
Tb0 O17 2.427 . S
Tb0 O18 2.513 . S
C1 O5 1.251 . S
C1 O7 1.263 . S
Tb2 O4 2.343 . S
Tb2 O7 2.353 . S
Tb2 O10 2.427 . S
Tb2 O11 2.513 . S
Tb2 O12 2.453 . S
Tb2 O13 2.596 . S
Tb2 O14 2.374 . S
O3 Tb0 2.453 . S
O3 C19 1.245 . S
O4 Tb0 2.596 . S
O4 Tb2 2.343 . S
O4 C19 1.259 . S
O5 Tb0 2.374 . S
O5 C1 1.251 . S
C6 O10 1.275 . S
C6 O11 1.246 . S
O7 C1 1.263 . S
O7 Tb2 2.353 . S
C8 O12 1.245 . S
C8 O13 1.259 . S
C9 O14 1.250 . S
C9 O15 1.263 . S
O10 Tb2 2.427 . S
O10 C6 1.275 . S
O11 Tb2 2.513 . S
O11 C6 1.246 . S
O12 Tb2 2.453 . S
O12 C8 1.245 . S
O13 Tb0 2.343 . S
O13 Tb2 2.596 . S
O13 C8 1.259 . S
O14 Tb2 2.374 . S
O14 C9 1.250 . S
O15 Tb0 2.353 . S
O15 C9 1.263 . S
C16 O17 1.275 . S
C16 O18 1.246 . S
O17 Tb0 2.427 . S
O17 C16 1.275 . S
O18 Tb0 2.513 . S
O18 C16 1.246 . S
C19 O3 1.245 . S
C19 O4 1.259 . S
Tb20 O23 2.453 . S
Tb20 O24 2.596 . S
Tb20 O25 2.374 . S
Tb20 O33 2.343 . S
Tb20 O35 2.353 . S
Tb20 O37 2.427 . S
Tb20 O38 2.513 . S
C21 O25 1.251 . S
C21 O27 1.263 . S
Tb22 O24 2.343 . S
Tb22 O27 2.353 . S
Tb22 O30 2.427 . S
Tb22 O31 2.513 . S
Tb22 O32 2.453 . S
Tb22 O33 2.596 . S
Tb22 O34 2.374 . S
O23 Tb20 2.453 . S
O23 C39 1.245 . S
O24 Tb20 2.596 . S
O24 Tb22 2.343 . S
O24 C39 1.259 . S
O25 Tb20 2.374 . S
O25 C21 1.251 . S
C26 O30 1.275 . S
C26 O31 1.246 . S
O27 C21 1.263 . S
O27 Tb22 2.353 . S
C28 O32 1.245 . S
C28 O33 1.259 . S
C29 O34 1.250 . S
C29 O35 1.263 . S
O30 Tb22 2.427 . S
O30 C26 1.275 . S
O31 Tb22 2.513 . S
O31 C26 1.246 . S
O32 Tb22 2.453 . S
O32 C28 1.245 . S
O33 Tb20 2.343 . S
O33 Tb22 2.596 . S
O33 C28 1.259 . S
O34 Tb22 2.374 . S
O34 C29 1.250 . S
O35 Tb20 2.353 . S
O35 C29 1.263 . S
C36 O37 1.275 . S
C36 O38 1.246 . S
O37 Tb20 2.427 . S
O37 C36 1.275 . S
O38 Tb20 2.513 . S
O38 C36 1.246 . S
C39 O23 1.245 . S
C39 O24 1.259 . S
Tb40 O43 2.453 . S
Tb40 O44 2.596 . S
Tb40 O45 2.374 . S
Tb40 O53 2.343 . S
Tb40 O55 2.353 . S
Tb40 O57 2.427 . S
Tb40 O58 2.513 . S
C41 O45 1.251 . S
C41 O47 1.263 . S
Tb42 O44 2.343 . S
Tb42 O47 2.353 . S
Tb42 O50 2.427 . S
Tb42 O51 2.513 . S
Tb42 O52 2.453 . S
Tb42 O53 2.596 . S
Tb42 O54 2.374 . S
O43 Tb40 2.453 . S
O43 C59 1.245 . S
O44 Tb40 2.596 . S
O44 Tb42 2.343 . S
O44 C59 1.259 . S
O45 Tb40 2.374 . S
O45 C41 1.251 . S
C46 O50 1.275 . S
C46 O51 1.246 . S
O47 C41 1.263 . S
O47 Tb42 2.353 . S
C48 O52 1.245 . S
C48 O53 1.259 . S
C49 O54 1.250 . S
C49 O55 1.263 . S
O50 Tb42 2.427 . S
O50 C46 1.275 . S
O51 Tb42 2.513 . S
O51 C46 1.246 . S
O52 Tb42 2.453 . S
O52 C48 1.245 . S
O53 Tb40 2.343 . S
O53 Tb42 2.596 . S
O53 C48 1.259 . S
O54 Tb42 2.374 . S
O54 C49 1.250 . S
O55 Tb40 2.353 . S
O55 C49 1.263 . S
C56 O57 1.275 . S
C56 O58 1.246 . S
O57 Tb40 2.427 . S
O57 C56 1.275 . S
O58 Tb40 2.513 . S
O58 C56 1.246 . S
C59 O43 1.245 . S
C59 O44 1.259 . S
Tb60 O63 2.453 . S
Tb60 O64 2.596 . S
Tb60 O65 2.374 . S
Tb60 O73 2.343 . S
Tb60 O75 2.353 . S
Tb60 O77 2.427 . S
Tb60 O78 2.513 . S
C61 O65 1.251 . S
C61 O67 1.263 . S
Tb62 O64 2.343 . S
Tb62 O67 2.353 . S
Tb62 O70 2.427 . S
Tb62 O71 2.513 . S
Tb62 O72 2.453 . S
Tb62 O73 2.596 . S
Tb62 O74 2.374 . S
O63 Tb60 2.453 . S
O63 C79 1.245 . S
O64 Tb60 2.596 . S
O64 Tb62 2.343 . S
O64 C79 1.259 . S
O65 Tb60 2.374 . S
O65 C61 1.251 . S
C66 O70 1.275 . S
C66 O71 1.246 . S
O67 C61 1.263 . S
O67 Tb62 2.353 . S
C68 O72 1.245 . S
C68 O73 1.259 . S
C69 O74 1.250 . S
C69 O75 1.263 . S
O70 Tb62 2.427 . S
O70 C66 1.275 . S
O71 Tb62 2.513 . S
O71 C66 1.246 . S
O72 Tb62 2.453 . S
O72 C68 1.245 . S
O73 Tb60 2.343 . S
O73 Tb62 2.596 . S
O73 C68 1.259 . S
O74 Tb62 2.374 . S
O74 C69 1.250 . S
O75 Tb60 2.353 . S
O75 C69 1.263 . S
C76 O77 1.275 . S
C76 O78 1.246 . S
O77 Tb60 2.427 . S
O77 C76 1.275 . S
O78 Tb60 2.513 . S
O78 C76 1.246 . S
C79 O63 1.245 . S
C79 O64 1.259 . S
Tb80 O83 2.453 . S
Tb80 O84 2.596 . S
Tb80 O85 2.374 . S
Tb80 O93 2.343 . S
Tb80 O95 2.353 . S
Tb80 O97 2.427 . S
Tb80 O98 2.513 . S
C81 O85 1.251 . S
C81 O87 1.263 . S
Tb82 O84 2.343 . S
Tb82 O87 2.353 . S
Tb82 O90 2.427 . S
Tb82 O91 2.513 . S
Tb82 O92 2.453 . S
Tb82 O93 2.596 . S
Tb82 O94 2.374 . S
O83 Tb80 2.453 . S
O83 C99 1.245 . S
O84 Tb80 2.596 . S
O84 Tb82 2.343 . S
O84 C99 1.259 . S
O85 Tb80 2.374 . S
O85 C81 1.251 . S
C86 O90 1.275 . S
C86 O91 1.246 . S
O87 C81 1.263 . S
O87 Tb82 2.353 . S
C88 O92 1.245 . S
C88 O93 1.259 . S
C89 O94 1.250 . S
C89 O95 1.263 . S
O90 Tb82 2.427 . S
O90 C86 1.275 . S
O91 Tb82 2.513 . S
O91 C86 1.246 . S
O92 Tb82 2.453 . S
O92 C88 1.245 . S
O93 Tb80 2.343 . S
O93 Tb82 2.596 . S
O93 C88 1.259 . S
O94 Tb82 2.374 . S
O94 C89 1.250 . S
O95 Tb80 2.353 . S
O95 C89 1.263 . S
C96 O97 1.275 . S
C96 O98 1.246 . S
O97 Tb80 2.427 . S
O97 C96 1.275 . S
O98 Tb80 2.513 . S
O98 C96 1.246 . S
C99 O83 1.245 . S
C99 O84 1.259 . S
Tb100 O103 2.453 . S
Tb100 O104 2.596 . S
Tb100 O105 2.374 . S
Tb100 O113 2.343 . S
Tb100 O115 2.353 . S
Tb100 O117 2.427 . S
Tb100 O118 2.513 . S
C101 O105 1.251 . S
C101 O107 1.263 . S
Tb102 O104 2.343 . S
Tb102 O107 2.353 . S
Tb102 O110 2.427 . S
Tb102 O111 2.513 . S
Tb102 O112 2.453 . S
Tb102 O113 2.596 . S
Tb102 O114 2.374 . S
O103 Tb100 2.453 . S
O103 C119 1.245 . S
O104 Tb100 2.596 . S
O104 Tb102 2.343 . S
O104 C119 1.259 . S
O105 Tb100 2.374 . S
O105 C101 1.251 . S
C106 O110 1.275 . S
C106 O111 1.246 . S
O107 C101 1.263 . S
O107 Tb102 2.353 . S
C108 O112 1.245 . S
C108 O113 1.259 . S
C109 O114 1.250 . S
C109 O115 1.263 . S
O110 Tb102 2.427 . S
O110 C106 1.275 . S
O111 Tb102 2.513 . S
O111 C106 1.246 . S
O112 Tb102 2.453 . S
O112 C108 1.245 . S
O113 Tb100 2.343 . S
O113 Tb102 2.596 . S
O113 C108 1.259 . S
O114 Tb102 2.374 . S
O114 C109 1.250 . S
O115 Tb100 2.353 . S
O115 C109 1.263 . S
C116 O117 1.275 . S
C116 O118 1.246 . S
O117 Tb100 2.427 . S
O117 C116 1.275 . S
O118 Tb100 2.513 . S
O118 C116 1.246 . S
C119 O103 1.245 . S
C119 O104 1.259 . S
Tb120 O123 2.453 . S
Tb120 O124 2.596 . S
Tb120 O125 2.374 . S
Tb120 O133 2.343 . S
Tb120 O135 2.353 . S
Tb120 O137 2.427 . S
Tb120 O138 2.513 . S
C121 O125 1.251 . S
C121 O127 1.263 . S
Tb122 O124 2.343 . S
Tb122 O127 2.353 . S
Tb122 O130 2.427 . S
Tb122 O131 2.513 . S
Tb122 O132 2.453 . S
Tb122 O133 2.596 . S
Tb122 O134 2.374 . S
O123 Tb120 2.453 . S
O123 C139 1.245 . S
O124 Tb120 2.596 . S
O124 Tb122 2.343 . S
O124 C139 1.259 . S
O125 Tb120 2.374 . S
O125 C121 1.251 . S
C126 O130 1.275 . S
C126 O131 1.246 . S
O127 C121 1.263 . S
O127 Tb122 2.353 . S
C128 O132 1.245 . S
C128 O133 1.259 . S
C129 O134 1.250 . S
C129 O135 1.263 . S
O130 Tb122 2.427 . S
O130 C126 1.275 . S
O131 Tb122 2.513 . S
O131 C126 1.246 . S
O132 Tb122 2.453 . S
O132 C128 1.245 . S
O133 Tb120 2.343 . S
O133 Tb122 2.596 . S
O133 C128 1.259 . S
O134 Tb122 2.374 . S
O134 C129 1.250 . S
O135 Tb120 2.353 . S
O135 C129 1.263 . S
C136 O137 1.275 . S
C136 O138 1.246 . S
O137 Tb120 2.427 . S
O137 C136 1.275 . S
O138 Tb120 2.513 . S
O138 C136 1.246 . S
C139 O123 1.245 . S
C139 O124 1.259 . S
Tb140 O143 2.453 . S
Tb140 O144 2.596 . S
Tb140 O145 2.374 . S
Tb140 O153 2.343 . S
Tb140 O155 2.353 . S
Tb140 O157 2.427 . S
Tb140 O158 2.513 . S
C141 O145 1.251 . S
C141 O147 1.263 . S
Tb142 O144 2.343 . S
Tb142 O147 2.353 . S
Tb142 O150 2.427 . S
Tb142 O151 2.513 . S
Tb142 O152 2.453 . S
Tb142 O153 2.596 . S
Tb142 O154 2.374 . S
O143 Tb140 2.453 . S
O143 C159 1.245 . S
O144 Tb140 2.596 . S
O144 Tb142 2.343 . S
O144 C159 1.259 . S
O145 Tb140 2.374 . S
O145 C141 1.251 . S
C146 O150 1.275 . S
C146 O151 1.246 . S
O147 C141 1.263 . S
O147 Tb142 2.353 . S
C148 O152 1.245 . S
C148 O153 1.259 . S
C149 O154 1.250 . S
C149 O155 1.263 . S
O150 Tb142 2.427 . S
O150 C146 1.275 . S
O151 Tb142 2.513 . S
O151 C146 1.246 . S
O152 Tb142 2.453 . S
O152 C148 1.245 . S
O153 Tb140 2.343 . S
O153 Tb142 2.596 . S
O153 C148 1.259 . S
O154 Tb142 2.374 . S
O154 C149 1.250 . S
O155 Tb140 2.353 . S
O155 C149 1.263 . S
C156 O157 1.275 . S
C156 O158 1.246 . S
O157 Tb140 2.427 . S
O157 C156 1.275 . S
O158 Tb140 2.513 . S
O158 C156 1.246 . S
C159 O143 1.245 . S
C159 O144 1.259 . S
C160 O172 1.241 . S
C160 O173 1.280 . S
C161 O174 1.277 . S
C161 O175 1.245 . S
C162 O186 1.247 . S
C162 O188 1.289 . S
Mg163 O164 1.926 . S
Mg163 O173 1.984 . S
Mg163 O175 1.988 . S
Mg163 O176 2.061 1_655 S
O164 Mg163 1.926 . S
O164 Mg165 1.986 . S
O164 Mg166 1.917 1_655 S
Mg165 O164 1.986 . S
Mg165 O172 2.042 . S
Mg165 O174 2.041 . S
Mg165 O180 2.038 1_545 S
Mg165 O188 2.238 1_545 S
Mg166 O164 1.917 1_455 S
Mg166 O167 1.917 1_545 S
Mg166 O177 2.106 . S
Mg166 O179 2.079 1_445 S
Mg166 O188 2.106 1_445 S
Mg166 O189 2.079 . S
O167 Mg166 1.917 1_565 S
O167 Mg168 1.926 . S
O167 Mg169 1.986 . S
Mg168 O167 1.926 . S
Mg168 O182 1.984 . S
Mg168 O185 1.988 . S
Mg168 O186 2.061 1_455 S
Mg169 O167 1.986 . S
Mg169 O177 2.238 1_565 S
Mg169 O181 2.042 . S
Mg169 O183 2.041 . S
Mg169 O190 2.038 1_565 S
C170 O176 1.247 . S
C170 O177 1.289 . S
C171 O189 1.245 . S
C171 O190 1.274 . S
O172 C160 1.241 . S
O172 Mg165 2.042 . S
O173 C160 1.280 . S
O173 Mg163 1.984 . S
O174 C161 1.277 . S
O174 Mg165 2.041 . S
O175 C161 1.245 . S
O175 Mg163 1.988 . S
O176 Mg163 2.061 1_455 S
O176 C170 1.247 . S
O177 Mg166 2.106 . S
O177 Mg169 2.238 1_545 S
O177 C170 1.289 . S
C178 O179 1.245 . S
C178 O180 1.274 . S
O179 Mg166 2.079 1_665 S
O179 C178 1.245 . S
O180 Mg165 2.038 1_565 S
O180 C178 1.274 . S
O181 Mg169 2.042 . S
O181 C184 1.241 . S
O182 Mg168 1.984 . S
O182 C184 1.280 . S
O183 Mg169 2.041 . S
O183 C187 1.277 . S
C184 O181 1.241 . S
C184 O182 1.280 . S
O185 Mg168 1.988 . S
O185 C187 1.245 . S
O186 C162 1.247 . S
O186 Mg168 2.061 1_655 S
C187 O183 1.277 . S
C187 O185 1.245 . S
O188 C162 1.289 . S
O188 Mg165 2.238 1_565 S
O188 Mg166 2.106 1_665 S
O189 Mg166 2.079 . S
O189 C171 1.245 . S
O190 Mg169 2.038 1_545 S
O190 C171 1.274 . S
C191 O203 1.241 . S
C191 O204 1.280 . S
C192 O205 1.277 . S
C192 O206 1.245 . S
C193 O217 1.247 . S
C193 O219 1.289 . S
Mg194 O195 1.926 . S
Mg194 O204 1.984 . S
Mg194 O206 1.988 1_554 S
Mg194 O207 2.061 . S
O195 Mg194 1.926 . S
O195 Mg196 1.986 1_554 S
O195 Mg197 1.917 . S
Mg196 O195 1.986 1_556 S
Mg196 O203 2.042 1_556 S
Mg196 O205 2.041 . S
Mg196 O211 2.038 1_546 S
Mg196 O219 2.238 1_545 S
Mg197 O195 1.917 . S
Mg197 O198 1.917 1_544 S
Mg197 O208 2.106 . S
Mg197 O210 2.079 1_545 S
Mg197 O219 2.106 1_544 S
Mg197 O220 2.079 1_554 S
O198 Mg197 1.917 1_566 S
O198 Mg199 1.926 . S
O198 Mg200 1.986 1_556 S
Mg199 O198 1.926 . S
Mg199 O213 1.984 . S
Mg199 O216 1.988 1_556 S
Mg199 O217 2.061 . S
Mg200 O198 1.986 1_554 S
Mg200 O208 2.238 1_565 S
Mg200 O212 2.042 1_554 S
Mg200 O214 2.041 . S
Mg200 O221 2.038 1_564 S
C201 O207 1.247 . S
C201 O208 1.289 . S
C202 O220 1.245 . S
C202 O221 1.274 . S
O203 C191 1.241 . S
O203 Mg196 2.042 1_554 S
O204 C191 1.280 . S
O204 Mg194 1.984 . S
O205 C192 1.277 . S
O205 Mg196 2.041 . S
O206 C192 1.245 . S
O206 Mg194 1.988 1_556 S
O207 Mg194 2.061 . S
O207 C201 1.247 . S
O208 Mg197 2.106 . S
O208 Mg200 2.238 1_545 S
O208 C201 1.289 . S
C209 O210 1.245 . S
C209 O211 1.274 . S
O210 Mg197 2.079 1_565 S
O210 C209 1.245 . S
O211 Mg196 2.038 1_564 S
O211 C209 1.274 . S
O212 Mg200 2.042 1_556 S
O212 C215 1.241 . S
O213 Mg199 1.984 . S
O213 C215 1.280 . S
O214 Mg200 2.041 . S
O214 C218 1.277 . S
C215 O212 1.241 . S
C215 O213 1.280 . S
O216 Mg199 1.988 1_554 S
O216 C218 1.245 . S
O217 C193 1.247 . S
O217 Mg199 2.061 . S
C218 O214 1.277 . S
C218 O216 1.245 . S
O219 C193 1.289 . S
O219 Mg196 2.238 1_565 S
O219 Mg197 2.106 1_566 S
O220 Mg197 2.079 1_556 S
O220 C202 1.245 . S
O221 Mg200 2.038 1_546 S
O221 C202 1.274 . S
C222 O234 1.241 . S
C222 O235 1.280 . S
C223 O236 1.277 . S
C223 O237 1.245 . S
C224 O248 1.247 . S
C224 O250 1.289 . S
Mg225 O226 1.926 . S
Mg225 O235 1.984 . S
Mg225 O237 1.988 1_554 S
Mg225 O238 2.061 1_655 S
O226 Mg225 1.926 . S
O226 Mg227 1.986 1_554 S
O226 Mg228 1.917 1_655 S
Mg227 O226 1.986 1_556 S
Mg227 O234 2.042 1_556 S
Mg227 O236 2.041 . S
Mg227 O242 2.038 1_556 S
Mg227 O250 2.238 . S
Mg228 O226 1.917 1_455 S
Mg228 O229 1.917 1_554 S
Mg228 O239 2.106 . S
Mg228 O241 2.079 1_455 S
Mg228 O250 2.106 1_454 S
Mg228 O251 2.079 1_554 S
O229 Mg228 1.917 1_556 S
O229 Mg230 1.926 . S
O229 Mg231 1.986 1_556 S
Mg230 O229 1.926 . S
Mg230 O244 1.984 . S
Mg230 O247 1.988 1_556 S
Mg230 O248 2.061 1_455 S
Mg231 O229 1.986 1_554 S
Mg231 O239 2.238 . S
Mg231 O243 2.042 1_554 S
Mg231 O245 2.041 . S
Mg231 O252 2.038 1_554 S
C232 O238 1.247 . S
C232 O239 1.289 . S
C233 O251 1.245 . S
C233 O252 1.274 . S
O234 C222 1.241 . S
O234 Mg227 2.042 1_554 S
O235 C222 1.280 . S
O235 Mg225 1.984 . S
O236 C223 1.277 . S
O236 Mg227 2.041 . S
O237 C223 1.245 . S
O237 Mg225 1.988 1_556 S
O238 Mg225 2.061 1_455 S
O238 C232 1.247 . S
O239 Mg228 2.106 . S
O239 Mg231 2.238 . S
O239 C232 1.289 . S
C240 O241 1.245 . S
C240 O242 1.274 . S
O241 Mg228 2.079 1_655 S
O241 C240 1.245 . S
O242 Mg227 2.038 1_554 S
O242 C240 1.274 . S
O243 Mg231 2.042 1_556 S
O243 C246 1.241 . S
O244 Mg230 1.984 . S
O244 C246 1.280 . S
O245 Mg231 2.041 . S
O245 C249 1.277 . S
C246 O243 1.241 . S
C246 O244 1.280 . S
O247 Mg230 1.988 1_554 S
O247 C249 1.245 . S
O248 C224 1.247 . S
O248 Mg230 2.061 1_655 S
C249 O245 1.277 . S
C249 O247 1.245 . S
O250 C224 1.289 . S
O250 Mg227 2.238 . S
O250 Mg228 2.106 1_656 S
O251 Mg228 2.079 1_556 S
O251 C233 1.245 . S
O252 Mg231 2.038 1_556 S
O252 C233 1.274 . S
C253 O265 1.241 . S
C253 O266 1.280 . S
C254 O267 1.277 . S
C254 O268 1.245 . S
C255 O279 1.247 . S
C255 O281 1.289 . S
Mg256 O257 1.926 . S
Mg256 O266 1.984 . S
Mg256 O268 1.988 1_554 S
Mg256 O269 2.061 . S
O257 Mg256 1.926 . S
O257 Mg258 1.986 1_554 S
O257 Mg259 1.917 . S
Mg258 O257 1.986 1_556 S
Mg258 O265 2.042 1_556 S
Mg258 O267 2.041 . S
Mg258 O273 2.038 1_556 S
Mg258 O281 2.238 . S
Mg259 O257 1.917 . S
Mg259 O260 1.917 1_554 S
Mg259 O270 2.106 . S
Mg259 O272 2.079 . S
Mg259 O281 2.106 1_554 S
Mg259 O282 2.079 1_554 S
O260 Mg259 1.917 1_556 S
O260 Mg261 1.926 . S
O260 Mg262 1.986 1_556 S
Mg261 O260 1.926 . S
Mg261 O275 1.984 . S
Mg261 O278 1.988 1_556 S
Mg261 O279 2.061 . S
Mg262 O260 1.986 1_554 S
Mg262 O270 2.238 . S
Mg262 O274 2.042 1_554 S
Mg262 O276 2.041 . S
Mg262 O283 2.038 1_554 S
C263 O269 1.247 . S
C263 O270 1.289 . S
C264 O282 1.245 . S
C264 O283 1.274 . S
O265 C253 1.241 . S
O265 Mg258 2.042 1_554 S
O266 C253 1.280 . S
O266 Mg256 1.984 . S
O267 C254 1.277 . S
O267 Mg258 2.041 . S
O268 C254 1.245 . S
O268 Mg256 1.988 1_556 S
O269 Mg256 2.061 . S
O269 C263 1.247 . S
O270 Mg259 2.106 . S
O270 Mg262 2.238 . S
O270 C263 1.289 . S
C271 O272 1.245 . S
C271 O273 1.274 . S
O272 Mg259 2.079 . S
O272 C271 1.245 . S
O273 Mg258 2.038 1_554 S
O273 C271 1.274 . S
O274 Mg262 2.042 1_556 S
O274 C277 1.241 . S
O275 Mg261 1.984 . S
O275 C277 1.280 . S
O276 Mg262 2.041 . S
O276 C280 1.277 . S
C277 O274 1.241 . S
C277 O275 1.280 . S
O278 Mg261 1.988 1_554 S
O278 C280 1.245 . S
O279 C255 1.247 . S
O279 Mg261 2.061 . S
C280 O276 1.277 . S
C280 O278 1.245 . S
O281 C255 1.289 . S
O281 Mg258 2.238 . S
O281 Mg259 2.106 1_556 S
O282 Mg259 2.079 1_556 S
O282 C264 1.245 . S
O283 Mg262 2.038 1_556 S
O283 C264 1.274 . S
C284 O296 1.241 . S
C284 O297 1.280 . S
C285 O298 1.277 . S
C285 O299 1.245 . S
C286 O310 1.247 . S
C286 O312 1.289 . S
Mg287 O288 1.926 . S
Mg287 O297 1.984 . S
Mg287 O299 1.988 . S
Mg287 O300 2.061 1_655 S
O288 Mg287 1.926 . S
O288 Mg289 1.986 . S
O288 Mg290 1.917 1_655 S
Mg289 O288 1.986 . S
Mg289 O296 2.042 . S
Mg289 O298 2.041 . S
Mg289 O304 2.038 . S
Mg289 O312 2.238 . S
Mg290 O288 1.917 1_455 S
Mg290 O291 1.917 . S
Mg290 O301 2.106 . S
Mg290 O303 2.079 1_455 S
Mg290 O312 2.106 1_455 S
Mg290 O313 2.079 . S
O291 Mg290 1.917 . S
O291 Mg292 1.926 . S
O291 Mg293 1.986 . S
Mg292 O291 1.926 . S
Mg292 O306 1.984 . S
Mg292 O309 1.988 . S
Mg292 O310 2.061 1_455 S
Mg293 O291 1.986 . S
Mg293 O301 2.238 . S
Mg293 O305 2.042 . S
Mg293 O307 2.041 . S
Mg293 O314 2.038 . S
C294 O300 1.247 . S
C294 O301 1.289 . S
C295 O313 1.245 . S
C295 O314 1.274 . S
O296 C284 1.241 . S
O296 Mg289 2.042 . S
O297 C284 1.280 . S
O297 Mg287 1.984 . S
O298 C285 1.277 . S
O298 Mg289 2.041 . S
O299 C285 1.245 . S
O299 Mg287 1.988 . S
O300 Mg287 2.061 1_455 S
O300 C294 1.247 . S
O301 Mg290 2.106 . S
O301 Mg293 2.238 . S
O301 C294 1.289 . S
C302 O303 1.245 . S
C302 O304 1.274 . S
O303 Mg290 2.079 1_655 S
O303 C302 1.245 . S
O304 Mg289 2.038 . S
O304 C302 1.274 . S
O305 Mg293 2.042 . S
O305 C308 1.241 . S
O306 Mg292 1.984 . S
O306 C308 1.280 . S
O307 Mg293 2.041 . S
O307 C311 1.277 . S
C308 O305 1.241 . S
C308 O306 1.280 . S
O309 Mg292 1.988 . S
O309 C311 1.245 . S
O310 C286 1.247 . S
O310 Mg292 2.061 1_655 S
C311 O307 1.277 . S
C311 O309 1.245 . S
O312 C286 1.289 . S
O312 Mg289 2.238 . S
O312 Mg290 2.106 1_655 S
O313 Mg290 2.079 . S
O313 C295 1.245 . S
O314 Mg293 2.038 . S
O314 C295 1.274 . S
C315 O327 1.241 . S
C315 O328 1.280 . S
C316 O329 1.277 . S
C316 O330 1.245 . S
C317 O341 1.247 . S
C317 O343 1.289 . S
Mg318 O319 1.926 . S
Mg318 O328 1.984 . S
Mg318 O330 1.988 . S
Mg318 O331 2.061 . S
O319 Mg318 1.926 . S
O319 Mg320 1.986 . S
O319 Mg321 1.917 . S
Mg320 O319 1.986 . S
Mg320 O327 2.042 . S
Mg320 O329 2.041 . S
Mg320 O335 2.038 1_545 S
Mg320 O343 2.238 1_545 S
Mg321 O319 1.917 . S
Mg321 O322 1.917 1_545 S
Mg321 O332 2.106 . S
Mg321 O334 2.079 1_545 S
Mg321 O343 2.106 1_545 S
Mg321 O344 2.079 . S
O322 Mg321 1.917 1_565 S
O322 Mg323 1.926 . S
O322 Mg324 1.986 . S
Mg323 O322 1.926 . S
Mg323 O337 1.984 . S
Mg323 O340 1.988 . S
Mg323 O341 2.061 . S
Mg324 O322 1.986 . S
Mg324 O332 2.238 1_565 S
Mg324 O336 2.042 . S
Mg324 O338 2.041 . S
Mg324 O345 2.038 1_565 S
C325 O331 1.247 . S
C325 O332 1.289 . S
C326 O344 1.245 . S
C326 O345 1.274 . S
O327 C315 1.241 . S
O327 Mg320 2.042 . S
O328 C315 1.280 . S
O328 Mg318 1.984 . S
O329 C316 1.277 . S
O329 Mg320 2.041 . S
O330 C316 1.245 . S
O330 Mg318 1.988 . S
O331 Mg318 2.061 . S
O331 C325 1.247 . S
O332 Mg321 2.106 . S
O332 Mg324 2.238 1_545 S
O332 C325 1.289 . S
C333 O334 1.245 . S
C333 O335 1.274 . S
O334 Mg321 2.079 1_565 S
O334 C333 1.245 . S
O335 Mg320 2.038 1_565 S
O335 C333 1.274 . S
O336 Mg324 2.042 . S
O336 C339 1.241 . S
O337 Mg323 1.984 . S
O337 C339 1.280 . S
O338 Mg324 2.041 . S
O338 C342 1.277 . S
C339 O336 1.241 . S
C339 O337 1.280 . S
O340 Mg323 1.988 . S
O340 C342 1.245 . S
O341 C317 1.247 . S
O341 Mg323 2.061 . S
C342 O338 1.277 . S
C342 O340 1.245 . S
O343 C317 1.289 . S
O343 Mg320 2.238 1_565 S
O343 Mg321 2.106 1_565 S
O344 Mg321 2.079 . S
O344 C326 1.245 . S
O345 Mg324 2.038 1_545 S
O345 C326 1.274 . S
C346 C347 1.349 . S
C346 C348 1.327 . S
C346 H371 0.950 . S
C347 C346 1.349 . S
C347 C363 1.349 . S
C348 C346 1.327 . S
C348 C367 1.429 . S
C348 H372 0.950 . S
C349 C366 1.574 . S
C349 C368 1.368 . S
C349 H373 0.949 . S
H350 C354 0.949 . S
C351 C352 1.349 . S
C351 C353 1.327 . S
C351 H374 0.950 . S
C352 C351 1.349 . S
C352 C364 1.349 . S
C353 C351 1.327 . S
C353 C369 1.429 . S
C353 H375 0.950 . S
C354 H350 0.949 . S
C354 C362 1.574 . S
C354 C370 1.368 . S
H355 C363 0.950 . S
H356 C361 0.950 . S
H357 C362 0.949 . S
H358 C364 0.950 . S
H359 C365 0.950 . S
H360 C366 0.949 . S
C361 H356 0.950 . S
C361 C363 1.327 . S
C361 C367 1.429 . S
C362 C354 1.574 . S
C362 H357 0.949 . S
C362 C368 1.368 . S
C363 C347 1.349 . S
C363 H355 0.950 . S
C363 C361 1.327 . S
C364 C352 1.349 . S
C364 H358 0.950 . S
C364 C365 1.327 . S
C365 H359 0.950 . S
C365 C364 1.327 . S
C365 C369 1.429 . S
C366 C349 1.574 . S
C366 H360 0.949 . S
C366 C370 1.368 . S
C367 C348 1.429 . S
C367 C361 1.429 . S
C367 C368 1.523 . S
C368 C349 1.368 . S
C368 C362 1.368 . S
C368 C367 1.523 . S
C369 C353 1.429 . S
C369 C365 1.429 . S
C369 C370 1.523 . S
C370 C354 1.368 . S
C370 C366 1.368 . S
C370 C369 1.523 . S
H371 C346 0.950 . S
H372 C348 0.950 . S
H373 C349 0.949 . S
H374 C351 0.950 . S
H375 C353 0.950 . S
C376 C377 1.349 . S
C376 C378 1.327 . S
C376 H401 0.950 . S
C377 C376 1.349 . S
C377 C393 1.349 . S
C378 C376 1.327 . S
C378 C397 1.429 . S
C378 H402 0.950 . S
C379 C396 1.574 . S
C379 C398 1.368 . S
C379 H403 0.949 . S
H380 C384 0.949 . S
C381 C382 1.349 . S
C381 C383 1.327 . S
C381 H404 0.950 . S
C382 C381 1.349 . S
C382 C394 1.349 . S
C383 C381 1.327 . S
C383 C399 1.429 . S
C383 H405 0.950 . S
C384 H380 0.949 . S
C384 C392 1.574 . S
C384 C400 1.368 . S
H385 C393 0.950 . S
H386 C391 0.950 . S
H387 C392 0.949 . S
H388 C394 0.950 . S
H389 C395 0.950 . S
H390 C396 0.949 . S
C391 H386 0.950 . S
C391 C393 1.327 . S
C391 C397 1.429 . S
C392 C384 1.574 . S
C392 H387 0.949 . S
C392 C398 1.368 . S
C393 C377 1.349 . S
C393 H385 0.950 . S
C393 C391 1.327 . S
C394 C382 1.349 . S
C394 H388 0.950 . S
C394 C395 1.327 . S
C395 H389 0.950 . S
C395 C394 1.327 . S
C395 C399 1.429 . S
C396 C379 1.574 . S
C396 H390 0.949 . S
C396 C400 1.368 . S
C397 C378 1.429 . S
C397 C391 1.429 . S
C397 C398 1.523 . S
C398 C379 1.368 . S
C398 C392 1.368 . S
C398 C397 1.523 . S
C399 C383 1.429 . S
C399 C395 1.429 . S
C399 C400 1.523 . S
C400 C384 1.368 . S
C400 C396 1.368 . S
C400 C399 1.523 . S
H401 C376 0.950 . S
H402 C378 0.950 . S
H403 C379 0.949 . S
H404 C381 0.950 . S
H405 C383 0.950 . S
C406 C407 1.349 . S
C406 C408 1.327 . S
C406 H431 0.950 . S
C407 C406 1.349 . S
C407 C423 1.349 . S
C408 C406 1.327 . S
C408 C427 1.429 . S
C408 H432 0.950 . S
C409 C426 1.574 . S
C409 C428 1.368 . S
C409 H433 0.949 . S
H410 C414 0.949 . S
C411 C412 1.349 . S
C411 C413 1.327 . S
C411 H434 0.950 . S
C412 C411 1.349 . S
C412 C424 1.349 . S
C413 C411 1.327 . S
C413 C429 1.429 . S
C413 H435 0.950 . S
C414 H410 0.949 . S
C414 C422 1.574 . S
C414 C430 1.368 . S
H415 C423 0.950 . S
H416 C421 0.950 . S
H417 C422 0.949 . S
H418 C424 0.950 . S
H419 C425 0.950 . S
H420 C426 0.949 . S
C421 H416 0.950 . S
C421 C423 1.327 . S
C421 C427 1.429 . S
C422 C414 1.574 . S
C422 H417 0.949 . S
C422 C428 1.368 . S
C423 C407 1.349 . S
C423 H415 0.950 . S
C423 C421 1.327 . S
C424 C412 1.349 . S
C424 H418 0.950 . S
C424 C425 1.327 . S
C425 H419 0.950 . S
C425 C424 1.327 . S
C425 C429 1.429 . S
C426 C409 1.574 . S
C426 H420 0.949 . S
C426 C430 1.368 . S
C427 C408 1.429 . S
C427 C421 1.429 . S
C427 C428 1.523 . S
C428 C409 1.368 . S
C428 C422 1.368 . S
C428 C427 1.523 . S
C429 C413 1.429 . S
C429 C425 1.429 . S
C429 C430 1.523 . S
C430 C414 1.368 . S
C430 C426 1.368 . S
C430 C429 1.523 . S
H431 C406 0.950 . S
H432 C408 0.950 . S
H433 C409 0.949 . S
H434 C411 0.950 . S
H435 C413 0.950 . S
C436 C437 1.349 . S
C436 C438 1.327 . S
C436 H461 0.950 . S
C437 C436 1.349 . S
C437 C453 1.349 . S
C438 C436 1.327 . S
C438 C457 1.429 . S
C438 H462 0.950 . S
C439 C456 1.574 . S
C439 C458 1.368 . S
C439 H463 0.949 . S
H440 C444 0.949 . S
C441 C442 1.349 . S
C441 C443 1.327 . S
C441 H464 0.950 . S
C442 C441 1.349 . S
C442 C454 1.349 . S
C443 C441 1.327 . S
C443 C459 1.429 . S
C443 H465 0.950 . S
C444 H440 0.949 . S
C444 C452 1.574 . S
C444 C460 1.368 . S
H445 C453 0.950 . S
H446 C451 0.950 . S
H447 C452 0.949 . S
H448 C454 0.950 . S
H449 C455 0.950 . S
H450 C456 0.949 . S
C451 H446 0.950 . S
C451 C453 1.327 . S
C451 C457 1.429 . S
C452 C444 1.574 . S
C452 H447 0.949 . S
C452 C458 1.368 . S
C453 C437 1.349 . S
C453 H445 0.950 . S
C453 C451 1.327 . S
C454 C442 1.349 . S
C454 H448 0.950 . S
C454 C455 1.327 . S
C455 H449 0.950 . S
C455 C454 1.327 . S
C455 C459 1.429 . S
C456 C439 1.574 . S
C456 H450 0.949 . S
C456 C460 1.368 . S
C457 C438 1.429 . S
C457 C451 1.429 . S
C457 C458 1.523 . S
C458 C439 1.368 . S
C458 C452 1.368 . S
C458 C457 1.523 . S
C459 C443 1.429 . S
C459 C455 1.429 . S
C459 C460 1.523 . S
C460 C444 1.368 . S
C460 C456 1.368 . S
C460 C459 1.523 . S
H461 C436 0.950 . S
H462 C438 0.950 . S
H463 C439 0.949 . S
H464 C441 0.950 . S
H465 C443 0.950 . S
C466 C467 1.349 . S
C466 C468 1.327 . S
C466 H491 0.950 . S
C467 C466 1.349 . S
C467 C483 1.349 . S
C468 C466 1.327 . S
C468 C487 1.429 . S
C468 H492 0.950 . S
C469 C486 1.574 . S
C469 C488 1.368 . S
C469 H493 0.949 . S
H470 C474 0.949 . S
C471 C472 1.349 . S
C471 C473 1.327 . S
C471 H494 0.950 . S
C472 C471 1.349 . S
C472 C484 1.349 . S
C473 C471 1.327 . S
C473 C489 1.429 . S
C473 H495 0.950 . S
C474 H470 0.949 . S
C474 C482 1.574 . S
C474 C490 1.368 . S
H475 C483 0.950 . S
H476 C481 0.950 . S
H477 C482 0.949 . S
H478 C484 0.950 . S
H479 C485 0.950 . S
H480 C486 0.949 . S
C481 H476 0.950 . S
C481 C483 1.327 . S
C481 C487 1.429 . S
C482 C474 1.574 . S
C482 H477 0.949 . S
C482 C488 1.368 . S
C483 C467 1.349 . S
C483 H475 0.950 . S
C483 C481 1.327 . S
C484 C472 1.349 . S
C484 H478 0.950 . S
C484 C485 1.327 . S
C485 H479 0.950 . S
C485 C484 1.327 . S
C485 C489 1.429 . S
C486 C469 1.574 . S
C486 H480 0.949 . S
C486 C490 1.368 . S
C487 C468 1.429 . S
C487 C481 1.429 . S
C487 C488 1.523 . S
C488 C469 1.368 . S
C488 C482 1.368 . S
C488 C487 1.523 . S
C489 C473 1.429 . S
C489 C485 1.429 . S
C489 C490 1.523 . S
C490 C474 1.368 . S
C490 C486 1.368 . S
C490 C489 1.523 . S
H491 C466 0.950 . S
H492 C468 0.950 . S
H493 C469 0.949 . S
H494 C471 0.950 . S
H495 C473 0.950 . S
C496 C497 1.349 . S
C496 C498 1.327 . S
C496 H521 0.950 . S
C497 C496 1.349 . S
C497 C513 1.349 . S
C498 C496 1.327 . S
C498 C517 1.429 . S
C498 H522 0.950 . S
C499 C516 1.574 . S
C499 C518 1.368 . S
C499 H523 0.949 . S
H500 C504 0.949 . S
C501 C502 1.349 . S
C501 C503 1.327 . S
C501 H524 0.950 . S
C502 C501 1.349 . S
C502 C514 1.349 . S
C503 C501 1.327 . S
C503 C519 1.429 . S
C503 H525 0.950 . S
C504 H500 0.949 . S
C504 C512 1.574 . S
C504 C520 1.368 . S
H505 C513 0.950 . S
H506 C511 0.950 . S
H507 C512 0.949 . S
H508 C514 0.950 . S
H509 C515 0.950 . S
H510 C516 0.949 . S
C511 H506 0.950 . S
C511 C513 1.327 . S
C511 C517 1.429 . S
C512 C504 1.574 . S
C512 H507 0.949 . S
C512 C518 1.368 . S
C513 C497 1.349 . S
C513 H505 0.950 . S
C513 C511 1.327 . S
C514 C502 1.349 . S
C514 H508 0.950 . S
C514 C515 1.327 . S
C515 H509 0.950 . S
C515 C514 1.327 . S
C515 C519 1.429 . S
C516 C499 1.574 . S
C516 H510 0.949 . S
C516 C520 1.368 . S
C517 C498 1.429 . S
C517 C511 1.429 . S
C517 C518 1.523 . S
C518 C499 1.368 . S
C518 C512 1.368 . S
C518 C517 1.523 . S
C519 C503 1.429 . S
C519 C515 1.429 . S
C519 C520 1.523 . S
C520 C504 1.368 . S
C520 C516 1.368 . S
C520 C519 1.523 . S
H521 C496 0.950 . S
H522 C498 0.950 . S
H523 C499 0.949 . S
H524 C501 0.950 . S
H525 C503 0.950 . S
C526 C527 1.349 . S
C526 C528 1.327 . S
C526 H551 0.950 . S
C527 C526 1.349 . S
C527 C543 1.349 . S
C528 C526 1.327 . S
C528 C547 1.429 . S
C528 H552 0.950 . S
C529 C546 1.574 . S
C529 C548 1.368 . S
C529 H553 0.949 . S
H530 C534 0.949 . S
C531 C532 1.349 . S
C531 C533 1.327 . S
C531 H554 0.950 . S
C532 C531 1.349 . S
C532 C544 1.349 . S
C533 C531 1.327 . S
C533 C549 1.429 . S
C533 H555 0.950 . S
C534 H530 0.949 . S
C534 C542 1.574 . S
C534 C550 1.368 . S
H535 C543 0.950 . S
H536 C541 0.950 . S
H537 C542 0.949 . S
H538 C544 0.950 . S
H539 C545 0.950 . S
H540 C546 0.949 . S
C541 H536 0.950 . S
C541 C543 1.327 . S
C541 C547 1.429 . S
C542 C534 1.574 . S
C542 H537 0.949 . S
C542 C548 1.368 . S
C543 C527 1.349 . S
C543 H535 0.950 . S
C543 C541 1.327 . S
C544 C532 1.349 . S
C544 H538 0.950 . S
C544 C545 1.327 . S
C545 H539 0.950 . S
C545 C544 1.327 . S
C545 C549 1.429 . S
C546 C529 1.574 . S
C546 H540 0.949 . S
C546 C550 1.368 . S
C547 C528 1.429 . S
C547 C541 1.429 . S
C547 C548 1.523 . S
C548 C529 1.368 . S
C548 C542 1.368 . S
C548 C547 1.523 . S
C549 C533 1.429 . S
C549 C545 1.429 . S
C549 C550 1.523 . S
C550 C534 1.368 . S
C550 C546 1.368 . S
C550 C549 1.523 . S
H551 C526 0.950 . S
H552 C528 0.950 . S
H553 C529 0.949 . S
H554 C531 0.950 . S
H555 C533 0.950 . S
C556 C557 1.349 . S
C556 C558 1.327 . S
C556 H581 0.950 . S
C557 C556 1.349 . S
C557 C573 1.349 . S
C558 C556 1.327 . S
C558 C577 1.429 . S
C558 H582 0.950 . S
C559 C576 1.574 . S
C559 C578 1.368 . S
C559 H583 0.949 . S
H560 C564 0.949 . S
C561 C562 1.349 . S
C561 C563 1.327 . S
C561 H584 0.950 . S
C562 C561 1.349 . S
C562 C574 1.349 . S
C563 C561 1.327 . S
C563 C579 1.429 . S
C563 H585 0.950 . S
C564 H560 0.949 . S
C564 C572 1.574 . S
C564 C580 1.368 . S
H565 C573 0.950 . S
H566 C571 0.950 . S
H567 C572 0.949 . S
H568 C574 0.950 . S
H569 C575 0.950 . S
H570 C576 0.949 . S
C571 H566 0.950 . S
C571 C573 1.327 . S
C571 C577 1.429 . S
C572 C564 1.574 . S
C572 H567 0.949 . S
C572 C578 1.368 . S
C573 C557 1.349 . S
C573 H565 0.950 . S
C573 C571 1.327 . S
C574 C562 1.349 . S
C574 H568 0.950 . S
C574 C575 1.327 . S
C575 H569 0.950 . S
C575 C574 1.327 . S
C575 C579 1.429 . S
C576 C559 1.574 . S
C576 H570 0.949 . S
C576 C580 1.368 . S
C577 C558 1.429 . S
C577 C571 1.429 . S
C577 C578 1.523 . S
C578 C559 1.368 . S
C578 C572 1.368 . S
C578 C577 1.523 . S
C579 C563 1.429 . S
C579 C575 1.429 . S
C579 C580 1.523 . S
C580 C564 1.368 . S
C580 C576 1.368 . S
C580 C579 1.523 . S
H581 C556 0.950 . S
H582 C558 0.950 . S
H583 C559 0.949 . S
H584 C561 0.950 . S
H585 C563 0.950 . S
C586 C587 1.349 . S
C586 C588 1.327 . S
C586 H611 0.950 . S
C587 C586 1.349 . S
C587 C603 1.349 . S
C588 C586 1.327 . S
C588 C607 1.429 . S
C588 H612 0.950 . S
C589 C606 1.574 . S
C589 C608 1.368 . S
C589 H613 0.949 . S
H590 C594 0.949 . S
C591 C592 1.349 . S
C591 C593 1.327 . S
C591 H614 0.950 . S
C592 C591 1.349 . S
C592 C604 1.349 . S
C593 C591 1.327 . S
C593 C609 1.429 . S
C593 H615 0.950 . S
C594 H590 0.949 . S
C594 C602 1.574 . S
C594 C610 1.368 . S
H595 C603 0.950 . S
H596 C601 0.950 . S
H597 C602 0.949 . S
H598 C604 0.950 . S
H599 C605 0.950 . S
H600 C606 0.949 . S
C601 H596 0.950 . S
C601 C603 1.327 . S
C601 C607 1.429 . S
C602 C594 1.574 . S
C602 H597 0.949 . S
C602 C608 1.368 . S
C603 C587 1.349 . S
C603 H595 0.950 . S
C603 C601 1.327 . S
C604 C592 1.349 . S
C604 H598 0.950 . S
C604 C605 1.327 . S
C605 H599 0.950 . S
C605 C604 1.327 . S
C605 C609 1.429 . S
C606 C589 1.574 . S
C606 H600 0.949 . S
C606 C610 1.368 . S
C607 C588 1.429 . S
C607 C601 1.429 . S
C607 C608 1.523 . S
C608 C589 1.368 . S
C608 C602 1.368 . S
C608 C607 1.523 . S
C609 C593 1.429 . S
C609 C605 1.429 . S
C609 C610 1.523 . S
C610 C594 1.368 . S
C610 C606 1.368 . S
C610 C609 1.523 . S
H611 C586 0.950 . S
H612 C588 0.950 . S
H613 C589 0.949 . S
H614 C591 0.950 . S
H615 C593 0.950 . S
C616 C617 1.349 . S
C616 C618 1.327 . S
C616 H641 0.950 . S
C617 C616 1.349 . S
C617 C633 1.349 . S
C618 C616 1.327 . S
C618 C637 1.429 . S
C618 H642 0.950 . S
C619 C636 1.574 . S
C619 C638 1.368 . S
C619 H643 0.949 . S
H620 C624 0.949 . S
C621 C622 1.349 . S
C621 C623 1.327 . S
C621 H644 0.950 . S
C622 C621 1.349 . S
C622 C634 1.349 . S
C623 C621 1.327 . S
C623 C639 1.429 . S
C623 H645 0.950 . S
C624 H620 0.949 . S
C624 C632 1.574 . S
C624 C640 1.368 . S
H625 C633 0.950 . S
H626 C631 0.950 . S
H627 C632 0.949 . S
H628 C634 0.950 . S
H629 C635 0.950 . S
H630 C636 0.949 . S
C631 H626 0.950 . S
C631 C633 1.327 . S
C631 C637 1.429 . S
C632 C624 1.574 . S
C632 H627 0.949 . S
C632 C638 1.368 . S
C633 C617 1.349 . S
C633 H625 0.950 . S
C633 C631 1.327 . S
C634 C622 1.349 . S
C634 H628 0.950 . S
C634 C635 1.327 . S
C635 H629 0.950 . S
C635 C634 1.327 . S
C635 C639 1.429 . S
C636 C619 1.574 . S
C636 H630 0.949 . S
C636 C640 1.368 . S
C637 C618 1.429 . S
C637 C631 1.429 . S
C637 C638 1.523 . S
C638 C619 1.368 . S
C638 C632 1.368 . S
C638 C637 1.523 . S
C639 C623 1.429 . S
C639 C635 1.429 . S
C639 C640 1.523 . S
C640 C624 1.368 . S
C640 C636 1.368 . S
C640 C639 1.523 . S
H641 C616 0.950 . S
H642 C618 0.950 . S
H643 C619 0.949 . S
H644 C621 0.950 . S
H645 C623 0.950 . S
C646 C647 1.349 . S
C646 C648 1.327 . S
C646 H671 0.950 . S
C647 C646 1.349 . S
C647 C663 1.349 . S
C648 C646 1.327 . S
C648 C667 1.429 . S
C648 H672 0.950 . S
C649 C666 1.574 . S
C649 C668 1.368 . S
C649 H673 0.949 . S
H650 C654 0.949 . S
C651 C652 1.349 . S
C651 C653 1.327 . S
C651 H674 0.950 . S
C652 C651 1.349 . S
C652 C664 1.349 . S
C653 C651 1.327 . S
C653 C669 1.429 . S
C653 H675 0.950 . S
C654 H650 0.949 . S
C654 C662 1.574 . S
C654 C670 1.368 . S
H655 C663 0.950 . S
H656 C661 0.950 . S
H657 C662 0.949 . S
H658 C664 0.950 . S
H659 C665 0.950 . S
H660 C666 0.949 . S
C661 H656 0.950 . S
C661 C663 1.327 . S
C661 C667 1.429 . S
C662 C654 1.574 . S
C662 H657 0.949 . S
C662 C668 1.368 . S
C663 C647 1.349 . S
C663 H655 0.950 . S
C663 C661 1.327 . S
C664 C652 1.349 . S
C664 H658 0.950 . S
C664 C665 1.327 . S
C665 H659 0.950 . S
C665 C664 1.327 . S
C665 C669 1.429 . S
C666 C649 1.574 . S
C666 H660 0.949 . S
C666 C670 1.368 . S
C667 C648 1.429 . S
C667 C661 1.429 . S
C667 C668 1.523 . S
C668 C649 1.368 . S
C668 C662 1.368 . S
C668 C667 1.523 . S
C669 C653 1.429 . S
C669 C665 1.429 . S
C669 C670 1.523 . S
C670 C654 1.368 . S
C670 C666 1.368 . S
C670 C669 1.523 . S
H671 C646 0.950 . S
H672 C648 0.950 . S
H673 C649 0.949 . S
H674 C651 0.950 . S
H675 C653 0.950 . S
C676 C677 1.349 . S
C676 C678 1.327 . S
C676 H701 0.950 . S
C677 C676 1.349 . S
C677 C693 1.349 . S
C678 C676 1.327 . S
C678 C697 1.429 . S
C678 H702 0.950 . S
C679 C696 1.574 . S
C679 C698 1.368 . S
C679 H703 0.949 . S
H680 C684 0.949 . S
C681 C682 1.349 . S
C681 C683 1.327 . S
C681 H704 0.950 . S
C682 C681 1.349 . S
C682 C694 1.349 . S
C683 C681 1.327 . S
C683 C699 1.429 . S
C683 H705 0.950 . S
C684 H680 0.949 . S
C684 C692 1.574 . S
C684 C700 1.368 . S
H685 C693 0.950 . S
H686 C691 0.950 . S
H687 C692 0.949 . S
H688 C694 0.950 . S
H689 C695 0.950 . S
H690 C696 0.949 . S
C691 H686 0.950 . S
C691 C693 1.327 . S
C691 C697 1.429 . S
C692 C684 1.574 . S
C692 H687 0.949 . S
C692 C698 1.368 . S
C693 C677 1.349 . S
C693 H685 0.950 . S
C693 C691 1.327 . S
C694 C682 1.349 . S
C694 H688 0.950 . S
C694 C695 1.327 . S
C695 H689 0.950 . S
C695 C694 1.327 . S
C695 C699 1.429 . S
C696 C679 1.574 . S
C696 H690 0.949 . S
C696 C700 1.368 . S
C697 C678 1.429 . S
C697 C691 1.429 . S
C697 C698 1.523 . S
C698 C679 1.368 . S
C698 C692 1.368 . S
C698 C697 1.523 . S
C699 C683 1.429 . S
C699 C695 1.429 . S
C699 C700 1.523 . S
C700 C684 1.368 . S
C700 C696 1.368 . S
C700 C699 1.523 . S
H701 C676 0.950 . S
H702 C678 0.950 . S
H703 C679 0.949 . S
H704 C681 0.950 . S
H705 C683 0.950 . S
C706 C707 1.349 . S
C706 C708 1.327 . S
C706 H731 0.950 . S
C707 C706 1.349 . S
C707 C723 1.349 . S
C708 C706 1.327 . S
C708 C727 1.429 . S
C708 H732 0.950 . S
C709 C726 1.574 . S
C709 C728 1.368 . S
C709 H733 0.949 . S
H710 C714 0.949 . S
C711 C712 1.349 . S
C711 C713 1.327 . S
C711 H734 0.950 . S
C712 C711 1.349 . S
C712 C724 1.349 . S
C713 C711 1.327 . S
C713 C729 1.429 . S
C713 H735 0.950 . S
C714 H710 0.949 . S
C714 C722 1.574 . S
C714 C730 1.368 . S
H715 C723 0.950 . S
H716 C721 0.950 . S
H717 C722 0.949 . S
H718 C724 0.950 . S
H719 C725 0.950 . S
H720 C726 0.949 . S
C721 H716 0.950 . S
C721 C723 1.327 . S
C721 C727 1.429 . S
C722 C714 1.574 . S
C722 H717 0.949 . S
C722 C728 1.368 . S
C723 C707 1.349 . S
C723 H715 0.950 . S
C723 C721 1.327 . S
C724 C712 1.349 . S
C724 H718 0.950 . S
C724 C725 1.327 . S
C725 H719 0.950 . S
C725 C724 1.327 . S
C725 C729 1.429 . S
C726 C709 1.574 . S
C726 H720 0.949 . S
C726 C730 1.368 . S
C727 C708 1.429 . S
C727 C721 1.429 . S
C727 C728 1.523 . S
C728 C709 1.368 . S
C728 C722 1.368 . S
C728 C727 1.523 . S
C729 C713 1.429 . S
C729 C725 1.429 . S
C729 C730 1.523 . S
C730 C714 1.368 . S
C730 C726 1.368 . S
C730 C729 1.523 . S
H731 C706 0.950 . S
H732 C708 0.950 . S
H733 C709 0.949 . S
H734 C711 0.950 . S
H735 C713 0.950 . S
C736 C737 1.349 . S
C736 C738 1.327 . S
C736 H761 0.950 . S
C737 C736 1.349 . S
C737 C753 1.349 . S
C738 C736 1.327 . S
C738 C757 1.429 . S
C738 H762 0.950 . S
C739 C756 1.574 . S
C739 C758 1.368 . S
C739 H763 0.949 . S
H740 C744 0.949 . S
C741 C742 1.349 . S
C741 C743 1.327 . S
C741 H764 0.950 . S
C742 C741 1.349 . S
C742 C754 1.349 . S
C743 C741 1.327 . S
C743 C759 1.429 . S
C743 H765 0.950 . S
C744 H740 0.949 . S
C744 C752 1.574 . S
C744 C760 1.368 . S
H745 C753 0.950 . S
H746 C751 0.950 . S
H747 C752 0.949 . S
H748 C754 0.950 . S
H749 C755 0.950 . S
H750 C756 0.949 . S
C751 H746 0.950 . S
C751 C753 1.327 . S
C751 C757 1.429 . S
C752 C744 1.574 . S
C752 H747 0.949 . S
C752 C758 1.368 . S
C753 C737 1.349 . S
C753 H745 0.950 . S
C753 C751 1.327 . S
C754 C742 1.349 . S
C754 H748 0.950 . S
C754 C755 1.327 . S
C755 H749 0.950 . S
C755 C754 1.327 . S
C755 C759 1.429 . S
C756 C739 1.574 . S
C756 H750 0.949 . S
C756 C760 1.368 . S
C757 C738 1.429 . S
C757 C751 1.429 . S
C757 C758 1.523 . S
C758 C739 1.368 . S
C758 C752 1.368 . S
C758 C757 1.523 . S
C759 C743 1.429 . S
C759 C755 1.429 . S
C759 C760 1.523 . S
C760 C744 1.368 . S
C760 C756 1.368 . S
C760 C759 1.523 . S
H761 C736 0.950 . S
H762 C738 0.950 . S
H763 C739 0.949 . S
H764 C741 0.950 . S
H765 C743 0.950 . S
C766 C767 1.349 . S
C766 C768 1.327 . S
C766 H791 0.950 . S
C767 C766 1.349 . S
C767 C783 1.349 . S
C768 C766 1.327 . S
C768 C787 1.429 . S
C768 H792 0.950 . S
C769 C786 1.574 . S
C769 C788 1.368 . S
C769 H793 0.949 . S
H770 C774 0.949 . S
C771 C772 1.349 . S
C771 C773 1.327 . S
C771 H794 0.950 . S
C772 C771 1.349 . S
C772 C784 1.349 . S
C773 C771 1.327 . S
C773 C789 1.429 . S
C773 H795 0.950 . S
C774 H770 0.949 . S
C774 C782 1.574 . S
C774 C790 1.368 . S
H775 C783 0.950 . S
H776 C781 0.950 . S
H777 C782 0.949 . S
H778 C784 0.950 . S
H779 C785 0.950 . S
H780 C786 0.949 . S
C781 H776 0.950 . S
C781 C783 1.327 . S
C781 C787 1.429 . S
C782 C774 1.574 . S
C782 H777 0.949 . S
C782 C788 1.368 . S
C783 C767 1.349 . S
C783 H775 0.950 . S
C783 C781 1.327 . S
C784 C772 1.349 . S
C784 H778 0.950 . S
C784 C785 1.327 . S
C785 H779 0.950 . S
C785 C784 1.327 . S
C785 C789 1.429 . S
C786 C769 1.574 . S
C786 H780 0.949 . S
C786 C790 1.368 . S
C787 C768 1.429 . S
C787 C781 1.429 . S
C787 C788 1.523 . S
C788 C769 1.368 . S
C788 C782 1.368 . S
C788 C787 1.523 . S
C789 C773 1.429 . S
C789 C785 1.429 . S
C789 C790 1.523 . S
C790 C774 1.368 . S
C790 C786 1.368 . S
C790 C789 1.523 . S
H791 C766 0.950 . S
H792 C768 0.950 . S
H793 C769 0.949 . S
H794 C771 0.950 . S
H795 C773 0.950 . S
C796 C797 1.349 . S
C796 C798 1.327 . S
C796 H821 0.950 . S
C797 C796 1.349 . S
C797 C813 1.349 . S
C798 C796 1.327 . S
C798 C817 1.429 . S
C798 H822 0.950 . S
C799 C816 1.574 . S
C799 C818 1.368 . S
C799 H823 0.949 . S
H800 C804 0.949 . S
C801 C802 1.349 . S
C801 C803 1.327 . S
C801 H824 0.950 . S
C802 C801 1.349 . S
C802 C814 1.349 . S
C803 C801 1.327 . S
C803 C819 1.429 . S
C803 H825 0.950 . S
C804 H800 0.949 . S
C804 C812 1.574 . S
C804 C820 1.368 . S
H805 C813 0.950 . S
H806 C811 0.950 . S
H807 C812 0.949 . S
H808 C814 0.950 . S
H809 C815 0.950 . S
H810 C816 0.949 . S
C811 H806 0.950 . S
C811 C813 1.327 . S
C811 C817 1.429 . S
C812 C804 1.574 . S
C812 H807 0.949 . S
C812 C818 1.368 . S
C813 C797 1.349 . S
C813 H805 0.950 . S
C813 C811 1.327 . S
C814 C802 1.349 . S
C814 H808 0.950 . S
C814 C815 1.327 . S
C815 H809 0.950 . S
C815 C814 1.327 . S
C815 C819 1.429 . S
C816 C799 1.574 . S
C816 H810 0.949 . S
C816 C820 1.368 . S
C817 C798 1.429 . S
C817 C811 1.429 . S
C817 C818 1.523 . S
C818 C799 1.368 . S
C818 C812 1.368 . S
C818 C817 1.523 . S
C819 C803 1.429 . S
C819 C815 1.429 . S
C819 C820 1.523 . S
C820 C804 1.368 . S
C820 C816 1.368 . S
C820 C819 1.523 . S
H821 C796 0.950 . S
H822 C798 0.950 . S
H823 C799 0.949 . S
H824 C801 0.950 . S
H825 C803 0.950 . S
C826 C827 1.349 . S
C826 C828 1.327 . S
C826 H851 0.950 . S
C827 C826 1.349 . S
C827 C843 1.349 . S
C828 C826 1.327 . S
C828 C847 1.429 . S
C828 H852 0.950 . S
C829 C846 1.574 . S
C829 C848 1.368 . S
C829 H853 0.949 . S
H830 C834 0.949 . S
C831 C832 1.349 . S
C831 C833 1.327 . S
C831 H854 0.950 . S
C832 C831 1.349 . S
C832 C844 1.349 . S
C833 C831 1.327 . S
C833 C849 1.429 . S
C833 H855 0.950 . S
C834 H830 0.949 . S
C834 C842 1.574 . S
C834 C850 1.368 . S
H835 C843 0.950 . S
H836 C841 0.950 . S
H837 C842 0.949 . S
H838 C844 0.950 . S
H839 C845 0.950 . S
H840 C846 0.949 . S
C841 H836 0.950 . S
C841 C843 1.327 . S
C841 C847 1.429 . S
C842 C834 1.574 . S
C842 H837 0.949 . S
C842 C848 1.368 . S
C843 C827 1.349 . S
C843 H835 0.950 . S
C843 C841 1.327 . S
C844 C832 1.349 . S
C844 H838 0.950 . S
C844 C845 1.327 . S
C845 H839 0.950 . S
C845 C844 1.327 . S
C845 C849 1.429 . S
C846 C829 1.574 . S
C846 H840 0.949 . S
C846 C850 1.368 . S
C847 C828 1.429 . S
C847 C841 1.429 . S
C847 C848 1.523 . S
C848 C829 1.368 . S
C848 C842 1.368 . S
C848 C847 1.523 . S
C849 C833 1.429 . S
C849 C845 1.429 . S
C849 C850 1.523 . S
C850 C834 1.368 . S
C850 C846 1.368 . S
C850 C849 1.523 . S
H851 C826 0.950 . S
H852 C828 0.950 . S
H853 C829 0.949 . S
H854 C831 0.950 . S
H855 C833 0.950 . S
C856 C857 1.349 . S
C856 C858 1.327 . S
C856 H881 0.950 . S
C857 C856 1.349 . S
C857 C873 1.349 . S
C858 C856 1.327 . S
C858 C877 1.429 . S
C858 H882 0.950 . S
C859 C876 1.574 . S
C859 C878 1.368 . S
C859 H883 0.949 . S
H860 C864 0.949 . S
C861 C862 1.349 . S
C861 C863 1.327 . S
C861 H884 0.950 . S
C862 C861 1.349 . S
C862 C874 1.349 . S
C863 C861 1.327 . S
C863 C879 1.429 . S
C863 H885 0.950 . S
C864 H860 0.949 . S
C864 C872 1.574 . S
C864 C880 1.368 . S
H865 C873 0.950 . S
H866 C871 0.950 . S
H867 C872 0.949 . S
H868 C874 0.950 . S
H869 C875 0.950 . S
H870 C876 0.949 . S
C871 H866 0.950 . S
C871 C873 1.327 . S
C871 C877 1.429 . S
C872 C864 1.574 . S
C872 H867 0.949 . S
C872 C878 1.368 . S
C873 C857 1.349 . S
C873 H865 0.950 . S
C873 C871 1.327 . S
C874 C862 1.349 . S
C874 H868 0.950 . S
C874 C875 1.327 . S
C875 H869 0.950 . S
C875 C874 1.327 . S
C875 C879 1.429 . S
C876 C859 1.574 . S
C876 H870 0.949 . S
C876 C880 1.368 . S
C877 C858 1.429 . S
C877 C871 1.429 . S
C877 C878 1.523 . S
C878 C859 1.368 . S
C878 C872 1.368 . S
C878 C877 1.523 . S
C879 C863 1.429 . S
C879 C875 1.429 . S
C879 C880 1.523 . S
C880 C864 1.368 . S
C880 C876 1.368 . S
C880 C879 1.523 . S
H881 C856 0.950 . S
H882 C858 0.950 . S
H883 C859 0.949 . S
H884 C861 0.950 . S
H885 C863 0.950 . S
C886 C887 1.349 . S
C886 C888 1.327 . S
C886 H911 0.950 . S
C887 C886 1.349 . S
C887 C903 1.349 . S
C888 C886 1.327 . S
C888 C907 1.429 . S
C888 H912 0.950 . S
C889 C906 1.574 . S
C889 C908 1.368 . S
C889 H913 0.949 . S
H890 C894 0.949 . S
C891 C892 1.349 . S
C891 C893 1.327 . S
C891 H914 0.950 . S
C892 C891 1.349 . S
C892 C904 1.349 . S
C893 C891 1.327 . S
C893 C909 1.429 . S
C893 H915 0.950 . S
C894 H890 0.949 . S
C894 C902 1.574 . S
C894 C910 1.368 . S
H895 C903 0.950 . S
H896 C901 0.950 . S
H897 C902 0.949 . S
H898 C904 0.950 . S
H899 C905 0.950 . S
H900 C906 0.949 . S
C901 H896 0.950 . S
C901 C903 1.327 . S
C901 C907 1.429 . S
C902 C894 1.574 . S
C902 H897 0.949 . S
C902 C908 1.368 . S
C903 C887 1.349 . S
C903 H895 0.950 . S
C903 C901 1.327 . S
C904 C892 1.349 . S
C904 H898 0.950 . S
C904 C905 1.327 . S
C905 H899 0.950 . S
C905 C904 1.327 . S
C905 C909 1.429 . S
C906 C889 1.574 . S
C906 H900 0.949 . S
C906 C910 1.368 . S
C907 C888 1.429 . S
C907 C901 1.429 . S
C907 C908 1.523 . S
C908 C889 1.368 . S
C908 C902 1.368 . S
C908 C907 1.523 . S
C909 C893 1.429 . S
C909 C905 1.429 . S
C909 C910 1.523 . S
C910 C894 1.368 . S
C910 C906 1.368 . S
C910 C909 1.523 . S
H911 C886 0.950 . S
H912 C888 0.950 . S
H913 C889 0.949 . S
H914 C891 0.950 . S
H915 C893 0.950 . S
C916 C917 1.349 . S
C916 C918 1.327 . S
C916 H941 0.950 . S
C917 C916 1.349 . S
C917 C933 1.349 . S
C918 C916 1.327 . S
C918 C937 1.429 . S
C918 H942 0.950 . S
C919 C936 1.574 . S
C919 C938 1.368 . S
C919 H943 0.949 . S
H920 C924 0.949 . S
C921 C922 1.349 . S
C921 C923 1.327 . S
C921 H944 0.950 . S
C922 C921 1.349 . S
C922 C934 1.349 . S
C923 C921 1.327 . S
C923 C939 1.429 . S
C923 H945 0.950 . S
C924 H920 0.949 . S
C924 C932 1.574 . S
C924 C940 1.368 . S
H925 C933 0.950 . S
H926 C931 0.950 . S
H927 C932 0.949 . S
H928 C934 0.950 . S
H929 C935 0.950 . S
H930 C936 0.949 . S
C931 H926 0.950 . S
C931 C933 1.327 . S
C931 C937 1.429 . S
C932 C924 1.574 . S
C932 H927 0.949 . S
C932 C938 1.368 . S
C933 C917 1.349 . S
C933 H925 0.950 . S
C933 C931 1.327 . S
C934 C922 1.349 . S
C934 H928 0.950 . S
C934 C935 1.327 . S
C935 H929 0.950 . S
C935 C934 1.327 . S
C935 C939 1.429 . S
C936 C919 1.574 . S
C936 H930 0.949 . S
C936 C940 1.368 . S
C937 C918 1.429 . S
C937 C931 1.429 . S
C937 C938 1.523 . S
C938 C919 1.368 . S
C938 C932 1.368 . S
C938 C937 1.523 . S
C939 C923 1.429 . S
C939 C935 1.429 . S
C939 C940 1.523 . S
C940 C924 1.368 . S
C940 C936 1.368 . S
C940 C939 1.523 . S
H941 C916 0.950 . S
H942 C918 0.950 . S
H943 C919 0.949 . S
H944 C921 0.950 . S
H945 C923 0.950 . S
C946 C947 1.349 . S
C946 C948 1.327 . S
C946 H971 0.950 . S
C947 C946 1.349 . S
C947 C963 1.349 . S
C948 C946 1.327 . S
C948 C967 1.429 . S
C948 H972 0.950 . S
C949 C966 1.574 . S
C949 C968 1.368 . S
C949 H973 0.949 . S
H950 C954 0.949 . S
C951 C952 1.349 . S
C951 C953 1.327 . S
C951 H974 0.950 . S
C952 C951 1.349 . S
C952 C964 1.349 . S
C953 C951 1.327 . S
C953 C969 1.429 . S
C953 H975 0.950 . S
C954 H950 0.949 . S
C954 C962 1.574 . S
C954 C970 1.368 . S
H955 C963 0.950 . S
H956 C961 0.950 . S
H957 C962 0.949 . S
H958 C964 0.950 . S
H959 C965 0.950 . S
H960 C966 0.949 . S
C961 H956 0.950 . S
C961 C963 1.327 . S
C961 C967 1.429 . S
C962 C954 1.574 . S
C962 H957 0.949 . S
C962 C968 1.368 . S
C963 C947 1.349 . S
C963 H955 0.950 . S
C963 C961 1.327 . S
C964 C952 1.349 . S
C964 H958 0.950 . S
C964 C965 1.327 . S
C965 H959 0.950 . S
C965 C964 1.327 . S
C965 C969 1.429 . S
C966 C949 1.574 . S
C966 H960 0.949 . S
C966 C970 1.368 . S
C967 C948 1.429 . S
C967 C961 1.429 . S
C967 C968 1.523 . S
C968 C949 1.368 . S
C968 C962 1.368 . S
C968 C967 1.523 . S
C969 C953 1.429 . S
C969 C965 1.429 . S
C969 C970 1.523 . S
C970 C954 1.368 . S
C970 C966 1.368 . S
C970 C969 1.523 . S
H971 C946 0.950 . S
H972 C948 0.950 . S
H973 C949 0.949 . S
H974 C951 0.950 . S
H975 C953 0.950 . S
C976 C977 1.349 . S
C976 C978 1.327 . S
C976 H1001 0.950 . S
C977 C976 1.349 . S
C977 C993 1.349 . S
C978 C976 1.327 . S
C978 C997 1.429 . S
C978 H1002 0.950 . S
C979 C996 1.574 . S
C979 C998 1.368 . S
C979 H1003 0.949 . S
H980 C984 0.949 . S
C981 C982 1.349 . S
C981 C983 1.327 . S
C981 H1004 0.950 . S
C982 C981 1.349 . S
C982 C994 1.349 . S
C983 C981 1.327 . S
C983 C999 1.429 . S
C983 H1005 0.950 . S
C984 H980 0.949 . S
C984 C992 1.574 . S
C984 C1000 1.368 . S
H985 C993 0.950 . S
H986 C991 0.950 . S
H987 C992 0.949 . S
H988 C994 0.950 . S
H989 C995 0.950 . S
H990 C996 0.949 . S
C991 H986 0.950 . S
C991 C993 1.327 . S
C991 C997 1.429 . S
C992 C984 1.574 . S
C992 H987 0.949 . S
C992 C998 1.368 . S
C993 C977 1.349 . S
C993 H985 0.950 . S
C993 C991 1.327 . S
C994 C982 1.349 . S
C994 H988 0.950 . S
C994 C995 1.327 . S
C995 H989 0.950 . S
C995 C994 1.327 . S
C995 C999 1.429 . S
C996 C979 1.574 . S
C996 H990 0.949 . S
C996 C1000 1.368 . S
C997 C978 1.429 . S
C997 C991 1.429 . S
C997 C998 1.523 . S
C998 C979 1.368 . S
C998 C992 1.368 . S
C998 C997 1.523 . S
C999 C983 1.429 . S
C999 C995 1.429 . S
C999 C1000 1.523 . S
C1000 C984 1.368 . S
C1000 C996 1.368 . S
C1000 C999 1.523 . S
H1001 C976 0.950 . S
H1002 C978 0.950 . S
H1003 C979 0.949 . S
H1004 C981 0.950 . S
H1005 C983 0.950 . S
C1006 C1007 1.349 . S
C1006 C1008 1.327 . S
C1006 H1031 0.950 . S
C1007 C1006 1.349 . S
C1007 C1023 1.349 . S
C1008 C1006 1.327 . S
C1008 C1027 1.429 . S
C1008 H1032 0.950 . S
C1009 C1026 1.574 . S
C1009 C1028 1.368 . S
C1009 H1033 0.949 . S
H1010 C1014 0.949 . S
C1011 C1012 1.349 . S
C1011 C1013 1.327 . S
C1011 H1034 0.950 . S
C1012 C1011 1.349 . S
C1012 C1024 1.349 . S
C1013 C1011 1.327 . S
C1013 C1029 1.429 . S
C1013 H1035 0.950 . S
C1014 H1010 0.949 . S
C1014 C1022 1.574 . S
C1014 C1030 1.368 . S
H1015 C1023 0.950 . S
H1016 C1021 0.950 . S
H1017 C1022 0.949 . S
H1018 C1024 0.950 . S
H1019 C1025 0.950 . S
H1020 C1026 0.949 . S
C1021 H1016 0.950 . S
C1021 C1023 1.327 . S
C1021 C1027 1.429 . S
C1022 C1014 1.574 . S
C1022 H1017 0.949 . S
C1022 C1028 1.368 . S
C1023 C1007 1.349 . S
C1023 H1015 0.950 . S
C1023 C1021 1.327 . S
C1024 C1012 1.349 . S
C1024 H1018 0.950 . S
C1024 C1025 1.327 . S
C1025 H1019 0.950 . S
C1025 C1024 1.327 . S
C1025 C1029 1.429 . S
C1026 C1009 1.574 . S
C1026 H1020 0.949 . S
C1026 C1030 1.368 . S
C1027 C1008 1.429 . S
C1027 C1021 1.429 . S
C1027 C1028 1.523 . S
C1028 C1009 1.368 . S
C1028 C1022 1.368 . S
C1028 C1027 1.523 . S
C1029 C1013 1.429 . S
C1029 C1025 1.429 . S
C1029 C1030 1.523 . S
C1030 C1014 1.368 . S
C1030 C1026 1.368 . S
C1030 C1029 1.523 . S
H1031 C1006 0.950 . S
H1032 C1008 0.950 . S
H1033 C1009 0.949 . S
H1034 C1011 0.950 . S
H1035 C1013 0.950 . S
C1036 C1037 1.349 . S
C1036 C1038 1.327 . S
C1036 H1061 0.950 . S
C1037 C1036 1.349 . S
C1037 C1053 1.349 . S
C1038 C1036 1.327 . S
C1038 C1057 1.429 . S
C1038 H1062 0.950 . S
C1039 C1056 1.574 . S
C1039 C1058 1.368 . S
C1039 H1063 0.949 . S
H1040 C1044 0.949 . S
C1041 C1042 1.349 . S
C1041 C1043 1.327 . S
C1041 H1064 0.950 . S
C1042 C1041 1.349 . S
C1042 C1054 1.349 . S
C1043 C1041 1.327 . S
C1043 C1059 1.429 . S
C1043 H1065 0.950 . S
C1044 H1040 0.949 . S
C1044 C1052 1.574 . S
C1044 C1060 1.368 . S
H1045 C1053 0.950 . S
H1046 C1051 0.950 . S
H1047 C1052 0.949 . S
H1048 C1054 0.950 . S
H1049 C1055 0.950 . S
H1050 C1056 0.949 . S
C1051 H1046 0.950 . S
C1051 C1053 1.327 . S
C1051 C1057 1.429 . S
C1052 C1044 1.574 . S
C1052 H1047 0.949 . S
C1052 C1058 1.368 . S
C1053 C1037 1.349 . S
C1053 H1045 0.950 . S
C1053 C1051 1.327 . S
C1054 C1042 1.349 . S
C1054 H1048 0.950 . S
C1054 C1055 1.327 . S
C1055 H1049 0.950 . S
C1055 C1054 1.327 . S
C1055 C1059 1.429 . S
C1056 C1039 1.574 . S
C1056 H1050 0.949 . S
C1056 C1060 1.368 . S
C1057 C1038 1.429 . S
C1057 C1051 1.429 . S
C1057 C1058 1.523 . S
C1058 C1039 1.368 . S
C1058 C1052 1.368 . S
C1058 C1057 1.523 . S
C1059 C1043 1.429 . S
C1059 C1055 1.429 . S
C1059 C1060 1.523 . S
C1060 C1044 1.368 . S
C1060 C1056 1.368 . S
C1060 C1059 1.523 . S
H1061 C1036 0.950 . S
H1062 C1038 0.950 . S
H1063 C1039 0.949 . S
H1064 C1041 0.950 . S
H1065 C1043 0.950 . S
C1066 C1067 1.349 . S
C1066 C1068 1.327 . S
C1066 H1091 0.950 . S
C1067 C1066 1.349 . S
C1067 C1083 1.349 . S
C1068 C1066 1.327 . S
C1068 C1087 1.429 . S
C1068 H1092 0.950 . S
C1069 C1086 1.574 . S
C1069 C1088 1.368 . S
C1069 H1093 0.949 . S
H1070 C1074 0.949 . S
C1071 C1072 1.349 . S
C1071 C1073 1.327 . S
C1071 H1094 0.950 . S
C1072 C1071 1.349 . S
C1072 C1084 1.349 . S
C1073 C1071 1.327 . S
C1073 C1089 1.429 . S
C1073 H1095 0.950 . S
C1074 H1070 0.949 . S
C1074 C1082 1.574 . S
C1074 C1090 1.368 . S
H1075 C1083 0.950 . S
H1076 C1081 0.950 . S
H1077 C1082 0.949 . S
H1078 C1084 0.950 . S
H1079 C1085 0.950 . S
H1080 C1086 0.949 . S
C1081 H1076 0.950 . S
C1081 C1083 1.327 . S
C1081 C1087 1.429 . S
C1082 C1074 1.574 . S
C1082 H1077 0.949 . S
C1082 C1088 1.368 . S
C1083 C1067 1.349 . S
C1083 H1075 0.950 . S
C1083 C1081 1.327 . S
C1084 C1072 1.349 . S
C1084 H1078 0.950 . S
C1084 C1085 1.327 . S
C1085 H1079 0.950 . S
C1085 C1084 1.327 . S
C1085 C1089 1.429 . S
C1086 C1069 1.574 . S
C1086 H1080 0.949 . S
C1086 C1090 1.368 . S
C1087 C1068 1.429 . S
C1087 C1081 1.429 . S
C1087 C1088 1.523 . S
C1088 C1069 1.368 . S
C1088 C1082 1.368 . S
C1088 C1087 1.523 . S
C1089 C1073 1.429 . S
C1089 C1085 1.429 . S
C1089 C1090 1.523 . S
C1090 C1074 1.368 . S
C1090 C1086 1.368 . S
C1090 C1089 1.523 . S
H1091 C1066 0.950 . S
H1092 C1068 0.950 . S
H1093 C1069 0.949 . S
H1094 C1071 0.950 . S
H1095 C1073 0.950 . S
C1096 C1097 1.349 . S
C1096 C1098 1.327 . S
C1096 H1121 0.950 . S
C1097 C1096 1.349 . S
C1097 C1113 1.349 . S
C1098 C1096 1.327 . S
C1098 C1117 1.429 . S
C1098 H1122 0.950 . S
C1099 C1116 1.574 . S
C1099 C1118 1.368 . S
C1099 H1123 0.949 . S
H1100 C1104 0.949 . S
C1101 C1102 1.349 . S
C1101 C1103 1.327 . S
C1101 H1124 0.950 . S
C1102 C1101 1.349 . S
C1102 C1114 1.349 . S
C1103 C1101 1.327 . S
C1103 C1119 1.429 . S
C1103 H1125 0.950 . S
C1104 H1100 0.949 . S
C1104 C1112 1.574 . S
C1104 C1120 1.368 . S
H1105 C1113 0.950 . S
H1106 C1111 0.950 . S
H1107 C1112 0.949 . S
H1108 C1114 0.950 . S
H1109 C1115 0.950 . S
H1110 C1116 0.949 . S
C1111 H1106 0.950 . S
C1111 C1113 1.327 . S
C1111 C1117 1.429 . S
C1112 C1104 1.574 . S
C1112 H1107 0.949 . S
C1112 C1118 1.368 . S
C1113 C1097 1.349 . S
C1113 H1105 0.950 . S
C1113 C1111 1.327 . S
C1114 C1102 1.349 . S
C1114 H1108 0.950 . S
C1114 C1115 1.327 . S
C1115 H1109 0.950 . S
C1115 C1114 1.327 . S
C1115 C1119 1.429 . S
C1116 C1099 1.574 . S
C1116 H1110 0.949 . S
C1116 C1120 1.368 . S
C1117 C1098 1.429 . S
C1117 C1111 1.429 . S
C1117 C1118 1.523 . S
C1118 C1099 1.368 . S
C1118 C1112 1.368 . S
C1118 C1117 1.523 . S
C1119 C1103 1.429 . S
C1119 C1115 1.429 . S
C1119 C1120 1.523 . S
C1120 C1104 1.368 . S
C1120 C1116 1.368 . S
C1120 C1119 1.523 . S
H1121 C1096 0.950 . S
H1122 C1098 0.950 . S
H1123 C1099 0.949 . S
H1124 C1101 0.950 . S
H1125 C1103 0.950 . S
C1126 C1127 1.349 . S
C1126 C1128 1.327 . S
C1126 H1151 0.950 . S
C1127 C1126 1.349 . S
C1127 C1143 1.349 . S
C1128 C1126 1.327 . S
C1128 C1147 1.429 . S
C1128 H1152 0.950 . S
C1129 C1146 1.574 . S
C1129 C1148 1.368 . S
C1129 H1153 0.949 . S
H1130 C1134 0.949 . S
C1131 C1132 1.349 . S
C1131 C1133 1.327 . S
C1131 H1154 0.950 . S
C1132 C1131 1.349 . S
C1132 C1144 1.349 . S
C1133 C1131 1.327 . S
C1133 C1149 1.429 . S
C1133 H1155 0.950 . S
C1134 H1130 0.949 . S
C1134 C1142 1.574 . S
C1134 C1150 1.368 . S
H1135 C1143 0.950 . S
H1136 C1141 0.950 . S
H1137 C1142 0.949 . S
H1138 C1144 0.950 . S
H1139 C1145 0.950 . S
H1140 C1146 0.949 . S
C1141 H1136 0.950 . S
C1141 C1143 1.327 . S
C1141 C1147 1.429 . S
C1142 C1134 1.574 . S
C1142 H1137 0.949 . S
C1142 C1148 1.368 . S
C1143 C1127 1.349 . S
C1143 H1135 0.950 . S
C1143 C1141 1.327 . S
C1144 C1132 1.349 . S
C1144 H1138 0.950 . S
C1144 C1145 1.327 . S
C1145 H1139 0.950 . S
C1145 C1144 1.327 . S
C1145 C1149 1.429 . S
C1146 C1129 1.574 . S
C1146 H1140 0.949 . S
C1146 C1150 1.368 . S
C1147 C1128 1.429 . S
C1147 C1141 1.429 . S
C1147 C1148 1.523 . S
C1148 C1129 1.368 . S
C1148 C1142 1.368 . S
C1148 C1147 1.523 . S
C1149 C1133 1.429 . S
C1149 C1145 1.429 . S
C1149 C1150 1.523 . S
C1150 C1134 1.368 . S
C1150 C1146 1.368 . S
C1150 C1149 1.523 . S
H1151 C1126 0.950 . S
H1152 C1128 0.950 . S
H1153 C1129 0.949 . S
H1154 C1131 0.950 . S
H1155 C1133 0.950 . S
C1156 C1157 1.349 . S
C1156 C1158 1.327 . S
C1156 H1181 0.950 . S
C1157 C1156 1.349 . S
C1157 C1173 1.349 . S
C1158 C1156 1.327 . S
C1158 C1177 1.429 . S
C1158 H1182 0.950 . S
C1159 C1176 1.574 . S
C1159 C1178 1.368 . S
C1159 H1183 0.949 . S
H1160 C1164 0.949 . S
C1161 C1162 1.349 . S
C1161 C1163 1.327 . S
C1161 H1184 0.950 . S
C1162 C1161 1.349 . S
C1162 C1174 1.349 . S
C1163 C1161 1.327 . S
C1163 C1179 1.429 . S
C1163 H1185 0.950 . S
C1164 H1160 0.949 . S
C1164 C1172 1.574 . S
C1164 C1180 1.368 . S
H1165 C1173 0.950 . S
H1166 C1171 0.950 . S
H1167 C1172 0.949 . S
H1168 C1174 0.950 . S
H1169 C1175 0.950 . S
H1170 C1176 0.949 . S
C1171 H1166 0.950 . S
C1171 C1173 1.327 . S
C1171 C1177 1.429 . S
C1172 C1164 1.574 . S
C1172 H1167 0.949 . S
C1172 C1178 1.368 . S
C1173 C1157 1.349 . S
C1173 H1165 0.950 . S
C1173 C1171 1.327 . S
C1174 C1162 1.349 . S
C1174 H1168 0.950 . S
C1174 C1175 1.327 . S
C1175 H1169 0.950 . S
C1175 C1174 1.327 . S
C1175 C1179 1.429 . S
C1176 C1159 1.574 . S
C1176 H1170 0.949 . S
C1176 C1180 1.368 . S
C1177 C1158 1.429 . S
C1177 C1171 1.429 . S
C1177 C1178 1.523 . S
C1178 C1159 1.368 . S
C1178 C1172 1.368 . S
C1178 C1177 1.523 . S
C1179 C1163 1.429 . S
C1179 C1175 1.429 . S
C1179 C1180 1.523 . S
C1180 C1164 1.368 . S
C1180 C1176 1.368 . S
C1180 C1179 1.523 . S
H1181 C1156 0.950 . S
H1182 C1158 0.950 . S
H1183 C1159 0.949 . S
H1184 C1161 0.950 . S
H1185 C1163 0.950 . S
C1186 C1187 1.349 . S
C1186 C1188 1.327 . S
C1186 H1211 0.950 . S
C1187 C1186 1.349 . S
C1187 C1203 1.349 . S
C1188 C1186 1.327 . S
C1188 C1207 1.429 . S
C1188 H1212 0.950 . S
C1189 C1206 1.574 . S
C1189 C1208 1.368 . S
C1189 H1213 0.949 . S
H1190 C1194 0.949 . S
C1191 C1192 1.349 . S
C1191 C1193 1.327 . S
C1191 H1214 0.950 . S
C1192 C1191 1.349 . S
C1192 C1204 1.349 . S
C1193 C1191 1.327 . S
C1193 C1209 1.429 . S
C1193 H1215 0.950 . S
C1194 H1190 0.949 . S
C1194 C1202 1.574 . S
C1194 C1210 1.368 . S
H1195 C1203 0.950 . S
H1196 C1201 0.950 . S
H1197 C1202 0.949 . S
H1198 C1204 0.950 . S
H1199 C1205 0.950 . S
H1200 C1206 0.949 . S
C1201 H1196 0.950 . S
C1201 C1203 1.327 . S
C1201 C1207 1.429 . S
C1202 C1194 1.574 . S
C1202 H1197 0.949 . S
C1202 C1208 1.368 . S
C1203 C1187 1.349 . S
C1203 H1195 0.950 . S
C1203 C1201 1.327 . S
C1204 C1192 1.349 . S
C1204 H1198 0.950 . S
C1204 C1205 1.327 . S
C1205 H1199 0.950 . S
C1205 C1204 1.327 . S
C1205 C1209 1.429 . S
C1206 C1189 1.574 . S
C1206 H1200 0.949 . S
C1206 C1210 1.368 . S
C1207 C1188 1.429 . S
C1207 C1201 1.429 . S
C1207 C1208 1.523 . S
C1208 C1189 1.368 . S
C1208 C1202 1.368 . S
C1208 C1207 1.523 . S
C1209 C1193 1.429 . S
C1209 C1205 1.429 . S
C1209 C1210 1.523 . S
C1210 C1194 1.368 . S
C1210 C1206 1.368 . S
C1210 C1209 1.523 . S
H1211 C1186 0.950 . S
H1212 C1188 0.950 . S
H1213 C1189 0.949 . S
H1214 C1191 0.950 . S
H1215 C1193 0.950 . S
C1216 C1217 1.349 . S
C1216 C1218 1.327 . S
C1216 H1241 0.950 . S
C1217 C1216 1.349 . S
C1217 C1233 1.349 . S
C1218 C1216 1.327 . S
C1218 C1237 1.429 . S
C1218 H1242 0.950 . S
C1219 C1236 1.574 . S
C1219 C1238 1.368 . S
C1219 H1243 0.949 . S
H1220 C1224 0.949 . S
C1221 C1222 1.349 . S
C1221 C1223 1.327 . S
C1221 H1244 0.950 . S
C1222 C1221 1.349 . S
C1222 C1234 1.349 . S
C1223 C1221 1.327 . S
C1223 C1239 1.429 . S
C1223 H1245 0.950 . S
C1224 H1220 0.949 . S
C1224 C1232 1.574 . S
C1224 C1240 1.368 . S
H1225 C1233 0.950 . S
H1226 C1231 0.950 . S
H1227 C1232 0.949 . S
H1228 C1234 0.950 . S
H1229 C1235 0.950 . S
H1230 C1236 0.949 . S
C1231 H1226 0.950 . S
C1231 C1233 1.327 . S
C1231 C1237 1.429 . S
C1232 C1224 1.574 . S
C1232 H1227 0.949 . S
C1232 C1238 1.368 . S
C1233 C1217 1.349 . S
C1233 H1225 0.950 . S
C1233 C1231 1.327 . S
C1234 C1222 1.349 . S
C1234 H1228 0.950 . S
C1234 C1235 1.327 . S
C1235 H1229 0.950 . S
C1235 C1234 1.327 . S
C1235 C1239 1.429 . S
C1236 C1219 1.574 . S
C1236 H1230 0.949 . S
C1236 C1240 1.368 . S
C1237 C1218 1.429 . S
C1237 C1231 1.429 . S
C1237 C1238 1.523 . S
C1238 C1219 1.368 . S
C1238 C1232 1.368 . S
C1238 C1237 1.523 . S
C1239 C1223 1.429 . S
C1239 C1235 1.429 . S
C1239 C1240 1.523 . S
C1240 C1224 1.368 . S
C1240 C1236 1.368 . S
C1240 C1239 1.523 . S
H1241 C1216 0.950 . S
H1242 C1218 0.950 . S
H1243 C1219 0.949 . S
H1244 C1221 0.950 . S
H1245 C1223 0.950 . S
C1246 C1247 1.349 . S
C1246 C1248 1.327 . S
C1246 H1271 0.950 . S
C1247 C1246 1.349 . S
C1247 C1263 1.349 . S
C1248 C1246 1.327 . S
C1248 C1267 1.429 . S
C1248 H1272 0.950 . S
C1249 C1266 1.574 . S
C1249 C1268 1.368 . S
C1249 H1273 0.949 . S
H1250 C1254 0.949 . S
C1251 C1252 1.349 . S
C1251 C1253 1.327 . S
C1251 H1274 0.950 . S
C1252 C1251 1.349 . S
C1252 C1264 1.349 . S
C1253 C1251 1.327 . S
C1253 C1269 1.429 . S
C1253 H1275 0.950 . S
C1254 H1250 0.949 . S
C1254 C1262 1.574 . S
C1254 C1270 1.368 . S
H1255 C1263 0.950 . S
H1256 C1261 0.950 . S
H1257 C1262 0.949 . S
H1258 C1264 0.950 . S
H1259 C1265 0.950 . S
H1260 C1266 0.949 . S
C1261 H1256 0.950 . S
C1261 C1263 1.327 . S
C1261 C1267 1.429 . S
C1262 C1254 1.574 . S
C1262 H1257 0.949 . S
C1262 C1268 1.368 . S
C1263 C1247 1.349 . S
C1263 H1255 0.950 . S
C1263 C1261 1.327 . S
C1264 C1252 1.349 . S
C1264 H1258 0.950 . S
C1264 C1265 1.327 . S
C1265 H1259 0.950 . S
C1265 C1264 1.327 . S
C1265 C1269 1.429 . S
C1266 C1249 1.574 . S
C1266 H1260 0.949 . S
C1266 C1270 1.368 . S
C1267 C1248 1.429 . S
C1267 C1261 1.429 . S
C1267 C1268 1.523 . S
C1268 C1249 1.368 . S
C1268 C1262 1.368 . S
C1268 C1267 1.523 . S
C1269 C1253 1.429 . S
C1269 C1265 1.429 . S
C1269 C1270 1.523 . S
C1270 C1254 1.368 . S
C1270 C1266 1.368 . S
C1270 C1269 1.523 . S
H1271 C1246 0.950 . S
H1272 C1248 0.950 . S
H1273 C1249 0.949 . S
H1274 C1251 0.950 . S
H1275 C1253 0.950 . S
C1276 C1277 1.349 . S
C1276 C1278 1.327 . S
C1276 H1301 0.950 . S
C1277 C1276 1.349 . S
C1277 C1293 1.349 . S
C1278 C1276 1.327 . S
C1278 C1297 1.429 . S
C1278 H1302 0.950 . S
C1279 C1296 1.574 . S
C1279 C1298 1.368 . S
C1279 H1303 0.949 . S
H1280 C1284 0.949 . S
C1281 C1282 1.349 . S
C1281 C1283 1.327 . S
C1281 H1304 0.950 . S
C1282 C1281 1.349 . S
C1282 C1294 1.349 . S
C1283 C1281 1.327 . S
C1283 C1299 1.429 . S
C1283 H1305 0.950 . S
C1284 H1280 0.949 . S
C1284 C1292 1.574 . S
C1284 C1300 1.368 . S
H1285 C1293 0.950 . S
H1286 C1291 0.950 . S
H1287 C1292 0.949 . S
H1288 C1294 0.950 . S
H1289 C1295 0.950 . S
H1290 C1296 0.949 . S
C1291 H1286 0.950 . S
C1291 C1293 1.327 . S
C1291 C1297 1.429 . S
C1292 C1284 1.574 . S
C1292 H1287 0.949 . S
C1292 C1298 1.368 . S
C1293 C1277 1.349 . S
C1293 H1285 0.950 . S
C1293 C1291 1.327 . S
C1294 C1282 1.349 . S
C1294 H1288 0.950 . S
C1294 C1295 1.327 . S
C1295 H1289 0.950 . S
C1295 C1294 1.327 . S
C1295 C1299 1.429 . S
C1296 C1279 1.574 . S
C1296 H1290 0.949 . S
C1296 C1300 1.368 . S
C1297 C1278 1.429 . S
C1297 C1291 1.429 . S
C1297 C1298 1.523 . S
C1298 C1279 1.368 . S
C1298 C1292 1.368 . S
C1298 C1297 1.523 . S
C1299 C1283 1.429 . S
C1299 C1295 1.429 . S
C1299 C1300 1.523 . S
C1300 C1284 1.368 . S
C1300 C1296 1.368 . S
C1300 C1299 1.523 . S
H1301 C1276 0.950 . S
H1302 C1278 0.950 . S
H1303 C1279 0.949 . S
H1304 C1281 0.950 . S
H1305 C1283 0.950 . S
C1306 C1307 1.349 . S
C1306 C1308 1.327 . S
C1306 H1331 0.950 . S
C1307 C1306 1.349 . S
C1307 C1323 1.349 . S
C1308 C1306 1.327 . S
C1308 C1327 1.429 . S
C1308 H1332 0.950 . S
C1309 C1326 1.574 . S
C1309 C1328 1.368 . S
C1309 H1333 0.949 . S
H1310 C1314 0.949 . S
C1311 C1312 1.349 . S
C1311 C1313 1.327 . S
C1311 H1334 0.950 . S
C1312 C1311 1.349 . S
C1312 C1324 1.349 . S
C1313 C1311 1.327 . S
C1313 C1329 1.429 . S
C1313 H1335 0.950 . S
C1314 H1310 0.949 . S
C1314 C1322 1.574 . S
C1314 C1330 1.368 . S
H1315 C1323 0.950 . S
H1316 C1321 0.950 . S
H1317 C1322 0.949 . S
H1318 C1324 0.950 . S
H1319 C1325 0.950 . S
H1320 C1326 0.949 . S
C1321 H1316 0.950 . S
C1321 C1323 1.327 . S
C1321 C1327 1.429 . S
C1322 C1314 1.574 . S
C1322 H1317 0.949 . S
C1322 C1328 1.368 . S
C1323 C1307 1.349 . S
C1323 H1315 0.950 . S
C1323 C1321 1.327 . S
C1324 C1312 1.349 . S
C1324 H1318 0.950 . S
C1324 C1325 1.327 . S
C1325 H1319 0.950 . S
C1325 C1324 1.327 . S
C1325 C1329 1.429 . S
C1326 C1309 1.574 . S
C1326 H1320 0.949 . S
C1326 C1330 1.368 . S
C1327 C1308 1.429 . S
C1327 C1321 1.429 . S
C1327 C1328 1.523 . S
C1328 C1309 1.368 . S
C1328 C1322 1.368 . S
C1328 C1327 1.523 . S
C1329 C1313 1.429 . S
C1329 C1325 1.429 . S
C1329 C1330 1.523 . S
C1330 C1314 1.368 . S
C1330 C1326 1.368 . S
C1330 C1329 1.523 . S
H1331 C1306 0.950 . S
H1332 C1308 0.950 . S
H1333 C1309 0.949 . S
H1334 C1311 0.950 . S
H1335 C1313 0.950 . S
C1336 C1337 1.349 . S
C1336 C1338 1.327 . S
C1336 H1361 0.950 . S
C1337 C1336 1.349 . S
C1337 C1353 1.349 . S
C1338 C1336 1.327 . S
C1338 C1357 1.429 . S
C1338 H1362 0.950 . S
C1339 C1356 1.574 . S
C1339 C1358 1.368 . S
C1339 H1363 0.949 . S
H1340 C1344 0.949 . S
C1341 C1342 1.349 . S
C1341 C1343 1.327 . S
C1341 H1364 0.950 . S
C1342 C1341 1.349 . S
C1342 C1354 1.349 . S
C1343 C1341 1.327 . S
C1343 C1359 1.429 . S
C1343 H1365 0.950 . S
C1344 H1340 0.949 . S
C1344 C1352 1.574 . S
C1344 C1360 1.368 . S
H1345 C1353 0.950 . S
H1346 C1351 0.950 . S
H1347 C1352 0.949 . S
H1348 C1354 0.950 . S
H1349 C1355 0.950 . S
H1350 C1356 0.949 . S
C1351 H1346 0.950 . S
C1351 C1353 1.327 . S
C1351 C1357 1.429 . S
C1352 C1344 1.574 . S
C1352 H1347 0.949 . S
C1352 C1358 1.368 . S
C1353 C1337 1.349 . S
C1353 H1345 0.950 . S
C1353 C1351 1.327 . S
C1354 C1342 1.349 . S
C1354 H1348 0.950 . S
C1354 C1355 1.327 . S
C1355 H1349 0.950 . S
C1355 C1354 1.327 . S
C1355 C1359 1.429 . S
C1356 C1339 1.574 . S
C1356 H1350 0.949 . S
C1356 C1360 1.368 . S
C1357 C1338 1.429 . S
C1357 C1351 1.429 . S
C1357 C1358 1.523 . S
C1358 C1339 1.368 . S
C1358 C1352 1.368 . S
C1358 C1357 1.523 . S
C1359 C1343 1.429 . S
C1359 C1355 1.429 . S
C1359 C1360 1.523 . S
C1360 C1344 1.368 . S
C1360 C1356 1.368 . S
C1360 C1359 1.523 . S
H1361 C1336 0.950 . S
H1362 C1338 0.950 . S
H1363 C1339 0.949 . S
H1364 C1341 0.950 . S
H1365 C1343 0.950 . S
C1366 C1367 1.349 . S
C1366 C1368 1.327 . S
C1366 H1391 0.950 . S
C1367 C1366 1.349 . S
C1367 C1383 1.349 . S
C1368 C1366 1.327 . S
C1368 C1387 1.429 . S
C1368 H1392 0.950 . S
C1369 C1386 1.574 . S
C1369 C1388 1.368 . S
C1369 H1393 0.949 . S
H1370 C1374 0.949 . S
C1371 C1372 1.349 . S
C1371 C1373 1.327 . S
C1371 H1394 0.950 . S
C1372 C1371 1.349 . S
C1372 C1384 1.349 . S
C1373 C1371 1.327 . S
C1373 C1389 1.429 . S
C1373 H1395 0.950 . S
C1374 H1370 0.949 . S
C1374 C1382 1.574 . S
C1374 C1390 1.368 . S
H1375 C1383 0.950 . S
H1376 C1381 0.950 . S
H1377 C1382 0.949 . S
H1378 C1384 0.950 . S
H1379 C1385 0.950 . S
H1380 C1386 0.949 . S
C1381 H1376 0.950 . S
C1381 C1383 1.327 . S
C1381 C1387 1.429 . S
C1382 C1374 1.574 . S
C1382 H1377 0.949 . S
C1382 C1388 1.368 . S
C1383 C1367 1.349 . S
C1383 H1375 0.950 . S
C1383 C1381 1.327 . S
C1384 C1372 1.349 . S
C1384 H1378 0.950 . S
C1384 C1385 1.327 . S
C1385 H1379 0.950 . S
C1385 C1384 1.327 . S
C1385 C1389 1.429 . S
C1386 C1369 1.574 . S
C1386 H1380 0.949 . S
C1386 C1390 1.368 . S
C1387 C1368 1.429 . S
C1387 C1381 1.429 . S
C1387 C1388 1.523 . S
C1388 C1369 1.368 . S
C1388 C1382 1.368 . S
C1388 C1387 1.523 . S
C1389 C1373 1.429 . S
C1389 C1385 1.429 . S
C1389 C1390 1.523 . S
C1390 C1374 1.368 . S
C1390 C1386 1.368 . S
C1390 C1389 1.523 . S
H1391 C1366 0.950 . S
H1392 C1368 0.950 . S
H1393 C1369 0.949 . S
H1394 C1371 0.950 . S
H1395 C1373 0.950 . S
C1396 C1397 1.349 . S
C1396 C1398 1.327 . S
C1396 H1421 0.950 . S
C1397 C1396 1.349 . S
C1397 C1413 1.349 . S
C1398 C1396 1.327 . S
C1398 C1417 1.429 . S
C1398 H1422 0.950 . S
C1399 C1416 1.574 . S
C1399 C1418 1.368 . S
C1399 H1423 0.949 . S
H1400 C1404 0.949 . S
C1401 C1402 1.349 . S
C1401 C1403 1.327 . S
C1401 H1424 0.950 . S
C1402 C1401 1.349 . S
C1402 C1414 1.349 . S
C1403 C1401 1.327 . S
C1403 C1419 1.429 . S
C1403 H1425 0.950 . S
C1404 H1400 0.949 . S
C1404 C1412 1.574 . S
C1404 C1420 1.368 . S
H1405 C1413 0.950 . S
H1406 C1411 0.950 . S
H1407 C1412 0.949 . S
H1408 C1414 0.950 . S
H1409 C1415 0.950 . S
H1410 C1416 0.949 . S
C1411 H1406 0.950 . S
C1411 C1413 1.327 . S
C1411 C1417 1.429 . S
C1412 C1404 1.574 . S
C1412 H1407 0.949 . S
C1412 C1418 1.368 . S
C1413 C1397 1.349 . S
C1413 H1405 0.950 . S
C1413 C1411 1.327 . S
C1414 C1402 1.349 . S
C1414 H1408 0.950 . S
C1414 C1415 1.327 . S
C1415 H1409 0.950 . S
C1415 C1414 1.327 . S
C1415 C1419 1.429 . S
C1416 C1399 1.574 . S
C1416 H1410 0.949 . S
C1416 C1420 1.368 . S
C1417 C1398 1.429 . S
C1417 C1411 1.429 . S
C1417 C1418 1.523 . S
C1418 C1399 1.368 . S
C1418 C1412 1.368 . S
C1418 C1417 1.523 . S
C1419 C1403 1.429 . S
C1419 C1415 1.429 . S
C1419 C1420 1.523 . S
C1420 C1404 1.368 . S
C1420 C1416 1.368 . S
C1420 C1419 1.523 . S
H1421 C1396 0.950 . S
H1422 C1398 0.950 . S
H1423 C1399 0.949 . S
H1424 C1401 0.950 . S
H1425 C1403 0.950 . S
C1426 C1427 1.349 . S
C1426 C1428 1.327 . S
C1426 H1451 0.950 . S
C1427 C1426 1.349 . S
C1427 C1443 1.349 . S
C1428 C1426 1.327 . S
C1428 C1447 1.429 . S
C1428 H1452 0.950 . S
C1429 C1446 1.574 . S
C1429 C1448 1.368 . S
C1429 H1453 0.949 . S
H1430 C1434 0.949 . S
C1431 C1432 1.349 . S
C1431 C1433 1.327 . S
C1431 H1454 0.950 . S
C1432 C1431 1.349 . S
C1432 C1444 1.349 . S
C1433 C1431 1.327 . S
C1433 C1449 1.429 . S
C1433 H1455 0.950 . S
C1434 H1430 0.949 . S
C1434 C1442 1.574 . S
C1434 C1450 1.368 . S
H1435 C1443 0.950 . S
H1436 C1441 0.950 . S
H1437 C1442 0.949 . S
H1438 C1444 0.950 . S
H1439 C1445 0.950 . S
H1440 C1446 0.949 . S
C1441 H1436 0.950 . S
C1441 C1443 1.327 . S
C1441 C1447 1.429 . S
C1442 C1434 1.574 . S
C1442 H1437 0.949 . S
C1442 C1448 1.368 . S
C1443 C1427 1.349 . S
C1443 H1435 0.950 . S
C1443 C1441 1.327 . S
C1444 C1432 1.349 . S
C1444 H1438 0.950 . S
C1444 C1445 1.327 . S
C1445 H1439 0.950 . S
C1445 C1444 1.327 . S
C1445 C1449 1.429 . S
C1446 C1429 1.574 . S
C1446 H1440 0.949 . S
C1446 C1450 1.368 . S
C1447 C1428 1.429 . S
C1447 C1441 1.429 . S
C1447 C1448 1.523 . S
C1448 C1429 1.368 . S
C1448 C1442 1.368 . S
C1448 C1447 1.523 . S
C1449 C1433 1.429 . S
C1449 C1445 1.429 . S
C1449 C1450 1.523 . S
C1450 C1434 1.368 . S
C1450 C1446 1.368 . S
C1450 C1449 1.523 . S
H1451 C1426 0.950 . S
H1452 C1428 0.950 . S
H1453 C1429 0.949 . S
H1454 C1431 0.950 . S
H1455 C1433 0.950 . S
C1456 C1457 1.349 . S
C1456 C1458 1.327 . S
C1456 H1481 0.950 . S
C1457 C1456 1.349 . S
C1457 C1473 1.349 . S
C1458 C1456 1.327 . S
C1458 C1477 1.429 . S
C1458 H1482 0.950 . S
C1459 C1476 1.574 . S
C1459 C1478 1.368 . S
C1459 H1483 0.949 . S
H1460 C1464 0.949 . S
C1461 C1462 1.349 . S
C1461 C1463 1.327 . S
C1461 H1484 0.950 . S
C1462 C1461 1.349 . S
C1462 C1474 1.349 . S
C1463 C1461 1.327 . S
C1463 C1479 1.429 . S
C1463 H1485 0.950 . S
C1464 H1460 0.949 . S
C1464 C1472 1.574 . S
C1464 C1480 1.368 . S
H1465 C1473 0.950 . S
H1466 C1471 0.950 . S
H1467 C1472 0.949 . S
H1468 C1474 0.950 . S
H1469 C1475 0.950 . S
H1470 C1476 0.949 . S
C1471 H1466 0.950 . S
C1471 C1473 1.327 . S
C1471 C1477 1.429 . S
C1472 C1464 1.574 . S
C1472 H1467 0.949 . S
C1472 C1478 1.368 . S
C1473 C1457 1.349 . S
C1473 H1465 0.950 . S
C1473 C1471 1.327 . S
C1474 C1462 1.349 . S
C1474 H1468 0.950 . S
C1474 C1475 1.327 . S
C1475 H1469 0.950 . S
C1475 C1474 1.327 . S
C1475 C1479 1.429 . S
C1476 C1459 1.574 . S
C1476 H1470 0.949 . S
C1476 C1480 1.368 . S
C1477 C1458 1.429 . S
C1477 C1471 1.429 . S
C1477 C1478 1.523 . S
C1478 C1459 1.368 . S
C1478 C1472 1.368 . S
C1478 C1477 1.523 . S
C1479 C1463 1.429 . S
C1479 C1475 1.429 . S
C1479 C1480 1.523 . S
C1480 C1464 1.368 . S
C1480 C1476 1.368 . S
C1480 C1479 1.523 . S
H1481 C1456 0.950 . S
H1482 C1458 0.950 . S
H1483 C1459 0.949 . S
H1484 C1461 0.950 . S
H1485 C1463 0.950 . S
C1486 C1487 1.349 . S
C1486 C1488 1.327 . S
C1486 H1511 0.950 . S
C1487 C1486 1.349 . S
C1487 C1503 1.349 . S
C1488 C1486 1.327 . S
C1488 C1507 1.429 . S
C1488 H1512 0.950 . S
C1489 C1506 1.574 . S
C1489 C1508 1.368 . S
C1489 H1513 0.949 . S
H1490 C1494 0.949 . S
C1491 C1492 1.349 . S
C1491 C1493 1.327 . S
C1491 H1514 0.950 . S
C1492 C1491 1.349 . S
C1492 C1504 1.349 . S
C1493 C1491 1.327 . S
C1493 C1509 1.429 . S
C1493 H1515 0.950 . S
C1494 H1490 0.949 . S
C1494 C1502 1.574 . S
C1494 C1510 1.368 . S
H1495 C1503 0.950 . S
H1496 C1501 0.950 . S
H1497 C1502 0.949 . S
H1498 C1504 0.950 . S
H1499 C1505 0.950 . S
H1500 C1506 0.949 . S
C1501 H1496 0.950 . S
C1501 C1503 1.327 . S
C1501 C1507 1.429 . S
C1502 C1494 1.574 . S
C1502 H1497 0.949 . S
C1502 C1508 1.368 . S
C1503 C1487 1.349 . S
C1503 H1495 0.950 . S
C1503 C1501 1.327 . S
C1504 C1492 1.349 . S
C1504 H1498 0.950 . S
C1504 C1505 1.327 . S
C1505 H1499 0.950 . S
C1505 C1504 1.327 . S
C1505 C1509 1.429 . S
C1506 C1489 1.574 . S
C1506 H1500 0.949 . S
C1506 C1510 1.368 . S
C1507 C1488 1.429 . S
C1507 C1501 1.429 . S
C1507 C1508 1.523 . S
C1508 C1489 1.368 . S
C1508 C1502 1.368 . S
C1508 C1507 1.523 . S
C1509 C1493 1.429 . S
C1509 C1505 1.429 . S
C1509 C1510 1.523 . S
C1510 C1494 1.368 . S
C1510 C1506 1.368 . S
C1510 C1509 1.523 . S
H1511 C1486 0.950 . S
H1512 C1488 0.950 . S
H1513 C1489 0.949 . S
H1514 C1491 0.950 . S
H1515 C1493 0.950 . S
C1516 C1517 1.349 . S
C1516 C1518 1.327 . S
C1516 H1541 0.950 . S
C1517 C1516 1.349 . S
C1517 C1533 1.349 . S
C1518 C1516 1.327 . S
C1518 C1537 1.429 . S
C1518 H1542 0.950 . S
C1519 C1536 1.574 . S
C1519 C1538 1.368 . S
C1519 H1543 0.949 . S
H1520 C1524 0.949 . S
C1521 C1522 1.349 . S
C1521 C1523 1.327 . S
C1521 H1544 0.950 . S
C1522 C1521 1.349 . S
C1522 C1534 1.349 . S
C1523 C1521 1.327 . S
C1523 C1539 1.429 . S
C1523 H1545 0.950 . S
C1524 H1520 0.949 . S
C1524 C1532 1.574 . S
C1524 C1540 1.368 . S
H1525 C1533 0.950 . S
H1526 C1531 0.950 . S
H1527 C1532 0.949 . S
H1528 C1534 0.950 . S
H1529 C1535 0.950 . S
H1530 C1536 0.949 . S
C1531 H1526 0.950 . S
C1531 C1533 1.327 . S
C1531 C1537 1.429 . S
C1532 C1524 1.574 . S
C1532 H1527 0.949 . S
C1532 C1538 1.368 . S
C1533 C1517 1.349 . S
C1533 H1525 0.950 . S
C1533 C1531 1.327 . S
C1534 C1522 1.349 . S
C1534 H1528 0.950 . S
C1534 C1535 1.327 . S
C1535 H1529 0.950 . S
C1535 C1534 1.327 . S
C1535 C1539 1.429 . S
C1536 C1519 1.574 . S
C1536 H1530 0.949 . S
C1536 C1540 1.368 . S
C1537 C1518 1.429 . S
C1537 C1531 1.429 . S
C1537 C1538 1.523 . S
C1538 C1519 1.368 . S
C1538 C1532 1.368 . S
C1538 C1537 1.523 . S
C1539 C1523 1.429 . S
C1539 C1535 1.429 . S
C1539 C1540 1.523 . S
C1540 C1524 1.368 . S
C1540 C1536 1.368 . S
C1540 C1539 1.523 . S
H1541 C1516 0.950 . S
H1542 C1518 0.950 . S
H1543 C1519 0.949 . S
H1544 C1521 0.950 . S
H1545 C1523 0.950 . S
C1546 C1547 1.349 . S
C1546 C1548 1.327 . S
C1546 H1571 0.950 . S
C1547 C1546 1.349 . S
C1547 C1563 1.349 . S
C1548 C1546 1.327 . S
C1548 C1567 1.429 . S
C1548 H1572 0.950 . S
C1549 C1566 1.574 . S
C1549 C1568 1.368 . S
C1549 H1573 0.949 . S
H1550 C1554 0.949 . S
C1551 C1552 1.349 . S
C1551 C1553 1.327 . S
C1551 H1574 0.950 . S
C1552 C1551 1.349 . S
C1552 C1564 1.349 . S
C1553 C1551 1.327 . S
C1553 C1569 1.429 . S
C1553 H1575 0.950 . S
C1554 H1550 0.949 . S
C1554 C1562 1.574 . S
C1554 C1570 1.368 . S
H1555 C1563 0.950 . S
H1556 C1561 0.950 . S
H1557 C1562 0.949 . S
H1558 C1564 0.950 . S
H1559 C1565 0.950 . S
H1560 C1566 0.949 . S
C1561 H1556 0.950 . S
C1561 C1563 1.327 . S
C1561 C1567 1.429 . S
C1562 C1554 1.574 . S
C1562 H1557 0.949 . S
C1562 C1568 1.368 . S
C1563 C1547 1.349 . S
C1563 H1555 0.950 . S
C1563 C1561 1.327 . S
C1564 C1552 1.349 . S
C1564 H1558 0.950 . S
C1564 C1565 1.327 . S
C1565 H1559 0.950 . S
C1565 C1564 1.327 . S
C1565 C1569 1.429 . S
C1566 C1549 1.574 . S
C1566 H1560 0.949 . S
C1566 C1570 1.368 . S
C1567 C1548 1.429 . S
C1567 C1561 1.429 . S
C1567 C1568 1.523 . S
C1568 C1549 1.368 . S
C1568 C1562 1.368 . S
C1568 C1567 1.523 . S
C1569 C1553 1.429 . S
C1569 C1565 1.429 . S
C1569 C1570 1.523 . S
C1570 C1554 1.368 . S
C1570 C1566 1.368 . S
C1570 C1569 1.523 . S
H1571 C1546 0.950 . S
H1572 C1548 0.950 . S
H1573 C1549 0.949 . S
H1574 C1551 0.950 . S
H1575 C1553 0.950 . S
C1576 C1577 1.349 . S
C1576 C1578 1.327 . S
C1576 H1601 0.950 . S
C1577 C1576 1.349 . S
C1577 C1593 1.349 . S
C1578 C1576 1.327 . S
C1578 C1597 1.429 . S
C1578 H1602 0.950 . S
C1579 C1596 1.574 . S
C1579 C1598 1.368 . S
C1579 H1603 0.949 . S
H1580 C1584 0.949 . S
C1581 C1582 1.349 . S
C1581 C1583 1.327 . S
C1581 H1604 0.950 . S
C1582 C1581 1.349 . S
C1582 C1594 1.349 . S
C1583 C1581 1.327 . S
C1583 C1599 1.429 . S
C1583 H1605 0.950 . S
C1584 H1580 0.949 . S
C1584 C1592 1.574 . S
C1584 C1600 1.368 . S
H1585 C1593 0.950 . S
H1586 C1591 0.950 . S
H1587 C1592 0.949 . S
H1588 C1594 0.950 . S
H1589 C1595 0.950 . S
H1590 C1596 0.949 . S
C1591 H1586 0.950 . S
C1591 C1593 1.327 . S
C1591 C1597 1.429 . S
C1592 C1584 1.574 . S
C1592 H1587 0.949 . S
C1592 C1598 1.368 . S
C1593 C1577 1.349 . S
C1593 H1585 0.950 . S
C1593 C1591 1.327 . S
C1594 C1582 1.349 . S
C1594 H1588 0.950 . S
C1594 C1595 1.327 . S
C1595 H1589 0.950 . S
C1595 C1594 1.327 . S
C1595 C1599 1.429 . S
C1596 C1579 1.574 . S
C1596 H1590 0.949 . S
C1596 C1600 1.368 . S
C1597 C1578 1.429 . S
C1597 C1591 1.429 . S
C1597 C1598 1.523 . S
C1598 C1579 1.368 . S
C1598 C1592 1.368 . S
C1598 C1597 1.523 . S
C1599 C1583 1.429 . S
C1599 C1595 1.429 . S
C1599 C1600 1.523 . S
C1600 C1584 1.368 . S
C1600 C1596 1.368 . S
C1600 C1599 1.523 . S
H1601 C1576 0.950 . S
H1602 C1578 0.950 . S
H1603 C1579 0.949 . S
H1604 C1581 0.950 . S
H1605 C1583 0.950 . S
C1606 C1607 1.349 . S
C1606 C1608 1.327 . S
C1606 H1631 0.950 . S
C1607 C1606 1.349 . S
C1607 C1623 1.349 . S
C1608 C1606 1.327 . S
C1608 C1627 1.429 . S
C1608 H1632 0.950 . S
C1609 C1626 1.574 . S
C1609 C1628 1.368 . S
C1609 H1633 0.949 . S
H1610 C1614 0.949 . S
C1611 C1612 1.349 . S
C1611 C1613 1.327 . S
C1611 H1634 0.950 . S
C1612 C1611 1.349 . S
C1612 C1624 1.349 . S
C1613 C1611 1.327 . S
C1613 C1629 1.429 . S
C1613 H1635 0.950 . S
C1614 H1610 0.949 . S
C1614 C1622 1.574 . S
C1614 C1630 1.368 . S
H1615 C1623 0.950 . S
H1616 C1621 0.950 . S
H1617 C1622 0.949 . S
H1618 C1624 0.950 . S
H1619 C1625 0.950 . S
H1620 C1626 0.949 . S
C1621 H1616 0.950 . S
C1621 C1623 1.327 . S
C1621 C1627 1.429 . S
C1622 C1614 1.574 . S
C1622 H1617 0.949 . S
C1622 C1628 1.368 . S
C1623 C1607 1.349 . S
C1623 H1615 0.950 . S
C1623 C1621 1.327 . S
C1624 C1612 1.349 . S
C1624 H1618 0.950 . S
C1624 C1625 1.327 . S
C1625 H1619 0.950 . S
C1625 C1624 1.327 . S
C1625 C1629 1.429 . S
C1626 C1609 1.574 . S
C1626 H1620 0.949 . S
C1626 C1630 1.368 . S
C1627 C1608 1.429 . S
C1627 C1621 1.429 . S
C1627 C1628 1.523 . S
C1628 C1609 1.368 . S
C1628 C1622 1.368 . S
C1628 C1627 1.523 . S
C1629 C1613 1.429 . S
C1629 C1625 1.429 . S
C1629 C1630 1.523 . S
C1630 C1614 1.368 . S
C1630 C1626 1.368 . S
C1630 C1629 1.523 . S
H1631 C1606 0.950 . S
H1632 C1608 0.950 . S
H1633 C1609 0.949 . S
H1634 C1611 0.950 . S
H1635 C1613 0.950 . S
C1636 C1637 1.349 . S
C1636 C1638 1.327 . S
C1636 H1661 0.950 . S
C1637 C1636 1.349 . S
C1637 C1653 1.349 . S
C1638 C1636 1.327 . S
C1638 C1657 1.429 . S
C1638 H1662 0.950 . S
C1639 C1656 1.574 . S
C1639 C1658 1.368 . S
C1639 H1663 0.949 . S
H1640 C1644 0.949 . S
C1641 C1642 1.349 . S
C1641 C1643 1.327 . S
C1641 H1664 0.950 . S
C1642 C1641 1.349 . S
C1642 C1654 1.349 . S
C1643 C1641 1.327 . S
C1643 C1659 1.429 . S
C1643 H1665 0.950 . S
C1644 H1640 0.949 . S
C1644 C1652 1.574 . S
C1644 C1660 1.368 . S
H1645 C1653 0.950 . S
H1646 C1651 0.950 . S
H1647 C1652 0.949 . S
H1648 C1654 0.950 . S
H1649 C1655 0.950 . S
H1650 C1656 0.949 . S
C1651 H1646 0.950 . S
C1651 C1653 1.327 . S
C1651 C1657 1.429 . S
C1652 C1644 1.574 . S
C1652 H1647 0.949 . S
C1652 C1658 1.368 . S
C1653 C1637 1.349 . S
C1653 H1645 0.950 . S
C1653 C1651 1.327 . S
C1654 C1642 1.349 . S
C1654 H1648 0.950 . S
C1654 C1655 1.327 . S
C1655 H1649 0.950 . S
C1655 C1654 1.327 . S
C1655 C1659 1.429 . S
C1656 C1639 1.574 . S
C1656 H1650 0.949 . S
C1656 C1660 1.368 . S
C1657 C1638 1.429 . S
C1657 C1651 1.429 . S
C1657 C1658 1.523 . S
C1658 C1639 1.368 . S
C1658 C1652 1.368 . S
C1658 C1657 1.523 . S
C1659 C1643 1.429 . S
C1659 C1655 1.429 . S
C1659 C1660 1.523 . S
C1660 C1644 1.368 . S
C1660 C1656 1.368 . S
C1660 C1659 1.523 . S
H1661 C1636 0.950 . S
H1662 C1638 0.950 . S
H1663 C1639 0.949 . S
H1664 C1641 0.950 . S
H1665 C1643 0.950 . S
C1666 C1667 1.349 . S
C1666 C1668 1.327 . S
C1666 H1691 0.950 . S
C1667 C1666 1.349 . S
C1667 C1683 1.349 . S
C1668 C1666 1.327 . S
C1668 C1687 1.429 . S
C1668 H1692 0.950 . S
C1669 C1686 1.574 . S
C1669 C1688 1.368 . S
C1669 H1693 0.949 . S
H1670 C1674 0.949 . S
C1671 C1672 1.349 . S
C1671 C1673 1.327 . S
C1671 H1694 0.950 . S
C1672 C1671 1.349 . S
C1672 C1684 1.349 . S
C1673 C1671 1.327 . S
C1673 C1689 1.429 . S
C1673 H1695 0.950 . S
C1674 H1670 0.949 . S
C1674 C1682 1.574 . S
C1674 C1690 1.368 . S
H1675 C1683 0.950 . S
H1676 C1681 0.950 . S
H1677 C1682 0.949 . S
H1678 C1684 0.950 . S
H1679 C1685 0.950 . S
H1680 C1686 0.949 . S
C1681 H1676 0.950 . S
C1681 C1683 1.327 . S
C1681 C1687 1.429 . S
C1682 C1674 1.574 . S
C1682 H1677 0.949 . S
C1682 C1688 1.368 . S
C1683 C1667 1.349 . S
C1683 H1675 0.950 . S
C1683 C1681 1.327 . S
C1684 C1672 1.349 . S
C1684 H1678 0.950 . S
C1684 C1685 1.327 . S
C1685 H1679 0.950 . S
C1685 C1684 1.327 . S
C1685 C1689 1.429 . S
C1686 C1669 1.574 . S
C1686 H1680 0.949 . S
C1686 C1690 1.368 . S
C1687 C1668 1.429 . S
C1687 C1681 1.429 . S
C1687 C1688 1.523 . S
C1688 C1669 1.368 . S
C1688 C1682 1.368 . S
C1688 C1687 1.523 . S
C1689 C1673 1.429 . S
C1689 C1685 1.429 . S
C1689 C1690 1.523 . S
C1690 C1674 1.368 . S
C1690 C1686 1.368 . S
C1690 C1689 1.523 . S
H1691 C1666 0.950 . S
H1692 C1668 0.950 . S
H1693 C1669 0.949 . S
H1694 C1671 0.950 . S
H1695 C1673 0.950 . S
C1696 C1697 1.349 . S
C1696 C1698 1.327 . S
C1696 H1721 0.950 . S
C1697 C1696 1.349 . S
C1697 C1713 1.349 . S
C1698 C1696 1.327 . S
C1698 C1717 1.429 . S
C1698 H1722 0.950 . S
C1699 C1716 1.574 . S
C1699 C1718 1.368 . S
C1699 H1723 0.949 . S
H1700 C1704 0.949 . S
C1701 C1702 1.349 . S
C1701 C1703 1.327 . S
C1701 H1724 0.950 . S
C1702 C1701 1.349 . S
C1702 C1714 1.349 . S
C1703 C1701 1.327 . S
C1703 C1719 1.429 . S
C1703 H1725 0.950 . S
C1704 H1700 0.949 . S
C1704 C1712 1.574 . S
C1704 C1720 1.368 . S
H1705 C1713 0.950 . S
H1706 C1711 0.950 . S
H1707 C1712 0.949 . S
H1708 C1714 0.950 . S
H1709 C1715 0.950 . S
H1710 C1716 0.949 . S
C1711 H1706 0.950 . S
C1711 C1713 1.327 . S
C1711 C1717 1.429 . S
C1712 C1704 1.574 . S
C1712 H1707 0.949 . S
C1712 C1718 1.368 . S
C1713 C1697 1.349 . S
C1713 H1705 0.950 . S
C1713 C1711 1.327 . S
C1714 C1702 1.349 . S
C1714 H1708 0.950 . S
C1714 C1715 1.327 . S
C1715 H1709 0.950 . S
C1715 C1714 1.327 . S
C1715 C1719 1.429 . S
C1716 C1699 1.574 . S
C1716 H1710 0.949 . S
C1716 C1720 1.368 . S
C1717 C1698 1.429 . S
C1717 C1711 1.429 . S
C1717 C1718 1.523 . S
C1718 C1699 1.368 . S
C1718 C1712 1.368 . S
C1718 C1717 1.523 . S
C1719 C1703 1.429 . S
C1719 C1715 1.429 . S
C1719 C1720 1.523 . S
C1720 C1704 1.368 . S
C1720 C1716 1.368 . S
C1720 C1719 1.523 . S
H1721 C1696 0.950 . S
H1722 C1698 0.950 . S
H1723 C1699 0.949 . S
H1724 C1701 0.950 . S
H1725 C1703 0.950 . S
C1726 C1727 1.349 . S
C1726 C1728 1.327 . S
C1726 H1751 0.950 . S
C1727 C1726 1.349 . S
C1727 C1743 1.349 . S
C1728 C1726 1.327 . S
C1728 C1747 1.429 . S
C1728 H1752 0.950 . S
C1729 C1746 1.574 . S
C1729 C1748 1.368 . S
C1729 H1753 0.949 . S
H1730 C1734 0.949 . S
C1731 C1732 1.349 . S
C1731 C1733 1.327 . S
C1731 H1754 0.950 . S
C1732 C1731 1.349 . S
C1732 C1744 1.349 . S
C1733 C1731 1.327 . S
C1733 C1749 1.429 . S
C1733 H1755 0.950 . S
C1734 H1730 0.949 . S
C1734 C1742 1.574 . S
C1734 C1750 1.368 . S
H1735 C1743 0.950 . S
H1736 C1741 0.950 . S
H1737 C1742 0.949 . S
H1738 C1744 0.950 . S
H1739 C1745 0.950 . S
H1740 C1746 0.949 . S
C1741 H1736 0.950 . S
C1741 C1743 1.327 . S
C1741 C1747 1.429 . S
C1742 C1734 1.574 . S
C1742 H1737 0.949 . S
C1742 C1748 1.368 . S
C1743 C1727 1.349 . S
C1743 H1735 0.950 . S
C1743 C1741 1.327 . S
C1744 C1732 1.349 . S
C1744 H1738 0.950 . S
C1744 C1745 1.327 . S
C1745 H1739 0.950 . S
C1745 C1744 1.327 . S
C1745 C1749 1.429 . S
C1746 C1729 1.574 . S
C1746 H1740 0.949 . S
C1746 C1750 1.368 . S
C1747 C1728 1.429 . S
C1747 C1741 1.429 . S
C1747 C1748 1.523 . S
C1748 C1729 1.368 . S
C1748 C1742 1.368 . S
C1748 C1747 1.523 . S
C1749 C1733 1.429 . S
C1749 C1745 1.429 . S
C1749 C1750 1.523 . S
C1750 C1734 1.368 . S
C1750 C1746 1.368 . S
C1750 C1749 1.523 . S
H1751 C1726 0.950 . S
H1752 C1728 0.950 . S
H1753 C1729 0.949 . S
H1754 C1731 0.950 . S
H1755 C1733 0.950 . S
C1756 C1757 1.349 . S
C1756 C1758 1.327 . S
C1756 H1781 0.950 . S
C1757 C1756 1.349 . S
C1757 C1773 1.349 . S
C1758 C1756 1.327 . S
C1758 C1777 1.429 . S
C1758 H1782 0.950 . S
C1759 C1776 1.574 . S
C1759 C1778 1.368 . S
C1759 H1783 0.949 . S
H1760 C1764 0.949 . S
C1761 C1762 1.349 . S
C1761 C1763 1.327 . S
C1761 H1784 0.950 . S
C1762 C1761 1.349 . S
C1762 C1774 1.349 . S
C1763 C1761 1.327 . S
C1763 C1779 1.429 . S
C1763 H1785 0.950 . S
C1764 H1760 0.949 . S
C1764 C1772 1.574 . S
C1764 C1780 1.368 . S
H1765 C1773 0.950 . S
H1766 C1771 0.950 . S
H1767 C1772 0.949 . S
H1768 C1774 0.950 . S
H1769 C1775 0.950 . S
H1770 C1776 0.949 . S
C1771 H1766 0.950 . S
C1771 C1773 1.327 . S
C1771 C1777 1.429 . S
C1772 C1764 1.574 . S
C1772 H1767 0.949 . S
C1772 C1778 1.368 . S
C1773 C1757 1.349 . S
C1773 H1765 0.950 . S
C1773 C1771 1.327 . S
C1774 C1762 1.349 . S
C1774 H1768 0.950 . S
C1774 C1775 1.327 . S
C1775 H1769 0.950 . S
C1775 C1774 1.327 . S
C1775 C1779 1.429 . S
C1776 C1759 1.574 . S
C1776 H1770 0.949 . S
C1776 C1780 1.368 . S
C1777 C1758 1.429 . S
C1777 C1771 1.429 . S
C1777 C1778 1.523 . S
C1778 C1759 1.368 . S
C1778 C1772 1.368 . S
C1778 C1777 1.523 . S
C1779 C1763 1.429 . S
C1779 C1775 1.429 . S
C1779 C1780 1.523 . S
C1780 C1764 1.368 . S
C1780 C1776 1.368 . S
C1780 C1779 1.523 . S
H1781 C1756 0.950 . S
H1782 C1758 0.950 . S
H1783 C1759 0.949 . S
H1784 C1761 0.950 . S
H1785 C1763 0.950 . S
C352 C171 1.684 . S
C347 C9 1.705 . S
C382 C161 2.122 . S
C377 C28 2.087 . S
C412 C162 0.673 . S
C407 C49 0.670 . S
C437 C79 2.034 . S
C442 C184 2.053 . S
C467 C99 2.087 . S
C472 C187 2.122 . S
C502 C170 0.673 . S
C497 C101 0.665 . S
C527 C128 2.034 . S
C532 C160 2.053 . S
C557 C141 1.707 . S
C562 C178 1.686 . S
C592 C191 1.359 . S
C587 C16 1.318 . S
C617 C26 1.021 . S
C622 C240 1.011 . S
C652 C218 1.409 . S
C647 C56 1.373 . S
C682 C232 0.667 . S
C677 C69 0.649 . S
C707 C89 0.651 . S
C712 C193 0.667 . S
C742 C246 2.062 . S
C737 C108 2.046 . S
C767 C126 1.023 . S
C772 C202 1.023 . S
C797 C148 2.109 . S
C802 C223 2.141 . S
C827 C19 2.109 . S
C832 C249 2.133 . S
C857 C96 1.021 . S
C862 C233 1.017 . S
C892 C192 1.409 . S
C887 C106 1.371 . S
C922 C224 0.667 . S
C917 C121 0.656 . S
C947 C146 1.321 . S
C952 C215 1.363 . S
C977 C59 2.046 . S
C982 C222 2.061 . S
C1012 C209 1.021 . S
C1007 C76 1.021 . S
C1037 C21 0.651 . S
C1042 C201 0.661 . S
C1067 C149 1.707 . S
C1072 C264 1.687 . S
C1097 C88 2.087 . S
C1102 C254 2.124 . S
C1132 C255 0.673 . S
C1127 C109 0.669 . S
C1162 C277 2.053 . S
C1157 C139 2.036 . S
C1187 C39 2.087 . S
C1192 C280 2.119 . S
C1222 C263 0.673 . S
C1217 C41 0.666 . S
C1247 C68 2.034 . S
C1252 C253 2.050 . S
C1277 C1 1.707 . S
C1282 C271 1.681 . S
C1307 C156 1.321 . S
C1312 C284 1.361 . S
C1342 C333 1.014 . S
C1337 C86 1.023 . S
C1367 C116 1.372 . S
C1372 C311 1.407 . S
C1397 C129 0.653 . S
C1402 C325 0.668 . S
C1432 C286 0.664 . S
C1427 C29 0.652 . S
C1457 C48 2.046 . S
C1462 C339 2.063 . S
C1492 C295 1.021 . S
C1487 C66 1.021 . S
C1522 C316 2.137 . S
C1517 C8 2.107 . S
C1552 C342 2.137 . S
C1547 C159 2.111 . S
C1577 C36 1.021 . S
C1582 C326 1.013 . S
C1607 C46 1.372 . S
C1612 C285 1.410 . S
C1642 C317 0.667 . S
C1637 C61 0.654 . S
C1667 C6 1.321 . S
C1672 C308 1.357 . S
C1697 C119 2.046 . S
C1702 C315 2.061 . S
C1732 C302 1.021 . S
C1727 C136 1.025 . S
C1762 C294 0.664 . S
C1757 C81 0.650 . S
