# Generated by pormake.
# Topology fgl, (4,4)-cn, num edge types: 1
# Building blocks:
#     Node 0, Type 0, BuildingBlock: ESEHIV_clean_sbu_0, # of connection points: 4
#     Node 1, Type 0, BuildingBlock: ESEHIV_clean_sbu_0, # of connection points: 4
#     Node 2, Type 0, BuildingBlock: ESEHIV_clean_sbu_0, # of connection points: 4
#     Node 3, Type 0, BuildingBlock: ESEHIV_clean_sbu_0, # of connection points: 4
#     Node 4, Type 0, BuildingBlock: ESEHIV_clean_sbu_0, # of connection points: 4
#     Node 5, Type 0, BuildingBlock: ESEHIV_clean_sbu_0, # of connection points: 4
#     Node 6, Type 0, BuildingBlock: ESEHIV_clean_sbu_0, # of connection points: 4
#     Node 7, Type 0, BuildingBlock: ESEHIV_clean_sbu_0, # of connection points: 4
#     Node 8, Type 0, BuildingBlock: ESEHIV_clean_sbu_0, # of connection points: 4
#     Node 9, Type 0, BuildingBlock: ESEHIV_clean_sbu_0, # of connection points: 4
#     Node 10, Type 0, BuildingBlock: ESEHIV_clean_sbu_0, # of connection points: 4
#     Node 11, Type 0, BuildingBlock: ESEHIV_clean_sbu_0, # of connection points: 4
#     Node 12, Type 0, BuildingBlock: ESEHIV_clean_sbu_0, # of connection points: 4
#     Node 13, Type 0, BuildingBlock: ESEHIV_clean_sbu_0, # of connection points: 4
#     Node 14, Type 0, BuildingBlock: ESEHIV_clean_sbu_0, # of connection points: 4
#     Node 15, Type 0, BuildingBlock: ESEHIV_clean_sbu_0, # of connection points: 4
#     Node 16, Type 0, BuildingBlock: ESEHIV_clean_sbu_0, # of connection points: 4
#     Node 17, Type 0, BuildingBlock: ESEHIV_clean_sbu_0, # of connection points: 4
#     Node 18, Type 1, BuildingBlock: NAHDIM_clean_sbu_0, # of connection points: 4
#     Node 19, Type 1, BuildingBlock: NAHDIM_clean_sbu_0, # of connection points: 4
#     Node 20, Type 1, BuildingBlock: NAHDIM_clean_sbu_0, # of connection points: 4
#     Node 21, Type 1, BuildingBlock: NAHDIM_clean_sbu_0, # of connection points: 4
#     Node 22, Type 1, BuildingBlock: NAHDIM_clean_sbu_0, # of connection points: 4
#     Node 23, Type 1, BuildingBlock: NAHDIM_clean_sbu_0, # of connection points: 4
#     Node 24, Type 1, BuildingBlock: NAHDIM_clean_sbu_0, # of connection points: 4
#     Node 25, Type 1, BuildingBlock: NAHDIM_clean_sbu_0, # of connection points: 4
#     Node 26, Type 1, BuildingBlock: NAHDIM_clean_sbu_0, # of connection points: 4
#     Node 27, Type 1, BuildingBlock: NAHDIM_clean_sbu_0, # of connection points: 4
#     Node 28, Type 1, BuildingBlock: NAHDIM_clean_sbu_0, # of connection points: 4
#     Node 29, Type 1, BuildingBlock: NAHDIM_clean_sbu_0, # of connection points: 4
#     Node 30, Type 1, BuildingBlock: NAHDIM_clean_sbu_0, # of connection points: 4
#     Node 31, Type 1, BuildingBlock: NAHDIM_clean_sbu_0, # of connection points: 4
#     Node 32, Type 1, BuildingBlock: NAHDIM_clean_sbu_0, # of connection points: 4
#     Node 33, Type 1, BuildingBlock: NAHDIM_clean_sbu_0, # of connection points: 4
#     Node 34, Type 1, BuildingBlock: NAHDIM_clean_sbu_0, # of connection points: 4
#     Node 35, Type 1, BuildingBlock: NAHDIM_clean_sbu_0, # of connection points: 4
#     Edge 36, Type (0, 1), BuildingBlock: EZIPEK_clean_linker_0, # of connection points: 2
#     Edge 37, Type (0, 1), BuildingBlock: EZIPEK_clean_linker_0, # of connection points: 2
#     Edge 38, Type (0, 1), BuildingBlock: EZIPEK_clean_linker_0, # of connection points: 2
#     Edge 39, Type (0, 1), BuildingBlock: EZIPEK_clean_linker_0, # of connection points: 2
#     Edge 40, Type (0, 1), BuildingBlock: EZIPEK_clean_linker_0, # of connection points: 2
#     Edge 41, Type (0, 1), BuildingBlock: EZIPEK_clean_linker_0, # of connection points: 2
#     Edge 42, Type (0, 1), BuildingBlock: EZIPEK_clean_linker_0, # of connection points: 2
#     Edge 43, Type (0, 1), BuildingBlock: EZIPEK_clean_linker_0, # of connection points: 2
#     Edge 44, Type (0, 1), BuildingBlock: EZIPEK_clean_linker_0, # of connection points: 2
#     Edge 45, Type (0, 1), BuildingBlock: EZIPEK_clean_linker_0, # of connection points: 2
#     Edge 46, Type (0, 1), BuildingBlock: EZIPEK_clean_linker_0, # of connection points: 2
#     Edge 47, Type (0, 1), BuildingBlock: EZIPEK_clean_linker_0, # of connection points: 2
#     Edge 48, Type (0, 1), BuildingBlock: EZIPEK_clean_linker_0, # of connection points: 2
#     Edge 49, Type (0, 1), BuildingBlock: EZIPEK_clean_linker_0, # of connection points: 2
#     Edge 50, Type (0, 1), BuildingBlock: EZIPEK_clean_linker_0, # of connection points: 2
#     Edge 51, Type (0, 1), BuildingBlock: EZIPEK_clean_linker_0, # of connection points: 2
#     Edge 52, Type (0, 1), BuildingBlock: EZIPEK_clean_linker_0, # of connection points: 2
#     Edge 53, Type (0, 1), BuildingBlock: EZIPEK_clean_linker_0, # of connection points: 2
#     Edge 54, Type (0, 1), BuildingBlock: EZIPEK_clean_linker_0, # of connection points: 2
#     Edge 55, Type (0, 1), BuildingBlock: EZIPEK_clean_linker_0, # of connection points: 2
#     Edge 56, Type (0, 1), BuildingBlock: EZIPEK_clean_linker_0, # of connection points: 2
#     Edge 57, Type (0, 1), BuildingBlock: EZIPEK_clean_linker_0, # of connection points: 2
#     Edge 58, Type (0, 1), BuildingBlock: EZIPEK_clean_linker_0, # of connection points: 2
#     Edge 59, Type (0, 1), BuildingBlock: EZIPEK_clean_linker_0, # of connection points: 2
#     Edge 60, Type (0, 1), BuildingBlock: EZIPEK_clean_linker_0, # of connection points: 2
#     Edge 61, Type (0, 1), BuildingBlock: EZIPEK_clean_linker_0, # of connection points: 2
#     Edge 62, Type (0, 1), BuildingBlock: EZIPEK_clean_linker_0, # of connection points: 2
#     Edge 63, Type (0, 1), BuildingBlock: EZIPEK_clean_linker_0, # of connection points: 2
#     Edge 64, Type (0, 1), BuildingBlock: EZIPEK_clean_linker_0, # of connection points: 2
#     Edge 65, Type (0, 1), BuildingBlock: EZIPEK_clean_linker_0, # of connection points: 2
#     Edge 66, Type (0, 1), BuildingBlock: EZIPEK_clean_linker_0, # of connection points: 2
#     Edge 67, Type (0, 1), BuildingBlock: EZIPEK_clean_linker_0, # of connection points: 2
#     Edge 68, Type (0, 1), BuildingBlock: EZIPEK_clean_linker_0, # of connection points: 2
#     Edge 69, Type (0, 1), BuildingBlock: EZIPEK_clean_linker_0, # of connection points: 2
#     Edge 70, Type (0, 1), BuildingBlock: EZIPEK_clean_linker_0, # of connection points: 2
#     Edge 71, Type (0, 1), BuildingBlock: EZIPEK_clean_linker_0, # of connection points: 2
#     Edge 72, Type (0, 1), BuildingBlock: EZIPEK_clean_linker_0, # of connection points: 2
#     Edge 73, Type (0, 1), BuildingBlock: EZIPEK_clean_linker_0, # of connection points: 2
#     Edge 74, Type (0, 1), BuildingBlock: EZIPEK_clean_linker_0, # of connection points: 2
#     Edge 75, Type (0, 1), BuildingBlock: EZIPEK_clean_linker_0, # of connection points: 2
#     Edge 76, Type (0, 1), BuildingBlock: EZIPEK_clean_linker_0, # of connection points: 2
#     Edge 77, Type (0, 1), BuildingBlock: EZIPEK_clean_linker_0, # of connection points: 2
#     Edge 78, Type (0, 1), BuildingBlock: EZIPEK_clean_linker_0, # of connection points: 2
#     Edge 79, Type (0, 1), BuildingBlock: EZIPEK_clean_linker_0, # of connection points: 2
#     Edge 80, Type (0, 1), BuildingBlock: EZIPEK_clean_linker_0, # of connection points: 2
#     Edge 81, Type (0, 1), BuildingBlock: EZIPEK_clean_linker_0, # of connection points: 2
#     Edge 82, Type (0, 1), BuildingBlock: EZIPEK_clean_linker_0, # of connection points: 2
#     Edge 83, Type (0, 1), BuildingBlock: EZIPEK_clean_linker_0, # of connection points: 2
#     Edge 84, Type (0, 1), BuildingBlock: EZIPEK_clean_linker_0, # of connection points: 2
#     Edge 85, Type (0, 1), BuildingBlock: EZIPEK_clean_linker_0, # of connection points: 2
#     Edge 86, Type (0, 1), BuildingBlock: EZIPEK_clean_linker_0, # of connection points: 2
#     Edge 87, Type (0, 1), BuildingBlock: EZIPEK_clean_linker_0, # of connection points: 2
#     Edge 88, Type (0, 1), BuildingBlock: EZIPEK_clean_linker_0, # of connection points: 2
#     Edge 89, Type (0, 1), BuildingBlock: EZIPEK_clean_linker_0, # of connection points: 2
#     Edge 90, Type (0, 1), BuildingBlock: EZIPEK_clean_linker_0, # of connection points: 2
#     Edge 91, Type (0, 1), BuildingBlock: EZIPEK_clean_linker_0, # of connection points: 2
#     Edge 92, Type (0, 1), BuildingBlock: EZIPEK_clean_linker_0, # of connection points: 2
#     Edge 93, Type (0, 1), BuildingBlock: EZIPEK_clean_linker_0, # of connection points: 2
#     Edge 94, Type (0, 1), BuildingBlock: EZIPEK_clean_linker_0, # of connection points: 2
#     Edge 95, Type (0, 1), BuildingBlock: EZIPEK_clean_linker_0, # of connection points: 2
#     Edge 96, Type (0, 1), BuildingBlock: EZIPEK_clean_linker_0, # of connection points: 2
#     Edge 97, Type (0, 1), BuildingBlock: EZIPEK_clean_linker_0, # of connection points: 2
#     Edge 98, Type (0, 1), BuildingBlock: EZIPEK_clean_linker_0, # of connection points: 2
#     Edge 99, Type (0, 1), BuildingBlock: EZIPEK_clean_linker_0, # of connection points: 2
#     Edge 100, Type (0, 1), BuildingBlock: EZIPEK_clean_linker_0, # of connection points: 2
#     Edge 101, Type (0, 1), BuildingBlock: EZIPEK_clean_linker_0, # of connection points: 2
#     Edge 102, Type (0, 1), BuildingBlock: EZIPEK_clean_linker_0, # of connection points: 2
#     Edge 103, Type (0, 1), BuildingBlock: EZIPEK_clean_linker_0, # of connection points: 2
#     Edge 104, Type (0, 1), BuildingBlock: EZIPEK_clean_linker_0, # of connection points: 2
#     Edge 105, Type (0, 1), BuildingBlock: EZIPEK_clean_linker_0, # of connection points: 2
#     Edge 106, Type (0, 1), BuildingBlock: EZIPEK_clean_linker_0, # of connection points: 2
#     Edge 107, Type (0, 1), BuildingBlock: EZIPEK_clean_linker_0, # of connection points: 2
# Relax obj value: 0.042
# Max RMSD: 0.162
# Mean RMSD: 0.110
data_MOF--net-fgl--node1-ESEHIV_clean_sbu_0--node2-NAHDIM_clean_sbu_0--edge1-EZIPEK_clean_linker_0
_symmetry_space_group_name_H-M    P1
_symmetry_Int_Tables_number       1
_symmetry_cell_setting            triclinic
loop_
_symmetry_equiv_pos_as_xyz
'x, y, z'
_cell_length_a     54.991954
_cell_length_b     56.07795
_cell_length_c     38.003206
_cell_angle_alpha  88.489907
_cell_angle_beta   90.659308
_cell_angle_gamma 119.81877
loop_
_atom_site_label
_atom_site_type_symbol
_atom_site_fract_x
_atom_site_fract_y
_atom_site_fract_z
_atom_type_partial_charge
Cu0 Cu 0.02481 0.53892 0.01604 0.0
N1 N 1.00761 0.54224 0.05652 0.0
N2 N 0.99886 0.56297 0.10003 0.0
C3 C 1.01496 0.56632 0.07183 0.0
C4 C 0.98066 0.53576 0.10287 0.0
C5 C 0.9861 0.52297 0.07592 0.0
O6 O 0.03928 0.5733 0.9898 0.0
C7 C 0.04244 0.50431 0.04116 0.0
O8 O 1.01557 0.49037 0.04857 0.0
H9 H 0.03166 0.58598 0.06238 0.0
H10 H 0.97503 0.50122 0.07076 0.0
N11 N 1.00067 0.51173 0.9854 0.0
N12 N 0.99007 0.48394 0.93996 0.0
C13 C 1.0102 0.5061 0.95614 0.0
C14 C 0.97332 0.49252 0.98766 0.0
C15 C 0.96669 0.4752 0.95944 0.0
C16 C 0.02032 0.57901 0.98104 0.0
O17 O 0.99414 0.56159 0.98949 0.0
H18 H 0.03177 0.51757 0.94741 0.0
H19 H 0.95945 0.49066 1.00879 0.0
O20 O 0.05279 0.52866 0.02847 0.0
H21 H 0.96447 0.52598 0.12275 0.0
H22 H 0.94666 0.4572 0.9542 0.0
Cu23 Cu 0.52655 0.55838 0.0167 0.0
N24 N 0.53358 0.56896 0.96677 0.0
N25 N 0.55612 0.5876 0.91633 0.0
C26 C 0.55868 0.58205 0.95047 0.0
C27 C 0.52847 0.57746 0.9108 0.0
C28 C 0.51456 0.56594 0.94211 0.0
O29 O 0.55293 0.59881 0.02998 0.0
C30 C 0.50473 0.49983 0.99873 0.0
O31 O 0.53109 0.50604 1.00067 0.0
H32 H 0.57845 0.5881 0.96348 0.0
H33 H 0.49226 0.55653 0.94677 0.0
N34 N 0.51998 0.54764 0.06659 0.0
N35 N 0.49887 0.53037 0.11816 0.0
C36 C 0.49582 0.53748 0.08486 0.0
C37 C 0.53861 0.54655 0.08888 0.0
C38 C 0.52564 0.53597 0.12081 0.0
C39 C 0.57878 0.60883 0.03777 0.0
O40 O 0.59006 0.59298 0.03757 0.0
H41 H 0.47627 0.53436 0.07373 0.0
H42 H 0.55982 0.55209 0.08204 0.0
O43 O 0.49833 0.51845 1.00371 0.0
H44 H 0.51921 0.57903 0.88617 0.0
H45 H 0.53474 0.53164 0.1438 0.0
Cu46 Cu 0.52861 0.07388 0.01823 0.0
N47 N 0.51831 0.09095 0.98321 0.0
N48 N 0.49628 0.09303 0.93479 0.0
C49 C 0.49893 0.07656 0.95895 0.0
C50 C 0.51472 0.11897 0.94397 0.0
C51 C 0.52826 0.11763 0.97422 0.0
O52 O 0.49352 0.04353 0.03657 0.0
C53 C 0.57643 0.0852 0.98378 0.0
O54 O 0.57743 0.10909 0.98292 0.0
H55 H 0.48764 0.05435 0.95827 0.0
H56 H 0.54479 0.13481 0.98789 0.0
N57 N 0.54766 0.09657 0.05547 0.0
N58 N 0.5741 0.10956 0.10354 0.0
C59 C 0.56237 0.09045 0.07878 0.0
C60 C 0.55007 0.12043 0.06594 0.0
C61 C 0.56647 0.12852 0.09594 0.0
C62 C 0.47747 0.05146 0.04948 0.0
O63 O 0.48657 0.07794 0.05106 0.0
H64 H 0.56426 0.07216 0.07778 0.0
H65 H 0.54029 0.13095 0.0531 0.0
O66 O 0.55518 0.06456 0.99785 0.0
H67 H 0.51841 0.13736 0.9295 0.0
H68 H 0.57206 0.14657 0.11118 0.0
Cu69 Cu 0.52564 0.04138 0.51308 0.0
N70 N 0.52844 0.03086 0.46802 0.0
N71 N 0.54974 0.03053 0.41883 0.0
C72 C 0.55256 0.04265 0.44978 0.0
C73 C 0.52272 1.0105 0.417 0.0
C74 C 0.50951 1.01076 0.44761 0.0
O75 O 0.56049 0.04871 0.53702 0.0
C76 C 0.49334 0.06449 0.49387 0.0
O77 O 0.47822 0.03935 0.48248 0.0
H78 H 0.57204 0.05942 0.4594 0.0
H79 H 0.48782 0.99707 0.45463 0.0
N80 N 0.49622 0.01352 0.53881 0.0
N81 N 0.46526 0.99488 0.58237 0.0
C82 C 0.48611 0.01821 0.5682 0.0
C83 C 0.4813 0.98614 0.53433 0.0
C84 C 0.462 0.97449 0.56142 0.0
C85 C 0.56472 0.02824 0.53927 0.0
O86 O 0.54587 1.00461 0.52644 0.0
H87 H 0.4941 0.03835 0.57925 0.0
H88 H 0.48448 0.97537 0.51328 0.0
O89 O 0.51697 0.07136 0.50836 0.0
H90 H 0.51348 0.99651 0.39546 0.0
H91 H 0.44707 0.95289 0.56571 0.0
Cu92 Cu 0.04687 0.57368 0.52365 0.0
N93 N 0.02977 0.54601 0.55879 0.0
N94 N 0.02281 0.5143 0.60058 0.0
C95 C 0.04181 0.53498 0.57976 0.0
C96 C 0.99795 0.51244 0.59282 0.0
C97 C 1.00231 0.53199 0.56706 0.0
O98 O 0.08136 0.57613 0.50643 0.0
C99 C 0.03884 0.6159 0.5518 0.0
O100 O 1.01311 0.59586 0.55758 0.0
H101 H 0.06394 0.54179 0.57968 0.0
H102 H 0.98645 0.53541 0.5547 0.0
N103 N 0.02286 0.56859 0.48584 0.0
N104 N 1.00494 0.58025 0.43991 0.0
C105 C 0.02544 0.58914 0.46421 0.0
C106 C 0.9999 0.54582 0.47475 0.0
C107 C 0.98882 0.55298 0.44617 0.0
C108 C 0.08725 0.55911 0.49256 0.0
O109 O 0.11335 0.56784 0.48342 0.0
H110 H 0.04196 0.61031 0.46637 0.0
H111 H 0.99184 0.52551 0.48654 0.0
O112 O 0.05705 0.61018 0.54052 0.0
H113 H 0.97803 0.49752 0.60434 0.0
H114 H 0.97042 0.53934 0.43121 0.0
Cu115 Cu 0.52768 0.58659 0.52664 0.0
N116 N 0.54542 0.61752 0.49688 0.0
N117 N 0.58198 0.65094 0.46778 0.0
C118 C 0.57328 0.63453 0.49676 0.0
C119 C 0.55868 0.64441 0.44892 0.0
C120 C 0.53603 0.62379 0.4671 0.0
O121 O 0.55077 0.59403 0.56861 0.0
C122 C 0.50321 0.54735 0.47605 0.0
O123 O 0.48917 0.56047 0.47173 0.0
H124 H 0.58724 0.63337 0.51601 0.0
H125 H 0.5146 0.61291 0.45797 0.0
N126 N 0.4922 0.57919 0.54066 0.0
N127 N 0.447 0.55241 0.5537 0.0
C128 C 0.47221 0.55413 0.55179 0.0
C129 C 0.47927 0.59408 0.5359 0.0
C130 C 0.45116 0.57748 0.544 0.0
C131 C 0.57302 0.59246 0.5715 0.0
O132 O 0.58061 0.58231 0.54582 0.0
H133 H 0.47571 0.53693 0.55606 0.0
H134 H 0.48913 0.61482 0.52502 0.0
O135 O 0.5221 0.55503 0.49973 0.0
H136 H 0.55834 0.65274 0.42301 0.0
H137 H 0.43479 0.58273 0.54071 0.0
Cu138 Cu 0.72409 0.90463 0.34727 0.0
N139 N 0.73586 0.93593 0.31862 0.0
N140 N 0.73452 0.97089 0.29132 0.0
C141 C 0.72463 0.95244 0.31827 0.0
C142 C 0.75265 0.96589 0.27387 0.0
C143 C 0.75355 0.94432 0.29095 0.0
O144 O 0.70356 0.9078 0.38787 0.0
C145 C 0.71947 0.86816 0.29448 0.0
O146 O 0.74686 0.88302 0.2965 0.0
H147 H 0.7086 0.95025 0.33642 0.0
H148 H 0.7655 0.93485 0.28296 0.0
N149 N 0.75474 0.90355 0.36676 0.0
N150 N 0.77844 0.88667 0.39574 0.0
C151 C 0.75376 0.88098 0.38123 0.0
C152 C 0.78095 0.92429 0.37243 0.0
C153 C 0.7957 0.91388 0.39055 0.0
C154 C 0.71702 0.92916 0.40674 0.0
O155 O 0.74271 0.94754 0.39762 0.0
H156 H 0.73518 0.86083 0.38162 0.0
H157 H 0.78857 0.94552 0.36461 0.0
O158 O 0.7044 0.87288 0.31563 0.0
H159 H 0.76387 0.97666 0.25015 0.0
H160 H 0.81722 0.92526 0.39941 0.0
Cu161 Cu 0.19638 0.89641 0.34513 0.0
N162 N 0.18538 0.85987 0.33446 0.0
N163 N 0.15501 0.81666 0.3193 0.0
C164 C 0.16022 0.84281 0.32007 0.0
C165 C 0.17787 0.81717 0.33346 0.0
C166 C 0.1966 0.84389 0.34288 0.0
O167 O 0.16594 0.89225 0.37531 0.0
C168 C 0.21985 0.94083 0.29401 0.0
O169 O 0.22813 0.95745 0.32064 0.0
H170 H 0.14534 0.84919 0.312 0.0
H171 H 0.21619 0.85075 0.35663 0.0
N172 N 0.23008 0.91544 0.37073 0.0
N173 N 0.2657 0.95222 0.39574 0.0
C174 C 0.23822 0.9393 0.3873 0.0
C175 C 0.25316 0.9129 0.36953 0.0
C176 C 0.27511 0.93548 0.38509 0.0
C177 C 0.16352 0.87787 0.40308 0.0
O178 O 0.18205 0.86999 0.40912 0.0
H179 H 0.22497 0.94835 0.38995 0.0
H180 H 0.25466 0.89715 0.35554 0.0
O181 O 0.20253 0.91531 0.29915 0.0
H182 H 0.18017 0.79928 0.33829 0.0
H183 H 0.29682 0.94047 0.38558 0.0
Cu184 Cu 0.19198 0.38706 0.34585 0.0
N185 N 0.17695 0.37007 0.3036 0.0
N186 N 0.15643 0.36279 0.25133 0.0
C187 C 0.1607 0.37552 0.28211 0.0
C188 C 0.17056 0.34892 0.25308 0.0
C189 C 0.18349 0.35367 0.28548 0.0
O190 O 0.1679 0.40062 0.36397 0.0
C191 C 0.25188 0.42481 0.35466 0.0
O192 O 0.24774 0.42354 0.38871 0.0
H193 H 0.15323 0.38953 0.28816 0.0
H194 H 0.1978 0.34684 0.29445 0.0
N195 N 0.19152 0.36133 0.37822 0.0
N196 N 0.20241 0.34546 0.4265 0.0
C197 C 0.20182 0.36696 0.41101 0.0
C198 C 0.18428 0.33487 0.37338 0.0
C199 C 0.19112 0.32499 0.40329 0.0
C200 C 0.142 0.38252 0.3674 0.0
O201 O 0.13406 0.35699 0.35952 0.0
H202 H 0.20969 0.3867 0.42303 0.0
H203 H 0.17566 0.32381 0.34942 0.0
O204 O 0.23103 0.41375 0.33381 0.0
H205 H 0.17241 0.33738 0.2319 0.0
H206 H 0.18938 0.305 0.40706 0.0
Cu207 Cu 0.18689 0.35309 0.86062 0.0
N208 N 0.19028 0.34176 0.81643 0.0
N209 N 0.20771 0.34598 0.76275 0.0
C210 C 0.21232 0.35652 0.79508 0.0
C211 C 0.18192 0.32363 0.7636 0.0
C212 C 0.17111 0.32108 0.79692 0.0
O213 O 0.22296 0.36615 0.88474 0.0
C214 C 0.14852 0.36822 0.83864 0.0
O215 O 0.13556 0.34199 0.83139 0.0
H216 H 0.23081 0.37536 0.80252 0.0
H217 H 0.15027 0.30604 0.80565 0.0
N218 N 0.15952 0.32456 0.88777 0.0
N219 N 0.12504 0.30616 0.92702 0.0
C220 C 0.14709 0.32937 0.9146 0.0
C221 C 0.14506 0.29715 0.88334 0.0
C222 C 0.12342 0.28565 0.90763 0.0
C223 C 0.23052 0.34813 0.88988 0.0
O224 O 0.21386 0.32291 0.87958 0.0
H225 H 0.15308 0.34973 0.92353 0.0
H226 H 0.14915 0.28644 0.86305 0.0
O227 O 0.17298 0.37904 0.85239 0.0
H228 H 0.17148 0.31069 0.74145 0.0
H229 H 0.10727 0.26428 0.91006 0.0
Cu230 Cu 0.7068 0.89963 0.85732 0.0
N231 N 0.7225 0.88201 0.83326 0.0
N232 N 0.72367 0.84669 0.80958 0.0
C233 C 0.70825 0.85489 0.82737 0.0
C234 C 0.74861 0.86951 0.80352 0.0
C235 C 0.74781 0.89145 0.81817 0.0
O236 O 0.68742 0.87501 0.89825 0.0
C237 C 0.70072 0.92472 0.79689 0.0
O238 O 0.728 0.93514 0.79832 0.0
H239 H 0.687 0.84132 0.83634 0.0
H240 H 0.76445 0.91265 0.81785 0.0
N241 N 0.7331 0.93369 0.87511 0.0
N242 N 0.74965 0.97655 0.89314 0.0
C243 C 0.72682 0.95321 0.88332 0.0
C244 C 0.76091 0.94501 0.88039 0.0
C245 C 0.77125 0.97167 0.89143 0.0
C246 C 0.70285 0.86901 0.91793 0.0
O247 O 0.72946 0.87966 0.90984 0.0
H248 H 0.70602 0.95064 0.88106 0.0
H249 H 0.77291 0.93489 0.87578 0.0
O250 O 0.6855 0.90778 0.82132 0.0
H251 H 0.76612 0.87013 0.78995 0.0
H252 H 0.79292 0.98652 0.89681 0.0
Cu253 Cu 0.19324 0.88921 0.84679 0.0
N254 N 0.18051 0.89215 0.80194 0.0
N255 N 0.15922 0.8768 0.75047 0.0
C256 C 0.17072 0.87157 0.77894 0.0
C257 C 0.16215 0.90182 0.75521 0.0
C258 C 0.17554 0.91139 0.78702 0.0
O259 O 0.16441 0.85492 0.86705 0.0
C260 C 0.24779 0.91338 0.82858 0.0
O261 O 0.24164 0.9326 0.81996 0.0
H262 H 0.17088 0.85255 0.78369 0.0
H263 H 0.18039 0.93057 0.79877 0.0
N264 N 0.19942 0.91722 0.87743 0.0
N265 N 0.21685 0.94368 0.92424 0.0
C266 C 0.21526 0.9225 0.90655 0.0
C267 C 0.19028 0.93552 0.87704 0.0
C268 C 0.2012 0.95206 0.90595 0.0
C269 C 0.14042 0.85301 0.86892 0.0
O270 O 0.13747 0.87403 0.85898 0.0
H271 H 0.2253 0.9109 0.9148 0.0
H272 H 0.1764 0.93661 0.85756 0.0
O273 O 0.22877 0.89053 0.84125 0.0
H274 H 0.15432 0.91191 0.73756 0.0
H275 H 0.1978 0.96872 0.91318 0.0
Cu276 Cu 0.35964 0.21247 0.71195 0.0
N277 N 0.33424 0.2207 0.69007 0.0
N278 N 0.31917 0.24549 0.66043 0.0
C279 C 0.34121 0.24553 0.67607 0.0
C280 C 0.29739 0.21977 0.66449 0.0
C281 C 0.30684 0.20435 0.68279 0.0
O282 O 0.37915 0.24062 0.74815 0.0
C283 C 0.36658 0.19051 0.65092 0.0
O284 O 0.33946 0.1754 0.65614 0.0
H285 H 0.36206 0.26325 0.6772 0.0
H286 H 0.29471 0.18274 0.68979 0.0
N287 N 0.34132 0.17794 0.73411 0.0
N288 N 0.33211 0.13542 0.74753 0.0
C289 C 0.3508 0.16003 0.73365 0.0
C290 C 0.31582 0.16424 0.74939 0.0
C291 C 0.31 0.13775 0.75763 0.0
C292 C 0.36346 0.24396 0.76983 0.0
O293 O 0.33615 0.2289 0.76666 0.0
H294 H 0.37048 0.16451 0.72193 0.0
H295 H 0.30199 0.17251 0.75294 0.0
O296 O 0.38127 0.20938 0.67284 0.0
H297 H 0.27635 0.21277 0.65491 0.0
H298 H 0.29078 0.12126 0.76886 0.0
Cu299 Cu 0.85202 0.21757 0.65588 0.0
N300 N 0.85472 0.23744 0.61409 0.0
N301 N 0.8751 0.26581 0.56782 0.0
C302 C 0.87908 0.25451 0.59749 0.0
C303 C 0.84718 0.25544 0.56527 0.0
C304 C 0.83462 0.2379 0.59393 0.0
O305 O 0.88866 0.23954 0.67855 0.0
C306 C 0.81674 0.16502 0.63169 0.0
O307 O 0.80078 0.1761 0.62691 0.0
H308 H 0.8994 0.25853 0.60691 0.0
H309 H 0.81241 0.22623 0.59947 0.0
N310 N 0.82421 0.21458 0.68673 0.0
N311 N 0.79814 0.20341 0.73546 0.0
C312 C 0.81853 0.20162 0.71846 0.0
C313 C 0.80673 0.22486 0.6836 0.0
C314 C 0.79058 0.21799 0.71377 0.0
C315 C 0.89254 0.26092 0.6946 0.0
O316 O 0.87127 0.2651 0.69852 0.0
H317 H 0.82947 0.19149 0.72917 0.0
H318 H 0.80613 0.23695 0.66132 0.0
O319 O 0.84146 0.17973 0.64394 0.0
H320 H 0.83674 0.26019 0.54421 0.0
H321 H 0.7749 0.22361 0.71964 0.0
Cu322 Cu 0.86439 0.69027 0.66939 0.0
N323 N 0.84636 0.67676 0.62657 0.0
N324 N 0.82192 0.67438 0.57839 0.0
C325 C 0.82978 0.68495 0.61046 0.0
C326 C 0.8338 0.65869 0.57365 0.0
C327 C 0.84903 0.66025 0.60363 0.0
O328 O 0.839 0.69565 0.69904 0.0
C329 C 0.90721 0.73796 0.6332 0.0
O330 O 0.88714 0.73672 0.61291 0.0
H331 H 0.82448 0.69941 0.62111 0.0
H332 H 0.86211 0.65106 0.60773 0.0
N333 N 0.87116 0.66499 0.69354 0.0
N334 N 0.88765 0.6493 0.73644 0.0
C335 C 0.88712 0.6713 0.72256 0.0
C336 C 0.86111 0.63793 0.68892 0.0
C337 C 0.87139 0.62812 0.71559 0.0
C338 C 0.83069 0.71276 0.69254 0.0
O339 O 0.84393 0.73258 0.66898 0.0
H340 H 0.89762 0.69154 0.73381 0.0
H341 H 0.84681 0.62606 0.66828 0.0
O342 O 0.90112 0.72208 0.66018 0.0
H343 H 0.8327 0.64815 0.54972 0.0
H344 H 0.86678 0.60712 0.71991 0.0
Cu345 Cu 0.86454 0.71977 0.16882 0.0
N346 N 0.89512 0.73322 0.13803 0.0
N347 N 0.92027 0.73531 0.09099 0.0
C348 C 0.89448 0.72804 0.10342 0.0
C349 C 0.93779 0.74647 0.11842 0.0
C350 C 0.9223 0.7452 0.14728 0.0
O351 O 0.8465 0.67965 0.17216 0.0
C352 C 0.81577 0.71921 0.13556 0.0
O353 O 0.80996 0.69586 0.12141 0.0
H354 H 0.87536 0.71788 0.08821 0.0
H355 H 0.93022 0.75125 0.17357 0.0
N356 N 0.87528 0.73322 0.21399 0.0
N357 N 0.86837 0.74385 0.26754 0.0
C358 C 0.85924 0.7392 0.23418 0.0
C359 C 0.89559 0.73448 0.2354 0.0
C360 C 0.89125 0.74094 0.26874 0.0
C361 C 0.85413 0.6635 0.1866 0.0
O362 O 0.83681 0.63689 0.18549 0.0
H363 H 0.84007 0.73827 0.22529 0.0
H364 H 0.91131 0.72933 0.22808 0.0
O365 O 0.8378 0.73199 0.15424 0.0
H366 H 0.96014 0.75405 0.11788 0.0
H367 H 0.90278 0.74169 0.29235 0.0
Cu368 Cu 0.38739 0.23946 0.20874 0.0
N369 N 0.40263 0.22152 0.18434 0.0
N370 N 0.40163 0.18531 0.15994 0.0
C371 C 0.38668 0.19514 0.17536 0.0
C372 C 0.42817 0.20651 0.15817 0.0
C373 C 0.42874 0.22899 0.1734 0.0
O374 O 0.37598 0.21962 0.25469 0.0
C375 C 0.37437 0.25752 0.14764 0.0
O376 O 0.4017 0.2685 0.1457 0.0
H377 H 0.36443 0.1831 0.18049 0.0
H378 H 0.44693 0.24906 0.17667 0.0
N379 N 0.41264 0.27561 0.22071 0.0
N380 N 0.42505 0.31732 0.24007 0.0
C381 C 0.40382 0.29312 0.22958 0.0
C382 C 0.44056 0.2892 0.22603 0.0
C383 C 0.44836 0.31521 0.23784 0.0
C384 C 0.35833 0.19447 0.26173 0.0
O385 O 0.33972 0.17963 0.238 0.0
H386 H 0.38206 0.28798 0.22912 0.0
H387 H 0.45416 0.28065 0.22256 0.0
O388 O 0.36155 0.2426 0.17483 0.0
H389 H 0.44583 0.20555 0.14757 0.0
H390 H 0.46925 0.33107 0.24484 0.0
Cu391 Cu 0.85237 0.26427 0.19018 0.0
N392 N 0.83065 0.25788 0.14942 0.0
N393 N 0.80748 0.23521 0.10164 0.0
C394 C 0.82191 0.23507 0.13043 0.0
C395 C 0.80695 0.25897 0.10233 0.0
C396 C 0.82133 0.273 0.13194 0.0
O397 O 0.8311 0.23181 0.21978 0.0
C398 C 0.90051 0.28984 0.1528 0.0
O399 O 0.88652 0.30126 0.13938 0.0
H400 H 0.82628 0.21874 0.13744 0.0
H401 H 0.82509 0.29294 0.13969 0.0
N402 N 0.86052 0.29544 0.21597 0.0
N403 N 0.88108 0.32606 0.25835 0.0
C404 C 0.8789 0.30377 0.24284 0.0
C405 C 0.85068 0.31318 0.21441 0.0
C406 C 0.86334 0.33213 0.24074 0.0
C407 C 0.81107 0.23102 0.23722 0.0
O408 O 0.80826 0.25293 0.23759 0.0
H409 H 0.89015 0.29336 0.2513 0.0
H410 H 0.83499 0.3121 0.19614 0.0
O411 O 0.88872 0.27059 0.17584 0.0
H412 H 0.79709 0.26571 0.08274 0.0
H413 H 0.85948 0.34869 0.24693 0.0
C414 C 1.00433 0.64807 0.1873 0.0
O415 O 0.99841 0.6667 0.17494 0.0
O416 O 0.97031 0.67336 0.2422 0.0
Zn417 Zn 1.00489 0.67028 0.25725 0.0
O418 O 0.9988 0.64666 0.30149 0.0
C419 C 0.04663 0.72464 0.28539 0.0
O420 O 0.02563 0.72158 0.30476 0.0
O421 O 1.00902 0.64714 0.22002 0.0
C422 C 0.99511 0.65015 0.33351 0.0
O423 O 0.99259 0.67133 0.34213 0.0
C424 C 0.95879 0.68635 0.25431 0.0
O425 O 0.96958 0.7019 0.2818 0.0
O426 O 0.04238 0.70659 0.26272 0.0
C427 C 0.45863 0.47292 0.3639 0.0
O428 O 0.46445 0.45475 0.35132 0.0
O429 O 0.37625 0.44584 0.31511 0.0
Zn430 Zn 0.41723 0.45711 0.30647 0.0
O431 O 0.43408 0.48266 0.26416 0.0
C432 C 0.40261 0.40132 0.28574 0.0
O433 O 0.37695 0.39709 0.28282 0.0
O434 O 0.43968 0.47661 0.34959 0.0
C435 C 0.42408 0.47475 0.23365 0.0
O436 O 0.40077 0.4512 0.2303 0.0
C437 C 0.36618 0.4617 0.30923 0.0
O438 O 0.38223 0.48625 0.29512 0.0
O439 O 0.42206 0.42428 0.29646 0.0
C440 C 0.69757 0.04933 0.27059 0.0
O441 O 0.70909 0.06996 0.29218 0.0
O442 O 0.64039 0.06751 0.29398 0.0
Zn443 Zn 0.6671 0.0763 0.25343 0.0
O444 O 0.7019 0.11323 0.25524 0.0
C445 C 0.63698 0.09512 0.21437 0.0
O446 O 0.64106 0.10815 0.24396 0.0
O447 O 0.67846 0.04737 0.24971 0.0
C448 C 0.71513 0.12831 0.2809 0.0
O449 O 0.70596 0.12053 0.31326 0.0
C450 C 0.64211 0.06021 0.32539 0.0
O451 O 0.6642 0.05872 0.33558 0.0
O452 O 0.64632 0.07862 0.21092 0.0
C453 C 0.02105 0.44622 0.81882 0.0
O454 O 0.0366 0.4657 0.79584 0.0
O455 O 0.02819 0.43845 0.72889 0.0
Zn456 Zn 0.02638 0.41134 0.76784 0.0
O457 O 0.06381 0.41214 0.77632 0.0
C458 C 0.99718 0.35564 0.73639 0.0
O459 O 0.02163 0.3618 0.72321 0.0
O460 O 1.01433 0.42145 0.8129 0.0
C461 C 0.06588 0.39838 0.8023 0.0
O462 O 0.04416 0.3846 0.8232 0.0
C463 C 0.03683 0.4407 0.69735 0.0
O464 O 0.04721 0.42533 0.68731 0.0
O465 O 0.99508 0.37289 0.75544 0.0
C466 C 0.63701 0.64128 0.69797 0.0
O467 O 0.63914 0.62571 0.72284 0.0
O468 O 0.63968 0.65797 0.78777 0.0
Zn469 Zn 0.66731 0.68178 0.74933 0.0
O470 O 0.70368 0.68073 0.74932 0.0
C471 C 0.68336 0.73224 0.78532 0.0
O472 O 0.68022 0.71642 0.81296 0.0
O473 O 0.64784 0.66699 0.70268 0.0
C474 C 0.72383 0.70028 0.73218 0.0
O475 O 0.72012 0.71954 0.71701 0.0
C476 C 0.64533 0.65139 0.81778 0.0
O477 O 0.67152 0.65988 0.82649 0.0
O478 O 0.67793 0.72181 0.75491 0.0
C479 C 0.41391 1.00077 0.70921 0.0
O480 O 0.40928 0.98449 0.73681 0.0
O481 O 0.42424 0.04285 0.79163 0.0
Zn482 Zn 0.39382 0.02665 0.75554 0.0
O483 O 0.38079 0.05411 0.74836 0.0
C484 C 0.36118 0.97381 0.795 0.0
O485 O 0.38497 0.9766 0.80682 0.0
O486 O 0.40864 0.02036 0.7107 0.0
C487 C 0.35548 0.04719 0.74169 0.0
O488 O 0.33686 0.02126 0.73697 0.0
C489 C 0.41737 0.04446 0.8229 0.0
O490 O 0.39077 0.03425 0.83075 0.0
O491 O 0.36103 0.99154 0.77364 0.0
C492 C 0.68683 0.96373 0.53475 0.0
O493 O 0.66047 0.95414 0.54346 0.0
O494 O 0.66181 0.99997 0.58752 0.0
Zn495 Zn 0.69721 0.99738 0.59838 0.0
O496 O 0.69321 0.97344 0.64302 0.0
C497 C 0.75284 0.05038 0.59432 0.0
O498 O 0.76038 0.03882 0.57041 0.0
O499 O 0.70605 0.98176 0.55409 0.0
C500 C 0.68012 0.97274 0.67094 0.0
O501 O 0.66662 0.98657 0.67141 0.0
C502 C 0.65895 0.02027 0.59633 0.0
O503 O 0.67839 0.03974 0.61541 0.0
O504 O 0.72865 0.03687 0.60843 0.0
C505 C 0.09733 0.79817 0.64415 0.0
O506 O 0.08482 0.77163 0.65124 0.0
O507 O 0.03146 0.77391 0.58157 0.0
Zn508 Zn 0.0714 0.78197 0.57447 0.0
O509 O 0.08886 0.80246 0.52803 0.0
C510 C 0.06541 0.73041 0.55007 0.0
O511 O 0.06411 0.74094 0.51928 0.0
O512 O 0.0949 0.80672 0.61373 0.0
C513 C 0.08578 0.82203 0.51525 0.0
O514 O 0.06892 0.82876 0.53079 0.0
C515 C 0.02452 0.79033 0.59473 0.0
O516 O 0.04396 0.8156 0.60161 0.0
O517 O 0.06965 0.74455 0.57748 0.0
C518 C 0.31481 0.33636 0.5961 0.0
O519 O 0.28956 0.32902 0.5847 0.0
O520 O 0.30006 0.38566 0.63813 0.0
Zn521 Zn 0.31947 0.38931 0.59245 0.0
O522 O 0.35209 0.4279 0.58648 0.0
C523 C 0.26615 0.36253 0.55262 0.0
O524 O 0.25462 0.34927 0.58219 0.0
O525 O 0.33285 0.36174 0.59838 0.0
C526 C 0.34882 0.44671 0.5717 0.0
O527 O 0.32402 0.44105 0.55992 0.0
C528 C 0.27938 0.38946 0.6418 0.0
O529 O 0.27191 0.40014 0.61557 0.0
O530 O 0.29234 0.37977 0.55134 0.0
C531 C 0.70741 0.80295 0.17435 0.0
O532 O 0.73049 0.80157 0.1723 0.0
O533 O 0.69823 0.79918 0.06051 0.0
Zn534 Zn 0.69416 0.77471 0.10473 0.0
O535 O 0.72936 0.77003 0.10857 0.0
C536 C 0.65963 0.72146 0.07228 0.0
O537 O 0.68105 0.73177 0.05054 0.0
O538 O 0.68924 0.79276 0.14976 0.0
C539 C 0.72925 0.75071 0.12726 0.0
O540 O 0.70688 0.73451 0.14604 0.0
C541 C 0.67785 0.79947 0.04433 0.0
O542 O 0.65216 0.78349 0.05586 0.0
O543 O 0.65982 0.73603 0.09766 0.0
C544 C 0.2784 0.98058 0.05328 0.0
O545 O 0.27286 0.96181 0.07809 0.0
O546 O 0.28895 0.99703 0.14496 0.0
Zn547 Zn 0.31749 0.01587 0.10516 0.0
O548 O 0.34835 1.0059 0.10498 0.0
C549 C 0.34492 0.06904 0.1386 0.0
O550 O 0.33887 0.05381 0.16752 0.0
O551 O 0.29682 1.00543 0.05867 0.0
C552 C 0.36588 0.01741 0.07995 0.0
O553 O 0.36117 0.03193 0.05598 0.0
C554 C 0.29443 0.98902 0.17409 0.0
O555 O 0.3196 0.99241 0.17933 0.0
O556 O 0.33734 0.05742 0.10905 0.0
C557 C 0.06744 0.32911 0.03111 0.0
O558 O 0.05252 0.3135 0.0578 0.0
O559 O 0.08854 0.36424 0.11194 0.0
Zn560 Zn 0.06647 0.36895 0.07293 0.0
O561 O 0.07711 0.40889 0.06734 0.0
C562 C 0.01762 0.3477 0.11546 0.0
O563 O 0.03609 0.36445 0.13801 0.0
O564 O 0.07504 0.35454 0.03022 0.0
C565 C 0.06112 0.41493 0.04964 0.0
O566 O 0.03953 0.39549 0.03311 0.0
C567 C 0.09868 0.38082 0.13709 0.0
O568 O 0.09543 0.40248 0.1378 0.0
O569 O 0.02548 0.34612 0.08475 0.0
C570 C 0.38659 0.31983 0.88381 0.0
O571 O 0.40055 0.3466 0.87838 0.0
O572 O 0.3363 0.33638 0.94244 0.0
Zn573 Zn 0.37187 0.33384 0.95329 0.0
O574 O 0.36954 0.31516 1.00226 0.0
C575 C 0.41303 0.38754 0.98107 0.0
O576 O 0.3976 0.37694 1.0095 0.0
O577 O 0.37422 0.31021 0.91335 0.0
C578 C 0.34926 0.29284 0.01489 0.0
O579 O 0.3263 0.27929 0.99628 0.0
C580 C 0.33251 0.35664 0.94808 0.0
O581 O 0.35191 0.37821 0.96429 0.0
O582 O 0.40657 0.37313 0.95343 0.0
C583 C 0.75934 0.14771 1.00184 0.0
O584 O 0.74105 0.12293 0.01349 0.0
O585 O 0.70122 0.10611 0.94762 0.0
Zn586 Zn 0.74196 0.12126 0.93422 0.0
O587 O 0.75067 0.13705 0.88401 0.0
C588 C 0.73977 0.07225 0.91347 0.0
O589 O 0.72326 0.07461 0.8901 0.0
O590 O 0.76451 0.15181 0.96895 0.0
C591 C 0.75815 0.1619 0.87576 0.0
O592 O 0.75901 0.17847 0.90015 0.0
C593 C 0.68015 0.0994 0.9277 0.0
O594 O 0.68331 0.10073 0.89339 0.0
O595 O 0.75114 0.09035 0.93695 0.0
C596 C 1.01545 0.66906 0.91617 0.0
O597 O 0.02963 0.68495 0.88929 0.0
O598 O 0.96782 0.71093 0.94653 0.0
Zn599 Zn 0.99042 0.70269 0.91235 0.0
O600 O 0.02819 0.73561 0.90341 0.0
C601 C 0.94824 0.6666 0.86471 0.0
O602 O 0.94104 0.6494 0.89181 0.0
O603 O 0.99701 0.67264 0.93118 0.0
C604 C 0.03314 0.76021 0.9043 0.0
O605 O 1.01285 0.76527 0.91133 0.0
C606 C 0.97687 0.72008 0.97697 0.0
O607 O 1.00197 0.72512 0.98658 0.0
O608 O 0.96912 0.69071 0.867 0.0
C609 C 0.39112 0.15193 0.52327 0.0
O610 O 0.41691 0.16005 0.5133 0.0
O611 O 0.36957 0.13987 0.41541 0.0
Zn612 Zn 0.37588 0.11932 0.4579 0.0
O613 O 0.41463 0.12193 0.45798 0.0
C614 C 0.33055 0.06751 0.4284 0.0
O615 O 0.32883 0.08422 0.40493 0.0
O616 O 0.37067 0.13493 0.50446 0.0
C617 C 0.41797 0.10654 0.48058 0.0
O618 O 0.39779 0.09212 0.50332 0.0
C619 C 0.38282 0.14618 0.38621 0.0
O620 O 0.40306 0.14046 0.38217 0.0
O621 O 0.34778 0.07761 0.45386 0.0
C622 C 0.94876 0.37447 0.38109 0.0
O623 O 0.93673 0.37648 0.40966 0.0
O624 O 0.96717 0.36372 0.46552 0.0
Zn625 Zn 0.99519 0.3906 0.42914 0.0
O626 O 0.03095 0.38756 0.42568 0.0
C627 C 0.03053 0.44599 0.45426 0.0
O628 O 0.04876 0.43738 0.45644 0.0
O629 O 0.97436 0.38056 0.38226 0.0
C630 C 0.04381 0.3918 0.39644 0.0
O631 O 0.03332 0.3972 0.36811 0.0
C632 C 0.96517 0.34113 0.47626 0.0
O633 O 0.98335 0.33425 0.46522 0.0
O634 O 1.0059 0.42973 0.44312 0.0
C635 C 0.80042 0.74786 0.37736 0.0
O636 O 0.81263 0.76287 0.4049 0.0
O637 O 0.77239 0.72184 0.45853 0.0
Zn638 Zn 0.75596 0.73538 0.42087 0.0
O639 O 0.76656 0.77505 0.42402 0.0
C640 C 0.69984 0.71744 0.44169 0.0
O641 O 0.71311 0.73839 0.46257 0.0
O642 O 0.77386 0.73295 0.37673 0.0
C643 C 0.7801 0.79256 0.44737 0.0
O644 O 0.78932 0.78564 0.47564 0.0
C645 C 0.76564 0.71624 0.49074 0.0
O646 O 0.74605 0.72029 0.50391 0.0
O647 O 0.71383 0.71196 0.42016 0.0
C648 C 0.05944 0.4786 0.07798 0.0
C649 C 0.05866 0.48975 0.04448 0.0
C650 C 0.07045 0.45781 0.01665 0.0
C651 C 0.06534 0.44318 0.04924 0.0
N652 N 0.05615 0.43986 0.11174 0.0
N653 N 0.06684 0.49293 0.98198 0.0
C654 C 0.06091 0.45401 0.08038 0.0
C655 C 0.06586 0.48065 0.01385 0.0
N656 N 0.05846 0.49163 0.10736 0.0
N657 N 0.07977 0.44978 0.9886 0.0
H658 H 0.06568 0.51086 0.9795 0.0
H659 H 0.0684 0.48533 0.95795 0.0
H660 H 0.08354 0.43328 0.99029 0.0
H661 H 0.08594 0.46054 0.96466 0.0
H662 H 0.06124 0.48613 0.13283 0.0
H663 H 0.05754 0.50979 0.10575 0.0
H664 H 0.04933 0.44482 0.13438 0.0
H665 H 0.05753 0.42207 0.11487 0.0
C666 C 0.60687 0.64425 0.08298 0.0
C667 C 0.59624 0.63818 0.04816 0.0
C668 C 0.62162 0.68767 0.03293 0.0
C669 C 0.63545 0.69328 0.06602 0.0
N670 N 0.64263 0.67647 0.12205 0.0
N671 N 0.59486 0.65392 0.98894 0.0
C672 C 0.62819 0.67149 0.09111 0.0
C673 C 0.60375 0.65988 0.02293 0.0
N674 N 0.59602 0.62405 0.10857 0.0
N675 N 0.62503 0.70905 0.0114 0.0
H676 H 0.58123 0.63402 0.98081 0.0
H677 H 0.60246 0.66839 0.96832 0.0
H678 H 0.63749 0.72958 0.0182 0.0
H679 H 0.61347 0.70653 0.98853 0.0
H680 H 0.60063 0.62766 0.13521 0.0
H681 H 0.58028 0.60401 0.1036 0.0
H682 H 0.64093 0.661 0.13935 0.0
H683 H 0.6578 0.69606 0.12946 0.0
C684 C 0.44137 0.0354 0.09637 0.0
C685 C 0.44843 0.03226 0.06176 0.0
C686 C 0.39853 1.00754 0.04649 0.0
C687 C 0.39243 0.01653 0.07802 0.0
N688 N 0.40779 0.03814 0.13433 0.0
N689 N 0.43384 0.01332 1.00413 0.0
C690 C 0.4136 0.02952 0.10387 0.0
C691 C 0.42696 0.01707 0.03712 0.0
N692 N 0.4616 0.04451 0.12178 0.0
N693 N 0.37695 0.98994 0.02561 0.0
H694 H 0.45418 0.01855 0.99715 0.0
H695 H 0.41964 1.00584 0.9834 0.0
H696 H 0.35602 0.98241 0.03251 0.0
H697 H 0.37959 0.9808 1.00359 0.0
H698 H 0.4576 0.04523 0.14833 0.0
H699 H 0.482 0.04877 0.11653 0.0
H700 H 0.4231 0.05086 0.15199 0.0
H701 H 0.3877 0.03374 0.1413 0.0
C702 C 0.47252 0.0864 0.45525 0.0
C703 C 0.48178 0.08352 0.48929 0.0
C704 C 0.45747 0.1061 0.5139 0.0
C705 C 0.44348 0.10341 0.48131 0.0
N706 N 0.43676 0.08929 0.42073 0.0
N707 N 0.48244 0.09011 0.55185 0.0
C708 C 0.45116 0.09366 0.45164 0.0
C709 C 0.47457 0.09373 0.51882 0.0
N710 N 0.4842 0.08204 0.42633 0.0
N711 N 0.45457 0.12074 0.54005 0.0
H712 H 0.49544 0.08182 0.5566 0.0
H713 H 0.47471 0.09384 0.57471 0.0
H714 H 0.44282 0.1306 0.53673 0.0
H715 H 0.46607 0.12555 0.56332 0.0
H716 H 0.48029 0.08619 0.40066 0.0
H717 H 0.5001 0.07704 0.42834 0.0
H718 H 0.43918 0.07906 0.39976 0.0
H719 H 0.4208 0.09395 0.41674 0.0
C720 C 0.06715 0.50941 0.50954 0.0
C721 C 0.06642 0.5297 0.48712 0.0
C722 C 0.03828 0.49421 0.44419 0.0
C723 C 0.03876 0.47395 0.46703 0.0
N724 N 0.04699 0.46103 0.525 0.0
N725 N 0.04865 0.5415 0.43542 0.0
C726 C 0.05099 0.48122 0.50094 0.0
C727 C 0.05069 0.52197 0.45544 0.0
N728 N 0.08463 0.51721 0.53803 0.0
N729 N 0.02799 0.48745 0.41079 0.0
H730 H 0.0589 0.5622 0.44193 0.0
H731 H 0.03524 0.53704 0.41399 0.0
H732 H 0.01896 0.46755 0.40141 0.0
H733 H 0.02992 0.50174 0.39141 0.0
H734 H 0.08874 0.50376 0.55292 0.0
H735 H 0.09666 0.53763 0.54546 0.0
H736 H 0.05368 0.46483 0.55103 0.0
H737 H 0.03438 0.44016 0.51996 0.0
C738 C 0.62695 0.65466 0.45137 0.0
C739 C 0.61069 0.66745 0.45654 0.0
C740 C 0.65183 0.71236 0.4439 0.0
C741 C 0.66894 0.69992 0.44448 0.0
N742 N 0.67292 0.65921 0.45512 0.0
N743 N 0.60776 0.70855 0.46154 0.0
C744 C 0.65656 0.671 0.44962 0.0
C745 C 0.62311 0.69636 0.45361 0.0
N746 N 0.61393 0.62686 0.4476 0.0
N747 N 0.66279 0.73919 0.43306 0.0
H748 H 0.58669 0.69728 0.46881 0.0
H749 H 0.61643 0.72973 0.46361 0.0
H750 H 0.68348 0.75128 0.42454 0.0
H751 H 0.65068 0.74857 0.42909 0.0
H752 H 0.62452 0.61659 0.44063 0.0
H753 H 0.59216 0.61452 0.44767 0.0
H754 H 0.66477 0.63864 0.4627 0.0
H755 H 0.69473 0.67039 0.45574 0.0
C756 C 0.03934 0.62977 0.9769 0.0
C757 C 0.02643 0.60402 0.96027 0.0
C758 C 1.01265 0.6234 0.91044 0.0
C759 C 0.02157 0.64768 0.92975 0.0
N760 N 0.04409 0.67508 0.98042 0.0
N761 N 1.00287 0.57606 0.91056 0.0
C762 C 0.0354 0.6513 0.96259 0.0
C763 C 1.01405 0.60092 0.92653 0.0
N764 N 0.05532 0.63354 1.00626 0.0
N765 N 1.00256 0.62179 0.87699 0.0
H766 H 1.00547 0.55995 0.92057 0.0
H767 H 0.99051 0.57096 0.88805 0.0
H768 H 1.00005 0.63737 0.86503 0.0
H769 H 0.99809 0.60581 0.86013 0.0
H770 H 0.06718 0.65237 0.01826 0.0
H771 H 0.05887 0.61825 0.01693 0.0
H772 H 0.05118 0.67787 1.0063 0.0
H773 H 0.04307 0.69191 0.9698 0.0
C774 C 0.47893 0.44932 0.01618 0.0
C775 C 0.48224 0.47079 0.9925 0.0
C776 C 0.44047 0.4375 0.95986 0.0
C777 C 0.43817 0.41581 0.98241 0.0
N778 N 0.45927 0.4003 0.02663 0.0
N779 N 0.46974 0.48425 0.93752 0.0
C780 C 0.45864 0.42154 1.00896 0.0
C781 C 0.46402 0.46455 0.96308 0.0
N782 N 0.49421 0.45551 0.04657 0.0
N783 N 0.41958 0.43263 0.9364 0.0
H784 H 0.48693 0.50407 0.9387 0.0
H785 H 0.45907 0.48028 0.91366 0.0
H786 H 0.40226 0.41321 0.93282 0.0
H787 H 0.41833 0.44818 0.92234 0.0
H788 H 0.49038 0.44114 0.06677 0.0
H789 H 0.50902 0.4755 0.05324 0.0
H790 H 0.47537 0.403 0.04368 0.0
H791 H 0.44526 0.37971 0.02148 0.0
C792 C 0.62804 0.1051 0.98659 0.0
C793 C 0.60203 0.08452 0.97326 0.0
C794 C 0.62739 0.07014 0.93414 0.0
C795 C 0.65307 0.09377 0.94338 0.0
N796 N 0.67615 0.13751 0.97244 0.0
N797 N 0.57669 0.04883 0.93143 0.0
C798 C 0.65301 0.11223 0.96815 0.0
C799 C 0.60154 0.06718 0.94639 0.0
N800 N 0.62896 0.1177 0.01724 0.0
N801 N 0.62768 0.05022 0.91454 0.0
H802 H 0.55742 0.04598 0.93985 0.0
H803 H 0.57538 0.03788 0.90909 0.0
H804 H 0.64617 0.05143 0.90577 0.0
H805 H 0.60982 0.03139 0.90985 0.0
H806 H 0.6477 0.13116 0.02964 0.0
H807 H 0.61108 0.1122 0.03221 0.0
H808 H 0.67599 0.15259 0.98776 0.0
H809 H 0.69444 0.1447 0.95768 0.0
C810 C 0.6097 0.02762 0.53077 0.0
C811 C 0.5911 0.03047 0.55375 0.0
C812 C 0.6164 0.02566 0.60485 0.0
C813 C 0.63555 0.02379 0.58179 0.0
N814 N 0.65428 0.02937 0.52315 0.0
N815 N 0.57903 0.03644 0.61228 0.0
C816 C 0.63326 0.02653 0.54482 0.0
C817 C 0.59534 0.03103 0.59071 0.0
N818 N 0.60459 0.0255 0.49538 0.0
N819 N 0.61744 0.02085 0.64015 0.0
H820 H 0.56291 0.03955 0.60289 0.0
H821 H 0.58276 0.03994 0.63908 0.0
H822 H 0.63225 0.01652 0.65136 0.0
H823 H 0.60238 0.01896 0.65808 0.0
H824 H 0.61493 0.01965 0.47778 0.0
H825 H 0.58883 0.02812 0.48371 0.0
H826 H 0.65541 0.03447 0.49645 0.0
H827 H 0.67213 0.02916 0.5323 0.0
C828 C 0.02832 0.65352 0.53401 0.0
C829 C 0.04543 0.64517 0.55288 0.0
C830 C 0.07686 0.69331 0.56907 0.0
C831 C 0.05824 0.70099 0.55292 0.0
N832 N 1.01238 0.68659 0.52855 0.0
N833 N 0.08321 0.65642 0.5939 0.0
C834 C 0.03284 0.68055 0.53792 0.0
C835 C 0.06895 0.66489 0.57201 0.0
N836 N 1.00864 0.63626 0.51077 0.0
N837 N 0.10258 0.71315 0.58032 0.0
H838 H 0.07777 0.63583 0.59717 0.0
H839 H 0.09868 0.6694 0.61124 0.0
H840 H 0.1092 0.73409 0.57841 0.0
H841 H 0.11822 0.70901 0.58876 0.0
H842 H 0.99792 0.64256 0.49355 0.0
H843 H 1.00506 0.61661 0.50582 0.0
H844 H 0.99237 0.6717 0.52082 0.0
H845 H 1.01425 0.70578 0.53231 0.0
C846 C 0.40772 0.51118 0.52795 0.0
C847 C 0.42074 0.52725 0.55782 0.0
C848 C 0.38473 0.49183 0.59628 0.0
C849 C 0.3731 0.47472 0.56678 0.0
N850 N 0.37461 0.46646 0.50509 0.0
N851 N 0.42388 0.533 0.62025 0.0
C852 C 0.38475 0.48403 0.53264 0.0
C853 C 0.40976 0.51762 0.59197 0.0
N854 N 0.41747 0.52209 0.49512 0.0
N855 N 0.37138 0.48368 0.62813 0.0
H856 H 0.44171 0.55236 0.61746 0.0
H857 H 0.41899 0.5261 0.64628 0.0
H858 H 0.35306 0.46488 0.63219 0.0
H859 H 0.37716 0.49623 0.6499 0.0
H860 H 0.40757 0.51272 0.47187 0.0
H861 H 0.43467 0.54167 0.49107 0.0
H862 H 0.38389 0.47087 0.48031 0.0
H863 H 0.35777 0.44646 0.50753 0.0
C864 C 0.77017 0.85467 0.4456 0.0
C865 C 0.78424 0.86715 0.41362 0.0
C866 C 0.80404 0.83665 0.41331 0.0
C867 C 0.78578 0.82095 0.44122 0.0
N868 N 0.75136 0.81451 0.48468 0.0
N869 N 0.81339 0.86947 0.36544 0.0
C870 C 0.76915 0.83007 0.45809 0.0
C871 C 0.80132 0.85834 0.39732 0.0
N872 N 0.75789 0.86655 0.4638 0.0
N873 N 0.82395 0.83072 0.4023 0.0
H874 H 0.81149 0.88519 0.35282 0.0
H875 H 0.82351 0.86177 0.35033 0.0
H876 H 0.82662 0.81524 0.41433 0.0
H877 H 0.83944 0.84279 0.38397 0.0
H878 H 0.7491 0.85989 0.48874 0.0
H879 H 0.75889 0.88479 0.45504 0.0
H880 H 0.73628 0.81832 0.49527 0.0
H881 H 0.7508 0.79684 0.49509 0.0
C882 C 0.30056 1.00039 0.37927 0.0
C883 C 0.28262 0.98086 0.40484 0.0
C884 C 0.29572 0.01809 0.44678 0.0
C885 C 0.3153 0.03727 0.42194 0.0
N886 N 0.34138 0.04497 0.36816 0.0
N887 N 0.26568 0.97003 0.46425 0.0
C888 C 0.31916 0.0279 0.38921 0.0
C889 C 0.281 0.98944 0.43906 0.0
N890 N 0.29895 0.99296 0.34501 0.0
N891 N 0.2903 0.02732 0.47697 0.0
H892 H 0.2546 0.94908 0.45898 0.0
H893 H 0.26565 0.9744 0.4907 0.0
H894 H 0.30061 0.04803 0.48343 0.0
H895 H 0.27423 0.0148 0.49439 0.0
H896 H 0.30937 1.00703 0.32452 0.0
H897 H 0.28499 0.97324 0.33649 0.0
H898 H 0.34673 0.03845 0.34559 0.0
H899 H 0.35634 0.06478 0.37536 0.0
C900 C 0.10035 0.37082 0.40534 0.0
C901 C 0.12026 0.38895 0.38008 0.0
C902 C 0.09369 0.41344 0.37468 0.0
C903 C 0.07104 0.39189 0.39395 0.0
N904 N 0.05187 0.34759 0.42391 0.0
N905 N 0.13383 0.42617 0.33731 0.0
C906 C 0.07419 0.37003 0.40869 0.0
C907 C 0.11661 0.41014 0.36406 0.0
N908 N 0.1066 0.35457 0.42657 0.0
N909 N 0.09376 0.43745 0.36732 0.0
H910 H 0.15064 0.42445 0.32816 0.0
H911 H 0.12992 0.43966 0.32215 0.0
H912 H 0.07808 0.44118 0.37614 0.0
H913 H 0.1109 0.45472 0.35616 0.0
H914 H 0.09392 0.34275 0.44755 0.0
H915 H 0.12598 0.3554 0.42575 0.0
H916 H 0.05245 0.32991 0.43167 0.0
H917 H 0.03195 0.34534 0.42559 0.0
C918 C 0.12253 0.39303 0.85454 0.0
C919 C 0.13429 0.38411 0.82853 0.0
C920 C 0.1042 0.38852 0.78348 0.0
C921 C 0.09215 0.39728 0.80954 0.0
N922 N 0.09597 0.41576 0.86721 0.0
N923 N 0.14232 0.38086 0.7673 0.0
C924 C 0.10334 0.40206 0.84426 0.0
C925 C 0.12715 0.38454 0.79264 0.0
N926 N 0.12844 0.39144 0.88925 0.0
N927 N 0.09254 0.38198 0.75071 0.0
H928 H 0.15911 0.37777 0.77346 0.0
H929 H 0.14013 0.38357 0.74047 0.0
H930 H 0.07562 0.3842 0.74268 0.0
H931 H 0.09826 0.37228 0.73221 0.0
H932 H 0.11768 0.39412 0.90975 0.0
H933 H 0.14306 0.38583 0.89759 0.0
H934 H 0.10519 0.42198 0.89183 0.0
H935 H 0.08277 0.42346 0.86007 0.0
C936 C 0.69353 0.80477 0.77657 0.0
C937 C 0.71522 0.81874 0.80125 0.0
C938 C 0.71886 0.77736 0.81104 0.0
C939 C 0.69474 0.76226 0.78969 0.0
N940 N 0.65607 0.76095 0.75707 0.0
N941 N 0.74494 0.81725 0.84708 0.0
C942 C 0.68131 0.77581 0.77351 0.0
C943 C 0.72696 0.80475 0.81986 0.0
N944 N 0.68488 0.81939 0.75585 0.0
N945 N 0.73475 0.76601 0.82183 0.0
H946 H 0.75094 0.83718 0.8546 0.0
H947 H 0.75174 0.80696 0.86421 0.0
H948 H 0.73025 0.74634 0.81516 0.0
H949 H 0.75403 0.77716 0.83432 0.0
H950 H 0.67101 0.81094 0.73493 0.0
H951 H 0.69365 0.84064 0.75764 0.0
H952 H 0.64408 0.76949 0.74792 0.0
H953 H 0.64566 0.73959 0.75562 0.0
C954 C 0.29628 0.93171 0.85079 0.0
C955 C 0.27676 0.91923 0.82331 0.0
C956 C 0.31506 0.93332 0.78127 0.0
C957 C 0.33396 0.95075 0.807 0.0
N958 N 0.34325 0.96655 0.8668 0.0
N959 N 0.26654 0.90577 0.76302 0.0
C960 C 0.32497 0.94943 0.84224 0.0
C961 C 0.2859 0.91884 0.7888 0.0
N962 N 0.28713 0.92694 0.88486 0.0
N963 N 0.3252 0.93095 0.74967 0.0
H964 H 0.24513 0.8939 0.76841 0.0
H965 H 0.27147 0.90737 0.73639 0.0
H966 H 0.34661 0.94124 0.74391 0.0
H967 H 0.31289 0.91711 0.73057 0.0
H968 H 0.30043 0.93378 0.90653 0.0
H969 H 0.26618 0.91366 0.89138 0.0
H970 H 0.33713 0.96908 0.8916 0.0
H971 H 0.36453 0.97949 0.86183 0.0
C972 C 0.74522 0.01893 0.28166 0.0
C973 C 0.72567 0.99043 0.28199 0.0
C974 C 0.68716 1.00011 0.27439 0.0
C975 C 0.70692 0.02867 0.27138 0.0
N976 N 0.75506 0.06432 0.26242 0.0
N977 N 0.67928 0.95387 0.26894 0.0
C978 C 0.73609 0.03781 0.27199 0.0
C979 C 0.69699 0.98102 0.27521 0.0
N980 N 0.77215 0.02804 0.29233 0.0
N981 N 0.65927 0.99116 0.27879 0.0
H982 H 0.6862 0.93962 0.26815 0.0
H983 H 0.6586 0.94621 0.26079 0.0
H984 H 0.65108 1.00433 0.28018 0.0
H985 H 0.64459 0.97072 0.2847 0.0
H986 H 0.78655 0.04874 0.29603 0.0
H987 H 0.77931 0.01479 0.30077 0.0
H988 H 0.7764 0.07132 0.2595 0.0
H989 H 0.74913 0.07847 0.25363 0.0
C990 C 0.11996 0.78808 0.27472 0.0
C991 C 0.12862 0.79281 0.31034 0.0
C992 C 0.08591 0.75047 0.3282 0.0
C993 C 0.0756 0.74739 0.29312 0.0
N994 N 0.08151 0.76533 0.2335 0.0
N995 N 0.11769 0.78149 0.37171 0.0
C996 C 0.09237 0.76666 0.26638 0.0
C997 C 0.111 0.77478 0.33729 0.0
N998 N 0.13844 0.80389 0.2489 0.0
N999 N 0.07237 0.72966 0.35258 0.0
H1000 H 0.13564 0.7994 0.37925 0.0
H1001 H 0.10416 0.77075 0.39253 0.0
H1002 H 0.05463 0.71103 0.34669 0.0
H1003 H 0.08043 0.7297 0.37753 0.0
H1004 H 0.13466 0.79997 0.22218 0.0
H1005 H 0.15863 0.81969 0.2545 0.0
H1006 H 0.09156 0.78042 0.21396 0.0
H1007 H 0.06137 0.75023 0.2265 0.0
C1008 C 0.28709 0.41717 0.32206 0.0
C1009 C 0.28082 0.43499 0.34109 0.0
C1010 C 0.33093 0.46945 0.34179 0.0
C1011 C 0.33672 0.45287 0.31951 0.0
N1012 N 0.31902 0.41356 0.28212 0.0
N1013 N 0.29618 0.4801 0.36342 0.0
C1014 C 0.3144 0.42749 0.30776 0.0
C1015 C 0.30259 0.46176 0.34925 0.0
N1016 N 0.26755 0.38995 0.3193 0.0
N1017 N 0.35243 0.49173 0.35749 0.0
H1018 H 0.27565 0.47528 0.36887 0.0
H1019 H 0.31086 0.50079 0.36656 0.0
H1020 H 0.37345 0.49753 0.354 0.0
H1021 H 0.34934 0.5028 0.37681 0.0
H1022 H 0.2721 0.37559 0.30896 0.0
H1023 H 0.24768 0.38103 0.33065 0.0
H1024 H 0.30291 0.3964 0.27008 0.0
H1025 H 0.33853 0.42074 0.27025 0.0
C1026 C 0.25608 0.33953 0.93919 0.0
C1027 C 0.25732 0.35438 0.90775 0.0
C1028 C 0.30853 0.37387 0.9059 0.0
C1029 C 0.30673 0.35647 0.9349 0.0
N1030 N 0.2788 0.32164 0.97835 0.0
N1031 N 0.28421 0.38407 0.85929 0.0
C1032 C 0.28047 0.33901 0.95135 0.0
C1033 C 0.28348 0.37145 0.89086 0.0
N1034 N 0.23161 0.32658 0.95799 0.0
N1035 N 0.33421 0.39259 0.89248 0.0
H1036 H 0.26654 0.38333 0.84788 0.0
H1037 H 0.30188 0.39387 0.84325 0.0
H1038 H 0.35286 0.3938 0.90103 0.0
H1039 H 0.3373 0.4081 0.87435 0.0
H1040 H 0.22975 0.31755 0.98283 0.0
H1041 H 0.21361 0.32707 0.95015 0.0
H1042 H 0.25996 0.30606 0.98872 0.0
H1043 H 0.29633 0.3217 0.9892 0.0
C1044 C 0.74252 1.0064 0.93326 0.0
C1045 C 0.75065 1.00217 0.89987 0.0
C1046 C 0.75753 0.04674 0.87865 0.0
C1047 C 0.74603 0.04945 0.91059 0.0
N1048 N 0.72526 0.03084 0.96753 0.0
N1049 N 0.76309 0.01629 0.83948 0.0
C1050 C 0.73822 0.02917 0.93796 0.0
C1051 C 0.75757 0.0219 0.87224 0.0
N1052 N 0.73899 0.98848 0.96036 0.0
N1053 N 0.76914 0.06826 0.85488 0.0
H1054 H 0.7636 0.99839 0.83416 0.0
H1055 H 0.76504 0.02825 0.81712 0.0
H1056 H 0.77011 0.08703 0.85912 0.0
H1057 H 0.78018 0.06853 0.83266 0.0
H1058 H 0.73566 0.99155 0.98635 0.0
H1059 H 0.74162 0.97147 0.95712 0.0
H1060 H 0.71634 0.01525 0.98669 0.0
H1061 H 0.72164 0.04709 0.9719 0.0
C1062 C 0.10281 0.82625 0.91331 0.0
C1063 C 0.11542 0.82729 0.88056 0.0
C1064 C 0.0739 0.7847 0.86314 0.0
C1065 C 0.06169 0.783 0.89647 0.0
N1066 N 0.0668 0.79838 0.95616 0.0
N1067 N 0.1161 0.80478 0.8277 0.0
C1068 C 0.07679 0.80272 0.92245 0.0
C1069 C 0.10201 0.80553 0.85664 0.0
N1070 N 0.11555 0.84793 0.93545 0.0
N1071 N 0.05816 0.76744 0.83698 0.0
H1072 H 0.13666 0.81979 0.82204 0.0
H1073 H 0.1084 0.78808 0.81111 0.0
H1074 H 0.03725 0.75224 0.84034 0.0
H1075 H 0.06493 0.76977 0.81099 0.0
H1076 H 0.10584 0.84995 0.95764 0.0
H1077 H 0.13546 0.86472 0.93062 0.0
H1078 H 0.07812 0.81063 0.97708 0.0
H1079 H 0.04819 0.78096 0.96396 0.0
C1080 C 0.33109 0.09771 0.71477 0.0
C1081 C 0.33443 0.11105 0.74704 0.0
C1082 C 0.3467 0.07926 0.77668 0.0
C1083 C 0.34653 0.06796 0.7436 0.0
N1084 N 0.34067 0.06732 0.6806 0.0
N1085 N 0.34761 0.11691 0.80792 0.0
C1086 C 0.33903 0.07723 0.71245 0.0
C1087 C 0.34263 0.10233 0.77789 0.0
N1088 N 0.32002 0.1046 0.68656 0.0
N1089 N 0.35005 0.06745 0.80694 0.0
H1090 H 0.34431 0.13364 0.8095 0.0
H1091 H 0.35668 0.11367 0.83039 0.0
H1092 H 0.35271 0.05029 0.80702 0.0
H1093 H 0.34783 0.07311 0.83205 0.0
H1094 H 0.31468 0.09418 0.66297 0.0
H1095 H 0.31403 0.11953 0.68784 0.0
H1096 H 0.33852 0.07539 0.65655 0.0
H1097 H 0.34603 0.05203 0.67804 0.0
C1098 C 0.93899 0.28073 0.72704 0.0
C1099 C 0.9212 0.284 0.7024 0.0
C1100 C 0.953 0.33403 0.70075 0.0
C1101 C 0.97138 0.33079 0.72435 0.0
N1102 N 0.9845 0.301 0.75579 0.0
N1103 N 0.91505 0.31274 0.65904 0.0
C1104 C 0.96527 0.30406 0.736 0.0
C1105 C 0.92934 0.31038 0.68734 0.0
N1106 N 0.93015 0.2557 0.74324 0.0
N1107 N 0.95792 0.35977 0.69132 0.0
H1108 H 0.89806 0.29589 0.64772 0.0
H1109 H 0.92175 0.33094 0.64452 0.0
H1110 H 0.97575 0.37776 0.69879 0.0
H1111 H 0.94337 0.36344 0.67808 0.0
H1112 H 0.94057 0.25254 0.7643 0.0
H1113 H 0.91122 0.23827 0.73713 0.0
H1114 H 0.98275 0.28202 0.76197 0.0
H1115 H 1.00327 0.31765 0.76417 0.0
C1116 C 0.80235 0.72785 0.7275 0.0
C1117 C 0.80338 0.70761 0.70691 0.0
C1118 C 0.7518 0.68093 0.70581 0.0
C1119 C 0.75085 0.70092 0.72691 0.0
N1120 N 0.77442 0.74049 0.76339 0.0
N1121 N 0.77912 0.66241 0.68127 0.0
C1122 C 0.77595 0.72354 0.73939 0.0
C1123 C 0.77814 0.68328 0.69787 0.0
N1124 N 0.82664 0.75134 0.73536 0.0
N1125 N 0.72766 0.66069 0.69126 0.0
H1126 H 0.79744 0.66359 0.6722 0.0
H1127 H 0.76176 0.64292 0.67845 0.0
H1128 H 0.70785 0.65775 0.6969 0.0
H1129 H 0.72726 0.64796 0.67155 0.0
H1130 H 0.82727 0.76844 0.74636 0.0
H1131 H 0.84644 0.75433 0.72939 0.0
H1132 H 0.79169 0.75581 0.77633 0.0
H1133 H 0.75539 0.73767 0.77267 0.0
C1134 C 0.78202 0.73124 0.16397 0.0
C1135 C 0.79504 0.72917 0.13302 0.0
C1136 C 0.76514 0.74171 0.09732 0.0
C1137 C 0.75388 0.74601 0.12855 0.0
N1138 N 0.75729 0.75149 0.19149 0.0
N1139 N 0.80272 0.73749 0.07055 0.0
C1140 C 0.76412 0.74282 0.16183 0.0
C1141 C 0.78772 0.73597 0.09977 0.0
N1142 N 0.78531 0.72058 0.19524 0.0
N1143 N 0.75334 0.74152 0.06542 0.0
H1144 H 0.81928 0.73342 0.07137 0.0
H1145 H 0.80042 0.74517 0.04625 0.0
H1146 H 0.73663 0.74518 0.0623 0.0
H1147 H 0.75853 0.73539 0.04239 0.0
H1148 H 0.77414 0.71908 0.21793 0.0
H1149 H 0.79681 0.71041 0.19757 0.0
H1150 H 0.76634 0.75215 0.21595 0.0
H1151 H 0.74497 0.76085 0.19093 0.0
C1152 C 0.39869 0.14008 0.16973 0.0
C1153 C 0.39072 0.15706 0.1505 0.0
C1154 C 0.35241 0.11644 0.12311 0.0
C1155 C 0.36155 0.09956 0.14063 0.0
N1156 N 0.3984 0.09683 0.17258 0.0
N1157 N 0.36451 0.16255 0.10325 0.0
C1158 C 0.38625 0.11185 0.1615 0.0
C1159 C 0.36905 0.14551 0.12522 0.0
N1160 N 0.41691 0.15048 0.19724 0.0
N1161 N 0.32706 0.10487 0.10643 0.0
H1162 H 0.37676 0.18392 0.10419 0.0
H1163 H 0.35066 0.1556 0.0821 0.0
H1164 H 0.31351 0.08372 0.10556 0.0
H1165 H 0.31821 0.11628 0.09637 0.0
H1166 H 0.42101 0.13822 0.21462 0.0
H1167 H 0.42585 0.17085 0.20477 0.0
H1168 H 0.41781 0.10551 0.18508 0.0
H1169 H 0.39067 0.07641 0.16585 0.0
C1170 C 0.94747 0.33188 0.15234 0.0
C1171 C 0.93095 0.30335 0.14612 0.0
C1172 C 0.97235 0.30308 0.12356 0.0
C1173 C 0.98767 0.33222 0.12531 0.0
N1174 N 0.98782 0.37477 0.13432 0.0
N1175 N 0.92651 0.26204 0.12194 0.0
C1176 C 0.97472 0.34676 0.13784 0.0
C1177 C 0.94306 0.2889 0.1308 0.0
N1178 N 0.93745 0.34467 0.17303 0.0
N1179 N 0.98588 0.2889 0.11627 0.0
H1180 H 0.90504 0.25099 0.12707 0.0
H1181 H 0.93367 0.25137 0.10716 0.0
H1182 H 1.00738 0.29852 0.11144 0.0
H1183 H 0.9763 0.26755 0.11814 0.0
H1184 H 0.94977 0.36484 0.18118 0.0
H1185 H 0.91787 0.33428 0.18522 0.0
H1186 H 0.97803 0.38608 0.13984 0.0
H1187 H 1.0073 0.38645 0.1222 0.0
C1188 C 0.31702 0.28792 0.66554 0.0
C1189 C 0.31901 0.26876 0.64412 0.0
C1190 C 0.32078 0.29525 0.59101 0.0
C1191 C 0.31978 0.31504 0.61253 0.0
N1192 N 0.32008 0.33235 0.67026 0.0
N1193 N 0.32603 0.25479 0.58783 0.0
C1194 C 0.31906 0.31213 0.64986 0.0
C1195 C 0.32184 0.27263 0.60717 0.0
N1196 N 0.31193 0.28216 0.70075 0.0
N1197 N 0.32013 0.29788 0.55517 0.0
H1198 H 0.32593 0.23762 0.59917 0.0
H1199 H 0.33111 0.25767 0.56119 0.0
H1200 H 0.32093 0.315 0.54253 0.0
H1201 H 0.31765 0.28273 0.53791 0.0
H1202 H 0.30737 0.29365 0.71776 0.0
H1203 H 0.31033 0.26448 0.71274 0.0
H1204 H 0.32256 0.33285 0.69746 0.0
H1205 H 0.32023 0.34981 0.65997 0.0
C1206 C 0.79851 0.12872 0.58616 0.0
C1207 C 0.8053 0.13576 0.62192 0.0
C1208 C 0.78181 0.08657 0.63864 0.0
C1209 C 0.77192 0.07972 0.60357 0.0
N1210 N 0.7679 0.09459 0.54468 0.0
N1211 N 0.80157 0.12172 0.68299 0.0
C1212 C 0.77972 0.10087 0.5774 0.0
C1213 C 0.7967 0.11476 0.64839 0.0
N1214 N 0.81036 0.14877 0.56048 0.0
N1215 N 0.77754 0.06614 0.66245 0.0
H1216 H 0.81298 0.14203 0.69103 0.0
H1217 H 0.79286 0.10753 0.70379 0.0
H1218 H 0.76682 0.04537 0.65624 0.0
H1219 H 0.78662 0.06982 0.68734 0.0
H1220 H 0.80857 0.14472 0.5337 0.0
H1221 H 0.82432 0.1693 0.56608 0.0
H1222 H 0.77023 0.10938 0.52579 0.0
H1223 H 0.75366 0.07461 0.53728 0.0
C1224 C 0.95754 0.77244 0.64553 0.0
C1225 C 0.93698 0.75427 0.62179 0.0
C1226 C 0.97374 0.7658 0.57778 0.0
C1227 C 0.99456 0.78029 0.60341 0.0
N1228 N 1.00594 0.79398 0.66402 0.0
N1229 N 0.92643 0.72942 0.56742 0.0
C1230 C 0.98644 0.78297 0.63788 0.0
C1231 C 0.94524 0.74994 0.58831 0.0
N1232 N 0.94947 0.77997 0.67517 0.0
N1233 N 0.98109 0.76756 0.54318 0.0
H1234 H 0.9057 0.71607 0.57472 0.0
H1235 H 0.9322 0.7237 0.54448 0.0
H1236 H 1.00167 0.77968 0.5343 0.0
H1237 H 0.96642 0.7595 0.52297 0.0
H1238 H 0.96355 0.79529 0.69166 0.0
H1239 H 0.92849 0.77288 0.68134 0.0
H1240 H 1.00067 0.79345 0.69039 0.0
H1241 H 0.02723 0.80138 0.66016 0.0
C1242 C 0.90638 0.68178 0.18428 0.0
C1243 C 0.88173 0.6731 0.20449 0.0
C1244 C 0.90727 0.6718 0.25766 0.0
C1245 C 0.93251 0.68305 0.23777 0.0
N1246 N 0.95705 0.70377 0.18341 0.0
N1247 N 0.85892 0.66163 0.26103 0.0
C1248 C 0.93233 0.68959 0.20146 0.0
C1249 C 0.88234 0.66877 0.24144 0.0
N1250 N 0.90465 0.68068 0.14849 0.0
N1251 N 0.90666 0.66241 0.2914 0.0
H1252 H 0.84019 0.65861 0.2499 0.0
H1253 H 0.85859 0.66086 0.28842 0.0
H1254 H 0.92419 0.66367 0.30401 0.0
H1255 H 0.88837 0.6512 0.30605 0.0
H1256 H 0.92117 0.68368 0.13236 0.0
H1257 H 0.88581 0.67433 0.13529 0.0
H1258 H 0.95838 0.71138 0.15778 0.0
H1259 H 0.97651 0.7102 0.19515 0.0
C1260 C 0.41665 0.35567 0.2264 0.0
C1261 C 0.42239 0.34017 0.25159 0.0
C1262 C 0.418 0.36659 0.29912 0.0
C1263 C 0.40939 0.3802 0.27408 0.0
N1264 N 0.39738 0.38551 0.21407 0.0
N1265 N 0.42556 0.32805 0.3118 0.0
C1266 C 0.4078 0.37411 0.23774 0.0
C1267 C 0.42251 0.34502 0.28796 0.0
N1268 N 0.42046 0.35314 0.19154 0.0
N1269 N 0.42164 0.37411 0.33355 0.0
H1270 H 0.42899 0.31221 0.30425 0.0
H1271 H 0.42281 0.32834 0.3388 0.0
H1272 H 0.41689 0.38857 0.34318 0.0
H1273 H 0.43086 0.36721 0.35223 0.0
H1274 H 0.41958 0.36586 0.17172 0.0
H1275 H 0.427 0.33974 0.18275 0.0
H1276 H 0.39273 0.37944 0.18805 0.0
H1277 H 0.39159 0.39988 0.22084 0.0
C1278 C 0.76057 0.19579 0.23338 0.0
C1279 C 0.78716 0.20438 0.24888 0.0
C1280 C 0.76678 0.1625 0.28605 0.0
C1281 C 0.73977 0.15557 0.27304 0.0
N1282 N 0.71038 0.16918 0.24087 0.0
N1283 N 0.8153 0.19818 0.29328 0.0
C1284 C 0.73651 0.17332 0.24867 0.0
C1285 C 0.79024 0.18838 0.27621 0.0
N1286 N 0.75838 0.20828 0.20306 0.0
N1287 N 0.77025 0.14395 0.30639 0.0
H1288 H 0.83293 0.21688 0.28637 0.0
H1289 H 0.81799 0.18883 0.31587 0.0
H1290 H 0.75363 0.12481 0.31409 0.0
H1291 H 0.78982 0.14666 0.31337 0.0
H1292 H 0.73981 0.20089 0.18879 0.0
H1293 H 0.77566 0.22414 0.18998 0.0
H1294 H 0.70699 0.18301 0.2257 0.0
H1295 H 0.69223 0.15353 0.25272 0.0
C1296 C 0.98825 0.47759 0.87585 0.0
C1297 C 0.99421 0.47123 0.90995 0.0
C1298 C 0.01713 0.44759 0.8848 0.0
C1299 C 1.01031 0.45312 0.85046 0.0
N1300 N 0.9839 0.46782 0.81362 0.0
N1301 N 1.00929 0.44624 0.94784 0.0
C1302 C 0.99424 0.46651 0.84607 0.0
C1303 C 1.00699 0.45485 0.91465 0.0
N1304 N 0.97778 0.49506 0.87205 0.0
N1305 N 0.03457 0.43688 0.88889 0.0
H1306 H 1.00235 0.4517 0.97005 0.0
H1307 H 0.01603 0.43215 0.95319 0.0
H1308 H 0.04268 0.43157 0.86775 0.0
H1309 H 0.0428 0.43521 0.91304 0.0
H1310 H 0.97592 0.50317 0.84786 0.0
H1311 H 0.97268 0.50294 0.89356 0.0
H1312 H 0.9699 0.475 0.80934 0.0
H1313 H 0.98721 0.45929 0.79137 0.0
C1314 C 0.59298 0.59155 0.87614 0.0
C1315 C 0.57854 0.60355 0.89179 0.0
C1316 C 0.60658 0.64626 0.85751 0.0
C1317 C 0.62234 0.63489 0.84332 0.0
N1318 N 0.63223 0.59758 0.84075 0.0
N1319 N 0.57357 0.64295 0.90197 0.0
C1320 C 0.61611 0.60779 0.85328 0.0
C1321 C 0.58584 0.63108 0.88361 0.0
N1322 N 0.58369 0.56423 0.88225 0.0
N1323 N 0.6113 0.67151 0.84592 0.0
H1324 H 0.55828 0.63227 0.92115 0.0
H1325 H 0.57997 0.66381 0.9004 0.0
H1326 H 0.62728 0.68406 0.82842 0.0
H1327 H 0.59836 0.67946 0.85193 0.0
H1328 H 0.59123 0.55315 0.8692 0.0
H1329 H 0.56681 0.55205 0.8989 0.0
H1330 H 0.63092 0.57933 0.84992 0.0
H1331 H 0.64808 0.60804 0.82215 0.0
C1332 C 0.45581 0.08882 0.90077 0.0
C1333 C 0.47856 0.08388 0.90428 0.0
C1334 C 0.46085 0.05226 0.85526 0.0
C1335 C 0.43916 0.05875 0.84997 0.0
N1336 N 0.42094 0.08915 0.86176 0.0
N1337 N 0.50684 0.06676 0.87982 0.0
C1338 C 0.43807 0.07882 0.87097 0.0
C1339 C 0.48238 0.06747 0.87979 0.0
N1340 N 0.45039 0.10195 0.92667 0.0
N1341 N 0.46011 0.0306 0.8386 0.0
H1342 H 0.52325 0.07836 0.89703 0.0
H1343 H 0.51194 0.05709 0.86056 0.0
H1344 H 0.444 0.01793 0.82172 0.0
H1345 H 0.47397 0.02345 0.84433 0.0
H1346 H 0.43229 0.10351 0.92726 0.0
H1347 H 0.46272 0.10912 0.94918 0.0
H1348 H 0.42128 0.10554 0.87448 0.0
H1349 H 0.4087 0.08349 0.83905 0.0
C1350 C 0.46433 0.99504 0.64689 0.0
C1351 C 0.45071 0.99281 0.6144 0.0
C1352 C 0.41102 0.99144 0.64473 0.0
C1353 C 0.42611 0.9969 0.67685 0.0
N1354 N 0.46868 1.00742 0.70815 0.0
N1355 N 0.41296 0.99179 0.58091 0.0
C1356 C 0.45311 0.99938 0.67798 0.0
C1357 C 0.42444 0.99164 0.61291 0.0
N1358 N 0.48802 0.99291 0.64775 0.0
N1359 N 0.38363 0.98525 0.64482 0.0
H1360 H 0.42225 0.99151 0.55726 0.0
H1361 H 0.3954 0.99409 0.57771 0.0
H1362 H 0.37299 0.98452 0.66773 0.0
H1363 H 0.37073 0.9785 0.62278 0.0
H1364 H 0.49766 0.99169 0.67093 0.0
H1365 H 0.49669 0.99 0.6251 0.0
H1366 H 0.48959 1.01238 0.70951 0.0
H1367 H 0.46152 1.01142 0.73132 0.0
C1368 C 0.01669 0.46837 0.61534 0.0
C1369 C 0.02745 0.49624 0.6241 0.0
C1370 C 0.04713 0.48848 0.67878 0.0
C1371 C 0.03418 0.45996 0.67162 0.0
N1372 N 1.0033 0.42199 0.63515 0.0
N1373 N 0.0493 0.5322 0.66594 0.0
C1374 C 0.01814 0.44969 0.64034 0.0
C1375 C 0.04177 0.50614 0.6563 0.0
N1376 N 1.00568 0.45999 0.5826 0.0
N1377 N 0.06541 0.49889 0.70628 0.0
H1378 H 0.04555 0.54547 0.65001 0.0
H1379 H 0.0571 0.53988 0.69071 0.0
H1380 H 0.07027 0.48676 0.72291 0.0
H1381 H 0.07767 0.51984 0.71078 0.0
H1382 H 0.99959 0.44059 0.57309 0.0
H1383 H 1.00503 0.4734 0.56353 0.0
H1384 H 0.98868 0.41299 0.61512 0.0
H1385 H 1.00386 0.4076 0.65249 0.0
C1386 C 0.61916 0.6245 0.60105 0.0
C1387 C 0.59062 0.60323 0.60366 0.0
C1388 C 0.59224 0.60851 0.66775 0.0
C1389 C 0.62111 0.62853 0.66538 0.0
N1390 N 0.66348 0.65184 0.63086 0.0
N1391 N 0.55224 0.57064 0.64012 0.0
C1392 C 0.63499 0.63547 0.63233 0.0
C1393 C 0.57783 0.59398 0.63724 0.0
N1394 N 0.63092 0.63521 0.56886 0.0
N1395 N 0.57822 0.60417 0.69886 0.0
H1396 H 0.54142 0.55896 0.61848 0.0
H1397 H 0.54309 0.56128 0.66414 0.0
H1398 H 0.58787 0.61467 0.72171 0.0
H1399 H 0.55654 0.59208 0.70122 0.0
H1400 H 0.65024 0.65306 0.56561 0.0
H1401 H 0.62075 0.62752 0.54514 0.0
H1402 H 0.67523 0.65492 0.60817 0.0
H1403 H 0.67576 0.66059 0.65305 0.0
C1404 C 0.02362 0.59898 0.14404 0.0
C1405 C 1.00031 0.5844 0.12168 0.0
C1406 C 0.97875 0.61022 0.14385 0.0
C1407 C 1.00327 0.62666 0.1639 0.0
N1408 N 0.05123 0.63992 0.17791 0.0
N1409 N 0.95848 0.57967 0.09473 0.0
C1410 C 0.02635 0.62191 0.16261 0.0
C1411 C 0.97868 0.59108 0.11996 0.0
N1412 N 0.0427 0.59029 0.14829 0.0
N1413 N 0.95498 0.61173 0.14892 0.0
H1414 H 0.95812 0.56584 0.07662 0.0
H1415 H 0.94376 0.58586 0.08967 0.0
H1416 H 0.9536 0.62456 0.16716 0.0
H1417 H 0.93577 0.59824 0.13762 0.0
H1418 H 0.05867 0.59822 0.16692 0.0
H1419 H 0.041 0.57339 0.13524 0.0
H1420 H 0.06957 0.63904 0.17487 0.0
H1421 H 0.05431 0.65736 0.19089 0.0
C1422 C 0.46755 0.48769 0.15085 0.0
C1423 C 0.47741 0.51594 0.14432 0.0
C1424 C 0.4489 0.51632 0.19326 0.0
C1425 C 0.44168 0.48884 0.20226 0.0
N1426 N 0.44882 0.45018 0.19367 0.0
N1427 N 0.47998 0.55824 0.16026 0.0
C1428 C 0.45206 0.47487 0.18197 0.0
C1429 C 0.46861 0.53056 0.16568 0.0
N1430 N 0.47301 0.47317 0.127 0.0
N1431 N 0.43649 0.52854 0.21059 0.0
H1432 H 0.49411 0.56891 0.13987 0.0
H1433 H 0.47686 0.57083 0.17709 0.0
H1434 H 0.42204 0.51864 0.23092 0.0
H1435 H 0.43881 0.54756 0.20314 0.0
H1436 H 0.46415 0.45187 0.12836 0.0
H1437 H 0.4843 0.48226 0.10394 0.0
H1438 H 0.45822 0.44032 0.18167 0.0
H1439 H 0.4392 0.44087 0.21753 0.0
C1440 C 0.57569 0.08975 0.16128 0.0
C1441 C 0.59 0.10829 0.13303 0.0
C1442 C 0.63528 0.11966 0.15931 0.0
C1443 C 0.62091 0.0993 0.18596 0.0
N1444 N 0.57793 0.06344 0.21175 0.0
N1445 N 0.6326 0.13972 0.10293 0.0
C1446 C 0.5912 0.08396 0.1869 0.0
C1447 C 0.61963 0.1231 0.13156 0.0
N1448 N 0.54724 0.07816 0.16363 0.0
N1449 N 0.66377 0.136 0.16101 0.0
H1450 H 0.62154 0.14329 0.08299 0.0
H1451 H 0.65399 0.14883 0.09791 0.0
H1452 H 0.67592 0.13349 0.18045 0.0
H1453 H 0.6753 0.15306 0.14455 0.0
H1454 H 0.5354 0.06627 0.18504 0.0
H1455 H 0.53559 0.08226 0.14507 0.0
H1456 H 0.55648 0.04966 0.2119 0.0
H1457 H 0.58867 0.05896 0.23125 0.0
C1458 C 0.58343 0.0622 0.37472 0.0
C1459 C 0.57193 0.03713 0.39419 0.0
C1460 C 0.60506 0.0261 0.36679 0.0
C1461 C 0.61846 0.0525 0.34992 0.0
N1462 N 0.62351 0.0977 0.34281 0.0
N1463 N 0.57446 0.9974 0.41409 0.0
C1464 C 0.60845 0.07113 0.35514 0.0
C1465 C 0.58349 0.01966 0.39173 0.0
N1466 N 0.57001 0.07717 0.37458 0.0
N1467 N 0.6119 1.00671 0.35782 0.0
H1468 H 0.5587 0.99221 0.43269 0.0
H1469 H 0.58423 0.98558 0.4163 0.0
H1470 H 0.62693 1.0102 0.33885 0.0
H1471 H 0.6008 0.98632 0.36672 0.0
H1472 H 0.57568 0.0943 0.35818 0.0
H1473 H 0.55155 0.0709 0.38871 0.0
H1474 H 0.61864 0.11287 0.34874 0.0
H1475 H 0.6425 0.10535 0.32944 0.0
C1476 C 0.0219 0.60891 0.38565 0.0
C1477 C 1.00162 0.59685 0.41271 0.0
C1478 C 0.9756 0.61799 0.38654 0.0
C1479 C 0.99736 0.63214 0.36135 0.0
N1480 N 0.04447 0.64589 0.34242 0.0
N1481 N 0.96182 0.59344 0.44289 0.0
C1482 C 0.02142 0.6289 0.36234 0.0
C1483 C 0.97915 0.60235 0.41426 0.0
N1484 N 0.04125 0.60068 0.38174 0.0
N1485 N 0.95115 0.61862 0.38329 0.0
H1486 H 0.96408 0.58215 0.46362 0.0
H1487 H 0.94687 0.59924 0.44751 0.0
H1488 H 0.94762 0.6295 0.36311 0.0
H1489 H 0.9335 0.60647 0.39873 0.0
H1490 H 0.05489 0.60664 0.36035 0.0
H1491 H 0.04177 0.58575 0.39814 0.0
H1492 H 0.06352 0.6462 0.34479 0.0
H1493 H 0.04564 0.66173 0.32623 0.0
C1494 C 0.47024 0.49994 0.4569 0.0
C1495 C 0.49648 0.52424 0.45255 0.0
C1496 C 0.50125 0.51007 0.39368 0.0
C1497 C 0.47301 0.48834 0.39585 0.0
N1498 N 0.43078 0.46108 0.42957 0.0
N1499 N 0.53782 0.55273 0.41812 0.0
C1500 C 0.45764 0.48265 0.42769 0.0
C1501 C 0.51255 0.52908 0.42158 0.0
N1502 N 0.45761 0.49354 0.48921 0.0
N1503 N 0.51701 0.51278 0.3647 0.0
H1504 H 0.54703 0.56639 0.43865 0.0
H1505 H 0.54918 0.55946 0.39475 0.0
H1506 H 0.50906 0.49992 0.34322 0.0
H1507 H 0.53844 0.52648 0.36282 0.0
H1508 H 0.43929 0.47532 0.49536 0.0
H1509 H 0.46702 0.50569 0.51099 0.0
H1510 H 0.41717 0.45751 0.45038 0.0
H1511 H 0.42158 0.44702 0.40944 0.0
C1512 C 0.70814 0.82242 0.27005 0.0
C1513 C 0.70748 0.84733 0.2661 0.0
C1514 C 0.70167 0.84083 0.20193 0.0
C1515 C 0.70309 0.81622 0.20578 0.0
N1516 N 0.70017 0.77997 0.24399 0.0
N1517 N 0.69716 0.87702 0.23008 0.0
C1518 C 0.70392 0.80589 0.2401 0.0
C1519 C 0.70186 0.85528 0.23257 0.0
N1520 N 0.71389 0.81513 0.30236 0.0
N1521 N 0.7021 0.85145 0.169 0.0
H1522 H 0.69758 0.88807 0.25196 0.0
H1523 H 0.69044 0.88256 0.20718 0.0
H1524 H 0.70187 0.84158 0.14604 0.0
H1525 H 0.7045 0.87086 0.16423 0.0
H1526 H 0.71829 0.79924 0.30651 0.0
H1527 H 0.71548 0.82594 0.32502 0.0
H1528 H 0.698 0.77009 0.26828 0.0
H1529 H 0.69658 0.76727 0.22267 0.0
C1530 C 0.25111 0.93875 0.24736 0.0
C1531 C 0.23563 0.95089 0.26016 0.0
C1532 C 0.25855 0.9884 0.21602 0.0
C1533 C 0.27246 0.97516 0.20181 0.0
N1534 N 0.2756 0.93393 0.19797 0.0
N1535 N 0.22026 0.98405 0.25196 0.0
C1536 C 0.2667 0.94913 0.21561 0.0
C1537 C 0.23798 0.97472 0.24293 0.0
N1538 N 0.25269 0.91859 0.26654 0.0
N1539 N 0.266 0.01462 0.20532 0.0
H1540 H 0.20483 0.97434 0.27128 0.0
H1541 H 0.21903 0.99968 0.23806 0.0
H1542 H 0.28118 0.02559 0.18616 0.0
H1543 H 0.25887 0.02639 0.21759 0.0
H1544 H 0.26626 0.91141 0.26019 0.0
H1545 H 0.24279 0.91091 0.29072 0.0
H1546 H 0.26955 0.91363 0.20498 0.0
H1547 H 0.28646 0.94049 0.17414 0.0
C1548 C 0.11336 0.34818 0.21738 0.0
C1549 C 0.14237 0.36626 0.2214 0.0
C1550 C 0.14291 0.39403 0.17034 0.0
C1551 C 0.11383 0.3755 0.16569 0.0
N1552 N 0.07166 0.33327 0.18176 0.0
N1553 N 0.18591 0.40432 0.20126 0.0
C1554 C 0.09914 0.35196 0.18823 0.0
C1555 C 0.15749 0.38864 0.19768 0.0
N1556 N 0.0994 0.328 0.24238 0.0
N1557 N 0.15646 0.41675 0.14864 0.0
H1558 H 0.19687 0.40102 0.22161 0.0
H1559 H 0.19898 0.41953 0.18329 0.0
H1560 H 0.14701 0.42036 0.12677 0.0
H1561 H 0.17678 0.43267 0.15273 0.0
H1562 H 0.0777 0.31579 0.24363 0.0
H1563 H 0.10965 0.32447 0.26343 0.0
H1564 H 0.0607 0.31425 0.19468 0.0
H1565 H 0.05991 0.33598 0.16203 0.0
C1566 C 0.10956 0.30072 0.98825 0.0
C1567 C 0.10557 0.30522 0.9525 0.0
C1568 C 0.07122 0.31872 0.9686 0.0
C1569 C 0.07831 0.31811 1.00447 0.0
N1570 N 0.10593 0.31074 0.0489 0.0
N1571 N 0.0836 0.31876 0.90748 0.0
C1572 C 0.09754 0.30917 0.01459 0.0
C1573 C 0.08636 0.31397 0.94233 0.0
N1574 N 0.12553 0.28898 0.99672 0.0
N1575 N 0.04976 0.32342 0.95986 0.0
H1576 H 0.09339 0.31401 0.8877 0.0
H1577 H 0.07279 0.32851 0.89826 0.0
H1578 H 0.03813 0.32674 0.97866 0.0
H1579 H 0.04192 0.32181 0.93443 0.0
H1580 H 0.12732 0.28266 0.02215 0.0
H1581 H 0.13517 0.28346 0.97761 0.0
H1582 H 0.12212 0.30742 0.05721 0.0
H1583 H 0.09825 0.31745 0.06903 0.0
C1584 C 0.6938 0.82488 0.94805 0.0
C1585 C 0.69177 0.84918 0.94871 0.0
C1586 C 0.67764 0.83926 1.01119 0.0
C1587 C 0.68265 0.81665 0.01141 0.0
N1588 N 0.69661 0.78839 0.98049 0.0
N1589 N 0.68404 0.88098 0.98144 0.0
C1590 C 0.69105 0.80962 0.97992 0.0
C1591 C 0.68393 0.85658 0.98034 0.0
N1592 N 0.6975 0.81592 0.91649 0.0
N1593 N 0.66699 0.84429 0.04061 0.0
H1594 H 0.68789 0.8938 0.95934 0.0
H1595 H 0.68201 0.88943 1.00452 0.0
H1596 H 0.66389 0.83336 0.06432 0.0
H1597 H 0.65969 0.85821 0.04107 0.0
H1598 H 0.69647 0.79709 0.91316 0.0
H1599 H 0.69912 0.82633 0.89275 0.0
H1600 H 0.70616 0.78428 0.95986 0.0
H1601 H 0.69314 0.77561 1.00251 0.0
C1602 C 0.26191 0.96938 0.95524 0.0
C1603 C 0.23225 0.95471 0.95621 0.0
C1604 C 0.23308 0.96062 0.01992 0.0
C1605 C 0.26273 0.97276 0.01957 0.0
N1606 N 0.30536 0.98554 0.98758 0.0
N1607 N 0.18932 0.93262 0.98927 0.0
C1608 C 0.27723 0.97649 0.98735 0.0
C1609 C 0.21773 0.9494 0.98851 0.0
N1610 N 0.2753 0.97686 0.92343 0.0
N1611 N 0.21967 0.96064 0.04998 0.0
H1612 H 0.17758 0.924 0.96665 0.0
H1613 H 0.17772 0.92544 0.01245 0.0
H1614 H 0.23024 0.96912 0.07335 0.0
H1615 H 0.19845 0.95458 0.05093 0.0
H1616 H 0.29682 0.98979 0.92056 0.0
H1617 H 0.26445 0.9719 0.8996 0.0
H1618 H 0.31651 0.98581 0.96548 0.0
H1619 H 0.31728 0.99075 1.01054 0.0
C1620 C 0.71805 0.93261 0.4729 0.0
C1621 C 0.70559 0.93343 0.44018 0.0
C1622 C 0.6823 0.95558 0.46905 0.0
C1623 C 0.69366 0.95355 0.50216 0.0
N1624 N 0.71755 0.93478 0.53663 0.0
N1625 N 0.67182 0.94091 0.40839 0.0
C1626 C 0.71024 0.94058 0.50436 0.0
C1627 C 0.68628 0.94324 0.43877 0.0
N1628 N 0.7378 0.92458 0.47381 0.0
N1629 N 0.6691 0.97074 0.46601 0.0
H1630 H 0.67449 0.93229 0.38581 0.0
H1631 H 0.65541 0.94512 0.40649 0.0
H1632 H 0.66661 0.9809 0.48707 0.0
H1633 H 0.66296 0.97551 0.44206 0.0
H1634 H 0.75034 0.92684 0.49563 0.0
H1635 H 0.74273 0.91696 0.45193 0.0
H1636 H 0.72696 0.92273 0.54026 0.0
H1637 H 0.71198 0.93991 0.5602 0.0
C1638 C 0.14534 0.87987 0.46218 0.0
C1639 C 0.13989 0.86829 0.42832 0.0
C1640 C 0.0973 0.82758 0.45055 0.0
C1641 C 0.10313 0.83878 0.48473 0.0
N1642 N 0.12958 0.87743 0.52229 0.0
N1643 N 0.10801 0.83486 0.38792 0.0
C1644 C 0.12604 0.86567 0.49018 0.0
C1645 C 0.11486 0.84335 0.42177 0.0
N1646 N 0.16972 0.90391 0.46774 0.0
N1647 N 0.07541 0.80157 0.44587 0.0
H1648 H 0.12036 0.84639 0.36656 0.0
H1649 H 0.08916 0.81794 0.38057 0.0
H1650 H 0.06139 0.79001 0.46597 0.0
H1651 H 0.07183 0.79083 0.42271 0.0
H1652 H 0.17708 0.91195 0.49247 0.0
H1653 H 0.18331 0.9155 0.44726 0.0
H1654 H 0.14394 0.89793 0.52705 0.0
H1655 H 0.117 0.86715 0.54406 0.0
C1656 C 0.24337 0.34813 0.45726 0.0
C1657 C 0.21694 0.34664 0.45853 0.0
C1658 C 0.22336 0.35722 0.52102 0.0
C1659 C 0.24881 0.35643 0.52047 0.0
N1660 N 0.2791 0.34399 0.48988 0.0
N1661 N 0.17924 0.34469 0.49185 0.0
C1662 C 0.25771 0.34978 0.48911 0.0
C1663 C 0.20611 0.34949 0.49063 0.0
N1664 N 0.25542 0.34937 0.42554 0.0
N1665 N 0.21641 0.36686 0.54966 0.0
H1666 H 0.16634 0.33908 0.46968 0.0
H1667 H 0.16903 0.34382 0.51517 0.0
H1668 H 0.22892 0.37382 0.572 0.0
H1669 H 0.19957 0.37045 0.54999 0.0
H1670 H 0.27601 0.35348 0.42303 0.0
H1671 H 0.24584 0.34892 0.40156 0.0
H1672 H 0.2845 0.33648 0.46831 0.0
H1673 H 0.28947 0.34382 0.51293 0.0
C1674 C 0.23223 0.38296 0.71805 0.0
C1675 C 0.22611 0.35718 0.73297 0.0
C1676 C 0.25316 0.35149 0.6869 0.0
C1677 C 0.2617 0.37862 0.67383 0.0
N1678 N 0.2642 0.42235 0.68232 0.0
N1679 N 0.23564 0.31982 0.73695 0.0
C1680 C 0.25259 0.39502 0.6909 0.0
C1681 C 0.23811 0.34235 0.719 0.0
N1682 N 0.2179 0.39547 0.7291 0.0
N1683 N 0.25783 0.33377 0.66794 0.0
H1684 H 0.22491 0.31284 0.76082 0.0
H1685 H 0.24652 0.30983 0.72998 0.0
H1686 H 0.26746 0.33866 0.6434 0.0
H1687 H 0.24946 0.31305 0.67488 0.0
H1688 H 0.2194 0.41296 0.71674 0.0
H1689 H 0.20254 0.38686 0.74859 0.0
H1690 H 0.26017 0.43575 0.69629 0.0
H1691 H 0.28012 0.43228 0.66366 0.0
C1692 C 0.67813 0.91848 0.73691 0.0
C1693 C 0.68928 0.93445 0.76746 0.0
C1694 C 0.69505 0.97532 0.73451 0.0
C1695 C 0.68279 0.95922 0.70423 0.0
N1696 N 0.65788 0.91445 0.6786 0.0
N1697 N 0.7023 0.97621 0.7977 0.0
C1698 C 0.67289 0.93045 0.70604 0.0
C1699 C 0.69569 0.96227 0.76693 0.0
N1700 N 0.67364 0.89223 0.73692 0.0
N1701 N 0.70776 1.00336 0.73184 0.0
H1702 H 0.70269 0.96707 0.82179 0.0
H1703 H 0.70458 0.99569 0.79994 0.0
H1704 H 0.70877 0.01394 0.70843 0.0
H1705 H 0.71974 0.01634 0.75188 0.0
H1706 H 0.66887 0.88057 0.71438 0.0
H1707 H 0.67622 0.88259 0.75937 0.0
H1708 H 0.64765 0.89306 0.67958 0.0
H1709 H 0.65371 0.92249 0.65574 0.0
C1710 C 0.1152 0.83742 0.72985 0.0
C1711 C 0.14347 0.85765 0.72345 0.0
C1712 C 0.14228 0.83751 0.66653 0.0
C1713 C 0.11337 0.81826 0.67185 0.0
N1714 N 0.07114 0.80202 0.70624 0.0
N1715 N 0.18352 0.87936 0.68538 0.0
C1716 C 0.09951 0.81866 0.70301 0.0
C1717 C 0.15684 0.85842 0.69156 0.0
N1718 N 0.10354 0.83607 0.76193 0.0
N1719 N 0.15607 0.83496 0.63842 0.0
H1720 H 0.19484 0.89429 0.70393 0.0
H1721 H 0.19375 0.88306 0.66129 0.0
H1722 H 0.14626 0.81956 0.61999 0.0
H1723 H 0.17765 0.8466 0.63476 0.0
H1724 H 0.08423 0.81988 0.77019 0.0
H1725 H 0.11403 0.85046 0.78135 0.0
H1726 H 0.0593 0.80346 0.72639 0.0
H1727 H 0.05885 0.78796 0.68731 0.0
C1728 C 0.37035 0.19192 0.58496 0.0
C1729 C 0.37832 0.18579 0.61822 0.0
C1730 C 0.39374 0.15676 0.58934 0.0
C1731 C 0.3863 0.16332 0.55597 0.0
N1732 N 0.37259 0.19122 0.52116 0.0
N1733 N 0.40279 0.16724 0.65146 0.0
C1734 C 0.37603 0.18209 0.55355 0.0
C1735 C 0.3918 0.16983 0.62014 0.0
N1736 N 0.3568 0.20679 0.58357 0.0
N1737 N 0.40132 0.13696 0.59182 0.0
H1738 H 0.40199 0.17692 0.6741 0.0
H1739 H 0.41502 0.15791 0.65429 0.0
H1740 H 0.40242 0.12661 0.57004 0.0
H1741 H 0.40415 0.12903 0.6156 0.0
H1742 H 0.34706 0.20904 0.56109 0.0
H1743 H 0.35435 0.21609 0.60564 0.0
H1744 H 0.36808 0.20706 0.51742 0.0
H1745 H 0.37632 0.18435 0.49767 0.0
C1746 C 0.90331 0.27496 0.51376 0.0
C1747 C 0.89651 0.28483 0.54379 0.0
C1748 C 0.93559 0.33121 0.53104 0.0
C1749 C 0.94132 0.32182 0.49944 0.0
N1750 N 0.926 0.28594 0.45671 0.0
N1751 N 0.90165 0.32288 0.57682 0.0
C1752 C 0.92393 0.29396 0.48967 0.0
C1753 C 0.9113 0.31317 0.5511 0.0
N1754 N 0.89029 0.24731 0.50863 0.0
N1755 N 0.95402 0.35681 0.54291 0.0
H1756 H 0.8838 0.30999 0.59166 0.0
H1757 H 0.90975 0.34374 0.5812 0.0
H1758 H 0.97256 0.37033 0.52976 0.0
H1759 H 0.9523 0.36363 0.5675 0.0
H1760 H 0.89641 0.23848 0.48936 0.0
H1761 H 0.87465 0.23307 0.52546 0.0
H1762 H 0.91204 0.26665 0.447 0.0
H1763 H 0.93984 0.29941 0.43764 0.0
C1764 C 0.82349 0.70636 0.53191 0.0
C1765 C 0.80765 0.68259 0.55326 0.0
C1766 C 0.76406 0.67938 0.53155 0.0
C1767 C 0.77997 0.70485 0.51295 0.0
N1768 N 0.82488 0.74497 0.50007 0.0
N1769 N 0.76359 0.64827 0.57754 0.0
C1770 C 0.80976 0.71892 0.51412 0.0
C1771 C 0.7781 0.6696 0.55422 0.0
N1772 N 0.85178 0.71701 0.52906 0.0
N1773 N 0.73579 0.66393 0.52636 0.0
H1774 H 0.7734 0.64009 0.59341 0.0
H1775 H 0.7423 0.63994 0.58274 0.0
H1776 H 0.72476 0.6699 0.5092 0.0
H1777 H 0.72361 0.64404 0.53659 0.0
H1778 H 0.8643 0.7326 0.51112 0.0
H1779 H 0.86244 0.70865 0.54273 0.0
H1780 H 0.84644 0.75731 0.50317 0.0
H1781 H 0.81566 0.75544 0.48811 0.0
C1782 C 0.83379 0.72073 0.31505 0.0
C1783 C 0.85269 0.74519 0.29659 0.0
C1784 C 0.83518 0.77088 0.32856 0.0
C1785 C 0.81784 0.74678 0.34896 0.0
N1786 N 0.80446 0.70012 0.36645 0.0
N1787 N 0.87422 0.79395 0.28761 0.0
C1788 C 0.81817 0.72203 0.34357 0.0
C1789 C 0.85426 0.77046 0.30403 0.0
N1790 N 0.83004 0.69611 0.3043 0.0
N1791 N 0.83249 0.7937 0.33163 0.0
H1792 H 0.88809 0.79383 0.26918 0.0
H1793 H 0.87842 0.81358 0.29401 0.0
H1794 H 0.81814 0.79437 0.3487 0.0
H1795 H 0.84267 0.81112 0.31534 0.0
H1796 H 0.81438 0.67717 0.31407 0.0
H1797 H 0.84118 0.69468 0.28331 0.0
H1798 H 0.80652 0.68265 0.36596 0.0
H1799 H 0.79293 0.70028 0.38794 0.0
C1800 C 0.36421 0.19231 0.32806 0.0
C1801 C 0.36226 0.18098 0.29438 0.0
C1802 C 0.36807 0.14409 0.32272 0.0
C1803 C 0.37397 0.15752 0.35546 0.0
N1804 N 0.38114 0.19678 0.38821 0.0
N1805 N 0.36881 0.1491 0.25941 0.0
C1806 C 0.3728 0.18221 0.35793 0.0
C1807 C 0.36579 0.15759 0.29164 0.0
N1808 N 0.35712 0.21227 0.33174 0.0
N1809 N 0.36374 0.11793 0.32132 0.0
H1810 H 0.36881 0.15895 0.23584 0.0
H1811 H 0.37445 0.13407 0.25625 0.0
H1812 H 0.36433 0.10694 0.34355 0.0
H1813 H 0.35651 0.1061 0.29886 0.0
H1814 H 0.35536 0.21942 0.35607 0.0
H1815 H 0.35037 0.21982 0.3107 0.0
H1816 H 0.38373 0.21639 0.39031 0.0
H1817 H 0.38782 0.19033 0.41041 0.0
C1818 C 0.88954 0.3248 0.32208 0.0
C1819 C 0.89746 0.33901 0.28919 0.0
C1820 C 0.93822 0.37754 0.31677 0.0
C1821 C 0.93158 0.36224 0.34907 0.0
N1822 N 0.90392 0.31913 0.38073 0.0
N1823 N 0.93081 0.37701 0.25353 0.0
C1824 C 0.90798 0.33527 0.3513 0.0
C1825 C 0.92222 0.36492 0.28608 0.0
N1826 N 0.86396 0.30158 0.32545 0.0
N1827 N 0.95911 0.40441 0.31571 0.0
H1828 H 0.91918 0.3684 0.23084 0.0
H1829 H 0.95022 0.39438 0.24865 0.0
H1830 H 0.97119 0.41433 0.33762 0.0
H1831 H 0.96307 0.41751 0.29395 0.0
H1832 H 0.85558 0.29167 0.34949 0.0
H1833 H 0.84995 0.29366 0.30449 0.0
H1834 H 0.88882 0.29838 0.38245 0.0
H1835 H 0.91735 0.32567 0.40235 0.0
C1836 C 0.3693 0.28811 0.79233 0.0
C1837 C 0.37465 0.26594 0.7968 0.0
C1838 C 0.39139 0.28116 0.85709 0.0
C1839 C 0.38264 0.30113 0.85399 0.0
N1840 N 0.3587 0.32027 0.82008 0.0
N1841 N 0.38873 0.23975 0.83433 0.0
C1842 C 0.37058 0.30386 0.82186 0.0
C1843 C 0.38534 0.26214 0.82939 0.0
N1844 N 0.36326 0.2943 0.75952 0.0
N1845 N 0.4062 0.28088 0.88606 0.0
H1846 H 0.38549 0.2261 0.81429 0.0
H1847 H 0.39316 0.23382 0.85865 0.0
H1848 H 0.411 0.29443 0.90667 0.0
H1849 H 0.41568 0.26882 0.88839 0.0
H1850 H 0.36186 0.31182 0.75365 0.0
H1851 H 0.36251 0.28334 0.73738 0.0
H1852 H 0.34693 0.32077 0.7987 0.0
H1853 H 0.35807 0.33133 0.84134 0.0
C1854 C 0.76118 0.16961 0.77537 0.0
C1855 C 0.78785 0.19324 0.77053 0.0
C1856 C 0.79601 0.19492 0.8342 0.0
C1857 C 0.76824 0.17273 0.83945 0.0
N1858 N 0.72277 0.14169 0.81534 0.0
N1859 N 0.82892 0.2312 0.79482 0.0
C1860 C 0.75036 0.16074 0.81007 0.0
C1861 C 0.80476 0.20672 0.79987 0.0
N1862 N 0.74661 0.15527 0.74666 0.0
N1863 N 0.81452 0.20381 0.86164 0.0
H1864 H 0.83577 0.24026 0.76992 0.0
H1865 H 0.84081 0.24362 0.81534 0.0
H1866 H 0.80932 0.19519 0.88698 0.0
H1867 H 0.83578 0.21794 0.85863 0.0
H1868 H 0.72834 0.13623 0.74833 0.0
H1869 H 0.75411 0.16146 0.72103 0.0
H1870 H 0.70805 0.1342 0.79517 0.0
H1871 H 0.71398 0.13513 0.84033 0.0
C1872 C 0.88762 0.64669 0.801 0.0
C1873 C 0.90122 0.64892 0.76876 0.0
C1874 C 0.9438 0.65743 0.80017 0.0
C1875 C 0.93133 0.65855 0.83213 0.0
N1876 N 0.89235 0.65681 0.86312 0.0
N1877 N 0.94209 0.65779 0.73624 0.0
C1878 C 0.90332 0.65348 0.83274 0.0
C1879 C 0.92923 0.65443 0.76798 0.0
N1880 N 0.85964 0.63821 0.80092 0.0
N1881 N 0.96926 0.65865 0.80079 0.0
H1882 H 0.93148 0.65486 0.7124 0.0
H1883 H 0.96343 0.6649 0.73339 0.0
H1884 H 0.98041 0.66074 0.82399 0.0
H1885 H 0.97833 0.65538 0.7789 0.0
H1886 H 0.84759 0.63352 0.82366 0.0
H1887 H 0.84795 0.63369 0.77777 0.0
H1888 H 0.87323 0.65638 0.86439 0.0
H1889 H 0.90324 0.66209 0.88688 0.0
C1890 C 0.91994 0.70446 0.04451 0.0
C1891 C 0.92872 0.73132 0.05669 0.0
C1892 C 0.96657 0.75105 0.01284 0.0
C1893 C 0.95886 0.72414 1.0021 0.0
N1894 N 0.92518 0.6756 1.00225 0.0
N1895 N 0.95431 0.77998 0.04626 0.0
C1896 C 0.93444 0.70099 0.01604 0.0
C1897 C 0.95017 0.75455 0.03867 0.0
N1898 N 0.89868 0.68211 0.06122 0.0
N1899 N 0.98985 0.7732 0.99874 0.0
H1900 H 0.94182 0.78263 0.06447 0.0
H1901 H 0.96802 0.79795 0.0325 0.0
H1902 H 1.00124 0.77157 0.97814 0.0
H1903 H 0.99863 0.79301 1.00829 0.0
H1904 H 0.89452 0.66204 0.05821 0.0
H1905 H 0.88512 0.68353 0.0786 0.0
H1906 H 0.90569 0.65858 1.00791 0.0
H1907 H 0.9362 0.67164 0.98333 0.0
C1908 C 0.3613 0.28878 0.11407 0.0
C1909 C 0.36006 0.26291 0.11733 0.0
C1910 C 0.35023 0.25586 0.0539 0.0
C1911 C 0.35161 0.28188 0.05049 0.0
N1912 N 0.35208 0.32014 0.07853 0.0
N1913 N 0.3473 0.21925 0.09275 0.0
C1914 C 0.35521 0.29745 0.08101 0.0
C1915 C 0.35234 0.24556 0.08796 0.0
N1916 N 0.36919 0.30545 0.14247 0.0
N1917 N 0.3487 0.24177 0.02437 0.0
H1918 H 0.34886 0.21142 0.11738 0.0
H1919 H 0.33916 0.20451 0.07337 0.0
H1920 H 0.34767 0.24875 0.999 0.0
H1921 H 0.35069 0.22426 0.02461 0.0
H1922 H 0.37399 0.3259 0.14115 0.0
H1923 H 0.37198 0.29895 0.1674 0.0
H1924 H 0.35171 0.33094 0.10018 0.0
H1925 H 0.34744 0.32692 0.05492 0.0
C1926 C 0.76611 0.19606 0.07512 0.0
C1927 C 0.79539 0.21415 0.07558 0.0
C1928 C 0.80153 0.18799 0.02903 0.0
C1929 C 0.77193 0.17106 0.02665 0.0
N1930 N 0.72587 0.16272 0.04268 0.0
N1931 N 0.84076 0.23053 0.04987 0.0
C1932 C 0.75414 0.17611 0.04844 0.0
C1933 C 0.81304 0.21104 0.05153 0.0
N1934 N 0.74986 0.19744 0.10101 0.0
N1935 N 0.81868 0.1813 1.0112 0.0
H1936 H 0.8496 0.24751 0.06612 0.0
H1937 H 0.85438 0.23115 0.03058 0.0
H1938 H 0.81113 0.1643 0.99511 0.0
H1939 H 0.84031 0.19115 0.0147 0.0
H1940 H 0.72879 0.18287 0.10464 0.0
H1941 H 0.75809 0.21196 0.12072 0.0
H1942 H 0.71222 0.16759 0.05527 0.0
H1943 H 0.71626 0.14852 0.02288 0.0
loop_
_geom_bond_atom_site_label_1
_geom_bond_atom_site_label_2
_geom_bond_distance
_geom_bond_site_symmetry_2
_ccdc_geom_bond_type
Cu0 N1 1.997 . S
Cu0 O6 1.974 1_554 S
Cu0 N11 1.987 1_554 S
Cu0 O20 1.958 . S
N1 Cu0 1.997 . S
N1 C3 1.263 . S
N1 C5 1.389 . S
N2 C3 1.358 . S
N2 C4 1.400 . S
C3 N1 1.263 . S
C3 N2 1.358 . S
C3 H9 0.930 . S
C4 N2 1.400 . S
C4 C5 1.351 . S
C4 H21 0.930 . S
C5 N1 1.389 . S
C5 C4 1.351 . S
C5 H10 0.930 . S
O6 Cu0 1.974 1_556 S
O6 C16 1.282 . S
C7 O8 1.261 . S
C7 O20 1.251 . S
O8 C7 1.261 . S
H9 C3 0.930 . S
H10 C5 0.930 . S
N11 Cu0 1.987 1_556 S
N11 C13 1.335 . S
N11 C14 1.390 . S
N12 C13 1.345 . S
N12 C15 1.336 . S
C13 N11 1.335 . S
C13 N12 1.345 . S
C13 H18 0.930 . S
C14 N11 1.390 . S
C14 C15 1.346 . S
C14 H19 0.930 . S
C15 N12 1.336 . S
C15 C14 1.346 . S
C15 H22 0.929 . S
C16 O6 1.282 . S
C16 O17 1.216 . S
O17 C16 1.216 . S
H18 C13 0.930 . S
H19 C14 0.930 . S
O20 Cu0 1.958 . S
O20 C7 1.251 . S
H21 C4 0.930 . S
H22 C15 0.929 . S
Cu23 N24 1.999 1_554 S
Cu23 O29 1.974 . S
Cu23 N34 1.985 . S
Cu23 O43 1.959 1_554 S
N24 Cu23 1.999 1_556 S
N24 C26 1.263 . S
N24 C28 1.389 . S
N25 C26 1.358 . S
N25 C27 1.400 . S
C26 N24 1.263 . S
C26 N25 1.358 . S
C26 H32 0.930 . S
C27 N25 1.400 . S
C27 C28 1.351 . S
C27 H44 0.930 . S
C28 N24 1.389 . S
C28 C27 1.351 . S
C28 H33 0.930 . S
O29 Cu23 1.974 . S
O29 C39 1.282 . S
C30 O31 1.261 . S
C30 O43 1.251 . S
O31 C30 1.261 . S
H32 C26 0.930 . S
H33 C28 0.930 . S
N34 Cu23 1.985 . S
N34 C36 1.335 . S
N34 C37 1.390 . S
N35 C36 1.345 . S
N35 C38 1.336 . S
C36 N34 1.335 . S
C36 N35 1.345 . S
C36 H41 0.930 . S
C37 N34 1.390 . S
C37 C38 1.346 . S
C37 H42 0.930 . S
C38 N35 1.336 . S
C38 C37 1.346 . S
C38 H45 0.929 . S
C39 O29 1.282 . S
C39 O40 1.216 . S
O40 C39 1.216 . S
H41 C36 0.930 . S
H42 C37 0.930 . S
O43 Cu23 1.959 1_556 S
O43 C30 1.251 . S
H44 C27 0.930 . S
H45 C38 0.929 . S
Cu46 N47 1.999 1_554 S
Cu46 O52 1.974 . S
Cu46 N57 1.985 1_565 S
Cu46 O66 1.959 1_564 S
N47 Cu46 1.999 1_556 S
N47 C49 1.263 1_565 S
N47 C51 1.389 . S
N48 C49 1.358 1_565 S
N48 C50 1.400 . S
C49 N47 1.263 1_545 S
C49 N48 1.358 1_545 S
C49 H55 0.930 . S
C50 N48 1.400 . S
C50 C51 1.351 . S
C50 H67 0.930 . S
C51 N47 1.389 . S
C51 C50 1.351 . S
C51 H56 0.930 . S
O52 Cu46 1.974 . S
O52 C62 1.282 1_565 S
C53 O54 1.261 . S
C53 O66 1.251 . S
O54 C53 1.261 . S
H55 C49 0.930 . S
H56 C51 0.930 . S
N57 Cu46 1.985 1_545 S
N57 C59 1.335 . S
N57 C60 1.390 . S
N58 C59 1.345 . S
N58 C61 1.336 . S
C59 N57 1.335 . S
C59 N58 1.345 . S
C59 H64 0.930 . S
C60 N57 1.390 . S
C60 C61 1.346 . S
C60 H65 0.930 . S
C61 N58 1.336 . S
C61 C60 1.346 . S
C61 H68 0.929 . S
C62 O52 1.282 1_545 S
C62 O63 1.216 . S
O63 C62 1.216 . S
H64 C59 0.930 . S
H65 C60 0.930 . S
O66 Cu46 1.959 1_546 S
O66 C53 1.251 . S
H67 C50 0.930 . S
H68 C61 0.929 . S
Cu69 N70 1.999 . S
Cu69 O75 1.974 . S
Cu69 N80 1.985 . S
Cu69 O89 1.959 . S
N70 Cu69 1.999 . S
N70 C72 1.263 . S
N70 C74 1.389 . S
N71 C72 1.358 . S
N71 C73 1.400 . S
C72 N70 1.263 . S
C72 N71 1.358 . S
C72 H78 0.930 . S
C73 N71 1.400 . S
C73 C74 1.351 . S
C73 H90 0.930 . S
C74 N70 1.389 . S
C74 C73 1.351 . S
C74 H79 0.930 . S
O75 Cu69 1.974 . S
O75 C85 1.282 . S
C76 O77 1.261 . S
C76 O89 1.251 . S
O77 C76 1.261 . S
H78 C72 0.930 . S
H79 C74 0.930 . S
N80 Cu69 1.985 . S
N80 C82 1.335 . S
N80 C83 1.390 . S
N81 C82 1.345 . S
N81 C84 1.336 . S
C82 N80 1.335 . S
C82 N81 1.345 . S
C82 H87 0.930 . S
C83 N80 1.390 . S
C83 C84 1.346 . S
C83 H88 0.930 . S
C84 N81 1.336 . S
C84 C83 1.346 . S
C84 H91 0.929 . S
C85 O75 1.282 . S
C85 O86 1.216 1_545 S
O86 C85 1.216 1_565 S
H87 C82 0.930 . S
H88 C83 0.930 . S
O89 Cu69 1.959 . S
O89 C76 1.251 . S
H90 C73 0.930 . S
H91 C84 0.929 . S
Cu92 N93 1.999 . S
Cu92 O98 1.974 . S
Cu92 N103 1.985 . S
Cu92 O112 1.959 . S
N93 Cu92 1.999 . S
N93 C95 1.263 . S
N93 C97 1.389 . S
N94 C95 1.358 . S
N94 C96 1.400 . S
C95 N93 1.263 . S
C95 N94 1.358 . S
C95 H101 0.930 . S
C96 N94 1.400 . S
C96 C97 1.351 . S
C96 H113 0.926 1_455 S
C97 N93 1.389 . S
C97 C96 1.351 . S
C97 H102 0.930 1_455 S
O98 Cu92 1.974 . S
O98 C108 1.282 . S
C99 O100 1.261 . S
C99 O112 1.251 . S
O100 C99 1.261 . S
H101 C95 0.930 . S
H102 C97 0.930 1_655 S
N103 Cu92 1.985 . S
N103 C105 1.335 . S
N103 C106 1.390 . S
N104 C105 1.345 . S
N104 C107 1.336 . S
C105 N103 1.335 . S
C105 N104 1.345 . S
C105 H110 0.930 . S
C106 N103 1.390 . S
C106 C107 1.346 . S
C106 H111 0.930 . S
C107 N104 1.336 . S
C107 C106 1.346 . S
C107 H114 0.929 . S
C108 O98 1.282 . S
C108 O109 1.216 . S
O109 C108 1.216 . S
H110 C105 0.930 . S
H111 C106 0.930 . S
O112 Cu92 1.959 . S
O112 C99 1.251 . S
H113 C96 0.926 1_655 S
H114 C107 0.929 . S
Cu115 N116 1.999 . S
Cu115 O121 1.974 . S
Cu115 N126 1.985 . S
Cu115 O135 1.959 . S
N116 Cu115 1.999 . S
N116 C118 1.263 . S
N116 C120 1.389 . S
N117 C118 1.358 . S
N117 C119 1.400 . S
C118 N116 1.263 . S
C118 N117 1.358 . S
C118 H124 0.930 . S
C119 N117 1.400 . S
C119 C120 1.351 . S
C119 H136 0.930 . S
C120 N116 1.389 . S
C120 C119 1.351 . S
C120 H125 0.930 . S
O121 Cu115 1.974 . S
O121 C131 1.282 . S
C122 O123 1.261 . S
C122 O135 1.251 . S
O123 C122 1.261 . S
H124 C118 0.930 . S
H125 C120 0.930 . S
N126 Cu115 1.985 . S
N126 C128 1.335 . S
N126 C129 1.390 . S
N127 C128 1.345 . S
N127 C130 1.336 . S
C128 N126 1.335 . S
C128 N127 1.345 . S
C128 H133 0.930 . S
C129 N126 1.390 . S
C129 C130 1.346 . S
C129 H134 0.930 . S
C130 N127 1.336 . S
C130 C129 1.346 . S
C130 H137 0.929 . S
C131 O121 1.282 . S
C131 O132 1.216 . S
O132 C131 1.216 . S
H133 C128 0.930 . S
H134 C129 0.930 . S
O135 Cu115 1.959 . S
O135 C122 1.251 . S
H136 C119 0.930 . S
H137 C130 0.929 . S
Cu138 N139 1.999 . S
Cu138 O144 1.974 . S
Cu138 N149 1.985 . S
Cu138 O158 1.959 . S
N139 Cu138 1.999 . S
N139 C141 1.263 . S
N139 C143 1.389 . S
N140 C141 1.358 . S
N140 C142 1.400 . S
C141 N139 1.263 . S
C141 N140 1.358 . S
C141 H147 0.930 . S
C142 N140 1.400 . S
C142 C143 1.351 . S
C142 H159 0.930 . S
C143 N139 1.389 . S
C143 C142 1.351 . S
C143 H148 0.930 . S
O144 Cu138 1.974 . S
O144 C154 1.282 . S
C145 O146 1.261 . S
C145 O158 1.251 . S
O146 C145 1.261 . S
H147 C141 0.930 . S
H148 C143 0.930 . S
N149 Cu138 1.985 . S
N149 C151 1.335 . S
N149 C152 1.390 . S
N150 C151 1.345 . S
N150 C153 1.336 . S
C151 N149 1.335 . S
C151 N150 1.345 . S
C151 H156 0.930 . S
C152 N149 1.390 . S
C152 C153 1.346 . S
C152 H157 0.930 . S
C153 N150 1.336 . S
C153 C152 1.346 . S
C153 H160 0.929 . S
C154 O144 1.282 . S
C154 O155 1.216 . S
O155 C154 1.216 . S
H156 C151 0.930 . S
H157 C152 0.930 . S
O158 Cu138 1.959 . S
O158 C145 1.251 . S
H159 C142 0.930 . S
H160 C153 0.929 . S
Cu161 N162 1.999 . S
Cu161 O167 1.974 . S
Cu161 N172 1.985 . S
Cu161 O181 1.959 . S
N162 Cu161 1.999 . S
N162 C164 1.263 . S
N162 C166 1.389 . S
N163 C164 1.358 . S
N163 C165 1.400 . S
C164 N162 1.263 . S
C164 N163 1.358 . S
C164 H170 0.930 . S
C165 N163 1.400 . S
C165 C166 1.351 . S
C165 H182 0.930 . S
C166 N162 1.389 . S
C166 C165 1.351 . S
C166 H171 0.930 . S
O167 Cu161 1.974 . S
O167 C177 1.282 . S
C168 O169 1.261 . S
C168 O181 1.251 . S
O169 C168 1.261 . S
H170 C164 0.930 . S
H171 C166 0.930 . S
N172 Cu161 1.985 . S
N172 C174 1.335 . S
N172 C175 1.390 . S
N173 C174 1.345 . S
N173 C176 1.336 . S
C174 N172 1.335 . S
C174 N173 1.345 . S
C174 H179 0.930 . S
C175 N172 1.390 . S
C175 C176 1.346 . S
C175 H180 0.930 . S
C176 N173 1.336 . S
C176 C175 1.346 . S
C176 H183 0.929 . S
C177 O167 1.282 . S
C177 O178 1.216 . S
O178 C177 1.216 . S
H179 C174 0.930 . S
H180 C175 0.930 . S
O181 Cu161 1.959 . S
O181 C168 1.251 . S
H182 C165 0.930 . S
H183 C176 0.929 . S
Cu184 N185 1.999 . S
Cu184 O190 1.974 . S
Cu184 N195 1.985 . S
Cu184 O204 1.959 . S
N185 Cu184 1.999 . S
N185 C187 1.263 . S
N185 C189 1.389 . S
N186 C187 1.358 . S
N186 C188 1.400 . S
C187 N185 1.263 . S
C187 N186 1.358 . S
C187 H193 0.930 . S
C188 N186 1.400 . S
C188 C189 1.351 . S
C188 H205 0.930 . S
C189 N185 1.389 . S
C189 C188 1.351 . S
C189 H194 0.930 . S
O190 Cu184 1.974 . S
O190 C200 1.282 . S
C191 O192 1.261 . S
C191 O204 1.251 . S
O192 C191 1.261 . S
H193 C187 0.930 . S
H194 C189 0.930 . S
N195 Cu184 1.985 . S
N195 C197 1.335 . S
N195 C198 1.390 . S
N196 C197 1.345 . S
N196 C199 1.336 . S
C197 N195 1.335 . S
C197 N196 1.345 . S
C197 H202 0.930 . S
C198 N195 1.390 . S
C198 C199 1.346 . S
C198 H203 0.930 . S
C199 N196 1.336 . S
C199 C198 1.346 . S
C199 H206 0.929 . S
C200 O190 1.282 . S
C200 O201 1.216 . S
O201 C200 1.216 . S
H202 C197 0.930 . S
H203 C198 0.930 . S
O204 Cu184 1.959 . S
O204 C191 1.251 . S
H205 C188 0.930 . S
H206 C199 0.929 . S
Cu207 N208 1.999 . S
Cu207 O213 1.974 . S
Cu207 N218 1.985 . S
Cu207 O227 1.959 . S
N208 Cu207 1.999 . S
N208 C210 1.263 . S
N208 C212 1.389 . S
N209 C210 1.358 . S
N209 C211 1.400 . S
C210 N208 1.263 . S
C210 N209 1.358 . S
C210 H216 0.930 . S
C211 N209 1.400 . S
C211 C212 1.351 . S
C211 H228 0.930 . S
C212 N208 1.389 . S
C212 C211 1.351 . S
C212 H217 0.930 . S
O213 Cu207 1.974 . S
O213 C223 1.282 . S
C214 O215 1.261 . S
C214 O227 1.251 . S
O215 C214 1.261 . S
H216 C210 0.930 . S
H217 C212 0.930 . S
N218 Cu207 1.985 . S
N218 C220 1.335 . S
N218 C221 1.390 . S
N219 C220 1.345 . S
N219 C222 1.336 . S
C220 N218 1.335 . S
C220 N219 1.345 . S
C220 H225 0.930 . S
C221 N218 1.390 . S
C221 C222 1.346 . S
C221 H226 0.930 . S
C222 N219 1.336 . S
C222 C221 1.346 . S
C222 H229 0.929 . S
C223 O213 1.282 . S
C223 O224 1.216 . S
O224 C223 1.216 . S
H225 C220 0.930 . S
H226 C221 0.930 . S
O227 Cu207 1.959 . S
O227 C214 1.251 . S
H228 C211 0.930 . S
H229 C222 0.929 . S
Cu230 N231 1.999 . S
Cu230 O236 1.974 . S
Cu230 N241 1.985 . S
Cu230 O250 1.959 . S
N231 Cu230 1.999 . S
N231 C233 1.263 . S
N231 C235 1.389 . S
N232 C233 1.358 . S
N232 C234 1.400 . S
C233 N231 1.263 . S
C233 N232 1.358 . S
C233 H239 0.930 . S
C234 N232 1.400 . S
C234 C235 1.351 . S
C234 H251 0.930 . S
C235 N231 1.389 . S
C235 C234 1.351 . S
C235 H240 0.930 . S
O236 Cu230 1.974 . S
O236 C246 1.282 . S
C237 O238 1.261 . S
C237 O250 1.251 . S
O238 C237 1.261 . S
H239 C233 0.930 . S
H240 C235 0.930 . S
N241 Cu230 1.985 . S
N241 C243 1.335 . S
N241 C244 1.390 . S
N242 C243 1.345 . S
N242 C245 1.336 . S
C243 N241 1.335 . S
C243 N242 1.345 . S
C243 H248 0.930 . S
C244 N241 1.390 . S
C244 C245 1.346 . S
C244 H249 0.930 . S
C245 N242 1.336 . S
C245 C244 1.346 . S
C245 H252 0.929 . S
C246 O236 1.282 . S
C246 O247 1.216 . S
O247 C246 1.216 . S
H248 C243 0.930 . S
H249 C244 0.930 . S
O250 Cu230 1.959 . S
O250 C237 1.251 . S
H251 C234 0.930 . S
H252 C245 0.929 . S
Cu253 N254 1.999 . S
Cu253 O259 1.974 . S
Cu253 N264 1.985 . S
Cu253 O273 1.959 . S
N254 Cu253 1.999 . S
N254 C256 1.263 . S
N254 C258 1.389 . S
N255 C256 1.358 . S
N255 C257 1.400 . S
C256 N254 1.263 . S
C256 N255 1.358 . S
C256 H262 0.930 . S
C257 N255 1.400 . S
C257 C258 1.351 . S
C257 H274 0.930 . S
C258 N254 1.389 . S
C258 C257 1.351 . S
C258 H263 0.930 . S
O259 Cu253 1.974 . S
O259 C269 1.282 . S
C260 O261 1.261 . S
C260 O273 1.251 . S
O261 C260 1.261 . S
H262 C256 0.930 . S
H263 C258 0.930 . S
N264 Cu253 1.985 . S
N264 C266 1.335 . S
N264 C267 1.390 . S
N265 C266 1.345 . S
N265 C268 1.336 . S
C266 N264 1.335 . S
C266 N265 1.345 . S
C266 H271 0.930 . S
C267 N264 1.390 . S
C267 C268 1.346 . S
C267 H272 0.930 . S
C268 N265 1.336 . S
C268 C267 1.346 . S
C268 H275 0.929 . S
C269 O259 1.282 . S
C269 O270 1.216 . S
O270 C269 1.216 . S
H271 C266 0.930 . S
H272 C267 0.930 . S
O273 Cu253 1.959 . S
O273 C260 1.251 . S
H274 C257 0.930 . S
H275 C268 0.929 . S
Cu276 N277 1.999 . S
Cu276 O282 1.974 . S
Cu276 N287 1.985 . S
Cu276 O296 1.959 . S
N277 Cu276 1.999 . S
N277 C279 1.263 . S
N277 C281 1.389 . S
N278 C279 1.358 . S
N278 C280 1.400 . S
C279 N277 1.263 . S
C279 N278 1.358 . S
C279 H285 0.930 . S
C280 N278 1.400 . S
C280 C281 1.351 . S
C280 H297 0.930 . S
C281 N277 1.389 . S
C281 C280 1.351 . S
C281 H286 0.930 . S
O282 Cu276 1.974 . S
O282 C292 1.282 . S
C283 O284 1.261 . S
C283 O296 1.251 . S
O284 C283 1.261 . S
H285 C279 0.930 . S
H286 C281 0.930 . S
N287 Cu276 1.985 . S
N287 C289 1.335 . S
N287 C290 1.390 . S
N288 C289 1.345 . S
N288 C291 1.336 . S
C289 N287 1.335 . S
C289 N288 1.345 . S
C289 H294 0.930 . S
C290 N287 1.390 . S
C290 C291 1.346 . S
C290 H295 0.930 . S
C291 N288 1.336 . S
C291 C290 1.346 . S
C291 H298 0.929 . S
C292 O282 1.282 . S
C292 O293 1.216 . S
O293 C292 1.216 . S
H294 C289 0.930 . S
H295 C290 0.930 . S
O296 Cu276 1.959 . S
O296 C283 1.251 . S
H297 C280 0.930 . S
H298 C291 0.929 . S
Cu299 N300 1.999 . S
Cu299 O305 1.974 . S
Cu299 N310 1.985 . S
Cu299 O319 1.959 . S
N300 Cu299 1.999 . S
N300 C302 1.263 . S
N300 C304 1.389 . S
N301 C302 1.358 . S
N301 C303 1.400 . S
C302 N300 1.263 . S
C302 N301 1.358 . S
C302 H308 0.930 . S
C303 N301 1.400 . S
C303 C304 1.351 . S
C303 H320 0.930 . S
C304 N300 1.389 . S
C304 C303 1.351 . S
C304 H309 0.930 . S
O305 Cu299 1.974 . S
O305 C315 1.282 . S
C306 O307 1.261 . S
C306 O319 1.251 . S
O307 C306 1.261 . S
H308 C302 0.930 . S
H309 C304 0.930 . S
N310 Cu299 1.985 . S
N310 C312 1.335 . S
N310 C313 1.390 . S
N311 C312 1.345 . S
N311 C314 1.336 . S
C312 N310 1.335 . S
C312 N311 1.345 . S
C312 H317 0.930 . S
C313 N310 1.390 . S
C313 C314 1.346 . S
C313 H318 0.930 . S
C314 N311 1.336 . S
C314 C313 1.346 . S
C314 H321 0.929 . S
C315 O305 1.282 . S
C315 O316 1.216 . S
O316 C315 1.216 . S
H317 C312 0.930 . S
H318 C313 0.930 . S
O319 Cu299 1.959 . S
O319 C306 1.251 . S
H320 C303 0.930 . S
H321 C314 0.929 . S
Cu322 N323 1.999 . S
Cu322 O328 1.974 . S
Cu322 N333 1.985 . S
Cu322 O342 1.959 . S
N323 Cu322 1.999 . S
N323 C325 1.263 . S
N323 C327 1.389 . S
N324 C325 1.358 . S
N324 C326 1.400 . S
C325 N323 1.263 . S
C325 N324 1.358 . S
C325 H331 0.930 . S
C326 N324 1.400 . S
C326 C327 1.351 . S
C326 H343 0.930 . S
C327 N323 1.389 . S
C327 C326 1.351 . S
C327 H332 0.930 . S
O328 Cu322 1.974 . S
O328 C338 1.282 . S
C329 O330 1.261 . S
C329 O342 1.251 . S
O330 C329 1.261 . S
H331 C325 0.930 . S
H332 C327 0.930 . S
N333 Cu322 1.985 . S
N333 C335 1.335 . S
N333 C336 1.390 . S
N334 C335 1.345 . S
N334 C337 1.336 . S
C335 N333 1.335 . S
C335 N334 1.345 . S
C335 H340 0.930 . S
C336 N333 1.390 . S
C336 C337 1.346 . S
C336 H341 0.930 . S
C337 N334 1.336 . S
C337 C336 1.346 . S
C337 H344 0.929 . S
C338 O328 1.282 . S
C338 O339 1.216 . S
O339 C338 1.216 . S
H340 C335 0.930 . S
H341 C336 0.930 . S
O342 Cu322 1.959 . S
O342 C329 1.251 . S
H343 C326 0.930 . S
H344 C337 0.929 . S
Cu345 N346 1.999 . S
Cu345 O351 1.974 . S
Cu345 N356 1.985 . S
Cu345 O365 1.959 . S
N346 Cu345 1.999 . S
N346 C348 1.263 . S
N346 C350 1.389 . S
N347 C348 1.358 . S
N347 C349 1.400 . S
C348 N346 1.263 . S
C348 N347 1.358 . S
C348 H354 0.930 . S
C349 N347 1.400 . S
C349 C350 1.351 . S
C349 H366 0.930 . S
C350 N346 1.389 . S
C350 C349 1.351 . S
C350 H355 0.930 . S
O351 Cu345 1.974 . S
O351 C361 1.282 . S
C352 O353 1.261 . S
C352 O365 1.251 . S
O353 C352 1.261 . S
H354 C348 0.930 . S
H355 C350 0.930 . S
N356 Cu345 1.985 . S
N356 C358 1.335 . S
N356 C359 1.390 . S
N357 C358 1.345 . S
N357 C360 1.336 . S
C358 N356 1.335 . S
C358 N357 1.345 . S
C358 H363 0.930 . S
C359 N356 1.390 . S
C359 C360 1.346 . S
C359 H364 0.930 . S
C360 N357 1.336 . S
C360 C359 1.346 . S
C360 H367 0.929 . S
C361 O351 1.282 . S
C361 O362 1.216 . S
O362 C361 1.216 . S
H363 C358 0.930 . S
H364 C359 0.930 . S
O365 Cu345 1.959 . S
O365 C352 1.251 . S
H366 C349 0.930 . S
H367 C360 0.929 . S
Cu368 N369 1.999 . S
Cu368 O374 1.974 . S
Cu368 N379 1.985 . S
Cu368 O388 1.959 . S
N369 Cu368 1.999 . S
N369 C371 1.263 . S
N369 C373 1.389 . S
N370 C371 1.358 . S
N370 C372 1.400 . S
C371 N369 1.263 . S
C371 N370 1.358 . S
C371 H377 0.930 . S
C372 N370 1.400 . S
C372 C373 1.351 . S
C372 H389 0.930 . S
C373 N369 1.389 . S
C373 C372 1.351 . S
C373 H378 0.930 . S
O374 Cu368 1.974 . S
O374 C384 1.282 . S
C375 O376 1.261 . S
C375 O388 1.251 . S
O376 C375 1.261 . S
H377 C371 0.930 . S
H378 C373 0.930 . S
N379 Cu368 1.985 . S
N379 C381 1.335 . S
N379 C382 1.390 . S
N380 C381 1.345 . S
N380 C383 1.336 . S
C381 N379 1.335 . S
C381 N380 1.345 . S
C381 H386 0.930 . S
C382 N379 1.390 . S
C382 C383 1.346 . S
C382 H387 0.930 . S
C383 N380 1.336 . S
C383 C382 1.346 . S
C383 H390 0.929 . S
C384 O374 1.282 . S
C384 O385 1.216 . S
O385 C384 1.216 . S
H386 C381 0.930 . S
H387 C382 0.930 . S
O388 Cu368 1.959 . S
O388 C375 1.251 . S
H389 C372 0.930 . S
H390 C383 0.929 . S
Cu391 N392 1.999 . S
Cu391 O397 1.974 . S
Cu391 N402 1.985 . S
Cu391 O411 1.959 . S
N392 Cu391 1.999 . S
N392 C394 1.263 . S
N392 C396 1.389 . S
N393 C394 1.358 . S
N393 C395 1.400 . S
C394 N392 1.263 . S
C394 N393 1.358 . S
C394 H400 0.930 . S
C395 N393 1.400 . S
C395 C396 1.351 . S
C395 H412 0.930 . S
C396 N392 1.389 . S
C396 C395 1.351 . S
C396 H401 0.930 . S
O397 Cu391 1.974 . S
O397 C407 1.282 . S
C398 O399 1.261 . S
C398 O411 1.251 . S
O399 C398 1.261 . S
H400 C394 0.930 . S
H401 C396 0.930 . S
N402 Cu391 1.985 . S
N402 C404 1.335 . S
N402 C405 1.390 . S
N403 C404 1.345 . S
N403 C406 1.336 . S
C404 N402 1.335 . S
C404 N403 1.345 . S
C404 H409 0.930 . S
C405 N402 1.390 . S
C405 C406 1.346 . S
C405 H410 0.930 . S
C406 N403 1.336 . S
C406 C405 1.346 . S
C406 H413 0.929 . S
C407 O397 1.282 . S
C407 O408 1.216 . S
O408 C407 1.216 . S
H409 C404 0.930 . S
H410 C405 0.930 . S
O411 Cu391 1.959 . S
O411 C398 1.251 . S
H412 C395 0.930 . S
H413 C406 0.929 . S
C414 O415 1.160 1_455 S
C414 O421 1.185 . S
O415 C414 1.160 1_655 S
O416 Zn417 1.899 1_655 S
O416 C424 1.284 . S
Zn417 O416 1.899 1_455 S
Zn417 O418 2.032 . S
Zn417 O421 2.086 . S
Zn417 O426 1.977 . S
O418 Zn417 2.032 . S
O418 C422 1.278 . S
C419 O420 1.203 . S
C419 O426 1.267 . S
O420 C419 1.203 . S
O421 C414 1.185 . S
O421 Zn417 2.086 . S
C422 O418 1.278 . S
C422 O423 1.211 . S
O423 C422 1.211 . S
C424 O416 1.284 . S
C424 O425 1.273 . S
O425 C424 1.273 . S
O426 Zn417 1.977 . S
O426 C419 1.267 . S
C427 O428 1.160 . S
C427 O434 1.185 . S
O428 C427 1.160 . S
O429 Zn430 1.899 . S
O429 C437 1.284 . S
Zn430 O429 1.899 . S
Zn430 O431 2.032 . S
Zn430 O434 2.086 . S
Zn430 O439 1.977 . S
O431 Zn430 2.032 . S
O431 C435 1.278 . S
C432 O433 1.203 . S
C432 O439 1.267 . S
O433 C432 1.203 . S
O434 C427 1.185 . S
O434 Zn430 2.086 . S
C435 O431 1.278 . S
C435 O436 1.211 . S
O436 C435 1.211 . S
C437 O429 1.284 . S
C437 O438 1.273 . S
O438 C437 1.273 . S
O439 Zn430 1.977 . S
O439 C432 1.267 . S
C440 O441 1.160 . S
C440 O447 1.185 . S
O441 C440 1.160 . S
O442 Zn443 1.899 . S
O442 C450 1.284 . S
Zn443 O442 1.899 . S
Zn443 O444 2.032 . S
Zn443 O447 2.086 . S
Zn443 O452 1.977 . S
O444 Zn443 2.032 . S
O444 C448 1.278 . S
C445 O446 1.203 . S
C445 O452 1.267 . S
O446 C445 1.203 . S
O447 C440 1.185 . S
O447 Zn443 2.086 . S
C448 O444 1.278 . S
C448 O449 1.211 . S
O449 C448 1.211 . S
C450 O442 1.284 . S
C450 O451 1.273 . S
O451 C450 1.273 . S
O452 Zn443 1.977 . S
O452 C445 1.267 . S
C453 O454 1.160 . S
C453 O460 1.185 . S
O454 C453 1.160 . S
O455 Zn456 1.899 . S
O455 C463 1.284 . S
Zn456 O455 1.899 . S
Zn456 O457 2.032 . S
Zn456 O460 2.086 . S
Zn456 O465 1.977 1_455 S
O457 Zn456 2.032 . S
O457 C461 1.278 . S
C458 O459 1.203 . S
C458 O465 1.267 . S
O459 C458 1.203 . S
O460 C453 1.185 . S
O460 Zn456 2.086 . S
C461 O457 1.278 . S
C461 O462 1.211 . S
O462 C461 1.211 . S
C463 O455 1.284 . S
C463 O464 1.273 . S
O464 C463 1.273 . S
O465 Zn456 1.977 1_655 S
O465 C458 1.267 . S
C466 O467 1.160 . S
C466 O473 1.185 . S
O467 C466 1.160 . S
O468 Zn469 1.899 . S
O468 C476 1.284 . S
Zn469 O468 1.899 . S
Zn469 O470 2.032 . S
Zn469 O473 2.086 . S
Zn469 O478 1.977 . S
O470 Zn469 2.032 . S
O470 C474 1.278 . S
C471 O472 1.203 . S
C471 O478 1.267 . S
O472 C471 1.203 . S
O473 C466 1.185 . S
O473 Zn469 2.086 . S
C474 O470 1.278 . S
C474 O475 1.211 . S
O475 C474 1.211 . S
C476 O468 1.284 . S
C476 O477 1.273 . S
O477 C476 1.273 . S
O478 Zn469 1.977 . S
O478 C471 1.267 . S
C479 O480 1.160 . S
C479 O486 1.185 . S
O480 C479 1.160 . S
O481 Zn482 1.899 . S
O481 C489 1.284 . S
Zn482 O481 1.899 . S
Zn482 O483 2.032 . S
Zn482 O486 2.086 . S
Zn482 O491 1.977 1_545 S
O483 Zn482 2.032 . S
O483 C487 1.278 . S
C484 O485 1.203 . S
C484 O491 1.267 . S
O485 C484 1.203 . S
O486 C479 1.185 . S
O486 Zn482 2.086 . S
C487 O483 1.278 . S
C487 O488 1.211 . S
O488 C487 1.211 . S
C489 O481 1.284 . S
C489 O490 1.273 . S
O490 C489 1.273 . S
O491 Zn482 1.977 1_565 S
O491 C484 1.267 . S
C492 O493 1.160 . S
C492 O499 1.185 . S
O493 C492 1.160 . S
O494 Zn495 1.899 . S
O494 C502 1.288 1_545 S
Zn495 O494 1.899 . S
Zn495 O496 2.032 1_545 S
Zn495 O499 2.086 1_545 S
Zn495 O504 1.977 . S
O496 Zn495 2.032 1_565 S
O496 C500 1.278 . S
C497 O498 1.203 . S
C497 O504 1.267 . S
O498 C497 1.203 . S
O499 C492 1.185 . S
O499 Zn495 2.086 1_565 S
C500 O496 1.278 . S
C500 O501 1.211 . S
O501 C500 1.211 . S
C502 O494 1.288 1_565 S
C502 O503 1.280 . S
O503 C502 1.280 . S
O504 Zn495 1.977 . S
O504 C497 1.267 . S
C505 O506 1.160 . S
C505 O512 1.185 . S
O506 C505 1.160 . S
O507 Zn508 1.899 . S
O507 C515 1.284 . S
Zn508 O507 1.899 . S
Zn508 O509 2.032 . S
Zn508 O512 2.086 . S
Zn508 O517 1.977 . S
O509 Zn508 2.032 . S
O509 C513 1.278 . S
C510 O511 1.203 . S
C510 O517 1.267 . S
O511 C510 1.203 . S
O512 C505 1.185 . S
O512 Zn508 2.086 . S
C513 O509 1.278 . S
C513 O514 1.211 . S
O514 C513 1.211 . S
C515 O507 1.284 . S
C515 O516 1.273 . S
O516 C515 1.273 . S
O517 Zn508 1.977 . S
O517 C510 1.267 . S
C518 O519 1.160 . S
C518 O525 1.185 . S
O519 C518 1.160 . S
O520 Zn521 1.899 . S
O520 C528 1.284 . S
Zn521 O520 1.899 . S
Zn521 O522 2.032 . S
Zn521 O525 2.086 . S
Zn521 O530 1.977 . S
O522 Zn521 2.032 . S
O522 C526 1.278 . S
C523 O524 1.203 . S
C523 O530 1.267 . S
O524 C523 1.203 . S
O525 C518 1.185 . S
O525 Zn521 2.086 . S
C526 O522 1.278 . S
C526 O527 1.211 . S
O527 C526 1.211 . S
C528 O520 1.284 . S
C528 O529 1.273 . S
O529 C528 1.273 . S
O530 Zn521 1.977 . S
O530 C523 1.267 . S
C531 O532 1.160 . S
C531 O538 1.185 . S
O532 C531 1.160 . S
O533 Zn534 1.899 . S
O533 C541 1.284 . S
Zn534 O533 1.899 . S
Zn534 O535 2.032 . S
Zn534 O538 2.086 . S
Zn534 O543 1.977 . S
O535 Zn534 2.032 . S
O535 C539 1.278 . S
C536 O537 1.203 . S
C536 O543 1.267 . S
O537 C536 1.203 . S
O538 C531 1.185 . S
O538 Zn534 2.086 . S
C539 O535 1.278 . S
C539 O540 1.211 . S
O540 C539 1.211 . S
C541 O533 1.284 . S
C541 O542 1.273 . S
O542 C541 1.273 . S
O543 Zn534 1.977 . S
O543 C536 1.267 . S
C544 O545 1.160 . S
C544 O551 1.185 . S
O545 C544 1.160 . S
O546 Zn547 1.899 . S
O546 C554 1.284 . S
Zn547 O546 1.899 . S
Zn547 O548 2.032 . S
Zn547 O551 2.086 . S
Zn547 O556 1.977 1_565 S
O548 Zn547 2.032 . S
O548 C552 1.278 . S
C549 O550 1.203 . S
C549 O556 1.267 . S
O550 C549 1.203 . S
O551 C544 1.185 . S
O551 Zn547 2.086 . S
C552 O548 1.278 . S
C552 O553 1.211 1_565 S
O553 C552 1.211 1_545 S
C554 O546 1.284 . S
C554 O555 1.273 . S
O555 C554 1.273 . S
O556 Zn547 1.977 1_545 S
O556 C549 1.267 . S
C557 O558 1.160 . S
C557 O564 1.185 . S
O558 C557 1.160 . S
O559 Zn560 1.899 . S
O559 C567 1.284 . S
Zn560 O559 1.899 . S
Zn560 O561 2.032 . S
Zn560 O564 2.086 . S
Zn560 O569 1.977 . S
O561 Zn560 2.032 . S
O561 C565 1.278 . S
C562 O563 1.203 . S
C562 O569 1.267 1_655 S
O563 C562 1.203 . S
O564 C557 1.185 . S
O564 Zn560 2.086 . S
C565 O561 1.278 . S
C565 O566 1.211 . S
O566 C565 1.211 . S
C567 O559 1.284 . S
C567 O568 1.273 . S
O568 C567 1.273 . S
O569 Zn560 1.977 . S
O569 C562 1.267 1_455 S
C570 O571 1.160 . S
C570 O577 1.185 . S
O571 C570 1.160 . S
O572 Zn573 1.899 . S
O572 C580 1.284 . S
Zn573 O572 1.899 . S
Zn573 O574 2.032 . S
Zn573 O577 2.086 . S
Zn573 O582 1.977 . S
O574 Zn573 2.032 . S
O574 C578 1.278 . S
C575 O576 1.203 . S
C575 O582 1.267 . S
O576 C575 1.203 . S
O577 C570 1.185 . S
O577 Zn573 2.086 . S
C578 O574 1.278 . S
C578 O579 1.211 1_556 S
O579 C578 1.211 1_554 S
C580 O572 1.284 . S
C580 O581 1.273 . S
O581 C580 1.273 . S
O582 Zn573 1.977 . S
O582 C575 1.267 . S
C583 O584 1.160 . S
C583 O590 1.185 . S
O584 C583 1.160 . S
O585 Zn586 1.899 . S
O585 C593 1.284 . S
Zn586 O585 1.899 . S
Zn586 O587 2.032 . S
Zn586 O590 2.086 . S
Zn586 O595 1.977 . S
O587 Zn586 2.032 . S
O587 C591 1.278 . S
C588 O589 1.203 . S
C588 O595 1.267 . S
O589 C588 1.203 . S
O590 C583 1.185 . S
O590 Zn586 2.086 . S
C591 O587 1.278 . S
C591 O592 1.211 . S
O592 C591 1.211 . S
C593 O585 1.284 . S
C593 O594 1.273 . S
O594 C593 1.273 . S
O595 Zn586 1.977 . S
O595 C588 1.267 . S
C596 O597 1.160 . S
C596 O603 1.185 . S
O597 C596 1.160 . S
O598 Zn599 1.899 . S
O598 C606 1.284 . S
Zn599 O598 1.899 . S
Zn599 O600 2.032 1_655 S
Zn599 O603 2.086 . S
Zn599 O608 1.977 . S
O600 Zn599 2.032 1_455 S
O600 C604 1.278 . S
C601 O602 1.203 . S
C601 O608 1.267 . S
O602 C601 1.203 . S
O603 C596 1.185 . S
O603 Zn599 2.086 . S
C604 O600 1.278 . S
C604 O605 1.211 . S
O605 C604 1.211 . S
C606 O598 1.284 . S
C606 O607 1.273 . S
O607 C606 1.273 . S
O608 Zn599 1.977 . S
O608 C601 1.267 . S
C609 O610 1.160 . S
C609 O616 1.185 . S
O610 C609 1.160 . S
O611 Zn612 1.899 . S
O611 C619 1.284 . S
Zn612 O611 1.899 . S
Zn612 O613 2.032 . S
Zn612 O616 2.086 . S
Zn612 O621 1.977 . S
O613 Zn612 2.032 . S
O613 C617 1.278 . S
C614 O615 1.203 . S
C614 O621 1.267 . S
O615 C614 1.203 . S
O616 C609 1.185 . S
O616 Zn612 2.086 . S
C617 O613 1.278 . S
C617 O618 1.211 . S
O618 C617 1.211 . S
C619 O611 1.284 . S
C619 O620 1.273 . S
O620 C619 1.273 . S
O621 Zn612 1.977 . S
O621 C614 1.267 . S
C622 O623 1.160 . S
C622 O629 1.185 . S
O623 C622 1.160 . S
O624 Zn625 1.899 . S
O624 C632 1.284 . S
Zn625 O624 1.899 . S
Zn625 O626 2.032 . S
Zn625 O629 2.086 . S
Zn625 O634 1.977 . S
O626 Zn625 2.032 . S
O626 C630 1.278 1_655 S
C627 O628 1.203 . S
C627 O634 1.267 . S
O628 C627 1.203 . S
O629 C622 1.185 . S
O629 Zn625 2.086 . S
C630 O626 1.278 1_455 S
C630 O631 1.211 . S
O631 C630 1.211 . S
C632 O624 1.284 . S
C632 O633 1.273 . S
O633 C632 1.273 . S
O634 Zn625 1.977 . S
O634 C627 1.267 . S
C635 O636 1.160 . S
C635 O642 1.185 . S
O636 C635 1.160 . S
O637 Zn638 1.899 . S
O637 C645 1.284 . S
Zn638 O637 1.899 . S
Zn638 O639 2.032 . S
Zn638 O642 2.086 . S
Zn638 O647 1.977 . S
O639 Zn638 2.032 . S
O639 C643 1.278 . S
C640 O641 1.203 . S
C640 O647 1.267 . S
O641 C640 1.203 . S
O642 C635 1.185 . S
O642 Zn638 2.086 . S
C643 O639 1.278 . S
C643 O644 1.211 . S
O644 C643 1.211 . S
C645 O637 1.284 . S
C645 O646 1.273 . S
O646 C645 1.273 . S
O647 Zn638 1.977 . S
O647 C640 1.267 . S
C648 C649 1.363 . S
C648 C654 1.379 . S
C648 N656 1.356 . S
C649 C648 1.363 . S
C649 C655 1.363 . S
C650 C651 1.363 . S
C650 C655 1.379 . S
C650 N657 1.356 . S
C651 C650 1.363 . S
C651 C654 1.363 . S
N652 C654 1.356 . S
N652 H664 0.984 . S
N652 H665 0.985 . S
N653 C655 1.356 1_556 S
N653 H658 0.984 . S
N653 H659 0.985 . S
C654 C648 1.379 . S
C654 C651 1.363 . S
C654 N652 1.356 . S
C655 C649 1.363 . S
C655 C650 1.379 . S
C655 N653 1.356 1_554 S
N656 C648 1.356 . S
N656 H662 0.984 . S
N656 H663 0.984 . S
N657 C650 1.356 . S
N657 H660 0.984 . S
N657 H661 0.995 . S
H658 N653 0.984 . S
H659 N653 0.985 . S
H660 N657 0.984 . S
H661 N657 0.995 . S
H662 N656 0.984 . S
H663 N656 0.984 . S
H664 N652 0.984 . S
H665 N652 0.985 . S
C666 C667 1.363 . S
C666 C672 1.379 . S
C666 N674 1.356 . S
C667 C666 1.363 . S
C667 C673 1.363 . S
C668 C669 1.363 . S
C668 C673 1.379 . S
C668 N675 1.356 . S
C669 C668 1.363 . S
C669 C672 1.363 . S
N670 C672 1.356 . S
N670 H682 0.984 . S
N670 H683 0.985 . S
N671 C673 1.356 1_556 S
N671 H676 0.984 . S
N671 H677 0.985 . S
C672 C666 1.379 . S
C672 C669 1.363 . S
C672 N670 1.356 . S
C673 C667 1.363 . S
C673 C668 1.379 . S
C673 N671 1.356 1_554 S
N674 C666 1.356 . S
N674 H680 0.984 . S
N674 H681 0.984 . S
N675 C668 1.356 . S
N675 H678 0.984 . S
N675 H679 0.985 1_554 S
H676 N671 0.984 . S
H677 N671 0.985 . S
H678 N675 0.984 . S
H679 N675 0.985 1_556 S
H680 N674 0.984 . S
H681 N674 0.984 . S
H682 N670 0.984 . S
H683 N670 0.985 . S
C684 C685 1.363 . S
C684 C690 1.379 . S
C684 N692 1.356 . S
C685 C684 1.363 . S
C685 C691 1.363 1_545 S
C686 C687 1.363 . S
C686 C691 1.379 . S
C686 N693 1.356 . S
C687 C686 1.363 . S
C687 C690 1.363 1_565 S
N688 C690 1.356 . S
N688 H700 0.984 . S
N688 H701 0.985 . S
N689 C691 1.356 . S
N689 H694 0.984 . S
N689 H695 0.985 1_554 S
C690 C684 1.379 . S
C690 C687 1.363 1_545 S
C690 N688 1.356 . S
C691 C685 1.363 1_565 S
C691 C686 1.379 . S
C691 N689 1.356 . S
N692 C684 1.356 . S
N692 H698 0.984 . S
N692 H699 0.984 . S
N693 C686 1.356 . S
N693 H696 0.984 . S
N693 H697 0.985 . S
H694 N689 0.984 . S
H695 N689 0.985 1_556 S
H696 N693 0.984 . S
H697 N693 0.985 . S
H698 N692 0.984 . S
H699 N692 0.984 . S
H700 N688 0.984 . S
H701 N688 0.985 . S
C702 C703 1.363 . S
C702 C708 1.379 . S
C702 N710 1.356 . S
C703 C702 1.363 . S
C703 C709 1.363 . S
C704 C705 1.363 . S
C704 C709 1.379 . S
C704 N711 1.356 . S
C705 C704 1.363 . S
C705 C708 1.363 . S
N706 C708 1.356 . S
N706 H718 0.984 . S
N706 H719 0.985 . S
N707 C709 1.356 . S
N707 H712 0.984 . S
N707 H713 0.985 . S
C708 C702 1.379 . S
C708 C705 1.363 . S
C708 N706 1.356 . S
C709 C703 1.363 . S
C709 C704 1.379 . S
C709 N707 1.356 . S
N710 C702 1.356 . S
N710 H716 0.984 . S
N710 H717 0.984 . S
N711 C704 1.356 . S
N711 H714 0.984 . S
N711 H715 0.985 . S
H712 N707 0.984 . S
H713 N707 0.985 . S
H714 N711 0.984 . S
H715 N711 0.985 . S
H716 N710 0.984 . S
H717 N710 0.984 . S
H718 N706 0.984 . S
H719 N706 0.985 . S
C720 C721 1.363 . S
C720 C726 1.379 1_455 S
C720 N728 1.356 . S
C721 C720 1.363 . S
C721 C727 1.363 . S
C722 C723 1.363 . S
C722 C727 1.379 1_655 S
C722 N729 1.356 . S
C723 C722 1.363 . S
C723 C726 1.363 . S
N724 C726 1.356 . S
N724 H736 0.984 . S
N724 H737 0.985 . S
N725 C727 1.356 . S
N725 H730 0.984 . S
N725 H731 0.985 . S
C726 C720 1.379 1_655 S
C726 C723 1.363 . S
C726 N724 1.356 . S
C727 C721 1.363 . S
C727 C722 1.379 1_455 S
C727 N725 1.356 . S
N728 C720 1.356 . S
N728 H734 0.984 . S
N728 H735 0.984 . S
N729 C722 1.356 . S
N729 H732 0.984 . S
N729 H733 0.985 . S
H730 N725 0.984 . S
H731 N725 0.985 . S
H732 N729 0.984 . S
H733 N729 0.985 . S
H734 N728 0.984 . S
H735 N728 0.984 . S
H736 N724 0.984 . S
H737 N724 0.985 . S
C738 C739 1.363 . S
C738 C744 1.379 . S
C738 N746 1.356 . S
C739 C738 1.363 . S
C739 C745 1.363 . S
C740 C741 1.363 . S
C740 C745 1.379 . S
C740 N747 1.356 . S
C741 C740 1.363 . S
C741 C744 1.363 . S
N742 C744 1.356 . S
N742 H754 0.984 . S
N742 H755 0.985 . S
N743 C745 1.356 . S
N743 H748 0.984 . S
N743 H749 0.985 . S
C744 C738 1.379 . S
C744 C741 1.363 . S
C744 N742 1.356 . S
C745 C739 1.363 . S
C745 C740 1.379 . S
C745 N743 1.356 . S
N746 C738 1.356 . S
N746 H752 0.984 . S
N746 H753 0.984 . S
N747 C740 1.356 . S
N747 H750 0.984 . S
N747 H751 0.985 . S
H748 N743 0.984 . S
H749 N743 0.985 . S
H750 N747 0.984 . S
H751 N747 0.985 . S
H752 N746 0.984 . S
H753 N746 0.984 . S
H754 N742 0.984 . S
H755 N742 0.985 . S
C756 C757 1.363 . S
C756 C762 1.379 1_455 S
C756 N764 1.356 1_556 S
C757 C756 1.363 . S
C757 C763 1.363 . S
C758 C759 1.363 . S
C758 C763 1.379 . S
C758 N765 1.356 . S
C759 C758 1.363 . S
C759 C762 1.363 1_455 S
N760 C762 1.356 . S
N760 H772 0.984 1_556 S
N760 H773 0.985 . S
N761 C763 1.356 . S
N761 H766 0.984 . S
N761 H767 0.985 . S
C762 C756 1.379 1_655 S
C762 C759 1.363 1_655 S
C762 N760 1.356 . S
C763 C757 1.363 . S
C763 C758 1.379 . S
C763 N761 1.356 . S
N764 C756 1.356 1_554 S
N764 H770 0.984 1_455 S
N764 H771 0.984 . S
N765 C758 1.356 . S
N765 H768 0.984 . S
N765 H769 0.985 . S
H766 N761 0.984 . S
H767 N761 0.985 . S
H768 N765 0.984 . S
H769 N765 0.985 . S
H770 N764 0.984 1_655 S
H771 N764 0.984 . S
H772 N760 0.984 1_554 S
H773 N760 0.985 . S
C774 C775 1.363 . S
C774 C780 1.379 . S
C774 N782 1.356 1_556 S
C775 C774 1.363 . S
C775 C781 1.363 . S
C776 C777 1.363 . S
C776 C781 1.379 . S
C776 N783 1.356 . S
C777 C776 1.363 . S
C777 C780 1.363 . S
N778 C780 1.356 . S
N778 H790 0.984 1_556 S
N778 H791 0.985 . S
N779 C781 1.356 . S
N779 H784 0.984 . S
N779 H785 0.985 . S
C780 C774 1.379 . S
C780 C777 1.363 . S
C780 N778 1.356 . S
C781 C775 1.363 . S
C781 C776 1.379 . S
C781 N779 1.356 . S
N782 C774 1.356 1_554 S
N782 H788 0.984 . S
N782 H789 0.984 . S
N783 C776 1.356 . S
N783 H786 0.984 . S
N783 H787 0.985 . S
H784 N779 0.984 . S
H785 N779 0.985 . S
H786 N783 0.984 . S
H787 N783 0.985 . S
H788 N782 0.984 . S
H789 N782 0.984 . S
H790 N778 0.984 1_554 S
H791 N778 0.985 . S
C792 C793 1.363 . S
C792 C798 1.379 . S
C792 N800 1.356 1_556 S
C793 C792 1.363 . S
C793 C799 1.363 . S
C794 C795 1.363 . S
C794 C799 1.379 . S
C794 N801 1.356 . S
C795 C794 1.363 . S
C795 C798 1.363 . S
N796 C798 1.356 . S
N796 H808 0.984 . S
N796 H809 0.985 . S
N797 C799 1.356 . S
N797 H802 0.984 . S
N797 H803 0.985 1_545 S
C798 C792 1.379 . S
C798 C795 1.363 . S
C798 N796 1.356 . S
C799 C793 1.363 . S
C799 C794 1.379 . S
C799 N797 1.356 . S
N800 C792 1.356 1_554 S
N800 H806 0.984 . S
N800 H807 0.984 . S
N801 C794 1.356 . S
N801 H804 0.984 . S
N801 H805 0.985 . S
H802 N797 0.984 . S
H803 N797 0.985 1_565 S
H804 N801 0.984 . S
H805 N801 0.985 . S
H806 N800 0.984 . S
H807 N800 0.984 . S
H808 N796 0.984 . S
H809 N796 0.985 . S
C810 C811 1.363 . S
C810 C816 1.379 . S
C810 N818 1.356 . S
C811 C810 1.363 . S
C811 C817 1.363 1_545 S
C812 C813 1.363 1_565 S
C812 C817 1.379 . S
C812 N819 1.356 . S
C813 C812 1.363 1_545 S
C813 C816 1.363 . S
N814 C816 1.356 . S
N814 H826 0.984 . S
N814 H827 0.985 . S
N815 C817 1.356 . S
N815 H820 0.984 . S
N815 H821 0.985 . S
C816 C810 1.379 . S
C816 C813 1.363 . S
C816 N814 1.356 . S
C817 C811 1.363 1_565 S
C817 C812 1.379 . S
C817 N815 1.356 . S
N818 C810 1.356 . S
N818 H824 0.984 . S
N818 H825 0.984 . S
N819 C812 1.356 . S
N819 H822 0.984 . S
N819 H823 0.985 . S
H820 N815 0.984 . S
H821 N815 0.985 . S
H822 N819 0.984 . S
H823 N819 0.985 . S
H824 N818 0.984 . S
H825 N818 0.984 . S
H826 N814 0.984 . S
H827 N814 0.985 . S
C828 C829 1.363 . S
C828 C834 1.379 . S
C828 N836 1.356 . S
C829 C828 1.363 . S
C829 C835 1.363 . S
C830 C831 1.363 . S
C830 C835 1.379 . S
C830 N837 1.356 . S
C831 C830 1.363 . S
C831 C834 1.363 . S
N832 C834 1.356 . S
N832 H844 0.984 1_455 S
N832 H845 0.985 . S
N833 C835 1.356 . S
N833 H838 0.984 . S
N833 H839 0.985 . S
C834 C828 1.379 . S
C834 C831 1.363 . S
C834 N832 1.356 . S
C835 C829 1.363 . S
C835 C830 1.379 . S
C835 N833 1.356 . S
N836 C828 1.356 . S
N836 H842 0.984 1_455 S
N836 H843 0.984 . S
N837 C830 1.356 . S
N837 H840 0.984 . S
N837 H841 0.985 . S
H838 N833 0.984 . S
H839 N833 0.985 . S
H840 N837 0.984 . S
H841 N837 0.985 . S
H842 N836 0.984 1_655 S
H843 N836 0.984 . S
H844 N832 0.984 1_655 S
H845 N832 0.985 . S
C846 C847 1.363 . S
C846 C852 1.379 . S
C846 N854 1.356 . S
C847 C846 1.363 . S
C847 C853 1.363 . S
C848 C849 1.363 . S
C848 C853 1.379 . S
C848 N855 1.356 . S
C849 C848 1.363 . S
C849 C852 1.363 . S
N850 C852 1.356 . S
N850 H862 0.984 . S
N850 H863 0.985 . S
N851 C853 1.356 . S
N851 H856 0.984 . S
N851 H857 0.985 . S
C852 C846 1.379 . S
C852 C849 1.363 . S
C852 N850 1.356 . S
C853 C847 1.363 . S
C853 C848 1.379 . S
C853 N851 1.356 . S
N854 C846 1.356 . S
N854 H860 0.984 . S
N854 H861 0.984 . S
N855 C848 1.356 . S
N855 H858 0.984 . S
N855 H859 0.985 . S
H856 N851 0.984 . S
H857 N851 0.985 . S
H858 N855 0.984 . S
H859 N855 0.985 . S
H860 N854 0.984 . S
H861 N854 0.984 . S
H862 N850 0.984 . S
H863 N850 0.985 . S
C864 C865 1.363 . S
C864 C870 1.379 . S
C864 N872 1.356 . S
C865 C864 1.363 . S
C865 C871 1.363 . S
C866 C867 1.363 . S
C866 C871 1.379 . S
C866 N873 1.356 . S
C867 C866 1.363 . S
C867 C870 1.363 . S
N868 C870 1.356 . S
N868 H880 0.984 . S
N868 H881 0.985 . S
N869 C871 1.356 . S
N869 H874 0.984 . S
N869 H875 0.985 . S
C870 C864 1.379 . S
C870 C867 1.363 . S
C870 N868 1.356 . S
C871 C865 1.363 . S
C871 C866 1.379 . S
C871 N869 1.356 . S
N872 C864 1.356 . S
N872 H878 0.984 . S
N872 H879 0.984 . S
N873 C866 1.356 . S
N873 H876 0.984 . S
N873 H877 0.985 . S
H874 N869 0.984 . S
H875 N869 0.985 . S
H876 N873 0.984 . S
H877 N873 0.985 . S
H878 N872 0.984 . S
H879 N872 0.984 . S
H880 N868 0.984 . S
H881 N868 0.985 . S
C882 C883 1.363 . S
C882 C888 1.379 1_565 S
C882 N890 1.356 . S
C883 C882 1.363 . S
C883 C889 1.363 1_565 S
C884 C885 1.363 . S
C884 C889 1.379 . S
C884 N891 1.356 . S
C885 C884 1.363 . S
C885 C888 1.363 . S
N886 C888 1.356 . S
N886 H898 0.984 . S
N886 H899 0.985 . S
N887 C889 1.356 1_565 S
N887 H892 0.984 . S
N887 H893 0.985 . S
C888 C882 1.379 1_545 S
C888 C885 1.363 . S
C888 N886 1.356 . S
C889 C883 1.363 1_545 S
C889 C884 1.379 . S
C889 N887 1.356 1_545 S
N890 C882 1.356 . S
N890 H896 0.984 . S
N890 H897 0.984 . S
N891 C884 1.356 . S
N891 H894 0.984 . S
N891 H895 0.985 . S
H892 N887 0.984 . S
H893 N887 0.985 . S
H894 N891 0.984 . S
H895 N891 0.985 . S
H896 N890 0.984 . S
H897 N890 0.984 . S
H898 N886 0.984 . S
H899 N886 0.985 . S
C900 C901 1.363 . S
C900 C906 1.379 . S
C900 N908 1.356 . S
C901 C900 1.363 . S
C901 C907 1.363 . S
C902 C903 1.363 . S
C902 C907 1.379 . S
C902 N909 1.356 . S
C903 C902 1.363 . S
C903 C906 1.363 . S
N904 C906 1.356 . S
N904 H916 0.984 . S
N904 H917 0.985 . S
N905 C907 1.356 . S
N905 H910 0.984 . S
N905 H911 0.985 . S
C906 C900 1.379 . S
C906 C903 1.363 . S
C906 N904 1.356 . S
C907 C901 1.363 . S
C907 C902 1.379 . S
C907 N905 1.356 . S
N908 C900 1.356 . S
N908 H914 0.984 . S
N908 H915 0.984 . S
N909 C902 1.356 . S
N909 H912 0.984 . S
N909 H913 0.985 . S
H910 N905 0.984 . S
H911 N905 0.985 . S
H912 N909 0.984 . S
H913 N909 0.985 . S
H914 N908 0.984 . S
H915 N908 0.984 . S
H916 N904 0.984 . S
H917 N904 0.985 . S
C918 C919 1.363 . S
C918 C924 1.379 . S
C918 N926 1.356 . S
C919 C918 1.363 . S
C919 C925 1.363 . S
C920 C921 1.363 . S
C920 C925 1.379 . S
C920 N927 1.356 . S
C921 C920 1.363 . S
C921 C924 1.363 . S
N922 C924 1.356 . S
N922 H934 0.984 . S
N922 H935 0.985 . S
N923 C925 1.356 . S
N923 H928 0.984 . S
N923 H929 0.985 . S
C924 C918 1.379 . S
C924 C921 1.363 . S
C924 N922 1.356 . S
C925 C919 1.363 . S
C925 C920 1.379 . S
C925 N923 1.356 . S
N926 C918 1.356 . S
N926 H932 0.984 . S
N926 H933 0.984 . S
N927 C920 1.356 . S
N927 H930 0.984 . S
N927 H931 0.985 . S
H928 N923 0.984 . S
H929 N923 0.985 . S
H930 N927 0.984 . S
H931 N927 0.985 . S
H932 N926 0.984 . S
H933 N926 0.984 . S
H934 N922 0.984 . S
H935 N922 0.985 . S
C936 C937 1.363 . S
C936 C942 1.379 . S
C936 N944 1.356 . S
C937 C936 1.363 . S
C937 C943 1.363 . S
C938 C939 1.363 . S
C938 C943 1.379 . S
C938 N945 1.356 . S
C939 C938 1.363 . S
C939 C942 1.363 . S
N940 C942 1.356 . S
N940 H952 0.984 . S
N940 H953 0.985 . S
N941 C943 1.356 . S
N941 H946 0.984 . S
N941 H947 0.985 . S
C942 C936 1.379 . S
C942 C939 1.363 . S
C942 N940 1.356 . S
C943 C937 1.363 . S
C943 C938 1.379 . S
C943 N941 1.356 . S
N944 C936 1.356 . S
N944 H950 0.984 . S
N944 H951 0.984 . S
N945 C938 1.356 . S
N945 H948 0.984 . S
N945 H949 0.985 . S
H946 N941 0.984 . S
H947 N941 0.985 . S
H948 N945 0.984 . S
H949 N945 0.985 . S
H950 N944 0.984 . S
H951 N944 0.984 . S
H952 N940 0.984 . S
H953 N940 0.985 . S
C954 C955 1.363 . S
C954 C960 1.379 . S
C954 N962 1.356 . S
C955 C954 1.363 . S
C955 C961 1.363 . S
C956 C957 1.363 . S
C956 C961 1.379 . S
C956 N963 1.356 . S
C957 C956 1.363 . S
C957 C960 1.363 . S
N958 C960 1.356 . S
N958 H970 0.984 1_565 S
N958 H971 0.974 . S
N959 C961 1.356 . S
N959 H964 0.984 . S
N959 H965 0.985 . S
C960 C954 1.379 . S
C960 C957 1.363 . S
C960 N958 1.356 . S
C961 C955 1.363 . S
C961 C956 1.379 . S
C961 N959 1.356 . S
N962 C954 1.356 . S
N962 H968 0.984 . S
N962 H969 0.984 . S
N963 C956 1.356 . S
N963 H966 0.984 . S
N963 H967 0.985 . S
H964 N959 0.984 . S
H965 N959 0.985 . S
H966 N963 0.984 . S
H967 N963 0.985 . S
H968 N962 0.984 . S
H969 N962 0.984 . S
H970 N958 0.984 1_545 S
H971 N958 0.974 . S
C972 C973 1.363 . S
C972 C978 1.379 1_565 S
C972 N980 1.356 . S
C973 C972 1.363 . S
C973 C979 1.363 . S
C974 C975 1.363 1_565 S
C974 C979 1.379 . S
C974 N981 1.356 . S
C975 C974 1.363 1_545 S
C975 C978 1.363 . S
N976 C978 1.356 . S
N976 H988 0.984 . S
N976 H989 0.985 . S
N977 C979 1.356 . S
N977 H982 0.984 . S
N977 H983 0.985 . S
C978 C972 1.379 1_545 S
C978 C975 1.363 . S
C978 N976 1.356 . S
C979 C973 1.363 . S
C979 C974 1.379 . S
C979 N977 1.356 . S
N980 C972 1.356 . S
N980 H986 0.984 1_565 S
N980 H987 0.984 . S
N981 C974 1.356 . S
N981 H984 0.984 1_565 S
N981 H985 0.985 . S
H982 N977 0.984 . S
H983 N977 0.985 . S
H984 N981 0.984 1_545 S
H985 N981 0.985 . S
H986 N980 0.984 1_545 S
H987 N980 0.984 . S
H988 N976 0.984 . S
H989 N976 0.985 . S
C990 C991 1.363 . S
C990 C996 1.379 . S
C990 N998 1.356 . S
C991 C990 1.363 . S
C991 C997 1.363 . S
C992 C993 1.363 . S
C992 C997 1.379 . S
C992 N999 1.356 . S
C993 C992 1.363 . S
C993 C996 1.363 . S
N994 C996 1.356 . S
N994 H1006 0.984 . S
N994 H1007 0.985 . S
N995 C997 1.356 . S
N995 H1000 0.984 . S
N995 H1001 0.985 . S
C996 C990 1.379 . S
C996 C993 1.363 . S
C996 N994 1.356 . S
C997 C991 1.363 . S
C997 C992 1.379 . S
C997 N995 1.356 . S
N998 C990 1.356 . S
N998 H1004 0.984 . S
N998 H1005 0.984 . S
N999 C992 1.356 . S
N999 H1002 0.984 . S
N999 H1003 0.985 . S
H1000 N995 0.984 . S
H1001 N995 0.985 . S
H1002 N999 0.984 . S
H1003 N999 0.985 . S
H1004 N998 0.984 . S
H1005 N998 0.984 . S
H1006 N994 0.984 . S
H1007 N994 0.985 . S
C1008 C1009 1.363 . S
C1008 C1014 1.379 . S
C1008 N1016 1.356 . S
C1009 C1008 1.363 . S
C1009 C1015 1.363 . S
C1010 C1011 1.363 . S
C1010 C1015 1.379 . S
C1010 N1017 1.356 . S
C1011 C1010 1.363 . S
C1011 C1014 1.363 . S
N1012 C1014 1.356 . S
N1012 H1024 0.984 . S
N1012 H1025 0.985 . S
N1013 C1015 1.356 . S
N1013 H1018 0.984 . S
N1013 H1019 0.985 . S
C1014 C1008 1.379 . S
C1014 C1011 1.363 . S
C1014 N1012 1.356 . S
C1015 C1009 1.363 . S
C1015 C1010 1.379 . S
C1015 N1013 1.356 . S
N1016 C1008 1.356 . S
N1016 H1022 0.984 . S
N1016 H1023 0.984 . S
N1017 C1010 1.356 . S
N1017 H1020 0.984 . S
N1017 H1021 0.985 . S
H1018 N1013 0.984 . S
H1019 N1013 0.985 . S
H1020 N1017 0.984 . S
H1021 N1017 0.985 . S
H1022 N1016 0.984 . S
H1023 N1016 0.984 . S
H1024 N1012 0.984 . S
H1025 N1012 0.985 . S
C1026 C1027 1.363 . S
C1026 C1032 1.379 . S
C1026 N1034 1.356 . S
C1027 C1026 1.363 . S
C1027 C1033 1.363 . S
C1028 C1029 1.363 . S
C1028 C1033 1.379 . S
C1028 N1035 1.356 . S
C1029 C1028 1.363 . S
C1029 C1032 1.363 . S
N1030 C1032 1.356 . S
N1030 H1042 0.984 . S
N1030 H1043 0.985 . S
N1031 C1033 1.356 . S
N1031 H1036 0.984 . S
N1031 H1037 0.985 . S
C1032 C1026 1.379 . S
C1032 C1029 1.363 . S
C1032 N1030 1.356 . S
C1033 C1027 1.363 . S
C1033 C1028 1.379 . S
C1033 N1031 1.356 . S
N1034 C1026 1.356 . S
N1034 H1040 0.984 . S
N1034 H1041 0.984 . S
N1035 C1028 1.356 . S
N1035 H1038 0.984 . S
N1035 H1039 0.985 . S
H1036 N1031 0.984 . S
H1037 N1031 0.985 . S
H1038 N1035 0.984 . S
H1039 N1035 0.985 . S
H1040 N1034 0.984 . S
H1041 N1034 0.984 . S
H1042 N1030 0.984 . S
H1043 N1030 0.985 . S
C1044 C1045 1.363 . S
C1044 C1050 1.379 . S
C1044 N1052 1.356 . S
C1045 C1044 1.363 . S
C1045 C1051 1.363 1_565 S
C1046 C1047 1.363 . S
C1046 C1051 1.379 . S
C1046 N1053 1.356 . S
C1047 C1046 1.363 . S
C1047 C1050 1.363 1_545 S
N1048 C1050 1.356 . S
N1048 H1060 0.984 . S
N1048 H1061 0.985 1_565 S
N1049 C1051 1.356 . S
N1049 H1054 0.984 1_545 S
N1049 H1055 0.985 . S
C1050 C1044 1.379 . S
C1050 C1047 1.363 1_565 S
C1050 N1048 1.356 . S
C1051 C1045 1.363 1_545 S
C1051 C1046 1.379 . S
C1051 N1049 1.356 . S
N1052 C1044 1.356 . S
N1052 H1058 0.984 . S
N1052 H1059 0.984 . S
N1053 C1046 1.356 . S
N1053 H1056 0.984 . S
N1053 H1057 0.985 . S
H1054 N1049 0.984 1_565 S
H1055 N1049 0.985 . S
H1056 N1053 0.984 . S
H1057 N1053 0.985 . S
H1058 N1052 0.984 . S
H1059 N1052 0.984 . S
H1060 N1048 0.984 . S
H1061 N1048 0.985 1_545 S
C1062 C1063 1.363 . S
C1062 C1068 1.379 . S
C1062 N1070 1.356 . S
C1063 C1062 1.363 . S
C1063 C1069 1.363 . S
C1064 C1065 1.363 . S
C1064 C1069 1.379 . S
C1064 N1071 1.356 . S
C1065 C1064 1.363 . S
C1065 C1068 1.363 . S
N1066 C1068 1.356 . S
N1066 H1078 0.984 . S
N1066 H1079 0.985 . S
N1067 C1069 1.356 . S
N1067 H1072 0.984 . S
N1067 H1073 0.985 . S
C1068 C1062 1.379 . S
C1068 C1065 1.363 . S
C1068 N1066 1.356 . S
C1069 C1063 1.363 . S
C1069 C1064 1.379 . S
C1069 N1067 1.356 . S
N1070 C1062 1.356 . S
N1070 H1076 0.984 . S
N1070 H1077 0.984 . S
N1071 C1064 1.356 . S
N1071 H1074 0.984 . S
N1071 H1075 0.985 . S
H1072 N1067 0.984 . S
H1073 N1067 0.985 . S
H1074 N1071 0.984 . S
H1075 N1071 0.985 . S
H1076 N1070 0.984 . S
H1077 N1070 0.984 . S
H1078 N1066 0.984 . S
H1079 N1066 0.985 . S
C1080 C1081 1.363 . S
C1080 C1086 1.379 . S
C1080 N1088 1.356 . S
C1081 C1080 1.363 . S
C1081 C1087 1.363 . S
C1082 C1083 1.363 . S
C1082 C1087 1.379 . S
C1082 N1089 1.356 . S
C1083 C1082 1.363 . S
C1083 C1086 1.363 . S
N1084 C1086 1.356 . S
N1084 H1096 0.984 . S
N1084 H1097 0.985 . S
N1085 C1087 1.356 . S
N1085 H1090 0.984 . S
N1085 H1091 0.985 . S
C1086 C1080 1.379 . S
C1086 C1083 1.363 . S
C1086 N1084 1.356 . S
C1087 C1081 1.363 . S
C1087 C1082 1.379 . S
C1087 N1085 1.356 . S
N1088 C1080 1.356 . S
N1088 H1094 0.984 . S
N1088 H1095 0.984 . S
N1089 C1082 1.356 . S
N1089 H1092 0.984 . S
N1089 H1093 0.985 . S
H1090 N1085 0.984 . S
H1091 N1085 0.985 . S
H1092 N1089 0.984 . S
H1093 N1089 0.985 . S
H1094 N1088 0.984 . S
H1095 N1088 0.984 . S
H1096 N1084 0.984 . S
H1097 N1084 0.985 . S
C1098 C1099 1.363 . S
C1098 C1104 1.379 . S
C1098 N1106 1.356 . S
C1099 C1098 1.363 . S
C1099 C1105 1.363 . S
C1100 C1101 1.363 . S
C1100 C1105 1.379 . S
C1100 N1107 1.356 . S
C1101 C1100 1.363 . S
C1101 C1104 1.363 . S
N1102 C1104 1.356 . S
N1102 H1114 0.984 . S
N1102 H1115 0.985 . S
N1103 C1105 1.356 . S
N1103 H1108 0.984 . S
N1103 H1109 0.985 . S
C1104 C1098 1.379 . S
C1104 C1101 1.363 . S
C1104 N1102 1.356 . S
C1105 C1099 1.363 . S
C1105 C1100 1.379 . S
C1105 N1103 1.356 . S
N1106 C1098 1.356 . S
N1106 H1112 0.984 . S
N1106 H1113 0.984 . S
N1107 C1100 1.356 . S
N1107 H1110 0.984 . S
N1107 H1111 0.985 . S
H1108 N1103 0.984 . S
H1109 N1103 0.985 . S
H1110 N1107 0.984 . S
H1111 N1107 0.985 . S
H1112 N1106 0.984 . S
H1113 N1106 0.984 . S
H1114 N1102 0.984 . S
H1115 N1102 0.985 . S
C1116 C1117 1.363 . S
C1116 C1122 1.379 . S
C1116 N1124 1.356 . S
C1117 C1116 1.363 . S
C1117 C1123 1.363 . S
C1118 C1119 1.363 . S
C1118 C1123 1.379 . S
C1118 N1125 1.356 . S
C1119 C1118 1.363 . S
C1119 C1122 1.363 . S
N1120 C1122 1.356 . S
N1120 H1132 0.984 . S
N1120 H1133 0.985 . S
N1121 C1123 1.356 . S
N1121 H1126 0.984 . S
N1121 H1127 0.985 . S
C1122 C1116 1.379 . S
C1122 C1119 1.363 . S
C1122 N1120 1.356 . S
C1123 C1117 1.363 . S
C1123 C1118 1.379 . S
C1123 N1121 1.356 . S
N1124 C1116 1.356 . S
N1124 H1130 0.984 . S
N1124 H1131 0.984 . S
N1125 C1118 1.356 . S
N1125 H1128 0.984 . S
N1125 H1129 0.985 . S
H1126 N1121 0.984 . S
H1127 N1121 0.985 . S
H1128 N1125 0.984 . S
H1129 N1125 0.985 . S
H1130 N1124 0.984 . S
H1131 N1124 0.984 . S
H1132 N1120 0.984 . S
H1133 N1120 0.985 . S
C1134 C1135 1.363 . S
C1134 C1140 1.379 . S
C1134 N1142 1.356 . S
C1135 C1134 1.363 . S
C1135 C1141 1.363 . S
C1136 C1137 1.363 . S
C1136 C1141 1.379 . S
C1136 N1143 1.356 . S
C1137 C1136 1.363 . S
C1137 C1140 1.363 . S
N1138 C1140 1.356 . S
N1138 H1150 0.984 . S
N1138 H1151 0.985 . S
N1139 C1141 1.356 . S
N1139 H1144 0.984 . S
N1139 H1145 0.985 . S
C1140 C1134 1.379 . S
C1140 C1137 1.363 . S
C1140 N1138 1.356 . S
C1141 C1135 1.363 . S
C1141 C1136 1.379 . S
C1141 N1139 1.356 . S
N1142 C1134 1.356 . S
N1142 H1148 0.984 . S
N1142 H1149 0.984 . S
N1143 C1136 1.356 . S
N1143 H1146 0.984 . S
N1143 H1147 0.985 . S
H1144 N1139 0.984 . S
H1145 N1139 0.985 . S
H1146 N1143 0.984 . S
H1147 N1143 0.985 . S
H1148 N1142 0.984 . S
H1149 N1142 0.984 . S
H1150 N1138 0.984 . S
H1151 N1138 0.985 . S
C1152 C1153 1.363 . S
C1152 C1158 1.379 . S
C1152 N1160 1.356 . S
C1153 C1152 1.363 . S
C1153 C1159 1.363 . S
C1154 C1155 1.363 . S
C1154 C1159 1.379 . S
C1154 N1161 1.356 . S
C1155 C1154 1.363 . S
C1155 C1158 1.363 . S
N1156 C1158 1.356 . S
N1156 H1168 0.984 . S
N1156 H1169 0.985 . S
N1157 C1159 1.356 . S
N1157 H1162 0.984 . S
N1157 H1163 0.985 . S
C1158 C1152 1.379 . S
C1158 C1155 1.363 . S
C1158 N1156 1.356 . S
C1159 C1153 1.363 . S
C1159 C1154 1.379 . S
C1159 N1157 1.356 . S
N1160 C1152 1.356 . S
N1160 H1166 0.984 . S
N1160 H1167 0.984 . S
N1161 C1154 1.356 . S
N1161 H1164 0.984 . S
N1161 H1165 0.985 . S
H1162 N1157 0.984 . S
H1163 N1157 0.985 . S
H1164 N1161 0.984 . S
H1165 N1161 0.985 . S
H1166 N1160 0.984 . S
H1167 N1160 0.984 . S
H1168 N1156 0.984 . S
H1169 N1156 0.985 . S
C1170 C1171 1.363 . S
C1170 C1176 1.379 . S
C1170 N1178 1.356 . S
C1171 C1170 1.363 . S
C1171 C1177 1.363 . S
C1172 C1173 1.363 . S
C1172 C1177 1.379 . S
C1172 N1179 1.356 . S
C1173 C1172 1.363 . S
C1173 C1176 1.363 . S
N1174 C1176 1.356 . S
N1174 H1186 0.984 . S
N1174 H1187 0.985 . S
N1175 C1177 1.356 . S
N1175 H1180 0.984 . S
N1175 H1181 0.985 . S
C1176 C1170 1.379 . S
C1176 C1173 1.363 . S
C1176 N1174 1.356 . S
C1177 C1171 1.363 . S
C1177 C1172 1.379 . S
C1177 N1175 1.356 . S
N1178 C1170 1.356 . S
N1178 H1184 0.984 . S
N1178 H1185 0.984 . S
N1179 C1172 1.356 . S
N1179 H1182 0.984 . S
N1179 H1183 0.985 . S
H1180 N1175 0.984 . S
H1181 N1175 0.985 . S
H1182 N1179 0.984 . S
H1183 N1179 0.985 . S
H1184 N1178 0.984 . S
H1185 N1178 0.984 . S
H1186 N1174 0.984 . S
H1187 N1174 0.985 . S
C1188 C1189 1.363 . S
C1188 C1194 1.379 . S
C1188 N1196 1.356 . S
C1189 C1188 1.363 . S
C1189 C1195 1.363 . S
C1190 C1191 1.363 . S
C1190 C1195 1.379 . S
C1190 N1197 1.356 . S
C1191 C1190 1.363 . S
C1191 C1194 1.363 . S
N1192 C1194 1.356 . S
N1192 H1204 0.984 . S
N1192 H1205 0.985 . S
N1193 C1195 1.356 . S
N1193 H1198 0.984 . S
N1193 H1199 0.985 . S
C1194 C1188 1.379 . S
C1194 C1191 1.363 . S
C1194 N1192 1.356 . S
C1195 C1189 1.363 . S
C1195 C1190 1.379 . S
C1195 N1193 1.356 . S
N1196 C1188 1.356 . S
N1196 H1202 0.984 . S
N1196 H1203 0.984 . S
N1197 C1190 1.356 . S
N1197 H1200 0.984 . S
N1197 H1201 0.985 . S
H1198 N1193 0.984 . S
H1199 N1193 0.985 . S
H1200 N1197 0.984 . S
H1201 N1197 0.985 . S
H1202 N1196 0.984 . S
H1203 N1196 0.984 . S
H1204 N1192 0.984 . S
H1205 N1192 0.985 . S
C1206 C1207 1.363 . S
C1206 C1212 1.379 . S
C1206 N1214 1.356 . S
C1207 C1206 1.363 . S
C1207 C1213 1.363 . S
C1208 C1209 1.363 . S
C1208 C1213 1.379 . S
C1208 N1215 1.356 . S
C1209 C1208 1.363 . S
C1209 C1212 1.363 . S
N1210 C1212 1.356 . S
N1210 H1222 0.984 . S
N1210 H1223 0.985 . S
N1211 C1213 1.356 . S
N1211 H1216 0.984 . S
N1211 H1217 0.985 . S
C1212 C1206 1.379 . S
C1212 C1209 1.363 . S
C1212 N1210 1.356 . S
C1213 C1207 1.363 . S
C1213 C1208 1.379 . S
C1213 N1211 1.356 . S
N1214 C1206 1.356 . S
N1214 H1220 0.984 . S
N1214 H1221 0.984 . S
N1215 C1208 1.356 . S
N1215 H1218 0.984 . S
N1215 H1219 0.985 . S
H1216 N1211 0.984 . S
H1217 N1211 0.985 . S
H1218 N1215 0.984 . S
H1219 N1215 0.985 . S
H1220 N1214 0.984 . S
H1221 N1214 0.984 . S
H1222 N1210 0.984 . S
H1223 N1210 0.985 . S
C1224 C1225 1.363 . S
C1224 C1230 1.379 . S
C1224 N1232 1.356 . S
C1225 C1224 1.363 . S
C1225 C1231 1.363 . S
C1226 C1227 1.363 . S
C1226 C1231 1.379 . S
C1226 N1233 1.356 . S
C1227 C1226 1.363 . S
C1227 C1230 1.363 . S
N1228 C1230 1.356 . S
N1228 H1240 0.984 . S
N1228 H1241 1.018 . S
N1229 C1231 1.356 . S
N1229 H1234 0.984 . S
N1229 H1235 0.985 . S
C1230 C1224 1.379 . S
C1230 C1227 1.363 . S
C1230 N1228 1.356 . S
C1231 C1225 1.363 . S
C1231 C1226 1.379 . S
C1231 N1229 1.356 . S
N1232 C1224 1.356 . S
N1232 H1238 0.984 . S
N1232 H1239 0.984 . S
N1233 C1226 1.356 . S
N1233 H1236 0.984 . S
N1233 H1237 0.985 . S
H1234 N1229 0.984 . S
H1235 N1229 0.985 . S
H1236 N1233 0.984 . S
H1237 N1233 0.985 . S
H1238 N1232 0.984 . S
H1239 N1232 0.984 . S
H1240 N1228 0.984 . S
H1241 N1228 1.018 . S
C1242 C1243 1.363 . S
C1242 C1248 1.379 . S
C1242 N1250 1.356 . S
C1243 C1242 1.363 . S
C1243 C1249 1.363 . S
C1244 C1245 1.363 . S
C1244 C1249 1.379 . S
C1244 N1251 1.356 . S
C1245 C1244 1.363 . S
C1245 C1248 1.363 . S
N1246 C1248 1.356 . S
N1246 H1258 0.984 . S
N1246 H1259 0.985 . S
N1247 C1249 1.356 . S
N1247 H1252 0.984 . S
N1247 H1253 0.985 . S
C1248 C1242 1.379 . S
C1248 C1245 1.363 . S
C1248 N1246 1.356 . S
C1249 C1243 1.363 . S
C1249 C1244 1.379 . S
C1249 N1247 1.356 . S
N1250 C1242 1.356 . S
N1250 H1256 0.984 . S
N1250 H1257 0.984 . S
N1251 C1244 1.356 . S
N1251 H1254 0.984 . S
N1251 H1255 0.985 . S
H1252 N1247 0.984 . S
H1253 N1247 0.985 . S
H1254 N1251 0.984 . S
H1255 N1251 0.985 . S
H1256 N1250 0.984 . S
H1257 N1250 0.984 . S
H1258 N1246 0.984 . S
H1259 N1246 0.985 . S
C1260 C1261 1.363 . S
C1260 C1266 1.379 . S
C1260 N1268 1.356 . S
C1261 C1260 1.363 . S
C1261 C1267 1.363 . S
C1262 C1263 1.363 . S
C1262 C1267 1.379 . S
C1262 N1269 1.356 . S
C1263 C1262 1.363 . S
C1263 C1266 1.363 . S
N1264 C1266 1.356 . S
N1264 H1276 0.984 . S
N1264 H1277 0.985 . S
N1265 C1267 1.356 . S
N1265 H1270 0.984 . S
N1265 H1271 0.985 . S
C1266 C1260 1.379 . S
C1266 C1263 1.363 . S
C1266 N1264 1.356 . S
C1267 C1261 1.363 . S
C1267 C1262 1.379 . S
C1267 N1265 1.356 . S
N1268 C1260 1.356 . S
N1268 H1274 0.984 . S
N1268 H1275 0.984 . S
N1269 C1262 1.356 . S
N1269 H1272 0.984 . S
N1269 H1273 0.985 . S
H1270 N1265 0.984 . S
H1271 N1265 0.985 . S
H1272 N1269 0.984 . S
H1273 N1269 0.985 . S
H1274 N1268 0.984 . S
H1275 N1268 0.984 . S
H1276 N1264 0.984 . S
H1277 N1264 0.985 . S
C1278 C1279 1.363 . S
C1278 C1284 1.379 . S
C1278 N1286 1.356 . S
C1279 C1278 1.363 . S
C1279 C1285 1.363 . S
C1280 C1281 1.363 . S
C1280 C1285 1.379 . S
C1280 N1287 1.356 . S
C1281 C1280 1.363 . S
C1281 C1284 1.363 . S
N1282 C1284 1.356 . S
N1282 H1294 0.984 . S
N1282 H1295 0.985 . S
N1283 C1285 1.356 . S
N1283 H1288 0.984 . S
N1283 H1289 0.985 . S
C1284 C1278 1.379 . S
C1284 C1281 1.363 . S
C1284 N1282 1.356 . S
C1285 C1279 1.363 . S
C1285 C1280 1.379 . S
C1285 N1283 1.356 . S
N1286 C1278 1.356 . S
N1286 H1292 0.984 . S
N1286 H1293 0.984 . S
N1287 C1280 1.356 . S
N1287 H1290 0.984 . S
N1287 H1291 0.985 . S
H1288 N1283 0.984 . S
H1289 N1283 0.985 . S
H1290 N1287 0.984 . S
H1291 N1287 0.985 . S
H1292 N1286 0.984 . S
H1293 N1286 0.984 . S
H1294 N1282 0.984 . S
H1295 N1282 0.985 . S
C1296 C1297 1.363 . S
C1296 C1302 1.379 . S
C1296 N1304 1.356 . S
C1297 C1296 1.363 . S
C1297 C1303 1.363 . S
C1298 C1299 1.363 . S
C1298 C1303 1.379 . S
C1298 N1305 1.356 . S
C1299 C1298 1.363 . S
C1299 C1302 1.363 . S
N1300 C1302 1.356 . S
N1300 H1312 0.984 1_455 S
N1300 H1313 0.985 1_455 S
N1301 C1303 1.356 . S
N1301 H1306 0.984 . S
N1301 H1307 0.985 . S
C1302 C1296 1.379 . S
C1302 C1299 1.363 . S
C1302 N1300 1.356 . S
C1303 C1297 1.363 . S
C1303 C1298 1.379 . S
C1303 N1301 1.356 . S
N1304 C1296 1.356 . S
N1304 H1310 0.984 . S
N1304 H1311 0.984 . S
N1305 C1298 1.356 . S
N1305 H1308 0.984 . S
N1305 H1309 0.985 . S
H1306 N1301 0.984 . S
H1307 N1301 0.985 . S
H1308 N1305 0.984 . S
H1309 N1305 0.985 . S
H1310 N1304 0.984 . S
H1311 N1304 0.984 . S
H1312 N1300 0.984 1_655 S
H1313 N1300 0.985 1_655 S
C1314 C1315 1.363 . S
C1314 C1320 1.379 . S
C1314 N1322 1.356 . S
C1315 C1314 1.363 . S
C1315 C1321 1.363 . S
C1316 C1317 1.363 . S
C1316 C1321 1.379 . S
C1316 N1323 1.356 . S
C1317 C1316 1.363 . S
C1317 C1320 1.363 . S
N1318 C1320 1.356 . S
N1318 H1330 0.984 . S
N1318 H1331 0.985 . S
N1319 C1321 1.356 . S
N1319 H1324 0.984 . S
N1319 H1325 0.985 . S
C1320 C1314 1.379 . S
C1320 C1317 1.363 . S
C1320 N1318 1.356 . S
C1321 C1315 1.363 . S
C1321 C1316 1.379 . S
C1321 N1319 1.356 . S
N1322 C1314 1.356 . S
N1322 H1328 0.984 . S
N1322 H1329 0.984 . S
N1323 C1316 1.356 . S
N1323 H1326 0.984 . S
N1323 H1327 0.985 . S
H1324 N1319 0.984 . S
H1325 N1319 0.985 . S
H1326 N1323 0.984 . S
H1327 N1323 0.985 . S
H1328 N1322 0.984 . S
H1329 N1322 0.984 . S
H1330 N1318 0.984 . S
H1331 N1318 0.985 . S
C1332 C1333 1.391 . S
C1332 C1338 1.379 . S
C1332 N1340 1.356 . S
C1333 C1332 1.391 . S
C1333 C1339 1.350 1_545 S
C1334 C1335 1.363 1_565 S
C1334 C1339 1.379 . S
C1334 N1341 1.356 . S
C1335 C1334 1.363 1_545 S
C1335 C1338 1.363 . S
N1336 C1338 1.356 . S
N1336 H1348 0.984 . S
N1336 H1349 0.985 . S
N1337 C1339 1.356 . S
N1337 H1342 0.984 . S
N1337 H1343 0.985 . S
C1338 C1332 1.379 . S
C1338 C1335 1.363 . S
C1338 N1336 1.356 . S
C1339 C1333 1.350 1_565 S
C1339 C1334 1.379 . S
C1339 N1337 1.356 . S
N1340 C1332 1.356 . S
N1340 H1346 0.984 . S
N1340 H1347 0.984 . S
N1341 C1334 1.356 . S
N1341 H1344 0.984 . S
N1341 H1345 0.985 . S
H1342 N1337 0.984 . S
H1343 N1337 0.985 . S
H1344 N1341 0.984 . S
H1345 N1341 0.985 . S
H1346 N1340 0.984 . S
H1347 N1340 0.984 . S
H1348 N1336 0.984 . S
H1349 N1336 0.985 . S
C1350 C1351 1.363 . S
C1350 C1356 1.379 . S
C1350 N1358 1.356 . S
C1351 C1350 1.363 . S
C1351 C1357 1.363 . S
C1352 C1353 1.363 . S
C1352 C1357 1.379 . S
C1352 N1359 1.356 1_545 S
C1353 C1352 1.363 . S
C1353 C1356 1.363 . S
N1354 C1356 1.356 . S
N1354 H1366 0.984 . S
N1354 H1367 0.985 . S
N1355 C1357 1.356 . S
N1355 H1360 0.984 . S
N1355 H1361 0.985 1_545 S
C1356 C1350 1.379 . S
C1356 C1353 1.363 . S
C1356 N1354 1.356 . S
C1357 C1351 1.363 . S
C1357 C1352 1.379 . S
C1357 N1355 1.356 . S
N1358 C1350 1.356 . S
N1358 H1364 0.984 . S
N1358 H1365 0.984 . S
N1359 C1352 1.356 1_565 S
N1359 H1362 0.984 . S
N1359 H1363 0.985 . S
H1360 N1355 0.984 . S
H1361 N1355 0.985 1_565 S
H1362 N1359 0.984 . S
H1363 N1359 0.985 . S
H1364 N1358 0.984 . S
H1365 N1358 0.984 . S
H1366 N1354 0.984 . S
H1367 N1354 0.985 . S
C1368 C1369 1.379 . S
C1368 C1374 1.398 . S
C1368 N1376 1.323 1_455 S
C1369 C1368 1.379 . S
C1369 C1375 1.363 . S
C1370 C1371 1.363 . S
C1370 C1375 1.379 . S
C1370 N1377 1.356 . S
C1371 C1370 1.363 . S
C1371 C1374 1.363 . S
N1372 C1374 1.356 1_655 S
N1372 H1384 0.984 . S
N1372 H1385 0.985 . S
N1373 C1375 1.356 . S
N1373 H1378 0.984 . S
N1373 H1379 0.985 . S
C1374 C1368 1.398 . S
C1374 C1371 1.363 . S
C1374 N1372 1.356 1_455 S
C1375 C1369 1.363 . S
C1375 C1370 1.379 . S
C1375 N1373 1.356 . S
N1376 C1368 1.323 1_655 S
N1376 H1382 0.984 . S
N1376 H1383 0.984 . S
N1377 C1370 1.356 . S
N1377 H1380 0.984 . S
N1377 H1381 0.985 . S
H1378 N1373 0.984 . S
H1379 N1373 0.985 . S
H1380 N1377 0.984 . S
H1381 N1377 0.985 . S
H1382 N1376 0.984 . S
H1383 N1376 0.984 . S
H1384 N1372 0.984 . S
H1385 N1372 0.985 . S
C1386 C1387 1.363 . S
C1386 C1392 1.379 . S
C1386 N1394 1.356 . S
C1387 C1386 1.363 . S
C1387 C1393 1.363 . S
C1388 C1389 1.363 . S
C1388 C1393 1.379 . S
C1388 N1395 1.356 . S
C1389 C1388 1.363 . S
C1389 C1392 1.363 . S
N1390 C1392 1.356 . S
N1390 H1402 0.984 . S
N1390 H1403 0.985 . S
N1391 C1393 1.356 . S
N1391 H1396 0.984 . S
N1391 H1397 0.985 . S
C1392 C1386 1.379 . S
C1392 C1389 1.363 . S
C1392 N1390 1.356 . S
C1393 C1387 1.363 . S
C1393 C1388 1.379 . S
C1393 N1391 1.356 . S
N1394 C1386 1.356 . S
N1394 H1400 0.984 . S
N1394 H1401 0.984 . S
N1395 C1388 1.356 . S
N1395 H1398 0.984 . S
N1395 H1399 0.985 . S
H1396 N1391 0.984 . S
H1397 N1391 0.985 . S
H1398 N1395 0.984 . S
H1399 N1395 0.985 . S
H1400 N1394 0.984 . S
H1401 N1394 0.984 . S
H1402 N1390 0.984 . S
H1403 N1390 0.985 . S
C1404 C1405 1.363 . S
C1404 C1410 1.379 . S
C1404 N1412 1.356 . S
C1405 C1404 1.363 . S
C1405 C1411 1.363 . S
C1406 C1407 1.363 . S
C1406 C1411 1.379 . S
C1406 N1413 1.356 . S
C1407 C1406 1.363 . S
C1407 C1410 1.363 . S
N1408 C1410 1.356 . S
N1408 H1420 0.984 . S
N1408 H1421 0.985 . S
N1409 C1411 1.356 . S
N1409 H1414 0.984 . S
N1409 H1415 0.985 . S
C1410 C1404 1.379 . S
C1410 C1407 1.363 . S
C1410 N1408 1.356 . S
C1411 C1405 1.363 . S
C1411 C1406 1.379 . S
C1411 N1409 1.356 . S
N1412 C1404 1.356 . S
N1412 H1418 0.984 . S
N1412 H1419 0.984 . S
N1413 C1406 1.356 . S
N1413 H1416 0.984 1_455 S
N1413 H1417 0.985 1_455 S
H1414 N1409 0.984 . S
H1415 N1409 0.985 . S
H1416 N1413 0.984 1_655 S
H1417 N1413 0.985 1_655 S
H1418 N1412 0.984 . S
H1419 N1412 0.984 . S
H1420 N1408 0.984 . S
H1421 N1408 0.985 . S
C1422 C1423 1.363 . S
C1422 C1428 1.379 . S
C1422 N1430 1.356 . S
C1423 C1422 1.363 . S
C1423 C1429 1.363 . S
C1424 C1425 1.363 . S
C1424 C1429 1.379 . S
C1424 N1431 1.356 . S
C1425 C1424 1.363 . S
C1425 C1428 1.363 . S
N1426 C1428 1.356 . S
N1426 H1438 0.984 . S
N1426 H1439 0.985 . S
N1427 C1429 1.356 . S
N1427 H1432 0.984 . S
N1427 H1433 0.985 . S
C1428 C1422 1.379 . S
C1428 C1425 1.363 . S
C1428 N1426 1.356 . S
C1429 C1423 1.363 . S
C1429 C1424 1.379 . S
C1429 N1427 1.356 . S
N1430 C1422 1.356 . S
N1430 H1436 0.984 . S
N1430 H1437 0.984 . S
N1431 C1424 1.356 . S
N1431 H1434 0.984 . S
N1431 H1435 0.985 . S
H1432 N1427 0.984 . S
H1433 N1427 0.985 . S
H1434 N1431 0.984 . S
H1435 N1431 0.985 . S
H1436 N1430 0.984 . S
H1437 N1430 0.984 . S
H1438 N1426 0.984 . S
H1439 N1426 0.985 . S
C1440 C1441 1.363 . S
C1440 C1446 1.379 . S
C1440 N1448 1.356 1_545 S
C1441 C1440 1.363 . S
C1441 C1447 1.363 . S
C1442 C1443 1.363 . S
C1442 C1447 1.379 . S
C1442 N1449 1.356 . S
C1443 C1442 1.363 . S
C1443 C1446 1.363 . S
N1444 C1446 1.356 . S
N1444 H1456 0.984 . S
N1444 H1457 0.985 . S
N1445 C1447 1.356 . S
N1445 H1450 0.984 . S
N1445 H1451 0.985 . S
C1446 C1440 1.379 . S
C1446 C1443 1.363 . S
C1446 N1444 1.356 . S
C1447 C1441 1.363 . S
C1447 C1442 1.379 . S
C1447 N1445 1.356 . S
N1448 C1440 1.356 1_565 S
N1448 H1454 0.984 . S
N1448 H1455 0.984 . S
N1449 C1442 1.356 . S
N1449 H1452 0.984 . S
N1449 H1453 0.985 . S
H1450 N1445 0.984 . S
H1451 N1445 0.985 . S
H1452 N1449 0.984 . S
H1453 N1449 0.985 . S
H1454 N1448 0.984 . S
H1455 N1448 0.984 . S
H1456 N1444 0.984 . S
H1457 N1444 0.985 . S
C1458 C1459 1.363 . S
C1458 C1464 1.379 . S
C1458 N1466 1.356 . S
C1459 C1458 1.363 . S
C1459 C1465 1.363 . S
C1460 C1461 1.363 . S
C1460 C1465 1.379 . S
C1460 N1467 1.356 . S
C1461 C1460 1.363 . S
C1461 C1464 1.363 . S
N1462 C1464 1.356 . S
N1462 H1474 0.984 . S
N1462 H1475 0.985 . S
N1463 C1465 1.356 . S
N1463 H1468 0.984 . S
N1463 H1469 0.985 . S
C1464 C1458 1.379 . S
C1464 C1461 1.363 . S
C1464 N1462 1.356 . S
C1465 C1459 1.363 . S
C1465 C1460 1.379 . S
C1465 N1463 1.356 . S
N1466 C1458 1.356 . S
N1466 H1472 0.984 . S
N1466 H1473 0.984 . S
N1467 C1460 1.356 . S
N1467 H1470 0.984 . S
N1467 H1471 0.985 . S
H1468 N1463 0.984 . S
H1469 N1463 0.985 . S
H1470 N1467 0.984 . S
H1471 N1467 0.985 . S
H1472 N1466 0.984 . S
H1473 N1466 0.984 . S
H1474 N1462 0.984 . S
H1475 N1462 0.985 . S
C1476 C1477 1.363 . S
C1476 C1482 1.379 . S
C1476 N1484 1.356 . S
C1477 C1476 1.363 . S
C1477 C1483 1.363 1_455 S
C1478 C1479 1.363 1_655 S
C1478 C1483 1.379 . S
C1478 N1485 1.356 . S
C1479 C1478 1.363 1_455 S
C1479 C1482 1.363 . S
N1480 C1482 1.356 . S
N1480 H1492 0.984 . S
N1480 H1493 0.985 . S
N1481 C1483 1.356 . S
N1481 H1486 0.984 . S
N1481 H1487 0.985 . S
C1482 C1476 1.379 . S
C1482 C1479 1.363 . S
C1482 N1480 1.356 . S
C1483 C1477 1.363 1_655 S
C1483 C1478 1.379 . S
C1483 N1481 1.356 . S
N1484 C1476 1.356 . S
N1484 H1490 0.984 . S
N1484 H1491 0.984 . S
N1485 C1478 1.356 . S
N1485 H1488 0.984 . S
N1485 H1489 0.985 . S
H1486 N1481 0.984 . S
H1487 N1481 0.985 . S
H1488 N1485 0.984 . S
H1489 N1485 0.985 . S
H1490 N1484 0.984 . S
H1491 N1484 0.984 . S
H1492 N1480 0.984 . S
H1493 N1480 0.985 . S
C1494 C1495 1.363 . S
C1494 C1500 1.379 . S
C1494 N1502 1.356 . S
C1495 C1494 1.363 . S
C1495 C1501 1.363 . S
C1496 C1497 1.363 . S
C1496 C1501 1.379 . S
C1496 N1503 1.356 . S
C1497 C1496 1.363 . S
C1497 C1500 1.363 . S
N1498 C1500 1.356 . S
N1498 H1510 0.984 . S
N1498 H1511 0.985 . S
N1499 C1501 1.356 . S
N1499 H1504 0.984 . S
N1499 H1505 0.985 . S
C1500 C1494 1.379 . S
C1500 C1497 1.363 . S
C1500 N1498 1.356 . S
C1501 C1495 1.363 . S
C1501 C1496 1.379 . S
C1501 N1499 1.356 . S
N1502 C1494 1.356 . S
N1502 H1508 0.984 . S
N1502 H1509 0.984 . S
N1503 C1496 1.356 . S
N1503 H1506 0.984 . S
N1503 H1507 0.985 . S
H1504 N1499 0.984 . S
H1505 N1499 0.985 . S
H1506 N1503 0.984 . S
H1507 N1503 0.985 . S
H1508 N1502 0.984 . S
H1509 N1502 0.984 . S
H1510 N1498 0.984 . S
H1511 N1498 0.985 . S
C1512 C1513 1.363 . S
C1512 C1518 1.379 . S
C1512 N1520 1.356 . S
C1513 C1512 1.363 . S
C1513 C1519 1.363 . S
C1514 C1515 1.363 . S
C1514 C1519 1.379 . S
C1514 N1521 1.356 . S
C1515 C1514 1.363 . S
C1515 C1518 1.363 . S
N1516 C1518 1.356 . S
N1516 H1528 0.984 . S
N1516 H1529 0.985 . S
N1517 C1519 1.356 . S
N1517 H1522 0.984 . S
N1517 H1523 0.985 . S
C1518 C1512 1.379 . S
C1518 C1515 1.363 . S
C1518 N1516 1.356 . S
C1519 C1513 1.363 . S
C1519 C1514 1.379 . S
C1519 N1517 1.356 . S
N1520 C1512 1.356 . S
N1520 H1526 0.984 . S
N1520 H1527 0.984 . S
N1521 C1514 1.356 . S
N1521 H1524 0.984 . S
N1521 H1525 0.985 . S
H1522 N1517 0.984 . S
H1523 N1517 0.985 . S
H1524 N1521 0.984 . S
H1525 N1521 0.985 . S
H1526 N1520 0.984 . S
H1527 N1520 0.984 . S
H1528 N1516 0.984 . S
H1529 N1516 0.985 . S
C1530 C1531 1.363 . S
C1530 C1536 1.379 . S
C1530 N1538 1.356 . S
C1531 C1530 1.363 . S
C1531 C1537 1.363 . S
C1532 C1533 1.363 . S
C1532 C1537 1.379 . S
C1532 N1539 1.356 . S
C1533 C1532 1.363 . S
C1533 C1536 1.363 . S
N1534 C1536 1.356 . S
N1534 H1546 0.984 . S
N1534 H1547 0.985 . S
N1535 C1537 1.356 . S
N1535 H1540 0.984 . S
N1535 H1541 0.985 . S
C1536 C1530 1.379 . S
C1536 C1533 1.363 . S
C1536 N1534 1.356 . S
C1537 C1531 1.363 . S
C1537 C1532 1.379 . S
C1537 N1535 1.356 . S
N1538 C1530 1.356 . S
N1538 H1544 0.984 . S
N1538 H1545 0.984 . S
N1539 C1532 1.356 . S
N1539 H1542 0.984 . S
N1539 H1543 0.985 . S
H1540 N1535 0.984 . S
H1541 N1535 0.985 . S
H1542 N1539 0.984 . S
H1543 N1539 0.985 . S
H1544 N1538 0.984 . S
H1545 N1538 0.984 . S
H1546 N1534 0.984 . S
H1547 N1534 0.985 . S
C1548 C1549 1.363 . S
C1548 C1554 1.379 . S
C1548 N1556 1.356 . S
C1549 C1548 1.363 . S
C1549 C1555 1.363 . S
C1550 C1551 1.363 . S
C1550 C1555 1.379 . S
C1550 N1557 1.356 . S
C1551 C1550 1.363 . S
C1551 C1554 1.363 . S
N1552 C1554 1.356 . S
N1552 H1564 0.984 . S
N1552 H1565 0.985 . S
N1553 C1555 1.356 . S
N1553 H1558 0.984 . S
N1553 H1559 0.985 . S
C1554 C1548 1.379 . S
C1554 C1551 1.363 . S
C1554 N1552 1.356 . S
C1555 C1549 1.363 . S
C1555 C1550 1.379 . S
C1555 N1553 1.356 . S
N1556 C1548 1.356 . S
N1556 H1562 0.984 . S
N1556 H1563 0.984 . S
N1557 C1550 1.356 . S
N1557 H1560 0.984 . S
N1557 H1561 0.985 . S
H1558 N1553 0.984 . S
H1559 N1553 0.985 . S
H1560 N1557 0.984 . S
H1561 N1557 0.985 . S
H1562 N1556 0.984 . S
H1563 N1556 0.984 . S
H1564 N1552 0.984 . S
H1565 N1552 0.985 . S
C1566 C1567 1.363 . S
C1566 C1572 1.379 1_556 S
C1566 N1574 1.356 . S
C1567 C1566 1.363 . S
C1567 C1573 1.363 . S
C1568 C1569 1.363 1_556 S
C1568 C1573 1.379 . S
C1568 N1575 1.356 . S
C1569 C1568 1.363 1_554 S
C1569 C1572 1.363 . S
N1570 C1572 1.356 . S
N1570 H1582 0.984 . S
N1570 H1583 0.985 . S
N1571 C1573 1.356 . S
N1571 H1576 0.984 . S
N1571 H1577 0.985 . S
C1572 C1566 1.379 1_554 S
C1572 C1569 1.363 . S
C1572 N1570 1.356 . S
C1573 C1567 1.363 . S
C1573 C1568 1.379 . S
C1573 N1571 1.356 . S
N1574 C1566 1.356 . S
N1574 H1580 0.984 . S
N1574 H1581 0.984 . S
N1575 C1568 1.356 . S
N1575 H1578 0.984 1_556 S
N1575 H1579 0.985 . S
H1576 N1571 0.984 . S
H1577 N1571 0.985 . S
H1578 N1575 0.984 1_554 S
H1579 N1575 0.985 . S
H1580 N1574 0.984 . S
H1581 N1574 0.984 . S
H1582 N1570 0.984 . S
H1583 N1570 0.985 . S
C1584 C1585 1.363 . S
C1584 C1590 1.379 . S
C1584 N1592 1.356 . S
C1585 C1584 1.363 . S
C1585 C1591 1.363 . S
C1586 C1587 1.363 . S
C1586 C1591 1.379 . S
C1586 N1593 1.356 . S
C1587 C1586 1.363 . S
C1587 C1590 1.363 . S
N1588 C1590 1.356 . S
N1588 H1600 0.984 . S
N1588 H1601 0.985 1_556 S
N1589 C1591 1.356 . S
N1589 H1594 0.984 . S
N1589 H1595 0.985 . S
C1590 C1584 1.379 . S
C1590 C1587 1.363 . S
C1590 N1588 1.356 . S
C1591 C1585 1.363 . S
C1591 C1586 1.379 . S
C1591 N1589 1.356 . S
N1592 C1584 1.356 . S
N1592 H1598 0.984 . S
N1592 H1599 0.984 . S
N1593 C1586 1.356 . S
N1593 H1596 0.984 1_556 S
N1593 H1597 0.985 . S
H1594 N1589 0.984 . S
H1595 N1589 0.985 . S
H1596 N1593 0.984 1_554 S
H1597 N1593 0.985 . S
H1598 N1592 0.984 . S
H1599 N1592 0.984 . S
H1600 N1588 0.984 . S
H1601 N1588 0.985 1_554 S
C1602 C1603 1.363 . S
C1602 C1608 1.379 . S
C1602 N1610 1.356 . S
C1603 C1602 1.363 . S
C1603 C1609 1.363 . S
C1604 C1605 1.363 . S
C1604 C1609 1.379 1_554 S
C1604 N1611 1.356 . S
C1605 C1604 1.363 . S
C1605 C1608 1.363 1_554 S
N1606 C1608 1.356 . S
N1606 H1618 0.984 1_565 S
N1606 H1619 0.985 1_556 S
N1607 C1609 1.356 . S
N1607 H1612 0.984 . S
N1607 H1613 0.985 . S
C1608 C1602 1.379 . S
C1608 C1605 1.363 1_556 S
C1608 N1606 1.356 . S
C1609 C1603 1.363 . S
C1609 C1604 1.379 1_556 S
C1609 N1607 1.356 . S
N1610 C1602 1.356 . S
N1610 H1616 0.984 . S
N1610 H1617 0.984 . S
N1611 C1604 1.356 . S
N1611 H1614 0.984 . S
N1611 H1615 0.985 . S
H1612 N1607 0.984 . S
H1613 N1607 0.985 . S
H1614 N1611 0.984 . S
H1615 N1611 0.985 . S
H1616 N1610 0.984 . S
H1617 N1610 0.984 . S
H1618 N1606 0.984 1_545 S
H1619 N1606 0.985 1_554 S
C1620 C1621 1.363 . S
C1620 C1626 1.379 . S
C1620 N1628 1.356 . S
C1621 C1620 1.363 . S
C1621 C1627 1.363 . S
C1622 C1623 1.363 . S
C1622 C1627 1.379 . S
C1622 N1629 1.356 1_565 S
C1623 C1622 1.363 . S
C1623 C1626 1.363 . S
N1624 C1626 1.356 . S
N1624 H1636 0.984 . S
N1624 H1637 0.985 . S
N1625 C1627 1.356 . S
N1625 H1630 0.984 . S
N1625 H1631 0.985 1_565 S
C1626 C1620 1.379 . S
C1626 C1623 1.363 . S
C1626 N1624 1.356 . S
C1627 C1621 1.363 . S
C1627 C1622 1.379 . S
C1627 N1625 1.356 . S
N1628 C1620 1.356 . S
N1628 H1634 0.984 . S
N1628 H1635 0.984 . S
N1629 C1622 1.356 1_545 S
N1629 H1632 0.984 . S
N1629 H1633 0.985 . S
H1630 N1625 0.984 . S
H1631 N1625 0.985 1_545 S
H1632 N1629 0.984 . S
H1633 N1629 0.985 . S
H1634 N1628 0.984 . S
H1635 N1628 0.984 . S
H1636 N1624 0.984 . S
H1637 N1624 0.985 . S
C1638 C1639 1.363 . S
C1638 C1644 1.379 . S
C1638 N1646 1.356 . S
C1639 C1638 1.363 . S
C1639 C1645 1.363 . S
C1640 C1641 1.363 . S
C1640 C1645 1.379 . S
C1640 N1647 1.356 . S
C1641 C1640 1.363 . S
C1641 C1644 1.363 . S
N1642 C1644 1.356 . S
N1642 H1654 0.984 . S
N1642 H1655 0.985 . S
N1643 C1645 1.356 . S
N1643 H1648 0.984 . S
N1643 H1649 0.985 . S
C1644 C1638 1.379 . S
C1644 C1641 1.363 . S
C1644 N1642 1.356 . S
C1645 C1639 1.363 . S
C1645 C1640 1.379 . S
C1645 N1643 1.356 . S
N1646 C1638 1.356 . S
N1646 H1652 0.984 . S
N1646 H1653 0.984 . S
N1647 C1640 1.356 . S
N1647 H1650 0.984 . S
N1647 H1651 0.985 . S
H1648 N1643 0.984 . S
H1649 N1643 0.985 . S
H1650 N1647 0.984 . S
H1651 N1647 0.985 . S
H1652 N1646 0.984 . S
H1653 N1646 0.984 . S
H1654 N1642 0.984 . S
H1655 N1642 0.985 . S
C1656 C1657 1.363 . S
C1656 C1662 1.379 . S
C1656 N1664 1.356 . S
C1657 C1656 1.363 . S
C1657 C1663 1.363 . S
C1658 C1659 1.363 . S
C1658 C1663 1.379 . S
C1658 N1665 1.356 . S
C1659 C1658 1.363 . S
C1659 C1662 1.363 . S
N1660 C1662 1.356 . S
N1660 H1672 0.984 . S
N1660 H1673 0.985 . S
N1661 C1663 1.356 . S
N1661 H1666 0.984 . S
N1661 H1667 0.985 . S
C1662 C1656 1.379 . S
C1662 C1659 1.363 . S
C1662 N1660 1.356 . S
C1663 C1657 1.363 . S
C1663 C1658 1.379 . S
C1663 N1661 1.356 . S
N1664 C1656 1.356 . S
N1664 H1670 0.984 . S
N1664 H1671 0.984 . S
N1665 C1658 1.356 . S
N1665 H1668 0.984 . S
N1665 H1669 0.985 . S
H1666 N1661 0.984 . S
H1667 N1661 0.985 . S
H1668 N1665 0.984 . S
H1669 N1665 0.985 . S
H1670 N1664 0.984 . S
H1671 N1664 0.984 . S
H1672 N1660 0.984 . S
H1673 N1660 0.985 . S
C1674 C1675 1.363 . S
C1674 C1680 1.379 . S
C1674 N1682 1.356 . S
C1675 C1674 1.363 . S
C1675 C1681 1.363 . S
C1676 C1677 1.363 . S
C1676 C1681 1.379 . S
C1676 N1683 1.356 . S
C1677 C1676 1.363 . S
C1677 C1680 1.363 . S
N1678 C1680 1.356 . S
N1678 H1690 0.984 . S
N1678 H1691 0.985 . S
N1679 C1681 1.356 . S
N1679 H1684 0.984 . S
N1679 H1685 0.985 . S
C1680 C1674 1.379 . S
C1680 C1677 1.363 . S
C1680 N1678 1.356 . S
C1681 C1675 1.363 . S
C1681 C1676 1.379 . S
C1681 N1679 1.356 . S
N1682 C1674 1.356 . S
N1682 H1688 0.984 . S
N1682 H1689 0.984 . S
N1683 C1676 1.356 . S
N1683 H1686 0.984 . S
N1683 H1687 0.985 . S
H1684 N1679 0.984 . S
H1685 N1679 0.985 . S
H1686 N1683 0.984 . S
H1687 N1683 0.985 . S
H1688 N1682 0.984 . S
H1689 N1682 0.984 . S
H1690 N1678 0.984 . S
H1691 N1678 0.985 . S
C1692 C1693 1.363 . S
C1692 C1698 1.379 . S
C1692 N1700 1.356 . S
C1693 C1692 1.363 . S
C1693 C1699 1.363 . S
C1694 C1695 1.363 . S
C1694 C1699 1.379 . S
C1694 N1701 1.356 . S
C1695 C1694 1.363 . S
C1695 C1698 1.363 . S
N1696 C1698 1.356 . S
N1696 H1708 0.984 . S
N1696 H1709 0.985 . S
N1697 C1699 1.356 . S
N1697 H1702 0.984 . S
N1697 H1703 0.985 . S
C1698 C1692 1.379 . S
C1698 C1695 1.363 . S
C1698 N1696 1.356 . S
C1699 C1693 1.363 . S
C1699 C1694 1.379 . S
C1699 N1697 1.356 . S
N1700 C1692 1.356 . S
N1700 H1706 0.984 . S
N1700 H1707 0.984 . S
N1701 C1694 1.356 . S
N1701 H1704 0.984 . S
N1701 H1705 0.985 . S
H1702 N1697 0.984 . S
H1703 N1697 0.985 . S
H1704 N1701 0.984 . S
H1705 N1701 0.985 . S
H1706 N1700 0.984 . S
H1707 N1700 0.984 . S
H1708 N1696 0.984 . S
H1709 N1696 0.985 . S
C1710 C1711 1.363 . S
C1710 C1716 1.379 . S
C1710 N1718 1.356 . S
C1711 C1710 1.363 . S
C1711 C1717 1.363 . S
C1712 C1713 1.363 . S
C1712 C1717 1.379 . S
C1712 N1719 1.356 . S
C1713 C1712 1.363 . S
C1713 C1716 1.363 . S
N1714 C1716 1.356 . S
N1714 H1726 0.984 . S
N1714 H1727 0.985 . S
N1715 C1717 1.356 . S
N1715 H1720 0.984 . S
N1715 H1721 0.985 . S
C1716 C1710 1.379 . S
C1716 C1713 1.363 . S
C1716 N1714 1.356 . S
C1717 C1711 1.363 . S
C1717 C1712 1.379 . S
C1717 N1715 1.356 . S
N1718 C1710 1.356 . S
N1718 H1724 0.984 . S
N1718 H1725 0.984 . S
N1719 C1712 1.356 . S
N1719 H1722 0.984 . S
N1719 H1723 0.985 . S
H1720 N1715 0.984 . S
H1721 N1715 0.985 . S
H1722 N1719 0.984 . S
H1723 N1719 0.985 . S
H1724 N1718 0.984 . S
H1725 N1718 0.984 . S
H1726 N1714 0.984 . S
H1727 N1714 0.985 . S
C1728 C1729 1.363 . S
C1728 C1734 1.379 . S
C1728 N1736 1.356 . S
C1729 C1728 1.363 . S
C1729 C1735 1.363 . S
C1730 C1731 1.363 . S
C1730 C1735 1.379 . S
C1730 N1737 1.356 . S
C1731 C1730 1.363 . S
C1731 C1734 1.363 . S
N1732 C1734 1.356 . S
N1732 H1744 0.984 . S
N1732 H1745 0.985 . S
N1733 C1735 1.356 . S
N1733 H1738 0.984 . S
N1733 H1739 0.985 . S
C1734 C1728 1.379 . S
C1734 C1731 1.363 . S
C1734 N1732 1.356 . S
C1735 C1729 1.363 . S
C1735 C1730 1.379 . S
C1735 N1733 1.356 . S
N1736 C1728 1.356 . S
N1736 H1742 0.984 . S
N1736 H1743 0.984 . S
N1737 C1730 1.356 . S
N1737 H1740 0.984 . S
N1737 H1741 0.985 . S
H1738 N1733 0.984 . S
H1739 N1733 0.985 . S
H1740 N1737 0.984 . S
H1741 N1737 0.985 . S
H1742 N1736 0.984 . S
H1743 N1736 0.984 . S
H1744 N1732 0.984 . S
H1745 N1732 0.985 . S
C1746 C1747 1.363 . S
C1746 C1752 1.379 . S
C1746 N1754 1.356 . S
C1747 C1746 1.363 . S
C1747 C1753 1.363 . S
C1748 C1749 1.363 . S
C1748 C1753 1.379 . S
C1748 N1755 1.356 . S
C1749 C1748 1.363 . S
C1749 C1752 1.363 . S
N1750 C1752 1.356 . S
N1750 H1762 0.984 . S
N1750 H1763 0.985 . S
N1751 C1753 1.356 . S
N1751 H1756 0.984 . S
N1751 H1757 0.985 . S
C1752 C1746 1.379 . S
C1752 C1749 1.363 . S
C1752 N1750 1.356 . S
C1753 C1747 1.363 . S
C1753 C1748 1.379 . S
C1753 N1751 1.356 . S
N1754 C1746 1.356 . S
N1754 H1760 0.984 . S
N1754 H1761 0.984 . S
N1755 C1748 1.356 . S
N1755 H1758 0.984 . S
N1755 H1759 0.985 . S
H1756 N1751 0.984 . S
H1757 N1751 0.985 . S
H1758 N1755 0.984 . S
H1759 N1755 0.985 . S
H1760 N1754 0.984 . S
H1761 N1754 0.984 . S
H1762 N1750 0.984 . S
H1763 N1750 0.985 . S
C1764 C1765 1.363 . S
C1764 C1770 1.379 . S
C1764 N1772 1.356 . S
C1765 C1764 1.363 . S
C1765 C1771 1.363 . S
C1766 C1767 1.363 . S
C1766 C1771 1.379 . S
C1766 N1773 1.356 . S
C1767 C1766 1.363 . S
C1767 C1770 1.363 . S
N1768 C1770 1.356 . S
N1768 H1780 0.984 . S
N1768 H1781 0.985 . S
N1769 C1771 1.356 . S
N1769 H1774 0.984 . S
N1769 H1775 0.985 . S
C1770 C1764 1.379 . S
C1770 C1767 1.363 . S
C1770 N1768 1.356 . S
C1771 C1765 1.363 . S
C1771 C1766 1.379 . S
C1771 N1769 1.356 . S
N1772 C1764 1.356 . S
N1772 H1778 0.984 . S
N1772 H1779 0.984 . S
N1773 C1766 1.356 . S
N1773 H1776 0.984 . S
N1773 H1777 0.985 . S
H1774 N1769 0.984 . S
H1775 N1769 0.985 . S
H1776 N1773 0.984 . S
H1777 N1773 0.985 . S
H1778 N1772 0.984 . S
H1779 N1772 0.984 . S
H1780 N1768 0.984 . S
H1781 N1768 0.985 . S
C1782 C1783 1.363 . S
C1782 C1788 1.379 . S
C1782 N1790 1.356 . S
C1783 C1782 1.363 . S
C1783 C1789 1.363 . S
C1784 C1785 1.363 . S
C1784 C1789 1.379 . S
C1784 N1791 1.356 . S
C1785 C1784 1.363 . S
C1785 C1788 1.363 . S
N1786 C1788 1.356 . S
N1786 H1798 0.984 . S
N1786 H1799 0.985 . S
N1787 C1789 1.356 . S
N1787 H1792 0.984 . S
N1787 H1793 0.985 . S
C1788 C1782 1.379 . S
C1788 C1785 1.363 . S
C1788 N1786 1.356 . S
C1789 C1783 1.363 . S
C1789 C1784 1.379 . S
C1789 N1787 1.356 . S
N1790 C1782 1.356 . S
N1790 H1796 0.984 . S
N1790 H1797 0.984 . S
N1791 C1784 1.356 . S
N1791 H1794 0.984 . S
N1791 H1795 0.985 . S
H1792 N1787 0.984 . S
H1793 N1787 0.985 . S
H1794 N1791 0.984 . S
H1795 N1791 0.985 . S
H1796 N1790 0.984 . S
H1797 N1790 0.984 . S
H1798 N1786 0.984 . S
H1799 N1786 0.985 . S
C1800 C1801 1.363 . S
C1800 C1806 1.379 . S
C1800 N1808 1.356 . S
C1801 C1800 1.363 . S
C1801 C1807 1.363 . S
C1802 C1803 1.363 . S
C1802 C1807 1.379 . S
C1802 N1809 1.356 . S
C1803 C1802 1.363 . S
C1803 C1806 1.363 . S
N1804 C1806 1.356 . S
N1804 H1816 0.984 . S
N1804 H1817 0.985 . S
N1805 C1807 1.356 . S
N1805 H1810 0.984 . S
N1805 H1811 0.985 . S
C1806 C1800 1.379 . S
C1806 C1803 1.363 . S
C1806 N1804 1.356 . S
C1807 C1801 1.363 . S
C1807 C1802 1.379 . S
C1807 N1805 1.356 . S
N1808 C1800 1.356 . S
N1808 H1814 0.984 . S
N1808 H1815 0.984 . S
N1809 C1802 1.356 . S
N1809 H1812 0.984 . S
N1809 H1813 0.985 . S
H1810 N1805 0.984 . S
H1811 N1805 0.985 . S
H1812 N1809 0.984 . S
H1813 N1809 0.985 . S
H1814 N1808 0.984 . S
H1815 N1808 0.984 . S
H1816 N1804 0.984 . S
H1817 N1804 0.985 . S
C1818 C1819 1.363 . S
C1818 C1824 1.379 . S
C1818 N1826 1.356 . S
C1819 C1818 1.363 . S
C1819 C1825 1.363 . S
C1820 C1821 1.363 . S
C1820 C1825 1.379 . S
C1820 N1827 1.356 . S
C1821 C1820 1.363 . S
C1821 C1824 1.363 . S
N1822 C1824 1.356 . S
N1822 H1834 0.984 . S
N1822 H1835 0.985 . S
N1823 C1825 1.356 . S
N1823 H1828 0.984 . S
N1823 H1829 0.985 . S
C1824 C1818 1.379 . S
C1824 C1821 1.363 . S
C1824 N1822 1.356 . S
C1825 C1819 1.363 . S
C1825 C1820 1.379 . S
C1825 N1823 1.356 . S
N1826 C1818 1.356 . S
N1826 H1832 0.984 . S
N1826 H1833 0.984 . S
N1827 C1820 1.356 . S
N1827 H1830 0.984 . S
N1827 H1831 0.985 . S
H1828 N1823 0.984 . S
H1829 N1823 0.985 . S
H1830 N1827 0.984 . S
H1831 N1827 0.985 . S
H1832 N1826 0.984 . S
H1833 N1826 0.984 . S
H1834 N1822 0.984 . S
H1835 N1822 0.985 . S
C1836 C1837 1.363 . S
C1836 C1842 1.379 . S
C1836 N1844 1.356 . S
C1837 C1836 1.363 . S
C1837 C1843 1.363 . S
C1838 C1839 1.363 . S
C1838 C1843 1.379 . S
C1838 N1845 1.356 . S
C1839 C1838 1.363 . S
C1839 C1842 1.363 . S
N1840 C1842 1.356 . S
N1840 H1852 0.984 . S
N1840 H1853 0.985 . S
N1841 C1843 1.356 . S
N1841 H1846 0.984 . S
N1841 H1847 0.985 . S
C1842 C1836 1.379 . S
C1842 C1839 1.363 . S
C1842 N1840 1.356 . S
C1843 C1837 1.363 . S
C1843 C1838 1.379 . S
C1843 N1841 1.356 . S
N1844 C1836 1.356 . S
N1844 H1850 0.984 . S
N1844 H1851 0.984 . S
N1845 C1838 1.356 . S
N1845 H1848 0.984 . S
N1845 H1849 0.985 . S
H1846 N1841 0.984 . S
H1847 N1841 0.985 . S
H1848 N1845 0.984 . S
H1849 N1845 0.985 . S
H1850 N1844 0.984 . S
H1851 N1844 0.984 . S
H1852 N1840 0.984 . S
H1853 N1840 0.985 . S
C1854 C1855 1.363 . S
C1854 C1860 1.379 . S
C1854 N1862 1.356 . S
C1855 C1854 1.363 . S
C1855 C1861 1.363 . S
C1856 C1857 1.363 . S
C1856 C1861 1.379 . S
C1856 N1863 1.356 . S
C1857 C1856 1.363 . S
C1857 C1860 1.363 . S
N1858 C1860 1.356 . S
N1858 H1870 0.984 . S
N1858 H1871 0.985 . S
N1859 C1861 1.356 . S
N1859 H1864 0.984 . S
N1859 H1865 0.985 . S
C1860 C1854 1.379 . S
C1860 C1857 1.363 . S
C1860 N1858 1.356 . S
C1861 C1855 1.363 . S
C1861 C1856 1.379 . S
C1861 N1859 1.356 . S
N1862 C1854 1.356 . S
N1862 H1868 0.984 . S
N1862 H1869 0.984 . S
N1863 C1856 1.356 . S
N1863 H1866 0.984 . S
N1863 H1867 0.985 . S
H1864 N1859 0.984 . S
H1865 N1859 0.985 . S
H1866 N1863 0.984 . S
H1867 N1863 0.985 . S
H1868 N1862 0.984 . S
H1869 N1862 0.984 . S
H1870 N1858 0.984 . S
H1871 N1858 0.985 . S
C1872 C1873 1.363 . S
C1872 C1878 1.379 . S
C1872 N1880 1.356 . S
C1873 C1872 1.363 . S
C1873 C1879 1.363 . S
C1874 C1875 1.363 . S
C1874 C1879 1.379 . S
C1874 N1881 1.356 . S
C1875 C1874 1.363 . S
C1875 C1878 1.363 . S
N1876 C1878 1.356 . S
N1876 H1888 0.984 . S
N1876 H1889 0.985 . S
N1877 C1879 1.356 . S
N1877 H1882 0.984 . S
N1877 H1883 0.985 . S
C1878 C1872 1.379 . S
C1878 C1875 1.363 . S
C1878 N1876 1.356 . S
C1879 C1873 1.363 . S
C1879 C1874 1.379 . S
C1879 N1877 1.356 . S
N1880 C1872 1.356 . S
N1880 H1886 0.984 . S
N1880 H1887 0.984 . S
N1881 C1874 1.356 . S
N1881 H1884 0.984 . S
N1881 H1885 0.985 . S
H1882 N1877 0.984 . S
H1883 N1877 0.985 . S
H1884 N1881 0.984 . S
H1885 N1881 0.985 . S
H1886 N1880 0.984 . S
H1887 N1880 0.984 . S
H1888 N1876 0.984 . S
H1889 N1876 0.985 . S
C1890 C1891 1.363 . S
C1890 C1896 1.379 . S
C1890 N1898 1.356 . S
C1891 C1890 1.363 . S
C1891 C1897 1.363 . S
C1892 C1893 1.363 . S
C1892 C1897 1.379 1_556 S
C1892 N1899 1.356 . S
C1893 C1892 1.363 . S
C1893 C1896 1.363 1_556 S
N1894 C1896 1.356 . S
N1894 H1906 0.984 . S
N1894 H1907 0.985 1_554 S
N1895 C1897 1.356 . S
N1895 H1900 0.984 . S
N1895 H1901 0.985 1_554 S
C1896 C1890 1.379 . S
C1896 C1893 1.363 1_554 S
C1896 N1894 1.356 . S
C1897 C1891 1.363 . S
C1897 C1892 1.379 1_554 S
C1897 N1895 1.356 . S
N1898 C1890 1.356 . S
N1898 H1904 0.984 . S
N1898 H1905 0.984 . S
N1899 C1892 1.356 . S
N1899 H1902 0.984 . S
N1899 H1903 0.985 . S
H1900 N1895 0.984 . S
H1901 N1895 0.985 1_556 S
H1902 N1899 0.984 . S
H1903 N1899 0.985 . S
H1904 N1898 0.984 . S
H1905 N1898 0.984 . S
H1906 N1894 0.984 . S
H1907 N1894 0.985 1_556 S
C1908 C1909 1.363 . S
C1908 C1914 1.379 . S
C1908 N1916 1.356 . S
C1909 C1908 1.363 . S
C1909 C1915 1.363 . S
C1910 C1911 1.363 . S
C1910 C1915 1.379 . S
C1910 N1917 1.356 . S
C1911 C1910 1.363 . S
C1911 C1914 1.363 . S
N1912 C1914 1.356 1_556 S
N1912 H1924 0.984 . S
N1912 H1925 0.985 . S
N1913 C1915 1.356 . S
N1913 H1918 0.984 . S
N1913 H1919 0.985 . S
C1914 C1908 1.379 . S
C1914 C1911 1.363 . S
C1914 N1912 1.356 1_554 S
C1915 C1909 1.363 . S
C1915 C1910 1.379 . S
C1915 N1913 1.356 . S
N1916 C1908 1.356 . S
N1916 H1922 0.984 . S
N1916 H1923 0.984 . S
N1917 C1910 1.356 . S
N1917 H1920 0.984 . S
N1917 H1921 0.985 . S
H1918 N1913 0.984 . S
H1919 N1913 0.985 . S
H1920 N1917 0.984 . S
H1921 N1917 0.985 . S
H1922 N1916 0.984 . S
H1923 N1916 0.984 . S
H1924 N1912 0.984 . S
H1925 N1912 0.985 . S
C1926 C1927 1.363 . S
C1926 C1932 1.379 . S
C1926 N1934 1.356 . S
C1927 C1926 1.363 . S
C1927 C1933 1.363 . S
C1928 C1929 1.363 . S
C1928 C1933 1.379 . S
C1928 N1935 1.356 . S
C1929 C1928 1.363 . S
C1929 C1932 1.363 . S
N1930 C1932 1.356 1_556 S
N1930 H1942 0.984 . S
N1930 H1943 0.985 . S
N1931 C1933 1.356 . S
N1931 H1936 0.984 . S
N1931 H1937 0.985 . S
C1932 C1926 1.379 . S
C1932 C1929 1.363 . S
C1932 N1930 1.356 1_554 S
C1933 C1927 1.363 . S
C1933 C1928 1.379 . S
C1933 N1931 1.356 . S
N1934 C1926 1.356 . S
N1934 H1940 0.984 . S
N1934 H1941 0.984 . S
N1935 C1928 1.356 . S
N1935 H1938 0.984 1_554 S
N1935 H1939 0.985 . S
H1936 N1931 0.984 . S
H1937 N1931 0.985 . S
H1938 N1935 0.984 1_556 S
H1939 N1935 0.985 . S
H1940 N1934 0.984 . S
H1941 N1934 0.984 . S
H1942 N1930 0.984 . S
H1943 N1930 0.985 . S
C649 C7 1.369 . S
C651 C565 1.350 . S
C669 C536 1.731 . S
C667 C39 1.781 . S
C687 C552 1.531 . S
C685 C62 1.567 . S
C703 C76 1.754 . S
C705 C617 1.664 . S
C721 C108 1.378 . S
C723 C627 1.344 . S
C739 N117 1.294 . S
C741 C640 1.257 . S
C759 C596 1.363 1_455 S
C757 C16 1.375 . S
C775 C30 1.822 . S
C777 C575 1.774 . S
C795 C593 1.540 . S
C793 C53 1.529 . S
C811 C85 1.800 . S
C813 C502 1.790 1_545 S
C831 C510 1.595 . S
C829 C99 1.622 . S
C847 N127 1.222 . S
C849 C526 1.228 . S
C865 N150 1.125 . S
C867 C643 1.131 . S
C885 C614 1.493 . S
C883 N173 1.509 . S
C903 C630 1.393 . S
C901 C200 1.405 . S
C919 C214 1.560 . S
C921 C461 1.509 . S
C937 N232 1.448 . S
C939 C471 1.419 . S
C955 C260 1.399 . S
C957 C484 1.362 . S
C975 C440 1.225 . S
C973 N140 1.194 . S
C991 N163 1.264 . S
C993 C419 1.279 . S
C1011 C437 1.625 . S
C1009 C191 1.615 . S
C1029 C580 1.889 . S
C1027 C223 1.887 . S
C1047 C588 1.421 . S
C1045 N242 1.369 . S
C1065 C604 1.403 . S
C1063 C269 1.455 . S
C1081 N288 1.282 . S
C1083 C487 1.295 . S
C1099 C315 1.497 . S
C1101 C458 1.477 . S
C1117 C338 1.630 . S
C1119 C474 1.586 . S
C1135 C352 1.750 . S
C1137 C539 1.677 . S
C1155 C549 1.470 . S
C1153 N370 1.498 . S
C1173 C562 1.442 . S
C1171 C398 1.459 . S
C1191 C518 1.187 . S
C1189 N278 1.138 . S
C1207 C306 1.736 . S
C1209 C497 1.682 . S
C1225 C329 1.617 . S
C1227 C515 1.627 1_655 S
C1245 C424 1.543 . S
C1243 C361 1.533 . S
C1261 N380 1.408 . S
C1263 C432 1.450 . S
C1281 C448 1.361 . S
C1279 C407 1.413 . S
C1299 C453 1.413 . S
C1297 N12 1.406 . S
C1315 N25 1.565 . S
C1317 C476 1.583 . S
C1335 C489 1.317 . S
C1333 N48 1.281 1_545 S
C1353 C479 1.305 . S
C1351 N81 1.317 . S
C1371 C463 1.540 . S
C1369 N94 1.530 . S
C1389 C466 1.466 . S
C1387 C131 1.486 . S
C1407 C414 1.386 . S
C1405 N2 1.393 . S
C1423 N35 1.454 . S
C1425 C435 1.431 . S
C1441 N58 1.272 . S
C1443 C445 1.302 . S
C1461 C450 1.292 . S
C1459 N71 1.259 . S
C1479 C422 1.319 . S
C1477 N104 1.354 . S
C1497 C427 1.491 . S
C1495 C122 1.530 . S
C1513 C145 2.014 . S
C1515 C531 1.979 . S
C1531 C168 1.722 . S
C1533 C554 1.749 . S
C1549 N186 1.402 . S
C1551 C567 1.411 . S
C1569 C557 1.241 . S
C1567 N219 1.267 . S
C1587 C541 1.781 1_556 S
C1585 C246 1.780 . S
C1605 C544 1.398 . S
C1603 N265 1.393 . S
C1623 C492 1.851 . S
C1621 C154 1.884 . S
C1639 C177 1.789 . S
C1641 C513 1.764 . S
C1657 N196 1.217 . S
C1659 C523 1.223 . S
C1675 N209 1.100 . S
C1677 C528 1.143 . S
C1693 C237 1.822 . S
C1695 C500 1.760 . S
C1713 C505 1.345 . S
C1711 N255 1.352 . S
C1729 C283 1.741 . S
C1731 C609 1.719 . S
C1747 N301 1.441 . S
C1749 C632 1.449 . S
C1765 N324 1.312 . S
C1767 C645 1.324 . S
C1785 C635 1.130 . S
C1783 N357 1.111 . S
C1803 C619 1.789 . S
C1801 C384 1.796 . S
C1819 N403 1.242 . S
C1821 C622 1.232 . S
C1837 C292 1.825 . S
C1839 C570 1.778 . S
C1857 C591 1.307 . S
C1855 N311 1.342 . S
C1873 N334 1.345 . S
C1875 C601 1.370 . S
C1891 N347 1.317 . S
C1893 C606 1.336 . S
C1911 C578 1.823 1_554 S
C1909 C375 1.878 . S
C1927 N393 1.297 . S
C1929 C583 1.306 1_554 S
