# Generated by pormake.
# Topology anh, (6,3)-cn, num edge types: 1
# Building blocks:
#     Node 0, Type 0, BuildingBlock: HISSIN_clean_sbu_0, # of connection points: 6
#     Node 1, Type 0, BuildingBlock: HISSIN_clean_sbu_0, # of connection points: 6
#     Node 2, Type 0, BuildingBlock: HISSIN_clean_sbu_0, # of connection points: 6
#     Node 3, Type 1, BuildingBlock: WUSLED_clean_sbu_0, # of connection points: 3
#     Node 4, Type 1, BuildingBlock: WUSLED_clean_sbu_0, # of connection points: 3
#     Node 5, Type 1, BuildingBlock: WUSLED_clean_sbu_0, # of connection points: 3
#     Node 6, Type 1, BuildingBlock: WUSLED_clean_sbu_0, # of connection points: 3
#     Node 7, Type 1, BuildingBlock: WUSLED_clean_sbu_0, # of connection points: 3
#     Node 8, Type 1, BuildingBlock: WUSLED_clean_sbu_0, # of connection points: 3
#     Edge 9, Type (0, 1), BuildingBlock: KIFKEQ_clean_linker_1, # of connection points: 2
#     Edge 10, Type (0, 1), BuildingBlock: KIFKEQ_clean_linker_1, # of connection points: 2
#     Edge 11, Type (0, 1), BuildingBlock: KIFKEQ_clean_linker_1, # of connection points: 2
#     Edge 12, Type (0, 1), BuildingBlock: KIFKEQ_clean_linker_1, # of connection points: 2
#     Edge 13, Type (0, 1), BuildingBlock: KIFKEQ_clean_linker_1, # of connection points: 2
#     Edge 14, Type (0, 1), BuildingBlock: KIFKEQ_clean_linker_1, # of connection points: 2
#     Edge 15, Type (0, 1), BuildingBlock: KIFKEQ_clean_linker_1, # of connection points: 2
#     Edge 16, Type (0, 1), BuildingBlock: KIFKEQ_clean_linker_1, # of connection points: 2
#     Edge 17, Type (0, 1), BuildingBlock: KIFKEQ_clean_linker_1, # of connection points: 2
#     Edge 18, Type (0, 1), BuildingBlock: KIFKEQ_clean_linker_1, # of connection points: 2
#     Edge 19, Type (0, 1), BuildingBlock: KIFKEQ_clean_linker_1, # of connection points: 2
#     Edge 20, Type (0, 1), BuildingBlock: KIFKEQ_clean_linker_1, # of connection points: 2
#     Edge 21, Type (0, 1), BuildingBlock: KIFKEQ_clean_linker_1, # of connection points: 2
#     Edge 22, Type (0, 1), BuildingBlock: KIFKEQ_clean_linker_1, # of connection points: 2
#     Edge 23, Type (0, 1), BuildingBlock: KIFKEQ_clean_linker_1, # of connection points: 2
#     Edge 24, Type (0, 1), BuildingBlock: KIFKEQ_clean_linker_1, # of connection points: 2
#     Edge 25, Type (0, 1), BuildingBlock: KIFKEQ_clean_linker_1, # of connection points: 2
#     Edge 26, Type (0, 1), BuildingBlock: KIFKEQ_clean_linker_1, # of connection points: 2
# Relax obj value: 0.215
# Max RMSD: 0.181
# Mean RMSD: 0.147
data_MOF--net-anh--node1-HISSIN_clean_sbu_0--node2-WUSLED_clean_sbu_0--edge1-KIFKEQ_clean_linker_1
_symmetry_space_group_name_H-M    P1
_symmetry_Int_Tables_number       1
_symmetry_cell_setting            triclinic
loop_
_symmetry_equiv_pos_as_xyz
'x, y, z'
_cell_length_a     39.576883
_cell_length_b     39.546608
_cell_length_c     71.050213
_cell_angle_alpha  93.372263
_cell_angle_beta   91.269856
_cell_angle_gamma 120.06027
loop_
_atom_site_label
_atom_site_type_symbol
_atom_site_fract_x
_atom_site_fract_y
_atom_site_fract_z
_atom_type_partial_charge
Eu0 Eu 1.0803 0.52387 0.1779 0.0
Eu1 Eu 0.12358 0.61813 0.18211 0.0
C2 C 0.10483 0.57114 0.22019 0.0
C3 C 0.99651 0.42351 0.16556 0.0
C4 C 0.96914 0.43424 0.17108 0.0
C5 C 0.94554 0.36814 0.14602 0.0
C6 C 0.93014 0.41154 0.16459 0.0
C7 C 0.9847 0.39082 0.15269 0.0
C8 C 0.91765 0.37783 0.15221 0.0
C9 C 1.03767 0.44791 0.1723 0.0
O10 O 0.17128 0.60325 0.17429 0.0
O11 O 0.14381 0.53944 0.18159 0.0
C12 C 0.17435 0.57201 0.17692 0.0
O13 O 0.10406 0.54293 0.14957 0.0
O14 O 0.17309 0.67486 0.19245 0.0
O15 O 0.12768 0.67213 0.17376 0.0
O16 O 0.10401 0.6004 0.15148 0.0
C17 C 0.10515 0.57226 0.14148 0.0
O18 O 1.03212 0.5389 0.17182 0.0
O19 O 1.06021 0.60128 0.18577 0.0
O20 O 0.11783 0.60479 0.21272 0.0
O21 O 1.06084 0.46985 0.15996 0.0
O22 O 1.04424 0.46692 0.18885 0.0
O23 O 1.09055 0.53779 0.20968 0.0
C24 C 0.19236 0.71663 0.16809 0.0
C25 C 0.20156 0.69711 0.15371 0.0
C26 C 0.24385 0.77875 0.1591 0.0
C27 C 0.23286 0.71831 0.14255 0.0
C28 C 0.21295 0.75752 0.17044 0.0
C29 C 0.25468 0.75924 0.14544 0.0
C30 C 0.16309 0.69385 0.18128 0.0
C31 C 1.02931 0.56961 0.17782 0.0
H32 H 0.97773 0.45989 0.1807 0.0
H33 H 0.93699 0.34265 0.13631 0.0
H34 H 0.90957 0.41962 0.16999 0.0
H35 H 1.00569 0.38271 0.14792 0.0
H36 H 0.18566 0.6654 0.1517 0.0
H37 H 0.26107 0.81032 0.16191 0.0
H38 H 0.2412 0.70277 0.13235 0.0
H39 H 0.20627 0.77288 0.18154 0.0
Eu40 Eu 0.64394 1.05609 0.5148 0.0
Eu41 Eu 0.59255 0.09822 0.51392 0.0
C42 C 0.62048 0.08401 0.55461 0.0
C43 C 0.6618 0.97238 0.50767 0.0
C44 C 0.62158 0.94524 0.50756 0.0
C45 C 0.67274 0.92148 0.49403 0.0
C46 C 0.60707 0.90627 0.50096 0.0
C47 C 0.6872 0.96049 0.50061 0.0
C48 C 0.63259 0.89388 0.49436 0.0
C49 C 0.67694 1.01332 0.5145 0.0
O50 O 0.65536 0.14593 0.50825 0.0
O51 O 0.69243 0.11995 0.51808 0.0
C52 C 0.68996 0.14973 0.51227 0.0
O53 O 0.64907 0.07611 0.48552 0.0
O54 O 0.58379 0.14742 0.52153 0.0
O55 O 0.54413 0.10149 0.50068 0.0
O56 O 0.59099 0.07453 0.48423 0.0
C57 C 0.62072 0.07621 0.47581 0.0
O58 O 0.58064 1.00748 0.5062 0.0
O59 O 0.54604 1.03527 0.51779 0.0
O60 O 0.5987 0.09481 0.5454 0.0
O61 O 0.68126 1.03678 0.50149 0.0
O62 O 0.6606 1.019 0.52913 0.0
O63 O 0.64088 0.07078 0.54575 0.0
C64 C 0.56885 0.16632 0.49358 0.0
C65 C 0.59787 0.17073 0.48126 0.0
C66 C 0.57334 0.22568 0.48355 0.0
C67 C 0.61608 0.20358 0.47095 0.0
C68 C 0.55547 0.193 0.49408 0.0
C69 C 0.6052 0.23225 0.47271 0.0
C70 C 0.5576 0.13745 0.50763 0.0
C71 C 0.54699 1.00421 0.51076 0.0
H72 H 0.60145 0.95404 0.51282 0.0
H73 H 0.69327 0.91267 0.48937 0.0
H74 H 0.57603 0.88573 0.50131 0.0
H75 H 0.71824 0.98121 0.50044 0.0
H76 H 0.60855 0.15031 0.4807 0.0
H77 H 0.56484 0.24774 0.48541 0.0
H78 H 0.64073 0.20817 0.46286 0.0
H79 H 0.53324 0.19006 0.50355 0.0
Eu80 Eu 0.56764 0.54987 0.84577 0.0
Eu81 Eu 0.66143 0.59658 0.8496 0.0
C82 C 0.61315 0.57387 0.88677 0.0
C83 C 0.47038 0.53952 0.84036 0.0
C84 C 0.48549 0.5772 0.84942 0.0
C85 C 0.41818 0.54556 0.82534 0.0
C86 C 0.46736 0.5989 0.84646 0.0
C87 C 0.43674 0.52386 0.82818 0.0
C88 C 0.43331 0.58328 0.83455 0.0
C89 C 0.49211 0.51873 0.84248 0.0
O90 O 0.64605 0.53228 0.84906 0.0
O91 O 0.5814 0.50101 0.83836 0.0
C92 C 0.61376 0.50012 0.8423 0.0
O93 O 0.58941 0.57466 0.81791 0.0
O94 O 0.71813 0.60963 0.86185 0.0
O95 O 0.7151 0.6434 0.83958 0.0
O96 O 0.64372 0.56946 0.81989 0.0
C97 C 0.61758 0.5724 0.80974 0.0
O98 O 0.58319 0.61406 0.85076 0.0
O99 O 0.64637 0.6432 0.84232 0.0
O100 O 0.64358 0.60173 0.87919 0.0
O101 O 0.51279 0.51955 0.8283 0.0
O102 O 0.51164 0.52618 0.85868 0.0
O103 O 0.58407 0.54585 0.87597 0.0
C104 C 0.76394 0.62653 0.83801 0.0
C105 C 0.78415 0.65095 0.82374 0.0
C106 C 0.79143 0.58559 0.8293 0.0
C107 C 0.80798 0.64279 0.81235 0.0
C108 C 0.76757 0.59359 0.84055 0.0
C109 C 0.81211 0.61013 0.81511 0.0
C110 C 0.73723 0.63413 0.84923 0.0
C111 C 0.61476 0.64516 0.84563 0.0
H112 H 0.51159 0.59017 0.85877 0.0
H113 H 0.3917 0.53259 0.81623 0.0
H114 H 0.48013 0.62806 0.85352 0.0
H115 H 0.42498 0.49504 0.82087 0.0
H116 H 0.78148 0.67635 0.82139 0.0
H117 H 0.79479 0.56088 0.83233 0.0
H118 H 0.8236 0.66234 0.80162 0.0
H119 H 0.75224 0.574 0.85133 0.0
C120 C 0.59305 0.15833 0.21007 0.0
C121 C 0.62417 0.1908 0.2203 0.0
C122 C 0.65266 0.21688 0.19088 0.0
C123 C 0.65376 0.22007 0.21074 0.0
C124 C 0.61939 0.18642 0.18075 0.0
C125 C 0.58974 0.15716 0.19034 0.0
U126 U 0.56938 0.09655 0.25238 0.0
O127 O 0.51268 1.04911 0.26047 0.0
O128 O 0.55848 1.03631 0.2521 0.0
C129 C 0.52105 1.0222 0.25435 0.0
C130 C 0.56908 0.12246 0.21926 0.0
C131 C 0.49629 0.99608 0.23814 0.0
C132 C 0.4697 0.99098 0.20632 0.0
C133 C 0.48596 1.01233 0.22359 0.0
C134 C 0.47303 0.9362 0.21788 0.0
C135 C 0.46328 0.9528 0.20319 0.0
C136 C 0.48963 0.95782 0.23524 0.0
C137 C 0.62545 0.13489 0.29972 0.0
C138 C 0.61105 0.09068 0.32449 0.0
C139 C 0.65376 0.16067 0.33152 0.0
C140 C 0.64941 0.16672 0.31266 0.0
C141 C 0.63416 0.12264 0.33768 0.0
C142 C 0.60663 0.09679 0.30565 0.0
C143 C 0.61844 0.14174 0.28036 0.0
O144 O 0.58766 0.10388 0.22338 0.0
O145 O 0.54819 0.1244 0.23296 0.0
O146 O 0.5843 0.13895 0.27694 0.0
O147 O 0.62761 0.12374 0.26703 0.0
H148 H 0.62717 0.19192 0.23556 0.0
H149 H 0.67899 0.24358 0.21883 0.0
H150 H 0.61797 0.18321 0.16546 0.0
H151 H 0.56591 0.13202 0.18229 0.0
H152 H 0.46299 1.00479 0.19526 0.0
H153 H 0.49196 1.04227 0.22526 0.0
H154 H 0.46784 0.90656 0.21595 0.0
H155 H 0.49837 0.9452 0.24612 0.0
H156 H 0.59521 1.06112 0.32887 0.0
H157 H 0.67207 0.18579 0.34133 0.0
H158 H 0.66412 0.1963 0.30825 0.0
H159 H 0.58779 0.0719 0.2958 0.0
C160 C 0.65826 0.61758 0.53965 0.0
C161 C 0.67349 0.65721 0.5456 0.0
C162 C 0.64108 0.66465 0.5181 0.0
C163 C 0.66515 0.68069 0.5348 0.0
C164 C 0.62544 0.6249 0.5123 0.0
C165 C 0.63425 0.60153 0.52298 0.0
U166 U 0.67872 0.58398 0.58603 0.0
O167 O 0.6557 0.52374 0.59408 0.0
O168 O 0.71856 0.561 0.59059 0.0
C169 C 0.6889 0.52505 0.59074 0.0
C170 C 0.66666 0.59228 0.55062 0.0
C171 C 0.68621 0.49868 0.57457 0.0
C172 C 0.66252 0.47465 0.54201 0.0
C173 C 0.66201 0.49417 0.55874 0.0
C174 C 0.7111 0.4626 0.55649 0.0
C175 C 0.68674 0.45831 0.54066 0.0
C176 C 0.71101 0.48296 0.57336 0.0
C177 C 0.67688 0.63006 0.63405 0.0
C178 C 0.68745 0.60586 0.66289 0.0
C179 C 0.65406 0.64322 0.66344 0.0
C180 C 0.65861 0.6473 0.64414 0.0
C181 C 0.66789 0.62193 0.67292 0.0
C182 C 0.69168 0.60966 0.64353 0.0
C183 C 0.67598 0.62961 0.61343 0.0
O184 O 0.70168 0.60873 0.55922 0.0
O185 O 0.63854 0.56932 0.56112 0.0
O186 O 0.64468 0.59941 0.60494 0.0
O187 O 0.70859 0.63741 0.60546 0.0
H188 H 0.69172 0.66996 0.55856 0.0
H189 H 0.67701 0.71126 0.5396 0.0
H190 H 0.60682 0.61212 0.49946 0.0
H191 H 0.62226 0.57089 0.51827 0.0
H192 H 0.64401 0.47268 0.53004 0.0
H193 H 0.64313 0.50662 0.55907 0.0
H194 H 0.72987 0.44999 0.55589 0.0
H195 H 0.73057 0.48691 0.58526 0.0
H196 H 0.69801 0.58898 0.66984 0.0
H197 H 0.63918 0.65616 0.6709 0.0
H198 H 0.6467 0.66281 0.63696 0.0
H199 H 0.70528 0.59559 0.63586 0.0
C200 C 1.01336 0.54993 0.89996 0.0
C201 C 0.9857 0.56207 0.90109 0.0
C202 C 0.97867 0.55763 0.86677 0.0
C203 C 0.96846 0.56589 0.88461 0.0
C204 C 1.00341 0.5419 0.86568 0.0
C205 C 1.02075 0.53821 0.88214 0.0
U206 U 0.11669 0.59848 0.91439 0.0
O207 O 0.13391 0.64196 0.89327 0.0
O208 O 0.1319 0.58611 0.88635 0.0
C209 C 0.14038 0.62041 0.88072 0.0
C210 C 1.04118 0.55918 0.91619 0.0
C211 C 0.17699 0.64044 0.87131 0.0
C212 C 0.20954 0.65415 0.84191 0.0
C213 C 0.17558 0.64167 0.85166 0.0
C214 C 0.24691 0.6669 0.87162 0.0
C215 C 0.24526 0.66547 0.85174 0.0
C216 C 0.21291 0.65432 0.88134 0.0
C217 C 0.1589 0.60758 0.96363 0.0
C218 C 0.18473 0.61795 0.99602 0.0
C219 C 0.11469 0.58025 0.98876 0.0
C220 C 0.12082 0.58576 0.96963 0.0
C221 C 0.14657 0.59659 1.00219 0.0
C222 C 0.19082 0.62341 0.97687 0.0
C223 C 0.16517 0.61541 0.94374 0.0
O224 O 1.0622 0.54189 0.91513 0.0
O225 O 1.06209 0.59689 0.92139 0.0
O226 O 0.15431 0.63971 0.93797 0.0
O227 O 0.15377 0.58431 0.93188 0.0
H228 H 0.97982 0.57158 0.91462 0.0
H229 H 0.94872 0.57732 0.8858 0.0
H230 H 1.01167 0.53524 0.85213 0.0
H231 H 1.04233 0.52916 0.88075 0.0
H232 H 0.2075 0.65291 0.82663 0.0
H233 H 0.1479 0.631 0.84377 0.0
H234 H 0.27386 0.67485 0.87958 0.0
H235 H 0.21429 0.65332 0.89653 0.0
H236 H 0.20989 0.63047 0.006 0.0
H237 H 1.08495 0.56408 0.99308 0.0
H238 H 0.09582 0.57358 0.95955 0.0
H239 H 0.22039 0.64037 0.97243 0.0
C240 C 1.01713 0.47772 0.48228 0.0
C241 C 1.00688 0.44235 0.47158 0.0
C242 C 0.94445 0.40626 0.48719 0.0
C243 C 0.97121 0.40738 0.47394 0.0
C244 C 0.95486 0.44198 0.49767 0.0
C245 C 0.99031 0.47679 0.49526 0.0
U246 U 0.10966 0.56683 0.46062 0.0
O247 O 0.14288 0.62879 0.47252 0.0
O248 O 0.17198 0.59407 0.47119 0.0
C249 C 0.17526 0.62818 0.47627 0.0
C250 C 1.05668 0.51466 0.48194 0.0
C251 C 0.21458 0.6655 0.47639 0.0
C252 C 0.2815 0.70557 0.49093 0.0
C253 C 0.24579 0.66972 0.48817 0.0
C254 C 0.25671 0.73458 0.46981 0.0
C255 C 0.2879 0.7391 0.48195 0.0
C256 C 0.22069 0.69858 0.46717 0.0
C257 C 0.09911 0.56213 0.40362 0.0
C258 C 0.13934 0.5841 0.3764 0.0
C259 C 1.06885 0.54897 0.37174 0.0
C260 C 1.06571 0.5465 0.39125 0.0
C261 C 0.10563 0.56731 0.36392 0.0
C262 C 0.13612 0.58127 0.39607 0.0
C263 C 0.09315 0.55445 0.42385 0.0
O264 O 1.08604 0.51202 0.47522 0.0
O265 O 1.05776 0.54716 0.47786 0.0
O266 O 1.0831 0.57541 0.43488 0.0
O267 O 0.11372 0.54183 0.43272 0.0
H268 H 1.02666 0.44148 0.46154 0.0
H269 H 0.96471 0.38115 0.46529 0.0
H270 H 0.93616 0.44306 0.50828 0.0
H271 H 0.99729 0.50307 0.50404 0.0
H272 H 0.30365 0.70709 0.50071 0.0
H273 H 0.24211 0.64535 0.49587 0.0
H274 H 0.25992 0.75893 0.46228 0.0
H275 H 0.19742 0.6969 0.45813 0.0
H276 H 0.16818 0.59837 0.37093 0.0
H277 H 1.04223 0.53631 0.36275 0.0
H278 H 1.03682 0.53141 0.39668 0.0
H279 H 0.16238 0.59335 0.40529 0.0
C280 C 0.6185 0.97563 0.8156 0.0
C281 C 0.59061 0.94008 0.8056 0.0
C282 C 0.61712 0.90288 0.82099 0.0
C283 C 0.59004 0.90447 0.80819 0.0
C284 C 0.64508 0.93875 0.83082 0.0
C285 C 0.64572 0.97418 0.82815 0.0
U286 U 0.61581 0.06611 0.79391 0.0
O287 O 0.5835 0.09518 0.80471 0.0
O288 O 0.64758 0.1282 0.80582 0.0
C289 C 0.61551 0.1285 0.80999 0.0
C290 C 0.61758 1.01345 0.81512 0.0
C291 C 0.61509 0.16657 0.81127 0.0
C292 C 0.61344 0.21815 0.83169 0.0
C293 C 0.61299 0.18229 0.82921 0.0
C294 C 0.61759 0.22406 0.79815 0.0
C295 C 0.61594 0.24009 0.81628 0.0
C296 C 0.61736 0.18797 0.79569 0.0
C297 C 0.61242 1.06183 0.73704 0.0
C298 C 0.63585 0.10511 0.71132 0.0
C299 C 0.59227 1.03553 0.70423 0.0
C300 C 0.59086 1.03013 0.72354 0.0
C301 C 0.61526 0.07294 0.69775 0.0
C302 C 0.63472 0.09958 0.73079 0.0
C303 C 0.61401 1.05289 0.75698 0.0
O304 O 0.64904 1.04504 0.81047 0.0
O305 O 0.58526 1.01195 0.80895 0.0
O306 O 0.58229 1.03987 0.76649 0.0
O307 O 0.64659 0.074 0.76757 0.0
H308 H 0.56882 0.9396 0.79593 0.0
H309 H 0.56823 0.87814 0.80005 0.0
H310 H 0.66608 0.93957 0.84111 0.0
H311 H 0.66715 1.00059 0.83643 0.0
H312 H 0.61132 0.2284 0.84584 0.0
H313 H 0.6111 0.1667 0.84155 0.0
H314 H 0.61979 0.23974 0.78583 0.0
H315 H 0.61914 0.17696 0.78165 0.0
H316 H 0.65396 0.13433 0.70686 0.0
H317 H 0.57555 1.01014 0.6943 0.0
H318 H 0.5737 1.00067 0.72793 0.0
H319 H 0.65196 0.12454 0.74086 0.0
C320 C 0.69795 0.57276 0.1491 0.0
C321 C 0.71455 0.56387 0.13359 0.0
C322 C 0.7703 0.57188 0.15394 0.0
C323 C 0.75015 0.56349 0.13597 0.0
C324 C 0.75305 0.58047 0.16932 0.0
C325 C 0.71787 0.58099 0.16692 0.0
U326 U 0.60086 0.57204 0.12861 0.0
O327 O 0.54246 0.5398 0.14057 0.0
O328 O 0.57455 0.60388 0.14309 0.0
C329 C 0.54274 0.57181 0.147 0.0
C330 C 0.6596 0.57242 0.14794 0.0
C331 C 0.50467 0.57185 0.14815 0.0
C332 C 0.45411 0.57 0.16831 0.0
C333 C 0.48924 0.56973 0.16598 0.0
C334 C 0.44819 0.57479 0.13488 0.0
C335 C 0.43248 0.57231 0.15286 0.0
C336 C 0.48368 0.57451 0.13256 0.0
C337 C 0.60078 0.572 0.07068 0.0
C338 C 0.60341 0.60356 0.04175 0.0
C339 C 0.60004 0.54073 0.03984 0.0
C340 C 0.59908 0.54051 0.05958 0.0
C341 C 0.6022 0.57225 0.03053 0.0
C342 C 0.60299 0.60354 0.06152 0.0
C343 C 0.60082 0.57215 0.09167 0.0
O344 O 0.6594 0.60437 0.14397 0.0
O345 O 0.62771 0.54033 0.14124 0.0
O346 O 0.58523 0.53964 0.10036 0.0
O347 O 0.61624 0.60466 0.10287 0.0
H348 H 0.70006 0.55718 0.11965 0.0
H349 H 0.76203 0.55702 0.12361 0.0
H350 H 0.76627 0.58616 0.18349 0.0
H351 H 0.70584 0.58749 0.17924 0.0
H352 H 0.44427 0.56899 0.18247 0.0
H353 H 0.50467 0.56803 0.17835 0.0
H354 H 0.43279 0.57635 0.12249 0.0
H355 H 0.4946 0.5763 0.1186 0.0
H356 H 0.60427 0.62807 0.03529 0.0
H357 H 0.59979 0.51635 0.03194 0.0
H358 H 0.59769 0.51589 0.06621 0.0
H359 H 0.60406 0.62814 0.06965 0.0
H360 H 0.24378 0.63189 0.16474 0.0
H361 H 0.19225 0.5135 0.18096 0.0
H362 H 0.30457 0.63216 0.1587 0.0
H363 H 0.2524 0.51334 0.17459 0.0
H364 H 0.37654 0.53363 0.17864 0.0
H365 H 0.31709 0.53506 0.18454 0.0
H366 H 0.33899 0.61014 0.13921 0.0
H367 H 0.39981 0.61009 0.13382 0.0
C368 C 0.24524 0.60582 0.16706 0.0
C369 C 0.21254 0.57275 0.17353 0.0
C370 C 0.28032 0.60583 0.16341 0.0
C371 C 0.28433 0.5728 0.16611 0.0
C372 C 0.25148 0.53979 0.17257 0.0
C373 C 0.21648 0.53976 0.17617 0.0
C374 C 0.36926 0.55094 0.16997 0.0
C375 C 0.39408 0.57199 0.15576 0.0
C376 C 0.33435 0.5513 0.17322 0.0
C377 C 0.32225 0.57265 0.16242 0.0
C378 C 0.34689 0.59358 0.14811 0.0
C379 C 0.38192 0.59315 0.14481 0.0
H380 H 0.76728 0.16862 0.51756 0.0
H381 H 0.69782 0.21801 0.49923 0.0
H382 H 0.82682 0.22889 0.51156 0.0
H383 H 0.75729 0.27809 0.49283 0.0
H384 H 0.87279 0.3962 0.49795 0.0
H385 H 0.81348 0.33648 0.50437 0.0
H386 H 0.86845 0.26887 0.48939 0.0
H387 H 0.92849 0.32886 0.48385 0.0
C388 C 0.7645 0.19228 0.51226 0.0
C389 C 0.72709 0.18784 0.50905 0.0
C390 C 0.79902 0.22713 0.5086 0.0
C391 C 0.79781 0.25927 0.50156 0.0
C392 C 0.76028 0.25481 0.49846 0.0
C393 C 0.72575 0.21991 0.50209 0.0
C394 C 0.87274 0.36881 0.49619 0.0
C395 C 0.90651 0.36838 0.49038 0.0
C396 C 0.83803 0.334 0.49967 0.0
C397 C 0.83523 0.2969 0.49754 0.0
C398 C 0.86887 0.29639 0.49157 0.0
C399 C 0.9036 0.33122 0.48807 0.0
H400 H 0.55602 0.6633 0.85133 0.0
H401 H 0.6731 0.71333 0.83256 0.0
H402 H 0.55596 0.72366 0.84554 0.0
H403 H 0.67289 0.77301 0.82629 0.0
H404 H 0.67857 0.89092 0.83106 0.0
H405 H 0.67722 0.83085 0.83773 0.0
H406 H 0.55268 0.76541 0.82436 0.0
H407 H 0.55367 0.82613 0.81874 0.0
C408 C 0.58182 0.68706 0.84594 0.0
C409 C 0.61461 0.68286 0.84258 0.0
C410 C 0.58175 0.72196 0.84244 0.0
C411 C 0.61449 0.75426 0.8354 0.0
C412 C 0.6472 0.7498 0.83204 0.0
C413 C 0.64727 0.71504 0.83557 0.0
C414 C 0.6506 0.86401 0.82974 0.0
C415 C 0.61621 0.86447 0.82435 0.0
C416 C 0.64991 0.8289 0.83333 0.0
C417 C 0.61485 0.79222 0.83162 0.0
C418 C 0.58042 0.79255 0.82615 0.0
C419 C 0.58109 0.82779 0.8226 0.0
H420 H 0.9569 0.50854 0.16348 0.0
H421 H 1.01397 0.63012 0.18452 0.0
H422 H 0.8959 0.50874 0.15771 0.0
H423 H 0.95367 0.63089 0.1782 0.0
H424 H 0.8324 0.6165 0.18039 0.0
H425 H 0.89175 0.61437 0.18643 0.0
H426 H 0.85796 0.52663 0.13976 0.0
H427 H 0.79706 0.5271 0.13441 0.0
C428 C 0.95663 0.53546 0.16689 0.0
C429 C 0.99096 0.56925 0.17465 0.0
C430 C 0.92136 0.53571 0.16339 0.0
C431 C 0.91882 0.56984 0.16739 0.0
C432 C 0.95333 0.6036 0.17514 0.0
C433 C 0.98846 0.60326 0.17873 0.0
C434 C 0.83696 0.59618 0.17147 0.0
C435 C 0.80872 0.57172 0.15692 0.0
C436 C 0.8719 0.59542 0.1748 0.0
C437 C 0.88076 0.57038 0.16367 0.0
C438 C 0.85273 0.54611 0.14897 0.0
C439 C 0.81759 0.54678 0.14567 0.0
H440 H 0.47089 0.98579 0.51697 0.0
H441 H 0.5363 0.93318 0.4954 0.0
H442 H 0.4101 0.92353 0.51011 0.0
H443 H 0.47564 0.87114 0.48816 0.0
H444 H 0.36308 0.75319 0.49116 0.0
H445 H 0.42331 0.81502 0.49859 0.0
H446 H 0.36255 0.87761 0.48773 0.0
H447 H 0.30164 0.8156 0.48134 0.0
C448 C 0.47251 0.961 0.51076 0.0
C449 C 0.50919 0.96514 0.50692 0.0
C450 C 0.43724 0.92497 0.50662 0.0
C451 C 0.43697 0.89132 0.49843 0.0
C452 C 0.47382 0.89556 0.49468 0.0
C453 C 0.50905 0.93161 0.4988 0.0
C454 C 0.36201 0.7799 0.49054 0.0
C455 C 0.32633 0.77828 0.48565 0.0
C456 C 0.39726 0.81594 0.4946 0.0
C457 C 0.3988 0.85233 0.49389 0.0
C458 C 0.36325 0.85079 0.48881 0.0
C459 C 0.32793 0.8147 0.4848 0.0
H460 H 0.67286 0.4841 0.85074 0.0
H461 H 0.5561 0.42909 0.82469 0.0
H462 H 0.6742 0.42349 0.84399 0.0
H463 H 0.55728 0.36832 0.81804 0.0
H464 H 0.5832 0.27294 0.79363 0.0
H465 H 0.58319 0.33459 0.79945 0.0
H466 H 0.65005 0.35802 0.85219 0.0
H467 H 0.65092 0.29723 0.84617 0.0
C468 C 0.64727 0.4591 0.84364 0.0
C469 C 0.61428 0.4621 0.83843 0.0
C470 C 0.64796 0.42392 0.83979 0.0
C471 C 0.61582 0.39015 0.8304 0.0
C472 C 0.58293 0.3933 0.82508 0.0
C473 C 0.58212 0.4284 0.82907 0.0
C474 C 0.59828 0.29131 0.80641 0.0
C475 C 0.61686 0.27918 0.81939 0.0
C476 C 0.5979 0.3268 0.80989 0.0
C477 C 0.61648 0.35203 0.82642 0.0
C478 C 0.63559 0.34015 0.83922 0.0
C479 C 0.63568 0.30461 0.83582 0.0
H480 H 0.65232 0.8599 0.46525 0.0
H481 H 0.58184 0.83287 0.51378 0.0
H482 H 0.6446 0.7945 0.46385 0.0
H483 H 0.57367 0.76769 0.51213 0.0
H484 H 0.6927 0.73245 0.50395 0.0
H485 H 0.67878 0.77976 0.49057 0.0
H486 H 0.55497 0.701 0.49465 0.0
H487 H 0.56917 0.65321 0.50796 0.0
C488 C 0.63422 0.83961 0.47523 0.0
C489 C 0.61861 0.85178 0.48994 0.0
C490 C 0.62958 0.80219 0.47433 0.0
C491 C 0.60909 0.77646 0.48805 0.0
C492 C 0.58942 0.7869 0.50129 0.0
C493 C 0.59422 0.82436 0.50227 0.0
C494 C 0.66252 0.7249 0.50148 0.0
C495 C 0.63198 0.68965 0.50707 0.0
C496 C 0.65447 0.75168 0.49364 0.0
C497 C 0.61576 0.74384 0.49151 0.0
C498 C 0.585 0.7075 0.49608 0.0
C499 C 0.59308 0.68034 0.50367 0.0
H500 H 0.80726 0.54111 0.80202 0.0
H501 H 0.88563 0.66638 0.80647 0.0
H502 H 0.86249 0.53103 0.80392 0.0
H503 H 0.94118 0.65627 0.80646 0.0
H504 H 0.98236 0.62669 0.86213 0.0
H505 H 0.95387 0.6429 0.83645 0.0
H506 H 0.92188 0.53203 0.8058 0.0
H507 H 0.9495 0.51524 0.8324 0.0
C508 C 0.8364 0.5665 0.80241 0.0
C509 C 0.84217 0.60447 0.80566 0.0
C510 C 0.86836 0.56075 0.80324 0.0
C511 C 0.90632 0.59309 0.80692 0.0
C512 C 0.91207 0.63079 0.80487 0.0
C513 C 0.88007 0.63661 0.8047 0.0
C514 C 0.96944 0.60586 0.84986 0.0
C515 C 0.96646 0.56902 0.84959 0.0
C516 C 0.95384 0.61551 0.83478 0.0
C517 C 0.93471 0.58846 0.819 0.0
C518 C 0.93561 0.55323 0.81787 0.0
C519 C 0.95129 0.54353 0.8331 0.0
H520 H 0.28087 0.82099 0.12343 0.0
H521 H 0.31592 0.74834 0.15109 0.0
H522 H 0.34856 0.87455 0.12573 0.0
H523 H 0.38253 0.80204 0.1547 0.0
H524 H 0.48167 0.9043 0.18208 0.0
H525 H 0.44375 0.8595 0.15467 0.0
H526 H 0.36514 0.9058 0.1563 0.0
H527 H 0.40268 0.94982 0.18307 0.0
C528 C 0.30344 0.81592 0.12912 0.0
C529 C 0.29337 0.78139 0.13774 0.0
C530 C 0.34216 0.84661 0.1306 0.0
C531 C 0.37035 0.8435 0.14164 0.0
C532 C 0.36155 0.80611 0.14659 0.0
C533 C 0.32309 0.77507 0.14457 0.0
C534 C 0.45658 0.90511 0.17628 0.0
C535 C 0.44457 0.92988 0.18498 0.0
C536 C 0.43511 0.87978 0.16047 0.0
C537 C 0.40101 0.87848 0.1533 0.0
C538 C 0.39142 0.90599 0.16106 0.0
C539 C 0.41283 0.93122 0.17669 0.0
H540 H 0.68228 0.27528 0.48305 0.0
H541 H 0.58961 0.28073 0.45279 0.0
H542 H 0.71516 0.34499 0.49124 0.0
H543 H 0.62399 0.3516 0.45998 0.0
H544 H 0.62121 0.40718 0.51925 0.0
H545 H 0.61489 0.36569 0.49185 0.0
H546 H 0.74029 0.41419 0.4942 0.0
H547 H 0.74661 0.45689 0.52215 0.0
C548 C 0.67025 0.29184 0.47703 0.0
C549 C 0.63256 0.27261 0.46806 0.0
C550 C 0.6893 0.33215 0.4817 0.0
C551 C 0.67084 0.35339 0.47725 0.0
C552 C 0.63788 0.33548 0.46438 0.0
C553 C 0.61824 0.29495 0.46015 0.0
C554 C 0.64771 0.41009 0.51367 0.0
C555 C 0.6844 0.43518 0.52299 0.0
C556 C 0.64415 0.38641 0.49768 0.0
C557 C 0.67716 0.38667 0.49058 0.0
C558 C 0.71428 0.41323 0.49932 0.0
C559 C 0.71786 0.43727 0.51543 0.0
H560 H 0.42177 0.62554 0.86255 0.0
H561 H 0.39811 0.59136 0.80266 0.0
H562 H 0.38471 0.65868 0.86071 0.0
H563 H 0.36006 0.62461 0.80085 0.0
H564 H 0.24293 0.61658 0.82259 0.0
H565 H 0.29663 0.6076 0.81336 0.0
H566 H 0.37727 0.71131 0.84882 0.0
H567 H 0.32301 0.72004 0.85832 0.0
C568 C 0.40948 0.62598 0.84885 0.0
C569 C 0.41278 0.60569 0.83276 0.0
C570 C 0.38837 0.64528 0.84777 0.0
C571 C 0.36972 0.64461 0.83059 0.0
C572 C 0.37411 0.62555 0.81428 0.0
C573 C 0.39553 0.60626 0.81536 0.0
C574 C 0.2723 0.63854 0.82777 0.0
C575 C 0.27872 0.66849 0.84155 0.0
C576 C 0.3032 0.63339 0.82243 0.0
C577 C 0.34098 0.65815 0.83077 0.0
C578 C 0.3482 0.69123 0.84254 0.0
C579 C 0.31723 0.69625 0.84797 0.0
H580 H 0.85974 0.39562 0.1456 0.0
H581 H 0.87897 0.29782 0.14995 0.0
H582 H 0.79045 0.35269 0.1502 0.0
H583 H 0.80969 0.25491 0.15338 0.0
H584 H 0.72393 0.22814 0.20047 0.0
H585 H 0.78352 0.26246 0.18412 0.0
H586 H 0.72301 0.29078 0.14209 0.0
H587 H 0.6624 0.25607 0.15883 0.0
C588 C 0.84903 0.36477 0.14689 0.0
C589 C 0.87515 0.35047 0.14815 0.0
C590 C 0.80926 0.34014 0.14927 0.0
C591 C 0.79514 0.30085 0.1527 0.0
C592 C 0.82018 0.2854 0.15117 0.0
C593 C 0.85992 0.31002 0.14903 0.0
C594 C 0.72331 0.24203 0.18787 0.0
C595 C 0.6888 0.24011 0.18109 0.0
C596 C 0.75726 0.26101 0.17828 0.0
C597 C 0.75764 0.2786 0.16164 0.0
C598 C 0.72326 0.27709 0.15481 0.0
C599 C 0.68884 0.25751 0.16438 0.0
H600 H 0.11362 0.63158 0.12062 0.0
H601 H 0.10613 0.51848 0.11578 0.0
H602 H 0.12235 0.63659 0.0869 0.0
H603 H 0.11562 0.52393 0.08205 0.0
H604 H 0.09462 0.531 0.01894 0.0
H605 H 1.08277 0.52456 0.05247 0.0
H606 H 0.17249 0.64567 0.06508 0.0
H607 H 0.18336 0.65248 0.03156 0.0
C608 C 0.11375 0.60772 0.11236 0.0
C609 C 0.10917 0.5746 0.12089 0.0
C610 C 0.11904 0.61076 0.09305 0.0
C611 C 0.11985 0.58074 0.08182 0.0
C612 C 0.11474 0.54737 0.09029 0.0
C613 C 0.10951 0.54435 0.10964 0.0
C614 C 0.1116 0.5563 0.02887 0.0
C615 C 0.13997 0.59224 0.02261 0.0
C616 C 0.10507 0.55251 0.04808 0.0
C617 C 0.12669 0.58461 0.06142 0.0
C618 C 0.15506 0.62051 0.05514 0.0
C619 C 0.16164 0.62428 0.03596 0.0
H620 H 0.57291 0.08903 0.45291 0.0
H621 H 0.67362 0.0736 0.45231 0.0
H622 H 0.57829 0.1002 0.41958 0.0
H623 H 0.67894 0.08497 0.41872 0.0
H624 H 0.64318 0.06602 0.3537 0.0
H625 H 0.64074 1.05361 0.38716 0.0
H626 H 0.62622 0.15327 0.40081 0.0
H627 H 0.62787 0.1652 0.36751 0.0
C628 C 0.59607 0.08774 0.44565 0.0
C629 C 0.62288 0.08044 0.45528 0.0
C630 C 0.59929 0.09446 0.42657 0.0
C631 C 0.62922 0.09378 0.41662 0.0
C632 C 0.65551 0.08552 0.42607 0.0
C633 C 0.65251 0.07913 0.44528 0.0
C634 C 0.63955 0.08526 0.36389 0.0
C635 C 0.63567 0.11655 0.358 0.0
C636 C 0.63845 0.07834 0.38301 0.0
C637 C 0.63304 0.10233 0.39652 0.0
C638 C 0.62997 0.13404 0.39066 0.0
C639 C 0.63135 0.14112 0.37162 0.0
H640 H 0.66207 0.55422 0.78732 0.0
H641 H 0.58406 0.60091 0.78622 0.0
H642 H 0.67309 0.56504 0.75411 0.0
H643 H 0.59629 0.61331 0.75319 0.0
H644 H 0.59877 0.59716 0.68938 0.0
H645 H 0.58489 0.58299 0.72214 0.0
H646 H 0.70585 0.61711 0.73447 0.0
H647 H 0.71921 0.63002 0.70151 0.0
C648 C 0.64731 0.56685 0.77996 0.0
C649 C 0.6222 0.57672 0.78934 0.0
C650 C 0.65388 0.57337 0.76096 0.0
C651 C 0.63587 0.59038 0.75098 0.0
C652 C 0.61025 0.59968 0.76034 0.0
C653 C 0.60331 0.59269 0.7793 0.0
C654 C 0.62239 0.60185 0.69917 0.0
C655 C 0.66008 0.61476 0.69298 0.0
C656 C 0.61448 0.59381 0.71794 0.0
C657 C 0.64422 0.59885 0.73098 0.0
C658 C 0.68205 0.61215 0.72475 0.0
C659 C 0.68983 0.61978 0.70592 0.0
H660 H 0.57832 0.10348 0.57901 0.0
H661 H 0.66583 0.06875 0.57845 0.0
H662 H 0.57871 0.10309 0.61344 0.0
H663 H 0.66671 0.06907 0.61269 0.0
H664 H 0.6243 1.02647 0.67063 0.0
H665 H 0.62632 1.03113 0.63665 0.0
H666 H 0.61645 0.13503 0.64332 0.0
H667 H 0.61351 0.12971 0.67753 0.0
C668 C 0.59789 0.09609 0.58618 0.0
C669 C 0.62184 0.0859 0.57577 0.0
C670 C 0.59827 0.09606 0.606 0.0
C671 C 0.62255 0.08578 0.61599 0.0
C672 C 0.64704 0.07642 0.60557 0.0
C673 C 0.64667 0.07645 0.58583 0.0
C674 C 0.62235 1.05025 0.6649 0.0
C675 C 0.61843 0.07753 0.67692 0.0
C676 C 0.62395 1.0532 0.64534 0.0
C677 C 0.62158 0.08349 0.63705 0.0
C678 C 0.61798 0.11106 0.64908 0.0
C679 C 0.61668 0.10826 0.66875 0.0
H680 H 0.67038 0.62271 0.91394 0.0
H681 H 0.55219 0.52483 0.90745 0.0
H682 H 0.66786 0.62203 0.94816 0.0
H683 H 0.54906 0.52493 0.94163 0.0
H684 H 0.56647 0.50964 1.0034 0.0
H685 H 0.57019 0.51002 0.96934 0.0
H686 H 0.64221 0.63622 0.97494 0.0
H687 H 0.64082 0.63563 0.00909 0.0
C688 C 0.64372 0.60115 0.91979 0.0
C689 C 0.61155 0.57377 0.9078 0.0
C690 C 0.64213 0.60091 0.93952 0.0
C691 C 0.60822 0.57343 0.94793 0.0
C692 C 0.576 0.54617 0.93587 0.0
C693 C 0.57769 0.54626 0.91615 0.0
C694 C 0.58366 0.53753 0.99749 0.0
C695 C 0.60345 0.57259 0.00932 0.0
C696 C 0.58528 0.5378 0.97777 0.0
C697 C 0.60647 0.57316 0.9691 0.0
C698 C 0.62602 0.60825 0.98092 0.0
C699 C 0.62467 0.60795 1.00065 0.0
H700 H 0.12125 0.6313 0.24701 0.0
H701 H 0.09224 0.51026 0.24138 0.0
H702 H 0.12298 0.63049 0.2813 0.0
H703 H 0.09514 0.50975 0.27565 0.0
H704 H 1.0607 0.50808 0.33673 0.0
H705 H 1.06125 0.50949 0.30258 0.0
H706 H 0.15774 0.62876 0.30877 0.0
H707 H 0.15611 0.6277 0.34315 0.0
C708 C 0.11552 0.60454 0.25305 0.0
C709 C 0.10643 0.57079 0.24127 0.0
C710 C 0.11678 0.60415 0.27282 0.0
C711 C 0.1092 0.57006 0.28149 0.0
C712 C 0.10049 0.53643 0.26966 0.0
C713 C 0.099 0.53676 0.24989 0.0
C714 C 1.08193 0.53477 0.33086 0.0
C715 C 0.10813 0.56791 0.34285 0.0
C716 C 1.08258 0.53543 0.31116 0.0
C717 C 0.1095 0.56926 0.30267 0.0
C718 C 0.13618 0.60227 0.31466 0.0
C719 C 0.13559 0.60156 0.33444 0.0
loop_
_geom_bond_atom_site_label_1
_geom_bond_atom_site_label_2
_geom_bond_distance
_geom_bond_site_symmetry_2
_ccdc_geom_bond_type
Eu0 C9 2.828 . S
Eu0 O11 2.392 1_655 S
Eu0 O13 2.418 . S
Eu0 O18 2.373 . S
Eu0 O21 2.488 . S
Eu0 O22 2.471 . S
Eu0 O23 2.349 . S
Eu1 O10 2.373 . S
Eu1 O14 2.488 . S
Eu1 O15 2.471 . S
Eu1 O16 2.349 . S
Eu1 O19 2.392 1_455 S
Eu1 O20 2.418 . S
Eu1 C30 2.828 . S
C2 O20 1.244 . S
C2 O23 1.265 1_455 S
C3 C4 1.379 . S
C3 C7 1.373 . S
C3 C9 1.505 . S
C4 C3 1.379 . S
C4 C6 1.369 . S
C4 H32 0.930 . S
C5 C7 1.383 . S
C5 C8 1.382 . S
C5 H33 0.930 . S
C6 C4 1.369 . S
C6 C8 1.392 . S
C6 H34 0.930 . S
C7 C3 1.373 . S
C7 C5 1.383 . S
C7 H35 0.931 . S
C8 C5 1.382 . S
C8 C6 1.392 . S
C9 Eu0 2.828 . S
C9 C3 1.505 . S
C9 O21 1.249 . S
C9 O22 1.244 . S
O10 Eu1 2.373 . S
O10 C12 1.258 . S
O11 Eu0 2.392 1_455 S
O11 C12 1.242 . S
C12 O10 1.258 . S
C12 O11 1.242 . S
O13 Eu0 2.418 . S
O13 C17 1.244 . S
O14 Eu1 2.488 . S
O14 C30 1.249 . S
O15 Eu1 2.471 . S
O15 C30 1.244 . S
O16 Eu1 2.349 . S
O16 C17 1.264 1_455 S
C17 O13 1.244 . S
C17 O16 1.264 1_655 S
O18 Eu0 2.373 . S
O18 C31 1.258 . S
O19 Eu1 2.392 1_655 S
O19 C31 1.242 . S
O20 Eu1 2.418 . S
O20 C2 1.244 . S
O21 Eu0 2.488 . S
O21 C9 1.249 . S
O22 Eu0 2.471 . S
O22 C9 1.244 . S
O23 Eu0 2.349 . S
O23 C2 1.265 1_655 S
C24 C25 1.379 . S
C24 C28 1.373 . S
C24 C30 1.505 . S
C25 C24 1.379 . S
C25 C27 1.369 . S
C25 H36 0.930 . S
C26 C28 1.383 . S
C26 C29 1.382 . S
C26 H37 0.930 . S
C27 C25 1.369 . S
C27 C29 1.392 . S
C27 H38 0.930 . S
C28 C24 1.373 . S
C28 C26 1.383 . S
C28 H39 0.931 . S
C29 C26 1.382 . S
C29 C27 1.392 . S
C30 Eu1 2.828 . S
C30 O14 1.249 . S
C30 O15 1.244 . S
C30 C24 1.505 . S
C31 O18 1.258 . S
C31 O19 1.242 . S
H32 C4 0.930 . S
H33 C5 0.930 . S
H34 C6 0.930 . S
H35 C7 0.931 . S
H36 C25 0.930 . S
H37 C26 0.930 . S
H38 C27 0.930 . S
H39 C28 0.931 . S
Eu40 C49 2.828 . S
Eu40 O51 2.392 1_565 S
Eu40 O53 2.418 . S
Eu40 O58 2.373 . S
Eu40 O61 2.488 . S
Eu40 O62 2.471 . S
Eu40 O63 2.349 1_565 S
Eu41 O50 2.373 . S
Eu41 O54 2.488 . S
Eu41 O55 2.471 . S
Eu41 O56 2.349 . S
Eu41 O59 2.392 1_545 S
Eu41 O60 2.418 . S
Eu41 C70 2.828 . S
C42 O60 1.244 . S
C42 O63 1.265 . S
C43 C44 1.379 . S
C43 C47 1.373 . S
C43 C49 1.505 . S
C44 C43 1.379 . S
C44 C46 1.369 . S
C44 H72 0.930 . S
C45 C47 1.383 . S
C45 C48 1.382 . S
C45 H73 0.930 . S
C46 C44 1.369 . S
C46 C48 1.392 . S
C46 H74 0.930 . S
C47 C43 1.373 . S
C47 C45 1.383 . S
C47 H75 0.931 . S
C48 C45 1.382 . S
C48 C46 1.392 . S
C49 Eu40 2.828 . S
C49 C43 1.505 . S
C49 O61 1.249 . S
C49 O62 1.244 . S
O50 Eu41 2.373 . S
O50 C52 1.258 . S
O51 Eu40 2.392 1_545 S
O51 C52 1.242 . S
C52 O50 1.258 . S
C52 O51 1.242 . S
O53 Eu40 2.418 . S
O53 C57 1.244 1_565 S
O54 Eu41 2.488 . S
O54 C70 1.249 . S
O55 Eu41 2.471 . S
O55 C70 1.244 . S
O56 Eu41 2.349 . S
O56 C57 1.265 . S
C57 O53 1.244 1_545 S
C57 O56 1.265 . S
O58 Eu40 2.373 . S
O58 C71 1.258 . S
O59 Eu41 2.392 1_565 S
O59 C71 1.242 . S
O60 Eu41 2.418 . S
O60 C42 1.244 . S
O61 Eu40 2.488 . S
O61 C49 1.249 . S
O62 Eu40 2.471 . S
O62 C49 1.244 . S
O63 Eu40 2.349 1_545 S
O63 C42 1.265 . S
C64 C65 1.379 . S
C64 C68 1.373 . S
C64 C70 1.505 . S
C65 C64 1.379 . S
C65 C67 1.369 . S
C65 H76 0.930 . S
C66 C68 1.383 . S
C66 C69 1.382 . S
C66 H77 0.930 . S
C67 C65 1.369 . S
C67 C69 1.392 . S
C67 H78 0.930 . S
C68 C64 1.373 . S
C68 C66 1.383 . S
C68 H79 0.931 . S
C69 C66 1.382 . S
C69 C67 1.392 . S
C70 Eu41 2.828 . S
C70 O54 1.249 . S
C70 O55 1.244 . S
C70 C64 1.505 . S
C71 O58 1.258 . S
C71 O59 1.242 . S
H72 C44 0.930 . S
H73 C45 0.930 . S
H74 C46 0.930 . S
H75 C47 0.931 . S
H76 C65 0.930 . S
H77 C66 0.930 . S
H78 C67 0.930 . S
H79 C68 0.931 . S
Eu80 C89 2.828 . S
Eu80 O91 2.392 . S
Eu80 O93 2.418 . S
Eu80 O98 2.373 . S
Eu80 O101 2.488 . S
Eu80 O102 2.471 . S
Eu80 O103 2.349 . S
Eu81 O90 2.373 . S
Eu81 O94 2.488 . S
Eu81 O95 2.471 . S
Eu81 O96 2.349 . S
Eu81 O99 2.392 . S
Eu81 O100 2.418 . S
Eu81 C110 2.828 . S
C82 O100 1.244 . S
C82 O103 1.265 . S
C83 C84 1.379 . S
C83 C87 1.373 . S
C83 C89 1.505 . S
C84 C83 1.379 . S
C84 C86 1.369 . S
C84 H112 0.930 . S
C85 C87 1.383 . S
C85 C88 1.382 . S
C85 H113 0.930 . S
C86 C84 1.369 . S
C86 C88 1.392 . S
C86 H114 0.930 . S
C87 C83 1.373 . S
C87 C85 1.383 . S
C87 H115 0.931 . S
C88 C85 1.382 . S
C88 C86 1.392 . S
C89 Eu80 2.828 . S
C89 C83 1.505 . S
C89 O101 1.249 . S
C89 O102 1.244 . S
O90 Eu81 2.373 . S
O90 C92 1.258 . S
O91 Eu80 2.392 . S
O91 C92 1.242 . S
C92 O90 1.258 . S
C92 O91 1.242 . S
O93 Eu80 2.418 . S
O93 C97 1.244 . S
O94 Eu81 2.488 . S
O94 C110 1.249 . S
O95 Eu81 2.471 . S
O95 C110 1.244 . S
O96 Eu81 2.349 . S
O96 C97 1.265 . S
C97 O93 1.244 . S
C97 O96 1.265 . S
O98 Eu80 2.373 . S
O98 C111 1.258 . S
O99 Eu81 2.392 . S
O99 C111 1.242 . S
O100 Eu81 2.418 . S
O100 C82 1.244 . S
O101 Eu80 2.488 . S
O101 C89 1.249 . S
O102 Eu80 2.471 . S
O102 C89 1.244 . S
O103 Eu80 2.349 . S
O103 C82 1.265 . S
C104 C105 1.379 . S
C104 C108 1.373 . S
C104 C110 1.505 . S
C105 C104 1.379 . S
C105 C107 1.369 . S
C105 H116 0.930 . S
C106 C108 1.383 . S
C106 C109 1.382 . S
C106 H117 0.930 . S
C107 C105 1.369 . S
C107 C109 1.392 . S
C107 H118 0.930 . S
C108 C104 1.373 . S
C108 C106 1.383 . S
C108 H119 0.931 . S
C109 C106 1.382 . S
C109 C107 1.392 . S
C110 Eu81 2.828 . S
C110 O94 1.249 . S
C110 O95 1.244 . S
C110 C104 1.505 . S
C111 O98 1.258 . S
C111 O99 1.242 . S
H112 C84 0.930 . S
H113 C85 0.930 . S
H114 C86 0.930 . S
H115 C87 0.931 . S
H116 C105 0.930 . S
H117 C106 0.930 . S
H118 C107 0.930 . S
H119 C108 0.931 . S
C120 C121 1.264 . S
C120 C125 1.479 . S
C120 C130 1.465 . S
C121 C120 1.264 . S
C121 C123 1.339 . S
C121 H148 0.931 . S
C122 C123 1.395 . S
C122 C124 1.320 . S
C123 C121 1.339 . S
C123 C122 1.395 . S
C123 H149 0.929 . S
C124 C122 1.320 . S
C124 C125 1.405 . S
C124 H150 0.930 . S
C125 C120 1.479 . S
C125 C124 1.405 . S
C125 H151 0.931 . S
U126 O127 2.454 1_545 S
U126 O128 2.458 1_545 S
U126 C129 2.984 1_545 S
U126 C130 2.847 . S
U126 C143 2.882 . S
U126 O144 2.441 . S
U126 O145 2.420 . S
U126 O146 2.455 . S
U126 O147 2.449 . S
O127 U126 2.454 1_565 S
O127 C129 1.353 . S
O128 U126 2.458 1_565 S
O128 C129 1.286 . S
C129 U126 2.984 1_565 S
C129 O127 1.353 . S
C129 O128 1.286 . S
C129 C131 1.363 . S
C130 C120 1.465 . S
C130 U126 2.847 . S
C130 O144 1.249 . S
C130 O145 1.202 . S
C131 C129 1.363 . S
C131 C133 1.408 . S
C131 C136 1.342 . S
C132 C133 1.310 . S
C132 C135 1.461 . S
C132 H152 0.932 . S
C133 C131 1.408 . S
C133 C132 1.310 . S
C133 H153 0.930 . S
C134 C135 1.474 . S
C134 C136 1.285 . S
C134 H154 0.929 . S
C135 C132 1.461 . S
C135 C134 1.474 . S
C136 C131 1.342 . S
C136 C134 1.285 . S
C136 H155 0.930 . S
C137 C140 1.424 . S
C137 C142 1.245 . S
C137 C143 1.428 . S
C138 C141 1.260 . S
C138 C142 1.477 . S
C138 H156 0.932 1_545 S
C139 C140 1.384 . S
C139 C141 1.479 . S
C139 H157 0.929 . S
C140 C137 1.424 . S
C140 C139 1.384 . S
C140 H158 0.928 . S
C141 C138 1.260 . S
C141 C139 1.479 . S
C142 C137 1.245 . S
C142 C138 1.477 . S
C142 H159 0.932 1_545 S
C143 U126 2.882 . S
C143 C137 1.428 . S
C143 O146 1.301 . S
C143 O147 1.282 . S
O144 U126 2.441 . S
O144 C130 1.249 . S
O145 U126 2.420 . S
O145 C130 1.202 . S
O146 U126 2.455 . S
O146 C143 1.301 . S
O147 U126 2.449 . S
O147 C143 1.282 . S
H148 C121 0.931 . S
H149 C123 0.929 . S
H150 C124 0.930 . S
H151 C125 0.931 . S
H152 C132 0.932 . S
H153 C133 0.930 . S
H154 C134 0.929 . S
H155 C136 0.930 . S
H156 C138 0.932 1_565 S
H157 C139 0.929 . S
H158 C140 0.928 . S
H159 C142 0.932 1_565 S
C160 C161 1.264 . S
C160 C165 1.479 . S
C160 C170 1.465 . S
C161 C160 1.264 . S
C161 C163 1.339 . S
C161 H188 0.931 . S
C162 C163 1.395 . S
C162 C164 1.320 . S
C163 C161 1.339 . S
C163 C162 1.395 . S
C163 H189 0.929 . S
C164 C162 1.320 . S
C164 C165 1.405 . S
C164 H190 0.930 . S
C165 C160 1.479 . S
C165 C164 1.405 . S
C165 H191 0.931 . S
U166 O167 2.454 . S
U166 O168 2.458 . S
U166 C169 2.984 . S
U166 C170 2.847 . S
U166 C183 2.882 . S
U166 O184 2.441 . S
U166 O185 2.420 . S
U166 O186 2.455 . S
U166 O187 2.449 . S
O167 U166 2.454 . S
O167 C169 1.353 . S
O168 U166 2.458 . S
O168 C169 1.286 . S
C169 U166 2.984 . S
C169 O167 1.353 . S
C169 O168 1.286 . S
C169 C171 1.363 . S
C170 C160 1.465 . S
C170 U166 2.847 . S
C170 O184 1.249 . S
C170 O185 1.202 . S
C171 C169 1.363 . S
C171 C173 1.408 . S
C171 C176 1.342 . S
C172 C173 1.310 . S
C172 C175 1.461 . S
C172 H192 0.932 . S
C173 C171 1.408 . S
C173 C172 1.310 . S
C173 H193 0.930 . S
C174 C175 1.474 . S
C174 C176 1.285 . S
C174 H194 0.929 . S
C175 C172 1.461 . S
C175 C174 1.474 . S
C176 C171 1.342 . S
C176 C174 1.285 . S
C176 H195 0.930 . S
C177 C180 1.424 . S
C177 C182 1.245 . S
C177 C183 1.428 . S
C178 C181 1.260 . S
C178 C182 1.477 . S
C178 H196 0.932 . S
C179 C180 1.384 . S
C179 C181 1.479 . S
C179 H197 0.929 . S
C180 C177 1.424 . S
C180 C179 1.384 . S
C180 H198 0.928 . S
C181 C178 1.260 . S
C181 C179 1.479 . S
C182 C177 1.245 . S
C182 C178 1.477 . S
C182 H199 0.932 . S
C183 U166 2.882 . S
C183 C177 1.428 . S
C183 O186 1.301 . S
C183 O187 1.282 . S
O184 U166 2.441 . S
O184 C170 1.249 . S
O185 U166 2.420 . S
O185 C170 1.202 . S
O186 U166 2.455 . S
O186 C183 1.301 . S
O187 U166 2.449 . S
O187 C183 1.282 . S
H188 C161 0.931 . S
H189 C163 0.929 . S
H190 C164 0.930 . S
H191 C165 0.931 . S
H192 C172 0.932 . S
H193 C173 0.930 . S
H194 C174 0.929 . S
H195 C176 0.930 . S
H196 C178 0.932 . S
H197 C179 0.929 . S
H198 C180 0.928 . S
H199 C182 0.932 . S
C200 C201 1.264 . S
C200 C205 1.479 . S
C200 C210 1.465 . S
C201 C200 1.264 . S
C201 C203 1.339 . S
C201 H228 0.931 . S
C202 C203 1.395 . S
C202 C204 1.320 . S
C203 C201 1.339 . S
C203 C202 1.395 . S
C203 H229 0.929 . S
C204 C202 1.320 . S
C204 C205 1.405 . S
C204 H230 0.930 . S
C205 C200 1.479 . S
C205 C204 1.405 . S
C205 H231 0.931 . S
U206 O207 2.454 . S
U206 O208 2.458 . S
U206 C209 2.984 . S
U206 C210 2.847 1_455 S
U206 C223 2.882 . S
U206 O224 2.427 1_455 S
U206 O225 2.420 1_455 S
U206 O226 2.455 . S
U206 O227 2.449 1_455 S
O207 U206 2.454 . S
O207 C209 1.353 . S
O208 U206 2.458 . S
O208 C209 1.286 . S
C209 U206 2.984 . S
C209 O207 1.353 . S
C209 O208 1.286 . S
C209 C211 1.363 . S
C210 C200 1.465 . S
C210 U206 2.847 1_655 S
C210 O224 1.272 . S
C210 O225 1.202 . S
C211 C209 1.363 . S
C211 C213 1.408 . S
C211 C216 1.342 . S
C212 C213 1.310 . S
C212 C215 1.461 . S
C212 H232 0.932 . S
C213 C211 1.408 . S
C213 C212 1.310 . S
C213 H233 0.930 . S
C214 C215 1.474 . S
C214 C216 1.285 . S
C214 H234 0.929 . S
C215 C212 1.461 . S
C215 C214 1.474 . S
C216 C211 1.342 . S
C216 C214 1.285 . S
C216 H235 0.930 . S
C217 C220 1.424 . S
C217 C222 1.245 . S
C217 C223 1.428 . S
C218 C221 1.264 . S
C218 C222 1.477 . S
C218 H236 0.932 . S
C219 C220 1.384 1_655 S
C219 C221 1.481 1_655 S
C219 H237 0.932 . S
C220 C217 1.424 . S
C220 C219 1.384 1_455 S
C220 H238 0.928 1_455 S
C221 C218 1.264 . S
C221 C219 1.481 1_455 S
C222 C217 1.245 . S
C222 C218 1.477 . S
C222 H239 0.932 . S
C223 U206 2.882 . S
C223 C217 1.428 . S
C223 O226 1.301 . S
C223 O227 1.282 1_455 S
O224 U206 2.427 1_655 S
O224 C210 1.272 . S
O225 U206 2.420 1_655 S
O225 C210 1.202 . S
O226 U206 2.455 . S
O226 C223 1.301 . S
O227 U206 2.449 1_655 S
O227 C223 1.282 1_655 S
H228 C201 0.931 . S
H229 C203 0.929 . S
H230 C204 0.930 . S
H231 C205 0.931 . S
H232 C212 0.932 . S
H233 C213 0.930 . S
H234 C214 0.929 . S
H235 C216 0.930 . S
H236 C218 0.932 . S
H237 C219 0.932 . S
H238 C220 0.928 1_655 S
H239 C222 0.932 . S
C240 C241 1.264 . S
C240 C245 1.479 . S
C240 C250 1.465 . S
C241 C240 1.264 . S
C241 C243 1.339 . S
C241 H268 0.931 . S
C242 C243 1.395 . S
C242 C244 1.320 . S
C243 C241 1.339 . S
C243 C242 1.395 . S
C243 H269 0.929 . S
C244 C242 1.320 . S
C244 C245 1.405 . S
C244 H270 0.930 . S
C245 C240 1.479 . S
C245 C244 1.405 . S
C245 H271 0.931 . S
U246 O247 2.454 . S
U246 O248 2.458 . S
U246 C249 2.984 . S
U246 C250 2.847 1_455 S
U246 C263 2.882 . S
U246 O264 2.441 1_455 S
U246 O265 2.420 1_455 S
U246 O266 2.455 . S
U246 O267 2.449 1_455 S
O247 U246 2.454 . S
O247 C249 1.353 . S
O248 U246 2.458 . S
O248 C249 1.286 . S
C249 U246 2.984 . S
C249 O247 1.353 . S
C249 O248 1.286 . S
C249 C251 1.363 . S
C250 C240 1.465 . S
C250 U246 2.847 1_655 S
C250 O264 1.249 . S
C250 O265 1.202 . S
C251 C249 1.363 . S
C251 C253 1.408 . S
C251 C256 1.342 . S
C252 C253 1.310 . S
C252 C255 1.461 . S
C252 H272 0.932 . S
C253 C251 1.408 . S
C253 C252 1.310 . S
C253 H273 0.930 . S
C254 C255 1.474 . S
C254 C256 1.285 . S
C254 H274 0.929 . S
C255 C252 1.461 . S
C255 C254 1.474 . S
C256 C251 1.342 . S
C256 C254 1.285 . S
C256 H275 0.930 . S
C257 C260 1.424 1_455 S
C257 C262 1.245 . S
C257 C263 1.428 . S
C258 C261 1.260 . S
C258 C262 1.477 . S
C258 H276 0.932 . S
C259 C260 1.384 . S
C259 C261 1.479 1_655 S
C259 H277 0.929 . S
C260 C257 1.424 1_655 S
C260 C259 1.384 . S
C260 H278 0.928 . S
C261 C258 1.260 . S
C261 C259 1.479 1_455 S
C262 C257 1.245 . S
C262 C258 1.477 . S
C262 H279 0.932 . S
C263 U246 2.882 . S
C263 C257 1.428 . S
C263 O266 1.301 . S
C263 O267 1.282 1_455 S
O264 U246 2.441 1_655 S
O264 C250 1.249 . S
O265 U246 2.420 1_655 S
O265 C250 1.202 . S
O266 U246 2.455 . S
O266 C263 1.301 . S
O267 U246 2.449 1_655 S
O267 C263 1.282 1_655 S
H268 C241 0.931 . S
H269 C243 0.929 . S
H270 C244 0.930 . S
H271 C245 0.931 . S
H272 C252 0.932 . S
H273 C253 0.930 . S
H274 C254 0.929 . S
H275 C256 0.930 . S
H276 C258 0.932 . S
H277 C259 0.929 . S
H278 C260 0.928 . S
H279 C262 0.932 . S
C280 C281 1.264 . S
C280 C285 1.479 . S
C280 C290 1.465 . S
C281 C280 1.264 . S
C281 C283 1.339 . S
C281 H308 0.931 . S
C282 C283 1.395 . S
C282 C284 1.320 . S
C283 C281 1.339 . S
C283 C282 1.395 . S
C283 H309 0.929 . S
C284 C282 1.320 . S
C284 C285 1.405 . S
C284 H310 0.930 . S
C285 C280 1.479 . S
C285 C284 1.405 . S
C285 H311 0.931 . S
U286 O287 2.454 . S
U286 O288 2.458 . S
U286 C289 2.984 . S
U286 C290 2.847 1_545 S
U286 C303 2.882 . S
U286 O304 2.441 1_545 S
U286 O305 2.420 1_545 S
U286 O306 2.455 . S
U286 O307 2.449 1_545 S
O287 U286 2.454 . S
O287 C289 1.353 . S
O288 U286 2.458 . S
O288 C289 1.286 . S
C289 U286 2.984 . S
C289 O287 1.353 . S
C289 O288 1.286 . S
C289 C291 1.363 . S
C290 C280 1.465 . S
C290 U286 2.847 1_565 S
C290 O304 1.249 . S
C290 O305 1.202 . S
C291 C289 1.363 . S
C291 C293 1.408 . S
C291 C296 1.342 . S
C292 C293 1.310 . S
C292 C295 1.461 . S
C292 H312 0.932 . S
C293 C291 1.408 . S
C293 C292 1.310 . S
C293 H313 0.930 . S
C294 C295 1.474 . S
C294 C296 1.285 . S
C294 H314 0.929 . S
C295 C292 1.461 . S
C295 C294 1.474 . S
C296 C291 1.342 . S
C296 C294 1.285 . S
C296 H315 0.930 . S
C297 C300 1.424 1_545 S
C297 C302 1.245 . S
C297 C303 1.428 . S
C298 C301 1.260 . S
C298 C302 1.477 . S
C298 H316 0.932 . S
C299 C300 1.384 . S
C299 C301 1.479 1_565 S
C299 H317 0.929 . S
C300 C297 1.424 1_565 S
C300 C299 1.384 . S
C300 H318 0.928 . S
C301 C298 1.260 . S
C301 C299 1.479 1_545 S
C302 C297 1.245 . S
C302 C298 1.477 . S
C302 H319 0.932 . S
C303 U286 2.882 . S
C303 C297 1.428 . S
C303 O306 1.301 . S
C303 O307 1.282 1_545 S
O304 U286 2.441 1_565 S
O304 C290 1.249 . S
O305 U286 2.420 1_565 S
O305 C290 1.202 . S
O306 U286 2.455 . S
O306 C303 1.301 . S
O307 U286 2.449 1_565 S
O307 C303 1.282 1_565 S
H308 C281 0.931 . S
H309 C283 0.929 . S
H310 C284 0.930 . S
H311 C285 0.931 . S
H312 C292 0.932 . S
H313 C293 0.930 . S
H314 C294 0.929 . S
H315 C296 0.930 . S
H316 C298 0.932 . S
H317 C299 0.929 . S
H318 C300 0.928 . S
H319 C302 0.932 . S
C320 C321 1.264 . S
C320 C325 1.479 . S
C320 C330 1.465 . S
C321 C320 1.264 . S
C321 C323 1.339 . S
C321 H348 0.931 . S
C322 C323 1.395 . S
C322 C324 1.320 . S
C323 C321 1.339 . S
C323 C322 1.395 . S
C323 H349 0.929 . S
C324 C322 1.320 . S
C324 C325 1.405 . S
C324 H350 0.930 . S
C325 C320 1.479 . S
C325 C324 1.405 . S
C325 H351 0.931 . S
U326 O327 2.454 . S
U326 O328 2.458 . S
U326 C329 2.984 . S
U326 C330 2.847 . S
U326 C343 2.882 . S
U326 O344 2.441 . S
U326 O345 2.420 . S
U326 O346 2.455 . S
U326 O347 2.449 . S
O327 U326 2.454 . S
O327 C329 1.353 . S
O328 U326 2.458 . S
O328 C329 1.286 . S
C329 U326 2.984 . S
C329 O327 1.353 . S
C329 O328 1.286 . S
C329 C331 1.363 . S
C330 C320 1.465 . S
C330 U326 2.847 . S
C330 O344 1.249 . S
C330 O345 1.202 . S
C331 C329 1.363 . S
C331 C333 1.408 . S
C331 C336 1.342 . S
C332 C333 1.310 . S
C332 C335 1.461 . S
C332 H352 0.932 . S
C333 C331 1.408 . S
C333 C332 1.310 . S
C333 H353 0.930 . S
C334 C335 1.474 . S
C334 C336 1.285 . S
C334 H354 0.929 . S
C335 C332 1.461 . S
C335 C334 1.474 . S
C336 C331 1.342 . S
C336 C334 1.285 . S
C336 H355 0.930 . S
C337 C340 1.424 . S
C337 C342 1.245 . S
C337 C343 1.428 . S
C338 C341 1.260 . S
C338 C342 1.477 . S
C338 H356 0.932 . S
C339 C340 1.384 . S
C339 C341 1.479 . S
C339 H357 0.929 . S
C340 C337 1.424 . S
C340 C339 1.384 . S
C340 H358 0.928 . S
C341 C338 1.260 . S
C341 C339 1.479 . S
C342 C337 1.245 . S
C342 C338 1.477 . S
C342 H359 0.932 . S
C343 U326 2.882 . S
C343 C337 1.428 . S
C343 O346 1.301 . S
C343 O347 1.282 . S
O344 U326 2.441 . S
O344 C330 1.249 . S
O345 U326 2.420 . S
O345 C330 1.202 . S
O346 U326 2.455 . S
O346 C343 1.301 . S
O347 U326 2.449 . S
O347 C343 1.282 . S
H348 C321 0.931 . S
H349 C323 0.929 . S
H350 C324 0.930 . S
H351 C325 0.931 . S
H352 C332 0.932 . S
H353 C333 0.930 . S
H354 C334 0.929 . S
H355 C336 0.930 . S
H356 C338 0.932 . S
H357 C339 0.929 . S
H358 C340 0.928 . S
H359 C342 0.932 . S
H360 C368 0.950 . S
H361 C373 0.950 . S
H362 C370 0.950 . S
H363 C372 0.950 . S
H364 C374 0.950 . S
H365 C376 0.950 . S
H366 C378 0.950 . S
H367 C379 0.950 . S
C368 H360 0.950 . S
C368 C369 1.386 . S
C368 C370 1.391 . S
C369 C368 1.386 . S
C369 C373 1.393 . S
C370 H362 0.950 . S
C370 C368 1.391 . S
C370 C371 1.400 . S
C371 C370 1.400 . S
C371 C372 1.398 . S
C371 C377 1.491 . S
C372 H363 0.950 . S
C372 C371 1.398 . S
C372 C373 1.391 . S
C373 H361 0.950 . S
C373 C369 1.393 . S
C373 C372 1.391 . S
C374 H364 0.950 . S
C374 C375 1.386 . S
C374 C376 1.391 . S
C375 C374 1.386 . S
C375 C379 1.393 . S
C376 H365 0.950 . S
C376 C374 1.391 . S
C376 C377 1.400 . S
C377 C371 1.491 . S
C377 C376 1.400 . S
C377 C378 1.398 . S
C378 H366 0.950 . S
C378 C377 1.398 . S
C378 C379 1.391 . S
C379 H367 0.950 . S
C379 C375 1.393 . S
C379 C378 1.391 . S
H380 C388 0.950 . S
H381 C393 0.950 . S
H382 C390 0.950 . S
H383 C392 0.950 . S
H384 C394 0.950 . S
H385 C396 0.950 . S
H386 C398 0.950 . S
H387 C399 0.950 . S
C388 H380 0.950 . S
C388 C389 1.386 . S
C388 C390 1.391 . S
C389 C388 1.386 . S
C389 C393 1.393 . S
C390 H382 0.950 . S
C390 C388 1.391 . S
C390 C391 1.400 . S
C391 C390 1.400 . S
C391 C392 1.398 . S
C391 C397 1.491 . S
C392 H383 0.950 . S
C392 C391 1.398 . S
C392 C393 1.391 . S
C393 H381 0.950 . S
C393 C389 1.393 . S
C393 C392 1.391 . S
C394 H384 0.950 . S
C394 C395 1.386 . S
C394 C396 1.391 . S
C395 C394 1.386 . S
C395 C399 1.393 . S
C396 H385 0.950 . S
C396 C394 1.391 . S
C396 C397 1.400 . S
C397 C391 1.491 . S
C397 C396 1.400 . S
C397 C398 1.398 . S
C398 H386 0.950 . S
C398 C397 1.398 . S
C398 C399 1.391 . S
C399 H387 0.950 . S
C399 C395 1.393 . S
C399 C398 1.391 . S
H400 C408 0.950 . S
H401 C413 0.950 . S
H402 C410 0.950 . S
H403 C412 0.950 . S
H404 C414 0.950 . S
H405 C416 0.950 . S
H406 C418 0.950 . S
H407 C419 0.950 . S
C408 H400 0.950 . S
C408 C409 1.386 . S
C408 C410 1.391 . S
C409 C408 1.386 . S
C409 C413 1.393 . S
C410 H402 0.950 . S
C410 C408 1.391 . S
C410 C411 1.400 . S
C411 C410 1.400 . S
C411 C412 1.398 . S
C411 C417 1.491 . S
C412 H403 0.950 . S
C412 C411 1.398 . S
C412 C413 1.391 . S
C413 H401 0.950 . S
C413 C409 1.393 . S
C413 C412 1.391 . S
C414 H404 0.950 . S
C414 C415 1.386 . S
C414 C416 1.391 . S
C415 C414 1.386 . S
C415 C419 1.393 . S
C416 H405 0.950 . S
C416 C414 1.391 . S
C416 C417 1.400 . S
C417 C411 1.491 . S
C417 C416 1.400 . S
C417 C418 1.398 . S
C418 H406 0.950 . S
C418 C417 1.398 . S
C418 C419 1.391 . S
C419 H407 0.950 . S
C419 C415 1.393 . S
C419 C418 1.391 . S
H420 C428 0.950 . S
H421 C433 0.950 . S
H422 C430 0.950 . S
H423 C432 0.950 . S
H424 C434 0.950 . S
H425 C436 0.950 . S
H426 C438 0.950 . S
H427 C439 0.950 . S
C428 H420 0.950 . S
C428 C429 1.386 . S
C428 C430 1.391 . S
C429 C428 1.386 . S
C429 C433 1.393 . S
C430 H422 0.950 . S
C430 C428 1.391 . S
C430 C431 1.400 . S
C431 C430 1.400 . S
C431 C432 1.398 . S
C431 C437 1.491 . S
C432 H423 0.950 . S
C432 C431 1.398 . S
C432 C433 1.391 . S
C433 H421 0.950 . S
C433 C429 1.393 . S
C433 C432 1.391 . S
C434 H424 0.950 . S
C434 C435 1.386 . S
C434 C436 1.391 . S
C435 C434 1.386 . S
C435 C439 1.393 . S
C436 H425 0.950 . S
C436 C434 1.391 . S
C436 C437 1.400 . S
C437 C431 1.491 . S
C437 C436 1.400 . S
C437 C438 1.398 . S
C438 H426 0.950 . S
C438 C437 1.398 . S
C438 C439 1.391 . S
C439 H427 0.950 . S
C439 C435 1.393 . S
C439 C438 1.391 . S
H440 C448 0.950 . S
H441 C453 0.950 . S
H442 C450 0.950 . S
H443 C452 0.950 . S
H444 C454 0.950 . S
H445 C456 0.950 . S
H446 C458 0.950 . S
H447 C459 0.950 . S
C448 H440 0.950 . S
C448 C449 1.386 . S
C448 C450 1.391 . S
C449 C448 1.386 . S
C449 C453 1.393 . S
C450 H442 0.950 . S
C450 C448 1.391 . S
C450 C451 1.400 . S
C451 C450 1.400 . S
C451 C452 1.398 . S
C451 C457 1.491 . S
C452 H443 0.950 . S
C452 C451 1.398 . S
C452 C453 1.391 . S
C453 H441 0.950 . S
C453 C449 1.393 . S
C453 C452 1.391 . S
C454 H444 0.950 . S
C454 C455 1.386 . S
C454 C456 1.391 . S
C455 C454 1.386 . S
C455 C459 1.393 . S
C456 H445 0.950 . S
C456 C454 1.391 . S
C456 C457 1.400 . S
C457 C451 1.491 . S
C457 C456 1.400 . S
C457 C458 1.398 . S
C458 H446 0.950 . S
C458 C457 1.398 . S
C458 C459 1.391 . S
C459 H447 0.950 . S
C459 C455 1.393 . S
C459 C458 1.391 . S
H460 C468 0.950 . S
H461 C473 0.950 . S
H462 C470 0.950 . S
H463 C472 0.950 . S
H464 C474 0.950 . S
H465 C476 0.950 . S
H466 C478 0.950 . S
H467 C479 0.950 . S
C468 H460 0.950 . S
C468 C469 1.386 . S
C468 C470 1.391 . S
C469 C468 1.386 . S
C469 C473 1.393 . S
C470 H462 0.950 . S
C470 C468 1.391 . S
C470 C471 1.400 . S
C471 C470 1.400 . S
C471 C472 1.398 . S
C471 C477 1.491 . S
C472 H463 0.950 . S
C472 C471 1.398 . S
C472 C473 1.391 . S
C473 H461 0.950 . S
C473 C469 1.393 . S
C473 C472 1.391 . S
C474 H464 0.950 . S
C474 C475 1.386 . S
C474 C476 1.391 . S
C475 C474 1.386 . S
C475 C479 1.393 . S
C476 H465 0.950 . S
C476 C474 1.391 . S
C476 C477 1.400 . S
C477 C471 1.491 . S
C477 C476 1.400 . S
C477 C478 1.398 . S
C478 H466 0.950 . S
C478 C477 1.398 . S
C478 C479 1.391 . S
C479 H467 0.950 . S
C479 C475 1.393 . S
C479 C478 1.391 . S
H480 C488 0.950 . S
H481 C493 0.950 . S
H482 C490 0.950 . S
H483 C492 0.950 . S
H484 C494 0.950 . S
H485 C496 0.950 . S
H486 C498 0.950 . S
H487 C499 0.950 . S
C488 H480 0.950 . S
C488 C489 1.386 . S
C488 C490 1.391 . S
C489 C488 1.386 . S
C489 C493 1.393 . S
C490 H482 0.950 . S
C490 C488 1.391 . S
C490 C491 1.400 . S
C491 C490 1.400 . S
C491 C492 1.398 . S
C491 C497 1.491 . S
C492 H483 0.950 . S
C492 C491 1.398 . S
C492 C493 1.391 . S
C493 H481 0.950 . S
C493 C489 1.393 . S
C493 C492 1.391 . S
C494 H484 0.950 . S
C494 C495 1.386 . S
C494 C496 1.391 . S
C495 C494 1.386 . S
C495 C499 1.393 . S
C496 H485 0.950 . S
C496 C494 1.391 . S
C496 C497 1.400 . S
C497 C491 1.491 . S
C497 C496 1.400 . S
C497 C498 1.398 . S
C498 H486 0.950 . S
C498 C497 1.398 . S
C498 C499 1.391 . S
C499 H487 0.950 . S
C499 C495 1.393 . S
C499 C498 1.391 . S
H500 C508 0.950 . S
H501 C513 0.950 . S
H502 C510 0.950 . S
H503 C512 0.950 . S
H504 C514 0.950 . S
H505 C516 0.950 . S
H506 C518 0.950 . S
H507 C519 0.950 . S
C508 H500 0.950 . S
C508 C509 1.386 . S
C508 C510 1.391 . S
C509 C508 1.386 . S
C509 C513 1.393 . S
C510 H502 0.950 . S
C510 C508 1.391 . S
C510 C511 1.400 . S
C511 C510 1.400 . S
C511 C512 1.398 . S
C511 C517 1.491 . S
C512 H503 0.950 . S
C512 C511 1.398 . S
C512 C513 1.391 . S
C513 H501 0.950 . S
C513 C509 1.393 . S
C513 C512 1.391 . S
C514 H504 0.950 . S
C514 C515 1.386 . S
C514 C516 1.391 . S
C515 C514 1.386 . S
C515 C519 1.393 . S
C516 H505 0.950 . S
C516 C514 1.391 . S
C516 C517 1.400 . S
C517 C511 1.491 . S
C517 C516 1.400 . S
C517 C518 1.398 . S
C518 H506 0.950 . S
C518 C517 1.398 . S
C518 C519 1.391 . S
C519 H507 0.950 . S
C519 C515 1.393 . S
C519 C518 1.391 . S
H520 C528 0.950 . S
H521 C533 0.950 . S
H522 C530 0.950 . S
H523 C532 0.950 . S
H524 C534 0.950 . S
H525 C536 0.950 . S
H526 C538 0.950 . S
H527 C539 0.950 . S
C528 H520 0.950 . S
C528 C529 1.386 . S
C528 C530 1.391 . S
C529 C528 1.386 . S
C529 C533 1.393 . S
C530 H522 0.950 . S
C530 C528 1.391 . S
C530 C531 1.400 . S
C531 C530 1.400 . S
C531 C532 1.398 . S
C531 C537 1.491 . S
C532 H523 0.950 . S
C532 C531 1.398 . S
C532 C533 1.391 . S
C533 H521 0.950 . S
C533 C529 1.393 . S
C533 C532 1.391 . S
C534 H524 0.950 . S
C534 C535 1.386 . S
C534 C536 1.391 . S
C535 C534 1.386 . S
C535 C539 1.393 . S
C536 H525 0.950 . S
C536 C534 1.391 . S
C536 C537 1.400 . S
C537 C531 1.491 . S
C537 C536 1.400 . S
C537 C538 1.398 . S
C538 H526 0.950 . S
C538 C537 1.398 . S
C538 C539 1.391 . S
C539 H527 0.950 . S
C539 C535 1.393 . S
C539 C538 1.391 . S
H540 C548 0.950 . S
H541 C553 0.950 . S
H542 C550 0.950 . S
H543 C552 0.950 . S
H544 C554 0.950 . S
H545 C556 0.950 . S
H546 C558 0.950 . S
H547 C559 0.950 . S
C548 H540 0.950 . S
C548 C549 1.386 . S
C548 C550 1.391 . S
C549 C548 1.386 . S
C549 C553 1.393 . S
C550 H542 0.950 . S
C550 C548 1.391 . S
C550 C551 1.400 . S
C551 C550 1.400 . S
C551 C552 1.398 . S
C551 C557 1.491 . S
C552 H543 0.950 . S
C552 C551 1.398 . S
C552 C553 1.391 . S
C553 H541 0.950 . S
C553 C549 1.393 . S
C553 C552 1.391 . S
C554 H544 0.950 . S
C554 C555 1.386 . S
C554 C556 1.391 . S
C555 C554 1.386 . S
C555 C559 1.393 . S
C556 H545 0.950 . S
C556 C554 1.391 . S
C556 C557 1.400 . S
C557 C551 1.491 . S
C557 C556 1.400 . S
C557 C558 1.398 . S
C558 H546 0.950 . S
C558 C557 1.398 . S
C558 C559 1.391 . S
C559 H547 0.950 . S
C559 C555 1.393 . S
C559 C558 1.391 . S
H560 C568 0.950 . S
H561 C573 0.950 . S
H562 C570 0.950 . S
H563 C572 0.950 . S
H564 C574 0.950 . S
H565 C576 0.950 . S
H566 C578 0.950 . S
H567 C579 0.950 . S
C568 H560 0.950 . S
C568 C569 1.386 . S
C568 C570 1.391 . S
C569 C568 1.386 . S
C569 C573 1.393 . S
C570 H562 0.950 . S
C570 C568 1.391 . S
C570 C571 1.400 . S
C571 C570 1.400 . S
C571 C572 1.398 . S
C571 C577 1.491 . S
C572 H563 0.950 . S
C572 C571 1.398 . S
C572 C573 1.391 . S
C573 H561 0.950 . S
C573 C569 1.393 . S
C573 C572 1.391 . S
C574 H564 0.950 . S
C574 C575 1.386 . S
C574 C576 1.391 . S
C575 C574 1.386 . S
C575 C579 1.393 . S
C576 H565 0.950 . S
C576 C574 1.391 . S
C576 C577 1.400 . S
C577 C571 1.491 . S
C577 C576 1.400 . S
C577 C578 1.398 . S
C578 H566 0.950 . S
C578 C577 1.398 . S
C578 C579 1.391 . S
C579 H567 0.950 . S
C579 C575 1.393 . S
C579 C578 1.391 . S
H580 C588 0.950 . S
H581 C593 0.950 . S
H582 C590 0.950 . S
H583 C592 0.950 . S
H584 C594 0.950 . S
H585 C596 0.950 . S
H586 C598 0.950 . S
H587 C599 0.950 . S
C588 H580 0.950 . S
C588 C589 1.386 . S
C588 C590 1.391 . S
C589 C588 1.386 . S
C589 C593 1.393 . S
C590 H582 0.950 . S
C590 C588 1.391 . S
C590 C591 1.400 . S
C591 C590 1.400 . S
C591 C592 1.398 . S
C591 C597 1.491 . S
C592 H583 0.950 . S
C592 C591 1.398 . S
C592 C593 1.391 . S
C593 H581 0.950 . S
C593 C589 1.393 . S
C593 C592 1.391 . S
C594 H584 0.950 . S
C594 C595 1.386 . S
C594 C596 1.391 . S
C595 C594 1.386 . S
C595 C599 1.393 . S
C596 H585 0.950 . S
C596 C594 1.391 . S
C596 C597 1.400 . S
C597 C591 1.491 . S
C597 C596 1.400 . S
C597 C598 1.398 . S
C598 H586 0.950 . S
C598 C597 1.398 . S
C598 C599 1.391 . S
C599 H587 0.950 . S
C599 C595 1.393 . S
C599 C598 1.391 . S
H600 C608 0.950 . S
H601 C613 0.950 1_655 S
H602 C610 0.950 . S
H603 C612 0.950 . S
H604 C614 0.950 . S
H605 C616 0.950 . S
H606 C618 0.950 . S
H607 C619 0.950 . S
C608 H600 0.950 . S
C608 C609 1.386 . S
C608 C610 1.391 . S
C609 C608 1.386 . S
C609 C613 1.393 . S
C610 H602 0.950 . S
C610 C608 1.391 . S
C610 C611 1.400 . S
C611 C610 1.400 . S
C611 C612 1.398 . S
C611 C617 1.491 . S
C612 H603 0.950 . S
C612 C611 1.398 . S
C612 C613 1.391 . S
C613 H601 0.950 1_455 S
C613 C609 1.393 . S
C613 C612 1.391 . S
C614 H604 0.950 . S
C614 C615 1.386 . S
C614 C616 1.391 . S
C615 C614 1.386 . S
C615 C619 1.393 . S
C616 H605 0.950 . S
C616 C614 1.391 . S
C616 C617 1.400 . S
C617 C611 1.491 . S
C617 C616 1.400 . S
C617 C618 1.398 . S
C618 H606 0.950 . S
C618 C617 1.398 . S
C618 C619 1.391 . S
C619 H607 0.950 . S
C619 C615 1.393 . S
C619 C618 1.391 . S
H620 C628 0.950 . S
H621 C633 0.950 . S
H622 C630 0.950 . S
H623 C632 0.950 . S
H624 C634 0.950 1_565 S
H625 C636 0.950 1_565 S
H626 C638 0.950 . S
H627 C639 0.950 . S
C628 H620 0.950 . S
C628 C629 1.386 . S
C628 C630 1.391 . S
C629 C628 1.386 . S
C629 C633 1.393 1_545 S
C630 H622 0.950 . S
C630 C628 1.391 . S
C630 C631 1.400 . S
C631 C630 1.400 . S
C631 C632 1.398 1_545 S
C631 C637 1.491 . S
C632 H623 0.950 . S
C632 C631 1.398 1_565 S
C632 C633 1.391 . S
C633 H621 0.950 . S
C633 C629 1.393 1_565 S
C633 C632 1.391 . S
C634 H624 0.950 1_545 S
C634 C635 1.386 . S
C634 C636 1.391 . S
C635 C634 1.386 . S
C635 C639 1.393 . S
C636 H625 0.950 1_545 S
C636 C634 1.391 . S
C636 C637 1.400 . S
C637 C631 1.491 . S
C637 C636 1.400 . S
C637 C638 1.398 . S
C638 H626 0.950 . S
C638 C637 1.398 . S
C638 C639 1.391 . S
C639 H627 0.950 . S
C639 C635 1.393 . S
C639 C638 1.391 . S
H640 C648 0.950 . S
H641 C653 0.950 . S
H642 C650 0.950 . S
H643 C652 0.950 . S
H644 C654 0.950 . S
H645 C656 0.950 . S
H646 C658 0.950 . S
H647 C659 0.950 . S
C648 H640 0.950 . S
C648 C649 1.386 . S
C648 C650 1.391 . S
C649 C648 1.386 . S
C649 C653 1.393 . S
C650 H642 0.950 . S
C650 C648 1.391 . S
C650 C651 1.400 . S
C651 C650 1.400 . S
C651 C652 1.398 . S
C651 C657 1.491 . S
C652 H643 0.950 . S
C652 C651 1.398 . S
C652 C653 1.391 . S
C653 H641 0.950 . S
C653 C649 1.393 . S
C653 C652 1.391 . S
C654 H644 0.950 . S
C654 C655 1.386 . S
C654 C656 1.391 . S
C655 C654 1.386 . S
C655 C659 1.393 . S
C656 H645 0.950 . S
C656 C654 1.391 . S
C656 C657 1.400 . S
C657 C651 1.491 . S
C657 C656 1.400 . S
C657 C658 1.398 . S
C658 H646 0.950 . S
C658 C657 1.398 . S
C658 C659 1.391 . S
C659 H647 0.950 . S
C659 C655 1.393 . S
C659 C658 1.391 . S
H660 C668 0.950 . S
H661 C673 0.950 . S
H662 C670 0.950 . S
H663 C672 0.950 . S
H664 C674 0.950 1_565 S
H665 C676 0.950 1_565 S
H666 C678 0.950 . S
H667 C679 0.950 . S
C668 H660 0.950 . S
C668 C669 1.386 . S
C668 C670 1.391 . S
C669 C668 1.386 . S
C669 C673 1.393 1_545 S
C670 H662 0.950 . S
C670 C668 1.391 . S
C670 C671 1.400 . S
C671 C670 1.400 . S
C671 C672 1.398 1_545 S
C671 C677 1.491 . S
C672 H663 0.950 . S
C672 C671 1.398 1_565 S
C672 C673 1.391 . S
C673 H661 0.950 . S
C673 C669 1.393 1_565 S
C673 C672 1.391 . S
C674 H664 0.950 1_545 S
C674 C675 1.386 . S
C674 C676 1.391 . S
C675 C674 1.386 . S
C675 C679 1.393 . S
C676 H665 0.950 1_545 S
C676 C674 1.391 . S
C676 C677 1.400 . S
C677 C671 1.491 . S
C677 C676 1.400 . S
C677 C678 1.398 . S
C678 H666 0.950 . S
C678 C677 1.398 . S
C678 C679 1.391 . S
C679 H667 0.950 . S
C679 C675 1.393 . S
C679 C678 1.391 . S
H680 C688 0.950 . S
H681 C693 0.950 . S
H682 C690 0.950 . S
H683 C692 0.950 . S
H684 C694 0.950 . S
H685 C696 0.950 . S
H686 C698 0.950 . S
H687 C699 0.950 . S
C688 H680 0.950 . S
C688 C689 1.386 . S
C688 C690 1.391 . S
C689 C688 1.386 . S
C689 C693 1.393 . S
C690 H682 0.950 . S
C690 C688 1.391 . S
C690 C691 1.400 . S
C691 C690 1.400 . S
C691 C692 1.398 . S
C691 C697 1.491 . S
C692 H683 0.950 . S
C692 C691 1.398 . S
C692 C693 1.391 . S
C693 H681 0.950 . S
C693 C689 1.393 . S
C693 C692 1.391 . S
C694 H684 0.950 . S
C694 C695 1.386 . S
C694 C696 1.391 . S
C695 C694 1.386 . S
C695 C699 1.393 . S
C696 H685 0.950 . S
C696 C694 1.391 . S
C696 C697 1.400 . S
C697 C691 1.491 . S
C697 C696 1.400 . S
C697 C698 1.398 . S
C698 H686 0.950 . S
C698 C697 1.398 . S
C698 C699 1.391 . S
C699 H687 0.950 . S
C699 C695 1.393 . S
C699 C698 1.391 . S
H700 C708 0.957 . S
H701 C713 0.950 . S
H702 C710 0.966 . S
H703 C712 0.950 . S
H704 C714 0.950 . S
H705 C716 0.950 . S
H706 C718 0.950 . S
H707 C719 0.950 . S
C708 H700 0.957 . S
C708 C709 1.375 1_655 S
C708 C710 1.391 1_655 S
C709 C708 1.375 1_455 S
C709 C713 1.397 . S
C710 H702 0.966 . S
C710 C708 1.391 1_455 S
C710 C711 1.400 . S
C711 C710 1.400 . S
C711 C712 1.398 . S
C711 C717 1.491 . S
C712 H703 0.950 . S
C712 C711 1.398 . S
C712 C713 1.391 . S
C713 H701 0.950 . S
C713 C709 1.397 . S
C713 C712 1.391 . S
C714 H704 0.950 . S
C714 C715 1.386 . S
C714 C716 1.391 . S
C715 C714 1.386 . S
C715 C719 1.393 . S
C716 H705 0.950 . S
C716 C714 1.391 . S
C716 C717 1.400 . S
C717 C711 1.491 . S
C717 C716 1.400 . S
C717 C718 1.398 . S
C718 H706 0.950 . S
C718 C717 1.398 . S
C718 C719 1.391 . S
C719 H707 0.950 . S
C719 C715 1.393 . S
C719 C718 1.391 . S
C369 C12 2.998 . S
C375 C335 2.935 . S
C389 C52 2.971 . S
C395 C242 2.935 . S
C409 C111 3.035 . S
C415 C282 2.983 . S
C429 C31 3.199 . S
C435 C322 3.143 . S
C455 C255 3.151 . S
C449 C71 3.227 . S
C475 C295 3.083 . S
C469 C92 3.157 . S
C489 C48 0.439 . S
C495 C162 0.441 . S
C509 C109 0.464 . S
C515 C202 0.409 . S
C529 C29 0.485 . S
C535 C135 0.439 . S
C555 C175 0.319 . S
C549 C69 0.408 . S
C575 C215 0.317 . S
C569 C88 0.317 . S
C589 C8 0.292 . S
C595 C122 0.253 . S
C615 C221 1.072 1_554 S
C609 C17 1.085 1_455 S
C629 C57 1.087 . S
C635 C141 1.100 . S
C649 C97 1.079 . S
C655 C181 1.102 . S
C675 C301 1.776 . S
C669 C42 1.722 . S
C695 C341 1.765 1_556 S
C689 C82 1.738 . S
C709 C2 1.741 . S
C715 C261 1.772 . S
