# Generated by pormake.
# Topology dag, (6,3)-cn, num edge types: 1
# Building blocks:
#     Node 0, Type 0, BuildingBlock: MIDCAF_clean_sbu_0, # of connection points: 6
#     Node 1, Type 0, BuildingBlock: MIDCAF_clean_sbu_0, # of connection points: 6
#     Node 2, Type 0, BuildingBlock: MIDCAF_clean_sbu_0, # of connection points: 6
#     Node 3, Type 0, BuildingBlock: MIDCAF_clean_sbu_0, # of connection points: 6
#     Node 4, Type 1, BuildingBlock: WUSLED_clean_sbu_0, # of connection points: 3
#     Node 5, Type 1, BuildingBlock: WUSLED_clean_sbu_0, # of connection points: 3
#     Node 6, Type 1, BuildingBlock: WUSLED_clean_sbu_0, # of connection points: 3
#     Node 7, Type 1, BuildingBlock: WUSLED_clean_sbu_0, # of connection points: 3
#     Node 8, Type 1, BuildingBlock: WUSLED_clean_sbu_0, # of connection points: 3
#     Node 9, Type 1, BuildingBlock: WUSLED_clean_sbu_0, # of connection points: 3
#     Node 10, Type 1, BuildingBlock: WUSLED_clean_sbu_0, # of connection points: 3
#     Node 11, Type 1, BuildingBlock: WUSLED_clean_sbu_0, # of connection points: 3
#     Edge 12, Type (0, 1), BuildingBlock: ZUJKAS_clean_linker_0, # of connection points: 2
#     Edge 13, Type (0, 1), BuildingBlock: ZUJKAS_clean_linker_0, # of connection points: 2
#     Edge 14, Type (0, 1), BuildingBlock: ZUJKAS_clean_linker_0, # of connection points: 2
#     Edge 15, Type (0, 1), BuildingBlock: ZUJKAS_clean_linker_0, # of connection points: 2
#     Edge 16, Type (0, 1), BuildingBlock: ZUJKAS_clean_linker_0, # of connection points: 2
#     Edge 17, Type (0, 1), BuildingBlock: ZUJKAS_clean_linker_0, # of connection points: 2
#     Edge 18, Type (0, 1), BuildingBlock: ZUJKAS_clean_linker_0, # of connection points: 2
#     Edge 19, Type (0, 1), BuildingBlock: ZUJKAS_clean_linker_0, # of connection points: 2
#     Edge 20, Type (0, 1), BuildingBlock: ZUJKAS_clean_linker_0, # of connection points: 2
#     Edge 21, Type (0, 1), BuildingBlock: ZUJKAS_clean_linker_0, # of connection points: 2
#     Edge 22, Type (0, 1), BuildingBlock: ZUJKAS_clean_linker_0, # of connection points: 2
#     Edge 23, Type (0, 1), BuildingBlock: ZUJKAS_clean_linker_0, # of connection points: 2
#     Edge 24, Type (0, 1), BuildingBlock: ZUJKAS_clean_linker_0, # of connection points: 2
#     Edge 25, Type (0, 1), BuildingBlock: ZUJKAS_clean_linker_0, # of connection points: 2
#     Edge 26, Type (0, 1), BuildingBlock: ZUJKAS_clean_linker_0, # of connection points: 2
#     Edge 27, Type (0, 1), BuildingBlock: ZUJKAS_clean_linker_0, # of connection points: 2
#     Edge 28, Type (0, 1), BuildingBlock: ZUJKAS_clean_linker_0, # of connection points: 2
#     Edge 29, Type (0, 1), BuildingBlock: ZUJKAS_clean_linker_0, # of connection points: 2
#     Edge 30, Type (0, 1), BuildingBlock: ZUJKAS_clean_linker_0, # of connection points: 2
#     Edge 31, Type (0, 1), BuildingBlock: ZUJKAS_clean_linker_0, # of connection points: 2
#     Edge 32, Type (0, 1), BuildingBlock: ZUJKAS_clean_linker_0, # of connection points: 2
#     Edge 33, Type (0, 1), BuildingBlock: ZUJKAS_clean_linker_0, # of connection points: 2
#     Edge 34, Type (0, 1), BuildingBlock: ZUJKAS_clean_linker_0, # of connection points: 2
#     Edge 35, Type (0, 1), BuildingBlock: ZUJKAS_clean_linker_0, # of connection points: 2
# Relax obj value: 0.296
# Max RMSD: 0.189
# Mean RMSD: 0.177
data_MOF--net-dag--node1-MIDCAF_clean_sbu_0--node2-WUSLED_clean_sbu_0--edge1-ZUJKAS_clean_linker_0
_symmetry_space_group_name_H-M    P1
_symmetry_Int_Tables_number       1
_symmetry_cell_setting            triclinic
loop_
_symmetry_equiv_pos_as_xyz
'x, y, z'
_cell_length_a     64.917889
_cell_length_b     63.668647
_cell_length_c     48.772626
_cell_angle_alpha  90.303747
_cell_angle_beta   94.022015
_cell_angle_gamma 90.124621
loop_
_atom_site_label
_atom_site_type_symbol
_atom_site_fract_x
_atom_site_fract_y
_atom_site_fract_z
_atom_type_partial_charge
Zn0 Zn 0.14074 0.84574 0.05409 0.0
Zn1 Zn 0.17589 0.87236 0.94551 0.0
Zn2 Zn 0.15085 0.85149 0.00692 0.0
C3 C 0.15853 0.90171 0.98586 0.0
C4 C 0.14054 0.84831 0.93945 0.0
O5 O 0.16849 0.82358 0.02123 0.0
O6 O 0.15108 0.81634 0.05715 0.0
C7 C 0.16571 0.88088 0.05643 0.0
O8 O 0.156 0.88689 0.00365 0.0
O9 O 0.16418 0.89827 0.96177 0.0
O10 O 0.15323 0.85576 0.92341 0.0
O11 O 0.14451 0.84954 0.96515 0.0
O12 O 0.15814 0.8678 0.07224 0.0
O13 O 0.16297 0.87875 0.03023 0.0
O14 O 0.11783 0.84313 0.0057 0.0
O15 O 0.11056 0.84976 0.04825 0.0
C16 C 0.1046 0.84502 0.02384 0.0
O17 O 0.17492 0.83023 0.99429 0.0
O18 O 0.18602 0.86029 0.98192 0.0
C19 C 0.16445 0.81112 0.0408 0.0
C20 C 0.18797 0.84068 0.9814 0.0
Zn21 Zn 0.63894 0.63273 0.44846 0.0
Zn22 Zn 0.64905 0.66182 0.5384 0.0
Zn23 Zn 0.64332 0.64865 0.49457 0.0
C24 C 0.64505 0.62177 0.54964 0.0
C25 C 0.61398 0.68068 0.51854 0.0
O26 O 0.66365 0.66696 0.46889 0.0
O27 O 0.655 0.65269 0.42837 0.0
C28 C 0.6587 0.60235 0.47914 0.0
O29 O 0.65011 0.62223 0.52449 0.0
O30 O 0.63985 0.63853 0.56106 0.0
O31 O 0.62998 0.68585 0.53318 0.0
O32 O 0.61415 0.6639 0.50367 0.0
O33 O 0.65295 0.60611 0.45447 0.0
O34 O 0.65486 0.6156 0.49825 0.0
O35 O 0.60995 0.65228 0.47885 0.0
O36 O 0.60908 0.63323 0.44074 0.0
C37 C 0.59989 0.64432 0.45749 0.0
O38 O 0.668 0.67338 0.49657 0.0
O39 O 0.6789 0.66851 0.53986 0.0
C40 C 0.6653 0.66604 0.44277 0.0
C41 C 0.68135 0.67688 0.51696 0.0
Zn42 Zn 0.85257 0.16004 0.0121 0.0
Zn43 Zn 0.85372 0.14123 0.10714 0.0
Zn44 Zn 0.85609 0.15106 0.06157 0.0
C45 C 0.89477 0.14005 0.10115 0.0
C46 C 0.83173 0.11151 0.07898 0.0
O47 O 0.83238 0.17627 0.05472 0.0
O48 O 0.82801 0.1779 0.00941 0.0
C49 C 0.89145 0.17483 0.03438 0.0
O50 O 0.88845 0.15261 0.08161 0.0
O51 O 0.8817 0.12972 0.11352 0.0
O52 O 0.83045 0.12107 0.10149 0.0
O53 O 0.84376 0.11871 0.06131 0.0
O54 O 0.87873 0.17538 0.01363 0.0
O55 O 0.88693 0.16461 0.05593 0.0
O56 O 0.85026 0.12194 0.03518 0.0
O57 O 0.85177 0.13317 0.99252 0.0
C58 C 0.8502 0.11827 0.00909 0.0
O59 O 0.83426 0.17161 0.08273 0.0
O60 O 0.84748 0.16802 0.12532 0.0
C61 C 0.82314 0.1839 0.03274 0.0
C62 C 0.83526 0.17726 0.10821 0.0
Zn63 Zn 0.34043 0.37344 0.61018 0.0
Zn64 Zn 0.35299 0.33925 0.51561 0.0
Zn65 Zn 0.35309 0.35359 0.56011 0.0
C66 C 0.3942 0.34517 0.53158 0.0
C67 C 0.32755 0.37456 0.51196 0.0
O68 O 0.329 0.33563 0.58226 0.0
O69 O 0.31202 0.3632 0.59641 0.0
C70 C 0.36296 0.33614 0.61571 0.0
O71 O 0.38602 0.34867 0.5543 0.0
O72 O 0.38261 0.34327 0.50979 0.0
O73 O 0.33157 0.3583 0.49842 0.0
O74 O 0.33573 0.37716 0.53644 0.0
O75 O 0.36217 0.35431 0.62606 0.0
O76 O 0.35173 0.33197 0.59368 0.0
O77 O 0.34606 0.38876 0.55902 0.0
O78 O 0.34854 0.40168 0.60149 0.0
C79 C 0.34731 0.40454 0.57592 0.0
O80 O 0.33715 0.32231 0.56258 0.0
O81 O 0.34505 0.30987 0.52232 0.0
C82 C 0.31247 0.34373 0.59154 0.0
C83 C 0.33736 0.30705 0.54503 0.0
C84 C 0.11647 0.08157 0.29355 0.0
C85 C 0.10249 0.06798 0.27925 0.0
C86 C 0.07831 0.09675 0.27015 0.0
C87 C 0.08367 0.07545 0.26766 0.0
C88 C 0.09222 0.11029 0.28515 0.0
C89 C 0.11117 0.10275 0.29676 0.0
U90 U 0.16982 0.08149 0.33592 0.0
O91 O 0.17805 0.11494 0.33939 0.0
O92 O 0.16469 0.09901 0.37386 0.0
C93 C 0.17324 0.11623 0.36508 0.0
C94 C 0.13675 0.07318 0.30339 0.0
C95 C 0.18883 0.12623 0.38426 0.0
C96 C 0.19832 0.15509 0.4153 0.0
C97 C 0.18386 0.14505 0.39716 0.0
C98 C 0.22316 0.12768 0.40776 0.0
C99 C 0.21812 0.14654 0.42091 0.0
C100 C 0.20856 0.11754 0.38962 0.0
C101 C 0.20071 0.03405 0.32112 0.0
C102 C 0.21774 0.0013 0.31074 0.0
C103 C 0.18783 0.01278 0.28226 0.0
C104 C 0.18632 0.0305 0.29881 0.0
C105 C 0.20363 0.99799 0.28782 0.0
C106 C 0.21628 0.01925 0.32728 0.0
C107 C 0.19946 0.05358 0.33707 0.0
O108 O 0.13887 0.06727 0.3292 0.0
O109 O 0.15304 0.083 0.29522 0.0
O110 O 0.18516 0.05375 0.35485 0.0
O111 O 0.19954 0.07072 0.32218 0.0
H112 H 0.10637 0.0516 0.27643 0.0
H113 H 0.07365 0.06459 0.25587 0.0
H114 H 0.08853 0.12673 0.28772 0.0
H115 H 0.12179 0.11348 0.30781 0.0
H116 H 0.19408 0.1698 0.42462 0.0
H117 H 0.16876 0.15206 0.39308 0.0
H118 H 0.23826 0.12069 0.4117 0.0
H119 H 0.21266 0.10299 0.37976 0.0
H120 H 0.22998 0.99014 0.31572 0.0
H121 H 0.17697 0.01113 0.26448 0.0
H122 H 0.17417 0.04176 0.29375 0.0
H123 H 0.22745 0.02172 0.34457 0.0
C124 C 0.3232 0.66258 0.65317 0.0
C125 C 0.33544 0.65881 0.63105 0.0
C126 C 0.32857 0.62119 0.63357 0.0
C127 C 0.33804 0.63833 0.62128 0.0
C128 C 0.31628 0.62516 0.65573 0.0
C129 C 0.31363 0.64564 0.66539 0.0
U130 U 0.34358 0.71807 0.66051 0.0
O131 O 0.32861 0.74878 0.6647 0.0
O132 O 0.3508 0.73748 0.69734 0.0
C133 C 0.33745 0.7521 0.68945 0.0
C134 C 0.32157 0.68383 0.66488 0.0
C135 C 0.32382 0.75901 0.71047 0.0
C136 C 0.29442 0.75348 0.73769 0.0
C137 C 0.30657 0.7471 0.7166 0.0
C138 C 0.31658 0.7838 0.7465 0.0
C139 C 0.29941 0.77179 0.75312 0.0
C140 C 0.32865 0.77745 0.72534 0.0
C141 C 0.39169 0.73142 0.62302 0.0
C142 C 0.42312 0.74952 0.63971 0.0
C143 C 0.41687 0.74168 0.59115 0.0
C144 C 0.39783 0.73274 0.59611 0.0
C145 C 0.43004 0.74912 0.61314 0.0
C146 C 0.40392 0.74095 0.6446 0.0
C147 C 0.37439 0.71749 0.62871 0.0
O148 O 0.33692 0.6891 0.68255 0.0
O149 O 0.31636 0.69887 0.64732 0.0
O150 O 0.35575 0.72359 0.61995 0.0
O151 O 0.37532 0.70937 0.65347 0.0
H152 H 0.34316 0.67169 0.62153 0.0
H153 H 0.34741 0.63596 0.60402 0.0
H154 H 0.30906 0.61238 0.66608 0.0
H155 H 0.30438 0.64821 0.68275 0.0
H156 H 0.28114 0.74403 0.74194 0.0
H157 H 0.30266 0.73279 0.70527 0.0
H158 H 0.32108 0.7978 0.75814 0.0
H159 H 0.342 0.78677 0.72092 0.0
H160 H 0.43317 0.75508 0.65692 0.0
H161 H 0.4221 0.74099 0.57055 0.0
H162 H 0.3886 0.72553 0.57921 0.0
H163 H 0.39938 0.74039 0.66554 0.0
C164 C 0.77192 0.86413 0.13292 0.0
C165 C 0.78753 0.87345 0.11867 0.0
C166 C 0.76669 0.90489 0.11163 0.0
C167 C 0.78496 0.89365 0.10814 0.0
C168 C 0.75092 0.89535 0.12558 0.0
C169 C 0.75352 0.87505 0.13611 0.0
U170 U 0.80542 0.81621 0.14284 0.0
O171 O 0.81404 0.79759 0.1796 0.0
O172 O 0.79687 0.78274 0.14423 0.0
C173 C 0.80322 0.78124 0.17035 0.0
C174 C 0.77516 0.84327 0.14491 0.0
C175 C 0.78748 0.77435 0.18858 0.0
C176 C 0.75828 0.78289 0.21509 0.0
C177 C 0.77208 0.78844 0.19564 0.0
C178 C 0.77445 0.74869 0.21963 0.0
C179 C 0.75958 0.76311 0.2277 0.0
C180 C 0.78836 0.75432 0.20025 0.0
C181 C 0.85687 0.81985 0.10523 0.0
C182 C 0.89243 0.80858 0.11535 0.0
C183 C 0.88171 0.8224 0.07044 0.0
C184 C 0.86167 0.82489 0.0785 0.0
C185 C 0.89747 0.81479 0.08897 0.0
C186 C 0.87226 0.8112 0.1235 0.0
C187 C 0.83655 0.82639 0.11398 0.0
O188 O 0.77496 0.82775 0.12703 0.0
O189 O 0.79057 0.84214 0.1638 0.0
O190 O 0.83547 0.83161 0.13996 0.0
O191 O 0.82021 0.81617 0.10345 0.0
H192 H 0.80188 0.86521 0.11614 0.0
H193 H 0.79756 0.90071 0.098 0.0
H194 H 0.73667 0.90363 0.12848 0.0
H195 H 0.74131 0.86799 0.14703 0.0
H196 H 0.74684 0.79422 0.22064 0.0
H197 H 0.77111 0.80396 0.18666 0.0
H198 H 0.77593 0.73339 0.22917 0.0
H199 H 0.80015 0.74327 0.195 0.0
H200 H 0.90426 0.80268 0.13007 0.0
H201 H 0.88502 0.82697 0.04984 0.0
H202 H 0.85006 0.83164 0.06411 0.0
H203 H 0.86893 0.80723 0.1443 0.0
C204 C 0.65694 0.42887 0.79533 0.0
C205 C 0.63838 0.43501 0.78117 0.0
C206 C 0.65635 0.46243 0.75764 0.0
C207 C 0.63808 0.45159 0.76255 0.0
C208 C 0.6749 0.45641 0.77223 0.0
C209 C 0.67519 0.43972 0.79091 0.0
U210 U 0.6268 0.38411 0.82007 0.0
O211 O 0.63325 0.35034 0.82473 0.0
O212 O 0.62409 0.3689 0.85999 0.0
C213 C 0.63013 0.35054 0.85107 0.0
C214 C 0.65707 0.41034 0.81324 0.0
C215 C 0.64542 0.3393 0.86906 0.0
C216 C 0.67698 0.33821 0.89884 0.0
C217 C 0.66304 0.34935 0.88121 0.0
C218 C 0.65589 0.30691 0.89197 0.0
C219 C 0.67352 0.31686 0.90451 0.0
C220 C 0.64199 0.31805 0.87447 0.0
C221 C 0.57138 0.38113 0.78901 0.0
C222 C 0.54984 0.3503 0.79343 0.0
C223 C 0.53713 0.37986 0.76609 0.0
C224 C 0.55557 0.3906 0.77258 0.0
C225 C 0.5342 0.35942 0.77598 0.0
C226 C 0.56834 0.3611 0.79991 0.0
C227 C 0.59142 0.39167 0.79276 0.0
O228 O 0.64518 0.41177 0.83394 0.0
O229 O 0.65493 0.3924 0.79989 0.0
O230 O 0.60667 0.38165 0.78217 0.0
O231 O 0.59632 0.39934 0.81742 0.0
H232 H 0.62416 0.42666 0.78411 0.0
H233 H 0.62359 0.45549 0.75139 0.0
H234 H 0.68922 0.46455 0.76915 0.0
H235 H 0.68966 0.43513 0.80158 0.0
H236 H 0.6903 0.3464 0.90831 0.0
H237 H 0.66592 0.36578 0.87723 0.0
H238 H 0.65294 0.29042 0.8954 0.0
H239 H 0.62848 0.31004 0.86515 0.0
H240 H 0.54796 0.33466 0.80155 0.0
H241 H 0.52559 0.38723 0.75221 0.0
H242 H 0.55778 0.40603 0.76393 0.0
H243 H 0.58049 0.35361 0.8127 0.0
C244 C 0.63795 0.28702 0.44077 0.0
C245 C 0.63458 0.30545 0.4557 0.0
C246 C 0.60003 0.29348 0.46478 0.0
C247 C 0.61584 0.30867 0.46752 0.0
C248 C 0.60366 0.27482 0.45019 0.0
C249 C 0.62246 0.27164 0.43827 0.0
U250 U 0.68963 0.30927 0.42793 0.0
O251 O 0.72046 0.29558 0.42378 0.0
O252 O 0.70562 0.31456 0.39046 0.0
C253 C 0.7217 0.30323 0.39896 0.0
C254 C 0.65732 0.28449 0.42708 0.0
C255 C 0.72995 0.28939 0.37827 0.0
C256 C 0.72503 0.26478 0.34018 0.0
C257 C 0.71727 0.2754 0.36245 0.0
C258 C 0.75835 0.28143 0.35022 0.0
C259 C 0.7455 0.26817 0.3334 0.0
C260 C 0.75061 0.29194 0.37244 0.0
C261 C 0.70316 0.36162 0.46226 0.0
C262 C 0.72736 0.3866 0.44489 0.0
C263 C 0.71223 0.39319 0.48816 0.0
C264 C 0.70147 0.37424 0.4855 0.0
C265 C 0.7248 0.39989 0.4675 0.0
C266 C 0.71667 0.3675 0.44235 0.0
C267 C 0.68943 0.34341 0.45799 0.0
O268 O 0.66008 0.29846 0.40792 0.0
O269 O 0.67394 0.28154 0.44364 0.0
O270 O 0.69668 0.32543 0.46757 0.0
O271 O 0.68008 0.34191 0.43329 0.0
H272 H 0.64634 0.31757 0.45776 0.0
H273 H 0.61355 0.32337 0.47815 0.0
H274 H 0.59195 0.26268 0.44792 0.0
H275 H 0.6248 0.2573 0.42685 0.0
H276 H 0.71475 0.25473 0.32751 0.0
H277 H 0.70123 0.27333 0.36667 0.0
H278 H 0.77427 0.28408 0.34578 0.0
H279 H 0.7606 0.3027 0.38448 0.0
H280 H 0.73694 0.39137 0.42869 0.0
H281 H 0.70957 0.40324 0.50555 0.0
H282 H 0.69108 0.36993 0.50099 0.0
H283 H 0.71824 0.3578 0.4243 0.0
C284 C 0.10725 0.25598 0.91581 0.0
C285 C 0.10404 0.24258 0.93785 0.0
C286 C 0.07139 0.25967 0.94482 0.0
C287 C 0.08638 0.24449 0.95229 0.0
C288 C 0.07442 0.27295 0.92248 0.0
C289 C 0.09234 0.27118 0.90814 0.0
U290 U 0.14911 0.21993 0.8966 0.0
O291 O 0.18253 0.22437 0.89399 0.0
O292 O 0.16326 0.21364 0.85777 0.0
C293 C 0.18161 0.22003 0.86755 0.0
C294 C 0.1257 0.25314 0.90034 0.0
C295 C 0.19189 0.23511 0.85033 0.0
C296 C 0.19352 0.26902 0.82785 0.0
C297 C 0.18401 0.25539 0.84561 0.0
C298 C 0.21901 0.24231 0.81997 0.0
C299 C 0.21104 0.26254 0.81458 0.0
C300 C 0.20954 0.22879 0.83769 0.0
C301 C 0.14306 0.16416 0.92829 0.0
C302 C 0.16565 0.13374 0.92703 0.0
C303 C 0.13189 0.13044 0.94487 0.0
C304 C 0.12823 0.15169 0.93992 0.0
C305 C 0.15055 0.12114 0.93834 0.0
C306 C 0.16188 0.15515 0.92187 0.0
C307 C 0.13795 0.18633 0.92295 0.0
O308 O 0.14298 0.25045 0.91563 0.0
O309 O 0.12342 0.23967 0.87984 0.0
O310 O 0.1309 0.19084 0.89778 0.0
O311 O 0.15069 0.20059 0.93402 0.0
H312 H 0.11513 0.23044 0.94374 0.0
H313 H 0.0842 0.23369 0.96895 0.0
H314 H 0.06298 0.28466 0.91621 0.0
H315 H 0.09447 0.28149 0.89096 0.0
H316 H 0.18708 0.28454 0.82436 0.0
H317 H 0.17037 0.26053 0.85533 0.0
H318 H 0.23219 0.23658 0.80976 0.0
H319 H 0.21578 0.21316 0.84106 0.0
H320 H 0.18016 0.12698 0.92176 0.0
H321 H 0.12012 0.12127 0.95404 0.0
H322 H 0.11366 0.1584 0.94512 0.0
H323 H 0.1735 0.16459 0.9128 0.0
C324 C 0.30061 0.52585 0.23801 0.0
C325 C 0.31767 0.51978 0.25531 0.0
C326 C 0.29749 0.49179 0.27409 0.0
C327 C 0.31614 0.50296 0.27318 0.0
C328 C 0.28067 0.49731 0.25573 0.0
C329 C 0.28221 0.51431 0.23785 0.0
U330 U 0.33144 0.57342 0.22442 0.0
O331 O 0.33638 0.59148 0.18706 0.0
O332 O 0.3233 0.60685 0.22235 0.0
C333 C 0.32775 0.60845 0.19656 0.0
C334 C 0.30173 0.54546 0.22255 0.0
C335 C 0.3118 0.61825 0.17797 0.0
C336 C 0.276 0.62238 0.16053 0.0
C337 C 0.29097 0.61216 0.17771 0.0
C338 C 0.30265 0.64445 0.14339 0.0
C339 C 0.2817 0.6387 0.14321 0.0
C340 C 0.31752 0.63433 0.16059 0.0
C341 C 0.38458 0.57404 0.26676 0.0
C342 C 0.40661 0.60381 0.28023 0.0
C343 C 0.41785 0.56844 0.29151 0.0
C344 C 0.39965 0.56046 0.27845 0.0
C345 C 0.42134 0.59024 0.29319 0.0
C346 C 0.38831 0.59577 0.26717 0.0
C347 C 0.36456 0.56509 0.25658 0.0
O348 O 0.30176 0.56239 0.23805 0.0
O349 O 0.31594 0.5459 0.20463 0.0
O350 O 0.36253 0.55955 0.23053 0.0
O351 O 0.34807 0.57429 0.26517 0.0
H352 H 0.33196 0.52866 0.25586 0.0
H353 H 0.32929 0.4995 0.28732 0.0
H354 H 0.26616 0.48888 0.25571 0.0
H355 H 0.26887 0.51886 0.22463 0.0
H356 H 0.26001 0.61753 0.16077 0.0
H357 H 0.28628 0.59968 0.19097 0.0
H358 H 0.30753 0.65722 0.13074 0.0
H359 H 0.33351 0.63927 0.1606 0.0
H360 H 0.40879 0.62067 0.28125 0.0
H361 H 0.42903 0.55756 0.30085 0.0
H362 H 0.39705 0.54363 0.27825 0.0
H363 H 0.37681 0.6065 0.25823 0.0
C364 C 0.84308 0.9294 0.76056 0.0
C365 C 0.85992 0.93217 0.77989 0.0
C366 C 0.84384 0.96315 0.79847 0.0
C367 C 0.86027 0.94876 0.79869 0.0
C368 C 0.8272 0.96064 0.7785 0.0
C369 C 0.82681 0.94385 0.75973 0.0
U370 U 0.87206 0.88396 0.73523 0.0
O371 O 0.86483 0.85029 0.731 0.0
O372 O 0.87395 0.86814 0.69531 0.0
C373 C 0.86759 0.85004 0.70456 0.0
C374 C 0.84253 0.91096 0.74221 0.0
C375 C 0.85179 0.83883 0.68711 0.0
C376 C 0.81953 0.83774 0.6587 0.0
C377 C 0.83401 0.84891 0.67577 0.0
C378 C 0.84036 0.80634 0.66464 0.0
C379 C 0.82262 0.81634 0.65278 0.0
C380 C 0.85479 0.8175 0.68157 0.0
C381 C 0.92752 0.88045 0.76663 0.0
C382 C 0.94851 0.84903 0.76482 0.0
C383 C 0.96209 0.8802 0.78859 0.0
C384 C 0.94372 0.89076 0.78156 0.0
C385 C 0.96456 0.8591 0.78076 0.0
C386 C 0.93008 0.85968 0.75775 0.0
C387 C 0.90763 0.8911 0.76248 0.0
O388 O 0.85457 0.91215 0.72167 0.0
O389 O 0.84405 0.89291 0.75517 0.0
O390 O 0.89215 0.88149 0.7731 0.0
O391 O 0.90297 0.89846 0.73771 0.0
H392 H 0.87265 0.92116 0.78084 0.0
H393 H 0.87316 0.94988 0.81397 0.0
H394 H 0.81443 0.97158 0.77744 0.0
H395 H 0.81374 0.94201 0.74484 0.0
H396 H 0.80612 0.84596 0.64977 0.0
H397 H 0.83143 0.86539 0.67993 0.0
H398 H 0.84305 0.78981 0.66103 0.0
H399 H 0.86838 0.80945 0.69033 0.0
H400 H 0.95005 0.83285 0.75832 0.0
H401 H 0.97397 0.88831 0.80128 0.0
H402 H 0.9419 0.90677 0.78865 0.0
H403 H 0.91763 0.85154 0.74612 0.0
H404 H 0.20645 0.87985 0.07024 0.0
H405 H 0.22307 0.89921 0.10941 0.0
H406 H 0.1688 0.93776 0.11287 0.0
H407 H 0.15212 0.91828 0.0739 0.0
H408 H 0.22085 0.95268 0.12905 0.0
H409 H 0.18104 0.88781 0.18077 0.0
H410 H 0.19167 0.88414 0.14785 0.0
H411 H 0.16859 0.89923 0.15021 0.0
C412 C 0.19864 0.89332 0.07834 0.0
C413 C 0.17817 0.89784 0.06914 0.0
C414 C 0.20806 0.90422 0.10078 0.0
C415 C 0.19703 0.9197 0.114 0.0
C416 C 0.17752 0.92589 0.10272 0.0
H417 H 0.17303 0.97449 0.26112 0.0
H418 H 0.17616 0.95197 0.22126 0.0
C419 C 0.16807 0.91491 0.08039 0.0
C420 C 0.20362 0.92624 0.14226 0.0
H421 H 0.19371 0.91596 0.20859 0.0
C422 C 0.21533 0.94455 0.14661 0.0
C423 C 0.19641 0.91534 0.16487 0.0
C424 C 0.18378 0.89547 0.16093 0.0
C425 C 0.21885 0.95316 0.17311 0.0
C426 C 0.21059 0.94291 0.1957 0.0
C427 C 0.20005 0.92378 0.19134 0.0
C428 C 0.20956 0.95345 0.22275 0.0
C429 C 0.23013 0.97389 0.17631 0.0
C430 C 0.22733 0.96083 0.23787 0.0
C431 C 0.22555 0.97431 0.26034 0.0
C432 C 0.20595 0.98025 0.26831 0.0
C433 C 0.18833 0.97087 0.25495 0.0
C434 C 0.19011 0.95777 0.23228 0.0
H435 H 0.23238 0.98133 0.15618 0.0
H436 H 0.22156 0.98501 0.18889 0.0
H437 H 0.24559 0.97128 0.18689 0.0
H438 H 0.24253 0.95706 0.23147 0.0
H439 H 0.23947 0.98107 0.27029 0.0
H440 H 0.57373 0.66738 0.51549 0.0
H441 H 0.54423 0.6874 0.53087 0.0
H442 H 0.58306 0.74207 0.54395 0.0
H443 H 0.61242 0.72233 0.52865 0.0
H444 H 0.56049 0.72398 0.59215 0.0
H445 H 0.51252 0.74292 0.49651 0.0
H446 H 0.52421 0.71724 0.49863 0.0
H447 H 0.54026 0.74012 0.49748 0.0
C448 C 0.57573 0.68385 0.52076 0.0
C449 C 0.59528 0.69333 0.52105 0.0
C450 C 0.55899 0.6952 0.52968 0.0
C451 C 0.56166 0.71611 0.53863 0.0
C452 C 0.58082 0.72593 0.53721 0.0
H453 H 0.44929 0.77844 0.58282 0.0
H454 H 0.48493 0.77646 0.56891 0.0
C455 C 0.59749 0.71465 0.52841 0.0
C456 C 0.54502 0.72708 0.55185 0.0
H457 H 0.49708 0.74756 0.53858 0.0
C458 C 0.54667 0.72941 0.58052 0.0
C459 C 0.52748 0.73472 0.53649 0.0
C460 C 0.5259 0.73383 0.50552 0.0
C461 C 0.53052 0.73808 0.59447 0.0
C462 C 0.51205 0.74398 0.57927 0.0
C463 C 0.51109 0.74291 0.55038 0.0
C464 C 0.49268 0.74851 0.59261 0.0
C465 C 0.53342 0.74051 0.6253 0.0
C466 C 0.48546 0.73401 0.61133 0.0
C467 C 0.46552 0.7356 0.61989 0.0
C468 C 0.45219 0.75129 0.60924 0.0
C469 C 0.4595 0.76636 0.59144 0.0
C470 C 0.47975 0.76514 0.58346 0.0
H471 H 0.54975 0.74438 0.63175 0.0
H472 H 0.52336 0.75296 0.63307 0.0
H473 H 0.52979 0.72539 0.63512 0.0
H474 H 0.49465 0.72056 0.6179 0.0
H475 H 0.45997 0.72353 0.63314 0.0
H476 H 0.79491 0.10209 0.09863 0.0
H477 H 0.77742 0.06803 0.09723 0.0
H478 H 0.82399 0.04279 0.04761 0.0
H479 H 0.84174 0.07695 0.04905 0.0
H480 H 0.76882 0.03371 0.042 0.0
H481 H 0.82081 0.01625 0.13513 0.0
H482 H 0.81186 0.04262 0.12807 0.0
H483 H 0.83036 0.03096 0.10712 0.0
C484 C 0.80119 0.0894 0.08691 0.0
C485 C 0.8197 0.09207 0.07399 0.0
C486 C 0.7911 0.07006 0.08598 0.0
C487 C 0.79943 0.05307 0.07227 0.0
C488 C 0.81727 0.05591 0.05802 0.0
H489 H 0.77739 0.92116 0.06287 0.0
H490 H 0.78099 0.9583 0.05158 0.0
C491 C 0.82735 0.07537 0.0588 0.0
C492 C 0.79128 0.03184 0.07651 0.0
H493 H 0.79739 0.99002 0.11959 0.0
C494 C 0.77502 0.02406 0.05886 0.0
C495 C 0.79924 0.01964 0.09888 0.0
C496 C 0.81652 0.02765 0.11854 0.0
C497 C 0.76675 0.00397 0.06283 0.0
C498 C 0.77507 0.99159 0.08487 0.0
C499 C 0.79102 0.99964 0.10278 0.0
C500 C 0.76864 0.96965 0.08893 0.0
C501 C 0.74912 0.99612 0.04371 0.0
C502 C 0.76016 0.96382 0.11345 0.0
C503 C 0.75821 0.94262 0.12005 0.0
C504 C 0.76498 0.92698 0.10235 0.0
C505 C 0.77227 0.9329 0.07703 0.0
C506 C 0.77412 0.95408 0.0704 0.0
H507 H 0.74173 0.00902 0.03137 0.0
H508 H 0.75501 0.98433 0.02938 0.0
H509 H 0.73726 0.98832 0.05551 0.0
H510 H 0.75604 0.97568 0.1281 0.0
H511 H 0.75268 0.93855 0.13979 0.0
H512 H 0.36681 0.29749 0.64027 0.0
H513 H 0.3983 0.28556 0.66683 0.0
H514 H 0.43185 0.33813 0.63619 0.0
H515 H 0.40114 0.34918 0.60912 0.0
H516 H 0.4573 0.30672 0.64771 0.0
H517 H 0.40794 0.32102 0.73499 0.0
H518 H 0.40035 0.29976 0.71215 0.0
H519 H 0.39906 0.32637 0.69995 0.0
C520 C 0.38125 0.30572 0.63828 0.0
C521 C 0.38173 0.32426 0.62302 0.0
C522 C 0.39911 0.29913 0.65367 0.0
C523 C 0.41719 0.31142 0.65428 0.0
C524 C 0.41812 0.32842 0.63626 0.0
H525 H 0.49432 0.37311 0.76825 0.0
H526 H 0.46597 0.35553 0.74182 0.0
C527 C 0.40054 0.33473 0.62071 0.0
C528 C 0.43383 0.30955 0.67652 0.0
H529 H 0.44342 0.32022 0.74494 0.0
C530 C 0.45433 0.30907 0.66913 0.0
C531 C 0.42983 0.31316 0.70436 0.0
C532 C 0.40815 0.31528 0.71346 0.0
C533 C 0.47085 0.31375 0.6883 0.0
C534 C 0.46677 0.31793 0.71595 0.0
C535 C 0.44643 0.3168 0.72378 0.0
C536 C 0.48282 0.32672 0.73585 0.0
C537 C 0.49221 0.31605 0.6782 0.0
C538 C 0.50134 0.31599 0.74245 0.0
C539 C 0.51774 0.32618 0.75713 0.0
C540 C 0.51574 0.34718 0.76573 0.0
C541 C 0.4965 0.35713 0.7613 0.0
C542 C 0.48023 0.34703 0.7464 0.0
H543 H 0.49192 0.31635 0.65539 0.0
H544 H 0.49971 0.33072 0.68632 0.0
H545 H 0.50187 0.30259 0.68551 0.0
H546 H 0.50345 0.30012 0.73509 0.0
H547 H 0.53234 0.31805 0.76021 0.0
H548 H 0.65738 0.57222 0.51916 0.0
H549 H 0.67904 0.5406 0.5238 0.0
H550 H 0.70993 0.55895 0.45207 0.0
H551 H 0.68973 0.591 0.44902 0.0
H552 H 0.67727 0.51091 0.48728 0.0
H553 H 0.7585 0.53755 0.49666 0.0
H554 H 0.73732 0.55513 0.50187 0.0
H555 H 0.74477 0.54946 0.46768 0.0
C556 C 0.66961 0.56996 0.5055 0.0
C557 C 0.67233 0.58421 0.48431 0.0
C558 C 0.68177 0.55181 0.50782 0.0
C559 C 0.69654 0.54762 0.48866 0.0
C560 C 0.69933 0.56212 0.46775 0.0
H561 H 0.72212 0.42755 0.42499 0.0
H562 H 0.72163 0.46571 0.42964 0.0
C563 C 0.68749 0.58028 0.46575 0.0
C564 C 0.70662 0.52681 0.48761 0.0
H565 H 0.75252 0.50225 0.47847 0.0
C566 C 0.69377 0.50905 0.48594 0.0
C567 C 0.72817 0.52436 0.48546 0.0
C568 C 0.74296 0.54267 0.48829 0.0
C569 C 0.70171 0.48905 0.48143 0.0
C570 C 0.72304 0.48673 0.47817 0.0
C571 C 0.73611 0.50425 0.48058 0.0
C572 C 0.73151 0.46577 0.4729 0.0
C573 C 0.68713 0.47048 0.47969 0.0
C574 C 0.73879 0.45348 0.49523 0.0
C575 C 0.73913 0.43164 0.49265 0.0
C576 C 0.73207 0.42196 0.46774 0.0
C577 C 0.72762 0.43452 0.44445 0.0
C578 C 0.72732 0.45636 0.44706 0.0
H579 H 0.67157 0.47458 0.48618 0.0
H580 H 0.68541 0.46464 0.45816 0.0
H581 H 0.69344 0.45745 0.49277 0.0
H582 H 0.74209 0.46056 0.51531 0.0
H583 H 0.74299 0.4223 0.51077 0.0
H584 H 0.9184 0.18999 0.0762 0.0
H585 H 0.94956 0.21159 0.07131 0.0
H586 H 0.93728 0.21061 0.98331 0.0
H587 H 0.90751 0.18822 0.9879 0.0
H588 H 0.98351 0.19825 0.03124 0.0
H589 H 0.94613 0.27529 0.00965 0.0
H590 H 0.9348 0.2552 0.03001 0.0
H591 H 0.93337 0.25297 0.9932 0.0
C592 C 0.92286 0.1938 0.05595 0.0
C593 C 0.91086 0.18682 0.03259 0.0
C594 C 0.94027 0.20653 0.05314 0.0
C595 C 0.94539 0.21292 0.02694 0.0
C596 C 0.93336 0.20611 0.00371 0.0
H597 H 0.0314 0.25971 0.92309 0.0
H598 H 0.00052 0.25279 0.94789 0.0
C599 C 0.9164 0.19314 0.00645 0.0
C600 C 0.96423 0.22514 0.02278 0.0
H601 H 0.97999 0.27058 0.99367 0.0
C602 C 0.98299 0.2143 0.02385 0.0
C603 C 0.96321 0.24588 0.0126 0.0
C604 C 0.94332 0.25814 0.01143 0.0
C605 C 0.00053 0.22314 0.01327 0.0
C606 C 0.99939 0.24365 0.00213 0.0
C607 C 0.98085 0.25492 0.00233 0.0
C608 C 0.01687 0.25262 0.98813 0.0
C609 C 0.01972 0.20985 0.01229 0.0
C610 C 0.036 0.25592 0.0027 0.0
C611 C 0.0536 0.25969 0.9886 0.0
C612 C 0.0523 0.26048 0.95973 0.0
C613 C 0.03282 0.25918 0.94534 0.0
C614 C 0.01519 0.25522 0.95948 0.0
H615 H 0.01669 0.19307 0.01669 0.0
H616 H 0.0261 0.21088 0.9918 0.0
H617 H 0.03166 0.21569 0.02789 0.0
H618 H 0.03751 0.25433 0.02485 0.0
H619 H 0.06842 0.26096 1.00018 0.0
H620 H 0.34001 0.41468 0.50448 0.0
H621 H 0.32773 0.43667 0.46567 0.0
H622 H 0.27759 0.39326 0.44644 0.0
H623 H 0.29026 0.37099 0.48461 0.0
H624 H 0.30446 0.39648 0.40573 0.0
H625 H 0.28065 0.47582 0.43881 0.0
H626 H 0.30471 0.46689 0.45507 0.0
H627 H 0.28119 0.45338 0.46138 0.0
C628 C 0.32574 0.4105 0.49284 0.0
C629 C 0.31599 0.39126 0.49734 0.0
C630 C 0.31876 0.42302 0.47062 0.0
C631 C 0.30179 0.41652 0.45313 0.0
C632 C 0.29072 0.3985 0.45967 0.0
H633 H 0.26417 0.48562 0.30456 0.0
H634 H 0.26287 0.4646 0.34611 0.0
C635 C 0.29786 0.38588 0.48154 0.0
C636 C 0.29807 0.42588 0.42556 0.0
H637 H 0.28792 0.47179 0.39176 0.0
C638 C 0.30053 0.41289 0.40264 0.0
C639 C 0.293 0.44723 0.42163 0.0
C640 C 0.28954 0.46164 0.4455 0.0
C641 C 0.29848 0.42079 0.37584 0.0
C642 C 0.29419 0.44236 0.37192 0.0
C643 C 0.29122 0.45524 0.39482 0.0
C644 C 0.29376 0.45222 0.34447 0.0
C645 C 0.30097 0.40593 0.3521 0.0
C646 C 0.3113 0.45163 0.32924 0.0
C647 C 0.31195 0.46328 0.30517 0.0
C648 C 0.29522 0.47611 0.29616 0.0
C649 C 0.27726 0.47578 0.3107 0.0
C650 C 0.27655 0.46395 0.33464 0.0
H651 H 0.29736 0.38949 0.35766 0.0
H652 H 0.29087 0.4104 0.33376 0.0
H653 H 0.31726 0.40634 0.34655 0.0
H654 H 0.32489 0.44295 0.33662 0.0
H655 H 0.32591 0.46292 0.29424 0.0
H656 H 0.13551 0.81014 0.91487 0.0
H657 H 0.10354 0.7966 0.89095 0.0
H658 H 0.07126 0.8522 0.9153 0.0
H659 H 0.10273 0.86483 0.94063 0.0
H660 H 0.04578 0.81928 0.91106 0.0
H661 H 0.09092 0.82374 0.81809 0.0
H662 H 0.09969 0.80504 0.84366 0.0
H663 H 0.10131 0.83271 0.85128 0.0
C664 C 0.12137 0.8191 0.91542 0.0
C665 C 0.12135 0.83868 0.92861 0.0
C666 C 0.10322 0.81144 0.90183 0.0
C667 C 0.08527 0.82378 0.90048 0.0
C668 C 0.08498 0.8425 0.91583 0.0
H669 H 0.00454 0.87271 0.78457 0.0
H670 H 0.03344 0.85701 0.81155 0.0
C671 C 0.10292 0.84982 0.93004 0.0
C672 C 0.06783 0.81928 0.88014 0.0
H673 H 0.05529 0.82096 0.81108 0.0
C674 C 0.04778 0.81913 0.88916 0.0
C675 C 0.07062 0.81922 0.85158 0.0
C676 C 0.09174 0.82033 0.84046 0.0
C677 C 0.03044 0.82079 0.87048 0.0
C678 C 0.03331 0.82188 0.842 0.0
C679 C 0.05324 0.82006 0.83292 0.0
C680 C 0.01665 0.82907 0.82204 0.0
C681 C 0.00942 0.82322 0.88156 0.0
C682 C 0.99793 0.8181 0.81787 0.0
C683 C 0.9812 0.82727 0.8028 0.0
C684 C 0.98311 0.84742 0.79148 0.0
C685 C 0.00246 0.85741 0.79359 0.0
C686 C 0.01904 0.84836 0.80884 0.0
H687 H 0.01036 0.82512 0.90427 0.0
H688 H 0.0013 0.83707 0.87227 0.0
H689 H -4e-05 0.80907 0.8762 0.0
H690 H 0.99595 0.80294 0.82733 0.0
H691 H 0.96649 0.81915 0.80149 0.0
H692 H 0.81543 0.09667 0.99275 0.0
H693 H 0.81342 0.06696 0.96033 0.0
H694 H 0.87996 0.0642 0.96409 0.0
H695 H 0.88187 0.09353 0.9968 0.0
H696 H 0.82852 0.07082 0.91015 0.0
H697 H 0.86562 0.00251 0.96314 0.0
H698 H 0.85704 0.02517 0.98159 0.0
H699 H 0.88131 0.02575 0.96589 0.0
C700 C 0.82954 0.08899 0.9876 0.0
C701 C 0.84879 0.09695 0.99758 0.0
C702 C 0.82841 0.0722 0.96891 0.0
C703 C 0.84654 0.06324 0.95986 0.0
C704 C 0.86577 0.07046 0.97118 0.0
H705 H 0.87667 0.98639 0.82086 0.0
H706 H 0.87698 0.01108 0.85948 0.0
C707 C 0.86687 0.08718 0.98992 0.0
C708 C 0.84544 0.04853 0.93603 0.0
H709 H 0.86176 0.00074 0.91397 0.0
C710 C 0.83555 0.05538 0.91111 0.0
C711 C 0.8549 0.02851 0.93715 0.0
C712 C 0.86515 0.01996 0.96345 0.0
C713 C 0.8351 0.04291 0.88725 0.0
C714 C 0.84461 0.02298 0.88838 0.0
C715 C 0.85451 0.01608 0.91321 0.0
C716 C 0.84417 0.00889 0.86408 0.0
C717 C 0.82491 0.0513 0.8608 0.0
C718 C 0.82557 0.99963 0.85376 0.0
C719 C 0.82535 0.98528 0.83193 0.0
C720 C 0.84374 0.97993 0.81993 0.0
C721 C 0.86226 0.98979 0.82987 0.0
C722 C 0.86248 0.004 0.85186 0.0
H723 H 0.82188 0.06843 0.86205 0.0
H724 H 0.83469 0.04827 0.84342 0.0
H725 H 0.80994 0.04312 0.85622 0.0
H726 H 0.8113 0.00306 0.86312 0.0
H727 H 0.81086 0.97781 0.82517 0.0
H728 H 0.41218 0.3273 0.48892 0.0
H729 H 0.44813 0.31926 0.48446 0.0
H730 H 0.46385 0.34504 0.56521 0.0
H731 H 0.42705 0.35265 0.57035 0.0
H732 H 0.47918 0.34626 0.4832 0.0
H733 H 0.49557 0.29012 0.56898 0.0
H734 H 0.46963 0.29787 0.55772 0.0
H735 H 0.48596 0.3154 0.57845 0.0
C736 C 0.42313 0.33137 0.5059 0.0
C737 C 0.41663 0.34092 0.52993 0.0
C738 C 0.44381 0.32665 0.50328 0.0
C739 C 0.45881 0.33145 0.52443 0.0
C740 C 0.45254 0.34087 0.5487 0.0
H741 H 0.59227 0.31251 0.51376 0.0
H742 H 0.55871 0.3222 0.53002 0.0
C743 C 0.43154 0.34541 0.55154 0.0
C744 C 0.48088 0.32725 0.51971 0.0
H745 H 0.52278 0.2974 0.54077 0.0
C746 C 0.48872 0.33567 0.49595 0.0
C747 C 0.49343 0.31348 0.53633 0.0
C748 C 0.48576 0.30352 0.5617 0.0
C749 C 0.50836 0.33028 0.48791 0.0
C750 C 0.52061 0.31598 0.50396 0.0
C751 C 0.51325 0.30822 0.52838 0.0
C752 C 0.54089 0.30867 0.49518 0.0
C753 C 0.51575 0.33985 0.46208 0.0
C754 C 0.542 0.2974 0.4705 0.0
C755 C 0.56114 0.29199 0.46101 0.0
C756 C 0.57963 0.29764 0.47608 0.0
C757 C 0.57839 0.30822 0.50136 0.0
C758 C 0.55922 0.31364 0.51083 0.0
H759 H 0.50706 0.35434 0.45617 0.0
H760 H 0.53246 0.34371 0.46467 0.0
H761 H 0.51338 0.32839 0.44491 0.0
H762 H 0.52803 0.29314 0.45827 0.0
H763 H 0.56143 0.28399 0.44139 0.0
H764 H 0.1275 0.92639 0.96602 0.0
H765 H 0.128 0.96481 0.96428 0.0
H766 H 0.18438 0.96572 0.01659 0.0
H767 H 0.18382 0.92707 0.0184 0.0
H768 H 0.13159 0.99841 0.00634 0.0
H769 H 0.19867 0.99275 0.94142 0.0
H770 H 0.18223 0.97053 0.94717 0.0
H771 H 0.20057 0.97943 0.97395 0.0
C772 C 0.13949 0.93486 0.97812 0.0
C773 C 0.15539 0.9239 0.99281 0.0
C774 C 0.13988 0.95677 0.97689 0.0
C775 C 0.15638 0.96808 0.98995 0.0
C776 C 0.1716 0.95724 0.00617 0.0
H777 H 0.18461 0.10165 0.96332 0.0
H778 H 0.18762 0.06458 0.97697 0.0
C779 C 0.17111 0.93524 0.00757 0.0
C780 C 0.15829 0.99091 0.98451 0.0
H781 H 0.18483 0.02634 0.94789 0.0
C782 C 0.14336 0.00457 0.99383 0.0
C783 C 0.17364 0.99889 0.96808 0.0
C784 C 0.18967 0.98471 0.95685 0.0
C785 C 0.14321 0.02597 0.98695 0.0
C786 C 0.15808 0.03383 0.96968 0.0
C787 C 0.17341 0.0203 0.96104 0.0
C788 C 0.15725 0.0558 0.95944 0.0
C789 C 0.12705 0.03997 0.99823 0.0
C790 C 0.1396 0.06293 0.94403 0.0
C791 C 0.13786 0.08397 0.9363 0.0
C792 C 0.15382 0.09834 0.94355 0.0
C793 C 0.17205 0.09094 0.95749 0.0
C794 C 0.17375 0.06981 0.96539 0.0
H795 H 0.12112 0.03333 0.01718 0.0
H796 H 0.13329 0.05594 0.00297 0.0
H797 H 0.11381 0.04143 0.9827 0.0
H798 H 0.12695 0.05228 0.93842 0.0
H799 H 0.1238 0.0891 0.92504 0.0
H800 H 0.58527 0.67149 0.41911 0.0
H801 H 0.55207 0.66807 0.39244 0.0
H802 H 0.53291 0.6216 0.44949 0.0
H803 H 0.56623 0.62509 0.47618 0.0
H804 H 0.54284 0.62868 0.36869 0.0
H805 H 0.47961 0.65552 0.43109 0.0
H806 H 0.50609 0.66391 0.43797 0.0
H807 H 0.49798 0.63849 0.449 0.0
C808 C 0.57349 0.66146 0.4268 0.0
C809 C 0.57806 0.64889 0.45 0.0
C810 C 0.55464 0.6593 0.41135 0.0
C811 C 0.53999 0.64458 0.41892 0.0
C812 C 0.54383 0.63331 0.44348 0.0
H813 H 0.43628 0.57714 0.34385 0.0
H814 H 0.46541 0.59133 0.37256 0.0
C815 C 0.56278 0.63543 0.45891 0.0
C816 C 0.52242 0.63869 0.39918 0.0
H817 H 0.46992 0.63389 0.39213 0.0
C818 C 0.52686 0.63009 0.37364 0.0
C819 C 0.50164 0.64042 0.40572 0.0
C820 C 0.49595 0.65025 0.43233 0.0
C821 C 0.51111 0.62254 0.35488 0.0
C822 C 0.49035 0.6239 0.36169 0.0
C823 C 0.48587 0.63286 0.38698 0.0
C824 C 0.4731 0.61515 0.34351 0.0
C825 C 0.51683 0.61242 0.32842 0.0
C826 C 0.46778 0.62381 0.31755 0.0
C827 C 0.45108 0.61568 0.30098 0.0
C828 C 0.43952 0.59867 0.31007 0.0
C829 C 0.44505 0.59001 0.33602 0.0
C830 C 0.4616 0.59821 0.35257 0.0
H831 H 0.53364 0.6091 0.32858 0.0
H832 H 0.50819 0.5975 0.32463 0.0
H833 H 0.51264 0.62311 0.31103 0.0
H834 H 0.47635 0.63703 0.31026 0.0
H835 H 0.44727 0.62263 0.28105 0.0
H836 H 0.3126 0.42723 0.57655 0.0
H837 H 0.3111 0.46552 0.58057 0.0
H838 H 0.3752 0.46972 0.56333 0.0
H839 H 0.37672 0.43122 0.5595 0.0
H840 H 0.34044 0.48512 0.62306 0.0
H841 H 0.34421 0.51916 0.51853 0.0
H842 H 0.33417 0.49309 0.52382 0.0
H843 H 0.36141 0.49788 0.52839 0.0
C844 C 0.32604 0.43642 0.57214 0.0
C845 C 0.34462 0.4264 0.56695 0.0
C846 C 0.32525 0.45825 0.57482 0.0
C847 C 0.34302 0.47045 0.57223 0.0
C848 C 0.36124 0.46061 0.56505 0.0
H849 H 0.36387 0.60335 0.6156 0.0
H850 H 0.36875 0.5671 0.60024 0.0
C851 C 0.36205 0.43867 0.56252 0.0
C852 C 0.34301 0.49292 0.58052 0.0
H853 H 0.34349 0.543 0.55574 0.0
C854 C 0.34115 0.49779 0.60836 0.0
C855 C 0.34421 0.50935 0.56136 0.0
C856 C 0.34602 0.50479 0.53128 0.0
C857 C 0.3401 0.51869 0.61746 0.0
C858 C 0.34057 0.53514 0.59817 0.0
C859 C 0.34304 0.53032 0.57045 0.0
C860 C 0.33751 0.55732 0.60638 0.0
C861 C 0.33849 0.52309 0.64767 0.0
C862 C 0.31824 0.56388 0.61452 0.0
C863 C 0.3153 0.58461 0.62299 0.0
C864 C 0.33161 0.59925 0.62363 0.0
C865 C 0.35087 0.59263 0.61507 0.0
C866 C 0.35375 0.57189 0.60641 0.0
H867 H 0.34274 0.50918 0.66049 0.0
H868 H 0.34862 0.53646 0.65455 0.0
H869 H 0.32235 0.52744 0.65125 0.0
H870 H 0.30544 0.55293 0.61431 0.0
H871 H 0.30016 0.58917 0.62887 0.0
H872 H 0.07098 0.87009 0.01585 0.0
H873 H 0.03518 0.85985 0.02265 0.0
H874 H 0.05407 0.79522 0.0314 0.0
H875 H 0.08979 0.80543 0.02412 0.0
H876 H 0.00674 0.82601 0.99618 0.0
H877 H 0.0307 0.8146 0.10706 0.0
H878 H 0.04615 0.82946 0.08461 0.0
H879 H 0.04533 0.80136 0.08216 0.0
C880 C 0.06726 0.85361 0.01796 0.0
C881 C 0.08294 0.83846 0.01873 0.0
C882 C 0.0469 0.84779 0.02215 0.0
C883 C 0.04206 0.82682 0.02783 0.0
C884 C 0.05751 0.81148 0.02712 0.0
H885 H 0.92682 0.78372 0.09629 0.0
H886 H 0.96215 0.78404 0.0809 0.0
C887 C 0.07781 0.81727 0.02257 0.0
C888 C 0.02129 0.82145 0.03667 0.0
H889 H 0.99541 0.8107 0.09369 0.0
C890 C 0.00426 0.82248 0.01743 0.0
C891 C 0.01814 0.81664 0.06439 0.0
C892 C 0.03596 0.81552 0.08591 0.0
C893 C 0.98408 0.81925 0.02526 0.0
C894 C 0.9808 0.81551 0.05324 0.0
C895 C 0.99792 0.81366 0.0723 0.0
C896 C 0.9597 0.81516 0.06331 0.0
C897 C 0.96643 0.81995 0.00344 0.0
C898 C 0.94689 0.83274 0.05933 0.0
C899 C 0.92686 0.83256 0.06795 0.0
C900 C 0.91918 0.81486 0.08107 0.0
C901 C 0.93229 0.79753 0.08611 0.0
C902 C 0.95241 0.79768 0.07727 0.0
H903 H 0.97167 0.816 0.98284 0.0
H904 H 0.9539 0.8089 0.00813 0.0
H905 H 0.95998 0.83608 0.00244 0.0
H906 H 0.95239 0.84668 0.04949 0.0
H907 H 0.91735 0.84638 0.06444 0.0
H908 H 0.61538 0.60764 0.58086 0.0
H909 H 0.6181 0.57956 0.61492 0.0
H910 H 0.67918 0.56485 0.59095 0.0
H911 H 0.67673 0.59366 0.55749 0.0
H912 H 0.62384 0.53762 0.61223 0.0
H913 H 0.68965 0.57517 0.67275 0.0
H914 H 0.67504 0.58851 0.64528 0.0
H915 H 0.69465 0.56986 0.63766 0.0
C916 C 0.62925 0.59816 0.58258 0.0
C917 C 0.6457 0.60246 0.56621 0.0
C918 C 0.63081 0.58216 0.60207 0.0
C919 C 0.64895 0.57028 0.60583 0.0
C920 C 0.66516 0.57405 0.58877 0.0
H921 H 0.68489 0.47026 0.72005 0.0
H922 H 0.68312 0.49658 0.68358 0.0
C923 C 0.66364 0.59022 0.56932 0.0
C924 C 0.65092 0.55447 0.62819 0.0
H925 H 0.67946 0.5415 0.68725 0.0
C926 C 0.63602 0.53846 0.62861 0.0
C927 C 0.66665 0.55574 0.6498 0.0
C928 C 0.68229 0.57335 0.6516 0.0
C929 C 0.63661 0.52352 0.64974 0.0
C930 C 0.65247 0.52467 0.67112 0.0
C931 C 0.66739 0.54061 0.67072 0.0
C932 C 0.65385 0.50941 0.69406 0.0
C933 C 0.62039 0.50647 0.64886 0.0
C934 C 0.63825 0.50828 0.71249 0.0
C935 C 0.63929 0.49339 0.73352 0.0
C936 C 0.65601 0.47933 0.73658 0.0
C937 C 0.67191 0.48095 0.71851 0.0
C938 C 0.67086 0.49589 0.69753 0.0
H939 H 0.61224 0.5049 0.62814 0.0
H940 H 0.62736 0.49109 0.65479 0.0
H941 H 0.60875 0.51036 0.66369 0.0
H942 H 0.62521 0.51888 0.71055 0.0
H943 H 0.62697 0.49287 0.74737 0.0
H944 H 0.92435 0.17046 0.11299 0.0
H945 H 0.958 0.16566 0.13823 0.0
H946 H 0.94584 0.09918 0.143 0.0
H947 H 0.91348 0.10378 0.11561 0.0
H948 H 0.96492 0.15384 0.18838 0.0
H949 H 0.00371 0.09517 0.1264 0.0
H950 H 0.98076 0.10863 0.11312 0.0
H951 H 0.9789 0.08555 0.13418 0.0
C952 C 0.92958 0.15473 0.11763 0.0
C953 C 0.9167 0.13744 0.11106 0.0
C954 C 0.94859 0.152 0.13281 0.0
C955 C 0.95486 0.13194 0.14213 0.0
C956 C 0.94199 0.11469 0.13525 0.0
H957 H 0.04038 0.0774 0.26423 0.0
H958 H 0.01035 0.08793 0.23446 0.0
C959 C 0.92334 0.11736 0.11965 0.0
C960 C 0.97371 0.12913 0.16114 0.0
H961 H 0.01555 0.09726 0.17435 0.0
C962 C 0.97617 0.14171 0.185 0.0
C963 C 0.98849 0.11325 0.15698 0.0
C964 C 0.98792 0.10007 0.13112 0.0
C965 C 0.99249 0.13836 0.20506 0.0
C966 C 0.00664 0.12197 0.20128 0.0
C967 C 0.00449 0.10968 0.17731 0.0
C968 C 0.02384 0.1171 0.22189 0.0
C969 C 0.99423 0.15193 0.23055 0.0
C970 C 0.04125 0.13021 0.22507 0.0
C971 C 0.05862 0.12411 0.24179 0.0
C972 C 0.05889 0.10474 0.25564 0.0
C973 C 0.04093 0.0922 0.25345 0.0
C974 C 0.02368 0.09824 0.23659 0.0
H975 H 0.98051 0.16215 0.23215 0.0
H976 H 0.99615 0.14199 0.24919 0.0
H977 H 0.00813 0.16208 0.23017 0.0
H978 H 0.04175 0.14474 0.21368 0.0
H979 H 0.07218 0.13408 0.24273 0.0
H980 H 0.15555 0.78043 0.07666 0.0
H981 H 0.17374 0.74764 0.08588 0.0
H982 H 0.2148 0.7617 0.02259 0.0
H983 H 0.19701 0.7952 0.01382 0.0
H984 H 0.18133 0.7129 0.05566 0.0
H985 H 0.25451 0.75394 0.08954 0.0
H986 H 0.23044 0.76771 0.08317 0.0
H987 H 0.24495 0.75952 0.05493 0.0
C988 C 0.16846 0.77665 0.06463 0.0
C989 C 0.175 0.79063 0.04471 0.0
C990 C 0.17875 0.75776 0.06982 0.0
C991 C 0.19581 0.75234 0.05524 0.0
C992 C 0.20189 0.76577 0.03447 0.0
H993 H 0.2841 0.65185 0.09026 0.0
H994 H 0.2614 0.67676 0.06504 0.0
C995 C 0.19164 0.78485 0.02934 0.0
C996 C 0.20775 0.73322 0.06322 0.0
H997 H 0.25471 0.71709 0.09112 0.0
C998 C 0.19743 0.71376 0.06319 0.0
C999 C 0.22869 0.73443 0.07336 0.0
C1000 C 0.24029 0.75502 0.07555 0.0
C1001 C 0.20748 0.69555 0.07327 0.0
C1002 C 0.22831 0.69688 0.08357 0.0
C1003 C 0.23875 0.71616 0.08299 0.0
C1004 C 0.23956 0.67885 0.09641 0.0
C1005 C 0.19577 0.67507 0.07307 0.0
C1006 C 0.23449 0.67141 0.12213 0.0
C1007 C 0.24757 0.65733 0.13678 0.0
C1008 C 0.26599 0.65059 0.12594 0.0
C1009 C 0.27025 0.65707 0.09939 0.0
C1010 C 0.25723 0.67116 0.08485 0.0
H1011 H 0.18136 0.67566 0.05939 0.0
H1012 H 0.20553 0.66198 0.06632 0.0
H1013 H 0.19153 0.67157 0.09423 0.0
H1014 H 0.22106 0.67742 0.13157 0.0
H1015 H 0.24391 0.65277 0.15724 0.0
H1016 H 0.67575 0.71849 0.5087 0.0
H1017 H 0.70031 0.74607 0.52484 0.0
H1018 H 0.7471 0.69912 0.54204 0.0
H1019 H 0.72249 0.67155 0.52653 0.0
H1020 H 0.72715 0.72928 0.58864 0.0
H1021 H 0.76456 0.7657 0.50106 0.0
H1022 H 0.73791 0.75721 0.49742 0.0
H1023 H 0.75809 0.73807 0.50052 0.0
C1024 C 0.6916 0.71424 0.51456 0.0
C1025 C 0.69743 0.69302 0.51605 0.0
C1026 C 0.70553 0.72995 0.52399 0.0
C1027 C 0.72546 0.72455 0.53457 0.0
C1028 C 0.73181 0.70354 0.53377 0.0
H1029 H 0.83085 0.78711 0.61368 0.0
H1030 H 0.80622 0.76607 0.58504 0.0
C1031 C 0.71784 0.68785 0.52473 0.0
C1032 C 0.7384 0.73996 0.55067 0.0
H1033 H 0.77565 0.77734 0.54575 0.0
C1034 C 0.73765 0.73996 0.57934 0.0
C1035 C 0.75208 0.75363 0.53834 0.0
C1036 C 0.75337 0.75383 0.50762 0.0
C1037 C 0.7506 0.75304 0.59617 0.0
C1038 C 0.76441 0.76677 0.58389 0.0
C1039 C 0.76496 0.76691 0.55511 0.0
C1040 C 0.77913 0.78027 0.60067 0.0
C1041 C 0.74992 0.75142 0.62697 0.0
C1042 C 0.77209 0.79547 0.61875 0.0
C1043 C 0.78616 0.80735 0.63549 0.0
C1044 C 0.80755 0.80437 0.63429 0.0
C1045 C 0.8145 0.78953 0.61555 0.0
C1046 C 0.80044 0.77763 0.59895 0.0
H1047 H 0.74232 0.73668 0.63307 0.0
H1048 H 0.76571 0.75205 0.6373 0.0
H1049 H 0.74098 0.76481 0.63459 0.0
H1050 H 0.75571 0.79803 0.62008 0.0
H1051 H 0.78026 0.81854 0.64977 0.0
H1052 H 0.84211 0.21712 0.12618 0.0
H1053 H 0.82175 0.23529 0.15957 0.0
H1054 H 0.77569 0.18637 0.15101 0.0
H1055 H 0.79579 0.16848 0.11713 0.0
H1056 H 0.76899 0.24222 0.16212 0.0
H1057 H 0.81535 0.18879 0.23257 0.0
H1058 H 0.82511 0.19794 0.20099 0.0
H1059 H 0.80459 0.17903 0.19983 0.0
C1060 C 0.8271 0.21093 0.13036 0.0
C1061 C 0.82027 0.19167 0.11898 0.0
C1062 C 0.81556 0.2212 0.14948 0.0
C1063 C 0.79734 0.21205 0.15772 0.0
C1064 C 0.78963 0.19372 0.14462 0.0
H1065 H 0.7402 0.22813 0.31298 0.0
H1066 H 0.75162 0.21418 0.26956 0.0
C1067 C 0.80102 0.18362 0.12519 0.0
C1068 C 0.78861 0.21942 0.18316 0.0
H1069 H 0.79251 0.21189 0.25256 0.0
C1070 C 0.77402 0.2356 0.18191 0.0
C1071 C 0.79524 0.21059 0.2088 0.0
C1072 C 0.81097 0.19314 0.21092 0.0
C1073 C 0.76592 0.24335 0.20594 0.0
C1074 C 0.77289 0.23483 0.2317 0.0
C1075 C 0.78724 0.21838 0.23278 0.0
C1076 C 0.76597 0.24319 0.25786 0.0
C1077 C 0.74987 0.26046 0.2036 0.0
C1078 C 0.77067 0.26393 0.26584 0.0
C1079 C 0.76424 0.27188 0.29053 0.0
C1080 C 0.75302 0.25921 0.30779 0.0
C1081 C 0.74861 0.23831 0.29996 0.0
C1082 C 0.75516 0.23033 0.27525 0.0
H1083 H 0.74231 0.26135 0.18248 0.0
H1084 H 0.73782 0.25791 0.21832 0.0
H1085 H 0.75741 0.27581 0.20851 0.0
H1086 H 0.77935 0.27397 0.25296 0.0
H1087 H 0.76771 0.2881 0.29586 0.0
H1088 H 0.32037 0.30779 0.62037 0.0
H1089 H 0.29983 0.29471 0.657 0.0
H1090 H 0.25122 0.33816 0.63254 0.0
H1091 H 0.27181 0.35155 0.59621 0.0
H1092 H 0.28635 0.32929 0.69768 0.0
H1093 H 0.22304 0.27892 0.6503 0.0
H1094 H 0.2474 0.28184 0.63487 0.0
H1095 H 0.22927 0.30304 0.63353 0.0
C1096 C 0.30493 0.31388 0.62199 0.0
C1097 C 0.29767 0.33072 0.60555 0.0
C1098 C 0.29332 0.30657 0.64311 0.0
C1099 C 0.27414 0.31564 0.64753 0.0
C1100 C 0.26598 0.33096 0.62938 0.0
H1101 H 0.19108 0.28768 0.77564 0.0
H1102 H 0.20599 0.30504 0.73706 0.0
C1103 C 0.27768 0.33848 0.60855 0.0
C1104 C 0.26394 0.31111 0.67302 0.0
H1105 H 0.22341 0.28505 0.69793 0.0
C1106 C 0.27259 0.3196 0.69784 0.0
C1107 C 0.2457 0.29905 0.6729 0.0
C1108 C 0.23572 0.29006 0.64655 0.0
C1109 C 0.26364 0.31597 0.72277 0.0
C1110 C 0.24597 0.30291 0.72295 0.0
C1111 C 0.23699 0.295 0.69789 0.0
C1112 C 0.23743 0.29582 0.74886 0.0
C1113 C 0.27309 0.32643 0.74852 0.0
C1114 C 0.25019 0.28547 0.76888 0.0
C1115 C 0.24177 0.27588 0.79123 0.0
C1116 C 0.22031 0.276 0.79376 0.0
C1117 C 0.20767 0.28734 0.77448 0.0
C1118 C 0.21616 0.29714 0.75224 0.0
H1119 H 0.28067 0.3415 0.74367 0.0
H1120 H 0.26137 0.3296 0.76352 0.0
H1121 H 0.28516 0.31604 0.75828 0.0
H1122 H 0.26658 0.28385 0.76658 0.0
H1123 H 0.25201 0.26764 0.80597 0.0
H1124 H 0.67278 0.70806 0.45251 0.0
H1125 H 0.68852 0.73245 0.4207 0.0
H1126 H 0.70293 0.68018 0.36889 0.0
H1127 H 0.68736 0.65606 0.40008 0.0
H1128 H 0.73411 0.72424 0.38866 0.0
H1129 H 0.6578 0.72773 0.3292 0.0
H1130 H 0.66022 0.7247 0.36613 0.0
H1131 H 0.66554 0.70294 0.34425 0.0
C1132 C 0.6799 0.70184 0.43476 0.0
C1133 C 0.67874 0.6803 0.42849 0.0
C1134 C 0.68872 0.71572 0.4166 0.0
C1135 C 0.69656 0.708 0.3924 0.0
C1136 C 0.69681 0.68636 0.3874 0.0
H1137 H 0.73892 0.72653 0.23676 0.0
H1138 H 0.72138 0.71707 0.27788 0.0
C1139 C 0.68794 0.67264 0.40523 0.0
C1140 C 0.70299 0.72208 0.37071 0.0
H1141 H 0.68716 0.73805 0.30595 0.0
C1142 C 0.7238 0.72791 0.37087 0.0
C1143 C 0.68944 0.72638 0.34748 0.0
C1144 C 0.66694 0.72025 0.3466 0.0
C1145 C 0.73169 0.73702 0.34765 0.0
C1146 C 0.71832 0.74044 0.32391 0.0
C1147 C 0.6973 0.73547 0.32425 0.0
C1148 C 0.72643 0.74725 0.29784 0.0
C1149 C 0.7545 0.74169 0.34796 0.0
C1150 C 0.73443 0.76754 0.29523 0.0
C1151 C 0.74445 0.77296 0.27184 0.0
C1152 C 0.74666 0.75814 0.25073 0.0
C1153 C 0.7377 0.73815 0.25287 0.0
C1154 C 0.72759 0.73279 0.27621 0.0
H1155 H 0.76316 0.73558 0.36669 0.0
H1156 H 0.76109 0.7347 0.3296 0.0
H1157 H 0.75688 0.75894 0.34723 0.0
H1158 H 0.73353 0.77892 0.31168 0.0
H1159 H 0.7513 0.78844 0.27088 0.0
H1160 H 0.82848 0.22371 0.01752 0.0
H1161 H 0.80114 0.24869 0.00407 0.0
H1162 H 0.75582 0.20632 0.03357 0.0
H1163 H 0.78343 0.18129 0.04749 0.0
H1164 H 0.7702 0.23158 0.96378 0.0
H1165 H 0.73607 0.26749 0.05456 0.0
H1166 H 0.76225 0.2577 0.05617 0.0
H1167 H 0.741 0.23964 0.05493 0.0
C1168 C 0.81279 0.22021 0.0223 0.0
C1169 C 0.80794 0.2008 0.03369 0.0
C1170 C 0.7972 0.2344 0.01451 0.0
C1171 C 0.7765 0.22933 0.01781 0.0
C1172 C 0.77175 0.21063 0.03122 0.0
H1173 H 0.66476 0.28748 0.94299 0.0
H1174 H 0.68918 0.26597 0.97105 0.0
C1175 C 0.78747 0.1964 0.03922 0.0
C1176 C 0.76015 0.24175 0.00283 0.0
H1177 H 0.72076 0.2762 0.01066 0.0
C1178 C 0.75938 0.24135 0.97402 0.0
C1179 C 0.74592 0.25415 0.0163 0.0
C1180 C 0.74626 0.25497 0.04721 0.0
C1181 C 0.74491 0.25326 0.95821 0.0
C1182 C 0.73113 0.26634 0.97161 0.0
C1183 C 0.7315 0.26632 1.00047 0.0
C1184 C 0.71639 0.28021 0.95582 0.0
C1185 C 0.74436 0.25147 0.92728 0.0
C1186 C 0.72361 0.29563 0.93836 0.0
C1187 C 0.70972 0.30774 0.92202 0.0
C1188 C 0.68831 0.30482 0.92302 0.0
C1189 C 0.68115 0.28986 0.9413 0.0
C1190 C 0.69506 0.27768 0.95756 0.0
H1191 H 0.75152 0.23661 0.92066 0.0
H1192 H 0.72827 0.25216 0.91795 0.0
H1193 H 0.75319 0.26471 0.9191 0.0
H1194 H 0.74003 0.29808 0.93707 0.0
H1195 H 0.71579 0.319 0.90808 0.0
H1196 H 0.29668 0.30066 0.55209 0.0
H1197 H 0.27765 0.26828 0.53914 0.0
H1198 H 0.33516 0.23604 0.53048 0.0
H1199 H 0.35412 0.26841 0.54281 0.0
H1200 H 0.28847 0.25124 0.48272 0.0
H1201 H 0.29403 0.19249 0.56712 0.0
H1202 H 0.2946 0.22046 0.57387 0.0
H1203 H 0.31657 0.20785 0.56084 0.0
C1204 C 0.30523 0.28636 0.54887 0.0
C1205 C 0.32683 0.28688 0.54874 0.0
C1206 C 0.29437 0.26794 0.54121 0.0
C1207 C 0.30503 0.24978 0.53388 0.0
C1208 C 0.32666 0.24978 0.53636 0.0
H1209 H 0.25911 0.15438 0.41435 0.0
H1210 H 0.28253 0.17707 0.44311 0.0
C1211 C 0.33748 0.26824 0.54356 0.0
C1212 C 0.29383 0.23238 0.51898 0.0
H1213 H 0.27828 0.18133 0.52422 0.0
C1214 C 0.28621 0.23595 0.49178 0.0
C1215 C 0.29126 0.21241 0.53076 0.0
C1216 C 0.29944 0.20791 0.5598 0.0
C1217 C 0.2758 0.22016 0.47611 0.0
C1218 C 0.27291 0.20024 0.48797 0.0
C1219 C 0.28065 0.19658 0.51515 0.0
C1220 C 0.2603 0.18383 0.47299 0.0
C1221 C 0.26754 0.22501 0.44714 0.0
C1222 C 0.24038 0.17953 0.48083 0.0
C1223 C 0.22702 0.16666 0.4645 0.0
C1224 C 0.23335 0.15774 0.44002 0.0
C1225 C 0.25378 0.16101 0.43308 0.0
C1226 C 0.26714 0.17402 0.44941 0.0
H1227 H 0.26857 0.24201 0.44238 0.0
H1228 H 0.27658 0.2162 0.43241 0.0
H1229 H 0.25117 0.21995 0.44382 0.0
H1230 H 0.23483 0.18692 0.49897 0.0
H1231 H 0.2115 0.16414 0.47065 0.0
H1232 H 0.18886 0.79935 0.96329 0.0
H1233 H 0.209 0.78532 0.92641 0.0
H1234 H 0.23375 0.84715 0.91361 0.0
H1235 H 0.21488 0.86085 0.95084 0.0
H1236 H 0.20695 0.79526 0.87278 0.0
H1237 H 0.28569 0.81419 0.91664 0.0
H1238 H 0.2635 0.81555 0.93686 0.0
H1239 H 0.26968 0.83707 0.91498 0.0
C1240 C 0.19894 0.80979 0.95296 0.0
C1241 C 0.20034 0.83117 0.96016 0.0
C1242 C 0.21035 0.80181 0.93181 0.0
C1243 C 0.22328 0.8151 0.91762 0.0
C1244 C 0.22448 0.83642 0.92476 0.0
H1245 H 0.28833 0.81149 0.76886 0.0
H1246 H 0.26963 0.82142 0.80886 0.0
C1247 C 0.21341 0.84428 0.94594 0.0
C1248 C 0.23468 0.80724 0.89428 0.0
H1249 H 0.28212 0.80754 0.86794 0.0
C1250 C 0.22344 0.79764 0.87193 0.0
C1251 C 0.25621 0.81052 0.89303 0.0
C1252 C 0.26947 0.81971 0.91681 0.0
C1253 C 0.23303 0.79178 0.84812 0.0
C1254 C 0.25438 0.79552 0.84672 0.0
C1255 C 0.2657 0.80487 0.86909 0.0
C1256 C 0.26533 0.78951 0.82231 0.0
C1257 C 0.22026 0.7821 0.82428 0.0
C1258 C 0.26917 0.7683 0.81686 0.0
C1259 C 0.28004 0.76257 0.79427 0.0
C1260 C 0.28724 0.77796 0.77663 0.0
C1261 C 0.28323 0.79924 0.78216 0.0
C1262 C 0.27246 0.80495 0.80489 0.0
H1263 H 0.20343 0.78312 0.82696 0.0
H1264 H 0.22357 0.78997 0.8048 0.0
H1265 H 0.22443 0.76528 0.82235 0.0
H1266 H 0.26401 0.7562 0.83034 0.0
H1267 H 0.2832 0.74609 0.79101 0.0
loop_
_geom_bond_atom_site_label_1
_geom_bond_atom_site_label_2
_geom_bond_distance
_geom_bond_site_symmetry_2
_ccdc_geom_bond_type
Zn0 O6 1.920 . S
Zn0 O12 1.898 . S
Zn0 O15 1.905 . S
Zn1 O9 1.905 . S
Zn1 O10 1.898 . S
Zn1 O18 1.920 . S
Zn2 O5 2.080 . S
Zn2 O8 2.114 1_554 S
Zn2 O11 2.120 1_554 S
Zn2 O13 2.120 . S
Zn2 O14 2.114 . S
Zn2 O17 2.080 1_554 S
C3 O8 1.166 . S
C3 O9 1.182 . S
C4 O10 1.167 . S
C4 O11 1.299 . S
O5 Zn2 2.080 . S
O5 C19 1.305 . S
O6 Zn0 1.920 . S
O6 C19 1.234 . S
C7 O12 1.167 . S
C7 O13 1.299 . S
O8 Zn2 2.114 1_556 S
O8 C3 1.166 . S
O9 Zn1 1.905 . S
O9 C3 1.182 . S
O10 Zn1 1.898 . S
O10 C4 1.167 . S
O11 Zn2 2.120 1_556 S
O11 C4 1.299 . S
O12 Zn0 1.898 . S
O12 C7 1.167 . S
O13 Zn2 2.120 . S
O13 C7 1.299 . S
O14 Zn2 2.114 . S
O14 C16 1.166 . S
O15 Zn0 1.905 . S
O15 C16 1.182 . S
C16 O14 1.166 . S
C16 O15 1.182 . S
O17 Zn2 2.080 1_556 S
O17 C20 1.305 . S
O18 Zn1 1.920 . S
O18 C20 1.234 . S
C19 O5 1.305 . S
C19 O6 1.234 . S
C20 O17 1.305 . S
C20 O18 1.234 . S
Zn21 O27 1.920 . S
Zn21 O33 1.898 . S
Zn21 O36 1.905 . S
Zn22 O30 1.905 . S
Zn22 O31 1.898 . S
Zn22 O39 1.920 . S
Zn23 O26 2.080 . S
Zn23 O29 2.114 . S
Zn23 O32 2.120 . S
Zn23 O34 2.120 . S
Zn23 O35 2.114 . S
Zn23 O38 2.080 . S
C24 O29 1.166 . S
C24 O30 1.182 . S
C25 O31 1.167 . S
C25 O32 1.299 . S
O26 Zn23 2.080 . S
O26 C40 1.305 . S
O27 Zn21 1.920 . S
O27 C40 1.234 . S
C28 O33 1.167 . S
C28 O34 1.299 . S
O29 Zn23 2.114 . S
O29 C24 1.166 . S
O30 Zn22 1.905 . S
O30 C24 1.182 . S
O31 Zn22 1.898 . S
O31 C25 1.167 . S
O32 Zn23 2.120 . S
O32 C25 1.299 . S
O33 Zn21 1.898 . S
O33 C28 1.167 . S
O34 Zn23 2.120 . S
O34 C28 1.299 . S
O35 Zn23 2.114 . S
O35 C37 1.166 . S
O36 Zn21 1.905 . S
O36 C37 1.182 . S
C37 O35 1.166 . S
C37 O36 1.182 . S
O38 Zn23 2.080 . S
O38 C41 1.305 . S
O39 Zn22 1.920 . S
O39 C41 1.234 . S
C40 O26 1.305 . S
C40 O27 1.234 . S
C41 O38 1.305 . S
C41 O39 1.234 . S
Zn42 O48 1.920 . S
Zn42 O54 1.898 1_556 S
Zn42 O57 1.905 . S
Zn43 O51 1.905 . S
Zn43 O52 1.898 . S
Zn43 O60 1.920 . S
Zn44 O47 2.080 . S
Zn44 O50 2.114 . S
Zn44 O53 2.120 . S
Zn44 O55 2.120 . S
Zn44 O56 2.114 . S
Zn44 O59 2.080 . S
C45 O50 1.166 . S
C45 O51 1.182 . S
C46 O52 1.167 . S
C46 O53 1.299 . S
O47 Zn44 2.080 . S
O47 C61 1.305 . S
O48 Zn42 1.920 . S
O48 C61 1.234 1_556 S
C49 O54 1.168 . S
C49 O55 1.299 . S
O50 Zn44 2.114 . S
O50 C45 1.166 . S
O51 Zn43 1.905 . S
O51 C45 1.182 . S
O52 Zn43 1.898 . S
O52 C46 1.167 . S
O53 Zn44 2.120 . S
O53 C46 1.299 . S
O54 Zn42 1.898 1_554 S
O54 C49 1.168 . S
O55 Zn44 2.120 . S
O55 C49 1.299 . S
O56 Zn44 2.114 . S
O56 C58 1.166 . S
O57 Zn42 1.905 . S
O57 C58 1.182 1_556 S
C58 O56 1.166 . S
C58 O57 1.182 1_554 S
O59 Zn44 2.080 . S
O59 C62 1.305 . S
O60 Zn43 1.920 . S
O60 C62 1.234 . S
C61 O47 1.305 . S
C61 O48 1.234 1_554 S
C62 O59 1.305 . S
C62 O60 1.234 . S
Zn63 O69 1.920 . S
Zn63 O75 1.898 . S
Zn63 O78 1.905 . S
Zn64 O72 1.905 . S
Zn64 O73 1.898 . S
Zn64 O81 1.920 . S
Zn65 O68 2.080 . S
Zn65 O71 2.114 . S
Zn65 O74 2.120 . S
Zn65 O76 2.120 . S
Zn65 O77 2.114 . S
Zn65 O80 2.080 . S
C66 O71 1.166 . S
C66 O72 1.182 . S
C67 O73 1.167 . S
C67 O74 1.299 . S
O68 Zn65 2.080 . S
O68 C82 1.305 . S
O69 Zn63 1.920 . S
O69 C82 1.234 . S
C70 O75 1.167 . S
C70 O76 1.299 . S
O71 Zn65 2.114 . S
O71 C66 1.166 . S
O72 Zn64 1.905 . S
O72 C66 1.182 . S
O73 Zn64 1.898 . S
O73 C67 1.167 . S
O74 Zn65 2.120 . S
O74 C67 1.299 . S
O75 Zn63 1.898 . S
O75 C70 1.167 . S
O76 Zn65 2.120 . S
O76 C70 1.299 . S
O77 Zn65 2.114 . S
O77 C79 1.166 . S
O78 Zn63 1.905 . S
O78 C79 1.182 . S
C79 O77 1.166 . S
C79 O78 1.182 . S
O80 Zn65 2.080 . S
O80 C83 1.305 . S
O81 Zn64 1.920 . S
O81 C83 1.234 . S
C82 O68 1.305 . S
C82 O69 1.234 . S
C83 O80 1.305 . S
C83 O81 1.234 . S
C84 C85 1.264 . S
C84 C89 1.479 . S
C84 C94 1.465 . S
C85 C84 1.264 . S
C85 C87 1.339 . S
C85 H112 0.931 . S
C86 C87 1.395 . S
C86 C88 1.320 . S
C87 C85 1.339 . S
C87 C86 1.395 . S
C87 H113 0.929 . S
C88 C86 1.320 . S
C88 C89 1.405 . S
C88 H114 0.930 . S
C89 C84 1.479 . S
C89 C88 1.405 . S
C89 H115 0.931 . S
U90 O91 2.454 . S
U90 O92 2.458 . S
U90 C93 2.984 . S
U90 C94 2.847 . S
U90 C107 2.882 . S
U90 O108 2.441 . S
U90 O109 2.420 . S
U90 O110 2.455 . S
U90 O111 2.449 . S
O91 U90 2.454 . S
O91 C93 1.353 . S
O92 U90 2.458 . S
O92 C93 1.286 . S
C93 U90 2.984 . S
C93 O91 1.353 . S
C93 O92 1.286 . S
C93 C95 1.363 . S
C94 C84 1.465 . S
C94 U90 2.847 . S
C94 O108 1.249 . S
C94 O109 1.202 . S
C95 C93 1.363 . S
C95 C97 1.408 . S
C95 C100 1.342 . S
C96 C97 1.310 . S
C96 C99 1.461 . S
C96 H116 0.932 . S
C97 C95 1.408 . S
C97 C96 1.310 . S
C97 H117 0.930 . S
C98 C99 1.474 . S
C98 C100 1.285 . S
C98 H118 0.929 . S
C99 C96 1.461 . S
C99 C98 1.474 . S
C100 C95 1.342 . S
C100 C98 1.285 . S
C100 H119 0.930 . S
C101 C104 1.424 . S
C101 C106 1.245 . S
C101 C107 1.428 . S
C102 C105 1.260 . S
C102 C106 1.477 1_565 S
C102 H120 0.932 . S
C103 C104 1.384 1_565 S
C103 C105 1.479 . S
C103 H121 0.929 . S
C104 C101 1.424 . S
C104 C103 1.384 1_545 S
C104 H122 0.928 . S
C105 C102 1.260 . S
C105 C103 1.479 . S
C106 C101 1.245 . S
C106 C102 1.477 1_545 S
C106 H123 0.932 . S
C107 U90 2.882 . S
C107 C101 1.428 . S
C107 O110 1.301 . S
C107 O111 1.282 . S
O108 U90 2.441 . S
O108 C94 1.249 . S
O109 U90 2.420 . S
O109 C94 1.202 . S
O110 U90 2.455 . S
O110 C107 1.301 . S
O111 U90 2.449 . S
O111 C107 1.282 . S
H112 C85 0.931 . S
H113 C87 0.929 . S
H114 C88 0.930 . S
H115 C89 0.931 . S
H116 C96 0.932 . S
H117 C97 0.930 . S
H118 C98 0.929 . S
H119 C100 0.930 . S
H120 C102 0.932 . S
H121 C103 0.929 . S
H122 C104 0.928 . S
H123 C106 0.932 . S
C124 C125 1.264 . S
C124 C129 1.479 . S
C124 C134 1.465 . S
C125 C124 1.264 . S
C125 C127 1.339 . S
C125 H152 0.931 . S
C126 C127 1.395 . S
C126 C128 1.320 . S
C127 C125 1.339 . S
C127 C126 1.395 . S
C127 H153 0.929 . S
C128 C126 1.320 . S
C128 C129 1.405 . S
C128 H154 0.930 . S
C129 C124 1.479 . S
C129 C128 1.405 . S
C129 H155 0.931 . S
U130 O131 2.454 . S
U130 O132 2.458 . S
U130 C133 2.984 . S
U130 C134 2.847 . S
U130 C147 2.882 . S
U130 O148 2.441 . S
U130 O149 2.420 . S
U130 O150 2.455 . S
U130 O151 2.449 . S
O131 U130 2.454 . S
O131 C133 1.353 . S
O132 U130 2.458 . S
O132 C133 1.286 . S
C133 U130 2.984 . S
C133 O131 1.353 . S
C133 O132 1.286 . S
C133 C135 1.363 . S
C134 C124 1.465 . S
C134 U130 2.847 . S
C134 O148 1.249 . S
C134 O149 1.202 . S
C135 C133 1.363 . S
C135 C137 1.408 . S
C135 C140 1.342 . S
C136 C137 1.310 . S
C136 C139 1.461 . S
C136 H156 0.932 . S
C137 C135 1.408 . S
C137 C136 1.310 . S
C137 H157 0.930 . S
C138 C139 1.474 . S
C138 C140 1.285 . S
C138 H158 0.929 . S
C139 C136 1.461 . S
C139 C138 1.474 . S
C140 C135 1.342 . S
C140 C138 1.285 . S
C140 H159 0.930 . S
C141 C144 1.424 . S
C141 C146 1.245 . S
C141 C147 1.428 . S
C142 C145 1.260 . S
C142 C146 1.477 . S
C142 H160 0.932 . S
C143 C144 1.384 . S
C143 C145 1.479 . S
C143 H161 0.929 . S
C144 C141 1.424 . S
C144 C143 1.384 . S
C144 H162 0.928 . S
C145 C142 1.260 . S
C145 C143 1.479 . S
C146 C141 1.245 . S
C146 C142 1.477 . S
C146 H163 0.932 . S
C147 U130 2.882 . S
C147 C141 1.428 . S
C147 O150 1.301 . S
C147 O151 1.282 . S
O148 U130 2.441 . S
O148 C134 1.249 . S
O149 U130 2.420 . S
O149 C134 1.202 . S
O150 U130 2.455 . S
O150 C147 1.301 . S
O151 U130 2.449 . S
O151 C147 1.282 . S
H152 C125 0.931 . S
H153 C127 0.929 . S
H154 C128 0.930 . S
H155 C129 0.931 . S
H156 C136 0.932 . S
H157 C137 0.930 . S
H158 C138 0.929 . S
H159 C140 0.930 . S
H160 C142 0.932 . S
H161 C143 0.929 . S
H162 C144 0.928 . S
H163 C146 0.932 . S
C164 C165 1.264 . S
C164 C169 1.479 . S
C164 C174 1.465 . S
C165 C164 1.264 . S
C165 C167 1.339 . S
C165 H192 0.931 . S
C166 C167 1.395 . S
C166 C168 1.320 . S
C167 C165 1.339 . S
C167 C166 1.395 . S
C167 H193 0.929 . S
C168 C166 1.320 . S
C168 C169 1.405 . S
C168 H194 0.930 . S
C169 C164 1.479 . S
C169 C168 1.405 . S
C169 H195 0.931 . S
U170 O171 2.454 . S
U170 O172 2.458 . S
U170 C173 2.984 . S
U170 C174 2.847 . S
U170 C187 2.882 . S
U170 O188 2.441 . S
U170 O189 2.420 . S
U170 O190 2.455 . S
U170 O191 2.449 . S
O171 U170 2.454 . S
O171 C173 1.353 . S
O172 U170 2.458 . S
O172 C173 1.286 . S
C173 U170 2.984 . S
C173 O171 1.353 . S
C173 O172 1.286 . S
C173 C175 1.363 . S
C174 C164 1.465 . S
C174 U170 2.847 . S
C174 O188 1.249 . S
C174 O189 1.202 . S
C175 C173 1.363 . S
C175 C177 1.408 . S
C175 C180 1.342 . S
C176 C177 1.310 . S
C176 C179 1.461 . S
C176 H196 0.932 . S
C177 C175 1.408 . S
C177 C176 1.310 . S
C177 H197 0.930 . S
C178 C179 1.474 . S
C178 C180 1.285 . S
C178 H198 0.929 . S
C179 C176 1.461 . S
C179 C178 1.474 . S
C180 C175 1.342 . S
C180 C178 1.285 . S
C180 H199 0.930 . S
C181 C184 1.424 . S
C181 C186 1.245 . S
C181 C187 1.428 . S
C182 C185 1.260 . S
C182 C186 1.477 . S
C182 H200 0.932 . S
C183 C184 1.384 . S
C183 C185 1.479 . S
C183 H201 0.929 . S
C184 C181 1.424 . S
C184 C183 1.384 . S
C184 H202 0.928 . S
C185 C182 1.260 . S
C185 C183 1.479 . S
C186 C181 1.245 . S
C186 C182 1.477 . S
C186 H203 0.932 . S
C187 U170 2.882 . S
C187 C181 1.428 . S
C187 O190 1.301 . S
C187 O191 1.282 . S
O188 U170 2.441 . S
O188 C174 1.249 . S
O189 U170 2.420 . S
O189 C174 1.202 . S
O190 U170 2.455 . S
O190 C187 1.301 . S
O191 U170 2.449 . S
O191 C187 1.282 . S
H192 C165 0.931 . S
H193 C167 0.929 . S
H194 C168 0.930 . S
H195 C169 0.931 . S
H196 C176 0.932 . S
H197 C177 0.930 . S
H198 C178 0.929 . S
H199 C180 0.930 . S
H200 C182 0.932 . S
H201 C183 0.929 . S
H202 C184 0.928 . S
H203 C186 0.932 . S
C204 C205 1.264 . S
C204 C209 1.479 . S
C204 C214 1.465 . S
C205 C204 1.264 . S
C205 C207 1.339 . S
C205 H232 0.931 . S
C206 C207 1.395 . S
C206 C208 1.320 . S
C207 C205 1.339 . S
C207 C206 1.395 . S
C207 H233 0.929 . S
C208 C206 1.320 . S
C208 C209 1.405 . S
C208 H234 0.930 . S
C209 C204 1.479 . S
C209 C208 1.405 . S
C209 H235 0.931 . S
U210 O211 2.454 . S
U210 O212 2.458 . S
U210 C213 2.984 . S
U210 C214 2.847 . S
U210 C227 2.882 . S
U210 O228 2.441 . S
U210 O229 2.420 . S
U210 O230 2.455 . S
U210 O231 2.449 . S
O211 U210 2.454 . S
O211 C213 1.353 . S
O212 U210 2.458 . S
O212 C213 1.286 . S
C213 U210 2.984 . S
C213 O211 1.353 . S
C213 O212 1.286 . S
C213 C215 1.363 . S
C214 C204 1.465 . S
C214 U210 2.847 . S
C214 O228 1.249 . S
C214 O229 1.202 . S
C215 C213 1.363 . S
C215 C217 1.408 . S
C215 C220 1.342 . S
C216 C217 1.310 . S
C216 C219 1.461 . S
C216 H236 0.932 . S
C217 C215 1.408 . S
C217 C216 1.310 . S
C217 H237 0.930 . S
C218 C219 1.474 . S
C218 C220 1.285 . S
C218 H238 0.929 . S
C219 C216 1.461 . S
C219 C218 1.474 . S
C220 C215 1.342 . S
C220 C218 1.285 . S
C220 H239 0.930 . S
C221 C224 1.424 . S
C221 C226 1.245 . S
C221 C227 1.428 . S
C222 C225 1.260 . S
C222 C226 1.477 . S
C222 H240 0.932 . S
C223 C224 1.384 . S
C223 C225 1.479 . S
C223 H241 0.929 . S
C224 C221 1.424 . S
C224 C223 1.384 . S
C224 H242 0.928 . S
C225 C222 1.260 . S
C225 C223 1.479 . S
C226 C221 1.245 . S
C226 C222 1.477 . S
C226 H243 0.932 . S
C227 U210 2.882 . S
C227 C221 1.428 . S
C227 O230 1.301 . S
C227 O231 1.282 . S
O228 U210 2.441 . S
O228 C214 1.249 . S
O229 U210 2.420 . S
O229 C214 1.202 . S
O230 U210 2.455 . S
O230 C227 1.301 . S
O231 U210 2.449 . S
O231 C227 1.282 . S
H232 C205 0.931 . S
H233 C207 0.929 . S
H234 C208 0.930 . S
H235 C209 0.931 . S
H236 C216 0.932 . S
H237 C217 0.930 . S
H238 C218 0.929 . S
H239 C220 0.930 . S
H240 C222 0.932 . S
H241 C223 0.929 . S
H242 C224 0.928 . S
H243 C226 0.932 . S
C244 C245 1.264 . S
C244 C249 1.479 . S
C244 C254 1.465 . S
C245 C244 1.264 . S
C245 C247 1.339 . S
C245 H272 0.931 . S
C246 C247 1.395 . S
C246 C248 1.320 . S
C247 C245 1.339 . S
C247 C246 1.395 . S
C247 H273 0.929 . S
C248 C246 1.320 . S
C248 C249 1.405 . S
C248 H274 0.930 . S
C249 C244 1.479 . S
C249 C248 1.405 . S
C249 H275 0.931 . S
U250 O251 2.454 . S
U250 O252 2.458 . S
U250 C253 2.984 . S
U250 C254 2.847 . S
U250 C267 2.882 . S
U250 O268 2.441 . S
U250 O269 2.420 . S
U250 O270 2.455 . S
U250 O271 2.449 . S
O251 U250 2.454 . S
O251 C253 1.353 . S
O252 U250 2.458 . S
O252 C253 1.286 . S
C253 U250 2.984 . S
C253 O251 1.353 . S
C253 O252 1.286 . S
C253 C255 1.363 . S
C254 C244 1.465 . S
C254 U250 2.847 . S
C254 O268 1.249 . S
C254 O269 1.202 . S
C255 C253 1.363 . S
C255 C257 1.408 . S
C255 C260 1.342 . S
C256 C257 1.310 . S
C256 C259 1.461 . S
C256 H276 0.932 . S
C257 C255 1.408 . S
C257 C256 1.310 . S
C257 H277 0.930 . S
C258 C259 1.474 . S
C258 C260 1.285 . S
C258 H278 0.929 . S
C259 C256 1.461 . S
C259 C258 1.474 . S
C260 C255 1.342 . S
C260 C258 1.285 . S
C260 H279 0.930 . S
C261 C264 1.424 . S
C261 C266 1.245 . S
C261 C267 1.428 . S
C262 C265 1.260 . S
C262 C266 1.477 . S
C262 H280 0.932 . S
C263 C264 1.384 . S
C263 C265 1.479 . S
C263 H281 0.929 . S
C264 C261 1.424 . S
C264 C263 1.384 . S
C264 H282 0.928 . S
C265 C262 1.260 . S
C265 C263 1.479 . S
C266 C261 1.245 . S
C266 C262 1.477 . S
C266 H283 0.932 . S
C267 U250 2.882 . S
C267 C261 1.428 . S
C267 O270 1.301 . S
C267 O271 1.282 . S
O268 U250 2.441 . S
O268 C254 1.249 . S
O269 U250 2.420 . S
O269 C254 1.202 . S
O270 U250 2.455 . S
O270 C267 1.301 . S
O271 U250 2.449 . S
O271 C267 1.282 . S
H272 C245 0.931 . S
H273 C247 0.929 . S
H274 C248 0.930 . S
H275 C249 0.931 . S
H276 C256 0.932 . S
H277 C257 0.930 . S
H278 C258 0.929 . S
H279 C260 0.930 . S
H280 C262 0.932 . S
H281 C263 0.929 . S
H282 C264 0.928 . S
H283 C266 0.932 . S
C284 C285 1.264 . S
C284 C289 1.479 . S
C284 C294 1.465 . S
C285 C284 1.264 . S
C285 C287 1.339 . S
C285 H312 0.931 . S
C286 C287 1.395 . S
C286 C288 1.320 . S
C287 C285 1.339 . S
C287 C286 1.395 . S
C287 H313 0.929 . S
C288 C286 1.320 . S
C288 C289 1.405 . S
C288 H314 0.930 . S
C289 C284 1.479 . S
C289 C288 1.405 . S
C289 H315 0.931 . S
U290 O291 2.454 . S
U290 O292 2.458 . S
U290 C293 2.984 . S
U290 C294 2.847 . S
U290 C307 2.882 . S
U290 O308 2.441 . S
U290 O309 2.420 . S
U290 O310 2.455 . S
U290 O311 2.449 . S
O291 U290 2.454 . S
O291 C293 1.353 . S
O292 U290 2.458 . S
O292 C293 1.286 . S
C293 U290 2.984 . S
C293 O291 1.353 . S
C293 O292 1.286 . S
C293 C295 1.363 . S
C294 C284 1.465 . S
C294 U290 2.847 . S
C294 O308 1.249 . S
C294 O309 1.202 . S
C295 C293 1.363 . S
C295 C297 1.408 . S
C295 C300 1.342 . S
C296 C297 1.310 . S
C296 C299 1.461 . S
C296 H316 0.932 . S
C297 C295 1.408 . S
C297 C296 1.310 . S
C297 H317 0.930 . S
C298 C299 1.474 . S
C298 C300 1.285 . S
C298 H318 0.929 . S
C299 C296 1.461 . S
C299 C298 1.474 . S
C300 C295 1.342 . S
C300 C298 1.285 . S
C300 H319 0.930 . S
C301 C304 1.424 . S
C301 C306 1.245 . S
C301 C307 1.428 . S
C302 C305 1.260 . S
C302 C306 1.477 . S
C302 H320 0.932 . S
C303 C304 1.384 . S
C303 C305 1.479 . S
C303 H321 0.929 . S
C304 C301 1.424 . S
C304 C303 1.384 . S
C304 H322 0.928 . S
C305 C302 1.260 . S
C305 C303 1.479 . S
C306 C301 1.245 . S
C306 C302 1.477 . S
C306 H323 0.932 . S
C307 U290 2.882 . S
C307 C301 1.428 . S
C307 O310 1.301 . S
C307 O311 1.282 . S
O308 U290 2.441 . S
O308 C294 1.249 . S
O309 U290 2.420 . S
O309 C294 1.202 . S
O310 U290 2.455 . S
O310 C307 1.301 . S
O311 U290 2.449 . S
O311 C307 1.282 . S
H312 C285 0.931 . S
H313 C287 0.929 . S
H314 C288 0.930 . S
H315 C289 0.931 . S
H316 C296 0.932 . S
H317 C297 0.930 . S
H318 C298 0.929 . S
H319 C300 0.930 . S
H320 C302 0.932 . S
H321 C303 0.929 . S
H322 C304 0.928 . S
H323 C306 0.932 . S
C324 C325 1.264 . S
C324 C329 1.479 . S
C324 C334 1.465 . S
C325 C324 1.264 . S
C325 C327 1.339 . S
C325 H352 0.931 . S
C326 C327 1.395 . S
C326 C328 1.320 . S
C327 C325 1.339 . S
C327 C326 1.395 . S
C327 H353 0.929 . S
C328 C326 1.320 . S
C328 C329 1.405 . S
C328 H354 0.930 . S
C329 C324 1.479 . S
C329 C328 1.405 . S
C329 H355 0.931 . S
U330 O331 2.454 . S
U330 O332 2.458 . S
U330 C333 2.984 . S
U330 C334 2.847 . S
U330 C347 2.882 . S
U330 O348 2.441 . S
U330 O349 2.420 . S
U330 O350 2.455 . S
U330 O351 2.449 . S
O331 U330 2.454 . S
O331 C333 1.353 . S
O332 U330 2.458 . S
O332 C333 1.286 . S
C333 U330 2.984 . S
C333 O331 1.353 . S
C333 O332 1.286 . S
C333 C335 1.363 . S
C334 C324 1.465 . S
C334 U330 2.847 . S
C334 O348 1.249 . S
C334 O349 1.202 . S
C335 C333 1.363 . S
C335 C337 1.408 . S
C335 C340 1.342 . S
C336 C337 1.310 . S
C336 C339 1.461 . S
C336 H356 0.932 . S
C337 C335 1.408 . S
C337 C336 1.310 . S
C337 H357 0.930 . S
C338 C339 1.474 . S
C338 C340 1.285 . S
C338 H358 0.929 . S
C339 C336 1.461 . S
C339 C338 1.474 . S
C340 C335 1.342 . S
C340 C338 1.285 . S
C340 H359 0.930 . S
C341 C344 1.424 . S
C341 C346 1.245 . S
C341 C347 1.428 . S
C342 C345 1.260 . S
C342 C346 1.477 . S
C342 H360 0.932 . S
C343 C344 1.384 . S
C343 C345 1.479 . S
C343 H361 0.929 . S
C344 C341 1.424 . S
C344 C343 1.384 . S
C344 H362 0.928 . S
C345 C342 1.260 . S
C345 C343 1.479 . S
C346 C341 1.245 . S
C346 C342 1.477 . S
C346 H363 0.932 . S
C347 U330 2.882 . S
C347 C341 1.428 . S
C347 O350 1.301 . S
C347 O351 1.282 . S
O348 U330 2.441 . S
O348 C334 1.249 . S
O349 U330 2.420 . S
O349 C334 1.202 . S
O350 U330 2.455 . S
O350 C347 1.301 . S
O351 U330 2.449 . S
O351 C347 1.282 . S
H352 C325 0.931 . S
H353 C327 0.929 . S
H354 C328 0.930 . S
H355 C329 0.931 . S
H356 C336 0.932 . S
H357 C337 0.930 . S
H358 C338 0.929 . S
H359 C340 0.930 . S
H360 C342 0.932 . S
H361 C343 0.929 . S
H362 C344 0.928 . S
H363 C346 0.932 . S
C364 C365 1.264 . S
C364 C369 1.479 . S
C364 C374 1.465 . S
C365 C364 1.264 . S
C365 C367 1.339 . S
C365 H392 0.931 . S
C366 C367 1.395 . S
C366 C368 1.320 . S
C367 C365 1.339 . S
C367 C366 1.395 . S
C367 H393 0.929 . S
C368 C366 1.320 . S
C368 C369 1.405 . S
C368 H394 0.930 . S
C369 C364 1.479 . S
C369 C368 1.405 . S
C369 H395 0.931 . S
U370 O371 2.454 . S
U370 O372 2.458 . S
U370 C373 2.984 . S
U370 C374 2.847 . S
U370 C387 2.882 . S
U370 O388 2.441 . S
U370 O389 2.420 . S
U370 O390 2.455 . S
U370 O391 2.449 . S
O371 U370 2.454 . S
O371 C373 1.353 . S
O372 U370 2.458 . S
O372 C373 1.286 . S
C373 U370 2.984 . S
C373 O371 1.353 . S
C373 O372 1.286 . S
C373 C375 1.363 . S
C374 C364 1.465 . S
C374 U370 2.847 . S
C374 O388 1.249 . S
C374 O389 1.202 . S
C375 C373 1.363 . S
C375 C377 1.408 . S
C375 C380 1.342 . S
C376 C377 1.310 . S
C376 C379 1.461 . S
C376 H396 0.932 . S
C377 C375 1.408 . S
C377 C376 1.310 . S
C377 H397 0.930 . S
C378 C379 1.474 . S
C378 C380 1.285 . S
C378 H398 0.929 . S
C379 C376 1.461 . S
C379 C378 1.474 . S
C380 C375 1.342 . S
C380 C378 1.285 . S
C380 H399 0.930 . S
C381 C384 1.424 . S
C381 C386 1.245 . S
C381 C387 1.428 . S
C382 C385 1.260 . S
C382 C386 1.477 . S
C382 H400 0.932 . S
C383 C384 1.384 . S
C383 C385 1.479 . S
C383 H401 0.929 . S
C384 C381 1.424 . S
C384 C383 1.384 . S
C384 H402 0.928 . S
C385 C382 1.260 . S
C385 C383 1.479 . S
C386 C381 1.245 . S
C386 C382 1.477 . S
C386 H403 0.932 . S
C387 U370 2.882 . S
C387 C381 1.428 . S
C387 O390 1.301 . S
C387 O391 1.282 . S
O388 U370 2.441 . S
O388 C374 1.249 . S
O389 U370 2.420 . S
O389 C374 1.202 . S
O390 U370 2.455 . S
O390 C387 1.301 . S
O391 U370 2.449 . S
O391 C387 1.282 . S
H392 C365 0.931 . S
H393 C367 0.929 . S
H394 C368 0.930 . S
H395 C369 0.931 . S
H396 C376 0.932 . S
H397 C377 0.930 . S
H398 C378 0.929 . S
H399 C380 0.930 . S
H400 C382 0.932 . S
H401 C383 0.929 . S
H402 C384 0.928 . S
H403 C386 0.932 . S
H404 C412 0.929 . S
H405 C414 0.930 . S
H406 C416 0.930 . S
H407 C419 0.929 . S
H408 C422 0.930 . S
H409 C424 0.960 . S
H410 C424 0.960 . S
H411 C424 0.960 . S
C412 H404 0.929 . S
C412 C413 1.377 . S
C412 C414 1.384 . S
C413 C412 1.377 . S
C413 C419 1.390 . S
C414 H405 0.930 . S
C414 C412 1.384 . S
C414 C415 1.372 . S
C415 C414 1.372 . S
C415 C416 1.400 . S
C415 C420 1.490 . S
C416 H406 0.930 . S
C416 C415 1.400 . S
C416 C419 1.386 . S
H417 C433 0.930 . S
H418 C434 0.931 . S
C419 H407 0.929 . S
C419 C413 1.390 . S
C419 C416 1.386 . S
C420 C415 1.490 . S
C420 C422 1.395 . S
C420 C423 1.403 . S
H421 C427 0.930 . S
C422 H408 0.930 . S
C422 C420 1.395 . S
C422 C425 1.403 . S
C423 C420 1.403 . S
C423 C424 1.524 . S
C423 C427 1.400 . S
C424 H409 0.960 . S
C424 H410 0.960 . S
C424 H411 0.960 . S
C424 C423 1.524 . S
C425 C422 1.403 . S
C425 C426 1.392 . S
C425 C429 1.495 . S
C426 C425 1.392 . S
C426 C427 1.385 . S
C426 C428 1.478 . S
C427 H421 0.930 . S
C427 C423 1.400 . S
C427 C426 1.385 . S
C428 C426 1.478 . S
C428 C430 1.381 . S
C428 C434 1.383 . S
C429 C425 1.495 . S
C429 H435 0.959 . S
C429 H436 0.961 . S
C429 H437 0.960 . S
C430 C428 1.381 . S
C430 C431 1.394 . S
C430 H438 0.930 . S
C431 C430 1.394 . S
C431 C432 1.383 . S
C431 H439 0.929 . S
C432 C431 1.383 . S
C432 C433 1.377 . S
C433 H417 0.930 . S
C433 C432 1.377 . S
C433 C434 1.379 . S
C434 H418 0.931 . S
C434 C428 1.383 . S
C434 C433 1.379 . S
H435 C429 0.959 . S
H436 C429 0.961 . S
H437 C429 0.960 . S
H438 C430 0.930 . S
H439 C431 0.929 . S
H440 C448 0.929 . S
H441 C450 0.930 . S
H442 C452 0.930 . S
H443 C455 0.929 . S
H444 C458 0.930 . S
H445 C460 0.960 . S
H446 C460 0.960 . S
H447 C460 0.960 . S
C448 H440 0.929 . S
C448 C449 1.377 . S
C448 C450 1.384 . S
C449 C448 1.377 . S
C449 C455 1.390 . S
C450 H441 0.930 . S
C450 C448 1.384 . S
C450 C451 1.372 . S
C451 C450 1.372 . S
C451 C452 1.400 . S
C451 C456 1.490 . S
C452 H442 0.930 . S
C452 C451 1.400 . S
C452 C455 1.386 . S
H453 C469 0.930 . S
H454 C470 0.931 . S
C455 H443 0.929 . S
C455 C449 1.390 . S
C455 C452 1.386 . S
C456 C451 1.490 . S
C456 C458 1.395 . S
C456 C459 1.403 . S
H457 C463 0.930 . S
C458 H444 0.930 . S
C458 C456 1.395 . S
C458 C461 1.403 . S
C459 C456 1.403 . S
C459 C460 1.524 . S
C459 C463 1.400 . S
C460 H445 0.960 . S
C460 H446 0.960 . S
C460 H447 0.960 . S
C460 C459 1.524 . S
C461 C458 1.403 . S
C461 C462 1.392 . S
C461 C465 1.495 . S
C462 C461 1.392 . S
C462 C463 1.385 . S
C462 C464 1.478 . S
C463 H457 0.930 . S
C463 C459 1.400 . S
C463 C462 1.385 . S
C464 C462 1.478 . S
C464 C466 1.381 . S
C464 C470 1.383 . S
C465 C461 1.495 . S
C465 H471 0.959 . S
C465 H472 0.961 . S
C465 H473 0.960 . S
C466 C464 1.381 . S
C466 C467 1.394 . S
C466 H474 0.930 . S
C467 C466 1.394 . S
C467 C468 1.383 . S
C467 H475 0.929 . S
C468 C467 1.383 . S
C468 C469 1.377 . S
C469 H453 0.930 . S
C469 C468 1.377 . S
C469 C470 1.379 . S
C470 H454 0.931 . S
C470 C464 1.383 . S
C470 C469 1.379 . S
H471 C465 0.959 . S
H472 C465 0.961 . S
H473 C465 0.960 . S
H474 C466 0.930 . S
H475 C467 0.929 . S
H476 C484 0.929 . S
H477 C486 0.930 . S
H478 C488 0.930 . S
H479 C491 0.929 . S
H480 C494 0.930 . S
H481 C496 0.960 . S
H482 C496 0.960 . S
H483 C496 0.960 . S
C484 H476 0.929 . S
C484 C485 1.377 . S
C484 C486 1.384 . S
C485 C484 1.377 . S
C485 C491 1.390 . S
C486 H477 0.930 . S
C486 C484 1.384 . S
C486 C487 1.372 . S
C487 C486 1.372 . S
C487 C488 1.400 . S
C487 C492 1.490 . S
C488 H478 0.930 . S
C488 C487 1.400 . S
C488 C491 1.386 . S
H489 C505 0.930 . S
H490 C506 0.931 . S
C491 H479 0.929 . S
C491 C485 1.390 . S
C491 C488 1.386 . S
C492 C487 1.490 . S
C492 C494 1.395 . S
C492 C495 1.403 . S
H493 C499 0.930 1_565 S
C494 H480 0.930 . S
C494 C492 1.395 . S
C494 C497 1.403 . S
C495 C492 1.403 . S
C495 C496 1.524 . S
C495 C499 1.400 . S
C496 H481 0.960 . S
C496 H482 0.960 . S
C496 H483 0.960 . S
C496 C495 1.524 . S
C497 C494 1.403 . S
C497 C498 1.392 . S
C497 C501 1.495 . S
C498 C497 1.392 . S
C498 C499 1.385 . S
C498 C500 1.478 1_545 S
C499 H493 0.930 1_545 S
C499 C495 1.400 . S
C499 C498 1.385 . S
C500 C498 1.478 1_565 S
C500 C502 1.381 . S
C500 C506 1.383 . S
C501 C497 1.495 . S
C501 H507 0.959 . S
C501 H508 0.961 . S
C501 H509 0.960 . S
C502 C500 1.381 . S
C502 C503 1.394 . S
C502 H510 0.930 . S
C503 C502 1.394 . S
C503 C504 1.383 . S
C503 H511 0.929 . S
C504 C503 1.383 . S
C504 C505 1.377 . S
C505 H489 0.930 . S
C505 C504 1.377 . S
C505 C506 1.379 . S
C506 H490 0.931 . S
C506 C500 1.383 . S
C506 C505 1.379 . S
H507 C501 0.959 . S
H508 C501 0.961 . S
H509 C501 0.960 . S
H510 C502 0.930 . S
H511 C503 0.929 . S
H512 C520 0.929 . S
H513 C522 0.930 . S
H514 C524 0.930 . S
H515 C527 0.929 . S
H516 C530 0.930 . S
H517 C532 0.960 . S
H518 C532 0.960 . S
H519 C532 0.960 . S
C520 H512 0.929 . S
C520 C521 1.377 . S
C520 C522 1.384 . S
C521 C520 1.377 . S
C521 C527 1.390 . S
C522 H513 0.930 . S
C522 C520 1.384 . S
C522 C523 1.372 . S
C523 C522 1.372 . S
C523 C524 1.400 . S
C523 C528 1.490 . S
C524 H514 0.930 . S
C524 C523 1.400 . S
C524 C527 1.386 . S
H525 C541 0.930 . S
H526 C542 0.931 . S
C527 H515 0.929 . S
C527 C521 1.390 . S
C527 C524 1.386 . S
C528 C523 1.490 . S
C528 C530 1.395 . S
C528 C531 1.403 . S
H529 C535 0.930 . S
C530 H516 0.930 . S
C530 C528 1.395 . S
C530 C533 1.403 . S
C531 C528 1.403 . S
C531 C532 1.524 . S
C531 C535 1.400 . S
C532 H517 0.960 . S
C532 H518 0.960 . S
C532 H519 0.960 . S
C532 C531 1.524 . S
C533 C530 1.403 . S
C533 C534 1.392 . S
C533 C537 1.495 . S
C534 C533 1.392 . S
C534 C535 1.385 . S
C534 C536 1.478 . S
C535 H529 0.930 . S
C535 C531 1.400 . S
C535 C534 1.385 . S
C536 C534 1.478 . S
C536 C538 1.381 . S
C536 C542 1.383 . S
C537 C533 1.495 . S
C537 H543 0.959 . S
C537 H544 0.961 . S
C537 H545 0.960 . S
C538 C536 1.381 . S
C538 C539 1.394 . S
C538 H546 0.930 . S
C539 C538 1.394 . S
C539 C540 1.383 . S
C539 H547 0.929 . S
C540 C539 1.383 . S
C540 C541 1.377 . S
C541 H525 0.930 . S
C541 C540 1.377 . S
C541 C542 1.379 . S
C542 H526 0.931 . S
C542 C536 1.383 . S
C542 C541 1.379 . S
H543 C537 0.959 . S
H544 C537 0.961 . S
H545 C537 0.960 . S
H546 C538 0.930 . S
H547 C539 0.929 . S
H548 C556 0.929 . S
H549 C558 0.930 . S
H550 C560 0.930 . S
H551 C563 0.929 . S
H552 C566 0.930 . S
H553 C568 0.960 . S
H554 C568 0.960 . S
H555 C568 0.960 . S
C556 H548 0.929 . S
C556 C557 1.377 . S
C556 C558 1.384 . S
C557 C556 1.377 . S
C557 C563 1.390 . S
C558 H549 0.930 . S
C558 C556 1.384 . S
C558 C559 1.372 . S
C559 C558 1.372 . S
C559 C560 1.400 . S
C559 C564 1.490 . S
C560 H550 0.930 . S
C560 C559 1.400 . S
C560 C563 1.386 . S
H561 C577 0.930 . S
H562 C578 0.931 . S
C563 H551 0.929 . S
C563 C557 1.390 . S
C563 C560 1.386 . S
C564 C559 1.490 . S
C564 C566 1.395 . S
C564 C567 1.403 . S
H565 C571 0.930 . S
C566 H552 0.930 . S
C566 C564 1.395 . S
C566 C569 1.403 . S
C567 C564 1.403 . S
C567 C568 1.524 . S
C567 C571 1.400 . S
C568 H553 0.960 . S
C568 H554 0.960 . S
C568 H555 0.960 . S
C568 C567 1.524 . S
C569 C566 1.403 . S
C569 C570 1.392 . S
C569 C573 1.495 . S
C570 C569 1.392 . S
C570 C571 1.385 . S
C570 C572 1.478 . S
C571 H565 0.930 . S
C571 C567 1.400 . S
C571 C570 1.385 . S
C572 C570 1.478 . S
C572 C574 1.381 . S
C572 C578 1.383 . S
C573 C569 1.495 . S
C573 H579 0.959 . S
C573 H580 0.961 . S
C573 H581 0.960 . S
C574 C572 1.381 . S
C574 C575 1.394 . S
C574 H582 0.930 . S
C575 C574 1.394 . S
C575 C576 1.383 . S
C575 H583 0.929 . S
C576 C575 1.383 . S
C576 C577 1.377 . S
C577 H561 0.930 . S
C577 C576 1.377 . S
C577 C578 1.379 . S
C578 H562 0.931 . S
C578 C572 1.383 . S
C578 C577 1.379 . S
H579 C573 0.959 . S
H580 C573 0.961 . S
H581 C573 0.960 . S
H582 C574 0.930 . S
H583 C575 0.929 . S
H584 C592 0.929 . S
H585 C594 0.930 . S
H586 C596 0.930 . S
H587 C599 0.929 1_556 S
H588 C602 0.930 . S
H589 C604 0.961 1_556 S
H590 C604 0.957 . S
H591 C604 0.962 1_556 S
C592 H584 0.929 . S
C592 C593 1.377 . S
C592 C594 1.384 . S
C593 C592 1.377 . S
C593 C599 1.390 . S
C594 H585 0.930 . S
C594 C592 1.384 . S
C594 C595 1.372 . S
C595 C594 1.372 . S
C595 C596 1.400 1_554 S
C595 C600 1.490 . S
C596 H586 0.930 . S
C596 C595 1.400 1_556 S
C596 C599 1.386 1_556 S
H597 C613 0.930 . S
H598 C614 0.931 1_655 S
C599 H587 0.929 1_554 S
C599 C593 1.390 . S
C599 C596 1.386 1_554 S
C600 C595 1.490 . S
C600 C602 1.395 . S
C600 C603 1.403 1_554 S
H601 C607 0.930 . S
C602 H588 0.930 . S
C602 C600 1.395 . S
C602 C605 1.403 1_554 S
C603 C600 1.403 1_556 S
C603 C604 1.524 1_556 S
C603 C607 1.400 . S
C604 H589 0.961 1_554 S
C604 H590 0.957 . S
C604 H591 0.962 1_554 S
C604 C603 1.524 1_554 S
C605 C602 1.403 1_556 S
C605 C606 1.392 . S
C605 C609 1.495 1_655 S
C606 C605 1.392 . S
C606 C607 1.385 . S
C606 C608 1.478 1_655 S
C607 H601 0.930 . S
C607 C603 1.400 . S
C607 C606 1.385 . S
C608 C606 1.478 1_455 S
C608 C610 1.381 . S
C608 C614 1.383 . S
C609 C605 1.495 1_455 S
C609 H615 0.954 1_456 S
C609 H616 0.961 . S
C609 H617 0.960 1_556 S
C610 C608 1.381 . S
C610 C611 1.394 . S
C610 H618 0.930 1_556 S
C611 C610 1.394 . S
C611 C612 1.383 . S
C611 H619 0.915 1_556 S
C612 C611 1.383 . S
C612 C613 1.377 . S
C613 H597 0.930 . S
C613 C612 1.377 . S
C613 C614 1.379 . S
C614 H598 0.931 1_455 S
C614 C608 1.383 . S
C614 C613 1.379 . S
H615 C609 0.954 1_654 S
H616 C609 0.961 . S
H617 C609 0.960 1_554 S
H618 C610 0.930 1_554 S
H619 C611 0.915 1_554 S
H620 C628 0.929 . S
H621 C630 0.930 . S
H622 C632 0.930 . S
H623 C635 0.929 . S
H624 C638 0.930 . S
H625 C640 0.960 . S
H626 C640 0.960 . S
H627 C640 0.960 . S
C628 H620 0.929 . S
C628 C629 1.377 . S
C628 C630 1.384 . S
C629 C628 1.377 . S
C629 C635 1.390 . S
C630 H621 0.930 . S
C630 C628 1.384 . S
C630 C631 1.372 . S
C631 C630 1.372 . S
C631 C632 1.400 . S
C631 C636 1.490 . S
C632 H622 0.930 . S
C632 C631 1.400 . S
C632 C635 1.386 . S
H633 C649 0.930 . S
H634 C650 0.931 . S
C635 H623 0.929 . S
C635 C629 1.390 . S
C635 C632 1.386 . S
C636 C631 1.490 . S
C636 C638 1.395 . S
C636 C639 1.403 . S
H637 C643 0.930 . S
C638 H624 0.930 . S
C638 C636 1.395 . S
C638 C641 1.403 . S
C639 C636 1.403 . S
C639 C640 1.524 . S
C639 C643 1.400 . S
C640 H625 0.960 . S
C640 H626 0.960 . S
C640 H627 0.960 . S
C640 C639 1.524 . S
C641 C638 1.403 . S
C641 C642 1.392 . S
C641 C645 1.495 . S
C642 C641 1.392 . S
C642 C643 1.385 . S
C642 C644 1.478 . S
C643 H637 0.930 . S
C643 C639 1.400 . S
C643 C642 1.385 . S
C644 C642 1.478 . S
C644 C646 1.381 . S
C644 C650 1.383 . S
C645 C641 1.495 . S
C645 H651 0.959 . S
C645 H652 0.961 . S
C645 H653 0.960 . S
C646 C644 1.381 . S
C646 C647 1.394 . S
C646 H654 0.930 . S
C647 C646 1.394 . S
C647 C648 1.383 . S
C647 H655 0.929 . S
C648 C647 1.383 . S
C648 C649 1.377 . S
C649 H633 0.930 . S
C649 C648 1.377 . S
C649 C650 1.379 . S
C650 H634 0.931 . S
C650 C644 1.383 . S
C650 C649 1.379 . S
H651 C645 0.959 . S
H652 C645 0.961 . S
H653 C645 0.960 . S
H654 C646 0.930 . S
H655 C647 0.929 . S
H656 C664 0.929 . S
H657 C666 0.930 . S
H658 C668 0.930 . S
H659 C671 0.929 . S
H660 C674 0.930 . S
H661 C676 0.960 . S
H662 C676 0.960 . S
H663 C676 0.960 . S
C664 H656 0.929 . S
C664 C665 1.377 . S
C664 C666 1.384 . S
C665 C664 1.377 . S
C665 C671 1.390 . S
C666 H657 0.930 . S
C666 C664 1.384 . S
C666 C667 1.372 . S
C667 C666 1.372 . S
C667 C668 1.400 . S
C667 C672 1.490 . S
C668 H658 0.930 . S
C668 C667 1.400 . S
C668 C671 1.386 . S
H669 C685 0.930 . S
H670 C686 0.931 . S
C671 H659 0.929 . S
C671 C665 1.390 . S
C671 C668 1.386 . S
C672 C667 1.490 . S
C672 C674 1.395 . S
C672 C675 1.403 . S
H673 C679 0.930 . S
C674 H660 0.930 . S
C674 C672 1.395 . S
C674 C677 1.403 . S
C675 C672 1.403 . S
C675 C676 1.524 . S
C675 C679 1.400 . S
C676 H661 0.960 . S
C676 H662 0.960 . S
C676 H663 0.960 . S
C676 C675 1.524 . S
C677 C674 1.403 . S
C677 C678 1.392 . S
C677 C681 1.495 . S
C678 C677 1.392 . S
C678 C679 1.385 . S
C678 C680 1.478 . S
C679 H673 0.930 . S
C679 C675 1.400 . S
C679 C678 1.385 . S
C680 C678 1.478 . S
C680 C682 1.381 . S
C680 C686 1.383 . S
C681 C677 1.495 . S
C681 H687 0.959 . S
C681 H688 0.961 . S
C681 H689 0.960 . S
C682 C680 1.381 . S
C682 C683 1.394 1_455 S
C682 H690 0.930 . S
C683 C682 1.394 1_655 S
C683 C684 1.383 . S
C683 H691 0.929 . S
C684 C683 1.383 . S
C684 C685 1.377 1_655 S
C685 H669 0.930 . S
C685 C684 1.377 1_455 S
C685 C686 1.379 . S
C686 H670 0.931 . S
C686 C680 1.383 . S
C686 C685 1.379 . S
H687 C681 0.959 . S
H688 C681 0.961 . S
H689 C681 0.960 . S
H690 C682 0.930 . S
H691 C683 0.929 . S
H692 C700 0.929 . S
H693 C702 0.930 . S
H694 C704 0.930 . S
H695 C707 0.929 . S
H696 C710 0.930 . S
H697 C712 0.960 . S
H698 C712 0.960 . S
H699 C712 0.960 . S
C700 H692 0.929 . S
C700 C701 1.377 . S
C700 C702 1.384 . S
C701 C700 1.377 . S
C701 C707 1.390 . S
C702 H693 0.930 . S
C702 C700 1.384 . S
C702 C703 1.372 . S
C703 C702 1.372 . S
C703 C704 1.400 . S
C703 C708 1.490 . S
C704 H694 0.930 . S
C704 C703 1.400 . S
C704 C707 1.386 . S
H705 C721 0.930 1_565 S
H706 C722 0.931 . S
C707 H695 0.929 . S
C707 C701 1.390 . S
C707 C704 1.386 . S
C708 C703 1.490 . S
C708 C710 1.395 . S
C708 C711 1.403 . S
H709 C715 0.930 . S
C710 H696 0.930 . S
C710 C708 1.395 . S
C710 C713 1.403 . S
C711 C708 1.403 . S
C711 C712 1.524 . S
C711 C715 1.400 . S
C712 H697 0.960 . S
C712 H698 0.960 . S
C712 H699 0.960 . S
C712 C711 1.524 . S
C713 C710 1.403 . S
C713 C714 1.392 . S
C713 C717 1.495 . S
C714 C713 1.392 . S
C714 C715 1.385 . S
C714 C716 1.478 . S
C715 H709 0.930 . S
C715 C711 1.400 . S
C715 C714 1.385 . S
C716 C714 1.478 . S
C716 C718 1.381 . S
C716 C722 1.383 . S
C717 C713 1.495 . S
C717 H723 0.959 . S
C717 H724 0.961 . S
C717 H725 0.960 . S
C718 C716 1.381 . S
C718 C719 1.394 1_545 S
C718 H726 0.930 . S
C719 C718 1.394 1_565 S
C719 C720 1.383 . S
C719 H727 0.929 . S
C720 C719 1.383 . S
C720 C721 1.377 1_565 S
C721 H705 0.930 1_545 S
C721 C720 1.377 1_545 S
C721 C722 1.379 . S
C722 H706 0.931 . S
C722 C716 1.383 . S
C722 C721 1.379 . S
H723 C717 0.959 . S
H724 C717 0.961 . S
H725 C717 0.960 . S
H726 C718 0.930 . S
H727 C719 0.929 . S
H728 C736 0.929 . S
H729 C738 0.930 . S
H730 C740 0.930 . S
H731 C743 0.929 . S
H732 C746 0.930 . S
H733 C748 0.960 . S
H734 C748 0.960 . S
H735 C748 0.960 . S
C736 H728 0.929 . S
C736 C737 1.377 . S
C736 C738 1.384 . S
C737 C736 1.377 . S
C737 C743 1.390 . S
C738 H729 0.930 . S
C738 C736 1.384 . S
C738 C739 1.372 . S
C739 C738 1.372 . S
C739 C740 1.400 . S
C739 C744 1.490 . S
C740 H730 0.930 . S
C740 C739 1.400 . S
C740 C743 1.386 . S
H741 C757 0.930 . S
H742 C758 0.931 . S
C743 H731 0.929 . S
C743 C737 1.390 . S
C743 C740 1.386 . S
C744 C739 1.490 . S
C744 C746 1.395 . S
C744 C747 1.403 . S
H745 C751 0.930 . S
C746 H732 0.930 . S
C746 C744 1.395 . S
C746 C749 1.403 . S
C747 C744 1.403 . S
C747 C748 1.524 . S
C747 C751 1.400 . S
C748 H733 0.960 . S
C748 H734 0.960 . S
C748 H735 0.960 . S
C748 C747 1.524 . S
C749 C746 1.403 . S
C749 C750 1.392 . S
C749 C753 1.495 . S
C750 C749 1.392 . S
C750 C751 1.385 . S
C750 C752 1.478 . S
C751 H745 0.930 . S
C751 C747 1.400 . S
C751 C750 1.385 . S
C752 C750 1.478 . S
C752 C754 1.381 . S
C752 C758 1.383 . S
C753 C749 1.495 . S
C753 H759 0.959 . S
C753 H760 0.961 . S
C753 H761 0.960 . S
C754 C752 1.381 . S
C754 C755 1.394 . S
C754 H762 0.930 . S
C755 C754 1.394 . S
C755 C756 1.383 . S
C755 H763 0.929 . S
C756 C755 1.383 . S
C756 C757 1.377 . S
C757 H741 0.930 . S
C757 C756 1.377 . S
C757 C758 1.379 . S
C758 H742 0.931 . S
C758 C752 1.383 . S
C758 C757 1.379 . S
H759 C753 0.959 . S
H760 C753 0.961 . S
H761 C753 0.960 . S
H762 C754 0.930 . S
H763 C755 0.929 . S
H764 C772 0.929 . S
H765 C774 0.930 . S
H766 C776 0.930 . S
H767 C779 0.929 1_554 S
H768 C782 0.930 1_565 S
H769 C784 0.960 . S
H770 C784 0.960 . S
H771 C784 0.960 . S
C772 H764 0.929 . S
C772 C773 1.377 . S
C772 C774 1.384 . S
C773 C772 1.377 . S
C773 C779 1.390 . S
C774 H765 0.930 . S
C774 C772 1.384 . S
C774 C775 1.372 . S
C775 C774 1.372 . S
C775 C776 1.400 . S
C775 C780 1.490 . S
C776 H766 0.930 . S
C776 C775 1.400 . S
C776 C779 1.386 . S
H777 C793 0.930 . S
H778 C794 0.931 . S
C779 H767 0.929 1_556 S
C779 C773 1.390 . S
C779 C776 1.386 . S
C780 C775 1.490 . S
C780 C782 1.395 1_565 S
C780 C783 1.423 . S
H781 C787 0.930 . S
C782 H768 0.930 1_545 S
C782 C780 1.395 1_545 S
C782 C785 1.403 . S
C783 C780 1.423 . S
C783 C784 1.552 . S
C783 C787 1.350 1_565 S
C784 H769 0.960 . S
C784 H770 0.960 . S
C784 H771 0.960 . S
C784 C783 1.552 . S
C785 C782 1.403 . S
C785 C786 1.392 . S
C785 C789 1.495 . S
C786 C785 1.392 . S
C786 C787 1.385 . S
C786 C788 1.478 . S
C787 H781 0.930 . S
C787 C783 1.350 1_545 S
C787 C786 1.385 . S
C788 C786 1.478 . S
C788 C790 1.381 . S
C788 C794 1.383 . S
C789 C785 1.495 . S
C789 H795 0.959 . S
C789 H796 0.961 1_556 S
C789 H797 0.960 . S
C790 C788 1.381 . S
C790 C791 1.394 . S
C790 H798 0.930 . S
C791 C790 1.394 . S
C791 C792 1.383 . S
C791 H799 0.929 . S
C792 C791 1.383 . S
C792 C793 1.377 . S
C793 H777 0.930 . S
C793 C792 1.377 . S
C793 C794 1.379 . S
C794 H778 0.931 . S
C794 C788 1.383 . S
C794 C793 1.379 . S
H795 C789 0.959 . S
H796 C789 0.961 1_554 S
H797 C789 0.960 . S
H798 C790 0.930 . S
H799 C791 0.929 . S
H800 C808 0.929 . S
H801 C810 0.930 . S
H802 C812 0.930 . S
H803 C815 0.929 . S
H804 C818 0.930 . S
H805 C820 0.960 . S
H806 C820 0.960 . S
H807 C820 0.960 . S
C808 H800 0.929 . S
C808 C809 1.377 . S
C808 C810 1.384 . S
C809 C808 1.377 . S
C809 C815 1.390 . S
C810 H801 0.930 . S
C810 C808 1.384 . S
C810 C811 1.372 . S
C811 C810 1.372 . S
C811 C812 1.400 . S
C811 C816 1.490 . S
C812 H802 0.930 . S
C812 C811 1.400 . S
C812 C815 1.386 . S
H813 C829 0.930 . S
H814 C830 0.931 . S
C815 H803 0.929 . S
C815 C809 1.390 . S
C815 C812 1.386 . S
C816 C811 1.490 . S
C816 C818 1.395 . S
C816 C819 1.403 . S
H817 C823 0.930 . S
C818 H804 0.930 . S
C818 C816 1.395 . S
C818 C821 1.403 . S
C819 C816 1.403 . S
C819 C820 1.524 . S
C819 C823 1.400 . S
C820 H805 0.960 . S
C820 H806 0.960 . S
C820 H807 0.960 . S
C820 C819 1.524 . S
C821 C818 1.403 . S
C821 C822 1.392 . S
C821 C825 1.495 . S
C822 C821 1.392 . S
C822 C823 1.385 . S
C822 C824 1.478 . S
C823 H817 0.930 . S
C823 C819 1.400 . S
C823 C822 1.385 . S
C824 C822 1.478 . S
C824 C826 1.381 . S
C824 C830 1.383 . S
C825 C821 1.495 . S
C825 H831 0.959 . S
C825 H832 0.961 . S
C825 H833 0.960 . S
C826 C824 1.381 . S
C826 C827 1.394 . S
C826 H834 0.930 . S
C827 C826 1.394 . S
C827 C828 1.383 . S
C827 H835 0.929 . S
C828 C827 1.383 . S
C828 C829 1.377 . S
C829 H813 0.930 . S
C829 C828 1.377 . S
C829 C830 1.379 . S
C830 H814 0.931 . S
C830 C824 1.383 . S
C830 C829 1.379 . S
H831 C825 0.959 . S
H832 C825 0.961 . S
H833 C825 0.960 . S
H834 C826 0.930 . S
H835 C827 0.929 . S
H836 C844 0.929 . S
H837 C846 0.930 . S
H838 C848 0.930 . S
H839 C851 0.929 . S
H840 C854 0.930 . S
H841 C856 0.960 . S
H842 C856 0.960 . S
H843 C856 0.960 . S
C844 H836 0.929 . S
C844 C845 1.377 . S
C844 C846 1.384 . S
C845 C844 1.377 . S
C845 C851 1.390 . S
C846 H837 0.930 . S
C846 C844 1.384 . S
C846 C847 1.372 . S
C847 C846 1.372 . S
C847 C848 1.400 . S
C847 C852 1.490 . S
C848 H838 0.930 . S
C848 C847 1.400 . S
C848 C851 1.386 . S
H849 C865 0.930 . S
H850 C866 0.931 . S
C851 H839 0.929 . S
C851 C845 1.390 . S
C851 C848 1.386 . S
C852 C847 1.490 . S
C852 C854 1.395 . S
C852 C855 1.403 . S
H853 C859 0.930 . S
C854 H840 0.930 . S
C854 C852 1.395 . S
C854 C857 1.403 . S
C855 C852 1.403 . S
C855 C856 1.524 . S
C855 C859 1.400 . S
C856 H841 0.960 . S
C856 H842 0.960 . S
C856 H843 0.960 . S
C856 C855 1.524 . S
C857 C854 1.403 . S
C857 C858 1.392 . S
C857 C861 1.495 . S
C858 C857 1.392 . S
C858 C859 1.385 . S
C858 C860 1.478 . S
C859 H853 0.930 . S
C859 C855 1.400 . S
C859 C858 1.385 . S
C860 C858 1.478 . S
C860 C862 1.381 . S
C860 C866 1.383 . S
C861 C857 1.495 . S
C861 H867 0.959 . S
C861 H868 0.961 . S
C861 H869 0.960 . S
C862 C860 1.381 . S
C862 C863 1.394 . S
C862 H870 0.930 . S
C863 C862 1.394 . S
C863 C864 1.383 . S
C863 H871 0.929 . S
C864 C863 1.383 . S
C864 C865 1.377 . S
C865 H849 0.930 . S
C865 C864 1.377 . S
C865 C866 1.379 . S
C866 H850 0.931 . S
C866 C860 1.383 . S
C866 C865 1.379 . S
H867 C861 0.959 . S
H868 C861 0.961 . S
H869 C861 0.960 . S
H870 C862 0.930 . S
H871 C863 0.929 . S
H872 C880 0.929 . S
H873 C882 0.930 . S
H874 C884 0.930 . S
H875 C887 0.929 . S
H876 C890 0.930 . S
H877 C892 0.960 . S
H878 C892 0.960 . S
H879 C892 0.960 . S
C880 H872 0.929 . S
C880 C881 1.377 . S
C880 C882 1.384 . S
C881 C880 1.377 . S
C881 C887 1.390 . S
C882 H873 0.930 . S
C882 C880 1.384 . S
C882 C883 1.372 . S
C883 C882 1.372 . S
C883 C884 1.400 . S
C883 C888 1.490 . S
C884 H874 0.930 . S
C884 C883 1.400 . S
C884 C887 1.386 . S
H885 C901 0.930 . S
H886 C902 0.931 . S
C887 H875 0.929 . S
C887 C881 1.390 . S
C887 C884 1.386 . S
C888 C883 1.490 . S
C888 C890 1.395 . S
C888 C891 1.403 . S
H889 C895 0.930 . S
C890 H876 0.930 . S
C890 C888 1.395 . S
C890 C893 1.403 1_455 S
C891 C888 1.403 . S
C891 C892 1.524 . S
C891 C895 1.400 1_455 S
C892 H877 0.960 . S
C892 H878 0.960 . S
C892 H879 0.960 . S
C892 C891 1.524 . S
C893 C890 1.403 1_655 S
C893 C894 1.392 . S
C893 C897 1.495 . S
C894 C893 1.392 . S
C894 C895 1.385 . S
C894 C896 1.478 . S
C895 H889 0.930 . S
C895 C891 1.400 1_655 S
C895 C894 1.385 . S
C896 C894 1.478 . S
C896 C898 1.381 . S
C896 C902 1.383 . S
C897 C893 1.495 . S
C897 H903 0.959 1_554 S
C897 H904 0.961 . S
C897 H905 0.960 . S
C898 C896 1.381 . S
C898 C899 1.394 . S
C898 H906 0.930 . S
C899 C898 1.394 . S
C899 C900 1.383 . S
C899 H907 0.929 . S
C900 C899 1.383 . S
C900 C901 1.377 . S
C901 H885 0.930 . S
C901 C900 1.377 . S
C901 C902 1.379 . S
C902 H886 0.931 . S
C902 C896 1.383 . S
C902 C901 1.379 . S
H903 C897 0.959 1_556 S
H904 C897 0.961 . S
H905 C897 0.960 . S
H906 C898 0.930 . S
H907 C899 0.929 . S
H908 C916 0.929 . S
H909 C918 0.930 . S
H910 C920 0.930 . S
H911 C923 0.929 . S
H912 C926 0.930 . S
H913 C928 0.960 . S
H914 C928 0.960 . S
H915 C928 0.960 . S
C916 H908 0.929 . S
C916 C917 1.377 . S
C916 C918 1.384 . S
C917 C916 1.377 . S
C917 C923 1.390 . S
C918 H909 0.930 . S
C918 C916 1.384 . S
C918 C919 1.372 . S
C919 C918 1.372 . S
C919 C920 1.400 . S
C919 C924 1.490 . S
C920 H910 0.930 . S
C920 C919 1.400 . S
C920 C923 1.386 . S
H921 C937 0.930 . S
H922 C938 0.931 . S
C923 H911 0.929 . S
C923 C917 1.390 . S
C923 C920 1.386 . S
C924 C919 1.490 . S
C924 C926 1.395 . S
C924 C927 1.403 . S
H925 C931 0.930 . S
C926 H912 0.930 . S
C926 C924 1.395 . S
C926 C929 1.403 . S
C927 C924 1.403 . S
C927 C928 1.524 . S
C927 C931 1.400 . S
C928 H913 0.960 . S
C928 H914 0.960 . S
C928 H915 0.960 . S
C928 C927 1.524 . S
C929 C926 1.403 . S
C929 C930 1.392 . S
C929 C933 1.495 . S
C930 C929 1.392 . S
C930 C931 1.385 . S
C930 C932 1.478 . S
C931 H925 0.930 . S
C931 C927 1.400 . S
C931 C930 1.385 . S
C932 C930 1.478 . S
C932 C934 1.381 . S
C932 C938 1.383 . S
C933 C929 1.495 . S
C933 H939 0.959 . S
C933 H940 0.961 . S
C933 H941 0.960 . S
C934 C932 1.381 . S
C934 C935 1.394 . S
C934 H942 0.930 . S
C935 C934 1.394 . S
C935 C936 1.383 . S
C935 H943 0.929 . S
C936 C935 1.383 . S
C936 C937 1.377 . S
C937 H921 0.930 . S
C937 C936 1.377 . S
C937 C938 1.379 . S
C938 H922 0.931 . S
C938 C932 1.383 . S
C938 C937 1.379 . S
H939 C933 0.959 . S
H940 C933 0.961 . S
H941 C933 0.960 . S
H942 C934 0.930 . S
H943 C935 0.929 . S
H944 C952 0.929 . S
H945 C954 0.930 . S
H946 C956 0.930 . S
H947 C959 0.929 . S
H948 C962 0.930 . S
H949 C964 0.960 . S
H950 C964 0.960 . S
H951 C964 0.960 . S
C952 H944 0.929 . S
C952 C953 1.377 . S
C952 C954 1.384 . S
C953 C952 1.377 . S
C953 C959 1.390 . S
C954 H945 0.930 . S
C954 C952 1.384 . S
C954 C955 1.372 . S
C955 C954 1.372 . S
C955 C956 1.400 . S
C955 C960 1.490 . S
C956 H946 0.930 . S
C956 C955 1.400 . S
C956 C959 1.386 . S
H957 C973 0.930 . S
H958 C974 0.900 1_655 S
C959 H947 0.929 . S
C959 C953 1.390 . S
C959 C956 1.386 . S
C960 C955 1.490 . S
C960 C962 1.395 . S
C960 C963 1.403 . S
H961 C967 0.930 . S
C962 H948 0.930 . S
C962 C960 1.395 . S
C962 C965 1.403 . S
C963 C960 1.403 . S
C963 C964 1.524 . S
C963 C967 1.400 . S
C964 H949 0.960 . S
C964 H950 0.960 . S
C964 H951 0.960 . S
C964 C963 1.524 . S
C965 C962 1.403 . S
C965 C966 1.392 . S
C965 C969 1.495 . S
C966 C965 1.392 . S
C966 C967 1.385 . S
C966 C968 1.478 1_655 S
C967 H961 0.930 . S
C967 C963 1.400 . S
C967 C966 1.385 . S
C968 C966 1.478 1_455 S
C968 C970 1.381 . S
C968 C974 1.383 . S
C969 C965 1.495 . S
C969 H975 0.959 . S
C969 H976 0.961 . S
C969 H977 0.986 . S
C970 C968 1.381 . S
C970 C971 1.394 . S
C970 H978 0.930 . S
C971 C970 1.394 . S
C971 C972 1.383 . S
C971 H979 0.929 . S
C972 C971 1.383 . S
C972 C973 1.377 . S
C973 H957 0.930 . S
C973 C972 1.377 . S
C973 C974 1.379 . S
C974 H958 0.900 1_455 S
C974 C968 1.383 . S
C974 C973 1.379 . S
H975 C969 0.959 . S
H976 C969 0.961 . S
H977 C969 0.986 . S
H978 C970 0.930 . S
H979 C971 0.929 . S
H980 C988 0.929 . S
H981 C990 0.930 . S
H982 C992 0.930 . S
H983 C995 0.929 . S
H984 C998 0.930 . S
H985 C1000 0.960 . S
H986 C1000 0.960 . S
H987 C1000 0.960 . S
C988 H980 0.929 . S
C988 C989 1.377 . S
C988 C990 1.384 . S
C989 C988 1.377 . S
C989 C995 1.390 . S
C990 H981 0.930 . S
C990 C988 1.384 . S
C990 C991 1.372 . S
C991 C990 1.372 . S
C991 C992 1.400 . S
C991 C996 1.490 . S
C992 H982 0.930 . S
C992 C991 1.400 . S
C992 C995 1.386 . S
H993 C1009 0.930 . S
H994 C1010 0.931 . S
C995 H983 0.929 . S
C995 C989 1.390 . S
C995 C992 1.386 . S
C996 C991 1.490 . S
C996 C998 1.395 . S
C996 C999 1.403 . S
H997 C1003 0.930 . S
C998 H984 0.930 . S
C998 C996 1.395 . S
C998 C1001 1.403 . S
C999 C996 1.403 . S
C999 C1000 1.524 . S
C999 C1003 1.400 . S
C1000 H985 0.960 . S
C1000 H986 0.960 . S
C1000 H987 0.960 . S
C1000 C999 1.524 . S
C1001 C998 1.403 . S
C1001 C1002 1.392 . S
C1001 C1005 1.495 . S
C1002 C1001 1.392 . S
C1002 C1003 1.385 . S
C1002 C1004 1.478 . S
C1003 H997 0.930 . S
C1003 C999 1.400 . S
C1003 C1002 1.385 . S
C1004 C1002 1.478 . S
C1004 C1006 1.381 . S
C1004 C1010 1.383 . S
C1005 C1001 1.495 . S
C1005 H1011 0.959 . S
C1005 H1012 0.961 . S
C1005 H1013 0.960 . S
C1006 C1004 1.381 . S
C1006 C1007 1.394 . S
C1006 H1014 0.930 . S
C1007 C1006 1.394 . S
C1007 C1008 1.383 . S
C1007 H1015 0.929 . S
C1008 C1007 1.383 . S
C1008 C1009 1.377 . S
C1009 H993 0.930 . S
C1009 C1008 1.377 . S
C1009 C1010 1.379 . S
C1010 H994 0.931 . S
C1010 C1004 1.383 . S
C1010 C1009 1.379 . S
H1011 C1005 0.959 . S
H1012 C1005 0.961 . S
H1013 C1005 0.960 . S
H1014 C1006 0.930 . S
H1015 C1007 0.929 . S
H1016 C1024 0.929 . S
H1017 C1026 0.930 . S
H1018 C1028 0.930 . S
H1019 C1031 0.929 . S
H1020 C1034 0.930 . S
H1021 C1036 0.960 . S
H1022 C1036 0.960 . S
H1023 C1036 0.960 . S
C1024 H1016 0.929 . S
C1024 C1025 1.377 . S
C1024 C1026 1.384 . S
C1025 C1024 1.377 . S
C1025 C1031 1.390 . S
C1026 H1017 0.930 . S
C1026 C1024 1.384 . S
C1026 C1027 1.372 . S
C1027 C1026 1.372 . S
C1027 C1028 1.400 . S
C1027 C1032 1.490 . S
C1028 H1018 0.930 . S
C1028 C1027 1.400 . S
C1028 C1031 1.386 . S
H1029 C1045 0.930 . S
H1030 C1046 0.931 . S
C1031 H1019 0.929 . S
C1031 C1025 1.390 . S
C1031 C1028 1.386 . S
C1032 C1027 1.490 . S
C1032 C1034 1.395 . S
C1032 C1035 1.403 . S
H1033 C1039 0.930 . S
C1034 H1020 0.930 . S
C1034 C1032 1.395 . S
C1034 C1037 1.403 . S
C1035 C1032 1.403 . S
C1035 C1036 1.524 . S
C1035 C1039 1.400 . S
C1036 H1021 0.960 . S
C1036 H1022 0.960 . S
C1036 H1023 0.960 . S
C1036 C1035 1.524 . S
C1037 C1034 1.403 . S
C1037 C1038 1.392 . S
C1037 C1041 1.495 . S
C1038 C1037 1.392 . S
C1038 C1039 1.385 . S
C1038 C1040 1.478 . S
C1039 H1033 0.930 . S
C1039 C1035 1.400 . S
C1039 C1038 1.385 . S
C1040 C1038 1.478 . S
C1040 C1042 1.381 . S
C1040 C1046 1.383 . S
C1041 C1037 1.495 . S
C1041 H1047 0.959 . S
C1041 H1048 0.961 . S
C1041 H1049 0.960 . S
C1042 C1040 1.381 . S
C1042 C1043 1.394 . S
C1042 H1050 0.930 . S
C1043 C1042 1.394 . S
C1043 C1044 1.383 . S
C1043 H1051 0.929 . S
C1044 C1043 1.383 . S
C1044 C1045 1.377 . S
C1045 H1029 0.930 . S
C1045 C1044 1.377 . S
C1045 C1046 1.379 . S
C1046 H1030 0.931 . S
C1046 C1040 1.383 . S
C1046 C1045 1.379 . S
H1047 C1041 0.959 . S
H1048 C1041 0.961 . S
H1049 C1041 0.960 . S
H1050 C1042 0.930 . S
H1051 C1043 0.929 . S
H1052 C1060 0.929 . S
H1053 C1062 0.930 . S
H1054 C1064 0.930 . S
H1055 C1067 0.929 . S
H1056 C1070 0.930 . S
H1057 C1072 0.960 . S
H1058 C1072 0.960 . S
H1059 C1072 0.960 . S
C1060 H1052 0.929 . S
C1060 C1061 1.377 . S
C1060 C1062 1.384 . S
C1061 C1060 1.377 . S
C1061 C1067 1.390 . S
C1062 H1053 0.930 . S
C1062 C1060 1.384 . S
C1062 C1063 1.372 . S
C1063 C1062 1.372 . S
C1063 C1064 1.400 . S
C1063 C1068 1.490 . S
C1064 H1054 0.930 . S
C1064 C1063 1.400 . S
C1064 C1067 1.386 . S
H1065 C1081 0.930 . S
H1066 C1082 0.931 . S
C1067 H1055 0.929 . S
C1067 C1061 1.390 . S
C1067 C1064 1.386 . S
C1068 C1063 1.490 . S
C1068 C1070 1.395 . S
C1068 C1071 1.403 . S
H1069 C1075 0.930 . S
C1070 H1056 0.930 . S
C1070 C1068 1.395 . S
C1070 C1073 1.403 . S
C1071 C1068 1.403 . S
C1071 C1072 1.524 . S
C1071 C1075 1.400 . S
C1072 H1057 0.960 . S
C1072 H1058 0.960 . S
C1072 H1059 0.960 . S
C1072 C1071 1.524 . S
C1073 C1070 1.403 . S
C1073 C1074 1.392 . S
C1073 C1077 1.495 . S
C1074 C1073 1.392 . S
C1074 C1075 1.385 . S
C1074 C1076 1.478 . S
C1075 H1069 0.930 . S
C1075 C1071 1.400 . S
C1075 C1074 1.385 . S
C1076 C1074 1.478 . S
C1076 C1078 1.381 . S
C1076 C1082 1.383 . S
C1077 C1073 1.495 . S
C1077 H1083 0.959 . S
C1077 H1084 0.961 . S
C1077 H1085 0.960 . S
C1078 C1076 1.381 . S
C1078 C1079 1.394 . S
C1078 H1086 0.930 . S
C1079 C1078 1.394 . S
C1079 C1080 1.383 . S
C1079 H1087 0.929 . S
C1080 C1079 1.383 . S
C1080 C1081 1.377 . S
C1081 H1065 0.930 . S
C1081 C1080 1.377 . S
C1081 C1082 1.379 . S
C1082 H1066 0.931 . S
C1082 C1076 1.383 . S
C1082 C1081 1.379 . S
H1083 C1077 0.959 . S
H1084 C1077 0.961 . S
H1085 C1077 0.960 . S
H1086 C1078 0.930 . S
H1087 C1079 0.929 . S
H1088 C1096 0.929 . S
H1089 C1098 0.930 . S
H1090 C1100 0.930 . S
H1091 C1103 0.929 . S
H1092 C1106 0.930 . S
H1093 C1108 0.960 . S
H1094 C1108 0.960 . S
H1095 C1108 0.960 . S
C1096 H1088 0.929 . S
C1096 C1097 1.377 . S
C1096 C1098 1.384 . S
C1097 C1096 1.377 . S
C1097 C1103 1.390 . S
C1098 H1089 0.930 . S
C1098 C1096 1.384 . S
C1098 C1099 1.372 . S
C1099 C1098 1.372 . S
C1099 C1100 1.400 . S
C1099 C1104 1.490 . S
C1100 H1090 0.930 . S
C1100 C1099 1.400 . S
C1100 C1103 1.386 . S
H1101 C1117 0.930 . S
H1102 C1118 0.931 . S
C1103 H1091 0.929 . S
C1103 C1097 1.390 . S
C1103 C1100 1.386 . S
C1104 C1099 1.490 . S
C1104 C1106 1.395 . S
C1104 C1107 1.403 . S
H1105 C1111 0.930 . S
C1106 H1092 0.930 . S
C1106 C1104 1.395 . S
C1106 C1109 1.403 . S
C1107 C1104 1.403 . S
C1107 C1108 1.524 . S
C1107 C1111 1.400 . S
C1108 H1093 0.960 . S
C1108 H1094 0.960 . S
C1108 H1095 0.960 . S
C1108 C1107 1.524 . S
C1109 C1106 1.403 . S
C1109 C1110 1.392 . S
C1109 C1113 1.495 . S
C1110 C1109 1.392 . S
C1110 C1111 1.385 . S
C1110 C1112 1.478 . S
C1111 H1105 0.930 . S
C1111 C1107 1.400 . S
C1111 C1110 1.385 . S
C1112 C1110 1.478 . S
C1112 C1114 1.381 . S
C1112 C1118 1.383 . S
C1113 C1109 1.495 . S
C1113 H1119 0.959 . S
C1113 H1120 0.961 . S
C1113 H1121 0.960 . S
C1114 C1112 1.381 . S
C1114 C1115 1.394 . S
C1114 H1122 0.930 . S
C1115 C1114 1.394 . S
C1115 C1116 1.383 . S
C1115 H1123 0.929 . S
C1116 C1115 1.383 . S
C1116 C1117 1.377 . S
C1117 H1101 0.930 . S
C1117 C1116 1.377 . S
C1117 C1118 1.379 . S
C1118 H1102 0.931 . S
C1118 C1112 1.383 . S
C1118 C1117 1.379 . S
H1119 C1113 0.959 . S
H1120 C1113 0.961 . S
H1121 C1113 0.960 . S
H1122 C1114 0.930 . S
H1123 C1115 0.929 . S
H1124 C1132 0.929 . S
H1125 C1134 0.930 . S
H1126 C1136 0.930 . S
H1127 C1139 0.929 . S
H1128 C1142 0.930 . S
H1129 C1144 0.960 . S
H1130 C1144 0.960 . S
H1131 C1144 0.960 . S
C1132 H1124 0.929 . S
C1132 C1133 1.377 . S
C1132 C1134 1.384 . S
C1133 C1132 1.377 . S
C1133 C1139 1.390 . S
C1134 H1125 0.930 . S
C1134 C1132 1.384 . S
C1134 C1135 1.372 . S
C1135 C1134 1.372 . S
C1135 C1136 1.400 . S
C1135 C1140 1.490 . S
C1136 H1126 0.930 . S
C1136 C1135 1.400 . S
C1136 C1139 1.386 . S
H1137 C1153 0.930 . S
H1138 C1154 0.931 . S
C1139 H1127 0.929 . S
C1139 C1133 1.390 . S
C1139 C1136 1.386 . S
C1140 C1135 1.490 . S
C1140 C1142 1.395 . S
C1140 C1143 1.403 . S
H1141 C1147 0.930 . S
C1142 H1128 0.930 . S
C1142 C1140 1.395 . S
C1142 C1145 1.403 . S
C1143 C1140 1.403 . S
C1143 C1144 1.524 . S
C1143 C1147 1.400 . S
C1144 H1129 0.960 . S
C1144 H1130 0.960 . S
C1144 H1131 0.960 . S
C1144 C1143 1.524 . S
C1145 C1142 1.403 . S
C1145 C1146 1.392 . S
C1145 C1149 1.495 . S
C1146 C1145 1.392 . S
C1146 C1147 1.385 . S
C1146 C1148 1.478 . S
C1147 H1141 0.930 . S
C1147 C1143 1.400 . S
C1147 C1146 1.385 . S
C1148 C1146 1.478 . S
C1148 C1150 1.381 . S
C1148 C1154 1.383 . S
C1149 C1145 1.495 . S
C1149 H1155 0.959 . S
C1149 H1156 0.961 . S
C1149 H1157 0.960 . S
C1150 C1148 1.381 . S
C1150 C1151 1.394 . S
C1150 H1158 0.930 . S
C1151 C1150 1.394 . S
C1151 C1152 1.383 . S
C1151 H1159 0.929 . S
C1152 C1151 1.383 . S
C1152 C1153 1.377 . S
C1153 H1137 0.930 . S
C1153 C1152 1.377 . S
C1153 C1154 1.379 . S
C1154 H1138 0.931 . S
C1154 C1148 1.383 . S
C1154 C1153 1.379 . S
H1155 C1149 0.959 . S
H1156 C1149 0.961 . S
H1157 C1149 0.960 . S
H1158 C1150 0.930 . S
H1159 C1151 0.929 . S
H1160 C1168 0.929 . S
H1161 C1170 0.930 . S
H1162 C1172 0.930 . S
H1163 C1175 0.929 . S
H1164 C1178 0.930 . S
H1165 C1180 0.960 . S
H1166 C1180 0.960 . S
H1167 C1180 0.960 . S
C1168 H1160 0.929 . S
C1168 C1169 1.377 . S
C1168 C1170 1.384 1_554 S
C1169 C1168 1.377 . S
C1169 C1175 1.390 . S
C1170 H1161 0.930 . S
C1170 C1168 1.384 1_556 S
C1170 C1171 1.372 . S
C1171 C1170 1.372 . S
C1171 C1172 1.400 1_556 S
C1171 C1176 1.490 . S
C1172 H1162 0.930 . S
C1172 C1171 1.400 1_554 S
C1172 C1175 1.386 . S
H1173 C1189 0.930 . S
H1174 C1190 0.931 . S
C1175 H1163 0.929 . S
C1175 C1169 1.390 . S
C1175 C1172 1.386 . S
C1176 C1171 1.490 . S
C1176 C1178 1.395 . S
C1176 C1179 1.403 . S
H1177 C1183 0.930 . S
C1178 H1164 0.930 . S
C1178 C1176 1.395 . S
C1178 C1181 1.403 . S
C1179 C1176 1.403 . S
C1179 C1180 1.524 1_556 S
C1179 C1183 1.400 . S
C1180 H1165 0.960 . S
C1180 H1166 0.960 . S
C1180 H1167 0.960 . S
C1180 C1179 1.524 1_554 S
C1181 C1178 1.403 . S
C1181 C1182 1.392 . S
C1181 C1185 1.495 . S
C1182 C1181 1.392 . S
C1182 C1183 1.385 . S
C1182 C1184 1.478 . S
C1183 H1177 0.930 . S
C1183 C1179 1.400 . S
C1183 C1182 1.385 . S
C1184 C1182 1.478 . S
C1184 C1186 1.381 . S
C1184 C1190 1.383 . S
C1185 C1181 1.495 . S
C1185 H1191 0.959 . S
C1185 H1192 0.961 . S
C1185 H1193 0.960 . S
C1186 C1184 1.381 . S
C1186 C1187 1.394 . S
C1186 H1194 0.930 . S
C1187 C1186 1.394 . S
C1187 C1188 1.383 . S
C1187 H1195 0.929 . S
C1188 C1187 1.383 . S
C1188 C1189 1.377 . S
C1189 H1173 0.930 . S
C1189 C1188 1.377 . S
C1189 C1190 1.379 . S
C1190 H1174 0.931 . S
C1190 C1184 1.383 . S
C1190 C1189 1.379 . S
H1191 C1185 0.959 . S
H1192 C1185 0.961 . S
H1193 C1185 0.960 . S
H1194 C1186 0.930 . S
H1195 C1187 0.929 . S
H1196 C1204 0.929 . S
H1197 C1206 0.930 . S
H1198 C1208 0.930 . S
H1199 C1211 0.929 . S
H1200 C1214 0.930 . S
H1201 C1216 0.960 . S
H1202 C1216 0.960 . S
H1203 C1216 0.960 . S
C1204 H1196 0.929 . S
C1204 C1205 1.377 . S
C1204 C1206 1.384 . S
C1205 C1204 1.377 . S
C1205 C1211 1.390 . S
C1206 H1197 0.930 . S
C1206 C1204 1.384 . S
C1206 C1207 1.372 . S
C1207 C1206 1.372 . S
C1207 C1208 1.400 . S
C1207 C1212 1.490 . S
C1208 H1198 0.930 . S
C1208 C1207 1.400 . S
C1208 C1211 1.386 . S
H1209 C1225 0.930 . S
H1210 C1226 0.931 . S
C1211 H1199 0.929 . S
C1211 C1205 1.390 . S
C1211 C1208 1.386 . S
C1212 C1207 1.490 . S
C1212 C1214 1.395 . S
C1212 C1215 1.403 . S
H1213 C1219 0.930 . S
C1214 H1200 0.930 . S
C1214 C1212 1.395 . S
C1214 C1217 1.403 . S
C1215 C1212 1.403 . S
C1215 C1216 1.524 . S
C1215 C1219 1.400 . S
C1216 H1201 0.960 . S
C1216 H1202 0.960 . S
C1216 H1203 0.960 . S
C1216 C1215 1.524 . S
C1217 C1214 1.403 . S
C1217 C1218 1.392 . S
C1217 C1221 1.495 . S
C1218 C1217 1.392 . S
C1218 C1219 1.385 . S
C1218 C1220 1.478 . S
C1219 H1213 0.930 . S
C1219 C1215 1.400 . S
C1219 C1218 1.385 . S
C1220 C1218 1.478 . S
C1220 C1222 1.381 . S
C1220 C1226 1.383 . S
C1221 C1217 1.495 . S
C1221 H1227 0.959 . S
C1221 H1228 0.961 . S
C1221 H1229 0.960 . S
C1222 C1220 1.381 . S
C1222 C1223 1.394 . S
C1222 H1230 0.930 . S
C1223 C1222 1.394 . S
C1223 C1224 1.383 . S
C1223 H1231 0.929 . S
C1224 C1223 1.383 . S
C1224 C1225 1.377 . S
C1225 H1209 0.930 . S
C1225 C1224 1.377 . S
C1225 C1226 1.379 . S
C1226 H1210 0.931 . S
C1226 C1220 1.383 . S
C1226 C1225 1.379 . S
H1227 C1221 0.959 . S
H1228 C1221 0.961 . S
H1229 C1221 0.960 . S
H1230 C1222 0.930 . S
H1231 C1223 0.929 . S
H1232 C1240 0.929 . S
H1233 C1242 0.930 . S
H1234 C1244 0.930 . S
H1235 C1247 0.929 . S
H1236 C1250 0.930 . S
H1237 C1252 0.960 . S
H1238 C1252 0.960 . S
H1239 C1252 0.960 . S
C1240 H1232 0.929 . S
C1240 C1241 1.377 . S
C1240 C1242 1.384 . S
C1241 C1240 1.377 . S
C1241 C1247 1.390 . S
C1242 H1233 0.930 . S
C1242 C1240 1.384 . S
C1242 C1243 1.372 . S
C1243 C1242 1.372 . S
C1243 C1244 1.400 . S
C1243 C1248 1.490 . S
C1244 H1234 0.930 . S
C1244 C1243 1.400 . S
C1244 C1247 1.386 . S
H1245 C1261 0.930 . S
H1246 C1262 0.931 . S
C1247 H1235 0.929 . S
C1247 C1241 1.390 . S
C1247 C1244 1.386 . S
C1248 C1243 1.490 . S
C1248 C1250 1.395 . S
C1248 C1251 1.403 . S
H1249 C1255 0.930 . S
C1250 H1236 0.930 . S
C1250 C1248 1.395 . S
C1250 C1253 1.403 . S
C1251 C1248 1.403 . S
C1251 C1252 1.524 . S
C1251 C1255 1.400 . S
C1252 H1237 0.960 . S
C1252 H1238 0.960 . S
C1252 H1239 0.960 . S
C1252 C1251 1.524 . S
C1253 C1250 1.403 . S
C1253 C1254 1.392 . S
C1253 C1257 1.495 . S
C1254 C1253 1.392 . S
C1254 C1255 1.385 . S
C1254 C1256 1.478 . S
C1255 H1249 0.930 . S
C1255 C1251 1.400 . S
C1255 C1254 1.385 . S
C1256 C1254 1.478 . S
C1256 C1258 1.381 . S
C1256 C1262 1.383 . S
C1257 C1253 1.495 . S
C1257 H1263 0.959 . S
C1257 H1264 0.961 . S
C1257 H1265 0.960 . S
C1258 C1256 1.381 . S
C1258 C1259 1.394 . S
C1258 H1266 0.930 . S
C1259 C1258 1.394 . S
C1259 C1260 1.383 . S
C1259 H1267 0.929 . S
C1260 C1259 1.383 . S
C1260 C1261 1.377 . S
C1261 H1245 0.930 . S
C1261 C1260 1.377 . S
C1261 C1262 1.379 . S
C1262 H1246 0.931 . S
C1262 C1256 1.383 . S
C1262 C1261 1.379 . S
H1263 C1257 0.959 . S
H1264 C1257 0.961 . S
H1265 C1257 0.960 . S
H1266 C1258 0.930 . S
H1267 C1259 0.929 . S
C413 C7 0.793 . S
C432 C105 0.791 . S
C449 C25 0.933 . S
C468 C145 0.921 . S
C485 C46 0.720 . S
C504 C166 0.802 . S
C540 C225 0.519 . S
C521 C70 0.640 . S
C576 C265 0.708 . S
C557 C28 0.773 . S
C593 C49 0.892 . S
C612 C286 0.824 . S
C629 C67 0.821 . S
C648 C326 0.854 . S
C665 C4 0.669 . S
C684 C385 0.563 . S
C701 C58 1.584 1_556 S
C720 C366 1.662 . S
C756 C246 2.018 . S
C737 C66 1.968 . S
C792 C305 1.946 . S
C773 C3 1.934 . S
C809 C37 1.861 . S
C828 C345 2.003 . S
C864 C126 1.972 . S
C845 C79 1.869 . S
C881 C16 2.094 . S
C900 C185 2.036 . S
C936 C206 1.625 . S
C917 C24 1.575 . S
C972 C86 1.925 . S
C953 C45 1.820 . S
C1008 C339 1.322 . S
C989 C19 1.203 . S
C1044 C379 1.011 . S
C1025 C41 0.989 . S
C1061 C62 1.088 . S
C1080 C259 1.219 . S
C1116 C299 1.464 . S
C1097 C82 1.252 . S
C1152 C179 1.278 . S
C1133 C40 1.143 . S
C1169 C61 0.933 . S
C1188 C219 0.948 . S
C1224 C99 1.265 . S
C1205 C83 1.218 . S
C1260 C139 1.464 . S
C1241 C20 1.280 . S
