# Generated by pormake.
# Topology pth, (4,4)-cn, num edge types: 1
# Building blocks:
#     Node 0, Type 0, BuildingBlock: KUFVIS_clean_sbu_0, # of connection points: 4
#     Node 1, Type 0, BuildingBlock: KUFVIS_clean_sbu_0, # of connection points: 4
#     Node 2, Type 0, BuildingBlock: KUFVIS_clean_sbu_0, # of connection points: 4
#     Node 3, Type 1, BuildingBlock: NAWXER_clean_sbu_0, # of connection points: 4
#     Node 4, Type 1, BuildingBlock: NAWXER_clean_sbu_0, # of connection points: 4
#     Node 5, Type 1, BuildingBlock: NAWXER_clean_sbu_0, # of connection points: 4
#     Edge 6, Type (0, 1), BuildingBlock: CIFDUS_clean_linker_0, # of connection points: 2
#     Edge 7, Type (0, 1), BuildingBlock: CIFDUS_clean_linker_0, # of connection points: 2
#     Edge 8, Type (0, 1), BuildingBlock: CIFDUS_clean_linker_0, # of connection points: 2
#     Edge 9, Type (0, 1), BuildingBlock: CIFDUS_clean_linker_0, # of connection points: 2
#     Edge 10, Type (0, 1), BuildingBlock: CIFDUS_clean_linker_0, # of connection points: 2
#     Edge 11, Type (0, 1), BuildingBlock: CIFDUS_clean_linker_0, # of connection points: 2
#     Edge 12, Type (0, 1), BuildingBlock: CIFDUS_clean_linker_0, # of connection points: 2
#     Edge 13, Type (0, 1), BuildingBlock: CIFDUS_clean_linker_0, # of connection points: 2
#     Edge 14, Type (0, 1), BuildingBlock: CIFDUS_clean_linker_0, # of connection points: 2
#     Edge 15, Type (0, 1), BuildingBlock: CIFDUS_clean_linker_0, # of connection points: 2
#     Edge 16, Type (0, 1), BuildingBlock: CIFDUS_clean_linker_0, # of connection points: 2
#     Edge 17, Type (0, 1), BuildingBlock: CIFDUS_clean_linker_0, # of connection points: 2
# Relax obj value: 0.009
# Max RMSD: 0.080
# Mean RMSD: 0.046
data_MOF--net-pth--node1-KUFVIS_clean_sbu_0--node2-NAWXER_clean_sbu_0--edge1-CIFDUS_clean_linker_0
_symmetry_space_group_name_H-M    P1
_symmetry_Int_Tables_number       1
_symmetry_cell_setting            triclinic
loop_
_symmetry_equiv_pos_as_xyz
'x, y, z'
_cell_length_a     19.397492
_cell_length_b     19.379984
_cell_length_c     50.657389
_cell_angle_alpha  90.448433
_cell_angle_beta   92.092572
_cell_angle_gamma 119.30311
loop_
_atom_site_label
_atom_site_type_symbol
_atom_site_fract_x
_atom_site_fract_y
_atom_site_fract_z
_atom_type_partial_charge
Mn0 Mn 0.08704 0.1096 0.06399 0.0
Mn1 Mn 0.99995 0.20019 0.03159 0.0
C2 C 0.99431 0.04376 0.02936 0.0
C3 C 0.10034 0.03743 0.09861 0.0
C4 C 0.17134 0.24223 0.02618 0.0
O5 O 0.10456 0.20146 0.08928 0.0
O6 O 1.02396 0.23979 0.06869 0.0
C7 C 0.84937 0.13399 0.05912 0.0
N8 N 0.88844 0.14777 0.03629 0.0
C9 C 0.76577 0.08387 0.01028 0.0
C10 C 0.72432 0.071 0.03347 0.0
C11 C 0.76632 0.09558 0.05801 0.0
C12 C 0.84856 0.12244 0.01263 0.0
H13 H 0.88134 0.15115 0.07802 0.0
C14 C 0.06634 0.24003 0.08873 0.0
O15 O 0.16012 0.08683 0.08565 0.0
O16 O 0.03172 0.03046 0.09184 0.0
N17 N 0.97206 0.16507 0.99534 0.0
C18 C 1.02047 0.17656 0.97503 0.0
C19 C 0.98757 0.15241 0.94922 0.0
C20 C 0.90535 0.11736 0.94449 0.0
C21 C 0.8567 0.10645 0.96563 0.0
C22 C 0.89289 0.13225 0.99091 0.0
H23 H 0.08376 0.2042 0.9784 0.0
O24 O 0.0447 0.02061 0.03642 0.0
O25 O 0.99997 0.1035 0.0427 0.0
O26 O 0.16648 0.18387 0.0387 0.0
O27 O 0.11525 0.25896 0.02447 0.0
C28 C 0.77358 0.06955 0.96269 0.0
C29 C 0.72812 0.05791 0.98502 0.0
H30 H 0.66023 0.04098 0.03271 0.0
H31 H 0.73473 0.08454 0.07604 0.0
H32 H 0.02551 0.16091 0.933 0.0
H33 H 0.88015 0.09822 0.92458 0.0
H34 H 0.74394 0.04847 0.94342 0.0
H35 H 0.66418 0.02788 0.98259 0.0
Mn36 Mn 0.06671 0.10169 0.40424 0.0
Mn37 Mn 0.15894 0.27897 0.43675 0.0
C38 C 0.14964 0.12032 0.44088 0.0
C39 C 0.06086 0.01665 0.37026 0.0
C40 C 0.98327 0.16082 0.43978 0.0
O41 O 0.058 0.1779 0.37819 0.0
O42 O 0.13817 0.29506 0.3993 0.0
C43 C 0.31149 0.3584 0.41042 0.0
N44 N 0.27073 0.33273 0.43286 0.0
C45 C 0.39144 0.38953 0.45991 0.0
C46 C 0.43471 0.41721 0.43711 0.0
C47 C 0.39455 0.40121 0.41225 0.0
C48 C 0.30878 0.34723 0.45686 0.0
H49 H 0.28081 0.34623 0.39129 0.0
C50 C 0.0966 0.25376 0.37901 0.0
O51 O 0.99732 1.0076 0.38094 0.0
O52 O 0.12758 0.07635 0.37886 0.0
N53 N 0.18355 0.2716 0.47321 0.0
C54 C 0.13338 0.23521 0.49298 0.0
C55 C 0.1644 0.2413 0.51891 0.0
C56 C 0.24648 0.28539 0.52431 0.0
C57 C 0.29688 0.32291 0.5037 0.0
C58 C 0.26259 0.31473 0.47824 0.0
H59 H 0.07024 0.20148 0.489 0.0
O60 O 0.09668 0.04941 0.43288 0.0
O61 O 0.15314 0.17795 0.42704 0.0
O62 O 0.98329 0.10381 0.4272 0.0
O63 O 0.04421 0.2294 0.44279 0.0
C64 C 0.3799 0.36689 0.50732 0.0
C65 C 0.42713 0.40044 0.48546 0.0
H66 H 0.4988 0.44991 0.43842 0.0
H67 H 0.42756 0.42189 0.39455 0.0
H68 H 0.12512 0.21208 0.53471 0.0
H69 H 0.2702 0.28957 0.54431 0.0
H70 H 0.4081 0.37416 0.52678 0.0
H71 H 0.49094 0.43288 0.48843 0.0
Mn72 Mn 0.09432 0.10264 0.73884 0.0
Mn73 Mn 1.00874 0.19361 0.77016 0.0
C74 C 0.16472 0.19821 0.77204 0.0
C75 C 0.16215 0.08632 0.70428 0.0
C76 C 0.96698 0.02276 0.77822 0.0
O77 O 0.99962 0.08357 0.71388 0.0
O78 O 0.9644 0.1662 0.73347 0.0
C79 C 0.07153 0.34135 0.74015 0.0
N80 N 0.06044 0.30448 0.76363 0.0
C81 C 0.12629 0.42937 0.78773 0.0
C82 C 0.13633 0.46858 0.76384 0.0
C83 C 0.10946 0.42436 0.73993 0.0
C84 C 0.08811 0.34651 0.78669 0.0
H85 H 0.05262 0.30768 0.72174 0.0
C86 C 0.96142 0.12215 0.71399 0.0
O87 O 0.11432 0.02761 0.7181 0.0
O88 O 0.16983 0.15539 0.71011 0.0
N89 N 0.04841 0.2249 0.80598 0.0
C90 C 0.03956 0.1785 0.82709 0.0
C91 C 0.0664 0.21377 0.85241 0.0
C92 C 0.10134 0.29625 0.85584 0.0
C93 C 0.10949 0.34281 0.83389 0.0
C94 C 0.08116 0.30431 0.80915 0.0
H95 H 1.01194 0.11503 0.82473 0.0
O96 O 0.1866 0.14689 0.7657 0.0
O97 O 0.10348 0.19177 0.75888 0.0
O98 O 1.02321 0.02568 0.76546 0.0
O99 O 0.95101 0.07934 0.7792 0.0
C100 C 0.14593 0.42603 0.83552 0.0
C101 C 0.15469 0.46931 0.81243 0.0
H102 H 0.16593 0.53262 0.76359 0.0
H103 H 0.11835 0.45422 0.72137 0.0
H104 H 0.05998 0.17743 0.86926 0.0
H105 H 0.12249 0.32327 0.87537 0.0
H106 H 0.16888 0.45742 0.85435 0.0
H107 H 0.18444 0.53335 0.81385 0.0
C108 C 0.99273 0.66556 0.27005 0.0
C109 C 0.99614 0.48336 0.2022 0.0
O110 O 0.06051 0.68295 0.2616 0.0
Zn111 Zn 0.11509 0.64286 0.23493 0.0
O112 O 0.93158 0.60287 0.26118 0.0
Zn113 Zn 0.98644 0.56953 0.2363 0.0
O114 O 0.05281 0.53606 0.2619 0.0
O115 O 0.18089 0.61818 0.25918 0.0
O116 O 0.93406 0.47703 0.21228 0.0
O117 O 0.06399 0.54158 0.2092 0.0
O118 O 0.15578 0.73052 0.20999 0.0
O119 O 0.02548 0.66201 0.20931 0.0
C120 C 0.1245 0.55722 0.26907 0.0
C121 C 0.08876 0.71922 0.20084 0.0
C122 C 0.70784 0.18919 0.59989 0.0
C123 C 0.51951 0.19605 0.53382 0.0
O124 O 0.64942 0.12139 0.59306 0.0
Zn125 Zn 0.54631 0.07064 0.56768 0.0
O126 O 0.71283 0.25149 0.58984 0.0
Zn127 Zn 0.61805 0.20051 0.56647 0.0
O128 O 0.52805 0.15852 0.59358 0.0
O129 O 0.46071 0.02811 0.59322 0.0
O130 O 0.58329 0.25678 0.54223 0.0
O131 O 0.50219 0.12728 0.54191 0.0
O132 O 0.5724 1.00844 0.54244 0.0
O133 O 0.64721 0.13768 0.53961 0.0
C134 C 0.47212 0.09474 0.6023 0.0
C135 C 0.62836 0.06773 0.53165 0.0
C136 C 0.52797 0.54324 0.94296 0.0
C137 C 0.66935 0.66829 0.86244 0.0
O138 O 0.51127 0.5924 0.93179 0.0
Zn139 Zn 0.538 0.66594 0.89931 0.0
O140 O 0.57924 0.52829 0.93323 0.0
Zn141 Zn 0.60488 0.59998 0.90307 0.0
O142 O 0.65935 0.71213 0.92177 0.0
O143 O 0.58712 0.7715 0.91701 0.0
O144 O 0.68289 0.62023 0.8758 0.0
O145 O 0.61782 0.68632 0.86981 0.0
O146 O 0.43662 0.61283 0.87842 0.0
O147 O 0.49652 0.54077 0.8814 0.0
C148 C 0.64972 0.77183 0.92588 0.0
C149 C 0.43784 0.54885 0.87332 0.0
H150 H 0.94915 0.26889 0.10222 0.0
H151 H 0.17929 0.30816 0.12948 0.0
H152 H 0.17588 0.38438 0.1679 0.0
H153 H 0.10926 0.44429 0.19235 0.0
H154 H 0.87544 0.39627 0.16602 0.0
H155 H 0.87762 0.31665 0.12863 0.0
C156 C 0.99856 0.2934 0.11658 0.0
C157 C 0.0649 0.28346 0.11278 0.0
C158 C 0.99513 0.33502 0.13877 0.0
C159 C 0.1278 0.31523 0.13185 0.0
C160 C 0.12577 0.35874 0.15378 0.0
C161 C 0.05848 0.41575 0.17853 0.0
C162 C 0.99244 0.42667 0.18174 0.0
C163 C 0.06001 0.36962 0.15726 0.0
C164 C 0.92668 0.38856 0.16398 0.0
C165 C 0.92824 0.34358 0.14254 0.0
H166 H 0.87136 0.02656 0.4626 0.0
H167 H 0.93142 0.2664 0.44462 0.0
H168 H 0.81834 0.2525 0.46821 0.0
H169 H 0.71157 0.17845 0.49709 0.0
H170 H 0.65489 0.94292 0.51954 0.0
H171 H 0.75595 0.94768 0.49041 0.0
C172 C 0.85872 0.07516 0.46358 0.0
C173 C 0.90987 0.14767 0.452 0.0
C174 C 0.79448 0.0675 0.47796 0.0
C175 C 0.89343 0.21045 0.45357 0.0
C176 C 0.82871 0.20247 0.467 0.0
C177 C 0.72056 0.12754 0.49553 0.0
C178 C 0.67644 0.06076 0.51075 0.0
C179 C 0.78024 0.13216 0.47977 0.0
C180 C 0.68797 0.99499 0.50803 0.0
C181 C 0.74628 0.99814 0.49157 0.0
H182 H 0.8092 0.91905 0.77528 0.0
H183 H 0.02751 0.9689 0.81644 0.0
H184 H 0.95651 0.8539 0.84405 0.0
H185 H 0.82978 0.74563 0.85902 0.0
H186 H 0.61245 0.6946 0.81673 0.0
H187 H 0.68523 0.80098 0.78649 0.0
C188 C 0.84084 0.9043 0.79028 0.0
C189 C 0.92283 0.95264 0.79428 0.0
C190 C 0.79991 0.83694 0.80557 0.0
C191 C 0.96398 0.9325 0.81331 0.0
C192 C 0.92353 0.86668 0.829 0.0
C193 C 0.799 0.75587 0.84252 0.0
C194 C 0.71606 0.71206 0.83995 0.0
C195 C 0.84122 0.81883 0.82554 0.0
C196 C 0.6765 0.72723 0.8189 0.0
C197 C 0.71792 0.78877 0.80182 0.0
H198 H 0.98672 0.90401 0.12037 0.0
H199 H 0.23882 0.06177 0.12255 0.0
H200 H 0.25896 0.9779 0.15408 0.0
H201 H 0.20488 0.85744 0.18068 0.0
H202 H 0.95227 0.69905 0.17704 0.0
H203 H 0.93309 0.78465 0.14659 0.0
C204 C 0.04594 0.92037 0.12794 0.0
C205 C 0.11095 0.98907 0.11917 0.0
C206 C 0.05736 0.87117 0.14574 0.0
C207 C 0.18754 1.00904 0.12897 0.0
C208 C 0.19925 0.961 0.14698 0.0
C209 C 0.14579 0.84159 0.17312 0.0
C210 C 0.08044 0.77171 0.18127 0.0
C211 C 0.13463 0.8914 0.15538 0.0
C212 C 1.00409 0.75238 0.17126 0.0
C213 C 0.9927 0.80144 0.1538 0.0
H214 H 0.3086 0.20538 0.43797 0.0
H215 H 0.12431 0.05579 0.48914 0.0
H216 H 0.2238 0.07066 0.52328 0.0
H217 H 0.36274 0.12361 0.53795 0.0
H218 H 0.54835 0.27742 0.48788 0.0
H219 H 0.44895 0.26507 0.45387 0.0
C220 C 0.29063 0.17744 0.45684 0.0
C221 C 0.2097 0.13165 0.46156 0.0
C222 C 0.3482 0.1872 0.4764 0.0
C223 C 0.18648 0.09248 0.48544 0.0
C224 C 0.24321 0.10116 0.5049 0.0
C225 C 0.38125 0.15553 0.51973 0.0
C226 C 0.4623 0.20153 0.51529 0.0
C227 C 0.32408 0.14837 0.50057 0.0
C228 C 0.48611 0.24255 0.49174 0.0
C229 C 0.42936 0.23467 0.47225 0.0
H230 H 0.21138 0.21103 0.82389 0.0
H231 H 0.23571 0.34705 0.75463 0.0
H232 H 0.31679 0.47039 0.78025 0.0
H233 H 0.38176 0.53981 0.82268 0.0
H234 H 0.35416 0.40324 0.89208 0.0
H235 H 0.27103 0.28046 0.8666 0.0
C236 C 0.23496 0.26784 0.81454 0.0
C237 C 0.21749 0.27065 0.78765 0.0
C238 C 0.27945 0.33849 0.82957 0.0
C239 C 0.24829 0.34412 0.77548 0.0
C240 C 0.29428 0.41452 0.79011 0.0
C241 C 0.3554 0.48322 0.83225 0.0
C242 C 0.37233 0.48022 0.85922 0.0
C243 C 0.30944 0.41259 0.81728 0.0
C244 C 0.34026 0.40658 0.87137 0.0
C245 C 0.29394 0.3364 0.85675 0.0
H246 H 0.93148 0.23882 0.69928 0.0
H247 H 0.88853 1.00705 0.67447 0.0
H248 H 0.80845 1.00906 0.63606 0.0
H249 H 0.74657 0.07526 0.61092 0.0
H250 H 0.79879 0.3108 0.63486 0.0
H251 H 0.88174 0.3096 0.67221 0.0
C252 C 0.90537 0.18874 0.68546 0.0
C253 C 0.91542 0.12239 0.68995 0.0
C254 C 0.86162 0.19138 0.66327 0.0
C255 C 0.88143 0.05858 0.67156 0.0
C256 C 0.83573 0.05982 0.64964 0.0
C257 C 0.77672 0.12661 0.62421 0.0
C258 C 0.76603 0.19288 0.62033 0.0
C259 C 0.82485 0.12568 0.64548 0.0
C260 C 0.80622 0.25933 0.63742 0.0
C261 C 0.85315 0.25838 0.65884 0.0
H262 H 0.98347 1.00356 0.9772 0.0
H263 H 0.84498 0.96989 0.04528 0.0
H264 H 0.72274 0.88954 0.01863 0.0
H265 H 0.65525 0.82581 0.97585 0.0
H266 H 0.79362 0.86338 0.90749 0.0
H267 H 0.91531 0.94776 0.93381 0.0
C268 C 0.92636 0.97828 0.98605 0.0
C269 C 0.92256 0.99258 0.01295 0.0
C270 C 0.85624 0.93439 0.97039 0.0
C271 C 0.8487 0.95966 0.02445 0.0
C272 C 0.77892 0.91411 0.00923 0.0
C273 C 0.71186 0.85501 0.96664 0.0
C274 C 0.71572 0.84046 0.93974 0.0
C275 C 0.78181 0.90161 0.9821 0.0
C276 C 0.7895 0.87587 0.9281 0.0
C277 C 0.85912 0.92271 0.94322 0.0
H278 H 0.93297 0.877 0.35253 0.0
H279 H 0.18321 0.02787 0.34273 0.0
H280 H 0.18273 0.93236 0.31114 0.0
H281 H 0.11352 0.8066 0.28715 0.0
H282 H 0.86351 0.65231 0.29587 0.0
H283 H 0.86174 0.74886 0.32721 0.0
C284 C 0.98724 0.88909 0.34334 0.0
C285 C 0.05814 0.95963 0.35003 0.0
C286 C 0.98672 0.8333 0.32519 0.0
C287 C 0.12794 0.97424 0.33802 0.0
C288 C 0.12777 0.91955 0.31996 0.0
C289 C 0.05826 0.7934 0.29585 0.0
C290 C 0.9887 0.72178 0.28922 0.0
C291 C 0.05779 0.84885 0.31359 0.0
C292 C 0.91793 0.70671 0.30067 0.0
C293 C 0.91697 0.76199 0.31855 0.0
H294 H 0.2941 0.1984 0.68187 0.0
H295 H 0.1351 0.94665 0.68151 0.0
H296 H 0.2163 0.92519 0.65023 0.0
H297 H 0.33493 0.97842 0.6232 0.0
H298 H 0.49466 0.23092 0.62563 0.0
H299 H 0.41158 0.25084 0.6557 0.0
C300 C 0.27683 0.13894 0.67475 0.0
C301 C 0.20856 0.07446 0.68391 0.0
C302 C 0.32457 0.12679 0.65719 0.0
C303 C 0.18751 0.99755 0.67474 0.0
C304 C 0.23404 0.98511 0.65688 0.0
C305 C 0.35165 0.03759 0.63044 0.0
C306 C 0.42115 0.10271 0.62197 0.0
C307 C 0.30327 0.04929 0.64808 0.0
C308 C 0.44159 0.1792 0.6316 0.0
C309 C 0.39395 0.19108 0.64887 0.0
H310 H 0.25695 0.4024 0.02262 0.0
H311 H 0.24885 0.18554 0.99753 0.0
H312 H 0.36687 0.25979 0.97216 0.0
H313 H 0.46639 0.38662 0.95409 0.0
H314 H 0.47608 0.60325 0.98059 0.0
H315 H 0.36591 0.52969 0.00896 0.0
C316 C 0.28137 0.37172 0.01163 0.0
C317 C 0.2439 0.28885 0.0116 0.0
C318 C 0.35039 0.41491 0.99759 0.0
C319 C 0.27674 0.24955 0.99772 0.0
C320 C 0.34429 0.29192 0.98325 0.0
C321 C 0.44608 0.4177 0.96679 0.0
C322 C 0.47926 0.50014 0.96524 0.0
C323 C 0.38127 0.37471 0.98277 0.0
C324 C 0.45141 0.53966 0.98147 0.0
C325 C 0.38783 0.49762 0.9975 0.0
H326 H 0.2043 0.40391 0.36648 0.0
H327 H 0.98454 0.2021 0.33831 0.0
H328 H 0.97725 0.27762 0.30092 0.0
H329 H 0.02912 0.40262 0.2778 0.0
H330 H 0.25022 0.60388 0.30494 0.0
H331 H 0.26192 0.52617 0.34113 0.0
C332 C 0.15483 0.37623 0.35214 0.0
C333 C 0.0944 0.29759 0.35541 0.0
C334 C 0.15146 0.41977 0.33056 0.0
C335 C 0.03159 0.26242 0.33635 0.0
C336 C 0.02736 0.30564 0.315 0.0
C337 C 0.08024 0.42947 0.29155 0.0
C338 C 0.13836 0.50922 0.28893 0.0
C339 C 0.08634 0.38458 0.31214 0.0
C340 C 0.20482 0.54268 0.30656 0.0
C341 C 0.21116 0.49839 0.32731 0.0
loop_
_geom_bond_atom_site_label_1
_geom_bond_atom_site_label_2
_geom_bond_distance
_geom_bond_site_symmetry_2
_ccdc_geom_bond_type
Mn0 O5 2.095 . S
Mn0 O15 2.162 . S
Mn0 O16 2.297 . S
Mn0 O24 2.385 . S
Mn0 O25 2.209 1_455 S
Mn0 O26 2.094 . S
Mn1 O6 2.121 . S
Mn1 N8 2.257 1_455 S
Mn1 N17 2.282 1_454 S
Mn1 O25 2.215 1_455 S
Mn1 O27 2.117 . S
C2 O24 1.234 1_655 S
C2 O25 1.283 . S
C3 O15 1.281 . S
C3 O16 1.236 . S
C4 O26 1.240 . S
C4 O27 1.264 . S
O5 Mn0 2.095 . S
O5 C14 1.250 . S
O6 Mn1 2.121 . S
O6 C14 1.258 . S
C7 N8 1.326 . S
C7 C11 1.460 . S
C7 H13 0.929 . S
N8 Mn1 2.257 1_655 S
N8 C7 1.326 . S
N8 C12 1.362 . S
C9 C10 1.258 1_556 S
C9 C12 1.431 1_556 S
C9 C29 1.449 . S
C10 C9 1.258 1_554 S
C10 C11 1.477 . S
C10 H30 0.931 . S
C11 C7 1.460 . S
C11 C10 1.477 . S
C11 H31 0.930 . S
C12 N8 1.362 . S
C12 C9 1.431 1_554 S
C12 C22 1.476 1_554 S
H13 C7 0.929 . S
C14 O5 1.250 . S
C14 O6 1.258 . S
O15 Mn0 2.162 . S
O15 C3 1.281 . S
O16 Mn0 2.297 . S
O16 C3 1.236 . S
N17 Mn1 2.282 1_656 S
N17 C18 1.328 1_655 S
N17 C22 1.318 . S
C18 N17 1.328 1_455 S
C18 C19 1.457 1_455 S
C18 H23 0.929 . S
C19 C18 1.457 1_655 S
C19 C20 1.291 . S
C19 H32 0.931 . S
C20 C19 1.291 . S
C20 C21 1.373 . S
C20 H33 0.929 . S
C21 C20 1.373 . S
C21 C22 1.396 . S
C21 C28 1.403 . S
C22 C12 1.476 1_556 S
C22 N17 1.318 . S
C22 C21 1.396 . S
H23 C18 0.929 . S
O24 Mn0 2.385 . S
O24 C2 1.234 1_455 S
O25 Mn0 2.209 1_655 S
O25 Mn1 2.215 1_655 S
O25 C2 1.283 . S
O26 Mn0 2.094 . S
O26 C4 1.240 . S
O27 Mn1 2.117 . S
O27 C4 1.264 . S
C28 C21 1.403 . S
C28 C29 1.399 . S
C28 H34 0.929 . S
C29 C9 1.449 . S
C29 C28 1.399 . S
C29 H35 0.930 . S
H30 C10 0.931 . S
H31 C11 0.930 . S
H32 C19 0.931 . S
H33 C20 0.929 . S
H34 C28 0.929 . S
H35 C29 0.930 . S
Mn36 O41 2.095 1_455 S
Mn36 O51 2.162 1_445 S
Mn36 O52 2.297 . S
Mn36 O60 2.385 . S
Mn36 O61 2.209 . S
Mn36 O62 2.094 1_455 S
Mn37 O42 2.121 . S
Mn37 N44 2.257 . S
Mn37 N53 2.282 . S
Mn37 O61 2.215 . S
Mn37 O63 2.117 1_455 S
C38 O60 1.234 . S
C38 O61 1.283 . S
C39 O51 1.281 1_455 S
C39 O52 1.236 1_565 S
C40 O62 1.240 . S
C40 O63 1.264 . S
O41 Mn36 2.095 1_655 S
O41 C50 1.250 1_655 S
O42 Mn37 2.121 . S
O42 C50 1.258 . S
C43 N44 1.326 . S
C43 C47 1.460 . S
C43 H49 0.929 . S
N44 Mn37 2.257 . S
N44 C43 1.326 . S
N44 C48 1.362 . S
C45 C46 1.258 . S
C45 C48 1.431 . S
C45 C65 1.449 . S
C46 C45 1.258 . S
C46 C47 1.477 . S
C46 H66 0.931 . S
C47 C43 1.460 . S
C47 C46 1.477 . S
C47 H67 0.930 . S
C48 N44 1.362 . S
C48 C45 1.431 . S
C48 C58 1.476 . S
H49 C43 0.929 . S
C50 O41 1.250 1_455 S
C50 O42 1.258 . S
O51 Mn36 2.162 1_665 S
O51 C39 1.281 1_655 S
O52 Mn36 2.297 . S
O52 C39 1.236 1_545 S
N53 Mn37 2.282 . S
N53 C54 1.328 . S
N53 C58 1.318 . S
C54 N53 1.328 . S
C54 C55 1.457 . S
C54 H59 0.929 . S
C55 C54 1.457 . S
C55 C56 1.291 . S
C55 H68 0.931 . S
C56 C55 1.291 . S
C56 C57 1.373 . S
C56 H69 0.929 . S
C57 C56 1.373 . S
C57 C58 1.396 . S
C57 C64 1.403 . S
C58 C48 1.476 . S
C58 N53 1.318 . S
C58 C57 1.396 . S
H59 C54 0.929 . S
O60 Mn36 2.385 . S
O60 C38 1.234 . S
O61 Mn36 2.209 . S
O61 Mn37 2.215 . S
O61 C38 1.283 . S
O62 Mn36 2.094 1_655 S
O62 C40 1.240 . S
O63 Mn37 2.117 1_655 S
O63 C40 1.264 . S
C64 C57 1.403 . S
C64 C65 1.399 . S
C64 H70 0.929 . S
C65 C45 1.449 . S
C65 C64 1.399 . S
C65 H71 0.930 . S
H66 C46 0.931 . S
H67 C47 0.930 . S
H68 C55 0.931 . S
H69 C56 0.929 . S
H70 C64 0.929 . S
H71 C65 0.930 . S
Mn72 O77 2.095 1_455 S
Mn72 O87 2.162 . S
Mn72 O88 2.297 . S
Mn72 O96 2.385 . S
Mn72 O97 2.209 . S
Mn72 O98 2.094 1_445 S
Mn73 O78 2.121 . S
Mn73 N80 2.257 1_655 S
Mn73 N89 2.282 1_655 S
Mn73 O97 2.215 1_655 S
Mn73 O99 2.117 . S
C74 O96 1.234 . S
C74 O97 1.283 . S
C75 O87 1.281 . S
C75 O88 1.236 . S
C76 O98 1.248 . S
C76 O99 1.246 1_565 S
O77 Mn72 2.095 1_655 S
O77 C86 1.250 . S
O78 Mn73 2.121 . S
O78 C86 1.258 . S
C79 N80 1.326 1_655 S
C79 C83 1.460 1_655 S
C79 H85 0.929 . S
N80 Mn73 2.257 1_455 S
N80 C79 1.326 1_455 S
N80 C84 1.362 . S
C81 C82 1.258 . S
C81 C84 1.431 . S
C81 C101 1.449 . S
C82 C81 1.258 . S
C82 C83 1.477 . S
C82 H102 0.931 . S
C83 C79 1.460 1_455 S
C83 C82 1.477 . S
C83 H103 0.930 . S
C84 N80 1.362 . S
C84 C81 1.431 . S
C84 C94 1.476 . S
H85 C79 0.929 . S
C86 O77 1.250 . S
C86 O78 1.258 . S
O87 Mn72 2.162 . S
O87 C75 1.281 . S
O88 Mn72 2.297 . S
O88 C75 1.236 . S
N89 Mn73 2.282 1_455 S
N89 C90 1.328 . S
N89 C94 1.318 . S
C90 N89 1.328 . S
C90 C91 1.457 . S
C90 H95 0.929 . S
C91 C90 1.457 . S
C91 C92 1.291 . S
C91 H104 0.931 . S
C92 C91 1.291 . S
C92 C93 1.373 . S
C92 H105 0.929 . S
C93 C92 1.373 . S
C93 C94 1.396 . S
C93 C100 1.403 . S
C94 C84 1.476 . S
C94 N89 1.318 . S
C94 C93 1.396 . S
H95 C90 0.929 . S
O96 Mn72 2.385 . S
O96 C74 1.234 . S
O97 Mn72 2.209 . S
O97 Mn73 2.215 1_455 S
O97 C74 1.283 . S
O98 Mn72 2.094 1_665 S
O98 C76 1.248 . S
O99 Mn73 2.117 . S
O99 C76 1.246 1_545 S
C100 C93 1.403 . S
C100 C101 1.399 . S
C100 H106 0.929 . S
C101 C81 1.449 . S
C101 C100 1.399 . S
C101 H107 0.930 . S
H102 C82 0.931 . S
H103 C83 0.930 . S
H104 C91 0.931 . S
H105 C92 0.929 . S
H106 C100 0.929 . S
H107 C101 0.930 . S
C108 O110 1.247 . S
C108 O112 1.258 1_455 S
C109 O116 1.247 1_455 S
C109 O117 1.258 . S
O110 C108 1.247 . S
O110 Zn111 2.028 . S
Zn111 O110 2.028 . S
Zn111 O115 2.035 . S
Zn111 O117 2.035 . S
Zn111 O118 2.028 . S
O112 C108 1.258 1_655 S
O112 Zn113 2.035 . S
Zn113 O112 2.035 . S
Zn113 O114 2.028 . S
Zn113 O116 2.028 . S
Zn113 O119 2.035 . S
O114 Zn113 2.028 . S
O114 C120 1.247 1_655 S
O115 Zn111 2.035 . S
O115 C120 1.258 . S
O116 C109 1.247 1_655 S
O116 Zn113 2.028 . S
O117 C109 1.258 . S
O117 Zn111 2.035 . S
O118 Zn111 2.028 . S
O118 C121 1.247 . S
O119 Zn113 2.035 . S
O119 C121 1.258 1_655 S
C120 O114 1.247 1_455 S
C120 O115 1.258 . S
C121 O118 1.247 . S
C121 O119 1.258 1_455 S
C122 O124 1.247 . S
C122 O126 1.258 . S
C123 O130 1.247 . S
C123 O131 1.258 . S
O124 C122 1.247 . S
O124 Zn125 2.028 . S
Zn125 O124 2.028 . S
Zn125 O129 2.035 . S
Zn125 O131 2.035 . S
Zn125 O132 2.028 . S
O126 C122 1.258 . S
O126 Zn127 2.035 . S
Zn127 O126 2.035 . S
Zn127 O128 2.028 . S
Zn127 O130 2.028 . S
Zn127 O133 2.035 . S
O128 Zn127 2.028 . S
O128 C134 1.247 . S
O129 Zn125 2.035 . S
O129 C134 1.258 . S
O130 C123 1.247 . S
O130 Zn127 2.028 . S
O131 C123 1.258 . S
O131 Zn125 2.035 . S
O132 Zn125 2.028 . S
O132 C135 1.247 . S
O133 Zn127 2.035 . S
O133 C135 1.258 . S
C134 O128 1.247 . S
C134 O129 1.258 . S
C135 O132 1.247 . S
C135 O133 1.258 . S
C136 O138 1.247 . S
C136 O140 1.258 . S
C137 O144 1.247 . S
C137 O145 1.258 . S
O138 C136 1.247 . S
O138 Zn139 2.028 . S
Zn139 O138 2.028 . S
Zn139 O143 2.035 . S
Zn139 O145 2.035 . S
Zn139 O146 2.028 . S
O140 C136 1.258 . S
O140 Zn141 2.035 . S
Zn141 O140 2.035 . S
Zn141 O142 2.028 . S
Zn141 O144 2.028 . S
Zn141 O147 2.035 . S
O142 Zn141 2.028 . S
O142 C148 1.247 . S
O143 Zn139 2.035 . S
O143 C148 1.258 . S
O144 C137 1.247 . S
O144 Zn141 2.028 . S
O145 C137 1.258 . S
O145 Zn139 2.035 . S
O146 Zn139 2.028 . S
O146 C149 1.247 . S
O147 Zn141 2.035 . S
O147 C149 1.258 . S
C148 O142 1.247 . S
C148 O143 1.258 . S
C149 O146 1.247 . S
C149 O147 1.258 . S
H150 C156 0.930 . S
H151 C159 0.930 . S
H152 C160 0.930 . S
H153 C161 0.930 . S
H154 C164 0.930 . S
H155 C165 0.930 . S
C156 H150 0.930 . S
C156 C157 1.355 . S
C156 C158 1.415 . S
C157 C156 1.355 . S
C157 C159 1.419 . S
C158 C156 1.415 . S
C158 C163 1.425 . S
C158 C165 1.409 . S
C159 H151 0.930 . S
C159 C157 1.419 . S
C159 C160 1.362 . S
C160 H152 0.930 . S
C160 C159 1.362 . S
C160 C163 1.409 . S
C161 H153 0.930 . S
C161 C162 1.355 . S
C161 C163 1.415 . S
C162 C161 1.355 . S
C162 C164 1.419 . S
C163 C158 1.425 . S
C163 C160 1.409 . S
C163 C161 1.415 . S
C164 H154 0.930 . S
C164 C162 1.419 . S
C164 C165 1.362 . S
C165 H155 0.930 . S
C165 C158 1.409 . S
C165 C164 1.362 . S
H166 C172 0.930 . S
H167 C175 0.930 . S
H168 C176 0.930 . S
H169 C177 0.930 . S
H170 C180 0.930 . S
H171 C181 0.930 1_565 S
C172 H166 0.930 . S
C172 C173 1.355 . S
C172 C174 1.415 . S
C173 C172 1.355 . S
C173 C175 1.419 . S
C174 C172 1.415 . S
C174 C179 1.425 . S
C174 C181 1.409 . S
C175 H167 0.930 . S
C175 C173 1.419 . S
C175 C176 1.362 . S
C176 H168 0.930 . S
C176 C175 1.362 . S
C176 C179 1.409 . S
C177 H169 0.930 . S
C177 C178 1.355 . S
C177 C179 1.415 . S
C178 C177 1.355 . S
C178 C180 1.419 . S
C179 C174 1.425 . S
C179 C176 1.409 . S
C179 C177 1.415 . S
C180 H170 0.930 . S
C180 C178 1.419 . S
C180 C181 1.362 . S
C181 H171 0.930 1_545 S
C181 C174 1.409 . S
C181 C180 1.362 . S
H182 C188 0.930 . S
H183 C191 0.930 . S
H184 C192 0.930 . S
H185 C193 0.930 . S
H186 C196 0.930 . S
H187 C197 0.930 . S
C188 H182 0.930 . S
C188 C189 1.355 . S
C188 C190 1.415 . S
C189 C188 1.355 . S
C189 C191 1.419 . S
C190 C188 1.415 . S
C190 C195 1.425 . S
C190 C197 1.409 . S
C191 H183 0.930 . S
C191 C189 1.419 . S
C191 C192 1.362 . S
C192 H184 0.930 . S
C192 C191 1.362 . S
C192 C195 1.409 . S
C193 H185 0.930 . S
C193 C194 1.355 . S
C193 C195 1.415 . S
C194 C193 1.355 . S
C194 C196 1.419 . S
C195 C190 1.425 . S
C195 C192 1.409 . S
C195 C193 1.415 . S
C196 H186 0.930 . S
C196 C194 1.419 . S
C196 C197 1.362 . S
C197 H187 0.930 . S
C197 C190 1.409 . S
C197 C196 1.362 . S
H198 C204 0.930 . S
H199 C207 0.930 . S
H200 C208 0.930 . S
H201 C209 0.930 . S
H202 C212 0.930 . S
H203 C213 0.930 . S
C204 H198 0.930 . S
C204 C205 1.355 . S
C204 C206 1.415 . S
C205 C204 1.355 . S
C205 C207 1.419 . S
C206 C204 1.415 . S
C206 C211 1.425 . S
C206 C213 1.409 . S
C207 H199 0.930 . S
C207 C205 1.419 . S
C207 C208 1.362 . S
C208 H200 0.930 . S
C208 C207 1.362 . S
C208 C211 1.409 . S
C209 H201 0.930 . S
C209 C210 1.355 . S
C209 C211 1.415 . S
C210 C209 1.355 . S
C210 C212 1.419 . S
C211 C206 1.425 . S
C211 C208 1.409 . S
C211 C209 1.415 . S
C212 H202 0.930 . S
C212 C210 1.419 . S
C212 C213 1.362 . S
C213 H203 0.930 . S
C213 C206 1.409 . S
C213 C212 1.362 . S
H214 C220 0.930 . S
H215 C223 0.930 . S
H216 C224 0.930 . S
H217 C225 0.930 . S
H218 C228 0.930 . S
H219 C229 0.930 . S
C220 H214 0.930 . S
C220 C221 1.355 . S
C220 C222 1.415 . S
C221 C220 1.355 . S
C221 C223 1.419 . S
C222 C220 1.415 . S
C222 C227 1.425 . S
C222 C229 1.409 . S
C223 H215 0.930 . S
C223 C221 1.419 . S
C223 C224 1.362 . S
C224 H216 0.930 . S
C224 C223 1.362 . S
C224 C227 1.409 . S
C225 H217 0.930 . S
C225 C226 1.355 . S
C225 C227 1.415 . S
C226 C225 1.355 . S
C226 C228 1.419 . S
C227 C222 1.425 . S
C227 C224 1.409 . S
C227 C225 1.415 . S
C228 H218 0.930 . S
C228 C226 1.419 . S
C228 C229 1.362 . S
C229 H219 0.930 . S
C229 C222 1.409 . S
C229 C228 1.362 . S
H230 C236 0.930 . S
H231 C239 0.930 . S
H232 C240 0.930 . S
H233 C241 0.930 . S
H234 C244 0.930 . S
H235 C245 0.930 . S
C236 H230 0.930 . S
C236 C237 1.355 . S
C236 C238 1.415 . S
C237 C236 1.355 . S
C237 C239 1.419 . S
C238 C236 1.415 . S
C238 C243 1.425 . S
C238 C245 1.409 . S
C239 H231 0.930 . S
C239 C237 1.419 . S
C239 C240 1.362 . S
C240 H232 0.930 . S
C240 C239 1.362 . S
C240 C243 1.409 . S
C241 H233 0.930 . S
C241 C242 1.355 . S
C241 C243 1.415 . S
C242 C241 1.355 . S
C242 C244 1.419 . S
C243 C238 1.425 . S
C243 C240 1.409 . S
C243 C241 1.415 . S
C244 H234 0.930 . S
C244 C242 1.419 . S
C244 C245 1.362 . S
C245 H235 0.930 . S
C245 C238 1.409 . S
C245 C244 1.362 . S
H246 C252 0.930 . S
H247 C255 0.930 . S
H248 C256 0.930 . S
H249 C257 0.930 . S
H250 C260 0.930 . S
H251 C261 0.930 . S
C252 H246 0.930 . S
C252 C253 1.355 . S
C252 C254 1.415 . S
C253 C252 1.355 . S
C253 C255 1.419 . S
C254 C252 1.415 . S
C254 C259 1.425 . S
C254 C261 1.409 . S
C255 H247 0.930 . S
C255 C253 1.419 . S
C255 C256 1.362 . S
C256 H248 0.930 . S
C256 C255 1.362 . S
C256 C259 1.409 . S
C257 H249 0.930 . S
C257 C258 1.355 . S
C257 C259 1.415 . S
C258 C257 1.355 . S
C258 C260 1.419 . S
C259 C254 1.425 . S
C259 C256 1.409 . S
C259 C257 1.415 . S
C260 H250 0.930 . S
C260 C258 1.419 . S
C260 C261 1.362 . S
C261 H251 0.930 . S
C261 C254 1.409 . S
C261 C260 1.362 . S
H262 C268 0.930 . S
H263 C271 0.930 . S
H264 C272 0.930 . S
H265 C273 0.930 . S
H266 C276 0.930 . S
H267 C277 0.930 . S
C268 H262 0.930 . S
C268 C269 1.355 1_556 S
C268 C270 1.415 . S
C269 C268 1.355 1_554 S
C269 C271 1.419 . S
C270 C268 1.415 . S
C270 C275 1.425 . S
C270 C277 1.409 . S
C271 H263 0.930 . S
C271 C269 1.419 . S
C271 C272 1.362 . S
C272 H264 0.930 . S
C272 C271 1.362 . S
C272 C275 1.409 1_554 S
C273 H265 0.930 . S
C273 C274 1.355 . S
C273 C275 1.415 . S
C274 C273 1.355 . S
C274 C276 1.419 . S
C275 C270 1.425 . S
C275 C272 1.409 1_556 S
C275 C273 1.415 . S
C276 H266 0.930 . S
C276 C274 1.419 . S
C276 C277 1.362 . S
C277 H267 0.930 . S
C277 C270 1.409 . S
C277 C276 1.362 . S
H278 C284 0.930 . S
H279 C287 0.930 1_545 S
H280 C288 0.930 . S
H281 C289 0.930 . S
H282 C292 0.930 . S
H283 C293 0.930 1_655 S
C284 H278 0.930 . S
C284 C285 1.355 . S
C284 C286 1.415 . S
C285 C284 1.355 . S
C285 C287 1.419 . S
C286 C284 1.415 . S
C286 C291 1.425 . S
C286 C293 1.409 . S
C287 H279 0.930 1_565 S
C287 C285 1.419 . S
C287 C288 1.362 . S
C288 H280 0.930 . S
C288 C287 1.362 . S
C288 C291 1.409 . S
C289 H281 0.930 . S
C289 C290 1.355 . S
C289 C291 1.415 . S
C290 C289 1.355 . S
C290 C292 1.419 . S
C291 C286 1.425 . S
C291 C288 1.409 . S
C291 C289 1.415 . S
C292 H282 0.930 . S
C292 C290 1.419 . S
C292 C293 1.362 . S
C293 H283 0.930 1_455 S
C293 C286 1.409 . S
C293 C292 1.362 . S
H294 C300 0.930 . S
H295 C303 0.930 . S
H296 C304 0.930 . S
H297 C305 0.930 . S
H298 C308 0.930 . S
H299 C309 0.930 . S
C300 H294 0.930 . S
C300 C301 1.355 . S
C300 C302 1.415 . S
C301 C300 1.355 . S
C301 C303 1.419 . S
C302 C300 1.415 . S
C302 C307 1.425 . S
C302 C309 1.409 . S
C303 H295 0.930 . S
C303 C301 1.419 . S
C303 C304 1.362 . S
C304 H296 0.930 . S
C304 C303 1.362 . S
C304 C307 1.409 . S
C305 H297 0.930 . S
C305 C306 1.355 . S
C305 C307 1.415 . S
C306 C305 1.355 . S
C306 C308 1.419 . S
C307 C302 1.425 . S
C307 C304 1.409 . S
C307 C305 1.415 . S
C308 H298 0.930 . S
C308 C306 1.419 . S
C308 C309 1.362 . S
C309 H299 0.930 . S
C309 C302 1.409 . S
C309 C308 1.362 . S
H310 C316 0.930 . S
H311 C319 0.930 . S
H312 C320 0.930 . S
H313 C321 0.930 . S
H314 C324 0.930 . S
H315 C325 0.930 1_554 S
C316 H310 0.930 . S
C316 C317 1.355 . S
C316 C318 1.415 1_554 S
C317 C316 1.355 . S
C317 C319 1.419 1_554 S
C318 C316 1.415 1_556 S
C318 C323 1.425 . S
C318 C325 1.409 . S
C319 H311 0.930 . S
C319 C317 1.419 1_556 S
C319 C320 1.362 . S
C320 H312 0.930 . S
C320 C319 1.362 . S
C320 C323 1.409 . S
C321 H313 0.930 . S
C321 C322 1.355 . S
C321 C323 1.415 . S
C322 C321 1.355 . S
C322 C324 1.419 . S
C323 C318 1.425 . S
C323 C320 1.409 . S
C323 C321 1.415 . S
C324 H314 0.930 . S
C324 C322 1.419 . S
C324 C325 1.362 . S
C325 H315 0.930 1_556 S
C325 C318 1.409 . S
C325 C324 1.362 . S
H326 C332 0.930 1_655 S
H327 C335 0.930 . S
H328 C336 0.930 . S
H329 C337 0.930 . S
H330 C340 0.930 1_655 S
H331 C341 0.930 . S
C332 H326 0.930 1_455 S
C332 C333 1.355 . S
C332 C334 1.415 . S
C333 C332 1.355 . S
C333 C335 1.419 . S
C334 C332 1.415 . S
C334 C339 1.425 . S
C334 C341 1.409 1_455 S
C335 H327 0.930 . S
C335 C333 1.419 . S
C335 C336 1.362 . S
C336 H328 0.930 . S
C336 C335 1.362 . S
C336 C339 1.409 . S
C337 H329 0.930 . S
C337 C338 1.355 . S
C337 C339 1.415 . S
C338 C337 1.355 . S
C338 C340 1.419 . S
C339 C334 1.425 . S
C339 C336 1.409 . S
C339 C337 1.415 . S
C340 H330 0.930 1_455 S
C340 C338 1.419 . S
C340 C341 1.362 1_455 S
C341 H331 0.930 . S
C341 C334 1.409 1_655 S
C341 C340 1.362 1_655 S
C162 C109 1.476 . S
C157 C14 1.403 . S
C173 C40 1.454 . S
C178 C135 1.475 . S
C189 C76 1.448 . S
C194 C137 1.456 . S
C205 C3 1.447 1_565 S
C210 C121 1.446 . S
C226 C123 1.471 . S
C221 C38 1.456 . S
C237 C74 1.462 . S
C242 C149 1.459 . S
C258 C122 1.443 . S
C253 C86 1.370 . S
C269 C2 1.460 1_565 S
C274 C148 1.464 . S
C290 C108 1.435 . S
C285 C39 1.433 . S
C306 C134 1.458 . S
C301 C75 1.458 . S
C322 C136 1.456 . S
C317 C4 1.436 . S
C333 C50 1.464 . S
C338 C120 1.464 . S
