# Generated by pormake.
# Topology gar, (4,6)-cn, num edge types: 1
# Building blocks:
#     Node 0, Type 0, BuildingBlock: KUFVIS_clean_sbu_0, # of connection points: 4
#     Node 1, Type 0, BuildingBlock: KUFVIS_clean_sbu_0, # of connection points: 4
#     Node 2, Type 0, BuildingBlock: KUFVIS_clean_sbu_0, # of connection points: 4
#     Node 3, Type 0, BuildingBlock: KUFVIS_clean_sbu_0, # of connection points: 4
#     Node 4, Type 0, BuildingBlock: KUFVIS_clean_sbu_0, # of connection points: 4
#     Node 5, Type 0, BuildingBlock: KUFVIS_clean_sbu_0, # of connection points: 4
#     Node 6, Type 0, BuildingBlock: KUFVIS_clean_sbu_0, # of connection points: 4
#     Node 7, Type 0, BuildingBlock: KUFVIS_clean_sbu_0, # of connection points: 4
#     Node 8, Type 0, BuildingBlock: KUFVIS_clean_sbu_0, # of connection points: 4
#     Node 9, Type 0, BuildingBlock: KUFVIS_clean_sbu_0, # of connection points: 4
#     Node 10, Type 0, BuildingBlock: KUFVIS_clean_sbu_0, # of connection points: 4
#     Node 11, Type 0, BuildingBlock: KUFVIS_clean_sbu_0, # of connection points: 4
#     Node 12, Type 0, BuildingBlock: KUFVIS_clean_sbu_0, # of connection points: 4
#     Node 13, Type 0, BuildingBlock: KUFVIS_clean_sbu_0, # of connection points: 4
#     Node 14, Type 0, BuildingBlock: KUFVIS_clean_sbu_0, # of connection points: 4
#     Node 15, Type 0, BuildingBlock: KUFVIS_clean_sbu_0, # of connection points: 4
#     Node 16, Type 0, BuildingBlock: KUFVIS_clean_sbu_0, # of connection points: 4
#     Node 17, Type 0, BuildingBlock: KUFVIS_clean_sbu_0, # of connection points: 4
#     Node 18, Type 0, BuildingBlock: KUFVIS_clean_sbu_0, # of connection points: 4
#     Node 19, Type 0, BuildingBlock: KUFVIS_clean_sbu_0, # of connection points: 4
#     Node 20, Type 0, BuildingBlock: KUFVIS_clean_sbu_0, # of connection points: 4
#     Node 21, Type 0, BuildingBlock: KUFVIS_clean_sbu_0, # of connection points: 4
#     Node 22, Type 0, BuildingBlock: KUFVIS_clean_sbu_0, # of connection points: 4
#     Node 23, Type 0, BuildingBlock: KUFVIS_clean_sbu_0, # of connection points: 4
#     Node 24, Type 1, BuildingBlock: CUKXOW_clean_sbu_0, # of connection points: 6
#     Node 25, Type 1, BuildingBlock: CUKXOW_clean_sbu_0, # of connection points: 6
#     Node 26, Type 1, BuildingBlock: CUKXOW_clean_sbu_0, # of connection points: 6
#     Node 27, Type 1, BuildingBlock: CUKXOW_clean_sbu_0, # of connection points: 6
#     Node 28, Type 1, BuildingBlock: CUKXOW_clean_sbu_0, # of connection points: 6
#     Node 29, Type 1, BuildingBlock: CUKXOW_clean_sbu_0, # of connection points: 6
#     Node 30, Type 1, BuildingBlock: CUKXOW_clean_sbu_0, # of connection points: 6
#     Node 31, Type 1, BuildingBlock: CUKXOW_clean_sbu_0, # of connection points: 6
#     Node 32, Type 1, BuildingBlock: CUKXOW_clean_sbu_0, # of connection points: 6
#     Node 33, Type 1, BuildingBlock: CUKXOW_clean_sbu_0, # of connection points: 6
#     Node 34, Type 1, BuildingBlock: CUKXOW_clean_sbu_0, # of connection points: 6
#     Node 35, Type 1, BuildingBlock: CUKXOW_clean_sbu_0, # of connection points: 6
#     Node 36, Type 1, BuildingBlock: CUKXOW_clean_sbu_0, # of connection points: 6
#     Node 37, Type 1, BuildingBlock: CUKXOW_clean_sbu_0, # of connection points: 6
#     Node 38, Type 1, BuildingBlock: CUKXOW_clean_sbu_0, # of connection points: 6
#     Node 39, Type 1, BuildingBlock: CUKXOW_clean_sbu_0, # of connection points: 6
#     Edge 40, Type (0, 1), BuildingBlock: AJUNOK_clean_linker_0, # of connection points: 2
#     Edge 41, Type (0, 1), BuildingBlock: AJUNOK_clean_linker_0, # of connection points: 2
#     Edge 42, Type (0, 1), BuildingBlock: AJUNOK_clean_linker_0, # of connection points: 2
#     Edge 43, Type (0, 1), BuildingBlock: AJUNOK_clean_linker_0, # of connection points: 2
#     Edge 44, Type (0, 1), BuildingBlock: AJUNOK_clean_linker_0, # of connection points: 2
#     Edge 45, Type (0, 1), BuildingBlock: AJUNOK_clean_linker_0, # of connection points: 2
#     Edge 46, Type (0, 1), BuildingBlock: AJUNOK_clean_linker_0, # of connection points: 2
#     Edge 47, Type (0, 1), BuildingBlock: AJUNOK_clean_linker_0, # of connection points: 2
#     Edge 48, Type (0, 1), BuildingBlock: AJUNOK_clean_linker_0, # of connection points: 2
#     Edge 49, Type (0, 1), BuildingBlock: AJUNOK_clean_linker_0, # of connection points: 2
#     Edge 50, Type (0, 1), BuildingBlock: AJUNOK_clean_linker_0, # of connection points: 2
#     Edge 51, Type (0, 1), BuildingBlock: AJUNOK_clean_linker_0, # of connection points: 2
#     Edge 52, Type (0, 1), BuildingBlock: AJUNOK_clean_linker_0, # of connection points: 2
#     Edge 53, Type (0, 1), BuildingBlock: AJUNOK_clean_linker_0, # of connection points: 2
#     Edge 54, Type (0, 1), BuildingBlock: AJUNOK_clean_linker_0, # of connection points: 2
#     Edge 55, Type (0, 1), BuildingBlock: AJUNOK_clean_linker_0, # of connection points: 2
#     Edge 56, Type (0, 1), BuildingBlock: AJUNOK_clean_linker_0, # of connection points: 2
#     Edge 57, Type (0, 1), BuildingBlock: AJUNOK_clean_linker_0, # of connection points: 2
#     Edge 58, Type (0, 1), BuildingBlock: AJUNOK_clean_linker_0, # of connection points: 2
#     Edge 59, Type (0, 1), BuildingBlock: AJUNOK_clean_linker_0, # of connection points: 2
#     Edge 60, Type (0, 1), BuildingBlock: AJUNOK_clean_linker_0, # of connection points: 2
#     Edge 61, Type (0, 1), BuildingBlock: AJUNOK_clean_linker_0, # of connection points: 2
#     Edge 62, Type (0, 1), BuildingBlock: AJUNOK_clean_linker_0, # of connection points: 2
#     Edge 63, Type (0, 1), BuildingBlock: AJUNOK_clean_linker_0, # of connection points: 2
#     Edge 64, Type (0, 1), BuildingBlock: AJUNOK_clean_linker_0, # of connection points: 2
#     Edge 65, Type (0, 1), BuildingBlock: AJUNOK_clean_linker_0, # of connection points: 2
#     Edge 66, Type (0, 1), BuildingBlock: AJUNOK_clean_linker_0, # of connection points: 2
#     Edge 67, Type (0, 1), BuildingBlock: AJUNOK_clean_linker_0, # of connection points: 2
#     Edge 68, Type (0, 1), BuildingBlock: AJUNOK_clean_linker_0, # of connection points: 2
#     Edge 69, Type (0, 1), BuildingBlock: AJUNOK_clean_linker_0, # of connection points: 2
#     Edge 70, Type (0, 1), BuildingBlock: AJUNOK_clean_linker_0, # of connection points: 2
#     Edge 71, Type (0, 1), BuildingBlock: AJUNOK_clean_linker_0, # of connection points: 2
#     Edge 72, Type (0, 1), BuildingBlock: AJUNOK_clean_linker_0, # of connection points: 2
#     Edge 73, Type (0, 1), BuildingBlock: AJUNOK_clean_linker_0, # of connection points: 2
#     Edge 74, Type (0, 1), BuildingBlock: AJUNOK_clean_linker_0, # of connection points: 2
#     Edge 75, Type (0, 1), BuildingBlock: AJUNOK_clean_linker_0, # of connection points: 2
#     Edge 76, Type (0, 1), BuildingBlock: AJUNOK_clean_linker_0, # of connection points: 2
#     Edge 77, Type (0, 1), BuildingBlock: AJUNOK_clean_linker_0, # of connection points: 2
#     Edge 78, Type (0, 1), BuildingBlock: AJUNOK_clean_linker_0, # of connection points: 2
#     Edge 79, Type (0, 1), BuildingBlock: AJUNOK_clean_linker_0, # of connection points: 2
#     Edge 80, Type (0, 1), BuildingBlock: AJUNOK_clean_linker_0, # of connection points: 2
#     Edge 81, Type (0, 1), BuildingBlock: AJUNOK_clean_linker_0, # of connection points: 2
#     Edge 82, Type (0, 1), BuildingBlock: AJUNOK_clean_linker_0, # of connection points: 2
#     Edge 83, Type (0, 1), BuildingBlock: AJUNOK_clean_linker_0, # of connection points: 2
#     Edge 84, Type (0, 1), BuildingBlock: AJUNOK_clean_linker_0, # of connection points: 2
#     Edge 85, Type (0, 1), BuildingBlock: AJUNOK_clean_linker_0, # of connection points: 2
#     Edge 86, Type (0, 1), BuildingBlock: AJUNOK_clean_linker_0, # of connection points: 2
#     Edge 87, Type (0, 1), BuildingBlock: AJUNOK_clean_linker_0, # of connection points: 2
#     Edge 88, Type (0, 1), BuildingBlock: AJUNOK_clean_linker_0, # of connection points: 2
#     Edge 89, Type (0, 1), BuildingBlock: AJUNOK_clean_linker_0, # of connection points: 2
#     Edge 90, Type (0, 1), BuildingBlock: AJUNOK_clean_linker_0, # of connection points: 2
#     Edge 91, Type (0, 1), BuildingBlock: AJUNOK_clean_linker_0, # of connection points: 2
#     Edge 92, Type (0, 1), BuildingBlock: AJUNOK_clean_linker_0, # of connection points: 2
#     Edge 93, Type (0, 1), BuildingBlock: AJUNOK_clean_linker_0, # of connection points: 2
#     Edge 94, Type (0, 1), BuildingBlock: AJUNOK_clean_linker_0, # of connection points: 2
#     Edge 95, Type (0, 1), BuildingBlock: AJUNOK_clean_linker_0, # of connection points: 2
#     Edge 96, Type (0, 1), BuildingBlock: AJUNOK_clean_linker_0, # of connection points: 2
#     Edge 97, Type (0, 1), BuildingBlock: AJUNOK_clean_linker_0, # of connection points: 2
#     Edge 98, Type (0, 1), BuildingBlock: AJUNOK_clean_linker_0, # of connection points: 2
#     Edge 99, Type (0, 1), BuildingBlock: AJUNOK_clean_linker_0, # of connection points: 2
#     Edge 100, Type (0, 1), BuildingBlock: AJUNOK_clean_linker_0, # of connection points: 2
#     Edge 101, Type (0, 1), BuildingBlock: AJUNOK_clean_linker_0, # of connection points: 2
#     Edge 102, Type (0, 1), BuildingBlock: AJUNOK_clean_linker_0, # of connection points: 2
#     Edge 103, Type (0, 1), BuildingBlock: AJUNOK_clean_linker_0, # of connection points: 2
#     Edge 104, Type (0, 1), BuildingBlock: AJUNOK_clean_linker_0, # of connection points: 2
#     Edge 105, Type (0, 1), BuildingBlock: AJUNOK_clean_linker_0, # of connection points: 2
#     Edge 106, Type (0, 1), BuildingBlock: AJUNOK_clean_linker_0, # of connection points: 2
#     Edge 107, Type (0, 1), BuildingBlock: AJUNOK_clean_linker_0, # of connection points: 2
#     Edge 108, Type (0, 1), BuildingBlock: AJUNOK_clean_linker_0, # of connection points: 2
#     Edge 109, Type (0, 1), BuildingBlock: AJUNOK_clean_linker_0, # of connection points: 2
#     Edge 110, Type (0, 1), BuildingBlock: AJUNOK_clean_linker_0, # of connection points: 2
#     Edge 111, Type (0, 1), BuildingBlock: AJUNOK_clean_linker_0, # of connection points: 2
#     Edge 112, Type (0, 1), BuildingBlock: AJUNOK_clean_linker_0, # of connection points: 2
#     Edge 113, Type (0, 1), BuildingBlock: AJUNOK_clean_linker_0, # of connection points: 2
#     Edge 114, Type (0, 1), BuildingBlock: AJUNOK_clean_linker_0, # of connection points: 2
#     Edge 115, Type (0, 1), BuildingBlock: AJUNOK_clean_linker_0, # of connection points: 2
#     Edge 116, Type (0, 1), BuildingBlock: AJUNOK_clean_linker_0, # of connection points: 2
#     Edge 117, Type (0, 1), BuildingBlock: AJUNOK_clean_linker_0, # of connection points: 2
#     Edge 118, Type (0, 1), BuildingBlock: AJUNOK_clean_linker_0, # of connection points: 2
#     Edge 119, Type (0, 1), BuildingBlock: AJUNOK_clean_linker_0, # of connection points: 2
#     Edge 120, Type (0, 1), BuildingBlock: AJUNOK_clean_linker_0, # of connection points: 2
#     Edge 121, Type (0, 1), BuildingBlock: AJUNOK_clean_linker_0, # of connection points: 2
#     Edge 122, Type (0, 1), BuildingBlock: AJUNOK_clean_linker_0, # of connection points: 2
#     Edge 123, Type (0, 1), BuildingBlock: AJUNOK_clean_linker_0, # of connection points: 2
#     Edge 124, Type (0, 1), BuildingBlock: AJUNOK_clean_linker_0, # of connection points: 2
#     Edge 125, Type (0, 1), BuildingBlock: AJUNOK_clean_linker_0, # of connection points: 2
#     Edge 126, Type (0, 1), BuildingBlock: AJUNOK_clean_linker_0, # of connection points: 2
#     Edge 127, Type (0, 1), BuildingBlock: AJUNOK_clean_linker_0, # of connection points: 2
#     Edge 128, Type (0, 1), BuildingBlock: AJUNOK_clean_linker_0, # of connection points: 2
#     Edge 129, Type (0, 1), BuildingBlock: AJUNOK_clean_linker_0, # of connection points: 2
#     Edge 130, Type (0, 1), BuildingBlock: AJUNOK_clean_linker_0, # of connection points: 2
#     Edge 131, Type (0, 1), BuildingBlock: AJUNOK_clean_linker_0, # of connection points: 2
#     Edge 132, Type (0, 1), BuildingBlock: AJUNOK_clean_linker_0, # of connection points: 2
#     Edge 133, Type (0, 1), BuildingBlock: AJUNOK_clean_linker_0, # of connection points: 2
#     Edge 134, Type (0, 1), BuildingBlock: AJUNOK_clean_linker_0, # of connection points: 2
#     Edge 135, Type (0, 1), BuildingBlock: AJUNOK_clean_linker_0, # of connection points: 2
# Relax obj value: 0.118
# Max RMSD: 0.236
# Mean RMSD: 0.118
data_MOF--net-gar--node1-KUFVIS_clean_sbu_0--node2-CUKXOW_clean_sbu_0--edge1-AJUNOK_clean_linker_0
_symmetry_space_group_name_H-M    P1
_symmetry_Int_Tables_number       1
_symmetry_cell_setting            triclinic
loop_
_symmetry_equiv_pos_as_xyz
'x, y, z'
_cell_length_a     40.083801
_cell_length_b     38.833696
_cell_length_c     39.970223
_cell_angle_alpha  93.779015
_cell_angle_beta   94.414447
_cell_angle_gamma 97.496955
loop_
_atom_site_label
_atom_site_type_symbol
_atom_site_fract_x
_atom_site_fract_y
_atom_site_fract_z
_atom_type_partial_charge
Mn0 Mn 0.04374 0.28409 0.45482 0.0
Mn1 Mn 0.05076 0.33772 0.39177 0.0
C2 C 0.99628 0.30164 0.42819 0.0
C3 C 0.03776 0.23012 0.47672 0.0
C4 C 0.06966 0.36161 0.46532 0.0
O5 O 0.08969 0.27738 0.43845 0.0
O6 O 0.08943 0.31075 0.39401 0.0
C7 C 0.04365 0.28656 0.33236 0.0
N8 N 0.03276 0.31386 0.34951 0.0
C9 C 0.98897 0.31687 0.30547 0.0
C10 C 0.99975 0.2888 0.28738 0.0
C11 C 0.02717 0.27355 0.30093 0.0
C12 C 1.00637 0.32874 0.3367 0.0
H13 H 0.06474 0.2748 0.34255 0.0
C14 C 0.10194 0.28864 0.41198 0.0
O15 O 0.05146 0.25799 0.49479 0.0
O16 O 0.02818 0.23348 0.44539 0.0
N17 N 1.01367 0.36406 0.38679 0.0
C18 C 1.00527 0.38981 0.40811 0.0
C19 C 0.97779 0.40713 0.39865 0.0
C20 C 0.95929 0.39792 0.36735 0.0
C21 C 0.96854 0.37155 0.34572 0.0
C22 C 0.99628 0.35532 0.35642 0.0
H23 H 0.01934 0.39712 0.43219 0.0
O24 O 0.99563 0.29205 0.4587 0.0
O25 O 0.0247 0.30164 0.41493 0.0
O26 O 0.06064 0.33236 0.47641 0.0
O27 O 0.06916 0.36606 0.43394 0.0
C28 C 0.95107 0.36047 0.31412 0.0
C29 C 0.96121 0.33309 0.29404 0.0
H30 H 0.98702 0.27859 0.26319 0.0
H31 H 0.0356 0.25181 0.28716 0.0
H32 H 0.97082 0.42746 0.4155 0.0
H33 H 0.93794 0.41115 0.36026 0.0
H34 H 0.92953 0.37255 0.30519 0.0
H35 H 0.94724 0.32444 0.27002 0.0
Mn36 Mn 1.01435 0.80239 0.62183 0.0
Mn37 Mn 0.04204 0.86716 0.68267 0.0
C38 C 0.0694 0.81024 0.64558 0.0
C39 C 0.99226 0.74608 0.59993 0.0
C40 C 0.03074 0.87918 0.60934 0.0
O41 O 0.9706 0.81394 0.63988 0.0
O42 O 0.99244 0.85728 0.67904 0.0
C43 C 0.02044 0.83029 0.74169 0.0
N44 N 0.04531 0.84762 0.72534 0.0
C45 C 0.08662 0.84465 0.7717 0.0
C46 C 0.06141 0.82695 0.78908 0.0
C47 C 0.02821 0.8196 0.77393 0.0
C48 C 0.07739 0.85445 0.73954 0.0
H49 H 0.99484 0.8247 0.73029 0.0
C50 C 0.9676 0.83688 0.66364 0.0
O51 O 0.99071 0.77283 0.58253 0.0
O52 O 1.00444 0.75231 0.63123 0.0
N53 N 0.08996 0.87901 0.68965 0.0
C54 C 0.1112 0.89686 0.66982 0.0
C55 C 0.14526 0.90649 0.68144 0.0
C56 C 0.15696 0.89791 0.7134 0.0
C57 C 0.13464 0.88009 0.73362 0.0
C58 C 0.10093 0.87136 0.72078 0.0
H59 H 0.10227 0.9036 0.64533 0.0
O60 O 0.06213 0.79504 0.6155 0.0
O61 O 0.04469 0.82104 0.66039 0.0
O62 O 0.02036 0.84762 0.59985 0.0
O63 O 0.04031 0.89002 0.63981 0.0
C64 C 0.14455 0.87067 0.76598 0.0
C65 C 0.12056 0.85281 0.78496 0.0
H66 H 0.06729 0.81871 0.81397 0.0
H67 H 1.00863 0.80582 0.78711 0.0
H68 H 0.16244 0.92046 0.66583 0.0
H69 H 0.18311 0.90494 0.72218 0.0
H70 H 0.17056 0.87691 0.77644 0.0
H71 H 0.12847 0.8455 0.80973 0.0
Mn72 Mn 0.5406 0.77691 0.94677 0.0
Mn73 Mn 0.52122 0.82495 0.88225 0.0
C74 C 0.48512 0.78289 0.93043 0.0
C75 C 0.54783 0.72526 0.97061 0.0
C76 C 0.55014 0.85679 0.95159 0.0
O77 O 0.58226 0.77709 0.92015 0.0
O78 O 0.56585 0.80963 0.87886 0.0
C79 C 0.5166 0.77015 0.82602 0.0
N80 N 0.50286 0.79564 0.84303 0.0
C81 C 0.4552 0.78998 0.80161 0.0
C82 C 0.46905 0.76398 0.78345 0.0
C83 C 0.49974 0.75383 0.79587 0.0
C84 C 0.47295 0.805 0.83171 0.0
H85 H 0.54019 0.76229 0.83536 0.0
C86 C 0.5863 0.79067 0.89215 0.0
O87 O 0.56178 0.75507 0.98503 0.0
O88 O 0.53154 0.72514 0.94124 0.0
N89 N 0.47777 0.84057 0.88148 0.0
C90 C 0.4659 0.863 0.90383 0.0
C91 C 0.43488 0.87495 0.89581 0.0
C92 C 0.41635 0.86368 0.8649 0.0
C93 C 0.42877 0.84011 0.84251 0.0
C94 C 0.45983 0.8291 0.85191 0.0
H95 H 0.47967 0.87114 0.92783 0.0
O96 O 0.49349 0.77653 0.96123 0.0
O97 O 0.50931 0.78719 0.91098 0.0
O98 O 0.55342 0.82818 0.96443 0.0
O99 O 0.53876 0.85824 0.92108 0.0
C100 C 0.41125 0.82658 0.81153 0.0
C101 C 0.42427 0.80124 0.79126 0.0
H102 H 0.45618 0.75141 0.76013 0.0
H103 H 0.51047 0.73358 0.78215 0.0
H104 H 0.42519 0.89265 0.9135 0.0
H105 H 0.39232 0.87276 0.85889 0.0
H106 H 0.38725 0.83472 0.80351 0.0
H107 H 0.41007 0.79028 0.76798 0.0
Mn108 Mn 0.51102 0.29983 0.13158 0.0
Mn109 Mn 0.45077 0.28572 0.06775 0.0
C110 C 0.49124 0.24328 0.10999 0.0
C111 C 0.56589 0.31157 0.15586 0.0
C112 C 0.43984 0.31349 0.13835 0.0
O113 O 0.51254 0.34689 0.11051 0.0
O114 O 0.47938 0.33028 0.06216 0.0
C115 C 0.4923 0.27372 1.01106 0.0
N116 N 0.46618 0.26262 0.02925 0.0
C117 C 0.45516 0.20772 0.99601 0.0
C118 C 0.48108 0.21919 0.97609 0.0
C119 C 0.49992 0.25224 0.98384 0.0
C120 C 0.44851 0.23046 0.02261 0.0
H121 H 0.50776 0.29836 1.01787 0.0
C122 C 0.50055 0.35247 0.08092 0.0
O123 O 0.5406 0.31994 0.17127 0.0
O124 O 0.55971 0.29772 0.12504 0.0
N125 N 0.42219 0.24267 0.07106 0.0
C126 C 0.39981 0.23445 0.09425 0.0
C127 C 0.37992 0.20164 0.09105 0.0
C128 C 0.38327 0.17759 0.06411 0.0
C129 C 0.40638 0.18665 0.0405 0.0
C130 C 0.42508 0.21997 0.04465 0.0
H131 H 0.39702 0.25276 0.115 0.0
O132 O 0.50541 0.249 0.14055 0.0
O133 O 0.48878 0.2708 0.09396 0.0
O134 O 0.46749 0.30591 0.15107 0.0
O135 O 0.43141 0.30926 0.10668 0.0
C136 C 0.41202 0.16371 1.01337 0.0
C137 C 0.43648 0.17418 0.99122 0.0
H138 H 0.48731 0.2025 0.95534 0.0
H139 H 0.52059 0.26092 0.96918 0.0
H140 H 0.36219 0.19482 0.10943 0.0
H141 H 0.3682 0.15214 0.06196 0.0
H142 H 0.39808 0.13775 1.00961 0.0
H143 H 0.44109 0.15603 0.97087 0.0
Mn144 Mn 1.0104 0.76601 0.1873 0.0
Mn145 Mn 0.94714 0.74224 0.12573 0.0
C146 C 1.00013 0.70868 0.16154 0.0
C147 C 0.06729 0.78614 0.20779 0.0
C148 C 0.93443 0.75729 0.19905 0.0
O149 O 1.00232 0.81293 0.16853 0.0
O150 O 0.96169 0.79261 0.12706 0.0
C151 C 0.98324 0.7582 0.06546 0.0
N152 N 0.96544 0.73469 0.08348 0.0
C153 C 0.96682 0.68857 0.04062 0.0
C154 C 0.98514 0.71225 0.0216 0.0
C155 C 0.99336 0.74724 0.03408 0.0
C156 C 0.95713 0.70107 0.07157 0.0
H157 H 0.98971 0.78512 0.0749 0.0
C158 C 0.98211 0.81735 0.14301 0.0
O159 O 0.04233 0.78877 0.22612 0.0
O160 O 0.05909 0.7732 0.17699 0.0
N161 N 0.9322 0.69333 0.12177 0.0
C162 C 0.91601 0.67354 0.14404 0.0
C163 C 0.90756 0.63758 0.13615 0.0
C164 C 0.91564 0.62259 0.10541 0.0
C165 C 0.93138 0.64361 0.08243 0.0
C166 C 0.93954 0.67918 0.09184 0.0
H167 H 0.91018 0.68501 0.16787 0.0
O168 O 1.01469 0.71479 0.19193 0.0
O169 O 0.99058 0.73577 0.14853 0.0
O170 O 0.96559 0.76296 0.20995 0.0
O171 O 0.92485 0.74929 0.16796 0.0
C172 C 0.94043 0.63052 0.05114 0.0
C173 C 0.95814 0.65297 0.03027 0.0
H174 H 0.99322 0.70381 0.99751 0.0
H175 H 1.00758 0.76568 0.01962 0.0
H176 H 0.89539 0.62137 0.15392 0.0
H177 H 0.91067 0.59479 0.10025 0.0
H178 H 0.93421 0.60326 0.04292 0.0
H179 H 0.96536 0.64254 1.00651 0.0
Mn180 Mn 0.5306 0.79948 0.39628 0.0
Mn181 Mn 0.52216 0.84708 0.32949 0.0
C182 C 0.47716 0.80157 0.37012 0.0
C183 C 0.53924 0.75103 0.425 0.0
C184 C 0.53045 0.87882 0.40145 0.0
O185 O 0.57792 0.80402 0.38017 0.0
O186 O 0.5708 0.83986 0.33899 0.0
C187 C 0.5399 0.79494 0.27845 0.0
N188 N 0.51771 0.81596 0.28963 0.0
C189 C 0.47792 0.79643 0.2418 0.0
C190 C 0.50043 0.77478 0.22977 0.0
C191 C 0.53153 0.774 0.24822 0.0
C192 C 0.48762 0.81671 0.27214 0.0
H193 H 0.56381 0.79402 0.2924 0.0
C194 C 0.5891 0.82183 0.35674 0.0
O195 O 0.54687 0.7823 0.43896 0.0
O196 O 0.52762 0.74762 0.39342 0.0
N197 N 0.47729 0.85561 0.31577 0.0
C198 C 0.45843 0.87816 0.33045 0.0
C199 C 0.42663 0.88192 0.31493 0.0
C200 C 0.41468 0.86306 0.2843 0.0
C201 C 0.43484 0.8407 0.26922 0.0
C202 C 0.46643 0.83804 0.28573 0.0
H203 H 0.46731 0.89282 0.35405 0.0
O204 O 0.4812 0.79502 0.40151 0.0
O205 O 0.5047 0.80711 0.35465 0.0
O206 O 0.53576 0.85043 0.41346 0.0
O207 O 0.52489 0.88127 0.36979 0.0
C208 C 0.42466 0.82071 0.23859 0.0
C209 C 0.44614 0.7985 0.22494 0.0
H210 H 0.49406 0.75857 0.20646 0.0
H211 H 0.54902 0.75728 0.23917 0.0
H212 H 0.41121 0.89907 0.32662 0.0
H213 H 0.38998 0.86591 0.27266 0.0
H214 H 0.40027 0.82209 0.22542 0.0
H215 H 0.43797 0.78311 0.20146 0.0
Mn216 Mn 0.51209 0.26862 0.68893 0.0
Mn217 Mn 0.44799 0.24788 0.62749 0.0
C218 C 0.50095 0.2124 0.66116 0.0
C219 C 0.569 0.28775 0.70991 0.0
C220 C 0.43626 0.26053 0.70132 0.0
O221 O 0.50485 0.31618 0.67176 0.0
O222 O 0.4632 0.29843 0.63041 0.0
C223 C 0.48368 0.26557 0.56735 0.0
N224 N 0.46526 0.24172 0.58452 0.0
C225 C 0.46418 0.19733 0.53937 0.0
C226 C 0.48298 0.22144 0.52115 0.0
C227 C 0.49282 0.25569 0.53525 0.0
C228 C 0.45553 0.20876 0.57113 0.0
H229 H 0.49139 0.29192 0.57803 0.0
C230 C 0.48473 0.32205 0.64676 0.0
O231 O 0.54401 0.29002 0.72825 0.0
O232 O 0.56096 0.27542 0.67889 0.0
N233 N 0.4324 0.1991 0.62193 0.0
C234 C 0.41707 0.17838 0.64404 0.0
C235 C 0.40812 0.14269 0.63493 0.0
C236 C 0.41493 0.12888 0.60323 0.0
C237 C 0.42972 0.15084 0.58048 0.0
C238 C 0.43835 0.18612 0.59105 0.0
H239 H 0.41242 0.18887 0.66867 0.0
O240 O 0.51544 0.21699 0.69168 0.0
O241 O 0.49172 0.24014 0.6492 0.0
O242 O 0.46748 0.26578 0.71191 0.0
O243 O 0.42627 0.25328 0.67026 0.0
C244 C 0.43738 0.13893 0.54825 0.0
C245 C 0.45452 0.16217 0.52766 0.0
H246 H 0.49034 0.21383 0.49651 0.0
H247 H 0.50749 0.27443 0.52143 0.0
H248 H 0.39671 0.12573 0.65255 0.0
H249 H 0.40983 0.10122 0.59713 0.0
H250 H 0.43065 0.11192 0.53914 0.0
H251 H 0.46083 0.15257 0.50321 0.0
Mn252 Mn 0.03413 0.29945 0.89304 0.0
Mn253 Mn 0.02494 0.35126 0.82964 0.0
C254 C 0.98054 0.30082 0.86685 0.0
C255 C 0.04568 0.25034 0.91901 0.0
C256 C 0.03328 0.37822 0.90349 0.0
O257 O 0.08162 0.30734 0.87765 0.0
O258 O 0.07356 0.34273 0.83628 0.0
C259 C 0.04086 0.30357 0.77365 0.0
N260 N 0.01907 0.32332 0.78767 0.0
C261 C 0.97802 0.30806 0.74001 0.0
C262 C 1.00007 0.28764 0.72517 0.0
C263 C 0.0316 0.28533 0.74211 0.0
C264 C 0.9886 0.32557 0.77159 0.0
H265 H 0.06519 0.30171 0.7863 0.0
C266 C 0.09217 0.32464 0.85363 0.0
O267 O 0.051 0.28101 0.93449 0.0
O268 O 0.03402 0.24791 0.88743 0.0
N269 N 0.97977 0.36054 0.81878 0.0
C270 C 0.96114 0.38099 0.83654 0.0
C271 C 0.92868 0.38526 0.82319 0.0
C272 C 0.91584 0.36926 0.79153 0.0
C273 C 0.93568 0.34893 0.77339 0.0
C274 C 0.96788 0.34541 0.78796 0.0
H275 H 0.97065 0.39342 0.86098 0.0
O276 O 0.98454 0.29211 0.89757 0.0
O277 O 1.00822 0.30885 0.85208 0.0
O278 O 0.03691 0.34863 0.91329 0.0
O279 O 0.02924 0.38321 0.87215 0.0
C280 C 0.92459 0.33171 0.7416 0.0
C281 C 0.94576 0.3113 0.72491 0.0
H282 H 0.99299 0.27348 0.70085 0.0
H283 H 0.04877 0.26957 0.73087 0.0
H284 H 0.91336 0.4003 0.83754 0.0
H285 H 0.89064 0.37255 0.78156 0.0
H286 H 0.89974 0.33382 0.72986 0.0
H287 H 0.93688 0.29796 0.70057 0.0
Mn288 Mn 0.41855 0.0827 0.26827 0.0
Mn289 Mn 0.35015 0.08488 0.31417 0.0
C290 C 0.39001 0.03184 0.28613 0.0
C291 C 0.44536 0.07814 0.21673 0.0
C292 C 0.42269 0.10215 0.34558 0.0
O293 O 0.40345 0.13075 0.2591 0.0
O294 O 0.35782 0.12748 0.28918 0.0
C295 C 0.29656 0.08125 0.25812 0.0
N296 N 0.30978 0.06774 0.28592 0.0
C297 C 0.26265 0.02196 0.28261 0.0
C298 C 0.24901 0.03505 0.2535 0.0
C299 C 0.26603 0.0649 0.24124 0.0
C300 C 0.2935 0.03909 0.29801 0.0
H301 H 0.30904 0.10451 0.24919 0.0
C302 C 0.37715 0.14273 0.26901 0.0
O303 O 0.46108 0.09279 0.24464 0.0
O304 O 0.41346 0.06736 0.21811 0.0
N305 N 0.33847 0.04525 0.33936 0.0
C306 C 0.35302 0.03797 0.36961 0.0
C307 C 0.3376 1.01065 0.38681 0.0
C308 C 0.30724 0.99106 0.3729 0.0
C309 C 0.2921 0.99962 0.34235 0.0
C310 C 0.30831 0.02763 0.32668 0.0
H311 H 0.3762 0.05285 0.38072 0.0
O312 O 0.42089 0.0329 0.27812 0.0
O313 O 0.37641 0.06006 0.28299 0.0
O314 O 0.43674 0.09804 0.31807 0.0
O315 O 0.39066 0.10082 0.34611 0.0
C316 C 0.26119 0.98187 0.32718 0.0
C317 C 0.24663 0.99283 0.29715 0.0
H318 H 0.22529 0.02264 0.2406 0.0
H319 H 0.25549 0.0755 0.21904 0.0
H320 H 0.34918 1.00465 0.41071 0.0
H321 H 0.29558 0.96979 0.38609 0.0
H322 H 0.24831 0.95987 0.33852 0.0
H323 H 0.22283 0.97902 0.28574 0.0
Mn324 Mn 0.26766 0.16727 0.50006 0.0
Mn325 Mn 0.25608 0.10748 0.43406 0.0
C326 C 0.21423 0.148 0.47454 0.0
C327 C 0.27058 0.18464 0.55629 0.0
C328 C 0.28978 0.18182 0.43142 0.0
O329 O 0.30942 0.14259 0.5049 0.0
O330 O 0.29601 0.09931 0.46306 0.0
C331 C 0.23974 0.0418 0.4667 0.0
N332 N 0.23057 0.06517 0.44495 0.0
C333 C 0.17587 0.03148 0.43121 0.0
C334 C 0.18474 1.00707 0.45345 0.0
C335 C 0.21683 0.01225 0.47123 0.0
C336 C 0.19988 0.06025 0.42742 0.0
H337 H 0.26427 0.04577 0.48065 0.0
C338 C 0.31412 0.11393 0.48928 0.0
O339 O 0.28529 0.20415 0.53522 0.0
O340 O 0.25543 0.15391 0.54505 0.0
N341 N 0.21666 0.11339 0.40581 0.0
C342 C 0.21114 0.1405 0.38706 0.0
C343 C 0.1799 0.13979 0.36839 0.0
C344 C 0.15456 0.11134 0.36933 0.0
C345 C 0.16071 0.08384 0.38896 0.0
C346 C 0.1925 0.08579 0.40674 0.0
H347 H 0.23028 0.16268 0.38654 0.0
O348 O 0.22047 0.17879 0.49038 0.0
O349 O 0.23996 0.13149 0.47247 0.0
O350 O 0.28405 0.1923 0.46074 0.0
O351 O 0.28185 0.15019 0.41965 0.0
C352 C 0.13627 0.05498 0.3922 0.0
C353 C 0.14385 0.02881 0.41328 0.0
H354 H 0.16701 0.98443 0.45731 0.0
H355 H 0.22381 0.99359 0.48855 0.0
H356 H 0.17525 0.16127 0.35353 0.0
H357 H 0.13033 0.1111 0.35523 0.0
H358 H 0.11141 0.05287 0.3789 0.0
H359 H 0.1247 1.00696 0.41588 0.0
Mn360 Mn 0.16972 0.01806 0.8024 0.0
Mn361 Mn 0.22772 0.03584 0.86894 0.0
C362 C 0.18805 0.07563 0.82297 0.0
C363 C 0.15272 1.00973 0.74483 0.0
C364 C 0.15401 1.0086 0.87566 0.0
O365 O 0.19246 0.97352 0.80266 0.0
O366 O 0.23088 0.98854 0.84731 0.0
C367 C 0.28968 0.03884 0.83264 0.0
N368 N 0.26989 0.05454 0.8535 0.0
C369 C 0.30802 0.10824 0.85773 0.0
C370 C 0.32887 0.09256 0.83646 0.0
C371 C 0.31964 0.05772 0.82387 0.0
C372 C 0.27857 0.08807 0.86579 0.0
H373 H 0.28264 1.01217 0.82261 0.0
C374 C 0.21765 0.9676 0.82215 0.0
O375 O 0.1338 0.99699 0.76715 0.0
O376 O 0.18248 0.02556 0.75587 0.0
N377 N 0.22796 0.08119 0.89108 0.0
C378 C 0.20483 0.09275 0.91082 0.0
C379 C 0.21028 0.12718 0.92527 0.0
C380 C 0.23938 0.1494 0.91923 0.0
C381 C 0.26301 0.13684 0.89914 0.0
C382 C 0.25649 0.1021 0.88584 0.0
H383 H 0.18228 0.07593 0.91541 0.0
O384 O 0.15865 0.06715 0.80642 0.0
O385 O 0.20523 0.04994 0.82766 0.0
O386 O 0.14494 1.00711 0.84432 0.0
O387 O 0.18454 0.01808 0.88778 0.0
C388 C 0.29259 0.15753 0.89153 0.0
C389 C 0.31507 0.14326 0.87081 0.0
H390 H 0.35189 0.1071 0.82946 0.0
H391 H 0.33552 0.04548 0.80731 0.0
H392 H 0.19193 0.13667 0.94076 0.0
H393 H 0.24327 0.17608 0.93004 0.0
H394 H 0.2982 0.18454 0.9013 0.0
H395 H 0.3376 0.15951 0.86492 0.0
Mn396 Mn 0.24326 0.89283 0.05004 0.0
Mn397 Mn 0.25483 0.95594 0.99503 0.0
C398 C 0.29746 0.9165 0.03801 0.0
C399 C 0.24131 0.87041 0.10453 0.0
C400 C 0.23332 0.8797 0.97185 0.0
O401 O 0.19732 0.91385 0.04938 0.0
O402 O 0.21009 0.95416 1.01259 0.0
C403 C 0.25409 0.01847 0.04158 0.0
N404 N 0.27008 1.0002 0.01893 0.0
C405 C 0.31588 0.04715 0.02032 0.0
C406 C 0.29982 0.06651 0.04353 0.0
C407 C 0.26888 0.05202 0.05432 0.0
C408 C 0.29999 0.01381 1.00857 0.0
H409 H 0.23017 1.00764 0.04976 0.0
C410 C 0.19009 0.93966 0.03259 0.0
O411 O 0.22839 0.85237 0.07709 0.0
O412 O 0.25252 0.90277 0.10096 0.0
N413 N 0.29776 0.9611 0.97659 0.0
C414 C 0.30985 0.93926 0.95377 0.0
C415 C 0.34085 0.94972 0.94082 0.0
C416 C 0.35887 0.9827 0.95105 0.0
C417 C 0.34563 1.00499 0.97405 0.0
C418 C 0.3146 0.99316 0.9861 0.0
H419 H 0.29602 0.91401 0.94552 0.0
O420 O 0.29207 0.88555 0.04851 0.0
O421 O 0.2712 0.93249 0.03407 0.0
O422 O 0.2326 0.86875 1.00137 0.0
O423 O 0.24006 0.91188 0.96696 0.0
C424 C 0.36207 0.03845 0.98558 0.0
C425 C 0.34722 0.05948 1.00873 0.0
H426 H 0.31116 0.09238 0.05344 0.0
H427 H 0.25638 0.06674 0.07232 0.0
H428 H 0.35082 0.93242 0.92296 0.0
H429 H 0.38283 0.99062 0.94111 0.0
H430 H 0.38622 0.04821 0.97692 0.0
H431 H 0.36019 0.08503 1.01764 0.0
Mn432 Mn 0.27823 0.42897 0.07381 0.0
Mn433 Mn 0.29955 0.49794 0.03116 0.0
C434 C 0.3335 0.45646 0.08218 0.0
C435 C 0.25151 0.4004 0.11541 0.0
C436 C 0.28402 0.42407 1.00119 0.0
O437 O 0.23373 0.44427 0.05416 0.0
O438 O 0.25411 0.49895 0.04413 0.0
C439 C 0.29947 0.5582 0.08042 0.0
N440 N 0.31577 0.53993 0.05808 0.0
C441 C 0.36195 0.58629 0.06035 0.0
C442 C 0.34578 0.60573 0.08341 0.0
C443 C 0.31455 0.59145 0.09378 0.0
C444 C 0.34616 0.55293 0.04871 0.0
H445 H 0.27501 0.54762 0.08764 0.0
C446 C 0.22969 0.47519 0.04684 0.0
O447 O 0.25397 0.38528 0.08617 0.0
O448 O 0.26418 0.43321 0.12065 0.0
N449 N 0.34385 0.5001 1.01681 0.0
C450 C 0.35582 0.47815 0.994 0.0
C451 C 0.38658 0.48846 0.9809 0.0
C452 C 0.40412 0.52158 0.99058 0.0
C453 C 0.39122 0.54394 1.01379 0.0
C454 C 0.3608 0.53199 0.02651 0.0
H455 H 0.34201 0.45316 0.98535 0.0
O456 O 0.32588 0.42512 0.09142 0.0
O457 O 0.30835 0.47124 0.07036 0.0
O458 O 0.28854 0.41063 0.02864 0.0
O459 O 0.28292 0.45653 0.99934 0.0
C460 C 0.40709 0.57774 0.02447 0.0
C461 C 0.39284 0.59878 0.04809 0.0
H462 H 0.35711 0.63161 0.09332 0.0
H463 H 0.30188 0.60625 0.11155 0.0
H464 H 0.39645 0.47121 0.96292 0.0
H465 H 0.42753 0.52925 0.98007 0.0
H466 H 0.43031 0.58763 1.01469 0.0
H467 H 0.40565 0.62459 0.05631 0.0
Mn468 Mn 0.8211 0.19046 0.03877 0.0
Mn469 Mn 0.78784 0.12629 0.97958 0.0
C470 C 0.76308 0.17069 0.03274 0.0
C471 C 0.83773 0.21337 0.09567 0.0
C472 C 0.80911 0.20093 0.96211 0.0
O473 O 0.86322 0.16447 0.02955 0.0
O474 O 0.83676 0.1234 0.9902 0.0
C475 C 0.79489 0.06604 0.0202 0.0
N476 N 0.77529 0.08411 1.00042 0.0
C477 C 0.72572 0.04379 1.00688 0.0
C478 C 0.7456 0.02415 0.02637 0.0
C479 C 0.78033 0.03543 0.03317 0.0
C480 C 0.74177 0.07364 0.99392 0.0
H481 H 0.82132 0.07518 0.02654 0.0
C482 C 0.86308 0.13685 1.00935 0.0
O483 O 0.84623 0.23048 0.07012 0.0
O484 O 0.82361 0.18158 0.08814 0.0
N485 N 0.74051 0.12555 0.96817 0.0
C486 C 0.72409 0.15039 0.95416 0.0
C487 C 0.68872 0.145 0.94904 0.0
C488 C 0.67064 0.11379 0.95736 0.0
C489 C 0.68807 0.08878 0.97196 0.0
C490 C 0.72334 0.0956 0.97679 0.0
H491 H 0.73773 0.1746 0.94785 0.0
O492 O 0.77419 0.20224 0.04471 0.0
O493 O 0.78587 0.15249 0.02283 0.0
O494 O 0.82024 0.21271 0.99225 0.0
O495 O 0.7982 0.16869 0.95483 0.0
C496 C 0.67158 0.05855 0.98411 0.0
C497 C 0.69035 0.03597 1.00146 0.0
H498 H 0.73431 1.00092 0.03702 0.0
H499 H 0.79573 0.02086 0.04883 0.0
H500 H 0.67536 0.16511 0.93919 0.0
H501 H 0.64331 0.10992 0.95367 0.0
H502 H 0.64433 0.0536 0.98176 0.0
H503 H 0.67727 0.0135 1.01189 0.0
Mn504 Mn 0.11944 0.50563 0.28819 0.0
Mn505 Mn 0.18506 0.53218 0.34664 0.0
C506 C 0.14658 0.56263 0.29299 0.0
C507 C 0.09471 0.49 0.23184 0.0
C508 C 0.11241 0.52298 0.36469 0.0
O509 O 0.13765 0.45886 0.2972 0.0
O510 O 0.1759 0.48058 0.34031 0.0
C511 C 0.23902 0.50526 0.30954 0.0
N512 N 0.22647 0.5323 0.32548 0.0
C513 C 0.27619 0.57173 0.3172 0.0
C514 C 0.2897 0.54421 0.30111 0.0
C515 C 0.27096 0.51085 0.29717 0.0
C516 C 0.24431 0.56454 0.32929 0.0
H517 H 0.22494 0.47956 0.30618 0.0
C518 C 0.16105 0.45512 0.32023 0.0
O519 O 0.07768 0.48482 0.25784 0.0
O520 O 0.12667 0.50049 0.23875 0.0
N521 N 0.1979 0.58147 0.35431 0.0
C522 C 0.18068 0.60566 0.36871 0.0
C523 C 0.19502 0.64077 0.37238 0.0
C524 C 0.22733 0.65051 0.36217 0.0
C525 C 0.24498 0.62513 0.34799 0.0
C526 C 0.22919 0.59057 0.34454 0.0
H527 H 0.15588 0.59832 0.3764 0.0
O528 O 0.11496 0.55583 0.28205 0.0
O529 O 0.16079 0.53657 0.30298 0.0
O530 O 0.10005 0.50897 0.33558 0.0
O531 O 0.14385 0.53401 0.37123 0.0
C532 C 0.27699 0.63295 0.33589 0.0
C533 C 0.2927 0.60623 0.32078 0.0
H534 H 0.31421 0.54849 0.29126 0.0
H535 H 0.28108 0.48949 0.28456 0.0
H536 H 0.18098 0.66042 0.38256 0.0
H537 H 0.2377 0.6777 0.3643 0.0
H538 H 0.28949 0.65949 0.33739 0.0
H539 H 0.31718 0.61264 0.31131 0.0
Mn540 Mn 0.78116 0.94209 0.57114 0.0
Mn541 Mn 0.80863 0.01699 0.53666 0.0
C542 C 0.83817 0.96343 0.57795 0.0
C543 C 0.75529 0.9103 0.61125 0.0
C544 C 0.7948 0.94659 0.49777 0.0
O545 O 0.73783 0.96153 0.55772 0.0
O546 O 0.75988 0.01245 0.54001 0.0
C547 C 0.79531 0.06399 0.59411 0.0
N548 N 0.81681 0.05354 0.57193 0.0
C549 C 0.86081 0.09923 0.59415 0.0
C550 C 0.83913 0.11065 0.61715 0.0
C551 C 0.80631 0.09277 0.61729 0.0
C552 C 0.84875 0.06976 0.57241 0.0
H553 H 0.76999 0.05047 0.59407 0.0
C554 C 0.73494 0.99099 0.54651 0.0
O555 O 0.75463 0.898 0.58034 0.0
O556 O 0.77063 0.94187 0.61902 0.0
N557 N 0.85524 0.02738 0.53042 0.0
C558 C 0.87106 0.01555 0.50397 0.0
C559 C 0.90286 0.03211 0.49818 0.0
C560 C 0.91808 0.06138 0.5191 0.0
C561 C 0.90085 0.07392 0.54552 0.0
C562 C 0.8688 0.05651 0.54973 0.0
H563 H 0.85938 0.99377 0.48707 0.0
O564 O 0.82753 0.93154 0.58366 0.0
O565 O 0.8149 0.98313 0.57091 0.0
O566 O 0.78698 0.92973 0.52272 0.0
O567 O 0.80157 0.9798 0.49895 0.0
C568 C 0.91361 0.10375 0.56698 0.0
C569 C 0.89375 0.11614 0.59161 0.0
H570 H 0.84735 0.13316 0.6347 0.0
H571 H 0.78943 0.10136 0.635 0.0
H572 H 0.91514 0.02185 0.47749 0.0
H573 H 0.9427 0.07432 0.51444 0.0
H574 H 0.93851 0.11751 0.56455 0.0
H575 H 0.90378 0.13907 0.60801 0.0
Mn576 Mn 0.87479 0.05922 0.23839 0.0
Mn577 Mn 0.80892 0.03992 0.28526 0.0
C578 C 0.85185 1.00102 0.24162 0.0
C579 C 0.90279 0.07399 0.19093 0.0
C580 C 0.88087 0.05349 0.31476 0.0
O581 O 0.85709 0.10645 0.24464 0.0
O582 O 0.81734 0.09069 0.27946 0.0
C583 C 0.75704 0.05699 0.23434 0.0
N584 N 0.76879 0.03401 0.25514 0.0
C585 C 0.72093 0.99078 0.23754 0.0
C586 C 0.70824 0.01403 0.21607 0.0
C587 C 0.72645 0.04723 0.21438 0.0
C588 C 0.75176 1.00181 0.25651 0.0
H589 H 0.7709 0.08253 0.23293 0.0
C590 C 0.83454 0.11362 0.26394 0.0
O591 O 0.91671 0.08155 0.22118 0.0
O592 O 0.8714 0.05942 0.18794 0.0
N593 N 0.79635 0.99256 0.29419 0.0
C594 C 0.81065 0.97445 0.31826 0.0
C595 C 0.79524 0.94104 0.32377 0.0
C596 C 0.76491 0.92702 0.30509 0.0
C597 C 0.7496 0.94687 0.28188 0.0
C598 C 0.76609 0.9801 0.2776 0.0
H599 H 0.83385 0.98522 0.33291 0.0
O600 O 0.88253 1.00932 0.23383 0.0
O601 O 0.83466 0.02703 0.24678 0.0
O602 O 0.89262 0.06236 0.28755 0.0
O603 O 0.8495 0.0443 0.31746 0.0
C604 C 0.7186 0.93511 0.26297 0.0
C605 C 0.70429 0.95704 0.24077 0.0
H606 H 0.68458 1.00665 0.20073 0.0
H607 H 0.71688 0.0653 0.19778 0.0
H608 H 0.80694 0.92598 0.34204 0.0
H609 H 0.7538 0.90092 0.30865 0.0
H610 H 0.70556 0.90925 0.26524 0.0
H611 H 0.68047 0.94771 0.22633 0.0
Mn612 Mn 0.32143 0.69073 0.53868 0.0
Mn613 Mn 0.29101 0.62533 0.47952 0.0
C614 C 0.26399 0.66921 0.53194 0.0
C615 C 0.3381 0.71467 0.59542 0.0
C616 C 0.3069 0.70075 0.46184 0.0
O617 O 0.36488 0.6674 0.52984 0.0
O618 O 0.34104 0.62784 0.48816 0.0
C619 C 0.30745 0.56613 0.51821 0.0
N620 N 0.28428 0.5825 0.50089 0.0
C621 C 0.23969 0.53656 0.50862 0.0
C622 C 0.26314 0.5192 0.52632 0.0
C623 C 0.29715 0.5341 0.53118 0.0
C624 C 0.25148 0.56833 0.49604 0.0
H625 H 0.33363 0.57732 0.5222 0.0
C626 C 0.36669 0.64176 0.50793 0.0
O627 O 0.34476 0.73192 0.56946 0.0
O628 O 0.32536 0.68233 0.58847 0.0
N629 N 0.24294 0.61852 0.46957 0.0
C630 C 0.22292 0.63977 0.45441 0.0
C631 C 0.18781 0.6296 0.44995 0.0
C632 C 0.17386 0.59718 0.45978 0.0
C633 C 0.19493 0.57552 0.47475 0.0
C634 C 0.22964 0.5873 0.47933 0.0
H635 H 0.23351 0.66475 0.44675 0.0
O636 O 0.2743 0.70082 0.54422 0.0
O637 O 0.28739 0.65119 0.52286 0.0
O638 O 0.31939 0.71241 0.49169 0.0
O639 O 0.29588 0.66845 0.45465 0.0
C640 C 0.1826 0.54333 0.48659 0.0
C641 C 0.20498 0.52383 0.50349 0.0
H642 H 0.25526 0.49457 0.53653 0.0
H643 H 0.3154 0.52095 0.54495 0.0
H644 H 0.17144 0.64685 0.43933 0.0
H645 H 0.14686 0.5895 0.45664 0.0
H646 H 0.15585 0.53365 0.48341 0.0
H647 H 0.19516 0.49934 0.51291 0.0
Mn648 Mn 0.37671 0.5511 0.75446 0.0
Mn649 Mn 0.30949 0.53123 0.79958 0.0
C650 C 0.35528 0.49288 0.75923 0.0
C651 C 0.40588 0.56516 0.70749 0.0
C652 C 0.38024 0.5507 0.83151 0.0
O653 O 0.35666 0.59707 0.75743 0.0
O654 O 0.31544 0.58141 0.79086 0.0
C655 C 0.25818 0.54248 0.74543 0.0
N656 N 0.27044 0.52153 0.7681 0.0
C657 C 0.22507 0.47539 0.75089 0.0
C658 C 0.21188 0.49653 0.7275 0.0
C659 C 0.22859 0.53019 0.72469 0.0
C660 C 0.25486 0.48893 0.77063 0.0
H661 H 0.27087 0.56836 0.74313 0.0
C662 C 0.33248 0.60393 0.77472 0.0
O663 O 0.41869 0.57423 0.7379 0.0
O664 O 0.37498 0.54917 0.70396 0.0
N665 N 0.2991 0.48402 0.81059 0.0
C666 C 0.31401 0.46767 0.83572 0.0
C667 C 0.29957 0.4343 0.84282 0.0
C668 C 0.26968 0.41835 0.82441 0.0
C669 C 0.25432 0.43598 0.79928 0.0
C670 C 0.26962 0.46936 0.79365 0.0
H671 H 0.33671 0.48004 0.8503 0.0
O672 O 0.38629 0.50174 0.7526 0.0
O673 O 0.33718 0.51831 0.7627 0.0
O674 O 0.39267 0.55732 0.80405 0.0
O675 O 0.34903 0.53998 0.83364 0.0
C676 C 0.22431 0.42184 0.77973 0.0
C677 C 0.20982 0.44144 0.7554 0.0
H678 H 0.18897 0.48718 0.71157 0.0
H679 H 0.21865 0.54665 0.70663 0.0
H680 H 0.31136 0.42095 0.8625 0.0
H681 H 0.25858 0.39268 0.82993 0.0
H682 H 0.21219 0.3959 0.78306 0.0
H683 H 0.18679 0.43023 0.74048 0.0
Mn684 Mn 0.61715 1.00496 0.78354 0.0
Mn685 Mn 0.68292 0.02969 0.84251 0.0
C686 C 0.64527 0.06174 0.78878 0.0
C687 C 0.59293 0.98895 0.7272 0.0
C688 C 0.60987 0.02051 0.86012 0.0
O689 O 0.63413 0.95739 0.79317 0.0
O690 O 0.67514 0.97857 0.83392 0.0
C691 C 0.73733 1.00667 0.80377 0.0
N692 N 0.72444 0.03226 0.82159 0.0
C693 C 0.7733 0.07357 0.81526 0.0
C694 C 0.78723 0.04757 0.79723 0.0
C695 C 0.76912 0.01398 0.7914 0.0
C696 C 0.7417 0.06465 0.8274 0.0
H697 H 0.72351 0.98086 0.79888 0.0
C698 C 0.65881 0.9533 0.8147 0.0
O699 O 0.57552 0.98458 0.75304 0.0
O700 O 0.62498 0.99892 0.73431 0.0
N701 N 0.69421 0.07886 0.85245 0.0
C702 C 0.67545 0.10191 0.8664 0.0
C703 C 0.68869 0.13734 0.87098 0.0
C704 C 0.72154 0.14846 0.86267 0.0
C705 C 0.74052 0.12421 0.84862 0.0
C706 C 0.72575 0.08933 0.84388 0.0
H707 H 0.65015 0.09351 0.87285 0.0
O708 O 0.61393 0.05531 0.77681 0.0
O709 O 0.65875 0.0353 0.799 0.0
O710 O 0.59679 1.00998 0.83027 0.0
O711 O 0.64169 0.02851 0.86711 0.0
C712 C 0.77256 0.1336 0.83704 0.0
C713 C 0.78903 0.10828 0.82063 0.0
H714 H 0.81158 0.05323 0.78731 0.0
H715 H 0.77956 0.99382 0.77727 0.0
H716 H 0.67335 0.15618 0.88026 0.0
H717 H 0.73132 0.17589 0.86591 0.0
H718 H 0.78425 0.16041 0.8393 0.0
H719 H 0.81333 0.11603 0.81127 0.0
Mn720 Mn 0.76567 0.66185 1.00468 0.0
Mn721 Mn 0.75136 0.59876 0.94125 0.0
C722 C 0.71163 0.64062 0.98262 0.0
C723 C 0.77014 0.68382 0.05988 0.0
C724 C 0.78062 0.67322 0.93273 0.0
O725 O 0.80782 0.63828 1.00925 0.0
O726 O 0.79497 0.59554 0.96686 0.0
C727 C 0.74497 0.53509 0.97862 0.0
N728 N 0.731 0.55629 0.95728 0.0
C729 C 0.67785 0.51868 0.95168 0.0
C730 C 0.69161 0.49664 0.97378 0.0
C731 C 0.72537 0.50479 0.98716 0.0
C732 C 0.69874 0.54829 0.94373 0.0
H733 H 0.77082 0.54127 0.98921 0.0
C734 C 0.81342 0.61054 0.99274 0.0
O735 O 0.7842 0.70119 0.03695 0.0
O736 O 0.75567 0.65218 0.05135 0.0
N737 N 0.70854 0.59943 0.91657 0.0
C738 C 0.69886 0.62359 0.89595 0.0
C739 C 0.6658 0.61908 0.88039 0.0
C740 C 0.64296 0.58997 0.88637 0.0
C741 C 0.65347 0.56546 0.90767 0.0
C742 C 0.68686 0.57108 0.92215 0.0
H743 H 0.71614 0.64623 0.89151 0.0
O744 O 0.71823 0.6724 0.99615 0.0
O745 O 0.73731 0.62407 0.98016 0.0
O746 O 0.77958 0.68394 0.96309 0.0
O747 O 0.77133 0.64155 0.92173 0.0
C748 C 0.63198 0.53593 0.91546 0.0
C749 C 0.64416 0.51255 0.93743 0.0
H750 H 0.67647 0.47343 0.98071 0.0
H751 H 0.73619 0.4879 1.00422 0.0
H752 H 0.65787 0.63806 0.86392 0.0
H753 H 0.61739 0.58678 0.87457 0.0
H754 H 0.60597 0.53102 0.90479 0.0
H755 H 0.62737 0.48999 0.9433 0.0
Mn756 Mn 0.92178 0.58308 0.77187 0.0
Mn757 Mn 0.85128 0.58178 0.81517 0.0
C758 C 0.89349 0.53089 0.78757 0.0
C759 C 0.95034 0.5805 0.72129 0.0
C760 C 0.92286 0.59975 0.84921 0.0
O761 O 0.90606 0.63123 0.76373 0.0
O762 O 0.85886 0.62493 0.7914 0.0
C763 C 0.8022 0.57593 0.75495 0.0
N764 N 0.81271 0.56396 0.78467 0.0
C765 C 0.76653 0.51702 0.77843 0.0
C766 C 0.75505 0.5292 0.74798 0.0
C767 C 0.7731 0.5587 0.7361 0.0
C768 C 0.79604 0.535 0.79583 0.0
H769 H 0.81611 0.59821 0.7456 0.0
C770 C 0.87865 0.64168 0.77269 0.0
O771 O 0.96541 0.59399 0.7499 0.0
O772 O 0.91822 0.57003 0.72154 0.0
N773 N 0.83885 0.54169 0.83947 0.0
C774 C 0.85104 0.53543 0.871 0.0
C775 C 0.8344 0.50839 0.88771 0.0
C776 C 0.80524 0.48802 0.872 0.0
C777 C 0.79224 0.49577 0.84026 0.0
C778 C 0.8094 0.52373 0.82526 0.0
H779 H 0.87314 0.55107 0.88358 0.0
O780 O 0.92463 0.53288 0.78024 0.0
O781 O 0.87948 0.55884 0.78479 0.0
O782 O 0.93786 0.59684 0.82217 0.0
O783 O 0.89064 0.59792 0.84887 0.0
C784 C 0.76242 0.47741 0.82333 0.0
C785 C 0.74982 0.48775 0.7922 0.0
H786 H 0.73251 0.51605 0.73347 0.0
H787 H 0.76461 0.56816 0.71247 0.0
H788 H 0.84415 0.50321 0.91262 0.0
H789 H 0.7927 0.46691 0.8848 0.0
H790 H 0.74892 0.45539 0.8341 0.0
H791 H 0.72697 0.47332 0.7793 0.0
Mn792 Mn 0.74565 0.39671 0.55333 0.0
Mn793 Mn 0.76384 0.46404 0.50488 0.0
C794 C 0.80123 0.41447 0.54057 0.0
C795 C 0.74198 0.3724 0.60672 0.0
C796 C 0.73532 0.39119 0.47518 0.0
O797 O 0.70225 0.42257 0.55492 0.0
O798 O 0.72084 0.46752 0.52544 0.0
C799 C 0.77911 0.51499 0.5643 0.0
N800 N 0.78698 0.5024 0.53373 0.0
C801 C 0.83846 0.54252 0.53778 0.0
C802 C 0.82919 0.55809 0.56771 0.0
C803 C 0.79978 0.54371 0.58146 0.0
C804 C 0.81675 0.51396 0.52189 0.0
H805 H 0.75764 0.5026 0.57578 0.0
C806 C 0.699 0.45238 0.54327 0.0
O807 O 0.72738 0.35617 0.57894 0.0
O808 O 0.75587 0.40409 0.60411 0.0
N809 N 0.80484 0.46585 0.4829 0.0
C810 C 0.81106 0.44662 0.45479 0.0
C811 C 0.84068 0.45597 0.439 0.0
C812 C 0.86327 0.48546 0.45172 0.0
C813 C 0.85594 0.50544 0.48005 0.0
C814 C 0.8259 0.49499 0.49458 0.0
H815 H 0.79357 0.4244 0.44427 0.0
O816 O 0.79277 0.3837 0.55041 0.0
O817 O 0.77738 0.43381 0.53907 0.0
O818 O 0.73397 0.37724 0.50338 0.0
O819 O 0.7422 0.42413 0.4732 0.0
C820 C 0.87734 0.53524 0.49453 0.0
C821 C 0.86881 0.55352 0.52363 0.0
H822 H 0.84506 0.58026 0.58098 0.0
H823 H 0.79331 0.55441 0.60543 0.0
H824 H 0.84596 0.44059 0.41693 0.0
H825 H 0.88616 0.49249 0.43957 0.0
H826 H 0.90073 0.54395 0.48385 0.0
H827 H 0.88593 0.57579 0.53507 0.0
Mn828 Mn 0.67481 0.53298 0.31631 0.0
Mn829 Mn 0.73749 0.55196 0.37797 0.0
C830 C 0.69457 0.59086 0.33456 0.0
C831 C 0.65387 0.52349 0.26042 0.0
C832 C 0.66498 0.52567 0.3911 0.0
O833 O 0.69687 0.48832 0.31511 0.0
O834 O 0.73795 0.50348 0.35717 0.0
C835 C 0.79586 0.55116 0.33677 0.0
N836 N 0.7783 0.5685 0.35868 0.0
C837 C 0.81763 0.62094 0.35856 0.0
C838 C 0.83617 0.60356 0.33614 0.0
C839 C 0.82524 0.56851 0.32522 0.0
C840 C 0.78873 0.6022 0.3695 0.0
H841 H 0.78752 0.52431 0.328 0.0
C842 C 0.72289 0.48207 0.33307 0.0
O843 O 0.63663 0.51115 0.28414 0.0
O844 O 0.68396 0.53991 0.26895 0.0
N845 N 0.74049 0.59836 0.39871 0.0
C846 C 0.71878 0.61209 0.41877 0.0
C847 C 0.72585 0.6471 0.43142 0.0
C848 C 0.75496 0.66779 0.42302 0.0
C849 C 0.77685 0.65319 0.40219 0.0
C850 C 0.76881 0.61796 0.3908 0.0
H851 H 0.69592 0.5967 0.42459 0.0
O852 O 0.66393 0.58212 0.3209 0.0
O853 O 0.71204 0.5652 0.33816 0.0
O854 O 0.65387 0.52223 0.36023 0.0
O855 O 0.69602 0.53645 0.40074 0.0
C856 C 0.80598 0.67243 0.39175 0.0
C857 C 0.82636 0.65632 0.36996 0.0
H858 H 0.85869 0.61694 0.32694 0.0
H859 H 0.83933 0.55495 0.3078 0.0
H860 H 0.70862 0.65826 0.44718 0.0
H861 H 0.76003 0.69494 0.43238 0.0
H862 H 0.81274 0.69975 0.40004 0.0
H863 H 0.8485 0.67149 0.36183 0.0
Tb864 Tb 0.04643 0.07712 0.03377 0.0
C865 C 0.0568 0.01752 0.9763 0.0
Tb866 Tb 1.01153 0.99825 0.0356 0.0
O867 O 0.09789 0.06507 0.04675 0.0
O868 O 0.05647 0.03065 0.05434 0.0
O869 O 0.05743 0.05097 0.98638 0.0
C870 C 1.00395 0.93923 0.06631 0.0
O871 O 0.04183 0.9916 0.99254 0.0
C872 C 0.9692 0.04224 1.01282 0.0
C873 C 0.9969 0.05781 0.09017 0.0
O874 O 0.98851 0.94392 0.0373 0.0
O875 O 0.02425 0.96718 0.07694 0.0
O876 O 0.96032 1.00892 1.01535 0.0
O877 O 1.00073 0.04617 0.01989 0.0
O878 O 0.99492 0.02414 0.08022 0.0
O879 O 1.01609 0.08326 0.07681 0.0
C880 C 0.05085 0.1333 1.00001 0.0
O881 O 0.06307 0.13308 0.0314 0.0
O882 O 0.03532 0.10286 0.98917 0.0
C883 C 0.08832 0.03322 0.05419 0.0
Tb884 Tb 0.27854 0.83609 0.30199 0.0
C885 C 0.3399 0.79036 0.30561 0.0
Tb886 Tb 0.26661 0.75472 0.27702 0.0
O887 O 0.28156 0.8281 0.35695 0.0
O888 O 0.27202 0.78716 0.32187 0.0
O889 O 0.32946 0.82139 0.30366 0.0
C890 C 0.23306 0.69162 0.28078 0.0
O891 O 0.31981 0.76012 0.29774 0.0
C892 C 0.27099 0.79547 0.22552 0.0
C893 C 0.20539 0.8017 0.27136 0.0
O894 O 0.25925 0.69819 0.26348 0.0
O895 O 0.2277 0.71999 0.2972 0.0
O896 O 0.26911 0.76156 0.22254 0.0
O897 O 0.27312 0.80351 0.25694 0.0
O898 O 0.2161 0.77063 0.26968 0.0
O899 O 0.22489 0.83122 0.28314 0.0
C900 C 0.30655 0.90131 0.29784 0.0
O901 O 0.28465 0.89174 0.3191 0.0
O902 O 0.31172 0.87461 0.27875 0.0
C903 C 0.27791 0.79414 0.35333 0.0
Tb904 Tb 0.5454 0.05266 0.52544 0.0
C905 C 0.53188 0.01278 0.5931 0.0
Tb906 Tb 0.47635 0.03104 0.54022 0.0
O907 O 0.5442 0.10741 0.54006 0.0
O908 O 0.51579 0.06871 0.56405 0.0
O909 O 0.55328 0.02481 0.57141 0.0
C910 C 0.41007 0.03184 0.54543 0.0
O911 O 0.49894 0.01423 0.58738 0.0
C912 C 0.50244 0.98481 0.50291 0.0
C913 C 0.49074 0.07545 0.47555 0.0
O914 O 0.42358 1.00935 0.52739 0.0
O915 O 0.43458 0.0519 0.5628 0.0
O916 O 0.48276 0.97662 0.52636 0.0
O917 O 0.50554 0.01721 0.50104 0.0
O918 O 0.4701 0.06678 0.49924 0.0
O919 O 0.52255 0.06914 0.47877 0.0
C920 C 0.60573 0.03598 0.51427 0.0
O921 O 0.59949 0.06758 0.52171 0.0
O922 O 0.57786 0.01481 0.51168 0.0
C923 C 0.52186 0.10129 0.56175 0.0
Tb924 Tb 0.27874 0.29623 0.82513 0.0
C925 C 0.29826 0.34892 0.77131 0.0
Tb926 Tb 0.25969 0.27212 0.75247 0.0
O927 O 0.33321 0.30178 0.8189 0.0
O928 O 0.29972 0.26595 0.78786 0.0
O929 O 0.2928 0.34492 0.8031 0.0
C930 C 0.25945 0.24403 0.69009 0.0
O931 O 0.28997 0.32317 0.74717 0.0
C932 C 0.20903 0.28916 0.78564 0.0
C933 C 0.24666 0.21814 0.8078 0.0
O934 O 0.25275 0.2753 0.69779 0.0
O935 O 0.26607 0.22916 0.71722 0.0
O936 O 0.20548 0.26694 0.75951 0.0
O937 O 0.23931 0.30353 0.78904 0.0
O938 O 0.25185 0.22271 0.77592 0.0
O939 O 0.2527 0.24411 0.83167 0.0
C940 C 0.27273 0.32697 0.88479 0.0
O941 O 0.29532 0.30667 0.87862 0.0
O942 O 0.25321 0.3285 0.85785 0.0
C943 C 0.33005 0.28041 0.79203 0.0
Tb944 Tb 1.01349 0.03243 0.48495 0.0
C945 C 0.9742 1.00819 0.5477 0.0
Tb946 Tb 0.05108 0.04042 0.55748 0.0
O947 O 1.01196 0.97576 0.48188 0.0
O948 O 0.04826 1.00723 0.51322 0.0
O949 O 0.97301 0.01459 0.51547 0.0
C950 C 0.08568 0.02765 0.61448 0.0
O951 O 1.00185 0.01512 0.5687 0.0
C952 C 0.031 0.09825 0.53812 0.0
C953 C 0.08918 0.06434 0.49575 0.0
O954 O 0.05573 0.0125 0.60338 0.0
O955 O 0.09572 0.05042 0.59383 0.0
O956 O 0.05232 0.09687 0.56402 0.0
O957 O 0.01765 0.06743 0.52878 0.0
O958 O 0.09103 0.04742 0.5236 0.0
O959 O 0.0603 0.06497 0.47753 0.0
C960 C 0.97419 0.0385 0.42937 0.0
O961 O 1.00397 0.02842 0.42975 0.0
O962 O 0.96764 0.04615 0.4599 0.0
C963 C 0.03547 0.97615 0.50613 0.0
Tb964 Tb 0.31108 0.789 0.80762 0.0
C965 C 0.24789 0.80036 0.84525 0.0
Tb966 Tb 0.24498 0.78844 0.76632 0.0
O967 O 0.31662 0.8452 0.82147 0.0
O968 O 0.28863 0.82503 0.77791 0.0
O969 O 0.2738 0.7824 0.84474 0.0
C970 C 0.18855 0.7985 0.7316 0.0
O971 O 0.23359 0.80908 0.81646 0.0
C972 C 0.26345 0.72658 0.7748 0.0
C973 C 0.3093 0.77568 0.72752 0.0
O974 O 0.19053 0.77716 0.7551 0.0
O975 O 0.21822 0.81521 0.72853 0.0
O976 O 0.24451 0.73372 0.7492 0.0
O977 O 0.26749 0.7526 0.79608 0.0
O978 O 0.27885 0.78611 0.72569 0.0
O979 O 0.32668 0.77367 0.75715 0.0
C980 C 0.36029 0.77578 0.85145 0.0
O981 O 0.34113 0.79962 0.85549 0.0
O982 O 0.35335 0.76033 0.82135 0.0
C983 C 0.29537 0.85216 0.79773 0.0
Tb984 Tb 0.49282 0.02851 0.03064 0.0
C985 C 0.54934 0.98151 0.04023 0.0
Tb986 Tb 0.56772 0.06339 0.05153 0.0
O987 O 0.49658 0.0267 0.97481 0.0
O988 O 0.53656 0.0466 1.00728 0.0
O989 O 0.51814 0.98556 0.04677 0.0
C990 C 0.62993 0.09727 0.04884 0.0
O991 O 0.57346 1.00853 0.04003 0.0
C992 C 0.52799 0.06098 0.10187 0.0
C993 C 0.50817 0.10961 0.04577 0.0
O994 O 0.62205 0.07245 0.0685 0.0
O995 O 0.60318 0.10157 0.03 0.0
O996 O 0.55635 0.08144 0.10186 0.0
O997 O 0.52587 0.03931 0.07616 0.0
O998 O 0.54062 0.10777 0.04207 0.0
O999 O 0.485 0.08177 0.04394 0.0
C1000 C 0.43066 0.994 0.03228 0.0
O1001 O 0.44037 0.02618 0.04361 0.0
O1002 O 0.45572 0.98167 0.0193 0.0
C1003 C 0.52851 0.03889 0.97629 0.0
Tb1004 Tb 0.24074 0.27253 0.28358 0.0
C1005 C 0.29899 0.2888 0.34028 0.0
Tb1006 Tb 0.30169 0.32436 0.27425 0.0
O1007 O 0.25781 0.2321 0.24922 0.0
O1008 O 0.29198 0.26977 0.27548 0.0
O1009 O 0.26648 0.28944 0.33325 0.0
C1010 C 0.35166 0.35122 0.23883 0.0
O1011 O 0.32017 0.29889 0.31789 0.0
C1012 C 0.25336 0.35221 0.30454 0.0
C1013 C 0.24287 0.30706 0.21749 0.0
O1014 O 0.35558 0.33781 0.26763 0.0
O1015 O 0.31979 0.3521 0.23204 0.0
O1016 O 0.28538 0.36486 0.3085 0.0
O1017 O 0.25033 0.32761 0.28193 0.0
O1018 O 0.2757 0.30798 0.22456 0.0
O1019 O 0.22162 0.29631 0.23953 0.0
C1020 C 0.19098 0.2445 0.31929 0.0
O1021 O 0.18714 0.26114 0.29237 0.0
O1022 O 0.22272 0.24151 0.3239 0.0
C1023 C 0.28976 0.24525 0.25291 0.0
Tb1024 Tb 0.50727 0.54807 1.00729 0.0
C1025 C 0.46609 0.52738 0.0686 0.0
Tb1026 Tb 0.54517 0.54955 0.07778 0.0
O1027 O 0.49311 0.49185 1.00486 0.0
O1028 O 0.53667 0.51531 0.0339 0.0
O1029 O 0.46526 0.53888 0.0381 0.0
C1030 C 0.57788 0.53684 0.13505 0.0
O1031 O 0.49434 0.52744 0.08818 0.0
C1032 C 0.53636 0.61063 0.05642 0.0
C1033 C 0.58595 0.56725 1.01576 0.0
O1034 O 0.56258 0.56384 0.13059 0.0
O1035 O 0.57463 0.51681 0.10744 0.0
O1036 O 0.56117 0.60549 0.07747 0.0
O1037 O 0.51624 0.58259 0.05111 0.0
O1038 O 0.58647 0.55397 0.04556 0.0
O1039 O 0.55762 0.57073 0.99782 0.0
C1040 C 0.47717 0.5599 0.948 0.0
O1041 O 0.4971 0.53662 0.95294 0.0
O1042 O 0.47492 0.57713 0.97647 0.0
C1043 C 0.51696 0.48722 0.0272 0.0
Tb1044 Tb 0.82009 0.30555 0.30334 0.0
C1045 C 0.75968 0.31907 0.34714 0.0
Tb1046 Tb 0.75 0.30042 0.26783 0.0
O1047 O 0.82242 0.36057 0.31955 0.0
O1048 O 0.7918 0.34017 0.27706 0.0
O1049 O 0.78977 0.30806 0.34686 0.0
C1050 C 0.69276 0.31073 0.23444 0.0
O1051 O 0.74065 0.32104 0.31866 0.0
C1052 C 0.77138 0.23969 0.27619 0.0
C1053 C 0.80989 0.28484 0.22406 0.0
O1054 O 0.69479 0.29473 0.26195 0.0
O1055 O 0.72277 0.32141 0.22632 0.0
O1056 O 0.74838 0.24471 0.25315 0.0
O1057 O 0.7775 0.267 0.29581 0.0
O1058 O 0.77978 0.29576 0.22429 0.0
O1059 O 0.82967 0.28473 0.25244 0.0
C1060 C 0.87714 0.29567 0.33706 0.0
O1061 O 0.87497 0.3165 0.31311 0.0
O1062 O 0.84746 0.28007 0.34156 0.0
C1063 C 0.79854 0.36672 0.29801 0.0
Tb1064 Tb 0.99586 0.52671 0.53516 0.0
C1065 C 0.0597 0.48916 0.5406 0.0
Tb1066 Tb 0.0644 0.57056 0.54895 0.0
O1067 O 1.00877 0.50417 0.48709 0.0
O1068 O 0.03085 0.55437 0.50462 0.0
O1069 O 0.02787 0.48756 0.5479 0.0
C1070 C 0.12717 0.60378 0.54636 0.0
O1071 O 0.0781 0.51909 0.53623 0.0
C1072 C 0.02832 0.56602 0.60239 0.0
C1073 C 1.00176 0.60961 0.54086 0.0
O1074 O 0.11872 0.57901 0.56568 0.0
O1075 O 0.10033 0.6096 0.52858 0.0
O1076 O 0.05277 0.59063 0.59914 0.0
O1077 O 0.02909 0.54267 0.57879 0.0
O1078 O 0.03454 0.6116 0.53777 0.0
O1079 O 0.98186 0.57953 0.54153 0.0
C1080 C 0.93573 0.48855 0.53931 0.0
O1081 O 0.94661 0.50075 0.5121 0.0
O1082 O 0.95813 0.49882 0.56427 0.0
C1083 C 0.03121 0.52994 0.48173 0.0
Tb1084 Tb 0.7829 0.81036 0.32416 0.0
C1085 C 0.79765 0.85835 0.26387 0.0
Tb1086 Tb 0.7563 0.78131 0.25089 0.0
O1087 O 0.83604 0.79899 0.32124 0.0
O1088 O 0.80027 0.78701 0.2821 0.0
O1089 O 0.79986 0.85508 0.2968 0.0
C1090 C 0.75473 0.75034 0.18983 0.0
O1091 O 0.78235 0.8332 0.24129 0.0
C1092 C 0.70887 0.79568 0.28994 0.0
C1093 C 0.7513 0.73199 0.31103 0.0
O1094 O 0.74392 0.78004 0.19657 0.0
O1095 O 0.76596 0.7383 0.2173 0.0
O1096 O 0.70365 0.77391 0.26333 0.0
O1097 O 0.73869 0.81151 0.2907 0.0
O1098 O 0.75618 0.7345 0.27869 0.0
O1099 O 0.75571 0.75956 0.33329 0.0
C1100 C 0.78556 0.8509 0.38042 0.0
O1101 O 0.79905 0.82222 0.37757 0.0
O1102 O 0.76976 0.85578 0.35206 0.0
C1103 C 0.83093 0.78604 0.29006 0.0
Tb1104 Tb 0.78121 0.33506 0.80175 0.0
C1105 C 0.84237 0.28856 0.80433 0.0
Tb1106 Tb 0.76848 0.25349 0.77694 0.0
O1107 O 0.78447 0.32745 0.85665 0.0
O1108 O 0.77468 0.2862 0.82173 0.0
O1109 O 0.83197 0.31974 0.80366 0.0
C1110 C 0.73377 0.19088 0.78093 0.0
O1111 O 0.82207 0.25845 0.79628 0.0
C1112 C 0.77169 0.29434 0.72543 0.0
C1113 C 0.70755 0.30096 0.77229 0.0
O1114 O 0.75974 0.1969 0.76321 0.0
O1115 O 0.72956 0.21939 0.79782 0.0
O1116 O 0.76952 0.2604 0.72228 0.0
O1117 O 0.77486 0.30226 0.75687 0.0
O1118 O 0.71817 0.26985 0.77057 0.0
O1119 O 0.72726 0.33045 0.78387 0.0
C1120 C 0.80988 0.4 0.79735 0.0
O1121 O 0.78858 0.39062 0.81922 0.0
O1122 O 0.814 0.37329 0.77771 0.0
C1123 C 0.78071 0.29349 0.85315 0.0
Tb1124 Tb 0.73575 0.7706 0.77388 0.0
C1125 C 0.78413 0.78064 0.84076 0.0
Tb1126 Tb 0.80096 0.82074 0.77933 0.0
O1127 O 0.75741 0.73091 0.7428 0.0
O1128 O 0.78745 0.76624 0.77639 0.0
O1129 O 0.75257 0.77924 0.82768 0.0
C1130 C 0.85459 0.82936 0.74498 0.0
O1131 O 0.80972 0.79435 0.82474 0.0
C1132 C 0.74979 0.84828 0.8033 0.0
C1133 C 0.74736 0.81982 0.71531 0.0
O1134 O 0.85126 0.8487 0.77247 0.0
O1135 O 0.82829 0.80643 0.73789 0.0
O1136 O 0.78169 0.85993 0.81244 0.0
O1137 O 0.74917 0.82529 0.77932 0.0
O1138 O 0.77672 0.83273 0.73177 0.0
O1139 O 0.72595 0.7952 0.72683 0.0
C1140 C 0.67672 0.74626 0.79638 0.0
O1141 O 0.68079 0.7646 0.77063 0.0
O1142 O 0.70593 0.73813 0.80645 0.0
C1143 C 0.78874 0.74288 0.75335 0.0
Tb1144 Tb 0.54581 0.58289 0.54701 0.0
C1145 C 0.56303 0.52851 0.48775 0.0
Tb1146 Tb 0.51252 0.50422 0.54098 0.0
O1147 O 0.59705 0.57507 0.56682 0.0
O1148 O 0.55935 0.53403 0.55591 0.0
O1149 O 0.56267 0.56123 0.49987 0.0
C1150 C 0.50541 0.44491 0.57133 0.0
O1151 O 0.54604 0.50111 0.50024 0.0
C1152 C 0.47486 0.55066 0.51636 0.0
C1153 C 0.49929 0.55736 0.60382 0.0
O1154 O 0.52694 0.47221 0.58063 0.0
O1155 O 0.48771 0.45043 0.54378 0.0
O1156 O 0.47018 0.51743 0.50615 0.0
O1157 O 0.49771 0.55387 0.54004 0.0
O1158 O 0.49513 0.52548 0.58801 0.0
O1159 O 0.5184 0.58458 0.59284 0.0
C1160 C 0.54188 0.63838 0.51283 0.0
O1161 O 0.55811 0.63929 0.54277 0.0
O1162 O 0.52826 0.60689 0.50331 0.0
C1163 C 0.59072 0.54092 0.56463 0.0
Tb1164 Tb 0.04687 0.54713 0.0269 0.0
C1165 C 0.03249 0.51275 0.09738 0.0
Tb1166 Tb 0.97467 0.5259 0.04401 0.0
O1167 O 0.05949 0.59807 0.05522 0.0
O1168 O 1.01304 0.5679 0.0574 0.0
O1169 O 0.05351 0.52137 0.07417 0.0
C1170 C 0.90821 0.526 0.04692 0.0
O1171 O 0.99953 0.51459 0.0923 0.0
C1172 C 1.00205 0.47976 1.00774 0.0
C1173 C 0.9899 0.57026 0.97876 0.0
O1174 O 0.93193 0.54402 0.06723 0.0
O1175 O 0.9225 0.50555 0.02738 0.0
O1176 O 0.98195 0.47141 0.03086 0.0
O1177 O 1.00499 0.51209 1.00597 0.0
O1178 O 0.96877 0.56026 1.0018 0.0
O1179 O 0.02232 0.56557 0.98205 0.0
C1180 C 0.10247 0.5223 1.01218 0.0
O1181 O 0.09822 0.5551 1.01168 0.0
O1182 O 0.07523 0.5041 0.01998 0.0
C1183 C 0.03087 0.59613 0.06898 0.0
C1184 C 0.05923 0.22511 0.97328 0.0
C1185 C 0.05059 0.21996 0.93819 0.0
C1186 C 0.06055 0.19697 0.99323 0.0
C1187 C 0.05321 0.1628 0.97876 0.0
H1188 H 0.06405 0.25109 0.98579 0.0
H1189 H 0.06614 0.20203 0.0202 0.0
S1190 S 0.03378 0.13507 0.88776 0.0
N1191 N 0.03783 0.17802 0.88959 0.0
N1192 N 0.04031 0.12498 0.92698 0.0
C1193 C 0.04628 0.15719 0.94354 0.0
C1194 C 0.04499 0.18584 0.92324 0.0
C1195 C 0.11114 0.80859 0.25611 0.0
C1196 C 0.10332 0.79448 0.22242 0.0
C1197 C 0.14449 0.81287 0.27166 0.0
C1198 C 0.17122 0.80281 0.25422 0.0
H1199 H 0.09119 0.81551 0.27098 0.0
H1200 H 0.14908 0.82264 0.29784 0.0
S1201 S 0.16548 0.7675 0.16507 0.0
N1202 N 0.12631 0.77304 0.17169 0.0
N1203 N 0.18818 0.78026 0.20101 0.0
C1204 C 0.16403 0.78999 0.22031 0.0
C1205 C 0.13036 0.78607 0.20437 0.0
C1206 C 0.52784 0.90252 0.46123 0.0
C1207 C 0.52678 0.90838 0.42657 0.0
C1208 C 0.52013 0.92737 0.48556 0.0
C1209 C 0.51176 0.95966 0.47665 0.0
H1210 H 0.53367 0.87796 0.46986 0.0
H1211 H 0.52065 0.92115 0.51161 0.0
S1212 S 0.50589 0.9893 0.3902 0.0
N1213 N 0.51681 0.94985 0.3851 0.0
N1214 N 0.50334 0.99686 0.43101 0.0
C1215 C 0.51162 0.96664 0.44246 0.0
C1216 C 0.51888 0.941 0.41744 0.0
C1217 C 0.37696 0.24682 0.71903 0.0
C1218 C 0.41016 0.26433 0.72589 0.0
C1219 C 0.35159 0.25135 0.74089 0.0
C1220 C 0.35787 0.27423 0.77019 0.0
H1221 H 0.37044 0.22932 0.69657 0.0
H1222 H 0.32685 0.23688 0.73461 0.0
S1223 S 0.44045 0.32633 0.80011 0.0
N1224 N 0.4479 0.30515 0.76487 0.0
N1225 N 0.40027 0.3141 0.80521 0.0
C1226 C 0.39102 0.29161 0.77757 0.0
C1227 C 0.41705 0.28659 0.75565 0.0
C1228 C 0.05893 0.93062 0.58315 0.0
C1229 C 0.0318 0.90379 0.58294 0.0
C1230 C 0.06112 0.95256 0.55676 0.0
C1231 C 0.03573 0.94907 0.53005 0.0
H1232 H 0.07875 0.93452 0.60351 0.0
H1233 H 0.08239 0.97301 0.55769 0.0
S1234 S 0.96005 0.88201 0.51729 0.0
N1235 N 0.97964 0.87403 0.55321 0.0
N1236 N 0.9835 0.91569 0.50402 0.0
C1237 C 1.00894 0.92176 0.5291 0.0
C1238 C 1.00691 0.89918 0.55564 0.0
C1239 C 0.44371 0.75321 0.88559 0.0
C1240 C 0.45026 0.77508 0.9155 0.0
C1241 C 0.41304 0.75114 0.86599 0.0
C1242 C 0.38825 0.77102 0.87584 0.0
H1243 H 0.46326 0.73936 0.87614 0.0
H1244 H 0.40986 0.73605 0.8419 0.0
S1245 S 0.39024 0.82521 0.95632 0.0
N1246 N 0.42761 0.81149 0.95733 0.0
N1247 N 0.36959 0.808 0.92048 0.0
C1248 C 0.39298 0.78962 0.90775 0.0
C1249 C 0.4242 0.79147 0.92777 0.0
C1250 C 0.51361 0.20692 0.06589 0.0
C1251 C 0.49152 0.20927 0.09139 0.0
C1252 C 0.5175 0.1747 0.04978 0.0
C1253 C 0.49896 0.14367 0.05817 0.0
H1254 H 0.52898 0.23011 0.0592 0.0
H1255 H 0.53583 0.17401 0.03128 0.0
S1256 S 0.43666 0.13622 0.12248 0.0
N1257 N 0.4508 0.17827 0.12428 0.0
N1258 N 0.45639 0.11769 0.09282 0.0
C1259 C 0.47567 0.14591 0.08274 0.0
C1260 C 0.47257 0.1787 0.09985 0.0
C1261 C 0.11809 0.2416 0.37443 0.0
C1262 C 0.12818 0.27132 0.39691 0.0
C1263 C 0.13915 0.23147 0.35008 0.0
C1264 C 0.17115 0.25036 0.34819 0.0
H1265 H 0.09268 0.22789 0.37382 0.0
H1266 H 0.12979 0.20991 0.33176 0.0
S1267 S 0.2103 0.32794 0.40354 0.0
N1268 N 0.1726 0.31801 0.41707 0.0
N1269 N 0.21287 0.2984 0.37253 0.0
C1270 C 0.18236 0.27848 0.37224 0.0
C1271 C 0.1607 0.28911 0.3964 0.0
C1272 C 0.91628 0.05126 0.13446 0.0
C1273 C 0.92413 0.0759 0.16216 0.0
C1274 C 0.93989 0.04652 0.11105 0.0
C1275 C 0.97214 0.06653 0.11405 0.0
H1276 H 0.89257 0.03397 0.13192 0.0
H1277 H 0.933 0.02633 0.09075 0.0
S1278 S 1.0032 0.13824 0.17904 0.0
N1279 N 0.96517 0.12318 0.18936 0.0
N1280 N 1.00916 0.11464 0.14463 0.0
C1281 C 0.97935 0.09314 0.14002 0.0
C1282 C 0.95546 0.09767 0.16429 0.0
C1283 C 0.29622 0.71314 0.40004 0.0
C1284 C 0.30237 0.7257 0.43435 0.0
C1285 C 0.28838 0.7349 0.37405 0.0
C1286 C 0.28604 0.77054 0.38093 0.0
H1287 H 0.29723 0.68592 0.39321 0.0
H1288 H 0.28396 0.7236 0.34835 0.0
S1289 S 0.30162 0.81776 0.46596 0.0
N1290 N 0.30678 0.7773 0.47304 0.0
N1291 N 0.2923 0.81771 0.42499 0.0
C1292 C 0.29307 0.78372 0.41498 0.0
C1293 C 0.30115 0.76161 0.44135 0.0
C1294 C 0.54194 0.99274 0.68631 0.0
C1295 C 0.57649 0.98897 0.69191 0.0
C1296 C 0.52728 0.99888 0.65422 0.0
C1297 C 0.54641 1.00144 0.62603 0.0
H1298 H 0.52632 0.99259 0.70725 0.0
H1299 H 0.50104 1.00306 0.65187 0.0
S1300 S 0.63697 0.98893 0.62595 0.0
N1301 N 0.62859 0.98523 0.66546 0.0
N1302 N 0.60139 0.9961 0.60567 0.0
C1303 C 0.58055 0.99573 0.63096 0.0
C1304 C 0.59544 0.9897 0.66362 0.0
C1305 C 0.30082 0.37321 0.9697 0.0
C1306 C 0.28115 0.40067 0.97068 0.0
C1307 C 0.29729 0.34877 0.94208 0.0
C1308 C 0.27363 0.35077 0.91486 0.0
H1309 H 0.31927 0.37073 0.99039 0.0
H1310 H 0.31338 0.32841 0.94196 0.0
S1311 S 0.21505 0.41697 0.90607 0.0
N1312 N 0.23692 0.4283 0.94274 0.0
N1313 N 0.22948 0.38177 0.8908 0.0
C1314 C 0.25339 0.37784 0.91575 0.0
C1315 C 0.25746 0.40308 0.94367 0.0
C1316 C 0.89647 0.0557 0.37666 0.0
C1317 C 0.90548 0.05086 0.34362 0.0
C1318 C 0.9192 0.05205 0.40416 0.0
C1319 C 0.95142 0.04266 0.39962 0.0
H1320 H 0.8718 0.06256 0.38131 0.0
H1321 H 0.91128 0.0565 0.42918 0.0
S1322 S 0.98703 0.02617 0.31823 0.0
N1323 N 0.9489 0.03591 0.30783 0.0
N1324 N 0.99123 0.02858 0.35976 0.0
C1325 C 0.96077 0.03768 0.36681 0.0
C1326 C 0.93787 0.04188 0.33874 0.0
C1327 C 0.31781 0.76121 0.63258 0.0
C1328 C 0.33632 0.73283 0.6297 0.0
C1329 C 0.31056 0.77568 0.66417 0.0
C1330 C 0.32228 0.76329 0.69479 0.0
H1331 H 0.30722 0.77125 0.61005 0.0
H1332 H 0.29483 0.79634 0.6645 0.0
S1333 S 0.37528 0.69185 0.70155 0.0
N1334 N 0.36782 0.69402 0.66054 0.0
N1335 N 0.35608 0.72235 0.71972 0.0
C1336 C 0.34262 0.73623 0.69232 0.0
C1337 C 0.34903 0.72068 0.65997 0.0
C1338 C 0.55945 0.04158 0.88707 0.0
C1339 C 0.58795 0.0237 0.88891 0.0
C1340 C 0.54107 0.04716 0.91557 0.0
C1341 C 0.55078 0.03596 0.94743 0.0
H1342 H 0.55152 0.05174 0.8636 0.0
H1343 H 0.51908 0.06055 0.91264 0.0
S1344 S 0.6193 0.98152 0.96335 0.0
N1345 N 0.62175 0.99049 0.9238 0.0
N1346 N 0.58905 1.00241 0.97694 0.0
C1347 C 0.57881 0.01736 0.94901 0.0
C1348 C 0.59687 1.01096 0.91998 0.0
C1349 C 0.22808 0.34299 0.13414 0.0
C1350 C 0.23922 0.37887 0.14218 0.0
C1351 C 0.22557 0.31947 0.1592 0.0
C1352 C 0.23338 0.33125 0.19302 0.0
H1353 H 0.22383 0.33245 0.10816 0.0
H1354 H 0.22011 0.29181 0.15193 0.0
S1355 S 0.25835 0.42282 0.22783 0.0
N1356 N 0.25375 0.4253 0.1867 0.0
N1357 N 0.24923 0.38111 0.23373 0.0
C1358 C 0.24127 0.36731 0.20158 0.0
C1359 C 0.24397 0.39123 0.17614 0.0
C1360 C 0.1531 0.98388 1.01522 0.0
C1361 C 0.15932 0.95785 0.03722 0.0
C1362 C 0.12969 1.0069 0.02095 0.0
C1363 C 0.1096 1.00467 0.04813 0.0
H1364 H 0.16749 0.98781 0.99361 0.0
H1365 H 0.12784 0.0273 1.00395 0.0
S1366 S 0.11514 0.9423 0.11422 0.0
N1367 N 0.14314 0.93198 0.08832 0.0
N1368 N 0.09771 0.97458 0.09817 0.0
C1369 C 0.1143 0.97826 0.07003 0.0
C1370 C 0.13923 0.95499 0.06468 0.0
C1371 C 0.64888 0.62705 0.97316 0.0
C1372 C 0.67964 0.62019 0.98845 0.0
C1373 C 0.61849 0.60805 0.98049 0.0
C1374 C 0.61814 0.58242 1.004 0.0
H1375 H 0.64833 0.64721 0.95571 0.0
H1376 H 0.59512 0.6146 0.96874 0.0
S1377 S 0.69271 0.55547 0.05092 0.0
N1378 N 0.70836 0.58652 0.02805 0.0
N1379 N 0.65151 0.55067 0.04151 0.0
C1380 C 0.649 0.57503 0.01882 0.0
C1381 C 0.67971 0.59416 1.0113 0.0
C1382 C 0.76377 0.43996 0.3466 0.0
C1383 C 0.73894 0.45023 0.32392 0.0
C1384 C 0.78241 0.4131 0.33763 0.0
C1385 C 0.77729 0.39486 0.30552 0.0
H1386 H 0.76931 0.4531 0.37155 0.0
H1387 H 0.80113 0.40662 0.35635 0.0
S1388 S 0.71619 0.41171 0.2361 0.0
N1389 N 0.71043 0.43972 0.26736 0.0
N1390 N 0.74608 0.3897 0.25065 0.0
C1391 C 0.75247 0.4045 0.28257 0.0
C1392 C 0.73316 0.43192 0.29174 0.0
C1393 C 0.85729 0.42259 0.51599 0.0
C1394 C 0.83692 0.42979 0.54194 0.0
C1395 C 0.88963 0.44154 0.51535 0.0
C1396 C 0.90305 0.46669 0.54158 0.0
H1397 H 0.8475 0.40368 0.49528 0.0
H1398 H 0.90399 0.43687 0.49402 0.0
S1399 S 0.86259 0.48803 0.61921 0.0
N1400 N 0.83383 0.45995 0.59645 0.0
N1401 N 0.8957 0.49276 0.59694 0.0
C1402 C 0.88421 0.47102 0.56934 0.0
C1403 C 0.85084 0.45314 0.56916 0.0
C1404 C 0.37019 0.20589 0.27471 0.0
C1405 C 0.36504 0.17405 0.25498 0.0
C1406 C 0.34812 0.23105 0.27049 0.0
C1407 C 0.31831 0.22417 0.24832 0.0
H1408 H 0.38978 0.21025 0.29537 0.0
H1409 H 0.35251 0.25428 0.28755 0.0
S1410 S 0.29883 0.1493 0.18429 0.0
N1411 N 0.33349 0.14155 0.20601 0.0
N1412 N 0.28935 0.18634 0.20137 0.0
C1413 C 0.31509 0.19426 0.22591 0.0
C1414 C 0.33896 0.16978 0.22865 0.0
C1415 C 0.35811 0.07523 0.48367 0.0
C1416 C 0.33858 0.09333 0.5045 0.0
C1417 C 0.37908 0.05257 0.49695 0.0
C1418 C 0.38088 0.04692 0.53142 0.0
H1419 H 0.35756 0.07902 0.45701 0.0
H1420 H 0.39526 0.0408 0.48033 0.0
S1421 S 0.3292 0.08209 0.5949 0.0
N1422 N 0.31877 0.10061 0.56025 0.0
N1423 N 0.35766 0.05682 0.58493 0.0
C1424 C 0.35973 0.06287 0.55202 0.0
C1425 C 0.33877 0.08651 0.53865 0.0
C1426 C 0.73894 0.63355 0.31393 0.0
C1427 C 0.71117 0.62721 0.33323 0.0
C1428 C 0.75255 0.66759 0.30801 0.0
C1429 C 0.73936 0.69678 0.32166 0.0
H1430 H 0.74944 0.61192 0.30216 0.0
H1431 H 0.77321 0.67107 0.29206 0.0
S1432 S 0.66717 0.69439 0.3746 0.0
N1433 N 0.67077 0.65292 0.36578 0.0
N1434 N 0.69754 0.71702 0.35631 0.0
C1435 C 0.71236 0.69087 0.34202 0.0
C1436 C 0.69782 0.65608 0.34718 0.0
C1437 C 0.84804 0.48402 0.76524 0.0
C1438 C 0.87332 0.49715 0.79084 0.0
C1439 C 0.8272 0.45266 0.76786 0.0
C1440 C 0.83002 0.43429 0.79676 0.0
H1441 H 0.84445 0.49807 0.74298 0.0
H1442 H 0.80866 0.44289 0.74721 0.0
S1443 S 0.89276 0.45763 0.87055 0.0
N1444 N 0.9017 0.48859 0.84489 0.0
N1445 N 0.86022 0.43111 0.85138 0.0
C1446 C 0.85528 0.4471 0.82254 0.0
C1447 C 0.87763 0.47819 0.81912 0.0
C1448 C 1.01388 0.87591 0.13391 0.0
C1449 C 0.98485 0.85115 0.12705 0.0
C1450 C 0.01965 0.90446 0.11425 0.0
C1451 C 0.99708 0.90894 0.08656 0.0
H1452 H 0.03289 0.87262 0.15378 0.0
H1453 H 0.04233 0.92281 0.12041 0.0
S1454 S 0.91501 0.85474 0.06064 0.0
N1455 N 0.93107 0.83588 0.09278 0.0
N1456 N 0.94314 0.88847 0.0553 0.0
C1457 C 0.96734 0.88543 0.08028 0.0
C1458 C 0.96092 0.8569 0.1007 0.0
C1459 C 0.92098 0.31348 0.86473 0.0
C1460 C 0.94585 0.29712 0.8496 0.0
C1461 C 0.88772 0.31001 0.84981 0.0
C1462 C 0.87743 0.28882 0.81983 0.0
H1463 H 0.92752 0.32992 0.88789 0.0
H1464 H 0.86979 0.32416 0.86194 0.0
S1465 S 0.93146 0.23545 0.77333 0.0
N1466 N 0.95717 0.25585 0.80487 0.0
N1467 N 0.89423 0.24856 0.77729 0.0
C1468 C 0.90151 0.27053 0.80549 0.0
C1469 C 0.93577 0.27479 0.82031 0.0
C1470 C 0.52205 0.19013 0.60799 0.0
C1471 C 0.50673 0.18272 0.63771 0.0
C1472 C 0.52651 0.16364 0.58381 0.0
C1473 C 0.51605 0.12836 0.58822 0.0
H1474 H 0.53032 0.21688 0.60309 0.0
H1475 H 0.53798 0.17103 0.5612 0.0
S1476 S 0.47779 0.0946 0.66342 0.0
N1477 N 0.48364 0.13735 0.67164 0.0
N1478 N 0.49151 0.08728 0.626 0.0
C1479 C 0.50177 0.12037 0.61847 0.0
C1480 C 0.49751 0.14757 0.64336 0.0
C1481 C 0.62778 0.78213 0.33409 0.0
C1482 C 0.62251 0.81609 0.34493 0.0
C1483 C 0.65631 0.77598 0.3173 0.0
C1484 C 0.68151 0.80332 0.31167 0.0
H1485 H 0.60874 0.76025 0.33693 0.0
H1486 H 0.65826 0.74956 0.30795 0.0
S1487 S 0.68095 0.89678 0.33744 0.0
N1488 N 0.64535 0.87732 0.34982 0.0
N1489 N 0.69974 0.86556 0.31996 0.0
C1490 C 0.67734 0.83719 0.32393 0.0
C1491 C 0.64766 0.84362 0.34006 0.0
C1492 C 0.04109 0.19464 0.52644 0.0
C1493 C 0.03323 0.19623 0.49172 0.0
C1494 C 0.03858 0.16274 0.54106 0.0
C1495 C 0.028 0.13107 0.52169 0.0
H1496 H 0.04981 0.21816 0.5425 0.0
H1497 H 0.04575 0.1629 0.56777 0.0
S1498 S 1.00451 0.1215 0.42954 0.0
N1499 N 1.01402 0.16379 0.43836 0.0
N1500 N 1.00958 0.104 0.46581 0.0
C1501 C 0.01924 0.13255 0.48713 0.0
C1502 C 0.02184 0.16508 0.47215 0.0
C1503 C 0.60038 0.31178 0.20999 0.0
C1504 C 0.59915 0.31387 0.17487 0.0
C1505 C 0.63091 0.3112 0.22913 0.0
C1506 C 0.66137 0.31355 0.21397 0.0
H1507 H 0.57742 0.30944 0.2228 0.0
H1508 H 0.6306 0.30868 0.25595 0.0
S1509 S 0.67225 0.32134 0.12328 0.0
N1510 N 0.63109 0.31915 0.12581 0.0
N1511 N 0.68898 0.31928 0.16207 0.0
C1512 C 0.66079 0.31682 0.17907 0.0
C1513 C 0.6295 0.3166 0.1594 0.0
C1514 C 0.53615 0.91651 0.96494 0.0
C1515 C 0.55439 0.88952 0.97414 0.0
C1516 C 0.53414 0.94506 0.98734 0.0
C1517 C 0.55231 0.94957 0.01912 0.0
H1518 H 0.52224 0.91534 0.94053 0.0
H1519 H 0.5186 0.96429 0.9793 0.0
S1520 S 0.60745 0.88927 0.05457 0.0
N1521 N 0.59241 0.87003 1.01733 0.0
N1522 N 0.59119 0.92621 0.05823 0.0
C1523 C 0.57238 0.92417 0.02827 0.0
C1524 C 0.573 0.8937 1.006 0.0
C1525 C 0.93047 0.86523 0.70112 0.0
C1526 C 0.93534 0.8365 0.67926 0.0
C1527 C 0.90463 0.86292 0.72289 0.0
C1528 C 0.88262 0.83191 0.72327 0.0
H1529 H 0.94758 0.88939 0.70235 0.0
H1530 H 0.90194 0.88541 0.73949 0.0
S1531 S 0.88374 0.74935 0.67086 0.0
N1532 N 0.91526 0.77632 0.65918 0.0
N1533 N 0.86661 0.77199 0.6997 0.0
C1534 C 0.88643 0.80335 0.70086 0.0
C1535 C 0.91269 0.80569 0.67879 0.0
C1536 C 0.10865 0.03561 0.90203 0.0
C1537 C 0.12687 1.00719 0.89913 0.0
C1538 C 0.08453 0.03735 0.92551 0.0
C1539 C 0.07703 1.01052 0.94706 0.0
H1540 H 0.11397 0.0574 0.88675 0.0
H1541 H 0.0724 0.06066 0.92746 0.0
S1542 S 0.11494 0.92811 0.94631 0.0
N1543 N 0.13425 0.95025 0.91774 0.0
N1544 N 0.08797 0.95275 0.96127 0.0
C1545 C 0.09358 0.98076 0.94284 0.0
C1546 C 0.11885 0.97938 0.91921 0.0
C1547 C 0.75511 0.31895 0.63489 0.0
C1548 C 0.74804 0.35356 0.63798 0.0
C1549 C 0.76358 0.30102 0.66327 0.0
C1550 C 0.76511 0.31644 0.69646 0.0
H1551 H 0.75481 0.30567 0.61015 0.0
H1552 H 0.76884 0.2745 0.65902 0.0
S1553 S 0.74453 0.40523 0.71878 0.0
N1554 N 0.7412 0.40202 0.6772 0.0
N1555 N 0.75568 0.36799 0.73038 0.0
C1556 C 0.75719 0.35082 0.70001 0.0
C1557 C 0.74909 0.36939 0.67091 0.0
C1558 C 0.42758 0.10489 0.40959 0.0
C1559 C 0.44336 0.1027 0.37916 0.0
C1560 C 0.44356 0.09767 0.44061 0.0
C1561 C 0.47645 0.0883 0.44321 0.0
H1562 H 0.40185 0.11065 0.40936 0.0
H1563 H 0.42949 0.09851 0.46262 0.0
S1564 S 0.53142 0.08404 0.37258 0.0
N1565 N 0.49568 0.09391 0.35484 0.0
N1566 N 0.52573 0.08124 0.41283 0.0
C1567 C 0.49358 0.08865 0.41357 0.0
C1568 C 0.47714 0.09565 0.38181 0.0
C1569 C 0.7644 0.68187 0.12128 0.0
C1570 C 0.76692 0.70119 0.09294 0.0
C1571 C 0.76011 0.6981 0.15265 0.0
C1572 C 0.75724 0.73384 0.15632 0.0
H1573 H 0.76614 0.65421 0.11927 0.0
H1574 H 0.7589 0.68252 0.17415 0.0
S1575 S 0.76092 0.79559 0.08956 0.0
N1576 N 0.76571 0.75784 0.07031 0.0
N1577 N 0.75678 0.78796 0.12928 0.0
C1578 C 0.75911 0.7533 0.12812 0.0
C1579 C 0.76423 0.73703 0.09637 0.0
C1580 C 0.10688 0.99175 0.69842 0.0
C1581 C 0.13883 1.01044 0.70936 0.0
C1582 C 0.09031 0.99663 0.6672 0.0
C1583 C 0.10496 0.0205 0.6458 0.0
H1584 H 0.09399 0.97403 0.71456 0.0
H1585 H 0.0654 0.98234 0.66028 0.0
S1586 S 0.18971 0.07293 0.66061 0.0
N1587 N 0.18569 0.05149 0.6947 0.0
N1588 N 0.15447 0.06068 0.63622 0.0
C1589 C 0.13763 0.03787 0.65549 0.0
C1590 C 0.15461 0.03278 0.68719 0.0
C1591 C 0.72263 0.37782 0.41194 0.0
C1592 C 0.73569 0.36825 0.44329 0.0
C1593 C 0.72853 0.36028 0.38118 0.0
C1594 C 0.74898 0.33327 0.38016 0.0
H1595 H 0.70852 0.39975 0.41108 0.0
H1596 H 0.71848 0.36935 0.35792 0.0
S1597 S 0.78934 0.29807 0.45499 0.0
N1598 N 0.76935 0.32901 0.47105 0.0
N1599 N 0.78145 0.29733 0.41378 0.0
C1600 C 0.7616 0.32302 0.41135 0.0
C1601 C 0.75476 0.34015 0.44264 0.0
C1602 C 0.49194 0.09763 0.18053 0.0
C1603 C 0.46378 0.07344 0.18554 0.0
C1604 C 0.51145 0.09327 0.1531 0.0
C1605 C 0.50442 0.06414 0.12929 0.0
H1606 H 0.49909 0.12035 0.19807 0.0
H1607 H 0.53267 0.11307 0.15081 0.0
S1608 S 0.43498 0.99147 0.13197 0.0
N1609 N 0.43031 0.01842 0.16454 0.0
N1610 N 0.46765 1.00981 0.11361 0.0
C1611 C 0.47636 0.03955 0.13389 0.0
C1612 C 0.45597 0.04429 0.16176 0.0
C1613 C 0.79421 0.73582 0.9209 0.0
C1614 C 0.78869 0.70019 0.90895 0.0
C1615 C 0.79472 0.76236 0.89876 0.0
C1616 C 0.7901 0.75409 0.86405 0.0
H1617 H 0.79635 0.74345 0.94762 0.0
H1618 H 0.79711 0.78924 0.90883 0.0
S1619 S 0.77929 0.66587 0.81943 0.0
N1620 N 0.78239 0.65878 0.85972 0.0
N1621 N 0.78253 0.70856 0.81839 0.0
C1622 C 0.78682 0.71894 0.8517 0.0
C1623 C 0.78649 0.69197 0.87408 0.0
C1624 C 0.88621 0.08006 0.99637 0.0
C1625 C 0.89251 0.11545 1.00933 0.0
C1626 C 0.91125 0.05768 0.99724 0.0
C1627 C 0.94482 0.06917 1.01 0.0
H1628 H 0.86118 0.06879 0.98587 0.0
H1629 H 0.90398 0.03072 0.98784 0.0
S1630 S 0.97675 0.16024 0.0439 0.0
N1631 N 0.93609 0.16118 0.03411 0.0
N1632 N 0.98353 0.11997 0.03375 0.0
C1633 C 0.95219 0.10494 0.02162 0.0
C1634 C 0.92613 0.1277 0.02179 0.0
C1635 C 0.39137 0.45738 0.06404 0.0
C1636 C 0.36883 0.47285 0.08344 0.0
C1637 C 0.42367 0.47483 0.0608 0.0
C1638 C 0.43472 0.50772 0.0777 0.0
H1639 H 0.38325 0.43269 0.04962 0.0
H1640 H 0.43963 0.46313 0.0439 0.0
S1641 S 0.38803 0.55524 0.13774 0.0
N1642 N 0.36137 0.52015 0.12389 0.0
N1643 N 0.42266 0.55272 0.11826 0.0
C1644 C 0.4136 0.52198 0.09957 0.0
C1645 C 0.38043 0.50446 0.10244 0.0
C1646 C 0.31761 0.65839 0.80371 0.0
C1647 C 0.32014 0.6382 0.77363 0.0
C1648 C 0.30016 0.68764 0.80391 0.0
C1649 C 0.28366 0.697 0.77419 0.0
H1650 H 0.32852 0.65099 0.82738 0.0
H1651 H 0.29858 0.70225 0.82764 0.0
S1652 S 0.28257 0.65218 0.68887 0.0
N1653 N 0.30521 0.62981 0.71347 0.0
N1654 N 0.27162 0.68376 0.71367 0.0
C1655 C 0.28642 0.67713 0.74389 0.0
C1656 C 0.30484 0.64799 0.74366 0.0
C1657 C 0.2231 0.62198 0.5516 0.0
C1658 C 0.229 0.65328 0.5358 0.0
C1659 C 0.19009 0.60652 0.55572 0.0
C1660 C 0.16184 0.62173 0.54399 0.0
H1661 H 0.24416 0.60925 0.56064 0.0
H1662 H 0.18668 0.58203 0.56734 0.0
S1663 S 0.16402 0.70543 0.50391 0.0
N1664 N 0.20418 0.70052 0.51123 0.0
N1665 N 0.14215 0.67102 0.5178 0.0
C1666 C 0.16753 0.6537 0.52931 0.0
C1667 C 0.20113 0.66974 0.52578 0.0
C1668 C 0.70222 0.9187 0.8396 0.0
C1669 C 0.675 0.92021 0.81504 0.0
C1670 C 0.72508 0.89442 0.8363 0.0
C1671 C 0.72146 0.8693 0.80898 0.0
H1672 H 0.70753 0.93806 0.86077 0.0
H1673 H 0.74661 0.89628 0.85478 0.0
S1674 S 0.65061 0.85592 0.74157 0.0
N1675 N 0.64352 0.89073 0.76458 0.0
N1676 N 0.68493 0.84338 0.75981 0.0
C1677 C 0.69225 0.86763 0.78628 0.0
C1678 C 0.66943 0.89335 0.78898 0.0
C1679 C 0.69805 0.03703 0.53974 0.0
C1680 C 0.70138 1.00131 0.53883 0.0
C1681 C 0.66729 0.04823 0.5301 0.0
C1682 C 0.63888 0.0241 0.51901 0.0
H1683 H 0.71937 0.0566 0.54819 0.0
H1684 H 0.66561 0.0759 0.53211 0.0
S1685 S 0.63467 0.92773 0.51019 0.0
N1686 N 0.67403 0.94193 0.52489 0.0
N1687 N 0.61599 0.9629 0.50643 0.0
C1688 C 0.64194 0.9883 0.5173 0.0
C1689 C 0.67323 0.97689 0.52746 0.0
C1690 C 0.31336 0.43968 0.73955 0.0
C1691 C 0.34194 0.45544 0.76049 0.0
C1692 C 0.30041 0.40423 0.74118 0.0
C1693 C 0.31552 0.38356 0.76401 0.0
H1694 H 0.30051 0.45504 0.72235 0.0
H1695 H 0.27746 0.39354 0.72588 0.0
S1696 S 0.39262 0.41167 0.82184 0.0
N1697 N 0.38659 0.44678 0.80227 0.0
N1698 N 0.36179 0.38104 0.80634 0.0
C1699 C 0.34499 0.39874 0.78381 0.0
C1700 C 0.35845 0.43439 0.78164 0.0
C1701 C 0.15744 0.62753 0.29683 0.0
C1702 C 0.16683 0.59543 0.286 0.0
C1703 C 0.17892 0.65857 0.29426 0.0
C1704 C 0.20998 0.65855 0.27988 0.0
H1705 H 0.13444 0.62849 0.30925 0.0
H1706 H 0.17155 0.68265 0.30463 0.0
S1707 S 0.24018 0.58201 0.23785 0.0
N1708 N 0.20521 0.5658 0.25386 0.0
N1709 N 0.2453 0.62436 0.24833 0.0
C1710 C 0.21763 0.62695 0.26543 0.0
C1711 C 0.19601 0.59527 0.26857 0.0
C1712 C 0.5615 0.72571 0.47654 0.0
C1713 C 0.54118 0.72118 0.44573 0.0
C1714 C 0.5614 0.69908 0.49859 0.0
C1715 C 0.54079 0.66713 0.49063 0.0
H1716 H 0.57752 0.75015 0.48383 0.0
H1717 H 0.57762 0.70349 0.52184 0.0
S1718 S 0.48159 0.64269 0.41392 0.0
N1719 N 0.49933 0.6826 0.4089 0.0
N1720 N 0.49868 0.63266 0.45026 0.0
C1721 C 0.52017 0.66232 0.45997 0.0
C1722 C 0.52054 0.68929 0.43747 0.0
C1723 C 0.62994 0.27891 0.70978 0.0
C1724 C 0.60492 0.29534 0.72471 0.0
C1725 C 0.66301 0.28181 0.72519 0.0
C1726 C 0.67293 0.30185 0.75593 0.0
H1727 H 0.62366 0.26247 0.6866 0.0
H1728 H 0.68099 0.26776 0.71303 0.0
S1729 S 0.61818 0.35276 0.80411 0.0
N1730 N 0.59302 0.33408 0.77141 0.0
N1731 N 0.65555 0.34023 0.79967 0.0
C1732 C 0.64877 0.31989 0.77035 0.0
C1733 C 0.61472 0.31638 0.75499 0.0
C1734 C 0.02108 0.43885 0.92272 0.0
C1735 C 0.02966 0.40607 0.93059 0.0
C1736 C 1.0132 0.46303 0.94792 0.0
C1737 C 1.01271 0.45507 0.98186 0.0
H1738 H 0.01956 0.44559 0.89683 0.0
H1739 H 1.00623 0.48767 0.94056 0.0
S1740 S 0.03667 0.37523 1.01716 0.0
N1741 N 0.04035 0.36901 0.97645 0.0
N1742 N 0.02398 0.41379 0.02253 0.0
C1743 C 0.02226 0.42322 0.99035 0.0
C1744 C 0.03116 0.39897 0.96511 0.0
C1745 C 0.87448 0.76483 0.21076 0.0
C1746 C 0.90797 0.76215 0.22312 0.0
C1747 C 0.84972 0.77202 0.23247 0.0
C1748 C 0.85704 0.77648 0.26761 0.0
H1749 H 0.86739 0.76232 0.18392 0.0
H1750 H 0.82491 0.77514 0.22147 0.0
S1751 S 0.93987 0.77041 0.31357 0.0
N1752 N 0.94644 0.76352 0.27355 0.0
N1753 N 0.89992 0.77663 0.31395 0.0
C1754 C 0.89007 0.7732 0.28046 0.0
C1755 C 0.91543 0.76608 0.2584 0.0
C1756 C 0.51736 0.4173 0.08903 0.0
C1757 C 0.51039 0.38666 0.0674 0.0
C1758 C 0.52163 0.45024 0.07607 0.0
C1759 C 0.5197 0.45349 0.04117 0.0
H1760 H 0.51753 0.41597 0.11603 0.0
H1761 H 0.5241 0.47302 0.09348 0.0
S1762 S 0.50651 0.38169 0.97392 0.0
N1763 N 0.50487 0.36207 1.00925 0.0
N1764 N 0.51333 0.42377 0.9854 0.0
C1765 C 0.51471 0.42319 0.01946 0.0
C1766 C 0.51007 0.38982 0.03244 0.0
C1767 C 0.9604 0.2775 0.37683 0.0
C1768 C 0.96487 0.29992 0.40645 0.0
C1769 C 0.93171 0.27607 0.35431 0.0
C1770 C 0.90656 0.29666 0.3611 0.0
H1771 H 0.97953 0.26135 0.37075 0.0
H1772 H 0.92936 0.2591 0.33137 0.0
S1773 S 0.90466 0.35711 0.43642 0.0
N1774 N 0.9408 0.34125 0.44247 0.0
N1775 N 0.88649 0.33853 0.39998 0.0
C1776 C 0.90993 0.31806 0.39122 0.0
C1777 C 0.93918 0.31954 0.41415 0.0
C1778 C 0.987 0.68165 0.60306 0.0
C1779 C 0.98606 0.71016 0.58334 0.0
C1780 C 0.98901 0.64834 0.58835 0.0
C1781 C 0.98991 0.64204 0.55341 0.0
H1782 H 0.98836 0.68538 0.63026 0.0
H1783 H 0.99273 0.62813 0.60489 0.0
S1784 S 0.98484 0.70669 0.48999 0.0
N1785 N 0.98321 0.72912 0.52628 0.0
N1786 N 0.98766 0.66625 0.49916 0.0
C1787 C 0.98701 0.66968 0.53313 0.0
C1788 C 0.98466 0.70375 0.54797 0.0
C1789 C 0.61146 0.79132 0.83712 0.0
C1790 C 0.61163 0.7795 0.86981 0.0
C1791 C 0.63034 0.77791 0.81284 0.0
C1792 C 0.65145 0.75285 0.82017 0.0
H1793 H 0.59601 0.81086 0.8296 0.0
H1794 H 0.62929 0.78846 0.78841 0.0
S1795 S 0.66282 0.7136 0.90183 0.0
N1796 N 0.63499 0.74072 0.90806 0.0
N1797 N 0.67231 0.71685 0.86255 0.0
C1798 C 0.65248 0.74081 0.8527 0.0
C1799 C 0.63239 0.75397 0.87749 0.0
C1800 C 0.42025 0.54444 0.65066 0.0
C1801 C 0.42775 0.56806 0.67915 0.0
C1802 C 0.44356 0.54176 0.62658 0.0
C1803 C 0.47531 0.56287 0.62963 0.0
H1804 H 0.39685 0.52664 0.64767 0.0
H1805 H 0.43661 0.52255 0.60546 0.0
S1806 S 0.50558 0.63203 0.69741 0.0
N1807 N 0.46811 0.61516 0.70775 0.0
N1808 N 0.51162 0.61043 0.66186 0.0
C1809 C 0.48233 0.58812 0.65687 0.0
C1810 C 0.45868 0.59058 0.68178 0.0
C1811 C 0.79578 0.2123 0.90057 0.0
C1812 C 0.80509 0.2256 0.93436 0.0
C1813 C 0.78802 0.23391 0.87452 0.0
C1814 C 0.78882 0.27012 0.88083 0.0
H1815 H 0.79405 0.18461 0.89428 0.0
H1816 H 0.78111 0.2221 0.84925 0.0
S1817 S 0.81266 0.31919 0.96427 0.0
N1818 N 0.81543 0.27835 0.97191 0.0
N1819 N 0.80092 0.31852 0.9237 0.0
C1820 C 0.79871 0.28397 0.91432 0.0
C1821 C 0.8068 0.26199 0.94076 0.0
C1822 C 0.04343 0.49403 0.19118 0.0
C1823 C 0.07799 0.49019 0.19663 0.0
C1824 C 0.0286 0.50009 0.15909 0.0
C1825 C 0.04751 0.50249 0.13071 0.0
H1826 H 0.02794 0.49387 0.21221 0.0
H1827 H 1.00231 0.50408 0.15684 0.0
S1828 S 0.13816 0.49006 0.13038 0.0
N1829 N 0.12993 0.4865 0.16994 0.0
N1830 N 0.10249 0.49714 0.11022 0.0
C1831 C 0.08173 0.49688 0.13558 0.0
C1832 C 0.09678 0.49096 0.16823 0.0
C1833 C 0.77945 0.93183 0.43643 0.0
C1834 C 0.79678 0.92519 0.4666 0.0
C1835 C 0.7759 0.90745 0.40851 0.0
C1836 C 0.78995 0.87607 0.40996 0.0
H1837 H 0.76724 0.95505 0.43493 0.0
H1838 H 0.76154 0.91295 0.38586 0.0
S1839 S 0.84031 0.84838 0.48253 0.0
N1840 N 0.82974 0.88625 0.49591 0.0
N1841 N 0.82366 0.84091 0.44323 0.0
C1842 C 0.80855 0.86997 0.43956 0.0
C1843 C 0.81187 0.8945 0.46795 0.0
C1844 C 0.39898 0.57045 0.89188 0.0
C1845 C 0.40457 0.55289 0.86141 0.0
C1846 C 0.42347 0.57419 0.91949 0.0
C1847 C 0.45387 0.55982 0.91758 0.0
H1848 H 0.37587 0.58176 0.89421 0.0
H1849 H 0.41814 0.58758 0.94272 0.0
S1850 S 0.47974 0.51043 0.84363 0.0
N1851 N 0.44238 0.52071 0.83099 0.0
N1852 N 0.48785 0.52709 0.88294 0.0
C1853 C 0.45952 0.54208 0.88728 0.0
C1854 C 0.43496 0.53873 0.85919 0.0
C1855 C 0.79978 0.23638 0.13616 0.0
C1856 C 0.83284 0.23199 0.12883 0.0
C1857 C 0.79312 0.25428 0.16626 0.0
C1858 C 0.81911 0.2682 0.19126 0.0
H1859 H 0.77864 0.22604 0.11819 0.0
H1860 H 0.76702 0.25642 0.17024 0.0
S1861 S 0.91048 0.26355 0.1848 0.0
N1862 N 0.89217 0.24351 0.14899 0.0
N1863 N 0.87976 0.27582 0.20618 0.0
C1864 C 0.85244 0.26373 0.18439 0.0
C1865 C 0.85928 0.24609 0.15312 0.0
C1866 C 0.07277 0.49576 0.405 0.0
C1867 C 0.08985 0.52584 0.39297 0.0
C1868 C 0.05405 0.49767 0.43349 0.0
C1869 C 0.05177 0.52969 0.4517 0.0
H1870 H 0.07443 0.4704 0.39273 0.0
H1871 H 0.04159 0.47358 0.44163 0.0
S1872 S 0.08725 0.61666 0.42766 0.0
N1873 N 0.09967 0.58912 0.39942 0.0
N1874 N 0.06575 0.59245 0.45331 0.0
C1875 C 0.06787 0.56004 0.43937 0.0
C1876 C 0.08655 0.55815 0.41004 0.0
C1877 C 0.7385 0.85072 0.62926 0.0
C1878 C 0.74308 0.88719 0.63683 0.0
C1879 C 0.73549 0.82771 0.65478 0.0
C1880 C 0.73649 0.84062 0.68838 0.0
H1881 H 0.7401 0.83983 0.60387 0.0
H1882 H 0.73557 0.80014 0.64854 0.0
S1883 S 0.74054 0.93304 0.72063 0.0
N1884 N 0.74266 0.93452 0.67965 0.0
N1885 N 0.73729 0.89136 0.7276 0.0
C1886 C 0.73719 0.87666 0.69577 0.0
C1887 C 0.74041 0.90002 0.66994 0.0
C1888 C 0.63727 0.45887 0.5556 0.0
C1889 C 0.67087 0.47358 0.55185 0.0
C1890 C 0.61116 0.48014 0.56016 0.0
C1891 C 0.61774 0.51706 0.56252 0.0
H1892 H 0.63078 0.43082 0.55367 0.0
H1893 H 0.58569 0.46749 0.56138 0.0
S1894 S 0.70113 0.56901 0.55505 0.0
N1895 N 0.70808 0.52822 0.55022 0.0
N1896 N 0.66091 0.56683 0.56158 0.0
C1897 C 0.65133 0.53177 0.56002 0.0
C1898 C 0.67724 0.51051 0.554 0.0
C1899 C 0.1813 0.09814 0.49647 0.0
C1900 C 0.18158 0.12702 0.47705 0.0
C1901 C 0.15138 0.07719 0.50087 0.0
C1902 C 0.12035 0.08449 0.48638 0.0
H1903 H 0.20451 0.09183 0.50884 0.0
H1904 H 0.15268 0.05541 0.51631 0.0
S1905 S 0.10756 0.1579 0.4337 0.0
N1906 N 0.14879 0.16255 0.44352 0.0
N1907 N 0.09167 0.12294 0.45159 0.0
C1908 C 0.12021 0.11331 0.46658 0.0
C1909 C 0.15103 0.13487 0.46224 0.0
C1910 C 0.24781 0.91868 0.841 0.0
C1911 C 0.23466 0.93633 0.81445 0.0
C1912 C 0.26733 0.89171 0.83509 0.0
C1913 C 0.27389 0.88043 0.80231 0.0
H1914 H 0.24352 0.9262 0.86675 0.0
H1915 H 0.27745 0.87958 0.85657 0.0
S1916 S 0.25265 0.92327 0.72504 0.0
N1917 N 0.23501 0.94454 0.75467 0.0
N1918 N 0.26976 0.89218 0.74352 0.0
C1919 C 0.26173 0.8983 0.77556 0.0
C1920 C 0.24256 0.92657 0.78163 0.0
C1921 C 0.35609 0.92167 0.01935 0.0
C1922 C 0.33205 0.9351 0.03837 0.0
C1923 C 0.38811 0.94086 1.01763 0.0
C1924 C 0.39715 0.97386 0.0352 0.0
H1925 H 0.34967 0.89685 1.00474 0.0
H1926 H 0.4056 0.93009 1.00186 0.0
S1927 S 0.34571 0.01634 0.09471 0.0
N1928 N 0.32124 0.9803 0.07947 0.0
N1929 N 0.38091 0.01674 0.07574 0.0
C1930 C 0.37398 0.98639 0.056 0.0
C1931 C 0.34159 0.9668 0.05786 0.0
C1932 C 0.8387 0.66751 0.73362 0.0
C1933 C 0.86563 0.67276 0.75917 0.0
C1934 C 0.815 0.69128 0.73031 0.0
C1935 C 0.81791 0.72203 0.75164 0.0
H1936 H 0.83437 0.64356 0.71757 0.0
H1937 H 0.7933 0.68453 0.7121 0.0
S1938 S 0.88918 0.75237 0.81654 0.0
N1939 N 0.8966 0.71335 0.80265 0.0
N1940 N 0.85465 0.75959 0.79437 0.0
C1941 C 0.84746 0.72972 0.77409 0.0
C1942 C 0.87068 0.7048 0.77834 0.0
C1943 C 0.85752 0.57218 0.98631 0.0
C1944 C 0.83838 0.59028 1.00752 0.0
C1945 C 0.87799 0.54884 0.99908 0.0
C1946 C 0.87976 0.54256 0.03343 0.0
H1947 H 0.85681 0.57624 0.95971 0.0
H1948 H 0.89369 0.53684 0.98209 0.0
S1949 S 0.82892 0.57765 0.0977 0.0
N1950 N 0.8188 0.59696 0.06346 0.0
N1951 N 0.85694 0.55208 0.0872 0.0
C1952 C 0.8591 0.55869 0.05442 0.0
C1953 C 0.83858 0.58295 0.04156 0.0
C1954 C 0.23342 0.11938 0.80575 0.0
C1955 C 0.20486 0.11211 0.82378 0.0
C1956 C 0.24742 0.15379 0.80176 0.0
C1957 C 0.23391 0.18235 0.81626 0.0
H1958 H 0.24427 0.09826 0.7935 0.0
H1959 H 0.2687 0.15808 0.78668 0.0
S1960 S 0.16001 0.17735 0.86702 0.0
N1961 N 0.16348 0.13622 0.85624 0.0
N1962 N 0.19112 0.20098 0.85062 0.0
C1963 C 0.20615 0.17546 0.83548 0.0
C1964 C 0.19116 0.14033 0.83858 0.0
C1965 C 0.34208 0.98657 0.26637 0.0
C1966 C 0.36938 0.99853 0.29025 0.0
C1967 C 0.32117 0.9554 0.26961 0.0
C1968 C 0.32623 0.93583 0.29735 0.0
H1969 H 0.33697 1.00138 0.24494 0.0
H1970 H 0.30095 0.94661 0.25027 0.0
S1971 S 0.39453 0.95584 0.36658 0.0
N1972 N 0.40158 0.98779 0.34157 0.0
N1973 N 0.36056 0.93026 0.34906 0.0
C1974 C 0.35347 0.94745 0.32141 0.0
C1975 C 0.37562 0.97854 0.31742 0.0
C1976 C 0.46452 0.36289 0.60622 0.0
C1977 C 0.48886 0.3563 0.63174 0.0
C1978 C 0.47018 0.39123 0.58646 0.0
C1979 C 0.5002 0.41448 0.59163 0.0
H1980 H 0.44112 0.34538 0.60063 0.0
H1981 H 0.45089 0.39489 0.567 0.0
S1982 S 0.57154 0.4106 0.6558 0.0
N1983 N 0.5439 0.37653 0.66146 0.0
N1984 N 0.55422 0.4302 0.6248 0.0
C1985 C 0.5243 0.40915 0.61773 0.0
C1986 C 0.51866 0.38008 0.63774 0.0
C1987 C 0.43222 0.77613 0.32398 0.0
C1988 C 0.44241 0.79862 0.35322 0.0
C1989 C 0.39869 0.77225 0.3089 0.0
C1990 C 0.37446 0.791 0.32249 0.0
H1991 H 0.45029 0.76155 0.31269 0.0
H1992 H 0.39202 0.7554 0.28604 0.0
S1993 S 0.38777 0.85067 0.40034 0.0
N1994 N 0.4249 0.8375 0.39641 0.0
N1995 N 0.36269 0.83112 0.36805 0.0
C1996 C 0.38426 0.81256 0.35232 0.0
C1997 C 0.41795 0.81598 0.3678 0.0
C1998 C 0.9954 0.64413 0.14257 0.0
C1999 C 1.00799 0.6792 0.139 0.0
C2000 C 1.00156 0.61712 0.11915 0.0
C2001 C 0.02153 0.62429 0.09222 0.0
H2002 H 0.98004 0.63766 0.16299 0.0
H2003 H 0.99117 0.59052 0.12249 0.0
S2004 S 0.0635 0.71133 0.0744 0.0
N2005 N 0.04308 0.71906 0.1078 0.0
N2006 N 0.05537 0.6689 0.06488 0.0
C2007 C 0.03523 0.6591 0.08942 0.0
C2008 C 0.02843 0.68636 0.1126 0.0
C2009 C 0.152 0.34076 0.83689 0.0
C2010 C 0.12367 0.31577 0.83946 0.0
C2011 C 0.18033 0.33184 0.82079 0.0
C2012 C 0.18071 0.29808 0.80548 0.0
H2013 H 0.15223 0.36729 0.84723 0.0
H2014 H 0.2016 0.35175 0.81945 0.0
S2015 S 0.11252 0.22352 0.80496 0.0
N2016 N 0.09828 0.25574 0.82608 0.0
N2017 N 0.15008 0.23974 0.79441 0.0
C2018 C 0.15251 0.27306 0.80807 0.0
C2019 C 0.12441 0.28172 0.82537 0.0
C2020 C 0.57367 0.68462 1.0074 0.0
C2021 C 0.54505 0.6942 0.98983 0.0
C2022 C 0.57054 0.65758 0.02905 0.0
C2023 C 0.53865 0.6397 0.03423 0.0
H2024 H 0.59854 0.69818 1.00448 0.0
H2025 H 0.5933 0.65058 0.04169 0.0
S2026 S 0.45591 0.65963 0.99866 0.0
N2027 N 0.48388 0.68611 0.9811 0.0
N2028 N 0.47802 0.63685 0.02341 0.0
C2029 C 0.50991 0.65009 1.01778 0.0
C2030 C 0.51311 0.67695 0.99511 0.0
C2031 C 0.13205 0.81898 0.65736 0.0
C2032 C 0.10005 0.80486 0.66564 0.0
C2033 C 0.16079 0.81712 0.67915 0.0
C2034 C 0.15818 0.80028 0.70918 0.0
H2035 H 0.13467 0.83277 0.63482 0.0
H2036 H 0.18509 0.82918 0.67259 0.0
S2037 S 0.08026 0.75392 0.73849 0.0
N2038 N 0.0675 0.77019 0.70335 0.0
N2039 N 0.12146 0.76607 0.744 0.0
C2040 C 0.12645 0.78417 0.71643 0.0
C2041 C 0.09733 0.78648 0.69457 0.0
C2042 C 0.09115 0.42481 0.48038 0.0
C2043 C 0.07538 0.39278 0.48978 0.0
C2044 C 0.08955 0.45603 0.4996 0.0
C2045 C 0.07124 0.45639 0.52829 0.0
H2046 H 0.10309 0.42607 0.457 0.0
H2047 H 0.1001 0.48023 0.49013 0.0
S2048 S 0.03069 0.37948 0.56714 0.0
N2049 N 0.04541 0.36316 0.53296 0.0
N2050 N 0.04145 0.42204 0.56796 0.0
C2051 C 0.05816 0.42446 0.53969 0.0
C2052 C 0.06043 0.39258 0.52068 0.0
C2053 C 0.42874 0.33184 0.19718 0.0
C2054 C 0.41748 0.32757 0.16253 0.0
C2055 C 0.40819 0.34237 0.22153 0.0
C2056 C 0.3755 0.34944 0.21249 0.0
H2057 H 0.45342 0.32592 0.20603 0.0
H2058 H 0.41748 0.34333 0.24781 0.0
S2059 S 0.33483 0.34681 0.12538 0.0
N2060 N 0.37219 0.33452 0.12042 0.0
N2061 N 0.33353 0.35474 0.16633 0.0
C2062 C 0.3645 0.3477 0.17791 0.0
C2063 C 0.38545 0.3366 0.15293 0.0
C2064 C 0.64697 0.53896 0.44897 0.0
C2065 C 0.63977 0.52108 0.41689 0.0
C2066 C 0.62191 0.54063 0.47147 0.0
C2067 C 0.58883 0.52332 0.46371 0.0
H2068 H 0.67176 0.55318 0.45638 0.0
H2069 H 0.62843 0.55618 0.49512 0.0
S2070 S 0.55753 0.46885 0.3853 0.0
N2071 N 0.59721 0.48326 0.37969 0.0
N2072 N 0.55083 0.48514 0.42306 0.0
C2073 C 0.5817 0.50331 0.43288 0.0
C2074 C 0.60696 0.50246 0.4093 0.0
C2075 C 0.25674 0.81878 0.13435 0.0
C2076 C 0.24832 0.85293 0.13653 0.0
C2077 C 0.26515 0.80162 0.16322 0.0
C2078 C 0.26526 0.81732 0.19612 0.0
H2079 H 0.25733 0.80516 0.10991 0.0
H2080 H 0.27124 0.77534 0.15959 0.0
S2081 S 0.24133 0.90515 0.21619 0.0
N2082 N 0.239 0.90134 0.17462 0.0
N2083 N 0.25352 0.86871 0.2288 0.0
C2084 C 0.25627 0.85133 0.19881 0.0
C2085 C 0.24818 0.86915 0.16916 0.0
C2086 C 0.927 0.60102 0.91323 0.0
C2087 C 0.94299 0.59936 0.88292 0.0
C2088 C 0.94279 0.59315 0.94413 0.0
C2089 C 0.9756 0.5835 0.94664 0.0
H2090 H 0.90135 0.60701 0.91297 0.0
H2091 H 0.9287 0.59381 0.96613 0.0
S2092 S 0.03053 0.57899 0.87603 0.0
N2093 N 0.99522 0.59006 0.85855 0.0
N2094 N 0.02463 0.57572 0.91616 0.0
C2095 C 0.99277 0.58397 0.91707 0.0
C2096 C 0.97664 0.59182 0.88551 0.0
C2097 C 0.26591 0.23447 0.5966 0.0
C2098 C 0.26821 0.19878 0.59071 0.0
C2099 C 0.26228 0.24887 0.62884 0.0
C2100 C 0.2615 0.22811 0.6562 0.0
H2101 H 0.26635 0.25134 0.57605 0.0
H2102 H 0.26054 0.27646 0.63238 0.0
S2103 S 0.2681 0.13349 0.65406 0.0
N2104 N 0.26993 0.14311 0.61456 0.0
N2105 N 0.26405 0.17023 0.67565 0.0
C2106 C 0.26415 0.19241 0.65071 0.0
C2107 C 0.26724 0.17767 0.61775 0.0
C2108 C 0.63995 0.55641 0.21163 0.0
C2109 C 0.63753 0.52447 0.22645 0.0
C2110 C 0.62033 0.56013 0.18196 0.0
C2111 C 0.59861 0.53172 0.16564 0.0
H2112 H 0.65589 0.57913 0.22391 0.0
H2113 H 0.62212 0.58541 0.17174 0.0
S2114 S 0.58484 0.44206 0.19298 0.0
N2115 N 0.61233 0.46376 0.22238 0.0
N2116 N 0.57684 0.47029 0.16522 0.0
C2117 C 0.59705 0.49925 0.17929 0.0
C2118 C 0.61617 0.49574 0.21017 0.0
C2119 C 0.21463 0.8614 0.91054 0.0
C2120 C 0.23094 0.8543 0.9414 0.0
C2121 C 0.21776 0.84185 0.88008 0.0
C2122 C 0.23853 0.81515 0.8787 0.0
H2123 H 0.20023 0.88313 0.90971 0.0
H2124 H 0.20547 0.84933 0.85711 0.0
S2125 S 0.28531 0.78488 0.95284 0.0
N2126 N 0.2668 0.81699 0.96888 0.0
N2127 N 0.2738 0.78128 0.91206 0.0
C2128 C 0.25369 0.80677 0.90973 0.0
C2129 C 0.24973 0.8261 0.94084 0.0
C2130 C 1.00456 0.57426 0.6936 0.0
C2131 C 0.96938 0.57543 0.69053 0.0
C2132 C 0.0229 0.5695 0.66511 0.0
C2133 C 1.00701 0.56489 0.63206 0.0
H2134 H 0.01822 0.57733 0.7183 0.0
H2135 H 0.05001 0.56995 0.669 0.0
S2136 S 0.91663 0.57228 0.60981 0.0
N2137 N 0.9203 0.57575 0.65132 0.0
N2138 N 0.95403 0.56539 0.59841 0.0
C2139 C 0.97183 0.56613 0.62873 0.0
C2140 C 0.9533 0.57176 0.65769 0.0
C2141 C 0.30772 0.24427 0.42063 0.0
C2142 C 0.30161 0.20868 0.4087 0.0
C2143 C 0.31027 0.2708 0.39833 0.0
C2144 C 0.30723 0.26262 0.3635 0.0
H2145 H 0.30828 0.25185 0.44725 0.0
H2146 H 0.3123 0.29769 0.4083 0.0
S2147 S 0.293 0.17386 0.31948 0.0
N2148 N 0.29586 0.16709 0.35975 0.0
N2149 N 0.29802 0.21655 0.31844 0.0
C2150 C 0.3031 0.22728 0.35154 0.0
C2151 C 0.30122 0.20038 0.37401 0.0
C2152 C 0.4225 0.62588 0.53486 0.0
C2153 C 0.3978 0.62281 0.50727 0.0
C2154 C 0.44783 0.60345 0.53693 0.0
C2155 C 0.44962 0.57633 0.51182 0.0
H2156 H 0.42151 0.6448 0.55578 0.0
H2157 H 0.46542 0.60669 0.55917 0.0
S2158 S 0.39432 0.55945 0.43221 0.0
N2159 N 0.37976 0.59213 0.45227 0.0
N2160 N 0.42615 0.55006 0.45711 0.0
C2161 C 0.42621 0.57398 0.4835 0.0
C2162 C 0.4008 0.59708 0.48101 0.0
C2163 C 0.88857 0.95554 0.54793 0.0
C2164 C 0.8742 0.97313 0.5738 0.0
C2165 C 0.92182 0.96598 0.54081 0.0
C2166 C 0.94225 0.99336 0.56025 0.0
H2167 H 0.87336 0.93505 0.53172 0.0
H2168 H 0.93106 0.95363 0.51895 0.0
S2169 S 0.91848 0.04276 0.63525 0.0
N2170 N 0.88389 0.01587 0.62185 0.0
N2171 N 0.9472 0.03485 0.60925 0.0
C2172 C 0.92923 1.00887 0.5883 0.0
C2173 C 0.89493 0.99882 0.59498 0.0
C2174 C 0.81147 0.16385 0.2387 0.0
C2175 C 0.82491 0.14929 0.26715 0.0
C2176 C 0.79484 0.1935 0.24202 0.0
C2177 C 0.79174 0.21029 0.27382 0.0
H2178 H 0.81198 0.15104 0.21387 0.0
H2179 H 0.78362 0.20286 0.21944 0.0
S2180 S 0.82447 0.18362 0.35597 0.0
N2181 N 0.835 0.15446 0.3281 0.0
N2182 N 0.80488 0.21085 0.33413 0.0
C2183 C 0.80654 0.19699 0.30231 0.0
C2184 C 0.82277 0.16631 0.29901 0.0
C2185 C 0.72524 0.12261 0.055 0.0
C2186 C 0.72895 0.15413 0.03924 0.0
C2187 C 0.69313 0.10498 0.05948 0.0
C2188 C 0.66363 0.11812 0.048 0.0
H2189 H 0.74735 0.11104 0.06321 0.0
H2190 H 0.69144 0.08018 0.07057 0.0
S2191 S 0.65992 0.20327 1.01163 0.0
N2192 N 0.70073 0.20056 1.01744 0.0
N2193 N 0.64034 0.16708 0.02459 0.0
C2194 C 0.66712 0.15097 0.03461 0.0
C2195 C 0.69983 0.16919 0.03075 0.0
C2196 C 0.17435 0.398 0.29245 0.0
C2197 C 0.17796 0.42246 0.32064 0.0
C2198 C 0.19729 0.37347 0.28854 0.0
C2199 C 0.22562 0.3733 0.31192 0.0
H2200 H 0.15497 0.39908 0.27227 0.0
H2201 H 0.19399 0.35608 0.26588 0.0
S2202 S 0.24323 0.42656 0.39314 0.0
N2203 N 0.20898 0.43971 0.37552 0.0
N2204 N 0.25318 0.39628 0.3662 0.0
C2205 C 0.22805 0.39561 0.34122 0.0
C2206 C 0.20398 0.41937 0.34607 0.0
C2207 C 0.19296 0.52116 0.04084 0.0
C2208 C 0.19602 0.48529 0.03905 0.0
C2209 C 0.16321 0.53307 0.02948 0.0
C2210 C 0.13508 0.50958 1.01656 0.0
H2211 H 0.21387 0.54048 0.05102 0.0
H2212 H 0.16187 0.5608 0.03223 0.0
S2213 S 0.12952 0.41333 1.0055 0.0
N2214 N 0.16846 0.42647 0.02222 0.0
N2215 N 0.11153 0.449 1.00191 0.0
C2216 C 0.13745 0.47367 1.01449 0.0
C2217 C 0.1681 0.46146 0.0257 0.0
C2218 C 0.85604 0.94409 0.26636 0.0
C2219 C 0.83866 0.96371 0.24431 0.0
C2220 C 0.84339 0.9094 0.2711 0.0
C2221 C 0.81349 0.89237 0.25304 0.0
H2222 H 0.87866 0.95624 0.28144 0.0
H2223 H 0.85657 0.89615 0.28997 0.0
S2224 S 0.76325 0.92978 0.18618 0.0
N2225 N 0.79316 0.96203 0.20022 0.0
N2226 N 0.76982 0.89648 0.20839 0.0
C2227 C 0.79779 0.91064 0.22841 0.0
C2228 C 0.81029 0.94637 0.22419 0.0
C2229 C 0.69705 0.09513 0.76955 0.0
C2230 C 0.66591 0.09505 0.78367 0.0
C2231 C 0.7186 0.12636 0.76736 0.0
C2232 C 0.70967 0.15838 0.77947 0.0
H2233 H 0.70527 0.07077 0.76109 0.0
H2234 H 0.74294 0.12523 0.7576 0.0
S2235 S 0.62754 0.17244 0.81168 0.0
N2236 N 0.62476 0.12977 0.80444 0.0
N2237 N 0.66514 0.18845 0.80106 0.0
C2238 C 0.67721 0.15875 0.79078 0.0
C2239 C 0.65522 0.12704 0.7925 0.0
loop_
_geom_bond_atom_site_label_1
_geom_bond_atom_site_label_2
_geom_bond_distance
_geom_bond_site_symmetry_2
_ccdc_geom_bond_type
Mn0 O5 2.095 . S
Mn0 O15 2.162 . S
Mn0 O16 2.297 . S
Mn0 O24 2.385 1_455 S
Mn0 O25 2.209 1_455 S
Mn0 O26 2.094 . S
Mn1 O6 2.121 . S
Mn1 N8 2.257 1_455 S
Mn1 N17 2.282 1_455 S
Mn1 O25 2.215 1_455 S
Mn1 O27 2.117 . S
C2 O24 1.234 . S
C2 O25 1.283 . S
C3 O15 1.281 . S
C3 O16 1.236 . S
C4 O26 1.240 . S
C4 O27 1.264 . S
O5 Mn0 2.095 . S
O5 C14 1.250 . S
O6 Mn1 2.121 . S
O6 C14 1.258 . S
C7 N8 1.326 1_455 S
C7 C11 1.466 . S
C7 H13 0.929 . S
N8 Mn1 2.257 1_655 S
N8 C7 1.326 1_655 S
N8 C12 1.362 . S
C9 C10 1.258 . S
C9 C12 1.431 . S
C9 C29 1.449 . S
C10 C9 1.258 . S
C10 C11 1.457 1_655 S
C10 H30 0.931 . S
C11 C7 1.466 . S
C11 C10 1.457 1_455 S
C11 H31 0.945 . S
C12 N8 1.362 . S
C12 C9 1.431 . S
C12 C22 1.476 . S
H13 C7 0.929 . S
C14 O5 1.250 . S
C14 O6 1.258 . S
O15 Mn0 2.162 . S
O15 C3 1.281 . S
O16 Mn0 2.297 . S
O16 C3 1.236 . S
N17 Mn1 2.282 1_655 S
N17 C18 1.328 . S
N17 C22 1.318 . S
C18 N17 1.328 . S
C18 C19 1.457 . S
C18 H23 0.929 . S
C19 C18 1.457 . S
C19 C20 1.291 . S
C19 H32 0.931 . S
C20 C19 1.291 . S
C20 C21 1.373 . S
C20 H33 0.929 . S
C21 C20 1.373 . S
C21 C22 1.396 . S
C21 C28 1.403 . S
C22 C12 1.476 . S
C22 N17 1.318 . S
C22 C21 1.396 . S
H23 C18 0.929 . S
O24 Mn0 2.385 1_655 S
O24 C2 1.234 . S
O25 Mn0 2.209 1_655 S
O25 Mn1 2.215 1_655 S
O25 C2 1.283 . S
O26 Mn0 2.094 . S
O26 C4 1.240 . S
O27 Mn1 2.117 . S
O27 C4 1.264 . S
C28 C21 1.403 . S
C28 C29 1.399 . S
C28 H34 0.929 . S
C29 C9 1.449 . S
C29 C28 1.399 . S
C29 H35 0.930 . S
H30 C10 0.931 . S
H31 C11 0.945 . S
H32 C19 0.931 . S
H33 C20 0.929 . S
H34 C28 0.929 . S
H35 C29 0.930 . S
Mn36 O41 2.074 1_455 S
Mn36 O51 2.162 1_455 S
Mn36 O52 2.299 1_455 S
Mn36 O60 2.407 . S
Mn36 O61 2.218 . S
Mn36 O62 2.093 . S
Mn37 O42 2.121 1_455 S
Mn37 N44 2.257 . S
Mn37 N53 2.282 . S
Mn37 O61 2.215 . S
Mn37 O63 2.117 . S
C38 O60 1.234 . S
C38 O61 1.283 . S
C39 O51 1.281 . S
C39 O52 1.236 . S
C40 O62 1.240 . S
C40 O63 1.264 . S
O41 Mn36 2.074 1_655 S
O41 C50 1.250 . S
O42 Mn37 2.121 1_655 S
O42 C50 1.258 . S
C43 N44 1.326 . S
C43 C47 1.460 . S
C43 H49 0.929 1_455 S
N44 Mn37 2.257 . S
N44 C43 1.326 . S
N44 C48 1.362 . S
C45 C46 1.258 . S
C45 C48 1.431 . S
C45 C65 1.449 . S
C46 C45 1.258 . S
C46 C47 1.477 . S
C46 H66 0.931 . S
C47 C43 1.460 . S
C47 C46 1.477 . S
C47 H67 0.930 . S
C48 N44 1.362 . S
C48 C45 1.431 . S
C48 C58 1.476 . S
H49 C43 0.929 1_655 S
C50 O41 1.250 . S
C50 O42 1.258 . S
O51 Mn36 2.162 1_655 S
O51 C39 1.281 . S
O52 Mn36 2.299 1_655 S
O52 C39 1.236 . S
N53 Mn37 2.282 . S
N53 C54 1.328 . S
N53 C58 1.318 . S
C54 N53 1.328 . S
C54 C55 1.457 . S
C54 H59 0.929 . S
C55 C54 1.457 . S
C55 C56 1.291 . S
C55 H68 0.931 . S
C56 C55 1.291 . S
C56 C57 1.373 . S
C56 H69 0.929 . S
C57 C56 1.373 . S
C57 C58 1.396 . S
C57 C64 1.403 . S
C58 C48 1.476 . S
C58 N53 1.318 . S
C58 C57 1.396 . S
H59 C54 0.929 . S
O60 Mn36 2.407 . S
O60 C38 1.234 . S
O61 Mn36 2.218 . S
O61 Mn37 2.215 . S
O61 C38 1.283 . S
O62 Mn36 2.093 . S
O62 C40 1.240 . S
O63 Mn37 2.117 . S
O63 C40 1.264 . S
C64 C57 1.403 . S
C64 C65 1.399 . S
C64 H70 0.929 . S
C65 C45 1.449 . S
C65 C64 1.399 . S
C65 H71 0.930 . S
H66 C46 0.931 . S
H67 C47 0.930 . S
H68 C55 0.931 . S
H69 C56 0.929 . S
H70 C64 0.929 . S
H71 C65 0.930 . S
Mn72 O77 2.095 . S
Mn72 O87 2.162 . S
Mn72 O88 2.297 . S
Mn72 O96 2.385 . S
Mn72 O97 2.209 . S
Mn72 O98 2.094 . S
Mn73 O78 2.121 . S
Mn73 N80 2.257 . S
Mn73 N89 2.282 . S
Mn73 O97 2.215 . S
Mn73 O99 2.117 . S
C74 O96 1.234 . S
C74 O97 1.283 . S
C75 O87 1.281 . S
C75 O88 1.236 . S
C76 O98 1.240 . S
C76 O99 1.264 . S
O77 Mn72 2.095 . S
O77 C86 1.250 . S
O78 Mn73 2.121 . S
O78 C86 1.258 . S
C79 N80 1.326 . S
C79 C83 1.460 . S
C79 H85 0.929 . S
N80 Mn73 2.257 . S
N80 C79 1.326 . S
N80 C84 1.362 . S
C81 C82 1.258 . S
C81 C84 1.431 . S
C81 C101 1.449 . S
C82 C81 1.258 . S
C82 C83 1.477 . S
C82 H102 0.931 . S
C83 C79 1.460 . S
C83 C82 1.477 . S
C83 H103 0.930 . S
C84 N80 1.362 . S
C84 C81 1.431 . S
C84 C94 1.476 . S
H85 C79 0.929 . S
C86 O77 1.250 . S
C86 O78 1.258 . S
O87 Mn72 2.162 . S
O87 C75 1.281 . S
O88 Mn72 2.297 . S
O88 C75 1.236 . S
N89 Mn73 2.282 . S
N89 C90 1.328 . S
N89 C94 1.318 . S
C90 N89 1.328 . S
C90 C91 1.457 . S
C90 H95 0.929 . S
C91 C90 1.457 . S
C91 C92 1.291 . S
C91 H104 0.931 . S
C92 C91 1.291 . S
C92 C93 1.373 . S
C92 H105 0.929 . S
C93 C92 1.373 . S
C93 C94 1.396 . S
C93 C100 1.403 . S
C94 C84 1.476 . S
C94 N89 1.318 . S
C94 C93 1.396 . S
H95 C90 0.929 . S
O96 Mn72 2.385 . S
O96 C74 1.234 . S
O97 Mn72 2.209 . S
O97 Mn73 2.215 . S
O97 C74 1.283 . S
O98 Mn72 2.094 . S
O98 C76 1.240 . S
O99 Mn73 2.117 . S
O99 C76 1.264 . S
C100 C93 1.403 . S
C100 C101 1.399 . S
C100 H106 0.929 . S
C101 C81 1.449 . S
C101 C100 1.399 . S
C101 H107 0.930 . S
H102 C82 0.931 . S
H103 C83 0.930 . S
H104 C91 0.931 . S
H105 C92 0.929 . S
H106 C100 0.929 . S
H107 C101 0.930 . S
Mn108 O113 2.095 . S
Mn108 O123 2.162 . S
Mn108 O124 2.297 . S
Mn108 O132 2.385 . S
Mn108 O133 2.209 . S
Mn108 O134 2.094 . S
Mn109 O114 2.121 . S
Mn109 N116 2.257 . S
Mn109 N125 2.282 . S
Mn109 O133 2.215 . S
Mn109 O135 2.117 . S
C110 O132 1.234 . S
C110 O133 1.283 . S
C111 O123 1.281 . S
C111 O124 1.236 . S
C112 O134 1.240 . S
C112 O135 1.264 . S
O113 Mn108 2.095 . S
O113 C122 1.250 . S
O114 Mn109 2.121 . S
O114 C122 1.258 . S
C115 N116 1.326 . S
C115 C119 1.460 1_554 S
C115 H121 0.929 . S
N116 Mn109 2.257 . S
N116 C115 1.326 . S
N116 C120 1.362 . S
C117 C118 1.258 . S
C117 C120 1.431 1_556 S
C117 C137 1.449 . S
C118 C117 1.258 . S
C118 C119 1.477 . S
C118 H138 0.931 . S
C119 C115 1.460 1_556 S
C119 C118 1.477 . S
C119 H139 0.930 . S
C120 N116 1.362 . S
C120 C117 1.431 1_554 S
C120 C130 1.476 . S
H121 C115 0.929 . S
C122 O113 1.250 . S
C122 O114 1.258 . S
O123 Mn108 2.162 . S
O123 C111 1.281 . S
O124 Mn108 2.297 . S
O124 C111 1.236 . S
N125 Mn109 2.282 . S
N125 C126 1.328 . S
N125 C130 1.318 . S
C126 N125 1.328 . S
C126 C127 1.457 . S
C126 H131 0.929 . S
C127 C126 1.457 . S
C127 C128 1.291 . S
C127 H140 0.931 . S
C128 C127 1.291 . S
C128 C129 1.373 . S
C128 H141 0.929 . S
C129 C128 1.373 . S
C129 C130 1.396 . S
C129 C136 1.403 . S
C130 C120 1.476 . S
C130 N125 1.318 . S
C130 C129 1.396 . S
H131 C126 0.929 . S
O132 Mn108 2.385 . S
O132 C110 1.234 . S
O133 Mn108 2.209 . S
O133 Mn109 2.215 . S
O133 C110 1.283 . S
O134 Mn108 2.094 . S
O134 C112 1.240 . S
O135 Mn109 2.117 . S
O135 C112 1.264 . S
C136 C129 1.403 . S
C136 C137 1.399 1_554 S
C136 H142 0.929 1_554 S
C137 C117 1.449 . S
C137 C136 1.399 1_556 S
C137 H143 0.930 . S
H138 C118 0.931 . S
H139 C119 0.930 . S
H140 C127 0.931 . S
H141 C128 0.929 . S
H142 C136 0.929 1_556 S
H143 C137 0.930 . S
Mn144 O149 2.095 . S
Mn144 O159 2.162 . S
Mn144 O160 2.297 . S
Mn144 O168 2.385 . S
Mn144 O169 2.209 1_455 S
Mn144 O170 2.094 1_455 S
Mn145 O150 2.121 . S
Mn145 N152 2.257 . S
Mn145 N161 2.282 . S
Mn145 O169 2.215 . S
Mn145 O171 2.117 . S
C146 O168 1.239 . S
C146 O169 1.275 1_455 S
C147 O159 1.281 . S
C147 O160 1.236 . S
C148 O170 1.240 . S
C148 O171 1.264 . S
O149 Mn144 2.095 . S
O149 C158 1.251 . S
O150 Mn145 2.121 . S
O150 C158 1.253 1_655 S
C151 N152 1.326 . S
C151 C155 1.460 1_554 S
C151 H157 0.929 . S
N152 Mn145 2.257 . S
N152 C151 1.326 . S
N152 C156 1.362 . S
C153 C154 1.272 . S
C153 C156 1.414 1_556 S
C153 C173 1.452 . S
C154 C153 1.272 . S
C154 C155 1.477 . S
C154 H174 0.931 . S
C155 C151 1.460 1_556 S
C155 C154 1.477 . S
C155 H175 0.930 . S
C156 N152 1.362 . S
C156 C153 1.414 1_554 S
C156 C166 1.476 . S
H157 C151 0.929 . S
C158 O149 1.251 . S
C158 O150 1.253 1_455 S
O159 Mn144 2.162 . S
O159 C147 1.281 . S
O160 Mn144 2.297 . S
O160 C147 1.236 . S
N161 Mn145 2.282 . S
N161 C162 1.328 . S
N161 C166 1.318 . S
C162 N161 1.328 . S
C162 C163 1.457 . S
C162 H167 0.929 . S
C163 C162 1.457 . S
C163 C164 1.291 . S
C163 H176 0.931 . S
C164 C163 1.291 . S
C164 C165 1.373 . S
C164 H177 0.929 . S
C165 C164 1.373 . S
C165 C166 1.396 . S
C165 C172 1.403 . S
C166 C156 1.476 . S
C166 N161 1.318 . S
C166 C165 1.396 . S
H167 C162 0.929 . S
O168 Mn144 2.385 . S
O168 C146 1.239 . S
O169 Mn144 2.209 1_655 S
O169 Mn145 2.215 . S
O169 C146 1.275 1_655 S
O170 Mn144 2.094 1_655 S
O170 C148 1.240 . S
O171 Mn145 2.117 . S
O171 C148 1.264 . S
C172 C165 1.403 . S
C172 C173 1.399 1_554 S
C172 H178 0.929 . S
C173 C153 1.452 . S
C173 C172 1.399 1_556 S
C173 H179 0.930 . S
H174 C154 0.931 . S
H175 C155 0.930 . S
H176 C163 0.931 . S
H177 C164 0.929 . S
H178 C172 0.929 . S
H179 C173 0.930 . S
Mn180 O185 2.095 . S
Mn180 O195 2.162 . S
Mn180 O196 2.297 . S
Mn180 O204 2.385 . S
Mn180 O205 2.209 . S
Mn180 O206 2.094 . S
Mn181 O186 2.121 . S
Mn181 N188 2.257 . S
Mn181 N197 2.282 . S
Mn181 O205 2.215 . S
Mn181 O207 2.117 . S
C182 O204 1.234 . S
C182 O205 1.283 . S
C183 O195 1.281 . S
C183 O196 1.236 . S
C184 O206 1.240 . S
C184 O207 1.264 . S
O185 Mn180 2.095 . S
O185 C194 1.250 . S
O186 Mn181 2.121 . S
O186 C194 1.258 . S
C187 N188 1.326 . S
C187 C191 1.460 . S
C187 H193 0.929 . S
N188 Mn181 2.257 . S
N188 C187 1.326 . S
N188 C192 1.362 . S
C189 C190 1.258 . S
C189 C192 1.431 . S
C189 C209 1.449 . S
C190 C189 1.258 . S
C190 C191 1.477 . S
C190 H210 0.931 . S
C191 C187 1.460 . S
C191 C190 1.477 . S
C191 H211 0.930 . S
C192 N188 1.362 . S
C192 C189 1.431 . S
C192 C202 1.476 . S
H193 C187 0.929 . S
C194 O185 1.250 . S
C194 O186 1.258 . S
O195 Mn180 2.162 . S
O195 C183 1.281 . S
O196 Mn180 2.297 . S
O196 C183 1.236 . S
N197 Mn181 2.282 . S
N197 C198 1.328 . S
N197 C202 1.318 . S
C198 N197 1.328 . S
C198 C199 1.457 . S
C198 H203 0.929 . S
C199 C198 1.457 . S
C199 C200 1.291 . S
C199 H212 0.931 . S
C200 C199 1.291 . S
C200 C201 1.373 . S
C200 H213 0.929 . S
C201 C200 1.373 . S
C201 C202 1.396 . S
C201 C208 1.403 . S
C202 C192 1.476 . S
C202 N197 1.318 . S
C202 C201 1.396 . S
H203 C198 0.929 . S
O204 Mn180 2.385 . S
O204 C182 1.234 . S
O205 Mn180 2.209 . S
O205 Mn181 2.215 . S
O205 C182 1.283 . S
O206 Mn180 2.094 . S
O206 C184 1.240 . S
O207 Mn181 2.117 . S
O207 C184 1.264 . S
C208 C201 1.403 . S
C208 C209 1.399 . S
C208 H214 0.929 . S
C209 C189 1.449 . S
C209 C208 1.399 . S
C209 H215 0.930 . S
H210 C190 0.931 . S
H211 C191 0.930 . S
H212 C199 0.931 . S
H213 C200 0.929 . S
H214 C208 0.929 . S
H215 C209 0.930 . S
Mn216 O221 2.095 . S
Mn216 O231 2.162 . S
Mn216 O232 2.297 . S
Mn216 O240 2.385 . S
Mn216 O241 2.209 . S
Mn216 O242 2.094 . S
Mn217 O222 2.121 . S
Mn217 N224 2.257 . S
Mn217 N233 2.282 . S
Mn217 O241 2.215 . S
Mn217 O243 2.117 . S
C218 O240 1.234 . S
C218 O241 1.283 . S
C219 O231 1.281 . S
C219 O232 1.236 . S
C220 O242 1.240 . S
C220 O243 1.264 . S
O221 Mn216 2.095 . S
O221 C230 1.250 . S
O222 Mn217 2.121 . S
O222 C230 1.258 . S
C223 N224 1.326 . S
C223 C227 1.460 . S
C223 H229 0.929 . S
N224 Mn217 2.257 . S
N224 C223 1.326 . S
N224 C228 1.362 . S
C225 C226 1.258 . S
C225 C228 1.431 . S
C225 C245 1.449 . S
C226 C225 1.258 . S
C226 C227 1.477 . S
C226 H246 0.931 . S
C227 C223 1.460 . S
C227 C226 1.477 . S
C227 H247 0.930 . S
C228 N224 1.362 . S
C228 C225 1.431 . S
C228 C238 1.476 . S
H229 C223 0.929 . S
C230 O221 1.250 . S
C230 O222 1.258 . S
O231 Mn216 2.162 . S
O231 C219 1.281 . S
O232 Mn216 2.297 . S
O232 C219 1.236 . S
N233 Mn217 2.282 . S
N233 C234 1.328 . S
N233 C238 1.318 . S
C234 N233 1.328 . S
C234 C235 1.457 . S
C234 H239 0.929 . S
C235 C234 1.457 . S
C235 C236 1.291 . S
C235 H248 0.931 . S
C236 C235 1.291 . S
C236 C237 1.373 . S
C236 H249 0.929 . S
C237 C236 1.373 . S
C237 C238 1.396 . S
C237 C244 1.403 . S
C238 C228 1.476 . S
C238 N233 1.318 . S
C238 C237 1.396 . S
H239 C234 0.929 . S
O240 Mn216 2.385 . S
O240 C218 1.234 . S
O241 Mn216 2.209 . S
O241 Mn217 2.215 . S
O241 C218 1.283 . S
O242 Mn216 2.094 . S
O242 C220 1.240 . S
O243 Mn217 2.117 . S
O243 C220 1.264 . S
C244 C237 1.403 . S
C244 C245 1.399 . S
C244 H250 0.929 . S
C245 C225 1.449 . S
C245 C244 1.399 . S
C245 H251 0.930 . S
H246 C226 0.931 . S
H247 C227 0.930 . S
H248 C235 0.931 . S
H249 C236 0.929 . S
H250 C244 0.929 . S
H251 C245 0.930 . S
Mn252 O257 2.095 . S
Mn252 O267 2.162 . S
Mn252 O268 2.297 . S
Mn252 O276 2.385 1_455 S
Mn252 O277 2.209 1_455 S
Mn252 O278 2.094 . S
Mn253 O258 2.121 . S
Mn253 N260 2.257 1_455 S
Mn253 N269 2.282 1_455 S
Mn253 O277 2.215 1_455 S
Mn253 O279 2.117 . S
C254 O276 1.234 . S
C254 O277 1.283 . S
C255 O267 1.281 . S
C255 O268 1.236 . S
C256 O278 1.240 . S
C256 O279 1.264 . S
O257 Mn252 2.095 . S
O257 C266 1.250 . S
O258 Mn253 2.121 . S
O258 C266 1.258 . S
C259 N260 1.326 1_455 S
C259 C263 1.460 1_455 S
C259 H265 0.929 . S
N260 Mn253 2.257 1_655 S
N260 C259 1.326 1_655 S
N260 C264 1.362 . S
C261 C262 1.258 . S
C261 C264 1.431 . S
C261 C281 1.449 . S
C262 C261 1.258 . S
C262 C263 1.477 . S
C262 H282 0.931 . S
C263 C259 1.460 1_655 S
C263 C262 1.477 . S
C263 H283 0.930 1_655 S
C264 N260 1.362 . S
C264 C261 1.431 . S
C264 C274 1.476 . S
H265 C259 0.929 . S
C266 O257 1.250 . S
C266 O258 1.258 . S
O267 Mn252 2.162 . S
O267 C255 1.281 . S
O268 Mn252 2.297 . S
O268 C255 1.236 . S
N269 Mn253 2.282 1_655 S
N269 C270 1.328 . S
N269 C274 1.318 . S
C270 N269 1.328 . S
C270 C271 1.457 . S
C270 H275 0.929 . S
C271 C270 1.457 . S
C271 C272 1.291 . S
C271 H284 0.931 . S
C272 C271 1.291 . S
C272 C273 1.373 . S
C272 H285 0.929 . S
C273 C272 1.373 . S
C273 C274 1.396 . S
C273 C280 1.403 . S
C274 C264 1.476 . S
C274 N269 1.318 . S
C274 C273 1.396 . S
H275 C270 0.929 . S
O276 Mn252 2.385 1_655 S
O276 C254 1.234 . S
O277 Mn252 2.209 1_655 S
O277 Mn253 2.215 1_655 S
O277 C254 1.283 . S
O278 Mn252 2.094 . S
O278 C256 1.240 . S
O279 Mn253 2.117 . S
O279 C256 1.264 . S
C280 C273 1.403 . S
C280 C281 1.399 . S
C280 H286 0.929 . S
C281 C261 1.449 . S
C281 C280 1.399 . S
C281 H287 0.930 . S
H282 C262 0.931 . S
H283 C263 0.930 1_455 S
H284 C271 0.931 . S
H285 C272 0.929 . S
H286 C280 0.929 . S
H287 C281 0.930 . S
Mn288 O293 2.095 . S
Mn288 O303 2.162 . S
Mn288 O304 2.297 . S
Mn288 O312 2.385 1_545 S
Mn288 O313 2.209 . S
Mn288 O314 2.094 . S
Mn289 O294 2.121 . S
Mn289 N296 2.257 . S
Mn289 N305 2.282 1_545 S
Mn289 O313 2.215 . S
Mn289 O315 2.117 . S
C290 O312 1.234 . S
C290 O313 1.283 1_565 S
C291 O303 1.281 . S
C291 O304 1.236 . S
C292 O314 1.240 . S
C292 O315 1.264 . S
O293 Mn288 2.095 . S
O293 C302 1.250 . S
O294 Mn289 2.121 . S
O294 C302 1.258 . S
C295 N296 1.326 . S
C295 C299 1.460 . S
C295 H301 0.929 . S
N296 Mn289 2.257 . S
N296 C295 1.326 . S
N296 C300 1.362 1_545 S
C297 C298 1.258 . S
C297 C300 1.431 . S
C297 C317 1.449 . S
C298 C297 1.258 . S
C298 C299 1.477 1_565 S
C298 H318 0.931 . S
C299 C295 1.460 . S
C299 C298 1.477 1_545 S
C299 H319 0.930 . S
C300 N296 1.362 1_565 S
C300 C297 1.431 . S
C300 C310 1.476 . S
H301 C295 0.929 . S
C302 O293 1.250 . S
C302 O294 1.258 . S
O303 Mn288 2.162 . S
O303 C291 1.281 . S
O304 Mn288 2.297 . S
O304 C291 1.236 . S
N305 Mn289 2.282 1_565 S
N305 C306 1.328 . S
N305 C310 1.318 . S
C306 N305 1.328 . S
C306 C307 1.457 . S
C306 H311 0.929 . S
C307 C306 1.457 . S
C307 C308 1.291 . S
C307 H320 0.931 . S
C308 C307 1.291 . S
C308 C309 1.373 . S
C308 H321 0.929 . S
C309 C308 1.373 . S
C309 C310 1.396 . S
C309 C316 1.403 . S
C310 C300 1.476 . S
C310 N305 1.318 . S
C310 C309 1.396 . S
H311 C306 0.929 . S
O312 Mn288 2.385 1_565 S
O312 C290 1.234 . S
O313 Mn288 2.209 . S
O313 Mn289 2.215 . S
O313 C290 1.283 1_545 S
O314 Mn288 2.094 . S
O314 C292 1.240 . S
O315 Mn289 2.117 . S
O315 C292 1.264 . S
C316 C309 1.403 . S
C316 C317 1.399 . S
C316 H322 0.929 . S
C317 C297 1.449 . S
C317 C316 1.399 . S
C317 H323 0.930 . S
H318 C298 0.931 . S
H319 C299 0.930 . S
H320 C307 0.931 . S
H321 C308 0.929 . S
H322 C316 0.929 . S
H323 C317 0.930 . S
Mn324 O329 2.095 . S
Mn324 O339 2.162 . S
Mn324 O340 2.297 . S
Mn324 O348 2.385 . S
Mn324 O349 2.209 . S
Mn324 O350 2.094 . S
Mn325 O330 2.121 . S
Mn325 N332 2.257 . S
Mn325 N341 2.282 . S
Mn325 O349 2.215 . S
Mn325 O351 2.117 . S
C326 O348 1.234 . S
C326 O349 1.283 . S
C327 O339 1.281 . S
C327 O340 1.236 . S
C328 O350 1.240 . S
C328 O351 1.264 . S
O329 Mn324 2.095 . S
O329 C338 1.250 . S
O330 Mn325 2.121 . S
O330 C338 1.258 . S
C331 N332 1.326 . S
C331 C335 1.460 . S
C331 H337 0.929 . S
N332 Mn325 2.257 . S
N332 C331 1.326 . S
N332 C336 1.362 . S
C333 C334 1.258 1_545 S
C333 C336 1.431 . S
C333 C353 1.449 . S
C334 C333 1.258 1_565 S
C334 C335 1.477 1_565 S
C334 H354 0.931 . S
C335 C331 1.460 . S
C335 C334 1.477 1_545 S
C335 H355 0.930 1_545 S
C336 N332 1.362 . S
C336 C333 1.431 . S
C336 C346 1.476 . S
H337 C331 0.929 . S
C338 O329 1.250 . S
C338 O330 1.258 . S
O339 Mn324 2.162 . S
O339 C327 1.281 . S
O340 Mn324 2.297 . S
O340 C327 1.236 . S
N341 Mn325 2.282 . S
N341 C342 1.328 . S
N341 C346 1.318 . S
C342 N341 1.328 . S
C342 C343 1.457 . S
C342 H347 0.929 . S
C343 C342 1.457 . S
C343 C344 1.291 . S
C343 H356 0.931 . S
C344 C343 1.291 . S
C344 C345 1.373 . S
C344 H357 0.929 . S
C345 C344 1.373 . S
C345 C346 1.396 . S
C345 C352 1.403 . S
C346 C336 1.476 . S
C346 N341 1.318 . S
C346 C345 1.396 . S
H347 C342 0.929 . S
O348 Mn324 2.385 . S
O348 C326 1.234 . S
O349 Mn324 2.209 . S
O349 Mn325 2.215 . S
O349 C326 1.283 . S
O350 Mn324 2.094 . S
O350 C328 1.240 . S
O351 Mn325 2.117 . S
O351 C328 1.264 . S
C352 C345 1.403 . S
C352 C353 1.399 . S
C352 H358 0.929 . S
C353 C333 1.449 . S
C353 C352 1.399 . S
C353 H359 0.930 1_545 S
H354 C334 0.931 . S
H355 C335 0.930 1_565 S
H356 C343 0.931 . S
H357 C344 0.929 . S
H358 C352 0.929 . S
H359 C353 0.930 1_565 S
Mn360 O365 2.093 1_545 S
Mn360 O375 2.162 1_545 S
Mn360 O376 2.297 . S
Mn360 O384 2.387 . S
Mn360 O385 2.209 . S
Mn360 O386 2.094 1_545 S
Mn361 O366 2.121 1_545 S
Mn361 N368 2.257 . S
Mn361 N377 2.282 . S
Mn361 O385 2.215 . S
Mn361 O387 2.117 . S
C362 O384 1.234 . S
C362 O385 1.283 . S
C363 O375 1.281 . S
C363 O376 1.236 1_565 S
C364 O386 1.240 1_545 S
C364 O387 1.264 . S
O365 Mn360 2.093 1_565 S
O365 C374 1.250 . S
O366 Mn361 2.121 1_565 S
O366 C374 1.258 . S
C367 N368 1.326 . S
C367 C371 1.460 . S
C367 H373 0.929 1_545 S
N368 Mn361 2.257 . S
N368 C367 1.326 . S
N368 C372 1.362 . S
C369 C370 1.258 . S
C369 C372 1.431 . S
C369 C389 1.449 . S
C370 C369 1.258 . S
C370 C371 1.477 . S
C370 H390 0.931 . S
C371 C367 1.460 . S
C371 C370 1.477 . S
C371 H391 0.930 . S
C372 N368 1.362 . S
C372 C369 1.431 . S
C372 C382 1.476 . S
H373 C367 0.929 1_565 S
C374 O365 1.250 . S
C374 O366 1.258 . S
O375 Mn360 2.162 1_565 S
O375 C363 1.281 . S
O376 Mn360 2.297 . S
O376 C363 1.236 1_545 S
N377 Mn361 2.282 . S
N377 C378 1.328 . S
N377 C382 1.318 . S
C378 N377 1.328 . S
C378 C379 1.457 . S
C378 H383 0.929 . S
C379 C378 1.457 . S
C379 C380 1.291 . S
C379 H392 0.931 . S
C380 C379 1.291 . S
C380 C381 1.373 . S
C380 H393 0.929 . S
C381 C380 1.373 . S
C381 C382 1.396 . S
C381 C388 1.403 . S
C382 C372 1.476 . S
C382 N377 1.318 . S
C382 C381 1.396 . S
H383 C378 0.929 . S
O384 Mn360 2.387 . S
O384 C362 1.234 . S
O385 Mn360 2.209 . S
O385 Mn361 2.215 . S
O385 C362 1.283 . S
O386 Mn360 2.094 1_565 S
O386 C364 1.240 1_565 S
O387 Mn361 2.117 . S
O387 C364 1.264 . S
C388 C381 1.403 . S
C388 C389 1.399 . S
C388 H394 0.929 . S
C389 C369 1.449 . S
C389 C388 1.399 . S
C389 H395 0.930 . S
H390 C370 0.931 . S
H391 C371 0.930 . S
H392 C379 0.931 . S
H393 C380 0.929 . S
H394 C388 0.929 . S
H395 C389 0.930 . S
Mn396 O401 2.095 . S
Mn396 O411 2.162 . S
Mn396 O412 2.297 . S
Mn396 O420 2.385 . S
Mn396 O421 2.209 . S
Mn396 O422 2.094 1_554 S
Mn397 O402 2.121 1_556 S
Mn397 N404 2.257 1_565 S
Mn397 N413 2.282 . S
Mn397 O421 2.215 1_556 S
Mn397 O423 2.117 . S
C398 O420 1.234 . S
C398 O421 1.283 . S
C399 O411 1.281 . S
C399 O412 1.236 . S
C400 O422 1.240 . S
C400 O423 1.264 . S
O401 Mn396 2.095 . S
O401 C410 1.250 . S
O402 Mn397 2.121 1_554 S
O402 C410 1.258 . S
C403 N404 1.326 1_554 S
C403 C407 1.460 . S
C403 H409 0.929 . S
N404 Mn397 2.257 1_545 S
N404 C403 1.326 1_556 S
N404 C408 1.362 . S
C405 C406 1.258 . S
C405 C408 1.431 . S
C405 C425 1.449 . S
C406 C405 1.258 . S
C406 C407 1.477 1_556 S
C406 H426 0.930 . S
C407 C403 1.460 . S
C407 C406 1.477 1_554 S
C407 H427 0.930 . S
C408 N404 1.362 . S
C408 C405 1.431 . S
C408 C418 1.476 1_545 S
H409 C403 0.929 . S
C410 O401 1.250 . S
C410 O402 1.258 . S
O411 Mn396 2.162 . S
O411 C399 1.281 . S
O412 Mn396 2.297 . S
O412 C399 1.236 . S
N413 Mn397 2.282 . S
N413 C414 1.328 . S
N413 C418 1.318 . S
C414 N413 1.328 . S
C414 C415 1.457 . S
C414 H419 0.929 . S
C415 C414 1.457 . S
C415 C416 1.291 . S
C415 H428 0.931 . S
C416 C415 1.291 . S
C416 C417 1.373 1_565 S
C416 H429 0.929 . S
C417 C416 1.373 1_545 S
C417 C418 1.396 1_545 S
C417 C424 1.403 . S
C418 C408 1.476 1_565 S
C418 N413 1.318 . S
C418 C417 1.396 1_565 S
H419 C414 0.929 . S
O420 Mn396 2.385 . S
O420 C398 1.234 . S
O421 Mn396 2.209 . S
O421 Mn397 2.215 1_554 S
O421 C398 1.283 . S
O422 Mn396 2.094 1_556 S
O422 C400 1.240 . S
O423 Mn397 2.117 . S
O423 C400 1.264 . S
C424 C417 1.403 . S
C424 C425 1.399 . S
C424 H430 0.929 . S
C425 C405 1.449 . S
C425 C424 1.399 . S
C425 H431 0.930 . S
H426 C406 0.930 . S
H427 C407 0.930 . S
H428 C415 0.931 . S
H429 C416 0.929 . S
H430 C424 0.929 . S
H431 C425 0.930 . S
Mn432 O437 2.095 . S
Mn432 O447 2.162 . S
Mn432 O448 2.297 . S
Mn432 O456 2.385 . S
Mn432 O457 2.209 . S
Mn432 O458 2.094 1_554 S
Mn433 O438 2.121 1_556 S
Mn433 N440 2.257 . S
Mn433 N449 2.282 . S
Mn433 O457 2.215 1_556 S
Mn433 O459 2.117 . S
C434 O456 1.234 . S
C434 O457 1.283 . S
C435 O447 1.281 . S
C435 O448 1.236 . S
C436 O458 1.240 . S
C436 O459 1.264 . S
O437 Mn432 2.095 . S
O437 C446 1.250 . S
O438 Mn433 2.121 1_554 S
O438 C446 1.258 . S
C439 N440 1.326 1_554 S
C439 C443 1.460 . S
C439 H445 0.929 . S
N440 Mn433 2.257 . S
N440 C439 1.326 1_556 S
N440 C444 1.362 . S
C441 C442 1.258 1_556 S
C441 C444 1.431 . S
C441 C461 1.449 . S
C442 C441 1.258 1_554 S
C442 C443 1.477 . S
C442 H462 0.931 . S
C443 C439 1.460 . S
C443 C442 1.477 . S
C443 H463 0.930 . S
C444 N440 1.362 . S
C444 C441 1.431 . S
C444 C454 1.476 . S
H445 C439 0.929 . S
C446 O437 1.250 . S
C446 O438 1.258 . S
O447 Mn432 2.162 . S
O447 C435 1.281 . S
O448 Mn432 2.297 . S
O448 C435 1.236 . S
N449 Mn433 2.282 . S
N449 C450 1.328 . S
N449 C454 1.318 . S
C450 N449 1.328 . S
C450 C451 1.457 . S
C450 H455 0.929 . S
C451 C450 1.457 . S
C451 C452 1.291 . S
C451 H464 0.931 . S
C452 C451 1.291 . S
C452 C453 1.373 . S
C452 H465 0.929 . S
C453 C452 1.373 . S
C453 C454 1.396 . S
C453 C460 1.403 . S
C454 C444 1.476 . S
C454 N449 1.318 . S
C454 C453 1.396 . S
H455 C450 0.929 . S
O456 Mn432 2.385 . S
O456 C434 1.234 . S
O457 Mn432 2.209 . S
O457 Mn433 2.215 1_554 S
O457 C434 1.283 . S
O458 Mn432 2.094 1_556 S
O458 C436 1.240 . S
O459 Mn433 2.117 . S
O459 C436 1.264 . S
C460 C453 1.403 . S
C460 C461 1.399 . S
C460 H466 0.929 . S
C461 C441 1.449 . S
C461 C460 1.399 . S
C461 H467 0.930 . S
H462 C442 0.931 . S
H463 C443 0.930 . S
H464 C451 0.931 . S
H465 C452 0.929 . S
H466 C460 0.929 . S
H467 C461 0.930 . S
Mn468 O473 2.100 . S
Mn468 O483 2.162 . S
Mn468 O484 2.297 . S
Mn468 O492 2.385 . S
Mn468 O493 2.209 1_554 S
Mn468 O494 2.094 1_554 S
Mn469 O474 2.121 . S
Mn469 N476 2.257 . S
Mn469 N485 2.282 . S
Mn469 O493 2.215 . S
Mn469 O495 2.117 . S
C470 O492 1.236 . S
C470 O493 1.280 1_554 S
C471 O483 1.281 . S
C471 O484 1.236 . S
C472 O494 1.240 . S
C472 O495 1.264 . S
O473 Mn468 2.100 . S
O473 C482 1.248 1_554 S
O474 Mn469 2.121 . S
O474 C482 1.258 . S
C475 N476 1.326 . S
C475 C479 1.460 1_545 S
C475 H481 0.929 . S
N476 Mn469 2.257 . S
N476 C475 1.326 . S
N476 C480 1.362 . S
C477 C478 1.258 1_545 S
C477 C480 1.431 . S
C477 C497 1.449 1_545 S
C478 C477 1.258 1_565 S
C478 C479 1.477 . S
C478 H498 0.931 . S
C479 C475 1.460 1_565 S
C479 C478 1.477 . S
C479 H499 0.930 . S
C480 N476 1.362 . S
C480 C477 1.431 . S
C480 C490 1.476 . S
H481 C475 0.929 . S
C482 O473 1.248 1_556 S
C482 O474 1.258 . S
O483 Mn468 2.162 . S
O483 C471 1.281 . S
O484 Mn468 2.297 . S
O484 C471 1.236 . S
N485 Mn469 2.282 . S
N485 C486 1.328 . S
N485 C490 1.318 . S
C486 N485 1.328 . S
C486 C487 1.457 . S
C486 H491 0.929 . S
C487 C486 1.457 . S
C487 C488 1.291 . S
C487 H500 0.931 . S
C488 C487 1.291 . S
C488 C489 1.373 . S
C488 H501 0.929 . S
C489 C488 1.373 . S
C489 C490 1.396 . S
C489 C496 1.403 . S
C490 C480 1.476 . S
C490 N485 1.318 . S
C490 C489 1.396 . S
H491 C486 0.929 . S
O492 Mn468 2.385 . S
O492 C470 1.236 . S
O493 Mn468 2.209 1_556 S
O493 Mn469 2.215 . S
O493 C470 1.280 1_556 S
O494 Mn468 2.094 1_556 S
O494 C472 1.240 . S
O495 Mn469 2.117 . S
O495 C472 1.264 . S
C496 C489 1.403 . S
C496 C497 1.399 1_545 S
C496 H502 0.929 . S
C497 C477 1.449 1_565 S
C497 C496 1.399 1_565 S
C497 H503 0.930 . S
H498 C478 0.931 . S
H499 C479 0.930 . S
H500 C487 0.931 . S
H501 C488 0.929 . S
H502 C496 0.929 . S
H503 C497 0.930 . S
Mn504 O509 2.095 . S
Mn504 O519 2.162 . S
Mn504 O520 2.297 . S
Mn504 O528 2.385 . S
Mn504 O529 2.209 . S
Mn504 O530 2.094 . S
Mn505 O510 2.121 . S
Mn505 N512 2.257 . S
Mn505 N521 2.282 . S
Mn505 O529 2.215 . S
Mn505 O531 2.117 . S
C506 O528 1.234 . S
C506 O529 1.283 . S
C507 O519 1.281 . S
C507 O520 1.236 . S
C508 O530 1.240 . S
C508 O531 1.264 . S
O509 Mn504 2.095 . S
O509 C518 1.250 . S
O510 Mn505 2.121 . S
O510 C518 1.258 . S
C511 N512 1.326 . S
C511 C515 1.460 . S
C511 H517 0.929 . S
N512 Mn505 2.257 . S
N512 C511 1.326 . S
N512 C516 1.362 . S
C513 C514 1.258 . S
C513 C516 1.431 . S
C513 C533 1.449 . S
C514 C513 1.258 . S
C514 C515 1.477 . S
C514 H534 0.931 . S
C515 C511 1.460 . S
C515 C514 1.477 . S
C515 H535 0.930 . S
C516 N512 1.362 . S
C516 C513 1.431 . S
C516 C526 1.476 . S
H517 C511 0.929 . S
C518 O509 1.250 . S
C518 O510 1.258 . S
O519 Mn504 2.162 . S
O519 C507 1.281 . S
O520 Mn504 2.297 . S
O520 C507 1.236 . S
N521 Mn505 2.282 . S
N521 C522 1.328 . S
N521 C526 1.318 . S
C522 N521 1.328 . S
C522 C523 1.457 . S
C522 H527 0.929 . S
C523 C522 1.457 . S
C523 C524 1.291 . S
C523 H536 0.931 . S
C524 C523 1.291 . S
C524 C525 1.373 . S
C524 H537 0.929 . S
C525 C524 1.373 . S
C525 C526 1.396 . S
C525 C532 1.403 . S
C526 C516 1.476 . S
C526 N521 1.318 . S
C526 C525 1.396 . S
H527 C522 0.929 . S
O528 Mn504 2.385 . S
O528 C506 1.234 . S
O529 Mn504 2.209 . S
O529 Mn505 2.215 . S
O529 C506 1.283 . S
O530 Mn504 2.094 . S
O530 C508 1.240 . S
O531 Mn505 2.117 . S
O531 C508 1.264 . S
C532 C525 1.403 . S
C532 C533 1.399 . S
C532 H538 0.929 . S
C533 C513 1.449 . S
C533 C532 1.399 . S
C533 H539 0.930 . S
H534 C514 0.931 . S
H535 C515 0.930 . S
H536 C523 0.931 . S
H537 C524 0.929 . S
H538 C532 0.929 . S
H539 C533 0.930 . S
Mn540 O545 2.095 . S
Mn540 O555 2.162 . S
Mn540 O556 2.297 . S
Mn540 O564 2.385 . S
Mn540 O565 2.209 . S
Mn540 O566 2.094 . S
Mn541 O546 2.121 . S
Mn541 N548 2.257 1_565 S
Mn541 N557 2.282 . S
Mn541 O565 2.215 . S
Mn541 O567 2.117 . S
C542 O564 1.234 . S
C542 O565 1.283 . S
C543 O555 1.281 . S
C543 O556 1.236 . S
C544 O566 1.240 . S
C544 O567 1.264 . S
O545 Mn540 2.095 . S
O545 C554 1.250 . S
O546 Mn541 2.121 . S
O546 C554 1.258 . S
C547 N548 1.326 . S
C547 C551 1.460 . S
C547 H553 0.929 . S
N548 Mn541 2.257 1_545 S
N548 C547 1.326 . S
N548 C552 1.362 . S
C549 C550 1.258 . S
C549 C552 1.431 . S
C549 C569 1.449 . S
C550 C549 1.258 . S
C550 C551 1.477 . S
C550 H570 0.931 . S
C551 C547 1.460 . S
C551 C550 1.477 . S
C551 H571 0.930 . S
C552 N548 1.362 . S
C552 C549 1.431 . S
C552 C562 1.476 1_545 S
H553 C547 0.929 . S
C554 O545 1.250 . S
C554 O546 1.258 . S
O555 Mn540 2.162 . S
O555 C543 1.281 . S
O556 Mn540 2.297 . S
O556 C543 1.236 . S
N557 Mn541 2.282 . S
N557 C558 1.328 . S
N557 C562 1.318 . S
C558 N557 1.328 . S
C558 C559 1.457 . S
C558 H563 0.929 . S
C559 C558 1.457 . S
C559 C560 1.291 . S
C559 H572 0.931 . S
C560 C559 1.291 . S
C560 C561 1.373 . S
C560 H573 0.929 . S
C561 C560 1.373 . S
C561 C562 1.396 . S
C561 C568 1.403 1_565 S
C562 C552 1.476 1_565 S
C562 N557 1.318 . S
C562 C561 1.396 . S
H563 C558 0.929 . S
O564 Mn540 2.385 . S
O564 C542 1.234 . S
O565 Mn540 2.209 . S
O565 Mn541 2.215 . S
O565 C542 1.283 . S
O566 Mn540 2.094 . S
O566 C544 1.240 . S
O567 Mn541 2.117 . S
O567 C544 1.264 . S
C568 C561 1.403 1_545 S
C568 C569 1.399 . S
C568 H574 0.929 . S
C569 C549 1.449 . S
C569 C568 1.399 . S
C569 H575 0.930 . S
H570 C550 0.931 . S
H571 C551 0.930 . S
H572 C559 0.931 . S
H573 C560 0.929 . S
H574 C568 0.929 . S
H575 C569 0.930 . S
Mn576 O581 2.095 . S
Mn576 O591 2.162 . S
Mn576 O592 2.297 . S
Mn576 O600 2.385 1_545 S
Mn576 O601 2.209 . S
Mn576 O602 2.094 . S
Mn577 O582 2.121 . S
Mn577 N584 2.257 . S
Mn577 N593 2.283 1_545 S
Mn577 O601 2.215 . S
Mn577 O603 2.117 . S
C578 O600 1.242 . S
C578 O601 1.251 1_565 S
C579 O591 1.281 . S
C579 O592 1.236 . S
C580 O602 1.240 . S
C580 O603 1.264 . S
O581 Mn576 2.095 . S
O581 C590 1.250 . S
O582 Mn577 2.121 . S
O582 C590 1.258 . S
C583 N584 1.326 . S
C583 C587 1.460 . S
C583 H589 0.929 . S
N584 Mn577 2.257 . S
N584 C583 1.326 . S
N584 C588 1.362 . S
C585 C586 1.258 1_565 S
C585 C588 1.431 1_565 S
C585 C605 1.449 . S
C586 C585 1.258 1_545 S
C586 C587 1.477 . S
C586 H606 0.931 1_545 S
C587 C583 1.460 . S
C587 C586 1.477 . S
C587 H607 0.930 . S
C588 N584 1.362 . S
C588 C585 1.431 1_545 S
C588 C598 1.476 1_545 S
H589 C583 0.929 . S
C590 O581 1.250 . S
C590 O582 1.258 . S
O591 Mn576 2.162 . S
O591 C579 1.281 . S
O592 Mn576 2.297 . S
O592 C579 1.236 . S
N593 Mn577 2.283 1_565 S
N593 C594 1.327 . S
N593 C598 1.317 . S
C594 N593 1.327 . S
C594 C595 1.457 . S
C594 H599 0.929 . S
C595 C594 1.457 . S
C595 C596 1.291 . S
C595 H608 0.931 . S
C596 C595 1.291 . S
C596 C597 1.373 . S
C596 H609 0.929 . S
C597 C596 1.373 . S
C597 C598 1.396 . S
C597 C604 1.403 . S
C598 C588 1.476 1_565 S
C598 N593 1.317 . S
C598 C597 1.396 . S
H599 C594 0.929 . S
O600 Mn576 2.385 1_565 S
O600 C578 1.242 . S
O601 Mn576 2.209 . S
O601 Mn577 2.215 . S
O601 C578 1.251 1_545 S
O602 Mn576 2.094 . S
O602 C580 1.240 . S
O603 Mn577 2.117 . S
O603 C580 1.264 . S
C604 C597 1.403 . S
C604 C605 1.399 . S
C604 H610 0.929 . S
C605 C585 1.449 . S
C605 C604 1.399 . S
C605 H611 0.930 . S
H606 C586 0.931 1_565 S
H607 C587 0.930 . S
H608 C595 0.931 . S
H609 C596 0.929 . S
H610 C604 0.929 . S
H611 C605 0.930 . S
Mn612 O617 2.095 . S
Mn612 O627 2.162 . S
Mn612 O628 2.297 . S
Mn612 O636 2.385 . S
Mn612 O637 2.209 . S
Mn612 O638 2.094 . S
Mn613 O618 2.121 . S
Mn613 N620 2.257 . S
Mn613 N629 2.282 . S
Mn613 O637 2.215 . S
Mn613 O639 2.117 . S
C614 O636 1.234 . S
C614 O637 1.283 . S
C615 O627 1.281 . S
C615 O628 1.236 . S
C616 O638 1.240 . S
C616 O639 1.264 . S
O617 Mn612 2.095 . S
O617 C626 1.250 . S
O618 Mn613 2.121 . S
O618 C626 1.258 . S
C619 N620 1.326 . S
C619 C623 1.460 . S
C619 H625 0.929 . S
N620 Mn613 2.257 . S
N620 C619 1.326 . S
N620 C624 1.362 . S
C621 C622 1.258 . S
C621 C624 1.431 . S
C621 C641 1.449 . S
C622 C621 1.258 . S
C622 C623 1.477 . S
C622 H642 0.931 . S
C623 C619 1.460 . S
C623 C622 1.477 . S
C623 H643 0.930 . S
C624 N620 1.362 . S
C624 C621 1.431 . S
C624 C634 1.476 . S
H625 C619 0.929 . S
C626 O617 1.250 . S
C626 O618 1.258 . S
O627 Mn612 2.162 . S
O627 C615 1.281 . S
O628 Mn612 2.297 . S
O628 C615 1.236 . S
N629 Mn613 2.282 . S
N629 C630 1.328 . S
N629 C634 1.318 . S
C630 N629 1.328 . S
C630 C631 1.457 . S
C630 H635 0.929 . S
C631 C630 1.457 . S
C631 C632 1.291 . S
C631 H644 0.931 . S
C632 C631 1.291 . S
C632 C633 1.373 . S
C632 H645 0.929 . S
C633 C632 1.373 . S
C633 C634 1.396 . S
C633 C640 1.403 . S
C634 C624 1.476 . S
C634 N629 1.318 . S
C634 C633 1.396 . S
H635 C630 0.929 . S
O636 Mn612 2.385 . S
O636 C614 1.234 . S
O637 Mn612 2.209 . S
O637 Mn613 2.215 . S
O637 C614 1.283 . S
O638 Mn612 2.094 . S
O638 C616 1.240 . S
O639 Mn613 2.117 . S
O639 C616 1.264 . S
C640 C633 1.403 . S
C640 C641 1.399 . S
C640 H646 0.929 . S
C641 C621 1.449 . S
C641 C640 1.399 . S
C641 H647 0.930 . S
H642 C622 0.931 . S
H643 C623 0.930 . S
H644 C631 0.931 . S
H645 C632 0.929 . S
H646 C640 0.929 . S
H647 C641 0.930 . S
Mn648 O653 2.095 . S
Mn648 O663 2.162 . S
Mn648 O664 2.297 . S
Mn648 O672 2.385 . S
Mn648 O673 2.209 . S
Mn648 O674 2.094 . S
Mn649 O654 2.121 . S
Mn649 N656 2.257 . S
Mn649 N665 2.282 . S
Mn649 O673 2.215 . S
Mn649 O675 2.117 . S
C650 O672 1.234 . S
C650 O673 1.283 . S
C651 O663 1.281 . S
C651 O664 1.236 . S
C652 O674 1.240 . S
C652 O675 1.264 . S
O653 Mn648 2.095 . S
O653 C662 1.250 . S
O654 Mn649 2.121 . S
O654 C662 1.258 . S
C655 N656 1.326 . S
C655 C659 1.460 . S
C655 H661 0.929 . S
N656 Mn649 2.257 . S
N656 C655 1.326 . S
N656 C660 1.362 . S
C657 C658 1.258 . S
C657 C660 1.431 . S
C657 C677 1.449 . S
C658 C657 1.258 . S
C658 C659 1.477 . S
C658 H678 0.931 . S
C659 C655 1.460 . S
C659 C658 1.477 . S
C659 H679 0.930 . S
C660 N656 1.362 . S
C660 C657 1.431 . S
C660 C670 1.476 . S
H661 C655 0.929 . S
C662 O653 1.250 . S
C662 O654 1.258 . S
O663 Mn648 2.162 . S
O663 C651 1.281 . S
O664 Mn648 2.297 . S
O664 C651 1.236 . S
N665 Mn649 2.282 . S
N665 C666 1.328 . S
N665 C670 1.318 . S
C666 N665 1.328 . S
C666 C667 1.457 . S
C666 H671 0.929 . S
C667 C666 1.457 . S
C667 C668 1.291 . S
C667 H680 0.931 . S
C668 C667 1.291 . S
C668 C669 1.373 . S
C668 H681 0.929 . S
C669 C668 1.373 . S
C669 C670 1.396 . S
C669 C676 1.403 . S
C670 C660 1.476 . S
C670 N665 1.318 . S
C670 C669 1.396 . S
H671 C666 0.929 . S
O672 Mn648 2.385 . S
O672 C650 1.234 . S
O673 Mn648 2.209 . S
O673 Mn649 2.215 . S
O673 C650 1.283 . S
O674 Mn648 2.094 . S
O674 C652 1.240 . S
O675 Mn649 2.117 . S
O675 C652 1.264 . S
C676 C669 1.403 . S
C676 C677 1.399 . S
C676 H682 0.929 . S
C677 C657 1.449 . S
C677 C676 1.399 . S
C677 H683 0.930 . S
H678 C658 0.931 . S
H679 C659 0.930 . S
H680 C667 0.931 . S
H681 C668 0.929 . S
H682 C676 0.929 . S
H683 C677 0.930 . S
Mn684 O689 2.095 1_545 S
Mn684 O699 2.162 . S
Mn684 O700 2.297 . S
Mn684 O708 2.385 . S
Mn684 O709 2.209 . S
Mn684 O710 2.094 . S
Mn685 O690 2.121 1_545 S
Mn685 N692 2.257 . S
Mn685 N701 2.282 . S
Mn685 O709 2.215 . S
Mn685 O711 2.117 . S
C686 O708 1.234 . S
C686 O709 1.283 . S
C687 O699 1.281 . S
C687 O700 1.236 . S
C688 O710 1.240 . S
C688 O711 1.264 . S
O689 Mn684 2.095 1_565 S
O689 C698 1.250 . S
O690 Mn685 2.121 1_565 S
O690 C698 1.258 . S
C691 N692 1.326 . S
C691 C695 1.460 . S
C691 H697 0.929 . S
N692 Mn685 2.257 . S
N692 C691 1.326 . S
N692 C696 1.362 . S
C693 C694 1.258 . S
C693 C696 1.431 . S
C693 C713 1.449 . S
C694 C693 1.258 . S
C694 C695 1.477 . S
C694 H714 0.931 . S
C695 C691 1.460 . S
C695 C694 1.477 . S
C695 H715 0.930 . S
C696 N692 1.362 . S
C696 C693 1.431 . S
C696 C706 1.476 . S
H697 C691 0.929 . S
C698 O689 1.250 . S
C698 O690 1.258 . S
O699 Mn684 2.162 . S
O699 C687 1.281 . S
O700 Mn684 2.297 . S
O700 C687 1.236 . S
N701 Mn685 2.282 . S
N701 C702 1.328 . S
N701 C706 1.318 . S
C702 N701 1.328 . S
C702 C703 1.457 . S
C702 H707 0.929 . S
C703 C702 1.457 . S
C703 C704 1.291 . S
C703 H716 0.931 . S
C704 C703 1.291 . S
C704 C705 1.373 . S
C704 H717 0.929 . S
C705 C704 1.373 . S
C705 C706 1.396 . S
C705 C712 1.403 . S
C706 C696 1.476 . S
C706 N701 1.318 . S
C706 C705 1.396 . S
H707 C702 0.929 . S
O708 Mn684 2.385 . S
O708 C686 1.234 . S
O709 Mn684 2.209 . S
O709 Mn685 2.215 . S
O709 C686 1.283 . S
O710 Mn684 2.094 . S
O710 C688 1.240 . S
O711 Mn685 2.117 . S
O711 C688 1.264 . S
C712 C705 1.403 . S
C712 C713 1.399 . S
C712 H718 0.929 . S
C713 C693 1.449 . S
C713 C712 1.399 . S
C713 H719 0.930 . S
H714 C694 0.931 . S
H715 C695 0.930 . S
H716 C703 0.931 . S
H717 C704 0.929 . S
H718 C712 0.929 . S
H719 C713 0.930 . S
Mn720 O725 2.095 1_554 S
Mn720 O735 2.162 . S
Mn720 O736 2.297 . S
Mn720 O744 2.385 . S
Mn720 O745 2.209 1_554 S
Mn720 O746 2.094 1_554 S
Mn721 O726 2.121 . S
Mn721 N728 2.257 . S
Mn721 N737 2.282 . S
Mn721 O745 2.215 . S
Mn721 O747 2.117 . S
C722 O744 1.234 1_556 S
C722 O745 1.283 . S
C723 O735 1.281 . S
C723 O736 1.236 . S
C724 O746 1.240 . S
C724 O747 1.264 . S
O725 Mn720 2.095 1_556 S
O725 C734 1.250 . S
O726 Mn721 2.121 . S
O726 C734 1.258 . S
C727 N728 1.326 . S
C727 C731 1.460 . S
C727 H733 0.929 . S
N728 Mn721 2.257 . S
N728 C727 1.326 . S
N728 C732 1.362 . S
C729 C730 1.258 . S
C729 C732 1.431 . S
C729 C749 1.449 . S
C730 C729 1.258 . S
C730 C731 1.477 . S
C730 H750 0.931 . S
C731 C727 1.460 . S
C731 C730 1.477 . S
C731 H751 0.930 . S
C732 N728 1.362 . S
C732 C729 1.431 . S
C732 C742 1.476 . S
H733 C727 0.929 . S
C734 O725 1.250 . S
C734 O726 1.258 . S
O735 Mn720 2.162 . S
O735 C723 1.281 . S
O736 Mn720 2.297 . S
O736 C723 1.236 . S
N737 Mn721 2.282 . S
N737 C738 1.328 . S
N737 C742 1.318 . S
C738 N737 1.328 . S
C738 C739 1.457 . S
C738 H743 0.929 . S
C739 C738 1.457 . S
C739 C740 1.291 . S
C739 H752 0.931 . S
C740 C739 1.291 . S
C740 C741 1.373 . S
C740 H753 0.929 . S
C741 C740 1.373 . S
C741 C742 1.396 . S
C741 C748 1.403 . S
C742 C732 1.476 . S
C742 N737 1.318 . S
C742 C741 1.396 . S
H743 C738 0.929 . S
O744 Mn720 2.385 . S
O744 C722 1.234 1_554 S
O745 Mn720 2.209 1_556 S
O745 Mn721 2.215 . S
O745 C722 1.283 . S
O746 Mn720 2.094 1_556 S
O746 C724 1.240 . S
O747 Mn721 2.117 . S
O747 C724 1.264 . S
C748 C741 1.403 . S
C748 C749 1.399 . S
C748 H754 0.929 . S
C749 C729 1.449 . S
C749 C748 1.399 . S
C749 H755 0.930 . S
H750 C730 0.931 . S
H751 C731 0.930 . S
H752 C739 0.931 . S
H753 C740 0.929 . S
H754 C748 0.929 . S
H755 C749 0.930 . S
Mn756 O761 2.095 . S
Mn756 O771 2.162 . S
Mn756 O772 2.297 . S
Mn756 O780 2.385 . S
Mn756 O781 2.209 . S
Mn756 O782 2.094 . S
Mn757 O762 2.121 . S
Mn757 N764 2.257 . S
Mn757 N773 2.282 . S
Mn757 O781 2.215 . S
Mn757 O783 2.117 . S
C758 O780 1.234 . S
C758 O781 1.283 . S
C759 O771 1.281 . S
C759 O772 1.236 . S
C760 O782 1.240 . S
C760 O783 1.264 . S
O761 Mn756 2.095 . S
O761 C770 1.250 . S
O762 Mn757 2.121 . S
O762 C770 1.258 . S
C763 N764 1.326 . S
C763 C767 1.460 . S
C763 H769 0.929 . S
N764 Mn757 2.257 . S
N764 C763 1.326 . S
N764 C768 1.362 . S
C765 C766 1.258 . S
C765 C768 1.431 . S
C765 C785 1.449 . S
C766 C765 1.258 . S
C766 C767 1.477 . S
C766 H786 0.931 . S
C767 C763 1.460 . S
C767 C766 1.477 . S
C767 H787 0.930 . S
C768 N764 1.362 . S
C768 C765 1.431 . S
C768 C778 1.476 . S
H769 C763 0.929 . S
C770 O761 1.250 . S
C770 O762 1.258 . S
O771 Mn756 2.162 . S
O771 C759 1.281 . S
O772 Mn756 2.297 . S
O772 C759 1.236 . S
N773 Mn757 2.282 . S
N773 C774 1.328 . S
N773 C778 1.318 . S
C774 N773 1.328 . S
C774 C775 1.457 . S
C774 H779 0.929 . S
C775 C774 1.457 . S
C775 C776 1.291 . S
C775 H788 0.931 . S
C776 C775 1.291 . S
C776 C777 1.373 . S
C776 H789 0.929 . S
C777 C776 1.373 . S
C777 C778 1.396 . S
C777 C784 1.403 . S
C778 C768 1.476 . S
C778 N773 1.318 . S
C778 C777 1.396 . S
H779 C774 0.929 . S
O780 Mn756 2.385 . S
O780 C758 1.234 . S
O781 Mn756 2.209 . S
O781 Mn757 2.215 . S
O781 C758 1.283 . S
O782 Mn756 2.094 . S
O782 C760 1.240 . S
O783 Mn757 2.117 . S
O783 C760 1.264 . S
C784 C777 1.403 . S
C784 C785 1.399 . S
C784 H790 0.929 . S
C785 C765 1.449 . S
C785 C784 1.399 . S
C785 H791 0.930 . S
H786 C766 0.931 . S
H787 C767 0.930 . S
H788 C775 0.931 . S
H789 C776 0.929 . S
H790 C784 0.929 . S
H791 C785 0.930 . S
Mn792 O797 2.095 . S
Mn792 O807 2.162 . S
Mn792 O808 2.297 . S
Mn792 O816 2.385 . S
Mn792 O817 2.209 . S
Mn792 O818 2.094 . S
Mn793 O798 2.121 . S
Mn793 N800 2.257 . S
Mn793 N809 2.282 . S
Mn793 O817 2.215 . S
Mn793 O819 2.117 . S
C794 O816 1.234 . S
C794 O817 1.283 . S
C795 O807 1.281 . S
C795 O808 1.236 . S
C796 O818 1.240 . S
C796 O819 1.264 . S
O797 Mn792 2.095 . S
O797 C806 1.250 . S
O798 Mn793 2.121 . S
O798 C806 1.258 . S
C799 N800 1.326 . S
C799 C803 1.460 . S
C799 H805 0.929 . S
N800 Mn793 2.257 . S
N800 C799 1.326 . S
N800 C804 1.362 . S
C801 C802 1.258 . S
C801 C804 1.431 . S
C801 C821 1.449 . S
C802 C801 1.258 . S
C802 C803 1.477 . S
C802 H822 0.931 . S
C803 C799 1.460 . S
C803 C802 1.477 . S
C803 H823 0.930 . S
C804 N800 1.362 . S
C804 C801 1.431 . S
C804 C814 1.476 . S
H805 C799 0.929 . S
C806 O797 1.250 . S
C806 O798 1.258 . S
O807 Mn792 2.162 . S
O807 C795 1.281 . S
O808 Mn792 2.297 . S
O808 C795 1.236 . S
N809 Mn793 2.282 . S
N809 C810 1.328 . S
N809 C814 1.318 . S
C810 N809 1.328 . S
C810 C811 1.457 . S
C810 H815 0.929 . S
C811 C810 1.457 . S
C811 C812 1.291 . S
C811 H824 0.931 . S
C812 C811 1.291 . S
C812 C813 1.373 . S
C812 H825 0.929 . S
C813 C812 1.373 . S
C813 C814 1.396 . S
C813 C820 1.403 . S
C814 C804 1.476 . S
C814 N809 1.318 . S
C814 C813 1.396 . S
H815 C810 0.929 . S
O816 Mn792 2.385 . S
O816 C794 1.234 . S
O817 Mn792 2.209 . S
O817 Mn793 2.215 . S
O817 C794 1.283 . S
O818 Mn792 2.094 . S
O818 C796 1.240 . S
O819 Mn793 2.117 . S
O819 C796 1.264 . S
C820 C813 1.403 . S
C820 C821 1.399 . S
C820 H826 0.929 . S
C821 C801 1.449 . S
C821 C820 1.399 . S
C821 H827 0.930 . S
H822 C802 0.931 . S
H823 C803 0.930 . S
H824 C811 0.931 . S
H825 C812 0.929 . S
H826 C820 0.929 . S
H827 C821 0.930 . S
Mn828 O833 2.095 . S
Mn828 O843 2.162 . S
Mn828 O844 2.297 . S
Mn828 O852 2.385 . S
Mn828 O853 2.209 . S
Mn828 O854 2.094 . S
Mn829 O834 2.121 . S
Mn829 N836 2.257 . S
Mn829 N845 2.282 . S
Mn829 O853 2.215 . S
Mn829 O855 2.117 . S
C830 O852 1.234 . S
C830 O853 1.283 . S
C831 O843 1.281 . S
C831 O844 1.236 . S
C832 O854 1.240 . S
C832 O855 1.264 . S
O833 Mn828 2.095 . S
O833 C842 1.250 . S
O834 Mn829 2.121 . S
O834 C842 1.258 . S
C835 N836 1.326 . S
C835 C839 1.460 . S
C835 H841 0.929 . S
N836 Mn829 2.257 . S
N836 C835 1.326 . S
N836 C840 1.362 . S
C837 C838 1.258 . S
C837 C840 1.431 . S
C837 C857 1.449 . S
C838 C837 1.258 . S
C838 C839 1.477 . S
C838 H858 0.931 . S
C839 C835 1.460 . S
C839 C838 1.477 . S
C839 H859 0.930 . S
C840 N836 1.362 . S
C840 C837 1.431 . S
C840 C850 1.476 . S
H841 C835 0.929 . S
C842 O833 1.250 . S
C842 O834 1.258 . S
O843 Mn828 2.162 . S
O843 C831 1.281 . S
O844 Mn828 2.297 . S
O844 C831 1.236 . S
N845 Mn829 2.282 . S
N845 C846 1.328 . S
N845 C850 1.318 . S
C846 N845 1.328 . S
C846 C847 1.457 . S
C846 H851 0.929 . S
C847 C846 1.457 . S
C847 C848 1.291 . S
C847 H860 0.931 . S
C848 C847 1.291 . S
C848 C849 1.373 . S
C848 H861 0.929 . S
C849 C848 1.373 . S
C849 C850 1.396 . S
C849 C856 1.403 . S
C850 C840 1.476 . S
C850 N845 1.318 . S
C850 C849 1.396 . S
H851 C846 0.929 . S
O852 Mn828 2.385 . S
O852 C830 1.234 . S
O853 Mn828 2.209 . S
O853 Mn829 2.215 . S
O853 C830 1.283 . S
O854 Mn828 2.094 . S
O854 C832 1.240 . S
O855 Mn829 2.117 . S
O855 C832 1.264 . S
C856 C849 1.403 . S
C856 C857 1.399 . S
C856 H862 0.929 . S
C857 C837 1.449 . S
C857 C856 1.399 . S
C857 H863 0.930 . S
H858 C838 0.931 . S
H859 C839 0.930 . S
H860 C847 0.931 . S
H861 C848 0.929 . S
H862 C856 0.929 . S
H863 C857 0.930 . S
Tb864 O867 2.453 . S
Tb864 O868 2.596 . S
Tb864 O869 2.374 1_554 S
Tb864 O877 2.343 1_455 S
Tb864 O879 2.353 . S
Tb864 O881 2.427 . S
Tb864 O882 2.513 1_554 S
C865 O869 1.251 . S
C865 O871 1.263 1_445 S
Tb866 O868 2.343 1_665 S
Tb866 O871 2.353 1_554 S
Tb866 O874 2.427 . S
Tb866 O875 2.513 . S
Tb866 O876 2.453 1_564 S
Tb866 O877 2.596 1_565 S
Tb866 O878 2.374 1_565 S
O867 Tb864 2.453 . S
O867 C883 1.245 . S
O868 Tb864 2.596 . S
O868 Tb866 2.343 1_445 S
O868 C883 1.259 . S
O869 Tb864 2.374 1_556 S
O869 C865 1.251 . S
C870 O874 1.275 . S
C870 O875 1.246 . S
O871 C865 1.263 1_665 S
O871 Tb866 2.353 1_556 S
C872 O876 1.245 . S
C872 O877 1.259 1_556 S
C873 O878 1.250 . S
C873 O879 1.263 1_655 S
O874 Tb866 2.427 . S
O874 C870 1.275 . S
O875 Tb866 2.513 . S
O875 C870 1.246 . S
O876 Tb866 2.453 1_546 S
O876 C872 1.245 . S
O877 Tb864 2.343 1_655 S
O877 Tb866 2.596 1_545 S
O877 C872 1.259 1_554 S
O878 Tb866 2.374 1_545 S
O878 C873 1.250 . S
O879 Tb864 2.353 . S
O879 C873 1.263 1_455 S
C880 O881 1.275 1_556 S
C880 O882 1.246 . S
O881 Tb864 2.427 . S
O881 C880 1.275 1_554 S
O882 Tb864 2.513 1_556 S
O882 C880 1.246 . S
C883 O867 1.245 . S
C883 O868 1.259 . S
Tb884 O887 2.453 . S
Tb884 O888 2.596 . S
Tb884 O889 2.374 . S
Tb884 O897 2.343 . S
Tb884 O899 2.353 . S
Tb884 O901 2.427 . S
Tb884 O902 2.513 . S
C885 O889 1.251 . S
C885 O891 1.263 . S
Tb886 O888 2.343 . S
Tb886 O891 2.353 . S
Tb886 O894 2.427 . S
Tb886 O895 2.513 . S
Tb886 O896 2.453 . S
Tb886 O897 2.596 . S
Tb886 O898 2.374 . S
O887 Tb884 2.453 . S
O887 C903 1.245 . S
O888 Tb884 2.596 . S
O888 Tb886 2.343 . S
O888 C903 1.259 . S
O889 Tb884 2.374 . S
O889 C885 1.251 . S
C890 O894 1.275 . S
C890 O895 1.246 . S
O891 C885 1.263 . S
O891 Tb886 2.353 . S
C892 O896 1.245 . S
C892 O897 1.259 . S
C893 O898 1.250 . S
C893 O899 1.263 . S
O894 Tb886 2.427 . S
O894 C890 1.275 . S
O895 Tb886 2.513 . S
O895 C890 1.246 . S
O896 Tb886 2.453 . S
O896 C892 1.245 . S
O897 Tb884 2.343 . S
O897 Tb886 2.596 . S
O897 C892 1.259 . S
O898 Tb886 2.374 . S
O898 C893 1.250 . S
O899 Tb884 2.353 . S
O899 C893 1.263 . S
C900 O901 1.275 . S
C900 O902 1.246 . S
O901 Tb884 2.427 . S
O901 C900 1.275 . S
O902 Tb884 2.513 . S
O902 C900 1.246 . S
C903 O887 1.245 . S
C903 O888 1.259 . S
Tb904 O907 2.453 . S
Tb904 O908 2.596 . S
Tb904 O909 2.374 . S
Tb904 O917 2.343 . S
Tb904 O919 2.353 . S
Tb904 O921 2.427 . S
Tb904 O922 2.513 . S
C905 O909 1.251 . S
C905 O911 1.263 . S
Tb906 O908 2.343 . S
Tb906 O911 2.353 . S
Tb906 O914 2.427 . S
Tb906 O915 2.513 . S
Tb906 O916 2.453 1_545 S
Tb906 O917 2.596 . S
Tb906 O918 2.374 . S
O907 Tb904 2.453 . S
O907 C923 1.245 . S
O908 Tb904 2.596 . S
O908 Tb906 2.343 . S
O908 C923 1.259 . S
O909 Tb904 2.374 . S
O909 C905 1.251 . S
C910 O914 1.275 . S
C910 O915 1.246 . S
O911 C905 1.263 . S
O911 Tb906 2.353 . S
C912 O916 1.245 . S
C912 O917 1.259 1_565 S
C913 O918 1.250 . S
C913 O919 1.263 . S
O914 Tb906 2.427 . S
O914 C910 1.275 . S
O915 Tb906 2.513 . S
O915 C910 1.246 . S
O916 Tb906 2.453 1_565 S
O916 C912 1.245 . S
O917 Tb904 2.343 . S
O917 Tb906 2.596 . S
O917 C912 1.259 1_545 S
O918 Tb906 2.374 . S
O918 C913 1.250 . S
O919 Tb904 2.353 . S
O919 C913 1.263 . S
C920 O921 1.275 . S
C920 O922 1.246 . S
O921 Tb904 2.427 . S
O921 C920 1.275 . S
O922 Tb904 2.513 . S
O922 C920 1.246 . S
C923 O907 1.245 . S
C923 O908 1.259 . S
Tb924 O927 2.453 . S
Tb924 O928 2.596 . S
Tb924 O929 2.374 . S
Tb924 O937 2.343 . S
Tb924 O939 2.353 . S
Tb924 O941 2.427 . S
Tb924 O942 2.513 . S
C925 O929 1.251 . S
C925 O931 1.263 . S
Tb926 O928 2.343 . S
Tb926 O931 2.353 . S
Tb926 O934 2.427 . S
Tb926 O935 2.513 . S
Tb926 O936 2.453 . S
Tb926 O937 2.596 . S
Tb926 O938 2.374 . S
O927 Tb924 2.453 . S
O927 C943 1.245 . S
O928 Tb924 2.596 . S
O928 Tb926 2.343 . S
O928 C943 1.259 . S
O929 Tb924 2.374 . S
O929 C925 1.251 . S
C930 O934 1.275 . S
C930 O935 1.246 . S
O931 C925 1.263 . S
O931 Tb926 2.353 . S
C932 O936 1.245 . S
C932 O937 1.259 . S
C933 O938 1.250 . S
C933 O939 1.263 . S
O934 Tb926 2.427 . S
O934 C930 1.275 . S
O935 Tb926 2.513 . S
O935 C930 1.246 . S
O936 Tb926 2.453 . S
O936 C932 1.245 . S
O937 Tb924 2.343 . S
O937 Tb926 2.596 . S
O937 C932 1.259 . S
O938 Tb926 2.374 . S
O938 C933 1.250 . S
O939 Tb924 2.353 . S
O939 C933 1.263 . S
C940 O941 1.275 . S
C940 O942 1.246 . S
O941 Tb924 2.427 . S
O941 C940 1.275 . S
O942 Tb924 2.513 . S
O942 C940 1.246 . S
C943 O927 1.245 . S
C943 O928 1.259 . S
Tb944 O947 2.453 1_545 S
Tb944 O948 2.596 . S
Tb944 O949 2.374 1_445 S
Tb944 O957 2.343 . S
Tb944 O959 2.353 . S
Tb944 O961 2.427 . S
Tb944 O962 2.513 1_455 S
C945 O949 1.251 1_545 S
C945 O951 1.263 . S
Tb946 O948 2.343 . S
Tb946 O951 2.353 1_455 S
Tb946 O954 2.427 . S
Tb946 O955 2.513 . S
Tb946 O956 2.443 1_455 S
Tb946 O957 2.596 . S
Tb946 O958 2.374 . S
O947 Tb944 2.453 1_565 S
O947 C963 1.245 . S
O948 Tb944 2.596 . S
O948 Tb946 2.343 . S
O948 C963 1.259 1_545 S
O949 Tb944 2.374 1_665 S
O949 C945 1.251 1_565 S
C950 O954 1.275 . S
C950 O955 1.246 . S
O951 C945 1.263 . S
O951 Tb946 2.353 1_655 S
C952 O956 1.237 1_455 S
C952 O957 1.259 . S
C953 O958 1.250 . S
C953 O959 1.263 . S
O954 Tb946 2.427 . S
O954 C950 1.275 . S
O955 Tb946 2.513 . S
O955 C950 1.246 . S
O956 Tb946 2.443 1_655 S
O956 C952 1.237 1_655 S
O957 Tb944 2.343 . S
O957 Tb946 2.596 . S
O957 C952 1.259 . S
O958 Tb946 2.374 . S
O958 C953 1.250 . S
O959 Tb944 2.353 . S
O959 C953 1.263 . S
C960 O961 1.275 1_655 S
C960 O962 1.246 . S
O961 Tb944 2.427 . S
O961 C960 1.275 1_455 S
O962 Tb944 2.513 1_655 S
O962 C960 1.246 . S
C963 O947 1.245 . S
C963 O948 1.259 1_565 S
Tb964 O967 2.453 . S
Tb964 O968 2.596 . S
Tb964 O969 2.374 . S
Tb964 O977 2.343 . S
Tb964 O979 2.353 . S
Tb964 O981 2.427 . S
Tb964 O982 2.513 . S
C965 O969 1.251 . S
C965 O971 1.263 . S
Tb966 O968 2.343 . S
Tb966 O971 2.353 . S
Tb966 O974 2.427 . S
Tb966 O975 2.513 . S
Tb966 O976 2.453 . S
Tb966 O977 2.596 . S
Tb966 O978 2.374 . S
O967 Tb964 2.453 . S
O967 C983 1.245 . S
O968 Tb964 2.596 . S
O968 Tb966 2.343 . S
O968 C983 1.259 . S
O969 Tb964 2.374 . S
O969 C965 1.251 . S
C970 O974 1.275 . S
C970 O975 1.246 . S
O971 C965 1.263 . S
O971 Tb966 2.353 . S
C972 O976 1.245 . S
C972 O977 1.259 . S
C973 O978 1.250 . S
C973 O979 1.263 . S
O974 Tb966 2.427 . S
O974 C970 1.275 . S
O975 Tb966 2.513 . S
O975 C970 1.246 . S
O976 Tb966 2.453 . S
O976 C972 1.245 . S
O977 Tb964 2.343 . S
O977 Tb966 2.596 . S
O977 C972 1.259 . S
O978 Tb966 2.374 . S
O978 C973 1.250 . S
O979 Tb964 2.353 . S
O979 C973 1.263 . S
C980 O981 1.275 . S
C980 O982 1.246 . S
O981 Tb964 2.427 . S
O981 C980 1.275 . S
O982 Tb964 2.513 . S
O982 C980 1.246 . S
C983 O967 1.245 . S
C983 O968 1.259 . S
Tb984 O987 2.453 . S
Tb984 O988 2.596 . S
Tb984 O989 2.374 1_545 S
Tb984 O997 2.343 1_556 S
Tb984 O999 2.353 1_556 S
Tb984 O1001 2.427 1_556 S
Tb984 O1002 2.513 1_546 S
C985 O989 1.259 . S
C985 O991 1.239 1_556 S
Tb986 O988 2.343 1_554 S
Tb986 O991 2.353 1_545 S
Tb986 O994 2.427 . S
Tb986 O995 2.513 . S
Tb986 O996 2.453 . S
Tb986 O997 2.596 . S
Tb986 O998 2.374 . S
O987 Tb984 2.453 . S
O987 C1003 1.245 . S
O988 Tb984 2.596 . S
O988 Tb986 2.343 1_556 S
O988 C1003 1.259 . S
O989 Tb984 2.374 1_565 S
O989 C985 1.259 . S
C990 O994 1.275 . S
C990 O995 1.246 . S
O991 C985 1.239 1_554 S
O991 Tb986 2.353 1_565 S
C992 O996 1.245 . S
C992 O997 1.259 . S
C993 O998 1.250 . S
C993 O999 1.263 . S
O994 Tb986 2.427 . S
O994 C990 1.275 . S
O995 Tb986 2.513 . S
O995 C990 1.246 . S
O996 Tb986 2.453 . S
O996 C992 1.245 . S
O997 Tb984 2.343 1_554 S
O997 Tb986 2.596 . S
O997 C992 1.259 . S
O998 Tb986 2.374 . S
O998 C993 1.250 . S
O999 Tb984 2.353 1_554 S
O999 C993 1.263 . S
C1000 O1001 1.275 . S
C1000 O1002 1.246 1_545 S
O1001 Tb984 2.427 1_554 S
O1001 C1000 1.275 . S
O1002 Tb984 2.513 1_564 S
O1002 C1000 1.246 1_565 S
C1003 O987 1.245 . S
C1003 O988 1.259 . S
Tb1004 O1007 2.453 . S
Tb1004 O1008 2.596 . S
Tb1004 O1009 2.374 . S
Tb1004 O1017 2.343 . S
Tb1004 O1019 2.353 . S
Tb1004 O1021 2.427 . S
Tb1004 O1022 2.513 . S
C1005 O1009 1.251 . S
C1005 O1011 1.263 . S
Tb1006 O1008 2.343 . S
Tb1006 O1011 2.353 . S
Tb1006 O1014 2.427 . S
Tb1006 O1015 2.513 . S
Tb1006 O1016 2.453 . S
Tb1006 O1017 2.596 . S
Tb1006 O1018 2.374 . S
O1007 Tb1004 2.453 . S
O1007 C1023 1.245 . S
O1008 Tb1004 2.596 . S
O1008 Tb1006 2.343 . S
O1008 C1023 1.259 . S
O1009 Tb1004 2.374 . S
O1009 C1005 1.251 . S
C1010 O1014 1.275 . S
C1010 O1015 1.246 . S
O1011 C1005 1.263 . S
O1011 Tb1006 2.353 . S
C1012 O1016 1.245 . S
C1012 O1017 1.259 . S
C1013 O1018 1.250 . S
C1013 O1019 1.263 . S
O1014 Tb1006 2.427 . S
O1014 C1010 1.275 . S
O1015 Tb1006 2.513 . S
O1015 C1010 1.246 . S
O1016 Tb1006 2.453 . S
O1016 C1012 1.245 . S
O1017 Tb1004 2.343 . S
O1017 Tb1006 2.596 . S
O1017 C1012 1.259 . S
O1018 Tb1006 2.374 . S
O1018 C1013 1.250 . S
O1019 Tb1004 2.353 . S
O1019 C1013 1.263 . S
C1020 O1021 1.275 . S
C1020 O1022 1.246 . S
O1021 Tb1004 2.427 . S
O1021 C1020 1.275 . S
O1022 Tb1004 2.513 . S
O1022 C1020 1.246 . S
C1023 O1007 1.245 . S
C1023 O1008 1.259 . S
Tb1024 O1027 2.453 1_556 S
Tb1024 O1028 2.596 1_556 S
Tb1024 O1029 2.387 . S
Tb1024 O1037 2.343 . S
Tb1024 O1039 2.353 . S
Tb1024 O1041 2.427 . S
Tb1024 O1042 2.513 . S
C1025 O1029 1.227 1_554 S
C1025 O1031 1.263 . S
Tb1026 O1028 2.343 . S
Tb1026 O1031 2.353 . S
Tb1026 O1034 2.427 . S
Tb1026 O1035 2.513 . S
Tb1026 O1036 2.453 . S
Tb1026 O1037 2.596 1_554 S
Tb1026 O1038 2.374 . S
O1027 Tb1024 2.453 1_554 S
O1027 C1043 1.245 . S
O1028 Tb1024 2.596 1_554 S
O1028 Tb1026 2.343 . S
O1028 C1043 1.259 . S
O1029 Tb1024 2.387 . S
O1029 C1025 1.227 1_556 S
C1030 O1034 1.275 . S
C1030 O1035 1.246 . S
O1031 C1025 1.263 . S
O1031 Tb1026 2.353 . S
C1032 O1036 1.245 . S
C1032 O1037 1.259 1_554 S
C1033 O1038 1.250 . S
C1033 O1039 1.263 1_554 S
O1034 Tb1026 2.427 . S
O1034 C1030 1.275 . S
O1035 Tb1026 2.513 . S
O1035 C1030 1.246 . S
O1036 Tb1026 2.453 . S
O1036 C1032 1.245 . S
O1037 Tb1024 2.343 . S
O1037 Tb1026 2.596 1_556 S
O1037 C1032 1.259 1_556 S
O1038 Tb1026 2.374 . S
O1038 C1033 1.250 . S
O1039 Tb1024 2.353 . S
O1039 C1033 1.263 1_556 S
C1040 O1041 1.275 . S
C1040 O1042 1.246 . S
O1041 Tb1024 2.427 . S
O1041 C1040 1.275 . S
O1042 Tb1024 2.513 . S
O1042 C1040 1.246 . S
C1043 O1027 1.245 . S
C1043 O1028 1.259 . S
Tb1044 O1047 2.453 . S
Tb1044 O1048 2.596 . S
Tb1044 O1049 2.374 . S
Tb1044 O1057 2.343 . S
Tb1044 O1059 2.353 . S
Tb1044 O1061 2.427 . S
Tb1044 O1062 2.513 . S
C1045 O1049 1.251 . S
C1045 O1051 1.263 . S
Tb1046 O1048 2.343 . S
Tb1046 O1051 2.353 . S
Tb1046 O1054 2.427 . S
Tb1046 O1055 2.513 . S
Tb1046 O1056 2.453 . S
Tb1046 O1057 2.596 . S
Tb1046 O1058 2.374 . S
O1047 Tb1044 2.453 . S
O1047 C1063 1.245 . S
O1048 Tb1044 2.596 . S
O1048 Tb1046 2.343 . S
O1048 C1063 1.259 . S
O1049 Tb1044 2.374 . S
O1049 C1045 1.251 . S
C1050 O1054 1.275 . S
C1050 O1055 1.246 . S
O1051 C1045 1.263 . S
O1051 Tb1046 2.353 . S
C1052 O1056 1.245 . S
C1052 O1057 1.259 . S
C1053 O1058 1.250 . S
C1053 O1059 1.263 . S
O1054 Tb1046 2.427 . S
O1054 C1050 1.275 . S
O1055 Tb1046 2.513 . S
O1055 C1050 1.246 . S
O1056 Tb1046 2.453 . S
O1056 C1052 1.245 . S
O1057 Tb1044 2.343 . S
O1057 Tb1046 2.596 . S
O1057 C1052 1.259 . S
O1058 Tb1046 2.374 . S
O1058 C1053 1.250 . S
O1059 Tb1044 2.353 . S
O1059 C1053 1.263 . S
C1060 O1061 1.275 . S
C1060 O1062 1.246 . S
O1061 Tb1044 2.427 . S
O1061 C1060 1.275 . S
O1062 Tb1044 2.513 . S
O1062 C1060 1.246 . S
C1063 O1047 1.245 . S
C1063 O1048 1.259 . S
Tb1064 O1067 2.453 . S
Tb1064 O1068 2.596 1_655 S
Tb1064 O1069 2.374 . S
Tb1064 O1077 2.343 . S
Tb1064 O1079 2.353 . S
Tb1064 O1081 2.427 . S
Tb1064 O1082 2.513 . S
C1065 O1069 1.251 1_455 S
C1065 O1071 1.263 . S
Tb1066 O1068 2.343 . S
Tb1066 O1071 2.353 . S
Tb1066 O1074 2.427 . S
Tb1066 O1075 2.513 . S
Tb1066 O1076 2.453 . S
Tb1066 O1077 2.596 1_455 S
Tb1066 O1078 2.374 . S
O1067 Tb1064 2.453 . S
O1067 C1083 1.245 1_655 S
O1068 Tb1064 2.596 1_455 S
O1068 Tb1066 2.343 . S
O1068 C1083 1.259 . S
O1069 Tb1064 2.374 . S
O1069 C1065 1.251 1_655 S
C1070 O1074 1.275 . S
C1070 O1075 1.246 . S
O1071 C1065 1.263 . S
O1071 Tb1066 2.353 . S
C1072 O1076 1.245 1_655 S
C1072 O1077 1.259 . S
C1073 O1078 1.250 . S
C1073 O1079 1.263 1_455 S
O1074 Tb1066 2.427 . S
O1074 C1070 1.275 . S
O1075 Tb1066 2.513 . S
O1075 C1070 1.246 . S
O1076 Tb1066 2.453 . S
O1076 C1072 1.245 1_455 S
O1077 Tb1064 2.343 . S
O1077 Tb1066 2.596 1_655 S
O1077 C1072 1.259 . S
O1078 Tb1066 2.374 . S
O1078 C1073 1.250 . S
O1079 Tb1064 2.353 . S
O1079 C1073 1.263 1_655 S
C1080 O1081 1.275 . S
C1080 O1082 1.246 . S
O1081 Tb1064 2.427 . S
O1081 C1080 1.275 . S
O1082 Tb1064 2.513 . S
O1082 C1080 1.246 . S
C1083 O1067 1.245 1_455 S
C1083 O1068 1.259 . S
Tb1084 O1087 2.453 . S
Tb1084 O1088 2.596 . S
Tb1084 O1089 2.374 . S
Tb1084 O1097 2.343 . S
Tb1084 O1099 2.353 . S
Tb1084 O1101 2.427 . S
Tb1084 O1102 2.513 . S
C1085 O1089 1.251 . S
C1085 O1091 1.263 . S
Tb1086 O1088 2.343 . S
Tb1086 O1091 2.353 . S
Tb1086 O1094 2.427 . S
Tb1086 O1095 2.513 . S
Tb1086 O1096 2.453 . S
Tb1086 O1097 2.596 . S
Tb1086 O1098 2.374 . S
O1087 Tb1084 2.453 . S
O1087 C1103 1.245 . S
O1088 Tb1084 2.596 . S
O1088 Tb1086 2.343 . S
O1088 C1103 1.259 . S
O1089 Tb1084 2.374 . S
O1089 C1085 1.251 . S
C1090 O1094 1.275 . S
C1090 O1095 1.246 . S
O1091 C1085 1.263 . S
O1091 Tb1086 2.353 . S
C1092 O1096 1.245 . S
C1092 O1097 1.259 . S
C1093 O1098 1.250 . S
C1093 O1099 1.263 . S
O1094 Tb1086 2.427 . S
O1094 C1090 1.275 . S
O1095 Tb1086 2.513 . S
O1095 C1090 1.246 . S
O1096 Tb1086 2.453 . S
O1096 C1092 1.245 . S
O1097 Tb1084 2.343 . S
O1097 Tb1086 2.596 . S
O1097 C1092 1.259 . S
O1098 Tb1086 2.374 . S
O1098 C1093 1.250 . S
O1099 Tb1084 2.353 . S
O1099 C1093 1.263 . S
C1100 O1101 1.275 . S
C1100 O1102 1.246 . S
O1101 Tb1084 2.427 . S
O1101 C1100 1.275 . S
O1102 Tb1084 2.513 . S
O1102 C1100 1.246 . S
C1103 O1087 1.245 . S
C1103 O1088 1.259 . S
Tb1104 O1107 2.453 . S
Tb1104 O1108 2.596 . S
Tb1104 O1109 2.374 . S
Tb1104 O1117 2.343 . S
Tb1104 O1119 2.353 . S
Tb1104 O1121 2.427 . S
Tb1104 O1122 2.513 . S
C1105 O1109 1.251 . S
C1105 O1111 1.263 . S
Tb1106 O1108 2.343 . S
Tb1106 O1111 2.353 . S
Tb1106 O1114 2.427 . S
Tb1106 O1115 2.513 . S
Tb1106 O1116 2.453 . S
Tb1106 O1117 2.596 . S
Tb1106 O1118 2.374 . S
O1107 Tb1104 2.453 . S
O1107 C1123 1.245 . S
O1108 Tb1104 2.596 . S
O1108 Tb1106 2.343 . S
O1108 C1123 1.259 . S
O1109 Tb1104 2.374 . S
O1109 C1105 1.251 . S
C1110 O1114 1.275 . S
C1110 O1115 1.246 . S
O1111 C1105 1.263 . S
O1111 Tb1106 2.353 . S
C1112 O1116 1.245 . S
C1112 O1117 1.259 . S
C1113 O1118 1.250 . S
C1113 O1119 1.263 . S
O1114 Tb1106 2.427 . S
O1114 C1110 1.275 . S
O1115 Tb1106 2.513 . S
O1115 C1110 1.246 . S
O1116 Tb1106 2.453 . S
O1116 C1112 1.245 . S
O1117 Tb1104 2.343 . S
O1117 Tb1106 2.596 . S
O1117 C1112 1.259 . S
O1118 Tb1106 2.374 . S
O1118 C1113 1.250 . S
O1119 Tb1104 2.353 . S
O1119 C1113 1.263 . S
C1120 O1121 1.275 . S
C1120 O1122 1.246 . S
O1121 Tb1104 2.427 . S
O1121 C1120 1.275 . S
O1122 Tb1104 2.513 . S
O1122 C1120 1.246 . S
C1123 O1107 1.245 . S
C1123 O1108 1.259 . S
Tb1124 O1127 2.453 . S
Tb1124 O1128 2.596 . S
Tb1124 O1129 2.374 . S
Tb1124 O1137 2.343 . S
Tb1124 O1139 2.353 . S
Tb1124 O1141 2.427 . S
Tb1124 O1142 2.513 . S
C1125 O1129 1.251 . S
C1125 O1131 1.263 . S
Tb1126 O1128 2.343 . S
Tb1126 O1131 2.353 . S
Tb1126 O1134 2.427 . S
Tb1126 O1135 2.513 . S
Tb1126 O1136 2.453 . S
Tb1126 O1137 2.596 . S
Tb1126 O1138 2.374 . S
O1127 Tb1124 2.453 . S
O1127 C1143 1.245 . S
O1128 Tb1124 2.596 . S
O1128 Tb1126 2.343 . S
O1128 C1143 1.259 . S
O1129 Tb1124 2.374 . S
O1129 C1125 1.251 . S
C1130 O1134 1.275 . S
C1130 O1135 1.246 . S
O1131 C1125 1.263 . S
O1131 Tb1126 2.353 . S
C1132 O1136 1.245 . S
C1132 O1137 1.259 . S
C1133 O1138 1.250 . S
C1133 O1139 1.263 . S
O1134 Tb1126 2.427 . S
O1134 C1130 1.275 . S
O1135 Tb1126 2.513 . S
O1135 C1130 1.246 . S
O1136 Tb1126 2.453 . S
O1136 C1132 1.245 . S
O1137 Tb1124 2.343 . S
O1137 Tb1126 2.596 . S
O1137 C1132 1.259 . S
O1138 Tb1126 2.374 . S
O1138 C1133 1.250 . S
O1139 Tb1124 2.353 . S
O1139 C1133 1.263 . S
C1140 O1141 1.275 . S
C1140 O1142 1.246 . S
O1141 Tb1124 2.427 . S
O1141 C1140 1.275 . S
O1142 Tb1124 2.513 . S
O1142 C1140 1.246 . S
C1143 O1127 1.245 . S
C1143 O1128 1.259 . S
Tb1144 O1147 2.453 . S
Tb1144 O1148 2.596 . S
Tb1144 O1149 2.374 . S
Tb1144 O1157 2.343 . S
Tb1144 O1159 2.353 . S
Tb1144 O1161 2.427 . S
Tb1144 O1162 2.513 . S
C1145 O1149 1.251 . S
C1145 O1151 1.263 . S
Tb1146 O1148 2.343 . S
Tb1146 O1151 2.353 . S
Tb1146 O1154 2.427 . S
Tb1146 O1155 2.513 . S
Tb1146 O1156 2.453 . S
Tb1146 O1157 2.596 . S
Tb1146 O1158 2.374 . S
O1147 Tb1144 2.453 . S
O1147 C1163 1.245 . S
O1148 Tb1144 2.596 . S
O1148 Tb1146 2.343 . S
O1148 C1163 1.259 . S
O1149 Tb1144 2.374 . S
O1149 C1145 1.251 . S
C1150 O1154 1.275 . S
C1150 O1155 1.246 . S
O1151 C1145 1.263 . S
O1151 Tb1146 2.353 . S
C1152 O1156 1.245 . S
C1152 O1157 1.259 . S
C1153 O1158 1.250 . S
C1153 O1159 1.263 . S
O1154 Tb1146 2.427 . S
O1154 C1150 1.275 . S
O1155 Tb1146 2.513 . S
O1155 C1150 1.246 . S
O1156 Tb1146 2.453 . S
O1156 C1152 1.245 . S
O1157 Tb1144 2.343 . S
O1157 Tb1146 2.596 . S
O1157 C1152 1.259 . S
O1158 Tb1146 2.374 . S
O1158 C1153 1.250 . S
O1159 Tb1144 2.353 . S
O1159 C1153 1.263 . S
C1160 O1161 1.275 . S
C1160 O1162 1.246 . S
O1161 Tb1144 2.427 . S
O1161 C1160 1.275 . S
O1162 Tb1144 2.513 . S
O1162 C1160 1.246 . S
C1163 O1147 1.245 . S
C1163 O1148 1.259 . S
Tb1164 O1167 2.453 . S
Tb1164 O1168 2.596 . S
Tb1164 O1169 2.374 . S
Tb1164 O1177 2.343 . S
Tb1164 O1179 2.353 1_554 S
Tb1164 O1181 2.427 1_554 S
Tb1164 O1182 2.513 . S
C1165 O1169 1.251 . S
C1165 O1171 1.263 1_455 S
Tb1166 O1168 2.343 1_655 S
Tb1166 O1171 2.353 . S
Tb1166 O1174 2.427 . S
Tb1166 O1175 2.513 . S
Tb1166 O1176 2.453 . S
Tb1166 O1177 2.596 1_655 S
Tb1166 O1178 2.374 1_554 S
O1167 Tb1164 2.453 . S
O1167 C1183 1.245 . S
O1168 Tb1164 2.596 . S
O1168 Tb1166 2.343 1_455 S
O1168 C1183 1.259 . S
O1169 Tb1164 2.374 . S
O1169 C1165 1.251 . S
C1170 O1174 1.275 . S
C1170 O1175 1.246 . S
O1171 C1165 1.263 1_655 S
O1171 Tb1166 2.353 . S
C1172 O1176 1.242 1_456 S
C1172 O1177 1.261 1_556 S
C1173 O1178 1.228 1_455 S
C1173 O1179 1.285 . S
O1174 Tb1166 2.427 . S
O1174 C1170 1.275 . S
O1175 Tb1166 2.513 . S
O1175 C1170 1.246 . S
O1176 Tb1166 2.453 . S
O1176 C1172 1.242 1_654 S
O1177 Tb1164 2.343 . S
O1177 Tb1166 2.596 1_455 S
O1177 C1172 1.261 1_554 S
O1178 Tb1166 2.374 1_556 S
O1178 C1173 1.228 1_655 S
O1179 Tb1164 2.353 1_556 S
O1179 C1173 1.285 . S
C1180 O1181 1.275 . S
C1180 O1182 1.246 1_556 S
O1181 Tb1164 2.427 1_556 S
O1181 C1180 1.275 . S
O1182 Tb1164 2.513 . S
O1182 C1180 1.246 1_554 S
C1183 O1167 1.245 . S
C1183 O1168 1.259 . S
C1184 C1185 1.369 . S
C1184 C1186 1.419 . S
C1184 H1188 0.930 . S
C1185 C1184 1.369 . S
C1185 C1194 1.429 1_455 S
C1186 C1184 1.419 . S
C1186 C1187 1.363 . S
C1186 H1189 0.929 1_556 S
C1187 C1186 1.363 . S
C1187 C1193 1.428 1_455 S
H1188 C1184 0.930 . S
H1189 C1186 0.929 1_554 S
S1190 N1191 1.613 . S
S1190 N1192 1.610 . S
N1191 S1190 1.613 . S
N1191 C1194 1.350 . S
N1192 S1190 1.610 . S
N1192 C1193 1.351 . S
C1193 C1187 1.428 1_655 S
C1193 N1192 1.351 . S
C1193 C1194 1.434 . S
C1194 C1185 1.429 1_655 S
C1194 N1191 1.350 . S
C1194 C1193 1.434 . S
C1195 C1196 1.369 . S
C1195 C1197 1.419 . S
C1195 H1199 0.930 . S
C1196 C1195 1.369 . S
C1196 C1205 1.429 . S
C1197 C1195 1.419 . S
C1197 C1198 1.363 . S
C1197 H1200 0.929 . S
C1198 C1197 1.363 . S
C1198 C1204 1.428 . S
H1199 C1195 0.930 . S
H1200 C1197 0.929 . S
S1201 N1202 1.613 . S
S1201 N1203 1.610 . S
N1202 S1201 1.613 . S
N1202 C1205 1.350 . S
N1203 S1201 1.610 . S
N1203 C1204 1.351 . S
C1204 C1198 1.428 . S
C1204 N1203 1.351 . S
C1204 C1205 1.434 . S
C1205 C1196 1.429 . S
C1205 N1202 1.350 . S
C1205 C1204 1.434 . S
C1206 C1207 1.369 . S
C1206 C1208 1.419 . S
C1206 H1210 0.930 . S
C1207 C1206 1.369 . S
C1207 C1216 1.429 . S
C1208 C1206 1.419 . S
C1208 C1209 1.363 . S
C1208 H1211 0.929 . S
C1209 C1208 1.363 . S
C1209 C1215 1.428 . S
H1210 C1206 0.930 . S
H1211 C1208 0.929 . S
S1212 N1213 1.613 . S
S1212 N1214 1.610 . S
N1213 S1212 1.613 . S
N1213 C1216 1.350 . S
N1214 S1212 1.610 . S
N1214 C1215 1.351 . S
C1215 C1209 1.428 . S
C1215 N1214 1.351 . S
C1215 C1216 1.434 . S
C1216 C1207 1.429 . S
C1216 N1213 1.350 . S
C1216 C1215 1.434 . S
C1217 C1218 1.369 . S
C1217 C1219 1.419 . S
C1217 H1221 0.930 . S
C1218 C1217 1.369 . S
C1218 C1227 1.429 . S
C1219 C1217 1.419 . S
C1219 C1220 1.363 . S
C1219 H1222 0.929 . S
C1220 C1219 1.363 . S
C1220 C1226 1.428 . S
H1221 C1217 0.930 . S
H1222 C1219 0.929 . S
S1223 N1224 1.613 . S
S1223 N1225 1.610 . S
N1224 S1223 1.613 . S
N1224 C1227 1.350 . S
N1225 S1223 1.610 . S
N1225 C1226 1.351 . S
C1226 C1220 1.428 . S
C1226 N1225 1.351 . S
C1226 C1227 1.434 . S
C1227 C1218 1.429 . S
C1227 N1224 1.350 . S
C1227 C1226 1.434 . S
C1228 C1229 1.369 . S
C1228 C1230 1.419 . S
C1228 H1232 0.930 . S
C1229 C1228 1.369 . S
C1229 C1238 1.429 1_455 S
C1230 C1228 1.419 . S
C1230 C1231 1.363 . S
C1230 H1233 0.929 . S
C1231 C1230 1.363 . S
C1231 C1237 1.428 1_455 S
H1232 C1228 0.930 . S
H1233 C1230 0.929 . S
S1234 N1235 1.613 . S
S1234 N1236 1.610 . S
N1235 S1234 1.613 . S
N1235 C1238 1.350 . S
N1236 S1234 1.610 . S
N1236 C1237 1.351 . S
C1237 C1231 1.428 1_655 S
C1237 N1236 1.351 . S
C1237 C1238 1.434 . S
C1238 C1229 1.429 1_655 S
C1238 N1235 1.350 . S
C1238 C1237 1.434 . S
C1239 C1240 1.369 . S
C1239 C1241 1.419 . S
C1239 H1243 0.930 . S
C1240 C1239 1.369 . S
C1240 C1249 1.429 . S
C1241 C1239 1.419 . S
C1241 C1242 1.363 . S
C1241 H1244 0.929 . S
C1242 C1241 1.363 . S
C1242 C1248 1.428 . S
H1243 C1239 0.930 . S
H1244 C1241 0.929 . S
S1245 N1246 1.613 . S
S1245 N1247 1.610 . S
N1246 S1245 1.613 . S
N1246 C1249 1.350 . S
N1247 S1245 1.610 . S
N1247 C1248 1.351 . S
C1248 C1242 1.428 . S
C1248 N1247 1.351 . S
C1248 C1249 1.434 . S
C1249 C1240 1.429 . S
C1249 N1246 1.350 . S
C1249 C1248 1.434 . S
C1250 C1251 1.369 . S
C1250 C1252 1.419 . S
C1250 H1254 0.930 . S
C1251 C1250 1.369 . S
C1251 C1260 1.429 . S
C1252 C1250 1.419 . S
C1252 C1253 1.363 . S
C1252 H1255 0.929 . S
C1253 C1252 1.363 . S
C1253 C1259 1.428 . S
H1254 C1250 0.930 . S
H1255 C1252 0.929 . S
S1256 N1257 1.613 . S
S1256 N1258 1.610 . S
N1257 S1256 1.613 . S
N1257 C1260 1.350 . S
N1258 S1256 1.610 . S
N1258 C1259 1.351 . S
C1259 C1253 1.428 . S
C1259 N1258 1.351 . S
C1259 C1260 1.434 . S
C1260 C1251 1.429 . S
C1260 N1257 1.350 . S
C1260 C1259 1.434 . S
C1261 C1262 1.369 . S
C1261 C1263 1.419 . S
C1261 H1265 0.930 . S
C1262 C1261 1.369 . S
C1262 C1271 1.429 . S
C1263 C1261 1.419 . S
C1263 C1264 1.363 . S
C1263 H1266 0.929 . S
C1264 C1263 1.363 . S
C1264 C1270 1.428 . S
H1265 C1261 0.930 . S
H1266 C1263 0.929 . S
S1267 N1268 1.613 . S
S1267 N1269 1.610 . S
N1268 S1267 1.613 . S
N1268 C1271 1.350 . S
N1269 S1267 1.610 . S
N1269 C1270 1.351 . S
C1270 C1264 1.428 . S
C1270 N1269 1.351 . S
C1270 C1271 1.434 . S
C1271 C1262 1.429 . S
C1271 N1268 1.350 . S
C1271 C1270 1.434 . S
C1272 C1273 1.369 . S
C1272 C1274 1.419 . S
C1272 H1276 0.930 . S
C1273 C1272 1.369 . S
C1273 C1282 1.429 . S
C1274 C1272 1.419 . S
C1274 C1275 1.363 . S
C1274 H1277 0.929 . S
C1275 C1274 1.363 . S
C1275 C1281 1.428 . S
H1276 C1272 0.930 . S
H1277 C1274 0.929 . S
S1278 N1279 1.613 . S
S1278 N1280 1.610 . S
N1279 S1278 1.613 . S
N1279 C1282 1.350 . S
N1280 S1278 1.610 . S
N1280 C1281 1.351 . S
C1281 C1275 1.428 . S
C1281 N1280 1.351 . S
C1281 C1282 1.434 . S
C1282 C1273 1.429 . S
C1282 N1279 1.350 . S
C1282 C1281 1.434 . S
C1283 C1284 1.369 . S
C1283 C1285 1.419 . S
C1283 H1287 0.930 . S
C1284 C1283 1.369 . S
C1284 C1293 1.429 . S
C1285 C1283 1.419 . S
C1285 C1286 1.363 . S
C1285 H1288 0.929 . S
C1286 C1285 1.363 . S
C1286 C1292 1.428 . S
H1287 C1283 0.930 . S
H1288 C1285 0.929 . S
S1289 N1290 1.613 . S
S1289 N1291 1.610 . S
N1290 S1289 1.613 . S
N1290 C1293 1.350 . S
N1291 S1289 1.610 . S
N1291 C1292 1.351 . S
C1292 C1286 1.428 . S
C1292 N1291 1.351 . S
C1292 C1293 1.434 . S
C1293 C1284 1.429 . S
C1293 N1290 1.350 . S
C1293 C1292 1.434 . S
C1294 C1295 1.369 . S
C1294 C1296 1.419 . S
C1294 H1298 0.930 . S
C1295 C1294 1.369 . S
C1295 C1304 1.429 1_545 S
C1296 C1294 1.419 . S
C1296 C1297 1.363 . S
C1296 H1299 0.929 . S
C1297 C1296 1.363 . S
C1297 C1303 1.428 1_545 S
H1298 C1294 0.930 . S
H1299 C1296 0.929 . S
S1300 N1301 1.613 . S
S1300 N1302 1.610 . S
N1301 S1300 1.613 . S
N1301 C1304 1.350 . S
N1302 S1300 1.610 . S
N1302 C1303 1.351 . S
C1303 C1297 1.428 1_565 S
C1303 N1302 1.351 . S
C1303 C1304 1.434 . S
C1304 C1295 1.429 1_565 S
C1304 N1301 1.350 . S
C1304 C1303 1.434 . S
C1305 C1306 1.369 . S
C1305 C1307 1.419 . S
C1305 H1309 0.930 . S
C1306 C1305 1.369 . S
C1306 C1315 1.429 . S
C1307 C1305 1.419 . S
C1307 C1308 1.363 . S
C1307 H1310 0.929 . S
C1308 C1307 1.363 . S
C1308 C1314 1.428 . S
H1309 C1305 0.930 . S
H1310 C1307 0.929 . S
S1311 N1312 1.613 . S
S1311 N1313 1.610 . S
N1312 S1311 1.613 . S
N1312 C1315 1.350 . S
N1313 S1311 1.610 . S
N1313 C1314 1.351 . S
C1314 C1308 1.428 . S
C1314 N1313 1.351 . S
C1314 C1315 1.434 . S
C1315 C1306 1.429 . S
C1315 N1312 1.350 . S
C1315 C1314 1.434 . S
C1316 C1317 1.369 . S
C1316 C1318 1.419 . S
C1316 H1320 0.930 . S
C1317 C1316 1.369 . S
C1317 C1326 1.429 . S
C1318 C1316 1.419 . S
C1318 C1319 1.363 . S
C1318 H1321 0.929 . S
C1319 C1318 1.363 . S
C1319 C1325 1.428 . S
H1320 C1316 0.930 . S
H1321 C1318 0.929 . S
S1322 N1323 1.613 1_565 S
S1322 N1324 1.610 . S
N1323 S1322 1.613 1_545 S
N1323 C1326 1.350 . S
N1324 S1322 1.610 . S
N1324 C1325 1.351 1_565 S
C1325 C1319 1.428 . S
C1325 N1324 1.351 1_545 S
C1325 C1326 1.434 . S
C1326 C1317 1.429 . S
C1326 N1323 1.350 . S
C1326 C1325 1.434 . S
C1327 C1328 1.369 . S
C1327 C1329 1.419 . S
C1327 H1331 0.930 . S
C1328 C1327 1.369 . S
C1328 C1337 1.429 . S
C1329 C1327 1.419 . S
C1329 C1330 1.363 . S
C1329 H1332 0.929 . S
C1330 C1329 1.363 . S
C1330 C1336 1.428 . S
H1331 C1327 0.930 . S
H1332 C1329 0.929 . S
S1333 N1334 1.613 . S
S1333 N1335 1.610 . S
N1334 S1333 1.613 . S
N1334 C1337 1.350 . S
N1335 S1333 1.610 . S
N1335 C1336 1.351 . S
C1336 C1330 1.428 . S
C1336 N1335 1.351 . S
C1336 C1337 1.434 . S
C1337 C1328 1.429 . S
C1337 N1334 1.350 . S
C1337 C1336 1.434 . S
C1338 C1339 1.369 . S
C1338 C1340 1.419 . S
C1338 H1342 0.930 . S
C1339 C1338 1.369 . S
C1339 C1348 1.429 . S
C1340 C1338 1.419 . S
C1340 C1341 1.363 . S
C1340 H1343 0.929 . S
C1341 C1340 1.363 . S
C1341 C1347 1.428 . S
H1342 C1338 0.930 . S
H1343 C1340 0.929 . S
S1344 N1345 1.615 1_545 S
S1344 N1346 1.609 . S
N1345 S1344 1.615 1_565 S
N1345 C1348 1.332 1_565 S
N1346 S1344 1.609 . S
N1346 C1347 1.351 . S
C1347 C1341 1.428 . S
C1347 N1346 1.351 . S
C1347 C1348 1.434 . S
C1348 C1339 1.429 . S
C1348 N1345 1.332 1_545 S
C1348 C1347 1.434 . S
C1349 C1350 1.369 . S
C1349 C1351 1.419 . S
C1349 H1353 0.930 . S
C1350 C1349 1.369 . S
C1350 C1359 1.429 . S
C1351 C1349 1.419 . S
C1351 C1352 1.363 . S
C1351 H1354 0.929 . S
C1352 C1351 1.363 . S
C1352 C1358 1.428 . S
H1353 C1349 0.930 . S
H1354 C1351 0.929 . S
S1355 N1356 1.613 . S
S1355 N1357 1.610 . S
N1356 S1355 1.613 . S
N1356 C1359 1.350 . S
N1357 S1355 1.610 . S
N1357 C1358 1.351 . S
C1358 C1352 1.428 . S
C1358 N1357 1.351 . S
C1358 C1359 1.434 . S
C1359 C1350 1.429 . S
C1359 N1356 1.350 . S
C1359 C1358 1.434 . S
C1360 C1361 1.369 . S
C1360 C1362 1.419 . S
C1360 H1364 0.930 . S
C1361 C1360 1.369 . S
C1361 C1370 1.429 . S
C1362 C1360 1.419 . S
C1362 C1363 1.363 . S
C1362 H1365 0.929 1_565 S
C1363 C1362 1.363 . S
C1363 C1369 1.428 . S
H1364 C1360 0.930 . S
H1365 C1362 0.929 1_545 S
S1366 N1367 1.613 . S
S1366 N1368 1.610 . S
N1367 S1366 1.613 . S
N1367 C1370 1.350 . S
N1368 S1366 1.610 . S
N1368 C1369 1.351 . S
C1369 C1363 1.428 . S
C1369 N1368 1.351 . S
C1369 C1370 1.434 . S
C1370 C1361 1.429 . S
C1370 N1367 1.350 . S
C1370 C1369 1.434 . S
C1371 C1372 1.369 . S
C1371 C1373 1.419 . S
C1371 H1375 0.930 . S
C1372 C1371 1.369 . S
C1372 C1381 1.429 1_556 S
C1373 C1371 1.419 . S
C1373 C1374 1.341 1_556 S
C1373 H1376 0.929 . S
C1374 C1373 1.341 1_554 S
C1374 C1380 1.446 . S
H1375 C1371 0.930 . S
H1376 C1373 0.929 . S
S1377 N1378 1.613 . S
S1377 N1379 1.610 . S
N1378 S1377 1.613 . S
N1378 C1381 1.350 . S
N1379 S1377 1.610 . S
N1379 C1380 1.351 . S
C1380 C1374 1.446 . S
C1380 N1379 1.351 . S
C1380 C1381 1.434 . S
C1381 C1372 1.429 1_554 S
C1381 N1378 1.350 . S
C1381 C1380 1.434 . S
C1382 C1383 1.369 . S
C1382 C1384 1.419 . S
C1382 H1386 0.930 . S
C1383 C1382 1.369 . S
C1383 C1392 1.429 . S
C1384 C1382 1.419 . S
C1384 C1385 1.363 . S
C1384 H1387 0.929 . S
C1385 C1384 1.363 . S
C1385 C1391 1.428 . S
H1386 C1382 0.930 . S
H1387 C1384 0.929 . S
S1388 N1389 1.613 . S
S1388 N1390 1.610 . S
N1389 S1388 1.613 . S
N1389 C1392 1.350 . S
N1390 S1388 1.610 . S
N1390 C1391 1.351 . S
C1391 C1385 1.428 . S
C1391 N1390 1.351 . S
C1391 C1392 1.434 . S
C1392 C1383 1.429 . S
C1392 N1389 1.350 . S
C1392 C1391 1.434 . S
C1393 C1394 1.369 . S
C1393 C1395 1.419 . S
C1393 H1397 0.930 . S
C1394 C1393 1.369 . S
C1394 C1403 1.429 . S
C1395 C1393 1.419 . S
C1395 C1396 1.363 . S
C1395 H1398 0.929 . S
C1396 C1395 1.363 . S
C1396 C1402 1.428 . S
H1397 C1393 0.930 . S
H1398 C1395 0.929 . S
S1399 N1400 1.613 . S
S1399 N1401 1.610 . S
N1400 S1399 1.613 . S
N1400 C1403 1.350 . S
N1401 S1399 1.610 . S
N1401 C1402 1.351 . S
C1402 C1396 1.428 . S
C1402 N1401 1.351 . S
C1402 C1403 1.434 . S
C1403 C1394 1.429 . S
C1403 N1400 1.350 . S
C1403 C1402 1.434 . S
C1404 C1405 1.369 . S
C1404 C1406 1.419 . S
C1404 H1408 0.930 . S
C1405 C1404 1.369 . S
C1405 C1414 1.429 . S
C1406 C1404 1.419 . S
C1406 C1407 1.363 . S
C1406 H1409 0.929 . S
C1407 C1406 1.363 . S
C1407 C1413 1.428 . S
H1408 C1404 0.930 . S
H1409 C1406 0.929 . S
S1410 N1411 1.613 . S
S1410 N1412 1.610 . S
N1411 S1410 1.613 . S
N1411 C1414 1.350 . S
N1412 S1410 1.610 . S
N1412 C1413 1.351 . S
C1413 C1407 1.428 . S
C1413 N1412 1.351 . S
C1413 C1414 1.434 . S
C1414 C1405 1.429 . S
C1414 N1411 1.350 . S
C1414 C1413 1.434 . S
C1415 C1416 1.369 . S
C1415 C1417 1.419 . S
C1415 H1419 0.930 . S
C1416 C1415 1.369 . S
C1416 C1425 1.429 . S
C1417 C1415 1.419 . S
C1417 C1418 1.363 . S
C1417 H1420 0.929 . S
C1418 C1417 1.363 . S
C1418 C1424 1.428 . S
H1419 C1415 0.930 . S
H1420 C1417 0.929 . S
S1421 N1422 1.613 . S
S1421 N1423 1.610 . S
N1422 S1421 1.613 . S
N1422 C1425 1.350 . S
N1423 S1421 1.610 . S
N1423 C1424 1.351 . S
C1424 C1418 1.428 . S
C1424 N1423 1.351 . S
C1424 C1425 1.434 . S
C1425 C1416 1.429 . S
C1425 N1422 1.350 . S
C1425 C1424 1.434 . S
C1426 C1427 1.369 . S
C1426 C1428 1.419 . S
C1426 H1430 0.930 . S
C1427 C1426 1.369 . S
C1427 C1436 1.429 . S
C1428 C1426 1.419 . S
C1428 C1429 1.363 . S
C1428 H1431 0.929 . S
C1429 C1428 1.363 . S
C1429 C1435 1.428 . S
H1430 C1426 0.930 . S
H1431 C1428 0.929 . S
S1432 N1433 1.613 . S
S1432 N1434 1.610 . S
N1433 S1432 1.613 . S
N1433 C1436 1.350 . S
N1434 S1432 1.610 . S
N1434 C1435 1.351 . S
C1435 C1429 1.428 . S
C1435 N1434 1.351 . S
C1435 C1436 1.434 . S
C1436 C1427 1.429 . S
C1436 N1433 1.350 . S
C1436 C1435 1.434 . S
C1437 C1438 1.369 . S
C1437 C1439 1.419 . S
C1437 H1441 0.930 . S
C1438 C1437 1.369 . S
C1438 C1447 1.429 . S
C1439 C1437 1.419 . S
C1439 C1440 1.363 . S
C1439 H1442 0.929 . S
C1440 C1439 1.363 . S
C1440 C1446 1.428 . S
H1441 C1437 0.930 . S
H1442 C1439 0.929 . S
S1443 N1444 1.613 . S
S1443 N1445 1.610 . S
N1444 S1443 1.613 . S
N1444 C1447 1.350 . S
N1445 S1443 1.610 . S
N1445 C1446 1.351 . S
C1446 C1440 1.428 . S
C1446 N1445 1.351 . S
C1446 C1447 1.434 . S
C1447 C1438 1.429 . S
C1447 N1444 1.350 . S
C1447 C1446 1.434 . S
C1448 C1449 1.369 . S
C1448 C1450 1.419 . S
C1448 H1452 0.930 . S
C1449 C1448 1.369 . S
C1449 C1458 1.429 1_455 S
C1450 C1448 1.419 . S
C1450 C1451 1.363 . S
C1450 H1453 0.929 . S
C1451 C1450 1.363 . S
C1451 C1457 1.428 1_455 S
H1452 C1448 0.930 . S
H1453 C1450 0.929 . S
S1454 N1455 1.613 . S
S1454 N1456 1.610 . S
N1455 S1454 1.613 . S
N1455 C1458 1.350 . S
N1456 S1454 1.610 . S
N1456 C1457 1.351 . S
C1457 C1451 1.428 1_655 S
C1457 N1456 1.351 . S
C1457 C1458 1.434 . S
C1458 C1449 1.429 1_655 S
C1458 N1455 1.350 . S
C1458 C1457 1.434 . S
C1459 C1460 1.369 . S
C1459 C1461 1.419 . S
C1459 H1463 0.930 . S
C1460 C1459 1.369 . S
C1460 C1469 1.429 . S
C1461 C1459 1.419 . S
C1461 C1462 1.363 . S
C1461 H1464 0.929 . S
C1462 C1461 1.363 . S
C1462 C1468 1.428 . S
H1463 C1459 0.930 . S
H1464 C1461 0.929 . S
S1465 N1466 1.613 . S
S1465 N1467 1.610 . S
N1466 S1465 1.613 . S
N1466 C1469 1.350 . S
N1467 S1465 1.610 . S
N1467 C1468 1.351 . S
C1468 C1462 1.428 . S
C1468 N1467 1.351 . S
C1468 C1469 1.434 . S
C1469 C1460 1.429 . S
C1469 N1466 1.350 . S
C1469 C1468 1.434 . S
C1470 C1471 1.369 . S
C1470 C1472 1.419 . S
C1470 H1474 0.930 . S
C1471 C1470 1.369 . S
C1471 C1480 1.429 . S
C1472 C1470 1.419 . S
C1472 C1473 1.363 . S
C1472 H1475 0.929 . S
C1473 C1472 1.363 . S
C1473 C1479 1.428 . S
H1474 C1470 0.930 . S
H1475 C1472 0.929 . S
S1476 N1477 1.613 . S
S1476 N1478 1.610 . S
N1477 S1476 1.613 . S
N1477 C1480 1.350 . S
N1478 S1476 1.610 . S
N1478 C1479 1.351 . S
C1479 C1473 1.428 . S
C1479 N1478 1.351 . S
C1479 C1480 1.434 . S
C1480 C1471 1.429 . S
C1480 N1477 1.350 . S
C1480 C1479 1.434 . S
C1481 C1482 1.369 . S
C1481 C1483 1.419 . S
C1481 H1485 0.930 . S
C1482 C1481 1.369 . S
C1482 C1491 1.429 . S
C1483 C1481 1.419 . S
C1483 C1484 1.363 . S
C1483 H1486 0.929 . S
C1484 C1483 1.363 . S
C1484 C1490 1.428 . S
H1485 C1481 0.930 . S
H1486 C1483 0.929 . S
S1487 N1488 1.613 . S
S1487 N1489 1.610 . S
N1488 S1487 1.613 . S
N1488 C1491 1.350 . S
N1489 S1487 1.610 . S
N1489 C1490 1.351 . S
C1490 C1484 1.428 . S
C1490 N1489 1.351 . S
C1490 C1491 1.434 . S
C1491 C1482 1.429 . S
C1491 N1488 1.350 . S
C1491 C1490 1.434 . S
C1492 C1493 1.369 . S
C1492 C1494 1.419 . S
C1492 H1496 0.930 . S
C1493 C1492 1.369 . S
C1493 C1502 1.429 . S
C1494 C1492 1.419 . S
C1494 C1495 1.363 . S
C1494 H1497 0.929 . S
C1495 C1494 1.363 . S
C1495 C1501 1.428 1_455 S
H1496 C1492 0.930 . S
H1497 C1494 0.929 . S
S1498 N1499 1.613 . S
S1498 N1500 1.610 . S
N1499 S1498 1.613 . S
N1499 C1502 1.350 1_655 S
N1500 S1498 1.610 . S
N1500 C1501 1.351 . S
C1501 C1495 1.428 1_655 S
C1501 N1500 1.351 . S
C1501 C1502 1.434 1_655 S
C1502 C1493 1.429 . S
C1502 N1499 1.350 1_455 S
C1502 C1501 1.434 1_455 S
C1503 C1504 1.369 . S
C1503 C1505 1.419 . S
C1503 H1507 0.930 . S
C1504 C1503 1.369 . S
C1504 C1513 1.429 . S
C1505 C1503 1.419 . S
C1505 C1506 1.363 . S
C1505 H1508 0.929 . S
C1506 C1505 1.363 . S
C1506 C1512 1.428 . S
H1507 C1503 0.930 . S
H1508 C1505 0.929 . S
S1509 N1510 1.613 . S
S1509 N1511 1.610 . S
N1510 S1509 1.613 . S
N1510 C1513 1.350 . S
N1511 S1509 1.610 . S
N1511 C1512 1.351 . S
C1512 C1506 1.428 . S
C1512 N1511 1.351 . S
C1512 C1513 1.434 . S
C1513 C1504 1.429 . S
C1513 N1510 1.350 . S
C1513 C1512 1.434 . S
C1514 C1515 1.369 . S
C1514 C1516 1.419 . S
C1514 H1518 0.930 . S
C1515 C1514 1.369 . S
C1515 C1524 1.429 . S
C1516 C1514 1.419 . S
C1516 C1517 1.363 . S
C1516 H1519 0.929 . S
C1517 C1516 1.363 . S
C1517 C1523 1.428 . S
H1518 C1514 0.930 . S
H1519 C1516 0.929 . S
S1520 N1521 1.613 1_554 S
S1520 N1522 1.610 . S
N1521 S1520 1.613 1_556 S
N1521 C1524 1.350 . S
N1522 S1520 1.610 . S
N1522 C1523 1.351 1_554 S
C1523 C1517 1.428 . S
C1523 N1522 1.351 1_556 S
C1523 C1524 1.434 . S
C1524 C1515 1.429 . S
C1524 N1521 1.350 . S
C1524 C1523 1.434 . S
C1525 C1526 1.369 . S
C1525 C1527 1.419 . S
C1525 H1529 0.930 . S
C1526 C1525 1.369 . S
C1526 C1535 1.429 . S
C1527 C1525 1.419 . S
C1527 C1528 1.363 . S
C1527 H1530 0.929 . S
C1528 C1527 1.363 . S
C1528 C1534 1.428 . S
H1529 C1525 0.930 . S
H1530 C1527 0.929 . S
S1531 N1532 1.613 . S
S1531 N1533 1.610 . S
N1532 S1531 1.613 . S
N1532 C1535 1.350 . S
N1533 S1531 1.610 . S
N1533 C1534 1.351 . S
C1534 C1528 1.428 . S
C1534 N1533 1.351 . S
C1534 C1535 1.434 . S
C1535 C1526 1.429 . S
C1535 N1532 1.350 . S
C1535 C1534 1.434 . S
C1536 C1537 1.369 1_545 S
C1536 C1538 1.419 . S
C1536 H1540 0.930 . S
C1537 C1536 1.369 1_565 S
C1537 C1546 1.429 . S
C1538 C1536 1.419 . S
C1538 C1539 1.363 1_545 S
C1538 H1541 0.929 . S
C1539 C1538 1.363 1_565 S
C1539 C1545 1.428 . S
H1540 C1536 0.930 . S
H1541 C1538 0.929 . S
S1542 N1543 1.613 . S
S1542 N1544 1.610 . S
N1543 S1542 1.613 . S
N1543 C1546 1.350 . S
N1544 S1542 1.610 . S
N1544 C1545 1.351 . S
C1545 C1539 1.428 . S
C1545 N1544 1.351 . S
C1545 C1546 1.434 . S
C1546 C1537 1.429 . S
C1546 N1543 1.350 . S
C1546 C1545 1.434 . S
C1547 C1548 1.369 . S
C1547 C1549 1.419 . S
C1547 H1551 0.930 . S
C1548 C1547 1.369 . S
C1548 C1557 1.429 . S
C1549 C1547 1.419 . S
C1549 C1550 1.363 . S
C1549 H1552 0.929 . S
C1550 C1549 1.363 . S
C1550 C1556 1.428 . S
H1551 C1547 0.930 . S
H1552 C1549 0.929 . S
S1553 N1554 1.613 . S
S1553 N1555 1.610 . S
N1554 S1553 1.613 . S
N1554 C1557 1.350 . S
N1555 S1553 1.610 . S
N1555 C1556 1.351 . S
C1556 C1550 1.428 . S
C1556 N1555 1.351 . S
C1556 C1557 1.434 . S
C1557 C1548 1.429 . S
C1557 N1554 1.350 . S
C1557 C1556 1.434 . S
C1558 C1559 1.369 . S
C1558 C1560 1.419 . S
C1558 H1562 0.930 . S
C1559 C1558 1.369 . S
C1559 C1568 1.429 . S
C1560 C1558 1.419 . S
C1560 C1561 1.363 . S
C1560 H1563 0.929 . S
C1561 C1560 1.363 . S
C1561 C1567 1.428 . S
H1562 C1558 0.930 . S
H1563 C1560 0.929 . S
S1564 N1565 1.613 . S
S1564 N1566 1.610 . S
N1565 S1564 1.613 . S
N1565 C1568 1.350 1_565 S
N1566 S1564 1.610 . S
N1566 C1567 1.351 1_565 S
C1567 C1561 1.428 . S
C1567 N1566 1.351 1_545 S
C1567 C1568 1.434 . S
C1568 C1559 1.429 . S
C1568 N1565 1.350 1_545 S
C1568 C1567 1.434 . S
C1569 C1570 1.369 . S
C1569 C1571 1.419 . S
C1569 H1573 0.930 . S
C1570 C1569 1.369 . S
C1570 C1579 1.429 . S
C1571 C1569 1.419 . S
C1571 C1572 1.363 . S
C1571 H1574 0.929 . S
C1572 C1571 1.363 . S
C1572 C1578 1.428 . S
H1573 C1569 0.930 . S
H1574 C1571 0.929 . S
S1575 N1576 1.613 . S
S1575 N1577 1.610 . S
N1576 S1575 1.613 . S
N1576 C1579 1.350 . S
N1577 S1575 1.610 . S
N1577 C1578 1.351 . S
C1578 C1572 1.428 . S
C1578 N1577 1.351 . S
C1578 C1579 1.434 . S
C1579 C1570 1.429 . S
C1579 N1576 1.350 . S
C1579 C1578 1.434 . S
C1580 C1581 1.369 . S
C1580 C1582 1.419 . S
C1580 H1584 0.930 . S
C1581 C1580 1.369 . S
C1581 C1590 1.429 1_565 S
C1582 C1580 1.419 . S
C1582 C1583 1.363 1_565 S
C1582 H1585 0.929 . S
C1583 C1582 1.363 1_545 S
C1583 C1589 1.428 . S
H1584 C1580 0.930 . S
H1585 C1582 0.929 . S
S1586 N1587 1.613 . S
S1586 N1588 1.610 . S
N1587 S1586 1.613 . S
N1587 C1590 1.350 . S
N1588 S1586 1.610 . S
N1588 C1589 1.351 . S
C1589 C1583 1.428 . S
C1589 N1588 1.351 . S
C1589 C1590 1.434 . S
C1590 C1581 1.429 1_545 S
C1590 N1587 1.350 . S
C1590 C1589 1.434 . S
C1591 C1592 1.369 . S
C1591 C1593 1.419 . S
C1591 H1595 0.930 . S
C1592 C1591 1.369 . S
C1592 C1601 1.429 . S
C1593 C1591 1.419 . S
C1593 C1594 1.363 . S
C1593 H1596 0.929 . S
C1594 C1593 1.363 . S
C1594 C1600 1.428 . S
H1595 C1591 0.930 . S
H1596 C1593 0.929 . S
S1597 N1598 1.613 . S
S1597 N1599 1.610 . S
N1598 S1597 1.613 . S
N1598 C1601 1.350 . S
N1599 S1597 1.610 . S
N1599 C1600 1.351 . S
C1600 C1594 1.428 . S
C1600 N1599 1.351 . S
C1600 C1601 1.434 . S
C1601 C1592 1.429 . S
C1601 N1598 1.350 . S
C1601 C1600 1.434 . S
C1602 C1603 1.369 . S
C1602 C1604 1.419 . S
C1602 H1606 0.930 . S
C1603 C1602 1.369 . S
C1603 C1612 1.429 . S
C1604 C1602 1.419 . S
C1604 C1605 1.363 . S
C1604 H1607 0.929 . S
C1605 C1604 1.363 . S
C1605 C1611 1.428 . S
H1606 C1602 0.930 . S
H1607 C1604 0.929 . S
S1608 N1609 1.613 . S
S1608 N1610 1.610 . S
N1609 S1608 1.613 . S
N1609 C1612 1.350 . S
N1610 S1608 1.610 . S
N1610 C1611 1.351 . S
C1611 C1605 1.428 . S
C1611 N1610 1.351 . S
C1611 C1612 1.434 . S
C1612 C1603 1.429 . S
C1612 N1609 1.350 . S
C1612 C1611 1.434 . S
C1613 C1614 1.369 . S
C1613 C1615 1.419 . S
C1613 H1617 0.930 . S
C1614 C1613 1.369 . S
C1614 C1623 1.429 . S
C1615 C1613 1.419 . S
C1615 C1616 1.363 . S
C1615 H1618 0.929 . S
C1616 C1615 1.363 . S
C1616 C1622 1.428 . S
H1617 C1613 0.930 . S
H1618 C1615 0.929 . S
S1619 N1620 1.613 . S
S1619 N1621 1.610 . S
N1620 S1619 1.613 . S
N1620 C1623 1.350 . S
N1621 S1619 1.610 . S
N1621 C1622 1.351 . S
C1622 C1616 1.428 . S
C1622 N1621 1.351 . S
C1622 C1623 1.434 . S
C1623 C1614 1.429 . S
C1623 N1620 1.350 . S
C1623 C1622 1.434 . S
C1624 C1625 1.369 1_556 S
C1624 C1626 1.419 . S
C1624 H1628 0.930 . S
C1625 C1624 1.369 1_554 S
C1625 C1634 1.429 . S
C1626 C1624 1.419 . S
C1626 C1627 1.363 . S
C1626 H1629 0.929 . S
C1627 C1626 1.363 . S
C1627 C1633 1.428 1_556 S
H1628 C1624 0.930 . S
H1629 C1626 0.929 . S
S1630 N1631 1.613 . S
S1630 N1632 1.610 . S
N1631 S1630 1.613 . S
N1631 C1634 1.350 . S
N1632 S1630 1.610 . S
N1632 C1633 1.351 . S
C1633 C1627 1.428 1_554 S
C1633 N1632 1.351 . S
C1633 C1634 1.434 . S
C1634 C1625 1.429 . S
C1634 N1631 1.350 . S
C1634 C1633 1.434 . S
C1635 C1636 1.369 . S
C1635 C1637 1.419 . S
C1635 H1639 0.930 . S
C1636 C1635 1.369 . S
C1636 C1645 1.429 . S
C1637 C1635 1.419 . S
C1637 C1638 1.363 . S
C1637 H1640 0.929 . S
C1638 C1637 1.363 . S
C1638 C1644 1.428 . S
H1639 C1635 0.930 . S
H1640 C1637 0.929 . S
S1641 N1642 1.615 . S
S1641 N1643 1.611 . S
N1642 S1641 1.615 . S
N1642 C1645 1.350 . S
N1643 S1641 1.611 . S
N1643 C1644 1.351 . S
C1644 C1638 1.428 . S
C1644 N1643 1.351 . S
C1644 C1645 1.434 . S
C1645 C1636 1.429 . S
C1645 N1642 1.350 . S
C1645 C1644 1.434 . S
C1646 C1647 1.369 . S
C1646 C1648 1.419 . S
C1646 H1650 0.930 . S
C1647 C1646 1.369 . S
C1647 C1656 1.429 . S
C1648 C1646 1.419 . S
C1648 C1649 1.363 . S
C1648 H1651 0.929 . S
C1649 C1648 1.363 . S
C1649 C1655 1.428 . S
H1650 C1646 0.930 . S
H1651 C1648 0.929 . S
S1652 N1653 1.613 . S
S1652 N1654 1.610 . S
N1653 S1652 1.613 . S
N1653 C1656 1.350 . S
N1654 S1652 1.610 . S
N1654 C1655 1.351 . S
C1655 C1649 1.428 . S
C1655 N1654 1.351 . S
C1655 C1656 1.434 . S
C1656 C1647 1.429 . S
C1656 N1653 1.350 . S
C1656 C1655 1.434 . S
C1657 C1658 1.369 . S
C1657 C1659 1.419 . S
C1657 H1661 0.930 . S
C1658 C1657 1.369 . S
C1658 C1667 1.429 . S
C1659 C1657 1.419 . S
C1659 C1660 1.363 . S
C1659 H1662 0.929 . S
C1660 C1659 1.363 . S
C1660 C1666 1.428 . S
H1661 C1657 0.930 . S
H1662 C1659 0.929 . S
S1663 N1664 1.613 . S
S1663 N1665 1.610 . S
N1664 S1663 1.613 . S
N1664 C1667 1.350 . S
N1665 S1663 1.610 . S
N1665 C1666 1.351 . S
C1666 C1660 1.428 . S
C1666 N1665 1.351 . S
C1666 C1667 1.434 . S
C1667 C1658 1.429 . S
C1667 N1664 1.350 . S
C1667 C1666 1.434 . S
C1668 C1669 1.369 . S
C1668 C1670 1.419 . S
C1668 H1672 0.930 . S
C1669 C1668 1.369 . S
C1669 C1678 1.429 . S
C1670 C1668 1.419 . S
C1670 C1671 1.363 . S
C1670 H1673 0.929 . S
C1671 C1670 1.363 . S
C1671 C1677 1.428 . S
H1672 C1668 0.930 . S
H1673 C1670 0.929 . S
S1674 N1675 1.613 . S
S1674 N1676 1.610 . S
N1675 S1674 1.613 . S
N1675 C1678 1.350 . S
N1676 S1674 1.610 . S
N1676 C1677 1.351 . S
C1677 C1671 1.428 . S
C1677 N1676 1.351 . S
C1677 C1678 1.434 . S
C1678 C1669 1.429 . S
C1678 N1675 1.350 . S
C1678 C1677 1.434 . S
C1679 C1680 1.369 . S
C1679 C1681 1.419 . S
C1679 H1683 0.930 . S
C1680 C1679 1.369 . S
C1680 C1689 1.429 . S
C1681 C1679 1.419 . S
C1681 C1682 1.363 . S
C1681 H1684 0.929 . S
C1682 C1681 1.363 . S
C1682 C1688 1.428 . S
H1683 C1679 0.930 . S
H1684 C1681 0.929 . S
S1685 N1686 1.613 . S
S1685 N1687 1.610 . S
N1686 S1685 1.613 . S
N1686 C1689 1.350 . S
N1687 S1685 1.610 . S
N1687 C1688 1.351 . S
C1688 C1682 1.428 . S
C1688 N1687 1.351 . S
C1688 C1689 1.434 . S
C1689 C1680 1.429 . S
C1689 N1686 1.350 . S
C1689 C1688 1.434 . S
C1690 C1691 1.369 . S
C1690 C1692 1.419 . S
C1690 H1694 0.930 . S
C1691 C1690 1.369 . S
C1691 C1700 1.429 . S
C1692 C1690 1.419 . S
C1692 C1693 1.363 . S
C1692 H1695 0.929 . S
C1693 C1692 1.363 . S
C1693 C1699 1.428 . S
H1694 C1690 0.930 . S
H1695 C1692 0.929 . S
S1696 N1697 1.613 . S
S1696 N1698 1.610 . S
N1697 S1696 1.613 . S
N1697 C1700 1.350 . S
N1698 S1696 1.610 . S
N1698 C1699 1.351 . S
C1699 C1693 1.428 . S
C1699 N1698 1.351 . S
C1699 C1700 1.434 . S
C1700 C1691 1.429 . S
C1700 N1697 1.350 . S
C1700 C1699 1.434 . S
C1701 C1702 1.369 . S
C1701 C1703 1.419 . S
C1701 H1705 0.930 . S
C1702 C1701 1.369 . S
C1702 C1711 1.429 . S
C1703 C1701 1.419 . S
C1703 C1704 1.363 . S
C1703 H1706 0.929 . S
C1704 C1703 1.363 . S
C1704 C1710 1.428 . S
H1705 C1701 0.930 . S
H1706 C1703 0.929 . S
S1707 N1708 1.613 . S
S1707 N1709 1.610 . S
N1708 S1707 1.613 . S
N1708 C1711 1.350 . S
N1709 S1707 1.610 . S
N1709 C1710 1.351 . S
C1710 C1704 1.428 . S
C1710 N1709 1.351 . S
C1710 C1711 1.434 . S
C1711 C1702 1.429 . S
C1711 N1708 1.350 . S
C1711 C1710 1.434 . S
C1712 C1713 1.369 . S
C1712 C1714 1.419 . S
C1712 H1716 0.930 . S
C1713 C1712 1.369 . S
C1713 C1722 1.429 . S
C1714 C1712 1.419 . S
C1714 C1715 1.363 . S
C1714 H1717 0.929 . S
C1715 C1714 1.363 . S
C1715 C1721 1.428 . S
H1716 C1712 0.930 . S
H1717 C1714 0.929 . S
S1718 N1719 1.613 . S
S1718 N1720 1.610 . S
N1719 S1718 1.613 . S
N1719 C1722 1.350 . S
N1720 S1718 1.610 . S
N1720 C1721 1.351 . S
C1721 C1715 1.428 . S
C1721 N1720 1.351 . S
C1721 C1722 1.434 . S
C1722 C1713 1.429 . S
C1722 N1719 1.350 . S
C1722 C1721 1.434 . S
C1723 C1724 1.369 . S
C1723 C1725 1.419 . S
C1723 H1727 0.930 . S
C1724 C1723 1.369 . S
C1724 C1733 1.429 . S
C1725 C1723 1.419 . S
C1725 C1726 1.363 . S
C1725 H1728 0.929 . S
C1726 C1725 1.363 . S
C1726 C1732 1.428 . S
H1727 C1723 0.930 . S
H1728 C1725 0.929 . S
S1729 N1730 1.613 . S
S1729 N1731 1.610 . S
N1730 S1729 1.613 . S
N1730 C1733 1.350 . S
N1731 S1729 1.610 . S
N1731 C1732 1.351 . S
C1732 C1726 1.428 . S
C1732 N1731 1.351 . S
C1732 C1733 1.434 . S
C1733 C1724 1.429 . S
C1733 N1730 1.350 . S
C1733 C1732 1.434 . S
C1734 C1735 1.369 . S
C1734 C1736 1.419 . S
C1734 H1738 0.930 . S
C1735 C1734 1.369 . S
C1735 C1744 1.429 . S
C1736 C1734 1.419 . S
C1736 C1737 1.363 . S
C1736 H1739 0.929 . S
C1737 C1736 1.363 . S
C1737 C1743 1.428 . S
H1738 C1734 0.930 . S
H1739 C1736 0.929 . S
S1740 N1741 1.613 1_554 S
S1740 N1742 1.610 . S
N1741 S1740 1.613 1_556 S
N1741 C1744 1.350 . S
N1742 S1740 1.610 . S
N1742 C1743 1.351 1_554 S
C1743 C1737 1.428 . S
C1743 N1742 1.351 1_556 S
C1743 C1744 1.434 . S
C1744 C1735 1.429 . S
C1744 N1741 1.350 . S
C1744 C1743 1.434 . S
C1745 C1746 1.369 . S
C1745 C1747 1.419 . S
C1745 H1749 0.930 . S
C1746 C1745 1.369 . S
C1746 C1755 1.429 . S
C1747 C1745 1.419 . S
C1747 C1748 1.363 . S
C1747 H1750 0.929 . S
C1748 C1747 1.363 . S
C1748 C1754 1.428 . S
H1749 C1745 0.930 . S
H1750 C1747 0.929 . S
S1751 N1752 1.613 . S
S1751 N1753 1.610 . S
N1752 S1751 1.613 . S
N1752 C1755 1.350 . S
N1753 S1751 1.610 . S
N1753 C1754 1.351 . S
C1754 C1748 1.428 . S
C1754 N1753 1.351 . S
C1754 C1755 1.434 . S
C1755 C1746 1.429 . S
C1755 N1752 1.350 . S
C1755 C1754 1.434 . S
C1756 C1757 1.369 . S
C1756 C1758 1.419 . S
C1756 H1760 0.930 . S
C1757 C1756 1.369 . S
C1757 C1766 1.429 . S
C1758 C1756 1.419 . S
C1758 C1759 1.363 . S
C1758 H1761 0.929 . S
C1759 C1758 1.363 . S
C1759 C1765 1.428 . S
H1760 C1756 0.930 . S
H1761 C1758 0.929 . S
S1762 N1763 1.613 . S
S1762 N1764 1.610 . S
N1763 S1762 1.613 . S
N1763 C1766 1.350 . S
N1764 S1762 1.610 . S
N1764 C1765 1.351 . S
C1765 C1759 1.428 . S
C1765 N1764 1.351 . S
C1765 C1766 1.434 . S
C1766 C1757 1.429 . S
C1766 N1763 1.350 . S
C1766 C1765 1.434 . S
C1767 C1768 1.369 . S
C1767 C1769 1.419 . S
C1767 H1771 0.930 . S
C1768 C1767 1.369 . S
C1768 C1777 1.429 . S
C1769 C1767 1.419 . S
C1769 C1770 1.363 . S
C1769 H1772 0.929 . S
C1770 C1769 1.363 . S
C1770 C1776 1.428 . S
H1771 C1767 0.930 . S
H1772 C1769 0.929 . S
S1773 N1774 1.613 . S
S1773 N1775 1.610 . S
N1774 S1773 1.613 . S
N1774 C1777 1.350 . S
N1775 S1773 1.610 . S
N1775 C1776 1.351 . S
C1776 C1770 1.428 . S
C1776 N1775 1.351 . S
C1776 C1777 1.434 . S
C1777 C1768 1.429 . S
C1777 N1774 1.350 . S
C1777 C1776 1.434 . S
C1778 C1779 1.369 . S
C1778 C1780 1.419 . S
C1778 H1782 0.930 . S
C1779 C1778 1.369 . S
C1779 C1788 1.429 1_655 S
C1780 C1778 1.419 . S
C1780 C1781 1.363 . S
C1780 H1783 0.929 . S
C1781 C1780 1.363 . S
C1781 C1787 1.428 1_655 S
H1782 C1778 0.930 . S
H1783 C1780 0.929 . S
S1784 N1785 1.613 . S
S1784 N1786 1.610 . S
N1785 S1784 1.613 . S
N1785 C1788 1.350 . S
N1786 S1784 1.610 . S
N1786 C1787 1.351 . S
C1787 C1781 1.428 1_455 S
C1787 N1786 1.351 . S
C1787 C1788 1.434 . S
C1788 C1779 1.429 1_455 S
C1788 N1785 1.350 . S
C1788 C1787 1.434 . S
C1789 C1790 1.369 . S
C1789 C1791 1.419 . S
C1789 H1793 0.930 . S
C1790 C1789 1.369 . S
C1790 C1799 1.429 . S
C1791 C1789 1.419 . S
C1791 C1792 1.363 . S
C1791 H1794 0.929 . S
C1792 C1791 1.363 . S
C1792 C1798 1.428 . S
H1793 C1789 0.930 . S
H1794 C1791 0.929 . S
S1795 N1796 1.613 . S
S1795 N1797 1.610 . S
N1796 S1795 1.613 . S
N1796 C1799 1.350 . S
N1797 S1795 1.610 . S
N1797 C1798 1.351 . S
C1798 C1792 1.428 . S
C1798 N1797 1.351 . S
C1798 C1799 1.434 . S
C1799 C1790 1.429 . S
C1799 N1796 1.350 . S
C1799 C1798 1.434 . S
C1800 C1801 1.369 . S
C1800 C1802 1.419 . S
C1800 H1804 0.930 . S
C1801 C1800 1.369 . S
C1801 C1810 1.429 . S
C1802 C1800 1.419 . S
C1802 C1803 1.363 . S
C1802 H1805 0.929 . S
C1803 C1802 1.363 . S
C1803 C1809 1.428 . S
H1804 C1800 0.930 . S
H1805 C1802 0.929 . S
S1806 N1807 1.613 . S
S1806 N1808 1.610 . S
N1807 S1806 1.613 . S
N1807 C1810 1.350 . S
N1808 S1806 1.610 . S
N1808 C1809 1.351 . S
C1809 C1803 1.428 . S
C1809 N1808 1.351 . S
C1809 C1810 1.434 . S
C1810 C1801 1.429 . S
C1810 N1807 1.350 . S
C1810 C1809 1.434 . S
C1811 C1812 1.369 . S
C1811 C1813 1.419 . S
C1811 H1815 0.930 . S
C1812 C1811 1.369 . S
C1812 C1821 1.429 . S
C1813 C1811 1.419 . S
C1813 C1814 1.363 . S
C1813 H1816 0.929 . S
C1814 C1813 1.363 . S
C1814 C1820 1.428 . S
H1815 C1811 0.930 . S
H1816 C1813 0.929 . S
S1817 N1818 1.613 . S
S1817 N1819 1.610 . S
N1818 S1817 1.613 . S
N1818 C1821 1.350 . S
N1819 S1817 1.610 . S
N1819 C1820 1.351 . S
C1820 C1814 1.428 . S
C1820 N1819 1.351 . S
C1820 C1821 1.434 . S
C1821 C1812 1.429 . S
C1821 N1818 1.350 . S
C1821 C1820 1.434 . S
C1822 C1823 1.369 . S
C1822 C1824 1.419 . S
C1822 H1826 0.930 . S
C1823 C1822 1.369 . S
C1823 C1832 1.429 . S
C1824 C1822 1.419 . S
C1824 C1825 1.363 . S
C1824 H1827 0.929 1_455 S
C1825 C1824 1.363 . S
C1825 C1831 1.428 . S
H1826 C1822 0.930 . S
H1827 C1824 0.929 1_655 S
S1828 N1829 1.613 . S
S1828 N1830 1.610 . S
N1829 S1828 1.613 . S
N1829 C1832 1.350 . S
N1830 S1828 1.610 . S
N1830 C1831 1.351 . S
C1831 C1825 1.428 . S
C1831 N1830 1.351 . S
C1831 C1832 1.434 . S
C1832 C1823 1.429 . S
C1832 N1829 1.350 . S
C1832 C1831 1.434 . S
C1833 C1834 1.369 . S
C1833 C1835 1.419 . S
C1833 H1837 0.930 . S
C1834 C1833 1.369 . S
C1834 C1843 1.429 . S
C1835 C1833 1.419 . S
C1835 C1836 1.363 . S
C1835 H1838 0.929 . S
C1836 C1835 1.363 . S
C1836 C1842 1.428 . S
H1837 C1833 0.930 . S
H1838 C1835 0.929 . S
S1839 N1840 1.613 . S
S1839 N1841 1.610 . S
N1840 S1839 1.613 . S
N1840 C1843 1.350 . S
N1841 S1839 1.610 . S
N1841 C1842 1.351 . S
C1842 C1836 1.428 . S
C1842 N1841 1.351 . S
C1842 C1843 1.434 . S
C1843 C1834 1.429 . S
C1843 N1840 1.350 . S
C1843 C1842 1.434 . S
C1844 C1845 1.369 . S
C1844 C1846 1.419 . S
C1844 H1848 0.930 . S
C1845 C1844 1.369 . S
C1845 C1854 1.429 . S
C1846 C1844 1.419 . S
C1846 C1847 1.363 . S
C1846 H1849 0.929 . S
C1847 C1846 1.363 . S
C1847 C1853 1.428 . S
H1848 C1844 0.930 . S
H1849 C1846 0.929 . S
S1850 N1851 1.613 . S
S1850 N1852 1.610 . S
N1851 S1850 1.613 . S
N1851 C1854 1.350 . S
N1852 S1850 1.610 . S
N1852 C1853 1.351 . S
C1853 C1847 1.428 . S
C1853 N1852 1.351 . S
C1853 C1854 1.434 . S
C1854 C1845 1.429 . S
C1854 N1851 1.350 . S
C1854 C1853 1.434 . S
C1855 C1856 1.369 . S
C1855 C1857 1.419 . S
C1855 H1859 0.930 . S
C1856 C1855 1.369 . S
C1856 C1865 1.429 . S
C1857 C1855 1.419 . S
C1857 C1858 1.363 . S
C1857 H1860 0.929 . S
C1858 C1857 1.363 . S
C1858 C1864 1.428 . S
H1859 C1855 0.930 . S
H1860 C1857 0.929 . S
S1861 N1862 1.613 . S
S1861 N1863 1.610 . S
N1862 S1861 1.613 . S
N1862 C1865 1.350 . S
N1863 S1861 1.610 . S
N1863 C1864 1.351 . S
C1864 C1858 1.428 . S
C1864 N1863 1.351 . S
C1864 C1865 1.434 . S
C1865 C1856 1.429 . S
C1865 N1862 1.350 . S
C1865 C1864 1.434 . S
C1866 C1867 1.369 . S
C1866 C1868 1.419 . S
C1866 H1870 0.930 . S
C1867 C1866 1.369 . S
C1867 C1876 1.429 . S
C1868 C1866 1.419 . S
C1868 C1869 1.363 . S
C1868 H1871 0.929 . S
C1869 C1868 1.363 . S
C1869 C1875 1.428 . S
H1870 C1866 0.930 . S
H1871 C1868 0.929 . S
S1872 N1873 1.613 . S
S1872 N1874 1.610 . S
N1873 S1872 1.613 . S
N1873 C1876 1.350 . S
N1874 S1872 1.610 . S
N1874 C1875 1.351 . S
C1875 C1869 1.428 . S
C1875 N1874 1.351 . S
C1875 C1876 1.434 . S
C1876 C1867 1.429 . S
C1876 N1873 1.350 . S
C1876 C1875 1.434 . S
C1877 C1878 1.369 . S
C1877 C1879 1.419 . S
C1877 H1881 0.930 . S
C1878 C1877 1.369 . S
C1878 C1887 1.429 . S
C1879 C1877 1.419 . S
C1879 C1880 1.363 . S
C1879 H1882 0.929 . S
C1880 C1879 1.363 . S
C1880 C1886 1.428 . S
H1881 C1877 0.930 . S
H1882 C1879 0.929 . S
S1883 N1884 1.613 . S
S1883 N1885 1.610 . S
N1884 S1883 1.613 . S
N1884 C1887 1.350 . S
N1885 S1883 1.610 . S
N1885 C1886 1.351 . S
C1886 C1880 1.428 . S
C1886 N1885 1.351 . S
C1886 C1887 1.434 . S
C1887 C1878 1.429 . S
C1887 N1884 1.350 . S
C1887 C1886 1.434 . S
C1888 C1889 1.369 . S
C1888 C1890 1.419 . S
C1888 H1892 0.930 . S
C1889 C1888 1.369 . S
C1889 C1898 1.429 . S
C1890 C1888 1.419 . S
C1890 C1891 1.363 . S
C1890 H1893 0.929 . S
C1891 C1890 1.363 . S
C1891 C1897 1.428 . S
H1892 C1888 0.930 . S
H1893 C1890 0.929 . S
S1894 N1895 1.613 . S
S1894 N1896 1.610 . S
N1895 S1894 1.613 . S
N1895 C1898 1.350 . S
N1896 S1894 1.610 . S
N1896 C1897 1.351 . S
C1897 C1891 1.428 . S
C1897 N1896 1.351 . S
C1897 C1898 1.434 . S
C1898 C1889 1.429 . S
C1898 N1895 1.350 . S
C1898 C1897 1.434 . S
C1899 C1900 1.369 . S
C1899 C1901 1.419 . S
C1899 H1903 0.930 . S
C1900 C1899 1.369 . S
C1900 C1909 1.429 . S
C1901 C1899 1.419 . S
C1901 C1902 1.363 . S
C1901 H1904 0.929 . S
C1902 C1901 1.363 . S
C1902 C1908 1.428 . S
H1903 C1899 0.930 . S
H1904 C1901 0.929 . S
S1905 N1906 1.613 . S
S1905 N1907 1.610 . S
N1906 S1905 1.613 . S
N1906 C1909 1.350 . S
N1907 S1905 1.610 . S
N1907 C1908 1.351 . S
C1908 C1902 1.428 . S
C1908 N1907 1.351 . S
C1908 C1909 1.434 . S
C1909 C1900 1.429 . S
C1909 N1906 1.350 . S
C1909 C1908 1.434 . S
C1910 C1911 1.369 . S
C1910 C1912 1.419 . S
C1910 H1914 0.930 . S
C1911 C1910 1.369 . S
C1911 C1920 1.429 . S
C1912 C1910 1.419 . S
C1912 C1913 1.363 . S
C1912 H1915 0.929 . S
C1913 C1912 1.363 . S
C1913 C1919 1.428 . S
H1914 C1910 0.930 . S
H1915 C1912 0.929 . S
S1916 N1917 1.613 . S
S1916 N1918 1.610 . S
N1917 S1916 1.613 . S
N1917 C1920 1.350 . S
N1918 S1916 1.610 . S
N1918 C1919 1.351 . S
C1919 C1913 1.428 . S
C1919 N1918 1.351 . S
C1919 C1920 1.434 . S
C1920 C1911 1.429 . S
C1920 N1917 1.350 . S
C1920 C1919 1.434 . S
C1921 C1922 1.369 . S
C1921 C1923 1.419 . S
C1921 H1925 0.930 . S
C1922 C1921 1.369 . S
C1922 C1931 1.429 . S
C1923 C1921 1.419 . S
C1923 C1924 1.363 . S
C1923 H1926 0.929 . S
C1924 C1923 1.363 . S
C1924 C1930 1.433 . S
H1925 C1921 0.930 . S
H1926 C1923 0.929 . S
S1927 N1928 1.613 1_545 S
S1927 N1929 1.610 . S
N1928 S1927 1.613 1_565 S
N1928 C1931 1.350 1_556 S
N1929 S1927 1.610 . S
N1929 C1930 1.341 1_546 S
C1930 C1924 1.433 . S
C1930 N1929 1.341 1_564 S
C1930 C1931 1.440 . S
C1931 C1922 1.429 . S
C1931 N1928 1.350 1_554 S
C1931 C1930 1.440 . S
C1932 C1933 1.369 . S
C1932 C1934 1.419 . S
C1932 H1936 0.930 . S
C1933 C1932 1.369 . S
C1933 C1942 1.429 . S
C1934 C1932 1.419 . S
C1934 C1935 1.363 . S
C1934 H1937 0.929 . S
C1935 C1934 1.363 . S
C1935 C1941 1.428 . S
H1936 C1932 0.930 . S
H1937 C1934 0.929 . S
S1938 N1939 1.613 . S
S1938 N1940 1.610 . S
N1939 S1938 1.613 . S
N1939 C1942 1.350 . S
N1940 S1938 1.610 . S
N1940 C1941 1.351 . S
C1941 C1935 1.428 . S
C1941 N1940 1.351 . S
C1941 C1942 1.434 . S
C1942 C1933 1.429 . S
C1942 N1939 1.350 . S
C1942 C1941 1.434 . S
C1943 C1944 1.369 . S
C1943 C1945 1.419 . S
C1943 H1947 0.930 1_554 S
C1944 C1943 1.369 . S
C1944 C1953 1.429 . S
C1945 C1943 1.419 . S
C1945 C1946 1.363 . S
C1945 H1948 0.929 . S
C1946 C1945 1.363 . S
C1946 C1952 1.428 . S
H1947 C1943 0.930 1_556 S
H1948 C1945 0.929 . S
S1949 N1950 1.613 . S
S1949 N1951 1.610 . S
N1950 S1949 1.613 . S
N1950 C1953 1.350 . S
N1951 S1949 1.610 . S
N1951 C1952 1.351 . S
C1952 C1946 1.428 . S
C1952 N1951 1.351 . S
C1952 C1953 1.434 . S
C1953 C1944 1.429 . S
C1953 N1950 1.350 . S
C1953 C1952 1.434 . S
C1954 C1955 1.369 . S
C1954 C1956 1.419 . S
C1954 H1958 0.930 . S
C1955 C1954 1.369 . S
C1955 C1964 1.429 . S
C1956 C1954 1.419 . S
C1956 C1957 1.363 . S
C1956 H1959 0.929 . S
C1957 C1956 1.363 . S
C1957 C1963 1.428 . S
H1958 C1954 0.930 . S
H1959 C1956 0.929 . S
S1960 N1961 1.613 . S
S1960 N1962 1.610 . S
N1961 S1960 1.613 . S
N1961 C1964 1.350 . S
N1962 S1960 1.610 . S
N1962 C1963 1.351 . S
C1963 C1957 1.428 . S
C1963 N1962 1.351 . S
C1963 C1964 1.434 . S
C1964 C1955 1.429 . S
C1964 N1961 1.350 . S
C1964 C1963 1.434 . S
C1965 C1966 1.369 . S
C1965 C1967 1.419 . S
C1965 H1969 0.930 . S
C1966 C1965 1.369 . S
C1966 C1975 1.429 . S
C1967 C1965 1.419 . S
C1967 C1968 1.363 . S
C1967 H1970 0.929 . S
C1968 C1967 1.363 . S
C1968 C1974 1.428 . S
H1969 C1965 0.930 . S
H1970 C1967 0.929 . S
S1971 N1972 1.613 . S
S1971 N1973 1.610 . S
N1972 S1971 1.613 . S
N1972 C1975 1.350 . S
N1973 S1971 1.610 . S
N1973 C1974 1.351 . S
C1974 C1968 1.428 . S
C1974 N1973 1.351 . S
C1974 C1975 1.434 . S
C1975 C1966 1.429 . S
C1975 N1972 1.350 . S
C1975 C1974 1.434 . S
C1976 C1977 1.369 . S
C1976 C1978 1.419 . S
C1976 H1980 0.930 . S
C1977 C1976 1.369 . S
C1977 C1986 1.429 . S
C1978 C1976 1.419 . S
C1978 C1979 1.363 . S
C1978 H1981 0.929 . S
C1979 C1978 1.363 . S
C1979 C1985 1.428 . S
H1980 C1976 0.930 . S
H1981 C1978 0.929 . S
S1982 N1983 1.613 . S
S1982 N1984 1.610 . S
N1983 S1982 1.613 . S
N1983 C1986 1.350 . S
N1984 S1982 1.610 . S
N1984 C1985 1.351 . S
C1985 C1979 1.428 . S
C1985 N1984 1.351 . S
C1985 C1986 1.434 . S
C1986 C1977 1.429 . S
C1986 N1983 1.350 . S
C1986 C1985 1.434 . S
C1987 C1988 1.369 . S
C1987 C1989 1.419 . S
C1987 H1991 0.930 . S
C1988 C1987 1.369 . S
C1988 C1997 1.429 . S
C1989 C1987 1.419 . S
C1989 C1990 1.363 . S
C1989 H1992 0.929 . S
C1990 C1989 1.363 . S
C1990 C1996 1.428 . S
H1991 C1987 0.930 . S
H1992 C1989 0.929 . S
S1993 N1994 1.613 . S
S1993 N1995 1.610 . S
N1994 S1993 1.613 . S
N1994 C1997 1.350 . S
N1995 S1993 1.610 . S
N1995 C1996 1.351 . S
C1996 C1990 1.428 . S
C1996 N1995 1.351 . S
C1996 C1997 1.434 . S
C1997 C1988 1.429 . S
C1997 N1994 1.350 . S
C1997 C1996 1.434 . S
C1998 C1999 1.369 1_655 S
C1998 C2000 1.419 . S
C1998 H2002 0.930 . S
C1999 C1998 1.369 1_455 S
C1999 C2008 1.429 . S
C2000 C1998 1.419 . S
C2000 C2001 1.363 1_655 S
C2000 H2003 0.929 . S
C2001 C2000 1.363 1_455 S
C2001 C2007 1.428 . S
H2002 C1998 0.930 . S
H2003 C2000 0.929 . S
S2004 N2005 1.613 . S
S2004 N2006 1.610 . S
N2005 S2004 1.613 . S
N2005 C2008 1.350 . S
N2006 S2004 1.610 . S
N2006 C2007 1.351 . S
C2007 C2001 1.428 . S
C2007 N2006 1.351 . S
C2007 C2008 1.434 . S
C2008 C1999 1.429 . S
C2008 N2005 1.350 . S
C2008 C2007 1.434 . S
C2009 C2010 1.369 . S
C2009 C2011 1.419 . S
C2009 H2013 0.930 . S
C2010 C2009 1.369 . S
C2010 C2019 1.429 . S
C2011 C2009 1.419 . S
C2011 C2012 1.363 . S
C2011 H2014 0.929 . S
C2012 C2011 1.363 . S
C2012 C2018 1.428 . S
H2013 C2009 0.930 . S
H2014 C2011 0.929 . S
S2015 N2016 1.613 . S
S2015 N2017 1.610 . S
N2016 S2015 1.613 . S
N2016 C2019 1.350 . S
N2017 S2015 1.610 . S
N2017 C2018 1.351 . S
C2018 C2012 1.428 . S
C2018 N2017 1.351 . S
C2018 C2019 1.434 . S
C2019 C2010 1.429 . S
C2019 N2016 1.350 . S
C2019 C2018 1.434 . S
C2020 C2021 1.369 . S
C2020 C2022 1.419 . S
C2020 H2024 0.930 . S
C2021 C2020 1.369 . S
C2021 C2030 1.429 . S
C2022 C2020 1.419 . S
C2022 C2023 1.363 . S
C2022 H2025 0.929 . S
C2023 C2022 1.363 . S
C2023 C2029 1.428 . S
H2024 C2020 0.930 . S
H2025 C2022 0.929 . S
S2026 N2027 1.613 . S
S2026 N2028 1.610 . S
N2027 S2026 1.613 . S
N2027 C2030 1.350 . S
N2028 S2026 1.610 . S
N2028 C2029 1.351 . S
C2029 C2023 1.428 . S
C2029 N2028 1.351 . S
C2029 C2030 1.434 . S
C2030 C2021 1.429 . S
C2030 N2027 1.350 . S
C2030 C2029 1.434 . S
C2031 C2032 1.369 . S
C2031 C2033 1.419 . S
C2031 H2035 0.930 . S
C2032 C2031 1.369 . S
C2032 C2041 1.429 . S
C2033 C2031 1.419 . S
C2033 C2034 1.363 . S
C2033 H2036 0.929 . S
C2034 C2033 1.363 . S
C2034 C2040 1.428 . S
H2035 C2031 0.930 . S
H2036 C2033 0.929 . S
S2037 N2038 1.613 . S
S2037 N2039 1.610 . S
N2038 S2037 1.613 . S
N2038 C2041 1.350 . S
N2039 S2037 1.610 . S
N2039 C2040 1.351 . S
C2040 C2034 1.428 . S
C2040 N2039 1.351 . S
C2040 C2041 1.434 . S
C2041 C2032 1.429 . S
C2041 N2038 1.350 . S
C2041 C2040 1.434 . S
C2042 C2043 1.369 . S
C2042 C2044 1.419 . S
C2042 H2046 0.930 . S
C2043 C2042 1.369 . S
C2043 C2052 1.429 . S
C2044 C2042 1.419 . S
C2044 C2045 1.363 . S
C2044 H2047 0.929 . S
C2045 C2044 1.363 . S
C2045 C2051 1.428 . S
H2046 C2042 0.930 . S
H2047 C2044 0.929 . S
S2048 N2049 1.613 . S
S2048 N2050 1.610 . S
N2049 S2048 1.613 . S
N2049 C2052 1.350 1_655 S
N2050 S2048 1.610 . S
N2050 C2051 1.351 1_655 S
C2051 C2045 1.428 . S
C2051 N2050 1.351 1_455 S
C2051 C2052 1.434 . S
C2052 C2043 1.429 . S
C2052 N2049 1.350 1_455 S
C2052 C2051 1.434 . S
C2053 C2054 1.369 . S
C2053 C2055 1.419 . S
C2053 H2057 0.930 . S
C2054 C2053 1.369 . S
C2054 C2063 1.429 . S
C2055 C2053 1.419 . S
C2055 C2056 1.363 . S
C2055 H2058 0.929 . S
C2056 C2055 1.363 . S
C2056 C2062 1.428 . S
H2057 C2053 0.930 . S
H2058 C2055 0.929 . S
S2059 N2060 1.613 . S
S2059 N2061 1.610 . S
N2060 S2059 1.613 . S
N2060 C2063 1.350 . S
N2061 S2059 1.610 . S
N2061 C2062 1.351 . S
C2062 C2056 1.428 . S
C2062 N2061 1.351 . S
C2062 C2063 1.434 . S
C2063 C2054 1.429 . S
C2063 N2060 1.350 . S
C2063 C2062 1.434 . S
C2064 C2065 1.369 . S
C2064 C2066 1.419 . S
C2064 H2068 0.930 . S
C2065 C2064 1.369 . S
C2065 C2074 1.429 . S
C2066 C2064 1.419 . S
C2066 C2067 1.363 . S
C2066 H2069 0.929 . S
C2067 C2066 1.363 . S
C2067 C2073 1.428 . S
H2068 C2064 0.930 . S
H2069 C2066 0.929 . S
S2070 N2071 1.613 . S
S2070 N2072 1.610 . S
N2071 S2070 1.613 . S
N2071 C2074 1.350 . S
N2072 S2070 1.610 . S
N2072 C2073 1.351 . S
C2073 C2067 1.428 . S
C2073 N2072 1.351 . S
C2073 C2074 1.434 . S
C2074 C2065 1.429 . S
C2074 N2071 1.350 . S
C2074 C2073 1.434 . S
C2075 C2076 1.369 . S
C2075 C2077 1.419 . S
C2075 H2079 0.930 . S
C2076 C2075 1.369 . S
C2076 C2085 1.429 . S
C2077 C2075 1.419 . S
C2077 C2078 1.363 . S
C2077 H2080 0.929 . S
C2078 C2077 1.363 . S
C2078 C2084 1.428 . S
H2079 C2075 0.930 . S
H2080 C2077 0.929 . S
S2081 N2082 1.613 . S
S2081 N2083 1.610 . S
N2082 S2081 1.613 . S
N2082 C2085 1.350 . S
N2083 S2081 1.610 . S
N2083 C2084 1.351 . S
C2084 C2078 1.428 . S
C2084 N2083 1.351 . S
C2084 C2085 1.434 . S
C2085 C2076 1.429 . S
C2085 N2082 1.350 . S
C2085 C2084 1.434 . S
C2086 C2087 1.369 . S
C2086 C2088 1.419 . S
C2086 H2090 0.930 . S
C2087 C2086 1.369 . S
C2087 C2096 1.429 . S
C2088 C2086 1.419 . S
C2088 C2089 1.363 . S
C2088 H2091 0.929 1_655 S
C2089 C2088 1.363 . S
C2089 C2095 1.428 . S
H2090 C2086 0.930 . S
H2091 C2088 0.929 1_455 S
S2092 N2093 1.613 . S
S2092 N2094 1.610 . S
N2093 S2092 1.613 . S
N2093 C2096 1.350 . S
N2094 S2092 1.610 . S
N2094 C2095 1.351 . S
C2095 C2089 1.428 . S
C2095 N2094 1.351 . S
C2095 C2096 1.434 . S
C2096 C2087 1.429 . S
C2096 N2093 1.350 . S
C2096 C2095 1.434 . S
C2097 C2098 1.369 . S
C2097 C2099 1.419 . S
C2097 H2101 0.930 . S
C2098 C2097 1.369 . S
C2098 C2107 1.429 . S
C2099 C2097 1.419 . S
C2099 C2100 1.363 . S
C2099 H2102 0.929 . S
C2100 C2099 1.363 . S
C2100 C2106 1.428 . S
H2101 C2097 0.930 . S
H2102 C2099 0.929 . S
S2103 N2104 1.613 . S
S2103 N2105 1.610 . S
N2104 S2103 1.613 . S
N2104 C2107 1.350 . S
N2105 S2103 1.610 . S
N2105 C2106 1.351 . S
C2106 C2100 1.428 . S
C2106 N2105 1.351 . S
C2106 C2107 1.434 . S
C2107 C2098 1.429 . S
C2107 N2104 1.350 . S
C2107 C2106 1.434 . S
C2108 C2109 1.369 . S
C2108 C2110 1.419 . S
C2108 H2112 0.930 . S
C2109 C2108 1.369 . S
C2109 C2118 1.429 . S
C2110 C2108 1.419 . S
C2110 C2111 1.363 . S
C2110 H2113 0.929 . S
C2111 C2110 1.363 . S
C2111 C2117 1.428 . S
H2112 C2108 0.930 . S
H2113 C2110 0.929 . S
S2114 N2115 1.613 . S
S2114 N2116 1.610 . S
N2115 S2114 1.613 . S
N2115 C2118 1.350 . S
N2116 S2114 1.610 . S
N2116 C2117 1.351 . S
C2117 C2111 1.428 . S
C2117 N2116 1.351 . S
C2117 C2118 1.434 . S
C2118 C2109 1.429 . S
C2118 N2115 1.350 . S
C2118 C2117 1.434 . S
C2119 C2120 1.369 . S
C2119 C2121 1.419 . S
C2119 H2123 0.930 . S
C2120 C2119 1.369 . S
C2120 C2129 1.429 . S
C2121 C2119 1.419 . S
C2121 C2122 1.363 . S
C2121 H2124 0.929 . S
C2122 C2121 1.363 . S
C2122 C2128 1.428 . S
H2123 C2119 0.930 . S
H2124 C2121 0.929 . S
S2125 N2126 1.613 . S
S2125 N2127 1.610 . S
N2126 S2125 1.613 . S
N2126 C2129 1.350 . S
N2127 S2125 1.610 . S
N2127 C2128 1.351 . S
C2128 C2122 1.428 . S
C2128 N2127 1.351 . S
C2128 C2129 1.434 . S
C2129 C2120 1.429 . S
C2129 N2126 1.350 . S
C2129 C2128 1.434 . S
C2130 C2131 1.369 . S
C2130 C2132 1.419 . S
C2130 H2134 0.930 . S
C2131 C2130 1.369 . S
C2131 C2140 1.429 . S
C2132 C2130 1.419 . S
C2132 C2133 1.363 . S
C2132 H2135 0.929 . S
C2133 C2132 1.363 . S
C2133 C2139 1.428 . S
H2134 C2130 0.930 . S
H2135 C2132 0.929 . S
S2136 N2137 1.613 . S
S2136 N2138 1.610 . S
N2137 S2136 1.613 . S
N2137 C2140 1.350 . S
N2138 S2136 1.610 . S
N2138 C2139 1.351 . S
C2139 C2133 1.428 . S
C2139 N2138 1.351 . S
C2139 C2140 1.434 . S
C2140 C2131 1.429 . S
C2140 N2137 1.350 . S
C2140 C2139 1.434 . S
C2141 C2142 1.369 . S
C2141 C2143 1.419 . S
C2141 H2145 0.930 . S
C2142 C2141 1.369 . S
C2142 C2151 1.429 . S
C2143 C2141 1.419 . S
C2143 C2144 1.363 . S
C2143 H2146 0.929 . S
C2144 C2143 1.363 . S
C2144 C2150 1.428 . S
H2145 C2141 0.930 . S
H2146 C2143 0.929 . S
S2147 N2148 1.613 . S
S2147 N2149 1.610 . S
N2148 S2147 1.613 . S
N2148 C2151 1.350 . S
N2149 S2147 1.610 . S
N2149 C2150 1.351 . S
C2150 C2144 1.428 . S
C2150 N2149 1.351 . S
C2150 C2151 1.434 . S
C2151 C2142 1.429 . S
C2151 N2148 1.350 . S
C2151 C2150 1.434 . S
C2152 C2153 1.369 . S
C2152 C2154 1.419 . S
C2152 H2156 0.930 . S
C2153 C2152 1.369 . S
C2153 C2162 1.429 . S
C2154 C2152 1.419 . S
C2154 C2155 1.363 . S
C2154 H2157 0.929 . S
C2155 C2154 1.363 . S
C2155 C2161 1.428 . S
H2156 C2152 0.930 . S
H2157 C2154 0.929 . S
S2158 N2159 1.613 . S
S2158 N2160 1.610 . S
N2159 S2158 1.613 . S
N2159 C2162 1.350 . S
N2160 S2158 1.610 . S
N2160 C2161 1.351 . S
C2161 C2155 1.428 . S
C2161 N2160 1.351 . S
C2161 C2162 1.434 . S
C2162 C2153 1.429 . S
C2162 N2159 1.350 . S
C2162 C2161 1.434 . S
C2163 C2164 1.369 . S
C2163 C2165 1.419 . S
C2163 H2167 0.930 . S
C2164 C2163 1.369 . S
C2164 C2173 1.429 . S
C2165 C2163 1.419 . S
C2165 C2166 1.363 . S
C2165 H2168 0.929 . S
C2166 C2165 1.363 . S
C2166 C2172 1.428 . S
H2167 C2163 0.930 . S
H2168 C2165 0.929 . S
S2169 N2170 1.613 1_545 S
S2169 N2171 1.610 . S
N2170 S2169 1.613 1_565 S
N2170 C2173 1.350 . S
N2171 S2169 1.610 . S
N2171 C2172 1.351 1_545 S
C2172 C2166 1.428 . S
C2172 N2171 1.351 1_565 S
C2172 C2173 1.434 . S
C2173 C2164 1.429 . S
C2173 N2170 1.350 . S
C2173 C2172 1.434 . S
C2174 C2175 1.369 . S
C2174 C2176 1.419 . S
C2174 H2178 0.930 . S
C2175 C2174 1.369 . S
C2175 C2184 1.429 . S
C2176 C2174 1.419 . S
C2176 C2177 1.363 . S
C2176 H2179 0.929 . S
C2177 C2176 1.363 . S
C2177 C2183 1.428 . S
H2178 C2174 0.930 . S
H2179 C2176 0.929 . S
S2180 N2181 1.613 . S
S2180 N2182 1.610 . S
N2181 S2180 1.613 . S
N2181 C2184 1.350 . S
N2182 S2180 1.610 . S
N2182 C2183 1.351 . S
C2183 C2177 1.428 . S
C2183 N2182 1.351 . S
C2183 C2184 1.434 . S
C2184 C2175 1.429 . S
C2184 N2181 1.350 . S
C2184 C2183 1.434 . S
C2185 C2186 1.377 . S
C2185 C2187 1.419 . S
C2185 H2189 0.930 . S
C2186 C2185 1.377 . S
C2186 C2195 1.424 1_554 S
C2187 C2185 1.419 . S
C2187 C2188 1.363 . S
C2187 H2190 0.929 . S
C2188 C2187 1.363 . S
C2188 C2194 1.428 1_554 S
H2189 C2185 0.930 . S
H2190 C2187 0.929 . S
S2191 N2192 1.613 . S
S2191 N2193 1.610 . S
N2192 S2191 1.613 . S
N2192 C2195 1.350 . S
N2193 S2191 1.610 . S
N2193 C2194 1.351 . S
C2194 C2188 1.428 1_556 S
C2194 N2193 1.351 . S
C2194 C2195 1.434 . S
C2195 C2186 1.424 1_556 S
C2195 N2192 1.350 . S
C2195 C2194 1.434 . S
C2196 C2197 1.369 . S
C2196 C2198 1.419 . S
C2196 H2200 0.930 . S
C2197 C2196 1.369 . S
C2197 C2206 1.429 . S
C2198 C2196 1.419 . S
C2198 C2199 1.363 . S
C2198 H2201 0.929 . S
C2199 C2198 1.363 . S
C2199 C2205 1.428 . S
H2200 C2196 0.930 . S
H2201 C2198 0.929 . S
S2202 N2203 1.613 . S
S2202 N2204 1.610 . S
N2203 S2202 1.613 . S
N2203 C2206 1.350 . S
N2204 S2202 1.610 . S
N2204 C2205 1.351 . S
C2205 C2199 1.428 . S
C2205 N2204 1.351 . S
C2205 C2206 1.434 . S
C2206 C2197 1.429 . S
C2206 N2203 1.350 . S
C2206 C2205 1.434 . S
C2207 C2208 1.369 . S
C2207 C2209 1.419 . S
C2207 H2211 0.930 . S
C2208 C2207 1.369 . S
C2208 C2217 1.429 . S
C2209 C2207 1.419 . S
C2209 C2210 1.363 1_554 S
C2209 H2212 0.929 . S
C2210 C2209 1.363 1_556 S
C2210 C2216 1.426 1_556 S
H2211 C2207 0.930 . S
H2212 C2209 0.929 . S
S2213 N2214 1.613 1_556 S
S2213 N2215 1.610 . S
N2214 S2213 1.613 1_554 S
N2214 C2217 1.350 . S
N2215 S2213 1.610 . S
N2215 C2216 1.348 1_556 S
C2216 C2210 1.426 1_554 S
C2216 N2215 1.348 1_554 S
C2216 C2217 1.440 . S
C2217 C2208 1.429 . S
C2217 N2214 1.350 . S
C2217 C2216 1.440 . S
C2218 C2219 1.369 . S
C2218 C2220 1.419 . S
C2218 H2222 0.930 . S
C2219 C2218 1.369 . S
C2219 C2228 1.429 . S
C2220 C2218 1.419 . S
C2220 C2221 1.363 . S
C2220 H2223 0.929 . S
C2221 C2220 1.363 . S
C2221 C2227 1.428 . S
H2222 C2218 0.930 . S
H2223 C2220 0.929 . S
S2224 N2225 1.613 . S
S2224 N2226 1.610 . S
N2225 S2224 1.613 . S
N2225 C2228 1.350 . S
N2226 S2224 1.610 . S
N2226 C2227 1.351 . S
C2227 C2221 1.428 . S
C2227 N2226 1.351 . S
C2227 C2228 1.434 . S
C2228 C2219 1.429 . S
C2228 N2225 1.350 . S
C2228 C2227 1.434 . S
C2229 C2230 1.369 . S
C2229 C2231 1.419 . S
C2229 H2233 0.930 . S
C2230 C2229 1.369 . S
C2230 C2239 1.429 . S
C2231 C2229 1.419 . S
C2231 C2232 1.363 . S
C2231 H2234 0.929 . S
C2232 C2231 1.363 . S
C2232 C2238 1.428 . S
H2233 C2229 0.930 . S
H2234 C2231 0.929 . S
S2235 N2236 1.613 . S
S2235 N2237 1.610 . S
N2236 S2235 1.613 . S
N2236 C2239 1.350 . S
N2237 S2235 1.610 . S
N2237 C2238 1.351 . S
C2238 C2232 1.428 . S
C2238 N2237 1.351 . S
C2238 C2239 1.434 . S
C2239 C2230 1.429 . S
C2239 N2236 1.350 . S
C2239 C2238 1.434 . S
C1185 C255 1.322 . S
C1187 C880 1.275 . S
C1196 C147 1.391 . S
C1198 C893 1.365 . S
C1207 C184 1.404 . S
C1209 C912 1.400 . S
C1220 C943 1.824 . S
C1218 C220 1.875 . S
C1229 C40 1.636 . S
C1231 C963 1.613 . S
C1242 C980 1.042 . S
C1240 C74 1.061 . S
C1253 C993 1.506 . S
C1251 C110 1.506 . S
C1262 C14 1.095 . S
C1264 C1020 1.087 . S
C1275 C873 1.337 . S
C1273 C579 1.348 . S
C1284 C616 1.580 . S
C1286 C903 1.562 . S
C1297 C905 1.693 . S
C1295 C687 1.763 . S
C1308 C940 1.014 . S
C1306 C436 1.013 . S
C1317 C580 1.233 . S
C1319 C960 1.242 . S
C1330 C973 1.769 . S
C1328 C615 1.767 . S
C1341 C1003 1.433 . S
C1339 C688 1.452 . S
C1352 C1013 1.245 . S
C1350 C435 1.287 . S
C1363 C883 1.643 1_565 S
C1361 C410 1.627 . S
C1372 C722 1.750 . S
C1374 C1033 1.755 . S
C1385 C1063 1.705 . S
C1383 C842 1.702 . S
C1396 C1080 1.294 . S
C1394 C794 1.316 . S
C1405 C302 1.840 . S
C1407 C1023 1.904 . S
C1416 C338 1.370 . S
C1418 C910 1.292 . S
C1427 C830 1.855 . S
C1429 C1093 1.863 . S
C1440 C1120 1.147 . S
C1438 C758 1.192 . S
C1451 C870 1.268 1_455 S
C1449 C158 1.244 . S
C1462 C1105 1.389 . S
C1460 C254 1.415 . S
C1471 C218 1.413 . S
C1473 C923 1.408 . S
C1482 C194 1.837 . S
C1484 C1092 1.824 . S
C1495 C952 1.602 . S
C1493 C3 1.616 . S
C1504 C111 0.979 . S
C1506 C1050 0.959 . S
C1517 C985 1.481 . S
C1515 C76 1.462 . S
C1528 C1130 1.131 . S
C1526 C50 1.120 . S
C1539 C865 1.311 1_565 S
C1537 C364 1.337 1_565 S
C1550 C1112 1.557 . S
C1548 C795 1.581 . S
C1559 C292 1.701 . S
C1561 C913 1.658 . S
C1570 C723 0.965 . S
C1572 C1090 0.963 . S
C1581 C363 1.233 . S
C1583 C950 1.228 . S
C1594 C1045 1.764 . S
C1592 C796 1.742 . S
C1603 C291 1.445 . S
C1605 C992 1.412 . S
C1614 C724 1.297 . S
C1616 C1125 1.252 . S
C1625 C482 1.578 1_554 S
C1627 C872 1.638 . S
C1636 C434 1.746 . S
C1638 C1025 1.747 . S
C1647 C662 1.554 . S
C1649 C972 1.657 . S
C1658 C614 1.306 . S
C1660 C1070 1.280 . S
C1671 C1132 1.899 . S
C1669 C698 1.847 . S
C1680 C554 1.253 . S
C1682 C920 1.326 1_565 S
C1693 C925 1.822 . S
C1691 C650 1.810 . S
C1704 C890 1.170 . S
C1702 C506 1.226 . S
C1713 C183 1.316 . S
C1715 C1160 1.278 . S
C1726 C1113 1.370 . S
C1724 C219 1.390 . S
C1735 C256 1.399 . S
C1737 C1172 1.397 . S
C1746 C148 1.870 . S
C1748 C1103 1.824 . S
C1757 C122 1.643 . S
C1759 C1043 1.656 . S
C1770 C1060 0.999 . S
C1768 C2 1.016 . S
C1781 C1073 1.408 1_655 S
C1779 C39 1.403 . S
C1792 C1140 1.133 . S
C1790 C86 1.130 . S
C1803 C1153 1.354 . S
C1801 C651 1.363 . S
C1812 C472 1.585 . S
C1814 C1123 1.566 . S
C1825 C1165 1.686 . S
C1823 C507 1.749 . S
C1836 C1100 1.014 . S
C1834 C544 1.014 . S
C1847 C1040 1.250 . S
C1845 C652 1.239 . S
C1856 C471 1.745 . S
C1858 C1053 1.743 . S
C1869 C1083 1.416 . S
C1867 C508 1.433 . S
C1878 C543 1.297 . S
C1880 C1133 1.259 . S
C1891 C1163 1.654 . S
C1889 C806 1.638 . S
C1900 C326 1.735 . S
C1902 C953 1.738 . S
C1913 C983 1.671 . S
C1911 C374 1.679 . S
C1924 C1000 1.311 1_565 S
C1922 C398 1.338 . S
C1935 C1143 1.895 . S
C1933 C770 1.830 . S
C1944 C734 1.360 1_554 S
C1946 C1170 1.282 . S
C1957 C933 1.859 . S
C1955 C362 1.842 . S
C1968 C900 1.159 . S
C1966 C290 1.206 . S
C1977 C230 1.246 . S
C1979 C1150 1.270 . S
C1990 C885 1.400 . S
C1988 C182 1.420 . S
C1999 C146 1.415 . S
C2001 C1183 1.401 . S
C2010 C266 1.835 . S
C2012 C932 1.819 . S
C2021 C75 1.672 . S
C2023 C1032 1.653 1_556 S
C2034 C970 1.041 . S
C2032 C38 1.051 . S
C2043 C4 1.405 . S
C2045 C1065 1.407 . S
C2054 C112 1.175 . S
C2056 C1010 1.102 . S
C2067 C1145 1.315 . S
C2065 C832 1.339 . S
C2076 C399 1.588 . S
C2078 C892 1.563 . S
C2089 C1173 1.644 1_655 S
C2087 C760 1.694 . S
C2098 C327 0.967 . S
C2100 C930 0.961 . S
C2109 C831 1.253 . S
C2111 C1030 1.245 . S
C2122 C965 1.754 . S
C2120 C400 1.738 . S
C2131 C759 1.455 . S
C2133 C1072 1.420 . S
C2144 C1005 1.256 . S
C2142 C328 1.293 . S
C2155 C1152 1.651 . S
C2153 C626 1.581 . S
C2166 C945 1.746 1_565 S
C2164 C542 1.748 . S
C2175 C590 1.523 . S
C2177 C1052 1.631 . S
C2188 C990 1.286 . S
C2186 C470 1.308 . S
C2197 C518 1.829 . S
C2199 C1012 1.876 . S
C2208 C446 1.248 . S
C2210 C1180 1.310 . S
C2221 C1085 1.829 . S
C2219 C578 1.848 . S
C2232 C1110 1.146 . S
C2230 C686 1.207 . S
