# Generated by pormake.
# Topology pyr, (3,6)-cn, num edge types: 1
# Building blocks:
#     Node 0, Type 0, BuildingBlock: OLANEW_clean_sbu_2, # of connection points: 3
#     Node 1, Type 0, BuildingBlock: OLANEW_clean_sbu_2, # of connection points: 3
#     Node 2, Type 0, BuildingBlock: OLANEW_clean_sbu_2, # of connection points: 3
#     Node 3, Type 0, BuildingBlock: OLANEW_clean_sbu_2, # of connection points: 3
#     Node 4, Type 0, BuildingBlock: OLANEW_clean_sbu_2, # of connection points: 3
#     Node 5, Type 0, BuildingBlock: OLANEW_clean_sbu_2, # of connection points: 3
#     Node 6, Type 0, BuildingBlock: OLANEW_clean_sbu_2, # of connection points: 3
#     Node 7, Type 0, BuildingBlock: OLANEW_clean_sbu_2, # of connection points: 3
#     Node 8, Type 1, BuildingBlock: GEDQOX_clean_sbu_0, # of connection points: 6
#     Node 9, Type 1, BuildingBlock: GEDQOX_clean_sbu_0, # of connection points: 6
#     Node 10, Type 1, BuildingBlock: GEDQOX_clean_sbu_0, # of connection points: 6
#     Node 11, Type 1, BuildingBlock: GEDQOX_clean_sbu_0, # of connection points: 6
#     Edge 12, Type (0, 1), BuildingBlock: MIFKUJ_clean_linker_0, # of connection points: 2
#     Edge 13, Type (0, 1), BuildingBlock: MIFKUJ_clean_linker_0, # of connection points: 2
#     Edge 14, Type (0, 1), BuildingBlock: MIFKUJ_clean_linker_0, # of connection points: 2
#     Edge 15, Type (0, 1), BuildingBlock: MIFKUJ_clean_linker_0, # of connection points: 2
#     Edge 16, Type (0, 1), BuildingBlock: MIFKUJ_clean_linker_0, # of connection points: 2
#     Edge 17, Type (0, 1), BuildingBlock: MIFKUJ_clean_linker_0, # of connection points: 2
#     Edge 18, Type (0, 1), BuildingBlock: MIFKUJ_clean_linker_0, # of connection points: 2
#     Edge 19, Type (0, 1), BuildingBlock: MIFKUJ_clean_linker_0, # of connection points: 2
#     Edge 20, Type (0, 1), BuildingBlock: MIFKUJ_clean_linker_0, # of connection points: 2
#     Edge 21, Type (0, 1), BuildingBlock: MIFKUJ_clean_linker_0, # of connection points: 2
#     Edge 22, Type (0, 1), BuildingBlock: MIFKUJ_clean_linker_0, # of connection points: 2
#     Edge 23, Type (0, 1), BuildingBlock: MIFKUJ_clean_linker_0, # of connection points: 2
#     Edge 24, Type (0, 1), BuildingBlock: MIFKUJ_clean_linker_0, # of connection points: 2
#     Edge 25, Type (0, 1), BuildingBlock: MIFKUJ_clean_linker_0, # of connection points: 2
#     Edge 26, Type (0, 1), BuildingBlock: MIFKUJ_clean_linker_0, # of connection points: 2
#     Edge 27, Type (0, 1), BuildingBlock: MIFKUJ_clean_linker_0, # of connection points: 2
#     Edge 28, Type (0, 1), BuildingBlock: MIFKUJ_clean_linker_0, # of connection points: 2
#     Edge 29, Type (0, 1), BuildingBlock: MIFKUJ_clean_linker_0, # of connection points: 2
#     Edge 30, Type (0, 1), BuildingBlock: MIFKUJ_clean_linker_0, # of connection points: 2
#     Edge 31, Type (0, 1), BuildingBlock: MIFKUJ_clean_linker_0, # of connection points: 2
#     Edge 32, Type (0, 1), BuildingBlock: MIFKUJ_clean_linker_0, # of connection points: 2
#     Edge 33, Type (0, 1), BuildingBlock: MIFKUJ_clean_linker_0, # of connection points: 2
#     Edge 34, Type (0, 1), BuildingBlock: MIFKUJ_clean_linker_0, # of connection points: 2
#     Edge 35, Type (0, 1), BuildingBlock: MIFKUJ_clean_linker_0, # of connection points: 2
# Relax obj value: 0.139
# Max RMSD: 0.178
# Mean RMSD: 0.130
data_MOF--net-pyr--node1-OLANEW_clean_sbu_2--node2-GEDQOX_clean_sbu_0--edge1-MIFKUJ_clean_linker_0
_symmetry_space_group_name_H-M    P1
_symmetry_Int_Tables_number       1
_symmetry_cell_setting            triclinic
loop_
_symmetry_equiv_pos_as_xyz
'x, y, z'
_cell_length_a     54.664587
_cell_length_b     54.486472
_cell_length_c     47.708117
_cell_angle_alpha  93.454271
_cell_angle_beta   93.186357
_cell_angle_gamma 95.049891
loop_
_atom_site_label
_atom_site_type_symbol
_atom_site_fract_x
_atom_site_fract_y
_atom_site_fract_z
_atom_type_partial_charge
O0 O 0.23648 0.17039 0.1502 0.0
Cd1 Cd 0.20142 0.20182 0.15168 0.0
O2 O 0.23352 0.14128 0.18214 0.0
Cd3 Cd 0.20551 0.13431 0.21708 0.0
O4 O 0.18096 0.12419 0.25448 0.0
C5 C 0.18252 0.10511 0.26894 0.0
O6 O 0.19906 0.09001 0.26231 0.0
C7 C 0.24441 0.15122 0.16154 0.0
C8 C 0.1823 0.24363 0.12273 0.0
O9 O 0.19995 0.24684 0.14192 0.0
O10 O 0.17471 0.22103 0.11543 0.0
O11 O 0.37339 0.76805 0.82799 0.0
Cd12 Cd 0.35222 0.74076 0.78949 0.0
O13 O 0.33831 0.78272 0.83748 0.0
Cd14 Cd 0.31463 0.76214 0.8043 0.0
O15 O 0.28412 0.76871 0.77524 0.0
C16 C 0.26369 0.77247 0.78543 0.0
O17 O 0.2612 0.76988 0.81236 0.0
C18 C 0.36137 0.78263 0.84257 0.0
C19 C 0.38057 0.70822 0.76106 0.0
O20 O 0.38186 0.73118 0.75631 0.0
O21 O 0.36632 0.70059 0.77978 0.0
O22 O 0.73674 0.47296 0.90945 0.0
Cd23 Cd 0.69276 0.47179 0.8978 0.0
O24 O 0.73162 0.43455 0.89287 0.0
Cd25 Cd 0.73975 0.39629 0.887 0.0
O26 O 0.72222 0.35989 0.89374 0.0
C27 C 0.72008 0.35449 0.91907 0.0
O28 O 0.73023 0.37002 0.93944 0.0
C29 C 0.74572 0.45258 0.90428 0.0
C30 C 0.68164 0.4786 0.84139 0.0
O31 O 0.68305 0.4967 0.86004 0.0
O32 O 0.68582 0.45723 0.84937 0.0
O33 O 0.8554 0.79933 0.34067 0.0
Cd34 Cd 0.83309 0.77546 0.30131 0.0
O35 O 0.8811 0.77069 0.33833 0.0
Cd36 Cd 0.90921 0.74977 0.35748 0.0
O37 O 0.89396 0.72453 0.38674 0.0
C38 C 0.88432 0.73486 0.40743 0.0
O39 O 0.88827 0.75893 0.41202 0.0
C40 C 0.87488 0.79062 0.34991 0.0
C41 C 0.86684 0.74586 0.2791 0.0
O42 O 0.86508 0.76776 0.2713 0.0
O43 O 0.85175 0.73742 0.29658 0.0
O44 O 0.88819 0.85971 0.86002 0.0
Cd45 Cd 0.8956 0.82386 0.8949 0.0
O46 O 0.85818 0.88576 0.86144 0.0
Cd47 Cd 0.82276 0.89965 0.88244 0.0
O48 O 0.78545 0.91149 0.90079 0.0
C49 C 0.78296 0.92795 0.92084 0.0
O50 O 0.80311 0.93984 0.93299 0.0
C51 C 0.87753 0.87808 0.85008 0.0
C52 C 0.91708 0.77676 0.905 0.0
O53 O 0.93043 0.79593 0.89838 0.0
O54 O 0.89389 0.77896 0.90516 0.0
O55 O 0.7164 0.24182 0.2706 0.0
Cd56 Cd 0.73912 0.26771 0.30893 0.0
O57 O 0.6917 0.26944 0.25743 0.0
Cd58 Cd 0.7035 0.29799 0.29105 0.0
O59 O 0.69429 0.32603 0.32276 0.0
C60 C 0.70322 0.34847 0.32464 0.0
O61 O 0.72011 0.35569 0.3076 0.0
C62 C 0.6991 0.248 0.25429 0.0
C63 C 0.77762 0.24345 0.33228 0.0
O64 O 0.75534 0.23843 0.33858 0.0
O65 O 0.782 0.2602 0.31502 0.0
O66 O 0.41584 0.64741 0.16866 0.0
Cd67 Cd 0.40979 0.60359 0.17629 0.0
O68 O 0.37742 0.64964 0.17756 0.0
Cd69 Cd 0.34196 0.66388 0.18294 0.0
O70 O 0.30487 0.64884 0.16914 0.0
C71 C 0.30409 0.63479 0.1468 0.0
O72 O 0.32465 0.63183 0.1345 0.0
C73 C 0.39779 0.66031 0.17123 0.0
C74 C 0.41872 0.59758 0.23313 0.0
O75 O 0.43628 0.60094 0.21669 0.0
O76 O 0.39652 0.5965 0.22269 0.0
O77 O 0.21385 0.254 0.69566 0.0
Cd78 Cd 0.18955 0.28237 0.67116 0.0
O79 O 0.22911 0.24203 0.73564 0.0
Cd80 Cd 0.22599 0.2397 0.7811 0.0
O81 O 0.19456 0.21684 0.76119 0.0
C82 C 0.17277 0.22326 0.75961 0.0
O83 O 0.16735 0.24263 0.77499 0.0
C84 C 0.21618 0.25636 0.72237 0.0
C85 C 0.22238 0.32193 0.66193 0.0
O86 O 0.21447 0.30626 0.64165 0.0
O87 O 0.21405 0.31938 0.68623 0.0
Nd88 Nd 0.03808 0.99073 0.56196 0.0
Nd89 Nd 1.00014 0.02763 0.55786 0.0
C90 C 0.06287 0.95149 0.5657 0.0
C91 C 0.07636 0.93869 0.58726 0.0
C92 C 0.0655 0.91711 0.59789 0.0
C93 C 0.0789 0.90406 0.61683 0.0
C94 C 0.10345 0.91225 0.62522 0.0
C95 C 0.11409 0.9341 0.61506 0.0
C96 C 0.10074 0.94715 0.59625 0.0
C97 C 0.05267 0.03611 0.58836 0.0
C98 C 0.99601 0.99173 0.61071 0.0
C99 C 0.9769 0.06795 0.55387 0.0
C100 C 0.96749 0.08279 0.5317 0.0
C101 C 0.96341 0.10741 0.53833 0.0
C102 C 0.95271 0.1213 0.51808 0.0
C103 C 0.9459 0.11071 0.49084 0.0
C104 C 0.95081 0.08622 0.48401 0.0
C105 C 0.96161 0.07238 0.50427 0.0
C106 C 0.98547 0.98229 0.53172 0.0
C107 C 0.04158 0.02499 0.50832 0.0
O108 O 0.03886 0.95042 0.56621 0.0
O109 O 0.07273 0.97314 0.5597 0.0
O110 O 0.06759 0.02243 0.576 0.0
O111 O 0.03164 0.02483 0.58882 0.0
O112 O 1.01268 0.97934 0.59808 0.0
O113 O 0.99 0.01297 0.60117 0.0
O114 O 1.00082 0.06844 0.55762 0.0
O115 O 0.96567 0.04588 0.55512 0.0
O116 O 0.97055 0.99598 0.54413 0.0
O117 O 1.00649 0.99357 0.53104 0.0
O118 O 0.02591 0.03838 0.52146 0.0
O119 O 0.04641 1.00342 0.51768 0.0
H120 H 0.04682 0.91005 0.59116 0.0
H121 H 0.07032 0.88714 0.62416 0.0
H122 H 0.13288 0.94102 0.62149 0.0
H123 H 0.10973 0.96367 0.58844 0.0
H124 H 0.96792 0.11572 0.55941 0.0
H125 H 0.94893 0.14001 0.52408 0.0
H126 H 0.94603 0.07767 0.46311 0.0
H127 H 0.96488 0.05342 0.49871 0.0
Nd128 Nd 0.5119 0.01252 0.06891 0.0
Nd129 Nd 0.51169 0.04258 0.02272 0.0
C130 C 0.52033 0.97503 0.09951 0.0
C131 C 0.50657 0.95202 0.10665 0.0
C132 C 0.51746 0.92984 0.10272 0.0
C133 C 0.50458 0.90742 0.10756 0.0
C134 C 0.48054 0.90666 0.11676 0.0
C135 C 0.46952 0.92894 0.1205 0.0
C136 C 0.4824 0.95145 0.11537 0.0
C137 C 0.46764 0.03501 0.07369 0.0
C138 C 0.48137 0.99097 0.01142 0.0
C139 C 0.51116 0.07801 0.98712 0.0
C140 C 0.52652 0.10101 0.98334 0.0
C141 C 0.53231 0.11898 0.00566 0.0
C142 C 0.54741 0.14038 1.00174 0.0
C143 C 0.55714 0.14415 0.97549 0.0
C144 C 0.55134 0.12604 0.95327 0.0
C145 C 0.53612 0.10474 0.95715 0.0
C146 C 0.5487 0.01053 0.01949 0.0
C147 C 0.54318 0.06496 0.08099 0.0
O148 O 0.52527 0.9758 0.07309 0.0
O149 O 0.51398 0.99604 0.11038 0.0
O150 O 0.47551 0.01876 0.08972 0.0
O151 O 0.48261 0.03892 0.05453 0.0
O152 O 0.49576 0.98562 0.03261 0.0
O153 O 0.48022 0.01406 0.00551 0.0
O154 O 0.49827 0.07749 0.00933 0.0
O155 O 0.52132 0.05757 0.98209 0.0
O156 O 0.53233 0.01313 0.99944 0.0
O157 O 0.544 0.02345 0.04149 0.0
O158 O 0.53438 0.0695 0.05571 0.0
O159 O 0.53813 0.04334 0.09114 0.0
H160 H 0.5359 0.92983 0.09549 0.0
H161 H 0.51343 0.89061 0.10377 0.0
H162 H 0.4511 0.92904 0.12772 0.0
H163 H 0.47344 0.96832 0.11811 0.0
H164 H 0.52522 0.11653 0.02616 0.0
H165 H 0.55126 0.15406 0.01922 0.0
H166 H 0.55887 0.12812 0.93293 0.0
H167 H 0.53203 0.09101 0.93974 0.0
Nd168 Nd 0.52688 0.51501 0.53384 0.0
Nd169 Nd 0.5653 0.55797 0.5426 0.0
C170 C 0.48612 0.48542 0.52541 0.0
C171 C 0.46509 0.47938 0.54243 0.0
C172 C 0.45003 0.49756 0.55156 0.0
C173 C 0.43099 0.49162 0.56896 0.0
C174 C 0.427 0.46757 0.57774 0.0
C175 C 0.44201 0.44945 0.56859 0.0
C176 C 0.46083 0.45529 0.55096 0.0
C177 C 0.56216 0.51045 0.57579 0.0
C178 C 0.51751 0.56184 0.57751 0.0
C179 C 0.60606 0.58752 0.55241 0.0
C180 C 0.62629 0.59715 0.53595 0.0
C181 C 0.65055 0.59337 0.54448 0.0
C182 C 0.67003 0.60253 0.52928 0.0
C183 C 0.66552 0.6158 0.50549 0.0
C184 C 0.64125 0.61943 0.49681 0.0
C185 C 0.62173 0.61004 0.51181 0.0
C186 C 0.53017 0.56272 0.50051 0.0
C187 C 0.57442 0.51033 0.4993 0.0
O188 O 0.48846 0.50765 0.51629 0.0
O189 O 0.50701 0.47797 0.53465 0.0
O190 O 0.55329 0.49225 0.5584 0.0
O191 O 0.5518 0.52967 0.57149 0.0
O192 O 0.5073 0.54352 0.56017 0.0
O193 O 0.5413 0.56849 0.57811 0.0
O194 O 0.60488 0.56391 0.55643 0.0
O195 O 0.5845 0.59546 0.54699 0.0
O196 O 0.54004 0.58114 0.51698 0.0
O197 O 0.54026 0.54339 0.50504 0.0
O198 O 0.58465 0.52929 0.5158 0.0
O199 O 0.55072 0.50348 0.499 0.0
H200 H 0.453 0.51637 0.54547 0.0
H201 H 0.41949 0.50581 0.5757 0.0
H202 H 0.43888 0.43063 0.57465 0.0
H203 H 0.47221 0.44101 0.54416 0.0
H204 H 0.65443 0.58348 0.56302 0.0
H205 H 0.68867 0.59978 0.53654 0.0
H206 H 0.63739 0.62953 0.47843 0.0
H207 H 0.60316 0.61301 0.50457 0.0
Nd208 Nd 0.02338 0.5032 0.03382 0.0
Nd209 Nd 0.05211 0.49931 0.97828 0.0
C210 C 0.99554 0.50129 0.07676 0.0
C211 C 0.98937 0.52157 0.0959 0.0
C212 C 0.96489 0.52347 0.10232 0.0
C213 C 0.95853 0.54438 0.1176 0.0
C214 C 0.9766 0.56367 0.12649 0.0
C215 C 1.00114 0.56153 0.12039 0.0
C216 C 1.00747 0.54071 0.10516 0.0
C217 C 0.06651 0.5331 0.035 0.0
C218 C 0.01877 0.54702 0.98962 0.0
C219 C 0.08582 0.49953 0.94094 0.0
C220 C 0.09278 0.4801 0.92116 0.0
C221 C 0.11688 0.48084 0.9126 0.0
C222 C 0.1243 0.46117 0.89601 0.0
C223 C 0.10768 0.44045 0.8878 0.0
C224 C 0.0834 0.43996 0.89612 0.0
C225 C 0.07605 0.45957 0.91281 0.0
C226 C 1.00529 0.47485 0.96941 0.0
C227 C 0.05684 0.45506 0.0227 0.0
O228 O 0.98644 0.50171 0.05084 0.0
O229 O 0.01857 0.49633 0.07841 0.0
O230 O 0.04727 0.53898 0.04769 0.0
O231 O 0.06283 0.51148 0.0237 0.0
O232 O 1.00753 0.53425 0.00886 0.0
O233 O 0.03856 0.53912 0.97803 0.0
O234 O 0.09052 0.49587 0.96745 0.0
O235 O 0.06411 0.50733 0.93594 0.0
O236 O 0.02103 0.47579 0.9501 0.0
O237 O 0.01542 0.48568 0.99142 0.0
O238 O 0.06354 0.46395 0.99869 0.0
O239 O 0.04124 0.466 0.03868 0.0
H240 H 0.95064 0.5091 0.09487 0.0
H241 H 0.93942 0.54575 0.12187 0.0
H242 H 0.01545 0.57599 0.12736 0.0
H243 H 0.02648 0.53988 0.10015 0.0
H244 H 0.13008 0.49642 0.91919 0.0
H245 H 0.14306 0.46212 0.88967 0.0
H246 H 0.07031 0.4241 0.8904 0.0
H247 H 0.05747 0.45845 0.9197 0.0
H248 H 0.14523 0.13096 0.29214 0.0
H249 H 0.11973 0.11967 0.33128 0.0
H250 H 0.15778 0.05436 0.34019 0.0
H251 H 0.18268 0.0652 0.30132 0.0
H252 H 0.11178 0.04165 0.34484 0.0
H253 H 0.16621 0.11079 0.38777 0.0
H254 H 0.18425 0.15409 0.39179 0.0
H255 H 0.11234 0.17904 0.39869 0.0
H256 H 0.09386 0.1359 0.39441 0.0
H257 H 0.07545 1.00275 0.47678 0.0
H258 H 0.09692 0.01775 0.43679 0.0
H259 H 0.05819 0.0833 0.44069 0.0
H260 H 0.03703 0.06853 0.48143 0.0
H261 H 0.10162 0.09778 0.42819 0.0
H262 H 0.04611 0.03432 0.38082 0.0
H263 H 0.0235 0.99344 0.37006 0.0
H264 H 0.09174 0.96001 0.36801 0.0
H265 H 0.11478 1.00101 0.37776 0.0
C266 C 0.14821 0.11421 0.30244 0.0
C267 C 0.16632 0.09915 0.29313 0.0
C268 C 0.13362 0.10777 0.32515 0.0
C269 C 0.13668 0.08609 0.33948 0.0
C270 C 0.15466 0.07112 0.32997 0.0
C271 C 0.16913 0.0775 0.30747 0.0
C272 C 0.12121 0.07834 0.3638 0.0
C273 C 0.11 0.05398 0.36318 0.0
C274 C 0.1175 0.0943 0.38765 0.0
C275 C 0.12865 0.12015 0.39051 0.0
C276 C 0.15424 0.12553 0.38999 0.0
C277 C 0.16454 0.15003 0.39234 0.0
C278 C 0.14944 0.1693 0.39542 0.0
C279 C 0.12401 0.16411 0.39627 0.0
C280 C 0.11362 0.13964 0.39391 0.0
C281 C 0.07125 0.02032 0.46916 0.0
C282 C 0.05413 0.03419 0.48269 0.0
C283 C 0.08356 0.02892 0.44584 0.0
C284 C 0.07918 0.05169 0.43468 0.0
C285 C 0.06219 0.06568 0.44833 0.0
C286 C 0.04988 0.05709 0.47178 0.0
C287 C 0.09266 0.06089 0.40943 0.0
C288 C 0.10348 0.08545 0.40988 0.0
C289 C 0.09561 0.04534 0.38504 0.0
C290 C 0.08209 0.02059 0.38039 0.0
C291 C 0.05626 0.0182 0.37833 0.0
C292 C 0.04338 0.99503 0.37229 0.0
C293 C 0.05614 0.97404 0.36875 0.0
C294 C 0.08186 0.97626 0.3709 0.0
C295 C 0.09485 0.99948 0.37645 0.0
H296 H 0.04612 0.95609 0.36415 0.0
H297 H 0.15745 0.18826 0.39721 0.0
H298 H 0.34091 0.81891 0.87249 0.0
H299 H 0.36188 0.85305 0.90233 0.0
H300 H 0.43149 0.82363 0.89049 0.0
H301 H 0.41061 0.78923 0.85999 0.0
H302 H 0.42266 0.84297 0.94878 0.0
H303 H 0.42056 0.86637 0.85249 0.0
H304 H 0.39992 0.87162 0.80624 0.0
H305 H 0.35261 0.92077 0.84502 0.0
H306 H 0.37272 0.91549 0.8916 0.0
H307 H 0.50003 0.94825 0.99668 0.0
H308 H 0.47994 0.91252 0.96868 0.0
H309 H 0.4144 0.95055 0.95746 0.0
H310 H 0.43526 0.98719 0.98438 0.0
H311 H 0.42055 0.92587 0.91133 0.0
H312 H 0.42191 0.90457 0.00696 0.0
H313 H 0.44054 0.89944 0.05427 0.0
H314 H 0.48585 0.84625 0.01948 0.0
H315 H 0.4679 0.85146 0.97185 0.0
C316 C 0.36065 0.81939 0.87642 0.0
C317 C 0.37409 0.80135 0.86361 0.0
C318 C 0.37259 0.839 0.8935 0.0
C319 C 0.39822 0.84097 0.89839 0.0
C320 C 0.41167 0.8224 0.88691 0.0
C321 C 0.39972 0.8028 0.86948 0.0
C322 C 0.41086 0.8633 0.91403 0.0
C323 C 0.42257 0.86109 0.94052 0.0
C324 C 0.40991 0.88697 0.90357 0.0
C325 C 0.398 0.89036 0.87555 0.0
C326 C 0.40562 0.87814 0.85119 0.0
C327 C 0.39404 0.88114 0.82491 0.0
C328 C 0.37493 0.89648 0.8227 0.0
C329 C 0.3674 0.90888 0.84676 0.0
C330 C 0.37889 0.9059 0.8731 0.0
C331 C 0.48135 0.94904 0.98813 0.0
C332 C 0.46906 0.97035 0.99289 0.0
C333 C 0.4698 0.9285 0.97229 0.0
C334 C 0.44533 0.92841 0.96164 0.0
C335 C 0.43322 0.95003 0.96565 0.0
C336 C 0.44509 0.97095 0.98098 0.0
C337 C 0.43261 0.90576 0.94632 0.0
C338 C 0.42076 0.90785 0.91981 0.0
C339 C 0.43311 0.88201 0.95704 0.0
C340 C 0.44367 0.87855 0.98577 0.0
C341 C 0.43595 0.89188 0.00936 0.0
C342 C 0.44639 0.88896 0.03625 0.0
C343 C 0.46437 0.87252 0.03988 0.0
C344 C 0.47193 0.85897 0.01663 0.0
C345 C 0.46163 0.86191 0.98968 0.0
H346 H 0.47243 0.87026 0.06068 0.0
H347 H 0.366 0.89879 0.80233 0.0
H348 H 0.65834 0.51655 0.82119 0.0
H349 H 0.64242 0.52051 0.77293 0.0
H350 H 0.67227 0.45289 0.74629 0.0
H351 H 0.68778 0.44835 0.79486 0.0
H352 H 0.67803 0.50046 0.70981 0.0
H353 H 0.62149 0.44028 0.74856 0.0
H354 H 0.59569 0.4238 0.78513 0.0
H355 H 0.55433 0.48722 0.78352 0.0
H356 H 0.58021 0.50426 0.74723 0.0
H357 H 0.59142 0.47342 0.58476 0.0
H358 H 0.61705 0.46808 0.62757 0.0
H359 H 0.59492 0.53586 0.66543 0.0
H360 H 0.56996 0.54173 0.62254 0.0
H361 H 0.58726 0.48486 0.69422 0.0
H362 H 0.64459 0.54506 0.65551 0.0
H363 H 0.66987 0.56072 0.61807 0.0
H364 H 0.70944 0.49604 0.61847 0.0
H365 H 0.68401 0.47977 0.65557 0.0
C366 C 0.6618 0.50266 0.80504 0.0
C367 C 0.67417 0.48206 0.81179 0.0
C368 C 0.65272 0.50498 0.77752 0.0
C369 C 0.65624 0.48699 0.75625 0.0
C370 C 0.66952 0.46696 0.76255 0.0
C371 C 0.67821 0.46435 0.79025 0.0
C372 C 0.64421 0.48837 0.72804 0.0
C373 C 0.65826 0.49667 0.70619 0.0
C374 C 0.61843 0.4837 0.72358 0.0
C375 C 0.60299 0.47369 0.74553 0.0
C376 C 0.6071 0.45085 0.75629 0.0
C377 C 0.59242 0.44138 0.77689 0.0
C378 C 0.57344 0.4545 0.78673 0.0
C379 C 0.56908 0.47711 0.77593 0.0
C380 C 0.58374 0.48668 0.75535 0.0
C381 C 0.59232 0.48729 0.60213 0.0
C382 C 0.5787 0.50789 0.60054 0.0
C383 C 0.60696 0.48427 0.6264 0.0
C384 C 0.60781 0.50165 0.6494 0.0
C385 C 0.59451 0.52239 0.64771 0.0
C386 C 0.5803 0.52568 0.62327 0.0
C387 C 0.62099 0.49724 0.67609 0.0
C388 C 0.60708 0.48838 0.6977 0.0
C389 C 0.64685 0.50129 0.68016 0.0
C390 C 0.66216 0.51103 0.65797 0.0
C391 C 0.65846 0.53402 0.64734 0.0
C392 C 0.67286 0.54305 0.62626 0.0
C393 C 0.69119 0.52934 0.61582 0.0
C394 C 0.69519 0.50661 0.62652 0.0
C395 C 0.68079 0.49748 0.64757 0.0
H396 H 0.70234 0.53637 0.59951 0.0
H397 H 0.56206 0.44712 0.80265 0.0
H398 H 0.90533 0.76117 0.2486 0.0
H399 H 0.93454 0.73567 0.22681 0.0
H400 H 0.90092 0.67161 0.26358 0.0
H401 H 0.87187 0.69707 0.28597 0.0
H402 H 0.95277 0.67131 0.25984 0.0
H403 H 0.8788 0.68362 0.2005 0.0
H404 H 0.85071 0.71145 0.17941 0.0
H405 H 0.91071 0.74752 0.13859 0.0
H406 H 0.93917 0.71999 0.1597 0.0
H407 H 0.94703 0.56581 0.17033 0.0
H408 H 0.93737 0.60265 0.19775 0.0
H409 H 0.9818 0.64861 0.14598 0.0
H410 H 0.99141 0.61171 0.11815 0.0
H411 H 0.93425 0.66467 0.15633 0.0
H412 H 1.00616 0.6451 0.20633 0.0
H413 H 0.03404 0.61701 0.22709 0.0
H414 H 0.98002 0.59542 0.28506 0.0
H415 H 0.95166 0.62319 0.26438 0.0
C416 C 0.90434 0.74171 0.25236 0.0
C417 C 0.88591 0.73094 0.26833 0.0
C418 C 0.92118 0.72726 0.24012 0.0
C419 C 0.91959 0.7018 0.24335 0.0
C420 C 0.90238 0.69129 0.26092 0.0
C421 C 0.88564 0.70578 0.2734 0.0
C422 C 0.9329 0.68554 0.22504 0.0
C423 C 0.94888 0.6699 0.23723 0.0
C424 C 0.92828 0.68425 0.19548 0.0
C425 C 0.91105 0.69992 0.18173 0.0
C426 C 0.88594 0.69749 0.18699 0.0
C427 C 0.86999 0.71321 0.17509 0.0
C428 C 0.87893 0.73127 0.15771 0.0
C429 C 0.90382 0.73353 0.15206 0.0
C430 C 0.91986 0.71785 0.16393 0.0
C431 C 0.95456 0.58376 0.16465 0.0
C432 C 0.97002 0.58598 0.14227 0.0
C433 C 0.94923 0.60471 0.18042 0.0
C434 C 0.95922 0.62815 0.17401 0.0
C435 C 0.97415 0.63057 0.15125 0.0
C436 C 0.97966 0.60955 0.13555 0.0
C437 C 0.95355 0.64996 0.19121 0.0
C438 C 0.93887 0.66659 0.17883 0.0
C439 C 0.95957 0.65226 0.22049 0.0
C440 C 0.97677 0.63617 0.23376 0.0
C441 C 1.0002 0.63431 0.22346 0.0
C442 C 0.01609 0.61844 0.23521 0.0
C443 C 1.0088 0.60441 0.25736 0.0
C444 C 0.98564 0.60632 0.26791 0.0
C445 C 0.96967 0.62218 0.25624 0.0
H446 H 0.0211 0.59207 0.26638 0.0
H447 H 0.86656 0.7435 0.14859 0.0
H448 H 0.28577 0.17429 0.139 0.0
H449 H 0.32301 0.15663 0.1243 0.0
H450 H 0.29189 0.08434 0.14288 0.0
H451 H 0.25575 0.10253 0.16003 0.0
H452 H 0.33437 0.08185 0.15472 0.0
H453 H 0.30298 0.11368 0.06821 0.0
H454 H 0.28924 0.14587 0.03828 0.0
H455 H 0.35887 0.18857 0.05567 0.0
H456 H 0.37291 0.15673 0.08588 0.0
H457 H 0.4236 0.01389 0.08953 0.0
H458 H 0.38633 0.03293 0.10086 0.0
H459 H 0.42125 0.10414 0.08393 0.0
H460 H 0.45786 0.08434 0.06977 0.0
H461 H 0.3778 0.10815 0.0717 0.0
H462 H 0.40901 0.0756 0.15781 0.0
H463 H 0.42259 0.04291 0.18712 0.0
H464 H 0.35251 1.00102 0.16982 0.0
H465 H 0.33863 0.03335 0.14025 0.0
C466 C 0.28676 0.15459 0.13989 0.0
C467 C 0.26722 0.14005 0.15078 0.0
C468 C 0.30826 0.14421 0.13099 0.0
C469 C 0.31091 0.11854 0.13126 0.0
C470 C 0.29119 0.10408 0.14208 0.0
C471 C 0.2701 0.11459 0.15189 0.0
C472 C 0.33404 0.10674 0.12135 0.0
C473 C 0.34339 0.08755 0.1362 0.0
C474 C 0.34727 0.11399 0.0977 0.0
C475 C 0.33888 0.13297 0.07946 0.0
C476 C 0.3153 0.12999 0.06571 0.0
C477 C 0.30747 0.14816 0.04871 0.0
C478 C 0.32315 0.16928 0.04514 0.0
C479 C 0.34673 0.17223 0.05848 0.0
C480 C 0.35464 0.15413 0.07551 0.0
C481 C 0.42333 0.03361 0.08787 0.0
C482 C 0.44408 0.04735 0.07857 0.0
C483 C 0.40187 0.04478 0.09502 0.0
C484 C 0.40049 0.07061 0.09485 0.0
C485 C 0.42116 0.08432 0.08482 0.0
C486 C 0.44237 0.07292 0.07659 0.0
C487 C 0.37781 0.08309 0.10486 0.0
C488 C 0.36865 0.10243 0.09013 0.0
C489 C 0.36465 0.07594 0.12857 0.0
C490 C 0.37288 0.05678 0.1467 0.0
C491 C 0.39655 0.05939 0.16025 0.0
C492 C 0.40429 0.04092 0.17688 0.0
C493 C 0.38844 0.01988 0.18028 0.0
C494 C 0.36478 0.01731 0.16716 0.0
C495 C 0.35695 0.0357 0.1505 0.0
H496 H 0.39448 1.00559 0.19312 0.0
H497 H 0.31705 0.18334 0.03199 0.0
H498 H 0.2173 0.78096 0.79989 0.0
H499 H 0.1875 0.80343 0.77396 0.0
H500 H 0.23689 0.81133 0.70701 0.0
H501 H 0.26674 0.78888 0.73264 0.0
H502 H 0.22038 0.85576 0.72756 0.0
H503 H 0.18657 0.7726 0.69672 0.0
H504 H 0.16947 0.7302 0.70395 0.0
H505 H 0.11082 0.75868 0.7485 0.0
H506 H 0.12777 0.80128 0.74185 0.0
H507 H 0.15027 0.90084 0.61838 0.0
H508 H 0.17524 0.87675 0.64821 0.0
H509 H 0.1155 0.86612 0.703 0.0
H510 H 0.09022 0.89019 0.67291 0.0
H511 H 0.13539 0.82431 0.69324 0.0
H512 H 0.16599 0.90638 0.72314 0.0
H513 H 0.18232 0.94957 0.71902 0.0
H514 H 0.24592 0.92492 0.68087 0.0
H515 H 0.22981 0.88156 0.68438 0.0
C516 C 0.22167 0.78715 0.77945 0.0
C517 C 0.24441 0.78319 0.76835 0.0
C518 C 0.20461 0.79994 0.76468 0.0
C519 C 0.21007 0.809 0.73864 0.0
C520 C 0.23241 0.80447 0.72713 0.0
C521 C 0.24938 0.79155 0.74176 0.0
C522 C 0.19321 0.82447 0.72404 0.0
C523 C 0.20188 0.84884 0.71973 0.0
C524 C 0.16876 0.81569 0.71508 0.0
C525 C 0.1586 0.79011 0.71908 0.0
C526 C 0.17016 0.76982 0.70829 0.0
C527 C 0.16047 0.74575 0.71223 0.0
C528 C 0.13912 0.74175 0.72675 0.0
C529 C 0.12738 0.76181 0.7373 0.0
C530 C 0.13701 0.78591 0.73343 0.0
C531 C 0.14253 0.89362 0.63696 0.0
C532 C 0.11839 0.89758 0.64351 0.0
C533 C 0.15682 0.87987 0.65399 0.0
C534 C 0.14738 0.87005 0.67811 0.0
C535 C 0.12315 0.87366 0.68454 0.0
C536 C 0.10874 0.88734 0.66735 0.0
C537 C 0.16277 0.8555 0.69605 0.0
C538 C 0.15382 0.83135 0.70117 0.0
C539 C 0.18687 0.86462 0.70621 0.0
C540 C 0.19656 0.8907 0.7038 0.0
C541 C 0.18335 0.91016 0.71363 0.0
C542 C 0.19259 0.93468 0.71145 0.0
C543 C 0.21511 0.93998 0.69963 0.0
C544 C 0.22846 0.92078 0.68999 0.0
C545 C 0.21929 0.89623 0.6921 0.0
H546 H 0.22225 0.95898 0.69799 0.0
H547 H 0.13164 0.7231 0.72978 0.0
H548 H 0.77172 0.47318 0.95105 0.0
H549 H 0.81555 0.47212 0.96325 0.0
H550 H 0.82245 0.42645 0.88744 0.0
H551 H 0.77809 0.42631 0.87608 0.0
H552 H 0.85181 0.41277 0.92673 0.0
H553 H 0.8376 0.49104 0.89225 0.0
H554 H 0.81778 0.52984 0.88955 0.0
H555 H 0.84365 0.55167 0.97481 0.0
H556 H 0.86332 0.51282 0.97815 0.0
H557 H 0.9819 0.45023 0.92263 0.0
H558 H 0.93734 0.44198 0.91224 0.0
H559 H 0.92449 0.47482 0.99403 0.0
H560 H 0.96885 0.48292 1.00439 0.0
H561 H 0.89882 0.49431 0.94961 0.0
H562 H 0.91392 0.41437 0.98191 0.0
H563 H 0.93458 0.37592 0.98151 0.0
H564 H 0.9084 0.35819 0.8955 0.0
H565 H 0.88789 0.39674 0.89527 0.0
C566 C 0.78257 0.46269 0.93718 0.0
C567 C 0.77167 0.45 0.91254 0.0
C568 C 0.80763 0.4622 0.94406 0.0
C569 C 0.8225 0.44986 0.92583 0.0
C570 C 0.81141 0.43626 0.90175 0.0
C571 C 0.78611 0.43618 0.89526 0.0
C572 C 0.84966 0.45211 0.9314 0.0
C573 C 0.8621 0.43064 0.93136 0.0
C574 C 0.86321 0.47539 0.9376 0.0
C575 C 0.85174 0.49894 0.93552 0.0
C576 C 0.83895 0.50406 0.91047 0.0
C577 C 0.82774 0.52606 0.90882 0.0
C578 C 0.8294 0.54318 0.93201 0.0
C579 C 0.84235 0.53838 0.95687 0.0
C580 C 0.85355 0.51639 0.95865 0.0
C581 C 0.96954 0.45527 0.93854 0.0
C582 C 0.97878 0.46714 0.96442 0.0
C583 C 0.94414 0.45053 0.9326 0.0
C584 C 0.92766 0.45774 0.95241 0.0
C585 C 0.93691 0.46907 0.97849 0.0
C586 C 0.96225 0.47358 0.98448 0.0
C587 C 0.90079 0.45501 0.9454 0.0
C588 C 0.88846 0.47647 0.94498 0.0
C589 C 0.88752 0.43181 0.93826 0.0
C590 C 0.89961 0.40854 0.93849 0.0
C591 C 0.91274 0.40236 0.96284 0.0
C592 C 0.92439 0.38054 0.96274 0.0
C593 C 0.92287 0.36466 0.93847 0.0
C594 C 0.9096 0.37052 0.91428 0.0
C595 C 0.89795 0.39235 0.91425 0.0
H596 H 0.93192 0.34777 0.93843 0.0
H597 H 0.82069 0.5602 0.93071 0.0
H598 H 0.87056 0.6852 0.40254 0.0
H599 H 0.83289 0.66424 0.41826 0.0
H600 H 0.81416 0.73311 0.45725 0.0
H601 H 0.85219 0.75393 0.44268 0.0
H602 H 0.8013 0.69904 0.48856 0.0
H603 H 0.78912 0.70948 0.39114 0.0
H604 H 0.79689 0.7071 0.34069 0.0
H605 H 0.78876 0.6279 0.33886 0.0
H606 H 0.78138 0.62981 0.38946 0.0
H607 H 0.67333 0.66337 0.49169 0.0
H608 H 0.71018 0.68296 0.47224 0.0
H609 H 0.74118 0.61285 0.46668 0.0
H610 H 0.70445 0.59316 0.48645 0.0
H611 H 0.74603 0.648 0.4173 0.0
H612 H 0.76024 0.64221 0.51963 0.0
H613 H 0.74735 0.64914 0.568 0.0
H614 H 0.74613 0.7266 0.55648 0.0
H615 H 0.75869 0.72002 0.50788 0.0
C616 C 0.85865 0.69576 0.41495 0.0
C617 C 0.86421 0.72126 0.42112 0.0
C618 C 0.83699 0.68383 0.42363 0.0
C619 C 0.82035 0.69726 0.43818 0.0
C620 C 0.8266 0.7224 0.44581 0.0
C621 C 0.84841 0.73428 0.43749 0.0
C622 C 0.79624 0.68527 0.44505 0.0
C623 C 0.78922 0.68809 0.47282 0.0
C624 C 0.78026 0.67107 0.42455 0.0
C625 C 0.78505 0.6698 0.3942 0.0
C626 C 0.78928 0.69155 0.38006 0.0
C627 C 0.79355 0.69029 0.35142 0.0
C628 C 0.79342 0.66736 0.3366 0.0
C629 C 0.78894 0.64565 0.35039 0.0
C630 C 0.78472 0.64681 0.37905 0.0
C631 C 0.68781 0.65208 0.48578 0.0
C632 C 0.68627 0.62685 0.49068 0.0
C633 C 0.70876 0.66325 0.47473 0.0
C634 C 0.72822 0.64925 0.46819 0.0
C635 C 0.72619 0.62381 0.47159 0.0
C636 C 0.70539 0.61269 0.48302 0.0
C637 C 0.75168 0.66161 0.46059 0.0
C638 C 0.75839 0.65891 0.4328 0.0
C639 C 0.76704 0.67658 0.48074 0.0
C640 C 0.7602 0.68059 0.51014 0.0
C641 C 0.75708 0.66068 0.52739 0.0
C642 C 0.74986 0.66455 0.55484 0.0
C643 C 0.74588 0.68829 0.56529 0.0
C644 C 0.74921 0.70823 0.54835 0.0
C645 C 0.7564 0.70444 0.52088 0.0
H646 H 0.74025 0.69125 0.58653 0.0
H647 H 0.7967 0.66642 0.31442 0.0
H648 H 0.19388 0.29395 0.1346 0.0
H649 H 0.17321 0.32861 0.11712 0.0
H650 H 0.12162 0.27775 0.06637 0.0
H651 H 0.14267 0.24299 0.08338 0.0
H652 H 0.13078 0.31612 0.03689 0.0
H653 H 0.108 0.3099 0.13224 0.0
H654 H 0.11518 0.30816 0.18356 0.0
H655 H 0.15587 0.37954 0.18822 0.0
H656 H 0.14917 0.38156 0.13686 0.0
H657 H 0.04642 0.40573 0.00544 0.0
H658 H 0.0661 0.37004 0.02206 0.0
H659 H 0.11503 0.4187 0.07884 0.0
H660 H 0.09414 0.45409 0.0634 0.0
H661 H 0.10674 0.38081 0.10484 0.0
H662 H 0.13129 0.38713 0.01013 0.0
H663 H 0.12195 0.39119 0.95951 0.0
H664 H 0.07822 0.32144 0.95368 0.0
H665 H 0.08717 0.31704 1.00434 0.0
C666 C 0.17823 0.29 0.11958 0.0
C667 C 0.17019 0.26526 0.11062 0.0
C668 C 0.16613 0.31005 0.10966 0.0
C669 C 0.1452 0.30633 0.09056 0.0
C670 C 0.13751 0.28164 0.08106 0.0
C671 C 0.14967 0.26156 0.09093 0.0
C672 C 0.13134 0.32794 0.08085 0.0
C673 C 0.12537 0.33003 0.05194 0.0
C674 C 0.12432 0.34688 0.09986 0.0
C675 C 0.1283 0.34576 0.1307 0.0
C676 C 0.11861 0.32514 0.1442 0.0
C677 C 0.12257 0.32412 0.17329 0.0
C678 C 0.13603 0.3437 0.18913 0.0
C679 C 0.14549 0.36438 0.17592 0.0
C680 C 0.1416 0.36548 0.14683 0.0
C681 C 0.0613 0.40878 0.02156 0.0
C682 C 0.06862 0.43291 0.033 0.0
C683 C 0.0729 0.38825 0.03096 0.0
C684 C 0.0929 0.39112 0.05146 0.0
C685 C 0.0999 0.41538 0.06305 0.0
C686 C 0.08793 0.43582 0.0541 0.0
C687 C 0.10641 0.36919 0.06089 0.0
C688 C 0.11227 0.36699 0.08975 0.0
C689 C 0.11351 0.35031 0.04183 0.0
C690 C 0.10973 0.35187 0.01103 0.0
C691 C 0.11977 0.37261 0.998 0.0
C692 C 0.11449 0.37501 0.96935 0.0
C693 C 0.09932 0.3567 0.95348 0.0
C694 C 0.08984 0.33568 0.96607 0.0
C695 C 0.09509 0.33317 0.99473 0.0
H696 H 0.09495 0.35883 0.93141 0.0
H697 H 0.13908 0.34287 0.21165 0.0
H698 H 0.68727 0.32526 0.88344 0.0
H699 H 0.65911 0.29054 0.89535 0.0
H700 H 0.68878 0.29919 0.98139 0.0
H701 H 0.71689 0.3341 0.96977 0.0
H702 H 0.68384 0.2501 0.95842 0.0
H703 H 0.63592 0.31917 0.96782 0.0
H704 H 0.61697 0.35612 0.95312 0.0
H705 H 0.57647 0.31302 0.88466 0.0
H706 H 0.59552 0.27588 0.89866 0.0
H707 H 0.59289 0.16825 0.01237 0.0
H708 H 0.61997 0.20505 1.00493 0.0
H709 H 0.58619 0.20733 0.9213 0.0
H710 H 0.55812 0.17141 0.92915 0.0
H711 H 0.59336 0.2521 0.94547 0.0
H712 H 0.64257 0.1837 0.93388 0.0
H713 H 0.66154 0.14648 0.94776 0.0
H714 H 0.69973 0.18793 0.01893 0.0
H715 H 0.68068 0.22531 0.0057 0.0
C716 C 0.68794 0.31968 0.90486 0.0
C717 C 0.70431 0.33241 0.92569 0.0
C718 C 0.67174 0.29996 0.91164 0.0
C719 C 0.67175 0.29254 0.93929 0.0
C720 C 0.68848 0.30476 0.95996 0.0
C721 C 0.70449 0.32467 0.95328 0.0
C722 C 0.65442 0.27184 0.94653 0.0
C723 C 0.66404 0.25062 0.956 0.0
C724 C 0.62864 0.27245 0.94275 0.0
C725 C 0.61738 0.29481 0.93409 0.0
C726 C 0.6232 0.31763 0.94943 0.0
C727 C 0.61239 0.3386 0.94127 0.0
C728 C 0.59559 0.33694 0.91792 0.0
C729 C 0.58953 0.3143 0.9027 0.0
C730 C 0.60033 0.29328 0.91074 0.0
C731 C 0.59095 0.17678 0.99254 0.0
C732 C 0.57341 0.16676 0.97128 0.0
C733 C 0.60665 0.19766 0.9882 0.0
C734 C 0.6054 0.20868 0.96237 0.0
C735 C 0.58759 0.19904 0.94135 0.0
C736 C 0.57173 0.17833 0.94576 0.0
C737 C 0.62275 0.23013 0.95706 0.0
C738 C 0.61315 0.25154 0.94798 0.0
C739 C 0.64857 0.22964 0.96099 0.0
C740 C 0.66 0.2072 0.96898 0.0
C741 C 0.65485 0.18481 0.95262 0.0
C742 C 0.66564 0.1637 0.96035 0.0
C743 C 0.68178 0.16482 0.98426 0.0
C744 C 0.6872 0.18707 1.00046 0.0
C745 C 0.67641 0.20822 0.99285 0.0
H746 H 0.69013 0.14846 0.9902 0.0
H747 H 0.5872 0.35319 0.91166 0.0
H748 H 0.92463 0.79354 0.3592 0.0
H749 H 0.94964 0.81752 0.39719 0.0
H750 H 0.88376 0.84126 0.43198 0.0
H751 H 0.85866 0.81698 0.39426 0.0
H752 H 0.95028 0.86747 0.40442 0.0
H753 H 0.89409 0.85191 0.50347 0.0
H754 H 0.86971 0.81771 0.52347 0.0
H755 H 0.90981 0.76511 0.47888 0.0
H756 H 0.93485 0.79896 0.45914 0.0
H757 H 0.94002 0.95747 0.52831 0.0
H758 H 0.92742 0.91709 0.50423 0.0
H759 H 1.00241 0.90989 0.48346 0.0
H760 H 0.01502 0.95061 0.50702 0.0
H761 H 0.93921 0.86915 0.50706 0.0
H762 H 1.00177 0.88803 0.41791 0.0
H763 H 0.02379 0.92359 0.39743 0.0
H764 H 0.96704 0.96926 0.42058 0.0
H765 H 0.94467 0.93395 0.441 0.0
C766 C 0.91547 0.80327 0.37544 0.0
C767 C 0.88973 0.80329 0.37403 0.0
C768 C 0.92977 0.81706 0.39699 0.0
C769 C 0.91853 0.83092 0.41751 0.0
C770 C 0.89277 0.83034 0.41659 0.0
C771 C 0.87847 0.8167 0.39493 0.0
C772 C 0.93357 0.84839 0.4378 0.0
C773 C 0.94842 0.86739 0.42695 0.0
C774 C 0.93072 0.84853 0.4671 0.0
C775 C 0.91625 0.82804 0.47964 0.0
C776 C 0.89788 0.83307 0.49811 0.0
C777 C 0.88392 0.81372 0.50939 0.0
C778 C 0.88817 0.78925 0.5024 0.0
C779 C 0.9065 0.78407 0.48424 0.0
C780 C 0.92058 0.80334 0.473 0.0
C781 C 0.95383 0.94717 0.51878 0.0
C782 C 0.97837 0.95726 0.51899 0.0
C783 C 0.94667 0.92401 0.50532 0.0
C784 C 0.96394 0.9106 0.49192 0.0
C785 C 0.98876 0.92007 0.49348 0.0
C786 C 0.99591 0.94334 0.50679 0.0
C787 C 0.95531 0.88837 0.47347 0.0
C788 C 0.94163 0.86864 0.48463 0.0
C789 C 0.95896 0.88754 0.44434 0.0
C790 C 0.97175 0.90849 0.43113 0.0
C791 C 0.99398 0.90564 0.41844 0.0
C792 C 1.00651 0.92574 0.40692 0.0
C793 C 0.99684 0.94865 0.40783 0.0
C794 C 0.97452 0.95151 0.42 0.0
C795 C 0.96193 0.93149 0.43155 0.0
H796 H 1.00661 0.96421 0.39916 0.0
H797 H 0.87728 0.77431 0.51107 0.0
H798 H 0.36815 0.65918 0.74724 0.0
H799 H 0.3892 0.63178 0.71611 0.0
H800 H 0.44591 0.6908 0.70762 0.0
H801 H 0.42396 0.71858 0.73711 0.0
H802 H 0.43452 0.67068 0.65957 0.0
H803 H 0.45178 0.63643 0.74936 0.0
H804 H 0.44116 0.61769 0.79341 0.0
H805 H 0.39942 0.55699 0.74607 0.0
H806 H 0.40955 0.57553 0.70176 0.0
H807 H 0.52989 0.60541 0.60817 0.0
H808 H 0.50429 0.62758 0.63948 0.0
H809 H 0.44504 0.56999 0.62257 0.0
H810 H 0.47053 0.54764 0.59095 0.0
H811 H 0.45417 0.58634 0.68078 0.0
H812 H 0.43954 0.61936 0.59139 0.0
H813 H 0.45111 0.63755 0.54738 0.0
H814 H 0.48897 0.70048 0.59473 0.0
H815 H 0.47798 0.68246 0.63906 0.0
C816 C 0.38523 0.66617 0.73889 0.0
C817 C 0.39446 0.69098 0.74456 0.0
C818 C 0.39736 0.65046 0.72122 0.0
C819 C 0.41941 0.65903 0.70971 0.0
C820 C 0.4289 0.68369 0.71606 0.0
C821 C 0.41642 0.69956 0.73302 0.0
C822 C 0.43211 0.64293 0.68998 0.0
C823 C 0.43908 0.65239 0.66455 0.0
C824 C 0.43727 0.61859 0.69568 0.0
C825 C 0.4312 0.6075 0.7223 0.0
C826 C 0.44019 0.61918 0.74838 0.0
C827 C 0.43428 0.60857 0.77338 0.0
C828 C 0.41956 0.5862 0.77254 0.0
C829 C 0.41078 0.57434 0.7467 0.0
C830 C 0.41661 0.58488 0.72164 0.0
C831 C 0.51146 0.59737 0.61116 0.0
C832 C 0.50218 0.57482 0.597 0.0
C833 C 0.49685 0.6101 0.62899 0.0
C834 C 0.47277 0.60047 0.63312 0.0
C835 C 0.46359 0.5777 0.61957 0.0
C836 C 0.47813 0.56504 0.60144 0.0
C837 C 0.45718 0.61459 0.65126 0.0
C838 C 0.44953 0.60467 0.67607 0.0
C839 C 0.4515 0.63856 0.64515 0.0
C840 C 0.4581 0.64946 0.61854 0.0
C841 C 0.45051 0.63698 0.59242 0.0
C842 C 0.45694 0.64727 0.56742 0.0
C843 C 0.47081 0.67013 0.56826 0.0
C844 C 0.47825 0.68276 0.59411 0.0
C845 C 0.47191 0.67253 0.61918 0.0
H846 H 0.47575 0.67808 0.54887 0.0
H847 H 0.41501 0.57802 0.79193 0.0
H848 H 0.92174 0.87113 0.82663 0.0
H849 H 0.94083 0.89115 0.78787 0.0
H850 H 0.87925 0.93464 0.77796 0.0
H851 H 0.85987 0.91449 0.81707 0.0
H852 H 0.89236 0.9204 0.7267 0.0
H853 H 0.93795 0.95943 0.80782 0.0
H854 H 0.96287 0.96266 0.85279 0.0
H855 H 0.01901 0.92497 0.81348 0.0
H856 H 0.99426 0.92123 0.76832 0.0
H857 H 0.95347 1.00429 0.63535 0.0
H858 H 0.93333 0.98633 0.67515 0.0
H859 H 0.99066 0.93752 0.68422 0.0
H860 H 1.01061 0.95511 0.64418 0.0
H861 H 0.97934 0.95584 0.73622 0.0
H862 H 0.93334 0.91628 0.65539 0.0
H863 H 0.9088 0.91393 0.6102 0.0
H864 H 0.85371 0.95347 0.6491 0.0
H865 H 0.87812 0.95638 0.69448 0.0
C866 C 0.91205 0.88496 0.81639 0.0
C867 C 0.88898 0.89094 0.82558 0.0
C868 C 0.92324 0.89666 0.79403 0.0
C869 C 0.91197 0.91496 0.77958 0.0
C870 C 0.88873 0.92077 0.78839 0.0
C871 C 0.87756 0.90918 0.81104 0.0
C872 C 0.92432 0.9276 0.75541 0.0
C873 C 0.91127 0.92847 0.72914 0.0
C874 C 0.94931 0.93791 0.75757 0.0
C875 C 0.96411 0.93979 0.78476 0.0
C876 C 0.95549 0.95161 0.80882 0.0
C877 C 0.96962 0.95358 0.83434 0.0
C878 C 0.99247 0.94395 0.83602 0.0
C879 C 1.00128 0.93237 0.81216 0.0
C880 C 0.98722 0.93033 0.7866 0.0
C881 C 0.96192 0.98977 0.64577 0.0
C882 C 0.98387 0.98133 0.63608 0.0
C883 C 0.95021 0.97932 0.66867 0.0
C884 C 0.96011 0.96019 0.68313 0.0
C885 C 0.98232 0.95213 0.67384 0.0
C886 C 0.9938 0.96226 0.65065 0.0
C887 C 0.94738 0.94855 0.70761 0.0
C888 C 0.9604 0.94784 0.73388 0.0
C889 C 0.92238 0.93844 0.70547 0.0
C890 C 0.90769 0.9368 0.67825 0.0
C891 C 0.9161 0.92468 0.65425 0.0
C892 C 0.9022 0.9232 0.62862 0.0
C893 C 0.87975 0.93361 0.62676 0.0
C894 C 0.87113 0.94546 0.65056 0.0
C895 C 0.88498 0.94702 0.67625 0.0
H896 H 0.869 0.93243 0.6069 0.0
H897 H 1.00339 0.94553 0.85578 0.0
H898 H 0.70014 0.19781 0.25143 0.0
H899 H 0.67524 0.16737 0.2198 0.0
H900 H 0.64409 0.22602 0.17706 0.0
H901 H 0.66825 0.25656 0.20945 0.0
H902 H 0.60905 0.19378 0.18611 0.0
H903 H 0.68695 0.18783 0.147 0.0
H904 H 0.73135 0.18282 0.14709 0.0
H905 H 0.71873 0.11066 0.17799 0.0
H906 H 0.67428 0.11538 0.17846 0.0
H907 H 0.55188 0.11405 0.07159 0.0
H908 H 0.57968 0.14541 0.09905 0.0
H909 H 0.60032 0.09076 0.1554 0.0
H910 H 0.57239 0.05932 0.12828 0.0
H911 H 0.64096 0.12129 0.13738 0.0
H912 H 0.5626 0.12905 0.17725 0.0
H913 H 0.51828 0.13462 0.17527 0.0
H914 H 0.53255 0.20476 0.14001 0.0
H915 H 0.57695 0.19942 0.14139 0.0
C916 C 0.68824 0.20426 0.23506 0.0
C917 C 0.68618 0.22964 0.233 0.0
C918 C 0.67404 0.18678 0.21685 0.0
C919 C 0.65786 0.19428 0.19573 0.0
C920 C 0.65632 0.21968 0.19318 0.0
C921 C 0.67024 0.23715 0.21166 0.0
C922 C 0.64159 0.1757 0.17736 0.0
C923 C 0.6162 0.17821 0.17509 0.0
C924 C 0.65062 0.15498 0.16331 0.0
C925 C 0.67732 0.15205 0.16298 0.0
C926 C 0.69367 0.17097 0.154 0.0
C927 C 0.71884 0.16817 0.15392 0.0
C928 C 0.72786 0.14646 0.1626 0.0
C929 C 0.71172 0.12748 0.1713 0.0
C930 C 0.68653 0.13019 0.17145 0.0
C931 C 0.56229 0.10867 0.08984 0.0
C932 C 0.55981 0.08415 0.09775 0.0
C933 C 0.57817 0.12664 0.10553 0.0
C934 C 0.59205 0.12043 0.1293 0.0
C935 C 0.58983 0.09594 0.13709 0.0
C936 C 0.57373 0.07803 0.12163 0.0
C937 C 0.60866 0.13953 0.14627 0.0
C938 C 0.63401 0.13703 0.1483 0.0
C939 C 0.59967 0.16041 0.15982 0.0
C940 C 0.57304 0.16372 0.15915 0.0
C941 C 0.55626 0.14556 0.16885 0.0
C942 C 0.53113 0.14869 0.16788 0.0
C943 C 0.52259 0.17 0.15745 0.0
C944 C 0.53918 0.18825 0.14804 0.0
C945 C 0.56433 0.18519 0.14893 0.0
H946 H 0.50313 0.1724 0.15672 0.0
H947 H 0.74735 0.14432 0.16252 0.0
H948 H 0.39383 0.56805 0.26855 0.0
H949 H 0.40682 0.5609 0.31726 0.0
H950 H 0.46828 0.61606 0.3143 0.0
H951 H 0.45626 0.62192 0.26541 0.0
H952 H 0.48456 0.57821 0.33229 0.0
H953 H 0.41493 0.62268 0.3547 0.0
H954 H 0.37139 0.63141 0.35351 0.0
H955 H 0.35154 0.56102 0.38589 0.0
H956 H 0.39493 0.55173 0.38691 0.0
H957 H 0.51466 0.60491 0.48087 0.0
H958 H 0.48869 0.6087 0.43807 0.0
H959 H 0.47962 0.52945 0.42388 0.0
H960 H 0.50626 0.52549 0.46613 0.0
H961 H 0.43479 0.57551 0.4161 0.0
H962 H 0.50726 0.53086 0.38268 0.0
H963 H 0.55197 0.52722 0.38762 0.0
H964 H 0.56627 0.60498 0.37843 0.0
H965 H 0.52159 0.60914 0.37421 0.0
C966 C 0.40995 0.57875 0.27855 0.0
C967 C 0.4243 0.59525 0.26329 0.0
C968 C 0.41727 0.5748 0.3064 0.0
C969 C 0.43859 0.58791 0.31951 0.0
C970 C 0.45197 0.60546 0.30459 0.0
C971 C 0.4451 0.60884 0.27667 0.0
C972 C 0.44854 0.58207 0.34768 0.0
C973 C 0.47348 0.57771 0.35047 0.0
C974 C 0.43423 0.58097 0.37156 0.0
C975 C 0.40812 0.58639 0.37054 0.0
C976 C 0.40124 0.60896 0.36128 0.0
C977 C 0.3766 0.61403 0.36071 0.0
C978 C 0.3587 0.59675 0.36953 0.0
C979 C 0.36541 0.57437 0.379 0.0
C980 C 0.39002 0.5692 0.37959 0.0
C981 C 0.50687 0.5883 0.46881 0.0
C982 C 0.51262 0.56494 0.47653 0.0
C983 C 0.49194 0.59049 0.44457 0.0
C984 C 0.48231 0.56934 0.42806 0.0
C985 C 0.4869 0.54593 0.43654 0.0
C986 C 0.50216 0.54373 0.46052 0.0
C987 C 0.47041 0.572 0.40012 0.0
C988 C 0.44539 0.57575 0.39754 0.0
C989 C 0.48453 0.57292 0.37637 0.0
C990 C 0.51124 0.57032 0.37842 0.0
C991 C 0.51998 0.54717 0.38193 0.0
C992 C 0.54528 0.54501 0.38456 0.0
C993 C 0.56195 0.56583 0.38331 0.0
C994 C 0.55334 0.58887 0.37944 0.0
C995 C 0.52805 0.59115 0.37699 0.0
H996 H 0.58153 0.5641 0.38531 0.0
H997 H 0.33963 0.60072 0.36911 0.0
H998 H 0.16934 0.26887 0.7116 0.0
H999 H 0.14794 0.29939 0.73829 0.0
H1000 H 0.21168 0.31466 0.79622 0.0
H1001 H 0.23342 0.28489 0.769 0.0
H1002 H 0.16875 0.30626 0.82296 0.0
H1003 H 0.19919 0.35748 0.75005 0.0
H1004 H 0.2047 0.36834 0.70118 0.0
H1005 H 0.12631 0.36294 0.68463 0.0
H1006 H 0.12037 0.35234 0.73354 0.0
H1007 H 0.1501 0.4184 0.89601 0.0
H1008 H 0.1644 0.38447 0.8674 0.0
H1009 H 0.09768 0.3801 0.81385 0.0
H1010 H 0.08351 0.41456 0.84207 0.0
H1011 H 0.13758 0.3806 0.78351 0.0
H1012 H 0.10609 0.33089 0.85507 0.0
H1013 H 0.09892 0.31855 0.90301 0.0
H1014 H 0.17684 0.32012 0.9216 0.0
H1015 H 0.18442 0.33184 0.87341 0.0
C1016 C 0.17902 0.27932 0.7295 0.0
C1017 C 0.20316 0.27485 0.73802 0.0
C1018 C 0.1667 0.29652 0.74489 0.0
C1019 C 0.17834 0.30937 0.76908 0.0
C1020 C 0.20241 0.30488 0.77762 0.0
C1021 C 0.21475 0.28785 0.76214 0.0
C1022 C 0.16527 0.327 0.78611 0.0
C1023 C 0.16214 0.32265 0.81441 0.0
C1024 C 0.15584 0.34783 0.77469 0.0
C1025 C 0.15935 0.35387 0.74527 0.0
C1026 C 0.18315 0.35846 0.73591 0.0
C1027 C 0.18634 0.36466 0.70826 0.0
C1028 C 0.16587 0.36614 0.68975 0.0
C1029 C 0.14215 0.36169 0.69895 0.0
C1030 C 0.13886 0.3557 0.72666 0.0
C1031 C 0.13851 0.41024 0.8781 0.0
C1032 C 0.1158 0.41922 0.87111 0.0
C1033 C 0.14654 0.39065 0.862 0.0
C1034 C 0.13196 0.37961 0.83869 0.0
C1035 C 0.10913 0.38832 0.83184 0.0
C1036 C 0.10104 0.4079 0.84801 0.0
C1037 C 0.14146 0.36011 0.82052 0.0
C1038 C 0.14393 0.36408 0.79201 0.0
C1039 C 0.1501 0.33881 0.83166 0.0
C1040 C 0.1458 0.33241 0.8608 0.0
C1041 C 0.12168 0.32874 0.86946 0.0
C1042 C 0.11755 0.32173 0.89661 0.0
C1043 C 0.13742 0.31875 0.91544 0.0
C1044 C 0.16147 0.3225 0.90702 0.0
C1045 C 0.16569 0.32913 0.87973 0.0
H1046 H 0.13417 0.31344 0.93652 0.0
H1047 H 0.1684 0.37084 0.66832 0.0
H1048 H 0.77421 0.9632 0.96191 0.0
H1049 H 0.73567 0.97511 0.97917 0.0
H1050 H 0.69549 0.91993 0.92174 0.0
H1051 H 0.73455 0.90823 0.90364 0.0
H1052 H 0.6704 0.95791 0.92266 0.0
H1053 H 0.70427 0.91649 0.99925 0.0
H1054 H 0.73536 0.90739 0.0357 0.0
H1055 H 0.7363 0.98117 0.07311 0.0
H1056 H 0.70544 0.99082 0.03665 0.0
H1057 H 0.55551 0.97293 0.98113 0.0
H1058 H 0.59347 0.95695 0.96667 0.0
H1059 H 0.63535 0.00854 0.02699 0.0
H1060 H 0.59677 0.02344 0.04286 0.0
H1061 H 0.65946 0.97133 0.02472 0.0
H1062 H 0.62692 0.01327 0.9469 0.0
H1063 H 0.59539 0.02214 0.91079 0.0
H1064 H 0.59205 0.94732 0.87587 0.0
H1065 H 0.62336 0.93795 0.91198 0.0
C1066 C 0.7573 0.95334 0.95278 0.0
C1067 C 0.75809 0.93448 0.93116 0.0
C1068 C 0.73492 0.96016 0.96306 0.0
C1069 C 0.71196 0.94829 0.95258 0.0
C1070 C 0.71257 0.92957 0.93069 0.0
C1071 C 0.73513 0.92274 0.92025 0.0
C1072 C 0.68771 0.95595 0.96393 0.0
C1073 C 0.66806 0.9604 0.94504 0.0
C1074 C 0.68408 0.96012 0.99319 0.0
C1075 C 0.70273 0.95444 0.01504 0.0
C1076 C 0.71126 0.93083 0.01511 0.0
C1077 C 0.72881 0.92557 0.0358 0.0
C1078 C 0.73785 0.94371 0.05666 0.0
C1079 C 0.72931 0.96715 0.05691 0.0
C1080 C 0.71178 0.97252 0.03625 0.0
C1081 C 0.57276 0.98079 0.99163 0.0
C1082 C 0.5727 0.99963 0.01327 0.0
C1083 C 0.59481 0.97181 0.98293 0.0
C1084 C 0.61813 0.98191 0.9946 0.0
C1085 C 0.61806 1.00026 0.01702 0.0
C1086 C 0.5958 0.00886 0.02627 0.0
C1087 C 0.64217 0.97343 0.98342 0.0
C1088 C 0.6618 0.96884 1.00234 0.0
C1089 C 0.64585 0.9692 0.95417 0.0
C1090 C 0.62731 0.97488 0.93225 0.0
C1091 C 0.61938 0.99871 0.93157 0.0
C1092 C 0.60155 1.00381 0.91112 0.0
C1093 C 0.59169 0.98529 0.89109 0.0
C1094 C 0.59969 0.96164 0.89141 0.0
C1095 C 0.61749 0.95643 0.91184 0.0
H1096 H 0.57787 0.98927 0.87529 0.0
H1097 H 0.75143 0.93959 0.07267 0.0
H1098 H 0.8258 0.26063 0.34478 0.0
H1099 H 0.85759 0.23928 0.36902 0.0
H1100 H 0.80625 0.17442 0.37015 0.0
H1101 H 0.77418 0.19631 0.34781 0.0
H1102 H 0.82685 0.18198 0.41803 0.0
H1103 H 0.859 0.18151 0.3257 0.0
H1104 H 0.87447 0.19979 0.28329 0.0
H1105 H 0.93247 0.24248 0.33378 0.0
H1106 H 0.91713 0.22469 0.37653 0.0
H1107 H 0.90559 0.09374 0.45664 0.0
H1108 H 0.88053 0.11746 0.42627 0.0
H1109 H 0.9294 0.183 0.44896 0.0
H1110 H 0.95494 0.15922 0.47912 0.0
H1111 H 0.91262 0.17747 0.39061 0.0
H1112 H 0.88019 0.17644 0.48239 0.0
H1113 H 0.86513 0.15659 0.52404 0.0
H1114 H 0.80725 0.11484 0.47241 0.0
H1115 H 0.82223 0.13416 0.43037 0.0
C1116 C 0.82145 0.24176 0.3501 0.0
C1117 C 0.79753 0.23014 0.34466 0.0
C1118 C 0.83968 0.22947 0.36374 0.0
C1119 C 0.83449 0.20507 0.37126 0.0
C1120 C 0.81075 0.19327 0.36482 0.0
C1121 C 0.79241 0.20576 0.35201 0.0
C1122 C 0.85297 0.19218 0.38751 0.0
C1123 C 0.84545 0.18073 0.4116 0.0
C1124 C 0.87763 0.19121 0.37998 0.0
C1125 C 0.88675 0.20198 0.35432 0.0
C1126 C 0.87492 0.19495 0.32777 0.0
C1127 C 0.88369 0.20519 0.30367 0.0
C1128 C 0.90439 0.22234 0.30585 0.0
C1129 C 0.9164 0.22923 0.33213 0.0
C1130 C 0.90769 0.21907 0.35629 0.0
C1131 C 0.91135 0.11306 0.45471 0.0
C1132 C 0.93219 0.12464 0.47035 0.0
C1133 C 0.89693 0.12661 0.43748 0.0
C1134 C 0.90303 0.15199 0.43563 0.0
C1135 C 0.92442 0.16342 0.45018 0.0
C1136 C 0.93883 0.14988 0.46754 0.0
C1137 C 0.88601 0.16678 0.42017 0.0
C1138 C 0.89391 0.17874 0.39664 0.0
C1139 C 0.86158 0.16807 0.42795 0.0
C1140 C 0.85246 0.15659 0.45323 0.0
C1141 C 0.86437 0.16289 0.4799 0.0
C1142 C 0.85583 0.15175 0.50357 0.0
C1143 C 0.83527 0.13443 0.50086 0.0
C1144 C 0.82319 0.12824 0.47447 0.0
C1145 C 0.83168 0.13929 0.45072 0.0
H1146 H 0.82868 0.12584 0.51922 0.0
H1147 H 0.91116 0.23023 0.28717 0.0
H1148 H 0.26042 0.62824 0.17196 0.0
H1149 H 0.22156 0.60718 0.15131 0.0
H1150 H 0.25608 0.59097 0.07404 0.0
H1151 H 0.29501 0.61169 0.09457 0.0
H1152 H 0.21262 0.61292 0.06612 0.0
H1153 H 0.24186 0.54526 0.11094 0.0
H1154 H 0.25889 0.52166 0.14871 0.0
H1155 H 0.19578 0.53204 0.1963 0.0
H1156 H 0.17853 0.5561 0.159 0.0
H1157 H 0.1088 0.52861 0.00827 0.0
H1158 H 0.15073 0.54437 0.02572 0.0
H1159 H 0.12199 0.57786 0.09967 0.0
H1160 H 0.08012 0.56291 0.08201 0.0
H1161 H 0.16396 0.5439 0.10658 0.0
H1162 H 0.13791 0.61585 0.06171 0.0
H1163 H 0.12109 0.63704 0.0217 0.0
H1164 H 0.17965 0.61533 0.97196 0.0
H1165 H 0.19658 0.59366 0.01162 0.0
C1166 C 0.25974 0.62011 0.15062 0.0
C1167 C 0.28069 0.62177 0.1348 0.0
C1168 C 0.23761 0.60794 0.13894 0.0
C1169 C 0.23605 0.59748 0.11122 0.0
C1170 C 0.25698 0.59892 0.09549 0.0
C1171 C 0.27917 0.61077 0.10726 0.0
C1172 C 0.21215 0.58654 0.09805 0.0
C1173 C 0.20217 0.59757 0.07473 0.0
C1174 C 0.19849 0.56666 0.10943 0.0
C1175 C 0.20906 0.55279 0.13232 0.0
C1176 C 0.23176 0.54283 0.12963 0.0
C1177 C 0.24142 0.52929 0.15092 0.0
C1178 C 0.22847 0.52543 0.17494 0.0
C1179 C 0.20582 0.5351 0.17771 0.0
C1180 C 0.19609 0.54869 0.1565 0.0
C1181 C 0.11147 0.53961 0.02803 0.0
C1182 C 0.09132 0.54461 0.04374 0.0
C1183 C 0.13533 0.54848 0.03799 0.0
C1184 C 0.13928 0.56203 0.06403 0.0
C1185 C 0.11918 0.5673 0.07959 0.0
C1186 C 0.09533 0.55893 0.06935 0.0
C1187 C 0.16443 0.57067 0.07521 0.0
C1188 C 0.17459 0.55916 0.09803 0.0
C1189 C 0.17841 0.58991 0.06324 0.0
C1190 C 0.16829 0.60288 0.03945 0.0
C1191 C 0.14702 0.61536 0.04213 0.0
C1192 C 0.13752 0.62751 0.01955 0.0
C1193 C 0.14925 0.62746 0.99426 0.0
C1194 C 0.17055 0.6153 0.99154 0.0
C1195 C 0.18011 0.6031 0.01405 0.0
H1196 H 0.14187 0.63689 0.97681 0.0
H1197 H 0.23595 0.51489 0.19137 0.0
H1198 H 0.26179 0.33699 0.69752 0.0
H1199 H 0.29697 0.36566 0.68854 0.0
H1200 H 0.26135 0.38 0.60878 0.0
H1201 H 0.2272 0.3496 0.61679 0.0
H1202 H 0.30508 0.37384 0.60078 0.0
H1203 H 0.26843 0.42207 0.67359 0.0
H1204 H 0.25262 0.42905 0.72058 0.0
H1205 H 0.32346 0.41874 0.75936 0.0
H1206 H 0.33957 0.41134 0.71262 0.0
H1207 H 0.3793 0.47587 0.5673 0.0
H1208 H 0.34374 0.45655 0.58927 0.0
H1209 H 0.3922 0.42394 0.64792 0.0
H1210 H 0.42793 0.44314 0.62586 0.0
H1211 H 0.34397 0.44024 0.66897 0.0
H1212 H 0.37952 0.38974 0.59774 0.0
H1213 H 0.39661 0.38322 0.55141 0.0
H1214 H 0.32794 0.39791 0.51048 0.0
H1215 H 0.31064 0.40507 0.55667 0.0
C1216 C 0.26145 0.34655 0.67825 0.0
C1217 C 0.24191 0.34133 0.65785 0.0
C1218 C 0.28146 0.36306 0.6732 0.0
C1219 C 0.28166 0.37546 0.64822 0.0
C1220 C 0.26166 0.37069 0.62821 0.0
C1221 C 0.24212 0.35347 0.6328 0.0
C1222 C 0.30329 0.39218 0.64194 0.0
C1223 C 0.31317 0.38859 0.61562 0.0
C1224 C 0.31466 0.4109 0.66161 0.0
C1225 C 0.30512 0.41596 0.68964 0.0
C1226 C 0.28059 0.4212 0.69216 0.0
C1227 C 0.27158 0.42522 0.71874 0.0
C1228 C 0.28701 0.42428 0.74294 0.0
C1229 C 0.31152 0.41944 0.74061 0.0
C1230 C 0.3206 0.41535 0.71408 0.0
C1231 C 0.38234 0.4653 0.58549 0.0
C1232 C 0.40618 0.46065 0.59477 0.0
C1233 C 0.36209 0.45433 0.59799 0.0
C1234 C 0.36554 0.43879 0.61997 0.0
C1235 C 0.38933 0.43599 0.63101 0.0
C1236 C 0.40962 0.44673 0.61829 0.0
C1237 C 0.34473 0.42219 0.62776 0.0
C1238 C 0.33541 0.4256 0.65427 0.0
C1239 C 0.33381 0.40324 0.60839 0.0
C1240 C 0.3439 0.39821 0.58062 0.0
C1241 C 0.36814 0.39178 0.57886 0.0
C1242 C 0.37786 0.38795 0.55264 0.0
C1243 C 0.36339 0.39021 0.52801 0.0
C1244 C 0.33914 0.39621 0.52957 0.0
C1245 C 0.32937 0.40016 0.55577 0.0
H1246 H 0.37095 0.38726 0.50772 0.0
H1247 H 0.27998 0.42735 0.7635 0.0
H1248 H 0.96354 0.76141 0.89649 0.0
H1249 H 0.98093 0.72364 0.91089 0.0
H1250 H 0.91342 0.70095 0.9483 0.0
H1251 H 0.89577 0.73834 0.93339 0.0
H1252 H 0.95484 0.69303 0.98351 0.0
H1253 H 0.9265 0.67293 0.88704 0.0
H1254 H 0.92352 0.67936 0.83629 0.0
H1255 H 1.00159 0.67659 0.833 0.0
H1256 H 1.00506 0.67047 0.88386 0.0
H1257 H 0.97733 0.56815 0.00675 0.0
H1258 H 0.96105 0.60635 0.99317 0.0
H1259 H 0.02147 0.61975 0.94013 0.0
H1260 H 0.03743 0.581 0.95308 0.0
H1261 H 0.98432 0.63342 0.91331 0.0
H1262 H 0.01385 0.6531 0.00855 0.0
H1263 H 0.01859 0.64882 0.05969 0.0
H1264 H 0.94129 0.65457 0.0665 0.0
H1265 H 0.93601 0.65855 0.01531 0.0
C1266 C 0.95226 0.74838 0.90764 0.0
C1267 C 0.92799 0.75321 0.91339 0.0
C1268 C 0.9623 0.72659 0.91594 0.0
C1269 C 0.94867 0.70892 0.9308 0.0
C1270 C 0.92459 0.71395 0.93697 0.0
C1271 C 0.91438 0.73546 0.92819 0.0
C1272 C 0.95926 0.68523 0.93948 0.0
C1273 C 0.96098 0.67989 0.96805 0.0
C1274 C 0.96812 0.66801 0.91981 0.0
C1275 C 0.96607 0.6715 0.88927 0.0
C1276 C 0.94306 0.67388 0.87553 0.0
C1277 C 0.94127 0.67743 0.84674 0.0
C1278 C 0.96236 0.67845 0.83144 0.0
C1279 C 0.98527 0.67583 0.84489 0.0
C1280 C 0.98716 0.6723 0.87368 0.0
C1281 C 0.98731 0.57915 0.99221 0.0
C1282 C 1.00893 0.57106 0.98122 0.0
C1283 C 0.97798 0.60139 0.98453 0.0
C1284 C 0.99001 0.61685 0.9658 0.0
C1285 C 1.01153 0.60866 0.95462 0.0
C1286 C 0.0208 0.58629 0.96217 0.0
C1287 C 0.97999 0.64102 0.95751 0.0
C1288 C 0.9783 0.64649 0.92894 0.0
C1289 C 0.97146 0.65852 0.9773 0.0
C1290 C 0.9745 0.65586 0.00803 0.0
C1291 C 0.99782 0.65323 0.02091 0.0
C1292 C 1.00061 0.6509 0.04991 0.0
C1293 C 0.98024 0.65136 0.06631 0.0
C1294 C 0.95704 0.65417 0.05375 0.0
C1295 C 0.95414 0.65648 0.02474 0.0
H1296 H 0.98245 0.64965 0.08877 0.0
H1297 H 0.96094 0.6812 0.80916 0.0
H1298 H 0.36338 0.69077 0.15266 0.0
H1299 H 0.37041 0.7349 0.14498 0.0
H1300 H 0.44709 0.73369 0.17122 0.0
H1301 H 0.44009 0.69005 0.17957 0.0
H1302 H 0.42766 0.77365 0.19476 0.0
H1303 H 0.42745 0.73036 0.10215 0.0
H1304 H 0.4082 0.70289 0.06251 0.0
H1305 H 0.35015 0.75049 0.05277 0.0
H1306 H 0.36891 0.77807 0.09264 0.0
H1307 H 0.49985 0.86839 0.14188 0.0
H1308 H 0.47911 0.82866 0.15102 0.0
H1309 H 0.41056 0.85075 0.11609 0.0
H1310 H 0.43159 0.89049 0.10554 0.0
H1311 H 0.41665 0.80343 0.09899 0.0
H1312 H 0.42034 0.85017 0.18674 0.0
H1313 H 0.43964 0.87785 0.22614 0.0
H1314 H 0.48996 0.82421 0.24567 0.0
H1315 H 0.4712 0.79634 0.20612 0.0
C1316 C 0.38157 0.70006 0.1574 0.0
C1317 C 0.40111 0.68703 0.16712 0.0
C1318 C 0.38563 0.72519 0.15267 0.0
C1319 C 0.40929 0.73754 0.15752 0.0
C1320 C 0.42867 0.72456 0.16748 0.0
C1321 C 0.42466 0.69958 0.17209 0.0
C1322 C 0.41447 0.76386 0.15183 0.0
C1323 C 0.42526 0.78019 0.17383 0.0
C1324 C 0.41051 0.77255 0.12472 0.0
C1325 C 0.39943 0.75611 0.10057 0.0
C1326 C 0.41049 0.73487 0.09168 0.0
C1327 C 0.39968 0.7193 0.06916 0.0
C1328 C 0.37792 0.7249 0.05518 0.0
C1329 C 0.36698 0.74614 0.06365 0.0
C1330 C 0.3777 0.76176 0.0862 0.0
C1331 C 0.48043 0.8648 0.13577 0.0
C1332 C 0.46742 0.88268 0.12291 0.0
C1333 C 0.46851 0.84212 0.14133 0.0
C1334 C 0.44319 0.83689 0.13469 0.0
C1335 C 0.43009 0.8545 0.12156 0.0
C1336 C 0.44209 0.87727 0.11581 0.0
C1337 C 0.43075 0.81294 0.14173 0.0
C1338 C 0.41854 0.7971 0.12006 0.0
C1339 C 0.43327 0.80466 0.16922 0.0
C1340 C 0.44438 0.82118 0.19338 0.0
C1341 C 0.43559 0.84431 0.19935 0.0
C1342 C 0.44643 0.86004 0.22172 0.0
C1343 C 0.46602 0.8528 0.23838 0.0
C1344 C 0.47477 0.82978 0.23275 0.0
C1345 C 0.464 0.81399 0.2104 0.0
H1346 H 0.47441 0.86501 0.25567 0.0
H1347 H 0.36958 0.71282 0.03775 0.0
H1348 H 0.18262 0.19151 0.7164 0.0
H1349 H 0.1543 0.17183 0.67904 0.0
H1350 H 0.09506 0.20918 0.71307 0.0
H1351 H 0.12361 0.22929 0.75088 0.0
H1352 H 0.08458 0.15973 0.70639 0.0
H1353 H 0.11228 0.22185 0.64845 0.0
H1354 H 0.14146 0.25083 0.62654 0.0
H1355 H 0.17416 0.19004 0.5868 0.0
H1356 H 0.14558 0.16064 0.60891 0.0
H1357 H 0.0225 0.06884 0.61008 0.0
H1358 H 0.03422 0.11113 0.62953 0.0
H1359 H 0.10992 0.10269 0.61268 0.0
H1360 H 0.09802 0.06109 0.59173 0.0
H1361 H 0.10061 0.14859 0.6053 0.0
H1362 H 0.08518 0.09033 0.67815 0.0
H1363 H 0.05884 0.05981 0.70175 0.0
H1364 H 1.00625 0.11293 0.71441 0.0
H1365 H 0.03224 0.14366 0.69061 0.0
C1366 C 0.1636 0.19568 0.716 0.0
C1367 C 0.15523 0.21155 0.737 0.0
C1368 C 0.1475 0.18472 0.69427 0.0
C1369 C 0.12264 0.18931 0.69302 0.0
C1370 C 0.11425 0.2056 0.71354 0.0
C1371 C 0.1305 0.21685 0.73525 0.0
C1372 C 0.10522 0.17399 0.67283 0.0
C1373 C 0.0875 0.15787 0.68407 0.0
C1374 C 0.1093 0.17136 0.64379 0.0
C1375 C 0.12673 0.18898 0.63046 0.0
C1376 C 0.12581 0.21462 0.63523 0.0
C1377 C 0.14225 0.23114 0.62274 0.0
C1378 C 0.15965 0.22228 0.60528 0.0
C1379 C 0.16065 0.19688 0.6003 0.0
C1380 C 0.14431 0.18027 0.61279 0.0
C1381 C 0.04155 0.07622 0.61014 0.0
C1382 C 0.05942 0.06169 0.59968 0.0
C1383 C 0.04824 0.10035 0.62126 0.0
C1384 C 0.07302 0.10999 0.62296 0.0
C1385 C 0.09068 0.09573 0.61154 0.0
C1386 C 0.08392 0.07184 0.59988 0.0
C1387 C 0.08129 0.13354 0.6394 0.0
C1388 C 0.09711 0.15116 0.62739 0.0
C1389 C 0.0759 0.13742 0.66791 0.0
C1390 C 0.06044 0.11911 0.68239 0.0
C1391 C 0.06794 0.09541 0.68588 0.0
C1392 C 0.05309 0.0781 0.69928 0.0
C1393 C 0.03085 0.0844 0.7095 0.0
C1394 C 0.02345 0.10806 0.70643 0.0
C1395 C 0.03823 0.12543 0.693 0.0
H1396 H 0.01937 0.07097 0.71986 0.0
H1397 H 0.17234 0.23511 0.59561 0.0
H1398 H 0.71864 0.39763 0.3356 0.0
H1399 H 0.69962 0.42791 0.3654 0.0
H1400 H 0.64573 0.37074 0.38732 0.0
H1401 H 0.66449 0.34044 0.35773 0.0
H1402 H 0.62513 0.41163 0.3691 0.0
H1403 H 0.69158 0.39361 0.43403 0.0
H1404 H 0.73507 0.39085 0.44918 0.0
H1405 H 0.75086 0.46843 0.43983 0.0
H1406 H 0.70751 0.47158 0.42423 0.0
H1407 H 0.56433 0.46283 0.47906 0.0
H1408 H 0.58892 0.43836 0.4493 0.0
H1409 H 0.64311 0.50079 0.44756 0.0
H1410 H 0.61894 0.52516 0.47889 0.0
H1411 H 0.6656 0.46159 0.45198 0.0
H1412 H 0.60019 0.48122 0.38925 0.0
H1413 H 0.55739 0.48517 0.37215 0.0
H1414 H 0.54029 0.40699 0.37486 0.0
H1415 H 0.58297 0.40252 0.39201 0.0
C1416 C 0.70289 0.39146 0.34698 0.0
C1417 C 0.69307 0.3666 0.34422 0.0
C1418 C 0.6921 0.40878 0.36406 0.0
C1419 C 0.67132 0.40153 0.3786 0.0
C1420 C 0.66176 0.3767 0.37625 0.0
C1421 C 0.67257 0.35939 0.35936 0.0
C1422 C 0.65859 0.41985 0.39518 0.0
C1423 C 0.6339 0.42241 0.38738 0.0
C1424 C 0.67037 0.43467 0.41825 0.0
C1425 C 0.6964 0.43275 0.4276 0.0
C1426 C 0.70438 0.41003 0.43493 0.0
C1427 C 0.72899 0.4084 0.44366 0.0
C1428 C 0.74574 0.42943 0.44536 0.0
C1429 C 0.73789 0.45215 0.43843 0.0
C1430 C 0.7133 0.45386 0.42966 0.0
C1431 C 0.58142 0.47144 0.47225 0.0
C1432 C 0.5896 0.496 0.48099 0.0
C1433 C 0.59542 0.45745 0.45506 0.0
C1434 C 0.61754 0.46791 0.44542 0.0
C1435 C 0.62599 0.49238 0.4545 0.0
C1436 C 0.61218 0.50629 0.47232 0.0
C1437 C 0.63184 0.45293 0.42635 0.0
C1438 C 0.65685 0.45106 0.43353 0.0
C1439 C 0.62046 0.43896 0.40238 0.0
C1440 C 0.59475 0.44157 0.39209 0.0
C1441 C 0.58727 0.46489 0.38636 0.0
C1442 C 0.56303 0.46723 0.37665 0.0
C1443 C 0.54611 0.44639 0.37258 0.0
C1444 C 0.55341 0.42313 0.37806 0.0
C1445 C 0.57764 0.42067 0.38769 0.0
H1446 H 0.52735 0.44826 0.36509 0.0
H1447 H 0.76478 0.42813 0.45212 0.0
loop_
_geom_bond_atom_site_label_1
_geom_bond_atom_site_label_2
_geom_bond_distance
_geom_bond_site_symmetry_2
_ccdc_geom_bond_type
O0 Cd1 2.300 . S
O0 C7 1.275 . S
Cd1 O0 2.300 . S
Cd1 O9 2.381 . S
Cd1 O10 2.378 . S
O2 Cd3 2.385 . S
O2 C7 1.255 . S
Cd3 O2 2.385 . S
Cd3 O4 2.317 . S
O4 Cd3 2.317 . S
O4 C5 1.232 . S
C5 O4 1.232 . S
C5 O6 1.218 . S
O6 C5 1.218 . S
C7 O0 1.275 . S
C7 O2 1.255 . S
C8 O9 1.258 . S
C8 O10 1.256 . S
O9 Cd1 2.381 . S
O9 C8 1.258 . S
O10 Cd1 2.378 . S
O10 C8 1.256 . S
O11 Cd12 2.300 . S
O11 C18 1.275 . S
Cd12 O11 2.300 . S
Cd12 O20 2.381 . S
Cd12 O21 2.378 . S
O13 Cd14 2.385 . S
O13 C18 1.255 . S
Cd14 O13 2.385 . S
Cd14 O15 2.317 . S
O15 Cd14 2.317 . S
O15 C16 1.232 . S
C16 O15 1.232 . S
C16 O17 1.218 . S
O17 C16 1.218 . S
C18 O11 1.275 . S
C18 O13 1.255 . S
C19 O20 1.258 . S
C19 O21 1.256 . S
O20 Cd12 2.381 . S
O20 C19 1.258 . S
O21 Cd12 2.378 . S
O21 C19 1.256 . S
O22 Cd23 2.300 . S
O22 C29 1.275 . S
Cd23 O22 2.300 . S
Cd23 O31 2.381 . S
Cd23 O32 2.378 . S
O24 Cd25 2.385 . S
O24 C29 1.255 . S
Cd25 O24 2.385 . S
Cd25 O26 2.317 . S
O26 Cd25 2.317 . S
O26 C27 1.232 . S
C27 O26 1.232 . S
C27 O28 1.218 . S
O28 C27 1.218 . S
C29 O22 1.275 . S
C29 O24 1.255 . S
C30 O31 1.258 . S
C30 O32 1.256 . S
O31 Cd23 2.381 . S
O31 C30 1.258 . S
O32 Cd23 2.378 . S
O32 C30 1.256 . S
O33 Cd34 2.300 . S
O33 C40 1.275 . S
Cd34 O33 2.300 . S
Cd34 O42 2.381 . S
Cd34 O43 2.378 . S
O35 Cd36 2.385 . S
O35 C40 1.255 . S
Cd36 O35 2.385 . S
Cd36 O37 2.317 . S
O37 Cd36 2.317 . S
O37 C38 1.232 . S
C38 O37 1.232 . S
C38 O39 1.218 . S
O39 C38 1.218 . S
C40 O33 1.275 . S
C40 O35 1.255 . S
C41 O42 1.258 . S
C41 O43 1.256 . S
O42 Cd34 2.381 . S
O42 C41 1.258 . S
O43 Cd34 2.378 . S
O43 C41 1.256 . S
O44 Cd45 2.300 . S
O44 C51 1.275 . S
Cd45 O44 2.300 . S
Cd45 O53 2.381 . S
Cd45 O54 2.378 . S
O46 Cd47 2.385 . S
O46 C51 1.255 . S
Cd47 O46 2.385 . S
Cd47 O48 2.317 . S
O48 Cd47 2.317 . S
O48 C49 1.232 . S
C49 O48 1.232 . S
C49 O50 1.218 . S
O50 C49 1.218 . S
C51 O44 1.275 . S
C51 O46 1.255 . S
C52 O53 1.258 . S
C52 O54 1.256 . S
O53 Cd45 2.381 . S
O53 C52 1.258 . S
O54 Cd45 2.378 . S
O54 C52 1.256 . S
O55 Cd56 2.300 . S
O55 C62 1.275 . S
Cd56 O55 2.300 . S
Cd56 O64 2.381 . S
Cd56 O65 2.378 . S
O57 Cd58 2.385 . S
O57 C62 1.255 . S
Cd58 O57 2.385 . S
Cd58 O59 2.317 . S
O59 Cd58 2.317 . S
O59 C60 1.232 . S
C60 O59 1.232 . S
C60 O61 1.218 . S
O61 C60 1.218 . S
C62 O55 1.275 . S
C62 O57 1.255 . S
C63 O64 1.258 . S
C63 O65 1.256 . S
O64 Cd56 2.381 . S
O64 C63 1.258 . S
O65 Cd56 2.378 . S
O65 C63 1.256 . S
O66 Cd67 2.300 . S
O66 C73 1.275 . S
Cd67 O66 2.300 . S
Cd67 O75 2.381 . S
Cd67 O76 2.378 . S
O68 Cd69 2.385 . S
O68 C73 1.255 . S
Cd69 O68 2.385 . S
Cd69 O70 2.317 . S
O70 Cd69 2.317 . S
O70 C71 1.232 . S
C71 O70 1.232 . S
C71 O72 1.218 . S
O72 C71 1.218 . S
C73 O66 1.275 . S
C73 O68 1.255 . S
C74 O75 1.258 . S
C74 O76 1.256 . S
O75 Cd67 2.381 . S
O75 C74 1.258 . S
O76 Cd67 2.378 . S
O76 C74 1.256 . S
O77 Cd78 2.300 . S
O77 C84 1.275 . S
Cd78 O77 2.300 . S
Cd78 O86 2.381 . S
Cd78 O87 2.378 . S
O79 Cd80 2.385 . S
O79 C84 1.255 . S
Cd80 O79 2.385 . S
Cd80 O81 2.317 . S
O81 Cd80 2.317 . S
O81 C82 1.232 . S
C82 O81 1.232 . S
C82 O83 1.218 . S
O83 C82 1.218 . S
C84 O77 1.275 . S
C84 O79 1.255 . S
C85 O86 1.258 . S
C85 O87 1.256 . S
O86 Cd78 2.381 . S
O86 C85 1.258 . S
O87 Cd78 2.378 . S
O87 C85 1.256 . S
Nd88 C90 2.836 . S
Nd88 O108 2.500 . S
Nd88 O109 2.492 . S
Nd88 O110 2.487 1_565 S
Nd88 O111 2.682 1_565 S
Nd88 O112 2.410 . S
Nd88 O117 2.414 1_455 S
Nd88 O119 2.424 1_565 S
Nd89 C99 2.836 . S
Nd89 O111 2.414 1_655 S
Nd89 O113 2.424 1_545 S
Nd89 O114 2.500 . S
Nd89 O115 2.492 . S
Nd89 O116 2.487 1_545 S
Nd89 O117 2.682 1_545 S
Nd89 O118 2.408 . S
C90 Nd88 2.836 . S
C90 C91 1.498 . S
C90 O108 1.258 . S
C90 O109 1.239 . S
C91 C90 1.498 . S
C91 C92 1.366 . S
C91 C96 1.407 . S
C92 C91 1.366 . S
C92 C93 1.392 . S
C92 H120 0.930 . S
C93 C92 1.392 . S
C93 C94 1.398 . S
C93 H121 0.929 . S
C94 C93 1.398 . S
C94 C95 1.352 . S
C95 C94 1.352 . S
C95 C96 1.384 . S
C95 H122 0.930 . S
C96 C91 1.407 . S
C96 C95 1.384 . S
C96 H123 0.929 . S
C97 O110 1.241 . S
C97 O111 1.273 . S
C98 O112 1.251 1_655 S
C98 O113 1.268 . S
C99 Nd89 2.836 . S
C99 C100 1.498 . S
C99 O114 1.258 . S
C99 O115 1.239 . S
C100 C99 1.498 . S
C100 C101 1.366 . S
C100 C105 1.407 . S
C101 C100 1.366 . S
C101 C102 1.392 . S
C101 H124 0.930 . S
C102 C101 1.392 . S
C102 C103 1.398 . S
C102 H125 0.929 . S
C103 C102 1.398 . S
C103 C104 1.352 . S
C104 C103 1.352 . S
C104 C105 1.384 . S
C104 H126 0.930 . S
C105 C100 1.407 . S
C105 C104 1.384 . S
C105 H127 0.929 . S
C106 O116 1.241 . S
C106 O117 1.273 . S
C107 O118 1.254 1_455 S
C107 O119 1.268 . S
O108 Nd88 2.500 . S
O108 C90 1.258 . S
O109 Nd88 2.492 . S
O109 C90 1.239 . S
O110 Nd88 2.487 1_545 S
O110 C97 1.241 . S
O111 Nd88 2.682 1_545 S
O111 Nd89 2.414 1_455 S
O111 C97 1.273 . S
O112 Nd88 2.410 . S
O112 C98 1.251 1_455 S
O113 Nd89 2.424 1_565 S
O113 C98 1.268 . S
O114 Nd89 2.500 . S
O114 C99 1.258 . S
O115 Nd89 2.492 . S
O115 C99 1.239 . S
O116 Nd89 2.487 1_565 S
O116 C106 1.241 . S
O117 Nd88 2.414 1_655 S
O117 Nd89 2.682 1_565 S
O117 C106 1.273 . S
O118 Nd89 2.408 . S
O118 C107 1.254 1_655 S
O119 Nd88 2.424 1_545 S
O119 C107 1.268 . S
H120 C92 0.930 . S
H121 C93 0.929 . S
H122 C95 0.930 . S
H123 C96 0.929 . S
H124 C101 0.930 . S
H125 C102 0.929 . S
H126 C104 0.930 . S
H127 C105 0.929 . S
Nd128 C130 2.836 . S
Nd128 O148 2.500 . S
Nd128 O149 2.492 . S
Nd128 O150 2.487 1_565 S
Nd128 O151 2.682 1_565 S
Nd128 O152 2.410 . S
Nd128 O157 2.414 . S
Nd128 O159 2.424 1_565 S
Nd129 C139 2.836 . S
Nd129 O151 2.414 . S
Nd129 O153 2.424 1_544 S
Nd129 O154 2.500 . S
Nd129 O155 2.492 1_554 S
Nd129 O156 2.487 . S
Nd129 O157 2.682 1_545 S
Nd129 O158 2.410 . S
C130 Nd128 2.836 . S
C130 C131 1.498 . S
C130 O148 1.258 . S
C130 O149 1.239 . S
C131 C130 1.498 . S
C131 C132 1.366 . S
C131 C136 1.407 . S
C132 C131 1.366 . S
C132 C133 1.392 . S
C132 H160 0.930 . S
C133 C132 1.392 . S
C133 C134 1.398 . S
C133 H161 0.929 . S
C134 C133 1.398 . S
C134 C135 1.352 . S
C135 C134 1.352 . S
C135 C136 1.384 . S
C135 H162 0.930 . S
C136 C131 1.407 . S
C136 C135 1.384 . S
C136 H163 0.929 . S
C137 O150 1.241 . S
C137 O151 1.273 . S
C138 O152 1.251 . S
C138 O153 1.268 1_554 S
C139 Nd129 2.836 . S
C139 C140 1.498 1_554 S
C139 O154 1.258 . S
C139 O155 1.239 1_554 S
C140 C139 1.498 1_556 S
C140 C141 1.366 1_556 S
C140 C145 1.407 . S
C141 C140 1.366 1_554 S
C141 C142 1.392 . S
C141 H164 0.930 . S
C142 C141 1.392 . S
C142 C143 1.398 1_554 S
C142 H165 0.929 . S
C143 C142 1.398 1_556 S
C143 C144 1.352 . S
C144 C143 1.352 . S
C144 C145 1.384 . S
C144 H166 0.930 . S
C145 C140 1.407 . S
C145 C144 1.384 . S
C145 H167 0.929 . S
C146 O156 1.241 1_565 S
C146 O157 1.273 . S
C147 O158 1.251 . S
C147 O159 1.268 . S
O148 Nd128 2.500 . S
O148 C130 1.258 . S
O149 Nd128 2.492 . S
O149 C130 1.239 . S
O150 Nd128 2.487 1_545 S
O150 C137 1.241 . S
O151 Nd128 2.682 1_545 S
O151 Nd129 2.414 . S
O151 C137 1.273 . S
O152 Nd128 2.410 . S
O152 C138 1.251 . S
O153 Nd129 2.424 1_566 S
O153 C138 1.268 1_556 S
O154 Nd129 2.500 . S
O154 C139 1.258 . S
O155 Nd129 2.492 1_556 S
O155 C139 1.239 1_556 S
O156 Nd129 2.487 . S
O156 C146 1.241 1_545 S
O157 Nd128 2.414 . S
O157 Nd129 2.682 1_565 S
O157 C146 1.273 . S
O158 Nd129 2.410 . S
O158 C147 1.251 . S
O159 Nd128 2.424 1_545 S
O159 C147 1.268 . S
H160 C132 0.930 . S
H161 C133 0.929 . S
H162 C135 0.930 . S
H163 C136 0.929 . S
H164 C141 0.930 . S
H165 C142 0.929 . S
H166 C144 0.930 . S
H167 C145 0.929 . S
Nd168 C170 2.836 . S
Nd168 O188 2.500 . S
Nd168 O189 2.492 . S
Nd168 O190 2.487 . S
Nd168 O191 2.682 . S
Nd168 O192 2.410 . S
Nd168 O197 2.414 . S
Nd168 O199 2.424 . S
Nd169 C179 2.836 . S
Nd169 O191 2.414 . S
Nd169 O193 2.424 . S
Nd169 O194 2.500 . S
Nd169 O195 2.492 . S
Nd169 O196 2.487 . S
Nd169 O197 2.682 . S
Nd169 O198 2.410 . S
C170 Nd168 2.836 . S
C170 C171 1.498 . S
C170 O188 1.258 . S
C170 O189 1.239 . S
C171 C170 1.498 . S
C171 C172 1.366 . S
C171 C176 1.407 . S
C172 C171 1.366 . S
C172 C173 1.392 . S
C172 H200 0.930 . S
C173 C172 1.392 . S
C173 C174 1.398 . S
C173 H201 0.929 . S
C174 C173 1.398 . S
C174 C175 1.352 . S
C175 C174 1.352 . S
C175 C176 1.384 . S
C175 H202 0.930 . S
C176 C171 1.407 . S
C176 C175 1.384 . S
C176 H203 0.929 . S
C177 O190 1.241 . S
C177 O191 1.273 . S
C178 O192 1.251 . S
C178 O193 1.268 . S
C179 Nd169 2.836 . S
C179 C180 1.498 . S
C179 O194 1.258 . S
C179 O195 1.239 . S
C180 C179 1.498 . S
C180 C181 1.366 . S
C180 C185 1.407 . S
C181 C180 1.366 . S
C181 C182 1.392 . S
C181 H204 0.930 . S
C182 C181 1.392 . S
C182 C183 1.398 . S
C182 H205 0.929 . S
C183 C182 1.398 . S
C183 C184 1.352 . S
C184 C183 1.352 . S
C184 C185 1.384 . S
C184 H206 0.930 . S
C185 C180 1.407 . S
C185 C184 1.384 . S
C185 H207 0.929 . S
C186 O196 1.241 . S
C186 O197 1.273 . S
C187 O198 1.251 . S
C187 O199 1.268 . S
O188 Nd168 2.500 . S
O188 C170 1.258 . S
O189 Nd168 2.492 . S
O189 C170 1.239 . S
O190 Nd168 2.487 . S
O190 C177 1.241 . S
O191 Nd168 2.682 . S
O191 Nd169 2.414 . S
O191 C177 1.273 . S
O192 Nd168 2.410 . S
O192 C178 1.251 . S
O193 Nd169 2.424 . S
O193 C178 1.268 . S
O194 Nd169 2.500 . S
O194 C179 1.258 . S
O195 Nd169 2.492 . S
O195 C179 1.239 . S
O196 Nd169 2.487 . S
O196 C186 1.241 . S
O197 Nd168 2.414 . S
O197 Nd169 2.682 . S
O197 C186 1.273 . S
O198 Nd169 2.410 . S
O198 C187 1.251 . S
O199 Nd168 2.424 . S
O199 C187 1.268 . S
H200 C172 0.930 . S
H201 C173 0.929 . S
H202 C175 0.930 . S
H203 C176 0.929 . S
H204 C181 0.930 . S
H205 C182 0.929 . S
H206 C184 0.930 . S
H207 C185 0.929 . S
Nd208 C210 2.836 1_455 S
Nd208 O228 2.500 1_455 S
Nd208 O229 2.492 . S
Nd208 O230 2.487 . S
Nd208 O231 2.682 . S
Nd208 O232 2.410 . S
Nd208 O237 2.414 1_454 S
Nd208 O239 2.424 . S
Nd209 C219 2.836 . S
Nd209 O231 2.414 1_556 S
Nd209 O233 2.424 . S
Nd209 O234 2.500 . S
Nd209 O235 2.492 . S
Nd209 O236 2.487 1_455 S
Nd209 O237 2.682 1_455 S
Nd209 O238 2.410 . S
C210 Nd208 2.836 1_655 S
C210 C211 1.498 . S
C210 O228 1.258 . S
C210 O229 1.239 1_655 S
C211 C210 1.498 . S
C211 C212 1.366 . S
C211 C216 1.407 . S
C212 C211 1.366 . S
C212 C213 1.392 . S
C212 H240 0.930 . S
C213 C212 1.392 . S
C213 C214 1.398 . S
C213 H241 0.929 . S
C214 C213 1.398 . S
C214 C215 1.352 . S
C215 C214 1.352 . S
C215 C216 1.384 . S
C215 H242 0.930 . S
C216 C211 1.407 . S
C216 C215 1.384 . S
C216 H243 0.929 1_655 S
C217 O230 1.241 . S
C217 O231 1.273 . S
C218 O232 1.251 1_556 S
C218 O233 1.268 . S
C219 Nd209 2.836 . S
C219 C220 1.498 . S
C219 O234 1.258 . S
C219 O235 1.239 . S
C220 C219 1.498 . S
C220 C221 1.366 . S
C220 C225 1.407 . S
C221 C220 1.366 . S
C221 C222 1.392 . S
C221 H244 0.930 . S
C222 C221 1.392 . S
C222 C223 1.398 . S
C222 H245 0.929 . S
C223 C222 1.398 . S
C223 C224 1.352 . S
C224 C223 1.352 . S
C224 C225 1.384 . S
C224 H246 0.930 . S
C225 C220 1.407 . S
C225 C224 1.384 . S
C225 H247 0.929 . S
C226 O236 1.241 . S
C226 O237 1.273 . S
C227 O238 1.251 1_554 S
C227 O239 1.268 . S
O228 Nd208 2.500 1_655 S
O228 C210 1.258 . S
O229 Nd208 2.492 . S
O229 C210 1.239 1_455 S
O230 Nd208 2.487 . S
O230 C217 1.241 . S
O231 Nd208 2.682 . S
O231 Nd209 2.414 1_554 S
O231 C217 1.273 . S
O232 Nd208 2.410 . S
O232 C218 1.251 1_554 S
O233 Nd209 2.424 . S
O233 C218 1.268 . S
O234 Nd209 2.500 . S
O234 C219 1.258 . S
O235 Nd209 2.492 . S
O235 C219 1.239 . S
O236 Nd209 2.487 1_655 S
O236 C226 1.241 . S
O237 Nd208 2.414 1_656 S
O237 Nd209 2.682 1_655 S
O237 C226 1.273 . S
O238 Nd209 2.410 . S
O238 C227 1.251 1_556 S
O239 Nd208 2.424 . S
O239 C227 1.268 . S
H240 C212 0.930 . S
H241 C213 0.929 . S
H242 C215 0.930 . S
H243 C216 0.929 1_455 S
H244 C221 0.930 . S
H245 C222 0.929 . S
H246 C224 0.930 . S
H247 C225 0.929 . S
H248 C266 0.951 . S
H249 C268 0.951 . S
H250 C270 0.950 . S
H251 C271 0.950 . S
H252 C273 0.950 . S
H253 C276 0.950 . S
H254 C277 0.950 . S
H255 C279 0.950 . S
H256 C280 0.950 . S
H257 C281 0.951 . S
H258 C283 0.951 . S
H259 C285 0.950 . S
H260 C286 0.950 . S
H261 C288 0.950 . S
H262 C291 0.950 . S
H263 C292 0.950 . S
H264 C294 0.950 . S
H265 C295 0.950 . S
C266 H248 0.951 . S
C266 C267 1.366 . S
C266 C268 1.388 . S
C267 C266 1.366 . S
C267 C271 1.385 . S
C268 H249 0.951 . S
C268 C266 1.388 . S
C268 C269 1.366 . S
C269 C268 1.366 . S
C269 C270 1.414 . S
C269 C272 1.499 . S
C270 H250 0.950 . S
C270 C269 1.414 . S
C270 C271 1.374 . S
C271 H251 0.950 . S
C271 C267 1.385 . S
C271 C270 1.374 . S
C272 C269 1.499 . S
C272 C273 1.373 . S
C272 C274 1.389 . S
C273 H252 0.950 . S
C273 C272 1.373 . S
C273 C289 1.377 . S
C274 C272 1.389 . S
C274 C275 1.524 . S
C274 C288 1.377 . S
C275 C274 1.524 . S
C275 C276 1.397 . S
C275 C280 1.363 . S
C276 H253 0.950 . S
C276 C275 1.397 . S
C276 C277 1.334 . S
C277 H254 0.950 . S
C277 C276 1.334 . S
C277 C278 1.287 . S
C278 C277 1.287 . S
C278 C279 1.524 . S
C278 H297 0.913 . S
C279 H255 0.950 . S
C279 C278 1.524 . S
C279 C280 1.415 . S
C280 H256 0.950 . S
C280 C275 1.363 . S
C280 C279 1.415 . S
C281 H257 0.951 . S
C281 C282 1.366 . S
C281 C283 1.388 . S
C282 C281 1.366 . S
C282 C286 1.385 . S
C283 H258 0.951 . S
C283 C281 1.388 . S
C283 C284 1.366 . S
C284 C283 1.366 . S
C284 C285 1.414 . S
C284 C287 1.499 . S
C285 H259 0.950 . S
C285 C284 1.414 . S
C285 C286 1.374 . S
C286 H260 0.950 . S
C286 C282 1.385 . S
C286 C285 1.374 . S
C287 C284 1.499 . S
C287 C288 1.373 . S
C287 C289 1.389 . S
C288 H261 0.950 . S
C288 C274 1.377 . S
C288 C287 1.373 . S
C289 C273 1.377 . S
C289 C287 1.389 . S
C289 C290 1.524 . S
C290 C289 1.524 . S
C290 C291 1.397 . S
C290 C295 1.363 . S
C291 H262 0.950 . S
C291 C290 1.397 . S
C291 C292 1.334 1_545 S
C292 H263 0.950 . S
C292 C291 1.334 1_565 S
C292 C293 1.287 . S
C293 C292 1.287 . S
C293 C294 1.524 . S
C293 H296 0.999 . S
C294 H264 0.950 . S
C294 C293 1.524 . S
C294 C295 1.415 1_565 S
C295 H265 0.950 . S
C295 C290 1.363 . S
C295 C294 1.415 1_545 S
H296 C293 0.999 . S
H297 C278 0.913 . S
H298 C316 0.951 . S
H299 C318 0.951 . S
H300 C320 0.950 . S
H301 C321 0.950 . S
H302 C323 0.950 . S
H303 C326 0.950 . S
H304 C327 0.950 . S
H305 C329 0.950 . S
H306 C330 0.950 . S
H307 C331 0.951 . S
H308 C333 0.951 . S
H309 C335 0.950 . S
H310 C336 0.950 . S
H311 C338 0.950 . S
H312 C341 0.950 . S
H313 C342 0.950 . S
H314 C344 0.950 1_554 S
H315 C345 0.950 . S
C316 H298 0.951 . S
C316 C317 1.366 . S
C316 C318 1.388 . S
C317 C316 1.366 . S
C317 C321 1.385 . S
C318 H299 0.951 . S
C318 C316 1.388 . S
C318 C319 1.366 . S
C319 C318 1.366 . S
C319 C320 1.414 . S
C319 C322 1.499 . S
C320 H300 0.950 . S
C320 C319 1.414 . S
C320 C321 1.374 . S
C321 H301 0.950 . S
C321 C317 1.385 . S
C321 C320 1.374 . S
C322 C319 1.499 . S
C322 C323 1.373 . S
C322 C324 1.389 . S
C323 H302 0.950 . S
C323 C322 1.373 . S
C323 C339 1.377 . S
C324 C322 1.389 . S
C324 C325 1.524 . S
C324 C338 1.377 . S
C325 C324 1.524 . S
C325 C326 1.397 . S
C325 C330 1.363 . S
C326 H303 0.950 . S
C326 C325 1.397 . S
C326 C327 1.334 . S
C327 H304 0.950 . S
C327 C326 1.334 . S
C327 C328 1.287 . S
C328 C327 1.287 . S
C328 C329 1.524 . S
C328 H347 0.913 . S
C329 H305 0.950 . S
C329 C328 1.524 . S
C329 C330 1.415 . S
C330 H306 0.950 . S
C330 C325 1.363 . S
C330 C329 1.415 . S
C331 H307 0.951 . S
C331 C332 1.366 . S
C331 C333 1.388 . S
C332 C331 1.366 . S
C332 C336 1.385 . S
C333 H308 0.951 . S
C333 C331 1.388 . S
C333 C334 1.366 . S
C334 C333 1.366 . S
C334 C335 1.414 . S
C334 C337 1.499 . S
C335 H309 0.950 . S
C335 C334 1.414 . S
C335 C336 1.374 . S
C336 H310 0.950 . S
C336 C332 1.385 . S
C336 C335 1.374 . S
C337 C334 1.499 . S
C337 C338 1.373 . S
C337 C339 1.389 . S
C338 H311 0.950 . S
C338 C324 1.377 . S
C338 C337 1.373 . S
C339 C323 1.377 . S
C339 C337 1.389 . S
C339 C340 1.524 . S
C340 C339 1.524 . S
C340 C341 1.397 . S
C340 C345 1.363 . S
C341 H312 0.950 . S
C341 C340 1.397 . S
C341 C342 1.334 1_556 S
C342 H313 0.950 . S
C342 C341 1.334 1_554 S
C342 C343 1.287 . S
C343 C342 1.287 . S
C343 C344 1.524 1_554 S
C343 H346 0.999 . S
C344 H314 0.950 1_556 S
C344 C343 1.524 1_556 S
C344 C345 1.415 . S
C345 H315 0.950 . S
C345 C340 1.363 . S
C345 C344 1.415 . S
H346 C343 0.999 . S
H347 C328 0.913 . S
H348 C366 0.951 . S
H349 C368 0.951 . S
H350 C370 0.950 . S
H351 C371 0.950 . S
H352 C373 0.950 . S
H353 C376 0.950 . S
H354 C377 0.950 . S
H355 C379 0.950 . S
H356 C380 0.950 . S
H357 C381 0.951 . S
H358 C383 0.951 . S
H359 C385 0.950 . S
H360 C386 0.950 . S
H361 C388 0.950 . S
H362 C391 0.950 . S
H363 C392 0.950 . S
H364 C394 0.950 . S
H365 C395 0.950 . S
C366 H348 0.951 . S
C366 C367 1.366 . S
C366 C368 1.388 . S
C367 C366 1.366 . S
C367 C371 1.385 . S
C368 H349 0.951 . S
C368 C366 1.388 . S
C368 C369 1.366 . S
C369 C368 1.366 . S
C369 C370 1.414 . S
C369 C372 1.499 . S
C370 H350 0.950 . S
C370 C369 1.414 . S
C370 C371 1.374 . S
C371 H351 0.950 . S
C371 C367 1.385 . S
C371 C370 1.374 . S
C372 C369 1.499 . S
C372 C373 1.373 . S
C372 C374 1.389 . S
C373 H352 0.950 . S
C373 C372 1.373 . S
C373 C389 1.377 . S
C374 C372 1.389 . S
C374 C375 1.524 . S
C374 C388 1.377 . S
C375 C374 1.524 . S
C375 C376 1.397 . S
C375 C380 1.363 . S
C376 H353 0.950 . S
C376 C375 1.397 . S
C376 C377 1.334 . S
C377 H354 0.950 . S
C377 C376 1.334 . S
C377 C378 1.287 . S
C378 C377 1.287 . S
C378 C379 1.524 . S
C378 H397 0.913 . S
C379 H355 0.950 . S
C379 C378 1.524 . S
C379 C380 1.415 . S
C380 H356 0.950 . S
C380 C375 1.363 . S
C380 C379 1.415 . S
C381 H357 0.951 . S
C381 C382 1.366 . S
C381 C383 1.388 . S
C382 C381 1.366 . S
C382 C386 1.385 . S
C383 H358 0.951 . S
C383 C381 1.388 . S
C383 C384 1.366 . S
C384 C383 1.366 . S
C384 C385 1.414 . S
C384 C387 1.499 . S
C385 H359 0.950 . S
C385 C384 1.414 . S
C385 C386 1.374 . S
C386 H360 0.950 . S
C386 C382 1.385 . S
C386 C385 1.374 . S
C387 C384 1.499 . S
C387 C388 1.373 . S
C387 C389 1.389 . S
C388 H361 0.950 . S
C388 C374 1.377 . S
C388 C387 1.373 . S
C389 C373 1.377 . S
C389 C387 1.389 . S
C389 C390 1.524 . S
C390 C389 1.524 . S
C390 C391 1.397 . S
C390 C395 1.363 . S
C391 H362 0.950 . S
C391 C390 1.397 . S
C391 C392 1.334 . S
C392 H363 0.950 . S
C392 C391 1.334 . S
C392 C393 1.287 . S
C393 C392 1.287 . S
C393 C394 1.524 . S
C393 H396 0.999 . S
C394 H364 0.950 . S
C394 C393 1.524 . S
C394 C395 1.415 . S
C395 H365 0.950 . S
C395 C390 1.363 . S
C395 C394 1.415 . S
H396 C393 0.999 . S
H397 C378 0.913 . S
H398 C416 0.951 . S
H399 C418 0.951 . S
H400 C420 0.950 . S
H401 C421 0.950 . S
H402 C423 0.950 . S
H403 C426 0.950 . S
H404 C427 0.950 . S
H405 C429 0.950 . S
H406 C430 0.950 . S
H407 C431 0.951 . S
H408 C433 0.951 . S
H409 C435 0.950 . S
H410 C436 0.950 . S
H411 C438 0.950 . S
H412 C441 0.950 . S
H413 C442 0.950 . S
H414 C444 0.950 . S
H415 C445 0.950 . S
C416 H398 0.951 . S
C416 C417 1.366 . S
C416 C418 1.388 . S
C417 C416 1.366 . S
C417 C421 1.385 . S
C418 H399 0.951 . S
C418 C416 1.388 . S
C418 C419 1.366 . S
C419 C418 1.366 . S
C419 C420 1.414 . S
C419 C422 1.499 . S
C420 H400 0.950 . S
C420 C419 1.414 . S
C420 C421 1.374 . S
C421 H401 0.950 . S
C421 C417 1.385 . S
C421 C420 1.374 . S
C422 C419 1.499 . S
C422 C423 1.373 . S
C422 C424 1.389 . S
C423 H402 0.950 . S
C423 C422 1.373 . S
C423 C439 1.377 . S
C424 C422 1.389 . S
C424 C425 1.524 . S
C424 C438 1.377 . S
C425 C424 1.524 . S
C425 C426 1.397 . S
C425 C430 1.363 . S
C426 H403 0.950 . S
C426 C425 1.397 . S
C426 C427 1.334 . S
C427 H404 0.950 . S
C427 C426 1.334 . S
C427 C428 1.287 . S
C428 C427 1.287 . S
C428 C429 1.524 . S
C428 H447 0.913 . S
C429 H405 0.950 . S
C429 C428 1.524 . S
C429 C430 1.415 . S
C430 H406 0.950 . S
C430 C425 1.363 . S
C430 C429 1.415 . S
C431 H407 0.951 . S
C431 C432 1.366 . S
C431 C433 1.388 . S
C432 C431 1.366 . S
C432 C436 1.385 . S
C433 H408 0.951 . S
C433 C431 1.388 . S
C433 C434 1.366 . S
C434 C433 1.366 . S
C434 C435 1.414 . S
C434 C437 1.499 . S
C435 H409 0.950 . S
C435 C434 1.414 . S
C435 C436 1.374 . S
C436 H410 0.950 . S
C436 C432 1.385 . S
C436 C435 1.374 . S
C437 C434 1.499 . S
C437 C438 1.373 . S
C437 C439 1.389 . S
C438 H411 0.950 . S
C438 C424 1.377 . S
C438 C437 1.373 . S
C439 C423 1.377 . S
C439 C437 1.389 . S
C439 C440 1.524 . S
C440 C439 1.524 . S
C440 C441 1.397 . S
C440 C445 1.363 . S
C441 H412 0.950 . S
C441 C440 1.397 . S
C441 C442 1.334 1_655 S
C442 H413 0.950 . S
C442 C441 1.334 1_455 S
C442 C443 1.287 1_455 S
C443 C442 1.287 1_655 S
C443 C444 1.524 . S
C443 H446 0.999 1_655 S
C444 H414 0.950 . S
C444 C443 1.524 . S
C444 C445 1.415 . S
C445 H415 0.950 . S
C445 C440 1.363 . S
C445 C444 1.415 . S
H446 C443 0.999 1_455 S
H447 C428 0.913 . S
H448 C466 0.951 . S
H449 C468 0.951 . S
H450 C470 0.950 . S
H451 C471 0.950 . S
H452 C473 0.950 . S
H453 C476 0.950 . S
H454 C477 0.950 . S
H455 C479 0.950 . S
H456 C480 0.950 . S
H457 C481 0.951 . S
H458 C483 0.951 . S
H459 C485 0.950 . S
H460 C486 0.950 . S
H461 C488 0.950 . S
H462 C491 0.950 . S
H463 C492 0.950 . S
H464 C494 0.950 1_565 S
H465 C495 0.950 . S
C466 H448 0.951 . S
C466 C467 1.366 . S
C466 C468 1.388 . S
C467 C466 1.366 . S
C467 C471 1.385 . S
C468 H449 0.951 . S
C468 C466 1.388 . S
C468 C469 1.366 . S
C469 C468 1.366 . S
C469 C470 1.414 . S
C469 C472 1.499 . S
C470 H450 0.950 . S
C470 C469 1.414 . S
C470 C471 1.374 . S
C471 H451 0.950 . S
C471 C467 1.385 . S
C471 C470 1.374 . S
C472 C469 1.499 . S
C472 C473 1.373 . S
C472 C474 1.389 . S
C473 H452 0.950 . S
C473 C472 1.373 . S
C473 C489 1.377 . S
C474 C472 1.389 . S
C474 C475 1.524 . S
C474 C488 1.377 . S
C475 C474 1.524 . S
C475 C476 1.397 . S
C475 C480 1.363 . S
C476 H453 0.950 . S
C476 C475 1.397 . S
C476 C477 1.334 . S
C477 H454 0.950 . S
C477 C476 1.334 . S
C477 C478 1.287 . S
C478 C477 1.287 . S
C478 C479 1.524 . S
C478 H497 0.913 . S
C479 H455 0.950 . S
C479 C478 1.524 . S
C479 C480 1.415 . S
C480 H456 0.950 . S
C480 C475 1.363 . S
C480 C479 1.415 . S
C481 H457 0.951 . S
C481 C482 1.366 . S
C481 C483 1.388 . S
C482 C481 1.366 . S
C482 C486 1.385 . S
C483 H458 0.951 . S
C483 C481 1.388 . S
C483 C484 1.366 . S
C484 C483 1.366 . S
C484 C485 1.414 . S
C484 C487 1.499 . S
C485 H459 0.950 . S
C485 C484 1.414 . S
C485 C486 1.374 . S
C486 H460 0.950 . S
C486 C482 1.385 . S
C486 C485 1.374 . S
C487 C484 1.499 . S
C487 C488 1.373 . S
C487 C489 1.389 . S
C488 H461 0.950 . S
C488 C474 1.377 . S
C488 C487 1.373 . S
C489 C473 1.377 . S
C489 C487 1.389 . S
C489 C490 1.524 . S
C490 C489 1.524 . S
C490 C491 1.397 . S
C490 C495 1.363 . S
C491 H462 0.950 . S
C491 C490 1.397 . S
C491 C492 1.334 . S
C492 H463 0.950 . S
C492 C491 1.334 . S
C492 C493 1.287 . S
C493 C492 1.287 . S
C493 C494 1.524 . S
C493 H496 0.999 1_545 S
C494 H464 0.950 1_545 S
C494 C493 1.524 . S
C494 C495 1.415 . S
C495 H465 0.950 . S
C495 C490 1.363 . S
C495 C494 1.415 . S
H496 C493 0.999 1_565 S
H497 C478 0.913 . S
H498 C516 0.951 . S
H499 C518 0.951 . S
H500 C520 0.950 . S
H501 C521 0.950 . S
H502 C523 0.950 . S
H503 C526 0.950 . S
H504 C527 0.950 . S
H505 C529 0.950 . S
H506 C530 0.950 . S
H507 C531 0.951 . S
H508 C533 0.951 . S
H509 C535 0.950 . S
H510 C536 0.950 . S
H511 C538 0.950 . S
H512 C541 0.950 . S
H513 C542 0.950 . S
H514 C544 0.950 . S
H515 C545 0.950 . S
C516 H498 0.951 . S
C516 C517 1.366 . S
C516 C518 1.388 . S
C517 C516 1.366 . S
C517 C521 1.385 . S
C518 H499 0.951 . S
C518 C516 1.388 . S
C518 C519 1.366 . S
C519 C518 1.366 . S
C519 C520 1.414 . S
C519 C522 1.499 . S
C520 H500 0.950 . S
C520 C519 1.414 . S
C520 C521 1.374 . S
C521 H501 0.950 . S
C521 C517 1.385 . S
C521 C520 1.374 . S
C522 C519 1.499 . S
C522 C523 1.373 . S
C522 C524 1.389 . S
C523 H502 0.950 . S
C523 C522 1.373 . S
C523 C539 1.377 . S
C524 C522 1.389 . S
C524 C525 1.524 . S
C524 C538 1.377 . S
C525 C524 1.524 . S
C525 C526 1.397 . S
C525 C530 1.363 . S
C526 H503 0.950 . S
C526 C525 1.397 . S
C526 C527 1.334 . S
C527 H504 0.950 . S
C527 C526 1.334 . S
C527 C528 1.287 . S
C528 C527 1.287 . S
C528 C529 1.524 . S
C528 H547 0.913 . S
C529 H505 0.950 . S
C529 C528 1.524 . S
C529 C530 1.415 . S
C530 H506 0.950 . S
C530 C525 1.363 . S
C530 C529 1.415 . S
C531 H507 0.951 . S
C531 C532 1.366 . S
C531 C533 1.388 . S
C532 C531 1.366 . S
C532 C536 1.385 . S
C533 H508 0.951 . S
C533 C531 1.388 . S
C533 C534 1.366 . S
C534 C533 1.366 . S
C534 C535 1.414 . S
C534 C537 1.499 . S
C535 H509 0.950 . S
C535 C534 1.414 . S
C535 C536 1.374 . S
C536 H510 0.950 . S
C536 C532 1.385 . S
C536 C535 1.374 . S
C537 C534 1.499 . S
C537 C538 1.373 . S
C537 C539 1.389 . S
C538 H511 0.950 . S
C538 C524 1.377 . S
C538 C537 1.373 . S
C539 C523 1.377 . S
C539 C537 1.389 . S
C539 C540 1.524 . S
C540 C539 1.524 . S
C540 C541 1.397 . S
C540 C545 1.363 . S
C541 H512 0.950 . S
C541 C540 1.397 . S
C541 C542 1.334 . S
C542 H513 0.950 . S
C542 C541 1.334 . S
C542 C543 1.287 . S
C543 C542 1.287 . S
C543 C544 1.524 . S
C543 H546 0.999 . S
C544 H514 0.950 . S
C544 C543 1.524 . S
C544 C545 1.415 . S
C545 H515 0.950 . S
C545 C540 1.363 . S
C545 C544 1.415 . S
H546 C543 0.999 . S
H547 C528 0.913 . S
H548 C566 0.951 . S
H549 C568 0.951 . S
H550 C570 0.950 . S
H551 C571 0.950 . S
H552 C573 0.950 . S
H553 C576 0.950 . S
H554 C577 0.950 . S
H555 C579 0.950 . S
H556 C580 0.950 . S
H557 C581 0.951 . S
H558 C583 0.951 . S
H559 C585 0.950 . S
H560 C586 0.950 1_554 S
H561 C588 0.950 . S
H562 C591 0.950 . S
H563 C592 0.950 . S
H564 C594 0.950 . S
H565 C595 0.950 . S
C566 H548 0.951 . S
C566 C567 1.366 . S
C566 C568 1.388 . S
C567 C566 1.366 . S
C567 C571 1.385 . S
C568 H549 0.951 . S
C568 C566 1.388 . S
C568 C569 1.366 . S
C569 C568 1.366 . S
C569 C570 1.414 . S
C569 C572 1.499 . S
C570 H550 0.950 . S
C570 C569 1.414 . S
C570 C571 1.374 . S
C571 H551 0.950 . S
C571 C567 1.385 . S
C571 C570 1.374 . S
C572 C569 1.499 . S
C572 C573 1.373 . S
C572 C574 1.389 . S
C573 H552 0.950 . S
C573 C572 1.373 . S
C573 C589 1.377 . S
C574 C572 1.389 . S
C574 C575 1.524 . S
C574 C588 1.377 . S
C575 C574 1.524 . S
C575 C576 1.397 . S
C575 C580 1.363 . S
C576 H553 0.950 . S
C576 C575 1.397 . S
C576 C577 1.334 . S
C577 H554 0.950 . S
C577 C576 1.334 . S
C577 C578 1.287 . S
C578 C577 1.287 . S
C578 C579 1.524 . S
C578 H597 0.913 . S
C579 H555 0.950 . S
C579 C578 1.524 . S
C579 C580 1.415 . S
C580 H556 0.950 . S
C580 C575 1.363 . S
C580 C579 1.415 . S
C581 H557 0.951 . S
C581 C582 1.366 . S
C581 C583 1.388 . S
C582 C581 1.366 . S
C582 C586 1.385 . S
C583 H558 0.951 . S
C583 C581 1.388 . S
C583 C584 1.366 . S
C584 C583 1.366 . S
C584 C585 1.414 . S
C584 C587 1.499 . S
C585 H559 0.950 . S
C585 C584 1.414 . S
C585 C586 1.374 . S
C586 H560 0.950 1_556 S
C586 C582 1.385 . S
C586 C585 1.374 . S
C587 C584 1.499 . S
C587 C588 1.373 . S
C587 C589 1.389 . S
C588 H561 0.950 . S
C588 C574 1.377 . S
C588 C587 1.373 . S
C589 C573 1.377 . S
C589 C587 1.389 . S
C589 C590 1.524 . S
C590 C589 1.524 . S
C590 C591 1.397 . S
C590 C595 1.363 . S
C591 H562 0.950 . S
C591 C590 1.397 . S
C591 C592 1.334 . S
C592 H563 0.950 . S
C592 C591 1.334 . S
C592 C593 1.287 . S
C593 C592 1.287 . S
C593 C594 1.524 . S
C593 H596 0.999 . S
C594 H564 0.950 . S
C594 C593 1.524 . S
C594 C595 1.415 . S
C595 H565 0.950 . S
C595 C590 1.363 . S
C595 C594 1.415 . S
H596 C593 0.999 . S
H597 C578 0.913 . S
H598 C616 0.951 . S
H599 C618 0.951 . S
H600 C620 0.950 . S
H601 C621 0.950 . S
H602 C623 0.950 . S
H603 C626 0.950 . S
H604 C627 0.950 . S
H605 C629 0.950 . S
H606 C630 0.950 . S
H607 C631 0.951 . S
H608 C633 0.951 . S
H609 C635 0.950 . S
H610 C636 0.950 . S
H611 C638 0.950 . S
H612 C641 0.950 . S
H613 C642 0.950 . S
H614 C644 0.950 . S
H615 C645 0.950 . S
C616 H598 0.951 . S
C616 C617 1.366 . S
C616 C618 1.388 . S
C617 C616 1.366 . S
C617 C621 1.385 . S
C618 H599 0.951 . S
C618 C616 1.388 . S
C618 C619 1.366 . S
C619 C618 1.366 . S
C619 C620 1.414 . S
C619 C622 1.499 . S
C620 H600 0.950 . S
C620 C619 1.414 . S
C620 C621 1.374 . S
C621 H601 0.950 . S
C621 C617 1.385 . S
C621 C620 1.374 . S
C622 C619 1.499 . S
C622 C623 1.373 . S
C622 C624 1.389 . S
C623 H602 0.950 . S
C623 C622 1.373 . S
C623 C639 1.377 . S
C624 C622 1.389 . S
C624 C625 1.524 . S
C624 C638 1.377 . S
C625 C624 1.524 . S
C625 C626 1.397 . S
C625 C630 1.363 . S
C626 H603 0.950 . S
C626 C625 1.397 . S
C626 C627 1.334 . S
C627 H604 0.950 . S
C627 C626 1.334 . S
C627 C628 1.287 . S
C628 C627 1.287 . S
C628 C629 1.524 . S
C628 H647 0.913 . S
C629 H605 0.950 . S
C629 C628 1.524 . S
C629 C630 1.415 . S
C630 H606 0.950 . S
C630 C625 1.363 . S
C630 C629 1.415 . S
C631 H607 0.951 . S
C631 C632 1.366 . S
C631 C633 1.388 . S
C632 C631 1.366 . S
C632 C636 1.385 . S
C633 H608 0.951 . S
C633 C631 1.388 . S
C633 C634 1.366 . S
C634 C633 1.366 . S
C634 C635 1.414 . S
C634 C637 1.499 . S
C635 H609 0.950 . S
C635 C634 1.414 . S
C635 C636 1.374 . S
C636 H610 0.950 . S
C636 C632 1.385 . S
C636 C635 1.374 . S
C637 C634 1.499 . S
C637 C638 1.373 . S
C637 C639 1.389 . S
C638 H611 0.950 . S
C638 C624 1.377 . S
C638 C637 1.373 . S
C639 C623 1.377 . S
C639 C637 1.389 . S
C639 C640 1.524 . S
C640 C639 1.524 . S
C640 C641 1.397 . S
C640 C645 1.363 . S
C641 H612 0.950 . S
C641 C640 1.397 . S
C641 C642 1.334 . S
C642 H613 0.950 . S
C642 C641 1.334 . S
C642 C643 1.287 . S
C643 C642 1.287 . S
C643 C644 1.524 . S
C643 H646 0.999 . S
C644 H614 0.950 . S
C644 C643 1.524 . S
C644 C645 1.415 . S
C645 H615 0.950 . S
C645 C640 1.363 . S
C645 C644 1.415 . S
H646 C643 0.999 . S
H647 C628 0.913 . S
H648 C666 0.951 . S
H649 C668 0.951 . S
H650 C670 0.950 . S
H651 C671 0.950 . S
H652 C673 0.950 . S
H653 C676 0.950 . S
H654 C677 0.950 . S
H655 C679 0.950 . S
H656 C680 0.950 . S
H657 C681 0.951 . S
H658 C683 0.951 . S
H659 C685 0.950 . S
H660 C686 0.950 . S
H661 C688 0.950 . S
H662 C691 0.950 . S
H663 C692 0.950 . S
H664 C694 0.950 . S
H665 C695 0.943 1_554 S
C666 H648 0.951 . S
C666 C667 1.366 . S
C666 C668 1.388 . S
C667 C666 1.366 . S
C667 C671 1.385 . S
C668 H649 0.951 . S
C668 C666 1.388 . S
C668 C669 1.366 . S
C669 C668 1.366 . S
C669 C670 1.414 . S
C669 C672 1.499 . S
C670 H650 0.950 . S
C670 C669 1.414 . S
C670 C671 1.374 . S
C671 H651 0.950 . S
C671 C667 1.385 . S
C671 C670 1.374 . S
C672 C669 1.499 . S
C672 C673 1.373 . S
C672 C674 1.389 . S
C673 H652 0.950 . S
C673 C672 1.373 . S
C673 C689 1.377 . S
C674 C672 1.389 . S
C674 C675 1.524 . S
C674 C688 1.377 . S
C675 C674 1.524 . S
C675 C676 1.397 . S
C675 C680 1.363 . S
C676 H653 0.950 . S
C676 C675 1.397 . S
C676 C677 1.334 . S
C677 H654 0.950 . S
C677 C676 1.334 . S
C677 C678 1.287 . S
C678 C677 1.287 . S
C678 C679 1.524 . S
C678 H697 0.913 . S
C679 H655 0.950 . S
C679 C678 1.524 . S
C679 C680 1.415 . S
C680 H656 0.950 . S
C680 C675 1.363 . S
C680 C679 1.415 . S
C681 H657 0.951 . S
C681 C682 1.366 . S
C681 C683 1.388 . S
C682 C681 1.366 . S
C682 C686 1.385 . S
C683 H658 0.951 . S
C683 C681 1.388 . S
C683 C684 1.366 . S
C684 C683 1.366 . S
C684 C685 1.414 . S
C684 C687 1.499 . S
C685 H659 0.950 . S
C685 C684 1.414 . S
C685 C686 1.374 . S
C686 H660 0.950 . S
C686 C682 1.385 . S
C686 C685 1.374 . S
C687 C684 1.499 . S
C687 C688 1.373 . S
C687 C689 1.389 . S
C688 H661 0.950 . S
C688 C674 1.377 . S
C688 C687 1.373 . S
C689 C673 1.377 . S
C689 C687 1.389 . S
C689 C690 1.524 . S
C690 C689 1.524 . S
C690 C691 1.397 1_554 S
C690 C695 1.363 1_554 S
C691 H662 0.950 . S
C691 C690 1.397 1_556 S
C691 C692 1.334 . S
C692 H663 0.950 . S
C692 C691 1.334 . S
C692 C693 1.287 . S
C693 C692 1.287 . S
C693 C694 1.524 . S
C693 H696 0.999 . S
C694 H664 0.950 . S
C694 C693 1.524 . S
C694 C695 1.415 . S
C695 H665 0.943 1_556 S
C695 C690 1.363 1_556 S
C695 C694 1.415 . S
H696 C693 0.999 . S
H697 C678 0.913 . S
H698 C716 0.951 . S
H699 C718 0.951 . S
H700 C720 0.950 . S
H701 C721 0.950 . S
H702 C723 0.950 . S
H703 C726 0.950 . S
H704 C727 0.950 . S
H705 C729 0.950 . S
H706 C730 0.950 . S
H707 C731 0.951 1_554 S
H708 C733 0.951 . S
H709 C735 0.950 . S
H710 C736 0.950 . S
H711 C738 0.950 . S
H712 C741 0.950 . S
H713 C742 0.950 . S
H714 C744 0.950 . S
H715 C745 0.950 . S
C716 H698 0.951 . S
C716 C717 1.366 . S
C716 C718 1.388 . S
C717 C716 1.366 . S
C717 C721 1.385 . S
C718 H699 0.951 . S
C718 C716 1.388 . S
C718 C719 1.366 . S
C719 C718 1.366 . S
C719 C720 1.414 . S
C719 C722 1.499 . S
C720 H700 0.950 . S
C720 C719 1.414 . S
C720 C721 1.374 . S
C721 H701 0.950 . S
C721 C717 1.385 . S
C721 C720 1.374 . S
C722 C719 1.499 . S
C722 C723 1.373 . S
C722 C724 1.389 . S
C723 H702 0.950 . S
C723 C722 1.373 . S
C723 C739 1.377 . S
C724 C722 1.389 . S
C724 C725 1.524 . S
C724 C738 1.377 . S
C725 C724 1.524 . S
C725 C726 1.397 . S
C725 C730 1.363 . S
C726 H703 0.950 . S
C726 C725 1.397 . S
C726 C727 1.334 . S
C727 H704 0.950 . S
C727 C726 1.334 . S
C727 C728 1.287 . S
C728 C727 1.287 . S
C728 C729 1.524 . S
C728 H747 0.913 . S
C729 H705 0.950 . S
C729 C728 1.524 . S
C729 C730 1.415 . S
C730 H706 0.950 . S
C730 C725 1.363 . S
C730 C729 1.415 . S
C731 H707 0.951 1_556 S
C731 C732 1.366 . S
C731 C733 1.388 . S
C732 C731 1.366 . S
C732 C736 1.385 . S
C733 H708 0.951 . S
C733 C731 1.388 . S
C733 C734 1.366 . S
C734 C733 1.366 . S
C734 C735 1.414 . S
C734 C737 1.499 . S
C735 H709 0.950 . S
C735 C734 1.414 . S
C735 C736 1.374 . S
C736 H710 0.950 . S
C736 C732 1.385 . S
C736 C735 1.374 . S
C737 C734 1.499 . S
C737 C738 1.373 . S
C737 C739 1.389 . S
C738 H711 0.950 . S
C738 C724 1.377 . S
C738 C737 1.373 . S
C739 C723 1.377 . S
C739 C737 1.389 . S
C739 C740 1.524 . S
C740 C739 1.524 . S
C740 C741 1.397 . S
C740 C745 1.363 . S
C741 H712 0.950 . S
C741 C740 1.397 . S
C741 C742 1.334 . S
C742 H713 0.950 . S
C742 C741 1.334 . S
C742 C743 1.287 . S
C743 C742 1.287 . S
C743 C744 1.524 . S
C743 H746 0.999 . S
C744 H714 0.950 . S
C744 C743 1.524 . S
C744 C745 1.415 . S
C745 H715 0.950 . S
C745 C740 1.363 . S
C745 C744 1.415 . S
H746 C743 0.999 . S
H747 C728 0.913 . S
H748 C766 0.951 . S
H749 C768 0.951 . S
H750 C770 0.950 . S
H751 C771 0.950 . S
H752 C773 0.950 . S
H753 C776 0.950 . S
H754 C777 0.950 . S
H755 C779 0.950 . S
H756 C780 0.950 . S
H757 C781 0.951 . S
H758 C783 0.951 . S
H759 C785 0.950 . S
H760 C786 0.950 . S
H761 C788 0.950 . S
H762 C791 0.950 . S
H763 C792 0.912 1_455 S
H764 C794 0.950 . S
H765 C795 0.950 . S
C766 H748 0.951 . S
C766 C767 1.366 . S
C766 C768 1.388 . S
C767 C766 1.366 . S
C767 C771 1.385 . S
C768 H749 0.951 . S
C768 C766 1.388 . S
C768 C769 1.366 . S
C769 C768 1.366 . S
C769 C770 1.414 . S
C769 C772 1.499 . S
C770 H750 0.950 . S
C770 C769 1.414 . S
C770 C771 1.374 . S
C771 H751 0.950 . S
C771 C767 1.385 . S
C771 C770 1.374 . S
C772 C769 1.499 . S
C772 C773 1.373 . S
C772 C774 1.389 . S
C773 H752 0.950 . S
C773 C772 1.373 . S
C773 C789 1.377 . S
C774 C772 1.389 . S
C774 C775 1.524 . S
C774 C788 1.377 . S
C775 C774 1.524 . S
C775 C776 1.397 . S
C775 C780 1.363 . S
C776 H753 0.950 . S
C776 C775 1.397 . S
C776 C777 1.334 . S
C777 H754 0.950 . S
C777 C776 1.334 . S
C777 C778 1.287 . S
C778 C777 1.287 . S
C778 C779 1.524 . S
C778 H797 0.913 . S
C779 H755 0.950 . S
C779 C778 1.524 . S
C779 C780 1.415 . S
C780 H756 0.950 . S
C780 C775 1.363 . S
C780 C779 1.415 . S
C781 H757 0.951 . S
C781 C782 1.366 . S
C781 C783 1.388 . S
C782 C781 1.366 . S
C782 C786 1.385 . S
C783 H758 0.951 . S
C783 C781 1.388 . S
C783 C784 1.366 . S
C784 C783 1.366 . S
C784 C785 1.414 . S
C784 C787 1.499 . S
C785 H759 0.950 . S
C785 C784 1.414 . S
C785 C786 1.374 . S
C786 H760 0.950 . S
C786 C782 1.385 . S
C786 C785 1.374 . S
C787 C784 1.499 . S
C787 C788 1.373 . S
C787 C789 1.389 . S
C788 H761 0.950 . S
C788 C774 1.377 . S
C788 C787 1.373 . S
C789 C773 1.377 . S
C789 C787 1.389 . S
C789 C790 1.524 . S
C790 C789 1.524 . S
C790 C791 1.397 . S
C790 C795 1.363 . S
C791 H762 0.950 . S
C791 C790 1.397 . S
C791 C792 1.356 . S
C792 H763 0.912 1_655 S
C792 C791 1.356 . S
C792 C793 1.306 . S
C793 C792 1.306 . S
C793 C794 1.524 . S
C793 H796 0.999 . S
C794 H764 0.950 . S
C794 C793 1.524 . S
C794 C795 1.415 . S
C795 H765 0.950 . S
C795 C790 1.363 . S
C795 C794 1.415 . S
H796 C793 0.999 . S
H797 C778 0.913 . S
H798 C816 0.951 . S
H799 C818 0.951 . S
H800 C820 0.950 . S
H801 C821 0.950 . S
H802 C823 0.950 . S
H803 C826 0.950 . S
H804 C827 0.950 . S
H805 C829 0.950 . S
H806 C830 0.950 . S
H807 C831 0.951 . S
H808 C833 0.951 . S
H809 C835 0.950 . S
H810 C836 0.950 . S
H811 C838 0.950 . S
H812 C841 0.950 . S
H813 C842 0.950 . S
H814 C844 0.950 . S
H815 C845 0.950 . S
C816 H798 0.951 . S
C816 C817 1.366 . S
C816 C818 1.388 . S
C817 C816 1.366 . S
C817 C821 1.385 . S
C818 H799 0.951 . S
C818 C816 1.388 . S
C818 C819 1.366 . S
C819 C818 1.366 . S
C819 C820 1.414 . S
C819 C822 1.499 . S
C820 H800 0.950 . S
C820 C819 1.414 . S
C820 C821 1.374 . S
C821 H801 0.950 . S
C821 C817 1.385 . S
C821 C820 1.374 . S
C822 C819 1.499 . S
C822 C823 1.373 . S
C822 C824 1.389 . S
C823 H802 0.950 . S
C823 C822 1.373 . S
C823 C839 1.377 . S
C824 C822 1.389 . S
C824 C825 1.524 . S
C824 C838 1.377 . S
C825 C824 1.524 . S
C825 C826 1.397 . S
C825 C830 1.363 . S
C826 H803 0.950 . S
C826 C825 1.397 . S
C826 C827 1.334 . S
C827 H804 0.950 . S
C827 C826 1.334 . S
C827 C828 1.287 . S
C828 C827 1.287 . S
C828 C829 1.524 . S
C828 H847 0.913 . S
C829 H805 0.950 . S
C829 C828 1.524 . S
C829 C830 1.415 . S
C830 H806 0.950 . S
C830 C825 1.363 . S
C830 C829 1.415 . S
C831 H807 0.951 . S
C831 C832 1.366 . S
C831 C833 1.388 . S
C832 C831 1.366 . S
C832 C836 1.385 . S
C833 H808 0.951 . S
C833 C831 1.388 . S
C833 C834 1.366 . S
C834 C833 1.366 . S
C834 C835 1.414 . S
C834 C837 1.499 . S
C835 H809 0.950 . S
C835 C834 1.414 . S
C835 C836 1.374 . S
C836 H810 0.950 . S
C836 C832 1.385 . S
C836 C835 1.374 . S
C837 C834 1.499 . S
C837 C838 1.373 . S
C837 C839 1.389 . S
C838 H811 0.950 . S
C838 C824 1.377 . S
C838 C837 1.373 . S
C839 C823 1.377 . S
C839 C837 1.389 . S
C839 C840 1.524 . S
C840 C839 1.524 . S
C840 C841 1.397 . S
C840 C845 1.363 . S
C841 H812 0.950 . S
C841 C840 1.397 . S
C841 C842 1.334 . S
C842 H813 0.950 . S
C842 C841 1.334 . S
C842 C843 1.287 . S
C843 C842 1.287 . S
C843 C844 1.524 . S
C843 H846 0.999 . S
C844 H814 0.950 . S
C844 C843 1.524 . S
C844 C845 1.415 . S
C845 H815 0.950 . S
C845 C840 1.363 . S
C845 C844 1.415 . S
H846 C843 0.999 . S
H847 C828 0.913 . S
H848 C866 0.951 . S
H849 C868 0.951 . S
H850 C870 0.950 . S
H851 C871 0.950 . S
H852 C873 0.950 . S
H853 C876 0.950 . S
H854 C877 0.950 . S
H855 C879 0.950 1_455 S
H856 C880 0.950 . S
H857 C881 0.951 . S
H858 C883 0.951 . S
H859 C885 0.950 . S
H860 C886 0.915 1_455 S
H861 C888 0.950 . S
H862 C891 0.950 . S
H863 C892 0.950 . S
H864 C894 0.950 . S
H865 C895 0.950 . S
C866 H848 0.951 . S
C866 C867 1.366 . S
C866 C868 1.388 . S
C867 C866 1.366 . S
C867 C871 1.385 . S
C868 H849 0.951 . S
C868 C866 1.388 . S
C868 C869 1.366 . S
C869 C868 1.366 . S
C869 C870 1.414 . S
C869 C872 1.499 . S
C870 H850 0.950 . S
C870 C869 1.414 . S
C870 C871 1.374 . S
C871 H851 0.950 . S
C871 C867 1.385 . S
C871 C870 1.374 . S
C872 C869 1.499 . S
C872 C873 1.373 . S
C872 C874 1.389 . S
C873 H852 0.950 . S
C873 C872 1.373 . S
C873 C889 1.377 . S
C874 C872 1.389 . S
C874 C875 1.524 . S
C874 C888 1.377 . S
C875 C874 1.524 . S
C875 C876 1.397 . S
C875 C880 1.363 . S
C876 H853 0.950 . S
C876 C875 1.397 . S
C876 C877 1.334 . S
C877 H854 0.950 . S
C877 C876 1.334 . S
C877 C878 1.287 . S
C878 C877 1.287 . S
C878 C879 1.524 . S
C878 H897 0.913 . S
C879 H855 0.950 1_655 S
C879 C878 1.524 . S
C879 C880 1.415 . S
C880 H856 0.950 . S
C880 C875 1.363 . S
C880 C879 1.415 . S
C881 H857 0.951 . S
C881 C882 1.366 . S
C881 C883 1.388 . S
C882 C881 1.366 . S
C882 C886 1.385 . S
C883 H858 0.951 . S
C883 C881 1.388 . S
C883 C884 1.366 . S
C884 C883 1.366 . S
C884 C885 1.414 . S
C884 C887 1.499 . S
C885 H859 0.950 . S
C885 C884 1.414 . S
C885 C886 1.374 . S
C886 H860 0.915 1_655 S
C886 C882 1.385 . S
C886 C885 1.374 . S
C887 C884 1.499 . S
C887 C888 1.373 . S
C887 C889 1.389 . S
C888 H861 0.950 . S
C888 C874 1.377 . S
C888 C887 1.373 . S
C889 C873 1.377 . S
C889 C887 1.389 . S
C889 C890 1.524 . S
C890 C889 1.524 . S
C890 C891 1.397 . S
C890 C895 1.363 . S
C891 H862 0.950 . S
C891 C890 1.397 . S
C891 C892 1.334 . S
C892 H863 0.950 . S
C892 C891 1.334 . S
C892 C893 1.287 . S
C893 C892 1.287 . S
C893 C894 1.524 . S
C893 H896 0.999 . S
C894 H864 0.950 . S
C894 C893 1.524 . S
C894 C895 1.415 . S
C895 H865 0.950 . S
C895 C890 1.363 . S
C895 C894 1.415 . S
H896 C893 0.999 . S
H897 C878 0.913 . S
H898 C916 0.951 . S
H899 C918 0.951 . S
H900 C920 0.950 . S
H901 C921 0.950 . S
H902 C923 0.950 . S
H903 C926 0.950 . S
H904 C927 0.950 . S
H905 C929 0.950 . S
H906 C930 0.950 . S
H907 C931 0.951 . S
H908 C933 0.951 . S
H909 C935 0.950 . S
H910 C936 0.950 . S
H911 C938 0.950 . S
H912 C941 0.950 . S
H913 C942 0.950 . S
H914 C944 0.950 . S
H915 C945 0.950 . S
C916 H898 0.951 . S
C916 C917 1.366 . S
C916 C918 1.388 . S
C917 C916 1.366 . S
C917 C921 1.385 . S
C918 H899 0.951 . S
C918 C916 1.388 . S
C918 C919 1.366 . S
C919 C918 1.366 . S
C919 C920 1.414 . S
C919 C922 1.499 . S
C920 H900 0.950 . S
C920 C919 1.414 . S
C920 C921 1.374 . S
C921 H901 0.950 . S
C921 C917 1.385 . S
C921 C920 1.374 . S
C922 C919 1.499 . S
C922 C923 1.373 . S
C922 C924 1.389 . S
C923 H902 0.950 . S
C923 C922 1.373 . S
C923 C939 1.377 . S
C924 C922 1.389 . S
C924 C925 1.524 . S
C924 C938 1.377 . S
C925 C924 1.524 . S
C925 C926 1.397 . S
C925 C930 1.363 . S
C926 H903 0.950 . S
C926 C925 1.397 . S
C926 C927 1.334 . S
C927 H904 0.950 . S
C927 C926 1.334 . S
C927 C928 1.287 . S
C928 C927 1.287 . S
C928 C929 1.524 . S
C928 H947 0.913 . S
C929 H905 0.950 . S
C929 C928 1.524 . S
C929 C930 1.415 . S
C930 H906 0.950 . S
C930 C925 1.363 . S
C930 C929 1.415 . S
C931 H907 0.951 . S
C931 C932 1.366 . S
C931 C933 1.388 . S
C932 C931 1.366 . S
C932 C936 1.385 . S
C933 H908 0.951 . S
C933 C931 1.388 . S
C933 C934 1.366 . S
C934 C933 1.366 . S
C934 C935 1.414 . S
C934 C937 1.499 . S
C935 H909 0.950 . S
C935 C934 1.414 . S
C935 C936 1.374 . S
C936 H910 0.950 . S
C936 C932 1.385 . S
C936 C935 1.374 . S
C937 C934 1.499 . S
C937 C938 1.373 . S
C937 C939 1.389 . S
C938 H911 0.950 . S
C938 C924 1.377 . S
C938 C937 1.373 . S
C939 C923 1.377 . S
C939 C937 1.389 . S
C939 C940 1.524 . S
C940 C939 1.524 . S
C940 C941 1.397 . S
C940 C945 1.363 . S
C941 H912 0.950 . S
C941 C940 1.397 . S
C941 C942 1.334 . S
C942 H913 0.950 . S
C942 C941 1.334 . S
C942 C943 1.287 . S
C943 C942 1.287 . S
C943 C944 1.524 . S
C943 H946 0.999 . S
C944 H914 0.950 . S
C944 C943 1.524 . S
C944 C945 1.415 . S
C945 H915 0.950 . S
C945 C940 1.363 . S
C945 C944 1.415 . S
H946 C943 0.999 . S
H947 C928 0.913 . S
H948 C966 0.951 . S
H949 C968 0.951 . S
H950 C970 0.950 . S
H951 C971 0.950 . S
H952 C973 0.950 . S
H953 C976 0.950 . S
H954 C977 0.950 . S
H955 C979 0.950 . S
H956 C980 0.950 . S
H957 C981 0.951 . S
H958 C983 0.951 . S
H959 C985 0.950 . S
H960 C986 0.950 . S
H961 C988 0.950 . S
H962 C991 0.950 . S
H963 C992 0.950 . S
H964 C994 0.950 . S
H965 C995 0.950 . S
C966 H948 0.951 . S
C966 C967 1.366 . S
C966 C968 1.388 . S
C967 C966 1.366 . S
C967 C971 1.385 . S
C968 H949 0.951 . S
C968 C966 1.388 . S
C968 C969 1.366 . S
C969 C968 1.366 . S
C969 C970 1.414 . S
C969 C972 1.499 . S
C970 H950 0.950 . S
C970 C969 1.414 . S
C970 C971 1.374 . S
C971 H951 0.950 . S
C971 C967 1.385 . S
C971 C970 1.374 . S
C972 C969 1.499 . S
C972 C973 1.373 . S
C972 C974 1.389 . S
C973 H952 0.950 . S
C973 C972 1.373 . S
C973 C989 1.377 . S
C974 C972 1.389 . S
C974 C975 1.524 . S
C974 C988 1.377 . S
C975 C974 1.524 . S
C975 C976 1.397 . S
C975 C980 1.363 . S
C976 H953 0.950 . S
C976 C975 1.397 . S
C976 C977 1.334 . S
C977 H954 0.950 . S
C977 C976 1.334 . S
C977 C978 1.287 . S
C978 C977 1.287 . S
C978 C979 1.524 . S
C978 H997 0.913 . S
C979 H955 0.950 . S
C979 C978 1.524 . S
C979 C980 1.415 . S
C980 H956 0.950 . S
C980 C975 1.363 . S
C980 C979 1.415 . S
C981 H957 0.951 . S
C981 C982 1.366 . S
C981 C983 1.388 . S
C982 C981 1.366 . S
C982 C986 1.385 . S
C983 H958 0.951 . S
C983 C981 1.388 . S
C983 C984 1.366 . S
C984 C983 1.366 . S
C984 C985 1.414 . S
C984 C987 1.499 . S
C985 H959 0.950 . S
C985 C984 1.414 . S
C985 C986 1.374 . S
C986 H960 0.950 . S
C986 C982 1.385 . S
C986 C985 1.374 . S
C987 C984 1.499 . S
C987 C988 1.373 . S
C987 C989 1.389 . S
C988 H961 0.950 . S
C988 C974 1.377 . S
C988 C987 1.373 . S
C989 C973 1.377 . S
C989 C987 1.389 . S
C989 C990 1.524 . S
C990 C989 1.524 . S
C990 C991 1.397 . S
C990 C995 1.363 . S
C991 H962 0.950 . S
C991 C990 1.397 . S
C991 C992 1.334 . S
C992 H963 0.950 . S
C992 C991 1.334 . S
C992 C993 1.287 . S
C993 C992 1.287 . S
C993 C994 1.524 . S
C993 H996 0.999 . S
C994 H964 0.950 . S
C994 C993 1.524 . S
C994 C995 1.415 . S
C995 H965 0.950 . S
C995 C990 1.363 . S
C995 C994 1.415 . S
H996 C993 0.999 . S
H997 C978 0.913 . S
H998 C1016 0.951 . S
H999 C1018 0.951 . S
H1000 C1020 0.950 . S
H1001 C1021 0.950 . S
H1002 C1023 0.950 . S
H1003 C1026 0.950 . S
H1004 C1027 0.950 . S
H1005 C1029 0.950 . S
H1006 C1030 0.950 . S
H1007 C1031 0.951 . S
H1008 C1033 0.951 . S
H1009 C1035 0.950 . S
H1010 C1036 0.950 . S
H1011 C1038 0.950 . S
H1012 C1041 0.950 . S
H1013 C1042 0.950 . S
H1014 C1044 0.950 . S
H1015 C1045 0.950 . S
C1016 H998 0.951 . S
C1016 C1017 1.366 . S
C1016 C1018 1.388 . S
C1017 C1016 1.366 . S
C1017 C1021 1.385 . S
C1018 H999 0.951 . S
C1018 C1016 1.388 . S
C1018 C1019 1.366 . S
C1019 C1018 1.366 . S
C1019 C1020 1.414 . S
C1019 C1022 1.499 . S
C1020 H1000 0.950 . S
C1020 C1019 1.414 . S
C1020 C1021 1.374 . S
C1021 H1001 0.950 . S
C1021 C1017 1.385 . S
C1021 C1020 1.374 . S
C1022 C1019 1.499 . S
C1022 C1023 1.373 . S
C1022 C1024 1.389 . S
C1023 H1002 0.950 . S
C1023 C1022 1.373 . S
C1023 C1039 1.377 . S
C1024 C1022 1.389 . S
C1024 C1025 1.524 . S
C1024 C1038 1.377 . S
C1025 C1024 1.524 . S
C1025 C1026 1.397 . S
C1025 C1030 1.363 . S
C1026 H1003 0.950 . S
C1026 C1025 1.397 . S
C1026 C1027 1.334 . S
C1027 H1004 0.950 . S
C1027 C1026 1.334 . S
C1027 C1028 1.287 . S
C1028 C1027 1.287 . S
C1028 C1029 1.524 . S
C1028 H1047 0.913 . S
C1029 H1005 0.950 . S
C1029 C1028 1.524 . S
C1029 C1030 1.415 . S
C1030 H1006 0.950 . S
C1030 C1025 1.363 . S
C1030 C1029 1.415 . S
C1031 H1007 0.951 . S
C1031 C1032 1.366 . S
C1031 C1033 1.388 . S
C1032 C1031 1.366 . S
C1032 C1036 1.385 . S
C1033 H1008 0.951 . S
C1033 C1031 1.388 . S
C1033 C1034 1.366 . S
C1034 C1033 1.366 . S
C1034 C1035 1.414 . S
C1034 C1037 1.499 . S
C1035 H1009 0.950 . S
C1035 C1034 1.414 . S
C1035 C1036 1.374 . S
C1036 H1010 0.950 . S
C1036 C1032 1.385 . S
C1036 C1035 1.374 . S
C1037 C1034 1.499 . S
C1037 C1038 1.373 . S
C1037 C1039 1.389 . S
C1038 H1011 0.950 . S
C1038 C1024 1.377 . S
C1038 C1037 1.373 . S
C1039 C1023 1.377 . S
C1039 C1037 1.389 . S
C1039 C1040 1.524 . S
C1040 C1039 1.524 . S
C1040 C1041 1.397 . S
C1040 C1045 1.363 . S
C1041 H1012 0.950 . S
C1041 C1040 1.397 . S
C1041 C1042 1.334 . S
C1042 H1013 0.950 . S
C1042 C1041 1.334 . S
C1042 C1043 1.287 . S
C1043 C1042 1.287 . S
C1043 C1044 1.524 . S
C1043 H1046 0.999 . S
C1044 H1014 0.950 . S
C1044 C1043 1.524 . S
C1044 C1045 1.415 . S
C1045 H1015 0.950 . S
C1045 C1040 1.363 . S
C1045 C1044 1.415 . S
H1046 C1043 0.999 . S
H1047 C1028 0.913 . S
H1048 C1066 0.951 . S
H1049 C1068 0.951 . S
H1050 C1070 0.950 . S
H1051 C1071 0.950 . S
H1052 C1073 0.950 . S
H1053 C1076 0.950 . S
H1054 C1077 0.950 . S
H1055 C1079 0.950 . S
H1056 C1080 0.950 . S
H1057 C1081 0.951 . S
H1058 C1083 0.951 . S
H1059 C1085 0.950 . S
H1060 C1086 0.975 . S
H1061 C1088 0.950 . S
H1062 C1091 0.950 . S
H1063 C1092 0.950 . S
H1064 C1094 0.950 . S
H1065 C1095 0.950 . S
C1066 H1048 0.951 . S
C1066 C1067 1.366 . S
C1066 C1068 1.388 . S
C1067 C1066 1.366 . S
C1067 C1071 1.385 . S
C1068 H1049 0.951 . S
C1068 C1066 1.388 . S
C1068 C1069 1.366 . S
C1069 C1068 1.366 . S
C1069 C1070 1.414 . S
C1069 C1072 1.499 . S
C1070 H1050 0.950 . S
C1070 C1069 1.414 . S
C1070 C1071 1.374 . S
C1071 H1051 0.950 . S
C1071 C1067 1.385 . S
C1071 C1070 1.374 . S
C1072 C1069 1.499 . S
C1072 C1073 1.373 . S
C1072 C1074 1.352 1_556 S
C1073 H1052 0.950 . S
C1073 C1072 1.373 . S
C1073 C1089 1.377 . S
C1074 C1072 1.352 1_554 S
C1074 C1075 1.554 . S
C1074 C1088 1.388 . S
C1075 C1074 1.554 . S
C1075 C1076 1.397 . S
C1075 C1080 1.363 . S
C1076 H1053 0.950 . S
C1076 C1075 1.397 . S
C1076 C1077 1.334 . S
C1077 H1054 0.950 . S
C1077 C1076 1.334 . S
C1077 C1078 1.287 . S
C1078 C1077 1.287 . S
C1078 C1079 1.524 . S
C1078 H1097 0.913 . S
C1079 H1055 0.950 . S
C1079 C1078 1.524 . S
C1079 C1080 1.415 . S
C1080 H1056 0.950 . S
C1080 C1075 1.363 . S
C1080 C1079 1.415 . S
C1081 H1057 0.951 . S
C1081 C1082 1.366 1_556 S
C1081 C1083 1.388 . S
C1082 C1081 1.366 1_554 S
C1082 C1086 1.385 . S
C1083 H1058 0.951 . S
C1083 C1081 1.388 . S
C1083 C1084 1.366 . S
C1084 C1083 1.366 . S
C1084 C1085 1.414 1_556 S
C1084 C1087 1.499 . S
C1085 H1059 0.950 . S
C1085 C1084 1.414 1_554 S
C1085 C1086 1.374 . S
C1086 H1060 0.975 . S
C1086 C1082 1.385 . S
C1086 C1085 1.374 . S
C1087 C1084 1.499 . S
C1087 C1088 1.373 1_556 S
C1087 C1089 1.389 . S
C1088 H1061 0.950 . S
C1088 C1074 1.388 . S
C1088 C1087 1.373 1_554 S
C1089 C1073 1.377 . S
C1089 C1087 1.389 . S
C1089 C1090 1.524 . S
C1090 C1089 1.524 . S
C1090 C1091 1.397 . S
C1090 C1095 1.363 . S
C1091 H1062 0.950 . S
C1091 C1090 1.397 . S
C1091 C1092 1.334 . S
C1092 H1063 0.950 . S
C1092 C1091 1.334 . S
C1092 C1093 1.287 . S
C1093 C1092 1.287 . S
C1093 C1094 1.524 . S
C1093 H1096 0.999 . S
C1094 H1064 0.950 . S
C1094 C1093 1.524 . S
C1094 C1095 1.415 . S
C1095 H1065 0.950 . S
C1095 C1090 1.363 . S
C1095 C1094 1.415 . S
H1096 C1093 0.999 . S
H1097 C1078 0.913 . S
H1098 C1116 0.951 . S
H1099 C1118 0.951 . S
H1100 C1120 0.950 . S
H1101 C1121 0.950 . S
H1102 C1123 0.950 . S
H1103 C1126 0.950 . S
H1104 C1127 0.950 . S
H1105 C1129 0.950 . S
H1106 C1130 0.950 . S
H1107 C1131 0.951 . S
H1108 C1133 0.951 . S
H1109 C1135 0.950 . S
H1110 C1136 0.950 . S
H1111 C1138 0.950 . S
H1112 C1141 0.950 . S
H1113 C1142 0.950 . S
H1114 C1144 0.950 . S
H1115 C1145 0.950 . S
C1116 H1098 0.951 . S
C1116 C1117 1.366 . S
C1116 C1118 1.388 . S
C1117 C1116 1.366 . S
C1117 C1121 1.385 . S
C1118 H1099 0.951 . S
C1118 C1116 1.388 . S
C1118 C1119 1.366 . S
C1119 C1118 1.366 . S
C1119 C1120 1.414 . S
C1119 C1122 1.499 . S
C1120 H1100 0.950 . S
C1120 C1119 1.414 . S
C1120 C1121 1.374 . S
C1121 H1101 0.950 . S
C1121 C1117 1.385 . S
C1121 C1120 1.374 . S
C1122 C1119 1.499 . S
C1122 C1123 1.373 . S
C1122 C1124 1.389 . S
C1123 H1102 0.950 . S
C1123 C1122 1.373 . S
C1123 C1139 1.377 . S
C1124 C1122 1.389 . S
C1124 C1125 1.524 . S
C1124 C1138 1.377 . S
C1125 C1124 1.524 . S
C1125 C1126 1.397 . S
C1125 C1130 1.363 . S
C1126 H1103 0.950 . S
C1126 C1125 1.397 . S
C1126 C1127 1.334 . S
C1127 H1104 0.950 . S
C1127 C1126 1.334 . S
C1127 C1128 1.287 . S
C1128 C1127 1.287 . S
C1128 C1129 1.524 . S
C1128 H1147 0.913 . S
C1129 H1105 0.950 . S
C1129 C1128 1.524 . S
C1129 C1130 1.415 . S
C1130 H1106 0.950 . S
C1130 C1125 1.363 . S
C1130 C1129 1.415 . S
C1131 H1107 0.951 . S
C1131 C1132 1.366 . S
C1131 C1133 1.388 . S
C1132 C1131 1.366 . S
C1132 C1136 1.385 . S
C1133 H1108 0.951 . S
C1133 C1131 1.388 . S
C1133 C1134 1.366 . S
C1134 C1133 1.366 . S
C1134 C1135 1.414 . S
C1134 C1137 1.499 . S
C1135 H1109 0.950 . S
C1135 C1134 1.414 . S
C1135 C1136 1.374 . S
C1136 H1110 0.950 . S
C1136 C1132 1.385 . S
C1136 C1135 1.374 . S
C1137 C1134 1.499 . S
C1137 C1138 1.373 . S
C1137 C1139 1.389 . S
C1138 H1111 0.950 . S
C1138 C1124 1.377 . S
C1138 C1137 1.373 . S
C1139 C1123 1.377 . S
C1139 C1137 1.389 . S
C1139 C1140 1.524 . S
C1140 C1139 1.524 . S
C1140 C1141 1.397 . S
C1140 C1145 1.363 . S
C1141 H1112 0.950 . S
C1141 C1140 1.397 . S
C1141 C1142 1.334 . S
C1142 H1113 0.950 . S
C1142 C1141 1.334 . S
C1142 C1143 1.287 . S
C1143 C1142 1.287 . S
C1143 C1144 1.524 . S
C1143 H1146 0.999 . S
C1144 H1114 0.950 . S
C1144 C1143 1.524 . S
C1144 C1145 1.415 . S
C1145 H1115 0.950 . S
C1145 C1140 1.363 . S
C1145 C1144 1.415 . S
H1146 C1143 0.999 . S
H1147 C1128 0.913 . S
H1148 C1166 0.951 . S
H1149 C1168 0.951 . S
H1150 C1170 0.950 . S
H1151 C1171 0.950 . S
H1152 C1173 0.950 . S
H1153 C1176 0.950 . S
H1154 C1177 0.950 . S
H1155 C1179 0.950 . S
H1156 C1180 0.950 . S
H1157 C1181 0.951 1_556 S
H1158 C1183 0.951 . S
H1159 C1185 0.950 . S
H1160 C1186 0.950 . S
H1161 C1188 0.950 . S
H1162 C1191 0.950 . S
H1163 C1192 0.950 . S
H1164 C1194 0.950 1_556 S
H1165 C1195 0.950 . S
C1166 H1148 0.951 . S
C1166 C1167 1.366 . S
C1166 C1168 1.388 . S
C1167 C1166 1.366 . S
C1167 C1171 1.385 . S
C1168 H1149 0.951 . S
C1168 C1166 1.388 . S
C1168 C1169 1.366 . S
C1169 C1168 1.366 . S
C1169 C1170 1.414 . S
C1169 C1172 1.499 . S
C1170 H1150 0.950 . S
C1170 C1169 1.414 . S
C1170 C1171 1.374 . S
C1171 H1151 0.950 . S
C1171 C1167 1.385 . S
C1171 C1170 1.374 . S
C1172 C1169 1.499 . S
C1172 C1173 1.373 . S
C1172 C1174 1.389 . S
C1173 H1152 0.950 . S
C1173 C1172 1.373 . S
C1173 C1189 1.377 . S
C1174 C1172 1.389 . S
C1174 C1175 1.524 . S
C1174 C1188 1.377 . S
C1175 C1174 1.524 . S
C1175 C1176 1.397 . S
C1175 C1180 1.363 . S
C1176 H1153 0.950 . S
C1176 C1175 1.397 . S
C1176 C1177 1.334 . S
C1177 H1154 0.950 . S
C1177 C1176 1.334 . S
C1177 C1178 1.287 . S
C1178 C1177 1.287 . S
C1178 C1179 1.524 . S
C1178 H1197 0.913 . S
C1179 H1155 0.950 . S
C1179 C1178 1.524 . S
C1179 C1180 1.415 . S
C1180 H1156 0.950 . S
C1180 C1175 1.363 . S
C1180 C1179 1.415 . S
C1181 H1157 0.951 1_554 S
C1181 C1182 1.366 . S
C1181 C1183 1.388 . S
C1182 C1181 1.366 . S
C1182 C1186 1.385 . S
C1183 H1158 0.951 . S
C1183 C1181 1.388 . S
C1183 C1184 1.366 . S
C1184 C1183 1.366 . S
C1184 C1185 1.414 . S
C1184 C1187 1.499 . S
C1185 H1159 0.950 . S
C1185 C1184 1.414 . S
C1185 C1186 1.374 . S
C1186 H1160 0.950 . S
C1186 C1182 1.385 . S
C1186 C1185 1.374 . S
C1187 C1184 1.499 . S
C1187 C1188 1.373 . S
C1187 C1189 1.389 . S
C1188 H1161 0.950 . S
C1188 C1174 1.377 . S
C1188 C1187 1.373 . S
C1189 C1173 1.377 . S
C1189 C1187 1.389 . S
C1189 C1190 1.524 . S
C1190 C1189 1.524 . S
C1190 C1191 1.397 . S
C1190 C1195 1.363 . S
C1191 H1162 0.950 . S
C1191 C1190 1.397 . S
C1191 C1192 1.334 . S
C1192 H1163 0.950 . S
C1192 C1191 1.334 . S
C1192 C1193 1.287 . S
C1193 C1192 1.287 . S
C1193 C1194 1.524 . S
C1193 H1196 0.999 . S
C1194 H1164 0.950 1_554 S
C1194 C1193 1.524 . S
C1194 C1195 1.415 . S
C1195 H1165 0.950 . S
C1195 C1190 1.363 . S
C1195 C1194 1.415 . S
H1196 C1193 0.999 . S
H1197 C1178 0.913 . S
H1198 C1216 0.951 . S
H1199 C1218 0.951 . S
H1200 C1220 0.950 . S
H1201 C1221 0.950 . S
H1202 C1223 0.950 . S
H1203 C1226 0.950 . S
H1204 C1227 0.950 . S
H1205 C1229 0.950 . S
H1206 C1230 0.950 . S
H1207 C1231 0.951 . S
H1208 C1233 0.951 . S
H1209 C1235 0.950 . S
H1210 C1236 0.950 . S
H1211 C1238 0.950 . S
H1212 C1241 0.950 . S
H1213 C1242 0.950 . S
H1214 C1244 0.950 . S
H1215 C1245 0.950 . S
C1216 H1198 0.951 . S
C1216 C1217 1.366 . S
C1216 C1218 1.388 . S
C1217 C1216 1.366 . S
C1217 C1221 1.385 . S
C1218 H1199 0.951 . S
C1218 C1216 1.388 . S
C1218 C1219 1.366 . S
C1219 C1218 1.366 . S
C1219 C1220 1.414 . S
C1219 C1222 1.499 . S
C1220 H1200 0.950 . S
C1220 C1219 1.414 . S
C1220 C1221 1.374 . S
C1221 H1201 0.950 . S
C1221 C1217 1.385 . S
C1221 C1220 1.374 . S
C1222 C1219 1.499 . S
C1222 C1223 1.373 . S
C1222 C1224 1.389 . S
C1223 H1202 0.950 . S
C1223 C1222 1.373 . S
C1223 C1239 1.377 . S
C1224 C1222 1.389 . S
C1224 C1225 1.524 . S
C1224 C1238 1.377 . S
C1225 C1224 1.524 . S
C1225 C1226 1.397 . S
C1225 C1230 1.363 . S
C1226 H1203 0.950 . S
C1226 C1225 1.397 . S
C1226 C1227 1.334 . S
C1227 H1204 0.950 . S
C1227 C1226 1.334 . S
C1227 C1228 1.287 . S
C1228 C1227 1.287 . S
C1228 C1229 1.524 . S
C1228 H1247 0.913 . S
C1229 H1205 0.950 . S
C1229 C1228 1.524 . S
C1229 C1230 1.415 . S
C1230 H1206 0.950 . S
C1230 C1225 1.363 . S
C1230 C1229 1.415 . S
C1231 H1207 0.951 . S
C1231 C1232 1.366 . S
C1231 C1233 1.388 . S
C1232 C1231 1.366 . S
C1232 C1236 1.385 . S
C1233 H1208 0.951 . S
C1233 C1231 1.388 . S
C1233 C1234 1.366 . S
C1234 C1233 1.366 . S
C1234 C1235 1.414 . S
C1234 C1237 1.499 . S
C1235 H1209 0.950 . S
C1235 C1234 1.414 . S
C1235 C1236 1.374 . S
C1236 H1210 0.950 . S
C1236 C1232 1.385 . S
C1236 C1235 1.374 . S
C1237 C1234 1.499 . S
C1237 C1238 1.373 . S
C1237 C1239 1.389 . S
C1238 H1211 0.950 . S
C1238 C1224 1.377 . S
C1238 C1237 1.373 . S
C1239 C1223 1.377 . S
C1239 C1237 1.389 . S
C1239 C1240 1.524 . S
C1240 C1239 1.524 . S
C1240 C1241 1.397 . S
C1240 C1245 1.363 . S
C1241 H1212 0.950 . S
C1241 C1240 1.397 . S
C1241 C1242 1.334 . S
C1242 H1213 0.950 . S
C1242 C1241 1.334 . S
C1242 C1243 1.287 . S
C1243 C1242 1.287 . S
C1243 C1244 1.524 . S
C1243 H1246 0.999 . S
C1244 H1214 0.950 . S
C1244 C1243 1.524 . S
C1244 C1245 1.415 . S
C1245 H1215 0.950 . S
C1245 C1240 1.363 . S
C1245 C1244 1.415 . S
H1246 C1243 0.999 . S
H1247 C1228 0.913 . S
H1248 C1266 0.951 . S
H1249 C1268 0.951 . S
H1250 C1270 0.950 . S
H1251 C1271 0.950 . S
H1252 C1273 0.931 1_554 S
H1253 C1276 0.950 . S
H1254 C1277 0.950 . S
H1255 C1279 0.950 . S
H1256 C1280 0.950 . S
H1257 C1281 0.951 1_554 S
H1258 C1283 0.951 . S
H1259 C1285 0.950 1_455 S
H1260 C1286 0.950 . S
H1261 C1288 0.950 . S
H1262 C1291 0.950 . S
H1263 C1292 0.950 . S
H1264 C1294 0.950 . S
H1265 C1295 0.950 . S
C1266 H1248 0.951 . S
C1266 C1267 1.366 . S
C1266 C1268 1.388 . S
C1267 C1266 1.366 . S
C1267 C1271 1.385 . S
C1268 H1249 0.951 . S
C1268 C1266 1.388 . S
C1268 C1269 1.366 . S
C1269 C1268 1.366 . S
C1269 C1270 1.414 . S
C1269 C1272 1.499 . S
C1270 H1250 0.950 . S
C1270 C1269 1.414 . S
C1270 C1271 1.374 . S
C1271 H1251 0.950 . S
C1271 C1267 1.385 . S
C1271 C1270 1.374 . S
C1272 C1269 1.499 . S
C1272 C1273 1.373 . S
C1272 C1274 1.389 . S
C1273 H1252 0.931 1_556 S
C1273 C1272 1.373 . S
C1273 C1289 1.377 . S
C1274 C1272 1.389 . S
C1274 C1275 1.524 . S
C1274 C1288 1.377 . S
C1275 C1274 1.524 . S
C1275 C1276 1.397 . S
C1275 C1280 1.363 . S
C1276 H1253 0.950 . S
C1276 C1275 1.397 . S
C1276 C1277 1.334 . S
C1277 H1254 0.950 . S
C1277 C1276 1.334 . S
C1277 C1278 1.287 . S
C1278 C1277 1.287 . S
C1278 C1279 1.524 . S
C1278 H1297 0.913 . S
C1279 H1255 0.950 . S
C1279 C1278 1.524 . S
C1279 C1280 1.415 . S
C1280 H1256 0.950 . S
C1280 C1275 1.363 . S
C1280 C1279 1.415 . S
C1281 H1257 0.951 1_556 S
C1281 C1282 1.366 . S
C1281 C1283 1.388 . S
C1282 C1281 1.366 . S
C1282 C1286 1.385 1_655 S
C1283 H1258 0.951 . S
C1283 C1281 1.388 . S
C1283 C1284 1.366 . S
C1284 C1283 1.366 . S
C1284 C1285 1.414 . S
C1284 C1287 1.499 . S
C1285 H1259 0.950 1_655 S
C1285 C1284 1.414 . S
C1285 C1286 1.374 1_655 S
C1286 H1260 0.950 . S
C1286 C1282 1.385 1_455 S
C1286 C1285 1.374 1_455 S
C1287 C1284 1.499 . S
C1287 C1288 1.373 . S
C1287 C1289 1.389 . S
C1288 H1261 0.950 . S
C1288 C1274 1.377 . S
C1288 C1287 1.373 . S
C1289 C1273 1.377 . S
C1289 C1287 1.389 . S
C1289 C1290 1.524 1_556 S
C1290 C1289 1.524 1_554 S
C1290 C1291 1.397 . S
C1290 C1295 1.363 . S
C1291 H1262 0.950 . S
C1291 C1290 1.397 . S
C1291 C1292 1.334 . S
C1292 H1263 0.950 . S
C1292 C1291 1.334 . S
C1292 C1293 1.287 . S
C1293 C1292 1.287 . S
C1293 C1294 1.524 . S
C1293 H1296 0.999 . S
C1294 H1264 0.950 . S
C1294 C1293 1.524 . S
C1294 C1295 1.415 . S
C1295 H1265 0.950 . S
C1295 C1290 1.363 . S
C1295 C1294 1.415 . S
H1296 C1293 0.999 . S
H1297 C1278 0.913 . S
H1298 C1316 0.951 . S
H1299 C1318 0.951 . S
H1300 C1320 0.950 . S
H1301 C1321 0.950 . S
H1302 C1323 0.950 . S
H1303 C1326 0.950 . S
H1304 C1327 0.950 . S
H1305 C1329 0.950 . S
H1306 C1330 0.950 . S
H1307 C1331 0.951 . S
H1308 C1333 0.951 . S
H1309 C1335 0.950 . S
H1310 C1336 0.950 . S
H1311 C1338 0.950 . S
H1312 C1341 0.950 . S
H1313 C1342 0.950 . S
H1314 C1344 0.950 . S
H1315 C1345 0.950 . S
C1316 H1298 0.951 . S
C1316 C1317 1.366 . S
C1316 C1318 1.388 . S
C1317 C1316 1.366 . S
C1317 C1321 1.385 . S
C1318 H1299 0.951 . S
C1318 C1316 1.388 . S
C1318 C1319 1.366 . S
C1319 C1318 1.366 . S
C1319 C1320 1.414 . S
C1319 C1322 1.499 . S
C1320 H1300 0.950 . S
C1320 C1319 1.414 . S
C1320 C1321 1.374 . S
C1321 H1301 0.950 . S
C1321 C1317 1.385 . S
C1321 C1320 1.374 . S
C1322 C1319 1.499 . S
C1322 C1323 1.373 . S
C1322 C1324 1.389 . S
C1323 H1302 0.950 . S
C1323 C1322 1.373 . S
C1323 C1339 1.377 . S
C1324 C1322 1.389 . S
C1324 C1325 1.524 . S
C1324 C1338 1.377 . S
C1325 C1324 1.524 . S
C1325 C1326 1.397 . S
C1325 C1330 1.363 . S
C1326 H1303 0.950 . S
C1326 C1325 1.397 . S
C1326 C1327 1.334 . S
C1327 H1304 0.950 . S
C1327 C1326 1.334 . S
C1327 C1328 1.287 . S
C1328 C1327 1.287 . S
C1328 C1329 1.524 . S
C1328 H1347 0.913 . S
C1329 H1305 0.950 . S
C1329 C1328 1.524 . S
C1329 C1330 1.415 . S
C1330 H1306 0.950 . S
C1330 C1325 1.363 . S
C1330 C1329 1.415 . S
C1331 H1307 0.951 . S
C1331 C1332 1.366 . S
C1331 C1333 1.388 . S
C1332 C1331 1.366 . S
C1332 C1336 1.385 . S
C1333 H1308 0.951 . S
C1333 C1331 1.388 . S
C1333 C1334 1.366 . S
C1334 C1333 1.366 . S
C1334 C1335 1.414 . S
C1334 C1337 1.499 . S
C1335 H1309 0.950 . S
C1335 C1334 1.414 . S
C1335 C1336 1.374 . S
C1336 H1310 0.950 . S
C1336 C1332 1.385 . S
C1336 C1335 1.374 . S
C1337 C1334 1.499 . S
C1337 C1338 1.373 . S
C1337 C1339 1.389 . S
C1338 H1311 0.950 . S
C1338 C1324 1.377 . S
C1338 C1337 1.373 . S
C1339 C1323 1.377 . S
C1339 C1337 1.389 . S
C1339 C1340 1.524 . S
C1340 C1339 1.524 . S
C1340 C1341 1.397 . S
C1340 C1345 1.363 . S
C1341 H1312 0.950 . S
C1341 C1340 1.397 . S
C1341 C1342 1.334 . S
C1342 H1313 0.950 . S
C1342 C1341 1.334 . S
C1342 C1343 1.287 . S
C1343 C1342 1.287 . S
C1343 C1344 1.524 . S
C1343 H1346 0.999 . S
C1344 H1314 0.950 . S
C1344 C1343 1.524 . S
C1344 C1345 1.415 . S
C1345 H1315 0.950 . S
C1345 C1340 1.363 . S
C1345 C1344 1.415 . S
H1346 C1343 0.999 . S
H1347 C1328 0.913 . S
H1348 C1366 0.951 . S
H1349 C1368 0.951 . S
H1350 C1370 0.950 . S
H1351 C1371 0.950 . S
H1352 C1373 0.950 . S
H1353 C1376 0.950 . S
H1354 C1377 0.950 . S
H1355 C1379 0.950 . S
H1356 C1380 0.950 . S
H1357 C1381 0.951 . S
H1358 C1383 0.951 . S
H1359 C1385 0.950 . S
H1360 C1386 0.950 . S
H1361 C1388 0.950 . S
H1362 C1391 0.950 . S
H1363 C1392 0.950 . S
H1364 C1394 0.950 . S
H1365 C1395 0.950 . S
C1366 H1348 0.951 . S
C1366 C1367 1.366 . S
C1366 C1368 1.388 . S
C1367 C1366 1.366 . S
C1367 C1371 1.385 . S
C1368 H1349 0.951 . S
C1368 C1366 1.388 . S
C1368 C1369 1.366 . S
C1369 C1368 1.366 . S
C1369 C1370 1.414 . S
C1369 C1372 1.499 . S
C1370 H1350 0.950 . S
C1370 C1369 1.414 . S
C1370 C1371 1.374 . S
C1371 H1351 0.950 . S
C1371 C1367 1.385 . S
C1371 C1370 1.374 . S
C1372 C1369 1.499 . S
C1372 C1373 1.373 . S
C1372 C1374 1.389 . S
C1373 H1352 0.950 . S
C1373 C1372 1.373 . S
C1373 C1389 1.377 . S
C1374 C1372 1.389 . S
C1374 C1375 1.524 . S
C1374 C1388 1.377 . S
C1375 C1374 1.524 . S
C1375 C1376 1.397 . S
C1375 C1380 1.363 . S
C1376 H1353 0.950 . S
C1376 C1375 1.397 . S
C1376 C1377 1.334 . S
C1377 H1354 0.950 . S
C1377 C1376 1.334 . S
C1377 C1378 1.287 . S
C1378 C1377 1.287 . S
C1378 C1379 1.524 . S
C1378 H1397 0.913 . S
C1379 H1355 0.950 . S
C1379 C1378 1.524 . S
C1379 C1380 1.415 . S
C1380 H1356 0.950 . S
C1380 C1375 1.363 . S
C1380 C1379 1.415 . S
C1381 H1357 0.951 . S
C1381 C1382 1.366 . S
C1381 C1383 1.388 . S
C1382 C1381 1.366 . S
C1382 C1386 1.385 . S
C1383 H1358 0.951 . S
C1383 C1381 1.388 . S
C1383 C1384 1.366 . S
C1384 C1383 1.366 . S
C1384 C1385 1.414 . S
C1384 C1387 1.499 . S
C1385 H1359 0.950 . S
C1385 C1384 1.414 . S
C1385 C1386 1.374 . S
C1386 H1360 0.950 . S
C1386 C1382 1.385 . S
C1386 C1385 1.374 . S
C1387 C1384 1.499 . S
C1387 C1388 1.373 . S
C1387 C1389 1.389 . S
C1388 H1361 0.950 . S
C1388 C1374 1.377 . S
C1388 C1387 1.373 . S
C1389 C1373 1.377 . S
C1389 C1387 1.389 . S
C1389 C1390 1.524 . S
C1390 C1389 1.524 . S
C1390 C1391 1.397 . S
C1390 C1395 1.363 . S
C1391 H1362 0.950 . S
C1391 C1390 1.397 . S
C1391 C1392 1.334 . S
C1392 H1363 0.950 . S
C1392 C1391 1.334 . S
C1392 C1393 1.287 . S
C1393 C1392 1.287 . S
C1393 C1394 1.524 . S
C1393 H1396 0.999 . S
C1394 H1364 0.950 . S
C1394 C1393 1.524 . S
C1394 C1395 1.415 . S
C1395 H1365 0.950 . S
C1395 C1390 1.363 . S
C1395 C1394 1.415 . S
H1396 C1393 0.999 . S
H1397 C1378 0.913 . S
H1398 C1416 0.951 . S
H1399 C1418 0.951 . S
H1400 C1420 0.950 . S
H1401 C1421 0.950 . S
H1402 C1423 0.950 . S
H1403 C1426 0.950 . S
H1404 C1427 0.950 . S
H1405 C1429 0.950 . S
H1406 C1430 0.950 . S
H1407 C1431 0.951 . S
H1408 C1433 0.951 . S
H1409 C1435 0.950 . S
H1410 C1436 0.950 . S
H1411 C1438 0.950 . S
H1412 C1441 0.950 . S
H1413 C1442 0.950 . S
H1414 C1444 0.950 . S
H1415 C1445 0.950 . S
C1416 H1398 0.951 . S
C1416 C1417 1.366 . S
C1416 C1418 1.388 . S
C1417 C1416 1.366 . S
C1417 C1421 1.385 . S
C1418 H1399 0.951 . S
C1418 C1416 1.388 . S
C1418 C1419 1.366 . S
C1419 C1418 1.366 . S
C1419 C1420 1.414 . S
C1419 C1422 1.499 . S
C1420 H1400 0.950 . S
C1420 C1419 1.414 . S
C1420 C1421 1.374 . S
C1421 H1401 0.950 . S
C1421 C1417 1.385 . S
C1421 C1420 1.374 . S
C1422 C1419 1.499 . S
C1422 C1423 1.373 . S
C1422 C1424 1.389 . S
C1423 H1402 0.950 . S
C1423 C1422 1.373 . S
C1423 C1439 1.377 . S
C1424 C1422 1.389 . S
C1424 C1425 1.524 . S
C1424 C1438 1.377 . S
C1425 C1424 1.524 . S
C1425 C1426 1.397 . S
C1425 C1430 1.363 . S
C1426 H1403 0.950 . S
C1426 C1425 1.397 . S
C1426 C1427 1.334 . S
C1427 H1404 0.950 . S
C1427 C1426 1.334 . S
C1427 C1428 1.287 . S
C1428 C1427 1.287 . S
C1428 C1429 1.524 . S
C1428 H1447 0.913 . S
C1429 H1405 0.950 . S
C1429 C1428 1.524 . S
C1429 C1430 1.415 . S
C1430 H1406 0.950 . S
C1430 C1425 1.363 . S
C1430 C1429 1.415 . S
C1431 H1407 0.951 . S
C1431 C1432 1.366 . S
C1431 C1433 1.388 . S
C1432 C1431 1.366 . S
C1432 C1436 1.385 . S
C1433 H1408 0.951 . S
C1433 C1431 1.388 . S
C1433 C1434 1.366 . S
C1434 C1433 1.366 . S
C1434 C1435 1.414 . S
C1434 C1437 1.499 . S
C1435 H1409 0.950 . S
C1435 C1434 1.414 . S
C1435 C1436 1.374 . S
C1436 H1410 0.950 . S
C1436 C1432 1.385 . S
C1436 C1435 1.374 . S
C1437 C1434 1.499 . S
C1437 C1438 1.373 . S
C1437 C1439 1.389 . S
C1438 H1411 0.950 . S
C1438 C1424 1.377 . S
C1438 C1437 1.373 . S
C1439 C1423 1.377 . S
C1439 C1437 1.389 . S
C1439 C1440 1.524 . S
C1440 C1439 1.524 . S
C1440 C1441 1.397 . S
C1440 C1445 1.363 . S
C1441 H1412 0.950 . S
C1441 C1440 1.397 . S
C1441 C1442 1.334 . S
C1442 H1413 0.950 . S
C1442 C1441 1.334 . S
C1442 C1443 1.287 . S
C1443 C1442 1.287 . S
C1443 C1444 1.524 . S
C1443 H1446 0.999 . S
C1444 H1414 0.950 . S
C1444 C1443 1.524 . S
C1444 C1445 1.415 . S
C1445 H1415 0.950 . S
C1445 C1440 1.363 . S
C1445 C1444 1.415 . S
H1446 C1443 0.999 . S
H1447 C1428 0.913 . S
C267 C5 3.082 . S
C282 C107 3.268 . S
C317 C18 2.332 . S
C332 C138 2.348 1_556 S
C382 C177 0.894 . S
C367 C30 0.913 . S
C417 C41 0.287 . S
C432 C214 0.290 . S
C482 C137 3.235 . S
C467 C7 3.275 . S
C532 C94 1.756 . S
C517 C16 1.651 . S
C582 C226 1.338 . S
C567 C29 1.316 . S
C632 C183 0.592 . S
C617 C38 0.695 . S
C667 C8 2.495 . S
C682 C227 2.488 . S
C732 C143 1.491 . S
C717 C27 1.323 . S
C767 C40 0.522 . S
C782 C106 0.505 . S
C817 C19 2.104 . S
C832 C178 2.101 . S
C882 C98 3.034 . S
C867 C51 2.964 . S
C917 C62 2.434 . S
C932 C147 2.508 . S
C967 C74 1.128 . S
C982 C186 1.108 . S
C1017 C84 0.473 . S
C1032 C223 0.261 . S
C1067 C49 3.109 . S
C1082 C146 3.244 . S
C1132 C103 1.468 . S
C1117 C63 1.467 . S
C1182 C217 1.182 . S
C1167 C71 1.059 . S
C1232 C174 0.676 . S
C1217 C85 0.668 . S
C1267 C52 2.341 . S
C1282 C218 2.353 1_655 S
C1332 C134 1.485 . S
C1317 C73 1.411 . S
C1382 C97 0.423 . S
C1367 C82 0.608 . S
C1417 C60 2.438 . S
C1432 C187 2.492 . S
