# Generated by pormake.
# Topology gar, (4,6)-cn, num edge types: 1
# Building blocks:
#     Node 0, Type 0, BuildingBlock: AZAVOO_clean_sbu_0, # of connection points: 4
#     Node 1, Type 0, BuildingBlock: AZAVOO_clean_sbu_0, # of connection points: 4
#     Node 2, Type 0, BuildingBlock: AZAVOO_clean_sbu_0, # of connection points: 4
#     Node 3, Type 0, BuildingBlock: AZAVOO_clean_sbu_0, # of connection points: 4
#     Node 4, Type 0, BuildingBlock: AZAVOO_clean_sbu_0, # of connection points: 4
#     Node 5, Type 0, BuildingBlock: AZAVOO_clean_sbu_0, # of connection points: 4
#     Node 6, Type 0, BuildingBlock: AZAVOO_clean_sbu_0, # of connection points: 4
#     Node 7, Type 0, BuildingBlock: AZAVOO_clean_sbu_0, # of connection points: 4
#     Node 8, Type 0, BuildingBlock: AZAVOO_clean_sbu_0, # of connection points: 4
#     Node 9, Type 0, BuildingBlock: AZAVOO_clean_sbu_0, # of connection points: 4
#     Node 10, Type 0, BuildingBlock: AZAVOO_clean_sbu_0, # of connection points: 4
#     Node 11, Type 0, BuildingBlock: AZAVOO_clean_sbu_0, # of connection points: 4
#     Node 12, Type 0, BuildingBlock: AZAVOO_clean_sbu_0, # of connection points: 4
#     Node 13, Type 0, BuildingBlock: AZAVOO_clean_sbu_0, # of connection points: 4
#     Node 14, Type 0, BuildingBlock: AZAVOO_clean_sbu_0, # of connection points: 4
#     Node 15, Type 0, BuildingBlock: AZAVOO_clean_sbu_0, # of connection points: 4
#     Node 16, Type 0, BuildingBlock: AZAVOO_clean_sbu_0, # of connection points: 4
#     Node 17, Type 0, BuildingBlock: AZAVOO_clean_sbu_0, # of connection points: 4
#     Node 18, Type 0, BuildingBlock: AZAVOO_clean_sbu_0, # of connection points: 4
#     Node 19, Type 0, BuildingBlock: AZAVOO_clean_sbu_0, # of connection points: 4
#     Node 20, Type 0, BuildingBlock: AZAVOO_clean_sbu_0, # of connection points: 4
#     Node 21, Type 0, BuildingBlock: AZAVOO_clean_sbu_0, # of connection points: 4
#     Node 22, Type 0, BuildingBlock: AZAVOO_clean_sbu_0, # of connection points: 4
#     Node 23, Type 0, BuildingBlock: AZAVOO_clean_sbu_0, # of connection points: 4
#     Node 24, Type 1, BuildingBlock: KUMBUR_clean_sbu_0, # of connection points: 6
#     Node 25, Type 1, BuildingBlock: KUMBUR_clean_sbu_0, # of connection points: 6
#     Node 26, Type 1, BuildingBlock: KUMBUR_clean_sbu_0, # of connection points: 6
#     Node 27, Type 1, BuildingBlock: KUMBUR_clean_sbu_0, # of connection points: 6
#     Node 28, Type 1, BuildingBlock: KUMBUR_clean_sbu_0, # of connection points: 6
#     Node 29, Type 1, BuildingBlock: KUMBUR_clean_sbu_0, # of connection points: 6
#     Node 30, Type 1, BuildingBlock: KUMBUR_clean_sbu_0, # of connection points: 6
#     Node 31, Type 1, BuildingBlock: KUMBUR_clean_sbu_0, # of connection points: 6
#     Node 32, Type 1, BuildingBlock: KUMBUR_clean_sbu_0, # of connection points: 6
#     Node 33, Type 1, BuildingBlock: KUMBUR_clean_sbu_0, # of connection points: 6
#     Node 34, Type 1, BuildingBlock: KUMBUR_clean_sbu_0, # of connection points: 6
#     Node 35, Type 1, BuildingBlock: KUMBUR_clean_sbu_0, # of connection points: 6
#     Node 36, Type 1, BuildingBlock: KUMBUR_clean_sbu_0, # of connection points: 6
#     Node 37, Type 1, BuildingBlock: KUMBUR_clean_sbu_0, # of connection points: 6
#     Node 38, Type 1, BuildingBlock: KUMBUR_clean_sbu_0, # of connection points: 6
#     Node 39, Type 1, BuildingBlock: KUMBUR_clean_sbu_0, # of connection points: 6
#     Edge 40, Type (0, 1), BuildingBlock: UVAHIK_clean_linker_0, # of connection points: 2
#     Edge 41, Type (0, 1), BuildingBlock: UVAHIK_clean_linker_0, # of connection points: 2
#     Edge 42, Type (0, 1), BuildingBlock: UVAHIK_clean_linker_0, # of connection points: 2
#     Edge 43, Type (0, 1), BuildingBlock: UVAHIK_clean_linker_0, # of connection points: 2
#     Edge 44, Type (0, 1), BuildingBlock: UVAHIK_clean_linker_0, # of connection points: 2
#     Edge 45, Type (0, 1), BuildingBlock: UVAHIK_clean_linker_0, # of connection points: 2
#     Edge 46, Type (0, 1), BuildingBlock: UVAHIK_clean_linker_0, # of connection points: 2
#     Edge 47, Type (0, 1), BuildingBlock: UVAHIK_clean_linker_0, # of connection points: 2
#     Edge 48, Type (0, 1), BuildingBlock: UVAHIK_clean_linker_0, # of connection points: 2
#     Edge 49, Type (0, 1), BuildingBlock: UVAHIK_clean_linker_0, # of connection points: 2
#     Edge 50, Type (0, 1), BuildingBlock: UVAHIK_clean_linker_0, # of connection points: 2
#     Edge 51, Type (0, 1), BuildingBlock: UVAHIK_clean_linker_0, # of connection points: 2
#     Edge 52, Type (0, 1), BuildingBlock: UVAHIK_clean_linker_0, # of connection points: 2
#     Edge 53, Type (0, 1), BuildingBlock: UVAHIK_clean_linker_0, # of connection points: 2
#     Edge 54, Type (0, 1), BuildingBlock: UVAHIK_clean_linker_0, # of connection points: 2
#     Edge 55, Type (0, 1), BuildingBlock: UVAHIK_clean_linker_0, # of connection points: 2
#     Edge 56, Type (0, 1), BuildingBlock: UVAHIK_clean_linker_0, # of connection points: 2
#     Edge 57, Type (0, 1), BuildingBlock: UVAHIK_clean_linker_0, # of connection points: 2
#     Edge 58, Type (0, 1), BuildingBlock: UVAHIK_clean_linker_0, # of connection points: 2
#     Edge 59, Type (0, 1), BuildingBlock: UVAHIK_clean_linker_0, # of connection points: 2
#     Edge 60, Type (0, 1), BuildingBlock: UVAHIK_clean_linker_0, # of connection points: 2
#     Edge 61, Type (0, 1), BuildingBlock: UVAHIK_clean_linker_0, # of connection points: 2
#     Edge 62, Type (0, 1), BuildingBlock: UVAHIK_clean_linker_0, # of connection points: 2
#     Edge 63, Type (0, 1), BuildingBlock: UVAHIK_clean_linker_0, # of connection points: 2
#     Edge 64, Type (0, 1), BuildingBlock: UVAHIK_clean_linker_0, # of connection points: 2
#     Edge 65, Type (0, 1), BuildingBlock: UVAHIK_clean_linker_0, # of connection points: 2
#     Edge 66, Type (0, 1), BuildingBlock: UVAHIK_clean_linker_0, # of connection points: 2
#     Edge 67, Type (0, 1), BuildingBlock: UVAHIK_clean_linker_0, # of connection points: 2
#     Edge 68, Type (0, 1), BuildingBlock: UVAHIK_clean_linker_0, # of connection points: 2
#     Edge 69, Type (0, 1), BuildingBlock: UVAHIK_clean_linker_0, # of connection points: 2
#     Edge 70, Type (0, 1), BuildingBlock: UVAHIK_clean_linker_0, # of connection points: 2
#     Edge 71, Type (0, 1), BuildingBlock: UVAHIK_clean_linker_0, # of connection points: 2
#     Edge 72, Type (0, 1), BuildingBlock: UVAHIK_clean_linker_0, # of connection points: 2
#     Edge 73, Type (0, 1), BuildingBlock: UVAHIK_clean_linker_0, # of connection points: 2
#     Edge 74, Type (0, 1), BuildingBlock: UVAHIK_clean_linker_0, # of connection points: 2
#     Edge 75, Type (0, 1), BuildingBlock: UVAHIK_clean_linker_0, # of connection points: 2
#     Edge 76, Type (0, 1), BuildingBlock: UVAHIK_clean_linker_0, # of connection points: 2
#     Edge 77, Type (0, 1), BuildingBlock: UVAHIK_clean_linker_0, # of connection points: 2
#     Edge 78, Type (0, 1), BuildingBlock: UVAHIK_clean_linker_0, # of connection points: 2
#     Edge 79, Type (0, 1), BuildingBlock: UVAHIK_clean_linker_0, # of connection points: 2
#     Edge 80, Type (0, 1), BuildingBlock: UVAHIK_clean_linker_0, # of connection points: 2
#     Edge 81, Type (0, 1), BuildingBlock: UVAHIK_clean_linker_0, # of connection points: 2
#     Edge 82, Type (0, 1), BuildingBlock: UVAHIK_clean_linker_0, # of connection points: 2
#     Edge 83, Type (0, 1), BuildingBlock: UVAHIK_clean_linker_0, # of connection points: 2
#     Edge 84, Type (0, 1), BuildingBlock: UVAHIK_clean_linker_0, # of connection points: 2
#     Edge 85, Type (0, 1), BuildingBlock: UVAHIK_clean_linker_0, # of connection points: 2
#     Edge 86, Type (0, 1), BuildingBlock: UVAHIK_clean_linker_0, # of connection points: 2
#     Edge 87, Type (0, 1), BuildingBlock: UVAHIK_clean_linker_0, # of connection points: 2
#     Edge 88, Type (0, 1), BuildingBlock: UVAHIK_clean_linker_0, # of connection points: 2
#     Edge 89, Type (0, 1), BuildingBlock: UVAHIK_clean_linker_0, # of connection points: 2
#     Edge 90, Type (0, 1), BuildingBlock: UVAHIK_clean_linker_0, # of connection points: 2
#     Edge 91, Type (0, 1), BuildingBlock: UVAHIK_clean_linker_0, # of connection points: 2
#     Edge 92, Type (0, 1), BuildingBlock: UVAHIK_clean_linker_0, # of connection points: 2
#     Edge 93, Type (0, 1), BuildingBlock: UVAHIK_clean_linker_0, # of connection points: 2
#     Edge 94, Type (0, 1), BuildingBlock: UVAHIK_clean_linker_0, # of connection points: 2
#     Edge 95, Type (0, 1), BuildingBlock: UVAHIK_clean_linker_0, # of connection points: 2
#     Edge 96, Type (0, 1), BuildingBlock: UVAHIK_clean_linker_0, # of connection points: 2
#     Edge 97, Type (0, 1), BuildingBlock: UVAHIK_clean_linker_0, # of connection points: 2
#     Edge 98, Type (0, 1), BuildingBlock: UVAHIK_clean_linker_0, # of connection points: 2
#     Edge 99, Type (0, 1), BuildingBlock: UVAHIK_clean_linker_0, # of connection points: 2
#     Edge 100, Type (0, 1), BuildingBlock: UVAHIK_clean_linker_0, # of connection points: 2
#     Edge 101, Type (0, 1), BuildingBlock: UVAHIK_clean_linker_0, # of connection points: 2
#     Edge 102, Type (0, 1), BuildingBlock: UVAHIK_clean_linker_0, # of connection points: 2
#     Edge 103, Type (0, 1), BuildingBlock: UVAHIK_clean_linker_0, # of connection points: 2
#     Edge 104, Type (0, 1), BuildingBlock: UVAHIK_clean_linker_0, # of connection points: 2
#     Edge 105, Type (0, 1), BuildingBlock: UVAHIK_clean_linker_0, # of connection points: 2
#     Edge 106, Type (0, 1), BuildingBlock: UVAHIK_clean_linker_0, # of connection points: 2
#     Edge 107, Type (0, 1), BuildingBlock: UVAHIK_clean_linker_0, # of connection points: 2
#     Edge 108, Type (0, 1), BuildingBlock: UVAHIK_clean_linker_0, # of connection points: 2
#     Edge 109, Type (0, 1), BuildingBlock: UVAHIK_clean_linker_0, # of connection points: 2
#     Edge 110, Type (0, 1), BuildingBlock: UVAHIK_clean_linker_0, # of connection points: 2
#     Edge 111, Type (0, 1), BuildingBlock: UVAHIK_clean_linker_0, # of connection points: 2
#     Edge 112, Type (0, 1), BuildingBlock: UVAHIK_clean_linker_0, # of connection points: 2
#     Edge 113, Type (0, 1), BuildingBlock: UVAHIK_clean_linker_0, # of connection points: 2
#     Edge 114, Type (0, 1), BuildingBlock: UVAHIK_clean_linker_0, # of connection points: 2
#     Edge 115, Type (0, 1), BuildingBlock: UVAHIK_clean_linker_0, # of connection points: 2
#     Edge 116, Type (0, 1), BuildingBlock: UVAHIK_clean_linker_0, # of connection points: 2
#     Edge 117, Type (0, 1), BuildingBlock: UVAHIK_clean_linker_0, # of connection points: 2
#     Edge 118, Type (0, 1), BuildingBlock: UVAHIK_clean_linker_0, # of connection points: 2
#     Edge 119, Type (0, 1), BuildingBlock: UVAHIK_clean_linker_0, # of connection points: 2
#     Edge 120, Type (0, 1), BuildingBlock: UVAHIK_clean_linker_0, # of connection points: 2
#     Edge 121, Type (0, 1), BuildingBlock: UVAHIK_clean_linker_0, # of connection points: 2
#     Edge 122, Type (0, 1), BuildingBlock: UVAHIK_clean_linker_0, # of connection points: 2
#     Edge 123, Type (0, 1), BuildingBlock: UVAHIK_clean_linker_0, # of connection points: 2
#     Edge 124, Type (0, 1), BuildingBlock: UVAHIK_clean_linker_0, # of connection points: 2
#     Edge 125, Type (0, 1), BuildingBlock: UVAHIK_clean_linker_0, # of connection points: 2
#     Edge 126, Type (0, 1), BuildingBlock: UVAHIK_clean_linker_0, # of connection points: 2
#     Edge 127, Type (0, 1), BuildingBlock: UVAHIK_clean_linker_0, # of connection points: 2
#     Edge 128, Type (0, 1), BuildingBlock: UVAHIK_clean_linker_0, # of connection points: 2
#     Edge 129, Type (0, 1), BuildingBlock: UVAHIK_clean_linker_0, # of connection points: 2
#     Edge 130, Type (0, 1), BuildingBlock: UVAHIK_clean_linker_0, # of connection points: 2
#     Edge 131, Type (0, 1), BuildingBlock: UVAHIK_clean_linker_0, # of connection points: 2
#     Edge 132, Type (0, 1), BuildingBlock: UVAHIK_clean_linker_0, # of connection points: 2
#     Edge 133, Type (0, 1), BuildingBlock: UVAHIK_clean_linker_0, # of connection points: 2
#     Edge 134, Type (0, 1), BuildingBlock: UVAHIK_clean_linker_0, # of connection points: 2
#     Edge 135, Type (0, 1), BuildingBlock: UVAHIK_clean_linker_0, # of connection points: 2
# Relax obj value: 0.135
# Max RMSD: 0.308
# Mean RMSD: 0.189
data_MOF--net-gar--node1-AZAVOO_clean_sbu_0--node2-KUMBUR_clean_sbu_0--edge1-UVAHIK_clean_linker_0
_symmetry_space_group_name_H-M    P1
_symmetry_Int_Tables_number       1
_symmetry_cell_setting            triclinic
loop_
_symmetry_equiv_pos_as_xyz
'x, y, z'
_cell_length_a     77.499873
_cell_length_b     70.853451
_cell_length_c     71.746908
_cell_angle_alpha  102.60852
_cell_angle_beta   92.676131
_cell_angle_gamma 103.50978
loop_
_atom_site_label
_atom_site_type_symbol
_atom_site_fract_x
_atom_site_fract_y
_atom_site_fract_z
_atom_type_partial_charge
Mg0 Mg 0.08796 0.29849 0.36033 0.0
O1 O 0.09581 0.32861 0.38044 0.0
O2 O 0.07334 0.33385 0.39748 0.0
Mg3 Mg 0.05074 0.30582 0.38833 0.0
C4 C 0.08916 0.33933 0.39306 0.0
C5 C 0.12307 0.32195 0.35204 0.0
O6 O 0.11217 0.3329 0.34904 0.0
O7 O 0.09224 0.28503 0.38564 0.0
O8 O 0.06914 0.29062 0.40182 0.0
O9 O 0.07553 0.31123 0.33888 0.0
O10 O 0.06123 0.29749 0.36062 0.0
C11 C 0.0832 0.28421 0.40001 0.0
C12 C 0.06112 0.30668 0.34708 0.0
O13 O 0.11689 0.30508 0.3558 0.0
Mg14 Mg 7e-05 0.77224 0.67035 0.0
O15 O 0.99314 0.74389 0.64823 0.0
O16 O 0.9651 0.73482 0.63433 0.0
Mg17 Mg 0.95516 0.76236 0.64643 0.0
C18 C 0.98052 0.73177 0.63665 0.0
C19 C 0.03347 0.76936 0.68938 0.0
O20 O 0.02377 0.77372 0.70347 0.0
O21 O 0.00448 0.78793 0.64693 0.0
O22 O 0.97693 0.7806 0.63188 0.0
O23 O 0.98904 0.75616 0.69116 0.0
O24 O 0.97352 0.76952 0.67289 0.0
C25 C 0.99368 0.78869 0.63339 0.0
C26 C 0.97399 0.75879 0.6852 0.0
O27 O 0.02797 0.76938 0.67249 0.0
Mg28 Mg 0.58644 0.79732 0.86123 0.0
O29 O 0.59506 0.82817 0.88049 0.0
O30 O 0.57269 0.83467 0.89716 0.0
Mg31 Mg 0.54975 0.80692 0.8891 0.0
C32 C 0.58855 0.83958 0.89266 0.0
C33 C 0.62194 0.81826 0.85242 0.0
O34 O 0.61161 0.82977 0.84928 0.0
O35 O 0.59067 0.78522 0.88718 0.0
O36 O 0.56796 0.79205 0.90335 0.0
O37 O 0.57439 0.80935 0.83895 0.0
O38 O 0.56001 0.7973 0.86157 0.0
C39 C 0.58188 0.78532 0.90177 0.0
C40 C 0.56004 0.80574 0.84747 0.0
O41 O 0.61511 0.80169 0.85638 0.0
Mg42 Mg 0.49761 0.2757 0.1751 0.0
O43 O 0.49539 0.24682 0.15359 0.0
O44 O 0.46906 0.23653 0.13567 0.0
Mg45 Mg 0.45619 0.26232 0.14305 0.0
C46 C 0.48414 0.23399 0.14087 0.0
C47 C 0.52925 0.26076 0.1865 0.0
O48 O 0.51584 0.2453 0.18591 0.0
O49 O 0.50496 0.29217 0.15225 0.0
O50 O 0.47969 0.28208 0.13237 0.0
O51 O 0.48355 0.25845 0.19393 0.0
O52 O 0.47018 0.26973 0.17211 0.0
C53 C 0.496 0.29176 0.13679 0.0
C54 C 0.46905 0.25872 0.18438 0.0
O55 O 0.52619 0.27655 0.18296 0.0
Mg56 Mg 0.08222 0.82425 0.1239 0.0
O57 O 0.07731 0.79332 0.10292 0.0
O58 O 0.05145 0.78708 0.08478 0.0
Mg59 Mg 0.0386 0.81311 0.09454 0.0
C60 C 0.06558 0.78223 0.08946 0.0
C61 C 0.11803 0.82957 0.15002 0.0
O62 O 0.10813 0.83824 0.16173 0.0
O63 O 0.08836 0.84183 0.09973 0.0
O64 O 0.06082 0.83471 0.08454 0.0
O65 O 0.06564 0.81068 0.14536 0.0
O66 O 0.05416 0.82201 0.12294 0.0
C67 C 0.07732 0.84383 0.08677 0.0
C68 C 0.05171 0.81393 0.13725 0.0
O69 O 0.11185 0.82278 0.13235 0.0
Mg70 Mg 0.51176 0.76008 0.41811 0.0
O71 O 0.51657 0.79086 0.43895 0.0
O72 O 0.49369 0.79042 0.45681 0.0
Mg73 Mg 0.47279 0.7605 0.44504 0.0
C74 C 0.50875 0.79927 0.45244 0.0
C75 C 0.54488 0.75799 0.39591 0.0
O76 O 0.53153 0.74583 0.38395 0.0
O77 O 0.51668 0.74487 0.44246 0.0
O78 O 0.49088 0.74232 0.45555 0.0
O79 O 0.49829 0.77034 0.39525 0.0
O80 O 0.48373 0.75716 0.41684 0.0
C81 C 0.50609 0.73829 0.45405 0.0
C82 C 0.48333 0.76509 0.4023 0.0
O83 O 0.54152 0.76662 0.41236 0.0
Mg84 Mg 0.58151 0.32328 0.6231 0.0
O85 O 0.5768 0.29206 0.60268 0.0
O86 O 0.55111 0.28528 0.5841 0.0
Mg87 Mg 0.5375 0.31064 0.59417 0.0
C88 C 0.56532 0.28071 0.58909 0.0
C89 C 0.61671 0.32782 0.64957 0.0
O90 O 0.60589 0.33465 0.66133 0.0
O91 O 0.58692 0.3401 0.59812 0.0
O92 O 0.55908 0.33226 0.58352 0.0
O93 O 0.56538 0.31025 0.64524 0.0
O94 O 0.55345 0.32059 0.62236 0.0
C95 C 0.57549 0.34163 0.58525 0.0
C96 C 0.55129 0.31311 0.63707 0.0
O97 O 0.61137 0.32254 0.63161 0.0
Mg98 Mg 0.0112 0.26043 0.91715 0.0
O99 O 0.01587 0.29056 0.93899 0.0
O100 O 0.99349 0.28902 0.95755 0.0
Mg101 Mg 0.97346 0.25841 0.94557 0.0
C102 C 0.00819 0.29841 0.9529 0.0
C103 C 0.04464 0.2578 0.89575 0.0
O104 O 0.03176 0.24369 0.88486 0.0
O105 O 0.01725 0.24386 0.93991 0.0
O106 O 0.99265 0.24066 0.95513 0.0
O107 O 0.99722 0.27269 0.89658 0.0
O108 O 0.98289 0.25621 0.91632 0.0
C109 C 0.00783 0.23697 0.95223 0.0
C110 C 0.9823 0.26605 0.90318 0.0
O111 O 0.04083 0.26811 0.91115 0.0
Mg112 Mg 0.42001 0.05971 0.30888 0.0
O113 O 0.40515 0.02763 0.30505 0.0
O114 O 0.39227 0.0238 0.33168 0.0
Mg115 Mg 0.40082 0.05308 0.35356 0.0
C116 C 0.39538 0.01705 0.31456 0.0
C117 C 0.42704 0.03815 0.27056 0.0
O118 O 0.43078 0.02707 0.28188 0.0
O119 O 0.39357 0.06586 0.30648 0.0
O120 O 0.3835 0.06475 0.33513 0.0
O121 O 0.44396 0.05304 0.31868 0.0
O122 O 0.42362 0.06226 0.33743 0.0
C123 C 0.38188 0.06742 0.31821 0.0
C124 C 0.43696 0.05434 0.33483 0.0
O125 O 0.42164 0.05358 0.27745 0.0
Mg126 Mg 0.29459 0.18536 0.49807 0.0
O127 O 0.29801 0.20598 0.52836 0.0
O128 O 0.32546 0.22626 0.53318 0.0
Mg129 Mg 0.3398 0.21832 0.50644 0.0
C130 C 0.31019 0.22024 0.53875 0.0
C131 C 0.25771 0.15676 0.49355 0.0
O132 O 0.26837 0.14547 0.48694 0.0
O133 O 0.29225 0.21024 0.48356 0.0
O134 O 0.32058 0.22847 0.48781 0.0
O135 O 0.3061 0.1636 0.50969 0.0
O136 O 0.32214 0.18782 0.4982 0.0
C137 C 0.30434 0.22479 0.48085 0.0
C138 C 0.32147 0.17289 0.5058 0.0
O139 O 0.26432 0.17547 0.49955 0.0
Mg140 Mg 0.15616 1.00098 0.76331 0.0
O141 O 0.17654 0.03348 0.76774 0.0
O142 O 0.19392 0.03824 0.79471 0.0
Mg143 Mg 0.18389 0.01163 0.80949 0.0
C144 C 0.18951 0.04445 0.78015 0.0
C145 C 0.12975 0.99721 0.72345 0.0
O146 O 0.11791 0.98883 0.73365 0.0
O147 O 0.17803 0.97959 0.75761 0.0
O148 O 0.19104 0.98574 0.78754 0.0
O149 O 0.13564 0.01365 0.78239 0.0
O150 O 0.1563 0.00283 0.79466 0.0
C151 C 0.18859 0.9756 0.7701 0.0
C152 C 0.1426 0.00999 0.79748 0.0
O153 O 0.14628 0.00257 0.73055 0.0
Mg154 Mg 0.31839 0.95165 0.02777 0.0
O155 O 0.32168 0.93356 0.99897 0.0
O156 O 0.34933 0.92904 0.99945 0.0
Mg157 Mg 0.36387 0.9456 0.02864 0.0
C158 C 0.33385 0.92648 0.99103 0.0
C159 C 0.2866 0.96157 0.03016 0.0
O160 O 0.29934 0.97352 0.04305 0.0
O161 O 0.31606 0.92433 0.03894 0.0
O162 O 0.34485 0.92346 0.04124 0.0
O163 O 0.32861 0.9795 0.01843 0.0
O164 O 0.34457 0.96378 0.03345 0.0
C165 C 0.32851 0.9167 0.04348 0.0
C166 C 0.34385 0.97786 0.02508 0.0
O167 O 0.28947 0.94587 0.01988 0.0
Mg168 Mg 0.29986 0.39597 0.04185 0.0
O169 O 0.29704 0.37347 0.01226 0.0
O170 O 0.32018 0.35983 0.01322 0.0
Mg171 Mg 0.33619 0.37128 0.04288 0.0
C172 C 0.30632 0.36184 0.00431 0.0
C173 C 0.26585 0.41124 0.04815 0.0
O174 O 0.27482 0.4181 0.06525 0.0
O175 O 0.28926 0.37171 0.05787 0.0
O176 O 0.31287 0.35879 0.05923 0.0
O177 O 0.31859 0.41925 0.03072 0.0
O178 O 0.32752 0.39913 0.04637 0.0
C179 C 0.29727 0.35985 0.06365 0.0
C180 C 0.33158 0.41334 0.03763 0.0
O181 O 0.27224 0.40048 0.03503 0.0
Mg182 Mg 0.77279 0.12673 0.00293 0.0
O183 O 0.76687 0.14208 0.03337 0.0
O184 O 0.79325 0.16462 0.04303 0.0
Mg185 Mg 0.81508 0.16225 0.02375 0.0
C186 C 0.77707 0.15716 0.04541 0.0
C187 C 0.72995 0.10657 0.99283 0.0
O188 O 0.71603 0.10071 0.9799 0.0
O189 O 0.7721 0.15506 0.99553 0.0
O190 O 0.79889 0.17604 0.00543 0.0
O191 O 0.7822 0.10206 0.01207 0.0
O192 O 0.79845 0.13226 0.01284 0.0
C193 C 0.78304 0.17187 0.99723 0.0
C194 C 0.79765 0.11481 0.01548 0.0
O195 O 0.74488 0.11462 0.98818 0.0
Mg196 Mg 0.18553 0.52741 0.23324 0.0
O197 O 0.18994 0.56065 0.24526 0.0
O198 O 0.19211 0.56791 0.27732 0.0
Mg199 Mg 0.20379 0.54351 0.28413 0.0
C200 C 0.19164 0.57311 0.2614 0.0
C201 C 0.16525 0.51659 0.19815 0.0
O202 O 0.16182 0.50141 0.20633 0.0
O203 O 0.21497 0.53497 0.22889 0.0
O204 O 0.22081 0.54705 0.25933 0.0
O205 O 0.15892 0.52197 0.24428 0.0
O206 O 0.18379 0.52309 0.26134 0.0
C207 C 0.22142 0.53332 0.24474 0.0
C208 C 0.16705 0.52234 0.26051 0.0
O209 O 0.17889 0.53075 0.2046 0.0
Mg210 Mg 0.79905 0.89448 0.54263 0.0
O211 O 0.7957 0.87379 0.51242 0.0
O212 O 0.81636 0.8564 0.51149 0.0
Mg213 Mg 0.83462 0.8685 0.53993 0.0
C214 C 0.80301 0.86049 0.50366 0.0
C215 C 0.76679 0.91286 0.54814 0.0
O216 O 0.77867 0.92503 0.56176 0.0
O217 O 0.78911 0.86924 0.55741 0.0
O218 O 0.81275 0.85631 0.55803 0.0
O219 O 0.81687 0.91881 0.53231 0.0
O220 O 0.82675 0.89721 0.54506 0.0
C221 C 0.79731 0.85745 0.56295 0.0
C222 C 0.83024 0.9123 0.53734 0.0
O223 O 0.77091 0.89818 0.53736 0.0
Mg224 Mg 0.93858 0.07855 0.27775 0.0
O225 O 0.9175 0.04654 0.27395 0.0
O226 O 0.90388 0.05011 0.30077 0.0
Mg227 Mg 0.91554 0.08132 0.32149 0.0
C228 C 0.9061 0.03928 0.28471 0.0
C229 C 0.96082 0.08143 0.24023 0.0
O230 O 0.97189 0.09411 0.25431 0.0
O231 O 0.91669 0.09793 0.27368 0.0
O232 O 0.90658 0.10127 0.3025 0.0
O233 O 0.9595 0.06711 0.29349 0.0
O234 O 0.94131 0.08216 0.30914 0.0
C235 C 0.90736 0.10591 0.28621 0.0
C236 C 0.95395 0.0732 0.3099 0.0
O237 O 0.94554 0.07246 0.24445 0.0
Mg238 Mg 0.27527 0.62096 0.50727 0.0
O239 O 0.267 0.63719 0.53608 0.0
O240 O 0.28981 0.6647 0.5448 0.0
Mg241 Mg 0.31149 0.66595 0.52502 0.0
C242 C 0.27477 0.65409 0.54737 0.0
C243 C 0.23375 0.59575 0.49566 0.0
O244 O 0.2225 0.57902 0.48641 0.0
O245 O 0.26684 0.6435 0.49351 0.0
O246 O 0.29012 0.66989 0.50431 0.0
O247 O 0.28989 0.60432 0.52179 0.0
O248 O 0.30146 0.634 0.51641 0.0
C249 C 0.27495 0.66163 0.49465 0.0
C250 C 0.30353 0.61933 0.52334 0.0
O251 O 0.25023 0.597 0.49577 0.0
Mg252 Mg 0.43895 0.57843 0.77696 0.0
O253 O 0.41779 0.54659 0.77313 0.0
O254 O 0.40367 0.55004 0.79962 0.0
Mg255 Mg 0.41572 0.58111 0.82054 0.0
C256 C 0.4061 0.53932 0.78359 0.0
C257 C 0.46116 0.58105 0.73922 0.0
O258 O 0.47235 0.59354 0.7533 0.0
O259 O 0.41711 0.59801 0.77297 0.0
O260 O 0.40683 0.60123 0.80171 0.0
O261 O 0.45957 0.56656 0.79277 0.0
O262 O 0.44171 0.58213 0.80843 0.0
C263 C 0.4077 0.60593 0.78546 0.0
C264 C 0.45416 0.5729 0.80919 0.0
O265 O 0.44584 0.57225 0.74351 0.0
Mg266 Mg 0.67666 0.02099 0.72673 0.0
O267 O 0.6792 0.05487 0.73024 0.0
O268 O 0.69281 0.06066 0.75947 0.0
Mg269 Mg 0.6976 0.04079 0.77761 0.0
C270 C 0.68767 0.06704 0.74555 0.0
C271 C 0.66461 0.01751 0.68231 0.0
O272 O 0.66497 0.00959 0.66404 0.0
O273 O 0.7065 0.03071 0.72577 0.0
O274 O 0.71836 0.04046 0.75555 0.0
O275 O 0.64975 0.01685 0.73896 0.0
O276 O 0.67587 0.02372 0.75572 0.0
C277 C 0.716 0.02803 0.73931 0.0
C278 C 0.65904 0.02127 0.75549 0.0
O279 O 0.67324 0.01217 0.69465 0.0
Mg280 Mg 0.79457 0.68538 0.9978 0.0
O281 O 0.79746 0.70477 0.02863 0.0
O282 O 0.82444 0.72619 0.03418 0.0
Mg283 Mg 0.84027 0.71781 0.00875 0.0
C284 C 0.80911 0.71945 0.03931 0.0
C285 C 0.75677 0.65717 0.99049 0.0
O286 O 0.76696 0.64599 0.98233 0.0
O287 O 0.79372 0.71163 0.9842 0.0
O288 O 0.8225 0.72844 0.9891 0.0
O289 O 0.80483 0.66179 0.0077 0.0
O290 O 0.82213 0.68768 0.99982 0.0
C291 C 0.80653 0.72564 0.98167 0.0
C292 C 0.82071 0.67157 0.00572 0.0
O293 O 0.76396 0.67551 0.99816 0.0
Mg294 Mg 0.92165 0.55358 0.80609 0.0
O295 O 0.89908 0.52679 0.79983 0.0
O296 O 0.88888 0.5208 0.8272 0.0
Mg297 Mg 0.90673 0.54457 0.85143 0.0
C298 C 0.88831 0.51674 0.80892 0.0
C299 C 0.93345 0.55621 0.76964 0.0
O300 O 0.94768 0.56033 0.78189 0.0
O301 O 0.90299 0.57184 0.81365 0.0
O302 O 0.89393 0.56759 0.84205 0.0
O303 O 0.9396 0.53426 0.80571 0.0
O304 O 0.92757 0.54785 0.83144 0.0
C305 C 0.89389 0.57535 0.82762 0.0
C306 C 0.93675 0.53576 0.82355 0.0
O307 O 0.91826 0.55413 0.77566 0.0
Mg308 Mg 0.81038 0.43434 0.53327 0.0
O309 O 0.81853 0.42751 0.50313 0.0
O310 O 0.84663 0.42458 0.50181 0.0
Mg311 Mg 0.85107 0.41595 0.53013 0.0
C312 C 0.83185 0.42547 0.49381 0.0
C313 C 0.78372 0.4554 0.53151 0.0
O314 O 0.79482 0.46454 0.54696 0.0
O315 O 0.79827 0.40115 0.5289 0.0
O316 O 0.82327 0.396 0.52009 0.0
O317 O 0.82764 0.46438 0.53791 0.0
O318 O 0.8373 0.43887 0.54386 0.0
C319 C 0.81165 0.39444 0.53187 0.0
C320 C 0.84069 0.45696 0.5418 0.0
O321 O 0.78523 0.43881 0.52176 0.0
Mg322 Mg 0.65593 0.50091 0.26334 0.0
O323 O 0.67634 0.53341 0.26788 0.0
O324 O 0.69397 0.53804 0.29465 0.0
Mg325 Mg 0.68397 0.51145 0.30944 0.0
C326 C 0.68942 0.5443 0.28017 0.0
C327 C 0.63016 0.49435 0.22161 0.0
O328 O 0.61917 0.48182 0.22934 0.0
O329 O 0.67781 0.4795 0.25753 0.0
O330 O 0.69103 0.48562 0.28738 0.0
O331 O 0.63551 0.51341 0.28279 0.0
O332 O 0.65635 0.50264 0.29471 0.0
C333 C 0.68847 0.47552 0.26993 0.0
C334 C 0.64264 0.50972 0.29776 0.0
O335 O 0.64581 0.50291 0.23071 0.0
Tb336 Tb 0.02177 0.02591 0.00517 0.0
C337 C 0.08039 0.09509 0.04364 0.0
C338 C 0.08854 0.11218 0.01837 0.0
C339 C 0.09431 0.13088 0.05152 0.0
C340 C 0.08124 0.09443 0.02432 0.0
C341 C 0.08746 0.11328 0.05745 0.0
C342 C 0.0948 0.13034 0.03202 0.0
C343 C 0.08309 0.09513 0.08221 0.0
N344 N 0.07398 0.07776 0.04902 0.0
C345 C 0.07641 0.07754 0.06809 0.0
C346 C 0.08834 0.11317 0.0769 0.0
Tb347 Tb 0.06588 0.04901 0.02466 0.0
N348 N 0.07556 0.07646 0.01143 0.0
C349 C 0.0768 0.0758 0.99224 0.0
C350 C 0.08976 0.11122 0.99889 0.0
C351 C 0.08387 0.09295 0.9858 0.0
H352 H 0.07291 0.06373 0.07272 0.0
H353 H 0.08461 0.09203 0.97061 0.0
H354 H 0.10041 0.14401 0.02764 0.0
H355 H 0.08438 0.0947 0.09718 0.0
H356 H 0.07205 0.06256 0.98121 0.0
H357 H 0.00858 0.98148 0.05879 0.0
H358 H 0.09526 0.12449 0.99382 0.0
H359 H 0.01535 0.01183 0.95687 0.0
H360 H 0.0215 0.01105 0.04799 0.0
H361 H 0.00282 0.98126 0.93224 0.0
H362 H 0.09969 0.14492 0.06193 0.0
H363 H 0.99422 0.94994 0.03542 0.0
H364 H 0.98562 0.93133 0.00136 0.0
H365 H 0.09374 0.12678 0.08786 0.0
H366 H 0.98486 0.93104 0.96708 0.0
N367 N 0.01375 0.99799 0.01794 0.0
C368 C 0.01465 0.99817 0.03717 0.0
C369 C 0.99971 0.96323 0.03038 0.0
C370 C 0.99924 0.9627 0.01081 0.0
C371 C 0.00766 0.981 0.04358 0.0
C372 C 0.00667 0.98043 0.00492 0.0
H373 H 0.99157 0.94932 0.94131 0.0
N374 N 0.01368 0.99747 0.98039 0.0
C375 C 0.00409 0.98062 0.94716 0.0
C376 C 0.00668 0.98015 0.9856 0.0
C377 C 0.01158 0.99795 0.96135 0.0
C378 C 0.9977 0.96267 0.95234 0.0
C379 C 0.99863 0.9623 0.97172 0.0
O380 O 0.00632 0.03395 0.98486 0.0
O381 O 0.04375 0.05221 0.00784 0.0
O382 O 0.04756 0.05345 0.0481 0.0
O383 O 0.01827 0.03752 0.03523 0.0
O384 O 0.0195 0.05656 0.01479 0.0
O385 O 0.99407 0.02055 0.00759 0.0
O386 O 0.07869 0.03934 0.04603 0.0
O387 O 0.04402 0.02272 0.02209 0.0
O388 O 0.03973 0.0239 0.98121 0.0
O389 O 0.0694 0.03581 0.99468 0.0
O390 O 0.06798 0.01849 0.01403 0.0
O391 O 0.0937 0.05443 0.0257 0.0
C392 C 0.0356 0.06555 0.01354 0.0
C393 C 0.97444 0.02836 0.98463 0.0
C394 C 0.94732 0.03958 0.98824 0.0
C395 C 0.96395 0.03883 0.99605 0.0
C396 C 0.94111 0.02963 0.96911 0.0
C397 C 0.96825 0.01854 0.9655 0.0
C398 C 0.95155 0.0191 0.95781 0.0
C399 C 0.03009 0.0481 0.04991 0.0
C400 C 0.99184 0.02778 0.99266 0.0
C401 C 0.99113 0.94479 0.97755 0.0
C402 C 0.99149 0.94497 0.99706 0.0
C403 C 0.05212 0.0093 0.01615 0.0
C404 C 0.11075 0.0446 0.0492 0.0
C405 C 0.12307 0.03807 0.03746 0.0
C406 C 0.13921 0.03664 0.04569 0.0
C407 C 0.14306 0.04182 0.06575 0.0
C408 C 0.11442 0.04946 0.06923 0.0
C409 C 0.13064 0.04815 0.07748 0.0
C410 C 0.05727 0.02713 0.97966 0.0
C411 C 0.09413 0.04631 0.04036 0.0
H412 H 0.96877 0.04655 0.01082 0.0
H413 H 0.92823 0.03011 0.96295 0.0
H414 H 0.97627 0.01037 0.95659 0.0
H415 H 0.94673 0.01146 0.94306 0.0
H416 H 0.1201 0.03404 0.02196 0.0
H417 H 0.15553 0.04064 0.0723 0.0
H418 H 0.10488 0.05447 0.07843 0.0
H419 H 0.13357 0.05199 0.09293 0.0
Tb420 Tb 0.30909 0.78046 0.25197 0.0
C421 C 0.28721 0.84299 0.31493 0.0
C422 C 0.31564 0.86185 0.33259 0.0
C423 C 0.28959 0.87509 0.33718 0.0
C424 C 0.30511 0.84449 0.31965 0.0
C425 C 0.27925 0.85823 0.32388 0.0
C426 C 0.30776 0.87697 0.34142 0.0
C427 C 0.25094 0.8384 0.30734 0.0
N428 N 0.27741 0.82627 0.30233 0.0
C429 C 0.25928 0.82363 0.29909 0.0
C430 C 0.26096 0.85581 0.31977 0.0
Tb431 Tb 0.29091 0.80022 0.29511 0.0
N432 N 0.31215 0.82903 0.3117 0.0
C433 C 0.33027 0.83131 0.31499 0.0
C434 C 0.33382 0.86359 0.33641 0.0
C435 C 0.3412 0.84844 0.32725 0.0
H436 H 0.25086 0.80972 0.29063 0.0
H437 H 0.35539 0.84986 0.3297 0.0
H438 H 0.31561 0.89018 0.35159 0.0
H439 H 0.23665 0.83604 0.30452 0.0
H440 H 0.33693 0.82043 0.308 0.0
H441 H 0.24877 0.7323 0.20978 0.0
H442 H 0.34232 0.87673 0.34614 0.0
H443 H 0.34955 0.77416 0.25776 0.0
H444 H 0.26588 0.76127 0.23385 0.0
H445 H 0.36582 0.74893 0.24531 0.0
H446 H 0.28364 0.88679 0.34427 0.0
H447 H 0.26262 0.70504 0.19591 0.0
H448 H 0.28967 0.69133 0.19419 0.0
H449 H 0.25439 0.8671 0.32647 0.0
H450 H 0.32136 0.69552 0.20438 0.0
N451 N 0.29004 0.75159 0.23375 0.0
C452 C 0.27259 0.75009 0.2278 0.0
C453 C 0.27038 0.71794 0.20652 0.0
C454 C 0.28812 0.71939 0.21263 0.0
C455 C 0.26257 0.73333 0.21423 0.0
C456 C 0.29763 0.73651 0.22652 0.0
H457 H 0.34978 0.71677 0.2236 0.0
N458 N 0.32397 0.75568 0.24532 0.0
C459 C 0.35152 0.74564 0.24184 0.0
C460 C 0.31523 0.73862 0.23256 0.0
C461 C 0.34215 0.75977 0.24912 0.0
C462 C 0.34244 0.72755 0.22958 0.0
C463 C 0.32414 0.72401 0.22447 0.0
O464 O 0.33243 0.79354 0.24084 0.0
O465 O 0.30524 0.80654 0.2715 0.0
O466 O 0.27421 0.80376 0.27053 0.0
O467 O 0.28672 0.79208 0.2425 0.0
O468 O 0.33067 0.80597 0.26552 0.0
O469 O 0.30645 0.78321 0.2235 0.0
O470 O 0.26532 0.78638 0.30117 0.0
O471 O 0.28895 0.77575 0.27071 0.0
O472 O 0.32272 0.77291 0.27632 0.0
O473 O 0.3149 0.79184 0.30445 0.0
O474 O 0.28745 0.76919 0.2973 0.0
O475 O 0.28629 0.80353 0.32393 0.0
C476 C 0.32083 0.81715 0.27321 0.0
C477 C 0.33193 0.79677 0.20832 0.0
C478 C 0.3338 0.81741 0.18576 0.0
C479 C 0.32452 0.80874 0.19909 0.0
C480 C 0.35022 0.8136 0.18103 0.0
C481 C 0.34834 0.79283 0.20377 0.0
C482 C 0.35739 0.8011 0.18993 0.0
C483 C 0.27433 0.79976 0.25147 0.0
C484 C 0.32355 0.79078 0.22434 0.0
C485 C 0.31474 0.70686 0.21079 0.0
C486 C 0.29673 0.70452 0.20493 0.0
C487 C 0.2866 0.76189 0.27922 0.0
C488 C 0.26261 0.78034 0.33219 0.0
C489 C 0.27276 0.76906 0.33943 0.0
C490 C 0.2659 0.75838 0.35278 0.0
C491 C 0.24907 0.75907 0.35896 0.0
C492 C 0.2458 0.78092 0.33837 0.0
C493 C 0.23907 0.77032 0.35176 0.0
C494 C 0.32501 0.78075 0.29525 0.0
C495 C 0.2697 0.79322 0.31964 0.0
H496 H 0.31196 0.81206 0.20289 0.0
H497 H 0.35735 0.82015 0.17042 0.0
H498 H 0.35423 0.78366 0.21112 0.0
H499 H 0.37005 0.7981 0.18634 0.0
H500 H 0.28596 0.76893 0.3351 0.0
H501 H 0.2438 0.75107 0.36957 0.0
H502 H 0.23803 0.78991 0.33309 0.0
H503 H 0.22618 0.77096 0.35667 0.0
Tb504 Tb 0.56919 0.04506 0.5116 0.0
C505 C 0.50249 0.00442 0.54432 0.0
C506 C 0.48719 0.97861 0.51681 0.0
C507 C 0.48347 0.97359 0.54894 0.0
C508 C 0.49896 0.99747 0.52475 0.0
C509 C 0.49432 0.99289 0.55671 0.0
C510 C 0.47994 0.96644 0.52898 0.0
C511 C 0.50627 0.02134 0.58325 0.0
N512 N 0.51278 0.02322 0.55121 0.0
C513 C 0.51408 0.03216 0.57033 0.0
C514 C 0.49664 1.00148 0.57644 0.0
Tb515 Tb 0.52518 0.03992 0.52925 0.0
N516 N 0.50588 0.00993 0.51359 0.0
C517 C 0.50026 0.00492 0.49434 0.0
C518 C 0.48237 0.97297 0.497 0.0
C519 C 0.48862 0.98639 0.48579 0.0
H520 H 0.52161 0.0475 0.57563 0.0
H521 H 0.4846 0.98243 0.4705 0.0
H522 H 0.47103 0.95182 0.52315 0.0
H523 H 0.50774 0.02831 0.59843 0.0
H524 H 0.50487 0.01481 0.48516 0.0
H525 H 0.60759 0.10712 0.56785 0.0
H526 H 0.47334 0.95864 0.49034 0.0
H527 H 0.57204 0.03485 0.46478 0.0
H528 H 0.58861 0.0736 0.55493 0.0
H529 H 0.58405 0.05292 0.44044 0.0
H530 H 0.47724 0.96439 0.55821 0.0
H531 H 0.61859 0.12891 0.54611 0.0
H532 H 0.62109 0.13298 0.51238 0.0
H533 H 0.49054 0.99315 0.58646 0.0
H534 H 0.61471 0.11824 0.47762 0.0
N535 N 0.58803 0.07582 0.52564 0.0
C536 C 0.5932 0.08253 0.54497 0.0
C537 C 0.61015 0.11404 0.54022 0.0
C538 C 0.6058 0.10673 0.52042 0.0
C539 C 0.60403 0.10176 0.55251 0.0
C540 C 0.59465 0.08732 0.51352 0.0
H541 H 0.60101 0.08833 0.45064 0.0
N542 N 0.58075 0.06021 0.48817 0.0
C543 C 0.58589 0.0606 0.45546 0.0
C544 C 0.59095 0.07919 0.49408 0.0
C545 C 0.57888 0.05049 0.4692 0.0
C546 C 0.59547 0.08056 0.46127 0.0
C547 C 0.59841 0.09 0.48083 0.0
O548 O 0.57818 0.02022 0.49834 0.0
O549 O 0.54447 0.02556 0.51575 0.0
O550 O 0.54104 0.02883 0.54851 0.0
O551 O 0.56978 0.04239 0.5412 0.0
O552 O 0.55425 0.01864 0.48996 0.0
O553 O 0.59393 0.04173 0.52251 0.0
O554 O 0.51417 0.06229 0.54466 0.0
O555 O 0.54988 0.05933 0.52544 0.0
O556 O 0.55454 0.057 0.493 0.0
O557 O 0.52537 0.04442 0.50001 0.0
O558 O 0.53942 0.06679 0.55068 0.0
O559 O 0.50254 0.04584 0.5163 0.0
C560 C 0.54179 0.01255 0.50015 0.0
C561 C 0.6089 0.02253 0.50032 0.0
C562 C 0.63444 0.00785 0.49837 0.0
C563 C 0.62025 0.01284 0.50822 0.0
C564 C 0.6371 0.01257 0.48051 0.0
C565 C 0.61193 0.02721 0.48254 0.0
C566 C 0.62591 0.02223 0.4727 0.0
C567 C 0.55869 0.03387 0.55215 0.0
C568 C 0.59286 0.02529 0.50965 0.0
C569 C 0.60898 0.10961 0.48757 0.0
C570 C 0.61262 0.11799 0.50735 0.0
C571 C 0.55204 0.0728 0.54064 0.0
C572 C 0.48366 0.0602 0.53724 0.0
C573 C 0.47416 0.07251 0.53046 0.0
C574 C 0.45829 0.07531 0.53811 0.0
C575 C 0.45185 0.0654 0.55228 0.0
C576 C 0.47675 0.05013 0.55112 0.0
C577 C 0.46094 0.05276 0.55859 0.0
C578 C 0.5371 0.05273 0.48947 0.0
C579 C 0.5015 0.05971 0.53113 0.0
H580 H 0.61787 0.00895 0.52185 0.0
H581 H 0.64768 0.00849 0.47243 0.0
H582 H 0.60333 0.03426 0.47597 0.0
H583 H 0.62795 0.02566 0.45886 0.0
H584 H 0.47948 0.08053 0.51988 0.0
H585 H 0.43971 0.06742 0.55844 0.0
H586 H 0.48372 0.04056 0.55647 0.0
H587 H 0.45582 0.04515 0.56948 0.0
Tb588 Tb 0.27771 0.29564 0.76835 0.0
C589 C 0.33836 0.27193 0.80608 0.0
C590 C 0.35314 0.30217 0.82962 0.0
C591 C 0.3542 0.27 0.83544 0.0
C592 C 0.34241 0.29244 0.81212 0.0
C593 C 0.34465 0.26049 0.81742 0.0
C594 C 0.35848 0.29083 0.84152 0.0
C595 C 0.33408 0.23153 0.79114 0.0
N596 N 0.3297 0.26333 0.78832 0.0
C597 C 0.32834 0.24354 0.78036 0.0
C598 C 0.342 0.23998 0.80989 0.0
Tb599 Tb 0.32064 0.28404 0.77157 0.0
N600 N 0.3373 0.30289 0.80004 0.0
C601 C 0.34377 0.3233 0.80425 0.0
C602 C 0.35907 0.32296 0.83417 0.0
C603 C 0.35473 0.3335 0.82119 0.0
H604 H 0.32234 0.23695 0.76577 0.0
H605 H 0.35961 0.34959 0.82433 0.0
H606 H 0.36652 0.29805 0.85508 0.0
H607 H 0.33248 0.21579 0.78493 0.0
H608 H 0.34076 0.33231 0.79495 0.0
H609 H 0.24603 0.2332 0.70847 0.0
H610 H 0.36748 0.33093 0.84734 0.0
H611 H 0.27421 0.34225 0.77796 0.0
H612 H 0.26218 0.24875 0.73982 0.0
H613 H 0.26382 0.36501 0.76095 0.0
H614 H 0.35898 0.26144 0.84442 0.0
H615 H 0.23665 0.25378 0.68821 0.0
H616 H 0.23441 0.28749 0.68467 0.0
H617 H 0.34664 0.2307 0.81815 0.0
H618 H 0.23946 0.32347 0.69882 0.0
N619 N 0.26254 0.2788 0.73853 0.0
C620 C 0.25806 0.25838 0.73188 0.0
C621 C 0.24379 0.26091 0.70227 0.0
C622 C 0.2475 0.28157 0.70934 0.0
C623 C 0.24896 0.24926 0.71369 0.0
C624 C 0.25697 0.29014 0.72772 0.0
H625 H 0.25041 0.3525 0.72723 0.0
N626 N 0.26828 0.31766 0.75357 0.0
C627 C 0.26285 0.34971 0.75353 0.0
C628 C 0.25999 0.3103 0.73551 0.0
C629 C 0.26885 0.33686 0.76305 0.0
C630 C 0.25529 0.3426 0.73451 0.0
C631 C 0.2534 0.32255 0.7254 0.0
O632 O 0.26484 0.30793 0.79147 0.0
O633 O 0.29928 0.29259 0.78681 0.0
O634 O 0.30131 0.2591 0.77993 0.0
O635 O 0.27376 0.26409 0.77068 0.0
O636 O 0.29024 0.3176 0.79462 0.0
O637 O 0.25168 0.28015 0.77236 0.0
O638 O 0.33266 0.26989 0.74868 0.0
O639 O 0.29916 0.28707 0.75295 0.0
O640 O 0.29644 0.3218 0.76219 0.0
O641 O 0.32416 0.31498 0.76727 0.0
O642 O 0.30786 0.26129 0.74633 0.0
O643 O 0.34682 0.29812 0.76622 0.0
C644 C 0.3009 0.30799 0.80022 0.0
C645 C 0.2334 0.29941 0.7897 0.0
C646 C 0.20667 0.29996 0.80663 0.0
C647 C 0.22193 0.29262 0.80294 0.0
C648 C 0.20315 0.31425 0.79721 0.0
C649 C 0.22914 0.31315 0.77999 0.0
C650 C 0.21427 0.32069 0.78391 0.0
C651 C 0.28357 0.25273 0.7761 0.0
C652 C 0.25047 0.29349 0.78754 0.0
C653 C 0.24452 0.31427 0.70686 0.0
C654 C 0.24161 0.29379 0.69882 0.0
C655 C 0.29765 0.27111 0.74021 0.0
C656 C 0.36415 0.27711 0.74908 0.0
C657 C 0.37815 0.28696 0.73976 0.0
C658 C 0.39315 0.27899 0.73569 0.0
C659 C 0.39353 0.26091 0.74063 0.0
C660 C 0.36541 0.25935 0.75401 0.0
C661 C 0.37988 0.25132 0.74974 0.0
C662 C 0.31418 0.32714 0.76403 0.0
C663 C 0.34736 0.28385 0.75155 0.0
H664 H 0.22494 0.28188 0.81046 0.0
H665 H 0.19155 0.32013 0.79989 0.0
H666 H 0.23731 0.31817 0.76946 0.0
H667 H 0.21129 0.33151 0.77652 0.0
H668 H 0.3773 0.30056 0.73563 0.0
H669 H 0.40439 0.25394 0.73722 0.0
H670 H 0.35493 0.25124 0.76065 0.0
H671 H 0.38043 0.23739 0.75334 0.0
Tb672 Tb 0.0396 0.06484 0.52818 0.0
C673 C 0.05303 0.99857 0.46869 0.0
C674 C 0.02492 0.9888 0.44865 0.0
C675 C 0.05143 0.98151 0.43508 0.0
C676 C 0.03509 0.99783 0.46655 0.0
C677 C 0.06136 0.99005 0.45307 0.0
C678 C 0.03325 0.98092 0.43287 0.0
C679 C 0.08807 0.99687 0.47469 0.0
N680 N 0.06201 0.00638 0.4864 0.0
C681 C 0.07909 0.00475 0.48977 0.0
C682 C 0.07921 0.98964 0.4562 0.0
Tb683 Tb 0.04579 0.01733 0.51054 0.0
N684 N 0.02742 0.00499 0.48227 0.0
C685 C 0.00937 0.00294 0.48111 0.0
C686 C 0.00659 0.98742 0.44728 0.0
C687 C 0.99877 0.99443 0.46363 0.0
H688 H 0.08574 0.00958 0.50421 0.0
H689 H 0.98455 0.99316 0.46283 0.0
H690 H 0.02566 0.97394 0.41901 0.0
H691 H 0.10168 0.99602 0.47741 0.0
H692 H 0.00297 0.00797 0.49349 0.0
H693 H 0.10199 0.09716 0.57546 0.0
H694 H 0.99831 0.98062 0.43379 0.0
H695 H 0.99765 0.0671 0.53754 0.0
H696 H 0.08453 0.08153 0.54526 0.0
H697 H 0.98194 0.07624 0.56531 0.0
H698 H 0.0576 0.97493 0.42291 0.0
H699 H 0.08755 0.10499 0.60501 0.0
H700 H 0.05981 0.10591 0.62064 0.0
H701 H 0.08608 0.98321 0.44459 0.0
H702 H 0.02725 0.09992 0.618 0.0
N703 N 0.05882 0.07898 0.5563 0.0
C704 C 0.07719 0.08434 0.5574 0.0
C705 C 0.0794 0.09771 0.59152 0.0
C706 C 0.06084 0.09307 0.59052 0.0
C707 C 0.08758 0.09341 0.57488 0.0
C708 C 0.05073 0.08345 0.57258 0.0
H709 H 0.99827 0.08881 0.59765 0.0
N710 N 0.02293 0.07153 0.55367 0.0
C711 C 0.99603 0.07694 0.56729 0.0
C712 C 0.03229 0.07967 0.5712 0.0
C713 C 0.00511 0.07131 0.55152 0.0
C714 C 0.00529 0.08405 0.58546 0.0
C715 C 0.02366 0.08599 0.58757 0.0
O716 O 0.02102 0.07845 0.51805 0.0
O717 O 0.03273 0.03931 0.50338 0.0
O718 O 0.06871 0.03764 0.50217 0.0
O719 O 0.06615 0.06906 0.51841 0.0
O720 O 0.04344 0.06664 0.49856 0.0
O721 O 0.04774 0.0961 0.53134 0.0
O722 O 0.0564 0.99931 0.525 0.0
O723 O 0.04673 0.0398 0.53707 0.0
O724 O 0.01374 0.04305 0.52624 0.0
O725 O 0.02222 0.01406 0.52634 0.0
O726 O 0.06892 0.029 0.5319 0.0
O727 O 0.03094 0.98762 0.50818 0.0
C728 C 0.03659 0.04834 0.4899 0.0
C729 C 0.02736 0.11385 0.5206 0.0
C730 C 0.03378 0.14447 0.50948 0.0
C731 C 0.03867 0.12733 0.5121 0.0
C732 C 0.01758 0.14803 0.51548 0.0
C733 C 0.01111 0.11736 0.52624 0.0
C734 C 0.00629 0.13448 0.52376 0.0
C735 C 0.07498 0.05725 0.50821 0.0
C736 C 0.03226 0.0959 0.52319 0.0
C737 C 0.03368 0.09504 0.60537 0.0
C738 C 0.05221 0.0985 0.60685 0.0
C739 C 0.06194 0.03972 0.54483 0.0
C740 C 0.0465 0.96455 0.51556 0.0
C741 C 0.03847 0.95131 0.52629 0.0
C742 C 0.0437 0.93366 0.52554 0.0
C743 C 0.05689 0.92904 0.51393 0.0
C744 C 0.05952 0.95981 0.50371 0.0
C745 C 0.06471 0.94209 0.50294 0.0
C746 C 0.01038 0.02474 0.52889 0.0
C747 C 0.04276 0.98416 0.51952 0.0
H748 H 0.05117 0.12448 0.50755 0.0
H749 H 0.01356 0.16118 0.51351 0.0
H750 H 0.00223 0.10695 0.5327 0.0
H751 H 0.99378 0.13723 0.52822 0.0
H752 H 0.02864 0.95507 0.53579 0.0
H753 H 0.06116 0.91545 0.51349 0.0
H754 H 0.06586 0.96979 0.49534 0.0
H755 H 0.07494 0.93858 0.494 0.0
Tb756 Tb 0.3175 0.8039 0.76724 0.0
C757 C 0.27285 0.74273 0.8005 0.0
C758 C 0.27565 0.71108 0.78113 0.0
C759 C 0.26758 0.71316 0.81364 0.0
C760 C 0.27655 0.73161 0.78328 0.0
C761 C 0.26779 0.73334 0.81559 0.0
C762 C 0.27153 0.70209 0.79649 0.0
C763 C 0.26069 0.76346 0.83249 0.0
N764 N 0.27263 0.76214 0.80188 0.0
C765 C 0.26558 0.7721 0.8172 0.0
C766 C 0.26209 0.74411 0.83184 0.0
Tb767 Tb 0.27763 0.77292 0.77408 0.0
N768 N 0.2797 0.7404 0.76824 0.0
C769 C 0.28178 0.72922 0.75069 0.0
C770 C 0.27816 0.69986 0.76335 0.0
C771 C 0.2811 0.70894 0.74806 0.0
H772 H 0.26437 0.78715 0.81794 0.0
H773 H 0.28293 0.70033 0.73418 0.0
H774 H 0.27082 0.68637 0.79503 0.0
H775 H 0.25575 0.77171 0.84473 0.0
H776 H 0.28436 0.73558 0.73851 0.0
H777 H 0.30611 0.87275 0.80973 0.0
H778 H 0.27751 0.68407 0.76117 0.0
H779 H 0.33037 0.79286 0.72265 0.0
H780 H 0.3052 0.8374 0.80281 0.0
H781 H 0.33966 0.81072 0.69774 0.0
H782 H 0.26381 0.7058 0.82511 0.0
H783 H 0.31539 0.89247 0.78589 0.0
H784 H 0.32591 0.89389 0.75383 0.0
H785 H 0.25807 0.73735 0.84363 0.0
H786 H 0.33443 0.87697 0.72334 0.0
N787 N 0.31436 0.83616 0.77488 0.0
C788 C 0.30973 0.84543 0.79213 0.0
C789 C 0.31506 0.87672 0.78262 0.0
C790 C 0.31963 0.86732 0.76501 0.0
C791 C 0.30993 0.86567 0.79614 0.0
C792 C 0.31889 0.8467 0.76134 0.0
H793 H 0.33923 0.84613 0.70227 0.0
N794 N 0.32277 0.81725 0.74081 0.0
C795 C 0.33487 0.81824 0.71051 0.0
C796 C 0.32324 0.837 0.74386 0.0
C797 C 0.32938 0.80814 0.72468 0.0
C798 C 0.33463 0.8382 0.71314 0.0
C799 C 0.32909 0.84792 0.73004 0.0
O800 O 0.34063 0.79631 0.75682 0.0
O801 O 0.30428 0.77214 0.76575 0.0
O802 O 0.29393 0.78532 0.802 0.0
O803 O 0.31765 0.81033 0.79769 0.0
O804 O 0.32873 0.784 0.78091 0.0
O805 O 0.34203 0.82376 0.77911 0.0
O806 O 0.25442 0.78081 0.78368 0.0
O807 O 0.29068 0.80447 0.77516 0.0
O808 O 0.30277 0.78967 0.73914 0.0
O809 O 0.27782 0.76594 0.74328 0.0
O810 O 0.26632 0.7928 0.76031 0.0
O811 O 0.2533 0.75205 0.7633 0.0
C812 C 0.31654 0.76775 0.77543 0.0
C813 C 0.36996 0.81772 0.7693 0.0
C814 C 0.39854 0.8247 0.78782 0.0
C815 C 0.37995 0.82073 0.78694 0.0
C816 C 0.40709 0.8259 0.77114 0.0
C817 C 0.37852 0.81872 0.75263 0.0
C818 C 0.39709 0.82293 0.75361 0.0
C819 C 0.30812 0.80027 0.80858 0.0
C820 C 0.35058 0.81261 0.76811 0.0
C821 C 0.32991 0.8684 0.73376 0.0
C822 C 0.32513 0.87804 0.75115 0.0
C823 C 0.27862 0.80901 0.76528 0.0
C824 C 0.22547 0.75807 0.77331 0.0
C825 C 0.21518 0.75769 0.7567 0.0
C826 C 0.19663 0.75233 0.75597 0.0
C827 C 0.18838 0.74736 0.77187 0.0
C828 C 0.21729 0.75329 0.78928 0.0
C829 C 0.19872 0.74789 0.7885 0.0
C830 C 0.28846 0.7751 0.73251 0.0
C831 C 0.24473 0.7635 0.77392 0.0
H832 H 0.37332 0.81948 0.79976 0.0
H833 H 0.42149 0.82877 0.77166 0.0
H834 H 0.37086 0.81624 0.73891 0.0
H835 H 0.40373 0.8237 0.74076 0.0
H836 H 0.22155 0.76168 0.74446 0.0
H837 H 0.17396 0.74342 0.77149 0.0
H838 H 0.22525 0.75362 0.80222 0.0
H839 H 0.19234 0.74418 0.80079 0.0
Tb840 Tb 0.55402 0.03202 0.03858 0.0
C841 C 0.50628 0.04974 0.97319 0.0
C842 C 0.48753 0.01748 0.95664 0.0
C843 C 0.47941 0.04766 0.95306 0.0
C844 C 0.50293 0.02925 0.96874 0.0
C845 C 0.49457 0.05924 0.96542 0.0
C846 C 0.4759 0.02679 0.94867 0.0
C847 C 0.5142 0.09095 0.98185 0.0
N848 N 0.52118 0.0604 0.98495 0.0
C849 C 0.52559 0.08083 0.98882 0.0
C850 C 0.4986 0.08011 0.9701 0.0
Tb851 Tb 0.54043 0.04287 0.99337 0.0
N852 N 0.51456 0.02089 0.97671 0.0
C853 C 0.511 1.00048 0.97348 0.0
C854 C 0.48418 0.99671 0.95305 0.0
C855 C 0.49588 0.9882 0.9617 0.0
H856 H 0.53794 0.08927 0.9974 0.0
H857 H 0.49328 0.97212 0.9593 0.0
H858 H 0.4641 0.01801 0.93923 0.0
H859 H 0.51761 0.10711 0.98527 0.0
H860 H 0.51947 0.9932 0.98004 0.0
H861 H 0.59665 0.10031 0.08362 0.0
H862 H 0.47251 0.98715 0.94388 0.0
H863 H 0.55623 0.9854 0.0332 0.0
H864 H 0.56992 0.07997 0.06336 0.0
H865 H 0.57789 0.96706 0.0413 0.0
H866 H 0.47033 0.05469 0.94685 0.0
H867 H 0.6215 0.08552 0.09011 0.0
H868 H 0.63332 0.05504 0.08654 0.0
H869 H 0.48992 0.08799 0.96449 0.0
H870 H 0.62822 0.01864 0.07506 0.0
N871 N 0.57915 0.05326 0.05698 0.0
C872 C 0.58045 0.07294 0.06543 0.0
C873 C 0.60973 0.07636 0.08084 0.0
C874 C 0.60807 0.05609 0.07303 0.0
C875 C 0.59573 0.08473 0.07724 0.0
C876 C 0.5924 0.04481 0.06111 0.0
H877 H 0.60749 0.98567 0.05838 0.0
N878 N 0.5738 0.0141 0.04455 0.0
C879 C 0.58143 0.98322 0.04502 0.0
C880 C 0.58961 0.02447 0.05466 0.0
C881 C 0.56922 0.99365 0.04044 0.0
C882 C 0.59813 0.99378 0.0546 0.0
C883 C 0.60228 0.01465 0.0599 0.0
O884 O 0.5384 0.01183 0.05183 0.0
O885 O 0.53326 0.03049 0.01732 0.0
O886 O 0.52816 0.05996 0.01525 0.0
O887 O 0.54591 0.06032 0.0429 0.0
O888 O 0.53272 0.00537 0.02638 0.0
O889 O 0.54619 0.04347 0.06564 0.0
O890 O 0.55759 0.0608 0.97913 0.0
O891 O 0.56068 0.04559 0.0156 0.0
O892 O 0.56668 0.0165 0.0161 0.0
O893 O 0.54759 0.01419 0.98906 0.0
O894 O 0.56298 0.06963 0.0042 0.0
O895 O 0.54633 0.02936 0.96604 0.0
C896 C 0.52343 0.01373 0.01692 0.0
C897 C 0.53855 0.02023 0.08502 0.0
C898 C 0.52277 0.01697 0.11266 0.0
C899 C 0.52679 0.02626 0.09769 0.0
C900 C 0.53139 0.00241 0.11577 0.0
C901 C 0.54748 0.0059 0.08817 0.0
C902 C 0.54399 0.99716 0.1037 0.0
C903 C 0.53459 0.06726 0.03345 0.0
C904 C 0.53762 0.02564 0.06673 0.0
C905 C 0.61827 0.02589 0.07097 0.0
C906 C 0.62117 0.0466 0.07751 0.0
C907 C 0.57047 0.06254 0.01656 0.0
C908 C 0.55488 0.05158 0.94588 0.0
C909 C 0.56816 0.04887 0.93394 0.0
C910 C 0.57004 0.05776 0.91841 0.0
C911 C 0.55813 0.06885 0.91434 0.0
C912 C 0.54272 0.06236 0.94169 0.0
C913 C 0.54431 0.07087 0.92584 0.0
C914 C 0.55959 0.00802 0.99826 0.0
C915 C 0.55642 0.04624 0.96419 0.0
H916 H 0.51946 0.03684 0.09485 0.0
H917 H 0.52818 0.99497 0.12731 0.0
H918 H 0.55644 1.00084 0.07822 0.0
H919 H 0.55054 0.98581 0.10597 0.0
H920 H 0.57775 0.04085 0.9374 0.0
H921 H 0.5595 0.07581 0.90228 0.0
H922 H 0.53251 0.06483 0.95094 0.0
H923 H 0.5351 0.07942 0.92275 0.0
Tb924 Tb 0.31718 0.32545 0.28865 0.0
C925 C 0.25354 0.25804 0.25478 0.0
C926 C 0.24062 0.24581 0.28131 0.0
C927 C 0.22228 0.23939 0.2513 0.0
C928 C 0.2555 0.25601 0.27348 0.0
C929 C 0.23696 0.24914 0.24336 0.0
C930 C 0.22408 0.23783 0.27025 0.0
C931 C 0.251 0.25681 0.21591 0.0
N932 N 0.26815 0.26677 0.24709 0.0
C933 C 0.26707 0.26512 0.22753 0.0
C934 C 0.23579 0.24902 0.22389 0.0
Tb935 Tb 0.2952 0.27448 0.26571 0.0
N936 N 0.27203 0.26285 0.28356 0.0
C937 C 0.2738 0.2603 0.30202 0.0
C938 C 0.2428 0.24317 0.29985 0.0
C939 C 0.25943 0.25049 0.31023 0.0
H940 H 0.27874 0.26906 0.22023 0.0
H941 H 0.26124 0.2487 0.32474 0.0
H942 H 0.21269 0.22991 0.27608 0.0
H943 H 0.25053 0.25578 0.2006 0.0
H944 H 0.28583 0.26604 0.31146 0.0
H945 H 0.35422 0.34307 0.22977 0.0
H946 H 0.23174 0.23542 0.30626 0.0
H947 H 0.32884 0.33985 0.33503 0.0
H948 H 0.32804 0.32978 0.24457 0.0
H949 H 0.35606 0.35588 0.35728 0.0
H950 H 0.20957 0.23251 0.24271 0.0
H951 H 0.38349 0.35671 0.24906 0.0
H952 H 0.40117 0.36604 0.28117 0.0
H953 H 0.22342 0.2421 0.21471 0.0
H954 H 0.40181 0.36905 0.31598 0.0
N955 N 0.34162 0.33469 0.27242 0.0
C956 C 0.34038 0.33533 0.25347 0.0
C957 C 0.3719 0.35055 0.25572 0.0
C958 C 0.37312 0.35068 0.27522 0.0
C959 C 0.35542 0.34296 0.24484 0.0
C960 C 0.35759 0.34247 0.28323 0.0
H961 H 0.3851 0.36527 0.3445 0.0
N962 N 0.34252 0.33719 0.3099 0.0
C963 C 0.35694 0.35216 0.34196 0.0
C964 C 0.35806 0.34372 0.30266 0.0
C965 C 0.34159 0.3427 0.32929 0.0
C966 C 0.37327 0.35745 0.33469 0.0
C967 C 0.37391 0.35384 0.31483 0.0
O968 O 0.30957 0.34666 0.30968 0.0
O969 O 0.29219 0.30302 0.27975 0.0
O970 O 0.29504 0.29342 0.24566 0.0
O971 O 0.30223 0.32673 0.26218 0.0
O972 O 0.2961 0.31938 0.30735 0.0
O973 O 0.31926 0.35397 0.28319 0.0
O974 O 0.30266 0.26058 0.23932 0.0
O975 O 0.31865 0.29877 0.26853 0.0
O976 O 0.32442 0.3072 0.30746 0.0
O977 O 0.30753 0.27422 0.29379 0.0
O978 O 0.32213 0.27085 0.26991 0.0
O979 O 0.28765 0.24342 0.25751 0.0
C980 C 0.28478 0.30589 0.29482 0.0
C981 C 0.31329 0.38047 0.30752 0.0
C982 C 0.29988 0.40697 0.3041 0.0
C983 C 0.30233 0.38805 0.29693 0.0
C984 C 0.30901 0.41876 0.3217 0.0
C985 C 0.32244 0.392 0.32519 0.0
C986 C 0.32043 0.41132 0.33214 0.0
C987 C 0.2962 0.3124 0.24643 0.0
C988 C 0.31426 0.36017 0.30002 0.0
C989 C 0.38954 0.36131 0.30687 0.0
C990 C 0.38916 0.35966 0.28708 0.0
C991 C 0.3301 0.2891 0.27027 0.0
C992 C 0.30272 0.22659 0.23445 0.0
C993 C 0.31049 0.21818 0.24743 0.0
C994 C 0.31495 0.20016 0.24077 0.0
C995 C 0.31225 0.19084 0.22111 0.0
C996 C 0.30029 0.21752 0.21476 0.0
C997 C 0.30513 0.19968 0.20811 0.0
C998 C 0.31817 0.28815 0.30787 0.0
C999 C 0.2946 0.24293 0.24125 0.0
H1000 H 0.29496 0.37877 0.28353 0.0
H1001 H 0.30712 0.43353 0.3274 0.0
H1002 H 0.33102 0.38609 0.33349 0.0
H1003 H 0.32744 0.42036 0.34573 0.0
H1004 H 0.31228 0.22509 0.2627 0.0
H1005 H 0.31582 0.17686 0.21585 0.0
H1006 H 0.29409 0.22389 0.20464 0.0
H1007 H 0.30306 0.19253 0.19295 0.0
Tb1008 Tb 0.53875 0.56328 0.02932 0.0
C1009 C 0.55561 0.49541 0.96843 0.0
C1010 C 0.52819 0.48224 0.94723 0.0
C1011 C 0.55582 0.47584 0.93607 0.0
C1012 C 0.53751 0.4932 0.96518 0.0
C1013 C 0.56496 0.48652 0.95402 0.0
C1014 C 0.53747 0.47374 0.93267 0.0
C1015 C 0.59138 0.49793 0.97664 0.0
N1016 N 0.56391 0.50553 0.98602 0.0
C1017 C 0.58146 0.50626 0.99052 0.0
C1018 C 0.58312 0.48812 0.95825 0.0
Tb1019 Tb 0.54644 0.51687 0.00858 0.0
N1020 N 0.52898 0.50134 0.97973 0.0
C1021 C 0.51078 0.49842 0.97712 0.0
C1022 C 0.50977 0.47983 0.94451 0.0
C1023 C 0.50104 0.48794 0.95956 0.0
H1024 H 0.58786 0.51344 0.00485 0.0
H1025 H 0.48675 0.48605 0.9577 0.0
H1026 H 0.53053 0.46528 0.91883 0.0
H1027 H 0.60532 0.49888 0.98022 0.0
H1028 H 0.50331 0.50428 0.98819 0.0
H1029 H 0.59983 0.59958 0.07681 0.0
H1030 H 0.50216 0.47157 0.93095 0.0
H1031 H 0.49674 0.56357 0.03522 0.0
H1032 H 0.58259 0.57952 0.0472 0.0
H1033 H 0.47954 0.57613 0.06119 0.0
H1034 H 0.56278 0.46893 0.92482 0.0
H1035 H 0.58477 0.61171 0.10487 0.0
H1036 H 0.55633 0.61439 0.11905 0.0
H1037 H 0.59076 0.48148 0.94758 0.0
H1038 H 0.52363 0.60787 0.11492 0.0
N1039 N 0.55697 0.57983 0.05733 0.0
C1040 C 0.57528 0.58462 0.0588 0.0
C1041 C 0.57687 0.60281 0.09167 0.0
C1042 C 0.55825 0.5983 0.09015 0.0
C1043 C 0.5854 0.59608 0.07586 0.0
C1044 C 0.54856 0.58675 0.07258 0.0
H1045 H 0.49494 0.59373 0.09343 0.0
N1046 N 0.5215 0.57297 0.05288 0.0
C1047 C 0.49376 0.57808 0.06399 0.0
C1048 C 0.53022 0.58316 0.07028 0.0
C1049 C 0.50354 0.57095 0.04935 0.0
C1050 C 0.5025 0.58799 0.08216 0.0
C1051 C 0.52097 0.59091 0.08543 0.0
O1052 O 0.5245 0.57951 0.01655 0.0
O1053 O 0.53843 0.54238 0.00179 0.0
O1054 O 0.56725 0.53775 0.99822 0.0
O1055 O 0.56531 0.56732 0.0188 0.0
O1056 O 0.51591 0.55142 0.00747 0.0
O1057 O 0.55231 0.59223 0.02716 0.0
O1058 O 0.55832 0.49995 0.02326 0.0
O1059 O 0.54724 0.53824 0.03559 0.0
O1060 O 0.52018 0.54192 0.04145 0.0
O1061 O 0.51923 0.51383 0.01749 0.0
O1062 O 0.56919 0.52804 0.03103 0.0
O1063 O 0.53128 0.48833 0.01012 0.0
C1064 C 0.52335 0.54241 0.99375 0.0
C1065 C 0.53429 0.61432 0.02272 0.0
C1066 C 0.53782 0.64592 0.01349 0.0
C1067 C 0.54341 0.62848 0.01344 0.0
C1068 C 0.52312 0.6492 0.02341 0.0
C1069 C 0.51986 0.61793 0.0328 0.0
C1070 C 0.51436 0.63537 0.03317 0.0
C1071 C 0.57376 0.557 0.00635 0.0
C1072 C 0.53812 0.5947 0.01851 0.0
C1073 C 0.5305 0.60185 0.10311 0.0
C1074 C 0.54911 0.60555 0.10546 0.0
C1075 C 0.56223 0.5387 0.04399 0.0
C1076 C 0.54766 0.46523 0.01571 0.0
C1077 C 0.53897 0.45135 0.02552 0.0
C1078 C 0.5436 0.43315 0.02389 0.0
C1079 C 0.55702 0.42891 0.01237 0.0
C1080 C 0.56096 0.46078 0.00413 0.0
C1081 C 0.56565 0.44271 0.00254 0.0
C1082 C 0.51227 0.52355 0.03188 0.0
C1083 C 0.5443 0.48511 0.02009 0.0
H1084 H 0.55454 0.62553 0.00566 0.0
H1085 H 0.51815 0.66226 0.02335 0.0
H1086 H 0.51245 0.60704 0.0398 0.0
H1087 H 0.503 0.63794 0.04064 0.0
H1088 H 0.52892 0.45489 0.03478 0.0
H1089 H 0.56104 0.41508 0.01126 0.0
H1090 H 0.56798 0.4713 0.99664 0.0
H1091 H 0.57611 0.43948 0.99383 0.0
Tb1092 Tb 0.81654 0.30266 0.26714 0.0
C1093 C 0.77147 0.24083 0.29986 0.0
C1094 C 0.77466 0.20993 0.27937 0.0
C1095 C 0.76589 0.21027 0.31142 0.0
C1096 C 0.77541 0.23052 0.28241 0.0
C1097 C 0.76612 0.23054 0.31427 0.0
C1098 C 0.77021 0.20002 0.29405 0.0
C1099 C 0.75894 0.2601 0.33232 0.0
N1100 N 0.77137 0.26037 0.30213 0.0
C1101 C 0.76419 0.26964 0.31769 0.0
C1102 C 0.76018 0.24056 0.33076 0.0
Tb1103 Tb 0.77654 0.27279 0.27526 0.0
N1104 N 0.77887 0.24024 0.26807 0.0
C1105 C 0.78177 0.22997 0.25041 0.0
C1106 C 0.77774 0.19961 0.26143 0.0
C1107 C 0.78124 0.20967 0.24689 0.0
H1108 H 0.76299 0.28479 0.31914 0.0
H1109 H 0.78373 0.20183 0.23294 0.0
H1110 H 0.76958 0.18424 0.29191 0.0
H1111 H 0.75381 0.2678 0.34473 0.0
H1112 H 0.78524 0.23717 0.23895 0.0
H1113 H 0.80583 0.37103 0.31155 0.0
H1114 H 0.77727 0.18383 0.25859 0.0
H1115 H 0.8297 0.29279 0.22301 0.0
H1116 H 0.8052 0.33578 0.30397 0.0
H1117 H 0.83947 0.31143 0.19876 0.0
H1118 H 0.76189 0.20221 0.32236 0.0
H1119 H 0.81437 0.39126 0.28794 0.0
H1120 H 0.82447 0.39336 0.25583 0.0
H1121 H 0.75588 0.2331 0.34203 0.0
H1122 H 0.83316 0.37714 0.22514 0.0
N1123 N 0.81354 0.33498 0.27574 0.0
C1124 C 0.80931 0.34398 0.29331 0.0
C1125 C 0.81411 0.37552 0.28435 0.0
C1126 C 0.81849 0.36646 0.2665 0.0
C1127 C 0.80939 0.36419 0.29774 0.0
C1128 C 0.81783 0.34585 0.26241 0.0
H1129 H 0.83865 0.34678 0.20378 0.0
N1130 N 0.82176 0.31677 0.24132 0.0
C1131 C 0.8344 0.31862 0.21149 0.0
C1132 C 0.82214 0.33652 0.24477 0.0
C1133 C 0.82867 0.30808 0.22529 0.0
C1134 C 0.83393 0.33854 0.21438 0.0
C1135 C 0.82804 0.34783 0.23127 0.0
O1136 O 0.8397 0.29501 0.25669 0.0
O1137 O 0.803 0.27128 0.26654 0.0
O1138 O 0.79246 0.28612 0.30339 0.0
O1139 O 0.81759 0.30852 0.29764 0.0
O1140 O 0.82782 0.28293 0.2809 0.0
O1141 O 0.84113 0.32249 0.27889 0.0
O1142 O 0.75367 0.28128 0.28537 0.0
O1143 O 0.79002 0.30402 0.27556 0.0
O1144 O 0.80147 0.28748 0.23876 0.0
O1145 O 0.77566 0.26604 0.24461 0.0
O1146 O 0.7654 0.29266 0.26132 0.0
O1147 O 0.75181 0.25262 0.2646 0.0
C1148 C 0.81535 0.26689 0.27614 0.0
C1149 C 0.86916 0.31634 0.26941 0.0
C1150 C 0.89783 0.32368 0.28808 0.0
C1151 C 0.87917 0.31917 0.28708 0.0
C1152 C 0.90638 0.32554 0.27151 0.0
C1153 C 0.87781 0.31799 0.25291 0.0
C1154 C 0.89639 0.32271 0.25401 0.0
C1155 C 0.80772 0.29975 0.30917 0.0
C1156 C 0.8497 0.3113 0.268 0.0
C1157 C 0.82866 0.36827 0.23534 0.0
C1158 C 0.8238 0.37753 0.25285 0.0
C1159 C 0.77796 0.30867 0.26577 0.0
C1160 C 0.72417 0.25949 0.27461 0.0
C1161 C 0.71379 0.25744 0.25746 0.0
C1162 C 0.69518 0.25233 0.25682 0.0
C1163 C 0.68703 0.24925 0.27335 0.0
C1164 C 0.71598 0.25669 0.29116 0.0
C1165 C 0.69742 0.25149 0.29047 0.0
C1166 C 0.78623 0.27372 0.23293 0.0
C1167 C 0.74353 0.26438 0.27524 0.0
H1168 H 0.87251 0.3175 0.2998 0.0
H1169 H 0.9208 0.32882 0.27208 0.0
H1170 H 0.87018 0.31573 0.2392 0.0
H1171 H 0.90306 0.324 0.24126 0.0
H1172 H 0.72013 0.25997 0.24475 0.0
H1173 H 0.67262 0.24558 0.27311 0.0
H1174 H 0.72394 0.25832 0.3045 0.0
H1175 H 0.69107 0.24929 0.30322 0.0
Tb1176 Tb 0.05221 0.52934 0.53791 0.0
C1177 C 0.00593 0.54934 0.47294 0.0
C1178 C 0.9868 0.5174 0.45611 0.0
C1179 C 0.97886 0.54797 0.45355 0.0
C1180 C 0.00246 0.52883 0.46795 0.0
C1181 C 0.99427 0.55921 0.46567 0.0
C1182 C 0.9751 0.52708 0.44882 0.0
C1183 C 0.01439 0.59058 0.48219 0.0
N1184 N 0.02088 0.55965 0.48476 0.0
C1185 C 0.0256 0.58009 0.48887 0.0
C1186 C 0.99861 0.58009 0.4706 0.0
Tb1187 Tb 0.03968 0.54157 0.49302 0.0
N1188 N 0.01406 0.5201 0.47545 0.0
C1189 C 0.01041 0.49966 0.47171 0.0
C1190 C 0.98323 0.4966 0.45219 0.0
C1191 C 0.99503 0.48771 0.46016 0.0
H1192 H 0.03802 0.58826 0.49742 0.0
H1193 H 0.99228 0.4716 0.45745 0.0
H1194 H 0.96308 0.51857 0.43962 0.0
H1195 H 0.01805 0.60674 0.48577 0.0
H1196 H 0.01892 0.49212 0.47782 0.0
H1197 H 0.0925 0.59875 0.5839 0.0
H1198 H 0.97132 0.48729 0.44324 0.0
H1199 H 0.0563 0.48338 0.53213 0.0
H1200 H 0.06647 0.5777 0.56296 0.0
H1201 H 0.07874 0.46614 0.54069 0.0
H1202 H 0.96976 0.55529 0.44779 0.0
H1203 H 0.11785 0.58506 0.5912 0.0
H1204 H 0.13075 0.55538 0.58808 0.0
H1205 H 0.99002 0.58825 0.46531 0.0
H1206 H 0.12705 0.51921 0.57633 0.0
N1207 N 0.07651 0.55142 0.55722 0.0
C1208 C 0.07715 0.57099 0.56556 0.0
C1209 C 0.10636 0.57552 0.58172 0.0
C1210 C 0.1054 0.55539 0.57398 0.0
C1211 C 0.09206 0.58326 0.57769 0.0
C1212 C 0.0901 0.5436 0.56171 0.0
H1213 H 0.10762 0.48579 0.55882 0.0
N1214 N 0.07275 0.5125 0.54435 0.0
C1215 C 0.08163 0.48227 0.5447 0.0
C1216 C 0.08813 0.5234 0.55504 0.0
C1217 C 0.06898 0.49207 0.53986 0.0
C1218 C 0.09792 0.49341 0.55488 0.0
C1219 C 0.10122 0.51422 0.56051 0.0
O1220 O 0.03722 0.50813 0.55064 0.0
O1221 O 0.0319 0.52807 0.51621 0.0
O1222 O 0.02703 0.55842 0.51475 0.0
O1223 O 0.04287 0.55671 0.54292 0.0
O1224 O 0.03087 0.50279 0.52516 0.0
O1225 O 0.04332 0.53986 0.56448 0.0
O1226 O 0.05765 0.55969 0.47958 0.0
O1227 O 0.05951 0.54367 0.51554 0.0
O1228 O 0.06563 0.51486 0.51558 0.0
O1229 O 0.04691 0.51294 0.48843 0.0
O1230 O 0.06157 0.56847 0.50518 0.0
O1231 O 0.04583 0.52868 0.46561 0.0
C1232 C 0.02192 0.51125 0.51541 0.0
C1233 C 0.03721 0.51678 0.58394 0.0
C1234 C 0.02276 0.51502 0.61259 0.0
C1235 C 0.02604 0.52347 0.597 0.0
C1236 C 0.03164 0.50079 0.61599 0.0
C1237 C 0.04643 0.50276 0.58731 0.0
C1238 C 0.04376 0.49497 0.60352 0.0
C1239 C 0.03219 0.56424 0.53337 0.0
C1240 C 0.03572 0.52168 0.56551 0.0
C1241 C 0.11679 0.52597 0.57206 0.0
C1242 C 0.11889 0.54655 0.57875 0.0
C1243 C 0.06889 0.56094 0.51728 0.0
C1244 C 0.05481 0.55157 0.44628 0.0
C1245 C 0.06807 0.5493 0.43421 0.0
C1246 C 0.06945 0.55813 0.41861 0.0
C1247 C 0.0572 0.5689 0.41474 0.0
C1248 C 0.04232 0.56203 0.44228 0.0
C1249 C 0.0435 0.5706 0.42647 0.0
C1250 C 0.05892 0.50678 0.49758 0.0
C1251 C 0.05629 0.54554 0.46426 0.0
H1252 H 0.01851 0.53383 0.59404 0.0
H1253 H 0.02894 0.49397 0.62803 0.0
H1254 H 0.055 0.49726 0.57711 0.0
H1255 H 0.05052 0.48386 0.60601 0.0
H1256 H 0.07789 0.54147 0.43747 0.0
H1257 H 0.05817 0.57579 0.40263 0.0
H1258 H 0.03206 0.56409 0.45153 0.0
H1259 H 0.03399 0.57886 0.42351 0.0
Tb1260 Tb 0.77758 0.79541 0.26808 0.0
C1261 C 0.83753 0.77098 0.30641 0.0
C1262 C 0.84997 0.80059 0.33171 0.0
C1263 C 0.85205 0.7682 0.33616 0.0
C1264 C 0.84073 0.79134 0.31333 0.0
C1265 C 0.84363 0.75923 0.31752 0.0
C1266 C 0.85518 0.78886 0.34326 0.0
C1267 C 0.83455 0.73108 0.2902 0.0
N1268 N 0.82966 0.76289 0.28824 0.0
C1269 C 0.82881 0.74336 0.27974 0.0
C1270 C 0.84174 0.73897 0.30928 0.0
Tb1271 Tb 0.82073 0.78414 0.27212 0.0
N1272 N 0.83591 0.8022 0.30152 0.0
C1273 C 0.84116 0.8227 0.30699 0.0
C1274 C 0.85438 0.8214 0.33764 0.0
C1275 C 0.85022 0.83249 0.32508 0.0
H1276 H 0.8233 0.73721 0.26492 0.0
H1277 H 0.85389 0.84865 0.32935 0.0
H1278 H 0.86216 0.79569 0.35745 0.0
H1279 H 0.83346 0.71554 0.28351 0.0
H1280 H 0.83814 0.83199 0.29797 0.0
H1281 H 0.74522 0.73281 0.20878 0.0
H1282 H 0.86144 0.82905 0.35164 0.0
H1283 H 0.77504 0.84244 0.27722 0.0
H1284 H 0.76138 0.74848 0.24015 0.0
H1285 H 0.76481 0.8651 0.25995 0.0
H1286 H 0.85668 0.75939 0.34496 0.0
H1287 H 0.73648 0.75336 0.1881 0.0
H1288 H 0.73487 0.78714 0.18412 0.0
H1289 H 0.8463 0.72946 0.31732 0.0
H1290 H 0.74027 0.82322 0.19799 0.0
N1291 N 0.76239 0.77852 0.23835 0.0
C1292 C 0.75758 0.75809 0.23197 0.0
C1293 C 0.74364 0.76053 0.20214 0.0
C1294 C 0.74767 0.78125 0.20898 0.0
C1295 C 0.74844 0.7489 0.2138 0.0
C1296 C 0.75712 0.78987 0.22736 0.0
H1297 H 0.75131 0.85237 0.22627 0.0
N1298 N 0.76852 0.8175 0.25311 0.0
C1299 C 0.7636 0.8497 0.2527 0.0
C1300 C 0.76029 0.81008 0.23502 0.0
C1301 C 0.76942 0.83686 0.26239 0.0
C1302 C 0.75602 0.84247 0.23369 0.0
C1303 C 0.75394 0.82234 0.22474 0.0
O1304 O 0.7647 0.80755 0.29127 0.0
O1305 O 0.79911 0.7928 0.28685 0.0
O1306 O 0.80148 0.75872 0.27976 0.0
O1307 O 0.7739 0.76394 0.27074 0.0
O1308 O 0.78967 0.81792 0.29398 0.0
O1309 O 0.75142 0.78003 0.27183 0.0
O1310 O 0.8333 0.77198 0.24865 0.0
O1311 O 0.7992 0.78676 0.25337 0.0
O1312 O 0.79651 0.82111 0.26126 0.0
O1313 O 0.82431 0.81525 0.26835 0.0
O1314 O 0.80846 0.76139 0.24652 0.0
O1315 O 0.84747 0.79853 0.26873 0.0
C1316 C 0.80044 0.80854 0.29975 0.0
C1317 C 0.7333 0.79932 0.28947 0.0
C1318 C 0.70661 0.79989 0.30649 0.0
C1319 C 0.72168 0.79228 0.30249 0.0
C1320 C 0.70337 0.81461 0.29751 0.0
C1321 C 0.72937 0.81359 0.28027 0.0
C1322 C 0.71462 0.82131 0.28442 0.0
C1323 C 0.78372 0.7525 0.27605 0.0
C1324 C 0.75026 0.79322 0.28716 0.0
C1325 C 0.74514 0.81401 0.20617 0.0
C1326 C 0.74204 0.79348 0.19828 0.0
C1327 C 0.79781 0.77089 0.24063 0.0
C1328 C 0.8648 0.77864 0.24994 0.0
C1329 C 0.87869 0.78845 0.24046 0.0
C1330 C 0.8935 0.78026 0.23592 0.0
C1331 C 0.8938 0.76202 0.24054 0.0
C1332 C 0.86595 0.76069 0.25448 0.0
C1333 C 0.88022 0.75243 0.24975 0.0
C1334 C 0.81424 0.82686 0.264 0.0
C1335 C 0.84819 0.78566 0.25298 0.0
H1336 H 0.72449 0.78121 0.30967 0.0
H1337 H 0.69192 0.8207 0.30043 0.0
H1338 H 0.73776 0.81895 0.27003 0.0
H1339 H 0.71188 0.83252 0.27742 0.0
H1340 H 0.87793 0.8022 0.23659 0.0
H1341 H 0.90456 0.75495 0.23683 0.0
H1342 H 0.85556 0.75263 0.26123 0.0
H1343 H 0.88069 0.73837 0.25309 0.0
Tb1344 Tb 0.80828 0.27923 0.75022 0.0
C1345 C 0.78715 0.34253 0.81418 0.0
C1346 C 0.81556 0.36155 0.83172 0.0
C1347 C 0.7894 0.37454 0.83653 0.0
C1348 C 0.80507 0.34416 0.81877 0.0
C1349 C 0.7791 0.35765 0.82324 0.0
C1350 C 0.8076 0.37655 0.84066 0.0
C1351 C 0.75079 0.33758 0.80696 0.0
N1352 N 0.77741 0.32575 0.80161 0.0
C1353 C 0.75923 0.32293 0.79862 0.0
C1354 C 0.76078 0.35507 0.81928 0.0
Tb1355 Tb 0.79114 0.29983 0.79408 0.0
N1356 N 0.81218 0.32882 0.81066 0.0
C1357 C 0.83032 0.33127 0.81384 0.0
C1358 C 0.83377 0.36343 0.83542 0.0
C1359 C 0.84122 0.34841 0.82612 0.0
H1360 H 0.75083 0.30889 0.79044 0.0
H1361 H 0.85543 0.34994 0.82845 0.0
H1362 H 0.81543 0.38979 0.85084 0.0
H1363 H 0.73647 0.33505 0.80432 0.0
H1364 H 0.837 0.32054 0.80671 0.0
H1365 H 0.74823 0.23073 0.70819 0.0
H1366 H 0.84225 0.37658 0.84516 0.0
H1367 H 0.84891 0.27294 0.75683 0.0
H1368 H 0.76536 0.26018 0.73174 0.0
H1369 H 0.86503 0.24734 0.7452 0.0
H1370 H 0.7834 0.38615 0.84371 0.0
H1371 H 0.76199 0.20312 0.69526 0.0
H1372 H 0.789 0.18938 0.6941 0.0
H1373 H 0.75415 0.36626 0.82607 0.0
H1374 H 0.82064 0.19367 0.70456 0.0
N1375 N 0.78927 0.2501 0.73264 0.0
C1376 C 0.77195 0.24868 0.72629 0.0
C1377 C 0.76971 0.21615 0.70576 0.0
C1378 C 0.7874 0.21762 0.71213 0.0
C1379 C 0.76195 0.23173 0.71294 0.0
C1380 C 0.79687 0.23491 0.72585 0.0
H1381 H 0.84898 0.21502 0.72379 0.0
N1382 N 0.82329 0.25446 0.74435 0.0
C1383 C 0.85076 0.24411 0.74159 0.0
C1384 C 0.8145 0.23714 0.73197 0.0
C1385 C 0.84147 0.25844 0.74844 0.0
C1386 C 0.84166 0.22593 0.72951 0.0
C1387 C 0.82339 0.2224 0.72423 0.0
O1388 O 0.83074 0.29129 0.73731 0.0
O1389 O 0.80536 0.30538 0.7702 0.0
O1390 O 0.77433 0.3038 0.76979 0.0
O1391 O 0.78584 0.29101 0.74145 0.0
O1392 O 0.83043 0.30451 0.76278 0.0
O1393 O 0.80399 0.28179 0.72167 0.0
O1394 O 0.7656 0.28586 0.79999 0.0
O1395 O 0.78849 0.27512 0.76961 0.0
O1396 O 0.8221 0.27181 0.77441 0.0
O1397 O 0.81554 0.29162 0.80284 0.0
O1398 O 0.78804 0.26901 0.79652 0.0
O1399 O 0.78649 0.30279 0.8229 0.0
C1400 C 0.82104 0.31567 0.77154 0.0
C1401 C 0.82886 0.29433 0.70479 0.0
C1402 C 0.83353 0.31691 0.68379 0.0
C1403 C 0.82421 0.30959 0.6979 0.0
C1404 C 0.84701 0.30839 0.67597 0.0
C1405 C 0.84236 0.2858 0.69708 0.0
C1406 C 0.85128 0.29272 0.68248 0.0
C1407 C 0.77393 0.2993 0.75068 0.0
C1408 C 0.82099 0.28919 0.72148 0.0
C1409 C 0.81401 0.20509 0.71073 0.0
C1410 C 0.79602 0.20268 0.70473 0.0
C1411 C 0.78656 0.26149 0.77841 0.0
C1412 C 0.76242 0.2798 0.83082 0.0
C1413 C 0.77197 0.26752 0.83714 0.0
C1414 C 0.76475 0.25625 0.84987 0.0
C1415 C 0.74817 0.25746 0.85649 0.0
C1416 C 0.74588 0.281 0.83743 0.0
C1417 C 0.73879 0.26986 0.8503 0.0
C1418 C 0.82519 0.28024 0.79314 0.0
C1419 C 0.76983 0.2927 0.81847 0.0
H1420 H 0.81402 0.31644 0.70418 0.0
H1421 H 0.85423 0.31391 0.66488 0.0
H1422 H 0.84613 0.27407 0.70254 0.0
H1423 H 0.86172 0.28622 0.67648 0.0
H1424 H 0.78504 0.26705 0.83261 0.0
H1425 H 0.74272 0.24917 0.86682 0.0
H1426 H 0.73859 0.2908 0.83286 0.0
H1427 H 0.72613 0.27098 0.85559 0.0
Tb1428 Tb 0.81797 0.82718 0.79028 0.0
C1429 C 0.75537 0.75222 0.75093 0.0
C1430 C 0.74232 0.74178 0.77817 0.0
C1431 C 0.72698 0.72725 0.74615 0.0
C1432 C 0.75638 0.75317 0.77038 0.0
C1433 C 0.74066 0.73918 0.73857 0.0
C1434 C 0.72777 0.7286 0.76593 0.0
C1435 C 0.75449 0.74974 0.71192 0.0
N1436 N 0.76895 0.76383 0.74412 0.0
C1437 C 0.76885 0.76222 0.72469 0.0
C1438 C 0.74031 0.73815 0.71888 0.0
Tb1439 Tb 0.79442 0.77766 0.76507 0.0
N1440 N 0.77085 0.76581 0.78169 0.0
C1441 C 0.77125 0.76864 0.80128 0.0
C1442 C 0.74319 0.74406 0.79804 0.0
C1443 C 0.75756 0.75783 0.80964 0.0
H1444 H 0.78027 0.76989 0.71887 0.0
H1445 H 0.7582 0.76005 0.8251 0.0
H1446 H 0.717 0.71953 0.77164 0.0
H1447 H 0.75463 0.74864 0.69665 0.0
H1448 H 0.782 0.77921 0.81087 0.0
H1449 H 0.85447 0.84734 0.73127 0.0
H1450 H 0.73267 0.73559 0.80458 0.0
H1451 H 0.83079 0.83533 0.83649 0.0
H1452 H 0.83006 0.82851 0.74466 0.0
H1453 H 0.8574 0.85364 0.85893 0.0
H1454 H 0.71568 0.71703 0.73686 0.0
H1455 H 0.88145 0.86819 0.75207 0.0
H1456 H 0.89819 0.88043 0.78473 0.0
H1457 H 0.72932 0.72824 0.70892 0.0
H1458 H 0.89945 0.88114 0.81916 0.0
N1459 N 0.84175 0.83917 0.77403 0.0
C1460 C 0.84105 0.83801 0.75459 0.0
C1461 C 0.87047 0.86013 0.75834 0.0
C1462 C 0.87153 0.86087 0.77797 0.0
C1463 C 0.85525 0.84846 0.74659 0.0
C1464 C 0.85685 0.85005 0.78547 0.0
H1465 H 0.88455 0.87086 0.84681 0.0
N1466 N 0.84334 0.83971 0.81141 0.0
C1467 C 0.85784 0.85248 0.84367 0.0
C1468 C 0.85776 0.85005 0.80471 0.0
C1469 C 0.84291 0.84176 0.83083 0.0
C1470 C 0.87308 0.86223 0.83679 0.0
C1471 C 0.87308 0.86144 0.81717 0.0
O1472 O 0.81229 0.84775 0.81356 0.0
O1473 O 0.7925 0.80648 0.78025 0.0
O1474 O 0.78545 0.79686 0.74899 0.0
O1475 O 0.80606 0.82762 0.76151 0.0
O1476 O 0.79625 0.82117 0.80808 0.0
O1477 O 0.81662 0.85508 0.78556 0.0
O1478 O 0.80079 0.75848 0.74145 0.0
O1479 O 0.81974 0.79868 0.7751 0.0
O1480 O 0.82619 0.80726 0.80675 0.0
O1481 O 0.80607 0.77644 0.79316 0.0
O1482 O 0.81673 0.78389 0.74773 0.0
O1483 O 0.79611 0.74923 0.76859 0.0
C1484 C 0.7843 0.81005 0.79461 0.0
C1485 C 0.81205 0.88104 0.81148 0.0
C1486 C 0.79892 0.90783 0.80809 0.0
C1487 C 0.80181 0.88916 0.80053 0.0
C1488 C 0.80677 0.9188 0.82646 0.0
C1489 C 0.81997 0.89186 0.82987 0.0
C1490 C 0.81746 0.91087 0.83725 0.0
C1491 C 0.79391 0.81503 0.74788 0.0
C1492 C 0.81414 0.86118 0.80352 0.0
C1493 C 0.88763 0.8723 0.8098 0.0
C1494 C 0.88686 0.87199 0.79023 0.0
C1495 C 0.82842 0.79565 0.76111 0.0
C1496 C 0.80122 0.7248 0.74109 0.0
C1497 C 0.80894 0.71406 0.75166 0.0
C1498 C 0.81115 0.69537 0.74268 0.0
C1499 C 0.80526 0.68716 0.72317 0.0
C1500 C 0.79565 0.71684 0.72146 0.0
C1501 C 0.79758 0.69797 0.71257 0.0
C1502 C 0.81814 0.78856 0.80702 0.0
C1503 C 0.79904 0.74428 0.75058 0.0
H1504 H 0.79541 0.88055 0.78647 0.0
H1505 H 0.80446 0.93331 0.83246 0.0
H1506 H 0.82808 0.88567 0.83842 0.0
H1507 H 0.82355 0.9193 0.85142 0.0
H1508 H 0.81349 0.72034 0.76678 0.0
H1509 H 0.80704 0.6727 0.71607 0.0
H1510 H 0.78966 0.72511 0.71309 0.0
H1511 H 0.79324 0.69178 0.69746 0.0
Tb1512 Tb 0.52343 0.52541 0.50353 0.0
C1513 C 0.58842 0.59419 0.54628 0.0
C1514 C 0.59968 0.61035 0.52138 0.0
C1515 C 0.60797 0.62778 0.55482 0.0
C1516 C 0.58959 0.5936 0.52711 0.0
C1517 C 0.5977 0.61122 0.56041 0.0
C1518 C 0.60895 0.62734 0.53533 0.0
C1519 C 0.58664 0.59399 0.58459 0.0
N1520 N 0.57821 0.57805 0.5511 0.0
C1521 C 0.57784 0.57745 0.57005 0.0
C1522 C 0.59653 0.61104 0.57975 0.0
Tb1523 Tb 0.56621 0.55046 0.52658 0.0
N1524 N 0.57982 0.57718 0.51409 0.0
C1525 C 0.57955 0.57703 0.49487 0.0
C1526 C 0.59975 0.60981 0.50183 0.0
C1527 C 0.58952 0.59313 0.48855 0.0
H1528 H 0.57079 0.56404 0.57399 0.0
H1529 H 0.58909 0.59275 0.47336 0.0
H1530 H 0.61676 0.6403 0.53118 0.0
H1531 H 0.586 0.59345 0.5995 0.0
H1532 H 0.57125 0.56503 0.48399 0.0
H1533 H 0.50269 0.48182 0.55639 0.0
H1534 H 0.60729 0.62236 0.49687 0.0
H1535 H 0.5174 0.51261 0.45595 0.0
H1536 H 0.51848 0.51066 0.54609 0.0
H1537 H 0.50238 0.48319 0.43043 0.0
H1538 H 0.61516 0.64099 0.56546 0.0
H1539 H 0.4864 0.45131 0.53268 0.0
H1540 H 0.47694 0.43359 0.49839 0.0
H1541 H 0.60345 0.62381 0.59102 0.0
H1542 H 0.47719 0.43374 0.46419 0.0
N1543 N 0.51179 0.49773 0.51576 0.0
C1544 C 0.51152 0.49799 0.53499 0.0
C1545 C 0.49346 0.46416 0.52781 0.0
C1546 C 0.49355 0.46375 0.50829 0.0
C1547 C 0.50258 0.48133 0.54119 0.0
C1548 C 0.503 0.4809 0.50266 0.0
H1549 H 0.4869 0.45195 0.43878 0.0
N1550 N 0.51224 0.49772 0.47872 0.0
C1551 C 0.50271 0.48222 0.44528 0.0
C1552 C 0.50333 0.48087 0.4835 0.0
C1553 C 0.51146 0.49878 0.45983 0.0
C1554 C 0.49395 0.46465 0.45005 0.0
C1555 C 0.49396 0.46388 0.46934 0.0
O1556 O 0.50595 0.53387 0.48589 0.0
O1557 O 0.54177 0.55449 0.51468 0.0
O1558 O 0.54779 0.56152 0.54686 0.0
O1559 O 0.52105 0.53829 0.53431 0.0
O1560 O 0.53088 0.5483 0.4873 0.0
O1561 O 0.49891 0.52913 0.51357 0.0
O1562 O 0.58161 0.54084 0.54542 0.0
O1563 O 0.54794 0.52114 0.51555 0.0
O1564 O 0.54145 0.51719 0.48171 0.0
O1565 O 0.56918 0.5374 0.49593 0.0
O1566 O 0.55691 0.52963 0.54404 0.0
O1567 O 0.59059 0.54469 0.51817 0.0
C1568 C 0.54012 0.56261 0.50087 0.0
C1569 C 0.47541 0.52732 0.49009 0.0
C1570 C 0.44642 0.5346 0.48966 0.0
C1571 C 0.4637 0.5382 0.49843 0.0
C1572 C 0.44067 0.51994 0.47254 0.0
C1573 C 0.4696 0.51253 0.47298 0.0
C1574 C 0.45226 0.50888 0.46427 0.0
C1575 C 0.53105 0.55237 0.54868 0.0
C1576 C 0.4941 0.53409 0.49806 0.0
C1577 C 0.48451 0.44687 0.47486 0.0
C1578 C 0.48433 0.4468 0.49431 0.0
C1579 C 0.54907 0.51448 0.53049 0.0
C1580 C 0.61244 0.54681 0.54341 0.0
C1581 C 0.62548 0.53945 0.5336 0.0
C1582 C 0.64247 0.54246 0.5429 0.0
C1583 C 0.64657 0.55347 0.56207 0.0
C1584 C 0.6166 0.55775 0.56262 0.0
C1585 C 0.63367 0.56119 0.57182 0.0
C1586 C 0.55865 0.52505 0.48084 0.0
C1587 C 0.59415 0.53993 0.53421 0.0
H1588 H 0.46824 0.55 0.51138 0.0
H1589 H 0.42734 0.51724 0.46552 0.0
H1590 H 0.47849 0.50419 0.46611 0.0
H1591 H 0.44789 0.49766 0.45095 0.0
H1592 H 0.62217 0.53065 0.51891 0.0
H1593 H 0.65955 0.55562 0.56966 0.0
H1594 H 0.60662 0.56302 0.57077 0.0
H1595 H 0.63675 0.56937 0.58668 0.0
Tb1596 Tb 0.0671 0.5448 0.00921 0.0
C1597 C 0.00287 0.50178 0.04118 0.0
C1598 C 0.98821 0.47472 0.0142 0.0
C1599 C 0.9863 0.47004 0.04659 0.0
C1600 C 0.99887 0.49437 0.02155 0.0
C1601 C 0.99593 0.48993 0.0539 0.0
C1602 C 0.98251 0.46242 0.02676 0.0
C1603 C 0.00578 0.51909 0.08005 0.0
N1604 N 0.01193 0.52117 0.04784 0.0
C1605 C 0.01231 0.53024 0.06692 0.0
C1606 C 0.99794 0.49872 0.07357 0.0
Tb1607 Tb 0.02224 0.53791 0.02483 0.0
N1608 N 0.00403 0.50691 0.00981 0.0
C1609 C 0.99745 0.50099 0.99075 0.0
C1610 C 0.98279 0.46828 0.99455 0.0
C1611 C 0.98711 0.48162 0.98287 0.0
H1612 H 0.01839 0.54604 0.07219 0.0
H1613 H 0.98233 0.47706 0.96775 0.0
H1614 H 0.97449 0.44727 0.02133 0.0
H1615 H 0.00678 0.52624 0.09515 0.0
H1616 H 0.99975 0.51086 0.98119 0.0
H1617 H 0.09961 0.61099 0.064 0.0
H1618 H 0.97462 0.45333 0.98839 0.0
H1619 H 0.06774 0.53339 0.96214 0.0
H1620 H 0.07987 0.57768 0.05171 0.0
H1621 H 0.08245 0.54921 0.93752 0.0
H1622 H 0.9811 0.46067 0.05615 0.0
H1623 H 0.11494 0.62962 0.04159 0.0
H1624 H 0.12117 0.63051 0.00771 0.0
H1625 H 0.99275 0.49013 0.08376 0.0
H1626 H 0.11639 0.61381 0.97331 0.0
N1627 N 0.0841 0.57653 0.02236 0.0
C1628 C 0.08688 0.58502 0.04167 0.0
C1629 C 0.1064 0.61474 0.03606 0.0
C1630 C 0.10379 0.6059 0.01638 0.0
C1631 C 0.09787 0.60423 0.04875 0.0
C1632 C 0.09234 0.5866 0.0099 0.0
H1633 H 0.10195 0.58352 0.94701 0.0
N1634 N 0.07813 0.55891 0.98508 0.0
C1635 C 0.08435 0.55738 0.95238 0.0
C1636 C 0.08932 0.57744 0.9906 0.0
C1637 C 0.07597 0.54852 0.96631 0.0
C1638 C 0.09538 0.57675 0.9578 0.0
C1639 C 0.0981 0.58698 0.97714 0.0
O1640 O 0.07806 0.52074 0.99816 0.0
O1641 O 0.04313 0.52431 0.01421 0.0
O1642 O 0.03999 0.53626 0.04858 0.0
O1643 O 0.06882 0.543 0.03884 0.0
O1644 O 0.05372 0.51657 0.9889 0.0
O1645 O 0.09292 0.54506 0.02066 0.0
O1646 O 0.01235 0.55924 0.04321 0.0
O1647 O 0.04862 0.55808 0.02607 0.0
O1648 O 0.0511 0.55536 0.98995 0.0
O1649 O 0.02352 0.53628 0.99435 0.0
O1650 O 0.02667 0.56906 0.02375 0.0
O1651 O 0.99689 0.54137 0.01631 0.0
C1652 C 0.04162 0.51039 0.99945 0.0
C1653 C 0.10907 0.52526 1.00062 0.0
C1654 C 0.13273 0.5077 0.99743 0.0
C1655 C 0.1189 0.51337 0.00744 0.0
C1656 C 0.13682 0.51414 0.98066 0.0
C1657 C 0.11366 0.53207 0.98413 0.0
C1658 C 0.12744 0.52647 0.97418 0.0
C1659 C 0.05746 0.53896 0.05138 0.0
C1660 C 0.09277 0.52791 0.00944 0.0
C1661 C 0.10954 0.60621 0.98344 0.0
C1662 C 0.1123 0.6157 0.00303 0.0
C1663 C 0.04362 0.57357 0.02469 0.0
C1664 C 0.98171 0.5596 0.03968 0.0
C1665 C 0.97179 0.57032 0.0311 0.0
C1666 C 0.95763 0.57648 0.04003 0.0
C1667 C 0.95333 0.57173 0.05749 0.0
C1668 C 0.97716 0.55486 0.05711 0.0
C1669 C 0.963 0.56088 0.06592 0.0
C1670 C 0.03358 0.54912 0.98608 0.0
C1671 C 0.99801 0.55602 0.03142 0.0
H1672 H 0.11542 0.50796 0.02013 0.0
H1673 H 0.14743 0.50986 0.97276 0.0
H1674 H 0.1064 0.54131 0.9787 0.0
H1675 H 0.13075 0.53155 0.96131 0.0
H1676 H 0.97539 0.57438 0.01781 0.0
H1677 H 0.94249 0.57646 0.0646 0.0
H1678 H 0.9847 0.54688 0.06412 0.0
H1679 H 0.95965 0.55733 0.07944 0.0
C1680 C 0.02981 0.21717 0.95819 0.0
C1681 C 0.01384 0.22271 0.96207 0.0
C1682 C 0.03454 0.20224 0.96579 0.0
C1683 C 0.02071 0.16883 1.0002 0.0
H1684 H 0.05049 0.13885 0.97112 0.0
C1685 C 0.03812 0.10199 0.02405 0.0
C1686 C 0.03924 0.08558 0.00959 0.0
C1687 C 0.03744 0.12012 0.01962 0.0
C1688 C 0.04195 0.14683 0.97936 0.0
H1689 H 0.99058 0.21711 0.97764 0.0
H1690 H 0.99823 0.19068 0.99006 0.0
H1691 H 0.04366 0.1666 0.96072 0.0
H1692 H 0.0399 0.07488 0.97911 0.0
H1693 H 0.0386 0.1062 0.97116 0.0
H1694 H 0.01778 0.14778 0.01783 0.0
C1695 C 0.00755 0.19808 0.9816 0.0
C1696 C 0.0383 0.16325 0.9736 0.0
C1697 C 0.003 0.21329 0.97428 0.0
C1698 C 0.03981 0.0876 0.99062 0.0
C1699 C 0.03898 0.10564 0.98611 0.0
C1700 C 0.02397 0.15203 0.00565 0.0
C1701 C 0.02328 0.19198 0.97722 0.0
C1702 C 0.02759 0.17464 0.98387 0.0
C1703 C 0.03738 0.1221 1.00047 0.0
C1704 C 0.03462 0.14069 0.99528 0.0
H1705 H 0.03862 0.22415 0.94899 0.0
H1706 H 0.0471 0.19881 0.96251 0.0
H1707 H 0.01273 0.17717 0.00893 0.0
H1708 H 0.03722 0.10057 0.03874 0.0
H1709 H 0.03658 0.13242 0.0312 0.0
C1710 C 0.14557 0.81525 0.14741 0.0
C1711 C 0.1354 0.82699 0.15813 0.0
C1712 C 0.16126 0.81234 0.15605 0.0
C1713 C 0.19412 0.833 0.20094 0.0
H1714 H 0.20807 0.78328 0.18548 0.0
C1715 C 0.24777 0.81452 0.24802 0.0
C1716 C 0.25946 0.80348 0.23949 0.0
C1717 C 0.23325 0.81704 0.23722 0.0
C1718 C 0.20453 0.79738 0.18992 0.0
H1719 H 0.13414 0.84486 0.18649 0.0
H1720 H 0.16057 0.83951 0.20134 0.0
H1721 H 0.18217 0.78829 0.16827 0.0
H1722 H 0.2649 0.78686 0.21218 0.0
H1723 H 0.23991 0.79173 0.19322 0.0
H1724 H 0.21627 0.84209 0.22261 0.0
C1725 C 0.15698 0.83284 0.18617 0.0
C1726 C 0.18957 0.8003 0.17994 0.0
C1727 C 0.14151 0.8358 0.17759 0.0
C1728 C 0.25627 0.79541 0.21947 0.0
C1729 C 0.24173 0.79805 0.20855 0.0
C1730 C 0.20892 0.83004 0.21092 0.0
C1731 C 0.16726 0.82109 0.17567 0.0
C1732 C 0.18391 0.8181 0.18543 0.0
C1733 C 0.22991 0.80891 0.21725 0.0
C1734 C 0.21434 0.81211 0.2058 0.0
H1735 H 0.14133 0.80813 0.13241 0.0
H1736 H 0.16872 0.80334 0.14725 0.0
H1737 H 0.19084 0.84723 0.20542 0.0
H1738 H 0.24983 0.82151 0.26309 0.0
H1739 H 0.22452 0.82531 0.24471 0.0
C1740 C 0.51166 0.82951 0.47959 0.0
C1741 C 0.51613 0.8208 0.46148 0.0
C1742 C 0.51604 0.85034 0.48641 0.0
C1743 C 0.5228 0.89421 0.46564 0.0
H1744 H 0.53396 0.92462 0.51828 0.0
C1745 C 0.52757 0.9783 0.4811 0.0
C1746 C 0.53549 0.99092 0.49867 0.0
C1747 C 0.52388 0.95761 0.47847 0.0
C1748 C 0.53107 0.91675 0.50338 0.0
H1749 H 0.52987 0.82703 0.43703 0.0
H1750 H 0.53751 0.86309 0.44883 0.0
H1751 H 0.53299 0.8894 0.51067 0.0
H1752 H 0.54641 0.99199 0.52727 0.0
H1753 H 0.54185 0.95634 0.52241 0.0
H1754 H 0.5219 0.92069 0.45756 0.0
C1755 C 0.53037 0.85396 0.45769 0.0
C1756 C 0.53032 0.89623 0.4991 0.0
C1757 C 0.52614 0.83323 0.45099 0.0
C1758 C 0.53986 0.9825 0.51365 0.0
C1759 C 0.53715 0.96176 0.51071 0.0
C1760 C 0.52394 0.91461 0.46975 0.0
C1761 C 0.52473 0.86282 0.47509 0.0
C1762 C 0.5262 0.88474 0.48013 0.0
C1763 C 0.52942 0.94876 0.49283 0.0
C1764 C 0.52796 0.9265 0.48874 0.0
H1765 H 0.50411 0.82027 0.4881 0.0
H1766 H 0.51158 0.85664 0.49991 0.0
H1767 H 0.51917 0.88581 0.45088 0.0
H1768 H 0.52421 0.98449 0.46927 0.0
H1769 H 0.51694 0.94893 0.46482 0.0
C1770 C 0.51979 0.31689 0.63848 0.0
C1771 C 0.53354 0.30902 0.64472 0.0
C1772 C 0.50357 0.3146 0.64675 0.0
C1773 C 0.47611 0.28473 0.67708 0.0
H1774 H 0.45281 0.32828 0.68708 0.0
C1775 C 0.426 0.28846 0.73254 0.0
C1776 C 0.40856 0.28848 0.72604 0.0
C1777 C 0.44021 0.29272 0.72157 0.0
C1778 C 0.45906 0.31593 0.68418 0.0
H1779 H 0.54075 0.29231 0.66442 0.0
H1780 H 0.51264 0.28825 0.67881 0.0
H1781 H 0.47949 0.33127 0.66967 0.0
H1782 H 0.39293 0.29501 0.70354 0.0
H1783 H 0.41819 0.30322 0.68451 0.0
H1784 H 0.45615 0.26974 0.69219 0.0
C1785 C 0.51422 0.29607 0.66737 0.0
C1786 C 0.47437 0.31757 0.67415 0.0
C1787 C 0.53047 0.29847 0.65918 0.0
C1788 C 0.40613 0.29481 0.709 0.0
C1789 C 0.42057 0.29939 0.69804 0.0
C1790 C 0.46104 0.28321 0.68723 0.0
C1791 C 0.50052 0.30423 0.66143 0.0
C1792 C 0.48336 0.30212 0.67077 0.0
C1793 C 0.43762 0.29754 0.70387 0.0
C1794 C 0.4525 0.29889 0.69125 0.0
H1795 H 0.52169 0.32523 0.62745 0.0
H1796 H 0.49339 0.32091 0.64155 0.0
H1797 H 0.48218 0.27223 0.67433 0.0
H1798 H 0.42854 0.28416 0.7458 0.0
H1799 H 0.45322 0.29158 0.72668 0.0
C1800 C 0.01636 0.81615 0.62572 0.0
C1801 C 0.00061 0.80086 0.62005 0.0
C1802 C 0.02149 0.82987 0.6146 0.0
C1803 C 0.0146 0.84056 0.56772 0.0
H1804 H 0.02204 0.89514 0.59743 0.0
C1805 C 0.02152 0.90422 0.53013 0.0
C1806 C 0.03604 0.9205 0.53764 0.0
C1807 C 0.01561 0.89027 0.54087 0.0
C1808 C 0.02012 0.88 0.58899 0.0
H1809 H 0.9789 0.78653 0.59753 0.0
H1810 H 0.988 0.8106 0.57793 0.0
H1811 H 0.01712 0.86786 0.61374 0.0
H1812 H 0.05513 0.93623 0.56225 0.0
H1813 H 0.04518 0.9115 0.58101 0.0
H1814 H 0.01789 0.85261 0.54301 0.0
C1815 C 0.99618 0.81207 0.59108 0.0
C1816 C 0.0174 0.86444 0.59829 0.0
C1817 C 0.99092 0.79844 0.60233 0.0
C1818 C 0.04396 0.92353 0.55633 0.0
C1819 C 0.03816 0.9095 0.56703 0.0
C1820 C 0.01746 0.85612 0.55842 0.0
C1821 C 0.01106 0.82832 0.59759 0.0
C1822 C 0.01466 0.84464 0.58771 0.0
C1823 C 0.02433 0.8924 0.5591 0.0
C1824 C 0.02024 0.87597 0.56897 0.0
H1825 H 0.02418 0.81824 0.63925 0.0
H1826 H 0.03321 0.84213 0.61965 0.0
H1827 H 0.01258 0.82537 0.55934 0.0
H1828 H 0.0152 0.90197 0.51576 0.0
H1829 H 0.00463 0.87746 0.53463 0.0
C1830 C 0.54324 0.83127 0.84553 0.0
C1831 C 0.54393 0.81122 0.84194 0.0
C1832 C 0.5267 0.83597 0.84454 0.0
C1833 C 0.47934 0.81345 0.84818 0.0
H1834 H 0.46967 0.8526 0.82179 0.0
C1835 C 0.41264 0.80872 0.80943 0.0
C1836 C 0.40934 0.82616 0.80559 0.0
C1837 C 0.42765 0.80987 0.8215 0.0
C1838 C 0.4722 0.84202 0.82975 0.0
H1839 H 0.52861 0.78046 0.83385 0.0
H1840 H 0.49989 0.78854 0.83127 0.0
H1841 H 0.49994 0.84899 0.82565 0.0
H1842 H 0.41723 0.85843 0.81297 0.0
H1843 H 0.44325 0.86059 0.8347 0.0
H1844 H 0.45144 0.80584 0.8515 0.0
C1845 C 0.51184 0.80065 0.83534 0.0
C1846 C 0.48956 0.83989 0.83182 0.0
C1847 C 0.52823 0.79601 0.83649 0.0
C1848 C 0.4197 0.84484 0.81582 0.0
C1849 C 0.43461 0.84602 0.82808 0.0
C1850 C 0.46197 0.81559 0.84613 0.0
C1851 C 0.51084 0.82063 0.84003 0.0
C1852 C 0.49315 0.82507 0.84041 0.0
C1853 C 0.43946 0.82853 0.82982 0.0
C1854 C 0.45811 0.82942 0.83629 0.0
H1855 H 0.55529 0.84315 0.85019 0.0
H1856 H 0.52628 0.85151 0.84817 0.0
H1857 H 0.48185 0.80223 0.85532 0.0
H1858 H 0.40474 0.79418 0.80152 0.0
H1859 H 0.43098 0.79608 0.82252 0.0
C1860 C 0.4753 0.19813 0.12417 0.0
C1861 C 0.48875 0.21542 0.13228 0.0
C1862 C 0.47981 0.18064 0.11558 0.0
C1863 C 0.51687 0.15627 0.10967 0.0
H1864 H 0.4916 0.13169 0.05899 0.0
C1865 C 0.54185 0.10123 0.05362 0.0
C1866 C 0.52896 0.08408 0.04402 0.0
C1867 C 0.53662 0.11693 0.06507 0.0
C1868 C 0.49859 0.13826 0.0732 0.0
H1869 H 0.51735 0.22804 0.13867 0.0
H1870 H 0.52522 0.19766 0.1229 0.0
H1871 H 0.48263 0.1591 0.07944 0.0
H1872 H 0.50083 0.06935 0.03802 0.0
H1873 H 0.4915 0.09683 0.05852 0.0
H1874 H 0.53308 0.13557 0.10314 0.0
C1875 C 0.51124 0.19747 0.12354 0.0
C1876 C 0.49343 0.15383 0.08492 0.0
C1877 C 0.50674 0.21487 0.13236 0.0
C1878 C 0.51082 0.08269 0.0454 0.0
C1879 C 0.50557 0.0983 0.05703 0.0
C1880 C 0.52206 0.14067 0.0979 0.0
C1881 C 0.4978 0.18038 0.11476 0.0
C1882 C 0.50256 0.16298 0.10319 0.0
C1883 C 0.51846 0.11541 0.06705 0.0
C1884 C 0.51297 0.13167 0.07958 0.0
H1885 H 0.46133 0.19814 0.12437 0.0
H1886 H 0.46924 0.16746 0.10919 0.0
H1887 H 0.52402 0.16308 0.12378 0.0
H1888 H 0.5559 0.10248 0.05223 0.0
H1889 H 0.54671 0.1302 0.07236 0.0
C1890 C 0.14768 0.34281 0.33883 0.0
C1891 C 0.14194 0.3283 0.34931 0.0
C1892 C 0.16439 0.34508 0.33199 0.0
C1893 C 0.18696 0.3093 0.31256 0.0
H1894 H 0.22926 0.3506 0.31104 0.0
C1895 C 0.25549 0.29861 0.30729 0.0
C1896 C 0.26613 0.30629 0.29421 0.0
C1897 C 0.23837 0.30125 0.30831 0.0
C1898 C 0.2172 0.33913 0.31087 0.0
H1899 H 0.15008 0.30764 0.36406 0.0
H1900 H 0.1793 0.31165 0.35211 0.0
H1901 H 0.20497 0.35943 0.32916 0.0
H1902 H 0.26807 0.32373 0.27266 0.0
H1903 H 0.23845 0.33011 0.2759 0.0
H1904 H 0.19944 0.28882 0.29531 0.0
C1905 C 0.17072 0.3208 0.34875 0.0
C1906 C 0.20356 0.34412 0.3214 0.0
C1907 C 0.15401 0.31838 0.35539 0.0
C1908 C 0.2597 0.31709 0.28239 0.0
C1909 C 0.2429 0.32074 0.28419 0.0
C1910 C 0.20049 0.30435 0.30209 0.0
C1911 C 0.17533 0.33294 0.3358 0.0
C1912 C 0.18885 0.32899 0.32303 0.0
C1913 C 0.23225 0.31289 0.29726 0.0
C1914 C 0.21601 0.31906 0.30199 0.0
H1915 H 0.13871 0.35104 0.3344 0.0
H1916 H 0.16791 0.35465 0.32215 0.0
H1917 H 0.17536 0.29756 0.31322 0.0
H1918 H 0.26064 0.29142 0.31733 0.0
H1919 H 0.23045 0.29557 0.31888 0.0
C1920 C 0.98336 0.08974 0.21676 0.0
C1921 C 0.96688 0.07801 0.22013 0.0
C1922 C 0.98987 0.08679 0.19859 0.0
C1923 C 0.98358 0.04982 0.15011 0.0
H1924 H 0.01452 0.0944 0.13531 0.0
C1925 C 0.00593 0.04207 0.07238 0.0
C1926 C 0.02309 0.0526 0.06948 0.0
C1927 C 0.99924 0.04534 0.09047 0.0
C1928 C 0.0061 0.08162 0.13916 0.0
H1929 H 0.94442 0.05375 0.20614 0.0
H1930 H 0.95552 0.04872 0.17439 0.0
H1931 H 0.0024 0.09958 0.16618 0.0
H1932 H 0.04607 0.07579 0.08407 0.0
H1933 H 0.03474 0.0813 0.11546 0.0
H1934 H 0.98721 0.03193 0.12299 0.0
C1935 C 0.96366 0.06018 0.18602 0.0
C1936 C 0.99904 0.0846 0.15712 0.0
C1937 C 0.95711 0.06317 0.20434 0.0
C1938 C 0.03308 0.06694 0.08549 0.0
C1939 C 0.02636 0.07031 0.10364 0.0
C1940 C 0.99058 0.04687 0.13212 0.0
C1941 C 0.98024 0.07193 0.18271 0.0
C1942 C 0.98761 0.06877 0.16309 0.0
C1943 C 0.00931 0.05944 0.1066 0.0
C1944 C 0.00199 0.06269 0.12618 0.0
H1945 H 0.9915 0.10132 0.22833 0.0
H1946 H 0.00277 0.09604 0.19721 0.0
H1947 H 0.97523 0.037 0.15393 0.0
H1948 H 0.99755 0.03097 0.06062 0.0
H1949 H 0.98596 0.03685 0.09167 0.0
C1950 C 0.2575 0.66304 0.46528 0.0
C1951 C 0.2679 0.673 0.48271 0.0
C1952 C 0.2562 0.67333 0.45102 0.0
C1953 C 0.28663 0.71326 0.43664 0.0
H1954 H 0.24982 0.70383 0.39491 0.0
C1955 C 0.28716 0.75716 0.37865 0.0
C1956 C 0.27624 0.74725 0.36157 0.0
C1957 C 0.28987 0.74655 0.39227 0.0
C1958 C 0.26035 0.7062 0.40628 0.0
H1959 H 0.28196 0.70194 0.50055 0.0
H1960 H 0.27941 0.71994 0.47572 0.0
H1961 H 0.2424 0.6911 0.42315 0.0
H1962 H 0.26217 0.7186 0.34355 0.0
H1963 H 0.2674 0.69984 0.36708 0.0
H1964 H 0.30454 0.7285 0.41979 0.0
C1965 C 0.27299 0.70412 0.47273 0.0
C1966 C 0.256 0.69917 0.42253 0.0
C1967 C 0.2744 0.69384 0.48691 0.0
C1968 C 0.27061 0.72639 0.35675 0.0
C1969 C 0.27343 0.71576 0.37027 0.0
C1970 C 0.29098 0.72031 0.42038 0.0
C1971 C 0.26514 0.69362 0.45425 0.0
C1972 C 0.26909 0.70266 0.43784 0.0
C1973 C 0.28163 0.72605 0.38872 0.0
C1974 C 0.27789 0.71677 0.40504 0.0
H1975 H 0.25206 0.64701 0.46187 0.0
H1976 H 0.24984 0.66493 0.43693 0.0
H1977 H 0.29711 0.71571 0.44807 0.0
H1978 H 0.29152 0.77333 0.38252 0.0
H1979 H 0.29638 0.75483 0.40634 0.0
C1980 C 0.65805 0.04887 0.67994 0.0
C1981 C 0.65416 0.0321 0.68768 0.0
C1982 C 0.6443 0.05676 0.67462 0.0
C1983 C 0.5996 0.02863 0.65433 0.0
H1984 H 0.60534 0.07136 0.62768 0.0
C1985 C 0.55684 0.02608 0.58459 0.0
C1986 C 0.56706 0.03223 0.57037 0.0
C1987 C 0.56498 0.02825 0.60296 0.0
C1988 C 0.60354 0.05939 0.63514 0.0
H1989 H 0.6343 0.01339 0.70048 0.0
H1990 H 0.6103 0.02807 0.69232 0.0
H1991 H 0.6225 0.07708 0.65859 0.0
H1992 H 0.59424 0.04299 0.56358 0.0
H1993 H 0.60818 0.04677 0.59544 0.0
H1994 H 0.58072 0.01099 0.63063 0.0
C1995 C 0.62366 0.03441 0.68919 0.0
C1996 C 0.61332 0.06264 0.65284 0.0
C1997 C 0.63742 0.02617 0.69414 0.0
C1998 C 0.58575 0.03879 0.57433 0.0
C1999 C 0.59382 0.04106 0.59261 0.0
C2000 C 0.58955 0.02557 0.63686 0.0
C2001 C 0.62657 0.04776 0.67702 0.0
C2002 C 0.61217 0.04697 0.66222 0.0
C2003 C 0.58342 0.03651 0.60721 0.0
C2004 C 0.592 0.04065 0.62683 0.0
H2005 H 0.6711 0.05385 0.67528 0.0
H2006 H 0.6474 0.06756 0.66591 0.0
H2007 H 0.59843 0.01596 0.66071 0.0
H2008 H 0.54258 0.02016 0.58176 0.0
H2009 H 0.55681 0.02422 0.61402 0.0
C2010 C 0.28597 0.34233 0.97412 0.0
C2011 C 0.30297 0.35296 0.98335 0.0
C2012 C 0.2837 0.33374 0.9542 0.0
C2013 C 0.31114 0.32057 0.91365 0.0
H2014 H 0.26974 0.31918 0.88045 0.0
C2015 C 0.31258 0.32355 0.83447 0.0
C2016 C 0.30151 0.30757 0.8208 0.0
C2017 C 0.3113 0.32517 0.85409 0.0
C2018 C 0.28126 0.31923 0.88962 0.0
H2019 H 0.33056 0.36404 0.97893 0.0
H2020 H 0.32658 0.35038 0.94462 0.0
H2021 H 0.26999 0.32997 0.91545 0.0
H2022 H 0.27875 0.28208 0.81692 0.0
H2023 H 0.2756 0.28577 0.85149 0.0
H2024 H 0.32283 0.31113 0.88786 0.0
C2025 C 0.31509 0.34745 0.95253 0.0
C2026 C 0.28142 0.32538 0.90969 0.0
C2027 C 0.3174 0.3555 0.97229 0.0
C2028 C 0.28818 0.29391 0.8272 0.0
C2029 C 0.2862 0.29616 0.84691 0.0
C2030 C 0.31109 0.31486 0.89375 0.0
C2031 C 0.29834 0.336 0.94315 0.0
C2032 C 0.29667 0.3268 0.92198 0.0
C2033 C 0.29791 0.31173 0.86054 0.0
C2034 C 0.29638 0.31459 0.8815 0.0
H2035 H 0.27459 0.34028 0.98234 0.0
H2036 H 0.27058 0.3251 0.94757 0.0
H2037 H 0.32285 0.3206 0.9225 0.0
H2038 H 0.32171 0.33537 0.83002 0.0
H2039 H 0.32023 0.33758 0.86426 0.0
C2040 C 0.97666 0.06122 0.3283 0.0
C2041 C 0.96204 0.06997 0.32838 0.0
C2042 C 0.98464 0.05845 0.34533 0.0
C2043 C 0.98506 0.07166 0.40038 0.0
H2044 H 0.01102 0.03069 0.39688 0.0
C2045 C 0.00939 0.04967 0.46969 0.0
C2046 C 0.02594 0.0447 0.47067 0.0
C2047 C 0.00154 0.05194 0.45235 0.0
C2048 C 0.00398 0.04237 0.39831 0.0
H2049 H 0.94472 0.08286 0.34727 0.0
H2050 H 0.95793 0.07749 0.3766 0.0
H2051 H 0.99808 0.03647 0.36781 0.0
H2052 H 0.04715 0.03845 0.45373 0.0
H2053 H 0.03332 0.04154 0.42348 0.0
H2054 H 0.99079 0.07722 0.43099 0.0
C2055 C 0.96369 0.07301 0.36343 0.0
C2056 C 0.99648 0.04584 0.38135 0.0
C2057 C 0.95582 0.07596 0.34636 0.0
C2058 C 0.03413 0.04159 0.45351 0.0
C2059 C 0.02617 0.04357 0.43606 0.0
C2060 C 0.99241 0.06803 0.41733 0.0
C2061 C 0.97831 0.0641 0.36341 0.0
C2062 C 0.98673 0.06055 0.38186 0.0
C2063 C 0.00989 0.04935 0.43516 0.0
C2064 C 0.00199 0.05323 0.41675 0.0
H2065 H 0.98215 0.05658 0.31494 0.0
H2066 H 0.99602 0.05204 0.34415 0.0
H2067 H 0.97824 0.08351 0.40199 0.0
H2068 H 0.00287 0.05279 0.48263 0.0
H2069 H 0.98894 0.05606 0.45256 0.0
C2070 C 0.26555 0.68302 0.56529 0.0
C2071 C 0.2663 0.66315 0.56363 0.0
C2072 C 0.26454 0.69512 0.58307 0.0
C2073 C 0.27631 0.69725 0.63434 0.0
H2074 H 0.26369 0.74796 0.64123 0.0
C2075 C 0.29894 0.75603 0.70454 0.0
C2076 C 0.28634 0.76605 0.71208 0.0
C2077 C 0.29611 0.74495 0.68563 0.0
C2078 C 0.26714 0.73378 0.63963 0.0
H2079 H 0.26449 0.6395 0.57857 0.0
H2080 H 0.26125 0.66018 0.60966 0.0
H2081 H 0.25506 0.72368 0.61078 0.0
H2082 H 0.26154 0.7736 0.70616 0.0
H2083 H 0.25632 0.75403 0.6729 0.0
H2084 H 0.28723 0.70677 0.66362 0.0
C2085 C 0.26243 0.66684 0.59742 0.0
C2086 C 0.2624 0.71987 0.62201 0.0
C2087 C 0.26382 0.65479 0.57955 0.0
C2088 C 0.27132 0.76582 0.70041 0.0
C2089 C 0.26848 0.75476 0.68139 0.0
C2090 C 0.28059 0.7109 0.65208 0.0
C2091 C 0.26394 0.6875 0.59962 0.0
C2092 C 0.26709 0.70146 0.619 0.0
C2093 C 0.28054 0.74362 0.674 0.0
C2094 C 0.27625 0.72943 0.6549 0.0
H2095 H 0.26754 0.68976 0.55311 0.0
H2096 H 0.26584 0.71081 0.58388 0.0
H2097 H 0.28065 0.68358 0.63267 0.0
H2098 H 0.31061 0.75611 0.71353 0.0
H2099 H 0.30593 0.73704 0.68029 0.0
C2100 C 0.638 0.03506 0.77678 0.0
C2101 C 0.6516 0.02505 0.77392 0.0
C2102 C 0.63308 0.04085 0.7953 0.0
C2103 C 0.63529 0.02846 0.84257 0.0
H2104 H 0.61979 0.0771 0.85886 0.0
C2105 C 0.58552 0.03662 0.89677 0.0
C2106 C 0.58475 0.05563 0.9068 0.0
C2107 C 0.59867 0.03457 0.88452 0.0
C2108 C 0.62454 0.06372 0.85482 0.0
H2109 H 0.67079 0.01327 0.78777 0.0
H2110 H 0.66243 0.02341 0.81979 0.0
H2111 H 0.63242 0.07069 0.82846 0.0
H2112 H 0.59788 0.08716 0.91402 0.0
H2113 H 0.62138 0.08363 0.89283 0.0
H2114 H 0.62762 0.02154 0.86896 0.0
C2115 C 0.65529 0.02658 0.80798 0.0
C2116 C 0.63142 0.05986 0.83718 0.0
C2117 C 0.6601 0.0208 0.78963 0.0
C2118 C 0.59807 0.07245 0.90582 0.0
C2119 C 0.61147 0.07038 0.89382 0.0
C2120 C 0.6287 0.03246 0.86032 0.0
C2121 C 0.64172 0.03661 0.81106 0.0
C2122 C 0.63625 0.04186 0.83059 0.0
C2123 C 0.61141 0.05152 0.88239 0.0
C2124 C 0.62252 0.0497 0.86624 0.0
H2125 H 0.63156 0.03887 0.76489 0.0
H2126 H 0.62243 0.04841 0.79722 0.0
H2127 H 0.63886 0.0144 0.83792 0.0
H2128 H 0.57542 0.02348 0.89769 0.0
H2129 H 0.59807 0.01983 0.87583 0.0
C2130 C 0.29637 0.33394 0.08252 0.0
C2131 C 0.29023 0.3501 0.07899 0.0
C2132 C 0.29385 0.32808 0.09978 0.0
C2133 C 0.27188 0.33632 0.14529 0.0
H2134 H 0.31472 0.32558 0.166 0.0
C2135 C 0.28672 0.3335 0.22555 0.0
C2136 C 0.2936 0.31736 0.22771 0.0
C2137 C 0.28454 0.33732 0.20726 0.0
C2138 C 0.30258 0.32839 0.1604 0.0
H2139 H 0.27545 0.37184 0.09024 0.0
H2140 H 0.27141 0.36194 0.12052 0.0
H2141 H 0.31288 0.33061 0.13374 0.0
H2142 H 0.30409 0.29303 0.21269 0.0
H2143 H 0.30009 0.29947 0.18132 0.0
H2144 H 0.26185 0.33438 0.17243 0.0
C2145 C 0.27796 0.35356 0.10988 0.0
C2146 C 0.30145 0.33113 0.14178 0.0
C2147 C 0.28025 0.35922 0.09245 0.0
C2148 C 0.29839 0.30535 0.21147 0.0
C2149 C 0.29631 0.30917 0.19346 0.0
C2150 C 0.27306 0.33364 0.16408 0.0
C2151 C 0.28542 0.33848 0.1141 0.0
C2152 C 0.28604 0.33496 0.13385 0.0
C2153 C 0.28953 0.32527 0.19108 0.0
C2154 C 0.28838 0.32947 0.17173 0.0
H2155 H 0.30397 0.32649 0.07237 0.0
H2156 H 0.29926 0.31595 0.10223 0.0
H2157 H 0.25979 0.33918 0.13966 0.0
H2158 H 0.28297 0.34298 0.23786 0.0
H2159 H 0.27934 0.34991 0.20583 0.0
C2160 C 0.25631 0.95531 0.01299 0.0
C2161 C 0.27032 0.96772 0.02648 0.0
C2162 C 0.24086 0.96156 0.00991 0.0
C2163 C 0.21659 0.99503 0.03616 0.0
H2164 H 0.19113 0.99128 0.98704 0.0
C2165 C 0.16918 0.04097 0.03446 0.0
C2166 C 0.15186 0.02907 0.03352 0.0
C2167 C 0.18243 0.03245 0.02666 0.0
C2168 C 0.19818 0.99223 1.00074 0.0
H2169 H 0.27984 0.99681 0.04628 0.0
H2170 H 0.2532 0.00771 0.04069 0.0
H2171 H 0.21758 0.97759 0.98802 0.0
H2172 H 0.13401 0.99981 0.02215 0.0
H2173 H 0.15762 0.98457 0.00911 0.0
H2174 H 0.19774 0.01004 0.04892 0.0
C2175 C 0.25384 0.99298 0.03294 0.0
C2176 C 0.21312 0.9844 0.00134 0.0
C2177 C 0.26908 0.98672 0.03614 0.0
C2178 C 0.14741 0.00912 0.02298 0.0
C2179 C 0.16077 1.00049 0.01539 0.0
C2180 C 0.20194 0.00291 0.03555 0.0
C2181 C 0.23942 0.98026 0.02025 0.0
C2182 C 0.22266 0.98631 0.01908 0.0
C2183 C 0.17846 0.01193 0.01819 0.0
C2184 C 0.19296 0.00201 0.01788 0.0
H2185 H 0.25715 0.9407 0.00513 0.0
H2186 H 0.22987 0.95157 1.00001 0.0
H2187 H 0.2234 0.99611 0.05004 0.0
H2188 H 0.1727 0.05644 0.0424 0.0
H2189 H 0.1961 0.04139 0.02901 0.0
C2190 C 0.73046 0.62745 0.98351 0.0
C2191 C 0.73755 0.64797 0.99147 0.0
C2192 C 0.71266 0.61826 0.98482 0.0
C2193 C 0.67368 0.62452 0.01186 0.0
H2194 H 0.64779 0.58206 0.96919 0.0
C2195 C 0.59813 0.58847 0.0102 0.0
C2196 C 0.59184 0.56772 0.00262 0.0
C2197 C 0.61562 0.59854 0.00851 0.0
C2198 C 0.65484 0.59369 0.98137 0.0
H2199 H 0.73125 0.67496 0.00703 0.0
H2200 H 0.69997 0.65898 0.00902 0.0
H2201 H 0.67836 0.59932 0.96694 0.0
H2202 H 0.59918 0.54169 0.98652 0.0
H2203 H 0.62974 0.55894 0.98416 0.0
H2204 H 0.65007 0.61884 0.02628 0.0
C2205 C 0.70833 0.6499 0.00199 0.0
C2206 C 0.67246 0.60366 0.98008 0.0
C2207 C 0.72625 0.65913 1.00071 0.0
C2208 C 0.60347 0.55749 0.99281 0.0
C2209 C 0.62106 0.56752 0.9913 0.0
C2210 C 0.65601 0.61454 0.01315 0.0
C2211 C 0.70127 0.62929 0.99405 0.0
C2212 C 0.68221 0.61916 0.99533 0.0
C2213 C 0.62746 0.58819 0.99927 0.0
C2214 C 0.64632 0.59893 0.99793 0.0
H2215 H 0.73873 0.6183 0.97638 0.0
H2216 H 0.70794 0.60233 0.97885 0.0
H2217 H 0.68076 0.63613 0.02404 0.0
H2218 H 0.5896 0.59705 0.01768 0.0
H2219 H 0.61982 0.61451 0.01445 0.0
C2220 C 0.70745 0.45253 0.25145 0.0
C2221 C 0.69632 0.45704 0.26602 0.0
C2222 C 0.71643 0.4368 0.25064 0.0
C2223 C 0.71938 0.3927 0.27431 0.0
H2224 H 0.76177 0.39266 0.24798 0.0
C2225 C 0.7626 0.33531 0.2825 0.0
C2226 C 0.77281 0.32866 0.26775 0.0
C2227 C 0.75398 0.35097 0.28208 0.0
C2228 C 0.74988 0.39209 0.25538 0.0
H2229 H 0.68621 0.44756 0.29095 0.0
H2230 H 0.70121 0.42109 0.28968 0.0
H2231 H 0.74563 0.41815 0.24684 0.0
H2232 H 0.78085 0.33351 0.24041 0.0
H2233 H 0.76663 0.36085 0.23985 0.0
H2234 H 0.7236 0.36672 0.28287 0.0
C2235 C 0.70316 0.42915 0.27848 0.0
C2236 C 0.74039 0.40703 0.2547 0.0
C2237 C 0.69439 0.44476 0.27931 0.0
C2238 C 0.7739 0.33852 0.25254 0.0
C2239 C 0.76545 0.35434 0.25218 0.0
C2240 C 0.7289 0.37789 0.27509 0.0
C2241 C 0.7147 0.42468 0.2643 0.0
C2242 C 0.72485 0.40797 0.26428 0.0
C2243 C 0.75488 0.36083 0.26675 0.0
C2244 C 0.74455 0.37711 0.26576 0.0
H2245 H 0.70975 0.46156 0.241 0.0
H2246 H 0.72483 0.4343 0.2392 0.0
H2247 H 0.7074 0.39175 0.28156 0.0
H2248 H 0.7607 0.32784 0.29418 0.0
H2249 H 0.74642 0.35516 0.2939 0.0
C2250 C 0.87322 0.46623 0.54951 0.0
C2251 C 0.85838 0.46618 0.53773 0.0
C2252 C 0.89015 0.4722 0.54397 0.0
C2253 C 0.91722 0.50153 0.51698 0.0
H2254 H 0.94724 0.46562 0.52112 0.0
C2255 C 0.99314 0.52061 0.51044 0.0
C2256 C 0.00294 0.50916 0.51792 0.0
C2257 C 0.97481 0.51679 0.51099 0.0
C2258 C 0.93918 0.47607 0.52034 0.0
H2259 H 0.84901 0.47211 0.51111 0.0
H2260 H 0.87897 0.48233 0.50121 0.0
H2261 H 0.91566 0.45487 0.52342 0.0
H2262 H 0.00226 0.48936 0.53729 0.0
H2263 H 0.97105 0.48545 0.54134 0.0
H2264 H 0.94088 0.52334 0.51531 0.0
C2265 C 0.87746 0.47816 0.51482 0.0
C2266 C 0.92107 0.46969 0.52124 0.0
C2267 C 0.86049 0.47251 0.52054 0.0
C2268 C 0.99484 0.49711 0.52977 0.0
C2269 C 0.97686 0.49474 0.53196 0.0
C2270 C 0.93556 0.50818 0.51654 0.0
C2271 C 0.89228 0.47768 0.5264 0.0
C2272 C 0.91017 0.48271 0.5205 0.0
C2273 C 0.96636 0.50295 0.52103 0.0
C2274 C 0.94679 0.4958 0.51922 0.0
H2275 H 0.87168 0.46127 0.56273 0.0
H2276 H 0.90159 0.47215 0.55323 0.0
H2277 H 0.90881 0.51164 0.51619 0.0
H2278 H 0.99942 0.5323 0.50397 0.0
H2279 H 0.96739 0.52424 0.50311 0.0
C2280 C 0.36149 0.07573 0.29623 0.0
C2281 C 0.3703 0.07957 0.31455 0.0
C2282 C 0.35824 0.09148 0.28925 0.0
C2283 C 0.3645 0.1475 0.30414 0.0
H2284 H 0.34803 0.13688 0.25024 0.0
C2285 C 0.33905 0.20083 0.26476 0.0
C2286 C 0.32252 0.19094 0.25419 0.0
C2287 C 0.34841 0.1902 0.27369 0.0
C2288 C 0.35284 0.13999 0.2653 0.0
H2289 H 0.38139 0.10186 0.34069 0.0
H2290 H 0.37772 0.12917 0.32841 0.0
H2291 H 0.35945 0.11227 0.26185 0.0
H2292 H 0.30144 0.16363 0.24663 0.0
H2293 H 0.31772 0.14501 0.26264 0.0
H2294 H 0.35855 0.17585 0.30694 0.0
C2295 C 0.37224 0.11455 0.31919 0.0
C2296 C 0.359 0.12573 0.27216 0.0
C2297 C 0.37424 0.09868 0.32654 0.0
C2298 C 0.31441 0.17119 0.25441 0.0
C2299 C 0.3237 0.16063 0.26337 0.0
C2300 C 0.35893 0.162 0.29709 0.0
C2301 C 0.36477 0.11136 0.30016 0.0
C2302 C 0.36326 0.12849 0.29203 0.0
C2303 C 0.34111 0.16982 0.27198 0.0
C2304 C 0.35176 0.15756 0.27806 0.0
H2305 H 0.35846 0.06089 0.28683 0.0
H2306 H 0.35124 0.08782 0.27506 0.0
H2307 H 0.36816 0.15109 0.31939 0.0
H2308 H 0.34527 0.21622 0.2648 0.0
H2309 H 0.36174 0.19745 0.28071 0.0
C2310 C 0.34435 0.16551 0.52676 0.0
C2311 C 0.33749 0.16566 0.50847 0.0
C2312 C 0.35925 0.15793 0.52902 0.0
C2313 C 0.3946 0.13807 0.50166 0.0
H2314 H 0.39883 0.11692 0.54662 0.0
C2315 C 0.44015 0.08516 0.51359 0.0
C2316 C 0.44861 0.08915 0.53228 0.0
C2317 C 0.42835 0.09632 0.5093 0.0
C2318 C 0.39796 0.12293 0.53405 0.0
H2319 H 0.34045 0.15816 0.47813 0.0
H2320 H 0.36543 0.14341 0.48171 0.0
H2321 H 0.37453 0.13185 0.54201 0.0
H2322 H 0.45252 0.10867 0.56071 0.0
H2323 H 0.43226 0.12832 0.55323 0.0
H2324 H 0.41771 0.12765 0.49336 0.0
C2325 C 0.36016 0.14993 0.49457 0.0
C2326 C 0.38402 0.13177 0.53144 0.0
C2327 C 0.34568 0.15822 0.49243 0.0
C2328 C 0.44603 0.10523 0.54624 0.0
C2329 C 0.43439 0.11639 0.54196 0.0
C2330 C 0.40836 0.12869 0.50408 0.0
C2331 C 0.36716 0.14949 0.51293 0.0
C2332 C 0.38217 0.13979 0.51535 0.0
C2333 C 0.42491 0.11161 0.52368 0.0
C2334 C 0.41031 0.12129 0.52047 0.0
H2335 H 0.33831 0.17143 0.53932 0.0
H2336 H 0.36446 0.15877 0.5435 0.0
H2337 H 0.39401 0.1442 0.48917 0.0
H2338 H 0.44188 0.07273 0.50264 0.0
H2339 H 0.4212 0.09227 0.4951 0.0
C2340 C 0.69323 0.57492 0.26515 0.0
C2341 C 0.69919 0.56525 0.27853 0.0
C2342 C 0.70198 0.59485 0.26471 0.0
C2343 C 0.7395 0.64048 0.29271 0.0
H2344 H 0.73002 0.66238 0.24956 0.0
C2345 C 0.78233 0.71897 0.28533 0.0
C2346 C 0.77399 0.7313 0.27699 0.0
C2347 C 0.77325 0.6991 0.28548 0.0
C2348 C 0.73286 0.65671 0.26189 0.0
H2349 H 0.71973 0.56977 0.30172 0.0
H2350 H 0.73513 0.60315 0.3005 0.0
H2351 H 0.71477 0.62829 0.24948 0.0
H2352 H 0.74875 0.73155 0.26272 0.0
H2353 H 0.73335 0.69739 0.26261 0.0
H2354 H 0.75791 0.66894 0.30482 0.0
C2355 C 0.72333 0.59606 0.29057 0.0
C2356 C 0.7239 0.63676 0.26192 0.0
C2357 C 0.71446 0.57636 0.29117 0.0
C2358 C 0.75604 0.72282 0.26903 0.0
C2359 C 0.74707 0.70291 0.26891 0.0
C2360 C 0.74863 0.66026 0.29251 0.0
C2361 C 0.71732 0.60613 0.2775 0.0
C2362 C 0.72694 0.62794 0.27734 0.0
C2363 C 0.75541 0.69049 0.27712 0.0
C2364 C 0.74557 0.66894 0.27714 0.0
H2365 H 0.68151 0.56722 0.25517 0.0
H2366 H 0.69632 0.60136 0.2544 0.0
H2367 H 0.74233 0.63536 0.30535 0.0
H2368 H 0.79593 0.72468 0.29191 0.0
H2369 H 0.78043 0.69036 0.29194 0.0
C2370 C 0.88368 0.48593 0.78379 0.0
C2371 C 0.87665 0.49821 0.79788 0.0
C2372 C 0.87383 0.46671 0.77529 0.0
C2373 C 0.84082 0.42963 0.79017 0.0
H2374 H 0.84494 0.39626 0.74075 0.0
C2375 C 0.8116 0.34694 0.77375 0.0
C2376 C 0.82488 0.33651 0.77071 0.0
C2377 C 0.81497 0.36653 0.77221 0.0
C2378 C 0.8436 0.40558 0.75448 0.0
H2379 H 0.85353 0.5015 0.81281 0.0
H2380 H 0.83567 0.46802 0.79706 0.0
H2381 H 0.85534 0.43269 0.74639 0.0
H2382 H 0.85133 0.33733 0.76155 0.0
H2383 H 0.85715 0.37182 0.75854 0.0
H2384 H 0.82956 0.40272 0.79847 0.0
C2385 C 0.84905 0.47293 0.79318 0.0
C2386 C 0.84952 0.42624 0.75772 0.0
C2387 C 0.85915 0.49195 0.80216 0.0
C2388 C 0.84111 0.34538 0.76462 0.0
C2389 C 0.84431 0.36485 0.76253 0.0
C2390 C 0.83474 0.40917 0.78685 0.0
C2391 C 0.8567 0.45982 0.78053 0.0
C2392 C 0.84831 0.43837 0.7757 0.0
C2393 C 0.83145 0.37563 0.76693 0.0
C2394 C 0.83625 0.39709 0.7691 0.0
H2395 H 0.89726 0.49067 0.78037 0.0
H2396 H 0.88014 0.45688 0.76578 0.0
H2397 H 0.84036 0.4385 0.80441 0.0
H2398 H 0.79863 0.33999 0.77727 0.0
H2399 H 0.80489 0.37474 0.77551 0.0
C2400 C 0.08846 0.87991 0.08728 0.0
C2401 C 0.08199 0.86013 0.07659 0.0
C2402 C 0.0862 0.89589 0.07962 0.0
C2403 C 0.05698 0.90534 0.04112 0.0
H2404 H 0.08532 0.95975 0.05981 0.0
C2405 C 0.04848 0.97245 0.00979 0.0
C2406 C 0.0503 0.99079 0.02297 0.0
C2407 C 0.05116 0.95583 0.01606 0.0
C2408 C 0.07715 0.94464 0.05459 0.0
H2409 H 0.0696 0.8417 0.04889 0.0
H2410 H 0.06701 0.86944 0.03496 0.0
H2411 H 0.0948 0.93278 0.06979 0.0
H2412 H 0.05612 0.00619 0.05297 0.0
H2413 H 0.0609 0.9773 0.06394 0.0
H2414 H 0.03965 0.9174 0.02547 0.0
C2415 C 0.07297 0.87277 0.04962 0.0
C2416 C 0.08258 0.92908 0.06035 0.0
C2417 C 0.07486 0.85681 0.05744 0.0
C2418 C 0.05435 0.99211 0.04256 0.0
C2419 C 0.05728 0.97563 0.0488 0.0
C2420 C 0.05172 0.92089 0.03513 0.0
C2421 C 0.07769 0.89252 0.06092 0.0
C2422 C 0.07254 0.90913 0.05384 0.0
C2423 C 0.05623 0.95744 0.03556 0.0
C2424 C 0.06165 0.94077 0.04193 0.0
H2425 H 0.0936 0.88293 0.10222 0.0
H2426 H 0.08998 0.91072 0.08898 0.0
H2427 H 0.04851 0.89038 0.03607 0.0
H2428 H 0.04577 0.97123 0.99457 0.0
H2429 H 0.05031 0.94208 0.00548 0.0
C2430 C 0.94876 0.25524 0.8948 0.0
C2431 C 0.9653 0.2686 0.89459 0.0
C2432 C 0.9333 0.25624 0.88432 0.0
C2433 C 0.91473 0.28989 0.85954 0.0
H2434 H 0.88118 0.24076 0.83241 0.0
C2435 C 0.85757 0.29135 0.80528 0.0
C2436 C 0.84101 0.27754 0.80377 0.0
C2437 C 0.87251 0.28973 0.81605 0.0
C2438 C 0.89022 0.25469 0.84006 0.0
H2439 H 0.97831 0.29392 0.88367 0.0
H2440 H 0.95164 0.29581 0.8657 0.0
H2441 H 0.9069 0.23943 0.85251 0.0
H2442 H 0.82725 0.2506 0.81154 0.0
H2443 H 0.85324 0.24764 0.8305 0.0
H2444 H 0.8981 0.30523 0.84738 0.0
C2445 C 0.95041 0.28452 0.87392 0.0
C2446 C 0.90507 0.25392 0.85167 0.0
C2447 C 0.96582 0.28339 0.88421 0.0
C2448 C 0.83984 0.26156 0.81264 0.0
C2449 C 0.85484 0.25985 0.82341 0.0
C2450 C 0.89987 0.29067 0.84804 0.0
C2451 C 0.93391 0.27078 0.8735 0.0
C2452 C 0.91764 0.27151 0.86156 0.0
C2453 C 0.87141 0.27413 0.8256 0.0
C2454 C 0.88734 0.2731 0.83799 0.0
H2455 H 0.94788 0.24356 0.90252 0.0
H2456 H 0.92086 0.24556 0.88465 0.0
H2457 H 0.92382 0.30383 0.86713 0.0
H2458 H 0.859 0.30351 0.79811 0.0
H2459 H 0.88499 0.30072 0.8167 0.0
C2460 C 0.56404 0.25245 0.5605 0.0
C2461 C 0.56737 0.26055 0.58044 0.0
C2462 C 0.56402 0.23244 0.55281 0.0
C2463 C 0.55282 0.18533 0.5666 0.0
H2464 H 0.58097 0.16411 0.52776 0.0
C2465 C 0.56164 0.10755 0.55999 0.0
C2466 C 0.55822 0.09443 0.54181 0.0
C2467 C 0.56396 0.12799 0.56188 0.0
C2468 C 0.57287 0.16985 0.53842 0.0
H2469 H 0.57353 0.2544 0.60789 0.0
H2470 H 0.57287 0.21942 0.59462 0.0
H2471 H 0.58264 0.20021 0.53602 0.0
H2472 H 0.55509 0.09254 0.5112 0.0
H2473 H 0.55926 0.12851 0.51453 0.0
H2474 H 0.54312 0.1554 0.56931 0.0
C2475 C 0.5706 0.22854 0.58489 0.0
C2476 C 0.57382 0.19043 0.54313 0.0
C2477 C 0.57109 0.24856 0.59247 0.0
C2478 C 0.55799 0.10229 0.52541 0.0
C2479 C 0.56031 0.12288 0.52731 0.0
C2480 C 0.55181 0.16496 0.56189 0.0
C2481 C 0.56675 0.22018 0.56505 0.0
C2482 C 0.56425 0.19836 0.55777 0.0
C2483 C 0.56266 0.13581 0.54563 0.0
C2484 C 0.5623 0.15708 0.5483 0.0
H2485 H 0.56113 0.26148 0.55095 0.0
H2486 H 0.56101 0.22632 0.53747 0.0
H2487 H 0.54496 0.191 0.57759 0.0
H2488 H 0.56183 0.10187 0.57283 0.0
H2489 H 0.56614 0.13765 0.57619 0.0
C2490 C 0.57761 0.7765 0.40094 0.0
C2491 C 0.56328 0.76166 0.38981 0.0
C2492 C 0.59471 0.77999 0.39452 0.0
C2493 C 0.62196 0.75635 0.35881 0.0
H2494 H 0.65076 0.81045 0.36562 0.0
C2495 C 0.67895 0.77632 0.31192 0.0
C2496 C 0.69367 0.79247 0.31946 0.0
C2497 C 0.66471 0.77165 0.32284 0.0
C2498 C 0.64309 0.79518 0.36384 0.0
H2499 H 0.55585 0.73888 0.36318 0.0
H2500 H 0.58519 0.74506 0.35199 0.0
H2501 H 0.62286 0.80449 0.38027 0.0
H2502 H 0.70533 0.81617 0.34442 0.0
H2503 H 0.68076 0.80767 0.36388 0.0
H2504 H 0.64197 0.74703 0.34214 0.0
C2505 C 0.5835 0.75383 0.36584 0.0
C2506 C 0.62699 0.79176 0.37227 0.0
C2507 C 0.56652 0.75039 0.37222 0.0
C2508 C 0.69421 0.80345 0.3384 0.0
C2509 C 0.68 0.79872 0.34941 0.0
C2510 C 0.638 0.75976 0.35038 0.0
C2511 C 0.59791 0.76865 0.37685 0.0
C2512 C 0.61596 0.77231 0.36952 0.0
C2513 C 0.66481 0.78304 0.34163 0.0
C2514 C 0.64866 0.77926 0.3524 0.0
H2515 H 0.57561 0.78551 0.41455 0.0
H2516 H 0.60544 0.79144 0.4035 0.0
H2517 H 0.61418 0.74109 0.35678 0.0
H2518 H 0.67806 0.76792 0.2972 0.0
H2519 H 0.65322 0.75969 0.31612 0.0
C2520 C 0.09178 0.25509 0.40792 0.0
C2521 C 0.08754 0.27346 0.4141 0.0
C2522 C 0.09061 0.24202 0.42007 0.0
C2523 C 0.06605 0.23258 0.46127 0.0
H2524 H 0.09012 0.18993 0.45825 0.0
C2525 C 0.05037 0.17903 0.5098 0.0
C2526 C 0.04535 0.15875 0.50041 0.0
C2527 C 0.05909 0.19311 0.50036 0.0
C2528 C 0.08332 0.20178 0.45915 0.0
H2529 H 0.08106 0.29391 0.43832 0.0
H2530 H 0.08026 0.27178 0.46001 0.0
H2531 H 0.10027 0.21591 0.44082 0.0
H2532 H 0.04632 0.13695 0.47435 0.0
H2533 H 0.06147 0.16185 0.45755 0.0
H2534 H 0.04923 0.21861 0.47966 0.0
C2535 C 0.08344 0.26682 0.4455 0.0
C2536 C 0.08907 0.21662 0.44918 0.0
C2537 C 0.08414 0.27962 0.43321 0.0
C2538 C 0.05013 0.15257 0.48183 0.0
C2539 C 0.05879 0.16676 0.47228 0.0
C2540 C 0.06053 0.218 0.4714 0.0
C2541 C 0.08556 0.24739 0.43871 0.0
C2542 C 0.08049 0.23222 0.45015 0.0
C2543 C 0.0628 0.18719 0.48131 0.0
C2544 C 0.06911 0.20251 0.4705 0.0
H2545 H 0.09436 0.25006 0.39318 0.0
H2546 H 0.09233 0.22721 0.4143 0.0
H2547 H 0.05861 0.24382 0.46183 0.0
H2548 H 0.04702 0.18403 0.52423 0.0
H2549 H 0.06234 0.20877 0.50773 0.0
C2550 C 0.55145 0.24117 0.1907 0.0
C2551 C 0.54767 0.25959 0.19058 0.0
C2552 C 0.56904 0.24009 0.19404 0.0
C2553 C 0.61275 0.27102 0.21645 0.0
H2554 H 0.6311 0.22916 0.18587 0.0
C2555 C 0.68342 0.26977 0.23476 0.0
C2556 C 0.68396 0.2518 0.23961 0.0
C2557 C 0.66893 0.27058 0.22297 0.0
C2558 C 0.62615 0.24099 0.1944 0.0
H2559 H 0.55917 0.29131 0.194 0.0
H2560 H 0.5898 0.28942 0.19984 0.0
H2561 H 0.60024 0.23045 0.17855 0.0
H2562 H 0.67152 0.2202 0.2343 0.0
H2563 H 0.64618 0.22149 0.21357 0.0
H2564 H 0.63825 0.28129 0.23267 0.0
C2565 C 0.57921 0.27584 0.19742 0.0
C2566 C 0.60851 0.24163 0.19034 0.0
C2567 C 0.56169 0.2769 0.194 0.0
C2568 C 0.67118 0.23419 0.23069 0.0
C2569 C 0.65676 0.23495 0.21879 0.0
C2570 C 0.63029 0.27041 0.22047 0.0
C2571 C 0.58306 0.25744 0.19743 0.0
C2572 C 0.60167 0.25662 0.20142 0.0
C2573 C 0.65491 0.25341 0.21597 0.0
C2574 C 0.63716 0.25535 0.20958 0.0
H2575 H 0.54087 0.22757 0.18807 0.0
H2576 H 0.57166 0.22576 0.19421 0.0
H2577 H 0.60772 0.28252 0.22544 0.0
H2578 H 0.69324 0.28349 0.24155 0.0
H2579 H 0.66795 0.28493 0.22069 0.0
C2580 C 0.6029 0.87482 0.89412 0.0
C2581 C 0.59991 0.85869 0.90284 0.0
C2582 C 0.60668 0.89415 0.90562 0.0
C2583 C 0.60402 0.91997 0.95685 0.0
H2584 H 0.57122 0.94174 0.93067 0.0
C2585 C 0.58135 0.98744 0.99474 0.0
C2586 C 0.56517 0.99058 0.98832 0.0
C2587 C 0.58698 0.97109 0.98532 0.0
C2588 C 0.57999 0.93549 0.93832 0.0
H2589 H 0.60225 0.84934 0.92934 0.0
H2590 H 0.60794 0.88252 0.94941 0.0
H2591 H 0.58416 0.91696 0.9124 0.0
H2592 H 0.54179 0.97887 0.96746 0.0
H2593 H 0.55119 0.94964 0.95149 0.0
H2594 H 0.59801 0.93673 0.98302 0.0
C2595 C 0.60743 0.88104 0.93407 0.0
C2596 C 0.58804 0.92174 0.92771 0.0
C2597 C 0.60402 0.86185 0.92259 0.0
C2598 C 0.5544 0.97684 0.97263 0.0
C2599 C 0.55985 0.96015 0.96342 0.0
C2600 C 0.5953 0.933 0.96754 0.0
C2601 C 0.60657 0.89704 0.92568 0.0
C2602 C 0.60034 0.91393 0.93678 0.0
C2603 C 0.57641 0.95734 0.96945 0.0
C2604 C 0.58354 0.9413 0.95837 0.0
H2605 H 0.60025 0.87244 0.87871 0.0
H2606 H 0.60724 0.90641 0.89874 0.0
H2607 H 0.6134 0.91444 0.96445 0.0
H2608 H 0.59 0.99797 0.00669 0.0
H2609 H 0.60002 0.96983 0.99009 0.0
C2610 C 0.95937 0.76894 0.71315 0.0
C2611 C 0.95912 0.75486 0.69614 0.0
C2612 C 0.94434 0.76774 0.7228 0.0
C2613 C 0.90619 0.74457 0.7374 0.0
H2614 H 0.88912 0.78957 0.72888 0.0
C2615 C 0.84458 0.77012 0.76409 0.0
C2616 C 0.84521 0.79005 0.7639 0.0
C2617 C 0.85963 0.76287 0.76098 0.0
C2618 C 0.8939 0.77715 0.73166 0.0
H2619 H 0.94403 0.72807 0.67584 0.0
H2620 H 0.91701 0.72594 0.69313 0.0
H2621 H 0.91106 0.7784 0.70942 0.0
H2622 H 0.86315 0.81861 0.76438 0.0
H2623 H 0.88948 0.80692 0.76199 0.0
H2624 H 0.88931 0.74383 0.76022 0.0
C2625 C 0.92898 0.73761 0.69896 0.0
C2626 C 0.90602 0.77047 0.72016 0.0
C2627 C 0.94418 0.73888 0.68915 0.0
C2628 C 0.86176 0.80338 0.76454 0.0
C2629 C 0.87703 0.79649 0.76291 0.0
C2630 C 0.89387 0.75126 0.74902 0.0
C2631 C 0.92901 0.75241 0.71548 0.0
C2632 C 0.91263 0.75464 0.72344 0.0
C2633 C 0.87555 0.77589 0.75864 0.0
C2634 C 0.88828 0.76814 0.7467 0.0
H2635 H 0.97088 0.78144 0.71843 0.0
H2636 H 0.9443 0.77941 0.7354 0.0
H2637 H 0.91148 0.73244 0.74008 0.0
H2638 H 0.8322 0.75975 0.76489 0.0
H2639 H 0.85825 0.74692 0.75829 0.0
C2640 C 0.13913 0.00356 0.83119 0.0
C2641 C 0.13419 0.01221 0.81645 0.0
C2642 C 0.13037 0.00435 0.84821 0.0
C2643 C 0.0989 0.03079 0.87733 0.0
H2644 H 0.09591 0.98908 0.90492 0.0
C2645 C 0.05731 0.02891 0.94433 0.0
C2646 C 0.06408 0.02278 0.95998 0.0
C2647 C 0.06517 0.02699 0.92673 0.0
C2648 C 0.09667 1.00105 0.89762 0.0
H2649 H 0.11564 0.02846 0.80865 0.0
H2650 H 0.10062 0.02998 0.8379 0.0
H2651 H 0.11065 0.98721 0.87549 0.0
H2652 H 0.08448 0.00934 0.96876 0.0
H2653 H 0.09763 0.00524 0.93819 0.0
H2654 H 0.08481 0.04454 0.89942 0.0
C2655 C 0.11146 0.0227 0.83662 0.0
C2656 C 0.1053 1.0 0.8805 0.0
C2657 C 0.12014 0.02177 0.81956 0.0
C2658 C 0.07871 0.01414 0.95712 0.0
C2659 C 0.08629 0.01175 0.93939 0.0
C2660 C 0.0902 0.03177 0.89437 0.0
C2661 C 0.11627 0.01396 0.85142 0.0
C2662 C 0.10674 0.0149 0.8699 0.0
C2663 C 0.07994 0.01845 0.92382 0.0
C2664 C 0.08892 0.01699 0.90503 0.0
H2665 H 0.14969 0.99584 0.82949 0.0
H2666 H 0.13491 0.99755 0.85899 0.0
H2667 H 0.09975 0.0429 0.87021 0.0
H2668 H 0.04625 0.03589 0.94591 0.0
H2669 H 0.05956 0.03223 0.91532 0.0
C2670 C 0.80949 0.40592 0.56691 0.0
C2671 C 0.81796 0.39661 0.55198 0.0
C2672 C 0.81353 0.40495 0.58569 0.0
C2673 C 0.84223 0.38483 0.6158 0.0
H2674 H 0.79927 0.37475 0.64162 0.0
C2675 C 0.84329 0.35114 0.67938 0.0
C2676 C 0.82965 0.33375 0.67733 0.0
C2677 C 0.84151 0.36509 0.66902 0.0
C2678 C 0.81137 0.37758 0.63459 0.0
H2679 H 0.83838 0.3807 0.54504 0.0
H2680 H 0.84467 0.3778 0.57746 0.0
H2681 H 0.79883 0.38774 0.61313 0.0
H2682 H 0.80275 0.318 0.66504 0.0
H2683 H 0.79977 0.34209 0.64617 0.0
H2684 H 0.85413 0.37258 0.63608 0.0
C2685 C 0.83525 0.38633 0.57503 0.0
C2686 C 0.81127 0.38537 0.6184 0.0
C2687 C 0.83153 0.38777 0.55632 0.0
C2688 C 0.81343 0.33138 0.66658 0.0
C2689 C 0.81174 0.3452 0.6559 0.0
C2690 C 0.84217 0.37658 0.63167 0.0
C2691 C 0.82566 0.3941 0.58979 0.0
C2692 C 0.82662 0.38873 0.60857 0.0
C2693 C 0.82623 0.36154 0.65621 0.0
C2694 C 0.82669 0.37267 0.64107 0.0
H2695 H 0.7993 0.41338 0.56407 0.0
H2696 H 0.80651 0.41194 0.5968 0.0
H2697 H 0.85442 0.38758 0.60893 0.0
H2698 H 0.85577 0.35325 0.68798 0.0
H2699 H 0.85264 0.37789 0.66994 0.0
C2700 C 0.45314 0.03092 0.3438 0.0
C2701 C 0.44194 0.04381 0.34856 0.0
C2702 C 0.45989 0.02328 0.35795 0.0
C2703 C 0.47696 0.05392 0.4004 0.0
H2704 H 0.49659 0.01328 0.41524 0.0
C2705 C 0.51664 0.06479 0.47102 0.0
C2706 C 0.5301 0.05481 0.47144 0.0
C2707 C 0.50699 0.06285 0.45371 0.0
C2708 C 0.49138 0.02473 0.41085 0.0
H2709 H 0.42714 0.05664 0.37087 0.0
H2710 H 0.43781 0.04202 0.39481 0.0
H2711 H 0.4718 0.00335 0.38972 0.0
H2712 H 0.54424 0.03504 0.4549 0.0
H2713 H 0.52813 0.03258 0.42435 0.0
H2714 H 0.49649 0.07536 0.42103 0.0
C2715 C 0.44141 0.03793 0.38031 0.0
C2716 C 0.47712 0.019 0.39667 0.0
C2717 C 0.43545 0.0465 0.3666 0.0
C2718 C 0.5346 0.04377 0.45456 0.0
C2719 C 0.52513 0.04197 0.43723 0.0
C2720 C 0.4912 0.05963 0.41432 0.0
C2721 C 0.45534 0.02862 0.37666 0.0
C2722 C 0.46959 0.03358 0.39194 0.0
C2723 C 0.51081 0.05079 0.43691 0.0
C2724 C 0.49817 0.04506 0.41994 0.0
H2725 H 0.45779 0.02804 0.3297 0.0
H2726 H 0.47053 0.01584 0.35496 0.0
H2727 H 0.47174 0.06546 0.39617 0.0
H2728 H 0.51292 0.07302 0.48416 0.0
H2729 H 0.49574 0.0695 0.45373 0.0
C2730 C 0.80774 0.74799 0.06648 0.0
C2731 C 0.80562 0.72741 0.05913 0.0
C2732 C 0.80589 0.75544 0.08589 0.0
C2733 C 0.81164 0.74301 0.13223 0.0
H2734 H 0.78169 0.77831 0.15151 0.0
C2735 C 0.79227 0.74959 0.20774 0.0
C2736 C 0.79457 0.76868 0.2197 0.0
C2737 C 0.79278 0.74705 0.18802 0.0
C2738 C 0.79029 0.76868 0.14632 0.0
H2739 H 0.7999 0.69849 0.06601 0.0
H2740 H 0.79721 0.71144 0.09991 0.0
H2741 H 0.78452 0.76926 0.11683 0.0
H2742 H 0.79844 0.80012 0.22037 0.0
H2743 H 0.79926 0.79562 0.1854 0.0
H2744 H 0.81737 0.74213 0.16137 0.0
C2745 C 0.80004 0.72184 0.09074 0.0
C2746 C 0.7919 0.7635 0.12652 0.0
C2747 C 0.80144 0.71439 0.07134 0.0
C2748 C 0.79645 0.7852 0.21141 0.0
C2749 C 0.79698 0.78263 0.19145 0.0
C2750 C 0.81011 0.7482 0.15185 0.0
C2751 C 0.80246 0.74245 0.0983 0.0
C2752 C 0.80216 0.75009 0.11927 0.0
C2753 C 0.79582 0.76356 0.17969 0.0
C2754 C 0.79896 0.76054 0.15908 0.0
H2755 H 0.81101 0.75828 0.05726 0.0
H2756 H 0.80783 0.77137 0.09133 0.0
H2757 H 0.82003 0.73309 0.12714 0.0
H2758 H 0.79073 0.73662 0.21379 0.0
H2759 H 0.79138 0.73211 0.1793 0.0
C2760 C 0.10501 0.99263 0.69685 0.0
C2761 C 0.12301 1.00109 0.7046 0.0
C2762 C 0.09778 0.99705 0.68031 0.0
C2763 C 0.10751 0.03371 0.6477 0.0
H2764 H 0.06599 0.99748 0.61604 0.0
C2765 C 0.08482 0.04464 0.57268 0.0
C2766 C 0.06668 0.03933 0.56549 0.0
C2767 C 0.09056 0.04083 0.59014 0.0
C2768 C 0.07747 0.00799 0.62477 0.0
H2769 H 0.14741 0.02087 0.70002 0.0
H2770 H 0.13519 0.02823 0.67113 0.0
H2771 H 0.07838 0.9887 0.64391 0.0
H2772 H 0.04032 0.02492 0.57132 0.0
H2773 H 0.05024 0.01811 0.60183 0.0
H2774 H 0.10674 0.0528 0.62835 0.0
C2775 C 0.12632 0.01838 0.67808 0.0
C2776 C 0.08471 0.00292 0.64103 0.0
C2777 C 0.13356 0.01394 0.69472 0.0
C2778 C 0.05435 0.02991 0.57657 0.0
C2779 C 0.06015 0.02568 0.59401 0.0
C2780 C 0.10037 0.03866 0.63141 0.0
C2781 C 0.10814 0.01023 0.67051 0.0
C2782 C 0.10006 0.0156 0.65289 0.0
C2783 C 0.07846 0.03095 0.60113 0.0
C2784 C 0.08528 0.02589 0.61941 0.0
H2785 H 0.09622 0.98265 0.70379 0.0
H2786 H 0.08378 0.99043 0.67561 0.0
H2787 H 0.11887 0.04444 0.65635 0.0
H2788 H 0.09483 0.05127 0.56436 0.0
H2789 H 0.10474 0.04491 0.59454 0.0
C2790 C 0.81568 0.39604 0.46995 0.0
C2791 C 0.82739 0.41506 0.47376 0.0
C2792 C 0.81317 0.38361 0.45177 0.0
C2793 C 0.83704 0.37526 0.40949 0.0
H2794 H 0.79343 0.33438 0.38987 0.0
C2795 C 0.8291 0.32339 0.3354 0.0
C2796 C 0.81384 0.30742 0.32978 0.0
C2797 C 0.83252 0.33461 0.35417 0.0
C2798 C 0.80594 0.34522 0.39534 0.0
H2799 H 0.84496 0.43681 0.46181 0.0
H2800 H 0.83969 0.4153 0.42908 0.0
H2801 H 0.79356 0.36033 0.41781 0.0
H2802 H 0.79308 0.28757 0.3404 0.0
H2803 H 0.79932 0.30653 0.37345 0.0
H2804 H 0.84974 0.35996 0.38773 0.0
C2805 C 0.8329 0.40979 0.44041 0.0
C2806 C 0.80589 0.36039 0.41129 0.0
C2807 C 0.83584 0.42213 0.45895 0.0
C2808 C 0.80398 0.30072 0.34396 0.0
C2809 C 0.80764 0.31171 0.36297 0.0
C2810 C 0.8372 0.35991 0.39373 0.0
C2811 C 0.82204 0.39014 0.43687 0.0
C2812 C 0.82145 0.37554 0.41857 0.0
C2813 C 0.82105 0.32977 0.36796 0.0
C2814 C 0.82161 0.3447 0.38626 0.0
H2815 H 0.80927 0.39025 0.48137 0.0
H2816 H 0.80509 0.36849 0.44978 0.0
H2817 H 0.8494 0.38638 0.41507 0.0
H2818 H 0.83766 0.32847 0.32504 0.0
H2819 H 0.84324 0.34802 0.35709 0.0
C2820 C 0.43449 0.01585 0.24192 0.0
C2821 C 0.43162 0.03443 0.25085 0.0
C2822 C 0.44108 0.01329 0.22405 0.0
C2823 C 0.47169 0.03988 0.19942 0.0
H2824 H 0.44724 0.00801 0.15026 0.0
C2825 C 0.50946 0.04019 0.13496 0.0
C2826 C 0.50819 0.02106 0.12366 0.0
C2827 C 0.49641 0.04332 0.14708 0.0
C2828 C 0.45431 0.01685 0.16389 0.0
H2829 H 0.43273 0.06461 0.24812 0.0
H2830 H 0.44461 0.06015 0.21711 0.0
H2831 H 0.43208 0.00743 0.17936 0.0
H2832 H 0.49153 0.99105 0.11352 0.0
H2833 H 0.46918 0.99599 0.13539 0.0
H2834 H 0.49422 0.04858 0.18479 0.0
C2835 C 0.44154 0.04764 0.22384 0.0
C2836 C 0.44563 0.01643 0.18042 0.0
C2837 C 0.43474 0.05012 0.24147 0.0
C2838 C 0.49293 0.00569 0.12287 0.0
C2839 C 0.47999 0.00871 0.13513 0.0
C2840 C 0.48049 0.03998 0.18308 0.0
C2841 C 0.44499 0.02938 0.21527 0.0
C2842 C 0.4543 0.0281 0.19813 0.0
C2843 C 0.48222 0.0272 0.14827 0.0
C2844 C 0.4719 0.02857 0.16507 0.0
H2845 H 0.43211 0.00355 0.24895 0.0
H2846 H 0.44386 0.99916 0.21751 0.0
H2847 H 0.47849 0.04891 0.21315 0.0
H2848 H 0.52094 0.05239 0.13509 0.0
H2849 H 0.49804 0.05802 0.15637 0.0
C2850 C 0.79202 0.72677 0.95032 0.0
C2851 C 0.80401 0.73645 0.96675 0.0
C2852 C 0.79333 0.73413 0.93374 0.0
C2853 C 0.82741 0.7651 0.91092 0.0
H2854 H 0.78778 0.75633 0.87245 0.0
C2855 C 0.83237 0.79333 0.84057 0.0
C2856 C 0.82125 0.78104 0.82429 0.0
C2857 C 0.83153 0.78808 0.85826 0.0
C2858 C 0.79902 0.75867 0.88299 0.0
H2859 H 0.82551 0.76249 0.97942 0.0
H2860 H 0.8272 0.77591 0.95087 0.0
H2861 H 0.78201 0.74906 0.90348 0.0
H2862 H 0.80259 0.75206 0.81328 0.0
H2863 H 0.80154 0.74278 0.84384 0.0
H2864 H 0.84436 0.77497 0.89034 0.0
C2865 C 0.81731 0.76216 0.95043 0.0
C2866 C 0.7957 0.75454 0.90081 0.0
C2867 C 0.81617 0.75464 0.96689 0.0
C2868 C 0.81096 0.76227 0.82559 0.0
C2869 C 0.81021 0.75697 0.84317 0.0
C2870 C 0.83071 0.76942 0.89313 0.0
C2871 C 0.80649 0.7515 0.93337 0.0
C2872 C 0.80986 0.75747 0.91496 0.0
C2873 C 0.8198 0.77024 0.85986 0.0
C2874 C 0.81655 0.76598 0.87889 0.0
H2875 H 0.78264 0.71261 0.94969 0.0
H2876 H 0.78481 0.72542 0.92089 0.0
H2877 H 0.83871 0.7672 0.92129 0.0
H2878 H 0.84117 0.80733 0.83993 0.0
H2879 H 0.83935 0.79847 0.87083 0.0
C2880 C 0.81415 0.09097 0.02434 0.0
C2881 C 0.81424 0.1094 0.02008 0.0
C2882 C 0.8301 0.08507 0.02564 0.0
C2883 C 0.87283 0.09349 0.00566 0.0
H2884 H 0.88878 0.06823 0.04368 0.0
C2885 C 0.9378 0.07085 0.999 0.0
C2886 C 0.9364 0.05098 0.99971 0.0
C2887 C 0.925 0.08048 0.00647 0.0
C2888 C 0.88446 0.07528 0.03298 0.0
H2889 H 0.83111 0.13632 0.01443 0.0
H2890 H 0.85852 0.12623 0.017 0.0
H2891 H 0.86098 0.07905 0.04657 0.0
H2892 H 0.92182 0.02592 0.00989 0.0
H2893 H 0.8991 0.04252 0.02264 0.0
H2894 H 0.89571 0.08933 0.99166 0.0
C2895 C 0.84628 0.11626 0.01921 0.0
C2896 C 0.86856 0.08135 0.0346 0.0
C2897 C 0.83051 0.12214 0.01798 0.0
C2898 C 0.92298 0.0413 0.00926 0.0
C2899 C 0.9101 0.05087 0.01664 0.0
C2900 C 0.88858 0.08742 0.00402 0.0
C2901 C 0.84618 0.09748 0.02248 0.0
C2902 C 0.86269 0.09057 0.02097 0.0
C2903 C 0.91049 0.0702 0.01446 0.0
C2904 C 0.89462 0.07826 0.01764 0.0
H2905 H 0.80175 0.08088 0.02595 0.0
H2906 H 0.82974 0.07046 0.02815 0.0
H2907 H 0.86839 0.10016 0.99469 0.0
H2908 H 0.94819 0.07851 0.99172 0.0
H2909 H 0.92589 0.09556 0.005 0.0
C2910 C 0.35529 0.43321 0.02199 0.0
C2911 C 0.35044 0.42331 0.03662 0.0
C2912 C 0.37298 0.44379 0.02191 0.0
C2913 C 0.4144 0.46938 0.05413 0.0
H2914 H 0.43657 0.46639 0.00663 0.0
C2915 C 0.48952 0.50672 0.05074 0.0
C2916 C 0.49368 0.51463 0.03475 0.0
C2917 C 0.47203 0.49595 0.05182 0.0
C2918 C 0.43054 0.46764 0.02001 0.0
H2919 H 0.36024 0.41674 0.06266 0.0
H2920 H 0.39104 0.43545 0.06269 0.0
H2921 H 0.40633 0.44649 0.00649 0.0
H2922 H 0.48293 0.51859 0.00792 0.0
H2923 H 0.45251 0.50029 0.00986 0.0
H2924 H 0.4386 0.49068 0.06763 0.0
C2925 C 0.38123 0.43499 0.05123 0.0
C2926 C 0.41317 0.45616 0.01992 0.0
C2927 C 0.36363 0.4241 0.0511 0.0
C2928 C 0.48006 0.51236 0.02027 0.0
C2929 C 0.46265 0.50176 0.02136 0.0
C2930 C 0.43179 0.48095 0.05422 0.0
C2931 C 0.38613 0.44504 0.03666 0.0
C2932 C 0.40482 0.45695 0.03694 0.0
C2933 C 0.45843 0.49298 0.03691 0.0
C2934 C 0.44006 0.48036 0.03712 0.0
H2935 H 0.34539 0.43288 0.01068 0.0
H2936 H 0.37624 0.45146 0.01055 0.0
H2937 H 0.40831 0.47051 0.06748 0.0
H2938 H 0.49989 0.5082 0.06201 0.0
H2939 H 0.46933 0.48936 0.06397 0.0
C2940 C 0.39779 0.6379 0.7983 0.0
C2941 C 0.39846 0.62224 0.78249 0.0
C2942 C 0.38871 0.6528 0.79677 0.0
C2943 C 0.3544 0.66582 0.76428 0.0
H2944 H 0.36895 0.71731 0.80041 0.0
C2945 C 0.32287 0.73414 0.75835 0.0
C2946 C 0.32142 0.74799 0.77532 0.0
C2947 C 0.33117 0.7182 0.75875 0.0
C2948 C 0.36435 0.703 0.79025 0.0
H2949 H 0.38948 0.61069 0.75226 0.0
H2950 H 0.37354 0.63638 0.74948 0.0
H2951 H 0.38531 0.6922 0.80156 0.0
H2952 H 0.32905 0.75606 0.80591 0.0
H2953 H 0.34333 0.72894 0.80671 0.0
H2954 H 0.33356 0.67701 0.7528 0.0
C2955 C 0.38014 0.6372 0.76336 0.0
C2956 C 0.37391 0.68825 0.79093 0.0
C2957 C 0.38954 0.62236 0.76487 0.0
C2958 C 0.32914 0.74544 0.79255 0.0
C2959 C 0.33771 0.72986 0.79295 0.0
C2960 C 0.34487 0.68067 0.76353 0.0
C2961 C 0.37944 0.65291 0.77931 0.0
C2962 C 0.3692 0.66911 0.77806 0.0
C2963 C 0.33918 0.71587 0.77605 0.0
C2964 C 0.3495 0.69966 0.77658 0.0
H2965 H 0.40437 0.63867 0.8122 0.0
H2966 H 0.38864 0.664 0.80968 0.0
H2967 H 0.34982 0.65152 0.75412 0.0
H2968 H 0.31827 0.73608 0.74458 0.0
H2969 H 0.33206 0.70827 0.74524 0.0
C2970 C 0.21413 0.61818 0.49747 0.0
C2971 C 0.22675 0.6114 0.50702 0.0
C2972 C 0.19911 0.62129 0.50629 0.0
C2973 C 0.17181 0.6107 0.54526 0.0
H2974 H 0.14425 0.56911 0.50273 0.0
C2975 C 0.09632 0.58647 0.53268 0.0
C2976 C 0.08799 0.56679 0.52319 0.0
C2977 C 0.11472 0.59209 0.53749 0.0
C2978 C 0.15186 0.58033 0.51493 0.0
H2979 H 0.23623 0.60732 0.53433 0.0
H2980 H 0.20977 0.61228 0.5496 0.0
H2981 H 0.17416 0.58643 0.49912 0.0
H2982 H 0.09221 0.53778 0.51019 0.0
H2983 H 0.12415 0.54745 0.51868 0.0
H2984 H 0.14909 0.60437 0.56097 0.0
C2985 C 0.21125 0.61517 0.53547 0.0
C2986 C 0.16882 0.59067 0.51268 0.0
C2987 C 0.22645 0.61237 0.52672 0.0
C2988 C 0.09816 0.55278 0.51842 0.0
C2989 C 0.1165 0.55836 0.52314 0.0
C2990 C 0.15463 0.60032 0.54752 0.0
C2991 C 0.19662 0.61691 0.5243 0.0
C2992 C 0.17864 0.60652 0.5275 0.0
C2993 C 0.12499 0.57822 0.53219 0.0
C2994 C 0.14434 0.58557 0.5321 0.0
H2995 H 0.21434 0.61776 0.48229 0.0
H2996 H 0.18811 0.62332 0.49767 0.0
H2997 H 0.17949 0.62234 0.55709 0.0
H2998 H 0.08862 0.59747 0.53625 0.0
H2999 H 0.12101 0.60761 0.54412 0.0
C3000 C 0.70641 0.99932 0.75409 0.0
C3001 C 0.71445 0.00733 0.73953 0.0
C3002 C 0.7086 0.98118 0.75658 0.0
C3003 C 0.73339 0.94242 0.74142 0.0
H3004 H 0.75035 0.95931 0.79566 0.0
C3005 C 0.78926 0.91796 0.77912 0.0
C3006 C 0.78624 0.91478 0.79743 0.0
C3007 C 0.77697 0.92466 0.76917 0.0
C3008 C 0.74541 0.95416 0.78058 0.0
H3009 H 0.72903 0.00213 0.71471 0.0
H3010 H 0.73454 0.97123 0.72026 0.0
H3011 H 0.73241 0.9775 0.78229 0.0
H3012 H 0.76783 0.91411 0.81917 0.0
H3013 H 0.74615 0.92557 0.80171 0.0
H3014 H 0.74758 0.9196 0.73992 0.0
C3015 C 0.72593 0.97837 0.72924 0.0
C3016 C 0.73497 0.96445 0.7729 0.0
C3017 C 0.72302 0.99615 0.72622 0.0
C3018 C 0.77051 0.91714 0.80528 0.0
C3019 C 0.75815 0.9235 0.79527 0.0
C3020 C 0.74403 0.93208 0.74918 0.0
C3021 C 0.71983 0.97164 0.74533 0.0
C3022 C 0.7288 0.95868 0.75328 0.0
C3023 C 0.76154 0.92785 0.77744 0.0
C3024 C 0.75 0.93793 0.76883 0.0
H3025 H 0.69951 0.00752 0.76437 0.0
H3026 H 0.70327 0.97585 0.7687 0.0
H3027 H 0.72898 0.93792 0.7262 0.0
H3028 H 0.8013 0.91578 0.77282 0.0
H3029 H 0.77985 0.9281 0.75547 0.0
C3030 C 0.75336 0.93469 0.53285 0.0
C3031 C 0.75106 0.91916 0.54235 0.0
C3032 C 0.73881 0.94152 0.52769 0.0
C3033 C 0.69354 0.94398 0.53976 0.0
H3034 H 0.69289 0.96273 0.4929 0.0
C3035 C 0.63927 0.98014 0.513 0.0
C3036 C 0.64629 0.99721 0.50617 0.0
C3037 C 0.6505 0.96876 0.51799 0.0
C3038 C 0.69292 0.9576 0.50607 0.0
H3039 H 0.73202 0.89834 0.55395 0.0
H3040 H 0.70623 0.91033 0.54487 0.0
H3041 H 0.71488 0.94488 0.49928 0.0
H3042 H 0.67055 0.01662 0.50052 0.0
H3043 H 0.69008 0.99688 0.50921 0.0
H3044 H 0.67144 0.95689 0.54639 0.0
C3045 C 0.71931 0.91729 0.54147 0.0
C3046 C 0.70553 0.94741 0.50975 0.0
C3047 C 0.73397 0.91036 0.54656 0.0
C3048 C 0.66476 0.0033 0.50537 0.0
C3049 C 0.67591 0.99199 0.5103 0.0
C3050 C 0.68074 0.95408 0.53595 0.0
C3051 C 0.7216 0.93299 0.53197 0.0
C3052 C 0.70642 0.94108 0.52694 0.0
C3053 C 0.66885 0.97433 0.51613 0.0
C3054 C 0.68074 0.96154 0.51936 0.0
H3055 H 0.76649 0.94167 0.52957 0.0
H3056 H 0.74117 0.9539 0.52077 0.0
H3057 H 0.69387 0.93933 0.55315 0.0
H3058 H 0.62504 0.9751 0.51367 0.0
H3059 H 0.64476 0.95521 0.5225 0.0
C3060 C 0.402 0.50254 0.76583 0.0
C3061 C 0.39599 0.5174 0.77841 0.0
C3062 C 0.39354 0.48192 0.76322 0.0
C3063 C 0.36032 0.4465 0.7859 0.0
H3064 H 0.36239 0.40687 0.73998 0.0
C3065 C 0.31647 0.3645 0.77236 0.0
C3066 C 0.32353 0.34845 0.76379 0.0
C3067 C 0.32557 0.38454 0.77349 0.0
C3068 C 0.36173 0.41765 0.75302 0.0
H3069 H 0.3756 0.52155 0.79745 0.0
H3070 H 0.36063 0.48654 0.79236 0.0
H3071 H 0.37715 0.442 0.74269 0.0
H3072 H 0.34614 0.34148 0.74972 0.0
H3073 H 0.36176 0.37632 0.75116 0.0
H3074 H 0.34472 0.42225 0.79609 0.0
C3075 C 0.37232 0.49037 0.78495 0.0
C3076 C 0.37033 0.43805 0.75464 0.0
C3077 C 0.38086 0.51081 0.78772 0.0
C3078 C 0.34009 0.35329 0.75627 0.0
C3079 C 0.34907 0.3734 0.75706 0.0
C3080 C 0.35159 0.42624 0.78417 0.0
C3081 C 0.37861 0.47529 0.77298 0.0
C3082 C 0.36973 0.45307 0.77109 0.0
C3083 C 0.34209 0.38952 0.76591 0.0
C3084 C 0.35196 0.41132 0.76767 0.0
H3085 H 0.41368 0.50677 0.75849 0.0
H3086 H 0.39915 0.47119 0.75394 0.0
H3087 H 0.3598 0.45697 0.79918 0.0
H3088 H 0.30407 0.36165 0.77878 0.0
H3089 H 0.31948 0.39621 0.7803 0.0
C3090 C 0.1978 0.60358 0.24837 0.0
C3091 C 0.20207 0.59308 0.26163 0.0
C3092 C 0.21044 0.62013 0.24564 0.0
C3093 C 0.25282 0.65493 0.2697 0.0
H3094 H 0.25408 0.67234 0.22209 0.0
C3095 C 0.29472 0.72959 0.27095 0.0
C3096 C 0.28222 0.74087 0.27025 0.0
C3097 C 0.28989 0.70923 0.2625 0.0
C3098 C 0.25423 0.66709 0.23518 0.0
H3099 H 0.22299 0.59052 0.28143 0.0
H3100 H 0.24507 0.61789 0.27573 0.0
H3101 H 0.23389 0.64033 0.2232 0.0
H3102 H 0.25516 0.74058 0.26109 0.0
H3103 H 0.24656 0.70488 0.2465 0.0
H3104 H 0.27275 0.68154 0.28179 0.0
C3105 C 0.2318 0.61469 0.26845 0.0
C3106 C 0.24244 0.64916 0.236 0.0
C3107 C 0.21904 0.59901 0.27184 0.0
C3108 C 0.26499 0.73193 0.26127 0.0
C3109 C 0.26025 0.71174 0.25259 0.0
C3110 C 0.26489 0.67228 0.26869 0.0
C3111 C 0.22766 0.62566 0.25556 0.0
C3112 C 0.24122 0.64331 0.25351 0.0
C3113 C 0.27248 0.70017 0.25368 0.0
C3114 C 0.26512 0.67891 0.25173 0.0
H3115 H 0.18494 0.5987 0.23988 0.0
H3116 H 0.20678 0.62842 0.23573 0.0
H3117 H 0.25196 0.65136 0.2836 0.0
H3118 H 0.30797 0.73635 0.2783 0.0
H3119 H 0.29925 0.70031 0.264 0.0
C3120 C 0.52772 0.72042 0.46545 0.0
C3121 C 0.51048 0.72363 0.46439 0.0
C3122 C 0.53106 0.70485 0.47311 0.0
C3123 C 0.50782 0.65536 0.47825 0.0
H3124 H 0.54889 0.65946 0.51302 0.0
C3125 C 0.51889 0.58357 0.49625 0.0
C3126 C 0.53593 0.58263 0.50304 0.0
C3127 C 0.51518 0.6017 0.49517 0.0
C3128 C 0.53745 0.65761 0.50301 0.0
H3129 H 0.48341 0.71328 0.47127 0.0
H3130 H 0.48921 0.68615 0.48428 0.0
H3131 H 0.54447 0.68899 0.5038 0.0
H3132 H 0.56139 0.60141 0.5165 0.0
H3133 H 0.55642 0.63202 0.51198 0.0
H3134 H 0.50114 0.62426 0.47591 0.0
C3135 C 0.50014 0.69566 0.47919 0.0
C3136 C 0.5349 0.67485 0.49786 0.0
C3137 C 0.49686 0.71134 0.47183 0.0
C3138 C 0.54867 0.60082 0.50993 0.0
C3139 C 0.54542 0.61892 0.50775 0.0
C3140 C 0.5106 0.63808 0.48289 0.0
C3141 C 0.51717 0.69197 0.47959 0.0
C3142 C 0.52001 0.67391 0.48547 0.0
C3143 C 0.52868 0.61972 0.49975 0.0
C3144 C 0.52545 0.63871 0.49545 0.0
H3145 H 0.53852 0.7296 0.45989 0.0
H3146 H 0.54432 0.70234 0.47317 0.0
H3147 H 0.49635 0.65405 0.46838 0.0
H3148 H 0.50827 0.57025 0.49129 0.0
H3149 H 0.50166 0.60113 0.49025 0.0
C3150 C 0.64615 0.31715 0.64659 0.0
C3151 C 0.6341 0.32544 0.65786 0.0
C3152 C 0.66197 0.31453 0.65523 0.0
C3153 C 0.69146 0.33101 0.70244 0.0
H3154 H 0.71068 0.28589 0.68184 0.0
C3155 C 0.74616 0.31222 0.74766 0.0
C3156 C 0.75899 0.30315 0.73886 0.0
C3157 C 0.73161 0.31473 0.73692 0.0
C3158 C 0.7057 0.29876 0.68776 0.0
H3159 H 0.62957 0.33726 0.68726 0.0
H3160 H 0.65626 0.33235 0.702 0.0
H3161 H 0.68464 0.29066 0.6647 0.0
H3162 H 0.76636 0.29007 0.71108 0.0
H3163 H 0.74149 0.29524 0.69224 0.0
H3164 H 0.71237 0.33927 0.72537 0.0
C3165 C 0.65402 0.32829 0.68649 0.0
C3166 C 0.69063 0.30151 0.67784 0.0
C3167 C 0.63843 0.33098 0.67792 0.0
C3168 C 0.75687 0.29709 0.71861 0.0
C3169 C 0.74238 0.29988 0.70773 0.0
C3170 C 0.70643 0.32827 0.71231 0.0
C3171 C 0.66621 0.32011 0.67541 0.0
C3172 C 0.68304 0.31755 0.68515 0.0
C3173 C 0.72941 0.30874 0.71671 0.0
C3174 C 0.71375 0.31195 0.70536 0.0
H3175 H 0.64333 0.3126 0.63111 0.0
H3176 H 0.67095 0.30832 0.64605 0.0
H3177 H 0.68662 0.34396 0.70843 0.0
H3178 H 0.74718 0.31752 0.76293 0.0
H3179 H 0.72196 0.32126 0.74467 0.0
C3180 C 0.01617 0.32829 0.98115 0.0
C3181 C 0.01458 0.32013 0.96125 0.0
C3182 C 0.01996 0.3491 0.98838 0.0
C3183 C 0.01008 0.3916 0.97432 0.0
H3184 H 0.04865 0.4266 0.01124 0.0
C3185 C 0.02965 0.47564 0.98058 0.0
C3186 C 0.03516 0.48888 0.99854 0.0
C3187 C 0.02611 0.45506 0.97876 0.0
C3188 C 0.03761 0.41696 0.0012 0.0
H3189 H 0.01602 0.32715 0.93339 0.0
H3190 H 0.02188 0.36319 0.94586 0.0
H3191 H 0.04581 0.39034 0.00311 0.0
H3192 H 0.04163 0.49119 0.02879 0.0
H3193 H 0.0355 0.4549 0.02563 0.0
H3194 H 0.00174 0.4178 0.97224 0.0
C3195 C 0.0206 0.35366 0.95592 0.0
C3196 C 0.03605 0.39626 0.9965 0.0
C3197 C 0.01734 0.33305 0.94879 0.0
C3198 C 0.03701 0.4812 0.01481 0.0
C3199 C 0.03372 0.46048 0.01296 0.0
C3200 C 0.0115 0.4121 0.97912 0.0
C3201 C 0.02157 0.36189 0.97572 0.0
C3202 C 0.02254 0.38349 0.98259 0.0
C3203 C 0.02834 0.44717 0.99484 0.0
C3204 C 0.02557 0.42515 0.99216 0.0
H3205 H 0.01407 0.31858 0.99103 0.0
H3206 H 0.02064 0.35509 0.00371 0.0
H3207 H 0.99933 0.38205 0.96383 0.0
H3208 H 0.02845 0.48125 0.96782 0.0
H3209 H 0.0223 0.44535 0.96454 0.0
C3210 C 0.01982 0.81669 0.13783 0.0
C3211 C 0.03382 0.8095 0.14457 0.0
C3212 C 0.00351 0.8142 0.14596 0.0
C3213 C 0.97686 0.78547 0.17789 0.0
H3214 H 0.95205 0.82776 0.18512 0.0
C3215 C 0.92632 0.79005 0.23291 0.0
C3216 C 0.90885 0.7897 0.2262 0.0
C3217 C 0.94054 0.7941 0.22189 0.0
C3218 C 0.95874 0.81575 0.18304 0.0
H3219 H 0.04135 0.7937 0.16498 0.0
H3220 H 0.01325 0.78949 0.17922 0.0
H3221 H 0.9786 0.83052 0.16754 0.0
H3222 H 0.89309 0.7952 0.20316 0.0
H3223 H 0.91832 0.80298 0.18398 0.0
H3224 H 0.95747 0.77113 0.194 0.0
C3225 C 0.01461 0.79684 0.16745 0.0
C3226 C 0.97397 0.81726 0.17288 0.0
C3227 C 0.03089 0.79935 0.15934 0.0
C3228 C 0.90634 0.79536 0.20881 0.0
C3229 C 0.92077 0.79969 0.19777 0.0
C3230 C 0.96189 0.78414 0.1882 0.0
C3231 C 0.00066 0.80438 0.16106 0.0
C3232 C 0.98351 0.80228 0.17047 0.0
C3233 C 0.93789 0.79826 0.20387 0.0
C3234 C 0.9528 0.79938 0.19124 0.0
H3235 H 0.02158 0.82468 0.12652 0.0
H3236 H 0.99314 0.82 0.14036 0.0
H3237 H 0.9833 0.77327 0.1759 0.0
H3238 H 0.92887 0.78614 0.24637 0.0
H3239 H 0.9536 0.7933 0.22722 0.0
C3240 C 0.50086 0.29845 0.10468 0.0
C3241 C 0.50391 0.30488 0.12472 0.0
C3242 C 0.50589 0.31206 0.09333 0.0
C3243 C 0.50982 0.36426 0.09576 0.0
H3244 H 0.53457 0.35589 0.05012 0.0
C3245 C 0.5353 0.42514 0.05491 0.0
C3246 C 0.53523 0.41894 0.03494 0.0
C3247 C 0.52984 0.41105 0.06569 0.0
C3248 C 0.52736 0.35827 0.06265 0.0
H3249 H 0.51517 0.32993 0.1488 0.0
H3250 H 0.52359 0.3539 0.12894 0.0
H3251 H 0.53018 0.33111 0.06941 0.0
H3252 H 0.52808 0.39377 0.0103 0.0
H3253 H 0.51807 0.36914 0.02904 0.0
H3254 H 0.50679 0.39129 0.08895 0.0
C3255 C 0.51745 0.33841 0.12202 0.0
C3256 C 0.52499 0.34417 0.07371 0.0
C3257 C 0.5128 0.32473 0.13331 0.0
C3258 C 0.5285 0.39875 0.02574 0.0
C3259 C 0.52287 0.38472 0.03646 0.0
C3260 C 0.51206 0.3783 0.08462 0.0
C3261 C 0.5136 0.33226 0.10201 0.0
C3262 C 0.51633 0.34716 0.09039 0.0
C3263 C 0.52412 0.39064 0.05657 0.0
C3264 C 0.52089 0.37545 0.06799 0.0
H3265 H 0.49406 0.28311 0.09787 0.0
H3266 H 0.50284 0.30704 0.07789 0.0
H3267 H 0.50281 0.36664 0.10844 0.0
H3268 H 0.54051 0.44069 0.06226 0.0
H3269 H 0.53102 0.41603 0.08118 0.0
C3270 C 0.04373 0.33199 0.34653 0.0
C3271 C 0.04483 0.31207 0.34191 0.0
C3272 C 0.02702 0.33633 0.34557 0.0
C3273 C 0.97961 0.31216 0.3472 0.0
H3274 H 0.96972 0.35285 0.3231 0.0
C3275 C 0.91249 0.30749 0.30908 0.0
C3276 C 0.90882 0.32497 0.30574 0.0
C3277 C 0.92773 0.30861 0.32082 0.0
C3278 C 0.97227 0.34179 0.33043 0.0
H3279 H 0.03008 0.28121 0.33204 0.0
H3280 H 0.00108 0.28871 0.32955 0.0
H3281 H 0.00018 0.34988 0.32723 0.0
H3282 H 0.91649 0.35723 0.31365 0.0
H3283 H 0.94281 0.35934 0.33492 0.0
H3284 H 0.95163 0.30356 0.34977 0.0
C3285 C 0.01283 0.30097 0.33439 0.0
C3286 C 0.98977 0.34003 0.33265 0.0
C3287 C 0.02939 0.29667 0.3355 0.0
C3288 C 0.91917 0.3436 0.31613 0.0
C3289 C 0.93431 0.34476 0.32809 0.0
C3290 C 0.96213 0.31395 0.34505 0.0
C3291 C 0.01139 0.32075 0.34004 0.0
C3292 C 0.99348 0.32471 0.34037 0.0
C3293 C 0.93945 0.32728 0.32939 0.0
C3294 C 0.95816 0.32831 0.33598 0.0
H3295 H 0.05557 0.34399 0.3519 0.0
H3296 H 0.02627 0.35172 0.34996 0.0
H3297 H 0.9822 0.30052 0.35369 0.0
H3298 H 0.90467 0.29299 0.30102 0.0
H3299 H 0.93123 0.29482 0.32145 0.0
C3300 C 0.00134 0.71748 0.61727 0.0
C3301 C 0.98494 0.71448 0.62501 0.0
C3302 C 0.00772 0.70134 0.60892 0.0
C3303 C 0.00385 0.64881 0.60692 0.0
H3304 H 0.02185 0.64935 0.55743 0.0
C3305 C 0.01345 0.57896 0.55578 0.0
C3306 C 0.02732 0.58138 0.54412 0.0
C3307 C 0.01002 0.59568 0.56764 0.0
C3308 C 0.0173 0.64914 0.57144 0.0
H3309 H 0.96207 0.69273 0.63014 0.0
H3310 H 0.97306 0.66387 0.61464 0.0
H3311 H 0.0119 0.67764 0.57427 0.0
H3312 H 0.04928 0.60197 0.53596 0.0
H3313 H 0.04367 0.63141 0.55708 0.0
H3314 H 0.00922 0.62013 0.60394 0.0
C3315 C 0.98105 0.67882 0.61544 0.0
C3316 C 0.01149 0.66529 0.58101 0.0
C3317 C 0.97462 0.69515 0.62388 0.0
C3318 C 0.03815 0.60023 0.54459 0.0
C3319 C 0.03498 0.6169 0.55668 0.0
C3320 C 0.00983 0.63263 0.59737 0.0
C3321 C 0.99769 0.68193 0.60803 0.0
C3322 C 0.00446 0.66508 0.59862 0.0
C3323 C 0.02074 0.61479 0.56812 0.0
C3324 C 0.01627 0.63256 0.57938 0.0
H3325 H 0.0095 0.73241 0.61822 0.0
H3326 H 0.02065 0.70405 0.60345 0.0
H3327 H 0.99875 0.64862 0.6207 0.0
H3328 H 0.00535 0.56422 0.55568 0.0
H3329 H 0.99881 0.59366 0.57609 0.0
C3330 C 0.65188 0.81132 0.85269 0.0
C3331 C 0.64094 0.82393 0.85005 0.0
C3332 C 0.66886 0.81459 0.84665 0.0
C3333 C 0.70251 0.8474 0.82564 0.0
H3334 H 0.70369 0.79652 0.79297 0.0
C3335 C 0.76668 0.83517 0.8017 0.0
C3336 C 0.76742 0.8158 0.79264 0.0
C3337 C 0.75057 0.84039 0.80227 0.0
C3338 C 0.70365 0.8111 0.80145 0.0
H3339 H 0.63996 0.85153 0.84203 0.0
H3340 H 0.66945 0.85686 0.8309 0.0
H3341 H 0.67954 0.79851 0.81217 0.0
H3342 H 0.75287 0.78904 0.77218 0.0
H3343 H 0.72436 0.7972 0.77394 0.0
H3344 H 0.72551 0.86059 0.81394 0.0
C3345 C 0.66493 0.84445 0.8375 0.0
C3346 C 0.68988 0.81202 0.813 0.0
C3347 C 0.64798 0.84124 0.84364 0.0
C3348 C 0.75229 0.80299 0.78128 0.0
C3349 C 0.73593 0.80799 0.78214 0.0
C3350 C 0.71604 0.84665 0.81362 0.0
C3351 C 0.67492 0.83038 0.83778 0.0
C3352 C 0.68965 0.82996 0.82577 0.0
C3353 C 0.73461 0.82607 0.79432 0.0
C3354 C 0.71748 0.82823 0.80215 0.0
H3355 H 0.64695 0.79823 0.85823 0.0
H3356 H 0.67667 0.8039 0.84748 0.0
H3357 H 0.7022 0.86157 0.83494 0.0
H3358 H 0.77837 0.84615 0.80936 0.0
H3359 H 0.75092 0.85503 0.81083 0.0
C3360 C 0.48361 0.58953 0.71571 0.0
C3361 C 0.46714 0.57776 0.71904 0.0
C3362 C 0.49004 0.58685 0.69748 0.0
C3363 C 0.48356 0.55095 0.64826 0.0
H3364 H 0.5142 0.59642 0.63459 0.0
C3365 C 0.50638 0.54535 0.57056 0.0
C3366 C 0.52327 0.55675 0.56785 0.0
C3367 C 0.49954 0.54799 0.58863 0.0
C3368 C 0.50588 0.58337 0.63807 0.0
H3369 H 0.44465 0.55361 0.70489 0.0
H3370 H 0.45565 0.54902 0.67303 0.0
H3371 H 0.50228 0.60055 0.66551 0.0
H3372 H 0.54562 0.58067 0.58279 0.0
H3373 H 0.53407 0.58498 0.61409 0.0
H3374 H 0.48713 0.53381 0.6207 0.0
C3375 C 0.46382 0.56036 0.68475 0.0
C3376 C 0.49893 0.58575 0.65611 0.0
C3377 C 0.45733 0.56308 0.70314 0.0
C3378 C 0.53277 0.57129 0.58402 0.0
C3379 C 0.52594 0.57391 0.60215 0.0
C3380 C 0.49049 0.54857 0.63019 0.0
C3381 C 0.48035 0.57224 0.68146 0.0
C3382 C 0.4876 0.5696 0.66173 0.0
C3383 C 0.5092 0.56219 0.60497 0.0
C3384 C 0.50182 0.56473 0.62461 0.0
H3385 H 0.49181 0.60097 0.72735 0.0
H3386 H 0.50294 0.59616 0.69617 0.0
H3387 H 0.47525 0.5379 0.65177 0.0
H3388 H 0.49837 0.53407 0.55868 0.0
H3389 H 0.48647 0.53886 0.58966 0.0
C3390 C 0.76324 0.17832 0.97269 0.0
C3391 C 0.77782 0.18561 0.98688 0.0
C3392 C 0.76162 0.18845 0.95851 0.0
C3393 C 0.79404 0.21906 0.93539 0.0
H3394 H 0.75276 0.2118 0.89958 0.0
C3395 C 0.78874 0.25525 0.87287 0.0
C3396 C 0.77508 0.24487 0.85823 0.0
C3397 C 0.79314 0.24585 0.88686 0.0
C3398 C 0.76443 0.21346 0.9093 0.0
H3399 H 0.79967 0.2111 1.0001 0.0
H3400 H 0.79625 0.22946 0.9757 0.0
H3401 H 0.74844 0.20559 0.93112 0.0
H3402 H 0.75757 0.21617 0.8443 0.0
H3403 H 0.76556 0.19948 0.86857 0.0
H3404 H 0.80993 0.22779 0.91363 0.0
C3405 C 0.78684 0.21526 0.97481 0.0
C3406 C 0.76194 0.21018 0.92746 0.0
C3407 C 0.78876 0.20484 0.98879 0.0
C3408 C 0.76807 0.22431 0.85568 0.0
C3409 C 0.77259 0.21485 0.86954 0.0
C3410 C 0.79651 0.22269 0.91731 0.0
C3411 C 0.77432 0.20623 0.95866 0.0
C3412 C 0.77672 0.21276 0.94064 0.0
C3413 C 0.78381 0.22612 0.88608 0.0
C3414 C 0.78173 0.21974 0.90411 0.0
H3415 H 0.7542 0.16376 0.97121 0.0
H3416 H 0.75162 0.18112 0.94645 0.0
H3417 H 0.80576 0.22064 0.94499 0.0
H3418 H 0.79424 0.27118 0.87493 0.0
H3419 H 0.80192 0.2548 0.89947 0.0
C3420 C 0.15464 0.53675 0.17824 0.0
C3421 C 0.151 0.52049 0.18685 0.0
C3422 C 0.14088 0.5414 0.16862 0.0
C3423 C 0.0996 0.5147 0.14094 0.0
H3424 H 0.09808 0.56731 0.13469 0.0
C3425 C 0.05539 0.52635 0.08088 0.0
C3426 C 0.06517 0.53832 0.06994 0.0
C3427 C 0.06299 0.52567 0.09851 0.0
C3428 C 0.0983 0.55259 0.13653 0.0
H3429 H 0.13017 0.49727 0.19358 0.0
H3430 H 0.10606 0.50539 0.17657 0.0
H3431 H 0.11631 0.5643 0.16212 0.0
H3432 H 0.09081 0.55819 0.06814 0.0
H3433 H 0.10395 0.55711 0.099 0.0
H3434 H 0.08231 0.50301 0.11494 0.0
C3435 C 0.11958 0.51428 0.17705 0.0
C3436 C 0.10861 0.55088 0.1521 0.0
C3437 C 0.13337 0.50949 0.18649 0.0
C3438 C 0.08275 0.5493 0.07656 0.0
C3439 C 0.09027 0.54877 0.09421 0.0
C3440 C 0.08924 0.51642 0.12551 0.0
C3441 C 0.12334 0.52987 0.16759 0.0
C3442 C 0.10971 0.53192 0.15403 0.0
C3443 C 0.08039 0.53701 0.10524 0.0
C3444 C 0.08894 0.53535 0.12301 0.0
H3445 H 0.16813 0.5457 0.17869 0.0
H3446 H 0.14411 0.55333 0.16117 0.0
H3447 H 0.1006 0.49993 0.14188 0.0
H3448 H 0.04214 0.51709 0.07559 0.0
H3449 H 0.0554 0.51622 0.10682 0.0
C3450 C 0.80174 0.86588 0.47074 0.0
C3451 C 0.79839 0.85257 0.48278 0.0
C3452 C 0.80069 0.85873 0.45087 0.0
C3453 C 0.78382 0.8163 0.40943 0.0
H3454 H 0.82693 0.84017 0.38905 0.0
C3455 C 0.79767 0.79377 0.32872 0.0
C3456 C 0.80324 0.8103 0.32064 0.0
C3457 C 0.79685 0.79657 0.34866 0.0
C3458 C 0.81478 0.83337 0.39447 0.0
H3459 H 0.79029 0.82143 0.4836 0.0
H3460 H 0.7877 0.80879 0.44847 0.0
H3461 H 0.82419 0.84983 0.42325 0.0
H3462 H 0.81217 0.8425 0.32685 0.0
H3463 H 0.81167 0.84735 0.36143 0.0
H3464 H 0.77432 0.80016 0.38032 0.0
C3465 C 0.79138 0.82476 0.4545 0.0
C3466 C 0.81319 0.83895 0.41407 0.0
C3467 C 0.79288 0.83195 0.47454 0.0
C3468 C 0.8083 0.82949 0.33279 0.0
C3469 C 0.80792 0.83225 0.35259 0.0
C3470 C 0.78539 0.81075 0.38964 0.0
C3471 C 0.79596 0.83809 0.44254 0.0
C3472 C 0.79759 0.83083 0.42176 0.0
C3473 C 0.80193 0.81591 0.36079 0.0
C3474 C 0.80079 0.81957 0.38192 0.0
H3475 H 0.80615 0.88184 0.47679 0.0
H3476 H 0.80411 0.86937 0.44202 0.0
H3477 H 0.77166 0.80976 0.41499 0.0
H3478 H 0.79315 0.77885 0.31959 0.0
H3479 H 0.79217 0.78369 0.35456 0.0
C3480 C 0.45896 0.5797 0.84603 0.0
C3481 C 0.4623 0.56982 0.82776 0.0
C3482 C 0.46721 0.57734 0.86318 0.0
C3483 C 0.49303 0.54437 0.88253 0.0
H3484 H 0.50075 0.58662 0.92875 0.0
C3485 C 0.52658 0.53777 0.95688 0.0
C3486 C 0.51946 0.54584 0.97373 0.0
C3487 C 0.52131 0.54087 0.93865 0.0
C3488 C 0.49858 0.57441 0.91614 0.0
H3489 H 0.47747 0.54968 0.8138 0.0
H3490 H 0.49167 0.54556 0.84321 0.0
H3491 H 0.48826 0.59141 0.89897 0.0
H3492 H 0.50167 0.56468 0.98376 0.0
H3493 H 0.49349 0.57059 0.95325 0.0
H3494 H 0.50345 0.52742 0.8999 0.0
C3495 C 0.48246 0.55503 0.84453 0.0
C3496 C 0.49126 0.5772 0.89877 0.0
C3497 C 0.47428 0.55749 0.82742 0.0
C3498 C 0.50761 0.55788 0.97152 0.0
C3499 C 0.50287 0.56148 0.95367 0.0
C3500 C 0.5004 0.54159 0.89996 0.0
C3501 C 0.47918 0.56489 0.86292 0.0
C3502 C 0.48797 0.56214 0.88153 0.0
C3503 C 0.50931 0.55289 0.93666 0.0
C3504 C 0.50303 0.55639 0.91731 0.0
H3505 H 0.44998 0.58945 0.84713 0.0
H3506 H 0.46388 0.58513 0.87671 0.0
H3507 H 0.4908 0.53215 0.86994 0.0
H3508 H 0.53614 0.529 0.95766 0.0
H3509 H 0.52692 0.53407 0.92615 0.0
C3510 C 0.77583 0.18954 0.06534 0.0
C3511 C 0.77019 0.16863 0.06171 0.0
C3512 C 0.77408 0.20137 0.08291 0.0
C3513 C 0.75315 0.20575 0.12695 0.0
H3514 H 0.79996 0.2386 0.14968 0.0
C3515 C 0.76776 0.24655 0.20659 0.0
C3516 C 0.78124 0.26446 0.21224 0.0
C3517 C 0.76434 0.23601 0.18751 0.0
C3518 C 0.78674 0.22989 0.14343 0.0
H3519 H 0.75664 0.14366 0.07276 0.0
H3520 H 0.7532 0.16475 0.104 0.0
H3521 H 0.79668 0.21691 0.11773 0.0
H3522 H 0.80012 0.28644 0.20174 0.0
H3523 H 0.79407 0.26814 0.16824 0.0
H3524 H 0.74311 0.21901 0.15249 0.0
C3525 C 0.7592 0.17178 0.09309 0.0
C3526 C 0.7849 0.21731 0.12523 0.0
C3527 C 0.76107 0.15976 0.07529 0.0
C3528 C 0.79025 0.27234 0.19806 0.0
C3529 C 0.7867 0.26184 0.17883 0.0
C3530 C 0.75494 0.21857 0.14513 0.0
C3531 C 0.76651 0.19258 0.09724 0.0
C3532 C 0.76811 0.20516 0.11684 0.0
C3533 C 0.77405 0.24325 0.17345 0.0
C3534 C 0.77178 0.23073 0.1536 0.0
H3535 H 0.78266 0.19675 0.05493 0.0
H3536 H 0.77947 0.21739 0.08566 0.0
H3537 H 0.74008 0.19661 0.12064 0.0
H3538 H 0.76025 0.24006 0.21699 0.0
H3539 H 0.75461 0.22171 0.184 0.0
C3540 C 0.16652 0.52273 0.29498 0.0
C3541 C 0.15866 0.52594 0.27834 0.0
C3542 C 0.15998 0.52811 0.31252 0.0
C3543 C 0.13211 0.55919 0.33743 0.0
H3544 H 0.12784 0.52251 0.37094 0.0
C3545 C 0.09667 0.57295 0.40479 0.0
C3546 C 0.08387 0.55605 0.40657 0.0
C3547 C 0.10998 0.57084 0.39269 0.0
C3548 C 0.12899 0.53293 0.36177 0.0
H3549 H 0.13779 0.53719 0.26677 0.0
H3550 H 0.12584 0.54597 0.29748 0.0
H3551 H 0.14139 0.51531 0.34125 0.0
H3552 H 0.07521 0.52379 0.39849 0.0
H3553 H 0.09775 0.52001 0.37649 0.0
H3554 H 0.11844 0.57598 0.35718 0.0
C3555 C 0.13732 0.53967 0.29701 0.0
C3556 C 0.1369 0.52892 0.34484 0.0
C3557 C 0.14393 0.53434 0.27941 0.0
C3558 C 0.08494 0.53698 0.39701 0.0
C3559 C 0.09801 0.53486 0.38468 0.0
C3560 C 0.12395 0.56306 0.35423 0.0
C3561 C 0.14535 0.53665 0.31374 0.0
C3562 C 0.13819 0.54179 0.33233 0.0
C3563 C 0.11036 0.55181 0.38198 0.0
C3564 C 0.1219 0.54968 0.3663 0.0
H3565 H 0.17794 0.51633 0.2945 0.0
H3566 H 0.16658 0.52583 0.32519 0.0
H3567 H 0.13326 0.56958 0.32823 0.0
H3568 H 0.09622 0.58774 0.41257 0.0
H3569 H 0.11958 0.58411 0.39122 0.0
C3570 C 0.78047 0.85711 0.59182 0.0
C3571 C 0.79067 0.84803 0.5786 0.0
C3572 C 0.77826 0.8518 0.60938 0.0
C3573 C 0.80181 0.83041 0.64222 0.0
H3574 H 0.76166 0.83384 0.67197 0.0
C3575 C 0.79829 0.80761 0.7137 0.0
C3576 C 0.79226 0.8195 0.72899 0.0
C3577 C 0.79678 0.81073 0.6953 0.0
C3578 C 0.77303 0.83305 0.66388 0.0
H3579 H 0.80498 0.82488 0.5726 0.0
H3580 H 0.80038 0.8149 0.60276 0.0
H3581 H 0.75993 0.83776 0.63895 0.0
H3582 H 0.78023 0.84427 0.73746 0.0
H3583 H 0.77767 0.8501 0.70487 0.0
H3584 H 0.81492 0.82573 0.66701 0.0
C3585 C 0.79474 0.82674 0.59997 0.0
C3586 C 0.77204 0.83524 0.64494 0.0
C3587 C 0.79719 0.83228 0.58256 0.0
C3588 C 0.78488 0.8349 0.72575 0.0
C3589 C 0.78331 0.83807 0.70716 0.0
C3590 C 0.80276 0.82816 0.66102 0.0
C3591 C 0.78599 0.83709 0.61399 0.0
C3592 C 0.78642 0.83387 0.63384 0.0
C3593 C 0.78935 0.82603 0.69177 0.0
C3594 C 0.78837 0.82936 0.67206 0.0
H3595 H 0.77537 0.86942 0.58929 0.0
H3596 H 0.7715 0.86017 0.61979 0.0
H3597 H 0.81338 0.82989 0.63441 0.0
H3598 H 0.80439 0.79591 0.71601 0.0
H3599 H 0.80137 0.80103 0.6838 0.0
C3600 C 0.7563 0.45364 0.51114 0.0
C3601 C 0.77001 0.4645 0.52565 0.0
C3602 C 0.74209 0.46165 0.50742 0.0
C3603 C 0.71929 0.49486 0.53543 0.0
H3604 H 0.69313 0.49375 0.48756 0.0
C3605 C 0.67332 0.54359 0.5346 0.0
C3606 C 0.65549 0.53286 0.53311 0.0
C3607 C 0.68617 0.5338 0.52795 0.0
C3608 C 0.70032 0.49384 0.50091 0.0
H3609 H 0.78106 0.49302 0.54587 0.0
H3610 H 0.75641 0.50705 0.5392 0.0
H3611 H 0.71966 0.48009 0.48685 0.0
H3612 H 0.63672 0.50393 0.52237 0.0
H3613 H 0.65956 0.4867 0.51094 0.0
H3614 H 0.70042 0.50894 0.54952 0.0
C3615 C 0.75629 0.49215 0.53119 0.0
C3616 C 0.71537 0.48617 0.50053 0.0
C3617 C 0.77032 0.48411 0.53505 0.0
C3618 C 0.65044 0.51251 0.52356 0.0
C3619 C 0.66337 0.50269 0.51694 0.0
C3620 C 0.70445 0.50251 0.53578 0.0
C3621 C 0.74167 0.48057 0.51812 0.0
C3622 C 0.72521 0.48726 0.51784 0.0
C3623 C 0.68131 0.51322 0.5198 0.0
C3624 C 0.69524 0.50253 0.51858 0.0
H3625 H 0.75604 0.43861 0.50341 0.0
H3626 H 0.73096 0.45257 0.49718 0.0
H3627 H 0.72631 0.49518 0.54896 0.0
H3628 H 0.67742 0.55932 0.54165 0.0
H3629 H 0.70008 0.542 0.53035 0.0
C3630 C 0.22591 0.15878 0.4975 0.0
C3631 C 0.23862 0.14743 0.49456 0.0
C3632 C 0.20791 0.14948 0.49822 0.0
C3633 C 0.17559 0.0992 0.4852 0.0
H3634 H 0.14699 0.12481 0.52045 0.0
C3635 C 0.10631 0.05657 0.50055 0.0
C3636 C 0.09303 0.06705 0.50394 0.0
C3637 C 0.1238 0.06657 0.49869 0.0
C3638 C 0.15469 0.11751 0.51031 0.0
H3639 H 0.24243 0.1175 0.49055 0.0
H3640 H 0.21151 0.10153 0.49242 0.0
H3641 H 0.17775 0.14217 0.51874 0.0
H3642 H 0.08769 0.09629 0.50746 0.0
H3643 H 0.1179 0.11354 0.50375 0.0
H3644 H 0.15262 0.07452 0.47684 0.0
C3645 C 0.21514 0.11748 0.49356 0.0
C3646 C 0.17239 0.12752 0.50933 0.0
C3647 C 0.23298 0.12669 0.4926 0.0
C3648 C 0.09758 0.0877 0.50494 0.0
C3649 C 0.11499 0.09767 0.50298 0.0
C3650 C 0.15794 0.0892 0.4862 0.0
C3651 C 0.20227 0.12865 0.49621 0.0
C3652 C 0.18315 0.11844 0.49685 0.0
C3653 C 0.12844 0.08731 0.50008 0.0
C3654 C 0.14723 0.09816 0.49882 0.0
H3655 H 0.22981 0.17479 0.49899 0.0
H3656 H 0.1984 0.15859 0.50008 0.0
H3657 H 0.18326 0.09185 0.47507 0.0
H3658 H 0.10347 0.04083 0.50011 0.0
H3659 H 0.1338 0.05809 0.49676 0.0
C3660 C 0.20713 0.95223 0.75131 0.0
C3661 C 0.19648 0.95714 0.76626 0.0
C3662 C 0.21606 0.93646 0.75043 0.0
C3663 C 0.21952 0.89277 0.77445 0.0
H3664 H 0.26151 0.89244 0.74747 0.0
C3665 C 0.26286 0.83526 0.78211 0.0
C3666 C 0.27318 0.82885 0.76738 0.0
C3667 C 0.25411 0.85083 0.78176 0.0
C3668 C 0.24973 0.89192 0.75505 0.0
H3669 H 0.18711 0.94826 0.79173 0.0
H3670 H 0.20203 0.9217 0.79032 0.0
H3671 H 0.24532 0.91788 0.74642 0.0
H3672 H 0.28127 0.83397 0.74014 0.0
H3673 H 0.26674 0.86106 0.73965 0.0
H3674 H 0.22386 0.86688 0.78308 0.0
C3675 C 0.20366 0.92952 0.77892 0.0
C3676 C 0.24022 0.90685 0.75442 0.0
C3677 C 0.19495 0.94519 0.77984 0.0
C3678 C 0.27421 0.83881 0.75224 0.0
C3679 C 0.26559 0.85449 0.75193 0.0
C3680 C 0.22905 0.87795 0.77516 0.0
C3681 C 0.21473 0.92467 0.76436 0.0
C3682 C 0.22484 0.90792 0.76424 0.0
C3683 C 0.25495 0.8608 0.7665 0.0
C3684 C 0.24456 0.87706 0.7656 0.0
H3685 H 0.20907 0.96097 0.7406 0.0
H3686 H 0.22409 0.93363 0.7387 0.0
H3687 H 0.20767 0.89195 0.7819 0.0
H3688 H 0.26101 0.82769 0.79372 0.0
H3689 H 0.24649 0.85486 0.79358 0.0
C3690 C 0.36447 0.97859 0.00111 0.0
C3691 C 0.36036 0.98755 0.01922 0.0
C3692 C 0.38166 0.97634 0.99882 0.0
C3693 C 0.42167 0.97752 0.02892 0.0
H3694 H 0.44771 1.00178 0.99193 0.0
C3695 C 0.49739 0.99988 0.0328 0.0
C3696 C 0.50483 0.01199 0.02068 0.0
C3697 C 0.47941 0.99658 0.03506 0.0
C3698 C 0.44064 0.99556 0.00274 0.0
H3699 H 0.3708 0.00355 0.0483 0.0
H3700 H 0.40109 1.00121 0.04402 0.0
H3701 H 0.41557 0.99092 0.98668 0.0
H3702 H 0.50046 0.0347 0.00643 0.0
H3703 H 0.46898 0.02832 0.00935 0.0
H3704 H 0.44606 0.98468 0.04651 0.0
C3705 C 0.39095 0.99469 0.03192 0.0
C3706 C 0.4223 0.98852 0.99922 0.0
C3707 C 0.37389 0.99689 0.03415 0.0
C3708 C 0.49477 0.02356 0.01387 0.0
C3709 C 0.47671 0.02011 0.01589 0.0
C3710 C 0.43989 0.98545 0.03297 0.0
C3711 C 0.39466 0.98343 0.01461 0.0
C3712 C 0.41271 0.98108 0.01314 0.0
C3713 C 0.46862 0.00495 0.02475 0.0
C3714 C 0.44943 0.99558 0.02039 0.0
H3715 H 0.35397 0.97096 0.98959 0.0
H3716 H 0.38452 0.96817 0.9852 0.0
H3717 H 0.41431 0.97117 0.03952 0.0
H3718 H 0.5051 0.99188 0.03964 0.0
H3719 H 0.47397 0.9856 0.04296 0.0
C3720 C 0.8676 0.58252 0.81415 0.0
C3721 C 0.88345 0.5894 0.82643 0.0
C3722 C 0.86149 0.59558 0.80524 0.0
C3723 C 0.86722 0.64894 0.80682 0.0
H3724 H 0.84357 0.62711 0.75511 0.0
C3725 C 0.8381 0.6945 0.76191 0.0
C3726 C 0.82067 0.68505 0.75341 0.0
C3727 C 0.84787 0.68408 0.77061 0.0
C3728 C 0.85022 0.63333 0.76953 0.0
H3729 H 0.90521 0.61479 0.83964 0.0
H3730 H 0.89468 0.63777 0.82408 0.0
H3731 H 0.85727 0.60631 0.77087 0.0
H3732 H 0.79918 0.65821 0.74817 0.0
H3733 H 0.81619 0.63994 0.76388 0.0
H3734 H 0.86016 0.67597 0.80533 0.0
C3735 C 0.88666 0.62256 0.82159 0.0
C3736 C 0.85793 0.62146 0.77858 0.0
C3737 C 0.89254 0.60956 0.83076 0.0
C3738 C 0.81274 0.66549 0.75442 0.0
C3739 C 0.82245 0.65512 0.76324 0.0
C3740 C 0.85974 0.66088 0.79764 0.0
C3741 C 0.87139 0.61553 0.80829 0.0
C3742 C 0.86575 0.6289 0.79764 0.0
C3743 C 0.84019 0.66421 0.77093 0.0
C3744 C 0.85055 0.65283 0.77931 0.0
H3745 H 0.86083 0.56677 0.81021 0.0
H3746 H 0.84937 0.58986 0.79547 0.0
H3747 H 0.87316 0.6551 0.82149 0.0
H3748 H 0.84433 0.70967 0.76119 0.0
H3749 H 0.86153 0.69131 0.77657 0.0
C3750 C 0.85331 0.6764 0.01512 0.0
C3751 C 0.83639 0.66359 0.00837 0.0
C3752 C 0.86824 0.66862 0.01644 0.0
C3753 C 0.88499 0.62404 0.99759 0.0
H3754 H 0.91649 0.64207 0.04493 0.0
C3755 C 0.93193 0.57837 0.019 0.0
C3756 C 0.94735 0.58817 0.03155 0.0
C3757 C 0.92041 0.58918 0.01354 0.0
C3758 C 0.90817 0.63712 0.03139 0.0
H3759 H 0.8218 0.63276 0.99722 0.0
H3760 H 0.84785 0.61918 0.99927 0.0
H3761 H 0.8925 0.65796 0.04068 0.0
H3762 H 0.96352 0.61683 0.04753 0.0
H3763 H 0.94383 0.63598 0.03749 0.0
H3764 H 0.90061 0.60319 0.98823 0.0
C3765 C 0.84962 0.63519 0.00368 0.0
C3766 C 0.8943 0.64622 0.02902 0.0
C3767 C 0.83467 0.64293 0.00275 0.0
C3768 C 0.95165 0.60903 0.03779 0.0
C3769 C 0.94023 0.61991 0.0322 0.0
C3770 C 0.899 0.61508 0.99985 0.0
C3771 C 0.86658 0.64792 0.01061 0.0
C3772 C 0.88231 0.63949 0.01228 0.0
C3773 C 0.92413 0.61007 0.02051 0.0
C3774 C 0.91056 0.62118 0.01698 0.0
H3775 H 0.855 0.69239 0.01946 0.0
H3776 H 0.88114 0.67882 0.02176 0.0
H3777 H 0.87616 0.61876 0.98436 0.0
H3778 H 0.92835 0.56223 0.01418 0.0
H3779 H 0.9081 0.58095 0.00474 0.0
C3780 C 0.19378 0.07477 0.76462 0.0
C3781 C 0.19926 0.06543 0.77855 0.0
C3782 C 0.20252 0.09471 0.76417 0.0
C3783 C 0.23867 0.14107 0.79324 0.0
H3784 H 0.23148 0.16187 0.74873 0.0
C3785 C 0.28198 0.21953 0.78615 0.0
C3786 C 0.27389 0.23151 0.77704 0.0
C3787 C 0.27292 0.19965 0.78633 0.0
C3788 C 0.23366 0.1565 0.76143 0.0
H3789 H 0.21891 0.07057 0.80277 0.0
H3790 H 0.23427 0.10398 0.8016 0.0
H3791 H 0.21625 0.12774 0.74865 0.0
H3792 H 0.2491 0.23115 0.7614 0.0
H3793 H 0.2338 0.19695 0.76124 0.0
H3794 H 0.25645 0.16986 0.80573 0.0
C3795 C 0.22286 0.09661 0.79119 0.0
C3796 C 0.22472 0.13655 0.76146 0.0
C3797 C 0.21402 0.07688 0.79177 0.0
C3798 C 0.25622 0.22269 0.76832 0.0
C3799 C 0.2473 0.20276 0.76818 0.0
C3800 C 0.24782 0.16086 0.79306 0.0
C3801 C 0.21733 0.10633 0.77753 0.0
C3802 C 0.22694 0.12814 0.77738 0.0
C3803 C 0.25539 0.19068 0.77718 0.0
C3804 C 0.24557 0.16913 0.77719 0.0
H3805 H 0.18247 0.06679 0.75417 0.0
H3806 H 0.19725 0.10096 0.75338 0.0
H3807 H 0.2408 0.13626 0.80624 0.0
H3808 H 0.29535 0.22553 0.79334 0.0
H3809 H 0.27988 0.19118 0.79344 0.0
C3810 C 0.39282 0.98444 0.29174 0.0
C3811 C 0.38507 0.99737 0.30436 0.0
C3812 C 0.38252 0.96555 0.28228 0.0
C3813 C 0.34397 0.93025 0.29159 0.0
H3814 H 0.34874 0.89788 0.24196 0.0
C3815 C 0.31146 0.84849 0.27416 0.0
C3816 C 0.32448 0.8377 0.27115 0.0
C3817 C 0.31503 0.86798 0.27201 0.0
C3818 C 0.34712 0.90695 0.25571 0.0
H3819 H 0.36057 0.00222 0.31552 0.0
H3820 H 0.34244 0.96968 0.29845 0.0
H3821 H 0.36338 0.93376 0.25029 0.0
H3822 H 0.35048 0.83762 0.26105 0.0
H3823 H 0.35671 0.87165 0.25721 0.0
H3824 H 0.32854 0.9037 0.29756 0.0
C3825 C 0.35651 0.97356 0.29651 0.0
C3826 C 0.35555 0.92729 0.2605 0.0
C3827 C 0.36685 0.99204 0.30637 0.0
C3828 C 0.34046 0.84593 0.26419 0.0
C3829 C 0.34387 0.86522 0.26156 0.0
C3830 C 0.33552 0.91017 0.2868 0.0
C3831 C 0.36438 0.95985 0.28507 0.0
C3832 C 0.35422 0.93896 0.27863 0.0
C3833 C 0.3315 0.87663 0.26626 0.0
C3834 C 0.33732 0.89829 0.26903 0.0
H3835 H 0.40686 0.98867 0.28979 0.0
H3836 H 0.38889 0.95516 0.27358 0.0
H3837 H 0.34315 0.93874 0.3059 0.0
H3838 H 0.29862 0.84199 0.27832 0.0
H3839 H 0.30523 0.87654 0.2755 0.0
C3840 C 0.58956 0.37658 0.5827 0.0
C3841 C 0.57976 0.35705 0.57391 0.0
C3842 C 0.58842 0.39257 0.57443 0.0
C3843 C 0.55718 0.4056 0.5408 0.0
H3844 H 0.59437 0.45459 0.54913 0.0
C3845 C 0.54599 0.47687 0.5176 0.0
C3846 C 0.55327 0.49498 0.53119 0.0
C3847 C 0.55007 0.459 0.51988 0.0
C3848 C 0.58371 0.44109 0.54679 0.0
H3849 H 0.56237 0.3388 0.54872 0.0
H3850 H 0.56107 0.36632 0.53393 0.0
H3851 H 0.6007 0.42585 0.55863 0.0
H3852 H 0.57132 0.50817 0.55745 0.0
H3853 H 0.57876 0.47817 0.56072 0.0
H3854 H 0.54008 0.42109 0.52934 0.0
C3855 C 0.5691 0.36956 0.54754 0.0
C3856 C 0.58739 0.42452 0.55229 0.0
C3857 C 0.57011 0.35368 0.55587 0.0
C3858 C 0.56528 0.49477 0.5465 0.0
C3859 C 0.56975 0.47733 0.5484 0.0
C3860 C 0.55347 0.42224 0.53534 0.0
C3861 C 0.57758 0.38938 0.55709 0.0
C3862 C 0.57411 0.40659 0.54971 0.0
C3863 C 0.56214 0.45906 0.53533 0.0
C3864 C 0.56657 0.44041 0.53866 0.0
H3865 H 0.59683 0.37976 0.59675 0.0
H3866 H 0.59513 0.40755 0.58235 0.0
H3867 H 0.54645 0.39222 0.53875 0.0
H3868 H 0.53716 0.47642 0.50533 0.0
H3869 H 0.54401 0.44523 0.50937 0.0
C3870 C 0.46335 0.75988 0.37242 0.0
C3871 C 0.46642 0.76627 0.39252 0.0
C3872 C 0.44761 0.76074 0.3626 0.0
C3873 C 0.4113 0.7868 0.36642 0.0
H3874 H 0.38702 0.74261 0.32447 0.0
C3875 C 0.34449 0.78761 0.32647 0.0
C3876 C 0.34009 0.77744 0.30702 0.0
C3877 C 0.3594 0.78583 0.33722 0.0
C3878 C 0.39369 0.75535 0.33585 0.0
H3879 H 0.45541 0.77871 0.41815 0.0
H3880 H 0.42798 0.78092 0.40091 0.0
H3881 H 0.41358 0.74056 0.34239 0.0
H3882 H 0.34771 0.75634 0.2843 0.0
H3883 H 0.3742 0.75445 0.30218 0.0
H3884 H 0.39193 0.80198 0.35957 0.0
C3885 C 0.43774 0.77501 0.39274 0.0
C3886 C 0.40898 0.75406 0.34628 0.0
C3887 C 0.45337 0.77365 0.40265 0.0
C3888 C 0.35088 0.76503 0.29888 0.0
C3889 C 0.36603 0.7636 0.30947 0.0
C3890 C 0.39616 0.78825 0.35578 0.0
C3891 C 0.43461 0.76846 0.37255 0.0
C3892 C 0.41801 0.76974 0.36175 0.0
C3893 C 0.37066 0.77402 0.32887 0.0
C3894 C 0.387 0.77253 0.34029 0.0
H3895 H 0.47313 0.754 0.36424 0.0
H3896 H 0.44582 0.75572 0.3471 0.0
H3897 H 0.41803 0.79932 0.37802 0.0
H3898 H 0.33651 0.79718 0.33349 0.0
H3899 H 0.36194 0.7937 0.35218 0.0
C3900 C 0.07172 0.75573 0.06297 0.0
C3901 C 0.06669 0.76165 0.08146 0.0
C3902 C 0.07129 0.7356 0.05525 0.0
C3903 C 0.0491 0.68527 0.06095 0.0
H3904 H 0.08648 0.66752 0.03332 0.0
C3905 C 0.05323 0.60481 0.04937 0.0
C3906 C 0.05338 0.59461 0.03035 0.0
C3907 C 0.0569 0.62558 0.05431 0.0
C3908 C 0.07591 0.67234 0.04087 0.0
H3909 H 0.05738 0.75167 0.10644 0.0
H3910 H 0.0566 0.71672 0.09317 0.0
H3911 H 0.08856 0.70345 0.04423 0.0
H3912 H 0.05722 0.5979 0.00143 0.0
H3913 H 0.06461 0.63462 0.01028 0.0
H3914 H 0.03662 0.65436 0.05802 0.0
C3915 C 0.0608 0.72736 0.08447 0.0
C3916 C 0.07705 0.69285 0.04707 0.0
C3917 C 0.0614 0.74738 0.09218 0.0
C3918 C 0.05781 0.60554 0.01636 0.0
C3919 C 0.06185 0.62647 0.02138 0.0
C3920 C 0.04804 0.66493 0.05492 0.0
C3921 C 0.0655 0.72114 0.06582 0.0
C3922 C 0.06383 0.69952 0.05757 0.0
C3923 C 0.06071 0.63659 0.04028 0.0
C3924 C 0.0616 0.65825 0.04521 0.0
H3925 H 0.07573 0.76658 0.05444 0.0
H3926 H 0.07493 0.73128 0.04083 0.0
H3927 H 0.03841 0.68984 0.06847 0.0
H3928 H 0.04916 0.59661 0.06021 0.0
H3929 H 0.05599 0.63302 0.06899 0.0
C3930 C 0.06674 0.24908 0.87307 0.0
C3931 C 0.06305 0.26157 0.88968 0.0
C3932 C 0.08372 0.25256 0.8667 0.0
C3933 C 0.12688 0.29173 0.87215 0.0
H3934 H 0.14206 0.24707 0.84221 0.0
C3935 C 0.19427 0.30347 0.83855 0.0
C3936 C 0.19371 0.29255 0.81958 0.0
C3937 C 0.18003 0.29873 0.84953 0.0
C3938 C 0.13804 0.25978 0.85041 0.0
H3939 H 0.07461 0.28755 0.91278 0.0
H3940 H 0.10446 0.29336 0.90201 0.0
H3941 H 0.11441 0.24101 0.85695 0.0
H3942 H 0.17806 0.26813 0.79723 0.0
H3943 H 0.15319 0.25988 0.81611 0.0
H3944 H 0.15069 0.31045 0.8656 0.0
C3945 C 0.09409 0.28103 0.89359 0.0
C3946 C 0.12201 0.25632 0.85886 0.0
C3947 C 0.07695 0.2776 0.89991 0.0
C3948 C 0.17896 0.27647 0.81197 0.0
C3949 C 0.1647 0.27179 0.82286 0.0
C3950 C 0.14304 0.29518 0.86381 0.0
C3951 C 0.09776 0.26855 0.87681 0.0
C3952 C 0.11586 0.27226 0.86946 0.0
C3953 C 0.16481 0.2831 0.84168 0.0
C3954 C 0.14865 0.27929 0.85242 0.0
H3955 H 0.0564 0.23662 0.86474 0.0
H3956 H 0.08561 0.24285 0.85347 0.0
H3957 H 0.12274 0.30452 0.88 0.0
H3958 H 0.20541 0.31614 0.84462 0.0
H3959 H 0.18078 0.30762 0.86402 0.0
C3960 C 0.58056 0.77999 0.93464 0.0
C3961 C 0.58633 0.7752 0.91637 0.0
C3962 C 0.57987 0.76698 0.94667 0.0
C3963 C 0.58978 0.71982 0.95277 0.0
H3964 H 0.54334 0.71293 0.97214 0.0
C3965 C 0.55278 0.65377 0.98472 0.0
C3966 C 0.54684 0.66034 0.00272 0.0
C3967 C 0.56025 0.6675 0.97419 0.0
C3968 C 0.55636 0.71475 0.96684 0.0
H3969 H 0.59814 0.75469 0.89725 0.0
H3970 H 0.59639 0.73152 0.91809 0.0
H3971 H 0.55306 0.73884 0.95501 0.0
H3972 H 0.54508 0.68647 0.02416 0.0
H3973 H 0.55744 0.71023 0.00547 0.0
H3974 H 0.59261 0.69509 0.9644 0.0
C3975 C 0.59247 0.7453 0.92318 0.0
C3976 C 0.56203 0.7297 0.95723 0.0
C3977 C 0.59345 0.75854 0.91123 0.0
C3978 C 0.54906 0.68087 0.01017 0.0
C3979 C 0.55626 0.69448 0.99957 0.0
C3980 C 0.58397 0.70462 0.9623 0.0
C3981 C 0.58462 0.74884 0.94044 0.0
C3982 C 0.57897 0.73272 0.95051 0.0
C3983 C 0.56163 0.68788 0.98142 0.0
C3984 C 0.56738 0.70236 0.96974 0.0
H3985 H 0.57543 0.79307 0.9391 0.0
H3986 H 0.57443 0.77045 0.96028 0.0
H3987 H 0.60282 0.72172 0.94755 0.0
H3988 H 0.55109 0.63802 0.97844 0.0
H3989 H 0.56424 0.66217 0.96012 0.0
C3990 C 0.05718 0.76598 0.71197 0.0
C3991 C 0.0501 0.76376 0.69306 0.0
C3992 C 0.07356 0.76194 0.7155 0.0
C3993 C 0.10923 0.74114 0.69228 0.0
H3994 H 0.13877 0.78154 0.7342 0.0
C3995 C 0.174 0.73541 0.72846 0.0
C3996 C 0.18561 0.75303 0.73923 0.0
C3997 C 0.15945 0.73637 0.71695 0.0
C3998 C 0.1309 0.77045 0.7221 0.0
H3999 H 0.05361 0.7538 0.66296 0.0
H4000 H 0.08259 0.74754 0.66913 0.0
H4001 H 0.10806 0.7817 0.72765 0.0
H4002 H 0.19313 0.78527 0.74468 0.0
H4003 H 0.16782 0.78708 0.72414 0.0
H4004 H 0.13248 0.73039 0.68641 0.0
C4005 C 0.07551 0.75225 0.68125 0.0
C4006 C 0.11308 0.77018 0.7187 0.0
C4007 C 0.05904 0.75614 0.67771 0.0
C4008 C 0.1841 0.77155 0.73649 0.0
C4009 C 0.16957 0.77253 0.72491 0.0
C4010 C 0.12723 0.74162 0.6955 0.0
C4011 C 0.08323 0.75585 0.70018 0.0
C4012 C 0.10198 0.7554 0.70394 0.0
C4013 C 0.15639 0.75501 0.71629 0.0
C4014 C 0.1382 0.75617 0.71058 0.0
H4015 H 0.05033 0.77137 0.72407 0.0
H4016 H 0.07892 0.76421 0.73027 0.0
H4017 H 0.10099 0.72951 0.68083 0.0
H4018 H 0.17521 0.72102 0.7304 0.0
H4019 H 0.14964 0.72258 0.71043 0.0
C4020 C 0.10402 0.36123 0.42339 0.0
C4021 C 0.10032 0.35835 0.40364 0.0
C4022 C 0.10762 0.38036 0.43498 0.0
C4023 C 0.08898 0.42145 0.42793 0.0
H4024 H 0.09581 0.4347 0.48345 0.0
C4025 C 0.05415 0.47605 0.47156 0.0
C4026 C 0.06468 0.48956 0.48754 0.0
C4027 C 0.05959 0.45933 0.46249 0.0
C4028 C 0.09396 0.43139 0.46792 0.0
H4029 H 0.10177 0.37236 0.37963 0.0
H4030 H 0.109 0.40623 0.39989 0.0
H4031 H 0.11203 0.41289 0.4657 0.0
H4032 H 0.08918 0.49669 0.50642 0.0
H4033 H 0.09914 0.46837 0.49014 0.0
H4034 H 0.07234 0.44164 0.43022 0.0
C4035 C 0.10792 0.39383 0.40669 0.0
C4036 C 0.10315 0.41865 0.45768 0.0
C4037 C 0.10398 0.37456 0.39506 0.0
C4038 C 0.08068 0.48628 0.49429 0.0
C4039 C 0.08627 0.46986 0.48507 0.0
C4040 C 0.08051 0.43499 0.43816 0.0
C4041 C 0.10722 0.39653 0.42667 0.0
C4042 C 0.10062 0.41325 0.43752 0.0
C4043 C 0.07586 0.45626 0.46902 0.0
C4044 C 0.083 0.44016 0.45826 0.0
H4045 H 0.10187 0.34862 0.43001 0.0
H4046 H 0.10781 0.38164 0.45028 0.0
H4047 H 0.08593 0.41718 0.41249 0.0
H4048 H 0.04171 0.47826 0.46611 0.0
H4049 H 0.05115 0.44897 0.45031 0.0
C4050 C 0.45061 0.24171 0.20596 0.0
C4051 C 0.45163 0.24866 0.18906 0.0
C4052 C 0.43539 0.24126 0.21553 0.0
C4053 C 0.41361 0.27934 0.22136 0.0
H4054 H 0.3869 0.25617 0.25863 0.0
C4055 C 0.3529 0.29693 0.24919 0.0
C4056 C 0.34871 0.29487 0.26745 0.0
C4057 C 0.36968 0.29626 0.24385 0.0
C4058 C 0.39486 0.263 0.2487 0.0
H4059 H 0.43615 0.2548 0.16608 0.0
H4060 H 0.40963 0.25377 0.18272 0.0
H4061 H 0.40218 0.23592 0.23633 0.0
H4062 H 0.35829 0.29103 0.29483 0.0
H4063 H 0.38776 0.28851 0.28499 0.0
H4064 H 0.40609 0.30623 0.23335 0.0
C4065 C 0.42073 0.24952 0.18897 0.0
C4066 C 0.40313 0.25127 0.2357 0.0
C4067 C 0.43601 0.25029 0.17952 0.0
C4068 C 0.36164 0.29313 0.2808 0.0
C4069 C 0.37839 0.2918 0.27525 0.0
C4070 C 0.4055 0.29106 0.23439 0.0
C4071 C 0.42135 0.24763 0.20802 0.0
C4072 C 0.41193 0.25918 0.2215 0.0
C4073 C 0.38203 0.29219 0.25635 0.0
C4074 C 0.3955 0.28274 0.24765 0.0
H4075 H 0.46231 0.23951 0.2132 0.0
H4076 H 0.43588 0.23919 0.23006 0.0
H4077 H 0.42111 0.28603 0.21104 0.0
H4078 H 0.3427 0.29717 0.23844 0.0
H4079 H 0.37203 0.29621 0.22907 0.0
C4080 C 0.63976 0.5033 0.33153 0.0
C4081 C 0.63445 0.51183 0.31686 0.0
C4082 C 0.63125 0.504 0.3487 0.0
C4083 C 0.59992 0.52999 0.37845 0.0
H4084 H 0.59801 0.48842 0.40604 0.0
C4085 C 0.5596 0.52805 0.44616 0.0
C4086 C 0.56622 0.52145 0.46157 0.0
C4087 C 0.56738 0.52632 0.42855 0.0
C4088 C 0.59849 0.50037 0.39876 0.0
H4089 H 0.61549 0.52774 0.30936 0.0
H4090 H 0.60088 0.52909 0.33889 0.0
H4091 H 0.61218 0.48665 0.37626 0.0
H4092 H 0.58636 0.50754 0.47003 0.0
H4093 H 0.59953 0.50387 0.43935 0.0
H4094 H 0.58618 0.54366 0.40091 0.0
C4095 C 0.61183 0.52198 0.33741 0.0
C4096 C 0.60677 0.49937 0.38143 0.0
C4097 C 0.62027 0.52116 0.3202 0.0
C4098 C 0.58075 0.5127 0.45856 0.0
C4099 C 0.5883 0.51054 0.44076 0.0
C4100 C 0.59159 0.53095 0.39572 0.0
C4101 C 0.61704 0.51337 0.35215 0.0
C4102 C 0.60781 0.51422 0.37082 0.0
C4103 C 0.58198 0.51758 0.42537 0.0
C4104 C 0.59071 0.51622 0.40642 0.0
H4105 H 0.65044 0.49578 0.32966 0.0
H4106 H 0.63608 0.49731 0.35941 0.0
H4107 H 0.60047 0.54206 0.37133 0.0
H4108 H 0.54858 0.53507 0.44788 0.0
H4109 H 0.56175 0.53179 0.41733 0.0
C4110 C 0.33234 0.91563 0.07664 0.0
C4111 C 0.32538 0.90544 0.0579 0.0
C4112 C 0.32947 0.90613 0.09143 0.0
C4113 C 0.31626 0.85665 0.10156 0.0
H4114 H 0.31241 0.88876 0.15184 0.0
C4115 C 0.31034 0.82158 0.16398 0.0
C4116 C 0.32603 0.83006 0.17638 0.0
C4117 C 0.30501 0.83227 0.15174 0.0
C4118 C 0.31322 0.87967 0.1378 0.0
H4119 H 0.31002 0.87774 0.03924 0.0
H4120 H 0.30439 0.86073 0.06559 0.0
H4121 H 0.31353 0.90349 0.12415 0.0
H4122 H 0.34714 0.85666 0.18818 0.0
H4123 H 0.33784 0.87558 0.16655 0.0
H4124 H 0.31579 0.83282 0.11535 0.0
C4125 C 0.31238 0.87599 0.06878 0.0
C4126 C 0.31411 0.88806 0.12202 0.0
C4127 C 0.31544 0.8856 0.0538 0.0
C4128 C 0.33518 0.84998 0.17829 0.0
C4129 C 0.32975 0.86076 0.16617 0.0
C4130 C 0.31492 0.84815 0.11725 0.0
C4131 C 0.31923 0.88635 0.08776 0.0
C4132 C 0.31611 0.87675 0.10387 0.0
C4133 C 0.31532 0.85144 0.15208 0.0
C4134 C 0.31369 0.85973 0.13545 0.0
H4135 H 0.34002 0.93107 0.07984 0.0
H4136 H 0.33545 0.91431 0.10572 0.0
H4137 H 0.31817 0.84771 0.08789 0.0
H4138 H 0.30309 0.80621 0.16268 0.0
H4139 H 0.29376 0.82503 0.14097 0.0
C4140 C 0.93977 0.52108 0.85094 0.0
C4141 C 0.94738 0.52833 0.8358 0.0
C4142 C 0.95036 0.52391 0.86795 0.0
C4143 C 0.99642 0.54623 0.89158 0.0
H4144 H 0.97132 0.56777 0.9334 0.0
C4145 C 0.03373 0.5694 0.96182 0.0
C4146 C 0.02435 0.55742 0.97301 0.0
C4147 C 0.02437 0.5747 0.94761 0.0
C4148 C 0.97851 0.56203 0.92177 0.0
H4149 H 0.97181 0.54113 0.82478 0.0
H4150 H 0.99009 0.54711 0.85451 0.0
H4151 H 0.95499 0.5514 0.90209 0.0
H4152 H 0.99801 0.54499 0.98088 0.0
H4153 H 0.98201 0.55265 0.95552 0.0
H4154 H 0.01979 0.5563 0.91101 0.0
C4155 C 0.97628 0.53892 0.85359 0.0
C4156 C 0.96913 0.55227 0.90399 0.0
C4157 C 0.96584 0.53539 0.83644 0.0
C4158 C 0.00566 0.55328 0.97173 0.0
C4159 C 0.99638 0.55825 0.95744 0.0
C4160 C 0.00578 0.55603 0.90924 0.0
C4161 C 0.96834 0.53452 0.86984 0.0
C4162 C 0.97799 0.54389 0.88889 0.0
C4163 C 0.00571 0.56742 0.94419 0.0
C4164 C 0.99685 0.5634 0.92471 0.0
H4165 H 0.92545 0.51543 0.85039 0.0
H4166 H 0.94412 0.51967 0.88013 0.0
H4167 H 0.0036 0.53989 0.88024 0.0
H4168 H 0.04818 0.57363 0.96322 0.0
H4169 H 0.0318 0.58255 0.93798 0.0
C4170 C 0.30146 0.24537 0.56456 0.0
C4171 C 0.30757 0.22804 0.55888 0.0
C4172 C 0.29994 0.253 0.58404 0.0
C4173 C 0.31656 0.25015 0.63271 0.0
H4174 H 0.27626 0.27056 0.64988 0.0
C4175 C 0.29524 0.25051 0.70716 0.0
C4176 C 0.29509 0.26899 0.71916 0.0
C4177 C 0.2963 0.24846 0.68755 0.0
C4178 C 0.28771 0.26519 0.64524 0.0
H4179 H 0.31669 0.20493 0.56862 0.0
H4180 H 0.31381 0.21783 0.60239 0.0
H4181 H 0.27926 0.26104 0.61538 0.0
H4182 H 0.2952 0.29974 0.71981 0.0
H4183 H 0.29614 0.29582 0.68484 0.0
H4184 H 0.32452 0.25335 0.66243 0.0
C4185 C 0.31048 0.2259 0.59212 0.0
C4186 C 0.28946 0.25973 0.6255 0.0
C4187 C 0.31196 0.21834 0.57276 0.0
C4188 C 0.29503 0.28524 0.71087 0.0
C4189 C 0.29569 0.28304 0.69095 0.0
C4190 C 0.3147 0.25536 0.65228 0.0
C4191 C 0.30465 0.24348 0.59811 0.0
C4192 C 0.30365 0.25157 0.61899 0.0
C4193 C 0.29693 0.26475 0.67927 0.0
C4194 C 0.30004 0.26243 0.65873 0.0
H4195 H 0.29806 0.25309 0.55399 0.0
H4196 H 0.29549 0.26658 0.58809 0.0
H4197 H 0.32798 0.24457 0.62834 0.0
H4198 H 0.29529 0.23771 0.71311 0.0
H4199 H 0.29703 0.23416 0.67884 0.0
C4200 C 0.63084 0.5164 0.19714 0.0
C4201 C 0.62331 0.49884 0.20311 0.0
C4202 C 0.62309 0.5209 0.18079 0.0
C4203 C 0.58803 0.4981 0.13671 0.0
H4204 H 0.59641 0.55321 0.1333 0.0
C4205 C 0.55464 0.52229 0.07211 0.0
C4206 C 0.56574 0.53705 0.06454 0.0
C4207 C 0.56015 0.51767 0.08945 0.0
C4208 C 0.59393 0.53765 0.1338 0.0
H4209 H 0.6014 0.47224 0.19574 0.0
H4210 H 0.58811 0.47991 0.16788 0.0
H4211 H 0.60885 0.54525 0.16149 0.0
H4212 H 0.59196 0.55734 0.06926 0.0
H4213 H 0.60071 0.55094 0.09984 0.0
H4214 H 0.57277 0.49072 0.10899 0.0
C4215 C 0.60015 0.49033 0.1755 0.0
C4216 C 0.60127 0.53298 0.15017 0.0
C4217 C 0.60784 0.48591 0.19182 0.0
C4218 C 0.58242 0.54695 0.07505 0.0
C4219 C 0.58763 0.54293 0.09264 0.0
C4220 C 0.5805 0.50283 0.12039 0.0
C4221 C 0.60744 0.50805 0.16956 0.0
C4222 C 0.59882 0.51305 0.152 0.0
C4223 C 0.57684 0.52792 0.10012 0.0
C4224 C 0.58353 0.52272 0.11839 0.0
H4225 H 0.64259 0.52693 0.20533 0.0
H4226 H 0.62963 0.53456 0.17695 0.0
H4227 H 0.58568 0.48251 0.13694 0.0
H4228 H 0.54205 0.51358 0.06413 0.0
H4229 H 0.55133 0.50593 0.09441 0.0
C4230 C 0.32094 0.89181 0.974 0.0
C4231 C 0.32857 0.91151 0.9732 0.0
C4232 C 0.31548 0.87706 0.95715 0.0
C4233 C 0.30694 0.86971 0.90458 0.0
H4234 H 0.32148 0.82055 0.90311 0.0
C4235 C 0.32367 0.8271 0.8364 0.0
C4236 C 0.31266 0.80777 0.82937 0.0
C4237 C 0.32442 0.8366 0.85553 0.0
C4238 C 0.31708 0.83405 0.90348 0.0
H4239 H 0.33628 0.93194 0.95494 0.0
H4240 H 0.3274 0.90598 0.92514 0.0
H4241 H 0.32335 0.84441 0.9338 0.0
H4242 H 0.29732 0.78164 0.83752 0.0
H4243 H 0.29771 0.79889 0.87121 0.0
H4244 H 0.30182 0.85984 0.87409 0.0
C4245 C 0.32518 0.90185 0.93866 0.0
C4246 C 0.31806 0.84768 0.92096 0.0
C4247 C 0.33049 0.91665 0.95558 0.0
C4248 C 0.30461 0.79708 0.84234 0.0
C4249 C 0.30517 0.80674 0.8616 0.0
C4250 C 0.30619 0.85624 0.88716 0.0
C4251 C 0.31776 0.88187 0.93933 0.0
C4252 C 0.31367 0.86599 0.92153 0.0
C4253 C 0.31424 0.82691 0.86787 0.0
C4254 C 0.31194 0.83878 0.8865 0.0
H4255 H 0.31923 0.88785 0.98768 0.0
H4256 H 0.30957 0.8619 0.9581 0.0
H4257 H 0.30293 0.88338 0.90466 0.0
H4258 H 0.3307 0.83555 0.82695 0.0
H4259 H 0.33203 0.85201 0.86042 0.0
C4260 C 0.93705 0.56026 0.73691 0.0
C4261 C 0.93466 0.54787 0.74971 0.0
C4262 C 0.94148 0.55308 0.71868 0.0
C4263 C 0.94438 0.51798 0.67905 0.0
H4264 H 0.99505 0.54349 0.68487 0.0
C4265 C 0.99274 0.50414 0.62233 0.0
C4266 C 0.00832 0.51925 0.62365 0.0
C4267 C 0.97972 0.50724 0.63446 0.0
C4268 C 0.98085 0.53661 0.68286 0.0
H4269 H 0.93375 0.51832 0.75401 0.0
H4270 H 0.94204 0.50577 0.7218 0.0
H4271 H 0.97856 0.54599 0.71276 0.0
H4272 H 0.02167 0.55028 0.63577 0.0
H4273 H 0.99874 0.55599 0.65705 0.0
H4274 H 0.94653 0.50913 0.64896 0.0
C4275 C 0.94007 0.52073 0.72573 0.0
C4276 C 0.97158 0.53767 0.69888 0.0
C4277 C 0.93553 0.52791 0.74399 0.0
C4278 C 0.00994 0.53828 0.63529 0.0
C4279 C 0.99685 0.54146 0.64733 0.0
C4280 C 0.95368 0.51701 0.66284 0.0
C4281 C 0.9436 0.53358 0.71335 0.0
C4282 C 0.95331 0.52876 0.69694 0.0
C4283 C 0.9823 0.52551 0.64796 0.0
C4284 C 0.97192 0.52677 0.6646 0.0
H4285 H 0.93649 0.57571 0.74137 0.0
H4286 H 0.94452 0.56315 0.70921 0.0
H4287 H 0.93018 0.51116 0.67755 0.0
H4288 H 0.99111 0.48963 0.61266 0.0
H4289 H 0.96853 0.49477 0.63438 0.0
C4290 C 0.29198 0.22253 0.44787 0.0
C4291 C 0.30083 0.23451 0.46547 0.0
C4292 C 0.2937 0.22962 0.43123 0.0
C4293 C 0.32501 0.26808 0.41285 0.0
H4294 H 0.29155 0.2459 0.36709 0.0
C4295 C 0.32775 0.29629 0.34311 0.0
C4296 C 0.32248 0.28201 0.3256 0.0
C4297 C 0.32755 0.29054 0.36046 0.0
C4298 C 0.30113 0.25197 0.37972 0.0
H4299 H 0.31677 0.26389 0.48002 0.0
H4300 H 0.31848 0.27702 0.45124 0.0
H4301 H 0.28321 0.23812 0.39723 0.0
H4302 H 0.31486 0.2502 0.31254 0.0
H4303 H 0.3143 0.24011 0.34297 0.0
H4304 H 0.34253 0.2827 0.39518 0.0
C4305 C 0.31109 0.26173 0.44998 0.0
C4306 C 0.29636 0.24755 0.39705 0.0
C4307 C 0.30984 0.25439 0.46656 0.0
C4308 C 0.31869 0.26166 0.32577 0.0
C4309 C 0.31833 0.25586 0.34316 0.0
C4310 C 0.32962 0.27283 0.39554 0.0
C4311 C 0.30388 0.24908 0.43193 0.0
C4312 C 0.3083 0.25533 0.41384 0.0
C4313 C 0.32199 0.27031 0.36064 0.0
C4314 C 0.31779 0.2646 0.3788 0.0
H4315 H 0.28521 0.20701 0.4466 0.0
H4316 H 0.28808 0.21925 0.41771 0.0
H4317 H 0.33479 0.27405 0.42528 0.0
H4318 H 0.33074 0.31197 0.34372 0.0
H4319 H 0.33042 0.30199 0.37374 0.0
C4320 C 0.32313 0.60201 0.5375 0.0
C4321 C 0.32132 0.61791 0.52951 0.0
C4322 C 0.33929 0.59666 0.53778 0.0
C4323 C 0.37588 0.59777 0.50821 0.0
H4324 H 0.39632 0.57539 0.54603 0.0
C4325 C 0.43646 0.56587 0.49439 0.0
C4326 C 0.4347 0.54689 0.49793 0.0
C4327 C 0.42463 0.57716 0.50133 0.0
C4328 C 0.3907 0.58158 0.53536 0.0
H4329 H 0.33531 0.64214 0.51758 0.0
H4330 H 0.36363 0.63296 0.51837 0.0
H4331 H 0.37201 0.59146 0.55379 0.0
H4332 H 0.42027 0.52497 0.51205 0.0
H4333 H 0.3993 0.54462 0.52413 0.0
H4334 H 0.39408 0.58742 0.48956 0.0
C4335 C 0.35248 0.62437 0.52399 0.0
C4336 C 0.37687 0.59077 0.5398 0.0
C4337 C 0.33634 0.62975 0.52376 0.0
C4338 C 0.42159 0.53957 0.50911 0.0
C4339 C 0.40979 0.55087 0.51613 0.0
C4340 C 0.38967 0.58861 0.50378 0.0
C4341 C 0.3538 0.6072 0.5301 0.0
C4342 C 0.36934 0.59889 0.52624 0.0
C4343 C 0.41096 0.56957 0.51192 0.0
C4344 C 0.39716 0.58036 0.51727 0.0
H4345 H 0.31173 0.59276 0.54215 0.0
H4346 H 0.33997 0.58336 0.54258 0.0
H4347 H 0.36996 0.6034 0.49728 0.0
H4348 H 0.44671 0.57173 0.48592 0.0
H4349 H 0.42597 0.59166 0.49814 0.0
C4350 C 0.86343 0.91614 0.5416 0.0
C4351 C 0.84885 0.92276 0.53553 0.0
C4352 C 0.88098 0.92709 0.54132 0.0
C4353 C 0.90756 0.96771 0.52087 0.0
H4354 H 0.94396 0.97076 0.5611 0.0
C4355 C 0.97729 0.02192 0.52839 0.0
C4356 C 0.99209 0.01458 0.53229 0.0
C4357 C 0.95995 0.01122 0.52992 0.0
C4358 C 0.934 0.96996 0.54966 0.0
H4359 H 0.84135 0.94611 0.52438 0.0
H4360 H 0.87167 0.96531 0.52428 0.0
H4361 H 0.91372 0.95075 0.561 0.0
H4362 H 0.00017 0.99032 0.54124 0.0
H4363 H 0.97003 0.97161 0.54363 0.0
H4364 H 0.92778 0.98701 0.50962 0.0
C4365 C 0.86973 0.95145 0.52885 0.0
C4366 C 0.91661 0.95838 0.54955 0.0
C4367 C 0.85224 0.94044 0.52898 0.0
C4368 C 0.98911 0.99648 0.53816 0.0
C4369 C 0.97179 0.98577 0.53965 0.0
C4370 C 0.92488 0.97936 0.52106 0.0
C4371 C 0.8844 0.94502 0.53507 0.0
C4372 C 0.9031 0.95709 0.53514 0.0
C4373 C 0.95693 0.99283 0.53527 0.0
C4374 C 0.93836 0.98068 0.53545 0.0
H4375 H 0.86131 0.90262 0.54681 0.0
H4376 H 0.89185 0.92142 0.54594 0.0
H4377 H 0.89774 0.96681 0.50926 0.0
H4378 H 0.97897 0.03555 0.52348 0.0
H4379 H 0.94888 0.01727 0.52666 0.0
C4380 C 0.88954 0.12253 0.26551 0.0
C4381 C 0.89814 0.12223 0.28323 0.0
C4382 C 0.8802 0.13741 0.26394 0.0
C4383 C 0.87334 0.18809 0.2918 0.0
H4384 H 0.83375 0.17707 0.25279 0.0
C4385 C 0.82732 0.2441 0.29322 0.0
C4386 C 0.82025 0.24712 0.2759 0.0
C4387 C 0.83617 0.22873 0.29361 0.0
C4388 C 0.84484 0.18066 0.26377 0.0
H4389 H 0.90366 0.1384 0.31304 0.0
H4390 H 0.888 0.16376 0.31043 0.0
H4391 H 0.85016 0.15174 0.25414 0.0
H4392 H 0.81869 0.23644 0.24508 0.0
H4393 H 0.83288 0.20893 0.24567 0.0
H4394 H 0.8679 0.21689 0.30156 0.0
C4395 C 0.88826 0.15269 0.29749 0.0
C4396 C 0.85446 0.16591 0.26454 0.0
C4397 C 0.89729 0.13776 0.29908 0.0
C4398 C 0.8227 0.23403 0.25885 0.0
C4399 C 0.83124 0.21829 0.25922 0.0
C4400 C 0.86364 0.20272 0.29113 0.0
C4401 C 0.87926 0.15296 0.27994 0.0
C4402 C 0.86898 0.16912 0.27864 0.0
C4403 C 0.83856 0.21546 0.27662 0.0
C4404 C 0.84906 0.19944 0.27715 0.0
H4405 H 0.88967 0.11099 0.25287 0.0
H4406 H 0.87384 0.13672 0.24999 0.0
H4407 H 0.88452 0.19198 0.3027 0.0
H4408 H 0.82656 0.25424 0.30667 0.0
H4409 H 0.84131 0.22742 0.30743 0.0
C4410 C 0.72171 0.11861 0.02491 0.0
C4411 C 0.72754 0.10396 0.01217 0.0
C4412 C 0.70938 0.11291 0.03746 0.0
C4413 C 0.67339 0.07387 0.02015 0.0
H4414 H 0.64928 0.09467 0.06318 0.0
C4415 C 0.59851 0.05206 0.01519 0.0
C4416 C 0.58977 0.0672 0.02113 0.0
C4417 C 0.61654 0.05525 0.02036 0.0
C4418 C 0.65595 0.08882 0.05112 0.0
H4419 H 0.72861 0.07305 0.00511 0.0
H4420 H 0.70736 0.06313 0.02725 0.0
H4421 H 0.68216 0.10207 0.06617 0.0
H4422 H 0.59305 0.09813 0.03567 0.0
H4423 H 0.62546 0.10434 0.04394 0.0
H4424 H 0.64783 0.06214 0.00443 0.0
C4425 C 0.71202 0.07888 0.02759 0.0
C4426 C 0.67462 0.09277 0.05293 0.0
C4427 C 0.72413 0.08451 0.01485 0.0
C4428 C 0.5996 0.08618 0.03128 0.0
C4429 C 0.61795 0.08957 0.03625 0.0
C4430 C 0.65501 0.07024 0.01826 0.0
C4431 C 0.70281 0.09254 0.03687 0.0
C4432 C 0.68344 0.08534 0.03739 0.0
C4433 C 0.62652 0.07407 0.03073 0.0
C4434 C 0.64607 0.07772 0.03364 0.0
H4435 H 0.72435 0.13376 0.02303 0.0
H4436 H 0.7027 0.12381 0.04476 0.0
H4437 H 0.67981 0.06867 0.00761 0.0
H4438 H 0.59158 0.03779 0.00612 0.0
H4439 H 0.62276 0.04304 0.01579 0.0
C4440 C 0.2146 0.50658 0.26319 0.0
C4441 C 0.21888 0.51252 0.24627 0.0
C4442 C 0.21344 0.48714 0.26438 0.0
C4443 C 0.2288 0.44202 0.24427 0.0
H4444 H 0.25982 0.46318 0.29207 0.0
C4445 C 0.28684 0.41322 0.27438 0.0
C4446 C 0.28639 0.41334 0.29396 0.0
C4447 C 0.27405 0.41985 0.2651 0.0
C4448 C 0.25103 0.45696 0.27883 0.0
H4449 H 0.22473 0.50234 0.21696 0.0
H4450 H 0.22687 0.46961 0.22079 0.0
H4451 H 0.24224 0.48331 0.28164 0.0
H4452 H 0.27167 0.41816 0.31873 0.0
H4453 H 0.24928 0.42974 0.30254 0.0
H4454 H 0.23883 0.41577 0.24151 0.0
C4455 C 0.22225 0.47932 0.23225 0.0
C4456 C 0.24077 0.46835 0.27292 0.0
C4457 C 0.22154 0.49827 0.23033 0.0
C4458 C 0.27247 0.41864 0.3038 0.0
C4459 C 0.25961 0.42491 0.2945 0.0
C4460 C 0.23933 0.43046 0.25027 0.0
C4461 C 0.21957 0.47436 0.24992 0.0
C4462 C 0.22921 0.46087 0.25588 0.0
C4463 C 0.26073 0.42625 0.27536 0.0
C4464 C 0.25013 0.43786 0.26781 0.0
H4465 H 0.21322 0.51684 0.27602 0.0
H4466 H 0.2109 0.48332 0.278 0.0
H4467 H 0.22038 0.4363 0.23078 0.0
H4468 H 0.29743 0.40876 0.26657 0.0
H4469 H 0.27514 0.42104 0.25037 0.0
C4470 C 0.24271 0.41525 0.02476 0.0
C4471 C 0.24953 0.41764 0.04382 0.0
C4472 C 0.22835 0.42301 0.02064 0.0
C4473 C 0.20153 0.45815 0.04444 0.0
H4474 H 0.17529 0.44021 0.99402 0.0
C4475 C 0.15546 0.50356 0.02077 0.0
C4476 C 0.14313 0.49528 0.00452 0.0
C4477 C 0.16674 0.49262 0.02643 0.0
C4478 C 0.18199 0.4453 0.00842 0.0
H4479 H 0.24606 0.42917 0.07357 0.0
H4480 H 0.22034 0.44125 0.06664 0.0
H4481 H 0.19639 0.42291 0.00247 0.0
H4482 H 0.13201 0.4689 0.9819 0.0
H4483 H 0.15034 0.44901 0.99253 0.0
H4484 H 0.18576 0.47899 0.05124 0.0
C4485 C 0.22651 0.43448 0.05461 0.0
C4486 C 0.19472 0.43555 0.01315 0.0
C4487 C 0.24121 0.42723 0.05869 0.0
C4488 C 0.14159 0.47557 0.99446 0.0
C4489 C 0.15241 0.46431 1.00049 0.0
C4490 C 0.18819 0.46725 0.04006 0.0
C4491 C 0.22001 0.43292 0.03548 0.0
C4492 C 0.20514 0.44215 0.03105 0.0
C4493 C 0.16559 0.47278 0.01632 0.0
C4494 C 0.17852 0.46148 0.02174 0.0
H4495 H 0.24889 0.40804 0.01294 0.0
H4496 H 0.22433 0.42172 0.0057 0.0
H4497 H 0.20917 0.46418 0.05833 0.0
H4498 H 0.15691 0.51884 0.02863 0.0
H4499 H 0.17676 0.50027 0.03833 0.0
C4500 C 0.89951 0.00293 0.26436 0.0
C4501 C 0.89614 0.01725 0.2799 0.0
C4502 C 0.89111 0.98224 0.26151 0.0
C4503 C 0.86537 0.94504 0.28803 0.0
H4504 H 0.85453 0.90868 0.23781 0.0
C4505 C 0.8199 0.86413 0.27771 0.0
C4506 C 0.82338 0.84823 0.26409 0.0
C4507 C 0.82914 0.88417 0.27897 0.0
C4508 C 0.85755 0.91849 0.25203 0.0
H4509 H 0.88058 0.02024 0.30425 0.0
H4510 H 0.86598 0.98519 0.29915 0.0
H4511 H 0.86964 0.94382 0.2409 0.0
H4512 H 0.83953 0.8413 0.24102 0.0
H4513 H 0.85524 0.87618 0.24271 0.0
H4514 H 0.85328 0.9199 0.29919 0.0
C4515 C 0.87544 0.98954 0.2893 0.0
C4516 C 0.86634 0.93888 0.25384 0.0
C4517 C 0.88378 0.01002 0.29213 0.0
C4518 C 0.83634 0.8531 0.2516 0.0
C4519 C 0.84535 0.87324 0.25257 0.0
C4520 C 0.85653 0.92479 0.28622 0.0
C4521 C 0.87904 0.97502 0.27413 0.0
C4522 C 0.87027 0.95274 0.2719 0.0
C4523 C 0.84212 0.88926 0.26645 0.0
C4524 C 0.85221 0.91102 0.26819 0.0
H4525 H 0.90897 0.00762 0.25461 0.0
H4526 H 0.8945 0.97187 0.24965 0.0
H4527 H 0.86851 0.95462 0.30235 0.0
H4528 H 0.81021 0.86102 0.28774 0.0
H4529 H 0.82589 0.89573 0.28975 0.0
C4530 C 0.71493 0.09361 0.75662 0.0
C4531 C 0.69837 0.08701 0.74523 0.0
C4532 C 0.72682 0.11099 0.75594 0.0
C4533 C 0.73873 0.15012 0.72969 0.0
H4534 H 0.76368 0.17893 0.77971 0.0
C4535 C 0.76349 0.2328 0.76082 0.0
C4536 C 0.78086 0.24045 0.76977 0.0
C4537 C 0.75755 0.21267 0.75221 0.0
C4538 C 0.75725 0.1707 0.76557 0.0
H4539 H 0.6816 0.09362 0.72378 0.0
H4540 H 0.70236 0.12606 0.72394 0.0
H4541 H 0.74181 0.14784 0.77684 0.0
H4542 H 0.80551 0.23376 0.77826 0.0
H4543 H 0.79447 0.19763 0.76425 0.0
H4544 H 0.75297 0.17489 0.71923 0.0
C4545 C 0.706 0.11686 0.73291 0.0
C4546 C 0.74458 0.15298 0.76388 0.0
C4547 C 0.69405 0.09857 0.733 0.0
C4548 C 0.79217 0.2279 0.77089 0.0
C4549 C 0.78605 0.20753 0.76266 0.0
C4550 C 0.75107 0.16841 0.73156 0.0
C4551 C 0.72242 0.12315 0.74461 0.0
C4552 C 0.73519 0.14245 0.74594 0.0
C4553 C 0.76868 0.19993 0.75333 0.0
C4554 C 0.76018 0.17876 0.74958 0.0
H4555 H 0.71935 0.085 0.76579 0.0
H4556 H 0.73964 0.11479 0.7644 0.0
H4557 H 0.73183 0.14218 0.7157 0.0
H4558 H 0.75454 0.24244 0.76046 0.0
H4559 H 0.74386 0.20685 0.74577 0.0
loop_
_geom_bond_atom_site_label_1
_geom_bond_atom_site_label_2
_geom_bond_distance
_geom_bond_site_symmetry_2
_ccdc_geom_bond_type
Mg0 O1 2.028 . S
Mg0 O7 1.986 . S
Mg0 O9 2.114 . S
Mg0 O10 2.251 . S
Mg0 O13 2.010 . S
O1 Mg0 2.028 . S
O1 C4 1.250 . S
O2 Mg3 2.028 . S
O2 C4 1.248 . S
Mg3 O2 2.028 . S
Mg3 O8 2.032 . S
Mg3 O10 2.079 . S
C4 O1 1.250 . S
C4 O2 1.248 . S
C5 O6 1.264 . S
C5 O13 1.249 . S
O6 C5 1.264 . S
O7 Mg0 1.986 . S
O7 C11 1.246 . S
O8 Mg3 2.032 . S
O8 C11 1.259 . S
O9 Mg0 2.114 . S
O9 C12 1.252 . S
O10 Mg0 2.251 . S
O10 Mg3 2.079 . S
O10 C12 1.273 . S
C11 O7 1.246 . S
C11 O8 1.259 . S
C12 O9 1.252 . S
C12 O10 1.273 . S
O13 Mg0 2.010 . S
O13 C5 1.249 . S
Mg14 O15 2.028 . S
Mg14 O21 1.986 . S
Mg14 O23 2.114 1_455 S
Mg14 O24 2.251 1_455 S
Mg14 O27 2.010 . S
O15 Mg14 2.028 . S
O15 C18 1.250 1_455 S
O16 Mg17 2.028 . S
O16 C18 1.248 . S
Mg17 O16 2.028 . S
Mg17 O22 2.032 . S
Mg17 O24 2.079 . S
C18 O15 1.250 1_655 S
C18 O16 1.248 . S
C19 O20 1.264 . S
C19 O27 1.249 . S
O20 C19 1.264 . S
O21 Mg14 1.986 . S
O21 C25 1.246 1_455 S
O22 Mg17 2.032 . S
O22 C25 1.259 . S
O23 Mg14 2.114 1_655 S
O23 C26 1.252 . S
O24 Mg14 2.251 1_655 S
O24 Mg17 2.079 . S
O24 C26 1.273 . S
C25 O21 1.246 1_655 S
C25 O22 1.259 . S
C26 O23 1.252 . S
C26 O24 1.273 . S
O27 Mg14 2.010 . S
O27 C19 1.249 . S
Mg28 O29 2.028 . S
Mg28 O35 1.986 . S
Mg28 O37 2.114 . S
Mg28 O38 2.251 . S
Mg28 O41 2.010 . S
O29 Mg28 2.028 . S
O29 C32 1.250 . S
O30 Mg31 2.028 . S
O30 C32 1.248 . S
Mg31 O30 2.028 . S
Mg31 O36 2.032 . S
Mg31 O38 2.079 . S
C32 O29 1.250 . S
C32 O30 1.248 . S
C33 O34 1.264 . S
C33 O41 1.249 . S
O34 C33 1.264 . S
O35 Mg28 1.986 . S
O35 C39 1.246 . S
O36 Mg31 2.032 . S
O36 C39 1.259 . S
O37 Mg28 2.114 . S
O37 C40 1.252 . S
O38 Mg28 2.251 . S
O38 Mg31 2.079 . S
O38 C40 1.273 . S
C39 O35 1.246 . S
C39 O36 1.259 . S
C40 O37 1.252 . S
C40 O38 1.273 . S
O41 Mg28 2.010 . S
O41 C33 1.249 . S
Mg42 O43 2.028 . S
Mg42 O49 1.986 . S
Mg42 O51 2.114 . S
Mg42 O52 2.251 . S
Mg42 O55 2.010 . S
O43 Mg42 2.028 . S
O43 C46 1.250 . S
O44 Mg45 2.028 . S
O44 C46 1.248 . S
Mg45 O44 2.028 . S
Mg45 O50 2.032 . S
Mg45 O52 2.079 . S
C46 O43 1.250 . S
C46 O44 1.248 . S
C47 O48 1.264 . S
C47 O55 1.249 . S
O48 C47 1.264 . S
O49 Mg42 1.986 . S
O49 C53 1.246 . S
O50 Mg45 2.032 . S
O50 C53 1.259 . S
O51 Mg42 2.114 . S
O51 C54 1.252 . S
O52 Mg42 2.251 . S
O52 Mg45 2.079 . S
O52 C54 1.273 . S
C53 O49 1.246 . S
C53 O50 1.259 . S
C54 O51 1.252 . S
C54 O52 1.273 . S
O55 Mg42 2.010 . S
O55 C47 1.249 . S
Mg56 O57 2.028 . S
Mg56 O63 1.986 . S
Mg56 O65 2.114 . S
Mg56 O66 2.251 . S
Mg56 O69 2.010 . S
O57 Mg56 2.028 . S
O57 C60 1.250 . S
O58 Mg59 2.028 . S
O58 C60 1.248 . S
Mg59 O58 2.028 . S
Mg59 O64 2.032 . S
Mg59 O66 2.079 . S
C60 O57 1.250 . S
C60 O58 1.248 . S
C61 O62 1.264 . S
C61 O69 1.249 . S
O62 C61 1.264 . S
O63 Mg56 1.986 . S
O63 C67 1.246 . S
O64 Mg59 2.032 . S
O64 C67 1.259 . S
O65 Mg56 2.114 . S
O65 C68 1.252 . S
O66 Mg56 2.251 . S
O66 Mg59 2.079 . S
O66 C68 1.273 . S
C67 O63 1.246 . S
C67 O64 1.259 . S
C68 O65 1.252 . S
C68 O66 1.273 . S
O69 Mg56 2.010 . S
O69 C61 1.249 . S
Mg70 O71 2.028 . S
Mg70 O77 1.986 . S
Mg70 O79 2.114 . S
Mg70 O80 2.251 . S
Mg70 O83 2.010 . S
O71 Mg70 2.028 . S
O71 C74 1.250 . S
O72 Mg73 2.028 . S
O72 C74 1.248 . S
Mg73 O72 2.028 . S
Mg73 O78 2.032 . S
Mg73 O80 2.079 . S
C74 O71 1.250 . S
C74 O72 1.248 . S
C75 O76 1.264 . S
C75 O83 1.249 . S
O76 C75 1.264 . S
O77 Mg70 1.986 . S
O77 C81 1.246 . S
O78 Mg73 2.032 . S
O78 C81 1.259 . S
O79 Mg70 2.114 . S
O79 C82 1.252 . S
O80 Mg70 2.251 . S
O80 Mg73 2.079 . S
O80 C82 1.273 . S
C81 O77 1.246 . S
C81 O78 1.259 . S
C82 O79 1.252 . S
C82 O80 1.273 . S
O83 Mg70 2.010 . S
O83 C75 1.249 . S
Mg84 O85 2.028 . S
Mg84 O91 1.986 . S
Mg84 O93 2.114 . S
Mg84 O94 2.251 . S
Mg84 O97 2.010 . S
O85 Mg84 2.028 . S
O85 C88 1.250 . S
O86 Mg87 2.028 . S
O86 C88 1.248 . S
Mg87 O86 2.028 . S
Mg87 O92 2.032 . S
Mg87 O94 2.079 . S
C88 O85 1.250 . S
C88 O86 1.248 . S
C89 O90 1.264 . S
C89 O97 1.249 . S
O90 C89 1.264 . S
O91 Mg84 1.986 . S
O91 C95 1.246 . S
O92 Mg87 2.032 . S
O92 C95 1.259 . S
O93 Mg84 2.114 . S
O93 C96 1.252 . S
O94 Mg84 2.251 . S
O94 Mg87 2.079 . S
O94 C96 1.273 . S
C95 O91 1.246 . S
C95 O92 1.259 . S
C96 O93 1.252 . S
C96 O94 1.273 . S
O97 Mg84 2.010 . S
O97 C89 1.249 . S
Mg98 O99 2.028 . S
Mg98 O105 1.986 . S
Mg98 O107 2.115 . S
Mg98 O108 2.251 1_455 S
Mg98 O111 2.010 . S
O99 Mg98 2.028 . S
O99 C102 1.250 . S
O100 Mg101 2.028 1_455 S
O100 C102 1.248 . S
Mg101 O100 2.028 1_655 S
Mg101 O106 2.032 . S
Mg101 O108 2.079 . S
C102 O99 1.250 . S
C102 O100 1.248 . S
C103 O104 1.264 . S
C103 O111 1.249 . S
O104 C103 1.264 . S
O105 Mg98 1.986 . S
O105 C109 1.246 . S
O106 Mg101 2.032 . S
O106 C109 1.259 1_655 S
O107 Mg98 2.115 . S
O107 C110 1.249 1_455 S
O108 Mg98 2.251 1_655 S
O108 Mg101 2.079 . S
O108 C110 1.273 . S
C109 O105 1.246 . S
C109 O106 1.259 1_455 S
C110 O107 1.249 1_655 S
C110 O108 1.273 . S
O111 Mg98 2.010 . S
O111 C103 1.249 . S
Mg112 O113 2.028 . S
Mg112 O119 1.986 . S
Mg112 O121 2.114 . S
Mg112 O122 2.251 . S
Mg112 O125 2.010 . S
O113 Mg112 2.028 . S
O113 C116 1.250 . S
O114 Mg115 2.028 . S
O114 C116 1.248 . S
Mg115 O114 2.028 . S
Mg115 O120 2.032 . S
Mg115 O122 2.079 . S
C116 O113 1.250 . S
C116 O114 1.248 . S
C117 O118 1.264 . S
C117 O125 1.249 . S
O118 C117 1.264 . S
O119 Mg112 1.986 . S
O119 C123 1.246 . S
O120 Mg115 2.032 . S
O120 C123 1.259 . S
O121 Mg112 2.114 . S
O121 C124 1.252 . S
O122 Mg112 2.251 . S
O122 Mg115 2.079 . S
O122 C124 1.273 . S
C123 O119 1.246 . S
C123 O120 1.259 . S
C124 O121 1.252 . S
C124 O122 1.273 . S
O125 Mg112 2.010 . S
O125 C117 1.249 . S
Mg126 O127 2.028 . S
Mg126 O133 1.986 . S
Mg126 O135 2.114 . S
Mg126 O136 2.251 . S
Mg126 O139 2.010 . S
O127 Mg126 2.028 . S
O127 C130 1.250 . S
O128 Mg129 2.028 . S
O128 C130 1.248 . S
Mg129 O128 2.028 . S
Mg129 O134 2.032 . S
Mg129 O136 2.079 . S
C130 O127 1.250 . S
C130 O128 1.248 . S
C131 O132 1.264 . S
C131 O139 1.249 . S
O132 C131 1.264 . S
O133 Mg126 1.986 . S
O133 C137 1.246 . S
O134 Mg129 2.032 . S
O134 C137 1.259 . S
O135 Mg126 2.114 . S
O135 C138 1.252 . S
O136 Mg126 2.251 . S
O136 Mg129 2.079 . S
O136 C138 1.273 . S
C137 O133 1.246 . S
C137 O134 1.259 . S
C138 O135 1.252 . S
C138 O136 1.273 . S
O139 Mg126 2.010 . S
O139 C131 1.249 . S
Mg140 O141 2.028 1_565 S
Mg140 O147 1.986 . S
Mg140 O149 2.114 1_565 S
Mg140 O150 2.251 . S
Mg140 O153 2.010 . S
O141 Mg140 2.028 1_545 S
O141 C144 1.250 . S
O142 Mg143 2.028 . S
O142 C144 1.248 . S
Mg143 O142 2.028 . S
Mg143 O148 2.032 1_545 S
Mg143 O150 2.079 1_545 S
C144 O141 1.250 . S
C144 O142 1.248 . S
C145 O146 1.264 . S
C145 O153 1.249 . S
O146 C145 1.264 . S
O147 Mg140 1.986 . S
O147 C151 1.246 . S
O148 Mg143 2.032 1_565 S
O148 C151 1.259 . S
O149 Mg140 2.114 1_545 S
O149 C152 1.252 . S
O150 Mg140 2.251 . S
O150 Mg143 2.079 1_565 S
O150 C152 1.273 1_565 S
C151 O147 1.246 . S
C151 O148 1.259 . S
C152 O149 1.252 . S
C152 O150 1.273 1_545 S
O153 Mg140 2.010 . S
O153 C145 1.249 . S
Mg154 O155 2.028 . S
Mg154 O161 1.986 . S
Mg154 O163 2.114 . S
Mg154 O164 2.251 . S
Mg154 O167 2.010 . S
O155 Mg154 2.028 . S
O155 C158 1.250 1_554 S
O156 Mg157 2.028 1_556 S
O156 C158 1.248 . S
Mg157 O156 2.028 1_554 S
Mg157 O162 2.032 . S
Mg157 O164 2.079 . S
C158 O155 1.250 1_556 S
C158 O156 1.248 . S
C159 O160 1.264 . S
C159 O167 1.249 . S
O160 C159 1.264 . S
O161 Mg154 1.986 . S
O161 C165 1.246 . S
O162 Mg157 2.032 . S
O162 C165 1.259 . S
O163 Mg154 2.114 . S
O163 C166 1.252 . S
O164 Mg154 2.251 . S
O164 Mg157 2.079 . S
O164 C166 1.273 . S
C165 O161 1.246 . S
C165 O162 1.259 . S
C166 O163 1.252 . S
C166 O164 1.273 . S
O167 Mg154 2.010 . S
O167 C159 1.249 . S
Mg168 O169 2.028 . S
Mg168 O175 1.986 . S
Mg168 O177 2.114 . S
Mg168 O178 2.251 . S
Mg168 O181 2.010 . S
O169 Mg168 2.028 . S
O169 C172 1.250 . S
O170 Mg171 2.028 . S
O170 C172 1.248 . S
Mg171 O170 2.028 . S
Mg171 O176 2.032 . S
Mg171 O178 2.079 . S
C172 O169 1.250 . S
C172 O170 1.248 . S
C173 O174 1.264 . S
C173 O181 1.249 . S
O174 C173 1.264 . S
O175 Mg168 1.986 . S
O175 C179 1.246 . S
O176 Mg171 2.032 . S
O176 C179 1.259 . S
O177 Mg168 2.114 . S
O177 C180 1.252 . S
O178 Mg168 2.251 . S
O178 Mg171 2.079 . S
O178 C180 1.273 . S
C179 O175 1.246 . S
C179 O176 1.259 . S
C180 O177 1.252 . S
C180 O178 1.273 . S
O181 Mg168 2.010 . S
O181 C173 1.249 . S
Mg182 O183 2.028 . S
Mg182 O189 1.986 1_554 S
Mg182 O191 2.114 . S
Mg182 O192 2.251 . S
Mg182 O195 2.010 . S
O183 Mg182 2.028 . S
O183 C186 1.250 . S
O184 Mg185 2.028 . S
O184 C186 1.248 . S
Mg185 O184 2.028 . S
Mg185 O190 2.032 . S
Mg185 O192 2.079 . S
C186 O183 1.250 . S
C186 O184 1.248 . S
C187 O188 1.264 1_554 S
C187 O195 1.249 . S
O188 C187 1.264 1_556 S
O189 Mg182 1.986 1_556 S
O189 C193 1.246 . S
O190 Mg185 2.032 . S
O190 C193 1.259 1_554 S
O191 Mg182 2.114 . S
O191 C194 1.252 . S
O192 Mg182 2.251 . S
O192 Mg185 2.079 . S
O192 C194 1.273 . S
C193 O189 1.246 . S
C193 O190 1.259 1_556 S
C194 O191 1.252 . S
C194 O192 1.273 . S
O195 Mg182 2.010 . S
O195 C187 1.249 . S
Mg196 O197 2.028 . S
Mg196 O203 1.986 . S
Mg196 O205 2.114 . S
Mg196 O206 2.251 . S
Mg196 O209 2.010 . S
O197 Mg196 2.028 . S
O197 C200 1.250 . S
O198 Mg199 2.028 . S
O198 C200 1.248 . S
Mg199 O198 2.028 . S
Mg199 O204 2.032 . S
Mg199 O206 2.079 . S
C200 O197 1.250 . S
C200 O198 1.248 . S
C201 O202 1.264 . S
C201 O209 1.249 . S
O202 C201 1.264 . S
O203 Mg196 1.986 . S
O203 C207 1.246 . S
O204 Mg199 2.032 . S
O204 C207 1.259 . S
O205 Mg196 2.114 . S
O205 C208 1.252 . S
O206 Mg196 2.251 . S
O206 Mg199 2.079 . S
O206 C208 1.273 . S
C207 O203 1.246 . S
C207 O204 1.259 . S
C208 O205 1.252 . S
C208 O206 1.273 . S
O209 Mg196 2.010 . S
O209 C201 1.249 . S
Mg210 O211 2.028 . S
Mg210 O217 1.986 . S
Mg210 O219 2.114 . S
Mg210 O220 2.251 . S
Mg210 O223 2.010 . S
O211 Mg210 2.028 . S
O211 C214 1.250 . S
O212 Mg213 2.028 . S
O212 C214 1.248 . S
Mg213 O212 2.028 . S
Mg213 O218 2.032 . S
Mg213 O220 2.079 . S
C214 O211 1.250 . S
C214 O212 1.248 . S
C215 O216 1.264 . S
C215 O223 1.249 . S
O216 C215 1.264 . S
O217 Mg210 1.986 . S
O217 C221 1.246 . S
O218 Mg213 2.032 . S
O218 C221 1.259 . S
O219 Mg210 2.114 . S
O219 C222 1.252 . S
O220 Mg210 2.251 . S
O220 Mg213 2.079 . S
O220 C222 1.273 . S
C221 O217 1.246 . S
C221 O218 1.259 . S
C222 O219 1.252 . S
C222 O220 1.273 . S
O223 Mg210 2.010 . S
O223 C215 1.249 . S
Mg224 O225 2.028 . S
Mg224 O231 1.986 . S
Mg224 O233 2.114 . S
Mg224 O234 2.251 . S
Mg224 O237 2.010 . S
O225 Mg224 2.028 . S
O225 C228 1.250 . S
O226 Mg227 2.028 . S
O226 C228 1.248 . S
Mg227 O226 2.028 . S
Mg227 O232 2.032 . S
Mg227 O234 2.079 . S
C228 O225 1.250 . S
C228 O226 1.248 . S
C229 O230 1.264 . S
C229 O237 1.249 . S
O230 C229 1.264 . S
O231 Mg224 1.986 . S
O231 C235 1.246 . S
O232 Mg227 2.032 . S
O232 C235 1.259 . S
O233 Mg224 2.114 . S
O233 C236 1.252 . S
O234 Mg224 2.251 . S
O234 Mg227 2.079 . S
O234 C236 1.273 . S
C235 O231 1.246 . S
C235 O232 1.259 . S
C236 O233 1.252 . S
C236 O234 1.273 . S
O237 Mg224 2.010 . S
O237 C229 1.249 . S
Mg238 O239 2.028 . S
Mg238 O245 1.986 . S
Mg238 O247 2.114 . S
Mg238 O248 2.251 . S
Mg238 O251 2.010 . S
O239 Mg238 2.028 . S
O239 C242 1.250 . S
O240 Mg241 2.028 . S
O240 C242 1.248 . S
Mg241 O240 2.028 . S
Mg241 O246 2.032 . S
Mg241 O248 2.079 . S
C242 O239 1.250 . S
C242 O240 1.248 . S
C243 O244 1.264 . S
C243 O251 1.249 . S
O244 C243 1.264 . S
O245 Mg238 1.986 . S
O245 C249 1.246 . S
O246 Mg241 2.032 . S
O246 C249 1.259 . S
O247 Mg238 2.114 . S
O247 C250 1.252 . S
O248 Mg238 2.251 . S
O248 Mg241 2.079 . S
O248 C250 1.273 . S
C249 O245 1.246 . S
C249 O246 1.259 . S
C250 O247 1.252 . S
C250 O248 1.273 . S
O251 Mg238 2.010 . S
O251 C243 1.249 . S
Mg252 O253 2.028 . S
Mg252 O259 1.986 . S
Mg252 O261 2.114 . S
Mg252 O262 2.251 . S
Mg252 O265 2.010 . S
O253 Mg252 2.028 . S
O253 C256 1.250 . S
O254 Mg255 2.028 . S
O254 C256 1.248 . S
Mg255 O254 2.028 . S
Mg255 O260 2.032 . S
Mg255 O262 2.079 . S
C256 O253 1.250 . S
C256 O254 1.248 . S
C257 O258 1.264 . S
C257 O265 1.249 . S
O258 C257 1.264 . S
O259 Mg252 1.986 . S
O259 C263 1.246 . S
O260 Mg255 2.032 . S
O260 C263 1.259 . S
O261 Mg252 2.114 . S
O261 C264 1.252 . S
O262 Mg252 2.251 . S
O262 Mg255 2.079 . S
O262 C264 1.273 . S
C263 O259 1.246 . S
C263 O260 1.259 . S
C264 O261 1.252 . S
C264 O262 1.273 . S
O265 Mg252 2.010 . S
O265 C257 1.249 . S
Mg266 O267 2.028 . S
Mg266 O273 1.986 . S
Mg266 O275 2.114 . S
Mg266 O276 2.251 . S
Mg266 O279 2.010 . S
O267 Mg266 2.028 . S
O267 C270 1.250 . S
O268 Mg269 2.028 . S
O268 C270 1.248 . S
Mg269 O268 2.028 . S
Mg269 O274 2.032 . S
Mg269 O276 2.079 . S
C270 O267 1.250 . S
C270 O268 1.248 . S
C271 O272 1.264 . S
C271 O279 1.249 . S
O272 C271 1.264 . S
O273 Mg266 1.986 . S
O273 C277 1.246 . S
O274 Mg269 2.032 . S
O274 C277 1.259 . S
O275 Mg266 2.114 . S
O275 C278 1.252 . S
O276 Mg266 2.251 . S
O276 Mg269 2.079 . S
O276 C278 1.273 . S
C277 O273 1.246 . S
C277 O274 1.259 . S
C278 O275 1.252 . S
C278 O276 1.273 . S
O279 Mg266 2.010 . S
O279 C271 1.249 . S
Mg280 O281 2.028 1_556 S
Mg280 O287 1.986 . S
Mg280 O289 2.114 1_556 S
Mg280 O290 2.251 . S
Mg280 O293 2.010 . S
O281 Mg280 2.028 1_554 S
O281 C284 1.250 . S
O282 Mg283 2.028 . S
O282 C284 1.248 . S
Mg283 O282 2.028 . S
Mg283 O288 2.032 1_554 S
Mg283 O290 2.079 1_554 S
C284 O281 1.250 . S
C284 O282 1.248 . S
C285 O286 1.264 . S
C285 O293 1.249 . S
O286 C285 1.264 . S
O287 Mg280 1.986 . S
O287 C291 1.246 . S
O288 Mg283 2.032 1_556 S
O288 C291 1.259 . S
O289 Mg280 2.114 1_554 S
O289 C292 1.246 1_554 S
O290 Mg280 2.251 . S
O290 Mg283 2.079 1_556 S
O290 C292 1.282 . S
C291 O287 1.246 . S
C291 O288 1.259 . S
C292 O289 1.246 1_556 S
C292 O290 1.282 . S
O293 Mg280 2.010 . S
O293 C285 1.249 . S
Mg294 O295 2.028 . S
Mg294 O301 1.986 . S
Mg294 O303 2.114 . S
Mg294 O304 2.251 . S
Mg294 O307 2.010 . S
O295 Mg294 2.028 . S
O295 C298 1.250 . S
O296 Mg297 2.028 . S
O296 C298 1.248 . S
Mg297 O296 2.028 . S
Mg297 O302 2.032 . S
Mg297 O304 2.079 . S
C298 O295 1.250 . S
C298 O296 1.248 . S
C299 O300 1.264 . S
C299 O307 1.249 . S
O300 C299 1.264 . S
O301 Mg294 1.986 . S
O301 C305 1.246 . S
O302 Mg297 2.032 . S
O302 C305 1.259 . S
O303 Mg294 2.114 . S
O303 C306 1.252 . S
O304 Mg294 2.251 . S
O304 Mg297 2.079 . S
O304 C306 1.273 . S
C305 O301 1.246 . S
C305 O302 1.259 . S
C306 O303 1.252 . S
C306 O304 1.273 . S
O307 Mg294 2.010 . S
O307 C299 1.249 . S
Mg308 O309 2.028 . S
Mg308 O315 1.986 . S
Mg308 O317 2.114 . S
Mg308 O318 2.251 . S
Mg308 O321 2.010 . S
O309 Mg308 2.028 . S
O309 C312 1.250 . S
O310 Mg311 2.028 . S
O310 C312 1.248 . S
Mg311 O310 2.028 . S
Mg311 O316 2.032 . S
Mg311 O318 2.079 . S
C312 O309 1.250 . S
C312 O310 1.248 . S
C313 O314 1.264 . S
C313 O321 1.249 . S
O314 C313 1.264 . S
O315 Mg308 1.986 . S
O315 C319 1.246 . S
O316 Mg311 2.032 . S
O316 C319 1.259 . S
O317 Mg308 2.114 . S
O317 C320 1.252 . S
O318 Mg308 2.251 . S
O318 Mg311 2.079 . S
O318 C320 1.273 . S
C319 O315 1.246 . S
C319 O316 1.259 . S
C320 O317 1.252 . S
C320 O318 1.273 . S
O321 Mg308 2.010 . S
O321 C313 1.249 . S
Mg322 O323 2.028 . S
Mg322 O329 1.986 . S
Mg322 O331 2.114 . S
Mg322 O332 2.251 . S
Mg322 O335 2.010 . S
O323 Mg322 2.028 . S
O323 C326 1.250 . S
O324 Mg325 2.028 . S
O324 C326 1.248 . S
Mg325 O324 2.028 . S
Mg325 O330 2.032 . S
Mg325 O332 2.079 . S
C326 O323 1.250 . S
C326 O324 1.248 . S
C327 O328 1.264 . S
C327 O335 1.249 . S
O328 C327 1.264 . S
O329 Mg322 1.986 . S
O329 C333 1.246 . S
O330 Mg325 2.032 . S
O330 C333 1.259 . S
O331 Mg322 2.114 . S
O331 C334 1.252 . S
O332 Mg322 2.251 . S
O332 Mg325 2.079 . S
O332 C334 1.273 . S
C333 O329 1.246 . S
C333 O330 1.259 . S
C334 O331 1.252 . S
C334 O332 1.273 . S
O335 Mg322 2.010 . S
O335 C327 1.249 . S
Tb336 N367 2.660 1_545 S
Tb336 N374 2.600 1_544 S
Tb336 O380 2.546 1_454 S
Tb336 O381 2.610 . S
Tb336 O383 2.320 . S
Tb336 O384 2.567 . S
Tb336 O385 2.413 1_455 S
Tb336 O387 2.362 . S
Tb336 O388 2.421 1_554 S
Tb336 C400 2.833 1_454 S
C337 C340 1.432 . S
C337 C341 1.414 . S
C337 N344 1.359 . S
C338 C340 1.417 . S
C338 C342 1.432 . S
C338 C350 1.390 1_554 S
C339 C341 1.444 . S
C339 C342 1.317 . S
C339 H362 0.929 . S
C340 C337 1.432 . S
C340 C338 1.417 . S
C340 N348 1.360 . S
C341 C337 1.414 . S
C341 C339 1.444 . S
C341 C346 1.385 . S
C342 C338 1.432 . S
C342 C339 1.317 . S
C342 H354 0.930 . S
C343 C345 1.392 . S
C343 C346 1.370 . S
C343 H355 0.931 . S
N344 C337 1.359 . S
N344 C345 1.327 . S
N344 Tb347 2.600 . S
C345 C343 1.392 . S
C345 N344 1.327 . S
C345 H352 0.930 . S
C346 C341 1.385 . S
C346 C343 1.370 . S
C346 H365 0.930 . S
Tb347 N344 2.600 . S
Tb347 N348 2.660 . S
Tb347 O381 2.362 . S
Tb347 O382 2.421 . S
Tb347 O386 2.546 . S
Tb347 O387 2.610 . S
Tb347 O389 2.320 1_554 S
Tb347 O390 2.552 . S
Tb347 O391 2.413 . S
Tb347 C411 2.833 . S
N348 C340 1.360 . S
N348 Tb347 2.660 . S
N348 C349 1.305 1_554 S
C349 N348 1.305 1_556 S
C349 C351 1.407 . S
C349 H356 0.930 . S
C350 C338 1.390 1_556 S
C350 C351 1.354 . S
C350 H358 0.942 . S
C351 C349 1.407 . S
C351 C350 1.354 . S
C351 H353 0.930 . S
H352 C345 0.930 . S
H353 C351 0.930 . S
H354 C342 0.930 . S
H355 C343 0.931 . S
H356 C349 0.930 . S
H357 C371 0.930 . S
H358 C350 0.942 . S
H359 C377 0.898 1_545 S
H360 C368 0.930 1_545 S
H361 C375 0.931 . S
H362 C339 0.929 . S
H363 C369 0.930 . S
H364 C402 0.930 1_554 S
H365 C346 0.930 . S
H366 C401 0.929 . S
N367 Tb336 2.660 1_565 S
N367 C368 1.305 . S
N367 C372 1.360 1_455 S
C368 H360 0.930 1_565 S
C368 N367 1.305 . S
C368 C371 1.407 1_455 S
C369 H363 0.930 . S
C369 C370 1.410 . S
C369 C371 1.345 . S
C370 C369 1.410 . S
C370 C372 1.417 . S
C370 C402 1.432 1_554 S
C371 H357 0.930 . S
C371 C368 1.407 1_655 S
C371 C369 1.345 . S
C372 N367 1.360 1_655 S
C372 C370 1.417 . S
C372 C376 1.432 1_554 S
H373 C378 0.930 . S
N374 Tb336 2.600 1_566 S
N374 C376 1.359 1_455 S
N374 C377 1.327 . S
C375 H361 0.931 . S
C375 C377 1.392 1_655 S
C375 C378 1.370 . S
C376 C372 1.432 1_556 S
C376 N374 1.359 1_655 S
C376 C379 1.414 . S
C377 H359 0.898 1_565 S
C377 N374 1.327 . S
C377 C375 1.392 1_455 S
C378 H373 0.930 . S
C378 C375 1.370 . S
C378 C379 1.385 . S
C379 C376 1.414 . S
C379 C378 1.385 . S
C379 C401 1.444 . S
O380 Tb336 2.546 1_656 S
O380 C400 1.251 . S
O381 Tb336 2.610 . S
O381 Tb347 2.362 . S
O381 C392 1.283 . S
O382 Tb347 2.421 . S
O382 C399 1.262 . S
O383 Tb336 2.320 . S
O383 C399 1.260 . S
O384 Tb336 2.567 . S
O384 C392 1.265 . S
O385 Tb336 2.413 1_655 S
O385 C400 1.256 1_554 S
O386 Tb347 2.546 . S
O386 C411 1.251 . S
O387 Tb336 2.362 . S
O387 Tb347 2.610 . S
O387 C403 1.283 . S
O388 Tb336 2.421 1_556 S
O388 C410 1.262 . S
O389 Tb347 2.320 1_556 S
O389 C410 1.260 . S
O390 Tb347 2.552 . S
O390 C403 1.243 . S
O391 Tb347 2.413 . S
O391 C411 1.256 . S
C392 O381 1.283 . S
C392 O384 1.265 . S
C393 C395 1.382 1_556 S
C393 C397 1.393 . S
C393 C400 1.500 . S
C394 C395 1.400 1_556 S
C394 C396 1.384 . S
C395 C393 1.382 1_554 S
C395 C394 1.400 1_554 S
C395 H412 0.930 . S
C396 C394 1.384 . S
C396 C398 1.392 . S
C396 H413 0.931 . S
C397 C393 1.393 . S
C397 C398 1.401 . S
C397 H414 0.930 . S
C398 C396 1.392 . S
C398 C397 1.401 . S
C398 H415 0.930 . S
C399 O382 1.262 . S
C399 O383 1.260 . S
C400 Tb336 2.833 1_656 S
C400 O380 1.251 . S
C400 O385 1.256 1_556 S
C400 C393 1.500 . S
C401 H366 0.929 . S
C401 C379 1.444 . S
C401 C402 1.317 . S
C402 H364 0.930 1_556 S
C402 C370 1.432 1_556 S
C402 C401 1.317 . S
C403 O387 1.283 . S
C403 O390 1.243 . S
C404 C405 1.382 . S
C404 C408 1.393 . S
C404 C411 1.500 . S
C405 C404 1.382 . S
C405 C406 1.400 . S
C405 H416 0.930 . S
C406 C405 1.400 . S
C406 C407 1.384 . S
C407 C406 1.384 . S
C407 C409 1.392 . S
C407 H417 0.931 . S
C408 C404 1.393 . S
C408 C409 1.401 . S
C408 H418 0.930 . S
C409 C407 1.392 . S
C409 C408 1.401 . S
C409 H419 0.930 . S
C410 O388 1.262 . S
C410 O389 1.260 . S
C411 Tb347 2.833 . S
C411 O386 1.251 . S
C411 O391 1.256 . S
C411 C404 1.500 . S
H412 C395 0.930 . S
H413 C396 0.931 . S
H414 C397 0.930 . S
H415 C398 0.930 . S
H416 C405 0.930 . S
H417 C407 0.931 . S
H418 C408 0.930 . S
H419 C409 0.930 . S
Tb420 N451 2.660 . S
Tb420 N458 2.600 . S
Tb420 O464 2.546 . S
Tb420 O465 2.610 . S
Tb420 O467 2.320 . S
Tb420 O468 2.552 . S
Tb420 O469 2.413 . S
Tb420 O471 2.362 . S
Tb420 O472 2.421 . S
Tb420 C484 2.833 . S
C421 C424 1.432 . S
C421 C425 1.414 . S
C421 N428 1.359 . S
C422 C424 1.417 . S
C422 C426 1.432 . S
C422 C434 1.410 . S
C423 C425 1.444 . S
C423 C426 1.317 . S
C423 H446 0.929 . S
C424 C421 1.432 . S
C424 C422 1.417 . S
C424 N432 1.360 . S
C425 C421 1.414 . S
C425 C423 1.444 . S
C425 C430 1.385 . S
C426 C422 1.432 . S
C426 C423 1.317 . S
C426 H438 0.930 . S
C427 C429 1.392 . S
C427 C430 1.370 . S
C427 H439 0.931 . S
N428 C421 1.359 . S
N428 C429 1.327 . S
N428 Tb431 2.600 . S
C429 C427 1.392 . S
C429 N428 1.327 . S
C429 H436 0.930 . S
C430 C425 1.385 . S
C430 C427 1.370 . S
C430 H449 0.930 . S
Tb431 N428 2.600 . S
Tb431 N432 2.660 . S
Tb431 O465 2.362 . S
Tb431 O466 2.421 . S
Tb431 O470 2.546 . S
Tb431 O471 2.610 . S
Tb431 O473 2.320 . S
Tb431 O474 2.552 . S
Tb431 O475 2.413 . S
Tb431 C495 2.833 . S
N432 C424 1.360 . S
N432 Tb431 2.660 . S
N432 C433 1.305 . S
C433 N432 1.305 . S
C433 C435 1.407 . S
C433 H440 0.930 . S
C434 C422 1.410 . S
C434 C435 1.345 . S
C434 H442 0.930 . S
C435 C433 1.407 . S
C435 C434 1.345 . S
C435 H437 0.930 . S
H436 C429 0.930 . S
H437 C435 0.930 . S
H438 C426 0.930 . S
H439 C427 0.931 . S
H440 C433 0.930 . S
H441 C455 0.930 . S
H442 C434 0.930 . S
H443 C461 0.930 . S
H444 C452 0.930 . S
H445 C459 0.931 . S
H446 C423 0.929 . S
H447 C453 0.930 . S
H448 C486 0.930 . S
H449 C430 0.930 . S
H450 C485 0.929 . S
N451 Tb420 2.660 . S
N451 C452 1.305 . S
N451 C456 1.360 . S
C452 H444 0.930 . S
C452 N451 1.305 . S
C452 C455 1.407 . S
C453 H447 0.930 . S
C453 C454 1.410 . S
C453 C455 1.345 . S
C454 C453 1.410 . S
C454 C456 1.417 . S
C454 C486 1.432 . S
C455 H441 0.930 . S
C455 C452 1.407 . S
C455 C453 1.345 . S
C456 N451 1.360 . S
C456 C454 1.417 . S
C456 C460 1.432 . S
H457 C462 0.930 . S
N458 Tb420 2.600 . S
N458 C460 1.359 . S
N458 C461 1.327 . S
C459 H445 0.931 . S
C459 C461 1.392 . S
C459 C462 1.370 . S
C460 C456 1.432 . S
C460 N458 1.359 . S
C460 C463 1.414 . S
C461 H443 0.930 . S
C461 N458 1.327 . S
C461 C459 1.392 . S
C462 H457 0.930 . S
C462 C459 1.370 . S
C462 C463 1.385 . S
C463 C460 1.414 . S
C463 C462 1.385 . S
C463 C485 1.444 . S
O464 Tb420 2.546 . S
O464 C484 1.251 . S
O465 Tb420 2.610 . S
O465 Tb431 2.362 . S
O465 C476 1.283 . S
O466 Tb431 2.421 . S
O466 C483 1.262 . S
O467 Tb420 2.320 . S
O467 C483 1.260 . S
O468 Tb420 2.552 . S
O468 C476 1.243 . S
O469 Tb420 2.413 . S
O469 C484 1.256 . S
O470 Tb431 2.546 . S
O470 C495 1.251 . S
O471 Tb420 2.362 . S
O471 Tb431 2.610 . S
O471 C487 1.283 . S
O472 Tb420 2.421 . S
O472 C494 1.262 . S
O473 Tb431 2.320 . S
O473 C494 1.260 . S
O474 Tb431 2.552 . S
O474 C487 1.243 . S
O475 Tb431 2.413 . S
O475 C495 1.256 . S
C476 O465 1.283 . S
C476 O468 1.243 . S
C477 C479 1.382 . S
C477 C481 1.393 . S
C477 C484 1.500 . S
C478 C479 1.400 . S
C478 C480 1.384 . S
C479 C477 1.382 . S
C479 C478 1.400 . S
C479 H496 0.930 . S
C480 C478 1.384 . S
C480 C482 1.392 . S
C480 H497 0.931 . S
C481 C477 1.393 . S
C481 C482 1.401 . S
C481 H498 0.930 . S
C482 C480 1.392 . S
C482 C481 1.401 . S
C482 H499 0.930 . S
C483 O466 1.262 . S
C483 O467 1.260 . S
C484 Tb420 2.833 . S
C484 O464 1.251 . S
C484 O469 1.256 . S
C484 C477 1.500 . S
C485 H450 0.929 . S
C485 C463 1.444 . S
C485 C486 1.317 . S
C486 H448 0.930 . S
C486 C454 1.432 . S
C486 C485 1.317 . S
C487 O471 1.283 . S
C487 O474 1.243 . S
C488 C489 1.382 . S
C488 C492 1.393 . S
C488 C495 1.500 . S
C489 C488 1.382 . S
C489 C490 1.400 . S
C489 H500 0.930 . S
C490 C489 1.400 . S
C490 C491 1.384 . S
C491 C490 1.384 . S
C491 C493 1.392 . S
C491 H501 0.931 . S
C492 C488 1.393 . S
C492 C493 1.401 . S
C492 H502 0.930 . S
C493 C491 1.392 . S
C493 C492 1.401 . S
C493 H503 0.930 . S
C494 O472 1.262 . S
C494 O473 1.260 . S
C495 Tb431 2.833 . S
C495 O470 1.251 . S
C495 O475 1.256 . S
C495 C488 1.500 . S
H496 C479 0.930 . S
H497 C480 0.931 . S
H498 C481 0.930 . S
H499 C482 0.930 . S
H500 C489 0.930 . S
H501 C491 0.931 . S
H502 C492 0.930 . S
H503 C493 0.930 . S
Tb504 N535 2.660 . S
Tb504 N542 2.600 . S
Tb504 O548 2.546 . S
Tb504 O549 2.610 . S
Tb504 O551 2.320 . S
Tb504 O552 2.552 . S
Tb504 O553 2.413 . S
Tb504 O555 2.362 . S
Tb504 O556 2.421 . S
Tb504 C568 2.833 . S
C505 C508 1.432 . S
C505 C509 1.414 . S
C505 N512 1.359 1_565 S
C506 C508 1.417 . S
C506 C510 1.432 . S
C506 C518 1.410 . S
C507 C509 1.444 . S
C507 C510 1.317 . S
C507 H530 0.929 . S
C508 C505 1.432 . S
C508 C506 1.417 . S
C508 N516 1.360 1_565 S
C509 C505 1.414 . S
C509 C507 1.444 . S
C509 C514 1.385 . S
C510 C506 1.432 . S
C510 C507 1.317 . S
C510 H522 0.930 . S
C511 C513 1.392 . S
C511 C514 1.370 1_545 S
C511 H523 0.931 . S
N512 C505 1.359 1_545 S
N512 C513 1.327 . S
N512 Tb515 2.600 . S
C513 C511 1.392 . S
C513 N512 1.327 . S
C513 H520 0.930 . S
C514 C509 1.385 . S
C514 C511 1.370 1_565 S
C514 H533 0.930 . S
Tb515 N512 2.600 . S
Tb515 N516 2.660 . S
Tb515 O549 2.362 . S
Tb515 O550 2.421 . S
Tb515 O554 2.546 . S
Tb515 O555 2.610 . S
Tb515 O557 2.320 . S
Tb515 O558 2.552 . S
Tb515 O559 2.413 . S
Tb515 C579 2.833 . S
N516 C508 1.360 1_545 S
N516 Tb515 2.660 . S
N516 C517 1.305 1_545 S
C517 N516 1.305 1_565 S
C517 C519 1.407 . S
C517 H524 0.930 1_565 S
C518 C506 1.410 . S
C518 C519 1.345 . S
C518 H526 0.930 . S
C519 C517 1.407 . S
C519 C518 1.345 . S
C519 H521 0.930 . S
H520 C513 0.930 . S
H521 C519 0.930 . S
H522 C510 0.930 . S
H523 C511 0.931 . S
H524 C517 0.930 1_545 S
H525 C539 0.930 . S
H526 C518 0.930 . S
H527 C545 0.930 . S
H528 C536 0.930 . S
H529 C543 0.931 . S
H530 C507 0.929 . S
H531 C537 0.930 . S
H532 C570 0.930 . S
H533 C514 0.930 . S
H534 C569 0.929 . S
N535 Tb504 2.660 . S
N535 C536 1.305 . S
N535 C540 1.360 . S
C536 H528 0.930 . S
C536 N535 1.305 . S
C536 C539 1.407 . S
C537 H531 0.930 . S
C537 C538 1.410 . S
C537 C539 1.345 . S
C538 C537 1.410 . S
C538 C540 1.417 . S
C538 C570 1.432 . S
C539 H525 0.930 . S
C539 C536 1.407 . S
C539 C537 1.345 . S
C540 N535 1.360 . S
C540 C538 1.417 . S
C540 C544 1.432 . S
H541 C546 0.930 . S
N542 Tb504 2.600 . S
N542 C544 1.359 . S
N542 C545 1.327 . S
C543 H529 0.931 . S
C543 C545 1.392 . S
C543 C546 1.370 . S
C544 C540 1.432 . S
C544 N542 1.359 . S
C544 C547 1.414 . S
C545 H527 0.930 . S
C545 N542 1.327 . S
C545 C543 1.392 . S
C546 H541 0.930 . S
C546 C543 1.370 . S
C546 C547 1.385 . S
C547 C544 1.414 . S
C547 C546 1.385 . S
C547 C569 1.444 . S
O548 Tb504 2.546 . S
O548 C568 1.251 . S
O549 Tb504 2.610 . S
O549 Tb515 2.362 . S
O549 C560 1.283 . S
O550 Tb515 2.421 . S
O550 C567 1.262 . S
O551 Tb504 2.320 . S
O551 C567 1.260 . S
O552 Tb504 2.552 . S
O552 C560 1.243 . S
O553 Tb504 2.413 . S
O553 C568 1.256 . S
O554 Tb515 2.546 . S
O554 C579 1.251 . S
O555 Tb504 2.362 . S
O555 Tb515 2.610 . S
O555 C571 1.283 . S
O556 Tb504 2.421 . S
O556 C578 1.262 . S
O557 Tb515 2.320 . S
O557 C578 1.260 . S
O558 Tb515 2.552 . S
O558 C571 1.243 . S
O559 Tb515 2.413 . S
O559 C579 1.256 . S
C560 O549 1.283 . S
C560 O552 1.243 . S
C561 C563 1.382 . S
C561 C565 1.393 . S
C561 C568 1.500 . S
C562 C563 1.400 1_565 S
C562 C564 1.384 . S
C563 C561 1.382 . S
C563 C562 1.400 1_545 S
C563 H580 0.930 . S
C564 C562 1.384 . S
C564 C566 1.392 1_565 S
C564 H581 0.931 . S
C565 C561 1.393 . S
C565 C566 1.401 . S
C565 H582 0.930 . S
C566 C564 1.392 1_545 S
C566 C565 1.401 . S
C566 H583 0.930 . S
C567 O550 1.262 . S
C567 O551 1.260 . S
C568 Tb504 2.833 . S
C568 O548 1.251 . S
C568 O553 1.256 . S
C568 C561 1.500 . S
C569 H534 0.929 . S
C569 C547 1.444 . S
C569 C570 1.317 . S
C570 H532 0.930 . S
C570 C538 1.432 . S
C570 C569 1.317 . S
C571 O555 1.283 . S
C571 O558 1.243 . S
C572 C573 1.382 . S
C572 C576 1.393 . S
C572 C579 1.500 . S
C573 C572 1.382 . S
C573 C574 1.400 . S
C573 H584 0.930 . S
C574 C573 1.400 . S
C574 C575 1.384 . S
C575 C574 1.384 . S
C575 C577 1.392 . S
C575 H585 0.931 . S
C576 C572 1.393 . S
C576 C577 1.401 . S
C576 H586 0.930 . S
C577 C575 1.392 . S
C577 C576 1.401 . S
C577 H587 0.930 . S
C578 O556 1.262 . S
C578 O557 1.260 . S
C579 Tb515 2.833 . S
C579 O554 1.251 . S
C579 O559 1.256 . S
C579 C572 1.500 . S
H580 C563 0.930 . S
H581 C564 0.931 . S
H582 C565 0.930 . S
H583 C566 0.930 . S
H584 C573 0.930 . S
H585 C575 0.931 . S
H586 C576 0.930 . S
H587 C577 0.930 . S
Tb588 N619 2.660 . S
Tb588 N626 2.600 . S
Tb588 O632 2.546 . S
Tb588 O633 2.610 . S
Tb588 O635 2.320 . S
Tb588 O636 2.552 . S
Tb588 O637 2.413 . S
Tb588 O639 2.362 . S
Tb588 O640 2.421 . S
Tb588 C652 2.833 . S
C589 C592 1.432 . S
C589 C593 1.414 . S
C589 N596 1.359 . S
C590 C592 1.417 . S
C590 C594 1.432 . S
C590 C602 1.410 . S
C591 C593 1.444 . S
C591 C594 1.317 . S
C591 H614 0.929 . S
C592 C589 1.432 . S
C592 C590 1.417 . S
C592 N600 1.360 . S
C593 C589 1.414 . S
C593 C591 1.444 . S
C593 C598 1.385 . S
C594 C590 1.432 . S
C594 C591 1.317 . S
C594 H606 0.930 . S
C595 C597 1.392 . S
C595 C598 1.370 . S
C595 H607 0.931 . S
N596 C589 1.359 . S
N596 C597 1.327 . S
N596 Tb599 2.600 . S
C597 C595 1.392 . S
C597 N596 1.327 . S
C597 H604 0.930 . S
C598 C593 1.385 . S
C598 C595 1.370 . S
C598 H617 0.930 . S
Tb599 N596 2.600 . S
Tb599 N600 2.660 . S
Tb599 O633 2.362 . S
Tb599 O634 2.421 . S
Tb599 O638 2.546 . S
Tb599 O639 2.610 . S
Tb599 O641 2.320 . S
Tb599 O642 2.552 . S
Tb599 O643 2.413 . S
Tb599 C663 2.833 . S
N600 C592 1.360 . S
N600 Tb599 2.660 . S
N600 C601 1.305 . S
C601 N600 1.305 . S
C601 C603 1.407 . S
C601 H608 0.930 . S
C602 C590 1.410 . S
C602 C603 1.345 . S
C602 H610 0.930 . S
C603 C601 1.407 . S
C603 C602 1.345 . S
C603 H605 0.930 . S
H604 C597 0.930 . S
H605 C603 0.930 . S
H606 C594 0.930 . S
H607 C595 0.931 . S
H608 C601 0.930 . S
H609 C623 0.930 . S
H610 C602 0.930 . S
H611 C629 0.930 . S
H612 C620 0.930 . S
H613 C627 0.931 . S
H614 C591 0.929 . S
H615 C621 0.930 . S
H616 C654 0.930 . S
H617 C598 0.930 . S
H618 C653 0.929 . S
N619 Tb588 2.660 . S
N619 C620 1.305 . S
N619 C624 1.360 . S
C620 H612 0.930 . S
C620 N619 1.305 . S
C620 C623 1.407 . S
C621 H615 0.930 . S
C621 C622 1.410 . S
C621 C623 1.345 . S
C622 C621 1.410 . S
C622 C624 1.417 . S
C622 C654 1.432 . S
C623 H609 0.930 . S
C623 C620 1.407 . S
C623 C621 1.345 . S
C624 N619 1.360 . S
C624 C622 1.417 . S
C624 C628 1.432 . S
H625 C630 0.930 . S
N626 Tb588 2.600 . S
N626 C628 1.359 . S
N626 C629 1.327 . S
C627 H613 0.931 . S
C627 C629 1.392 . S
C627 C630 1.370 . S
C628 C624 1.432 . S
C628 N626 1.359 . S
C628 C631 1.414 . S
C629 H611 0.930 . S
C629 N626 1.327 . S
C629 C627 1.392 . S
C630 H625 0.930 . S
C630 C627 1.370 . S
C630 C631 1.385 . S
C631 C628 1.414 . S
C631 C630 1.385 . S
C631 C653 1.444 . S
O632 Tb588 2.546 . S
O632 C652 1.251 . S
O633 Tb588 2.610 . S
O633 Tb599 2.362 . S
O633 C644 1.283 . S
O634 Tb599 2.421 . S
O634 C651 1.262 . S
O635 Tb588 2.320 . S
O635 C651 1.260 . S
O636 Tb588 2.552 . S
O636 C644 1.243 . S
O637 Tb588 2.413 . S
O637 C652 1.256 . S
O638 Tb599 2.546 . S
O638 C663 1.251 . S
O639 Tb588 2.362 . S
O639 Tb599 2.610 . S
O639 C655 1.283 . S
O640 Tb588 2.421 . S
O640 C662 1.262 . S
O641 Tb599 2.320 . S
O641 C662 1.260 . S
O642 Tb599 2.552 . S
O642 C655 1.243 . S
O643 Tb599 2.413 . S
O643 C663 1.256 . S
C644 O633 1.283 . S
C644 O636 1.243 . S
C645 C647 1.382 . S
C645 C649 1.393 . S
C645 C652 1.500 . S
C646 C647 1.400 . S
C646 C648 1.384 . S
C647 C645 1.382 . S
C647 C646 1.400 . S
C647 H664 0.930 . S
C648 C646 1.384 . S
C648 C650 1.392 . S
C648 H665 0.931 . S
C649 C645 1.393 . S
C649 C650 1.401 . S
C649 H666 0.930 . S
C650 C648 1.392 . S
C650 C649 1.401 . S
C650 H667 0.930 . S
C651 O634 1.262 . S
C651 O635 1.260 . S
C652 Tb588 2.833 . S
C652 O632 1.251 . S
C652 O637 1.256 . S
C652 C645 1.500 . S
C653 H618 0.929 . S
C653 C631 1.444 . S
C653 C654 1.317 . S
C654 H616 0.930 . S
C654 C622 1.432 . S
C654 C653 1.317 . S
C655 O639 1.283 . S
C655 O642 1.243 . S
C656 C657 1.382 . S
C656 C660 1.393 . S
C656 C663 1.500 . S
C657 C656 1.382 . S
C657 C658 1.400 . S
C657 H668 0.930 . S
C658 C657 1.400 . S
C658 C659 1.384 . S
C659 C658 1.384 . S
C659 C661 1.392 . S
C659 H669 0.931 . S
C660 C656 1.393 . S
C660 C661 1.401 . S
C660 H670 0.930 . S
C661 C659 1.392 . S
C661 C660 1.401 . S
C661 H671 0.930 . S
C662 O640 1.262 . S
C662 O641 1.260 . S
C663 Tb599 2.833 . S
C663 O638 1.251 . S
C663 O643 1.256 . S
C663 C656 1.500 . S
H664 C647 0.930 . S
H665 C648 0.931 . S
H666 C649 0.930 . S
H667 C650 0.930 . S
H668 C657 0.930 . S
H669 C659 0.931 . S
H670 C660 0.930 . S
H671 C661 0.930 . S
Tb672 N703 2.660 . S
Tb672 N710 2.600 . S
Tb672 O716 2.546 . S
Tb672 O717 2.610 . S
Tb672 O719 2.320 . S
Tb672 O720 2.552 . S
Tb672 O721 2.413 . S
Tb672 O723 2.362 . S
Tb672 O724 2.421 . S
Tb672 C736 2.833 . S
C673 C676 1.432 . S
C673 C677 1.414 . S
C673 N680 1.359 . S
C674 C676 1.417 . S
C674 C678 1.432 . S
C674 C686 1.410 . S
C675 C677 1.444 . S
C675 C678 1.317 . S
C675 H698 0.929 . S
C676 C673 1.432 . S
C676 C674 1.417 . S
C676 N684 1.360 . S
C677 C673 1.414 . S
C677 C675 1.444 . S
C677 C682 1.385 . S
C678 C674 1.432 . S
C678 C675 1.317 . S
C678 H690 0.930 . S
C679 C681 1.401 . S
C679 C682 1.370 . S
C679 H691 0.931 . S
N680 C673 1.359 . S
N680 C681 1.324 . S
N680 Tb683 2.600 1_565 S
C681 C679 1.401 . S
C681 N680 1.324 . S
C681 H688 0.924 1_565 S
C682 C677 1.385 . S
C682 C679 1.370 . S
C682 H701 0.930 . S
Tb683 N680 2.600 1_545 S
Tb683 N684 2.660 1_545 S
Tb683 O717 2.362 . S
Tb683 O718 2.421 . S
Tb683 O722 2.546 1_545 S
Tb683 O723 2.610 . S
Tb683 O725 2.320 . S
Tb683 O726 2.552 . S
Tb683 O727 2.413 1_545 S
Tb683 C747 2.833 1_545 S
N684 C676 1.360 . S
N684 Tb683 2.660 1_565 S
N684 C685 1.305 . S
C685 N684 1.305 . S
C685 C687 1.407 1_455 S
C685 H692 0.930 . S
C686 C674 1.410 . S
C686 C687 1.345 1_455 S
C686 H694 0.930 1_455 S
C687 C685 1.407 1_655 S
C687 C686 1.345 1_655 S
C687 H689 0.930 . S
H688 C681 0.924 1_545 S
H689 C687 0.930 . S
H690 C678 0.930 . S
H691 C679 0.931 . S
H692 C685 0.930 . S
H693 C707 0.930 . S
H694 C686 0.930 1_655 S
H695 C713 0.930 1_655 S
H696 C704 0.930 . S
H697 C711 0.931 . S
H698 C675 0.929 . S
H699 C705 0.930 . S
H700 C738 0.930 . S
H701 C682 0.930 . S
H702 C737 0.929 . S
N703 Tb672 2.660 . S
N703 C704 1.305 . S
N703 C708 1.360 . S
C704 H696 0.930 . S
C704 N703 1.305 . S
C704 C707 1.407 . S
C705 H699 0.930 . S
C705 C706 1.410 . S
C705 C707 1.345 . S
C706 C705 1.410 . S
C706 C708 1.417 . S
C706 C738 1.432 . S
C707 H693 0.930 . S
C707 C704 1.407 . S
C707 C705 1.345 . S
C708 N703 1.360 . S
C708 C706 1.417 . S
C708 C712 1.432 . S
H709 C714 0.930 . S
N710 Tb672 2.600 . S
N710 C712 1.359 . S
N710 C713 1.327 . S
C711 H697 0.931 . S
C711 C713 1.392 1_655 S
C711 C714 1.370 1_655 S
C712 C708 1.432 . S
C712 N710 1.359 . S
C712 C715 1.414 . S
C713 H695 0.930 1_455 S
C713 N710 1.327 . S
C713 C711 1.392 1_455 S
C714 H709 0.930 . S
C714 C711 1.370 1_455 S
C714 C715 1.385 . S
C715 C712 1.414 . S
C715 C714 1.385 . S
C715 C737 1.444 . S
O716 Tb672 2.546 . S
O716 C736 1.251 . S
O717 Tb672 2.610 . S
O717 Tb683 2.362 . S
O717 C728 1.283 . S
O718 Tb683 2.421 . S
O718 C735 1.262 . S
O719 Tb672 2.320 . S
O719 C735 1.260 . S
O720 Tb672 2.552 . S
O720 C728 1.243 . S
O721 Tb672 2.413 . S
O721 C736 1.256 . S
O722 Tb683 2.546 1_565 S
O722 C747 1.251 . S
O723 Tb672 2.362 . S
O723 Tb683 2.610 . S
O723 C739 1.283 . S
O724 Tb672 2.421 . S
O724 C746 1.262 . S
O725 Tb683 2.320 . S
O725 C746 1.260 . S
O726 Tb683 2.552 . S
O726 C739 1.243 . S
O727 Tb683 2.413 1_565 S
O727 C747 1.256 . S
C728 O717 1.283 . S
C728 O720 1.243 . S
C729 C731 1.382 . S
C729 C733 1.393 . S
C729 C736 1.500 . S
C730 C731 1.400 . S
C730 C732 1.384 . S
C731 C729 1.382 . S
C731 C730 1.400 . S
C731 H748 0.930 . S
C732 C730 1.384 . S
C732 C734 1.392 . S
C732 H749 0.931 . S
C733 C729 1.393 . S
C733 C734 1.401 . S
C733 H750 0.930 . S
C734 C732 1.392 . S
C734 C733 1.401 . S
C734 H751 0.930 . S
C735 O718 1.262 . S
C735 O719 1.260 . S
C736 Tb672 2.833 . S
C736 O716 1.251 . S
C736 O721 1.256 . S
C736 C729 1.500 . S
C737 H702 0.929 . S
C737 C715 1.444 . S
C737 C738 1.317 . S
C738 H700 0.930 . S
C738 C706 1.432 . S
C738 C737 1.317 . S
C739 O723 1.283 . S
C739 O726 1.243 . S
C740 C741 1.382 . S
C740 C744 1.393 . S
C740 C747 1.500 . S
C741 C740 1.382 . S
C741 C742 1.400 . S
C741 H752 0.930 . S
C742 C741 1.400 . S
C742 C743 1.384 . S
C743 C742 1.384 . S
C743 C745 1.392 . S
C743 H753 0.931 . S
C744 C740 1.393 . S
C744 C745 1.401 . S
C744 H754 0.930 . S
C745 C743 1.392 . S
C745 C744 1.401 . S
C745 H755 0.930 . S
C746 O724 1.262 . S
C746 O725 1.260 . S
C747 Tb683 2.833 1_565 S
C747 O722 1.251 . S
C747 O727 1.256 . S
C747 C740 1.500 . S
H748 C731 0.930 . S
H749 C732 0.931 . S
H750 C733 0.930 . S
H751 C734 0.930 . S
H752 C741 0.930 . S
H753 C743 0.931 . S
H754 C744 0.930 . S
H755 C745 0.930 . S
Tb756 N787 2.660 . S
Tb756 N794 2.600 . S
Tb756 O800 2.546 . S
Tb756 O801 2.610 . S
Tb756 O803 2.320 . S
Tb756 O804 2.552 . S
Tb756 O805 2.413 . S
Tb756 O807 2.362 . S
Tb756 O808 2.421 . S
Tb756 C820 2.833 . S
C757 C760 1.432 . S
C757 C761 1.414 . S
C757 N764 1.359 . S
C758 C760 1.417 . S
C758 C762 1.432 . S
C758 C770 1.410 . S
C759 C761 1.444 . S
C759 C762 1.317 . S
C759 H782 0.929 . S
C760 C757 1.432 . S
C760 C758 1.417 . S
C760 N768 1.360 . S
C761 C757 1.414 . S
C761 C759 1.444 . S
C761 C766 1.385 . S
C762 C758 1.432 . S
C762 C759 1.317 . S
C762 H774 0.930 . S
C763 C765 1.392 . S
C763 C766 1.370 . S
C763 H775 0.931 . S
N764 C757 1.359 . S
N764 C765 1.327 . S
N764 Tb767 2.600 . S
C765 C763 1.392 . S
C765 N764 1.327 . S
C765 H772 0.930 . S
C766 C761 1.385 . S
C766 C763 1.370 . S
C766 H785 0.930 . S
Tb767 N764 2.600 . S
Tb767 N768 2.660 . S
Tb767 O801 2.362 . S
Tb767 O802 2.421 . S
Tb767 O806 2.546 . S
Tb767 O807 2.610 . S
Tb767 O809 2.320 . S
Tb767 O810 2.552 . S
Tb767 O811 2.413 . S
Tb767 C831 2.833 . S
N768 C760 1.360 . S
N768 Tb767 2.660 . S
N768 C769 1.305 . S
C769 N768 1.305 . S
C769 C771 1.407 . S
C769 H776 0.930 . S
C770 C758 1.410 . S
C770 C771 1.345 . S
C770 H778 0.930 . S
C771 C769 1.407 . S
C771 C770 1.345 . S
C771 H773 0.930 . S
H772 C765 0.930 . S
H773 C771 0.930 . S
H774 C762 0.930 . S
H775 C763 0.931 . S
H776 C769 0.930 . S
H777 C791 0.930 . S
H778 C770 0.930 . S
H779 C797 0.930 . S
H780 C788 0.930 . S
H781 C795 0.931 . S
H782 C759 0.929 . S
H783 C789 0.930 . S
H784 C822 0.930 . S
H785 C766 0.930 . S
H786 C821 0.929 . S
N787 Tb756 2.660 . S
N787 C788 1.305 . S
N787 C792 1.360 . S
C788 H780 0.930 . S
C788 N787 1.305 . S
C788 C791 1.407 . S
C789 H783 0.930 . S
C789 C790 1.410 . S
C789 C791 1.345 . S
C790 C789 1.410 . S
C790 C792 1.417 . S
C790 C822 1.432 . S
C791 H777 0.930 . S
C791 C788 1.407 . S
C791 C789 1.345 . S
C792 N787 1.360 . S
C792 C790 1.417 . S
C792 C796 1.432 . S
H793 C798 0.930 . S
N794 Tb756 2.600 . S
N794 C796 1.359 . S
N794 C797 1.327 . S
C795 H781 0.931 . S
C795 C797 1.392 . S
C795 C798 1.370 . S
C796 C792 1.432 . S
C796 N794 1.359 . S
C796 C799 1.414 . S
C797 H779 0.930 . S
C797 N794 1.327 . S
C797 C795 1.392 . S
C798 H793 0.930 . S
C798 C795 1.370 . S
C798 C799 1.385 . S
C799 C796 1.414 . S
C799 C798 1.385 . S
C799 C821 1.444 . S
O800 Tb756 2.546 . S
O800 C820 1.251 . S
O801 Tb756 2.610 . S
O801 Tb767 2.362 . S
O801 C812 1.283 . S
O802 Tb767 2.421 . S
O802 C819 1.262 . S
O803 Tb756 2.320 . S
O803 C819 1.260 . S
O804 Tb756 2.552 . S
O804 C812 1.243 . S
O805 Tb756 2.413 . S
O805 C820 1.256 . S
O806 Tb767 2.546 . S
O806 C831 1.251 . S
O807 Tb756 2.362 . S
O807 Tb767 2.610 . S
O807 C823 1.283 . S
O808 Tb756 2.421 . S
O808 C830 1.262 . S
O809 Tb767 2.320 . S
O809 C830 1.260 . S
O810 Tb767 2.552 . S
O810 C823 1.243 . S
O811 Tb767 2.413 . S
O811 C831 1.256 . S
C812 O801 1.283 . S
C812 O804 1.243 . S
C813 C815 1.382 . S
C813 C817 1.393 . S
C813 C820 1.500 . S
C814 C815 1.400 . S
C814 C816 1.384 . S
C815 C813 1.382 . S
C815 C814 1.400 . S
C815 H832 0.930 . S
C816 C814 1.384 . S
C816 C818 1.392 . S
C816 H833 0.931 . S
C817 C813 1.393 . S
C817 C818 1.401 . S
C817 H834 0.930 . S
C818 C816 1.392 . S
C818 C817 1.401 . S
C818 H835 0.930 . S
C819 O802 1.262 . S
C819 O803 1.260 . S
C820 Tb756 2.833 . S
C820 O800 1.251 . S
C820 O805 1.256 . S
C820 C813 1.500 . S
C821 H786 0.929 . S
C821 C799 1.444 . S
C821 C822 1.317 . S
C822 H784 0.930 . S
C822 C790 1.432 . S
C822 C821 1.317 . S
C823 O807 1.283 . S
C823 O810 1.243 . S
C824 C825 1.382 . S
C824 C828 1.393 . S
C824 C831 1.500 . S
C825 C824 1.382 . S
C825 C826 1.400 . S
C825 H836 0.930 . S
C826 C825 1.400 . S
C826 C827 1.384 . S
C827 C826 1.384 . S
C827 C829 1.392 . S
C827 H837 0.931 . S
C828 C824 1.393 . S
C828 C829 1.401 . S
C828 H838 0.930 . S
C829 C827 1.392 . S
C829 C828 1.401 . S
C829 H839 0.930 . S
C830 O808 1.262 . S
C830 O809 1.260 . S
C831 Tb767 2.833 . S
C831 O806 1.251 . S
C831 O811 1.256 . S
C831 C824 1.500 . S
H832 C815 0.930 . S
H833 C816 0.931 . S
H834 C817 0.930 . S
H835 C818 0.930 . S
H836 C825 0.930 . S
H837 C827 0.931 . S
H838 C828 0.930 . S
H839 C829 0.930 . S
Tb840 N871 2.660 . S
Tb840 N878 2.600 . S
Tb840 O884 2.546 . S
Tb840 O885 2.610 . S
Tb840 O887 2.320 . S
Tb840 O888 2.552 . S
Tb840 O889 2.413 . S
Tb840 O891 2.362 . S
Tb840 O892 2.421 1_545 S
Tb840 C904 2.833 . S
C841 C844 1.432 . S
C841 C845 1.414 . S
C841 N848 1.359 . S
C842 C844 1.417 . S
C842 C846 1.432 . S
C842 C854 1.410 1_545 S
C843 C845 1.444 . S
C843 C846 1.317 . S
C843 H866 0.929 . S
C844 C841 1.432 . S
C844 C842 1.417 . S
C844 N852 1.360 . S
C845 C841 1.414 . S
C845 C843 1.444 . S
C845 C850 1.385 . S
C846 C842 1.432 . S
C846 C843 1.317 . S
C846 H858 0.930 . S
C847 C849 1.392 . S
C847 C850 1.370 . S
C847 H859 0.931 . S
N848 C841 1.359 . S
N848 C849 1.327 . S
N848 Tb851 2.600 . S
C849 C847 1.392 . S
C849 N848 1.327 . S
C849 H856 0.930 . S
C850 C845 1.385 . S
C850 C847 1.370 . S
C850 H869 0.930 . S
Tb851 N848 2.600 . S
Tb851 N852 2.660 . S
Tb851 O885 2.362 1_556 S
Tb851 O886 2.421 1_556 S
Tb851 O890 2.546 . S
Tb851 O891 2.610 1_556 S
Tb851 O893 2.320 . S
Tb851 O894 2.552 . S
Tb851 O895 2.413 . S
Tb851 C915 2.833 . S
N852 C844 1.360 . S
N852 Tb851 2.660 . S
N852 C853 1.305 1_545 S
C853 N852 1.305 1_565 S
C853 C855 1.407 . S
C853 H860 0.930 . S
C854 C842 1.410 1_565 S
C854 C855 1.345 . S
C854 H862 0.930 . S
C855 C853 1.407 . S
C855 C854 1.345 . S
C855 H857 0.930 . S
H856 C849 0.930 . S
H857 C855 0.930 . S
H858 C846 0.930 . S
H859 C847 0.931 . S
H860 C853 0.930 . S
H861 C875 0.930 . S
H862 C854 0.930 . S
H863 C881 0.930 . S
H864 C872 0.930 . S
H865 C879 0.931 . S
H866 C843 0.929 . S
H867 C873 0.930 . S
H868 C906 0.930 . S
H869 C850 0.930 . S
H870 C905 0.929 . S
N871 Tb840 2.660 . S
N871 C872 1.305 . S
N871 C876 1.360 . S
C872 H864 0.930 . S
C872 N871 1.305 . S
C872 C875 1.407 . S
C873 H867 0.930 . S
C873 C874 1.410 . S
C873 C875 1.345 . S
C874 C873 1.410 . S
C874 C876 1.417 . S
C874 C906 1.432 . S
C875 H861 0.930 . S
C875 C872 1.407 . S
C875 C873 1.345 . S
C876 N871 1.360 . S
C876 C874 1.417 . S
C876 C880 1.432 . S
H877 C882 0.930 . S
N878 Tb840 2.600 . S
N878 C880 1.359 . S
N878 C881 1.327 1_545 S
C879 H865 0.931 . S
C879 C881 1.392 . S
C879 C882 1.370 . S
C880 C876 1.432 . S
C880 N878 1.359 . S
C880 C883 1.414 . S
C881 H863 0.930 . S
C881 N878 1.327 1_565 S
C881 C879 1.392 . S
C882 H877 0.930 . S
C882 C879 1.370 . S
C882 C883 1.385 1_565 S
C883 C880 1.414 . S
C883 C882 1.385 1_545 S
C883 C905 1.444 . S
O884 Tb840 2.546 . S
O884 C904 1.251 . S
O885 Tb840 2.610 . S
O885 Tb851 2.362 1_554 S
O885 C896 1.283 . S
O886 Tb851 2.421 1_554 S
O886 C903 1.262 . S
O887 Tb840 2.320 . S
O887 C903 1.260 . S
O888 Tb840 2.552 . S
O888 C896 1.243 . S
O889 Tb840 2.413 . S
O889 C904 1.256 . S
O890 Tb851 2.546 . S
O890 C915 1.251 . S
O891 Tb840 2.362 . S
O891 Tb851 2.610 1_554 S
O891 C907 1.283 . S
O892 Tb840 2.421 1_565 S
O892 C914 1.263 1_564 S
O893 Tb851 2.320 . S
O893 C914 1.257 . S
O894 Tb851 2.552 . S
O894 C907 1.243 1_556 S
O895 Tb851 2.413 . S
O895 C915 1.256 . S
C896 O885 1.283 . S
C896 O888 1.243 . S
C897 C899 1.382 . S
C897 C901 1.393 1_545 S
C897 C904 1.500 . S
C898 C899 1.400 . S
C898 C900 1.384 . S
C899 C897 1.382 . S
C899 C898 1.400 . S
C899 H916 0.930 . S
C900 C898 1.384 . S
C900 C902 1.392 1_545 S
C900 H917 0.941 . S
C901 C897 1.393 1_565 S
C901 C902 1.401 . S
C901 H918 0.930 . S
C902 C900 1.392 1_565 S
C902 C901 1.401 . S
C902 H919 0.930 . S
C903 O886 1.262 . S
C903 O887 1.260 . S
C904 Tb840 2.833 . S
C904 O884 1.251 . S
C904 O889 1.256 . S
C904 C897 1.500 . S
C905 H870 0.929 . S
C905 C883 1.444 . S
C905 C906 1.317 . S
C906 H868 0.930 . S
C906 C874 1.432 . S
C906 C905 1.317 . S
C907 O891 1.283 . S
C907 O894 1.243 1_554 S
C908 C909 1.382 . S
C908 C912 1.393 . S
C908 C915 1.500 . S
C909 C908 1.382 . S
C909 C910 1.400 . S
C909 H920 0.930 . S
C910 C909 1.400 . S
C910 C911 1.384 . S
C911 C910 1.384 . S
C911 C913 1.392 . S
C911 H921 0.931 . S
C912 C908 1.393 . S
C912 C913 1.401 . S
C912 H922 0.930 . S
C913 C911 1.392 . S
C913 C912 1.401 . S
C913 H923 0.930 . S
C914 O892 1.263 1_546 S
C914 O893 1.257 . S
C915 Tb851 2.833 . S
C915 O890 1.251 . S
C915 O895 1.256 . S
C915 C908 1.500 . S
H916 C899 0.930 . S
H917 C900 0.941 . S
H918 C901 0.930 . S
H919 C902 0.930 . S
H920 C909 0.930 . S
H921 C911 0.931 . S
H922 C912 0.930 . S
H923 C913 0.930 . S
Tb924 N955 2.660 . S
Tb924 N962 2.600 . S
Tb924 O968 2.546 . S
Tb924 O969 2.610 . S
Tb924 O971 2.320 . S
Tb924 O972 2.552 . S
Tb924 O973 2.413 . S
Tb924 O975 2.362 . S
Tb924 O976 2.421 . S
Tb924 C988 2.833 . S
C925 C928 1.432 . S
C925 C929 1.414 . S
C925 N932 1.359 . S
C926 C928 1.417 . S
C926 C930 1.432 . S
C926 C938 1.410 . S
C927 C929 1.444 . S
C927 C930 1.317 . S
C927 H950 0.929 . S
C928 C925 1.432 . S
C928 C926 1.417 . S
C928 N936 1.360 . S
C929 C925 1.414 . S
C929 C927 1.444 . S
C929 C934 1.385 . S
C930 C926 1.432 . S
C930 C927 1.317 . S
C930 H942 0.930 . S
C931 C933 1.392 . S
C931 C934 1.370 . S
C931 H943 0.931 . S
N932 C925 1.359 . S
N932 C933 1.327 . S
N932 Tb935 2.600 . S
C933 C931 1.392 . S
C933 N932 1.327 . S
C933 H940 0.930 . S
C934 C929 1.385 . S
C934 C931 1.370 . S
C934 H953 0.930 . S
Tb935 N932 2.600 . S
Tb935 N936 2.660 . S
Tb935 O969 2.362 . S
Tb935 O970 2.421 . S
Tb935 O974 2.546 . S
Tb935 O975 2.610 . S
Tb935 O977 2.320 . S
Tb935 O978 2.552 . S
Tb935 O979 2.413 . S
Tb935 C999 2.833 . S
N936 C928 1.360 . S
N936 Tb935 2.660 . S
N936 C937 1.305 . S
C937 N936 1.305 . S
C937 C939 1.407 . S
C937 H944 0.930 . S
C938 C926 1.410 . S
C938 C939 1.345 . S
C938 H946 0.930 . S
C939 C937 1.407 . S
C939 C938 1.345 . S
C939 H941 0.930 . S
H940 C933 0.930 . S
H941 C939 0.930 . S
H942 C930 0.930 . S
H943 C931 0.931 . S
H944 C937 0.930 . S
H945 C959 0.930 . S
H946 C938 0.930 . S
H947 C965 0.930 . S
H948 C956 0.930 . S
H949 C963 0.931 . S
H950 C927 0.929 . S
H951 C957 0.930 . S
H952 C990 0.930 . S
H953 C934 0.930 . S
H954 C989 0.929 . S
N955 Tb924 2.660 . S
N955 C956 1.305 . S
N955 C960 1.360 . S
C956 H948 0.930 . S
C956 N955 1.305 . S
C956 C959 1.407 . S
C957 H951 0.930 . S
C957 C958 1.410 . S
C957 C959 1.345 . S
C958 C957 1.410 . S
C958 C960 1.417 . S
C958 C990 1.432 . S
C959 H945 0.930 . S
C959 C956 1.407 . S
C959 C957 1.345 . S
C960 N955 1.360 . S
C960 C958 1.417 . S
C960 C964 1.432 . S
H961 C966 0.930 . S
N962 Tb924 2.600 . S
N962 C964 1.359 . S
N962 C965 1.327 . S
C963 H949 0.931 . S
C963 C965 1.392 . S
C963 C966 1.370 . S
C964 C960 1.432 . S
C964 N962 1.359 . S
C964 C967 1.414 . S
C965 H947 0.930 . S
C965 N962 1.327 . S
C965 C963 1.392 . S
C966 H961 0.930 . S
C966 C963 1.370 . S
C966 C967 1.385 . S
C967 C964 1.414 . S
C967 C966 1.385 . S
C967 C989 1.444 . S
O968 Tb924 2.546 . S
O968 C988 1.251 . S
O969 Tb924 2.610 . S
O969 Tb935 2.362 . S
O969 C980 1.283 . S
O970 Tb935 2.421 . S
O970 C987 1.262 . S
O971 Tb924 2.320 . S
O971 C987 1.260 . S
O972 Tb924 2.552 . S
O972 C980 1.243 . S
O973 Tb924 2.413 . S
O973 C988 1.256 . S
O974 Tb935 2.546 . S
O974 C999 1.251 . S
O975 Tb924 2.362 . S
O975 Tb935 2.610 . S
O975 C991 1.283 . S
O976 Tb924 2.421 . S
O976 C998 1.262 . S
O977 Tb935 2.320 . S
O977 C998 1.260 . S
O978 Tb935 2.552 . S
O978 C991 1.243 . S
O979 Tb935 2.413 . S
O979 C999 1.256 . S
C980 O969 1.283 . S
C980 O972 1.243 . S
C981 C983 1.382 . S
C981 C985 1.393 . S
C981 C988 1.500 . S
C982 C983 1.400 . S
C982 C984 1.384 . S
C983 C981 1.382 . S
C983 C982 1.400 . S
C983 H1000 0.930 . S
C984 C982 1.384 . S
C984 C986 1.392 . S
C984 H1001 0.931 . S
C985 C981 1.393 . S
C985 C986 1.401 . S
C985 H1002 0.930 . S
C986 C984 1.392 . S
C986 C985 1.401 . S
C986 H1003 0.930 . S
C987 O970 1.262 . S
C987 O971 1.260 . S
C988 Tb924 2.833 . S
C988 O968 1.251 . S
C988 O973 1.256 . S
C988 C981 1.500 . S
C989 H954 0.929 . S
C989 C967 1.444 . S
C989 C990 1.317 . S
C990 H952 0.930 . S
C990 C958 1.432 . S
C990 C989 1.317 . S
C991 O975 1.283 . S
C991 O978 1.243 . S
C992 C993 1.382 . S
C992 C996 1.393 . S
C992 C999 1.500 . S
C993 C992 1.382 . S
C993 C994 1.400 . S
C993 H1004 0.930 . S
C994 C993 1.400 . S
C994 C995 1.384 . S
C995 C994 1.384 . S
C995 C997 1.392 . S
C995 H1005 0.931 . S
C996 C992 1.393 . S
C996 C997 1.401 . S
C996 H1006 0.930 . S
C997 C995 1.392 . S
C997 C996 1.401 . S
C997 H1007 0.930 . S
C998 O976 1.262 . S
C998 O977 1.260 . S
C999 Tb935 2.833 . S
C999 O974 1.251 . S
C999 O979 1.256 . S
C999 C992 1.500 . S
H1000 C983 0.930 . S
H1001 C984 0.931 . S
H1002 C985 0.930 . S
H1003 C986 0.930 . S
H1004 C993 0.930 . S
H1005 C995 0.931 . S
H1006 C996 0.930 . S
H1007 C997 0.930 . S
Tb1008 N1039 2.660 . S
Tb1008 N1046 2.600 . S
Tb1008 O1052 2.546 . S
Tb1008 O1053 2.610 1_554 S
Tb1008 O1055 2.320 . S
Tb1008 O1056 2.552 1_554 S
Tb1008 O1057 2.413 . S
Tb1008 O1059 2.362 . S
Tb1008 O1060 2.421 . S
Tb1008 C1072 2.833 . S
C1009 C1012 1.432 . S
C1009 C1013 1.414 . S
C1009 N1016 1.359 . S
C1010 C1012 1.417 . S
C1010 C1014 1.432 . S
C1010 C1022 1.410 . S
C1011 C1013 1.444 . S
C1011 C1014 1.317 . S
C1011 H1034 0.929 . S
C1012 C1009 1.432 . S
C1012 C1010 1.417 . S
C1012 N1020 1.360 . S
C1013 C1009 1.414 . S
C1013 C1011 1.444 . S
C1013 C1018 1.385 . S
C1014 C1010 1.432 . S
C1014 C1011 1.317 . S
C1014 H1026 0.930 . S
C1015 C1017 1.392 . S
C1015 C1018 1.370 . S
C1015 H1027 0.931 . S
N1016 C1009 1.359 . S
N1016 C1017 1.327 . S
N1016 Tb1019 2.600 1_556 S
C1017 C1015 1.392 . S
C1017 N1016 1.327 . S
C1017 H1024 0.930 . S
C1018 C1013 1.385 . S
C1018 C1015 1.370 . S
C1018 H1037 0.930 . S
Tb1019 N1016 2.600 1_554 S
Tb1019 N1020 2.660 1_554 S
Tb1019 O1053 2.362 1_554 S
Tb1019 O1054 2.421 . S
Tb1019 O1058 2.546 . S
Tb1019 O1059 2.610 . S
Tb1019 O1061 2.320 . S
Tb1019 O1062 2.552 . S
Tb1019 O1063 2.413 . S
Tb1019 C1083 2.833 . S
N1020 C1012 1.360 . S
N1020 Tb1019 2.660 1_556 S
N1020 C1021 1.305 . S
C1021 N1020 1.305 . S
C1021 C1023 1.407 . S
C1021 H1028 0.930 . S
C1022 C1010 1.410 . S
C1022 C1023 1.345 . S
C1022 H1030 0.930 . S
C1023 C1021 1.407 . S
C1023 C1022 1.345 . S
C1023 H1025 0.930 . S
H1024 C1017 0.930 . S
H1025 C1023 0.930 . S
H1026 C1014 0.930 . S
H1027 C1015 0.931 . S
H1028 C1021 0.930 . S
H1029 C1043 0.930 . S
H1030 C1022 0.930 . S
H1031 C1049 0.930 . S
H1032 C1040 0.930 . S
H1033 C1047 0.931 . S
H1034 C1011 0.929 . S
H1035 C1041 0.930 . S
H1036 C1074 0.930 . S
H1037 C1018 0.930 . S
H1038 C1073 0.929 . S
N1039 Tb1008 2.660 . S
N1039 C1040 1.305 . S
N1039 C1044 1.360 . S
C1040 H1032 0.930 . S
C1040 N1039 1.305 . S
C1040 C1043 1.407 . S
C1041 H1035 0.930 . S
C1041 C1042 1.410 . S
C1041 C1043 1.345 . S
C1042 C1041 1.410 . S
C1042 C1044 1.417 . S
C1042 C1074 1.432 . S
C1043 H1029 0.930 . S
C1043 C1040 1.407 . S
C1043 C1041 1.345 . S
C1044 N1039 1.360 . S
C1044 C1042 1.417 . S
C1044 C1048 1.432 . S
H1045 C1050 0.930 . S
N1046 Tb1008 2.600 . S
N1046 C1048 1.359 . S
N1046 C1049 1.327 . S
C1047 H1033 0.931 . S
C1047 C1049 1.392 . S
C1047 C1050 1.370 . S
C1048 C1044 1.432 . S
C1048 N1046 1.359 . S
C1048 C1051 1.414 . S
C1049 H1031 0.930 . S
C1049 N1046 1.327 . S
C1049 C1047 1.392 . S
C1050 H1045 0.930 . S
C1050 C1047 1.370 . S
C1050 C1051 1.385 . S
C1051 C1048 1.414 . S
C1051 C1050 1.385 . S
C1051 C1073 1.444 . S
O1052 Tb1008 2.546 . S
O1052 C1072 1.251 . S
O1053 Tb1008 2.610 1_556 S
O1053 Tb1019 2.362 1_556 S
O1053 C1064 1.283 . S
O1054 Tb1019 2.421 . S
O1054 C1071 1.262 . S
O1055 Tb1008 2.320 . S
O1055 C1071 1.260 . S
O1056 Tb1008 2.552 1_556 S
O1056 C1064 1.243 . S
O1057 Tb1008 2.413 . S
O1057 C1072 1.256 . S
O1058 Tb1019 2.546 . S
O1058 C1083 1.251 . S
O1059 Tb1008 2.362 . S
O1059 Tb1019 2.610 . S
O1059 C1075 1.283 . S
O1060 Tb1008 2.421 . S
O1060 C1082 1.262 . S
O1061 Tb1019 2.320 . S
O1061 C1082 1.260 . S
O1062 Tb1019 2.552 . S
O1062 C1075 1.243 . S
O1063 Tb1019 2.413 . S
O1063 C1083 1.256 . S
C1064 O1053 1.283 . S
C1064 O1056 1.243 . S
C1065 C1067 1.382 . S
C1065 C1069 1.393 . S
C1065 C1072 1.500 . S
C1066 C1067 1.419 . S
C1066 C1068 1.395 . S
C1067 C1065 1.382 . S
C1067 C1066 1.419 . S
C1067 H1084 0.930 . S
C1068 C1066 1.395 . S
C1068 C1070 1.392 . S
C1068 H1085 0.931 . S
C1069 C1065 1.393 . S
C1069 C1070 1.401 . S
C1069 H1086 0.930 . S
C1070 C1068 1.392 . S
C1070 C1069 1.401 . S
C1070 H1087 0.930 . S
C1071 O1054 1.262 . S
C1071 O1055 1.260 . S
C1072 Tb1008 2.833 . S
C1072 O1052 1.251 . S
C1072 O1057 1.256 . S
C1072 C1065 1.500 . S
C1073 H1038 0.929 . S
C1073 C1051 1.444 . S
C1073 C1074 1.317 . S
C1074 H1036 0.930 . S
C1074 C1042 1.432 . S
C1074 C1073 1.317 . S
C1075 O1059 1.283 . S
C1075 O1062 1.243 . S
C1076 C1077 1.382 . S
C1076 C1080 1.393 . S
C1076 C1083 1.500 . S
C1077 C1076 1.382 . S
C1077 C1078 1.400 . S
C1077 H1088 0.930 . S
C1078 C1077 1.400 . S
C1078 C1079 1.384 . S
C1079 C1078 1.384 . S
C1079 C1081 1.392 . S
C1079 H1089 0.931 . S
C1080 C1076 1.393 . S
C1080 C1081 1.401 . S
C1080 H1090 0.930 . S
C1081 C1079 1.392 . S
C1081 C1080 1.401 . S
C1081 H1091 0.930 . S
C1082 O1060 1.262 . S
C1082 O1061 1.260 . S
C1083 Tb1019 2.833 . S
C1083 O1058 1.251 . S
C1083 O1063 1.256 . S
C1083 C1076 1.500 . S
H1084 C1067 0.930 . S
H1085 C1068 0.931 . S
H1086 C1069 0.930 . S
H1087 C1070 0.930 . S
H1088 C1077 0.930 . S
H1089 C1079 0.931 . S
H1090 C1080 0.930 . S
H1091 C1081 0.930 . S
Tb1092 N1123 2.660 . S
Tb1092 N1130 2.600 . S
Tb1092 O1136 2.546 . S
Tb1092 O1137 2.610 . S
Tb1092 O1139 2.320 . S
Tb1092 O1140 2.552 . S
Tb1092 O1141 2.413 . S
Tb1092 O1143 2.362 . S
Tb1092 O1144 2.421 . S
Tb1092 C1156 2.833 . S
C1093 C1096 1.432 . S
C1093 C1097 1.414 . S
C1093 N1100 1.359 . S
C1094 C1096 1.417 . S
C1094 C1098 1.432 . S
C1094 C1106 1.410 . S
C1095 C1097 1.444 . S
C1095 C1098 1.317 . S
C1095 H1118 0.929 . S
C1096 C1093 1.432 . S
C1096 C1094 1.417 . S
C1096 N1104 1.360 . S
C1097 C1093 1.414 . S
C1097 C1095 1.444 . S
C1097 C1102 1.385 . S
C1098 C1094 1.432 . S
C1098 C1095 1.317 . S
C1098 H1110 0.930 . S
C1099 C1101 1.392 . S
C1099 C1102 1.370 . S
C1099 H1111 0.931 . S
N1100 C1093 1.359 . S
N1100 C1101 1.327 . S
N1100 Tb1103 2.600 . S
C1101 C1099 1.392 . S
C1101 N1100 1.327 . S
C1101 H1108 0.930 . S
C1102 C1097 1.385 . S
C1102 C1099 1.370 . S
C1102 H1121 0.930 . S
Tb1103 N1100 2.600 . S
Tb1103 N1104 2.660 . S
Tb1103 O1137 2.362 . S
Tb1103 O1138 2.421 . S
Tb1103 O1142 2.546 . S
Tb1103 O1143 2.610 . S
Tb1103 O1145 2.320 . S
Tb1103 O1146 2.552 . S
Tb1103 O1147 2.413 . S
Tb1103 C1167 2.833 . S
N1104 C1096 1.360 . S
N1104 Tb1103 2.660 . S
N1104 C1105 1.305 . S
C1105 N1104 1.305 . S
C1105 C1107 1.407 . S
C1105 H1112 0.930 . S
C1106 C1094 1.410 . S
C1106 C1107 1.345 . S
C1106 H1114 0.930 . S
C1107 C1105 1.407 . S
C1107 C1106 1.345 . S
C1107 H1109 0.930 . S
H1108 C1101 0.930 . S
H1109 C1107 0.930 . S
H1110 C1098 0.930 . S
H1111 C1099 0.931 . S
H1112 C1105 0.930 . S
H1113 C1127 0.930 . S
H1114 C1106 0.930 . S
H1115 C1133 0.930 . S
H1116 C1124 0.930 . S
H1117 C1131 0.931 . S
H1118 C1095 0.929 . S
H1119 C1125 0.930 . S
H1120 C1158 0.930 . S
H1121 C1102 0.930 . S
H1122 C1157 0.929 . S
N1123 Tb1092 2.660 . S
N1123 C1124 1.305 . S
N1123 C1128 1.360 . S
C1124 H1116 0.930 . S
C1124 N1123 1.305 . S
C1124 C1127 1.407 . S
C1125 H1119 0.930 . S
C1125 C1126 1.410 . S
C1125 C1127 1.345 . S
C1126 C1125 1.410 . S
C1126 C1128 1.417 . S
C1126 C1158 1.432 . S
C1127 H1113 0.930 . S
C1127 C1124 1.407 . S
C1127 C1125 1.345 . S
C1128 N1123 1.360 . S
C1128 C1126 1.417 . S
C1128 C1132 1.432 . S
H1129 C1134 0.930 . S
N1130 Tb1092 2.600 . S
N1130 C1132 1.359 . S
N1130 C1133 1.327 . S
C1131 H1117 0.931 . S
C1131 C1133 1.392 . S
C1131 C1134 1.370 . S
C1132 C1128 1.432 . S
C1132 N1130 1.359 . S
C1132 C1135 1.414 . S
C1133 H1115 0.930 . S
C1133 N1130 1.327 . S
C1133 C1131 1.392 . S
C1134 H1129 0.930 . S
C1134 C1131 1.370 . S
C1134 C1135 1.385 . S
C1135 C1132 1.414 . S
C1135 C1134 1.385 . S
C1135 C1157 1.444 . S
O1136 Tb1092 2.546 . S
O1136 C1156 1.251 . S
O1137 Tb1092 2.610 . S
O1137 Tb1103 2.362 . S
O1137 C1148 1.283 . S
O1138 Tb1103 2.421 . S
O1138 C1155 1.262 . S
O1139 Tb1092 2.320 . S
O1139 C1155 1.260 . S
O1140 Tb1092 2.552 . S
O1140 C1148 1.243 . S
O1141 Tb1092 2.413 . S
O1141 C1156 1.256 . S
O1142 Tb1103 2.546 . S
O1142 C1167 1.251 . S
O1143 Tb1092 2.362 . S
O1143 Tb1103 2.610 . S
O1143 C1159 1.283 . S
O1144 Tb1092 2.421 . S
O1144 C1166 1.262 . S
O1145 Tb1103 2.320 . S
O1145 C1166 1.260 . S
O1146 Tb1103 2.552 . S
O1146 C1159 1.243 . S
O1147 Tb1103 2.413 . S
O1147 C1167 1.256 . S
C1148 O1137 1.283 . S
C1148 O1140 1.243 . S
C1149 C1151 1.382 . S
C1149 C1153 1.393 . S
C1149 C1156 1.500 . S
C1150 C1151 1.400 . S
C1150 C1152 1.384 . S
C1151 C1149 1.382 . S
C1151 C1150 1.400 . S
C1151 H1168 0.930 . S
C1152 C1150 1.384 . S
C1152 C1154 1.392 . S
C1152 H1169 0.931 . S
C1153 C1149 1.393 . S
C1153 C1154 1.401 . S
C1153 H1170 0.930 . S
C1154 C1152 1.392 . S
C1154 C1153 1.401 . S
C1154 H1171 0.930 . S
C1155 O1138 1.262 . S
C1155 O1139 1.260 . S
C1156 Tb1092 2.833 . S
C1156 O1136 1.251 . S
C1156 O1141 1.256 . S
C1156 C1149 1.500 . S
C1157 H1122 0.929 . S
C1157 C1135 1.444 . S
C1157 C1158 1.317 . S
C1158 H1120 0.930 . S
C1158 C1126 1.432 . S
C1158 C1157 1.317 . S
C1159 O1143 1.283 . S
C1159 O1146 1.243 . S
C1160 C1161 1.382 . S
C1160 C1164 1.393 . S
C1160 C1167 1.500 . S
C1161 C1160 1.382 . S
C1161 C1162 1.400 . S
C1161 H1172 0.930 . S
C1162 C1161 1.400 . S
C1162 C1163 1.384 . S
C1163 C1162 1.384 . S
C1163 C1165 1.392 . S
C1163 H1173 0.931 . S
C1164 C1160 1.393 . S
C1164 C1165 1.401 . S
C1164 H1174 0.930 . S
C1165 C1163 1.392 . S
C1165 C1164 1.401 . S
C1165 H1175 0.930 . S
C1166 O1144 1.262 . S
C1166 O1145 1.260 . S
C1167 Tb1103 2.833 . S
C1167 O1142 1.251 . S
C1167 O1147 1.256 . S
C1167 C1160 1.500 . S
H1168 C1151 0.930 . S
H1169 C1152 0.931 . S
H1170 C1153 0.930 . S
H1171 C1154 0.930 . S
H1172 C1161 0.930 . S
H1173 C1163 0.931 . S
H1174 C1164 0.930 . S
H1175 C1165 0.930 . S
Tb1176 N1207 2.660 . S
Tb1176 N1214 2.600 . S
Tb1176 O1220 2.546 . S
Tb1176 O1221 2.610 . S
Tb1176 O1223 2.320 . S
Tb1176 O1224 2.552 . S
Tb1176 O1225 2.413 . S
Tb1176 O1227 2.362 . S
Tb1176 O1228 2.421 . S
Tb1176 C1240 2.833 . S
C1177 C1180 1.429 . S
C1177 C1181 1.414 1_455 S
C1177 N1184 1.359 . S
C1178 C1180 1.399 1_655 S
C1178 C1182 1.432 . S
C1178 C1190 1.410 . S
C1179 C1181 1.444 . S
C1179 C1182 1.317 . S
C1179 H1202 0.929 . S
C1180 C1177 1.429 . S
C1180 C1178 1.399 1_455 S
C1180 N1188 1.381 . S
C1181 C1177 1.414 1_655 S
C1181 C1179 1.444 . S
C1181 C1186 1.385 . S
C1182 C1178 1.432 . S
C1182 C1179 1.317 . S
C1182 H1194 0.930 . S
C1183 C1185 1.392 . S
C1183 C1186 1.370 1_455 S
C1183 H1195 0.931 . S
N1184 C1177 1.359 . S
N1184 C1185 1.327 . S
N1184 Tb1187 2.600 . S
C1185 C1183 1.392 . S
C1185 N1184 1.327 . S
C1185 H1192 0.930 . S
C1186 C1181 1.385 . S
C1186 C1183 1.370 1_655 S
C1186 H1205 0.930 . S
Tb1187 N1184 2.600 . S
Tb1187 N1188 2.660 . S
Tb1187 O1221 2.362 . S
Tb1187 O1222 2.421 . S
Tb1187 O1226 2.546 . S
Tb1187 O1227 2.610 . S
Tb1187 O1229 2.320 . S
Tb1187 O1230 2.552 . S
Tb1187 O1231 2.413 . S
Tb1187 C1251 2.833 . S
N1188 C1180 1.381 . S
N1188 Tb1187 2.660 . S
N1188 C1189 1.305 . S
C1189 N1188 1.305 . S
C1189 C1191 1.407 1_455 S
C1189 H1196 0.930 . S
C1190 C1178 1.410 . S
C1190 C1191 1.345 . S
C1190 H1198 0.930 . S
C1191 C1189 1.407 1_655 S
C1191 C1190 1.345 . S
C1191 H1193 0.930 . S
H1192 C1185 0.930 . S
H1193 C1191 0.930 . S
H1194 C1182 0.930 . S
H1195 C1183 0.931 . S
H1196 C1189 0.930 . S
H1197 C1211 0.930 . S
H1198 C1190 0.930 . S
H1199 C1217 0.930 . S
H1200 C1208 0.930 . S
H1201 C1215 0.931 . S
H1202 C1179 0.929 . S
H1203 C1209 0.930 . S
H1204 C1242 0.930 . S
H1205 C1186 0.930 . S
H1206 C1241 0.929 . S
N1207 Tb1176 2.660 . S
N1207 C1208 1.305 . S
N1207 C1212 1.360 . S
C1208 H1200 0.930 . S
C1208 N1207 1.305 . S
C1208 C1211 1.407 . S
C1209 H1203 0.930 . S
C1209 C1210 1.410 . S
C1209 C1211 1.345 . S
C1210 C1209 1.410 . S
C1210 C1212 1.417 . S
C1210 C1242 1.432 . S
C1211 H1197 0.930 . S
C1211 C1208 1.407 . S
C1211 C1209 1.345 . S
C1212 N1207 1.360 . S
C1212 C1210 1.417 . S
C1212 C1216 1.432 . S
H1213 C1218 0.930 . S
N1214 Tb1176 2.600 . S
N1214 C1216 1.359 . S
N1214 C1217 1.327 . S
C1215 H1201 0.931 . S
C1215 C1217 1.392 . S
C1215 C1218 1.370 . S
C1216 C1212 1.432 . S
C1216 N1214 1.359 . S
C1216 C1219 1.414 . S
C1217 H1199 0.930 . S
C1217 N1214 1.327 . S
C1217 C1215 1.392 . S
C1218 H1213 0.930 . S
C1218 C1215 1.370 . S
C1218 C1219 1.385 . S
C1219 C1216 1.414 . S
C1219 C1218 1.385 . S
C1219 C1241 1.444 . S
O1220 Tb1176 2.546 . S
O1220 C1240 1.251 . S
O1221 Tb1176 2.610 . S
O1221 Tb1187 2.362 . S
O1221 C1232 1.283 . S
O1222 Tb1187 2.421 . S
O1222 C1239 1.262 . S
O1223 Tb1176 2.320 . S
O1223 C1239 1.260 . S
O1224 Tb1176 2.552 . S
O1224 C1232 1.243 . S
O1225 Tb1176 2.413 . S
O1225 C1240 1.256 . S
O1226 Tb1187 2.546 . S
O1226 C1251 1.251 . S
O1227 Tb1176 2.362 . S
O1227 Tb1187 2.610 . S
O1227 C1243 1.283 . S
O1228 Tb1176 2.421 . S
O1228 C1250 1.262 . S
O1229 Tb1187 2.320 . S
O1229 C1250 1.260 . S
O1230 Tb1187 2.552 . S
O1230 C1243 1.243 . S
O1231 Tb1187 2.413 . S
O1231 C1251 1.256 . S
C1232 O1221 1.283 . S
C1232 O1224 1.243 . S
C1233 C1235 1.382 . S
C1233 C1237 1.393 . S
C1233 C1240 1.500 . S
C1234 C1235 1.400 . S
C1234 C1236 1.384 . S
C1235 C1233 1.382 . S
C1235 C1234 1.400 . S
C1235 H1252 0.930 . S
C1236 C1234 1.384 . S
C1236 C1238 1.392 . S
C1236 H1253 0.931 . S
C1237 C1233 1.393 . S
C1237 C1238 1.401 . S
C1237 H1254 0.930 . S
C1238 C1236 1.392 . S
C1238 C1237 1.401 . S
C1238 H1255 0.930 . S
C1239 O1222 1.262 . S
C1239 O1223 1.260 . S
C1240 Tb1176 2.833 . S
C1240 O1220 1.251 . S
C1240 O1225 1.256 . S
C1240 C1233 1.500 . S
C1241 H1206 0.929 . S
C1241 C1219 1.444 . S
C1241 C1242 1.317 . S
C1242 H1204 0.930 . S
C1242 C1210 1.432 . S
C1242 C1241 1.317 . S
C1243 O1227 1.283 . S
C1243 O1230 1.243 . S
C1244 C1245 1.382 . S
C1244 C1248 1.393 . S
C1244 C1251 1.500 . S
C1245 C1244 1.382 . S
C1245 C1246 1.400 . S
C1245 H1256 0.930 . S
C1246 C1245 1.400 . S
C1246 C1247 1.384 . S
C1247 C1246 1.384 . S
C1247 C1249 1.392 . S
C1247 H1257 0.931 . S
C1248 C1244 1.393 . S
C1248 C1249 1.401 . S
C1248 H1258 0.930 . S
C1249 C1247 1.392 . S
C1249 C1248 1.401 . S
C1249 H1259 0.930 . S
C1250 O1228 1.262 . S
C1250 O1229 1.260 . S
C1251 Tb1187 2.833 . S
C1251 O1226 1.251 . S
C1251 O1231 1.256 . S
C1251 C1244 1.500 . S
H1252 C1235 0.930 . S
H1253 C1236 0.931 . S
H1254 C1237 0.930 . S
H1255 C1238 0.930 . S
H1256 C1245 0.930 . S
H1257 C1247 0.931 . S
H1258 C1248 0.930 . S
H1259 C1249 0.930 . S
Tb1260 N1291 2.660 . S
Tb1260 N1298 2.600 . S
Tb1260 O1304 2.546 . S
Tb1260 O1305 2.610 . S
Tb1260 O1307 2.320 . S
Tb1260 O1308 2.552 . S
Tb1260 O1309 2.413 . S
Tb1260 O1311 2.362 . S
Tb1260 O1312 2.421 . S
Tb1260 C1324 2.833 . S
C1261 C1264 1.432 . S
C1261 C1265 1.414 . S
C1261 N1268 1.359 . S
C1262 C1264 1.417 . S
C1262 C1266 1.432 . S
C1262 C1274 1.410 . S
C1263 C1265 1.444 . S
C1263 C1266 1.317 . S
C1263 H1286 0.929 . S
C1264 C1261 1.432 . S
C1264 C1262 1.417 . S
C1264 N1272 1.360 . S
C1265 C1261 1.414 . S
C1265 C1263 1.444 . S
C1265 C1270 1.385 . S
C1266 C1262 1.432 . S
C1266 C1263 1.317 . S
C1266 H1278 0.930 . S
C1267 C1269 1.392 . S
C1267 C1270 1.370 . S
C1267 H1279 0.931 . S
N1268 C1261 1.359 . S
N1268 C1269 1.327 . S
N1268 Tb1271 2.600 . S
C1269 C1267 1.392 . S
C1269 N1268 1.327 . S
C1269 H1276 0.930 . S
C1270 C1265 1.385 . S
C1270 C1267 1.370 . S
C1270 H1289 0.930 . S
Tb1271 N1268 2.600 . S
Tb1271 N1272 2.660 . S
Tb1271 O1305 2.362 . S
Tb1271 O1306 2.421 . S
Tb1271 O1310 2.546 . S
Tb1271 O1311 2.610 . S
Tb1271 O1313 2.320 . S
Tb1271 O1314 2.552 . S
Tb1271 O1315 2.413 . S
Tb1271 C1335 2.833 . S
N1272 C1264 1.360 . S
N1272 Tb1271 2.660 . S
N1272 C1273 1.305 . S
C1273 N1272 1.305 . S
C1273 C1275 1.407 . S
C1273 H1280 0.930 . S
C1274 C1262 1.410 . S
C1274 C1275 1.345 . S
C1274 H1282 0.930 . S
C1275 C1273 1.407 . S
C1275 C1274 1.345 . S
C1275 H1277 0.930 . S
H1276 C1269 0.930 . S
H1277 C1275 0.930 . S
H1278 C1266 0.930 . S
H1279 C1267 0.931 . S
H1280 C1273 0.930 . S
H1281 C1295 0.930 . S
H1282 C1274 0.930 . S
H1283 C1301 0.930 . S
H1284 C1292 0.930 . S
H1285 C1299 0.931 . S
H1286 C1263 0.929 . S
H1287 C1293 0.930 . S
H1288 C1326 0.930 . S
H1289 C1270 0.930 . S
H1290 C1325 0.929 . S
N1291 Tb1260 2.660 . S
N1291 C1292 1.305 . S
N1291 C1296 1.360 . S
C1292 H1284 0.930 . S
C1292 N1291 1.305 . S
C1292 C1295 1.407 . S
C1293 H1287 0.930 . S
C1293 C1294 1.410 . S
C1293 C1295 1.345 . S
C1294 C1293 1.410 . S
C1294 C1296 1.417 . S
C1294 C1326 1.432 . S
C1295 H1281 0.930 . S
C1295 C1292 1.407 . S
C1295 C1293 1.345 . S
C1296 N1291 1.360 . S
C1296 C1294 1.417 . S
C1296 C1300 1.432 . S
H1297 C1302 0.930 . S
N1298 Tb1260 2.600 . S
N1298 C1300 1.359 . S
N1298 C1301 1.327 . S
C1299 H1285 0.931 . S
C1299 C1301 1.392 . S
C1299 C1302 1.370 . S
C1300 C1296 1.432 . S
C1300 N1298 1.359 . S
C1300 C1303 1.414 . S
C1301 H1283 0.930 . S
C1301 N1298 1.327 . S
C1301 C1299 1.392 . S
C1302 H1297 0.930 . S
C1302 C1299 1.370 . S
C1302 C1303 1.385 . S
C1303 C1300 1.414 . S
C1303 C1302 1.385 . S
C1303 C1325 1.444 . S
O1304 Tb1260 2.546 . S
O1304 C1324 1.251 . S
O1305 Tb1260 2.610 . S
O1305 Tb1271 2.362 . S
O1305 C1316 1.283 . S
O1306 Tb1271 2.421 . S
O1306 C1323 1.262 . S
O1307 Tb1260 2.320 . S
O1307 C1323 1.260 . S
O1308 Tb1260 2.552 . S
O1308 C1316 1.243 . S
O1309 Tb1260 2.413 . S
O1309 C1324 1.256 . S
O1310 Tb1271 2.546 . S
O1310 C1335 1.251 . S
O1311 Tb1260 2.362 . S
O1311 Tb1271 2.610 . S
O1311 C1327 1.283 . S
O1312 Tb1260 2.421 . S
O1312 C1334 1.262 . S
O1313 Tb1271 2.320 . S
O1313 C1334 1.260 . S
O1314 Tb1271 2.552 . S
O1314 C1327 1.243 . S
O1315 Tb1271 2.413 . S
O1315 C1335 1.256 . S
C1316 O1305 1.283 . S
C1316 O1308 1.243 . S
C1317 C1319 1.382 . S
C1317 C1321 1.393 . S
C1317 C1324 1.500 . S
C1318 C1319 1.400 . S
C1318 C1320 1.384 . S
C1319 C1317 1.382 . S
C1319 C1318 1.400 . S
C1319 H1336 0.930 . S
C1320 C1318 1.384 . S
C1320 C1322 1.392 . S
C1320 H1337 0.931 . S
C1321 C1317 1.393 . S
C1321 C1322 1.401 . S
C1321 H1338 0.930 . S
C1322 C1320 1.392 . S
C1322 C1321 1.401 . S
C1322 H1339 0.930 . S
C1323 O1306 1.262 . S
C1323 O1307 1.260 . S
C1324 Tb1260 2.833 . S
C1324 O1304 1.251 . S
C1324 O1309 1.256 . S
C1324 C1317 1.500 . S
C1325 H1290 0.929 . S
C1325 C1303 1.444 . S
C1325 C1326 1.317 . S
C1326 H1288 0.930 . S
C1326 C1294 1.432 . S
C1326 C1325 1.317 . S
C1327 O1311 1.283 . S
C1327 O1314 1.243 . S
C1328 C1329 1.382 . S
C1328 C1332 1.393 . S
C1328 C1335 1.500 . S
C1329 C1328 1.382 . S
C1329 C1330 1.400 . S
C1329 H1340 0.930 . S
C1330 C1329 1.400 . S
C1330 C1331 1.384 . S
C1331 C1330 1.384 . S
C1331 C1333 1.392 . S
C1331 H1341 0.931 . S
C1332 C1328 1.393 . S
C1332 C1333 1.401 . S
C1332 H1342 0.930 . S
C1333 C1331 1.392 . S
C1333 C1332 1.401 . S
C1333 H1343 0.930 . S
C1334 O1312 1.262 . S
C1334 O1313 1.260 . S
C1335 Tb1271 2.833 . S
C1335 O1310 1.251 . S
C1335 O1315 1.256 . S
C1335 C1328 1.500 . S
H1336 C1319 0.930 . S
H1337 C1320 0.931 . S
H1338 C1321 0.930 . S
H1339 C1322 0.930 . S
H1340 C1329 0.930 . S
H1341 C1331 0.931 . S
H1342 C1332 0.930 . S
H1343 C1333 0.930 . S
Tb1344 N1375 2.660 . S
Tb1344 N1382 2.600 . S
Tb1344 O1388 2.546 . S
Tb1344 O1389 2.610 . S
Tb1344 O1391 2.320 . S
Tb1344 O1392 2.552 . S
Tb1344 O1393 2.413 . S
Tb1344 O1395 2.362 . S
Tb1344 O1396 2.421 . S
Tb1344 C1408 2.833 . S
C1345 C1348 1.432 . S
C1345 C1349 1.414 . S
C1345 N1352 1.359 . S
C1346 C1348 1.417 . S
C1346 C1350 1.432 . S
C1346 C1358 1.410 . S
C1347 C1349 1.444 . S
C1347 C1350 1.317 . S
C1347 H1370 0.929 . S
C1348 C1345 1.432 . S
C1348 C1346 1.417 . S
C1348 N1356 1.360 . S
C1349 C1345 1.414 . S
C1349 C1347 1.444 . S
C1349 C1354 1.385 . S
C1350 C1346 1.432 . S
C1350 C1347 1.317 . S
C1350 H1362 0.930 . S
C1351 C1353 1.392 . S
C1351 C1354 1.370 . S
C1351 H1363 0.931 . S
N1352 C1345 1.359 . S
N1352 C1353 1.327 . S
N1352 Tb1355 2.600 . S
C1353 C1351 1.392 . S
C1353 N1352 1.327 . S
C1353 H1360 0.930 . S
C1354 C1349 1.385 . S
C1354 C1351 1.370 . S
C1354 H1373 0.930 . S
Tb1355 N1352 2.600 . S
Tb1355 N1356 2.660 . S
Tb1355 O1389 2.362 . S
Tb1355 O1390 2.421 . S
Tb1355 O1394 2.546 . S
Tb1355 O1395 2.610 . S
Tb1355 O1397 2.320 . S
Tb1355 O1398 2.552 . S
Tb1355 O1399 2.413 . S
Tb1355 C1419 2.833 . S
N1356 C1348 1.360 . S
N1356 Tb1355 2.660 . S
N1356 C1357 1.305 . S
C1357 N1356 1.305 . S
C1357 C1359 1.407 . S
C1357 H1364 0.930 . S
C1358 C1346 1.410 . S
C1358 C1359 1.345 . S
C1358 H1366 0.930 . S
C1359 C1357 1.407 . S
C1359 C1358 1.345 . S
C1359 H1361 0.930 . S
H1360 C1353 0.930 . S
H1361 C1359 0.930 . S
H1362 C1350 0.930 . S
H1363 C1351 0.931 . S
H1364 C1357 0.930 . S
H1365 C1379 0.930 . S
H1366 C1358 0.930 . S
H1367 C1385 0.930 . S
H1368 C1376 0.930 . S
H1369 C1383 0.931 . S
H1370 C1347 0.929 . S
H1371 C1377 0.930 . S
H1372 C1410 0.930 . S
H1373 C1354 0.930 . S
H1374 C1409 0.929 . S
N1375 Tb1344 2.660 . S
N1375 C1376 1.305 . S
N1375 C1380 1.360 . S
C1376 H1368 0.930 . S
C1376 N1375 1.305 . S
C1376 C1379 1.407 . S
C1377 H1371 0.930 . S
C1377 C1378 1.410 . S
C1377 C1379 1.345 . S
C1378 C1377 1.410 . S
C1378 C1380 1.417 . S
C1378 C1410 1.432 . S
C1379 H1365 0.930 . S
C1379 C1376 1.407 . S
C1379 C1377 1.345 . S
C1380 N1375 1.360 . S
C1380 C1378 1.417 . S
C1380 C1384 1.432 . S
H1381 C1386 0.930 . S
N1382 Tb1344 2.600 . S
N1382 C1384 1.359 . S
N1382 C1385 1.327 . S
C1383 H1369 0.931 . S
C1383 C1385 1.392 . S
C1383 C1386 1.370 . S
C1384 C1380 1.432 . S
C1384 N1382 1.359 . S
C1384 C1387 1.414 . S
C1385 H1367 0.930 . S
C1385 N1382 1.327 . S
C1385 C1383 1.392 . S
C1386 H1381 0.930 . S
C1386 C1383 1.370 . S
C1386 C1387 1.385 . S
C1387 C1384 1.414 . S
C1387 C1386 1.385 . S
C1387 C1409 1.444 . S
O1388 Tb1344 2.546 . S
O1388 C1408 1.251 . S
O1389 Tb1344 2.610 . S
O1389 Tb1355 2.362 . S
O1389 C1400 1.283 . S
O1390 Tb1355 2.421 . S
O1390 C1407 1.262 . S
O1391 Tb1344 2.320 . S
O1391 C1407 1.260 . S
O1392 Tb1344 2.552 . S
O1392 C1400 1.243 . S
O1393 Tb1344 2.413 . S
O1393 C1408 1.256 . S
O1394 Tb1355 2.546 . S
O1394 C1419 1.251 . S
O1395 Tb1344 2.362 . S
O1395 Tb1355 2.610 . S
O1395 C1411 1.283 . S
O1396 Tb1344 2.421 . S
O1396 C1418 1.262 . S
O1397 Tb1355 2.320 . S
O1397 C1418 1.260 . S
O1398 Tb1355 2.552 . S
O1398 C1411 1.243 . S
O1399 Tb1355 2.413 . S
O1399 C1419 1.256 . S
C1400 O1389 1.283 . S
C1400 O1392 1.243 . S
C1401 C1403 1.382 . S
C1401 C1405 1.393 . S
C1401 C1408 1.500 . S
C1402 C1403 1.400 . S
C1402 C1404 1.384 . S
C1403 C1401 1.382 . S
C1403 C1402 1.400 . S
C1403 H1420 0.930 . S
C1404 C1402 1.384 . S
C1404 C1406 1.392 . S
C1404 H1421 0.931 . S
C1405 C1401 1.393 . S
C1405 C1406 1.401 . S
C1405 H1422 0.930 . S
C1406 C1404 1.392 . S
C1406 C1405 1.401 . S
C1406 H1423 0.930 . S
C1407 O1390 1.262 . S
C1407 O1391 1.260 . S
C1408 Tb1344 2.833 . S
C1408 O1388 1.251 . S
C1408 O1393 1.256 . S
C1408 C1401 1.500 . S
C1409 H1374 0.929 . S
C1409 C1387 1.444 . S
C1409 C1410 1.317 . S
C1410 H1372 0.930 . S
C1410 C1378 1.432 . S
C1410 C1409 1.317 . S
C1411 O1395 1.283 . S
C1411 O1398 1.243 . S
C1412 C1413 1.382 . S
C1412 C1416 1.393 . S
C1412 C1419 1.500 . S
C1413 C1412 1.382 . S
C1413 C1414 1.400 . S
C1413 H1424 0.930 . S
C1414 C1413 1.400 . S
C1414 C1415 1.384 . S
C1415 C1414 1.384 . S
C1415 C1417 1.392 . S
C1415 H1425 0.931 . S
C1416 C1412 1.393 . S
C1416 C1417 1.401 . S
C1416 H1426 0.930 . S
C1417 C1415 1.392 . S
C1417 C1416 1.401 . S
C1417 H1427 0.930 . S
C1418 O1396 1.262 . S
C1418 O1397 1.260 . S
C1419 Tb1355 2.833 . S
C1419 O1394 1.251 . S
C1419 O1399 1.256 . S
C1419 C1412 1.500 . S
H1420 C1403 0.930 . S
H1421 C1404 0.931 . S
H1422 C1405 0.930 . S
H1423 C1406 0.930 . S
H1424 C1413 0.930 . S
H1425 C1415 0.931 . S
H1426 C1416 0.930 . S
H1427 C1417 0.930 . S
Tb1428 N1459 2.660 . S
Tb1428 N1466 2.600 . S
Tb1428 O1472 2.546 . S
Tb1428 O1473 2.610 . S
Tb1428 O1475 2.320 . S
Tb1428 O1476 2.552 . S
Tb1428 O1477 2.413 . S
Tb1428 O1479 2.362 . S
Tb1428 O1480 2.421 . S
Tb1428 C1492 2.833 . S
C1429 C1432 1.432 . S
C1429 C1433 1.414 . S
C1429 N1436 1.359 . S
C1430 C1432 1.417 . S
C1430 C1434 1.432 . S
C1430 C1442 1.410 . S
C1431 C1433 1.444 . S
C1431 C1434 1.317 . S
C1431 H1454 0.929 . S
C1432 C1429 1.432 . S
C1432 C1430 1.417 . S
C1432 N1440 1.360 . S
C1433 C1429 1.414 . S
C1433 C1431 1.444 . S
C1433 C1438 1.385 . S
C1434 C1430 1.432 . S
C1434 C1431 1.317 . S
C1434 H1446 0.930 . S
C1435 C1437 1.392 . S
C1435 C1438 1.370 . S
C1435 H1447 0.931 . S
N1436 C1429 1.359 . S
N1436 C1437 1.327 . S
N1436 Tb1439 2.600 . S
C1437 C1435 1.392 . S
C1437 N1436 1.327 . S
C1437 H1444 0.930 . S
C1438 C1433 1.385 . S
C1438 C1435 1.370 . S
C1438 H1457 0.930 . S
Tb1439 N1436 2.600 . S
Tb1439 N1440 2.660 . S
Tb1439 O1473 2.362 . S
Tb1439 O1474 2.421 . S
Tb1439 O1478 2.546 . S
Tb1439 O1479 2.610 . S
Tb1439 O1481 2.320 . S
Tb1439 O1482 2.552 . S
Tb1439 O1483 2.413 . S
Tb1439 C1503 2.833 . S
N1440 C1432 1.360 . S
N1440 Tb1439 2.660 . S
N1440 C1441 1.305 . S
C1441 N1440 1.305 . S
C1441 C1443 1.407 . S
C1441 H1448 0.930 . S
C1442 C1430 1.410 . S
C1442 C1443 1.345 . S
C1442 H1450 0.930 . S
C1443 C1441 1.407 . S
C1443 C1442 1.345 . S
C1443 H1445 0.930 . S
H1444 C1437 0.930 . S
H1445 C1443 0.930 . S
H1446 C1434 0.930 . S
H1447 C1435 0.931 . S
H1448 C1441 0.930 . S
H1449 C1463 0.930 . S
H1450 C1442 0.930 . S
H1451 C1469 0.930 . S
H1452 C1460 0.930 . S
H1453 C1467 0.931 . S
H1454 C1431 0.929 . S
H1455 C1461 0.930 . S
H1456 C1494 0.930 . S
H1457 C1438 0.930 . S
H1458 C1493 0.929 . S
N1459 Tb1428 2.660 . S
N1459 C1460 1.305 . S
N1459 C1464 1.360 . S
C1460 H1452 0.930 . S
C1460 N1459 1.305 . S
C1460 C1463 1.407 . S
C1461 H1455 0.930 . S
C1461 C1462 1.410 . S
C1461 C1463 1.345 . S
C1462 C1461 1.410 . S
C1462 C1464 1.417 . S
C1462 C1494 1.432 . S
C1463 H1449 0.930 . S
C1463 C1460 1.407 . S
C1463 C1461 1.345 . S
C1464 N1459 1.360 . S
C1464 C1462 1.417 . S
C1464 C1468 1.432 . S
H1465 C1470 0.930 . S
N1466 Tb1428 2.600 . S
N1466 C1468 1.359 . S
N1466 C1469 1.327 . S
C1467 H1453 0.931 . S
C1467 C1469 1.392 . S
C1467 C1470 1.370 . S
C1468 C1464 1.432 . S
C1468 N1466 1.359 . S
C1468 C1471 1.414 . S
C1469 H1451 0.930 . S
C1469 N1466 1.327 . S
C1469 C1467 1.392 . S
C1470 H1465 0.930 . S
C1470 C1467 1.370 . S
C1470 C1471 1.385 . S
C1471 C1468 1.414 . S
C1471 C1470 1.385 . S
C1471 C1493 1.444 . S
O1472 Tb1428 2.546 . S
O1472 C1492 1.251 . S
O1473 Tb1428 2.610 . S
O1473 Tb1439 2.362 . S
O1473 C1484 1.283 . S
O1474 Tb1439 2.421 . S
O1474 C1491 1.262 . S
O1475 Tb1428 2.320 . S
O1475 C1491 1.260 . S
O1476 Tb1428 2.552 . S
O1476 C1484 1.243 . S
O1477 Tb1428 2.413 . S
O1477 C1492 1.256 . S
O1478 Tb1439 2.546 . S
O1478 C1503 1.251 . S
O1479 Tb1428 2.362 . S
O1479 Tb1439 2.610 . S
O1479 C1495 1.283 . S
O1480 Tb1428 2.421 . S
O1480 C1502 1.262 . S
O1481 Tb1439 2.320 . S
O1481 C1502 1.260 . S
O1482 Tb1439 2.552 . S
O1482 C1495 1.243 . S
O1483 Tb1439 2.413 . S
O1483 C1503 1.256 . S
C1484 O1473 1.283 . S
C1484 O1476 1.243 . S
C1485 C1487 1.382 . S
C1485 C1489 1.393 . S
C1485 C1492 1.500 . S
C1486 C1487 1.400 . S
C1486 C1488 1.384 . S
C1487 C1485 1.382 . S
C1487 C1486 1.400 . S
C1487 H1504 0.930 . S
C1488 C1486 1.384 . S
C1488 C1490 1.392 . S
C1488 H1505 0.931 . S
C1489 C1485 1.393 . S
C1489 C1490 1.401 . S
C1489 H1506 0.930 . S
C1490 C1488 1.392 . S
C1490 C1489 1.401 . S
C1490 H1507 0.930 . S
C1491 O1474 1.262 . S
C1491 O1475 1.260 . S
C1492 Tb1428 2.833 . S
C1492 O1472 1.251 . S
C1492 O1477 1.256 . S
C1492 C1485 1.500 . S
C1493 H1458 0.929 . S
C1493 C1471 1.444 . S
C1493 C1494 1.317 . S
C1494 H1456 0.930 . S
C1494 C1462 1.432 . S
C1494 C1493 1.317 . S
C1495 O1479 1.283 . S
C1495 O1482 1.243 . S
C1496 C1497 1.382 . S
C1496 C1500 1.393 . S
C1496 C1503 1.500 . S
C1497 C1496 1.382 . S
C1497 C1498 1.400 . S
C1497 H1508 0.930 . S
C1498 C1497 1.400 . S
C1498 C1499 1.384 . S
C1499 C1498 1.384 . S
C1499 C1501 1.392 . S
C1499 H1509 0.931 . S
C1500 C1496 1.393 . S
C1500 C1501 1.401 . S
C1500 H1510 0.930 . S
C1501 C1499 1.392 . S
C1501 C1500 1.401 . S
C1501 H1511 0.930 . S
C1502 O1480 1.262 . S
C1502 O1481 1.260 . S
C1503 Tb1439 2.833 . S
C1503 O1478 1.251 . S
C1503 O1483 1.256 . S
C1503 C1496 1.500 . S
H1504 C1487 0.930 . S
H1505 C1488 0.931 . S
H1506 C1489 0.930 . S
H1507 C1490 0.930 . S
H1508 C1497 0.930 . S
H1509 C1499 0.931 . S
H1510 C1500 0.930 . S
H1511 C1501 0.930 . S
Tb1512 N1543 2.660 . S
Tb1512 N1550 2.600 . S
Tb1512 O1556 2.546 . S
Tb1512 O1557 2.610 . S
Tb1512 O1559 2.320 . S
Tb1512 O1560 2.552 . S
Tb1512 O1561 2.413 . S
Tb1512 O1563 2.362 . S
Tb1512 O1564 2.421 . S
Tb1512 C1576 2.833 . S
C1513 C1516 1.432 . S
C1513 C1517 1.414 . S
C1513 N1520 1.359 . S
C1514 C1516 1.417 . S
C1514 C1518 1.432 . S
C1514 C1526 1.410 . S
C1515 C1517 1.444 . S
C1515 C1518 1.317 . S
C1515 H1538 0.929 . S
C1516 C1513 1.432 . S
C1516 C1514 1.417 . S
C1516 N1524 1.360 . S
C1517 C1513 1.414 . S
C1517 C1515 1.444 . S
C1517 C1522 1.385 . S
C1518 C1514 1.432 . S
C1518 C1515 1.317 . S
C1518 H1530 0.930 . S
C1519 C1521 1.392 . S
C1519 C1522 1.370 . S
C1519 H1531 0.931 . S
N1520 C1513 1.359 . S
N1520 C1521 1.327 . S
N1520 Tb1523 2.600 . S
C1521 C1519 1.392 . S
C1521 N1520 1.327 . S
C1521 H1528 0.930 . S
C1522 C1517 1.385 . S
C1522 C1519 1.370 . S
C1522 H1541 0.930 . S
Tb1523 N1520 2.600 . S
Tb1523 N1524 2.660 . S
Tb1523 O1557 2.362 . S
Tb1523 O1558 2.421 . S
Tb1523 O1562 2.546 . S
Tb1523 O1563 2.610 . S
Tb1523 O1565 2.320 . S
Tb1523 O1566 2.552 . S
Tb1523 O1567 2.413 . S
Tb1523 C1587 2.833 . S
N1524 C1516 1.360 . S
N1524 Tb1523 2.660 . S
N1524 C1525 1.305 . S
C1525 N1524 1.305 . S
C1525 C1527 1.407 . S
C1525 H1532 0.930 . S
C1526 C1514 1.410 . S
C1526 C1527 1.345 . S
C1526 H1534 0.930 . S
C1527 C1525 1.407 . S
C1527 C1526 1.345 . S
C1527 H1529 0.930 . S
H1528 C1521 0.930 . S
H1529 C1527 0.930 . S
H1530 C1518 0.930 . S
H1531 C1519 0.931 . S
H1532 C1525 0.930 . S
H1533 C1547 0.930 . S
H1534 C1526 0.930 . S
H1535 C1553 0.930 . S
H1536 C1544 0.930 . S
H1537 C1551 0.931 . S
H1538 C1515 0.929 . S
H1539 C1545 0.930 . S
H1540 C1578 0.930 . S
H1541 C1522 0.930 . S
H1542 C1577 0.929 . S
N1543 Tb1512 2.660 . S
N1543 C1544 1.305 . S
N1543 C1548 1.360 . S
C1544 H1536 0.930 . S
C1544 N1543 1.305 . S
C1544 C1547 1.407 . S
C1545 H1539 0.930 . S
C1545 C1546 1.410 . S
C1545 C1547 1.345 . S
C1546 C1545 1.410 . S
C1546 C1548 1.417 . S
C1546 C1578 1.432 . S
C1547 H1533 0.930 . S
C1547 C1544 1.407 . S
C1547 C1545 1.345 . S
C1548 N1543 1.360 . S
C1548 C1546 1.417 . S
C1548 C1552 1.432 . S
H1549 C1554 0.930 . S
N1550 Tb1512 2.600 . S
N1550 C1552 1.359 . S
N1550 C1553 1.327 . S
C1551 H1537 0.931 . S
C1551 C1553 1.392 . S
C1551 C1554 1.370 . S
C1552 C1548 1.432 . S
C1552 N1550 1.359 . S
C1552 C1555 1.414 . S
C1553 H1535 0.930 . S
C1553 N1550 1.327 . S
C1553 C1551 1.392 . S
C1554 H1549 0.930 . S
C1554 C1551 1.370 . S
C1554 C1555 1.385 . S
C1555 C1552 1.414 . S
C1555 C1554 1.385 . S
C1555 C1577 1.444 . S
O1556 Tb1512 2.546 . S
O1556 C1576 1.251 . S
O1557 Tb1512 2.610 . S
O1557 Tb1523 2.362 . S
O1557 C1568 1.283 . S
O1558 Tb1523 2.421 . S
O1558 C1575 1.262 . S
O1559 Tb1512 2.320 . S
O1559 C1575 1.260 . S
O1560 Tb1512 2.552 . S
O1560 C1568 1.243 . S
O1561 Tb1512 2.413 . S
O1561 C1576 1.256 . S
O1562 Tb1523 2.546 . S
O1562 C1587 1.251 . S
O1563 Tb1512 2.362 . S
O1563 Tb1523 2.610 . S
O1563 C1579 1.283 . S
O1564 Tb1512 2.421 . S
O1564 C1586 1.262 . S
O1565 Tb1523 2.320 . S
O1565 C1586 1.260 . S
O1566 Tb1523 2.552 . S
O1566 C1579 1.243 . S
O1567 Tb1523 2.413 . S
O1567 C1587 1.256 . S
C1568 O1557 1.283 . S
C1568 O1560 1.243 . S
C1569 C1571 1.382 . S
C1569 C1573 1.393 . S
C1569 C1576 1.500 . S
C1570 C1571 1.400 . S
C1570 C1572 1.384 . S
C1571 C1569 1.382 . S
C1571 C1570 1.400 . S
C1571 H1588 0.930 . S
C1572 C1570 1.384 . S
C1572 C1574 1.392 . S
C1572 H1589 0.931 . S
C1573 C1569 1.393 . S
C1573 C1574 1.401 . S
C1573 H1590 0.930 . S
C1574 C1572 1.392 . S
C1574 C1573 1.401 . S
C1574 H1591 0.930 . S
C1575 O1558 1.262 . S
C1575 O1559 1.260 . S
C1576 Tb1512 2.833 . S
C1576 O1556 1.251 . S
C1576 O1561 1.256 . S
C1576 C1569 1.500 . S
C1577 H1542 0.929 . S
C1577 C1555 1.444 . S
C1577 C1578 1.317 . S
C1578 H1540 0.930 . S
C1578 C1546 1.432 . S
C1578 C1577 1.317 . S
C1579 O1563 1.283 . S
C1579 O1566 1.243 . S
C1580 C1581 1.382 . S
C1580 C1584 1.393 . S
C1580 C1587 1.500 . S
C1581 C1580 1.382 . S
C1581 C1582 1.400 . S
C1581 H1592 0.930 . S
C1582 C1581 1.400 . S
C1582 C1583 1.384 . S
C1583 C1582 1.384 . S
C1583 C1585 1.392 . S
C1583 H1593 0.931 . S
C1584 C1580 1.393 . S
C1584 C1585 1.401 . S
C1584 H1594 0.930 . S
C1585 C1583 1.392 . S
C1585 C1584 1.401 . S
C1585 H1595 0.930 . S
C1586 O1564 1.262 . S
C1586 O1565 1.260 . S
C1587 Tb1523 2.833 . S
C1587 O1562 1.251 . S
C1587 O1567 1.256 . S
C1587 C1580 1.500 . S
H1588 C1571 0.930 . S
H1589 C1572 0.931 . S
H1590 C1573 0.930 . S
H1591 C1574 0.930 . S
H1592 C1581 0.930 . S
H1593 C1583 0.931 . S
H1594 C1584 0.930 . S
H1595 C1585 0.930 . S
Tb1596 N1627 2.660 . S
Tb1596 N1634 2.600 1_554 S
Tb1596 O1640 2.546 1_554 S
Tb1596 O1641 2.610 . S
Tb1596 O1643 2.320 . S
Tb1596 O1644 2.552 . S
Tb1596 O1645 2.413 . S
Tb1596 O1647 2.362 . S
Tb1596 O1648 2.421 1_554 S
Tb1596 C1660 2.833 1_554 S
C1597 C1600 1.432 . S
C1597 C1601 1.414 . S
C1597 N1604 1.359 1_655 S
C1598 C1600 1.417 . S
C1598 C1602 1.432 . S
C1598 C1610 1.410 1_554 S
C1599 C1601 1.444 . S
C1599 C1602 1.317 . S
C1599 H1622 0.929 . S
C1600 C1597 1.432 . S
C1600 C1598 1.417 . S
C1600 N1608 1.369 . S
C1601 C1597 1.414 . S
C1601 C1599 1.444 . S
C1601 C1606 1.385 . S
C1602 C1598 1.432 . S
C1602 C1599 1.317 . S
C1602 H1614 0.930 . S
C1603 C1605 1.403 . S
C1603 C1606 1.358 1_455 S
C1603 H1615 0.932 . S
N1604 C1597 1.359 1_455 S
N1604 C1605 1.327 . S
N1604 Tb1607 2.600 . S
C1605 C1603 1.403 . S
C1605 N1604 1.327 . S
C1605 H1612 0.930 . S
C1606 C1601 1.385 . S
C1606 C1603 1.358 1_655 S
C1606 H1625 0.930 . S
Tb1607 N1604 2.600 . S
Tb1607 N1608 2.650 1_455 S
Tb1607 O1641 2.362 . S
Tb1607 O1642 2.421 . S
Tb1607 O1646 2.546 . S
Tb1607 O1647 2.610 . S
Tb1607 O1649 2.320 1_554 S
Tb1607 O1650 2.552 . S
Tb1607 O1651 2.413 1_455 S
Tb1607 C1671 2.833 1_455 S
N1608 C1600 1.369 . S
N1608 Tb1607 2.650 1_655 S
N1608 C1609 1.306 1_554 S
C1609 N1608 1.306 1_556 S
C1609 C1611 1.407 . S
C1609 H1616 0.930 1_655 S
C1610 C1598 1.410 1_556 S
C1610 C1611 1.345 . S
C1610 H1618 0.930 . S
C1611 C1609 1.407 . S
C1611 C1610 1.345 . S
C1611 H1613 0.930 . S
H1612 C1605 0.930 . S
H1613 C1611 0.930 . S
H1614 C1602 0.930 . S
H1615 C1603 0.932 . S
H1616 C1609 0.930 1_455 S
H1617 C1631 0.930 . S
H1618 C1610 0.930 . S
H1619 C1637 0.930 . S
H1620 C1628 0.930 . S
H1621 C1635 0.931 . S
H1622 C1599 0.929 . S
H1623 C1629 0.930 . S
H1624 C1662 0.930 . S
H1625 C1606 0.930 . S
H1626 C1661 0.929 . S
N1627 Tb1596 2.660 . S
N1627 C1628 1.305 . S
N1627 C1632 1.360 . S
C1628 H1620 0.930 . S
C1628 N1627 1.305 . S
C1628 C1631 1.407 . S
C1629 H1623 0.930 . S
C1629 C1630 1.410 . S
C1629 C1631 1.345 . S
C1630 C1629 1.410 . S
C1630 C1632 1.417 . S
C1630 C1662 1.432 . S
C1631 H1617 0.930 . S
C1631 C1628 1.407 . S
C1631 C1629 1.345 . S
C1632 N1627 1.360 . S
C1632 C1630 1.417 . S
C1632 C1636 1.432 1_554 S
H1633 C1638 0.930 . S
N1634 Tb1596 2.600 1_556 S
N1634 C1636 1.359 . S
N1634 C1637 1.327 . S
C1635 H1621 0.931 . S
C1635 C1637 1.392 . S
C1635 C1638 1.370 . S
C1636 C1632 1.432 1_556 S
C1636 N1634 1.359 . S
C1636 C1639 1.414 . S
C1637 H1619 0.930 . S
C1637 N1634 1.327 . S
C1637 C1635 1.392 . S
C1638 H1633 0.930 . S
C1638 C1635 1.370 . S
C1638 C1639 1.385 . S
C1639 C1636 1.414 . S
C1639 C1638 1.385 . S
C1639 C1661 1.444 . S
O1640 Tb1596 2.546 1_556 S
O1640 C1660 1.251 . S
O1641 Tb1596 2.610 . S
O1641 Tb1607 2.362 . S
O1641 C1652 1.283 . S
O1642 Tb1607 2.421 . S
O1642 C1659 1.262 . S
O1643 Tb1596 2.320 . S
O1643 C1659 1.260 . S
O1644 Tb1596 2.552 . S
O1644 C1652 1.240 . S
O1645 Tb1596 2.413 . S
O1645 C1660 1.256 1_554 S
O1646 Tb1607 2.546 . S
O1646 C1671 1.251 1_455 S
O1647 Tb1596 2.362 . S
O1647 Tb1607 2.610 . S
O1647 C1663 1.283 . S
O1648 Tb1596 2.421 1_556 S
O1648 C1670 1.262 . S
O1649 Tb1607 2.320 1_556 S
O1649 C1670 1.260 . S
O1650 Tb1607 2.552 . S
O1650 C1663 1.243 . S
O1651 Tb1607 2.413 1_655 S
O1651 C1671 1.256 . S
C1652 O1641 1.283 . S
C1652 O1644 1.240 . S
C1653 C1655 1.382 1_556 S
C1653 C1657 1.393 . S
C1653 C1660 1.500 . S
C1654 C1655 1.400 1_556 S
C1654 C1656 1.385 . S
C1655 C1653 1.382 1_554 S
C1655 C1654 1.400 1_554 S
C1655 H1672 0.930 . S
C1656 C1654 1.385 . S
C1656 C1658 1.392 . S
C1656 H1673 0.931 . S
C1657 C1653 1.393 . S
C1657 C1658 1.401 . S
C1657 H1674 0.930 . S
C1658 C1656 1.392 . S
C1658 C1657 1.401 . S
C1658 H1675 0.930 . S
C1659 O1642 1.262 . S
C1659 O1643 1.260 . S
C1660 Tb1596 2.833 1_556 S
C1660 O1640 1.251 . S
C1660 O1645 1.256 1_556 S
C1660 C1653 1.500 . S
C1661 H1626 0.929 . S
C1661 C1639 1.444 . S
C1661 C1662 1.317 1_556 S
C1662 H1624 0.930 . S
C1662 C1630 1.432 . S
C1662 C1661 1.317 1_554 S
C1663 O1647 1.283 . S
C1663 O1650 1.243 . S
C1664 C1665 1.382 . S
C1664 C1668 1.393 . S
C1664 C1671 1.500 . S
C1665 C1664 1.382 . S
C1665 C1666 1.400 . S
C1665 H1676 0.930 . S
C1666 C1665 1.400 . S
C1666 C1667 1.384 . S
C1667 C1666 1.384 . S
C1667 C1669 1.392 . S
C1667 H1677 0.931 . S
C1668 C1664 1.393 . S
C1668 C1669 1.401 . S
C1668 H1678 0.930 . S
C1669 C1667 1.392 . S
C1669 C1668 1.401 . S
C1669 H1679 0.930 . S
C1670 O1648 1.262 . S
C1670 O1649 1.260 . S
C1671 Tb1607 2.833 1_655 S
C1671 O1646 1.251 1_655 S
C1671 O1651 1.256 . S
C1671 C1664 1.500 . S
H1672 C1655 0.930 . S
H1673 C1656 0.931 . S
H1674 C1657 0.930 . S
H1675 C1658 0.930 . S
H1676 C1665 0.930 . S
H1677 C1667 0.931 . S
H1678 C1668 0.930 . S
H1679 C1669 0.930 . S
C1680 C1681 1.349 . S
C1680 C1682 1.327 . S
C1680 H1705 0.950 . S
C1681 C1680 1.349 . S
C1681 C1697 1.349 . S
C1682 C1680 1.327 . S
C1682 C1701 1.429 . S
C1682 H1706 0.950 . S
C1683 C1700 1.574 1_556 S
C1683 C1702 1.368 . S
C1683 H1707 0.949 1_556 S
H1684 C1688 0.949 . S
C1685 C1686 1.349 . S
C1685 C1687 1.327 . S
C1685 H1708 0.950 . S
C1686 C1685 1.349 . S
C1686 C1698 1.349 1_554 S
C1687 C1685 1.327 . S
C1687 C1703 1.381 1_554 S
C1687 H1709 0.950 . S
C1688 H1684 0.949 . S
C1688 C1696 1.574 . S
C1688 C1704 1.368 . S
H1689 C1697 0.950 1_655 S
H1690 C1695 0.950 . S
H1691 C1696 0.949 . S
H1692 C1698 0.950 . S
H1693 C1699 0.950 . S
H1694 C1700 0.949 . S
C1695 H1690 0.950 . S
C1695 C1697 1.327 . S
C1695 C1701 1.429 . S
C1696 C1688 1.574 . S
C1696 H1691 0.949 . S
C1696 C1702 1.368 . S
C1697 C1681 1.349 . S
C1697 H1689 0.950 1_455 S
C1697 C1695 1.327 . S
C1698 C1686 1.349 1_556 S
C1698 H1692 0.950 . S
C1698 C1699 1.327 . S
C1699 H1693 0.950 . S
C1699 C1698 1.327 . S
C1699 C1703 1.450 . S
C1700 C1683 1.574 1_554 S
C1700 H1694 0.949 . S
C1700 C1704 1.368 1_554 S
C1701 C1682 1.429 . S
C1701 C1695 1.429 . S
C1701 C1702 1.523 . S
C1702 C1683 1.368 . S
C1702 C1696 1.368 . S
C1702 C1701 1.523 . S
C1703 C1687 1.381 1_556 S
C1703 C1699 1.450 . S
C1703 C1704 1.548 . S
C1704 C1688 1.368 . S
C1704 C1700 1.368 1_556 S
C1704 C1703 1.548 . S
H1705 C1680 0.950 . S
H1706 C1682 0.950 . S
H1707 C1683 0.949 1_554 S
H1708 C1685 0.950 . S
H1709 C1687 0.950 . S
C1710 C1711 1.349 . S
C1710 C1712 1.327 . S
C1710 H1735 0.950 . S
C1711 C1710 1.349 . S
C1711 C1727 1.349 . S
C1712 C1710 1.327 . S
C1712 C1731 1.429 . S
C1712 H1736 0.950 . S
C1713 C1730 1.574 . S
C1713 C1732 1.368 . S
C1713 H1737 0.949 . S
H1714 C1718 0.949 . S
C1715 C1716 1.349 . S
C1715 C1717 1.327 . S
C1715 H1738 0.950 . S
C1716 C1715 1.349 . S
C1716 C1728 1.349 . S
C1717 C1715 1.327 . S
C1717 C1733 1.429 . S
C1717 H1739 0.950 . S
C1718 H1714 0.949 . S
C1718 C1726 1.574 . S
C1718 C1734 1.368 . S
H1719 C1727 0.950 . S
H1720 C1725 0.950 . S
H1721 C1726 0.949 . S
H1722 C1728 0.950 . S
H1723 C1729 0.950 . S
H1724 C1730 0.949 . S
C1725 H1720 0.950 . S
C1725 C1727 1.327 . S
C1725 C1731 1.429 . S
C1726 C1718 1.574 . S
C1726 H1721 0.949 . S
C1726 C1732 1.368 . S
C1727 C1711 1.349 . S
C1727 H1719 0.950 . S
C1727 C1725 1.327 . S
C1728 C1716 1.349 . S
C1728 H1722 0.950 . S
C1728 C1729 1.327 . S
C1729 H1723 0.950 . S
C1729 C1728 1.327 . S
C1729 C1733 1.429 . S
C1730 C1713 1.574 . S
C1730 H1724 0.949 . S
C1730 C1734 1.368 . S
C1731 C1712 1.429 . S
C1731 C1725 1.429 . S
C1731 C1732 1.523 . S
C1732 C1713 1.368 . S
C1732 C1726 1.368 . S
C1732 C1731 1.523 . S
C1733 C1717 1.429 . S
C1733 C1729 1.429 . S
C1733 C1734 1.523 . S
C1734 C1718 1.368 . S
C1734 C1730 1.368 . S
C1734 C1733 1.523 . S
H1735 C1710 0.950 . S
H1736 C1712 0.950 . S
H1737 C1713 0.949 . S
H1738 C1715 0.950 . S
H1739 C1717 0.950 . S
C1740 C1741 1.349 . S
C1740 C1742 1.327 . S
C1740 H1765 0.950 . S
C1741 C1740 1.349 . S
C1741 C1757 1.349 . S
C1742 C1740 1.327 . S
C1742 C1761 1.429 . S
C1742 H1766 0.950 . S
C1743 C1760 1.574 . S
C1743 C1762 1.368 . S
C1743 H1767 0.949 . S
H1744 C1748 0.949 . S
C1745 C1746 1.349 . S
C1745 C1747 1.327 . S
C1745 H1768 0.950 . S
C1746 C1745 1.349 . S
C1746 C1758 1.349 . S
C1747 C1745 1.327 . S
C1747 C1763 1.429 . S
C1747 H1769 0.950 . S
C1748 H1744 0.949 . S
C1748 C1756 1.574 . S
C1748 C1764 1.368 . S
H1749 C1757 0.950 . S
H1750 C1755 0.950 . S
H1751 C1756 0.949 . S
H1752 C1758 0.950 . S
H1753 C1759 0.950 . S
H1754 C1760 0.949 . S
C1755 H1750 0.950 . S
C1755 C1757 1.327 . S
C1755 C1761 1.429 . S
C1756 C1748 1.574 . S
C1756 H1751 0.949 . S
C1756 C1762 1.368 . S
C1757 C1741 1.349 . S
C1757 H1749 0.950 . S
C1757 C1755 1.327 . S
C1758 C1746 1.349 . S
C1758 H1752 0.950 . S
C1758 C1759 1.327 . S
C1759 H1753 0.950 . S
C1759 C1758 1.327 . S
C1759 C1763 1.429 . S
C1760 C1743 1.574 . S
C1760 H1754 0.949 . S
C1760 C1764 1.368 . S
C1761 C1742 1.429 . S
C1761 C1755 1.429 . S
C1761 C1762 1.523 . S
C1762 C1743 1.368 . S
C1762 C1756 1.368 . S
C1762 C1761 1.523 . S
C1763 C1747 1.429 . S
C1763 C1759 1.429 . S
C1763 C1764 1.523 . S
C1764 C1748 1.368 . S
C1764 C1760 1.368 . S
C1764 C1763 1.523 . S
H1765 C1740 0.950 . S
H1766 C1742 0.950 . S
H1767 C1743 0.949 . S
H1768 C1745 0.950 . S
H1769 C1747 0.950 . S
C1770 C1771 1.349 . S
C1770 C1772 1.327 . S
C1770 H1795 0.950 . S
C1771 C1770 1.349 . S
C1771 C1787 1.349 . S
C1772 C1770 1.327 . S
C1772 C1791 1.429 . S
C1772 H1796 0.950 . S
C1773 C1790 1.574 . S
C1773 C1792 1.368 . S
C1773 H1797 0.949 . S
H1774 C1778 0.949 . S
C1775 C1776 1.349 . S
C1775 C1777 1.327 . S
C1775 H1798 0.950 . S
C1776 C1775 1.349 . S
C1776 C1788 1.349 . S
C1777 C1775 1.327 . S
C1777 C1793 1.429 . S
C1777 H1799 0.950 . S
C1778 H1774 0.949 . S
C1778 C1786 1.574 . S
C1778 C1794 1.368 . S
H1779 C1787 0.950 . S
H1780 C1785 0.950 . S
H1781 C1786 0.949 . S
H1782 C1788 0.950 . S
H1783 C1789 0.950 . S
H1784 C1790 0.949 . S
C1785 H1780 0.950 . S
C1785 C1787 1.327 . S
C1785 C1791 1.429 . S
C1786 C1778 1.574 . S
C1786 H1781 0.949 . S
C1786 C1792 1.368 . S
C1787 C1771 1.349 . S
C1787 H1779 0.950 . S
C1787 C1785 1.327 . S
C1788 C1776 1.349 . S
C1788 H1782 0.950 . S
C1788 C1789 1.327 . S
C1789 H1783 0.950 . S
C1789 C1788 1.327 . S
C1789 C1793 1.429 . S
C1790 C1773 1.574 . S
C1790 H1784 0.949 . S
C1790 C1794 1.368 . S
C1791 C1772 1.429 . S
C1791 C1785 1.429 . S
C1791 C1792 1.523 . S
C1792 C1773 1.368 . S
C1792 C1786 1.368 . S
C1792 C1791 1.523 . S
C1793 C1777 1.429 . S
C1793 C1789 1.429 . S
C1793 C1794 1.523 . S
C1794 C1778 1.368 . S
C1794 C1790 1.368 . S
C1794 C1793 1.523 . S
H1795 C1770 0.950 . S
H1796 C1772 0.950 . S
H1797 C1773 0.949 . S
H1798 C1775 0.950 . S
H1799 C1777 0.950 . S
C1800 C1801 1.349 . S
C1800 C1802 1.327 . S
C1800 H1825 0.950 . S
C1801 C1800 1.349 . S
C1801 C1817 1.349 1_455 S
C1802 C1800 1.327 . S
C1802 C1821 1.429 . S
C1802 H1826 0.950 . S
C1803 C1820 1.574 . S
C1803 C1822 1.368 . S
C1803 H1827 0.949 . S
H1804 C1808 0.949 . S
C1805 C1806 1.349 . S
C1805 C1807 1.327 . S
C1805 H1828 0.950 . S
C1806 C1805 1.349 . S
C1806 C1818 1.349 . S
C1807 C1805 1.327 . S
C1807 C1823 1.429 . S
C1807 H1829 0.950 . S
C1808 H1804 0.949 . S
C1808 C1816 1.574 . S
C1808 C1824 1.368 . S
H1809 C1817 0.950 . S
H1810 C1815 0.936 1_655 S
H1811 C1816 0.949 . S
H1812 C1818 0.950 . S
H1813 C1819 0.950 . S
H1814 C1820 0.949 . S
C1815 H1810 0.936 1_455 S
C1815 C1817 1.327 1_455 S
C1815 C1821 1.447 . S
C1816 C1808 1.574 . S
C1816 H1811 0.949 . S
C1816 C1822 1.368 . S
C1817 C1801 1.349 1_655 S
C1817 H1809 0.950 . S
C1817 C1815 1.327 1_655 S
C1818 C1806 1.349 . S
C1818 H1812 0.950 . S
C1818 C1819 1.327 . S
C1819 H1813 0.950 . S
C1819 C1818 1.327 . S
C1819 C1823 1.429 . S
C1820 C1803 1.574 . S
C1820 H1814 0.949 . S
C1820 C1824 1.368 . S
C1821 C1802 1.429 . S
C1821 C1815 1.447 . S
C1821 C1822 1.523 . S
C1822 C1803 1.368 . S
C1822 C1816 1.368 . S
C1822 C1821 1.523 . S
C1823 C1807 1.429 . S
C1823 C1819 1.429 . S
C1823 C1824 1.523 . S
C1824 C1808 1.368 . S
C1824 C1820 1.368 . S
C1824 C1823 1.523 . S
H1825 C1800 0.950 . S
H1826 C1802 0.950 . S
H1827 C1803 0.949 . S
H1828 C1805 0.950 . S
H1829 C1807 0.950 . S
C1830 C1831 1.349 . S
C1830 C1832 1.327 . S
C1830 H1855 0.950 . S
C1831 C1830 1.349 . S
C1831 C1847 1.349 . S
C1832 C1830 1.327 . S
C1832 C1851 1.429 . S
C1832 H1856 0.950 . S
C1833 C1850 1.574 . S
C1833 C1852 1.368 . S
C1833 H1857 0.949 . S
H1834 C1838 0.949 . S
C1835 C1836 1.349 . S
C1835 C1837 1.327 . S
C1835 H1858 0.950 . S
C1836 C1835 1.349 . S
C1836 C1848 1.349 . S
C1837 C1835 1.327 . S
C1837 C1853 1.429 . S
C1837 H1859 0.950 . S
C1838 H1834 0.949 . S
C1838 C1846 1.574 . S
C1838 C1854 1.368 . S
H1839 C1847 0.950 . S
H1840 C1845 0.950 . S
H1841 C1846 0.949 . S
H1842 C1848 0.950 . S
H1843 C1849 0.950 . S
H1844 C1850 0.949 . S
C1845 H1840 0.950 . S
C1845 C1847 1.327 . S
C1845 C1851 1.429 . S
C1846 C1838 1.574 . S
C1846 H1841 0.949 . S
C1846 C1852 1.368 . S
C1847 C1831 1.349 . S
C1847 H1839 0.950 . S
C1847 C1845 1.327 . S
C1848 C1836 1.349 . S
C1848 H1842 0.950 . S
C1848 C1849 1.327 . S
C1849 H1843 0.950 . S
C1849 C1848 1.327 . S
C1849 C1853 1.429 . S
C1850 C1833 1.574 . S
C1850 H1844 0.949 . S
C1850 C1854 1.368 . S
C1851 C1832 1.429 . S
C1851 C1845 1.429 . S
C1851 C1852 1.523 . S
C1852 C1833 1.368 . S
C1852 C1846 1.368 . S
C1852 C1851 1.523 . S
C1853 C1837 1.429 . S
C1853 C1849 1.429 . S
C1853 C1854 1.523 . S
C1854 C1838 1.368 . S
C1854 C1850 1.368 . S
C1854 C1853 1.523 . S
H1855 C1830 0.950 . S
H1856 C1832 0.950 . S
H1857 C1833 0.949 . S
H1858 C1835 0.950 . S
H1859 C1837 0.950 . S
C1860 C1861 1.349 . S
C1860 C1862 1.327 . S
C1860 H1885 0.950 . S
C1861 C1860 1.349 . S
C1861 C1877 1.349 . S
C1862 C1860 1.327 . S
C1862 C1881 1.429 . S
C1862 H1886 0.950 . S
C1863 C1880 1.574 . S
C1863 C1882 1.368 . S
C1863 H1887 0.949 . S
H1864 C1868 0.949 . S
C1865 C1866 1.349 . S
C1865 C1867 1.327 . S
C1865 H1888 0.950 . S
C1866 C1865 1.349 . S
C1866 C1878 1.349 . S
C1867 C1865 1.327 . S
C1867 C1883 1.429 . S
C1867 H1889 0.950 . S
C1868 H1864 0.949 . S
C1868 C1876 1.574 . S
C1868 C1884 1.368 . S
H1869 C1877 0.950 . S
H1870 C1875 0.950 . S
H1871 C1876 0.949 . S
H1872 C1878 0.950 . S
H1873 C1879 0.950 . S
H1874 C1880 0.949 . S
C1875 H1870 0.950 . S
C1875 C1877 1.327 . S
C1875 C1881 1.429 . S
C1876 C1868 1.574 . S
C1876 H1871 0.949 . S
C1876 C1882 1.368 . S
C1877 C1861 1.349 . S
C1877 H1869 0.950 . S
C1877 C1875 1.327 . S
C1878 C1866 1.349 . S
C1878 H1872 0.950 . S
C1878 C1879 1.327 . S
C1879 H1873 0.950 . S
C1879 C1878 1.327 . S
C1879 C1883 1.429 . S
C1880 C1863 1.574 . S
C1880 H1874 0.949 . S
C1880 C1884 1.368 . S
C1881 C1862 1.429 . S
C1881 C1875 1.429 . S
C1881 C1882 1.523 . S
C1882 C1863 1.368 . S
C1882 C1876 1.368 . S
C1882 C1881 1.523 . S
C1883 C1867 1.429 . S
C1883 C1879 1.429 . S
C1883 C1884 1.523 . S
C1884 C1868 1.368 . S
C1884 C1880 1.368 . S
C1884 C1883 1.523 . S
H1885 C1860 0.950 . S
H1886 C1862 0.950 . S
H1887 C1863 0.949 . S
H1888 C1865 0.950 . S
H1889 C1867 0.950 . S
C1890 C1891 1.349 . S
C1890 C1892 1.327 . S
C1890 H1915 0.950 . S
C1891 C1890 1.349 . S
C1891 C1907 1.349 . S
C1892 C1890 1.327 . S
C1892 C1911 1.429 . S
C1892 H1916 0.950 . S
C1893 C1910 1.574 . S
C1893 C1912 1.368 . S
C1893 H1917 0.949 . S
H1894 C1898 0.949 . S
C1895 C1896 1.349 . S
C1895 C1897 1.327 . S
C1895 H1918 0.950 . S
C1896 C1895 1.349 . S
C1896 C1908 1.349 . S
C1897 C1895 1.327 . S
C1897 C1913 1.429 . S
C1897 H1919 0.950 . S
C1898 H1894 0.949 . S
C1898 C1906 1.574 . S
C1898 C1914 1.368 . S
H1899 C1907 0.950 . S
H1900 C1905 0.950 . S
H1901 C1906 0.949 . S
H1902 C1908 0.950 . S
H1903 C1909 0.950 . S
H1904 C1910 0.949 . S
C1905 H1900 0.950 . S
C1905 C1907 1.327 . S
C1905 C1911 1.429 . S
C1906 C1898 1.574 . S
C1906 H1901 0.949 . S
C1906 C1912 1.368 . S
C1907 C1891 1.349 . S
C1907 H1899 0.950 . S
C1907 C1905 1.327 . S
C1908 C1896 1.349 . S
C1908 H1902 0.950 . S
C1908 C1909 1.327 . S
C1909 H1903 0.950 . S
C1909 C1908 1.327 . S
C1909 C1913 1.429 . S
C1910 C1893 1.574 . S
C1910 H1904 0.949 . S
C1910 C1914 1.368 . S
C1911 C1892 1.429 . S
C1911 C1905 1.429 . S
C1911 C1912 1.523 . S
C1912 C1893 1.368 . S
C1912 C1906 1.368 . S
C1912 C1911 1.523 . S
C1913 C1897 1.429 . S
C1913 C1909 1.429 . S
C1913 C1914 1.523 . S
C1914 C1898 1.368 . S
C1914 C1910 1.368 . S
C1914 C1913 1.523 . S
H1915 C1890 0.950 . S
H1916 C1892 0.950 . S
H1917 C1893 0.949 . S
H1918 C1895 0.950 . S
H1919 C1897 0.950 . S
C1920 C1921 1.349 . S
C1920 C1922 1.327 . S
C1920 H1945 0.950 . S
C1921 C1920 1.349 . S
C1921 C1937 1.349 . S
C1922 C1920 1.327 . S
C1922 C1941 1.429 . S
C1922 H1946 0.950 . S
C1923 C1940 1.574 . S
C1923 C1942 1.368 . S
C1923 H1947 0.949 . S
H1924 C1928 0.949 . S
C1925 C1926 1.349 . S
C1925 C1927 1.327 . S
C1925 H1948 0.950 . S
C1926 C1925 1.349 . S
C1926 C1938 1.349 . S
C1927 C1925 1.327 . S
C1927 C1943 1.429 . S
C1927 H1949 0.950 1_455 S
C1928 H1924 0.949 . S
C1928 C1936 1.574 . S
C1928 C1944 1.368 . S
H1929 C1937 0.950 . S
H1930 C1935 0.950 . S
H1931 C1936 0.949 . S
H1932 C1938 0.950 . S
H1933 C1939 0.950 . S
H1934 C1940 0.949 . S
C1935 H1930 0.950 . S
C1935 C1937 1.327 . S
C1935 C1941 1.429 . S
C1936 C1928 1.574 . S
C1936 H1931 0.949 . S
C1936 C1942 1.368 1_455 S
C1937 C1921 1.349 . S
C1937 H1929 0.950 . S
C1937 C1935 1.327 . S
C1938 C1926 1.349 . S
C1938 H1932 0.950 . S
C1938 C1939 1.327 . S
C1939 H1933 0.950 . S
C1939 C1938 1.327 . S
C1939 C1943 1.429 . S
C1940 C1923 1.574 . S
C1940 H1934 0.949 . S
C1940 C1944 1.368 1_655 S
C1941 C1922 1.429 . S
C1941 C1935 1.429 . S
C1941 C1942 1.523 . S
C1942 C1923 1.368 . S
C1942 C1936 1.368 1_655 S
C1942 C1941 1.523 . S
C1943 C1927 1.429 . S
C1943 C1939 1.429 . S
C1943 C1944 1.523 . S
C1944 C1928 1.368 . S
C1944 C1940 1.368 1_455 S
C1944 C1943 1.523 . S
H1945 C1920 0.950 . S
H1946 C1922 0.950 . S
H1947 C1923 0.949 . S
H1948 C1925 0.950 . S
H1949 C1927 0.950 1_655 S
C1950 C1951 1.349 . S
C1950 C1952 1.327 . S
C1950 H1975 0.950 . S
C1951 C1950 1.349 . S
C1951 C1967 1.349 . S
C1952 C1950 1.327 . S
C1952 C1971 1.429 . S
C1952 H1976 0.950 . S
C1953 C1970 1.574 . S
C1953 C1972 1.368 . S
C1953 H1977 0.949 . S
H1954 C1958 0.949 . S
C1955 C1956 1.349 . S
C1955 C1957 1.327 . S
C1955 H1978 0.950 . S
C1956 C1955 1.349 . S
C1956 C1968 1.349 . S
C1957 C1955 1.327 . S
C1957 C1973 1.429 . S
C1957 H1979 0.950 . S
C1958 H1954 0.949 . S
C1958 C1966 1.574 . S
C1958 C1974 1.368 . S
H1959 C1967 0.950 . S
H1960 C1965 0.950 . S
H1961 C1966 0.949 . S
H1962 C1968 0.950 . S
H1963 C1969 0.950 . S
H1964 C1970 0.949 . S
C1965 H1960 0.950 . S
C1965 C1967 1.327 . S
C1965 C1971 1.429 . S
C1966 C1958 1.574 . S
C1966 H1961 0.949 . S
C1966 C1972 1.368 . S
C1967 C1951 1.349 . S
C1967 H1959 0.950 . S
C1967 C1965 1.327 . S
C1968 C1956 1.349 . S
C1968 H1962 0.950 . S
C1968 C1969 1.327 . S
C1969 H1963 0.950 . S
C1969 C1968 1.327 . S
C1969 C1973 1.429 . S
C1970 C1953 1.574 . S
C1970 H1964 0.949 . S
C1970 C1974 1.368 . S
C1971 C1952 1.429 . S
C1971 C1965 1.429 . S
C1971 C1972 1.523 . S
C1972 C1953 1.368 . S
C1972 C1966 1.368 . S
C1972 C1971 1.523 . S
C1973 C1957 1.429 . S
C1973 C1969 1.429 . S
C1973 C1974 1.523 . S
C1974 C1958 1.368 . S
C1974 C1970 1.368 . S
C1974 C1973 1.523 . S
H1975 C1950 0.950 . S
H1976 C1952 0.950 . S
H1977 C1953 0.949 . S
H1978 C1955 0.950 . S
H1979 C1957 0.950 . S
C1980 C1981 1.349 . S
C1980 C1982 1.327 . S
C1980 H2005 0.950 . S
C1981 C1980 1.349 . S
C1981 C1997 1.349 . S
C1982 C1980 1.327 . S
C1982 C2001 1.429 . S
C1982 H2006 0.950 . S
C1983 C2000 1.574 . S
C1983 C2002 1.368 . S
C1983 H2007 0.949 . S
H1984 C1988 0.949 . S
C1985 C1986 1.349 . S
C1985 C1987 1.327 . S
C1985 H2008 0.950 . S
C1986 C1985 1.349 . S
C1986 C1998 1.349 . S
C1987 C1985 1.327 . S
C1987 C2003 1.429 . S
C1987 H2009 0.950 . S
C1988 H1984 0.949 . S
C1988 C1996 1.574 . S
C1988 C2004 1.368 . S
H1989 C1997 0.950 . S
H1990 C1995 0.950 . S
H1991 C1996 0.949 . S
H1992 C1998 0.950 . S
H1993 C1999 0.950 . S
H1994 C2000 0.949 . S
C1995 H1990 0.950 . S
C1995 C1997 1.327 . S
C1995 C2001 1.429 . S
C1996 C1988 1.574 . S
C1996 H1991 0.949 . S
C1996 C2002 1.368 . S
C1997 C1981 1.349 . S
C1997 H1989 0.950 . S
C1997 C1995 1.327 . S
C1998 C1986 1.349 . S
C1998 H1992 0.950 . S
C1998 C1999 1.327 . S
C1999 H1993 0.950 . S
C1999 C1998 1.327 . S
C1999 C2003 1.429 . S
C2000 C1983 1.574 . S
C2000 H1994 0.949 . S
C2000 C2004 1.368 . S
C2001 C1982 1.429 . S
C2001 C1995 1.429 . S
C2001 C2002 1.523 . S
C2002 C1983 1.368 . S
C2002 C1996 1.368 . S
C2002 C2001 1.523 . S
C2003 C1987 1.429 . S
C2003 C1999 1.429 . S
C2003 C2004 1.523 . S
C2004 C1988 1.368 . S
C2004 C2000 1.368 . S
C2004 C2003 1.523 . S
H2005 C1980 0.950 . S
H2006 C1982 0.950 . S
H2007 C1983 0.949 . S
H2008 C1985 0.950 . S
H2009 C1987 0.950 . S
C2010 C2011 1.349 . S
C2010 C2012 1.327 . S
C2010 H2035 0.950 . S
C2011 C2010 1.349 . S
C2011 C2027 1.349 . S
C2012 C2010 1.327 . S
C2012 C2031 1.429 . S
C2012 H2036 0.950 . S
C2013 C2030 1.574 . S
C2013 C2032 1.368 . S
C2013 H2037 0.949 . S
H2014 C2018 0.949 . S
C2015 C2016 1.349 . S
C2015 C2017 1.327 . S
C2015 H2038 0.950 . S
C2016 C2015 1.349 . S
C2016 C2028 1.349 . S
C2017 C2015 1.327 . S
C2017 C2033 1.429 . S
C2017 H2039 0.950 . S
C2018 H2014 0.949 . S
C2018 C2026 1.574 . S
C2018 C2034 1.368 . S
H2019 C2027 0.950 . S
H2020 C2025 0.950 . S
H2021 C2026 0.949 . S
H2022 C2028 0.950 . S
H2023 C2029 0.950 . S
H2024 C2030 0.949 . S
C2025 H2020 0.950 . S
C2025 C2027 1.327 . S
C2025 C2031 1.429 . S
C2026 C2018 1.574 . S
C2026 H2021 0.949 . S
C2026 C2032 1.368 . S
C2027 C2011 1.349 . S
C2027 H2019 0.950 . S
C2027 C2025 1.327 . S
C2028 C2016 1.349 . S
C2028 H2022 0.950 . S
C2028 C2029 1.327 . S
C2029 H2023 0.950 . S
C2029 C2028 1.327 . S
C2029 C2033 1.429 . S
C2030 C2013 1.574 . S
C2030 H2024 0.949 . S
C2030 C2034 1.368 . S
C2031 C2012 1.429 . S
C2031 C2025 1.429 . S
C2031 C2032 1.523 . S
C2032 C2013 1.368 . S
C2032 C2026 1.368 . S
C2032 C2031 1.523 . S
C2033 C2017 1.429 . S
C2033 C2029 1.429 . S
C2033 C2034 1.523 . S
C2034 C2018 1.368 . S
C2034 C2030 1.368 . S
C2034 C2033 1.523 . S
H2035 C2010 0.950 . S
H2036 C2012 0.950 . S
H2037 C2013 0.949 . S
H2038 C2015 0.950 . S
H2039 C2017 0.950 . S
C2040 C2041 1.349 . S
C2040 C2042 1.327 . S
C2040 H2065 0.950 . S
C2041 C2040 1.349 . S
C2041 C2057 1.349 . S
C2042 C2040 1.327 . S
C2042 C2061 1.429 . S
C2042 H2066 0.950 . S
C2043 C2060 1.574 . S
C2043 C2062 1.368 . S
C2043 H2067 0.949 . S
H2044 C2048 0.949 . S
C2045 C2046 1.349 . S
C2045 C2047 1.327 . S
C2045 H2068 0.950 . S
C2046 C2045 1.349 . S
C2046 C2058 1.349 . S
C2047 C2045 1.327 . S
C2047 C2063 1.429 . S
C2047 H2069 0.975 . S
C2048 H2044 0.949 . S
C2048 C2056 1.574 . S
C2048 C2064 1.368 . S
H2049 C2057 0.950 . S
H2050 C2055 0.950 . S
H2051 C2056 0.949 . S
H2052 C2058 0.950 . S
H2053 C2059 0.950 . S
H2054 C2060 0.949 . S
C2055 H2050 0.950 . S
C2055 C2057 1.327 . S
C2055 C2061 1.429 . S
C2056 C2048 1.574 . S
C2056 H2051 0.949 . S
C2056 C2062 1.368 1_455 S
C2057 C2041 1.349 . S
C2057 H2049 0.950 . S
C2057 C2055 1.327 . S
C2058 C2046 1.349 . S
C2058 H2052 0.950 . S
C2058 C2059 1.327 . S
C2059 H2053 0.950 . S
C2059 C2058 1.327 . S
C2059 C2063 1.429 . S
C2060 C2043 1.574 . S
C2060 H2054 0.949 . S
C2060 C2064 1.368 1_655 S
C2061 C2042 1.429 . S
C2061 C2055 1.429 . S
C2061 C2062 1.523 . S
C2062 C2043 1.368 . S
C2062 C2056 1.368 1_655 S
C2062 C2061 1.523 . S
C2063 C2047 1.429 . S
C2063 C2059 1.429 . S
C2063 C2064 1.523 . S
C2064 C2048 1.368 . S
C2064 C2060 1.368 1_455 S
C2064 C2063 1.523 . S
H2065 C2040 0.950 . S
H2066 C2042 0.950 . S
H2067 C2043 0.949 . S
H2068 C2045 0.950 . S
H2069 C2047 0.975 . S
C2070 C2071 1.349 . S
C2070 C2072 1.327 . S
C2070 H2095 0.950 . S
C2071 C2070 1.349 . S
C2071 C2087 1.349 . S
C2072 C2070 1.327 . S
C2072 C2091 1.429 . S
C2072 H2096 0.950 . S
C2073 C2090 1.574 . S
C2073 C2092 1.368 . S
C2073 H2097 0.949 . S
H2074 C2078 0.949 . S
C2075 C2076 1.349 . S
C2075 C2077 1.327 . S
C2075 H2098 0.950 . S
C2076 C2075 1.349 . S
C2076 C2088 1.349 . S
C2077 C2075 1.327 . S
C2077 C2093 1.429 . S
C2077 H2099 0.950 . S
C2078 H2074 0.949 . S
C2078 C2086 1.574 . S
C2078 C2094 1.368 . S
H2079 C2087 0.950 . S
H2080 C2085 0.950 . S
H2081 C2086 0.949 . S
H2082 C2088 0.950 . S
H2083 C2089 0.950 . S
H2084 C2090 0.949 . S
C2085 H2080 0.950 . S
C2085 C2087 1.327 . S
C2085 C2091 1.429 . S
C2086 C2078 1.574 . S
C2086 H2081 0.949 . S
C2086 C2092 1.368 . S
C2087 C2071 1.349 . S
C2087 H2079 0.950 . S
C2087 C2085 1.327 . S
C2088 C2076 1.349 . S
C2088 H2082 0.950 . S
C2088 C2089 1.327 . S
C2089 H2083 0.950 . S
C2089 C2088 1.327 . S
C2089 C2093 1.429 . S
C2090 C2073 1.574 . S
C2090 H2084 0.949 . S
C2090 C2094 1.368 . S
C2091 C2072 1.429 . S
C2091 C2085 1.429 . S
C2091 C2092 1.523 . S
C2092 C2073 1.368 . S
C2092 C2086 1.368 . S
C2092 C2091 1.523 . S
C2093 C2077 1.429 . S
C2093 C2089 1.429 . S
C2093 C2094 1.523 . S
C2094 C2078 1.368 . S
C2094 C2090 1.368 . S
C2094 C2093 1.523 . S
H2095 C2070 0.950 . S
H2096 C2072 0.950 . S
H2097 C2073 0.949 . S
H2098 C2075 0.950 . S
H2099 C2077 0.950 . S
C2100 C2101 1.349 . S
C2100 C2102 1.327 . S
C2100 H2125 0.950 . S
C2101 C2100 1.349 . S
C2101 C2117 1.349 . S
C2102 C2100 1.327 . S
C2102 C2121 1.429 . S
C2102 H2126 0.950 . S
C2103 C2120 1.574 . S
C2103 C2122 1.368 . S
C2103 H2127 0.949 . S
H2104 C2108 0.949 . S
C2105 C2106 1.349 . S
C2105 C2107 1.327 . S
C2105 H2128 0.950 . S
C2106 C2105 1.349 . S
C2106 C2118 1.349 . S
C2107 C2105 1.327 . S
C2107 C2123 1.429 . S
C2107 H2129 0.950 . S
C2108 H2104 0.949 . S
C2108 C2116 1.574 . S
C2108 C2124 1.368 . S
H2109 C2117 0.950 . S
H2110 C2115 0.950 . S
H2111 C2116 0.949 . S
H2112 C2118 0.950 . S
H2113 C2119 0.950 . S
H2114 C2120 0.949 . S
C2115 H2110 0.950 . S
C2115 C2117 1.327 . S
C2115 C2121 1.429 . S
C2116 C2108 1.574 . S
C2116 H2111 0.949 . S
C2116 C2122 1.368 . S
C2117 C2101 1.349 . S
C2117 H2109 0.950 . S
C2117 C2115 1.327 . S
C2118 C2106 1.349 . S
C2118 H2112 0.950 . S
C2118 C2119 1.327 . S
C2119 H2113 0.950 . S
C2119 C2118 1.327 . S
C2119 C2123 1.429 . S
C2120 C2103 1.574 . S
C2120 H2114 0.949 . S
C2120 C2124 1.368 . S
C2121 C2102 1.429 . S
C2121 C2115 1.429 . S
C2121 C2122 1.523 . S
C2122 C2103 1.368 . S
C2122 C2116 1.368 . S
C2122 C2121 1.523 . S
C2123 C2107 1.429 . S
C2123 C2119 1.429 . S
C2123 C2124 1.523 . S
C2124 C2108 1.368 . S
C2124 C2120 1.368 . S
C2124 C2123 1.523 . S
H2125 C2100 0.950 . S
H2126 C2102 0.950 . S
H2127 C2103 0.949 . S
H2128 C2105 0.950 . S
H2129 C2107 0.950 . S
C2130 C2131 1.349 . S
C2130 C2132 1.327 . S
C2130 H2155 0.950 . S
C2131 C2130 1.349 . S
C2131 C2147 1.349 . S
C2132 C2130 1.327 . S
C2132 C2151 1.429 . S
C2132 H2156 0.950 . S
C2133 C2150 1.574 . S
C2133 C2152 1.368 . S
C2133 H2157 0.949 . S
H2134 C2138 0.949 . S
C2135 C2136 1.349 . S
C2135 C2137 1.327 . S
C2135 H2158 0.950 . S
C2136 C2135 1.349 . S
C2136 C2148 1.349 . S
C2137 C2135 1.327 . S
C2137 C2153 1.429 . S
C2137 H2159 0.950 . S
C2138 H2134 0.949 . S
C2138 C2146 1.574 . S
C2138 C2154 1.368 . S
H2139 C2147 0.950 . S
H2140 C2145 0.950 . S
H2141 C2146 0.949 . S
H2142 C2148 0.950 . S
H2143 C2149 0.950 . S
H2144 C2150 0.949 . S
C2145 H2140 0.950 . S
C2145 C2147 1.327 . S
C2145 C2151 1.429 . S
C2146 C2138 1.574 . S
C2146 H2141 0.949 . S
C2146 C2152 1.368 . S
C2147 C2131 1.349 . S
C2147 H2139 0.950 . S
C2147 C2145 1.327 . S
C2148 C2136 1.349 . S
C2148 H2142 0.950 . S
C2148 C2149 1.327 . S
C2149 H2143 0.950 . S
C2149 C2148 1.327 . S
C2149 C2153 1.429 . S
C2150 C2133 1.574 . S
C2150 H2144 0.949 . S
C2150 C2154 1.368 . S
C2151 C2132 1.429 . S
C2151 C2145 1.429 . S
C2151 C2152 1.523 . S
C2152 C2133 1.368 . S
C2152 C2146 1.368 . S
C2152 C2151 1.523 . S
C2153 C2137 1.429 . S
C2153 C2149 1.429 . S
C2153 C2154 1.523 . S
C2154 C2138 1.368 . S
C2154 C2150 1.368 . S
C2154 C2153 1.523 . S
H2155 C2130 0.950 . S
H2156 C2132 0.950 . S
H2157 C2133 0.949 . S
H2158 C2135 0.950 . S
H2159 C2137 0.950 . S
C2160 C2161 1.349 . S
C2160 C2162 1.327 . S
C2160 H2185 0.950 1_554 S
C2161 C2160 1.349 . S
C2161 C2177 1.349 . S
C2162 C2160 1.327 . S
C2162 C2181 1.429 . S
C2162 H2186 0.950 1_554 S
C2163 C2180 1.574 1_565 S
C2163 C2182 1.368 . S
C2163 H2187 0.949 1_565 S
H2164 C2168 0.949 1_556 S
C2165 C2166 1.349 . S
C2165 C2167 1.327 . S
C2165 H2188 0.950 . S
C2166 C2165 1.349 . S
C2166 C2178 1.343 1_545 S
C2167 C2165 1.327 . S
C2167 C2183 1.429 . S
C2167 H2189 0.950 . S
C2168 H2164 0.949 1_554 S
C2168 C2176 1.574 . S
C2168 C2184 1.368 . S
H2169 C2177 0.950 . S
H2170 C2175 0.950 . S
H2171 C2176 0.949 1_556 S
H2172 C2178 0.951 . S
H2173 C2179 0.950 1_556 S
H2174 C2180 0.949 . S
C2175 H2170 0.950 . S
C2175 C2177 1.327 . S
C2175 C2181 1.429 . S
C2176 C2168 1.574 . S
C2176 H2171 0.949 1_554 S
C2176 C2182 1.368 . S
C2177 C2161 1.349 . S
C2177 H2169 0.950 . S
C2177 C2175 1.327 . S
C2178 C2166 1.343 1_565 S
C2178 H2172 0.951 . S
C2178 C2179 1.332 . S
C2179 H2173 0.950 1_554 S
C2179 C2178 1.332 . S
C2179 C2183 1.429 1_565 S
C2180 C2163 1.574 1_545 S
C2180 H2174 0.949 . S
C2180 C2184 1.368 1_545 S
C2181 C2162 1.429 . S
C2181 C2175 1.429 . S
C2181 C2182 1.523 . S
C2182 C2163 1.368 . S
C2182 C2176 1.368 . S
C2182 C2181 1.523 . S
C2183 C2167 1.429 . S
C2183 C2179 1.429 1_545 S
C2183 C2184 1.523 1_545 S
C2184 C2168 1.368 . S
C2184 C2180 1.368 1_565 S
C2184 C2183 1.523 1_565 S
H2185 C2160 0.950 1_556 S
H2186 C2162 0.950 1_556 S
H2187 C2163 0.949 1_545 S
H2188 C2165 0.950 . S
H2189 C2167 0.950 . S
C2190 C2191 1.349 . S
C2190 C2192 1.327 . S
C2190 H2215 0.950 . S
C2191 C2190 1.349 . S
C2191 C2207 1.349 1_556 S
C2192 C2190 1.327 . S
C2192 C2211 1.429 . S
C2192 H2216 0.950 . S
C2193 C2210 1.574 . S
C2193 C2212 1.355 1_554 S
C2193 H2217 0.949 . S
H2194 C2198 0.949 . S
C2195 C2196 1.349 . S
C2195 C2197 1.327 . S
C2195 H2218 0.950 . S
C2196 C2195 1.349 . S
C2196 C2208 1.349 1_554 S
C2197 C2195 1.327 . S
C2197 C2213 1.429 . S
C2197 H2219 0.950 . S
C2198 H2194 0.949 . S
C2198 C2206 1.574 . S
C2198 C2214 1.337 1_556 S
H2199 C2207 0.950 . S
H2200 C2205 0.950 . S
H2201 C2206 0.949 . S
H2202 C2208 0.950 . S
H2203 C2209 0.950 . S
H2204 C2210 0.949 . S
C2205 H2200 0.950 . S
C2205 C2207 1.327 . S
C2205 C2211 1.429 1_554 S
C2206 C2198 1.574 . S
C2206 H2201 0.949 . S
C2206 C2212 1.379 . S
C2207 C2191 1.349 1_554 S
C2207 H2199 0.950 . S
C2207 C2205 1.327 . S
C2208 C2196 1.349 1_556 S
C2208 H2202 0.950 . S
C2208 C2209 1.327 . S
C2209 H2203 0.950 . S
C2209 C2208 1.327 . S
C2209 C2213 1.429 1_556 S
C2210 C2193 1.574 . S
C2210 H2204 0.949 . S
C2210 C2214 1.393 . S
C2211 C2192 1.429 . S
C2211 C2205 1.429 1_556 S
C2211 C2212 1.528 . S
C2212 C2193 1.355 1_556 S
C2212 C2206 1.379 . S
C2212 C2211 1.528 . S
C2213 C2197 1.429 . S
C2213 C2209 1.429 1_554 S
C2213 C2214 1.535 . S
C2214 C2198 1.337 1_554 S
C2214 C2210 1.393 . S
C2214 C2213 1.535 . S
H2215 C2190 0.950 . S
H2216 C2192 0.950 . S
H2217 C2193 0.949 . S
H2218 C2195 0.950 . S
H2219 C2197 0.950 . S
C2220 C2221 1.349 . S
C2220 C2222 1.327 . S
C2220 H2245 0.950 . S
C2221 C2220 1.349 . S
C2221 C2237 1.349 . S
C2222 C2220 1.327 . S
C2222 C2241 1.429 . S
C2222 H2246 0.950 . S
C2223 C2240 1.574 . S
C2223 C2242 1.368 . S
C2223 H2247 0.949 . S
H2224 C2228 0.949 . S
C2225 C2226 1.349 . S
C2225 C2227 1.327 . S
C2225 H2248 0.950 . S
C2226 C2225 1.349 . S
C2226 C2238 1.349 . S
C2227 C2225 1.327 . S
C2227 C2243 1.429 . S
C2227 H2249 0.950 . S
C2228 H2224 0.949 . S
C2228 C2236 1.574 . S
C2228 C2244 1.368 . S
H2229 C2237 0.950 . S
H2230 C2235 0.950 . S
H2231 C2236 0.949 . S
H2232 C2238 0.950 . S
H2233 C2239 0.950 . S
H2234 C2240 0.949 . S
C2235 H2230 0.950 . S
C2235 C2237 1.327 . S
C2235 C2241 1.429 . S
C2236 C2228 1.574 . S
C2236 H2231 0.949 . S
C2236 C2242 1.368 . S
C2237 C2221 1.349 . S
C2237 H2229 0.950 . S
C2237 C2235 1.327 . S
C2238 C2226 1.349 . S
C2238 H2232 0.950 . S
C2238 C2239 1.327 . S
C2239 H2233 0.950 . S
C2239 C2238 1.327 . S
C2239 C2243 1.429 . S
C2240 C2223 1.574 . S
C2240 H2234 0.949 . S
C2240 C2244 1.368 . S
C2241 C2222 1.429 . S
C2241 C2235 1.429 . S
C2241 C2242 1.523 . S
C2242 C2223 1.368 . S
C2242 C2236 1.368 . S
C2242 C2241 1.523 . S
C2243 C2227 1.429 . S
C2243 C2239 1.429 . S
C2243 C2244 1.523 . S
C2244 C2228 1.368 . S
C2244 C2240 1.368 . S
C2244 C2243 1.523 . S
H2245 C2220 0.950 . S
H2246 C2222 0.950 . S
H2247 C2223 0.949 . S
H2248 C2225 0.950 . S
H2249 C2227 0.950 . S
C2250 C2251 1.349 . S
C2250 C2252 1.327 . S
C2250 H2275 0.950 . S
C2251 C2250 1.349 . S
C2251 C2267 1.349 . S
C2252 C2250 1.327 . S
C2252 C2271 1.429 . S
C2252 H2276 0.950 . S
C2253 C2270 1.574 . S
C2253 C2272 1.368 . S
C2253 H2277 0.949 . S
H2254 C2258 0.949 . S
C2255 C2256 1.349 1_655 S
C2255 C2257 1.327 . S
C2255 H2278 0.950 1_655 S
C2256 C2255 1.349 1_455 S
C2256 C2268 1.349 . S
C2257 C2255 1.327 . S
C2257 C2273 1.429 . S
C2257 H2279 0.950 . S
C2258 H2254 0.949 . S
C2258 C2266 1.574 . S
C2258 C2274 1.368 . S
H2259 C2267 0.950 . S
H2260 C2265 0.950 . S
H2261 C2266 0.949 . S
H2262 C2268 0.950 . S
H2263 C2269 0.950 . S
H2264 C2270 0.949 . S
C2265 H2260 0.950 . S
C2265 C2267 1.327 . S
C2265 C2271 1.429 . S
C2266 C2258 1.574 . S
C2266 H2261 0.949 . S
C2266 C2272 1.368 . S
C2267 C2251 1.349 . S
C2267 H2259 0.950 . S
C2267 C2265 1.327 . S
C2268 C2256 1.349 . S
C2268 H2262 0.950 . S
C2268 C2269 1.327 1_455 S
C2269 H2263 0.950 . S
C2269 C2268 1.327 1_655 S
C2269 C2273 1.429 . S
C2270 C2253 1.574 . S
C2270 H2264 0.949 . S
C2270 C2274 1.368 . S
C2271 C2252 1.429 . S
C2271 C2265 1.429 . S
C2271 C2272 1.523 . S
C2272 C2253 1.368 . S
C2272 C2266 1.368 . S
C2272 C2271 1.523 . S
C2273 C2257 1.429 . S
C2273 C2269 1.429 . S
C2273 C2274 1.523 . S
C2274 C2258 1.368 . S
C2274 C2270 1.368 . S
C2274 C2273 1.523 . S
H2275 C2250 0.950 . S
H2276 C2252 0.950 . S
H2277 C2253 0.949 . S
H2278 C2255 0.950 1_455 S
H2279 C2257 0.950 . S
C2280 C2281 1.349 . S
C2280 C2282 1.327 . S
C2280 H2305 0.950 . S
C2281 C2280 1.349 . S
C2281 C2297 1.349 . S
C2282 C2280 1.327 . S
C2282 C2301 1.429 . S
C2282 H2306 0.950 . S
C2283 C2300 1.574 . S
C2283 C2302 1.368 . S
C2283 H2307 0.949 . S
H2284 C2288 0.949 . S
C2285 C2286 1.349 . S
C2285 C2287 1.327 . S
C2285 H2308 0.950 . S
C2286 C2285 1.349 . S
C2286 C2298 1.349 . S
C2287 C2285 1.327 . S
C2287 C2303 1.429 . S
C2287 H2309 0.950 . S
C2288 H2284 0.949 . S
C2288 C2296 1.574 . S
C2288 C2304 1.368 . S
H2289 C2297 0.950 . S
H2290 C2295 0.950 . S
H2291 C2296 0.949 . S
H2292 C2298 0.950 . S
H2293 C2299 0.950 . S
H2294 C2300 0.949 . S
C2295 H2290 0.950 . S
C2295 C2297 1.327 . S
C2295 C2301 1.429 . S
C2296 C2288 1.574 . S
C2296 H2291 0.949 . S
C2296 C2302 1.368 . S
C2297 C2281 1.349 . S
C2297 H2289 0.950 . S
C2297 C2295 1.327 . S
C2298 C2286 1.349 . S
C2298 H2292 0.950 . S
C2298 C2299 1.327 . S
C2299 H2293 0.950 . S
C2299 C2298 1.327 . S
C2299 C2303 1.429 . S
C2300 C2283 1.574 . S
C2300 H2294 0.949 . S
C2300 C2304 1.368 . S
C2301 C2282 1.429 . S
C2301 C2295 1.429 . S
C2301 C2302 1.523 . S
C2302 C2283 1.368 . S
C2302 C2296 1.368 . S
C2302 C2301 1.523 . S
C2303 C2287 1.429 . S
C2303 C2299 1.429 . S
C2303 C2304 1.523 . S
C2304 C2288 1.368 . S
C2304 C2300 1.368 . S
C2304 C2303 1.523 . S
H2305 C2280 0.950 . S
H2306 C2282 0.950 . S
H2307 C2283 0.949 . S
H2308 C2285 0.950 . S
H2309 C2287 0.950 . S
C2310 C2311 1.349 . S
C2310 C2312 1.327 . S
C2310 H2335 0.950 . S
C2311 C2310 1.349 . S
C2311 C2327 1.349 . S
C2312 C2310 1.327 . S
C2312 C2331 1.429 . S
C2312 H2336 0.950 . S
C2313 C2330 1.574 . S
C2313 C2332 1.368 . S
C2313 H2337 0.949 . S
H2314 C2318 0.949 . S
C2315 C2316 1.349 . S
C2315 C2317 1.327 . S
C2315 H2338 0.950 . S
C2316 C2315 1.349 . S
C2316 C2328 1.349 . S
C2317 C2315 1.327 . S
C2317 C2333 1.429 . S
C2317 H2339 0.950 . S
C2318 H2314 0.949 . S
C2318 C2326 1.574 . S
C2318 C2334 1.368 . S
H2319 C2327 0.950 . S
H2320 C2325 0.950 . S
H2321 C2326 0.949 . S
H2322 C2328 0.950 . S
H2323 C2329 0.950 . S
H2324 C2330 0.949 . S
C2325 H2320 0.950 . S
C2325 C2327 1.327 . S
C2325 C2331 1.429 . S
C2326 C2318 1.574 . S
C2326 H2321 0.949 . S
C2326 C2332 1.368 . S
C2327 C2311 1.349 . S
C2327 H2319 0.950 . S
C2327 C2325 1.327 . S
C2328 C2316 1.349 . S
C2328 H2322 0.950 . S
C2328 C2329 1.327 . S
C2329 H2323 0.950 . S
C2329 C2328 1.327 . S
C2329 C2333 1.429 . S
C2330 C2313 1.574 . S
C2330 H2324 0.949 . S
C2330 C2334 1.368 . S
C2331 C2312 1.429 . S
C2331 C2325 1.429 . S
C2331 C2332 1.523 . S
C2332 C2313 1.368 . S
C2332 C2326 1.368 . S
C2332 C2331 1.523 . S
C2333 C2317 1.429 . S
C2333 C2329 1.429 . S
C2333 C2334 1.523 . S
C2334 C2318 1.368 . S
C2334 C2330 1.368 . S
C2334 C2333 1.523 . S
H2335 C2310 0.950 . S
H2336 C2312 0.950 . S
H2337 C2313 0.949 . S
H2338 C2315 0.950 . S
H2339 C2317 0.950 . S
C2340 C2341 1.349 . S
C2340 C2342 1.327 . S
C2340 H2365 0.950 . S
C2341 C2340 1.349 . S
C2341 C2357 1.349 . S
C2342 C2340 1.327 . S
C2342 C2361 1.429 . S
C2342 H2366 0.950 . S
C2343 C2360 1.574 . S
C2343 C2362 1.368 . S
C2343 H2367 0.949 . S
H2344 C2348 0.949 . S
C2345 C2346 1.349 . S
C2345 C2347 1.327 . S
C2345 H2368 0.950 . S
C2346 C2345 1.349 . S
C2346 C2358 1.349 . S
C2347 C2345 1.327 . S
C2347 C2363 1.429 . S
C2347 H2369 0.950 . S
C2348 H2344 0.949 . S
C2348 C2356 1.574 . S
C2348 C2364 1.368 . S
H2349 C2357 0.950 . S
H2350 C2355 0.950 . S
H2351 C2356 0.949 . S
H2352 C2358 0.950 . S
H2353 C2359 0.950 . S
H2354 C2360 0.949 . S
C2355 H2350 0.950 . S
C2355 C2357 1.327 . S
C2355 C2361 1.429 . S
C2356 C2348 1.574 . S
C2356 H2351 0.949 . S
C2356 C2362 1.368 . S
C2357 C2341 1.349 . S
C2357 H2349 0.950 . S
C2357 C2355 1.327 . S
C2358 C2346 1.349 . S
C2358 H2352 0.950 . S
C2358 C2359 1.327 . S
C2359 H2353 0.950 . S
C2359 C2358 1.327 . S
C2359 C2363 1.429 . S
C2360 C2343 1.574 . S
C2360 H2354 0.949 . S
C2360 C2364 1.368 . S
C2361 C2342 1.429 . S
C2361 C2355 1.429 . S
C2361 C2362 1.523 . S
C2362 C2343 1.368 . S
C2362 C2356 1.368 . S
C2362 C2361 1.523 . S
C2363 C2347 1.429 . S
C2363 C2359 1.429 . S
C2363 C2364 1.523 . S
C2364 C2348 1.368 . S
C2364 C2360 1.368 . S
C2364 C2363 1.523 . S
H2365 C2340 0.950 . S
H2366 C2342 0.950 . S
H2367 C2343 0.949 . S
H2368 C2345 0.950 . S
H2369 C2347 0.950 . S
C2370 C2371 1.349 . S
C2370 C2372 1.327 . S
C2370 H2395 0.950 . S
C2371 C2370 1.349 . S
C2371 C2387 1.349 . S
C2372 C2370 1.327 . S
C2372 C2391 1.429 . S
C2372 H2396 0.950 . S
C2373 C2390 1.574 . S
C2373 C2392 1.368 . S
C2373 H2397 0.949 . S
H2374 C2378 0.949 . S
C2375 C2376 1.349 . S
C2375 C2377 1.327 . S
C2375 H2398 0.950 . S
C2376 C2375 1.349 . S
C2376 C2388 1.349 . S
C2377 C2375 1.327 . S
C2377 C2393 1.429 . S
C2377 H2399 0.950 . S
C2378 H2374 0.949 . S
C2378 C2386 1.574 . S
C2378 C2394 1.368 . S
H2379 C2387 0.950 . S
H2380 C2385 0.950 . S
H2381 C2386 0.949 . S
H2382 C2388 0.950 . S
H2383 C2389 0.950 . S
H2384 C2390 0.949 . S
C2385 H2380 0.950 . S
C2385 C2387 1.327 . S
C2385 C2391 1.429 . S
C2386 C2378 1.574 . S
C2386 H2381 0.949 . S
C2386 C2392 1.368 . S
C2387 C2371 1.349 . S
C2387 H2379 0.950 . S
C2387 C2385 1.327 . S
C2388 C2376 1.349 . S
C2388 H2382 0.950 . S
C2388 C2389 1.327 . S
C2389 H2383 0.950 . S
C2389 C2388 1.327 . S
C2389 C2393 1.429 . S
C2390 C2373 1.574 . S
C2390 H2384 0.949 . S
C2390 C2394 1.368 . S
C2391 C2372 1.429 . S
C2391 C2385 1.429 . S
C2391 C2392 1.523 . S
C2392 C2373 1.368 . S
C2392 C2386 1.368 . S
C2392 C2391 1.523 . S
C2393 C2377 1.429 . S
C2393 C2389 1.429 . S
C2393 C2394 1.523 . S
C2394 C2378 1.368 . S
C2394 C2390 1.368 . S
C2394 C2393 1.523 . S
H2395 C2370 0.950 . S
H2396 C2372 0.950 . S
H2397 C2373 0.949 . S
H2398 C2375 0.950 . S
H2399 C2377 0.950 . S
C2400 C2401 1.349 . S
C2400 C2402 1.327 . S
C2400 H2425 0.950 . S
C2401 C2400 1.349 . S
C2401 C2417 1.349 . S
C2402 C2400 1.327 . S
C2402 C2421 1.429 . S
C2402 H2426 0.950 . S
C2403 C2420 1.574 . S
C2403 C2422 1.368 . S
C2403 H2427 0.949 . S
H2404 C2408 0.949 . S
C2405 C2406 1.349 . S
C2405 C2407 1.327 . S
C2405 H2428 0.915 1_554 S
C2406 C2405 1.349 . S
C2406 C2418 1.349 . S
C2407 C2405 1.327 . S
C2407 C2423 1.429 . S
C2407 H2429 0.950 . S
C2408 H2404 0.949 . S
C2408 C2416 1.574 . S
C2408 C2424 1.368 . S
H2409 C2417 0.950 . S
H2410 C2415 0.950 . S
H2411 C2416 0.949 . S
H2412 C2418 0.950 1_545 S
H2413 C2419 0.950 . S
H2414 C2420 0.949 . S
C2415 H2410 0.950 . S
C2415 C2417 1.327 . S
C2415 C2421 1.429 . S
C2416 C2408 1.574 . S
C2416 H2411 0.949 . S
C2416 C2422 1.368 . S
C2417 C2401 1.349 . S
C2417 H2409 0.950 . S
C2417 C2415 1.327 . S
C2418 C2406 1.349 . S
C2418 H2412 0.950 1_565 S
C2418 C2419 1.327 . S
C2419 H2413 0.950 . S
C2419 C2418 1.327 . S
C2419 C2423 1.429 . S
C2420 C2403 1.574 . S
C2420 H2414 0.949 . S
C2420 C2424 1.368 . S
C2421 C2402 1.429 . S
C2421 C2415 1.429 . S
C2421 C2422 1.523 . S
C2422 C2403 1.368 . S
C2422 C2416 1.368 . S
C2422 C2421 1.523 . S
C2423 C2407 1.429 . S
C2423 C2419 1.429 . S
C2423 C2424 1.523 . S
C2424 C2408 1.368 . S
C2424 C2420 1.368 . S
C2424 C2423 1.523 . S
H2425 C2400 0.950 . S
H2426 C2402 0.950 . S
H2427 C2403 0.949 . S
H2428 C2405 0.915 1_556 S
H2429 C2407 0.950 . S
C2430 C2431 1.349 . S
C2430 C2432 1.327 . S
C2430 H2455 0.950 . S
C2431 C2430 1.349 . S
C2431 C2447 1.349 . S
C2432 C2430 1.327 . S
C2432 C2451 1.429 . S
C2432 H2456 0.950 . S
C2433 C2450 1.574 . S
C2433 C2452 1.368 . S
C2433 H2457 0.949 . S
H2434 C2438 0.949 . S
C2435 C2436 1.349 . S
C2435 C2437 1.327 . S
C2435 H2458 0.950 . S
C2436 C2435 1.349 . S
C2436 C2448 1.349 . S
C2437 C2435 1.327 . S
C2437 C2453 1.429 . S
C2437 H2459 0.950 . S
C2438 H2434 0.949 . S
C2438 C2446 1.574 . S
C2438 C2454 1.368 . S
H2439 C2447 0.950 . S
H2440 C2445 0.950 . S
H2441 C2446 0.949 . S
H2442 C2448 0.950 . S
H2443 C2449 0.950 . S
H2444 C2450 0.949 . S
C2445 H2440 0.950 . S
C2445 C2447 1.327 . S
C2445 C2451 1.429 . S
C2446 C2438 1.574 . S
C2446 H2441 0.949 . S
C2446 C2452 1.368 . S
C2447 C2431 1.349 . S
C2447 H2439 0.950 . S
C2447 C2445 1.327 . S
C2448 C2436 1.349 . S
C2448 H2442 0.950 . S
C2448 C2449 1.327 . S
C2449 H2443 0.950 . S
C2449 C2448 1.327 . S
C2449 C2453 1.429 . S
C2450 C2433 1.574 . S
C2450 H2444 0.949 . S
C2450 C2454 1.368 . S
C2451 C2432 1.429 . S
C2451 C2445 1.429 . S
C2451 C2452 1.523 . S
C2452 C2433 1.368 . S
C2452 C2446 1.368 . S
C2452 C2451 1.523 . S
C2453 C2437 1.429 . S
C2453 C2449 1.429 . S
C2453 C2454 1.523 . S
C2454 C2438 1.368 . S
C2454 C2450 1.368 . S
C2454 C2453 1.523 . S
H2455 C2430 0.950 . S
H2456 C2432 0.950 . S
H2457 C2433 0.949 . S
H2458 C2435 0.950 . S
H2459 C2437 0.950 . S
C2460 C2461 1.349 . S
C2460 C2462 1.327 . S
C2460 H2485 0.950 . S
C2461 C2460 1.349 . S
C2461 C2477 1.349 . S
C2462 C2460 1.327 . S
C2462 C2481 1.429 . S
C2462 H2486 0.950 . S
C2463 C2480 1.574 . S
C2463 C2482 1.368 . S
C2463 H2487 0.949 . S
H2464 C2468 0.949 . S
C2465 C2466 1.349 . S
C2465 C2467 1.327 . S
C2465 H2488 0.950 . S
C2466 C2465 1.349 . S
C2466 C2478 1.349 . S
C2467 C2465 1.327 . S
C2467 C2483 1.429 . S
C2467 H2489 0.950 . S
C2468 H2464 0.949 . S
C2468 C2476 1.574 . S
C2468 C2484 1.368 . S
H2469 C2477 0.950 . S
H2470 C2475 0.950 . S
H2471 C2476 0.949 . S
H2472 C2478 0.950 . S
H2473 C2479 0.950 . S
H2474 C2480 0.949 . S
C2475 H2470 0.950 . S
C2475 C2477 1.327 . S
C2475 C2481 1.429 . S
C2476 C2468 1.574 . S
C2476 H2471 0.949 . S
C2476 C2482 1.368 . S
C2477 C2461 1.349 . S
C2477 H2469 0.950 . S
C2477 C2475 1.327 . S
C2478 C2466 1.349 . S
C2478 H2472 0.950 . S
C2478 C2479 1.327 . S
C2479 H2473 0.950 . S
C2479 C2478 1.327 . S
C2479 C2483 1.429 . S
C2480 C2463 1.574 . S
C2480 H2474 0.949 . S
C2480 C2484 1.368 . S
C2481 C2462 1.429 . S
C2481 C2475 1.429 . S
C2481 C2482 1.523 . S
C2482 C2463 1.368 . S
C2482 C2476 1.368 . S
C2482 C2481 1.523 . S
C2483 C2467 1.429 . S
C2483 C2479 1.429 . S
C2483 C2484 1.523 . S
C2484 C2468 1.368 . S
C2484 C2480 1.368 . S
C2484 C2483 1.523 . S
H2485 C2460 0.950 . S
H2486 C2462 0.950 . S
H2487 C2463 0.949 . S
H2488 C2465 0.950 . S
H2489 C2467 0.950 . S
C2490 C2491 1.349 . S
C2490 C2492 1.327 . S
C2490 H2515 0.950 . S
C2491 C2490 1.349 . S
C2491 C2507 1.349 . S
C2492 C2490 1.327 . S
C2492 C2511 1.429 . S
C2492 H2516 0.950 . S
C2493 C2510 1.574 . S
C2493 C2512 1.368 . S
C2493 H2517 0.949 . S
H2494 C2498 0.949 . S
C2495 C2496 1.349 . S
C2495 C2497 1.327 . S
C2495 H2518 0.950 . S
C2496 C2495 1.349 . S
C2496 C2508 1.349 . S
C2497 C2495 1.327 . S
C2497 C2513 1.429 . S
C2497 H2519 0.950 . S
C2498 H2494 0.949 . S
C2498 C2506 1.574 . S
C2498 C2514 1.368 . S
H2499 C2507 0.950 . S
H2500 C2505 0.950 . S
H2501 C2506 0.949 . S
H2502 C2508 0.950 . S
H2503 C2509 0.950 . S
H2504 C2510 0.949 . S
C2505 H2500 0.950 . S
C2505 C2507 1.327 . S
C2505 C2511 1.429 . S
C2506 C2498 1.574 . S
C2506 H2501 0.949 . S
C2506 C2512 1.368 . S
C2507 C2491 1.349 . S
C2507 H2499 0.950 . S
C2507 C2505 1.327 . S
C2508 C2496 1.349 . S
C2508 H2502 0.950 . S
C2508 C2509 1.327 . S
C2509 H2503 0.950 . S
C2509 C2508 1.327 . S
C2509 C2513 1.429 . S
C2510 C2493 1.574 . S
C2510 H2504 0.949 . S
C2510 C2514 1.368 . S
C2511 C2492 1.429 . S
C2511 C2505 1.429 . S
C2511 C2512 1.523 . S
C2512 C2493 1.368 . S
C2512 C2506 1.368 . S
C2512 C2511 1.523 . S
C2513 C2497 1.429 . S
C2513 C2509 1.429 . S
C2513 C2514 1.523 . S
C2514 C2498 1.368 . S
C2514 C2510 1.368 . S
C2514 C2513 1.523 . S
H2515 C2490 0.950 . S
H2516 C2492 0.950 . S
H2517 C2493 0.949 . S
H2518 C2495 0.950 . S
H2519 C2497 0.950 . S
C2520 C2521 1.349 . S
C2520 C2522 1.327 . S
C2520 H2545 0.950 . S
C2521 C2520 1.349 . S
C2521 C2537 1.349 . S
C2522 C2520 1.327 . S
C2522 C2541 1.429 . S
C2522 H2546 0.950 . S
C2523 C2540 1.574 . S
C2523 C2542 1.368 . S
C2523 H2547 0.949 . S
H2524 C2528 0.949 . S
C2525 C2526 1.349 . S
C2525 C2527 1.327 . S
C2525 H2548 0.950 . S
C2526 C2525 1.349 . S
C2526 C2538 1.349 . S
C2527 C2525 1.327 . S
C2527 C2543 1.429 . S
C2527 H2549 0.950 . S
C2528 H2524 0.949 . S
C2528 C2536 1.574 . S
C2528 C2544 1.368 . S
H2529 C2537 0.950 . S
H2530 C2535 0.950 . S
H2531 C2536 0.949 . S
H2532 C2538 0.950 . S
H2533 C2539 0.950 . S
H2534 C2540 0.949 . S
C2535 H2530 0.950 . S
C2535 C2537 1.327 . S
C2535 C2541 1.429 . S
C2536 C2528 1.574 . S
C2536 H2531 0.949 . S
C2536 C2542 1.368 . S
C2537 C2521 1.349 . S
C2537 H2529 0.950 . S
C2537 C2535 1.327 . S
C2538 C2526 1.349 . S
C2538 H2532 0.950 . S
C2538 C2539 1.327 . S
C2539 H2533 0.950 . S
C2539 C2538 1.327 . S
C2539 C2543 1.429 . S
C2540 C2523 1.574 . S
C2540 H2534 0.949 . S
C2540 C2544 1.368 . S
C2541 C2522 1.429 . S
C2541 C2535 1.429 . S
C2541 C2542 1.523 . S
C2542 C2523 1.368 . S
C2542 C2536 1.368 . S
C2542 C2541 1.523 . S
C2543 C2527 1.429 . S
C2543 C2539 1.429 . S
C2543 C2544 1.523 . S
C2544 C2528 1.368 . S
C2544 C2540 1.368 . S
C2544 C2543 1.523 . S
H2545 C2520 0.950 . S
H2546 C2522 0.950 . S
H2547 C2523 0.949 . S
H2548 C2525 0.950 . S
H2549 C2527 0.950 . S
C2550 C2551 1.349 . S
C2550 C2552 1.327 . S
C2550 H2575 0.950 . S
C2551 C2550 1.349 . S
C2551 C2567 1.349 . S
C2552 C2550 1.327 . S
C2552 C2571 1.429 . S
C2552 H2576 0.950 . S
C2553 C2570 1.574 . S
C2553 C2572 1.368 . S
C2553 H2577 0.949 . S
H2554 C2558 0.949 . S
C2555 C2556 1.349 . S
C2555 C2557 1.327 . S
C2555 H2578 0.950 . S
C2556 C2555 1.349 . S
C2556 C2568 1.349 . S
C2557 C2555 1.327 . S
C2557 C2573 1.429 . S
C2557 H2579 0.950 . S
C2558 H2554 0.949 . S
C2558 C2566 1.574 . S
C2558 C2574 1.368 . S
H2559 C2567 0.950 . S
H2560 C2565 0.950 . S
H2561 C2566 0.949 . S
H2562 C2568 0.950 . S
H2563 C2569 0.950 . S
H2564 C2570 0.949 . S
C2565 H2560 0.950 . S
C2565 C2567 1.327 . S
C2565 C2571 1.429 . S
C2566 C2558 1.574 . S
C2566 H2561 0.949 . S
C2566 C2572 1.368 . S
C2567 C2551 1.349 . S
C2567 H2559 0.950 . S
C2567 C2565 1.327 . S
C2568 C2556 1.349 . S
C2568 H2562 0.950 . S
C2568 C2569 1.327 . S
C2569 H2563 0.950 . S
C2569 C2568 1.327 . S
C2569 C2573 1.429 . S
C2570 C2553 1.574 . S
C2570 H2564 0.949 . S
C2570 C2574 1.368 . S
C2571 C2552 1.429 . S
C2571 C2565 1.429 . S
C2571 C2572 1.523 . S
C2572 C2553 1.368 . S
C2572 C2566 1.368 . S
C2572 C2571 1.523 . S
C2573 C2557 1.429 . S
C2573 C2569 1.429 . S
C2573 C2574 1.523 . S
C2574 C2558 1.368 . S
C2574 C2570 1.368 . S
C2574 C2573 1.523 . S
H2575 C2550 0.950 . S
H2576 C2552 0.950 . S
H2577 C2553 0.949 . S
H2578 C2555 0.950 . S
H2579 C2557 0.950 . S
C2580 C2581 1.349 . S
C2580 C2582 1.327 . S
C2580 H2605 0.950 . S
C2581 C2580 1.349 . S
C2581 C2597 1.349 . S
C2582 C2580 1.327 . S
C2582 C2601 1.429 . S
C2582 H2606 0.950 . S
C2583 C2600 1.574 . S
C2583 C2602 1.368 . S
C2583 H2607 0.949 . S
H2584 C2588 0.949 . S
C2585 C2586 1.349 1_554 S
C2585 C2587 1.327 1_554 S
C2585 H2608 0.950 . S
C2586 C2585 1.349 1_556 S
C2586 C2598 1.349 . S
C2587 C2585 1.327 1_556 S
C2587 C2603 1.429 . S
C2587 H2609 0.945 1_556 S
C2588 H2584 0.949 . S
C2588 C2596 1.574 . S
C2588 C2604 1.368 . S
H2589 C2597 0.950 . S
H2590 C2595 0.950 . S
H2591 C2596 0.949 . S
H2592 C2598 0.950 . S
H2593 C2599 0.950 . S
H2594 C2600 0.949 . S
C2595 H2590 0.950 . S
C2595 C2597 1.327 . S
C2595 C2601 1.429 . S
C2596 C2588 1.574 . S
C2596 H2591 0.949 . S
C2596 C2602 1.368 . S
C2597 C2581 1.349 . S
C2597 H2589 0.950 . S
C2597 C2595 1.327 . S
C2598 C2586 1.349 . S
C2598 H2592 0.950 . S
C2598 C2599 1.327 . S
C2599 H2593 0.950 . S
C2599 C2598 1.327 . S
C2599 C2603 1.429 . S
C2600 C2583 1.574 . S
C2600 H2594 0.949 . S
C2600 C2604 1.368 . S
C2601 C2582 1.429 . S
C2601 C2595 1.429 . S
C2601 C2602 1.523 . S
C2602 C2583 1.368 . S
C2602 C2596 1.368 . S
C2602 C2601 1.523 . S
C2603 C2587 1.429 . S
C2603 C2599 1.429 . S
C2603 C2604 1.523 . S
C2604 C2588 1.368 . S
C2604 C2600 1.368 . S
C2604 C2603 1.523 . S
H2605 C2580 0.950 . S
H2606 C2582 0.950 . S
H2607 C2583 0.949 . S
H2608 C2585 0.950 . S
H2609 C2587 0.945 1_554 S
C2610 C2611 1.349 . S
C2610 C2612 1.327 . S
C2610 H2635 0.950 . S
C2611 C2610 1.349 . S
C2611 C2627 1.349 . S
C2612 C2610 1.327 . S
C2612 C2631 1.429 . S
C2612 H2636 0.950 . S
C2613 C2630 1.574 . S
C2613 C2632 1.368 . S
C2613 H2637 0.949 . S
H2614 C2618 0.949 . S
C2615 C2616 1.349 . S
C2615 C2617 1.327 . S
C2615 H2638 0.950 . S
C2616 C2615 1.349 . S
C2616 C2628 1.349 . S
C2617 C2615 1.327 . S
C2617 C2633 1.429 . S
C2617 H2639 0.950 . S
C2618 H2614 0.949 . S
C2618 C2626 1.574 . S
C2618 C2634 1.368 . S
H2619 C2627 0.950 . S
H2620 C2625 0.950 . S
H2621 C2626 0.949 . S
H2622 C2628 0.950 . S
H2623 C2629 0.950 . S
H2624 C2630 0.949 . S
C2625 H2620 0.950 . S
C2625 C2627 1.327 . S
C2625 C2631 1.429 . S
C2626 C2618 1.574 . S
C2626 H2621 0.949 . S
C2626 C2632 1.368 . S
C2627 C2611 1.349 . S
C2627 H2619 0.950 . S
C2627 C2625 1.327 . S
C2628 C2616 1.349 . S
C2628 H2622 0.950 . S
C2628 C2629 1.327 . S
C2629 H2623 0.950 . S
C2629 C2628 1.327 . S
C2629 C2633 1.429 . S
C2630 C2613 1.574 . S
C2630 H2624 0.949 . S
C2630 C2634 1.368 . S
C2631 C2612 1.429 . S
C2631 C2625 1.429 . S
C2631 C2632 1.523 . S
C2632 C2613 1.368 . S
C2632 C2626 1.368 . S
C2632 C2631 1.523 . S
C2633 C2617 1.429 . S
C2633 C2629 1.429 . S
C2633 C2634 1.523 . S
C2634 C2618 1.368 . S
C2634 C2630 1.368 . S
C2634 C2633 1.523 . S
H2635 C2610 0.950 . S
H2636 C2612 0.950 . S
H2637 C2613 0.949 . S
H2638 C2615 0.950 . S
H2639 C2617 0.950 . S
C2640 C2641 1.349 1_565 S
C2640 C2642 1.327 . S
C2640 H2665 0.950 . S
C2641 C2640 1.349 1_545 S
C2641 C2657 1.349 . S
C2642 C2640 1.327 . S
C2642 C2661 1.429 1_565 S
C2642 H2666 0.950 . S
C2643 C2660 1.574 . S
C2643 C2662 1.368 . S
C2643 H2667 0.949 . S
H2644 C2648 0.949 . S
C2645 C2646 1.349 . S
C2645 C2647 1.327 . S
C2645 H2668 0.950 . S
C2646 C2645 1.349 . S
C2646 C2658 1.349 . S
C2647 C2645 1.327 . S
C2647 C2663 1.429 . S
C2647 H2669 0.950 . S
C2648 H2644 0.949 . S
C2648 C2656 1.574 . S
C2648 C2664 1.368 1_565 S
H2649 C2657 0.950 . S
H2650 C2655 0.950 . S
H2651 C2656 0.949 . S
H2652 C2658 0.950 1_565 S
H2653 C2659 0.921 1_565 S
H2654 C2660 0.949 . S
C2655 H2650 0.950 . S
C2655 C2657 1.327 . S
C2655 C2661 1.429 . S
C2656 C2648 1.574 . S
C2656 H2651 0.949 . S
C2656 C2662 1.368 1_565 S
C2657 C2641 1.349 . S
C2657 H2649 0.950 . S
C2657 C2655 1.327 . S
C2658 C2646 1.349 . S
C2658 H2652 0.950 1_545 S
C2658 C2659 1.327 . S
C2659 H2653 0.921 1_545 S
C2659 C2658 1.327 . S
C2659 C2663 1.457 . S
C2660 C2643 1.574 . S
C2660 H2654 0.949 . S
C2660 C2664 1.368 . S
C2661 C2642 1.429 1_545 S
C2661 C2655 1.429 . S
C2661 C2662 1.523 . S
C2662 C2643 1.368 . S
C2662 C2656 1.368 1_545 S
C2662 C2661 1.523 . S
C2663 C2647 1.429 . S
C2663 C2659 1.457 . S
C2663 C2664 1.523 . S
C2664 C2648 1.368 1_545 S
C2664 C2660 1.368 . S
C2664 C2663 1.523 . S
H2665 C2640 0.950 . S
H2666 C2642 0.950 . S
H2667 C2643 0.949 . S
H2668 C2645 0.950 . S
H2669 C2647 0.950 . S
C2670 C2671 1.349 . S
C2670 C2672 1.327 . S
C2670 H2695 0.950 . S
C2671 C2670 1.349 . S
C2671 C2687 1.349 . S
C2672 C2670 1.327 . S
C2672 C2691 1.429 . S
C2672 H2696 0.950 . S
C2673 C2690 1.574 . S
C2673 C2692 1.368 . S
C2673 H2697 0.949 . S
H2674 C2678 0.949 . S
C2675 C2676 1.349 . S
C2675 C2677 1.327 . S
C2675 H2698 0.950 . S
C2676 C2675 1.349 . S
C2676 C2688 1.349 . S
C2677 C2675 1.327 . S
C2677 C2693 1.429 . S
C2677 H2699 0.950 . S
C2678 H2674 0.949 . S
C2678 C2686 1.574 . S
C2678 C2694 1.368 . S
H2679 C2687 0.950 . S
H2680 C2685 0.950 . S
H2681 C2686 0.949 . S
H2682 C2688 0.950 . S
H2683 C2689 0.950 . S
H2684 C2690 0.949 . S
C2685 H2680 0.950 . S
C2685 C2687 1.327 . S
C2685 C2691 1.429 . S
C2686 C2678 1.574 . S
C2686 H2681 0.949 . S
C2686 C2692 1.368 . S
C2687 C2671 1.349 . S
C2687 H2679 0.950 . S
C2687 C2685 1.327 . S
C2688 C2676 1.349 . S
C2688 H2682 0.950 . S
C2688 C2689 1.327 . S
C2689 H2683 0.950 . S
C2689 C2688 1.327 . S
C2689 C2693 1.429 . S
C2690 C2673 1.574 . S
C2690 H2684 0.949 . S
C2690 C2694 1.368 . S
C2691 C2672 1.429 . S
C2691 C2685 1.429 . S
C2691 C2692 1.523 . S
C2692 C2673 1.368 . S
C2692 C2686 1.368 . S
C2692 C2691 1.523 . S
C2693 C2677 1.429 . S
C2693 C2689 1.429 . S
C2693 C2694 1.523 . S
C2694 C2678 1.368 . S
C2694 C2690 1.368 . S
C2694 C2693 1.523 . S
H2695 C2670 0.950 . S
H2696 C2672 0.950 . S
H2697 C2673 0.949 . S
H2698 C2675 0.950 . S
H2699 C2677 0.950 . S
C2700 C2701 1.349 . S
C2700 C2702 1.327 . S
C2700 H2725 0.950 . S
C2701 C2700 1.349 . S
C2701 C2717 1.349 . S
C2702 C2700 1.327 . S
C2702 C2721 1.429 . S
C2702 H2726 0.950 . S
C2703 C2720 1.574 . S
C2703 C2722 1.368 . S
C2703 H2727 0.949 . S
H2704 C2708 0.949 . S
C2705 C2706 1.349 . S
C2705 C2707 1.327 . S
C2705 H2728 0.950 . S
C2706 C2705 1.349 . S
C2706 C2718 1.349 . S
C2707 C2705 1.327 . S
C2707 C2723 1.429 . S
C2707 H2729 0.950 . S
C2708 H2704 0.949 . S
C2708 C2716 1.574 . S
C2708 C2724 1.368 . S
H2709 C2717 0.950 . S
H2710 C2715 0.950 . S
H2711 C2716 0.949 . S
H2712 C2718 0.950 . S
H2713 C2719 0.950 . S
H2714 C2720 0.949 . S
C2715 H2710 0.950 . S
C2715 C2717 1.327 . S
C2715 C2721 1.429 . S
C2716 C2708 1.574 . S
C2716 H2711 0.949 . S
C2716 C2722 1.368 . S
C2717 C2701 1.349 . S
C2717 H2709 0.950 . S
C2717 C2715 1.327 . S
C2718 C2706 1.349 . S
C2718 H2712 0.950 . S
C2718 C2719 1.327 . S
C2719 H2713 0.950 . S
C2719 C2718 1.327 . S
C2719 C2723 1.429 . S
C2720 C2703 1.574 . S
C2720 H2714 0.949 . S
C2720 C2724 1.368 . S
C2721 C2702 1.429 . S
C2721 C2715 1.429 . S
C2721 C2722 1.523 . S
C2722 C2703 1.368 . S
C2722 C2716 1.368 . S
C2722 C2721 1.523 . S
C2723 C2707 1.429 . S
C2723 C2719 1.429 . S
C2723 C2724 1.523 . S
C2724 C2708 1.368 . S
C2724 C2720 1.368 . S
C2724 C2723 1.523 . S
H2725 C2700 0.950 . S
H2726 C2702 0.950 . S
H2727 C2703 0.949 . S
H2728 C2705 0.950 . S
H2729 C2707 0.950 . S
C2730 C2731 1.349 . S
C2730 C2732 1.327 . S
C2730 H2755 0.950 . S
C2731 C2730 1.349 . S
C2731 C2747 1.349 . S
C2732 C2730 1.327 . S
C2732 C2751 1.429 . S
C2732 H2756 0.950 . S
C2733 C2750 1.574 . S
C2733 C2752 1.368 . S
C2733 H2757 0.949 . S
H2734 C2738 0.949 . S
C2735 C2736 1.349 . S
C2735 C2737 1.327 . S
C2735 H2758 0.950 . S
C2736 C2735 1.349 . S
C2736 C2748 1.349 . S
C2737 C2735 1.327 . S
C2737 C2753 1.429 . S
C2737 H2759 0.950 . S
C2738 H2734 0.949 . S
C2738 C2746 1.574 . S
C2738 C2754 1.368 . S
H2739 C2747 0.950 . S
H2740 C2745 0.950 . S
H2741 C2746 0.949 . S
H2742 C2748 0.950 . S
H2743 C2749 0.950 . S
H2744 C2750 0.949 . S
C2745 H2740 0.950 . S
C2745 C2747 1.327 . S
C2745 C2751 1.429 . S
C2746 C2738 1.574 . S
C2746 H2741 0.949 . S
C2746 C2752 1.368 . S
C2747 C2731 1.349 . S
C2747 H2739 0.950 . S
C2747 C2745 1.327 . S
C2748 C2736 1.349 . S
C2748 H2742 0.950 . S
C2748 C2749 1.327 . S
C2749 H2743 0.950 . S
C2749 C2748 1.327 . S
C2749 C2753 1.429 . S
C2750 C2733 1.574 . S
C2750 H2744 0.949 . S
C2750 C2754 1.368 . S
C2751 C2732 1.429 . S
C2751 C2745 1.429 . S
C2751 C2752 1.523 . S
C2752 C2733 1.368 . S
C2752 C2746 1.368 . S
C2752 C2751 1.523 . S
C2753 C2737 1.429 . S
C2753 C2749 1.429 . S
C2753 C2754 1.523 . S
C2754 C2738 1.368 . S
C2754 C2750 1.368 . S
C2754 C2753 1.523 . S
H2755 C2730 0.950 . S
H2756 C2732 0.950 . S
H2757 C2733 0.949 . S
H2758 C2735 0.950 . S
H2759 C2737 0.950 . S
C2760 C2761 1.349 . S
C2760 C2762 1.327 . S
C2760 H2785 0.950 . S
C2761 C2760 1.349 . S
C2761 C2777 1.349 1_565 S
C2762 C2760 1.327 . S
C2762 C2781 1.429 1_565 S
C2762 H2786 0.950 . S
C2763 C2780 1.574 . S
C2763 C2782 1.368 . S
C2763 H2787 0.949 . S
H2764 C2768 0.949 1_565 S
C2765 C2766 1.349 . S
C2765 C2767 1.327 . S
C2765 H2788 0.950 . S
C2766 C2765 1.349 . S
C2766 C2778 1.349 . S
C2767 C2765 1.327 . S
C2767 C2783 1.429 . S
C2767 H2789 0.950 . S
C2768 H2764 0.949 1_545 S
C2768 C2776 1.574 1_545 S
C2768 C2784 1.368 . S
H2769 C2777 0.950 . S
H2770 C2775 0.950 . S
H2771 C2776 0.949 . S
H2772 C2778 0.950 . S
H2773 C2779 0.950 . S
H2774 C2780 0.949 . S
C2775 H2770 0.950 . S
C2775 C2777 1.327 . S
C2775 C2781 1.429 . S
C2776 C2768 1.574 1_565 S
C2776 H2771 0.949 . S
C2776 C2782 1.368 1_565 S
C2777 C2761 1.349 1_545 S
C2777 H2769 0.950 . S
C2777 C2775 1.327 . S
C2778 C2766 1.349 . S
C2778 H2772 0.950 . S
C2778 C2779 1.327 . S
C2779 H2773 0.950 . S
C2779 C2778 1.327 . S
C2779 C2783 1.429 . S
C2780 C2763 1.574 . S
C2780 H2774 0.949 . S
C2780 C2784 1.368 . S
C2781 C2762 1.429 1_545 S
C2781 C2775 1.429 . S
C2781 C2782 1.523 . S
C2782 C2763 1.368 . S
C2782 C2776 1.368 1_545 S
C2782 C2781 1.523 . S
C2783 C2767 1.429 . S
C2783 C2779 1.429 . S
C2783 C2784 1.523 . S
C2784 C2768 1.368 . S
C2784 C2780 1.368 . S
C2784 C2783 1.523 . S
H2785 C2760 0.950 . S
H2786 C2762 0.950 . S
H2787 C2763 0.949 . S
H2788 C2765 0.950 . S
H2789 C2767 0.950 . S
C2790 C2791 1.349 . S
C2790 C2792 1.327 . S
C2790 H2815 0.950 . S
C2791 C2790 1.349 . S
C2791 C2807 1.349 . S
C2792 C2790 1.327 . S
C2792 C2811 1.429 . S
C2792 H2816 0.950 . S
C2793 C2810 1.574 . S
C2793 C2812 1.368 . S
C2793 H2817 0.949 . S
H2794 C2798 0.949 . S
C2795 C2796 1.349 . S
C2795 C2797 1.327 . S
C2795 H2818 0.950 . S
C2796 C2795 1.349 . S
C2796 C2808 1.349 . S
C2797 C2795 1.327 . S
C2797 C2813 1.429 . S
C2797 H2819 0.950 . S
C2798 H2794 0.949 . S
C2798 C2806 1.574 . S
C2798 C2814 1.368 . S
H2799 C2807 0.950 . S
H2800 C2805 0.950 . S
H2801 C2806 0.949 . S
H2802 C2808 0.950 . S
H2803 C2809 0.950 . S
H2804 C2810 0.949 . S
C2805 H2800 0.950 . S
C2805 C2807 1.327 . S
C2805 C2811 1.429 . S
C2806 C2798 1.574 . S
C2806 H2801 0.949 . S
C2806 C2812 1.368 . S
C2807 C2791 1.349 . S
C2807 H2799 0.950 . S
C2807 C2805 1.327 . S
C2808 C2796 1.349 . S
C2808 H2802 0.950 . S
C2808 C2809 1.327 . S
C2809 H2803 0.950 . S
C2809 C2808 1.327 . S
C2809 C2813 1.429 . S
C2810 C2793 1.574 . S
C2810 H2804 0.949 . S
C2810 C2814 1.368 . S
C2811 C2792 1.429 . S
C2811 C2805 1.429 . S
C2811 C2812 1.523 . S
C2812 C2793 1.368 . S
C2812 C2806 1.368 . S
C2812 C2811 1.523 . S
C2813 C2797 1.429 . S
C2813 C2809 1.429 . S
C2813 C2814 1.523 . S
C2814 C2798 1.368 . S
C2814 C2810 1.368 . S
C2814 C2813 1.523 . S
H2815 C2790 0.950 . S
H2816 C2792 0.950 . S
H2817 C2793 0.949 . S
H2818 C2795 0.950 . S
H2819 C2797 0.950 . S
C2820 C2821 1.349 . S
C2820 C2822 1.327 . S
C2820 H2845 0.950 . S
C2821 C2820 1.349 . S
C2821 C2837 1.349 . S
C2822 C2820 1.327 . S
C2822 C2841 1.429 . S
C2822 H2846 0.953 . S
C2823 C2840 1.574 . S
C2823 C2842 1.368 . S
C2823 H2847 0.949 . S
H2824 C2828 0.949 1_565 S
C2825 C2826 1.349 . S
C2825 C2827 1.327 . S
C2825 H2848 0.950 . S
C2826 C2825 1.349 . S
C2826 C2838 1.349 . S
C2827 C2825 1.327 . S
C2827 C2843 1.429 . S
C2827 H2849 0.950 . S
C2828 H2824 0.949 1_545 S
C2828 C2836 1.574 . S
C2828 C2844 1.368 . S
H2829 C2837 0.950 . S
H2830 C2835 0.950 . S
H2831 C2836 0.923 1_565 S
H2832 C2838 0.950 1_565 S
H2833 C2839 0.950 1_565 S
H2834 C2840 0.949 . S
C2835 H2830 0.950 . S
C2835 C2837 1.327 . S
C2835 C2841 1.429 . S
C2836 C2828 1.574 . S
C2836 H2831 0.923 1_545 S
C2836 C2842 1.368 . S
C2837 C2821 1.349 . S
C2837 H2829 0.950 . S
C2837 C2835 1.327 . S
C2838 C2826 1.349 . S
C2838 H2832 0.950 1_545 S
C2838 C2839 1.327 . S
C2839 H2833 0.950 1_545 S
C2839 C2838 1.327 . S
C2839 C2843 1.429 . S
C2840 C2823 1.574 . S
C2840 H2834 0.949 . S
C2840 C2844 1.368 . S
C2841 C2822 1.429 . S
C2841 C2835 1.429 . S
C2841 C2842 1.523 . S
C2842 C2823 1.368 . S
C2842 C2836 1.368 . S
C2842 C2841 1.523 . S
C2843 C2827 1.429 . S
C2843 C2839 1.429 . S
C2843 C2844 1.523 . S
C2844 C2828 1.368 . S
C2844 C2840 1.368 . S
C2844 C2843 1.523 . S
H2845 C2820 0.950 . S
H2846 C2822 0.953 . S
H2847 C2823 0.949 . S
H2848 C2825 0.950 . S
H2849 C2827 0.950 . S
C2850 C2851 1.349 . S
C2850 C2852 1.327 . S
C2850 H2875 0.950 . S
C2851 C2850 1.349 . S
C2851 C2867 1.349 . S
C2852 C2850 1.327 . S
C2852 C2871 1.429 . S
C2852 H2876 0.950 . S
C2853 C2870 1.574 . S
C2853 C2872 1.368 . S
C2853 H2877 0.949 . S
H2854 C2858 0.949 . S
C2855 C2856 1.349 . S
C2855 C2857 1.327 . S
C2855 H2878 0.950 . S
C2856 C2855 1.349 . S
C2856 C2868 1.349 . S
C2857 C2855 1.327 . S
C2857 C2873 1.429 . S
C2857 H2879 0.950 . S
C2858 H2854 0.949 . S
C2858 C2866 1.574 . S
C2858 C2874 1.368 . S
H2859 C2867 0.950 . S
H2860 C2865 0.950 . S
H2861 C2866 0.949 . S
H2862 C2868 0.950 . S
H2863 C2869 0.950 . S
H2864 C2870 0.949 . S
C2865 H2860 0.950 . S
C2865 C2867 1.327 . S
C2865 C2871 1.429 . S
C2866 C2858 1.574 . S
C2866 H2861 0.949 . S
C2866 C2872 1.368 . S
C2867 C2851 1.349 . S
C2867 H2859 0.950 . S
C2867 C2865 1.327 . S
C2868 C2856 1.349 . S
C2868 H2862 0.950 . S
C2868 C2869 1.327 . S
C2869 H2863 0.950 . S
C2869 C2868 1.327 . S
C2869 C2873 1.429 . S
C2870 C2853 1.574 . S
C2870 H2864 0.949 . S
C2870 C2874 1.368 . S
C2871 C2852 1.429 . S
C2871 C2865 1.429 . S
C2871 C2872 1.523 . S
C2872 C2853 1.368 . S
C2872 C2866 1.368 . S
C2872 C2871 1.523 . S
C2873 C2857 1.429 . S
C2873 C2869 1.429 . S
C2873 C2874 1.523 . S
C2874 C2858 1.368 . S
C2874 C2870 1.368 . S
C2874 C2873 1.523 . S
H2875 C2850 0.950 . S
H2876 C2852 0.950 . S
H2877 C2853 0.949 . S
H2878 C2855 0.950 . S
H2879 C2857 0.950 . S
C2880 C2881 1.349 . S
C2880 C2882 1.327 . S
C2880 H2905 0.950 . S
C2881 C2880 1.349 . S
C2881 C2897 1.349 . S
C2882 C2880 1.327 . S
C2882 C2901 1.429 . S
C2882 H2906 0.950 . S
C2883 C2900 1.574 . S
C2883 C2902 1.368 . S
C2883 H2907 0.949 1_554 S
H2884 C2888 0.949 . S
C2885 C2886 1.349 1_556 S
C2885 C2887 1.327 . S
C2885 H2908 0.950 . S
C2886 C2885 1.349 1_554 S
C2886 C2898 1.349 . S
C2887 C2885 1.327 . S
C2887 C2903 1.429 1_556 S
C2887 H2909 0.950 . S
C2888 H2884 0.949 . S
C2888 C2896 1.574 . S
C2888 C2904 1.368 . S
H2889 C2897 0.950 . S
H2890 C2895 0.945 . S
H2891 C2896 0.949 . S
H2892 C2898 0.950 . S
H2893 C2899 0.950 . S
H2894 C2900 0.949 1_556 S
C2895 H2890 0.945 . S
C2895 C2897 1.327 . S
C2895 C2901 1.429 . S
C2896 C2888 1.574 . S
C2896 H2891 0.949 . S
C2896 C2902 1.368 . S
C2897 C2881 1.349 . S
C2897 H2889 0.950 . S
C2897 C2895 1.327 . S
C2898 C2886 1.349 . S
C2898 H2892 0.950 . S
C2898 C2899 1.327 . S
C2899 H2893 0.950 . S
C2899 C2898 1.327 . S
C2899 C2903 1.429 . S
C2900 C2883 1.574 . S
C2900 H2894 0.949 1_554 S
C2900 C2904 1.368 . S
C2901 C2882 1.429 . S
C2901 C2895 1.429 . S
C2901 C2902 1.523 . S
C2902 C2883 1.368 . S
C2902 C2896 1.368 . S
C2902 C2901 1.523 . S
C2903 C2887 1.429 1_554 S
C2903 C2899 1.429 . S
C2903 C2904 1.523 . S
C2904 C2888 1.368 . S
C2904 C2900 1.368 . S
C2904 C2903 1.523 . S
H2905 C2880 0.950 . S
H2906 C2882 0.950 . S
H2907 C2883 0.949 1_556 S
H2908 C2885 0.950 . S
H2909 C2887 0.950 . S
C2910 C2911 1.349 . S
C2910 C2912 1.327 . S
C2910 H2935 0.950 . S
C2911 C2910 1.349 . S
C2911 C2927 1.349 . S
C2912 C2910 1.327 . S
C2912 C2931 1.429 . S
C2912 H2936 0.950 . S
C2913 C2930 1.574 . S
C2913 C2932 1.368 . S
C2913 H2937 0.949 . S
H2914 C2918 0.949 . S
C2915 C2916 1.349 . S
C2915 C2917 1.327 . S
C2915 H2938 0.950 . S
C2916 C2915 1.349 . S
C2916 C2928 1.349 . S
C2917 C2915 1.327 . S
C2917 C2933 1.429 . S
C2917 H2939 0.950 . S
C2918 H2914 0.949 . S
C2918 C2926 1.574 . S
C2918 C2934 1.368 . S
H2919 C2927 0.950 . S
H2920 C2925 0.950 . S
H2921 C2926 0.949 . S
H2922 C2928 0.950 . S
H2923 C2929 0.950 . S
H2924 C2930 0.949 . S
C2925 H2920 0.950 . S
C2925 C2927 1.327 . S
C2925 C2931 1.429 . S
C2926 C2918 1.574 . S
C2926 H2921 0.949 . S
C2926 C2932 1.368 . S
C2927 C2911 1.349 . S
C2927 H2919 0.950 . S
C2927 C2925 1.327 . S
C2928 C2916 1.349 . S
C2928 H2922 0.950 . S
C2928 C2929 1.327 . S
C2929 H2923 0.950 . S
C2929 C2928 1.327 . S
C2929 C2933 1.429 . S
C2930 C2913 1.574 . S
C2930 H2924 0.949 . S
C2930 C2934 1.368 . S
C2931 C2912 1.429 . S
C2931 C2925 1.429 . S
C2931 C2932 1.523 . S
C2932 C2913 1.368 . S
C2932 C2926 1.368 . S
C2932 C2931 1.523 . S
C2933 C2917 1.429 . S
C2933 C2929 1.429 . S
C2933 C2934 1.523 . S
C2934 C2918 1.368 . S
C2934 C2930 1.368 . S
C2934 C2933 1.523 . S
H2935 C2910 0.950 . S
H2936 C2912 0.950 . S
H2937 C2913 0.949 . S
H2938 C2915 0.950 . S
H2939 C2917 0.950 . S
C2940 C2941 1.349 . S
C2940 C2942 1.327 . S
C2940 H2965 0.950 . S
C2941 C2940 1.349 . S
C2941 C2957 1.349 . S
C2942 C2940 1.327 . S
C2942 C2961 1.429 . S
C2942 H2966 0.950 . S
C2943 C2960 1.574 . S
C2943 C2962 1.368 . S
C2943 H2967 0.949 . S
H2944 C2948 0.949 . S
C2945 C2946 1.349 . S
C2945 C2947 1.327 . S
C2945 H2968 0.950 . S
C2946 C2945 1.349 . S
C2946 C2958 1.349 . S
C2947 C2945 1.327 . S
C2947 C2963 1.429 . S
C2947 H2969 0.950 . S
C2948 H2944 0.949 . S
C2948 C2956 1.574 . S
C2948 C2964 1.368 . S
H2949 C2957 0.950 . S
H2950 C2955 0.950 . S
H2951 C2956 0.949 . S
H2952 C2958 0.950 . S
H2953 C2959 0.950 . S
H2954 C2960 0.949 . S
C2955 H2950 0.950 . S
C2955 C2957 1.327 . S
C2955 C2961 1.429 . S
C2956 C2948 1.574 . S
C2956 H2951 0.949 . S
C2956 C2962 1.368 . S
C2957 C2941 1.349 . S
C2957 H2949 0.950 . S
C2957 C2955 1.327 . S
C2958 C2946 1.349 . S
C2958 H2952 0.950 . S
C2958 C2959 1.327 . S
C2959 H2953 0.950 . S
C2959 C2958 1.327 . S
C2959 C2963 1.429 . S
C2960 C2943 1.574 . S
C2960 H2954 0.949 . S
C2960 C2964 1.368 . S
C2961 C2942 1.429 . S
C2961 C2955 1.429 . S
C2961 C2962 1.523 . S
C2962 C2943 1.368 . S
C2962 C2956 1.368 . S
C2962 C2961 1.523 . S
C2963 C2947 1.429 . S
C2963 C2959 1.429 . S
C2963 C2964 1.523 . S
C2964 C2948 1.368 . S
C2964 C2960 1.368 . S
C2964 C2963 1.523 . S
H2965 C2940 0.950 . S
H2966 C2942 0.950 . S
H2967 C2943 0.949 . S
H2968 C2945 0.950 . S
H2969 C2947 0.950 . S
C2970 C2971 1.349 . S
C2970 C2972 1.327 . S
C2970 H2995 0.950 . S
C2971 C2970 1.349 . S
C2971 C2987 1.349 . S
C2972 C2970 1.327 . S
C2972 C2991 1.429 . S
C2972 H2996 0.950 . S
C2973 C2990 1.574 . S
C2973 C2992 1.368 . S
C2973 H2997 0.949 . S
H2974 C2978 0.949 . S
C2975 C2976 1.349 . S
C2975 C2977 1.327 . S
C2975 H2998 0.950 . S
C2976 C2975 1.349 . S
C2976 C2988 1.349 . S
C2977 C2975 1.327 . S
C2977 C2993 1.429 . S
C2977 H2999 0.950 . S
C2978 H2974 0.949 . S
C2978 C2986 1.574 . S
C2978 C2994 1.368 . S
H2979 C2987 0.950 . S
H2980 C2985 0.950 . S
H2981 C2986 0.949 . S
H2982 C2988 0.950 . S
H2983 C2989 0.950 . S
H2984 C2990 0.949 . S
C2985 H2980 0.950 . S
C2985 C2987 1.327 . S
C2985 C2991 1.429 . S
C2986 C2978 1.574 . S
C2986 H2981 0.949 . S
C2986 C2992 1.368 . S
C2987 C2971 1.349 . S
C2987 H2979 0.950 . S
C2987 C2985 1.327 . S
C2988 C2976 1.349 . S
C2988 H2982 0.950 . S
C2988 C2989 1.327 . S
C2989 H2983 0.950 . S
C2989 C2988 1.327 . S
C2989 C2993 1.429 . S
C2990 C2973 1.574 . S
C2990 H2984 0.949 . S
C2990 C2994 1.368 . S
C2991 C2972 1.429 . S
C2991 C2985 1.429 . S
C2991 C2992 1.523 . S
C2992 C2973 1.368 . S
C2992 C2986 1.368 . S
C2992 C2991 1.523 . S
C2993 C2977 1.429 . S
C2993 C2989 1.429 . S
C2993 C2994 1.523 . S
C2994 C2978 1.368 . S
C2994 C2990 1.368 . S
C2994 C2993 1.523 . S
H2995 C2970 0.950 . S
H2996 C2972 0.950 . S
H2997 C2973 0.949 . S
H2998 C2975 0.950 . S
H2999 C2977 0.950 . S
C3000 C3001 1.349 . S
C3000 C3002 1.327 1_545 S
C3000 H3025 0.950 . S
C3001 C3000 1.349 . S
C3001 C3017 1.328 1_545 S
C3002 C3000 1.327 1_565 S
C3002 C3021 1.429 . S
C3002 H3026 0.950 . S
C3003 C3020 1.574 . S
C3003 C3022 1.368 . S
C3003 H3027 0.949 . S
H3004 C3008 0.949 . S
C3005 C3006 1.349 . S
C3005 C3007 1.327 . S
C3005 H3028 0.950 . S
C3006 C3005 1.349 . S
C3006 C3018 1.349 . S
C3007 C3005 1.327 . S
C3007 C3023 1.429 . S
C3007 H3029 0.950 . S
C3008 H3004 0.949 . S
C3008 C3016 1.574 . S
C3008 C3024 1.368 . S
H3009 C3017 0.920 1_545 S
H3010 C3015 0.950 . S
H3011 C3016 0.949 . S
H3012 C3018 0.950 . S
H3013 C3019 0.950 . S
H3014 C3020 0.949 . S
C3015 H3010 0.950 . S
C3015 C3017 1.363 . S
C3015 C3021 1.429 . S
C3016 C3008 1.574 . S
C3016 H3011 0.949 . S
C3016 C3022 1.368 . S
C3017 C3001 1.328 1_565 S
C3017 H3009 0.920 1_565 S
C3017 C3015 1.363 . S
C3018 C3006 1.349 . S
C3018 H3012 0.950 . S
C3018 C3019 1.327 . S
C3019 H3013 0.950 . S
C3019 C3018 1.327 . S
C3019 C3023 1.429 . S
C3020 C3003 1.574 . S
C3020 H3014 0.949 . S
C3020 C3024 1.368 . S
C3021 C3002 1.429 . S
C3021 C3015 1.429 . S
C3021 C3022 1.523 . S
C3022 C3003 1.368 . S
C3022 C3016 1.368 . S
C3022 C3021 1.523 . S
C3023 C3007 1.429 . S
C3023 C3019 1.429 . S
C3023 C3024 1.523 . S
C3024 C3008 1.368 . S
C3024 C3020 1.368 . S
C3024 C3023 1.523 . S
H3025 C3000 0.950 . S
H3026 C3002 0.950 . S
H3027 C3003 0.949 . S
H3028 C3005 0.950 . S
H3029 C3007 0.950 . S
C3030 C3031 1.349 . S
C3030 C3032 1.327 . S
C3030 H3055 0.950 . S
C3031 C3030 1.349 . S
C3031 C3047 1.349 . S
C3032 C3030 1.327 . S
C3032 C3051 1.429 . S
C3032 H3056 0.950 . S
C3033 C3050 1.574 . S
C3033 C3052 1.368 . S
C3033 H3057 0.949 . S
H3034 C3038 0.949 . S
C3035 C3036 1.349 . S
C3035 C3037 1.327 . S
C3035 H3058 0.950 . S
C3036 C3035 1.349 . S
C3036 C3048 1.349 . S
C3037 C3035 1.327 . S
C3037 C3053 1.429 . S
C3037 H3059 0.950 . S
C3038 H3034 0.949 . S
C3038 C3046 1.574 . S
C3038 C3054 1.368 . S
H3039 C3047 0.950 . S
H3040 C3045 0.950 . S
H3041 C3046 0.949 . S
H3042 C3048 0.951 . S
H3043 C3049 0.950 . S
H3044 C3050 0.949 . S
C3045 H3040 0.950 . S
C3045 C3047 1.327 . S
C3045 C3051 1.429 . S
C3046 C3038 1.574 . S
C3046 H3041 0.949 . S
C3046 C3052 1.368 . S
C3047 C3031 1.349 . S
C3047 H3039 0.950 . S
C3047 C3045 1.327 . S
C3048 C3036 1.349 . S
C3048 H3042 0.951 . S
C3048 C3049 1.327 . S
C3049 H3043 0.950 . S
C3049 C3048 1.327 . S
C3049 C3053 1.429 . S
C3050 C3033 1.574 . S
C3050 H3044 0.949 . S
C3050 C3054 1.368 . S
C3051 C3032 1.429 . S
C3051 C3045 1.429 . S
C3051 C3052 1.523 . S
C3052 C3033 1.368 . S
C3052 C3046 1.368 . S
C3052 C3051 1.523 . S
C3053 C3037 1.429 . S
C3053 C3049 1.429 . S
C3053 C3054 1.523 . S
C3054 C3038 1.368 . S
C3054 C3050 1.368 . S
C3054 C3053 1.523 . S
H3055 C3030 0.950 . S
H3056 C3032 0.950 . S
H3057 C3033 0.949 . S
H3058 C3035 0.950 . S
H3059 C3037 0.950 . S
C3060 C3061 1.349 . S
C3060 C3062 1.327 . S
C3060 H3085 0.950 . S
C3061 C3060 1.349 . S
C3061 C3077 1.349 . S
C3062 C3060 1.327 . S
C3062 C3081 1.429 . S
C3062 H3086 0.950 . S
C3063 C3080 1.574 . S
C3063 C3082 1.368 . S
C3063 H3087 0.949 . S
H3064 C3068 0.949 . S
C3065 C3066 1.349 . S
C3065 C3067 1.327 . S
C3065 H3088 0.950 . S
C3066 C3065 1.349 . S
C3066 C3078 1.349 . S
C3067 C3065 1.327 . S
C3067 C3083 1.429 . S
C3067 H3089 0.950 . S
C3068 H3064 0.949 . S
C3068 C3076 1.574 . S
C3068 C3084 1.368 . S
H3069 C3077 0.950 . S
H3070 C3075 0.950 . S
H3071 C3076 0.949 . S
H3072 C3078 0.950 . S
H3073 C3079 0.950 . S
H3074 C3080 0.949 . S
C3075 H3070 0.950 . S
C3075 C3077 1.327 . S
C3075 C3081 1.429 . S
C3076 C3068 1.574 . S
C3076 H3071 0.949 . S
C3076 C3082 1.368 . S
C3077 C3061 1.349 . S
C3077 H3069 0.950 . S
C3077 C3075 1.327 . S
C3078 C3066 1.349 . S
C3078 H3072 0.950 . S
C3078 C3079 1.327 . S
C3079 H3073 0.950 . S
C3079 C3078 1.327 . S
C3079 C3083 1.429 . S
C3080 C3063 1.574 . S
C3080 H3074 0.949 . S
C3080 C3084 1.368 . S
C3081 C3062 1.429 . S
C3081 C3075 1.429 . S
C3081 C3082 1.523 . S
C3082 C3063 1.368 . S
C3082 C3076 1.368 . S
C3082 C3081 1.523 . S
C3083 C3067 1.429 . S
C3083 C3079 1.429 . S
C3083 C3084 1.523 . S
C3084 C3068 1.368 . S
C3084 C3080 1.368 . S
C3084 C3083 1.523 . S
H3085 C3060 0.950 . S
H3086 C3062 0.950 . S
H3087 C3063 0.949 . S
H3088 C3065 0.950 . S
H3089 C3067 0.950 . S
C3090 C3091 1.349 . S
C3090 C3092 1.327 . S
C3090 H3115 0.950 . S
C3091 C3090 1.349 . S
C3091 C3107 1.349 . S
C3092 C3090 1.327 . S
C3092 C3111 1.429 . S
C3092 H3116 0.950 . S
C3093 C3110 1.574 . S
C3093 C3112 1.368 . S
C3093 H3117 0.949 . S
H3094 C3098 0.949 . S
C3095 C3096 1.349 . S
C3095 C3097 1.327 . S
C3095 H3118 0.950 . S
C3096 C3095 1.349 . S
C3096 C3108 1.349 . S
C3097 C3095 1.327 . S
C3097 C3113 1.429 . S
C3097 H3119 0.950 . S
C3098 H3094 0.949 . S
C3098 C3106 1.574 . S
C3098 C3114 1.368 . S
H3099 C3107 0.950 . S
H3100 C3105 0.950 . S
H3101 C3106 0.949 . S
H3102 C3108 0.950 . S
H3103 C3109 0.950 . S
H3104 C3110 0.949 . S
C3105 H3100 0.950 . S
C3105 C3107 1.327 . S
C3105 C3111 1.429 . S
C3106 C3098 1.574 . S
C3106 H3101 0.949 . S
C3106 C3112 1.368 . S
C3107 C3091 1.349 . S
C3107 H3099 0.950 . S
C3107 C3105 1.327 . S
C3108 C3096 1.349 . S
C3108 H3102 0.950 . S
C3108 C3109 1.327 . S
C3109 H3103 0.950 . S
C3109 C3108 1.327 . S
C3109 C3113 1.429 . S
C3110 C3093 1.574 . S
C3110 H3104 0.949 . S
C3110 C3114 1.368 . S
C3111 C3092 1.429 . S
C3111 C3105 1.429 . S
C3111 C3112 1.523 . S
C3112 C3093 1.368 . S
C3112 C3106 1.368 . S
C3112 C3111 1.523 . S
C3113 C3097 1.429 . S
C3113 C3109 1.429 . S
C3113 C3114 1.523 . S
C3114 C3098 1.368 . S
C3114 C3110 1.368 . S
C3114 C3113 1.523 . S
H3115 C3090 0.950 . S
H3116 C3092 0.950 . S
H3117 C3093 0.949 . S
H3118 C3095 0.950 . S
H3119 C3097 0.950 . S
C3120 C3121 1.349 . S
C3120 C3122 1.327 . S
C3120 H3145 0.950 . S
C3121 C3120 1.349 . S
C3121 C3137 1.349 . S
C3122 C3120 1.327 . S
C3122 C3141 1.429 . S
C3122 H3146 0.950 . S
C3123 C3140 1.574 . S
C3123 C3142 1.368 . S
C3123 H3147 0.949 . S
H3124 C3128 0.949 . S
C3125 C3126 1.349 . S
C3125 C3127 1.327 . S
C3125 H3148 0.950 . S
C3126 C3125 1.349 . S
C3126 C3138 1.349 . S
C3127 C3125 1.327 . S
C3127 C3143 1.429 . S
C3127 H3149 0.950 . S
C3128 H3124 0.949 . S
C3128 C3136 1.574 . S
C3128 C3144 1.368 . S
H3129 C3137 0.950 . S
H3130 C3135 0.950 . S
H3131 C3136 0.949 . S
H3132 C3138 0.950 . S
H3133 C3139 0.950 . S
H3134 C3140 0.949 . S
C3135 H3130 0.950 . S
C3135 C3137 1.327 . S
C3135 C3141 1.429 . S
C3136 C3128 1.574 . S
C3136 H3131 0.949 . S
C3136 C3142 1.368 . S
C3137 C3121 1.349 . S
C3137 H3129 0.950 . S
C3137 C3135 1.327 . S
C3138 C3126 1.349 . S
C3138 H3132 0.950 . S
C3138 C3139 1.327 . S
C3139 H3133 0.950 . S
C3139 C3138 1.327 . S
C3139 C3143 1.429 . S
C3140 C3123 1.574 . S
C3140 H3134 0.949 . S
C3140 C3144 1.368 . S
C3141 C3122 1.429 . S
C3141 C3135 1.429 . S
C3141 C3142 1.523 . S
C3142 C3123 1.368 . S
C3142 C3136 1.368 . S
C3142 C3141 1.523 . S
C3143 C3127 1.429 . S
C3143 C3139 1.429 . S
C3143 C3144 1.523 . S
C3144 C3128 1.368 . S
C3144 C3140 1.368 . S
C3144 C3143 1.523 . S
H3145 C3120 0.950 . S
H3146 C3122 0.950 . S
H3147 C3123 0.949 . S
H3148 C3125 0.950 . S
H3149 C3127 0.950 . S
C3150 C3151 1.349 . S
C3150 C3152 1.327 . S
C3150 H3175 0.950 . S
C3151 C3150 1.349 . S
C3151 C3167 1.349 . S
C3152 C3150 1.327 . S
C3152 C3171 1.429 . S
C3152 H3176 0.950 . S
C3153 C3170 1.574 . S
C3153 C3172 1.368 . S
C3153 H3177 0.949 . S
H3154 C3158 0.949 . S
C3155 C3156 1.349 . S
C3155 C3157 1.327 . S
C3155 H3178 0.950 . S
C3156 C3155 1.349 . S
C3156 C3168 1.349 . S
C3157 C3155 1.327 . S
C3157 C3173 1.429 . S
C3157 H3179 0.950 . S
C3158 H3154 0.949 . S
C3158 C3166 1.574 . S
C3158 C3174 1.368 . S
H3159 C3167 0.950 . S
H3160 C3165 0.950 . S
H3161 C3166 0.949 . S
H3162 C3168 0.950 . S
H3163 C3169 0.950 . S
H3164 C3170 0.949 . S
C3165 H3160 0.950 . S
C3165 C3167 1.327 . S
C3165 C3171 1.429 . S
C3166 C3158 1.574 . S
C3166 H3161 0.949 . S
C3166 C3172 1.368 . S
C3167 C3151 1.349 . S
C3167 H3159 0.950 . S
C3167 C3165 1.327 . S
C3168 C3156 1.349 . S
C3168 H3162 0.950 . S
C3168 C3169 1.327 . S
C3169 H3163 0.950 . S
C3169 C3168 1.327 . S
C3169 C3173 1.429 . S
C3170 C3153 1.574 . S
C3170 H3164 0.949 . S
C3170 C3174 1.368 . S
C3171 C3152 1.429 . S
C3171 C3165 1.429 . S
C3171 C3172 1.523 . S
C3172 C3153 1.368 . S
C3172 C3166 1.368 . S
C3172 C3171 1.523 . S
C3173 C3157 1.429 . S
C3173 C3169 1.429 . S
C3173 C3174 1.523 . S
C3174 C3158 1.368 . S
C3174 C3170 1.368 . S
C3174 C3173 1.523 . S
H3175 C3150 0.950 . S
H3176 C3152 0.950 . S
H3177 C3153 0.949 . S
H3178 C3155 0.950 . S
H3179 C3157 0.950 . S
C3180 C3181 1.349 . S
C3180 C3182 1.327 . S
C3180 H3205 0.950 . S
C3181 C3180 1.349 . S
C3181 C3197 1.349 . S
C3182 C3180 1.327 . S
C3182 C3201 1.429 . S
C3182 H3206 0.950 . S
C3183 C3200 1.574 . S
C3183 C3202 1.368 . S
C3183 H3207 0.949 . S
H3184 C3188 0.949 . S
C3185 C3186 1.349 1_556 S
C3185 C3187 1.327 . S
C3185 H3208 0.950 . S
C3186 C3185 1.349 1_554 S
C3186 C3198 1.349 . S
C3187 C3185 1.327 . S
C3187 C3203 1.429 . S
C3187 H3209 0.950 . S
C3188 H3184 0.949 . S
C3188 C3196 1.574 1_554 S
C3188 C3204 1.368 1_554 S
H3189 C3197 0.950 . S
H3190 C3195 0.950 . S
H3191 C3196 0.949 1_554 S
H3192 C3198 0.950 . S
H3193 C3199 0.950 . S
H3194 C3200 0.949 . S
C3195 H3190 0.950 . S
C3195 C3197 1.327 . S
C3195 C3201 1.429 . S
C3196 C3188 1.574 1_556 S
C3196 H3191 0.949 1_556 S
C3196 C3202 1.368 . S
C3197 C3181 1.349 . S
C3197 H3189 0.950 . S
C3197 C3195 1.327 . S
C3198 C3186 1.349 . S
C3198 H3192 0.950 . S
C3198 C3199 1.327 . S
C3199 H3193 0.950 . S
C3199 C3198 1.327 . S
C3199 C3203 1.429 1_554 S
C3200 C3183 1.574 . S
C3200 H3194 0.949 . S
C3200 C3204 1.368 . S
C3201 C3182 1.429 . S
C3201 C3195 1.429 . S
C3201 C3202 1.523 . S
C3202 C3183 1.368 . S
C3202 C3196 1.368 . S
C3202 C3201 1.523 . S
C3203 C3187 1.429 . S
C3203 C3199 1.429 1_556 S
C3203 C3204 1.523 . S
C3204 C3188 1.368 1_556 S
C3204 C3200 1.368 . S
C3204 C3203 1.523 . S
H3205 C3180 0.950 . S
H3206 C3182 0.950 . S
H3207 C3183 0.949 . S
H3208 C3185 0.950 . S
H3209 C3187 0.950 . S
C3210 C3211 1.349 . S
C3210 C3212 1.327 . S
C3210 H3235 0.950 . S
C3211 C3210 1.349 . S
C3211 C3227 1.349 . S
C3212 C3210 1.327 . S
C3212 C3231 1.429 . S
C3212 H3236 0.950 1_455 S
C3213 C3230 1.574 . S
C3213 C3232 1.368 . S
C3213 H3237 0.949 . S
H3214 C3218 0.949 . S
C3215 C3216 1.349 . S
C3215 C3217 1.327 . S
C3215 H3238 0.950 . S
C3216 C3215 1.349 . S
C3216 C3228 1.349 . S
C3217 C3215 1.327 . S
C3217 C3233 1.429 . S
C3217 H3239 0.950 . S
C3218 H3214 0.949 . S
C3218 C3226 1.574 . S
C3218 C3234 1.368 . S
H3219 C3227 0.950 . S
H3220 C3225 0.950 . S
H3221 C3226 0.949 . S
H3222 C3228 0.950 . S
H3223 C3229 0.950 . S
H3224 C3230 0.949 . S
C3225 H3220 0.950 . S
C3225 C3227 1.327 . S
C3225 C3231 1.429 . S
C3226 C3218 1.574 . S
C3226 H3221 0.949 . S
C3226 C3232 1.368 . S
C3227 C3211 1.349 . S
C3227 H3219 0.950 . S
C3227 C3225 1.327 . S
C3228 C3216 1.349 . S
C3228 H3222 0.950 . S
C3228 C3229 1.327 . S
C3229 H3223 0.950 . S
C3229 C3228 1.327 . S
C3229 C3233 1.429 . S
C3230 C3213 1.574 . S
C3230 H3224 0.949 . S
C3230 C3234 1.368 . S
C3231 C3212 1.429 . S
C3231 C3225 1.429 . S
C3231 C3232 1.523 1_455 S
C3232 C3213 1.368 . S
C3232 C3226 1.368 . S
C3232 C3231 1.523 1_655 S
C3233 C3217 1.429 . S
C3233 C3229 1.429 . S
C3233 C3234 1.523 . S
C3234 C3218 1.368 . S
C3234 C3230 1.368 . S
C3234 C3233 1.523 . S
H3235 C3210 0.950 . S
H3236 C3212 0.950 1_655 S
H3237 C3213 0.949 . S
H3238 C3215 0.950 . S
H3239 C3217 0.950 . S
C3240 C3241 1.349 . S
C3240 C3242 1.327 . S
C3240 H3265 0.950 . S
C3241 C3240 1.349 . S
C3241 C3257 1.349 . S
C3242 C3240 1.327 . S
C3242 C3261 1.429 . S
C3242 H3266 0.950 . S
C3243 C3260 1.574 . S
C3243 C3262 1.368 . S
C3243 H3267 0.949 . S
H3244 C3248 0.949 . S
C3245 C3246 1.349 . S
C3245 C3247 1.327 . S
C3245 H3268 0.950 . S
C3246 C3245 1.349 . S
C3246 C3258 1.349 . S
C3247 C3245 1.327 . S
C3247 C3263 1.429 . S
C3247 H3269 0.950 . S
C3248 H3244 0.949 . S
C3248 C3256 1.574 . S
C3248 C3264 1.368 . S
H3249 C3257 0.950 . S
H3250 C3255 0.950 . S
H3251 C3256 0.949 . S
H3252 C3258 0.950 . S
H3253 C3259 0.950 . S
H3254 C3260 0.949 . S
C3255 H3250 0.950 . S
C3255 C3257 1.327 . S
C3255 C3261 1.429 . S
C3256 C3248 1.574 . S
C3256 H3251 0.949 . S
C3256 C3262 1.368 . S
C3257 C3241 1.349 . S
C3257 H3249 0.950 . S
C3257 C3255 1.327 . S
C3258 C3246 1.349 . S
C3258 H3252 0.950 . S
C3258 C3259 1.327 . S
C3259 H3253 0.950 . S
C3259 C3258 1.327 . S
C3259 C3263 1.429 . S
C3260 C3243 1.574 . S
C3260 H3254 0.949 . S
C3260 C3264 1.368 . S
C3261 C3242 1.429 . S
C3261 C3255 1.429 . S
C3261 C3262 1.523 . S
C3262 C3243 1.368 . S
C3262 C3256 1.368 . S
C3262 C3261 1.523 . S
C3263 C3247 1.429 . S
C3263 C3259 1.429 . S
C3263 C3264 1.523 . S
C3264 C3248 1.368 . S
C3264 C3260 1.368 . S
C3264 C3263 1.523 . S
H3265 C3240 0.950 . S
H3266 C3242 0.950 . S
H3267 C3243 0.949 . S
H3268 C3245 0.950 . S
H3269 C3247 0.950 . S
C3270 C3271 1.349 . S
C3270 C3272 1.327 . S
C3270 H3295 0.950 . S
C3271 C3270 1.349 . S
C3271 C3287 1.349 . S
C3272 C3270 1.327 . S
C3272 C3291 1.429 . S
C3272 H3296 0.950 . S
C3273 C3290 1.574 . S
C3273 C3292 1.368 . S
C3273 H3297 0.949 . S
H3274 C3278 0.949 . S
C3275 C3276 1.349 . S
C3275 C3277 1.327 . S
C3275 H3298 0.950 . S
C3276 C3275 1.349 . S
C3276 C3288 1.349 . S
C3277 C3275 1.327 . S
C3277 C3293 1.429 . S
C3277 H3299 0.950 . S
C3278 H3274 0.949 . S
C3278 C3286 1.574 . S
C3278 C3294 1.368 . S
H3279 C3287 0.950 . S
H3280 C3285 0.950 . S
H3281 C3286 0.949 1_455 S
H3282 C3288 0.950 . S
H3283 C3289 0.950 . S
H3284 C3290 0.949 . S
C3285 H3280 0.950 . S
C3285 C3287 1.327 . S
C3285 C3291 1.429 . S
C3286 C3278 1.574 . S
C3286 H3281 0.949 1_655 S
C3286 C3292 1.368 . S
C3287 C3271 1.349 . S
C3287 H3279 0.950 . S
C3287 C3285 1.327 . S
C3288 C3276 1.349 . S
C3288 H3282 0.950 . S
C3288 C3289 1.327 . S
C3289 H3283 0.950 . S
C3289 C3288 1.327 . S
C3289 C3293 1.429 . S
C3290 C3273 1.574 . S
C3290 H3284 0.949 . S
C3290 C3294 1.368 . S
C3291 C3272 1.429 . S
C3291 C3285 1.429 . S
C3291 C3292 1.523 1_455 S
C3292 C3273 1.368 . S
C3292 C3286 1.368 . S
C3292 C3291 1.523 1_655 S
C3293 C3277 1.429 . S
C3293 C3289 1.429 . S
C3293 C3294 1.523 . S
C3294 C3278 1.368 . S
C3294 C3290 1.368 . S
C3294 C3293 1.523 . S
H3295 C3270 0.950 . S
H3296 C3272 0.950 . S
H3297 C3273 0.949 . S
H3298 C3275 0.950 . S
H3299 C3277 0.950 . S
C3300 C3301 1.349 1_455 S
C3300 C3302 1.327 . S
C3300 H3325 0.950 . S
C3301 C3300 1.349 1_655 S
C3301 C3317 1.349 . S
C3302 C3300 1.327 . S
C3302 C3321 1.429 . S
C3302 H3326 0.950 . S
C3303 C3320 1.555 1_655 S
C3303 C3322 1.357 1_655 S
C3303 H3327 0.978 . S
H3304 C3308 0.949 . S
C3305 C3306 1.349 . S
C3305 C3307 1.327 . S
C3305 H3328 0.950 . S
C3306 C3305 1.349 . S
C3306 C3318 1.349 . S
C3307 C3305 1.327 . S
C3307 C3323 1.429 . S
C3307 H3329 0.950 . S
C3308 H3304 0.949 . S
C3308 C3316 1.574 . S
C3308 C3324 1.368 . S
H3309 C3317 0.950 . S
H3310 C3315 0.950 . S
H3311 C3316 0.949 . S
H3312 C3318 0.950 . S
H3313 C3319 0.950 . S
H3314 C3320 0.948 1_655 S
C3315 H3310 0.950 . S
C3315 C3317 1.327 . S
C3315 C3321 1.429 1_655 S
C3316 C3308 1.574 . S
C3316 H3311 0.949 . S
C3316 C3322 1.368 . S
C3317 C3301 1.349 . S
C3317 H3309 0.950 . S
C3317 C3315 1.327 . S
C3318 C3306 1.349 . S
C3318 H3312 0.950 . S
C3318 C3319 1.327 . S
C3319 H3313 0.950 . S
C3319 C3318 1.327 . S
C3319 C3323 1.429 . S
C3320 C3303 1.555 1_455 S
C3320 H3314 0.948 1_455 S
C3320 C3324 1.368 . S
C3321 C3302 1.429 . S
C3321 C3315 1.429 1_455 S
C3321 C3322 1.523 . S
C3322 C3303 1.357 1_455 S
C3322 C3316 1.368 . S
C3322 C3321 1.523 . S
C3323 C3307 1.429 . S
C3323 C3319 1.429 . S
C3323 C3324 1.523 . S
C3324 C3308 1.368 . S
C3324 C3320 1.368 . S
C3324 C3323 1.523 . S
H3325 C3300 0.950 . S
H3326 C3302 0.950 . S
H3327 C3303 0.978 . S
H3328 C3305 0.950 . S
H3329 C3307 0.950 . S
C3330 C3331 1.349 . S
C3330 C3332 1.327 . S
C3330 H3355 0.950 . S
C3331 C3330 1.349 . S
C3331 C3347 1.349 . S
C3332 C3330 1.327 . S
C3332 C3351 1.429 . S
C3332 H3356 0.950 . S
C3333 C3350 1.574 . S
C3333 C3352 1.368 . S
C3333 H3357 0.949 . S
H3334 C3338 0.949 . S
C3335 C3336 1.349 . S
C3335 C3337 1.327 . S
C3335 H3358 0.950 . S
C3336 C3335 1.349 . S
C3336 C3348 1.349 . S
C3337 C3335 1.327 . S
C3337 C3353 1.429 . S
C3337 H3359 0.950 . S
C3338 H3334 0.949 . S
C3338 C3346 1.574 . S
C3338 C3354 1.368 . S
H3339 C3347 0.950 . S
H3340 C3345 0.950 . S
H3341 C3346 0.949 . S
H3342 C3348 0.950 . S
H3343 C3349 0.950 . S
H3344 C3350 0.949 . S
C3345 H3340 0.950 . S
C3345 C3347 1.327 . S
C3345 C3351 1.429 . S
C3346 C3338 1.574 . S
C3346 H3341 0.949 . S
C3346 C3352 1.368 . S
C3347 C3331 1.349 . S
C3347 H3339 0.950 . S
C3347 C3345 1.327 . S
C3348 C3336 1.349 . S
C3348 H3342 0.950 . S
C3348 C3349 1.327 . S
C3349 H3343 0.950 . S
C3349 C3348 1.327 . S
C3349 C3353 1.429 . S
C3350 C3333 1.574 . S
C3350 H3344 0.949 . S
C3350 C3354 1.368 . S
C3351 C3332 1.429 . S
C3351 C3345 1.429 . S
C3351 C3352 1.523 . S
C3352 C3333 1.368 . S
C3352 C3346 1.368 . S
C3352 C3351 1.523 . S
C3353 C3337 1.429 . S
C3353 C3349 1.429 . S
C3353 C3354 1.523 . S
C3354 C3338 1.368 . S
C3354 C3350 1.368 . S
C3354 C3353 1.523 . S
H3355 C3330 0.950 . S
H3356 C3332 0.950 . S
H3357 C3333 0.949 . S
H3358 C3335 0.950 . S
H3359 C3337 0.950 . S
C3360 C3361 1.349 . S
C3360 C3362 1.327 . S
C3360 H3385 0.950 . S
C3361 C3360 1.349 . S
C3361 C3377 1.349 . S
C3362 C3360 1.327 . S
C3362 C3381 1.429 . S
C3362 H3386 0.950 . S
C3363 C3380 1.574 . S
C3363 C3382 1.368 . S
C3363 H3387 0.949 . S
H3364 C3368 0.949 . S
C3365 C3366 1.349 . S
C3365 C3367 1.327 . S
C3365 H3388 0.950 . S
C3366 C3365 1.349 . S
C3366 C3378 1.349 . S
C3367 C3365 1.327 . S
C3367 C3383 1.429 . S
C3367 H3389 0.950 . S
C3368 H3364 0.949 . S
C3368 C3376 1.574 . S
C3368 C3384 1.368 . S
H3369 C3377 0.950 . S
H3370 C3375 0.950 . S
H3371 C3376 0.949 . S
H3372 C3378 0.950 . S
H3373 C3379 0.950 . S
H3374 C3380 0.949 . S
C3375 H3370 0.950 . S
C3375 C3377 1.327 . S
C3375 C3381 1.429 . S
C3376 C3368 1.574 . S
C3376 H3371 0.949 . S
C3376 C3382 1.368 . S
C3377 C3361 1.349 . S
C3377 H3369 0.950 . S
C3377 C3375 1.327 . S
C3378 C3366 1.349 . S
C3378 H3372 0.950 . S
C3378 C3379 1.327 . S
C3379 H3373 0.950 . S
C3379 C3378 1.327 . S
C3379 C3383 1.429 . S
C3380 C3363 1.574 . S
C3380 H3374 0.949 . S
C3380 C3384 1.368 . S
C3381 C3362 1.429 . S
C3381 C3375 1.429 . S
C3381 C3382 1.523 . S
C3382 C3363 1.368 . S
C3382 C3376 1.368 . S
C3382 C3381 1.523 . S
C3383 C3367 1.429 . S
C3383 C3379 1.429 . S
C3383 C3384 1.523 . S
C3384 C3368 1.368 . S
C3384 C3380 1.368 . S
C3384 C3383 1.523 . S
H3385 C3360 0.950 . S
H3386 C3362 0.950 . S
H3387 C3363 0.949 . S
H3388 C3365 0.950 . S
H3389 C3367 0.950 . S
C3390 C3391 1.349 . S
C3390 C3392 1.327 . S
C3390 H3415 0.950 . S
C3391 C3390 1.349 . S
C3391 C3407 1.349 . S
C3392 C3390 1.327 . S
C3392 C3411 1.429 . S
C3392 H3416 0.950 . S
C3393 C3410 1.574 . S
C3393 C3412 1.368 . S
C3393 H3417 0.949 . S
H3394 C3398 0.949 . S
C3395 C3396 1.349 . S
C3395 C3397 1.327 . S
C3395 H3418 0.950 . S
C3396 C3395 1.349 . S
C3396 C3408 1.349 . S
C3397 C3395 1.327 . S
C3397 C3413 1.429 . S
C3397 H3419 0.950 . S
C3398 H3394 0.949 . S
C3398 C3406 1.574 . S
C3398 C3414 1.368 . S
H3399 C3407 0.962 . S
H3400 C3405 0.950 . S
H3401 C3406 0.949 . S
H3402 C3408 0.950 . S
H3403 C3409 0.950 . S
H3404 C3410 0.949 . S
C3405 H3400 0.950 . S
C3405 C3407 1.327 . S
C3405 C3411 1.429 . S
C3406 C3398 1.574 . S
C3406 H3401 0.949 . S
C3406 C3412 1.368 . S
C3407 C3391 1.349 . S
C3407 H3399 0.962 . S
C3407 C3405 1.327 . S
C3408 C3396 1.349 . S
C3408 H3402 0.950 . S
C3408 C3409 1.327 . S
C3409 H3403 0.950 . S
C3409 C3408 1.327 . S
C3409 C3413 1.429 . S
C3410 C3393 1.574 . S
C3410 H3404 0.949 . S
C3410 C3414 1.368 . S
C3411 C3392 1.429 . S
C3411 C3405 1.429 . S
C3411 C3412 1.523 . S
C3412 C3393 1.368 . S
C3412 C3406 1.368 . S
C3412 C3411 1.523 . S
C3413 C3397 1.429 . S
C3413 C3409 1.429 . S
C3413 C3414 1.523 . S
C3414 C3398 1.368 . S
C3414 C3410 1.368 . S
C3414 C3413 1.523 . S
H3415 C3390 0.950 . S
H3416 C3392 0.950 . S
H3417 C3393 0.949 . S
H3418 C3395 0.950 . S
H3419 C3397 0.950 . S
C3420 C3421 1.349 . S
C3420 C3422 1.327 . S
C3420 H3445 0.950 . S
C3421 C3420 1.349 . S
C3421 C3437 1.349 . S
C3422 C3420 1.327 . S
C3422 C3441 1.429 . S
C3422 H3446 0.950 . S
C3423 C3440 1.574 . S
C3423 C3442 1.368 . S
C3423 H3447 0.949 . S
H3424 C3428 0.949 . S
C3425 C3426 1.349 . S
C3425 C3427 1.327 . S
C3425 H3448 0.950 . S
C3426 C3425 1.349 . S
C3426 C3438 1.349 . S
C3427 C3425 1.327 . S
C3427 C3443 1.429 . S
C3427 H3449 0.950 . S
C3428 H3424 0.949 . S
C3428 C3436 1.574 . S
C3428 C3444 1.368 . S
H3429 C3437 0.950 . S
H3430 C3435 0.950 . S
H3431 C3436 0.949 . S
H3432 C3438 0.950 . S
H3433 C3439 0.950 . S
H3434 C3440 0.949 . S
C3435 H3430 0.950 . S
C3435 C3437 1.327 . S
C3435 C3441 1.429 . S
C3436 C3428 1.574 . S
C3436 H3431 0.949 . S
C3436 C3442 1.368 . S
C3437 C3421 1.349 . S
C3437 H3429 0.950 . S
C3437 C3435 1.327 . S
C3438 C3426 1.349 . S
C3438 H3432 0.950 . S
C3438 C3439 1.327 . S
C3439 H3433 0.950 . S
C3439 C3438 1.327 . S
C3439 C3443 1.429 . S
C3440 C3423 1.574 . S
C3440 H3434 0.949 . S
C3440 C3444 1.368 . S
C3441 C3422 1.429 . S
C3441 C3435 1.429 . S
C3441 C3442 1.523 . S
C3442 C3423 1.368 . S
C3442 C3436 1.368 . S
C3442 C3441 1.523 . S
C3443 C3427 1.429 . S
C3443 C3439 1.429 . S
C3443 C3444 1.523 . S
C3444 C3428 1.368 . S
C3444 C3440 1.368 . S
C3444 C3443 1.523 . S
H3445 C3420 0.950 . S
H3446 C3422 0.950 . S
H3447 C3423 0.949 . S
H3448 C3425 0.950 . S
H3449 C3427 0.950 . S
C3450 C3451 1.349 . S
C3450 C3452 1.327 . S
C3450 H3475 0.950 . S
C3451 C3450 1.349 . S
C3451 C3467 1.349 . S
C3452 C3450 1.327 . S
C3452 C3471 1.429 . S
C3452 H3476 0.950 . S
C3453 C3470 1.574 . S
C3453 C3472 1.368 . S
C3453 H3477 0.949 . S
H3454 C3458 0.949 . S
C3455 C3456 1.349 . S
C3455 C3457 1.327 . S
C3455 H3478 0.950 . S
C3456 C3455 1.349 . S
C3456 C3468 1.349 . S
C3457 C3455 1.327 . S
C3457 C3473 1.429 . S
C3457 H3479 0.950 . S
C3458 H3454 0.949 . S
C3458 C3466 1.574 . S
C3458 C3474 1.368 . S
H3459 C3467 0.950 . S
H3460 C3465 0.950 . S
H3461 C3466 0.949 . S
H3462 C3468 0.950 . S
H3463 C3469 0.950 . S
H3464 C3470 0.949 . S
C3465 H3460 0.950 . S
C3465 C3467 1.327 . S
C3465 C3471 1.429 . S
C3466 C3458 1.574 . S
C3466 H3461 0.949 . S
C3466 C3472 1.368 . S
C3467 C3451 1.349 . S
C3467 H3459 0.950 . S
C3467 C3465 1.327 . S
C3468 C3456 1.349 . S
C3468 H3462 0.950 . S
C3468 C3469 1.327 . S
C3469 H3463 0.950 . S
C3469 C3468 1.327 . S
C3469 C3473 1.429 . S
C3470 C3453 1.574 . S
C3470 H3464 0.949 . S
C3470 C3474 1.368 . S
C3471 C3452 1.429 . S
C3471 C3465 1.429 . S
C3471 C3472 1.523 . S
C3472 C3453 1.368 . S
C3472 C3466 1.368 . S
C3472 C3471 1.523 . S
C3473 C3457 1.429 . S
C3473 C3469 1.429 . S
C3473 C3474 1.523 . S
C3474 C3458 1.368 . S
C3474 C3470 1.368 . S
C3474 C3473 1.523 . S
H3475 C3450 0.950 . S
H3476 C3452 0.950 . S
H3477 C3453 0.949 . S
H3478 C3455 0.950 . S
H3479 C3457 0.950 . S
C3480 C3481 1.349 . S
C3480 C3482 1.327 . S
C3480 H3505 0.950 . S
C3481 C3480 1.349 . S
C3481 C3497 1.349 . S
C3482 C3480 1.327 . S
C3482 C3501 1.429 . S
C3482 H3506 0.950 . S
C3483 C3500 1.574 . S
C3483 C3502 1.368 . S
C3483 H3507 0.949 . S
H3484 C3488 0.949 . S
C3485 C3486 1.349 . S
C3485 C3487 1.327 . S
C3485 H3508 0.950 . S
C3486 C3485 1.349 . S
C3486 C3498 1.349 . S
C3487 C3485 1.327 . S
C3487 C3503 1.429 . S
C3487 H3509 0.950 . S
C3488 H3484 0.949 . S
C3488 C3496 1.574 . S
C3488 C3504 1.368 . S
H3489 C3497 0.950 . S
H3490 C3495 0.950 . S
H3491 C3496 0.949 . S
H3492 C3498 0.950 . S
H3493 C3499 0.950 . S
H3494 C3500 0.949 . S
C3495 H3490 0.950 . S
C3495 C3497 1.327 . S
C3495 C3501 1.429 . S
C3496 C3488 1.574 . S
C3496 H3491 0.949 . S
C3496 C3502 1.368 . S
C3497 C3481 1.349 . S
C3497 H3489 0.950 . S
C3497 C3495 1.327 . S
C3498 C3486 1.349 . S
C3498 H3492 0.950 . S
C3498 C3499 1.327 . S
C3499 H3493 0.950 . S
C3499 C3498 1.327 . S
C3499 C3503 1.429 . S
C3500 C3483 1.574 . S
C3500 H3494 0.949 . S
C3500 C3504 1.368 . S
C3501 C3482 1.429 . S
C3501 C3495 1.429 . S
C3501 C3502 1.523 . S
C3502 C3483 1.368 . S
C3502 C3496 1.368 . S
C3502 C3501 1.523 . S
C3503 C3487 1.429 . S
C3503 C3499 1.429 . S
C3503 C3504 1.523 . S
C3504 C3488 1.368 . S
C3504 C3500 1.368 . S
C3504 C3503 1.523 . S
H3505 C3480 0.950 . S
H3506 C3482 0.950 . S
H3507 C3483 0.949 . S
H3508 C3485 0.950 . S
H3509 C3487 0.950 . S
C3510 C3511 1.349 . S
C3510 C3512 1.327 . S
C3510 H3535 0.950 . S
C3511 C3510 1.349 . S
C3511 C3527 1.349 . S
C3512 C3510 1.327 . S
C3512 C3531 1.429 . S
C3512 H3536 0.950 . S
C3513 C3530 1.574 . S
C3513 C3532 1.368 . S
C3513 H3537 0.949 . S
H3514 C3518 0.949 . S
C3515 C3516 1.349 . S
C3515 C3517 1.327 . S
C3515 H3538 0.950 . S
C3516 C3515 1.349 . S
C3516 C3528 1.349 . S
C3517 C3515 1.327 . S
C3517 C3533 1.429 . S
C3517 H3539 0.950 . S
C3518 H3514 0.949 . S
C3518 C3526 1.574 . S
C3518 C3534 1.368 . S
H3519 C3527 0.950 . S
H3520 C3525 0.950 . S
H3521 C3526 0.949 . S
H3522 C3528 0.950 . S
H3523 C3529 0.950 . S
H3524 C3530 0.949 . S
C3525 H3520 0.950 . S
C3525 C3527 1.327 . S
C3525 C3531 1.429 . S
C3526 C3518 1.574 . S
C3526 H3521 0.949 . S
C3526 C3532 1.368 . S
C3527 C3511 1.349 . S
C3527 H3519 0.950 . S
C3527 C3525 1.327 . S
C3528 C3516 1.349 . S
C3528 H3522 0.950 . S
C3528 C3529 1.327 . S
C3529 H3523 0.950 . S
C3529 C3528 1.327 . S
C3529 C3533 1.429 . S
C3530 C3513 1.574 . S
C3530 H3524 0.949 . S
C3530 C3534 1.368 . S
C3531 C3512 1.429 . S
C3531 C3525 1.429 . S
C3531 C3532 1.523 . S
C3532 C3513 1.368 . S
C3532 C3526 1.368 . S
C3532 C3531 1.523 . S
C3533 C3517 1.429 . S
C3533 C3529 1.429 . S
C3533 C3534 1.523 . S
C3534 C3518 1.368 . S
C3534 C3530 1.368 . S
C3534 C3533 1.523 . S
H3535 C3510 0.950 . S
H3536 C3512 0.950 . S
H3537 C3513 0.949 . S
H3538 C3515 0.950 . S
H3539 C3517 0.950 . S
C3540 C3541 1.349 . S
C3540 C3542 1.327 . S
C3540 H3565 0.950 . S
C3541 C3540 1.349 . S
C3541 C3557 1.349 . S
C3542 C3540 1.327 . S
C3542 C3561 1.429 . S
C3542 H3566 0.950 . S
C3543 C3560 1.574 . S
C3543 C3562 1.368 . S
C3543 H3567 0.949 . S
H3544 C3548 0.949 . S
C3545 C3546 1.349 . S
C3545 C3547 1.327 . S
C3545 H3568 0.950 . S
C3546 C3545 1.349 . S
C3546 C3558 1.349 . S
C3547 C3545 1.327 . S
C3547 C3563 1.429 . S
C3547 H3569 0.950 . S
C3548 H3544 0.949 . S
C3548 C3556 1.574 . S
C3548 C3564 1.368 . S
H3549 C3557 0.950 . S
H3550 C3555 0.950 . S
H3551 C3556 0.949 . S
H3552 C3558 0.950 . S
H3553 C3559 0.950 . S
H3554 C3560 0.949 . S
C3555 H3550 0.950 . S
C3555 C3557 1.327 . S
C3555 C3561 1.429 . S
C3556 C3548 1.574 . S
C3556 H3551 0.949 . S
C3556 C3562 1.368 . S
C3557 C3541 1.349 . S
C3557 H3549 0.950 . S
C3557 C3555 1.327 . S
C3558 C3546 1.349 . S
C3558 H3552 0.950 . S
C3558 C3559 1.327 . S
C3559 H3553 0.950 . S
C3559 C3558 1.327 . S
C3559 C3563 1.429 . S
C3560 C3543 1.574 . S
C3560 H3554 0.949 . S
C3560 C3564 1.368 . S
C3561 C3542 1.429 . S
C3561 C3555 1.429 . S
C3561 C3562 1.523 . S
C3562 C3543 1.368 . S
C3562 C3556 1.368 . S
C3562 C3561 1.523 . S
C3563 C3547 1.429 . S
C3563 C3559 1.429 . S
C3563 C3564 1.523 . S
C3564 C3548 1.368 . S
C3564 C3560 1.368 . S
C3564 C3563 1.523 . S
H3565 C3540 0.950 . S
H3566 C3542 0.950 . S
H3567 C3543 0.949 . S
H3568 C3545 0.950 . S
H3569 C3547 0.950 . S
C3570 C3571 1.349 . S
C3570 C3572 1.327 . S
C3570 H3595 0.950 . S
C3571 C3570 1.349 . S
C3571 C3587 1.349 . S
C3572 C3570 1.327 . S
C3572 C3591 1.429 . S
C3572 H3596 0.950 . S
C3573 C3590 1.574 . S
C3573 C3592 1.368 . S
C3573 H3597 0.949 . S
H3574 C3578 0.949 . S
C3575 C3576 1.349 . S
C3575 C3577 1.327 . S
C3575 H3598 0.950 . S
C3576 C3575 1.349 . S
C3576 C3588 1.349 . S
C3577 C3575 1.327 . S
C3577 C3593 1.429 . S
C3577 H3599 0.950 . S
C3578 H3574 0.949 . S
C3578 C3586 1.574 . S
C3578 C3594 1.368 . S
H3579 C3587 0.950 . S
H3580 C3585 0.950 . S
H3581 C3586 0.949 . S
H3582 C3588 0.950 . S
H3583 C3589 0.950 . S
H3584 C3590 0.949 . S
C3585 H3580 0.950 . S
C3585 C3587 1.327 . S
C3585 C3591 1.429 . S
C3586 C3578 1.574 . S
C3586 H3581 0.949 . S
C3586 C3592 1.368 . S
C3587 C3571 1.349 . S
C3587 H3579 0.950 . S
C3587 C3585 1.327 . S
C3588 C3576 1.349 . S
C3588 H3582 0.950 . S
C3588 C3589 1.327 . S
C3589 H3583 0.950 . S
C3589 C3588 1.327 . S
C3589 C3593 1.429 . S
C3590 C3573 1.574 . S
C3590 H3584 0.949 . S
C3590 C3594 1.368 . S
C3591 C3572 1.429 . S
C3591 C3585 1.429 . S
C3591 C3592 1.523 . S
C3592 C3573 1.368 . S
C3592 C3586 1.368 . S
C3592 C3591 1.523 . S
C3593 C3577 1.429 . S
C3593 C3589 1.429 . S
C3593 C3594 1.523 . S
C3594 C3578 1.368 . S
C3594 C3590 1.368 . S
C3594 C3593 1.523 . S
H3595 C3570 0.950 . S
H3596 C3572 0.950 . S
H3597 C3573 0.949 . S
H3598 C3575 0.950 . S
H3599 C3577 0.950 . S
C3600 C3601 1.349 . S
C3600 C3602 1.327 . S
C3600 H3625 0.950 . S
C3601 C3600 1.349 . S
C3601 C3617 1.349 . S
C3602 C3600 1.327 . S
C3602 C3621 1.429 . S
C3602 H3626 0.950 . S
C3603 C3620 1.574 . S
C3603 C3622 1.368 . S
C3603 H3627 0.949 . S
H3604 C3608 0.949 . S
C3605 C3606 1.349 . S
C3605 C3607 1.327 . S
C3605 H3628 0.950 . S
C3606 C3605 1.349 . S
C3606 C3618 1.349 . S
C3607 C3605 1.327 . S
C3607 C3623 1.429 . S
C3607 H3629 0.950 . S
C3608 H3604 0.949 . S
C3608 C3616 1.574 . S
C3608 C3624 1.368 . S
H3609 C3617 0.950 . S
H3610 C3615 0.950 . S
H3611 C3616 0.949 . S
H3612 C3618 0.950 . S
H3613 C3619 0.950 . S
H3614 C3620 0.949 . S
C3615 H3610 0.950 . S
C3615 C3617 1.327 . S
C3615 C3621 1.429 . S
C3616 C3608 1.574 . S
C3616 H3611 0.949 . S
C3616 C3622 1.368 . S
C3617 C3601 1.349 . S
C3617 H3609 0.950 . S
C3617 C3615 1.327 . S
C3618 C3606 1.349 . S
C3618 H3612 0.950 . S
C3618 C3619 1.327 . S
C3619 H3613 0.950 . S
C3619 C3618 1.327 . S
C3619 C3623 1.429 . S
C3620 C3603 1.574 . S
C3620 H3614 0.949 . S
C3620 C3624 1.368 . S
C3621 C3602 1.429 . S
C3621 C3615 1.429 . S
C3621 C3622 1.523 . S
C3622 C3603 1.368 . S
C3622 C3616 1.368 . S
C3622 C3621 1.523 . S
C3623 C3607 1.429 . S
C3623 C3619 1.429 . S
C3623 C3624 1.523 . S
C3624 C3608 1.368 . S
C3624 C3620 1.368 . S
C3624 C3623 1.523 . S
H3625 C3600 0.950 . S
H3626 C3602 0.950 . S
H3627 C3603 0.949 . S
H3628 C3605 0.950 . S
H3629 C3607 0.950 . S
C3630 C3631 1.349 . S
C3630 C3632 1.327 . S
C3630 H3655 0.950 . S
C3631 C3630 1.349 . S
C3631 C3647 1.349 . S
C3632 C3630 1.327 . S
C3632 C3651 1.429 . S
C3632 H3656 0.950 . S
C3633 C3650 1.574 . S
C3633 C3652 1.368 . S
C3633 H3657 0.949 . S
H3634 C3638 0.949 . S
C3635 C3636 1.349 . S
C3635 C3637 1.327 . S
C3635 H3658 0.950 . S
C3636 C3635 1.349 . S
C3636 C3648 1.349 . S
C3637 C3635 1.327 . S
C3637 C3653 1.429 . S
C3637 H3659 0.950 . S
C3638 H3634 0.949 . S
C3638 C3646 1.574 . S
C3638 C3654 1.368 . S
H3639 C3647 0.950 . S
H3640 C3645 0.950 . S
H3641 C3646 0.949 . S
H3642 C3648 0.950 . S
H3643 C3649 0.950 . S
H3644 C3650 0.949 . S
C3645 H3640 0.950 . S
C3645 C3647 1.327 . S
C3645 C3651 1.429 . S
C3646 C3638 1.574 . S
C3646 H3641 0.949 . S
C3646 C3652 1.368 . S
C3647 C3631 1.349 . S
C3647 H3639 0.950 . S
C3647 C3645 1.327 . S
C3648 C3636 1.349 . S
C3648 H3642 0.950 . S
C3648 C3649 1.327 . S
C3649 H3643 0.950 . S
C3649 C3648 1.327 . S
C3649 C3653 1.429 . S
C3650 C3633 1.574 . S
C3650 H3644 0.949 . S
C3650 C3654 1.368 . S
C3651 C3632 1.429 . S
C3651 C3645 1.429 . S
C3651 C3652 1.523 . S
C3652 C3633 1.368 . S
C3652 C3646 1.368 . S
C3652 C3651 1.523 . S
C3653 C3637 1.429 . S
C3653 C3649 1.429 . S
C3653 C3654 1.523 . S
C3654 C3638 1.368 . S
C3654 C3650 1.368 . S
C3654 C3653 1.523 . S
H3655 C3630 0.950 . S
H3656 C3632 0.950 . S
H3657 C3633 0.949 . S
H3658 C3635 0.950 . S
H3659 C3637 0.950 . S
C3660 C3661 1.349 . S
C3660 C3662 1.327 . S
C3660 H3685 0.950 . S
C3661 C3660 1.349 . S
C3661 C3677 1.349 . S
C3662 C3660 1.327 . S
C3662 C3681 1.429 . S
C3662 H3686 0.950 . S
C3663 C3680 1.574 . S
C3663 C3682 1.368 . S
C3663 H3687 0.949 . S
H3664 C3668 0.949 . S
C3665 C3666 1.349 . S
C3665 C3667 1.327 . S
C3665 H3688 0.950 . S
C3666 C3665 1.349 . S
C3666 C3678 1.349 . S
C3667 C3665 1.327 . S
C3667 C3683 1.429 . S
C3667 H3689 0.950 . S
C3668 H3664 0.949 . S
C3668 C3676 1.574 . S
C3668 C3684 1.368 . S
H3669 C3677 0.950 . S
H3670 C3675 0.950 . S
H3671 C3676 0.949 . S
H3672 C3678 0.950 . S
H3673 C3679 0.950 . S
H3674 C3680 0.949 . S
C3675 H3670 0.950 . S
C3675 C3677 1.327 . S
C3675 C3681 1.429 . S
C3676 C3668 1.574 . S
C3676 H3671 0.949 . S
C3676 C3682 1.368 . S
C3677 C3661 1.349 . S
C3677 H3669 0.950 . S
C3677 C3675 1.327 . S
C3678 C3666 1.349 . S
C3678 H3672 0.950 . S
C3678 C3679 1.327 . S
C3679 H3673 0.950 . S
C3679 C3678 1.327 . S
C3679 C3683 1.429 . S
C3680 C3663 1.574 . S
C3680 H3674 0.949 . S
C3680 C3684 1.368 . S
C3681 C3662 1.429 . S
C3681 C3675 1.429 . S
C3681 C3682 1.523 . S
C3682 C3663 1.368 . S
C3682 C3676 1.368 . S
C3682 C3681 1.523 . S
C3683 C3667 1.429 . S
C3683 C3679 1.429 . S
C3683 C3684 1.523 . S
C3684 C3668 1.368 . S
C3684 C3680 1.368 . S
C3684 C3683 1.523 . S
H3685 C3660 0.950 . S
H3686 C3662 0.950 . S
H3687 C3663 0.949 . S
H3688 C3665 0.950 . S
H3689 C3667 0.950 . S
C3690 C3691 1.349 . S
C3690 C3692 1.327 . S
C3690 H3715 0.950 1_554 S
C3691 C3690 1.349 . S
C3691 C3707 1.349 . S
C3692 C3690 1.327 . S
C3692 C3711 1.429 . S
C3692 H3716 0.950 1_554 S
C3693 C3710 1.574 . S
C3693 C3712 1.368 . S
C3693 H3717 0.949 . S
H3694 C3698 0.949 1_556 S
C3695 C3696 1.349 . S
C3695 C3697 1.327 . S
C3695 H3718 0.950 . S
C3696 C3695 1.349 . S
C3696 C3708 1.349 . S
C3697 C3695 1.327 . S
C3697 C3713 1.429 . S
C3697 H3719 0.950 . S
C3698 H3694 0.949 1_554 S
C3698 C3706 1.574 . S
C3698 C3714 1.364 . S
H3699 C3707 0.950 . S
H3700 C3705 0.950 . S
H3701 C3706 0.949 1_556 S
H3702 C3708 0.950 1_556 S
H3703 C3709 0.950 1_556 S
H3704 C3710 0.956 1_545 S
C3705 H3700 0.950 . S
C3705 C3707 1.327 . S
C3705 C3711 1.429 . S
C3706 C3698 1.574 . S
C3706 H3701 0.949 1_554 S
C3706 C3712 1.368 . S
C3707 C3691 1.349 . S
C3707 H3699 0.950 . S
C3707 C3705 1.327 . S
C3708 C3696 1.349 . S
C3708 H3702 0.950 1_554 S
C3708 C3709 1.327 . S
C3709 H3703 0.950 1_554 S
C3709 C3708 1.327 . S
C3709 C3713 1.429 . S
C3710 C3693 1.574 . S
C3710 H3704 0.956 1_565 S
C3710 C3714 1.378 . S
C3711 C3692 1.429 . S
C3711 C3705 1.429 . S
C3711 C3712 1.523 . S
C3712 C3693 1.368 . S
C3712 C3706 1.368 . S
C3712 C3711 1.523 . S
C3713 C3697 1.429 . S
C3713 C3709 1.429 . S
C3713 C3714 1.517 1_545 S
C3714 C3698 1.364 . S
C3714 C3710 1.378 . S
C3714 C3713 1.517 1_565 S
H3715 C3690 0.950 1_556 S
H3716 C3692 0.950 1_556 S
H3717 C3693 0.949 . S
H3718 C3695 0.950 . S
H3719 C3697 0.950 . S
C3720 C3721 1.349 . S
C3720 C3722 1.327 . S
C3720 H3745 0.950 . S
C3721 C3720 1.349 . S
C3721 C3737 1.349 . S
C3722 C3720 1.327 . S
C3722 C3741 1.429 . S
C3722 H3746 0.950 . S
C3723 C3740 1.574 . S
C3723 C3742 1.368 . S
C3723 H3747 0.949 . S
H3724 C3728 0.949 . S
C3725 C3726 1.349 . S
C3725 C3727 1.327 . S
C3725 H3748 0.950 . S
C3726 C3725 1.349 . S
C3726 C3738 1.349 . S
C3727 C3725 1.327 . S
C3727 C3743 1.429 . S
C3727 H3749 0.950 . S
C3728 H3724 0.949 . S
C3728 C3736 1.574 . S
C3728 C3744 1.368 . S
H3729 C3737 0.950 . S
H3730 C3735 0.950 . S
H3731 C3736 0.949 . S
H3732 C3738 0.950 . S
H3733 C3739 0.950 . S
H3734 C3740 0.949 . S
C3735 H3730 0.950 . S
C3735 C3737 1.327 . S
C3735 C3741 1.429 . S
C3736 C3728 1.574 . S
C3736 H3731 0.949 . S
C3736 C3742 1.368 . S
C3737 C3721 1.349 . S
C3737 H3729 0.950 . S
C3737 C3735 1.327 . S
C3738 C3726 1.349 . S
C3738 H3732 0.950 . S
C3738 C3739 1.327 . S
C3739 H3733 0.950 . S
C3739 C3738 1.327 . S
C3739 C3743 1.429 . S
C3740 C3723 1.574 . S
C3740 H3734 0.949 . S
C3740 C3744 1.368 . S
C3741 C3722 1.429 . S
C3741 C3735 1.429 . S
C3741 C3742 1.523 . S
C3742 C3723 1.368 . S
C3742 C3736 1.368 . S
C3742 C3741 1.523 . S
C3743 C3727 1.429 . S
C3743 C3739 1.429 . S
C3743 C3744 1.523 . S
C3744 C3728 1.368 . S
C3744 C3740 1.368 . S
C3744 C3743 1.523 . S
H3745 C3720 0.950 . S
H3746 C3722 0.950 . S
H3747 C3723 0.949 . S
H3748 C3725 0.950 . S
H3749 C3727 0.950 . S
C3750 C3751 1.349 . S
C3750 C3752 1.327 . S
C3750 H3775 0.950 . S
C3751 C3750 1.349 . S
C3751 C3767 1.349 1_554 S
C3752 C3750 1.327 . S
C3752 C3771 1.429 . S
C3752 H3776 0.950 . S
C3753 C3770 1.574 1_556 S
C3753 C3772 1.368 1_556 S
C3753 H3777 0.949 . S
H3754 C3758 0.949 . S
C3755 C3756 1.349 . S
C3755 C3757 1.327 . S
C3755 H3778 0.950 . S
C3756 C3755 1.349 . S
C3756 C3768 1.349 . S
C3757 C3755 1.327 . S
C3757 C3773 1.429 . S
C3757 H3779 0.937 1_554 S
C3758 H3754 0.949 . S
C3758 C3766 1.574 . S
C3758 C3774 1.368 . S
H3759 C3767 0.950 . S
H3760 C3765 0.950 . S
H3761 C3766 0.949 . S
H3762 C3768 0.950 . S
H3763 C3769 0.950 . S
H3764 C3770 0.949 1_556 S
C3765 H3760 0.950 . S
C3765 C3767 1.327 . S
C3765 C3771 1.429 1_556 S
C3766 C3758 1.574 . S
C3766 H3761 0.949 . S
C3766 C3772 1.368 . S
C3767 C3751 1.349 1_556 S
C3767 H3759 0.950 . S
C3767 C3765 1.327 . S
C3768 C3756 1.349 . S
C3768 H3762 0.950 . S
C3768 C3769 1.327 . S
C3769 H3763 0.950 . S
C3769 C3768 1.327 . S
C3769 C3773 1.429 . S
C3770 C3753 1.574 1_554 S
C3770 H3764 0.949 1_554 S
C3770 C3774 1.368 . S
C3771 C3752 1.429 . S
C3771 C3765 1.429 1_554 S
C3771 C3772 1.523 . S
C3772 C3753 1.368 1_554 S
C3772 C3766 1.368 . S
C3772 C3771 1.523 . S
C3773 C3757 1.429 . S
C3773 C3769 1.429 . S
C3773 C3774 1.523 . S
C3774 C3758 1.368 . S
C3774 C3770 1.368 . S
C3774 C3773 1.523 . S
H3775 C3750 0.950 . S
H3776 C3752 0.950 . S
H3777 C3753 0.949 . S
H3778 C3755 0.950 . S
H3779 C3757 0.937 1_556 S
C3780 C3781 1.349 . S
C3780 C3782 1.327 . S
C3780 H3805 0.950 . S
C3781 C3780 1.349 . S
C3781 C3797 1.349 . S
C3782 C3780 1.327 . S
C3782 C3801 1.429 . S
C3782 H3806 0.950 . S
C3783 C3800 1.574 . S
C3783 C3802 1.368 . S
C3783 H3807 0.949 . S
H3784 C3788 0.949 . S
C3785 C3786 1.349 . S
C3785 C3787 1.327 . S
C3785 H3808 0.950 . S
C3786 C3785 1.349 . S
C3786 C3798 1.349 . S
C3787 C3785 1.327 . S
C3787 C3803 1.429 . S
C3787 H3809 0.950 . S
C3788 H3784 0.949 . S
C3788 C3796 1.574 . S
C3788 C3804 1.368 . S
H3789 C3797 0.950 . S
H3790 C3795 0.950 . S
H3791 C3796 0.949 . S
H3792 C3798 0.950 . S
H3793 C3799 0.950 . S
H3794 C3800 0.949 . S
C3795 H3790 0.950 . S
C3795 C3797 1.327 . S
C3795 C3801 1.429 . S
C3796 C3788 1.574 . S
C3796 H3791 0.949 . S
C3796 C3802 1.368 . S
C3797 C3781 1.349 . S
C3797 H3789 0.950 . S
C3797 C3795 1.327 . S
C3798 C3786 1.349 . S
C3798 H3792 0.950 . S
C3798 C3799 1.327 . S
C3799 H3793 0.950 . S
C3799 C3798 1.327 . S
C3799 C3803 1.429 . S
C3800 C3783 1.574 . S
C3800 H3794 0.949 . S
C3800 C3804 1.368 . S
C3801 C3782 1.429 . S
C3801 C3795 1.429 . S
C3801 C3802 1.523 . S
C3802 C3783 1.368 . S
C3802 C3796 1.368 . S
C3802 C3801 1.523 . S
C3803 C3787 1.429 . S
C3803 C3799 1.429 . S
C3803 C3804 1.523 . S
C3804 C3788 1.368 . S
C3804 C3800 1.368 . S
C3804 C3803 1.523 . S
H3805 C3780 0.950 . S
H3806 C3782 0.950 . S
H3807 C3783 0.949 . S
H3808 C3785 0.950 . S
H3809 C3787 0.950 . S
C3810 C3811 1.349 . S
C3810 C3812 1.327 . S
C3810 H3835 0.950 . S
C3811 C3810 1.349 . S
C3811 C3827 1.349 . S
C3812 C3810 1.327 . S
C3812 C3831 1.429 . S
C3812 H3836 0.950 . S
C3813 C3830 1.574 . S
C3813 C3832 1.368 . S
C3813 H3837 0.949 . S
H3814 C3818 0.949 . S
C3815 C3816 1.349 . S
C3815 C3817 1.327 . S
C3815 H3838 0.950 . S
C3816 C3815 1.349 . S
C3816 C3828 1.349 . S
C3817 C3815 1.327 . S
C3817 C3833 1.429 . S
C3817 H3839 0.950 . S
C3818 H3814 0.949 . S
C3818 C3826 1.574 . S
C3818 C3834 1.368 . S
H3819 C3827 0.952 1_545 S
H3820 C3825 0.950 . S
H3821 C3826 0.949 . S
H3822 C3828 0.950 . S
H3823 C3829 0.950 . S
H3824 C3830 0.949 . S
C3825 H3820 0.950 . S
C3825 C3827 1.327 . S
C3825 C3831 1.429 . S
C3826 C3818 1.574 . S
C3826 H3821 0.949 . S
C3826 C3832 1.368 . S
C3827 C3811 1.349 . S
C3827 H3819 0.952 1_565 S
C3827 C3825 1.327 . S
C3828 C3816 1.349 . S
C3828 H3822 0.950 . S
C3828 C3829 1.327 . S
C3829 H3823 0.950 . S
C3829 C3828 1.327 . S
C3829 C3833 1.429 . S
C3830 C3813 1.574 . S
C3830 H3824 0.949 . S
C3830 C3834 1.368 . S
C3831 C3812 1.429 . S
C3831 C3825 1.429 . S
C3831 C3832 1.523 . S
C3832 C3813 1.368 . S
C3832 C3826 1.368 . S
C3832 C3831 1.523 . S
C3833 C3817 1.429 . S
C3833 C3829 1.429 . S
C3833 C3834 1.523 . S
C3834 C3818 1.368 . S
C3834 C3830 1.368 . S
C3834 C3833 1.523 . S
H3835 C3810 0.950 . S
H3836 C3812 0.950 . S
H3837 C3813 0.949 . S
H3838 C3815 0.950 . S
H3839 C3817 0.950 . S
C3840 C3841 1.349 . S
C3840 C3842 1.327 . S
C3840 H3865 0.950 . S
C3841 C3840 1.349 . S
C3841 C3857 1.349 . S
C3842 C3840 1.327 . S
C3842 C3861 1.429 . S
C3842 H3866 0.950 . S
C3843 C3860 1.574 . S
C3843 C3862 1.368 . S
C3843 H3867 0.949 . S
H3844 C3848 0.949 . S
C3845 C3846 1.349 . S
C3845 C3847 1.327 . S
C3845 H3868 0.950 . S
C3846 C3845 1.349 . S
C3846 C3858 1.349 . S
C3847 C3845 1.327 . S
C3847 C3863 1.429 . S
C3847 H3869 0.950 . S
C3848 H3844 0.949 . S
C3848 C3856 1.574 . S
C3848 C3864 1.368 . S
H3849 C3857 0.950 . S
H3850 C3855 0.950 . S
H3851 C3856 0.949 . S
H3852 C3858 0.950 . S
H3853 C3859 0.950 . S
H3854 C3860 0.949 . S
C3855 H3850 0.950 . S
C3855 C3857 1.327 . S
C3855 C3861 1.429 . S
C3856 C3848 1.574 . S
C3856 H3851 0.949 . S
C3856 C3862 1.368 . S
C3857 C3841 1.349 . S
C3857 H3849 0.950 . S
C3857 C3855 1.327 . S
C3858 C3846 1.349 . S
C3858 H3852 0.950 . S
C3858 C3859 1.327 . S
C3859 H3853 0.950 . S
C3859 C3858 1.327 . S
C3859 C3863 1.429 . S
C3860 C3843 1.574 . S
C3860 H3854 0.949 . S
C3860 C3864 1.368 . S
C3861 C3842 1.429 . S
C3861 C3855 1.429 . S
C3861 C3862 1.523 . S
C3862 C3843 1.368 . S
C3862 C3856 1.368 . S
C3862 C3861 1.523 . S
C3863 C3847 1.429 . S
C3863 C3859 1.429 . S
C3863 C3864 1.523 . S
C3864 C3848 1.368 . S
C3864 C3860 1.368 . S
C3864 C3863 1.523 . S
H3865 C3840 0.950 . S
H3866 C3842 0.950 . S
H3867 C3843 0.949 . S
H3868 C3845 0.950 . S
H3869 C3847 0.950 . S
C3870 C3871 1.349 . S
C3870 C3872 1.327 . S
C3870 H3895 0.950 . S
C3871 C3870 1.349 . S
C3871 C3887 1.349 . S
C3872 C3870 1.327 . S
C3872 C3891 1.429 . S
C3872 H3896 0.950 . S
C3873 C3890 1.574 . S
C3873 C3892 1.368 . S
C3873 H3897 0.949 . S
H3874 C3878 0.949 . S
C3875 C3876 1.349 . S
C3875 C3877 1.327 . S
C3875 H3898 0.950 . S
C3876 C3875 1.349 . S
C3876 C3888 1.349 . S
C3877 C3875 1.327 . S
C3877 C3893 1.429 . S
C3877 H3899 0.950 . S
C3878 H3874 0.949 . S
C3878 C3886 1.574 . S
C3878 C3894 1.368 . S
H3879 C3887 0.950 . S
H3880 C3885 0.950 . S
H3881 C3886 0.949 . S
H3882 C3888 0.950 . S
H3883 C3889 0.950 . S
H3884 C3890 0.949 . S
C3885 H3880 0.950 . S
C3885 C3887 1.327 . S
C3885 C3891 1.429 . S
C3886 C3878 1.574 . S
C3886 H3881 0.949 . S
C3886 C3892 1.368 . S
C3887 C3871 1.349 . S
C3887 H3879 0.950 . S
C3887 C3885 1.327 . S
C3888 C3876 1.349 . S
C3888 H3882 0.950 . S
C3888 C3889 1.327 . S
C3889 H3883 0.950 . S
C3889 C3888 1.327 . S
C3889 C3893 1.429 . S
C3890 C3873 1.574 . S
C3890 H3884 0.949 . S
C3890 C3894 1.368 . S
C3891 C3872 1.429 . S
C3891 C3885 1.429 . S
C3891 C3892 1.523 . S
C3892 C3873 1.368 . S
C3892 C3886 1.368 . S
C3892 C3891 1.523 . S
C3893 C3877 1.429 . S
C3893 C3889 1.429 . S
C3893 C3894 1.523 . S
C3894 C3878 1.368 . S
C3894 C3890 1.368 . S
C3894 C3893 1.523 . S
H3895 C3870 0.950 . S
H3896 C3872 0.950 . S
H3897 C3873 0.949 . S
H3898 C3875 0.950 . S
H3899 C3877 0.950 . S
C3900 C3901 1.349 . S
C3900 C3902 1.327 . S
C3900 H3925 0.950 . S
C3901 C3900 1.349 . S
C3901 C3917 1.349 . S
C3902 C3900 1.327 . S
C3902 C3921 1.429 . S
C3902 H3926 0.950 . S
C3903 C3920 1.574 . S
C3903 C3922 1.368 . S
C3903 H3927 0.949 . S
H3904 C3908 0.949 . S
C3905 C3906 1.349 . S
C3905 C3907 1.327 . S
C3905 H3928 0.950 . S
C3906 C3905 1.349 . S
C3906 C3918 1.349 . S
C3907 C3905 1.327 . S
C3907 C3923 1.429 . S
C3907 H3929 0.950 . S
C3908 H3904 0.949 . S
C3908 C3916 1.574 . S
C3908 C3924 1.368 . S
H3909 C3917 0.950 . S
H3910 C3915 0.950 . S
H3911 C3916 0.949 . S
H3912 C3918 0.950 . S
H3913 C3919 0.950 . S
H3914 C3920 0.949 . S
C3915 H3910 0.950 . S
C3915 C3917 1.327 . S
C3915 C3921 1.429 . S
C3916 C3908 1.574 . S
C3916 H3911 0.949 . S
C3916 C3922 1.368 . S
C3917 C3901 1.349 . S
C3917 H3909 0.950 . S
C3917 C3915 1.327 . S
C3918 C3906 1.349 . S
C3918 H3912 0.950 . S
C3918 C3919 1.327 . S
C3919 H3913 0.950 . S
C3919 C3918 1.327 . S
C3919 C3923 1.429 . S
C3920 C3903 1.574 . S
C3920 H3914 0.949 . S
C3920 C3924 1.368 . S
C3921 C3902 1.429 . S
C3921 C3915 1.429 . S
C3921 C3922 1.523 . S
C3922 C3903 1.368 . S
C3922 C3916 1.368 . S
C3922 C3921 1.523 . S
C3923 C3907 1.429 . S
C3923 C3919 1.429 . S
C3923 C3924 1.523 . S
C3924 C3908 1.368 . S
C3924 C3920 1.368 . S
C3924 C3923 1.523 . S
H3925 C3900 0.950 . S
H3926 C3902 0.950 . S
H3927 C3903 0.949 . S
H3928 C3905 0.950 . S
H3929 C3907 0.950 . S
C3930 C3931 1.349 . S
C3930 C3932 1.327 . S
C3930 H3955 0.950 . S
C3931 C3930 1.349 . S
C3931 C3947 1.349 . S
C3932 C3930 1.327 . S
C3932 C3951 1.429 . S
C3932 H3956 0.950 . S
C3933 C3950 1.574 . S
C3933 C3952 1.368 . S
C3933 H3957 0.949 . S
H3934 C3938 0.949 . S
C3935 C3936 1.349 . S
C3935 C3937 1.327 . S
C3935 H3958 0.950 . S
C3936 C3935 1.349 . S
C3936 C3948 1.349 . S
C3937 C3935 1.327 . S
C3937 C3953 1.429 . S
C3937 H3959 0.950 . S
C3938 H3934 0.949 . S
C3938 C3946 1.574 . S
C3938 C3954 1.368 . S
H3939 C3947 0.950 . S
H3940 C3945 0.950 . S
H3941 C3946 0.949 . S
H3942 C3948 0.950 . S
H3943 C3949 0.950 . S
H3944 C3950 0.949 . S
C3945 H3940 0.950 . S
C3945 C3947 1.327 . S
C3945 C3951 1.429 . S
C3946 C3938 1.574 . S
C3946 H3941 0.949 . S
C3946 C3952 1.368 . S
C3947 C3931 1.349 . S
C3947 H3939 0.950 . S
C3947 C3945 1.327 . S
C3948 C3936 1.349 . S
C3948 H3942 0.950 . S
C3948 C3949 1.327 . S
C3949 H3943 0.950 . S
C3949 C3948 1.327 . S
C3949 C3953 1.429 . S
C3950 C3933 1.574 . S
C3950 H3944 0.949 . S
C3950 C3954 1.368 . S
C3951 C3932 1.429 . S
C3951 C3945 1.429 . S
C3951 C3952 1.523 . S
C3952 C3933 1.368 . S
C3952 C3946 1.368 . S
C3952 C3951 1.523 . S
C3953 C3937 1.429 . S
C3953 C3949 1.429 . S
C3953 C3954 1.523 . S
C3954 C3938 1.368 . S
C3954 C3950 1.368 . S
C3954 C3953 1.523 . S
H3955 C3930 0.950 . S
H3956 C3932 0.950 . S
H3957 C3933 0.949 . S
H3958 C3935 0.950 . S
H3959 C3937 0.950 . S
C3960 C3961 1.349 . S
C3960 C3962 1.327 . S
C3960 H3985 0.950 . S
C3961 C3960 1.349 . S
C3961 C3977 1.349 . S
C3962 C3960 1.327 . S
C3962 C3981 1.429 . S
C3962 H3986 0.950 . S
C3963 C3980 1.574 . S
C3963 C3982 1.368 . S
C3963 H3987 0.949 . S
H3964 C3968 0.949 . S
C3965 C3966 1.349 . S
C3965 C3967 1.327 . S
C3965 H3988 0.950 . S
C3966 C3965 1.349 . S
C3966 C3978 1.349 . S
C3967 C3965 1.327 . S
C3967 C3983 1.429 . S
C3967 H3989 0.950 . S
C3968 H3964 0.949 . S
C3968 C3976 1.574 . S
C3968 C3984 1.368 . S
H3969 C3977 0.950 . S
H3970 C3975 0.950 . S
H3971 C3976 0.949 . S
H3972 C3978 0.950 1_554 S
H3973 C3979 0.950 . S
H3974 C3980 0.949 . S
C3975 H3970 0.950 . S
C3975 C3977 1.327 . S
C3975 C3981 1.429 . S
C3976 C3968 1.574 . S
C3976 H3971 0.949 . S
C3976 C3982 1.368 . S
C3977 C3961 1.349 . S
C3977 H3969 0.950 . S
C3977 C3975 1.327 . S
C3978 C3966 1.349 . S
C3978 H3972 0.950 1_556 S
C3978 C3979 1.327 . S
C3979 H3973 0.950 . S
C3979 C3978 1.327 . S
C3979 C3983 1.429 . S
C3980 C3963 1.574 . S
C3980 H3974 0.949 . S
C3980 C3984 1.368 . S
C3981 C3962 1.429 . S
C3981 C3975 1.429 . S
C3981 C3982 1.523 . S
C3982 C3963 1.368 . S
C3982 C3976 1.368 . S
C3982 C3981 1.523 . S
C3983 C3967 1.429 . S
C3983 C3979 1.429 . S
C3983 C3984 1.523 . S
C3984 C3968 1.368 . S
C3984 C3980 1.368 . S
C3984 C3983 1.523 . S
H3985 C3960 0.950 . S
H3986 C3962 0.950 . S
H3987 C3963 0.949 . S
H3988 C3965 0.950 . S
H3989 C3967 0.950 . S
C3990 C3991 1.349 . S
C3990 C3992 1.327 . S
C3990 H4015 0.950 . S
C3991 C3990 1.349 . S
C3991 C4007 1.349 . S
C3992 C3990 1.327 . S
C3992 C4011 1.429 . S
C3992 H4016 0.950 . S
C3993 C4010 1.574 . S
C3993 C4012 1.368 . S
C3993 H4017 0.949 . S
H3994 C3998 0.949 . S
C3995 C3996 1.349 . S
C3995 C3997 1.327 . S
C3995 H4018 0.950 . S
C3996 C3995 1.349 . S
C3996 C4008 1.349 . S
C3997 C3995 1.327 . S
C3997 C4013 1.429 . S
C3997 H4019 0.950 . S
C3998 H3994 0.949 . S
C3998 C4006 1.574 . S
C3998 C4014 1.368 . S
H3999 C4007 0.950 . S
H4000 C4005 0.950 . S
H4001 C4006 0.949 . S
H4002 C4008 0.950 . S
H4003 C4009 0.950 . S
H4004 C4010 0.949 . S
C4005 H4000 0.950 . S
C4005 C4007 1.327 . S
C4005 C4011 1.429 . S
C4006 C3998 1.574 . S
C4006 H4001 0.949 . S
C4006 C4012 1.368 . S
C4007 C3991 1.349 . S
C4007 H3999 0.950 . S
C4007 C4005 1.327 . S
C4008 C3996 1.349 . S
C4008 H4002 0.950 . S
C4008 C4009 1.327 . S
C4009 H4003 0.950 . S
C4009 C4008 1.327 . S
C4009 C4013 1.429 . S
C4010 C3993 1.574 . S
C4010 H4004 0.949 . S
C4010 C4014 1.368 . S
C4011 C3992 1.429 . S
C4011 C4005 1.429 . S
C4011 C4012 1.523 . S
C4012 C3993 1.368 . S
C4012 C4006 1.368 . S
C4012 C4011 1.523 . S
C4013 C3997 1.429 . S
C4013 C4009 1.429 . S
C4013 C4014 1.523 . S
C4014 C3998 1.368 . S
C4014 C4010 1.368 . S
C4014 C4013 1.523 . S
H4015 C3990 0.950 . S
H4016 C3992 0.950 . S
H4017 C3993 0.949 . S
H4018 C3995 0.950 . S
H4019 C3997 0.950 . S
C4020 C4021 1.349 . S
C4020 C4022 1.327 . S
C4020 H4045 0.950 . S
C4021 C4020 1.349 . S
C4021 C4037 1.349 . S
C4022 C4020 1.327 . S
C4022 C4041 1.429 . S
C4022 H4046 0.950 . S
C4023 C4040 1.574 . S
C4023 C4042 1.368 . S
C4023 H4047 0.949 . S
H4024 C4028 0.949 . S
C4025 C4026 1.349 . S
C4025 C4027 1.327 . S
C4025 H4048 0.950 . S
C4026 C4025 1.349 . S
C4026 C4038 1.349 . S
C4027 C4025 1.327 . S
C4027 C4043 1.429 . S
C4027 H4049 0.950 . S
C4028 H4024 0.949 . S
C4028 C4036 1.574 . S
C4028 C4044 1.368 . S
H4029 C4037 0.950 . S
H4030 C4035 0.950 . S
H4031 C4036 0.949 . S
H4032 C4038 0.950 . S
H4033 C4039 0.950 . S
H4034 C4040 0.949 . S
C4035 H4030 0.950 . S
C4035 C4037 1.327 . S
C4035 C4041 1.429 . S
C4036 C4028 1.574 . S
C4036 H4031 0.949 . S
C4036 C4042 1.368 . S
C4037 C4021 1.349 . S
C4037 H4029 0.950 . S
C4037 C4035 1.327 . S
C4038 C4026 1.349 . S
C4038 H4032 0.950 . S
C4038 C4039 1.327 . S
C4039 H4033 0.950 . S
C4039 C4038 1.327 . S
C4039 C4043 1.429 . S
C4040 C4023 1.574 . S
C4040 H4034 0.949 . S
C4040 C4044 1.368 . S
C4041 C4022 1.429 . S
C4041 C4035 1.429 . S
C4041 C4042 1.523 . S
C4042 C4023 1.368 . S
C4042 C4036 1.368 . S
C4042 C4041 1.523 . S
C4043 C4027 1.429 . S
C4043 C4039 1.429 . S
C4043 C4044 1.523 . S
C4044 C4028 1.368 . S
C4044 C4040 1.368 . S
C4044 C4043 1.523 . S
H4045 C4020 0.950 . S
H4046 C4022 0.950 . S
H4047 C4023 0.949 . S
H4048 C4025 0.950 . S
H4049 C4027 0.950 . S
C4050 C4051 1.349 . S
C4050 C4052 1.327 . S
C4050 H4075 0.950 . S
C4051 C4050 1.349 . S
C4051 C4067 1.349 . S
C4052 C4050 1.327 . S
C4052 C4071 1.429 . S
C4052 H4076 0.950 . S
C4053 C4070 1.574 . S
C4053 C4072 1.368 . S
C4053 H4077 0.949 . S
H4054 C4058 0.949 . S
C4055 C4056 1.349 . S
C4055 C4057 1.327 . S
C4055 H4078 0.950 . S
C4056 C4055 1.349 . S
C4056 C4068 1.349 . S
C4057 C4055 1.327 . S
C4057 C4073 1.429 . S
C4057 H4079 0.950 . S
C4058 H4054 0.949 . S
C4058 C4066 1.574 . S
C4058 C4074 1.368 . S
H4059 C4067 0.950 . S
H4060 C4065 0.950 . S
H4061 C4066 0.949 . S
H4062 C4068 0.950 . S
H4063 C4069 0.950 . S
H4064 C4070 0.949 . S
C4065 H4060 0.950 . S
C4065 C4067 1.327 . S
C4065 C4071 1.429 . S
C4066 C4058 1.574 . S
C4066 H4061 0.949 . S
C4066 C4072 1.368 . S
C4067 C4051 1.349 . S
C4067 H4059 0.950 . S
C4067 C4065 1.327 . S
C4068 C4056 1.349 . S
C4068 H4062 0.950 . S
C4068 C4069 1.327 . S
C4069 H4063 0.950 . S
C4069 C4068 1.327 . S
C4069 C4073 1.429 . S
C4070 C4053 1.574 . S
C4070 H4064 0.949 . S
C4070 C4074 1.368 . S
C4071 C4052 1.429 . S
C4071 C4065 1.429 . S
C4071 C4072 1.523 . S
C4072 C4053 1.368 . S
C4072 C4066 1.368 . S
C4072 C4071 1.523 . S
C4073 C4057 1.429 . S
C4073 C4069 1.429 . S
C4073 C4074 1.523 . S
C4074 C4058 1.368 . S
C4074 C4070 1.368 . S
C4074 C4073 1.523 . S
H4075 C4050 0.950 . S
H4076 C4052 0.950 . S
H4077 C4053 0.949 . S
H4078 C4055 0.950 . S
H4079 C4057 0.950 . S
C4080 C4081 1.349 . S
C4080 C4082 1.327 . S
C4080 H4105 0.950 . S
C4081 C4080 1.349 . S
C4081 C4097 1.349 . S
C4082 C4080 1.327 . S
C4082 C4101 1.429 . S
C4082 H4106 0.950 . S
C4083 C4100 1.574 . S
C4083 C4102 1.368 . S
C4083 H4107 0.949 . S
H4084 C4088 0.949 . S
C4085 C4086 1.349 . S
C4085 C4087 1.327 . S
C4085 H4108 0.950 . S
C4086 C4085 1.349 . S
C4086 C4098 1.349 . S
C4087 C4085 1.327 . S
C4087 C4103 1.429 . S
C4087 H4109 0.950 . S
C4088 H4084 0.949 . S
C4088 C4096 1.574 . S
C4088 C4104 1.368 . S
H4089 C4097 0.950 . S
H4090 C4095 0.950 . S
H4091 C4096 0.949 . S
H4092 C4098 0.950 . S
H4093 C4099 0.950 . S
H4094 C4100 0.949 . S
C4095 H4090 0.950 . S
C4095 C4097 1.327 . S
C4095 C4101 1.429 . S
C4096 C4088 1.574 . S
C4096 H4091 0.949 . S
C4096 C4102 1.368 . S
C4097 C4081 1.349 . S
C4097 H4089 0.950 . S
C4097 C4095 1.327 . S
C4098 C4086 1.349 . S
C4098 H4092 0.950 . S
C4098 C4099 1.327 . S
C4099 H4093 0.950 . S
C4099 C4098 1.327 . S
C4099 C4103 1.429 . S
C4100 C4083 1.574 . S
C4100 H4094 0.949 . S
C4100 C4104 1.368 . S
C4101 C4082 1.429 . S
C4101 C4095 1.429 . S
C4101 C4102 1.523 . S
C4102 C4083 1.368 . S
C4102 C4096 1.368 . S
C4102 C4101 1.523 . S
C4103 C4087 1.429 . S
C4103 C4099 1.429 . S
C4103 C4104 1.523 . S
C4104 C4088 1.368 . S
C4104 C4100 1.368 . S
C4104 C4103 1.523 . S
H4105 C4080 0.950 . S
H4106 C4082 0.950 . S
H4107 C4083 0.949 . S
H4108 C4085 0.950 . S
H4109 C4087 0.950 . S
C4110 C4111 1.349 . S
C4110 C4112 1.327 . S
C4110 H4135 0.950 . S
C4111 C4110 1.349 . S
C4111 C4127 1.349 . S
C4112 C4110 1.327 . S
C4112 C4131 1.429 . S
C4112 H4136 0.950 . S
C4113 C4130 1.574 . S
C4113 C4132 1.368 . S
C4113 H4137 0.949 . S
H4114 C4118 0.949 . S
C4115 C4116 1.349 . S
C4115 C4117 1.327 . S
C4115 H4138 0.950 . S
C4116 C4115 1.349 . S
C4116 C4128 1.349 . S
C4117 C4115 1.327 . S
C4117 C4133 1.429 . S
C4117 H4139 0.950 . S
C4118 H4114 0.949 . S
C4118 C4126 1.574 . S
C4118 C4134 1.368 . S
H4119 C4127 0.950 . S
H4120 C4125 0.950 . S
H4121 C4126 0.949 . S
H4122 C4128 0.950 . S
H4123 C4129 0.950 . S
H4124 C4130 0.949 . S
C4125 H4120 0.950 . S
C4125 C4127 1.327 . S
C4125 C4131 1.429 . S
C4126 C4118 1.574 . S
C4126 H4121 0.949 . S
C4126 C4132 1.368 . S
C4127 C4111 1.349 . S
C4127 H4119 0.950 . S
C4127 C4125 1.327 . S
C4128 C4116 1.349 . S
C4128 H4122 0.950 . S
C4128 C4129 1.327 . S
C4129 H4123 0.950 . S
C4129 C4128 1.327 . S
C4129 C4133 1.429 . S
C4130 C4113 1.574 . S
C4130 H4124 0.949 . S
C4130 C4134 1.368 . S
C4131 C4112 1.429 . S
C4131 C4125 1.429 . S
C4131 C4132 1.523 . S
C4132 C4113 1.368 . S
C4132 C4126 1.368 . S
C4132 C4131 1.523 . S
C4133 C4117 1.429 . S
C4133 C4129 1.429 . S
C4133 C4134 1.523 . S
C4134 C4118 1.368 . S
C4134 C4130 1.368 . S
C4134 C4133 1.523 . S
H4135 C4110 0.950 . S
H4136 C4112 0.950 . S
H4137 C4113 0.949 . S
H4138 C4115 0.950 . S
H4139 C4117 0.950 . S
C4140 C4141 1.349 . S
C4140 C4142 1.327 . S
C4140 H4165 0.950 . S
C4141 C4140 1.349 . S
C4141 C4157 1.349 . S
C4142 C4140 1.327 . S
C4142 C4161 1.429 . S
C4142 H4166 0.950 . S
C4143 C4160 1.574 1_655 S
C4143 C4162 1.368 . S
C4143 H4167 0.949 . S
H4144 C4148 0.949 . S
C4145 C4146 1.349 . S
C4145 C4147 1.327 . S
C4145 H4168 0.950 . S
C4146 C4145 1.349 . S
C4146 C4158 1.349 . S
C4147 C4145 1.327 . S
C4147 C4163 1.429 . S
C4147 H4169 0.950 . S
C4148 H4144 0.949 . S
C4148 C4156 1.574 . S
C4148 C4164 1.368 . S
H4149 C4157 0.950 . S
H4150 C4155 0.950 . S
H4151 C4156 0.949 . S
H4152 C4158 0.950 . S
H4153 C4159 0.950 . S
H4154 C4160 0.949 . S
C4155 H4150 0.950 . S
C4155 C4157 1.327 . S
C4155 C4161 1.429 . S
C4156 C4148 1.574 . S
C4156 H4151 0.949 . S
C4156 C4162 1.368 . S
C4157 C4141 1.349 . S
C4157 H4149 0.950 . S
C4157 C4155 1.327 . S
C4158 C4146 1.349 . S
C4158 H4152 0.950 . S
C4158 C4159 1.327 1_455 S
C4159 H4153 0.950 . S
C4159 C4158 1.327 1_655 S
C4159 C4163 1.429 1_655 S
C4160 C4143 1.574 1_455 S
C4160 H4154 0.949 . S
C4160 C4164 1.368 1_455 S
C4161 C4142 1.429 . S
C4161 C4155 1.429 . S
C4161 C4162 1.523 . S
C4162 C4143 1.368 . S
C4162 C4156 1.368 . S
C4162 C4161 1.523 . S
C4163 C4147 1.429 . S
C4163 C4159 1.429 1_455 S
C4163 C4164 1.523 1_455 S
C4164 C4148 1.368 . S
C4164 C4160 1.368 1_655 S
C4164 C4163 1.523 1_655 S
H4165 C4140 0.950 . S
H4166 C4142 0.950 . S
H4167 C4143 0.949 . S
H4168 C4145 0.950 . S
H4169 C4147 0.950 . S
C4170 C4171 1.349 . S
C4170 C4172 1.327 . S
C4170 H4195 0.950 . S
C4171 C4170 1.349 . S
C4171 C4187 1.349 . S
C4172 C4170 1.327 . S
C4172 C4191 1.429 . S
C4172 H4196 0.950 . S
C4173 C4190 1.574 . S
C4173 C4192 1.368 . S
C4173 H4197 0.949 . S
H4174 C4178 0.949 . S
C4175 C4176 1.349 . S
C4175 C4177 1.327 . S
C4175 H4198 0.950 . S
C4176 C4175 1.349 . S
C4176 C4188 1.349 . S
C4177 C4175 1.327 . S
C4177 C4193 1.429 . S
C4177 H4199 0.950 . S
C4178 H4174 0.949 . S
C4178 C4186 1.574 . S
C4178 C4194 1.368 . S
H4179 C4187 0.950 . S
H4180 C4185 0.950 . S
H4181 C4186 0.949 . S
H4182 C4188 0.950 . S
H4183 C4189 0.950 . S
H4184 C4190 0.949 . S
C4185 H4180 0.950 . S
C4185 C4187 1.327 . S
C4185 C4191 1.429 . S
C4186 C4178 1.574 . S
C4186 H4181 0.949 . S
C4186 C4192 1.368 . S
C4187 C4171 1.349 . S
C4187 H4179 0.950 . S
C4187 C4185 1.327 . S
C4188 C4176 1.349 . S
C4188 H4182 0.950 . S
C4188 C4189 1.327 . S
C4189 H4183 0.950 . S
C4189 C4188 1.327 . S
C4189 C4193 1.429 . S
C4190 C4173 1.574 . S
C4190 H4184 0.949 . S
C4190 C4194 1.368 . S
C4191 C4172 1.429 . S
C4191 C4185 1.429 . S
C4191 C4192 1.523 . S
C4192 C4173 1.368 . S
C4192 C4186 1.368 . S
C4192 C4191 1.523 . S
C4193 C4177 1.429 . S
C4193 C4189 1.429 . S
C4193 C4194 1.523 . S
C4194 C4178 1.368 . S
C4194 C4190 1.368 . S
C4194 C4193 1.523 . S
H4195 C4170 0.950 . S
H4196 C4172 0.950 . S
H4197 C4173 0.949 . S
H4198 C4175 0.950 . S
H4199 C4177 0.950 . S
C4200 C4201 1.349 . S
C4200 C4202 1.327 . S
C4200 H4225 0.950 . S
C4201 C4200 1.349 . S
C4201 C4217 1.349 . S
C4202 C4200 1.327 . S
C4202 C4221 1.429 . S
C4202 H4226 0.950 . S
C4203 C4220 1.574 . S
C4203 C4222 1.368 . S
C4203 H4227 0.949 . S
H4204 C4208 0.949 . S
C4205 C4206 1.349 . S
C4205 C4207 1.327 . S
C4205 H4228 0.950 . S
C4206 C4205 1.349 . S
C4206 C4218 1.349 . S
C4207 C4205 1.327 . S
C4207 C4223 1.429 . S
C4207 H4229 0.950 . S
C4208 H4204 0.949 . S
C4208 C4216 1.574 . S
C4208 C4224 1.368 . S
H4209 C4217 0.950 . S
H4210 C4215 0.950 . S
H4211 C4216 0.949 . S
H4212 C4218 0.950 . S
H4213 C4219 0.950 . S
H4214 C4220 0.949 . S
C4215 H4210 0.950 . S
C4215 C4217 1.327 . S
C4215 C4221 1.429 . S
C4216 C4208 1.574 . S
C4216 H4211 0.949 . S
C4216 C4222 1.368 . S
C4217 C4201 1.349 . S
C4217 H4209 0.950 . S
C4217 C4215 1.327 . S
C4218 C4206 1.349 . S
C4218 H4212 0.950 . S
C4218 C4219 1.327 . S
C4219 H4213 0.950 . S
C4219 C4218 1.327 . S
C4219 C4223 1.429 . S
C4220 C4203 1.574 . S
C4220 H4214 0.949 . S
C4220 C4224 1.368 . S
C4221 C4202 1.429 . S
C4221 C4215 1.429 . S
C4221 C4222 1.523 . S
C4222 C4203 1.368 . S
C4222 C4216 1.368 . S
C4222 C4221 1.523 . S
C4223 C4207 1.429 . S
C4223 C4219 1.429 . S
C4223 C4224 1.523 . S
C4224 C4208 1.368 . S
C4224 C4220 1.368 . S
C4224 C4223 1.523 . S
H4225 C4200 0.950 . S
H4226 C4202 0.950 . S
H4227 C4203 0.949 . S
H4228 C4205 0.950 . S
H4229 C4207 0.950 . S
C4230 C4231 1.349 . S
C4230 C4232 1.327 . S
C4230 H4255 0.950 . S
C4231 C4230 1.349 . S
C4231 C4247 1.349 . S
C4232 C4230 1.327 . S
C4232 C4251 1.429 . S
C4232 H4256 0.950 . S
C4233 C4250 1.574 . S
C4233 C4252 1.368 . S
C4233 H4257 0.949 . S
H4234 C4238 0.949 . S
C4235 C4236 1.349 . S
C4235 C4237 1.327 . S
C4235 H4258 0.950 . S
C4236 C4235 1.349 . S
C4236 C4248 1.349 . S
C4237 C4235 1.327 . S
C4237 C4253 1.429 . S
C4237 H4259 0.950 . S
C4238 H4234 0.949 . S
C4238 C4246 1.574 . S
C4238 C4254 1.368 . S
H4239 C4247 0.950 . S
H4240 C4245 0.950 . S
H4241 C4246 0.949 . S
H4242 C4248 0.950 . S
H4243 C4249 0.950 . S
H4244 C4250 0.949 . S
C4245 H4240 0.950 . S
C4245 C4247 1.327 . S
C4245 C4251 1.429 . S
C4246 C4238 1.574 . S
C4246 H4241 0.949 . S
C4246 C4252 1.368 . S
C4247 C4231 1.349 . S
C4247 H4239 0.950 . S
C4247 C4245 1.327 . S
C4248 C4236 1.349 . S
C4248 H4242 0.950 . S
C4248 C4249 1.327 . S
C4249 H4243 0.950 . S
C4249 C4248 1.327 . S
C4249 C4253 1.429 . S
C4250 C4233 1.574 . S
C4250 H4244 0.949 . S
C4250 C4254 1.368 . S
C4251 C4232 1.429 . S
C4251 C4245 1.429 . S
C4251 C4252 1.523 . S
C4252 C4233 1.368 . S
C4252 C4246 1.368 . S
C4252 C4251 1.523 . S
C4253 C4237 1.429 . S
C4253 C4249 1.429 . S
C4253 C4254 1.523 . S
C4254 C4238 1.368 . S
C4254 C4250 1.368 . S
C4254 C4253 1.523 . S
H4255 C4230 0.950 . S
H4256 C4232 0.950 . S
H4257 C4233 0.949 . S
H4258 C4235 0.950 . S
H4259 C4237 0.950 . S
C4260 C4261 1.349 . S
C4260 C4262 1.327 . S
C4260 H4285 0.950 . S
C4261 C4260 1.349 . S
C4261 C4277 1.349 . S
C4262 C4260 1.327 . S
C4262 C4281 1.429 . S
C4262 H4286 0.950 . S
C4263 C4280 1.574 . S
C4263 C4282 1.368 . S
C4263 H4287 0.949 . S
H4264 C4268 0.949 . S
C4265 C4266 1.349 1_655 S
C4265 C4267 1.327 . S
C4265 H4288 0.950 . S
C4266 C4265 1.349 1_455 S
C4266 C4278 1.349 . S
C4267 C4265 1.327 . S
C4267 C4283 1.429 . S
C4267 H4289 0.950 . S
C4268 H4264 0.949 . S
C4268 C4276 1.574 . S
C4268 C4284 1.368 . S
H4269 C4277 0.950 . S
H4270 C4275 0.950 . S
H4271 C4276 0.949 . S
H4272 C4278 0.950 . S
H4273 C4279 0.950 . S
H4274 C4280 0.949 . S
C4275 H4270 0.950 . S
C4275 C4277 1.327 . S
C4275 C4281 1.429 . S
C4276 C4268 1.574 . S
C4276 H4271 0.949 . S
C4276 C4282 1.368 . S
C4277 C4261 1.349 . S
C4277 H4269 0.950 . S
C4277 C4275 1.327 . S
C4278 C4266 1.349 . S
C4278 H4272 0.950 . S
C4278 C4279 1.327 . S
C4279 H4273 0.950 . S
C4279 C4278 1.327 . S
C4279 C4283 1.429 1_455 S
C4280 C4263 1.574 . S
C4280 H4274 0.949 . S
C4280 C4284 1.368 . S
C4281 C4262 1.429 . S
C4281 C4275 1.429 . S
C4281 C4282 1.523 . S
C4282 C4263 1.368 . S
C4282 C4276 1.368 . S
C4282 C4281 1.523 . S
C4283 C4267 1.429 . S
C4283 C4279 1.429 1_655 S
C4283 C4284 1.523 . S
C4284 C4268 1.368 . S
C4284 C4280 1.368 . S
C4284 C4283 1.523 . S
H4285 C4260 0.950 . S
H4286 C4262 0.950 . S
H4287 C4263 0.949 . S
H4288 C4265 0.950 . S
H4289 C4267 0.950 . S
C4290 C4291 1.349 . S
C4290 C4292 1.327 . S
C4290 H4315 0.950 . S
C4291 C4290 1.349 . S
C4291 C4307 1.349 . S
C4292 C4290 1.327 . S
C4292 C4311 1.429 . S
C4292 H4316 0.950 . S
C4293 C4310 1.574 . S
C4293 C4312 1.368 . S
C4293 H4317 0.949 . S
H4294 C4298 0.949 . S
C4295 C4296 1.349 . S
C4295 C4297 1.327 . S
C4295 H4318 0.950 . S
C4296 C4295 1.349 . S
C4296 C4308 1.349 . S
C4297 C4295 1.327 . S
C4297 C4313 1.429 . S
C4297 H4319 0.950 . S
C4298 H4294 0.949 . S
C4298 C4306 1.574 . S
C4298 C4314 1.368 . S
H4299 C4307 0.950 . S
H4300 C4305 0.950 . S
H4301 C4306 0.949 . S
H4302 C4308 0.950 . S
H4303 C4309 0.950 . S
H4304 C4310 0.949 . S
C4305 H4300 0.950 . S
C4305 C4307 1.327 . S
C4305 C4311 1.429 . S
C4306 C4298 1.574 . S
C4306 H4301 0.949 . S
C4306 C4312 1.368 . S
C4307 C4291 1.349 . S
C4307 H4299 0.950 . S
C4307 C4305 1.327 . S
C4308 C4296 1.349 . S
C4308 H4302 0.950 . S
C4308 C4309 1.327 . S
C4309 H4303 0.950 . S
C4309 C4308 1.327 . S
C4309 C4313 1.429 . S
C4310 C4293 1.574 . S
C4310 H4304 0.949 . S
C4310 C4314 1.368 . S
C4311 C4292 1.429 . S
C4311 C4305 1.429 . S
C4311 C4312 1.523 . S
C4312 C4293 1.368 . S
C4312 C4306 1.368 . S
C4312 C4311 1.523 . S
C4313 C4297 1.429 . S
C4313 C4309 1.429 . S
C4313 C4314 1.523 . S
C4314 C4298 1.368 . S
C4314 C4310 1.368 . S
C4314 C4313 1.523 . S
H4315 C4290 0.950 . S
H4316 C4292 0.950 . S
H4317 C4293 0.949 . S
H4318 C4295 0.950 . S
H4319 C4297 0.950 . S
C4320 C4321 1.349 . S
C4320 C4322 1.327 . S
C4320 H4345 0.950 . S
C4321 C4320 1.349 . S
C4321 C4337 1.349 . S
C4322 C4320 1.327 . S
C4322 C4341 1.429 . S
C4322 H4346 0.950 . S
C4323 C4340 1.574 . S
C4323 C4342 1.368 . S
C4323 H4347 0.949 . S
H4324 C4328 0.949 . S
C4325 C4326 1.349 . S
C4325 C4327 1.327 . S
C4325 H4348 0.950 . S
C4326 C4325 1.349 . S
C4326 C4338 1.349 . S
C4327 C4325 1.327 . S
C4327 C4343 1.429 . S
C4327 H4349 0.950 . S
C4328 H4324 0.949 . S
C4328 C4336 1.574 . S
C4328 C4344 1.368 . S
H4329 C4337 0.950 . S
H4330 C4335 0.950 . S
H4331 C4336 0.949 . S
H4332 C4338 0.950 . S
H4333 C4339 0.950 . S
H4334 C4340 0.949 . S
C4335 H4330 0.950 . S
C4335 C4337 1.327 . S
C4335 C4341 1.429 . S
C4336 C4328 1.574 . S
C4336 H4331 0.949 . S
C4336 C4342 1.368 . S
C4337 C4321 1.349 . S
C4337 H4329 0.950 . S
C4337 C4335 1.327 . S
C4338 C4326 1.349 . S
C4338 H4332 0.950 . S
C4338 C4339 1.327 . S
C4339 H4333 0.950 . S
C4339 C4338 1.327 . S
C4339 C4343 1.429 . S
C4340 C4323 1.574 . S
C4340 H4334 0.949 . S
C4340 C4344 1.368 . S
C4341 C4322 1.429 . S
C4341 C4335 1.429 . S
C4341 C4342 1.523 . S
C4342 C4323 1.368 . S
C4342 C4336 1.368 . S
C4342 C4341 1.523 . S
C4343 C4327 1.429 . S
C4343 C4339 1.429 . S
C4343 C4344 1.523 . S
C4344 C4328 1.368 . S
C4344 C4340 1.368 . S
C4344 C4343 1.523 . S
H4345 C4320 0.950 . S
H4346 C4322 0.950 . S
H4347 C4323 0.949 . S
H4348 C4325 0.950 . S
H4349 C4327 0.950 . S
C4350 C4351 1.349 . S
C4350 C4352 1.327 . S
C4350 H4375 0.950 . S
C4351 C4350 1.349 . S
C4351 C4367 1.349 . S
C4352 C4350 1.327 . S
C4352 C4371 1.429 . S
C4352 H4376 0.950 . S
C4353 C4370 1.574 . S
C4353 C4372 1.368 . S
C4353 H4377 0.949 . S
H4354 C4358 0.949 . S
C4355 C4356 1.349 . S
C4355 C4357 1.327 . S
C4355 H4378 0.950 . S
C4356 C4355 1.349 . S
C4356 C4368 1.349 1_545 S
C4357 C4355 1.327 . S
C4357 C4373 1.429 1_545 S
C4357 H4379 0.950 . S
C4358 H4354 0.949 . S
C4358 C4366 1.574 . S
C4358 C4374 1.368 . S
H4359 C4367 0.950 . S
H4360 C4365 0.950 . S
H4361 C4366 0.949 . S
H4362 C4368 0.950 . S
H4363 C4369 0.950 . S
H4364 C4370 0.949 . S
C4365 H4360 0.950 . S
C4365 C4367 1.327 . S
C4365 C4371 1.429 . S
C4366 C4358 1.574 . S
C4366 H4361 0.949 . S
C4366 C4372 1.368 . S
C4367 C4351 1.349 . S
C4367 H4359 0.950 . S
C4367 C4365 1.327 . S
C4368 C4356 1.349 1_565 S
C4368 H4362 0.950 . S
C4368 C4369 1.327 . S
C4369 H4363 0.950 . S
C4369 C4368 1.327 . S
C4369 C4373 1.429 . S
C4370 C4353 1.574 . S
C4370 H4364 0.949 . S
C4370 C4374 1.368 . S
C4371 C4352 1.429 . S
C4371 C4365 1.429 . S
C4371 C4372 1.523 . S
C4372 C4353 1.368 . S
C4372 C4366 1.368 . S
C4372 C4371 1.523 . S
C4373 C4357 1.429 1_565 S
C4373 C4369 1.429 . S
C4373 C4374 1.523 . S
C4374 C4358 1.368 . S
C4374 C4370 1.368 . S
C4374 C4373 1.523 . S
H4375 C4350 0.950 . S
H4376 C4352 0.950 . S
H4377 C4353 0.949 . S
H4378 C4355 0.950 . S
H4379 C4357 0.950 . S
C4380 C4381 1.349 . S
C4380 C4382 1.327 . S
C4380 H4405 0.950 . S
C4381 C4380 1.349 . S
C4381 C4397 1.349 . S
C4382 C4380 1.327 . S
C4382 C4401 1.429 . S
C4382 H4406 0.950 . S
C4383 C4400 1.574 . S
C4383 C4402 1.368 . S
C4383 H4407 0.949 . S
H4384 C4388 0.949 . S
C4385 C4386 1.349 . S
C4385 C4387 1.327 . S
C4385 H4408 0.950 . S
C4386 C4385 1.349 . S
C4386 C4398 1.349 . S
C4387 C4385 1.327 . S
C4387 C4403 1.429 . S
C4387 H4409 0.950 . S
C4388 H4384 0.949 . S
C4388 C4396 1.574 . S
C4388 C4404 1.368 . S
H4389 C4397 0.950 . S
H4390 C4395 0.950 . S
H4391 C4396 0.949 . S
H4392 C4398 0.950 . S
H4393 C4399 0.950 . S
H4394 C4400 0.949 . S
C4395 H4390 0.950 . S
C4395 C4397 1.327 . S
C4395 C4401 1.429 . S
C4396 C4388 1.574 . S
C4396 H4391 0.949 . S
C4396 C4402 1.368 . S
C4397 C4381 1.349 . S
C4397 H4389 0.950 . S
C4397 C4395 1.327 . S
C4398 C4386 1.349 . S
C4398 H4392 0.950 . S
C4398 C4399 1.327 . S
C4399 H4393 0.950 . S
C4399 C4398 1.327 . S
C4399 C4403 1.429 . S
C4400 C4383 1.574 . S
C4400 H4394 0.949 . S
C4400 C4404 1.368 . S
C4401 C4382 1.429 . S
C4401 C4395 1.429 . S
C4401 C4402 1.523 . S
C4402 C4383 1.368 . S
C4402 C4396 1.368 . S
C4402 C4401 1.523 . S
C4403 C4387 1.429 . S
C4403 C4399 1.429 . S
C4403 C4404 1.523 . S
C4404 C4388 1.368 . S
C4404 C4400 1.368 . S
C4404 C4403 1.523 . S
H4405 C4380 0.950 . S
H4406 C4382 0.950 . S
H4407 C4383 0.949 . S
H4408 C4385 0.950 . S
H4409 C4387 0.950 . S
C4410 C4411 1.349 . S
C4410 C4412 1.327 . S
C4410 H4435 0.950 . S
C4411 C4410 1.349 . S
C4411 C4427 1.349 . S
C4412 C4410 1.327 . S
C4412 C4431 1.429 . S
C4412 H4436 0.950 . S
C4413 C4430 1.574 . S
C4413 C4432 1.368 . S
C4413 H4437 0.949 1_554 S
H4414 C4418 0.949 . S
C4415 C4416 1.349 . S
C4415 C4417 1.327 . S
C4415 H4438 0.950 1_554 S
C4416 C4415 1.349 . S
C4416 C4428 1.349 . S
C4417 C4415 1.327 . S
C4417 C4433 1.429 . S
C4417 H4439 0.950 1_554 S
C4418 H4414 0.949 . S
C4418 C4426 1.574 . S
C4418 C4434 1.368 . S
H4419 C4427 0.950 1_556 S
H4420 C4425 0.950 1_556 S
H4421 C4426 0.949 . S
H4422 C4428 0.950 . S
H4423 C4429 0.950 . S
H4424 C4430 0.949 1_556 S
C4425 H4420 0.950 1_554 S
C4425 C4427 1.327 . S
C4425 C4431 1.429 . S
C4426 C4418 1.574 . S
C4426 H4421 0.949 . S
C4426 C4432 1.368 . S
C4427 C4411 1.349 . S
C4427 H4419 0.950 1_554 S
C4427 C4425 1.327 . S
C4428 C4416 1.349 . S
C4428 H4422 0.950 . S
C4428 C4429 1.327 . S
C4429 H4423 0.950 . S
C4429 C4428 1.327 . S
C4429 C4433 1.429 . S
C4430 C4413 1.574 . S
C4430 H4424 0.949 1_554 S
C4430 C4434 1.368 . S
C4431 C4412 1.429 . S
C4431 C4425 1.429 . S
C4431 C4432 1.523 . S
C4432 C4413 1.368 . S
C4432 C4426 1.368 . S
C4432 C4431 1.523 . S
C4433 C4417 1.429 . S
C4433 C4429 1.429 . S
C4433 C4434 1.523 . S
C4434 C4418 1.368 . S
C4434 C4430 1.368 . S
C4434 C4433 1.523 . S
H4435 C4410 0.950 . S
H4436 C4412 0.950 . S
H4437 C4413 0.949 1_556 S
H4438 C4415 0.950 1_556 S
H4439 C4417 0.950 1_556 S
C4440 C4441 1.349 . S
C4440 C4442 1.327 . S
C4440 H4465 0.950 . S
C4441 C4440 1.349 . S
C4441 C4457 1.349 . S
C4442 C4440 1.327 . S
C4442 C4461 1.429 . S
C4442 H4466 0.950 . S
C4443 C4460 1.574 . S
C4443 C4462 1.368 . S
C4443 H4467 0.949 . S
H4444 C4448 0.949 . S
C4445 C4446 1.349 . S
C4445 C4447 1.327 . S
C4445 H4468 0.950 . S
C4446 C4445 1.349 . S
C4446 C4458 1.349 . S
C4447 C4445 1.327 . S
C4447 C4463 1.429 . S
C4447 H4469 0.950 . S
C4448 H4444 0.949 . S
C4448 C4456 1.574 . S
C4448 C4464 1.368 . S
H4449 C4457 0.950 . S
H4450 C4455 0.950 . S
H4451 C4456 0.949 . S
H4452 C4458 0.950 . S
H4453 C4459 0.950 . S
H4454 C4460 0.949 . S
C4455 H4450 0.950 . S
C4455 C4457 1.327 . S
C4455 C4461 1.429 . S
C4456 C4448 1.574 . S
C4456 H4451 0.949 . S
C4456 C4462 1.368 . S
C4457 C4441 1.349 . S
C4457 H4449 0.950 . S
C4457 C4455 1.327 . S
C4458 C4446 1.349 . S
C4458 H4452 0.950 . S
C4458 C4459 1.327 . S
C4459 H4453 0.950 . S
C4459 C4458 1.327 . S
C4459 C4463 1.429 . S
C4460 C4443 1.574 . S
C4460 H4454 0.949 . S
C4460 C4464 1.368 . S
C4461 C4442 1.429 . S
C4461 C4455 1.429 . S
C4461 C4462 1.523 . S
C4462 C4443 1.368 . S
C4462 C4456 1.368 . S
C4462 C4461 1.523 . S
C4463 C4447 1.429 . S
C4463 C4459 1.429 . S
C4463 C4464 1.523 . S
C4464 C4448 1.368 . S
C4464 C4460 1.368 . S
C4464 C4463 1.523 . S
H4465 C4440 0.950 . S
H4466 C4442 0.950 . S
H4467 C4443 0.949 . S
H4468 C4445 0.950 . S
H4469 C4447 0.950 . S
C4470 C4471 1.349 . S
C4470 C4472 1.327 . S
C4470 H4495 0.950 . S
C4471 C4470 1.349 . S
C4471 C4487 1.349 . S
C4472 C4470 1.327 . S
C4472 C4491 1.429 . S
C4472 H4496 0.950 . S
C4473 C4490 1.574 . S
C4473 C4492 1.368 . S
C4473 H4497 0.949 . S
H4474 C4478 0.949 1_556 S
C4475 C4476 1.349 . S
C4475 C4477 1.327 . S
C4475 H4498 0.950 . S
C4476 C4475 1.349 . S
C4476 C4488 1.349 1_554 S
C4477 C4475 1.327 . S
C4477 C4493 1.429 . S
C4477 H4499 0.950 . S
C4478 H4474 0.949 1_554 S
C4478 C4486 1.574 . S
C4478 C4494 1.368 . S
H4479 C4487 0.950 . S
H4480 C4485 0.950 . S
H4481 C4486 0.949 1_556 S
H4482 C4488 0.950 . S
H4483 C4489 0.950 . S
H4484 C4490 0.949 . S
C4485 H4480 0.950 . S
C4485 C4487 1.327 . S
C4485 C4491 1.429 . S
C4486 C4478 1.574 . S
C4486 H4481 0.949 1_554 S
C4486 C4492 1.368 . S
C4487 C4471 1.349 . S
C4487 H4479 0.950 . S
C4487 C4485 1.327 . S
C4488 C4476 1.349 1_556 S
C4488 H4482 0.950 . S
C4488 C4489 1.327 . S
C4489 H4483 0.950 . S
C4489 C4488 1.327 . S
C4489 C4493 1.429 1_556 S
C4490 C4473 1.574 . S
C4490 H4484 0.949 . S
C4490 C4494 1.368 . S
C4491 C4472 1.429 . S
C4491 C4485 1.429 . S
C4491 C4492 1.523 . S
C4492 C4473 1.368 . S
C4492 C4486 1.368 . S
C4492 C4491 1.523 . S
C4493 C4477 1.429 . S
C4493 C4489 1.429 1_554 S
C4493 C4494 1.523 . S
C4494 C4478 1.368 . S
C4494 C4490 1.368 . S
C4494 C4493 1.523 . S
H4495 C4470 0.950 . S
H4496 C4472 0.950 . S
H4497 C4473 0.949 . S
H4498 C4475 0.950 . S
H4499 C4477 0.950 . S
C4500 C4501 1.347 1_565 S
C4500 C4502 1.330 . S
C4500 H4525 0.949 1_565 S
C4501 C4500 1.347 1_545 S
C4501 C4517 1.349 . S
C4502 C4500 1.330 . S
C4502 C4521 1.429 . S
C4502 H4526 0.950 . S
C4503 C4520 1.574 . S
C4503 C4522 1.368 . S
C4503 H4527 0.949 . S
H4504 C4508 0.949 . S
C4505 C4506 1.349 . S
C4505 C4507 1.327 . S
C4505 H4528 0.950 . S
C4506 C4505 1.349 . S
C4506 C4518 1.349 . S
C4507 C4505 1.327 . S
C4507 C4523 1.429 . S
C4507 H4529 0.950 . S
C4508 H4504 0.949 . S
C4508 C4516 1.574 . S
C4508 C4524 1.368 . S
H4509 C4517 0.950 . S
H4510 C4515 0.950 . S
H4511 C4516 0.949 . S
H4512 C4518 0.950 . S
H4513 C4519 0.950 . S
H4514 C4520 0.949 . S
C4515 H4510 0.950 . S
C4515 C4517 1.327 1_565 S
C4515 C4521 1.429 . S
C4516 C4508 1.574 . S
C4516 H4511 0.949 . S
C4516 C4522 1.368 . S
C4517 C4501 1.349 . S
C4517 H4509 0.950 . S
C4517 C4515 1.327 1_545 S
C4518 C4506 1.349 . S
C4518 H4512 0.950 . S
C4518 C4519 1.327 . S
C4519 H4513 0.950 . S
C4519 C4518 1.327 . S
C4519 C4523 1.429 . S
C4520 C4503 1.574 . S
C4520 H4514 0.949 . S
C4520 C4524 1.368 . S
C4521 C4502 1.429 . S
C4521 C4515 1.429 . S
C4521 C4522 1.523 . S
C4522 C4503 1.368 . S
C4522 C4516 1.368 . S
C4522 C4521 1.523 . S
C4523 C4507 1.429 . S
C4523 C4519 1.429 . S
C4523 C4524 1.523 . S
C4524 C4508 1.368 . S
C4524 C4520 1.368 . S
C4524 C4523 1.523 . S
H4525 C4500 0.949 1_545 S
H4526 C4502 0.950 . S
H4527 C4503 0.949 . S
H4528 C4505 0.950 . S
H4529 C4507 0.950 . S
C4530 C4531 1.349 . S
C4530 C4532 1.327 . S
C4530 H4555 0.950 . S
C4531 C4530 1.349 . S
C4531 C4547 1.349 . S
C4532 C4530 1.327 . S
C4532 C4551 1.429 . S
C4532 H4556 0.950 . S
C4533 C4550 1.574 . S
C4533 C4552 1.368 . S
C4533 H4557 0.949 . S
H4534 C4538 0.949 . S
C4535 C4536 1.349 . S
C4535 C4537 1.327 . S
C4535 H4558 0.950 . S
C4536 C4535 1.349 . S
C4536 C4548 1.349 . S
C4537 C4535 1.327 . S
C4537 C4553 1.429 . S
C4537 H4559 0.950 . S
C4538 H4534 0.949 . S
C4538 C4546 1.574 . S
C4538 C4554 1.368 . S
H4539 C4547 0.950 . S
H4540 C4545 0.950 . S
H4541 C4546 0.949 . S
H4542 C4548 0.950 . S
H4543 C4549 0.950 . S
H4544 C4550 0.949 . S
C4545 H4540 0.950 . S
C4545 C4547 1.327 . S
C4545 C4551 1.429 . S
C4546 C4538 1.574 . S
C4546 H4541 0.949 . S
C4546 C4552 1.368 . S
C4547 C4531 1.349 . S
C4547 H4539 0.950 . S
C4547 C4545 1.327 . S
C4548 C4536 1.349 . S
C4548 H4542 0.950 . S
C4548 C4549 1.327 . S
C4549 H4543 0.950 . S
C4549 C4548 1.327 . S
C4549 C4553 1.429 . S
C4550 C4533 1.574 . S
C4550 H4544 0.949 . S
C4550 C4554 1.368 . S
C4551 C4532 1.429 . S
C4551 C4545 1.429 . S
C4551 C4552 1.523 . S
C4552 C4533 1.368 . S
C4552 C4546 1.368 . S
C4552 C4551 1.523 . S
C4553 C4537 1.429 . S
C4553 C4549 1.429 . S
C4553 C4554 1.523 . S
C4554 C4538 1.368 . S
C4554 C4550 1.368 . S
C4554 C4553 1.523 . S
H4555 C4530 0.950 . S
H4556 C4532 0.950 . S
H4557 C4533 0.949 . S
H4558 C4535 0.950 . S
H4559 C4537 0.950 . S
C1681 C109 1.503 . S
C1686 C392 1.392 . S
C1711 C61 1.890 . S
C1716 C483 2.056 . S
C1741 C74 1.418 . S
C1746 C560 1.369 1_565 S
C1776 C658 1.569 . S
C1771 C96 1.726 . S
C1801 C25 1.486 1_455 S
C1806 C742 1.404 . S
C1836 C814 0.865 . S
C1831 C40 0.921 . S
C1866 C903 0.724 . S
C1861 C46 0.721 . S
C1891 C5 0.963 . S
C1896 C980 1.115 . S
C1926 C399 1.828 . S
C1921 C229 1.674 . S
C1951 C249 0.508 . S
C1956 C490 0.593 . S
C1986 C567 0.969 . S
C1981 C271 0.893 . S
C2016 C644 1.604 . S
C2011 C172 1.650 1_556 S
C2041 C236 1.950 . S
C2046 C728 1.804 . S
C2076 C830 1.239 . S
C2071 C242 1.294 . S
C2106 C910 0.686 . S
C2101 C278 0.645 . S
C2136 C987 1.381 . S
C2131 C179 1.457 . S
C2166 C406 1.350 . S
C2161 C159 1.240 . S
C2191 C285 1.702 . S
C2196 C1071 1.841 . S
C2226 C1159 2.033 . S
C2221 C333 2.165 . S
C2256 C1232 0.456 . S
C2251 C320 0.250 . S
C2281 C123 0.557 . S
C2286 C994 0.605 . S
C2311 C138 1.445 . S
C2316 C574 1.362 . S
C2341 C326 2.406 . S
C2346 C1323 2.339 . S
C2376 C1400 0.717 . S
C2371 C298 0.709 . S
C2406 C403 1.367 1_565 S
C2401 C67 1.435 . S
C2436 C1418 2.004 . S
C2431 C110 2.066 . S
C2461 C88 1.416 . S
C2466 C571 1.364 . S
C2491 C75 1.362 . S
C2496 C1318 1.465 . S
C2526 C730 1.391 . S
C2521 C11 1.433 . S
C2551 C47 0.821 . S
C2556 C1162 0.823 . S
C2586 C914 0.568 1_565 S
C2581 C32 0.626 . S
C2616 C1495 1.111 . S
C2611 C26 1.237 . S
C2646 C410 1.913 . S
C2641 C152 2.021 . S
C2676 C1402 0.585 . S
C2671 C319 0.509 . S
C2701 C124 0.992 . S
C2706 C578 0.965 . S
C2731 C284 1.699 . S
C2736 C1327 1.615 . S
C2761 C145 1.808 . S
C2766 C739 1.785 . S
C2796 C1155 1.116 . S
C2791 C312 1.166 . S
C2821 C117 0.691 . S
C2826 C898 0.602 . S
C2851 C291 1.315 . S
C2856 C1502 1.237 . S
C2881 C194 1.494 . S
C2886 C394 1.390 1_554 S
C2911 C180 1.896 . S
C2916 C1082 1.814 . S
C2941 C263 2.022 . S
C2946 C812 1.876 . S
C2971 C243 0.660 . S
C2976 C1243 0.448 . S
C3006 C1486 0.658 . S
C3001 C277 0.669 . S
C3031 C215 1.234 . S
C3036 C562 1.338 . S
C3066 C662 2.235 . S
C3061 C256 2.263 . S
C3096 C487 0.784 . S
C3091 C200 0.793 . S
C3121 C81 1.503 . S
C3126 C1568 1.392 . S
C3156 C1407 2.057 . S
C3151 C89 1.890 . S
C3181 C102 1.418 . S
C3186 C1652 1.370 . S
C3211 C68 1.726 . S
C3216 C1330 1.569 . S
C3241 C53 1.486 . S
C3246 C1078 1.405 . S
C3276 C1150 0.865 . S
C3271 C12 0.920 . S
C3306 C1239 0.723 . S
C3301 C18 0.721 . S
C3336 C1484 1.115 . S
C3331 C33 0.963 . S
C3366 C1575 1.828 . S
C3361 C257 1.675 . S
C3391 C193 0.508 . S
C3396 C1414 0.593 . S
C3426 C1659 0.969 . S
C3421 C201 0.893 . S
C3456 C1316 1.604 . S
C3451 C214 1.649 . S
C3486 C1064 1.803 . S
C3481 C264 1.949 . S
C3511 C186 1.295 . S
C3516 C1166 1.239 . S
C3546 C1246 0.686 . S
C3541 C208 0.645 . S
C3571 C221 1.456 . S
C3576 C1491 1.381 . S
C3606 C1582 1.350 . S
C3601 C313 1.240 . S
C3631 C131 1.702 . S
C3636 C735 1.843 . S
C3666 C823 2.034 . S
C3661 C151 2.172 . S
C3696 C896 0.456 . S
C3691 C166 0.249 . S
C3726 C1498 0.605 . S
C3721 C305 0.557 . S
C3751 C292 1.442 1_554 S
C3756 C1666 1.359 . S
C3786 C651 2.338 . S
C3781 C144 2.399 . S
C3816 C476 0.717 . S
C3811 C116 0.709 1_565 S
C3841 C95 1.434 . S
C3846 C1579 1.367 . S
C3876 C494 2.004 . S
C3871 C82 2.067 . S
C3901 C60 1.415 . S
C3906 C1663 1.364 . S
C3931 C103 1.363 . S
C3936 C646 1.465 . S
C3961 C39 1.433 . S
C3966 C1066 1.361 1_556 S
C3996 C826 0.823 . S
C3991 C19 0.820 . S
C4021 C4 0.626 . S
C4026 C1250 0.565 . S
C4051 C54 1.237 . S
C4056 C991 1.111 . S
C4086 C1586 1.914 . S
C4081 C334 2.022 . S
C4111 C165 0.508 . S
C4116 C478 0.585 . S
C4146 C1670 0.964 . S
C4141 C306 0.991 . S
C4171 C130 1.699 . S
C4176 C655 1.620 . S
C4201 C327 1.808 . S
C4206 C1075 1.788 . S
C4236 C819 1.116 . S
C4231 C158 1.166 . S
C4261 C299 0.691 . S
C4266 C1234 0.602 . S
C4296 C998 1.232 . S
C4291 C137 1.314 . S
C4326 C1570 1.390 . S
C4321 C250 1.494 . S
C4356 C746 1.814 1_655 S
C4351 C222 1.897 . S
C4381 C235 2.021 . S
C4386 C1148 1.876 . S
C4416 C907 0.448 . S
C4411 C187 0.660 . S
C4441 C207 0.670 . S
C4446 C982 0.658 . S
C4471 C173 1.234 . S
C4476 C1654 1.337 1_554 S
C4506 C1334 2.235 . S
C4501 C228 2.264 . S
C4536 C1411 0.784 . S
C4531 C270 0.792 . S
