# Generated by pormake.
# Topology nia, (6,6)-cn, num edge types: 1
# Building blocks:
#     Node 0, Type 0, BuildingBlock: GEDQOX_clean_sbu_0, # of connection points: 6
#     Node 1, Type 0, BuildingBlock: GEDQOX_clean_sbu_0, # of connection points: 6
#     Node 2, Type 1, BuildingBlock: MIDCAF_clean_sbu_0, # of connection points: 6
#     Node 3, Type 1, BuildingBlock: MIDCAF_clean_sbu_0, # of connection points: 6
#     Edge 4, Type (0, 1), BuildingBlock: TEMPAE_clean_linker_10, # of connection points: 2
#     Edge 5, Type (0, 1), BuildingBlock: TEMPAE_clean_linker_10, # of connection points: 2
#     Edge 6, Type (0, 1), BuildingBlock: TEMPAE_clean_linker_10, # of connection points: 2
#     Edge 7, Type (0, 1), BuildingBlock: TEMPAE_clean_linker_10, # of connection points: 2
#     Edge 8, Type (0, 1), BuildingBlock: TEMPAE_clean_linker_10, # of connection points: 2
#     Edge 9, Type (0, 1), BuildingBlock: TEMPAE_clean_linker_10, # of connection points: 2
#     Edge 10, Type (0, 1), BuildingBlock: TEMPAE_clean_linker_10, # of connection points: 2
#     Edge 11, Type (0, 1), BuildingBlock: TEMPAE_clean_linker_10, # of connection points: 2
#     Edge 12, Type (0, 1), BuildingBlock: TEMPAE_clean_linker_10, # of connection points: 2
#     Edge 13, Type (0, 1), BuildingBlock: TEMPAE_clean_linker_10, # of connection points: 2
#     Edge 14, Type (0, 1), BuildingBlock: TEMPAE_clean_linker_10, # of connection points: 2
#     Edge 15, Type (0, 1), BuildingBlock: TEMPAE_clean_linker_10, # of connection points: 2
# Relax obj value: 0.298
# Max RMSD: 0.267
# Mean RMSD: 0.241
data_MOF--net-nia--node1-GEDQOX_clean_sbu_0--node2-MIDCAF_clean_sbu_0--edge1-TEMPAE_clean_linker_10
_symmetry_space_group_name_H-M    P1
_symmetry_Int_Tables_number       1
_symmetry_cell_setting            triclinic
loop_
_symmetry_equiv_pos_as_xyz
'x, y, z'
_cell_length_a     28.003663
_cell_length_b     26.076469
_cell_length_c     35.289937
_cell_angle_alpha  101.06197
_cell_angle_beta   70.13516
_cell_angle_gamma 127.28661
loop_
_atom_site_label
_atom_site_type_symbol
_atom_site_fract_x
_atom_site_fract_y
_atom_site_fract_z
_atom_type_partial_charge
Nd0 Nd 0.03052 0.06591 0.9835 0.0
Nd1 Nd 0.02904 0.97624 0.03917 0.0
C2 C 0.06001 0.14859 0.93186 0.0
C3 C 0.02964 0.17474 0.92488 0.0
C4 C 0.05824 0.2153 0.8915 0.0
C5 C 0.02926 0.23964 0.88424 0.0
C6 C 0.97103 0.22372 0.91028 0.0
C7 C 0.94274 0.18325 0.94393 0.0
C8 C 0.97186 0.15903 0.95117 0.0
C9 C 0.91496 0.99369 0.04184 0.0
C10 C 0.06524 0.11805 0.06772 0.0
C11 C 0.99643 0.89742 0.09476 0.0
C12 C 0.01507 0.8604 0.10376 0.0
C13 C 0.98425 0.82728 0.14077 0.0
C14 C 0.00458 0.79617 0.15152 0.0
C15 C 0.05621 0.79781 0.12537 0.0
C16 C 0.08577 0.82954 0.08766 0.0
C17 C 0.06541 0.86074 0.07697 0.0
C18 C 0.14483 0.04953 0.9806 0.0
C19 C 0.99287 0.92088 0.95499 0.0
O20 O 0.07653 0.16603 0.96522 0.0
O21 O 0.03432 0.08728 0.92431 0.0
O22 O 0.92796 0.03301 0.01617 0.0
O23 O 0.96299 0.99537 0.03518 0.0
O24 O 0.08033 0.13443 0.03003 0.0
O25 O 0.03386 0.0579 0.07953 0.0
O26 O 0.9717 0.87764 0.06477 0.0
O27 O 0.03593 0.96029 0.09573 0.0
O28 O 0.13208 0.00929 1.0056 0.0
O29 O 0.0967 0.04784 0.98798 0.0
O30 O 0.98693 0.90683 0.99108 0.0
O31 O 0.01488 0.9789 0.94377 0.0
H32 H 0.10277 0.22775 0.87085 0.0
H33 H 0.05185 0.26986 0.85773 0.0
H34 H 0.89826 0.17056 0.96475 0.0
H35 H 0.94921 0.12793 0.97722 0.0
H36 H 0.94544 0.8269 0.16182 0.0
H37 H 0.98128 0.7729 0.18093 0.0
H38 H 0.12514 0.83093 0.06664 0.0
H39 H 0.08965 0.88616 0.04823 0.0
Nd40 Nd 0.99255 0.99481 0.48238 0.0
Nd41 Nd 0.07093 0.04561 0.53488 0.0
C42 C 0.92758 0.97436 0.43514 0.0
C43 C 0.86426 0.9509 0.43831 0.0
C44 C 0.85587 0.9766 0.41194 0.0
C45 C 0.79582 0.95171 0.41199 0.0
C46 C 0.74349 0.90071 0.43844 0.0
C47 C 0.752 0.87704 0.46624 0.0
C48 C 0.81231 0.90231 0.46632 0.0
C49 C 0.94951 0.90474 0.53903 0.0
C50 C 0.96891 0.07356 0.56255 0.0
C51 C 0.13349 0.06099 0.58219 0.0
C52 C 0.19035 0.06815 0.58012 0.0
C53 C 0.18442 0.02267 0.60057 0.0
C54 C 0.23685 0.03531 0.60712 0.0
C55 C 0.2955 0.09361 0.59334 0.0
C56 C 0.30269 0.13572 0.56896 0.0
C57 C 0.25017 0.12311 0.56237 0.0
C58 C 0.11349 0.13555 0.47876 0.0
C59 C 0.10068 0.97528 0.45157 0.0
O60 O 0.96009 0.0298 0.45167 0.0
O61 O 0.93478 0.93199 0.44144 0.0
O62 O 0.94878 0.89198 0.50188 0.0
O63 O 0.96939 0.96285 0.54597 0.0
O64 O 0.96614 0.05871 0.5251 0.0
O65 O 0.99869 0.06168 0.57721 0.0
O66 O 0.08822 0.0044 0.57339 0.0
O67 O 0.14008 0.10904 0.5689 0.0
O68 O 0.11513 0.14879 0.51583 0.0
O69 O 0.09343 0.07745 0.47158 0.0
O70 O 0.10365 0.98854 0.48908 0.0
O71 O 0.06831 0.9856 0.43865 0.0
H72 H 0.89579 0.01445 0.3904 0.0
H73 H 0.79046 0.97002 0.38979 0.0
H74 H 0.71216 0.83781 0.48692 0.0
H75 H 0.81837 0.88272 0.4873 0.0
H76 H 0.1387 0.97976 0.61421 0.0
H77 H 0.2307 0.00275 0.62633 0.0
H78 H 0.34766 0.1814 0.55863 0.0
H79 H 0.25598 0.15858 0.54602 0.0
Zn80 Zn 0.34342 0.61405 0.19727 0.0
Zn81 Zn 0.2556 0.62339 0.37003 0.0
Zn82 Zn 0.31742 0.63249 0.26925 0.0
C83 C 0.39695 0.69168 0.31641 0.0
C84 C 0.22294 0.50289 0.33664 0.0
O85 O 0.27227 0.66407 0.24974 0.0
O86 O 0.28664 0.6287 0.18789 0.0
C87 C 0.46049 0.70275 0.1996 0.0
O88 O 0.40765 0.68963 0.2783 0.0
O89 O 0.34133 0.66479 0.33739 0.0
O90 O 0.20866 0.53003 0.36755 0.0
O91 O 0.26054 0.53454 0.30264 0.0
O92 O 0.43287 0.67479 0.17265 0.0
O93 O 0.42698 0.6927 0.23717 0.0
O94 O 0.26457 0.52859 0.25892 0.0
O95 O 0.31252 0.52339 0.19581 0.0
C96 C 0.27111 0.49539 0.22828 0.0
O97 O 0.27112 0.68545 0.2936 0.0
O98 O 0.22308 0.66552 0.35998 0.0
C99 C 0.26236 0.65229 0.21498 0.0
C100 C 0.23781 0.69226 0.32756 0.0
Zn101 Zn 0.71578 0.42299 0.87978 0.0
Zn102 Zn 0.78065 0.41463 0.67988 0.0
Zn103 Zn 0.7433 0.40689 0.75429 0.0
C104 C 0.82554 0.53713 0.69204 0.0
C105 C 0.64318 0.34223 0.71701 0.0
O106 O 0.7887 0.37174 0.76808 0.0
O107 O 0.75471 0.40068 0.82583 0.0
C108 C 0.78726 0.51281 0.80386 0.0
O109 O 0.79342 0.50861 0.72721 0.0
O110 O 0.83523 0.50629 0.66194 0.0
O111 O 0.68948 0.36759 0.68579 0.0
O112 O 0.65082 0.34801 0.75168 0.0
O113 O 0.75385 0.46078 0.82381 0.0
O114 O 0.79375 0.50714 0.76628 0.0
O115 O 0.64036 0.35301 0.79941 0.0
O116 O 0.63181 0.36602 0.86667 0.0
C117 C 0.60689 0.34192 0.8375 0.0
O118 O 0.78921 0.35422 0.72856 0.0
O119 O 0.81303 0.36176 0.66246 0.0
C120 C 0.78297 0.37619 0.80574 0.0
C121 C 0.81083 0.34038 0.69261 0.0
C122 C 0.04093 0.71085 0.1597 0.0
C123 C 0.08138 0.76997 0.13847 0.0
C124 C 0.06447 0.6861 0.17403 0.0
C125 C 0.12995 0.7213 0.16684 0.0
C126 C 0.17095 0.7806 0.14511 0.0
C127 C 0.14619 0.80421 0.13125 0.0
C128 C 0.01938 0.62269 0.19709 0.0
C129 C 0.2411 0.81948 0.1368 0.0
C130 C 0.20156 0.69927 0.23065 0.0
C131 C 0.22311 0.66519 0.2049 0.0
C132 C 0.16836 0.71531 0.21964 0.0
C133 C 0.15636 0.69656 0.18167 0.0
C134 C 0.17502 0.65908 0.15624 0.0
C135 C 0.2081 0.64387 0.16814 0.0
C136 C 0.14903 0.75502 0.24789 0.0
C137 C 0.16189 0.63682 0.11587 0.0
H138 H 0.99082 0.68385 0.16506 0.0
H139 H 0.17767 0.85042 0.1155 0.0
H140 H 0.02891 0.58743 0.18114 0.0
H141 H 0.02612 0.6293 0.22733 0.0
H142 H 0.96973 0.60199 0.20089 0.0
H143 H 0.26656 0.86446 0.11923 0.0
H144 H 0.25328 0.83248 0.16565 0.0
H145 H 0.2579 0.79022 0.11978 0.0
H146 H 0.21204 0.71484 0.25888 0.0
H147 H 0.22318 0.61609 0.14809 0.0
H148 H 0.10117 0.73745 0.24922 0.0
H149 H 0.18165 0.80574 0.2367 0.0
H150 H 0.15024 0.75422 0.27888 0.0
H151 H 0.11079 0.60768 0.11999 0.0
H152 H 0.17905 0.60742 0.09982 0.0
H153 H 0.18462 0.6791 0.0965 0.0
C154 C 0.40209 0.13485 0.5942 0.0
C155 C 0.34232 0.11914 0.61443 0.0
C156 C 0.44803 0.1662 0.61455 0.0
C157 C 0.43366 0.18378 0.65526 0.0
C158 C 0.37298 0.16737 0.67555 0.0
C159 C 0.32773 0.13421 0.655 0.0
C160 C 0.51232 0.18256 0.59219 0.0
C161 C 0.35598 0.18622 0.71855 0.0
C162 C 0.54342 0.23663 0.71678 0.0
C163 C 0.58158 0.30337 0.71064 0.0
C164 C 0.49399 0.19663 0.69939 0.0
C165 C 0.48341 0.22469 0.6755 0.0
C166 C 0.52024 0.29245 0.67094 0.0
C167 C 0.56919 0.33102 0.68854 0.0
C168 C 0.45536 0.12449 0.70471 0.0
C169 C 0.50951 0.32409 0.64625 0.0
H170 H 0.41292 0.1235 0.5626 0.0
H171 H 0.28136 0.12264 0.67013 0.0
H172 H 0.54681 0.23554 0.58761 0.0
H173 H 0.52733 0.16697 0.61017 0.0
H174 H 0.51372 0.15951 0.56227 0.0
H175 H 0.31047 0.17955 0.72733 0.0
H176 H 0.35218 0.1556 0.73884 0.0
H177 H 0.39259 0.23732 0.72333 0.0
H178 H 0.55467 0.21568 0.733 0.0
H179 H 0.60006 0.3828 0.68326 0.0
H180 H 0.46069 0.10211 0.67492 0.0
H181 H 0.40503 0.10438 0.71773 0.0
H182 H 0.46923 0.11051 0.72464 0.0
H183 H 0.51765 0.30931 0.61439 0.0
H184 H 0.54092 0.37756 0.64713 0.0
H185 H 0.46021 0.30811 0.65752 0.0
C186 C 0.04898 0.15567 0.13813 0.0
C187 C 0.08568 0.16855 0.09781 0.0
C188 C 0.06922 0.20247 0.16755 0.0
C189 C 0.12803 0.26266 0.15631 0.0
C190 C 0.16529 0.27573 0.11555 0.0
C191 C 0.14323 0.22861 0.08666 0.0
C192 C 0.02789 0.18765 0.21053 0.0
C193 C 0.22865 0.33935 0.10246 0.0
C194 C 0.17295 0.41662 0.21209 0.0
C195 C 0.22023 0.42813 0.22548 0.0
C196 C 0.1387 0.36012 0.19183 0.0
C197 C 0.15063 0.31332 0.18655 0.0
C198 C 0.19257 0.32128 0.20486 0.0
C199 C 0.22848 0.37983 0.22325 0.0
C200 C 0.09595 0.3546 0.17178 0.0
C201 C 0.20451 0.27114 0.20128 0.0
H202 H 0.00418 0.10912 0.14659 0.0
H203 H 0.1718 0.2381 0.05551 0.0
H204 H 0.05316 0.19241 0.23079 0.0
H205 H 0.01639 0.22292 0.22042 0.0
H206 H 0.98345 0.13834 0.21429 0.0
H207 H 0.25169 0.34157 0.06963 0.0
H208 H 0.22369 0.37951 0.10983 0.0
H209 H 0.25986 0.34728 0.11905 0.0
H210 H 0.16798 0.4551 0.21318 0.0
H211 H 0.26598 0.38961 0.23304 0.0
H212 H 0.05172 0.30529 0.17568 0.0
H213 H 0.11943 0.3642 0.13893 0.0
H214 H 0.08452 0.38972 0.18379 0.0
H215 H 0.16013 0.22187 0.20525 0.0
H216 H 0.22749 0.27813 0.22389 0.0
H217 H 0.23561 0.27459 0.17076 0.0
C218 C 0.94865 0.1558 0.56785 0.0
C219 C 0.94344 0.1094 0.58679 0.0
C220 C 0.92754 0.19271 0.59001 0.0
C221 C 0.8984 0.18155 0.63209 0.0
C222 C 0.89251 0.13425 0.65139 0.0
C223 C 0.91618 0.09952 0.6286 0.0
C224 C 0.93648 0.24376 0.56825 0.0
C225 C 0.86035 0.11964 0.69592 0.0
C226 C 0.88727 0.31665 0.68703 0.0
C227 C 0.82864 0.29564 0.68545 0.0
C228 C 0.9092 0.27811 0.67217 0.0
C229 C 0.87177 0.21763 0.65498 0.0
C230 C 0.81108 0.19507 0.65546 0.0
C231 C 0.79054 0.23456 0.6704 0.0
C232 C 0.97396 0.30396 0.67257 0.0
C233 C 0.76921 0.13084 0.63792 0.0
H234 H 0.97069 0.16437 0.53564 0.0
H235 H 0.91217 0.06368 0.64331 0.0
H236 H 0.89023 0.23151 0.57023 0.0
H237 H 0.96186 0.29102 0.5828 0.0
H238 H 0.96316 0.24893 0.53593 0.0
H239 H 0.85919 0.08125 0.70638 0.0
H240 H 0.88464 0.16375 0.71337 0.0
H241 H 0.81154 0.10407 0.70282 0.0
H242 H 0.91706 0.36435 0.69817 0.0
H243 H 0.74547 0.21878 0.66875 0.0
H244 H 0.00579 0.31753 0.64139 0.0
H245 H 0.97337 0.26652 0.68367 0.0
H246 H 0.99341 0.34702 0.69177 0.0
H247 H 0.78877 0.1334 0.60465 0.0
H248 H 0.72081 0.11676 0.64518 0.0
H249 H 0.76712 0.09253 0.64932 0.0
C250 C 0.80461 0.95796 0.07327 0.0
C251 C 0.8527 0.9538 0.07231 0.0
C252 C 0.74391 0.91912 0.09957 0.0
C253 C 0.73015 0.87466 0.12624 0.0
C254 C 0.77921 0.87189 0.12658 0.0
C255 C 0.83982 0.91125 0.0995 0.0
C256 C 0.69366 0.92373 0.0974 0.0
C257 C 0.76719 0.82595 0.15469 0.0
C258 C 0.56868 0.79968 0.20507 0.0
C259 C 0.53074 0.74325 0.1858 0.0
C260 C 0.63451 0.84098 0.18761 0.0
C261 C 0.66295 0.82634 0.14956 0.0
C262 C 0.62492 0.76802 0.13105 0.0
C263 C 0.56002 0.7275 0.14937 0.0
C264 C 0.67316 0.90175 0.20899 0.0
C265 C 0.65212 0.75001 0.09048 0.0
H266 H 0.81399 0.99085 0.05257 0.0
H267 H 0.87672 0.90798 0.09921 0.0
H268 H 0.65767 0.87778 0.08625 0.0
H269 H 0.66985 0.93139 0.12783 0.0
H270 H 0.71268 0.96357 0.07706 0.0
H271 H 0.81133 0.83546 0.15532 0.0
H272 H 0.7415 0.82946 0.18573 0.0
H273 H 0.73731 0.77573 0.14488 0.0
H274 H 0.54681 0.81317 0.2327 0.0
H275 H 0.53154 0.68385 0.13417 0.0
H276 H 0.6877 0.94393 0.19307 0.0
H277 H 0.71639 0.90842 0.20864 0.0
H278 H 0.64665 0.90118 0.24075 0.0
H279 H 0.66901 0.78487 0.06711 0.0
H280 H 0.61734 0.7008 0.08154 0.0
H281 H 0.69294 0.75248 0.09077 0.0
C282 C 0.93145 0.87223 0.60868 0.0
C283 C 0.93101 0.85696 0.56832 0.0
C284 C 0.91528 0.8267 0.63561 0.0
C285 C 0.89838 0.76441 0.62192 0.0
C286 C 0.89791 0.7491 0.58119 0.0
C287 C 0.91407 0.79524 0.55512 0.0
C288 C 0.91675 0.84537 0.6786 0.0
C289 C 0.88066 0.68377 0.56489 0.0
C290 C 0.90932 0.65079 0.6664 0.0
C291 C 0.84615 0.603 0.68497 0.0
C292 C 0.92776 0.70708 0.64937 0.0
C293 C 0.88169 0.71466 0.6493 0.0
C294 C 0.81821 0.66833 0.67039 0.0
C295 C 0.80136 0.61349 0.68831 0.0
C296 C 0.99618 0.75594 0.62869 0.0
C297 C 0.76717 0.6735 0.67092 0.0
H298 H 0.94469 0.91984 0.61916 0.0
H299 H 0.91387 0.78294 0.52401 0.0
H300 H 0.86989 0.81198 0.69956 0.0
H301 H 0.95007 0.84103 0.68538 0.0
H302 H 0.93079 0.89546 0.68468 0.0
H303 H 0.88114 0.67881 0.53281 0.0
H304 H 0.91404 0.67564 0.56743 0.0
H305 H 0.83326 0.64529 0.58293 0.0
H306 H 0.94408 0.64269 0.6635 0.0
H307 H 0.75235 0.57613 0.702 0.0
H308 H 0.0099 0.80572 0.63573 0.0
H309 H 0.0047 0.75051 0.59557 0.0
H310 H 0.02674 0.74967 0.6377 0.0
H311 H 0.7809 0.72326 0.67797 0.0
H312 H 0.72211 0.63952 0.69321 0.0
H313 H 0.7597 0.66233 0.64061 0.0
C314 C 0.11291 0.91397 0.38947 0.0
C315 C 0.13043 0.94477 0.42455 0.0
C316 C 0.13412 0.87754 0.36637 0.0
C317 C 0.17468 0.87251 0.37821 0.0
C318 C 0.19558 0.90684 0.41219 0.0
C319 C 0.17289 0.94214 0.43508 0.0
C320 C 0.1109 0.84214 0.33033 0.0
C321 C 0.23892 0.90309 0.42592 0.0
C322 C 0.16057 0.71652 0.36135 0.0
C323 C 0.21739 0.7346 0.33235 0.0
C324 C 0.14556 0.76042 0.37548 0.0
C325 C 0.18743 0.82399 0.35932 0.0
C326 C 0.24272 0.84135 0.32773 0.0
C327 C 0.25782 0.7968 0.31514 0.0
C328 C 0.08658 0.7397 0.40959 0.0
C329 C 0.28715 0.90774 0.30855 0.0
H330 H 0.08026 0.91585 0.38097 0.0
H331 H 0.18715 0.96626 0.46191 0.0
H332 H 0.15134 0.85848 0.30291 0.0
H333 H 0.08594 0.78959 0.33418 0.0
H334 H 0.0787 0.85014 0.32545 0.0
H335 H 0.25626 0.93799 0.45 0.0
H336 H 0.21374 0.85375 0.43768 0.0
H337 H 0.27977 0.91259 0.40022 0.0
H338 H 0.1292 0.66856 0.37489 0.0
H339 H 0.30207 0.81128 0.29306 0.0
H340 H 0.05745 0.74877 0.4013 0.0
H341 H 0.0991 0.76846 0.43667 0.0
H342 H 0.0579 0.68782 0.41778 0.0
H343 H 0.26105 0.92094 0.30017 0.0
H344 H 0.32354 0.91107 0.2812 0.0
H345 H 0.31069 0.94364 0.33047 0.0
C346 C 0.24273 0.06587 0.93237 0.0
C347 C 0.20613 0.08912 0.94918 0.0
C348 C 0.30416 0.1047 0.90659 0.0
C349 C 0.33137 0.16974 0.89848 0.0
C350 C 0.29328 0.19235 0.9136 0.0
C351 C 0.23094 0.15158 0.9383 0.0
C352 C 0.3413 0.0771 0.88983 0.0
C353 C 0.31974 0.26099 0.90582 0.0
C354 C 0.50493 0.28391 0.89252 0.0
C355 C 0.53595 0.29842 0.85095 0.0
C356 C 0.43936 0.24411 0.9078 0.0
C357 C 0.40168 0.21617 0.88127 0.0
C358 C 0.43196 0.23079 0.83929 0.0
C359 C 0.49848 0.27172 0.82473 0.0
C360 C 0.41042 0.23128 0.95276 0.0
C361 C 0.39484 0.20227 0.80931 0.0
H362 H 0.22367 0.01734 0.94009 0.0
H363 H 0.20301 0.16994 0.95105 0.0
H364 H 0.36569 0.08967 0.8573 0.0
H365 H 0.37763 0.09826 0.90552 0.0
H366 H 0.31119 0.02383 0.89365 0.0
H367 H 0.28277 0.26917 0.91513 0.0
H368 H 0.35442 0.29398 0.92288 0.0
H369 H 0.34465 0.27383 0.87336 0.0
H370 H 0.53194 0.30346 0.91387 0.0
H371 H 0.52089 0.28288 0.79294 0.0
H372 H 0.3848 0.17938 0.95932 0.0
H373 H 0.37605 0.24308 0.96426 0.0
H374 H 0.4459 0.25972 0.96968 0.0
H375 H 0.3862 0.15487 0.7999 0.0
H376 H 0.42135 0.2338 0.78202 0.0
H377 H 0.34885 0.19459 0.82224 0.0
C378 C 0.10946 0.16283 0.41557 0.0
C379 C 0.13237 0.18293 0.44927 0.0
C380 C 0.12196 0.20784 0.39017 0.0
C381 C 0.16019 0.27472 0.39779 0.0
C382 C 0.18602 0.29512 0.4306 0.0
C383 C 0.17099 0.2491 0.4562 0.0
C384 C 0.09193 0.1837 0.35639 0.0
C385 C 0.22789 0.36575 0.43962 0.0
C386 C 0.23625 0.41317 0.32531 0.0
C387 C 0.19891 0.4353 0.3429 0.0
C388 C 0.2214 0.35731 0.34058 0.0
C389 C 0.16858 0.32354 0.37453 0.0
C390 C 0.12794 0.34269 0.38989 0.0
C391 C 0.14338 0.39781 0.37378 0.0
C392 C 0.26513 0.33769 0.32249 0.0
C393 C 0.07089 0.30846 0.42577 0.0
H394 H 0.07977 0.11176 0.40994 0.0
H395 H 0.18924 0.26503 0.48198 0.0
H396 H 0.05669 0.19381 0.36315 0.0
H397 H 0.12746 0.20941 0.32773 0.0
H398 H 0.06819 0.13102 0.35208 0.0
H399 H 0.24879 0.37395 0.4638 0.0
H400 H 0.26633 0.39278 0.4121 0.0
H401 H 0.20049 0.38606 0.44923 0.0
H402 H 0.27949 0.44204 0.30178 0.0
H403 H 0.1139 0.41425 0.38742 0.0
H404 H 0.23839 0.28461 0.31941 0.0
H405 H 0.29409 0.35221 0.34276 0.0
H406 H 0.29688 0.36082 0.29242 0.0
H407 H 0.04346 0.25549 0.42194 0.0
H408 H 0.03982 0.32367 0.43064 0.0
H409 H 0.08596 0.31931 0.45332 0.0
C410 C 0.87498 0.20629 0.90498 0.0
C411 C 0.93933 0.24774 0.90147 0.0
C412 C 0.84564 0.22677 0.89336 0.0
C413 C 0.88153 0.29012 0.87773 0.0
C414 C 0.94583 0.33306 0.87584 0.0
C415 C 0.97392 0.31136 0.88773 0.0
C416 C 0.77688 0.17965 0.89608 0.0
C417 C 0.98557 0.40122 0.85979 0.0
C418 C 0.83228 0.32064 0.8017 0.0
C419 C 0.80582 0.35218 0.82481 0.0
C420 C 0.85617 0.29941 0.81874 0.0
C421 C 0.85343 0.30983 0.86008 0.0
C422 C 0.82554 0.34045 0.8839 0.0
C423 C 0.80212 0.36137 0.86595 0.0
C424 C 0.88546 0.2669 0.79221 0.0
C425 C 0.82119 0.35184 0.92816 0.0
H426 H 0.84796 0.15695 0.91535 0.0
H427 H 0.02336 0.34405 0.88573 0.0
H428 H 0.75188 0.2019 0.91115 0.0
H429 H 0.77126 0.16667 0.86528 0.0
H430 H 0.75421 0.13473 0.91283 0.0
H431 H 0.03343 0.43007 0.86334 0.0
H432 H 0.98966 0.40033 0.82731 0.0
H433 H 0.96311 0.42583 0.87553 0.0
H434 H 0.83462 0.31273 0.77012 0.0
H435 H 0.78151 0.38554 0.88408 0.0
H436 H 0.8645 0.22017 0.80592 0.0
H437 H 0.93631 0.29765 0.78938 0.0
H438 H 0.87946 0.25795 0.76154 0.0
H439 H 0.79646 0.3056 0.94402 0.0
H440 H 0.79612 0.37422 0.94279 0.0
H441 H 0.86888 0.38384 0.93209 0.0
C442 C 0.6631 0.90301 0.42555 0.0
C443 C 0.68156 0.86726 0.43261 0.0
C444 C 0.61281 0.87365 0.40972 0.0
C445 C 0.58052 0.8072 0.40127 0.0
C446 C 0.59532 0.76974 0.41174 0.0
C447 C 0.64612 0.80045 0.42729 0.0
C448 C 0.59715 0.9145 0.39941 0.0
C449 C 0.56049 0.69829 0.40387 0.0
C450 C 0.42745 0.72436 0.37928 0.0
C451 C 0.44538 0.72265 0.33698 0.0
C452 C 0.4709 0.75111 0.40066 0.0
C453 C 0.53395 0.77779 0.37913 0.0
C454 C 0.55273 0.77668 0.33644 0.0
C455 C 0.50771 0.74817 0.31576 0.0
C456 C 0.44923 0.75047 0.4462 0.0
C457 C 0.62018 0.80545 0.31274 0.0
H458 H 0.69029 0.95459 0.43026 0.0
H459 H 0.66075 0.77292 0.43253 0.0
H460 H 0.60915 0.91786 0.36618 0.0
H461 H 0.54622 0.89198 0.41172 0.0
H462 H 0.62309 0.96407 0.41125 0.0
H463 H 0.57291 0.67506 0.41817 0.0
H464 H 0.50915 0.67385 0.41525 0.0
H465 H 0.57197 0.69052 0.37091 0.0
H466 H 0.37901 0.70421 0.39598 0.0
H467 H 0.52106 0.74522 0.28329 0.0
H468 H 0.47397 0.80047 0.45739 0.0
H469 H 0.46087 0.72466 0.45868 0.0
H470 H 0.39796 0.7268 0.4582 0.0
H471 H 0.65023 0.85726 0.3198 0.0
H472 H 0.62689 0.80102 0.27968 0.0
H473 H 0.63656 0.78118 0.32152 0.0
C474 C 0.9792 0.8195 0.92704 0.0
C475 C 0.97161 0.86772 0.92657 0.0
C476 C 0.95293 0.76442 0.90375 0.0
C477 C 0.91679 0.75683 0.88044 0.0
C478 C 0.91059 0.80636 0.87891 0.0
C479 C 0.93897 0.8619 0.90167 0.0
C480 C 0.96207 0.71344 0.90523 0.0
C481 C 0.87117 0.79909 0.85506 0.0
C482 C 0.87634 0.62836 0.80086 0.0
C483 C 0.81847 0.57595 0.82269 0.0
C484 C 0.90916 0.68779 0.81927 0.0
C485 C 0.8821 0.69518 0.85992 0.0
C486 C 0.82254 0.64283 0.88163 0.0
C487 C 0.79188 0.58331 0.86289 0.0
C488 C 0.97357 0.74181 0.79572 0.0
C489 C 0.79152 0.64947 0.92474 0.0
H490 H 0.00501 0.82447 0.94613 0.0
H491 H 0.93277 0.89911 0.90168 0.0
H492 H 0.91692 0.66954 0.92094 0.0
H493 H 0.97767 0.69954 0.87427 0.0
H494 H 0.997 0.72998 0.92126 0.0
H495 H 0.87386 0.84344 0.8553 0.0
H496 H 0.88622 0.78724 0.82336 0.0
H497 H 0.82152 0.75852 0.86795 0.0
H498 H 0.89701 0.62217 0.7698 0.0
H499 H 0.74686 0.54263 0.87957 0.0
H500 H 0.00864 0.7549 0.8106 0.0
H501 H 0.97541 0.78539 0.79535 0.0
H502 H 0.98734 0.72847 0.76412 0.0
H503 H 0.8194 0.65857 0.94443 0.0
H504 H 0.74316 0.60562 0.93623 0.0
H505 H 0.78962 0.69133 0.92728 0.0
loop_
_geom_bond_atom_site_label_1
_geom_bond_atom_site_label_2
_geom_bond_distance
_geom_bond_site_symmetry_2
_ccdc_geom_bond_type
Nd0 C2 2.836 . S
Nd0 O20 2.500 1_655 S
Nd0 O21 2.492 . S
Nd0 O22 2.487 1_546 S
Nd0 O23 2.682 1_546 S
Nd0 O24 2.410 1_656 S
Nd0 O29 2.414 1_655 S
Nd0 O31 2.424 1_545 S
Nd1 C11 2.826 1_545 S
Nd1 O23 2.417 1_445 S
Nd1 O25 2.434 . S
Nd1 O26 2.492 1_545 S
Nd1 O27 2.483 1_545 S
Nd1 O28 2.488 1_554 S
Nd1 O29 2.688 1_554 S
Nd1 O30 2.405 1_544 S
C2 Nd0 2.836 . S
C2 C3 1.498 . S
C2 O20 1.258 1_655 S
C2 O21 1.239 . S
C3 C2 1.498 . S
C3 C4 1.366 1_655 S
C3 C8 1.407 . S
C4 C3 1.366 1_455 S
C4 C5 1.392 . S
C4 H32 0.930 . S
C5 C4 1.392 . S
C5 C6 1.398 1_455 S
C5 H33 0.929 . S
C6 C5 1.398 1_655 S
C6 C7 1.352 . S
C7 C6 1.352 . S
C7 C8 1.384 . S
C7 H34 0.930 . S
C8 C3 1.407 . S
C8 C7 1.384 . S
C8 H35 0.929 . S
C9 O22 1.241 . S
C9 O23 1.273 . S
C10 O24 1.251 . S
C10 O25 1.268 . S
C11 Nd1 2.826 1_565 S
C11 C12 1.498 . S
C11 O26 1.258 . S
C11 O27 1.239 . S
C12 C11 1.498 . S
C12 C13 1.367 1_455 S
C12 C17 1.407 . S
C13 C12 1.367 1_655 S
C13 C14 1.406 . S
C13 H36 0.928 . S
C14 C13 1.406 . S
C14 C15 1.378 1_655 S
C14 H37 0.937 . S
C15 C14 1.378 1_455 S
C15 C16 1.352 . S
C16 C15 1.352 . S
C16 C17 1.384 . S
C16 H38 0.930 . S
C17 C12 1.407 . S
C17 C16 1.384 . S
C17 H39 0.929 . S
C18 O28 1.241 . S
C18 O29 1.273 . S
C19 O30 1.251 1_655 S
C19 O31 1.268 . S
O20 Nd0 2.500 1_455 S
O20 C2 1.258 1_455 S
O21 Nd0 2.492 . S
O21 C2 1.239 . S
O22 Nd0 2.487 1_564 S
O22 C9 1.241 . S
O23 Nd0 2.682 1_564 S
O23 Nd1 2.417 1_665 S
O23 C9 1.273 . S
O24 Nd0 2.410 1_454 S
O24 C10 1.251 . S
O25 Nd1 2.434 . S
O25 C10 1.268 . S
O26 Nd1 2.492 1_565 S
O26 C11 1.258 . S
O27 Nd1 2.483 1_565 S
O27 C11 1.239 . S
O28 Nd1 2.488 1_556 S
O28 C18 1.241 . S
O29 Nd0 2.414 1_455 S
O29 Nd1 2.688 1_556 S
O29 C18 1.273 . S
O30 Nd1 2.405 1_566 S
O30 C19 1.251 1_455 S
O31 Nd0 2.424 1_565 S
O31 C19 1.268 . S
H32 C4 0.930 . S
H33 C5 0.929 . S
H34 C7 0.930 . S
H35 C8 0.929 . S
H36 C13 0.928 . S
H37 C14 0.937 . S
H38 C16 0.930 . S
H39 C17 0.929 . S
Nd40 C42 2.836 . S
Nd40 O60 2.500 . S
Nd40 O61 2.492 . S
Nd40 O62 2.487 . S
Nd40 O63 2.682 1_655 S
Nd40 O64 2.410 . S
Nd40 O69 2.414 1_665 S
Nd40 O71 2.424 1_655 S
Nd41 C51 2.836 . S
Nd41 O63 2.414 1_545 S
Nd41 O65 2.424 . S
Nd41 O66 2.500 . S
Nd41 O67 2.492 . S
Nd41 O68 2.487 . S
Nd41 O69 2.682 . S
Nd41 O70 2.410 . S
C42 Nd40 2.836 . S
C42 C43 1.498 . S
C42 O60 1.258 . S
C42 O61 1.239 . S
C43 C42 1.498 . S
C43 C44 1.366 . S
C43 C48 1.407 . S
C44 C43 1.366 . S
C44 C45 1.392 . S
C44 H72 0.930 . S
C45 C44 1.392 . S
C45 C46 1.398 . S
C45 H73 0.929 . S
C46 C45 1.398 . S
C46 C47 1.352 . S
C47 C46 1.352 . S
C47 C48 1.384 . S
C47 H74 0.930 . S
C48 C43 1.407 . S
C48 C47 1.384 . S
C48 H75 0.929 . S
C49 O62 1.241 . S
C49 O63 1.273 1_655 S
C50 O64 1.251 1_545 S
C50 O65 1.268 1_655 S
C51 Nd41 2.836 . S
C51 C52 1.498 . S
C51 O66 1.258 . S
C51 O67 1.239 . S
C52 C51 1.498 . S
C52 C53 1.366 . S
C52 C57 1.407 . S
C53 C52 1.366 . S
C53 C54 1.392 . S
C53 H76 0.930 . S
C54 C53 1.392 . S
C54 C55 1.398 . S
C54 H77 0.929 . S
C55 C54 1.398 . S
C55 C56 1.352 . S
C56 C55 1.352 . S
C56 C57 1.384 . S
C56 H78 0.930 . S
C57 C52 1.407 . S
C57 C56 1.384 . S
C57 H79 0.929 . S
C58 O68 1.241 . S
C58 O69 1.273 . S
C59 O70 1.251 1_565 S
C59 O71 1.268 . S
O60 Nd40 2.500 . S
O60 C42 1.258 . S
O61 Nd40 2.492 . S
O61 C42 1.239 . S
O62 Nd40 2.487 . S
O62 C49 1.241 . S
O63 Nd40 2.682 1_455 S
O63 Nd41 2.414 1_565 S
O63 C49 1.273 1_455 S
O64 Nd40 2.410 . S
O64 C50 1.251 1_565 S
O65 Nd41 2.424 . S
O65 C50 1.268 1_455 S
O66 Nd41 2.500 . S
O66 C51 1.258 . S
O67 Nd41 2.492 . S
O67 C51 1.239 . S
O68 Nd41 2.487 . S
O68 C58 1.241 . S
O69 Nd40 2.414 1_445 S
O69 Nd41 2.682 . S
O69 C58 1.273 . S
O70 Nd41 2.410 . S
O70 C59 1.251 1_545 S
O71 Nd40 2.424 1_455 S
O71 C59 1.268 . S
H72 C44 0.930 . S
H73 C45 0.929 . S
H74 C47 0.930 . S
H75 C48 0.929 . S
H76 C53 0.930 . S
H77 C54 0.929 . S
H78 C56 0.930 . S
H79 C57 0.929 . S
Zn80 O86 1.920 . S
Zn80 O92 1.898 . S
Zn80 O95 1.905 . S
Zn81 O89 1.905 . S
Zn81 O90 1.898 . S
Zn81 O98 1.920 . S
Zn82 O85 2.080 . S
Zn82 O88 2.114 . S
Zn82 O91 2.120 . S
Zn82 O93 2.120 . S
Zn82 O94 2.114 . S
Zn82 O97 2.080 . S
C83 O88 1.166 . S
C83 O89 1.182 . S
C84 O90 1.167 . S
C84 O91 1.299 . S
O85 Zn82 2.080 . S
O85 C99 1.305 . S
O86 Zn80 1.920 . S
O86 C99 1.234 . S
C87 O92 1.167 . S
C87 O93 1.299 . S
O88 Zn82 2.114 . S
O88 C83 1.166 . S
O89 Zn81 1.905 . S
O89 C83 1.182 . S
O90 Zn81 1.898 . S
O90 C84 1.167 . S
O91 Zn82 2.120 . S
O91 C84 1.299 . S
O92 Zn80 1.898 . S
O92 C87 1.167 . S
O93 Zn82 2.120 . S
O93 C87 1.299 . S
O94 Zn82 2.114 . S
O94 C96 1.166 . S
O95 Zn80 1.905 . S
O95 C96 1.182 . S
C96 O94 1.166 . S
C96 O95 1.182 . S
O97 Zn82 2.080 . S
O97 C100 1.305 . S
O98 Zn81 1.920 . S
O98 C100 1.234 . S
C99 O85 1.305 . S
C99 O86 1.234 . S
C100 O97 1.305 . S
C100 O98 1.234 . S
Zn101 O107 1.920 . S
Zn101 O113 1.898 . S
Zn101 O116 1.905 . S
Zn102 O110 1.905 . S
Zn102 O111 1.898 . S
Zn102 O119 1.920 . S
Zn103 O106 2.080 . S
Zn103 O109 2.114 . S
Zn103 O112 2.120 . S
Zn103 O114 2.120 . S
Zn103 O115 2.114 . S
Zn103 O118 2.080 . S
C104 O109 1.166 . S
C104 O110 1.182 . S
C105 O111 1.167 . S
C105 O112 1.299 . S
O106 Zn103 2.080 . S
O106 C120 1.305 . S
O107 Zn101 1.920 . S
O107 C120 1.234 . S
C108 O113 1.167 . S
C108 O114 1.299 . S
O109 Zn103 2.114 . S
O109 C104 1.166 . S
O110 Zn102 1.905 . S
O110 C104 1.182 . S
O111 Zn102 1.898 . S
O111 C105 1.167 . S
O112 Zn103 2.120 . S
O112 C105 1.299 . S
O113 Zn101 1.898 . S
O113 C108 1.167 . S
O114 Zn103 2.120 . S
O114 C108 1.299 . S
O115 Zn103 2.114 . S
O115 C117 1.166 . S
O116 Zn101 1.905 . S
O116 C117 1.182 . S
C117 O115 1.166 . S
C117 O116 1.182 . S
O118 Zn103 2.080 . S
O118 C121 1.305 . S
O119 Zn102 1.920 . S
O119 C121 1.234 . S
C120 O106 1.305 . S
C120 O107 1.234 . S
C121 O118 1.305 . S
C121 O119 1.234 . S
C122 C123 1.391 . S
C122 C124 1.394 . S
C122 H138 0.931 1_455 S
C123 C122 1.391 . S
C123 C127 1.376 . S
C124 C122 1.394 . S
C124 C125 1.369 . S
C124 C128 1.531 . S
C125 C124 1.369 . S
C125 C126 1.410 . S
C125 C133 1.503 . S
C126 C125 1.410 . S
C126 C127 1.392 . S
C126 C129 1.511 . S
C127 C123 1.376 . S
C127 C126 1.392 . S
C127 H139 0.929 . S
C128 C124 1.531 . S
C128 H140 0.960 . S
C128 H141 0.962 . S
C128 H142 0.960 1_455 S
C129 C126 1.511 . S
C129 H143 0.961 . S
C129 H144 0.961 . S
C129 H145 0.961 . S
C130 C131 1.370 . S
C130 C132 1.363 . S
C130 H146 0.931 . S
C131 C130 1.370 . S
C131 C135 1.408 . S
C132 C130 1.363 . S
C132 C133 1.370 . S
C132 C136 1.524 . S
C133 C125 1.503 . S
C133 C132 1.370 . S
C133 C134 1.403 . S
C134 C133 1.403 . S
C134 C135 1.404 . S
C134 C137 1.539 . S
C135 C131 1.408 . S
C135 C134 1.404 . S
C135 H147 0.930 . S
C136 C132 1.524 . S
C136 H148 0.956 . S
C136 H149 0.961 . S
C136 H150 0.961 . S
C137 C134 1.539 . S
C137 H151 0.958 . S
C137 H152 0.961 . S
C137 H153 0.960 . S
H138 C122 0.931 1_655 S
H139 C127 0.929 . S
H140 C128 0.960 . S
H141 C128 0.962 . S
H142 C128 0.960 1_655 S
H143 C129 0.961 . S
H144 C129 0.961 . S
H145 C129 0.961 . S
H146 C130 0.931 . S
H147 C135 0.930 . S
H148 C136 0.956 . S
H149 C136 0.961 . S
H150 C136 0.961 . S
H151 C137 0.958 . S
H152 C137 0.961 . S
H153 C137 0.960 . S
C154 C155 1.391 . S
C154 C156 1.394 . S
C154 H170 0.931 . S
C155 C154 1.391 . S
C155 C159 1.376 . S
C156 C154 1.394 . S
C156 C157 1.369 . S
C156 C160 1.531 . S
C157 C156 1.369 . S
C157 C158 1.410 . S
C157 C165 1.503 . S
C158 C157 1.410 . S
C158 C159 1.392 . S
C158 C161 1.511 . S
C159 C155 1.376 . S
C159 C158 1.392 . S
C159 H171 0.929 . S
C160 C156 1.531 . S
C160 H172 0.960 . S
C160 H173 0.962 . S
C160 H174 0.960 . S
C161 C158 1.511 . S
C161 H175 0.961 . S
C161 H176 0.961 . S
C161 H177 0.961 . S
C162 C163 1.370 . S
C162 C164 1.363 . S
C162 H178 0.931 . S
C163 C162 1.370 . S
C163 C167 1.408 . S
C164 C162 1.363 . S
C164 C165 1.370 . S
C164 C168 1.524 . S
C165 C157 1.503 . S
C165 C164 1.370 . S
C165 C166 1.403 . S
C166 C165 1.403 . S
C166 C167 1.404 . S
C166 C169 1.539 . S
C167 C163 1.408 . S
C167 C166 1.404 . S
C167 H179 0.930 . S
C168 C164 1.524 . S
C168 H180 0.956 . S
C168 H181 0.961 . S
C168 H182 0.961 . S
C169 C166 1.539 . S
C169 H183 0.958 . S
C169 H184 0.961 . S
C169 H185 0.960 . S
H170 C154 0.931 . S
H171 C159 0.929 . S
H172 C160 0.960 . S
H173 C160 0.962 . S
H174 C160 0.960 . S
H175 C161 0.961 . S
H176 C161 0.961 . S
H177 C161 0.961 . S
H178 C162 0.931 . S
H179 C167 0.930 . S
H180 C168 0.956 . S
H181 C168 0.961 . S
H182 C168 0.961 . S
H183 C169 0.958 . S
H184 C169 0.961 . S
H185 C169 0.960 . S
C186 C187 1.391 . S
C186 C188 1.394 . S
C186 H202 0.931 . S
C187 C186 1.391 . S
C187 C191 1.376 . S
C188 C186 1.394 . S
C188 C189 1.369 . S
C188 C192 1.531 . S
C189 C188 1.369 . S
C189 C190 1.410 . S
C189 C197 1.503 . S
C190 C189 1.410 . S
C190 C191 1.392 . S
C190 C193 1.511 . S
C191 C187 1.376 . S
C191 C190 1.392 . S
C191 H203 0.929 . S
C192 C188 1.531 . S
C192 H204 0.960 . S
C192 H205 0.962 . S
C192 H206 0.960 . S
C193 C190 1.511 . S
C193 H207 0.961 . S
C193 H208 0.961 . S
C193 H209 0.961 . S
C194 C195 1.370 . S
C194 C196 1.363 . S
C194 H210 0.931 . S
C195 C194 1.370 . S
C195 C199 1.408 . S
C196 C194 1.363 . S
C196 C197 1.370 . S
C196 C200 1.524 . S
C197 C189 1.503 . S
C197 C196 1.370 . S
C197 C198 1.403 . S
C198 C197 1.403 . S
C198 C199 1.404 . S
C198 C201 1.539 . S
C199 C195 1.408 . S
C199 C198 1.404 . S
C199 H211 0.930 . S
C200 C196 1.524 . S
C200 H212 0.956 . S
C200 H213 0.961 . S
C200 H214 0.961 . S
C201 C198 1.539 . S
C201 H215 0.958 . S
C201 H216 0.961 . S
C201 H217 0.960 . S
H202 C186 0.931 . S
H203 C191 0.929 . S
H204 C192 0.960 . S
H205 C192 0.962 . S
H206 C192 0.960 . S
H207 C193 0.961 . S
H208 C193 0.961 . S
H209 C193 0.961 . S
H210 C194 0.931 . S
H211 C199 0.930 . S
H212 C200 0.956 . S
H213 C200 0.961 . S
H214 C200 0.961 . S
H215 C201 0.958 . S
H216 C201 0.961 . S
H217 C201 0.960 . S
C218 C219 1.391 . S
C218 C220 1.394 . S
C218 H234 0.931 . S
C219 C218 1.391 . S
C219 C223 1.376 . S
C220 C218 1.394 . S
C220 C221 1.369 . S
C220 C224 1.531 . S
C221 C220 1.369 . S
C221 C222 1.410 . S
C221 C229 1.503 . S
C222 C221 1.410 . S
C222 C223 1.392 . S
C222 C225 1.511 . S
C223 C219 1.376 . S
C223 C222 1.392 . S
C223 H235 0.929 . S
C224 C220 1.531 . S
C224 H236 0.960 . S
C224 H237 0.962 . S
C224 H238 0.960 . S
C225 C222 1.511 . S
C225 H239 0.961 . S
C225 H240 0.961 . S
C225 H241 0.961 . S
C226 C227 1.370 . S
C226 C228 1.363 . S
C226 H242 0.931 . S
C227 C226 1.370 . S
C227 C231 1.408 . S
C228 C226 1.363 . S
C228 C229 1.370 . S
C228 C232 1.524 . S
C229 C221 1.503 . S
C229 C228 1.370 . S
C229 C230 1.403 . S
C230 C229 1.403 . S
C230 C231 1.404 . S
C230 C233 1.539 . S
C231 C227 1.408 . S
C231 C230 1.404 . S
C231 H243 0.930 . S
C232 C228 1.524 . S
C232 H244 0.954 1_655 S
C232 H245 0.961 . S
C232 H246 0.961 . S
C233 C230 1.539 . S
C233 H247 0.958 . S
C233 H248 0.961 . S
C233 H249 0.960 . S
H234 C218 0.931 . S
H235 C223 0.929 . S
H236 C224 0.960 . S
H237 C224 0.962 . S
H238 C224 0.960 . S
H239 C225 0.961 . S
H240 C225 0.961 . S
H241 C225 0.961 . S
H242 C226 0.931 . S
H243 C231 0.930 . S
H244 C232 0.954 1_455 S
H245 C232 0.961 . S
H246 C232 0.961 . S
H247 C233 0.958 . S
H248 C233 0.961 . S
H249 C233 0.960 . S
C250 C251 1.391 . S
C250 C252 1.394 . S
C250 H266 0.931 . S
C251 C250 1.391 . S
C251 C255 1.376 . S
C252 C250 1.394 . S
C252 C253 1.369 . S
C252 C256 1.531 . S
C253 C252 1.369 . S
C253 C254 1.410 . S
C253 C261 1.503 . S
C254 C253 1.410 . S
C254 C255 1.392 . S
C254 C257 1.511 . S
C255 C251 1.376 . S
C255 C254 1.392 . S
C255 H267 0.929 . S
C256 C252 1.531 . S
C256 H268 0.960 . S
C256 H269 0.962 . S
C256 H270 0.960 . S
C257 C254 1.511 . S
C257 H271 0.961 . S
C257 H272 0.961 . S
C257 H273 0.961 . S
C258 C259 1.370 . S
C258 C260 1.363 . S
C258 H274 0.931 . S
C259 C258 1.370 . S
C259 C263 1.408 . S
C260 C258 1.363 . S
C260 C261 1.370 . S
C260 C264 1.524 . S
C261 C253 1.503 . S
C261 C260 1.370 . S
C261 C262 1.403 . S
C262 C261 1.403 . S
C262 C263 1.404 . S
C262 C265 1.539 . S
C263 C259 1.408 . S
C263 C262 1.404 . S
C263 H275 0.930 . S
C264 C260 1.524 . S
C264 H276 0.956 . S
C264 H277 0.961 . S
C264 H278 0.961 . S
C265 C262 1.539 . S
C265 H279 0.958 . S
C265 H280 0.961 . S
C265 H281 0.960 . S
H266 C250 0.931 . S
H267 C255 0.929 . S
H268 C256 0.960 . S
H269 C256 0.962 . S
H270 C256 0.960 . S
H271 C257 0.961 . S
H272 C257 0.961 . S
H273 C257 0.961 . S
H274 C258 0.931 . S
H275 C263 0.930 . S
H276 C264 0.956 . S
H277 C264 0.961 . S
H278 C264 0.961 . S
H279 C265 0.958 . S
H280 C265 0.961 . S
H281 C265 0.960 . S
C282 C283 1.391 . S
C282 C284 1.394 . S
C282 H298 0.931 . S
C283 C282 1.391 . S
C283 C287 1.376 . S
C284 C282 1.394 . S
C284 C285 1.369 . S
C284 C288 1.531 . S
C285 C284 1.369 . S
C285 C286 1.410 . S
C285 C293 1.503 . S
C286 C285 1.410 . S
C286 C287 1.392 . S
C286 C289 1.511 . S
C287 C283 1.376 . S
C287 C286 1.392 . S
C287 H299 0.929 . S
C288 C284 1.531 . S
C288 H300 0.960 . S
C288 H301 0.962 . S
C288 H302 0.960 . S
C289 C286 1.511 . S
C289 H303 0.961 . S
C289 H304 0.961 . S
C289 H305 0.961 . S
C290 C291 1.370 . S
C290 C292 1.363 . S
C290 H306 0.931 . S
C291 C290 1.370 . S
C291 C295 1.408 . S
C292 C290 1.363 . S
C292 C293 1.370 . S
C292 C296 1.524 . S
C293 C285 1.503 . S
C293 C292 1.370 . S
C293 C294 1.403 . S
C294 C293 1.403 . S
C294 C295 1.404 . S
C294 C297 1.539 . S
C295 C291 1.408 . S
C295 C294 1.404 . S
C295 H307 0.930 . S
C296 C292 1.524 . S
C296 H308 0.956 . S
C296 H309 0.961 . S
C296 H310 0.961 . S
C297 C294 1.539 . S
C297 H311 0.958 . S
C297 H312 0.961 . S
C297 H313 0.960 . S
H298 C282 0.931 . S
H299 C287 0.929 . S
H300 C288 0.960 . S
H301 C288 0.962 . S
H302 C288 0.960 . S
H303 C289 0.961 . S
H304 C289 0.961 . S
H305 C289 0.961 . S
H306 C290 0.931 . S
H307 C295 0.930 . S
H308 C296 0.956 . S
H309 C296 0.961 . S
H310 C296 0.961 . S
H311 C297 0.958 . S
H312 C297 0.961 . S
H313 C297 0.960 . S
C314 C315 1.391 . S
C314 C316 1.394 . S
C314 H330 0.931 . S
C315 C314 1.391 . S
C315 C319 1.376 . S
C316 C314 1.394 . S
C316 C317 1.369 . S
C316 C320 1.531 . S
C317 C316 1.369 . S
C317 C318 1.410 . S
C317 C325 1.503 . S
C318 C317 1.410 . S
C318 C319 1.392 . S
C318 C321 1.511 . S
C319 C315 1.376 . S
C319 C318 1.392 . S
C319 H331 0.929 . S
C320 C316 1.531 . S
C320 H332 0.960 . S
C320 H333 0.962 . S
C320 H334 0.960 . S
C321 C318 1.511 . S
C321 H335 0.961 . S
C321 H336 0.961 . S
C321 H337 0.961 . S
C322 C323 1.370 . S
C322 C324 1.363 . S
C322 H338 0.931 . S
C323 C322 1.370 . S
C323 C327 1.408 . S
C324 C322 1.363 . S
C324 C325 1.370 . S
C324 C328 1.524 . S
C325 C317 1.503 . S
C325 C324 1.370 . S
C325 C326 1.403 . S
C326 C325 1.403 . S
C326 C327 1.404 . S
C326 C329 1.539 . S
C327 C323 1.408 . S
C327 C326 1.404 . S
C327 H339 0.930 . S
C328 C324 1.524 . S
C328 H340 0.956 . S
C328 H341 0.961 . S
C328 H342 0.961 . S
C329 C326 1.539 . S
C329 H343 0.958 . S
C329 H344 0.961 . S
C329 H345 0.960 . S
H330 C314 0.931 . S
H331 C319 0.929 . S
H332 C320 0.960 . S
H333 C320 0.962 . S
H334 C320 0.960 . S
H335 C321 0.961 . S
H336 C321 0.961 . S
H337 C321 0.961 . S
H338 C322 0.931 . S
H339 C327 0.930 . S
H340 C328 0.956 . S
H341 C328 0.961 . S
H342 C328 0.961 . S
H343 C329 0.958 . S
H344 C329 0.961 . S
H345 C329 0.960 . S
C346 C347 1.391 . S
C346 C348 1.394 . S
C346 H362 0.931 . S
C347 C346 1.391 . S
C347 C351 1.376 . S
C348 C346 1.394 . S
C348 C349 1.369 . S
C348 C352 1.531 . S
C349 C348 1.369 . S
C349 C350 1.410 . S
C349 C357 1.503 . S
C350 C349 1.410 . S
C350 C351 1.392 . S
C350 C353 1.511 . S
C351 C347 1.376 . S
C351 C350 1.392 . S
C351 H363 0.929 . S
C352 C348 1.531 . S
C352 H364 0.960 . S
C352 H365 0.962 . S
C352 H366 0.960 . S
C353 C350 1.511 . S
C353 H367 0.961 . S
C353 H368 0.961 . S
C353 H369 0.961 . S
C354 C355 1.370 . S
C354 C356 1.363 . S
C354 H370 0.931 . S
C355 C354 1.370 . S
C355 C359 1.408 . S
C356 C354 1.363 . S
C356 C357 1.370 . S
C356 C360 1.524 . S
C357 C349 1.503 . S
C357 C356 1.370 . S
C357 C358 1.403 . S
C358 C357 1.403 . S
C358 C359 1.404 . S
C358 C361 1.539 . S
C359 C355 1.408 . S
C359 C358 1.404 . S
C359 H371 0.930 . S
C360 C356 1.524 . S
C360 H372 0.956 . S
C360 H373 0.961 . S
C360 H374 0.961 . S
C361 C358 1.539 . S
C361 H375 0.958 . S
C361 H376 0.961 . S
C361 H377 0.960 . S
H362 C346 0.931 . S
H363 C351 0.929 . S
H364 C352 0.960 . S
H365 C352 0.962 . S
H366 C352 0.960 . S
H367 C353 0.961 . S
H368 C353 0.961 . S
H369 C353 0.961 . S
H370 C354 0.931 . S
H371 C359 0.930 . S
H372 C360 0.956 . S
H373 C360 0.961 . S
H374 C360 0.961 . S
H375 C361 0.958 . S
H376 C361 0.961 . S
H377 C361 0.960 . S
C378 C379 1.391 . S
C378 C380 1.394 . S
C378 H394 0.931 . S
C379 C378 1.391 . S
C379 C383 1.376 . S
C380 C378 1.394 . S
C380 C381 1.369 . S
C380 C384 1.531 . S
C381 C380 1.369 . S
C381 C382 1.410 . S
C381 C389 1.503 . S
C382 C381 1.410 . S
C382 C383 1.392 . S
C382 C385 1.511 . S
C383 C379 1.376 . S
C383 C382 1.392 . S
C383 H395 0.929 . S
C384 C380 1.531 . S
C384 H396 0.960 . S
C384 H397 0.962 . S
C384 H398 0.960 1_455 S
C385 C382 1.511 . S
C385 H399 0.961 . S
C385 H400 0.961 . S
C385 H401 0.961 . S
C386 C387 1.370 . S
C386 C388 1.363 . S
C386 H402 0.931 . S
C387 C386 1.370 . S
C387 C391 1.408 . S
C388 C386 1.363 . S
C388 C389 1.370 . S
C388 C392 1.524 . S
C389 C381 1.503 . S
C389 C388 1.370 . S
C389 C390 1.403 . S
C390 C389 1.403 . S
C390 C391 1.404 . S
C390 C393 1.539 . S
C391 C387 1.408 . S
C391 C390 1.404 . S
C391 H403 0.930 . S
C392 C388 1.524 . S
C392 H404 0.956 . S
C392 H405 0.961 . S
C392 H406 0.961 . S
C393 C390 1.539 . S
C393 H407 0.958 . S
C393 H408 0.961 . S
C393 H409 0.960 . S
H394 C378 0.931 . S
H395 C383 0.929 . S
H396 C384 0.960 . S
H397 C384 0.962 . S
H398 C384 0.960 1_655 S
H399 C385 0.961 . S
H400 C385 0.961 . S
H401 C385 0.961 . S
H402 C386 0.931 . S
H403 C391 0.930 . S
H404 C392 0.956 . S
H405 C392 0.961 . S
H406 C392 0.961 . S
H407 C393 0.958 . S
H408 C393 0.961 . S
H409 C393 0.960 . S
C410 C411 1.391 . S
C410 C412 1.394 . S
C410 H426 0.931 . S
C411 C410 1.391 . S
C411 C415 1.376 . S
C412 C410 1.394 . S
C412 C413 1.369 . S
C412 C416 1.531 . S
C413 C412 1.369 . S
C413 C414 1.410 . S
C413 C421 1.503 . S
C414 C413 1.410 . S
C414 C415 1.392 . S
C414 C417 1.511 . S
C415 C411 1.376 . S
C415 C414 1.392 . S
C415 H427 0.929 1_655 S
C416 C412 1.531 . S
C416 H428 0.960 . S
C416 H429 0.962 . S
C416 H430 0.960 . S
C417 C414 1.511 . S
C417 H431 0.961 1_655 S
C417 H432 0.961 . S
C417 H433 0.961 . S
C418 C419 1.370 . S
C418 C420 1.363 . S
C418 H434 0.931 . S
C419 C418 1.370 . S
C419 C423 1.408 . S
C420 C418 1.363 . S
C420 C421 1.370 . S
C420 C424 1.524 . S
C421 C413 1.503 . S
C421 C420 1.370 . S
C421 C422 1.403 . S
C422 C421 1.403 . S
C422 C423 1.404 . S
C422 C425 1.539 . S
C423 C419 1.408 . S
C423 C422 1.404 . S
C423 H435 0.930 . S
C424 C420 1.524 . S
C424 H436 0.956 . S
C424 H437 0.961 . S
C424 H438 0.961 . S
C425 C422 1.539 . S
C425 H439 0.958 . S
C425 H440 0.961 . S
C425 H441 0.960 . S
H426 C410 0.931 . S
H427 C415 0.929 1_455 S
H428 C416 0.960 . S
H429 C416 0.962 . S
H430 C416 0.960 . S
H431 C417 0.961 1_455 S
H432 C417 0.961 . S
H433 C417 0.961 . S
H434 C418 0.931 . S
H435 C423 0.930 . S
H436 C424 0.956 . S
H437 C424 0.961 . S
H438 C424 0.961 . S
H439 C425 0.958 . S
H440 C425 0.961 . S
H441 C425 0.960 . S
C442 C443 1.391 . S
C442 C444 1.394 . S
C442 H458 0.931 . S
C443 C442 1.391 . S
C443 C447 1.376 . S
C444 C442 1.394 . S
C444 C445 1.369 . S
C444 C448 1.531 . S
C445 C444 1.369 . S
C445 C446 1.410 . S
C445 C453 1.503 . S
C446 C445 1.410 . S
C446 C447 1.392 . S
C446 C449 1.511 . S
C447 C443 1.376 . S
C447 C446 1.392 . S
C447 H459 0.929 . S
C448 C444 1.531 . S
C448 H460 0.960 . S
C448 H461 0.962 . S
C448 H462 0.960 . S
C449 C446 1.511 . S
C449 H463 0.961 . S
C449 H464 0.961 . S
C449 H465 0.961 . S
C450 C451 1.370 . S
C450 C452 1.363 . S
C450 H466 0.931 . S
C451 C450 1.370 . S
C451 C455 1.408 . S
C452 C450 1.363 . S
C452 C453 1.370 . S
C452 C456 1.524 . S
C453 C445 1.503 . S
C453 C452 1.370 . S
C453 C454 1.403 . S
C454 C453 1.403 . S
C454 C455 1.404 . S
C454 C457 1.539 . S
C455 C451 1.408 . S
C455 C454 1.404 . S
C455 H467 0.930 . S
C456 C452 1.524 . S
C456 H468 0.956 . S
C456 H469 0.961 . S
C456 H470 0.961 . S
C457 C454 1.539 . S
C457 H471 0.958 . S
C457 H472 0.961 . S
C457 H473 0.960 . S
H458 C442 0.931 . S
H459 C447 0.929 . S
H460 C448 0.960 . S
H461 C448 0.962 . S
H462 C448 0.960 . S
H463 C449 0.961 . S
H464 C449 0.961 . S
H465 C449 0.961 . S
H466 C450 0.931 . S
H467 C455 0.930 . S
H468 C456 0.956 . S
H469 C456 0.961 . S
H470 C456 0.961 . S
H471 C457 0.958 . S
H472 C457 0.961 . S
H473 C457 0.960 . S
C474 C475 1.391 . S
C474 C476 1.394 . S
C474 H490 0.931 . S
C475 C474 1.391 . S
C475 C479 1.376 . S
C476 C474 1.394 . S
C476 C477 1.369 . S
C476 C480 1.531 . S
C477 C476 1.369 . S
C477 C478 1.410 . S
C477 C485 1.503 . S
C478 C477 1.410 . S
C478 C479 1.392 . S
C478 C481 1.511 . S
C479 C475 1.376 . S
C479 C478 1.392 . S
C479 H491 0.929 . S
C480 C476 1.531 . S
C480 H492 0.960 . S
C480 H493 0.962 . S
C480 H494 0.960 . S
C481 C478 1.511 . S
C481 H495 0.961 . S
C481 H496 0.961 . S
C481 H497 0.961 . S
C482 C483 1.370 . S
C482 C484 1.363 . S
C482 H498 0.931 . S
C483 C482 1.370 . S
C483 C487 1.408 . S
C484 C482 1.363 . S
C484 C485 1.370 . S
C484 C488 1.524 . S
C485 C477 1.503 . S
C485 C484 1.370 . S
C485 C486 1.403 . S
C486 C485 1.403 . S
C486 C487 1.404 . S
C486 C489 1.539 . S
C487 C483 1.408 . S
C487 C486 1.404 . S
C487 H499 0.930 . S
C488 C484 1.524 . S
C488 H500 0.956 1_655 S
C488 H501 0.961 . S
C488 H502 0.961 1_655 S
C489 C486 1.539 . S
C489 H503 0.958 . S
C489 H504 0.961 . S
C489 H505 0.960 . S
H490 C474 0.931 . S
H491 C479 0.929 . S
H492 C480 0.960 . S
H493 C480 0.962 . S
H494 C480 0.960 . S
H495 C481 0.961 . S
H496 C481 0.961 . S
H497 C481 0.961 . S
H498 C482 0.931 . S
H499 C487 0.930 . S
H500 C488 0.956 1_455 S
H501 C488 0.961 . S
H502 C488 0.961 1_455 S
H503 C489 0.958 . S
H504 C489 0.961 . S
H505 C489 0.960 . S
C123 C15 1.460 . S
C131 C99 1.337 . S
C155 C55 0.933 . S
C163 C105 0.866 . S
C187 C10 1.296 . S
C195 C96 1.248 . S
C219 C50 1.990 . S
C227 C121 1.851 . S
C251 C9 1.997 . S
C259 C87 1.996 . S
C291 C104 1.857 . S
C283 C49 1.943 . S
C315 C59 1.681 . S
C323 C100 1.630 . S
C355 C117 2.201 . S
C347 C18 2.240 . S
C387 C84 2.095 . S
C379 C58 2.281 . S
C419 C120 1.421 . S
C411 C6 1.567 . S
C451 C83 0.966 . S
C443 C46 0.959 . S
C483 C108 0.986 . S
C475 C19 1.110 . S
