# Generated by pormake.
# Topology nia, (6,6)-cn, num edge types: 1
# Building blocks:
#     Node 0, Type 0, BuildingBlock: BETDAH_clean_sbu_0, # of connection points: 6
#     Node 1, Type 0, BuildingBlock: BETDAH_clean_sbu_0, # of connection points: 6
#     Node 2, Type 1, BuildingBlock: MIDCAF_clean_sbu_0, # of connection points: 6
#     Node 3, Type 1, BuildingBlock: MIDCAF_clean_sbu_0, # of connection points: 6
#     Edge 4, Type (0, 1), BuildingBlock: FUNLAD_clean_linker_0, # of connection points: 2
#     Edge 5, Type (0, 1), BuildingBlock: FUNLAD_clean_linker_0, # of connection points: 2
#     Edge 6, Type (0, 1), BuildingBlock: FUNLAD_clean_linker_0, # of connection points: 2
#     Edge 7, Type (0, 1), BuildingBlock: FUNLAD_clean_linker_0, # of connection points: 2
#     Edge 8, Type (0, 1), BuildingBlock: FUNLAD_clean_linker_0, # of connection points: 2
#     Edge 9, Type (0, 1), BuildingBlock: FUNLAD_clean_linker_0, # of connection points: 2
#     Edge 10, Type (0, 1), BuildingBlock: FUNLAD_clean_linker_0, # of connection points: 2
#     Edge 11, Type (0, 1), BuildingBlock: FUNLAD_clean_linker_0, # of connection points: 2
#     Edge 12, Type (0, 1), BuildingBlock: FUNLAD_clean_linker_0, # of connection points: 2
#     Edge 13, Type (0, 1), BuildingBlock: FUNLAD_clean_linker_0, # of connection points: 2
#     Edge 14, Type (0, 1), BuildingBlock: FUNLAD_clean_linker_0, # of connection points: 2
#     Edge 15, Type (0, 1), BuildingBlock: FUNLAD_clean_linker_0, # of connection points: 2
# Relax obj value: 0.307
# Max RMSD: 0.264
# Mean RMSD: 0.244
data_MOF--net-nia--node1-BETDAH_clean_sbu_0--node2-MIDCAF_clean_sbu_0--edge1-FUNLAD_clean_linker_0
_symmetry_space_group_name_H-M    P1
_symmetry_Int_Tables_number       1
_symmetry_cell_setting            triclinic
loop_
_symmetry_equiv_pos_as_xyz
'x, y, z'
_cell_length_a     29.242419
_cell_length_b     31.998397
_cell_length_c     39.153425
_cell_angle_alpha  73.788027
_cell_angle_beta   100.02972
_cell_angle_gamma 127.03245
loop_
_atom_site_label
_atom_site_type_symbol
_atom_site_fract_x
_atom_site_fract_y
_atom_site_fract_z
_atom_type_partial_charge
Ho0 Ho 0.06587 0.05213 0.0303 0.0
Ho1 Ho 0.9757 0.94938 1.00023 0.0
C2 C 0.97292 0.05275 0.97029 0.0
C3 C 0.14768 0.14665 0.04011 0.0
C4 C 0.15341 0.18396 0.05785 0.0
C5 C 0.20149 0.23742 0.05122 0.0
C6 C 0.21086 0.27194 0.07106 0.0
C7 C 0.17232 0.25307 0.09787 0.0
C8 C 0.1225 0.20012 0.10307 0.0
C9 C 0.11304 0.16574 0.08308 0.0
C10 C 0.96664 0.97769 0.06836 0.0
C11 C 0.07659 0.95503 0.05341 0.0
C12 C 0.89095 0.85446 0.994 0.0
C13 C 0.89237 0.81608 0.98197 0.0
C14 C 0.84178 0.77045 0.97277 0.0
C15 C 0.8446 0.7395 0.95532 0.0
C16 C 0.89804 0.75476 0.94646 0.0
C17 C 0.94851 0.79899 0.95721 0.0
C18 C 0.94567 0.82919 0.97518 0.0
C19 C 0.07585 0.0119 0.96251 0.0
O20 O 0.02212 0.08101 0.9873 0.0
O21 O 0.94411 0.00017 0.97397 0.0
O22 O 0.13808 0.10248 0.06123 0.0
O23 O 0.11562 0.13835 0.01147 0.0
O24 O 0.01586 0.01 0.08222 0.0
O25 O 0.97254 0.99061 0.03522 0.0
O26 O 0.02197 0.92368 0.04412 0.0
O27 O 0.1057 0.00781 0.04407 0.0
O28 O 0.90472 0.89747 0.96925 0.0
O29 O 0.91672 0.86538 0.02453 0.0
O30 O 0.02979 0.96842 0.95471 0.0
O31 O 0.06393 0.01855 0.9889 0.0
H32 H 0.23261 0.25198 0.0315 0.0
H33 H 0.24897 0.31296 0.06608 0.0
H34 H 0.09227 0.18456 0.12366 0.0
H35 H 0.07542 0.12444 0.08823 0.0
H36 H 0.80044 0.7602 0.97766 0.0
H37 H 0.80524 0.70546 0.94702 0.0
H38 H 0.99001 0.81104 0.95073 0.0
H39 H 0.98514 0.86433 0.98229 0.0
Ho40 Ho 0.0008 0.02684 0.52586 0.0
Ho41 Ho 0.05511 0.97797 0.49797 0.0
C42 C 0.93571 0.959 0.46475 0.0
C43 C 0.97964 0.09038 0.53501 0.0
C44 C 0.93767 0.08896 0.55205 0.0
C45 C 0.92708 0.12757 0.53713 0.0
C46 C 0.89181 0.13079 0.55447 0.0
C47 C 0.86662 0.09546 0.58718 0.0
C48 C 0.87601 0.0557 0.60161 0.0
C49 C 0.91115 0.05234 0.5841 0.0
C50 C 0.95842 0.92255 0.56174 0.0
C51 C 0.1147 0.0401 0.5615 0.0
C52 C 0.08084 0.91655 0.49117 0.0
C53 C 0.11845 0.91856 0.46954 0.0
C54 C 0.13068 0.88075 0.48099 0.0
C55 C 0.1639 0.87981 0.46008 0.0
C56 C 0.18533 0.91671 0.4273 0.0
C57 C 0.17492 0.95605 0.41653 0.0
C58 C 0.14153 0.95692 0.43754 0.0
C59 C 0.09875 0.08221 0.46156 0.0
O60 O 0.94397 -0.00436 0.47954 0.0
O61 O 0.96875 0.94203 0.47108 0.0
O62 O 0.0123 0.07897 0.55639 0.0
O63 O 0.9623 0.06964 0.50688 0.0
O64 O 0.94288 0.95014 0.56815 0.0
O65 O 0.99446 0.95315 0.53723 0.0
O66 O 0.10155 -0.00051 0.54922 0.0
O67 O 0.08865 0.06389 0.55009 0.0
O68 O 0.03766 0.91616 0.47452 0.0
O69 O 0.10652 0.94787 0.51382 0.0
O70 O 0.11337 0.0535 0.45598 0.0
O71 O 0.06245 0.05284 0.48618 0.0
H72 H 0.94743 0.15628 0.5125 0.0
H73 H 0.88598 0.16224 0.54287 0.0
H74 H 0.85663 0.02757 0.62656 0.0
H75 H 0.91862 0.02201 0.59597 0.0
H76 H 0.11367 0.85131 0.50586 0.0
H77 H 0.17211 0.84965 0.46928 0.0
H78 H 0.19079 0.98479 0.39133 0.0
H79 H 0.13274 0.98669 0.42852 0.0
Zn80 Zn 0.38109 0.72059 0.16019 0.0
Zn81 Zn 0.37954 0.66498 0.3213 0.0
Zn82 Zn 0.38156 0.68404 0.25427 0.0
C83 C 0.49234 0.71543 0.30201 0.0
C84 C 0.30553 0.56403 0.3092 0.0
O85 O 0.33748 0.72506 0.23126 0.0
O86 O 0.34271 0.75 0.17162 0.0
C87 C 0.49354 0.75175 0.20173 0.0
O88 O 0.47197 0.72232 0.27067 0.0
O89 O 0.45921 0.6867 0.32838 0.0
O90 O 0.31638 0.58733 0.33379 0.0
O91 O 0.32805 0.59284 0.27824 0.0
O92 O 0.46423 0.75142 0.17361 0.0
O93 O 0.47039 0.72933 0.23298 0.0
O94 O 0.34265 0.64297 0.21511 0.0
O95 O 0.32702 0.64221 0.15855 0.0
C96 C 0.3183 0.6172 0.19075 0.0
O97 O 0.35242 0.72619 0.26771 0.0
O98 O 0.36812 0.7183 0.32569 0.0
C99 C 0.32629 0.74672 0.20075 0.0
C100 C 0.35385 0.73782 0.29693 0.0
Zn101 Zn 0.66544 0.29539 0.83957 0.0
Zn102 Zn 0.65183 0.33548 0.70306 0.0
Zn103 Zn 0.65945 0.31631 0.77226 0.0
C104 C 0.725 0.43729 0.71481 0.0
C105 C 0.54152 0.27834 0.72943 0.0
O106 O 0.70235 0.27234 0.79171 0.0
O107 O 0.69625 0.25339 0.8502 0.0
C108 C 0.73959 0.40692 0.81467 0.0
O109 O 0.70981 0.4081 0.74696 0.0
O110 O 0.70874 0.41456 0.68913 0.0
O111 O 0.56924 0.30587 0.70081 0.0
O112 O 0.56759 0.27561 0.75919 0.0
O113 O 0.72407 0.37058 0.84272 0.0
O114 O 0.71728 0.39536 0.78439 0.0
O115 O 0.56988 0.2679 0.79649 0.0
O116 O 0.58638 0.25806 0.85437 0.0
C117 C 0.55135 0.24991 0.82877 0.0
O118 O 0.69111 0.27824 0.75477 0.0
O119 O 0.67121 0.28819 0.69707 0.0
C120 C 0.71202 0.25147 0.82307 0.0
C121 C 0.68953 0.26976 0.72416 0.0
C122 C 0.0793 0.87574 0.08654 0.0
C123 C 0.107 0.93157 0.07472 0.0
C124 C 0.10931 0.85502 0.1065 0.0
C125 C 0.16785 0.88977 0.11506 0.0
C126 C 0.19503 0.94534 0.10326 0.0
C127 C 0.16524 0.96589 0.08362 0.0
C128 C 0.20371 0.87095 0.13422 0.0
C129 C 0.18353 0.82129 0.15458 0.0
C130 C 0.22101 0.80329 0.17174 0.0
C131 C 0.19617 0.74793 0.18249 0.0
C132 C 0.23024 0.72927 0.19504 0.0
C133 C 0.28999 0.76553 0.19773 0.0
H134 H 0.30195 0.88231 0.17014 0.0
C135 C 0.31474 0.82069 0.18902 0.0
C136 C 0.28072 0.83943 0.17661 0.0
H137 H 0.36081 0.84945 0.19036 0.0
H138 H 0.03456 0.84801 0.08018 0.0
H139 H 0.08677 0.81193 0.11435 0.0
H140 H 0.23997 0.97333 0.10916 0.0
H141 H 0.18839 0.00907 0.07522 0.0
H142 H 0.24959 0.90036 0.13085 0.0
H143 H 0.1376 0.79163 0.15779 0.0
H144 H 0.15045 0.71888 0.17954 0.0
H145 H 0.2102 0.68651 0.2008 0.0
C146 C 0.17578 0.10376 0.60184 0.0
C147 C 0.15974 0.05952 0.58929 0.0
C148 C 0.21827 0.12255 0.62792 0.0
C149 C 0.24564 0.09723 0.64244 0.0
C150 C 0.22944 0.05289 0.62991 0.0
C151 C 0.18692 0.03414 0.60371 0.0
C152 C 0.29423 0.11837 0.66828 0.0
C153 C 0.30814 0.15508 0.68615 0.0
C154 C 0.36425 0.18462 0.70432 0.0
C155 C 0.39519 0.24052 0.69874 0.0
C156 C 0.4524 0.27118 0.70949 0.0
C157 C 0.47881 0.2462 0.72719 0.0
H158 H 0.36613 0.11604 0.72944 0.0
C159 C 0.44642 0.18996 0.73591 0.0
C160 C 0.38952 0.15925 0.7242 0.0
H161 H 0.46635 0.17005 0.74928 0.0
H162 H 0.15602 0.12454 0.59123 0.0
H163 H 0.23021 0.15783 0.63564 0.0
H164 H 0.25013 0.03291 0.6402 0.0
H165 H 0.17564 -9e-05 0.59469 0.0
H166 H 0.32196 0.10559 0.67087 0.0
H167 H 0.28184 0.16919 0.6838 0.0
H168 H 0.37644 0.26086 0.68369 0.0
H169 H 0.47692 0.31458 0.70232 0.0
C170 C 0.14371 0.28878 0.13239 0.0
C171 C 0.18613 0.28719 0.12208 0.0
C172 C 0.15699 0.3205 0.15578 0.0
C173 C 0.21306 0.35096 0.16942 0.0
C174 C 0.25511 0.34872 0.15929 0.0
C175 C 0.24183 0.31714 0.13591 0.0
C176 C 0.23171 0.3904 0.19061 0.0
C177 C 0.19647 0.39655 0.203 0.0
C178 C 0.21993 0.44893 0.20977 0.0
C179 C 0.19492 0.47517 0.19177 0.0
C180 C 0.22639 0.53064 0.18654 0.0
C181 C 0.28211 0.55938 0.20017 0.0
H182 H 0.29317 0.45772 0.24092 0.0
C183 C 0.3046 0.53269 0.22161 0.0
C184 C 0.27349 0.47746 0.22654 0.0
H185 H 0.34767 0.55488 0.23246 0.0
H186 H 0.10053 0.26634 0.12181 0.0
H187 H 0.12342 0.32191 0.16196 0.0
H188 H 0.29877 0.37222 0.16903 0.0
H189 H 0.27516 0.31592 0.12884 0.0
H190 H 0.27777 0.42024 0.19213 0.0
H191 H 0.15035 0.36875 0.2011 0.0
H192 H 0.15354 0.45366 0.1788 0.0
H193 H 0.20843 0.55126 0.17056 0.0
C194 C 0.8419 0.10067 0.64342 0.0
C195 C 0.83313 0.10219 0.60675 0.0
C196 C 0.81448 0.11228 0.66112 0.0
C197 C 0.77781 0.12578 0.64238 0.0
C198 C 0.76714 0.1248 0.60612 0.0
C199 C 0.79462 0.11339 0.58846 0.0
C200 C 0.75035 0.14186 0.65911 0.0
C201 C 0.77022 0.16178 0.68875 0.0
C202 C 0.74635 0.18453 0.70169 0.0
C203 C 0.78178 0.22474 0.7212 0.0
C204 C 0.76262 0.25124 0.73015 0.0
C205 C 0.70763 0.23757 0.71986 0.0
H206 H 0.66027 0.13635 0.68006 0.0
C207 C 0.67118 0.19561 0.70209 0.0
C208 C 0.68993 0.16876 0.69355 0.0
H209 H 0.62831 0.18415 0.69427 0.0
H210 H 0.8714 0.0922 0.65823 0.0
H211 H 0.82249 0.1109 0.6893 0.0
H212 H 0.73851 0.13429 0.5911 0.0
H213 H 0.78625 0.11397 0.56033 0.0
H214 H 0.71531 0.14176 0.64427 0.0
H215 H 0.80847 0.1666 0.70196 0.0
H216 H 0.82514 0.23721 0.72826 0.0
H217 H 0.79139 0.28368 0.74384 0.0
C218 C 0.90589 0.93947 0.1228 0.0
C219 C 0.9101 0.94556 0.08617 0.0
C220 C 0.85225 0.91265 0.13844 0.0
C221 C 0.80167 0.89156 0.11767 0.0
C222 C 0.80621 0.89684 0.08129 0.0
C223 C 0.85939 0.92303 0.06584 0.0
C224 C 0.74402 0.86761 0.13158 0.0
C225 C 0.72785 0.84704 0.16615 0.0
C226 C 0.66923 0.82494 0.17742 0.0
C227 C 0.64234 0.7819 0.20718 0.0
C228 C 0.58594 0.75892 0.21648 0.0
C229 C 0.5558 0.77932 0.19661 0.0
H230 H 0.65935 0.88087 0.13653 0.0
C231 C 0.58392 0.82394 0.16803 0.0
C232 C 0.63966 0.84651 0.15868 0.0
H233 H 0.56221 0.84099 0.15228 0.0
H234 H 0.94417 0.95648 0.1392 0.0
H235 H 0.85093 0.91024 0.16641 0.0
H236 H 0.76833 0.8813 0.06444 0.0
H237 H 0.86087 0.92684 0.0376 0.0
H238 H 0.71229 0.86557 0.11159 0.0
H239 H 0.75681 0.84402 0.18641 0.0
H240 H 0.66419 0.76477 0.22249 0.0
H241 H 0.5653 0.72415 0.23832 0.0
C242 C 0.89679 0.83783 0.60791 0.0
C243 C 0.93656 0.86584 0.58005 0.0
C244 C 0.87532 0.78437 0.62525 0.0
C245 C 0.893 0.75701 0.61524 0.0
C246 C 0.93288 0.78537 0.58728 0.0
C247 C 0.95442 0.83888 0.57003 0.0
C248 C 0.87034 0.69907 0.63208 0.0
C249 C 0.83643 0.66818 0.66138 0.0
C250 C 0.81212 0.60961 0.6771 0.0
C251 C 0.76763 0.57928 0.70226 0.0
C252 C 0.74128 0.52396 0.7162 0.0
C253 C 0.75939 0.49732 0.70604 0.0
H254 H 0.86575 0.60402 0.64914 0.0
C255 C 0.80481 0.52771 0.68169 0.0
C256 C 0.83109 0.58293 0.66765 0.0
H257 H 0.81919 0.50828 0.67275 0.0
H258 H 0.88191 0.85725 0.6163 0.0
H259 H 0.84438 0.76485 0.64609 0.0
H260 H 0.94753 0.76598 0.57858 0.0
H261 H 0.98486 0.85903 0.5487 0.0
H262 H 0.88216 0.6812 0.61896 0.0
H263 H 0.82412 0.68573 0.67442 0.0
H264 H 0.75162 0.59805 0.71028 0.0
H265 H 0.70463 0.50148 0.73339 0.0
C266 C 0.1915 0.86045 0.39814 0.0
C267 C 0.21488 0.91138 0.40355 0.0
C268 C 0.21865 0.85423 0.37618 0.0
C269 C 0.26982 0.89893 0.35889 0.0
C270 C 0.29358 0.94991 0.36442 0.0
C271 C 0.26595 0.95624 0.38628 0.0
C272 C 0.30115 0.89173 0.33787 0.0
C273 C 0.27341 0.85185 0.32023 0.0
C274 C 0.30053 0.83123 0.30852 0.0
C275 C 0.26765 0.79213 0.28802 0.0
C276 C 0.28619 0.76313 0.28276 0.0
C277 C 0.33813 0.77319 0.29762 0.0
H278 H 0.38044 0.87172 0.33845 0.0
C279 C 0.37247 0.8139 0.31657 0.0
C280 C 0.35405 0.84286 0.32194 0.0
H281 H 0.41265 0.82192 0.32841 0.0
H282 H 0.152 0.82521 0.41094 0.0
H283 H 0.20019 0.81402 0.37367 0.0
H284 H 0.33356 0.98476 0.35191 0.0
H285 H 0.28507 -0.0041 0.39028 0.0
H286 H 0.34758 0.91801 0.3387 0.0
H287 H 0.2272 0.82979 0.31693 0.0
H288 H 0.22598 0.78181 0.27774 0.0
H289 H 0.25823 0.73054 0.26918 0.0
C290 C 0.18364 0.07646 0.95754 0.0
C291 C 0.12942 0.04832 0.94135 0.0
C292 C 0.23383 0.10587 0.93741 0.0
C293 C 0.23073 0.10877 0.9005 0.0
C294 C 0.17641 0.08263 0.88426 0.0
C295 C 0.12645 0.05199 0.90451 0.0
C296 C 0.28306 0.13828 0.87829 0.0
C297 C 0.32894 0.13781 0.89036 0.0
C298 C 0.38134 0.1633 0.86922 0.0
C299 C 0.41605 0.14538 0.88168 0.0
C300 C 0.46912 0.1715 0.86635 0.0
C301 C 0.48956 0.21656 0.8379 0.0
H302 H 0.37483 0.22204 0.82893 0.0
C303 C 0.45373 0.23298 0.82364 0.0
C304 C 0.40002 0.20664 0.83924 0.0
H305 H 0.46864 0.26803 0.80203 0.0
H306 H 0.18724 0.07419 0.9859 0.0
H307 H 0.27497 0.12636 0.95074 0.0
H308 H 0.17251 0.08444 0.85594 0.0
H309 H 0.08526 0.03087 0.89128 0.0
H310 H 0.28149 0.15666 0.85065 0.0
H311 H 0.32709 0.11501 0.91718 0.0
H312 H 0.40299 0.11195 0.90437 0.0
H313 H 0.49556 0.15771 0.8779 0.0
C314 C 0.10222 0.1675 0.44553 0.0
C315 C 0.12263 0.13888 0.44164 0.0
C316 C 0.12597 0.22066 0.4255 0.0
C317 C 0.17103 0.24659 0.4012 0.0
C318 C 0.19116 0.21759 0.39784 0.0
C319 C 0.16733 0.16487 0.41743 0.0
C320 C 0.20037 0.3039 0.37972 0.0
C321 C 0.18008 0.33396 0.37376 0.0
C322 C 0.21085 0.39191 0.35313 0.0
C323 C 0.19129 0.42147 0.35634 0.0
C324 C 0.21997 0.47623 0.33991 0.0
C325 C 0.26884 0.50367 0.3189 0.0
H326 H 0.27526 0.3981 0.32697 0.0
C327 C 0.28751 0.474 0.31438 0.0
C328 C 0.25883 0.41886 0.33105 0.0
H329 H 0.32608 0.49403 0.29951 0.0
H330 H 0.06793 0.14885 0.46395 0.0
H331 H 0.10947 0.24134 0.42965 0.0
H332 H 0.22577 0.23581 0.37974 0.0
H333 H 0.18439 0.14442 0.41362 0.0
H334 H 0.24112 0.32181 0.36811 0.0
H335 H 0.13926 0.31599 0.38533 0.0
H336 H 0.15457 0.40258 0.37278 0.0
H337 H 0.20491 0.49781 0.34474 0.0
C338 C 0.89541 0.05325 0.92968 0.0
C339 C 0.9482 0.08099 0.9477 0.0
C340 C 0.87172 0.08001 0.90949 0.0
C341 C 0.90043 0.13541 0.90672 0.0
C342 C 0.95344 0.16293 0.92442 0.0
C343 C 0.97694 0.13631 0.94452 0.0
C344 C 0.87645 0.1662 0.88764 0.0
C345 C 0.82751 0.14731 0.86795 0.0
C346 C 0.80258 0.17847 0.85323 0.0
C347 C 0.76115 0.1638 0.82565 0.0
C348 C 0.73323 0.18911 0.81394 0.0
C349 C 0.74645 0.22981 0.82951 0.0
H350 H 0.84563 0.23166 0.89026 0.0
C351 C 0.78855 0.24512 0.85641 0.0
C352 C 0.81597 0.2199 0.8682 0.0
H353 H 0.79892 0.27566 0.86945 0.0
H354 H 0.8719 0.01061 0.93148 0.0
H355 H 0.83063 0.05677 0.89675 0.0
H356 H 0.97674 0.20544 0.92313 0.0
H357 H 0.01758 0.15928 0.9579 0.0
H358 H 0.90122 0.20737 0.89045 0.0
H359 H 0.80415 0.10764 0.86262 0.0
H360 H 0.74917 0.13163 0.81381 0.0
H361 H 0.69954 0.17508 0.79409 0.0
C362 C 0.88378 0.91041 0.4152 0.0
C363 C 0.88517 0.9338 0.44126 0.0
C364 C 0.83454 0.88418 0.39435 0.0
C365 C 0.78558 0.88007 0.39976 0.0
C366 C 0.78722 0.90379 0.42557 0.0
C367 C 0.83674 0.93105 0.44577 0.0
C368 C 0.73053 0.84688 0.38161 0.0
C369 C 0.72595 0.84236 0.34781 0.0
C370 C 0.66883 0.80685 0.33243 0.0
C371 C 0.65142 0.82629 0.30003 0.0
C372 C 0.59427 0.79533 0.28861 0.0
C373 C 0.55448 0.74408 0.30903 0.0
H374 H 0.6427 0.73822 0.37633 0.0
C375 C 0.57342 0.72333 0.33996 0.0
C376 C 0.6299 0.75444 0.3516 0.0
H377 H 0.54383 0.68384 0.35615 0.0
H378 H 0.92053 0.91197 0.41114 0.0
H379 H 0.83407 0.86531 0.37511 0.0
H380 H 0.74978 0.90066 0.43042 0.0
H381 H 0.83632 0.94831 0.4658 0.0
H382 H 0.69165 0.82622 0.39659 0.0
H383 H 0.76348 0.86675 0.33099 0.0
H384 H 0.68096 0.86659 0.28479 0.0
H385 H 0.58059 0.8127 0.26506 0.0
C386 C 0.87451 0.67218 0.9333 0.0
C387 C 0.90108 0.72754 0.92333 0.0
C388 C 0.87378 0.6459 0.91002 0.0
C389 C 0.89895 0.67463 0.87621 0.0
C390 C 0.92593 0.7301 0.86642 0.0
C391 C 0.92774 0.75659 0.89007 0.0
C392 C 0.89083 0.64579 0.8497 0.0
C393 C 0.89076 0.60215 0.85949 0.0
C394 C 0.861 0.55962 0.83917 0.0
C395 C 0.87154 0.52053 0.84877 0.0
C396 C 0.83389 0.47205 0.83815 0.0
C397 C 0.78519 0.462 0.81774 0.0
H398 H 0.80389 0.57948 0.8091 0.0
C399 C 0.77665 0.50225 0.80584 0.0
C400 C 0.81449 0.55104 0.81629 0.0
H401 H 0.73804 0.49415 0.79144 0.0
H402 H 0.85349 0.64922 0.9588 0.0
H403 H 0.85113 0.60273 0.91787 0.0
H404 H 0.94471 0.7527 0.84031 0.0
H405 H 0.94796 0.7994 0.88188 0.0
H406 H 0.87978 0.65796 0.82265 0.0
H407 H 0.90711 0.59387 0.88574 0.0
H408 H 0.90666 0.52594 0.86658 0.0
H409 H 0.84088 0.44106 0.84774 0.0
loop_
_geom_bond_atom_site_label_1
_geom_bond_atom_site_label_2
_geom_bond_distance
_geom_bond_site_symmetry_2
_ccdc_geom_bond_type
Ho0 C3 2.811 . S
Ho0 O20 2.322 . S
Ho0 O22 2.378 . S
Ho0 O23 2.524 . S
Ho0 O24 2.381 1_445 S
Ho0 O25 2.669 1_445 S
Ho0 O27 2.346 1_545 S
Ho0 O31 2.305 1_554 S
Ho1 C12 2.811 . S
Ho1 O21 2.346 1_565 S
Ho1 O25 2.305 1_556 S
Ho1 O26 2.322 1_656 S
Ho1 O28 2.378 . S
Ho1 O29 2.524 . S
Ho1 O30 2.381 1_665 S
Ho1 O31 2.669 1_665 S
C2 O20 1.259 1_656 S
C2 O21 1.268 . S
C3 Ho0 2.811 . S
C3 C4 1.488 . S
C3 O22 1.215 . S
C3 O23 1.289 . S
C4 C3 1.488 . S
C4 C5 1.348 . S
C4 C9 1.413 . S
C5 C4 1.348 . S
C5 C6 1.442 . S
C5 H32 0.930 . S
C6 C5 1.442 . S
C6 C7 1.381 . S
C6 H33 0.931 . S
C7 C6 1.381 . S
C7 C8 1.321 . S
C8 C7 1.321 . S
C8 C9 1.403 . S
C8 H34 0.934 . S
C9 C4 1.413 . S
C9 C8 1.403 . S
C9 H35 0.930 . S
C10 O24 1.275 . S
C10 O25 1.256 . S
C11 O26 1.259 . S
C11 O27 1.268 . S
C12 Ho1 2.811 . S
C12 C13 1.488 . S
C12 O28 1.215 . S
C12 O29 1.289 . S
C13 C12 1.488 . S
C13 C14 1.348 . S
C13 C18 1.413 . S
C14 C13 1.348 . S
C14 C15 1.442 . S
C14 H36 0.929 1_556 S
C15 C14 1.442 . S
C15 C16 1.381 . S
C15 H37 0.931 . S
C16 C15 1.381 . S
C16 C17 1.321 . S
C17 C16 1.321 . S
C17 C18 1.403 . S
C17 H38 0.934 . S
C18 C13 1.413 . S
C18 C17 1.403 . S
C18 H39 0.930 . S
C19 O30 1.275 . S
C19 O31 1.256 . S
O20 Ho0 2.322 . S
O20 C2 1.259 1_454 S
O21 Ho1 2.346 1_545 S
O21 C2 1.268 . S
O22 Ho0 2.378 . S
O22 C3 1.215 . S
O23 Ho0 2.524 . S
O23 C3 1.289 . S
O24 Ho0 2.381 1_665 S
O24 C10 1.275 . S
O25 Ho0 2.669 1_665 S
O25 Ho1 2.305 1_554 S
O25 C10 1.256 . S
O26 Ho1 2.322 1_454 S
O26 C11 1.259 . S
O27 Ho0 2.346 1_565 S
O27 C11 1.268 . S
O28 Ho1 2.378 . S
O28 C12 1.215 . S
O29 Ho1 2.524 . S
O29 C12 1.289 . S
O30 Ho1 2.381 1_445 S
O30 C19 1.275 . S
O31 Ho0 2.305 1_556 S
O31 Ho1 2.669 1_445 S
O31 C19 1.256 . S
H32 C5 0.930 . S
H33 C6 0.931 . S
H34 C8 0.934 . S
H35 C9 0.930 . S
H36 C14 0.929 1_554 S
H37 C15 0.931 . S
H38 C17 0.934 . S
H39 C18 0.930 . S
Ho40 C43 2.811 1_455 S
Ho40 O60 2.322 1_445 S
Ho40 O62 2.378 1_455 S
Ho40 O63 2.524 1_455 S
Ho40 O64 2.381 1_445 S
Ho40 O65 2.669 1_545 S
Ho40 O67 2.346 . S
Ho40 O71 2.305 . S
Ho41 C52 2.811 . S
Ho41 O61 2.346 1_455 S
Ho41 O65 2.305 . S
Ho41 O66 2.322 1_565 S
Ho41 O68 2.378 1_565 S
Ho41 O69 2.524 . S
Ho41 O70 2.381 1_565 S
Ho41 O71 2.669 1_565 S
C42 O60 1.259 . S
C42 O61 1.268 . S
C43 Ho40 2.811 1_655 S
C43 C44 1.488 . S
C43 O62 1.215 . S
C43 O63 1.289 . S
C44 C43 1.488 . S
C44 C45 1.348 . S
C44 C49 1.413 . S
C45 C44 1.348 . S
C45 C46 1.442 . S
C45 H72 0.930 . S
C46 C45 1.442 . S
C46 C47 1.381 . S
C46 H73 0.931 . S
C47 C46 1.381 . S
C47 C48 1.321 . S
C48 C47 1.321 . S
C48 C49 1.403 . S
C48 H74 0.934 . S
C49 C44 1.413 . S
C49 C48 1.403 . S
C49 H75 0.930 . S
C50 O64 1.275 . S
C50 O65 1.256 1_655 S
C51 O66 1.259 . S
C51 O67 1.268 . S
C52 Ho41 2.811 . S
C52 C53 1.488 . S
C52 O68 1.215 1_565 S
C52 O69 1.289 . S
C53 C52 1.488 . S
C53 C54 1.348 . S
C53 C58 1.413 . S
C54 C53 1.348 . S
C54 C55 1.442 . S
C54 H76 0.930 . S
C55 C54 1.442 . S
C55 C56 1.381 . S
C55 H77 0.931 . S
C56 C55 1.381 . S
C56 C57 1.321 . S
C57 C56 1.321 . S
C57 C58 1.403 . S
C57 H78 0.933 . S
C58 C53 1.413 . S
C58 C57 1.403 . S
C58 H79 0.930 1_565 S
C59 O70 1.275 . S
C59 O71 1.256 . S
O60 Ho40 2.322 1_665 S
O60 C42 1.259 . S
O61 Ho41 2.346 1_655 S
O61 C42 1.268 . S
O62 Ho40 2.378 1_655 S
O62 C43 1.215 . S
O63 Ho40 2.524 1_655 S
O63 C43 1.289 . S
O64 Ho40 2.381 1_665 S
O64 C50 1.275 . S
O65 Ho40 2.669 1_565 S
O65 Ho41 2.305 . S
O65 C50 1.256 1_455 S
O66 Ho41 2.322 1_545 S
O66 C51 1.259 . S
O67 Ho40 2.346 . S
O67 C51 1.268 . S
O68 Ho41 2.378 1_545 S
O68 C52 1.215 1_545 S
O69 Ho41 2.524 . S
O69 C52 1.289 . S
O70 Ho41 2.381 1_545 S
O70 C59 1.275 . S
O71 Ho40 2.305 . S
O71 Ho41 2.669 1_545 S
O71 C59 1.256 . S
H72 C45 0.930 . S
H73 C46 0.931 . S
H74 C48 0.934 . S
H75 C49 0.930 . S
H76 C54 0.930 . S
H77 C55 0.931 . S
H78 C57 0.933 . S
H79 C58 0.930 1_545 S
Zn80 O86 1.920 . S
Zn80 O92 1.898 . S
Zn80 O95 1.905 . S
Zn81 O89 1.905 . S
Zn81 O90 1.898 . S
Zn81 O98 1.920 . S
Zn82 O85 2.080 . S
Zn82 O88 2.114 . S
Zn82 O91 2.120 . S
Zn82 O93 2.120 . S
Zn82 O94 2.114 . S
Zn82 O97 2.080 . S
C83 O88 1.166 . S
C83 O89 1.182 . S
C84 O90 1.167 . S
C84 O91 1.299 . S
O85 Zn82 2.080 . S
O85 C99 1.305 . S
O86 Zn80 1.920 . S
O86 C99 1.234 . S
C87 O92 1.167 . S
C87 O93 1.299 . S
O88 Zn82 2.114 . S
O88 C83 1.166 . S
O89 Zn81 1.905 . S
O89 C83 1.182 . S
O90 Zn81 1.898 . S
O90 C84 1.167 . S
O91 Zn82 2.120 . S
O91 C84 1.299 . S
O92 Zn80 1.898 . S
O92 C87 1.167 . S
O93 Zn82 2.120 . S
O93 C87 1.299 . S
O94 Zn82 2.114 . S
O94 C96 1.166 . S
O95 Zn80 1.905 . S
O95 C96 1.182 . S
C96 O94 1.166 . S
C96 O95 1.182 . S
O97 Zn82 2.080 . S
O97 C100 1.305 . S
O98 Zn81 1.920 . S
O98 C100 1.234 . S
C99 O85 1.305 . S
C99 O86 1.234 . S
C100 O97 1.305 . S
C100 O98 1.234 . S
Zn101 O107 1.920 . S
Zn101 O113 1.898 . S
Zn101 O116 1.905 . S
Zn102 O110 1.905 . S
Zn102 O111 1.898 . S
Zn102 O119 1.920 . S
Zn103 O106 2.080 . S
Zn103 O109 2.114 . S
Zn103 O112 2.120 . S
Zn103 O114 2.120 . S
Zn103 O115 2.114 . S
Zn103 O118 2.080 . S
C104 O109 1.166 . S
C104 O110 1.182 . S
C105 O111 1.167 . S
C105 O112 1.299 . S
O106 Zn103 2.080 . S
O106 C120 1.305 . S
O107 Zn101 1.920 . S
O107 C120 1.234 . S
C108 O113 1.167 . S
C108 O114 1.299 . S
O109 Zn103 2.114 . S
O109 C104 1.166 . S
O110 Zn102 1.905 . S
O110 C104 1.182 . S
O111 Zn102 1.898 . S
O111 C105 1.167 . S
O112 Zn103 2.120 . S
O112 C105 1.299 . S
O113 Zn101 1.898 . S
O113 C108 1.167 . S
O114 Zn103 2.120 . S
O114 C108 1.299 . S
O115 Zn103 2.114 . S
O115 C117 1.166 . S
O116 Zn101 1.905 . S
O116 C117 1.182 . S
C117 O115 1.166 . S
C117 O116 1.182 . S
O118 Zn103 2.080 . S
O118 C121 1.305 . S
O119 Zn102 1.920 . S
O119 C121 1.234 . S
C120 O106 1.305 . S
C120 O107 1.234 . S
C121 O118 1.305 . S
C121 O119 1.234 . S
C122 C123 1.386 . S
C122 C124 1.383 . S
C122 H138 0.951 . S
C123 C122 1.386 . S
C123 C127 1.383 . S
C124 C122 1.383 . S
C124 C125 1.402 . S
C124 H139 0.951 . S
C125 C124 1.402 . S
C125 C126 1.375 . S
C125 C128 1.481 . S
C126 C125 1.375 . S
C126 C127 1.367 . S
C126 H140 0.951 . S
C127 C123 1.383 . S
C127 C126 1.367 . S
C127 H141 0.950 . S
C128 C125 1.481 . S
C128 C129 1.297 . S
C128 H142 0.950 . S
C129 C128 1.297 . S
C129 C130 1.479 . S
C129 H143 0.950 . S
C130 C129 1.479 . S
C130 C131 1.375 . S
C130 C136 1.404 . S
C131 C130 1.375 . S
C131 C132 1.369 . S
C131 H144 0.950 . S
C132 C131 1.369 . S
C132 C133 1.392 . S
C132 H145 0.951 . S
C133 C132 1.392 . S
C133 C135 1.384 . S
H134 C136 0.949 . S
C135 C133 1.384 . S
C135 C136 1.385 . S
C135 H137 0.950 . S
C136 C130 1.404 . S
C136 H134 0.949 . S
C136 C135 1.385 . S
H137 C135 0.950 . S
H138 C122 0.951 . S
H139 C124 0.951 . S
H140 C126 0.951 . S
H141 C127 0.950 . S
H142 C128 0.950 . S
H143 C129 0.950 . S
H144 C131 0.950 . S
H145 C132 0.951 . S
C146 C147 1.386 . S
C146 C148 1.383 . S
C146 H162 0.951 . S
C147 C146 1.386 . S
C147 C151 1.383 . S
C148 C146 1.383 . S
C148 C149 1.402 . S
C148 H163 0.951 . S
C149 C148 1.402 . S
C149 C150 1.375 . S
C149 C152 1.481 . S
C150 C149 1.375 . S
C150 C151 1.367 . S
C150 H164 0.951 . S
C151 C147 1.383 . S
C151 C150 1.367 . S
C151 H165 0.950 1_545 S
C152 C149 1.481 . S
C152 C153 1.297 . S
C152 H166 0.950 . S
C153 C152 1.297 . S
C153 C154 1.479 . S
C153 H167 0.950 . S
C154 C153 1.479 . S
C154 C155 1.375 . S
C154 C160 1.404 . S
C155 C154 1.375 . S
C155 C156 1.369 . S
C155 H168 0.950 . S
C156 C155 1.369 . S
C156 C157 1.392 . S
C156 H169 0.951 . S
C157 C156 1.392 . S
C157 C159 1.384 . S
H158 C160 0.949 . S
C159 C157 1.384 . S
C159 C160 1.385 . S
C159 H161 0.950 . S
C160 C154 1.404 . S
C160 H158 0.949 . S
C160 C159 1.385 . S
H161 C159 0.950 . S
H162 C146 0.951 . S
H163 C148 0.951 . S
H164 C150 0.951 . S
H165 C151 0.950 1_565 S
H166 C152 0.950 . S
H167 C153 0.950 . S
H168 C155 0.950 . S
H169 C156 0.951 . S
C170 C171 1.386 . S
C170 C172 1.383 . S
C170 H186 0.951 . S
C171 C170 1.386 . S
C171 C175 1.383 . S
C172 C170 1.383 . S
C172 C173 1.402 . S
C172 H187 0.951 . S
C173 C172 1.402 . S
C173 C174 1.375 . S
C173 C176 1.481 . S
C174 C173 1.375 . S
C174 C175 1.367 . S
C174 H188 0.951 . S
C175 C171 1.383 . S
C175 C174 1.367 . S
C175 H189 0.950 . S
C176 C173 1.481 . S
C176 C177 1.297 . S
C176 H190 0.950 . S
C177 C176 1.297 . S
C177 C178 1.479 . S
C177 H191 0.950 . S
C178 C177 1.479 . S
C178 C179 1.375 . S
C178 C184 1.404 . S
C179 C178 1.375 . S
C179 C180 1.369 . S
C179 H192 0.950 . S
C180 C179 1.369 . S
C180 C181 1.392 . S
C180 H193 0.951 . S
C181 C180 1.392 . S
C181 C183 1.384 . S
H182 C184 0.949 . S
C183 C181 1.384 . S
C183 C184 1.385 . S
C183 H185 0.950 . S
C184 C178 1.404 . S
C184 H182 0.949 . S
C184 C183 1.385 . S
H185 C183 0.950 . S
H186 C170 0.951 . S
H187 C172 0.951 . S
H188 C174 0.951 . S
H189 C175 0.950 . S
H190 C176 0.950 . S
H191 C177 0.950 . S
H192 C179 0.950 . S
H193 C180 0.951 . S
C194 C195 1.386 . S
C194 C196 1.383 . S
C194 H210 0.951 . S
C195 C194 1.386 . S
C195 C199 1.383 . S
C196 C194 1.383 . S
C196 C197 1.402 . S
C196 H211 0.951 . S
C197 C196 1.402 . S
C197 C198 1.375 . S
C197 C200 1.481 . S
C198 C197 1.375 . S
C198 C199 1.367 . S
C198 H212 0.951 . S
C199 C195 1.383 . S
C199 C198 1.367 . S
C199 H213 0.950 . S
C200 C197 1.481 . S
C200 C201 1.297 . S
C200 H214 0.950 . S
C201 C200 1.297 . S
C201 C202 1.479 . S
C201 H215 0.950 . S
C202 C201 1.479 . S
C202 C203 1.375 . S
C202 C208 1.404 . S
C203 C202 1.375 . S
C203 C204 1.369 . S
C203 H216 0.950 . S
C204 C203 1.369 . S
C204 C205 1.392 . S
C204 H217 0.951 . S
C205 C204 1.392 . S
C205 C207 1.384 . S
H206 C208 0.949 . S
C207 C205 1.384 . S
C207 C208 1.385 . S
C207 H209 0.950 . S
C208 C202 1.404 . S
C208 H206 0.949 . S
C208 C207 1.385 . S
H209 C207 0.950 . S
H210 C194 0.951 . S
H211 C196 0.951 . S
H212 C198 0.951 . S
H213 C199 0.950 . S
H214 C200 0.950 . S
H215 C201 0.950 . S
H216 C203 0.950 . S
H217 C204 0.951 . S
C218 C219 1.386 . S
C218 C220 1.383 . S
C218 H234 0.951 . S
C219 C218 1.386 . S
C219 C223 1.383 . S
C220 C218 1.383 . S
C220 C221 1.402 . S
C220 H235 0.951 . S
C221 C220 1.402 . S
C221 C222 1.375 . S
C221 C224 1.481 . S
C222 C221 1.375 . S
C222 C223 1.367 . S
C222 H236 0.951 . S
C223 C219 1.383 . S
C223 C222 1.367 . S
C223 H237 0.950 . S
C224 C221 1.481 . S
C224 C225 1.297 . S
C224 H238 0.950 . S
C225 C224 1.297 . S
C225 C226 1.479 . S
C225 H239 0.950 . S
C226 C225 1.479 . S
C226 C227 1.375 . S
C226 C232 1.404 . S
C227 C226 1.375 . S
C227 C228 1.369 . S
C227 H240 0.950 . S
C228 C227 1.369 . S
C228 C229 1.392 . S
C228 H241 0.951 . S
C229 C228 1.392 . S
C229 C231 1.384 . S
H230 C232 0.949 . S
C231 C229 1.384 . S
C231 C232 1.385 . S
C231 H233 0.950 . S
C232 C226 1.404 . S
C232 H230 0.949 . S
C232 C231 1.385 . S
H233 C231 0.950 . S
H234 C218 0.951 . S
H235 C220 0.951 . S
H236 C222 0.951 . S
H237 C223 0.950 . S
H238 C224 0.950 . S
H239 C225 0.950 . S
H240 C227 0.950 . S
H241 C228 0.951 . S
C242 C243 1.386 . S
C242 C244 1.383 . S
C242 H258 0.951 . S
C243 C242 1.386 . S
C243 C247 1.383 . S
C244 C242 1.383 . S
C244 C245 1.402 . S
C244 H259 0.951 . S
C245 C244 1.402 . S
C245 C246 1.375 . S
C245 C248 1.481 . S
C246 C245 1.375 . S
C246 C247 1.367 . S
C246 H260 0.951 . S
C247 C243 1.383 . S
C247 C246 1.367 . S
C247 H261 0.950 1_655 S
C248 C245 1.481 . S
C248 C249 1.297 . S
C248 H262 0.950 . S
C249 C248 1.297 . S
C249 C250 1.479 . S
C249 H263 0.950 . S
C250 C249 1.479 . S
C250 C251 1.375 . S
C250 C256 1.404 . S
C251 C250 1.375 . S
C251 C252 1.369 . S
C251 H264 0.950 . S
C252 C251 1.369 . S
C252 C253 1.392 . S
C252 H265 0.951 . S
C253 C252 1.392 . S
C253 C255 1.384 . S
H254 C256 0.949 . S
C255 C253 1.384 . S
C255 C256 1.385 . S
C255 H257 0.950 . S
C256 C250 1.404 . S
C256 H254 0.949 . S
C256 C255 1.385 . S
H257 C255 0.950 . S
H258 C242 0.951 . S
H259 C244 0.951 . S
H260 C246 0.951 . S
H261 C247 0.950 1_455 S
H262 C248 0.950 . S
H263 C249 0.950 . S
H264 C251 0.950 . S
H265 C252 0.951 . S
C266 C267 1.386 . S
C266 C268 1.383 . S
C266 H282 0.951 . S
C267 C266 1.386 . S
C267 C271 1.383 . S
C268 C266 1.383 . S
C268 C269 1.402 . S
C268 H283 0.951 . S
C269 C268 1.402 . S
C269 C270 1.375 . S
C269 C272 1.481 . S
C270 C269 1.375 . S
C270 C271 1.367 . S
C270 H284 0.951 . S
C271 C267 1.383 . S
C271 C270 1.367 . S
C271 H285 0.950 1_565 S
C272 C269 1.481 . S
C272 C273 1.297 . S
C272 H286 0.950 . S
C273 C272 1.297 . S
C273 C274 1.479 . S
C273 H287 0.950 . S
C274 C273 1.479 . S
C274 C275 1.375 . S
C274 C280 1.404 . S
C275 C274 1.375 . S
C275 C276 1.369 . S
C275 H288 0.950 . S
C276 C275 1.369 . S
C276 C277 1.392 . S
C276 H289 0.951 . S
C277 C276 1.392 . S
C277 C279 1.384 . S
H278 C280 0.949 . S
C279 C277 1.384 . S
C279 C280 1.385 . S
C279 H281 0.950 . S
C280 C274 1.404 . S
C280 H278 0.949 . S
C280 C279 1.385 . S
H281 C279 0.950 . S
H282 C266 0.951 . S
H283 C268 0.951 . S
H284 C270 0.951 . S
H285 C271 0.950 1_545 S
H286 C272 0.950 . S
H287 C273 0.950 . S
H288 C275 0.950 . S
H289 C276 0.951 . S
C290 C291 1.386 . S
C290 C292 1.383 . S
C290 H306 0.951 . S
C291 C290 1.386 . S
C291 C295 1.383 . S
C292 C290 1.383 . S
C292 C293 1.402 . S
C292 H307 0.951 . S
C293 C292 1.402 . S
C293 C294 1.375 . S
C293 C296 1.481 . S
C294 C293 1.375 . S
C294 C295 1.367 . S
C294 H308 0.951 . S
C295 C291 1.383 . S
C295 C294 1.367 . S
C295 H309 0.950 . S
C296 C293 1.481 . S
C296 C297 1.297 . S
C296 H310 0.950 . S
C297 C296 1.297 . S
C297 C298 1.479 . S
C297 H311 0.950 . S
C298 C297 1.479 . S
C298 C299 1.375 . S
C298 C304 1.404 . S
C299 C298 1.375 . S
C299 C300 1.369 . S
C299 H312 0.950 . S
C300 C299 1.369 . S
C300 C301 1.392 . S
C300 H313 0.951 . S
C301 C300 1.392 . S
C301 C303 1.384 . S
H302 C304 0.949 . S
C303 C301 1.384 . S
C303 C304 1.385 . S
C303 H305 0.950 . S
C304 C298 1.404 . S
C304 H302 0.949 . S
C304 C303 1.385 . S
H305 C303 0.950 . S
H306 C290 0.951 . S
H307 C292 0.951 . S
H308 C294 0.951 . S
H309 C295 0.950 . S
H310 C296 0.950 . S
H311 C297 0.950 . S
H312 C299 0.950 . S
H313 C300 0.951 . S
C314 C315 1.386 . S
C314 C316 1.383 . S
C314 H330 0.951 . S
C315 C314 1.386 . S
C315 C319 1.383 . S
C316 C314 1.383 . S
C316 C317 1.402 . S
C316 H331 0.951 . S
C317 C316 1.402 . S
C317 C318 1.375 . S
C317 C320 1.481 . S
C318 C317 1.375 . S
C318 C319 1.367 . S
C318 H332 0.951 . S
C319 C315 1.383 . S
C319 C318 1.367 . S
C319 H333 0.950 . S
C320 C317 1.481 . S
C320 C321 1.297 . S
C320 H334 0.950 . S
C321 C320 1.297 . S
C321 C322 1.479 . S
C321 H335 0.950 . S
C322 C321 1.479 . S
C322 C323 1.375 . S
C322 C328 1.404 . S
C323 C322 1.375 . S
C323 C324 1.369 . S
C323 H336 0.950 . S
C324 C323 1.369 . S
C324 C325 1.392 . S
C324 H337 0.951 . S
C325 C324 1.392 . S
C325 C327 1.384 . S
H326 C328 0.949 . S
C327 C325 1.384 . S
C327 C328 1.385 . S
C327 H329 0.950 . S
C328 C322 1.404 . S
C328 H326 0.949 . S
C328 C327 1.385 . S
H329 C327 0.950 . S
H330 C314 0.951 . S
H331 C316 0.951 . S
H332 C318 0.951 . S
H333 C319 0.950 . S
H334 C320 0.950 . S
H335 C321 0.950 . S
H336 C323 0.950 . S
H337 C324 0.951 . S
C338 C339 1.386 . S
C338 C340 1.383 . S
C338 H354 0.951 . S
C339 C338 1.386 . S
C339 C343 1.383 . S
C340 C338 1.383 . S
C340 C341 1.402 . S
C340 H355 0.951 . S
C341 C340 1.402 . S
C341 C342 1.375 . S
C341 C344 1.481 . S
C342 C341 1.375 . S
C342 C343 1.367 . S
C342 H356 0.951 . S
C343 C339 1.383 . S
C343 C342 1.367 . S
C343 H357 0.950 . S
C344 C341 1.481 . S
C344 C345 1.297 . S
C344 H358 0.950 . S
C345 C344 1.297 . S
C345 C346 1.479 . S
C345 H359 0.950 . S
C346 C345 1.479 . S
C346 C347 1.375 . S
C346 C352 1.404 . S
C347 C346 1.375 . S
C347 C348 1.369 . S
C347 H360 0.950 . S
C348 C347 1.369 . S
C348 C349 1.392 . S
C348 H361 0.951 . S
C349 C348 1.392 . S
C349 C351 1.384 . S
H350 C352 0.949 . S
C351 C349 1.384 . S
C351 C352 1.385 . S
C351 H353 0.950 . S
C352 C346 1.404 . S
C352 H350 0.949 . S
C352 C351 1.385 . S
H353 C351 0.950 . S
H354 C338 0.951 . S
H355 C340 0.951 . S
H356 C342 0.951 . S
H357 C343 0.950 . S
H358 C344 0.950 . S
H359 C345 0.950 . S
H360 C347 0.950 . S
H361 C348 0.951 . S
C362 C363 1.386 . S
C362 C364 1.383 . S
C362 H378 0.951 . S
C363 C362 1.386 . S
C363 C367 1.383 . S
C364 C362 1.383 . S
C364 C365 1.402 . S
C364 H379 0.951 . S
C365 C364 1.402 . S
C365 C366 1.375 . S
C365 C368 1.481 . S
C366 C365 1.375 . S
C366 C367 1.367 . S
C366 H380 0.951 . S
C367 C363 1.383 . S
C367 C366 1.367 . S
C367 H381 0.950 . S
C368 C365 1.481 . S
C368 C369 1.297 . S
C368 H382 0.950 . S
C369 C368 1.297 . S
C369 C370 1.479 . S
C369 H383 0.950 . S
C370 C369 1.479 . S
C370 C371 1.375 . S
C370 C376 1.404 . S
C371 C370 1.375 . S
C371 C372 1.369 . S
C371 H384 0.950 . S
C372 C371 1.369 . S
C372 C373 1.392 . S
C372 H385 0.951 . S
C373 C372 1.392 . S
C373 C375 1.384 . S
H374 C376 0.949 . S
C375 C373 1.384 . S
C375 C376 1.385 . S
C375 H377 0.950 . S
C376 C370 1.404 . S
C376 H374 0.949 . S
C376 C375 1.385 . S
H377 C375 0.950 . S
H378 C362 0.951 . S
H379 C364 0.951 . S
H380 C366 0.951 . S
H381 C367 0.950 . S
H382 C368 0.950 . S
H383 C369 0.950 . S
H384 C371 0.950 . S
H385 C372 0.951 . S
C386 C387 1.386 . S
C386 C388 1.383 . S
C386 H402 0.951 . S
C387 C386 1.386 . S
C387 C391 1.383 . S
C388 C386 1.383 . S
C388 C389 1.402 . S
C388 H403 0.951 . S
C389 C388 1.402 . S
C389 C390 1.375 . S
C389 C392 1.481 . S
C390 C389 1.375 . S
C390 C391 1.367 . S
C390 H404 0.951 . S
C391 C387 1.383 . S
C391 C390 1.367 . S
C391 H405 0.950 . S
C392 C389 1.481 . S
C392 C393 1.297 . S
C392 H406 0.950 . S
C393 C392 1.297 . S
C393 C394 1.479 . S
C393 H407 0.950 . S
C394 C393 1.479 . S
C394 C395 1.375 . S
C394 C400 1.404 . S
C395 C394 1.375 . S
C395 C396 1.369 . S
C395 H408 0.950 . S
C396 C395 1.369 . S
C396 C397 1.392 . S
C396 H409 0.951 . S
C397 C396 1.392 . S
C397 C399 1.384 . S
H398 C400 0.949 . S
C399 C397 1.384 . S
C399 C400 1.385 . S
C399 H401 0.950 . S
C400 C394 1.404 . S
C400 H398 0.949 . S
C400 C399 1.385 . S
H401 C399 0.950 . S
H402 C386 0.951 . S
H403 C388 0.951 . S
H404 C390 0.951 . S
H405 C391 0.950 . S
H406 C392 0.950 . S
H407 C393 0.950 . S
H408 C395 0.950 . S
H409 C396 0.951 . S
C123 C11 1.877 . S
C133 C99 1.773 . S
C147 C51 1.168 . S
C157 C105 1.144 . S
C171 C7 0.774 . S
C181 C96 0.893 . S
C195 C47 1.335 . S
C205 C121 1.176 . S
C219 C10 2.076 . S
C229 C87 2.028 . S
C253 C104 2.240 . S
C243 C50 2.377 . S
C267 C56 1.200 . S
C277 C100 1.205 . S
C301 C117 1.780 . S
C291 C19 1.827 . S
C325 C84 2.059 . S
C315 C59 2.211 . S
C349 C120 2.022 . S
C339 C2 2.064 . S
C373 C83 1.349 . S
C363 C42 1.367 . S
C397 C108 0.715 . S
C387 C16 0.783 . S
