# Generated by pormake.
# Topology ocu, (6,8)-cn, num edge types: 1
# Building blocks:
#     Node 0, Type 0, BuildingBlock: BETDEL_clean_sbu_0, # of connection points: 6
#     Node 1, Type 0, BuildingBlock: BETDEL_clean_sbu_0, # of connection points: 6
#     Node 2, Type 0, BuildingBlock: BETDEL_clean_sbu_0, # of connection points: 6
#     Node 3, Type 0, BuildingBlock: BETDEL_clean_sbu_0, # of connection points: 6
#     Node 4, Type 0, BuildingBlock: BETDEL_clean_sbu_0, # of connection points: 6
#     Node 5, Type 0, BuildingBlock: BETDEL_clean_sbu_0, # of connection points: 6
#     Node 6, Type 0, BuildingBlock: BETDEL_clean_sbu_0, # of connection points: 6
#     Node 7, Type 0, BuildingBlock: BETDEL_clean_sbu_0, # of connection points: 6
#     Node 8, Type 1, BuildingBlock: VETTIZ_charged_sbu_0, # of connection points: 8
#     Node 9, Type 1, BuildingBlock: VETTIZ_charged_sbu_0, # of connection points: 8
#     Node 10, Type 1, BuildingBlock: VETTIZ_charged_sbu_0, # of connection points: 8
#     Node 11, Type 1, BuildingBlock: VETTIZ_charged_sbu_0, # of connection points: 8
#     Node 12, Type 1, BuildingBlock: VETTIZ_charged_sbu_0, # of connection points: 8
#     Node 13, Type 1, BuildingBlock: VETTIZ_charged_sbu_0, # of connection points: 8
#     Edge 14, Type (0, 1), BuildingBlock: UVAHIK_clean_linker_0, # of connection points: 2
#     Edge 15, Type (0, 1), BuildingBlock: UVAHIK_clean_linker_0, # of connection points: 2
#     Edge 16, Type (0, 1), BuildingBlock: UVAHIK_clean_linker_0, # of connection points: 2
#     Edge 17, Type (0, 1), BuildingBlock: UVAHIK_clean_linker_0, # of connection points: 2
#     Edge 18, Type (0, 1), BuildingBlock: UVAHIK_clean_linker_0, # of connection points: 2
#     Edge 19, Type (0, 1), BuildingBlock: UVAHIK_clean_linker_0, # of connection points: 2
#     Edge 20, Type (0, 1), BuildingBlock: UVAHIK_clean_linker_0, # of connection points: 2
#     Edge 21, Type (0, 1), BuildingBlock: UVAHIK_clean_linker_0, # of connection points: 2
#     Edge 22, Type (0, 1), BuildingBlock: UVAHIK_clean_linker_0, # of connection points: 2
#     Edge 23, Type (0, 1), BuildingBlock: UVAHIK_clean_linker_0, # of connection points: 2
#     Edge 24, Type (0, 1), BuildingBlock: UVAHIK_clean_linker_0, # of connection points: 2
#     Edge 25, Type (0, 1), BuildingBlock: UVAHIK_clean_linker_0, # of connection points: 2
#     Edge 26, Type (0, 1), BuildingBlock: UVAHIK_clean_linker_0, # of connection points: 2
#     Edge 27, Type (0, 1), BuildingBlock: UVAHIK_clean_linker_0, # of connection points: 2
#     Edge 28, Type (0, 1), BuildingBlock: UVAHIK_clean_linker_0, # of connection points: 2
#     Edge 29, Type (0, 1), BuildingBlock: UVAHIK_clean_linker_0, # of connection points: 2
#     Edge 30, Type (0, 1), BuildingBlock: UVAHIK_clean_linker_0, # of connection points: 2
#     Edge 31, Type (0, 1), BuildingBlock: UVAHIK_clean_linker_0, # of connection points: 2
#     Edge 32, Type (0, 1), BuildingBlock: UVAHIK_clean_linker_0, # of connection points: 2
#     Edge 33, Type (0, 1), BuildingBlock: UVAHIK_clean_linker_0, # of connection points: 2
#     Edge 34, Type (0, 1), BuildingBlock: UVAHIK_clean_linker_0, # of connection points: 2
#     Edge 35, Type (0, 1), BuildingBlock: UVAHIK_clean_linker_0, # of connection points: 2
#     Edge 36, Type (0, 1), BuildingBlock: UVAHIK_clean_linker_0, # of connection points: 2
#     Edge 37, Type (0, 1), BuildingBlock: UVAHIK_clean_linker_0, # of connection points: 2
#     Edge 38, Type (0, 1), BuildingBlock: UVAHIK_clean_linker_0, # of connection points: 2
#     Edge 39, Type (0, 1), BuildingBlock: UVAHIK_clean_linker_0, # of connection points: 2
#     Edge 40, Type (0, 1), BuildingBlock: UVAHIK_clean_linker_0, # of connection points: 2
#     Edge 41, Type (0, 1), BuildingBlock: UVAHIK_clean_linker_0, # of connection points: 2
#     Edge 42, Type (0, 1), BuildingBlock: UVAHIK_clean_linker_0, # of connection points: 2
#     Edge 43, Type (0, 1), BuildingBlock: UVAHIK_clean_linker_0, # of connection points: 2
#     Edge 44, Type (0, 1), BuildingBlock: UVAHIK_clean_linker_0, # of connection points: 2
#     Edge 45, Type (0, 1), BuildingBlock: UVAHIK_clean_linker_0, # of connection points: 2
#     Edge 46, Type (0, 1), BuildingBlock: UVAHIK_clean_linker_0, # of connection points: 2
#     Edge 47, Type (0, 1), BuildingBlock: UVAHIK_clean_linker_0, # of connection points: 2
#     Edge 48, Type (0, 1), BuildingBlock: UVAHIK_clean_linker_0, # of connection points: 2
#     Edge 49, Type (0, 1), BuildingBlock: UVAHIK_clean_linker_0, # of connection points: 2
#     Edge 50, Type (0, 1), BuildingBlock: UVAHIK_clean_linker_0, # of connection points: 2
#     Edge 51, Type (0, 1), BuildingBlock: UVAHIK_clean_linker_0, # of connection points: 2
#     Edge 52, Type (0, 1), BuildingBlock: UVAHIK_clean_linker_0, # of connection points: 2
#     Edge 53, Type (0, 1), BuildingBlock: UVAHIK_clean_linker_0, # of connection points: 2
#     Edge 54, Type (0, 1), BuildingBlock: UVAHIK_clean_linker_0, # of connection points: 2
#     Edge 55, Type (0, 1), BuildingBlock: UVAHIK_clean_linker_0, # of connection points: 2
#     Edge 56, Type (0, 1), BuildingBlock: UVAHIK_clean_linker_0, # of connection points: 2
#     Edge 57, Type (0, 1), BuildingBlock: UVAHIK_clean_linker_0, # of connection points: 2
#     Edge 58, Type (0, 1), BuildingBlock: UVAHIK_clean_linker_0, # of connection points: 2
#     Edge 59, Type (0, 1), BuildingBlock: UVAHIK_clean_linker_0, # of connection points: 2
#     Edge 60, Type (0, 1), BuildingBlock: UVAHIK_clean_linker_0, # of connection points: 2
#     Edge 61, Type (0, 1), BuildingBlock: UVAHIK_clean_linker_0, # of connection points: 2
# Relax obj value: 0.087
# Max RMSD: 0.223
# Mean RMSD: 0.134
data_MOF--net-ocu--node1-BETDEL_clean_sbu_0--node2-VETTIZ_charged_sbu_0--edge1-UVAHIK_clean_linker_0
_symmetry_space_group_name_H-M    P1
_symmetry_Int_Tables_number       1
_symmetry_cell_setting            triclinic
loop_
_symmetry_equiv_pos_as_xyz
'x, y, z'
_cell_length_a     47.355381
_cell_length_b     48.685565
_cell_length_c     47.27601
_cell_angle_alpha  91.097621
_cell_angle_beta   91.433924
_cell_angle_gamma 95.083513
loop_
_atom_site_label
_atom_site_type_symbol
_atom_site_fract_x
_atom_site_fract_y
_atom_site_fract_z
_atom_type_partial_charge
Dy0 Dy 0.28004 0.26208 0.27172 0.0
C1 C 0.20926 0.27564 0.17653 0.0
C2 C 0.30854 0.24177 0.3162 0.0
Dy3 Dy 0.23985 0.26126 0.22234 0.0
O4 O 0.31836 0.2622 0.30092 0.0
O5 O 0.28301 0.23321 0.30765 0.0
O6 O 0.29998 0.30392 0.26096 0.0
O7 O 0.28435 0.276 0.22846 0.0
C8 C 0.29507 0.30033 0.23381 0.0
C9 C 0.22484 0.22372 0.26152 0.0
O10 O 0.27022 0.23446 0.20229 0.0
O11 O 0.29572 0.22816 0.24361 0.0
O12 O 0.20116 0.25608 0.19357 0.0
O13 O 0.23388 0.28729 0.18457 0.0
O14 O 0.22104 0.21918 0.23442 0.0
O15 O 0.23532 0.24821 0.26595 0.0
O16 O 0.25098 0.29144 0.2904 0.0
O17 O 0.2258 0.297 0.24851 0.0
C18 C 0.29023 0.22249 0.21624 0.0
C19 C 0.23163 0.30372 0.27559 0.0
Dy20 Dy 0.77883 0.23586 0.26634 0.0
C21 C 0.68064 0.28572 0.2265 0.0
C22 C 0.82532 0.21748 0.29164 0.0
Dy23 Dy 0.72794 0.26729 0.25033 0.0
O24 O 0.81576 0.21015 0.26642 0.0
O25 O 0.80928 0.23455 0.30325 0.0
O26 O 0.7692 0.20641 0.22957 0.0
O27 O 0.73607 0.22421 0.24953 0.0
C28 C 0.7423 0.20971 0.22873 0.0
C29 C 0.7639 0.29261 0.2888 0.0
O30 O 0.70887 0.23996 0.28357 0.0
O31 O 0.75067 0.22595 0.30294 0.0
O32 O 0.69198 0.29417 0.25072 0.0
O33 O 0.69548 0.26759 0.21486 0.0
O34 O 0.73697 0.29574 0.28807 0.0
O35 O 0.77036 0.27882 0.26756 0.0
O36 O 0.79844 0.2634 0.23413 0.0
O37 O 0.75708 0.27752 0.21392 0.0
C38 C 0.72303 0.22822 0.30392 0.0
C39 C 0.78483 0.27506 0.21344 0.0
Dy40 Dy 0.74585 0.7651 0.26613 0.0
C41 C 0.8148 0.73603 0.1755 0.0
C42 C 0.72226 0.79785 0.30449 0.0
Dy43 Dy 0.78339 0.75712 0.21658 0.0
O44 O 0.71444 0.77165 0.30041 0.0
O45 O 0.7432 0.80534 0.28846 0.0
O46 O 0.72203 0.72351 0.25904 0.0
O47 O 0.73898 0.7455 0.22447 0.0
C48 C 0.72715 0.72266 0.23206 0.0
C49 C 0.80178 0.79862 0.25256 0.0
O50 O 0.75077 0.78 0.1932 0.0
O51 O 0.72983 0.79485 0.23371 0.0
O52 O 0.8157 0.76194 0.18272 0.0
O53 O 0.79613 0.7218 0.19021 0.0
O54 O 0.80603 0.79936 0.22557 0.0
O55 O 0.79024 0.77536 0.25867 0.0
O56 O 0.77672 0.73892 0.28836 0.0
O57 O 0.79738 0.72483 0.24715 0.0
C58 C 0.73314 0.7958 0.20584 0.0
C59 C 0.79385 0.72292 0.27498 0.0
Dy60 Dy 0.28349 0.72329 0.25572 0.0
C61 C 0.20935 0.80547 0.27731 0.0
C62 C 0.31942 0.68419 0.24435 0.0
Dy63 Dy 0.24269 0.76719 0.25667 0.0
O64 O 0.32573 0.70628 0.25971 0.0
O65 O 0.29337 0.68343 0.23483 0.0
O66 O 0.29885 0.73678 0.29926 0.0
O67 O 0.28657 0.76632 0.27069 0.0
C68 C 0.29492 0.76253 0.29574 0.0
C69 C 0.23014 0.72749 0.21728 0.0
O70 O 0.27541 0.78829 0.22939 0.0
O71 O 0.29508 0.74787 0.21739 0.0
O72 O 0.20564 0.79316 0.25269 0.0
O73 O 0.2318 0.79761 0.28991 0.0
O74 O 0.22525 0.75308 0.21378 0.0
O75 O 0.23929 0.72414 0.24215 0.0
O76 O 0.25318 0.70187 0.28446 0.0
O77 O 0.22846 0.74008 0.29276 0.0
C78 C 0.29216 0.77437 0.21347 0.0
C79 C 0.23441 0.71467 0.29867 0.0
Dy80 Dy 0.29053 0.73744 0.75122 0.0
C81 C 0.19349 0.7855 0.70578 0.0
C82 C 0.33796 0.7204 0.77627 0.0
Dy83 Dy 0.23969 0.76767 0.73232 0.0
O84 O 0.32783 0.7123 0.75149 0.0
O85 O 0.32183 0.73748 0.78783 0.0
O86 O 0.28172 0.70587 0.71607 0.0
O87 O 0.24817 0.72477 0.73406 0.0
C88 C 0.25488 0.70926 0.71425 0.0
C89 C 0.27603 0.79627 0.76861 0.0
O90 O 0.21992 0.7414 0.76555 0.0
O91 O 0.26127 0.72986 0.78799 0.0
O92 O 0.20144 0.79162 0.73174 0.0
O93 O 0.21096 0.76989 0.69411 0.0
O94 O 0.2492 0.79969 0.76693 0.0
O95 O 0.28232 0.78043 0.74894 0.0
O96 O 0.30965 0.76378 0.71714 0.0
O97 O 0.26769 0.77376 0.69498 0.0
C98 C 0.23341 0.73172 0.78755 0.0
C99 C 0.29556 0.77286 0.69512 0.0
Dy100 Dy 0.23494 0.25025 0.78293 0.0
C101 C 0.30644 0.2244 0.69488 0.0
C102 C 0.20003 0.26503 0.82432 0.0
Dy103 Dy 0.27485 0.24702 0.73522 0.0
O104 O 0.19574 0.24315 0.80825 0.0
O105 O 0.2237 0.27885 0.81806 0.0
O106 O 0.21827 0.2063 0.77377 0.0
O107 O 0.23092 0.23195 0.7404 0.0
C108 C 0.22194 0.20776 0.74671 0.0
C109 C 0.28838 0.28954 0.77101 0.0
O110 O 0.24468 0.27367 0.71315 0.0
O111 O 0.22012 0.28307 0.75356 0.0
O112 O 0.31599 0.24342 0.71318 0.0
O113 O 0.27943 0.21884 0.69787 0.0
O114 O 0.29281 0.29056 0.74394 0.0
O115 O 0.27897 0.26549 0.7776 0.0
O116 O 0.26753 0.22766 0.80621 0.0
O117 O 0.28858 0.21409 0.76531 0.0
C118 C 0.22537 0.28719 0.72632 0.0
C119 C 0.28537 0.21246 0.79316 0.0
Dy120 Dy 0.78023 0.24174 0.74793 0.0
C121 C 0.70155 0.32344 0.75637 0.0
C122 C 0.81757 0.20496 0.73208 0.0
Dy123 Dy 0.73792 0.28436 0.74617 0.0
O124 O 0.82351 0.22606 0.74901 0.0
O125 O 0.79083 0.20325 0.7248 0.0
O126 O 0.79526 0.25736 0.79101 0.0
O127 O 0.78192 0.28521 0.76087 0.0
C128 C 0.79032 0.28273 0.78619 0.0
C129 C 0.72809 0.2431 0.7079 0.0
O130 O 0.76848 0.30501 0.71712 0.0
O131 O 0.79099 0.26552 0.7086 0.0
O132 O 0.69566 0.30131 0.74092 0.0
O133 O 0.7274 0.32427 0.76641 0.0
O134 O 0.72334 0.26845 0.70298 0.0
O135 O 0.73634 0.24094 0.73325 0.0
O136 O 0.74917 0.22115 0.77717 0.0
O137 O 0.72567 0.2604 0.78487 0.0
C138 C 0.78599 0.29111 0.70239 0.0
C139 C 0.73056 0.23474 0.79106 0.0
Dy140 Dy 0.77849 0.74628 0.77771 0.0
C141 C 0.7087 0.76403 0.68408 0.0
C142 C 0.80928 0.73236 0.8236 0.0
Dy143 Dy 0.73788 0.74461 0.72858 0.0
O144 O 0.81789 0.75075 0.80549 0.0
O145 O 0.78398 0.72165 0.81662 0.0
O146 O 0.79696 0.78829 0.76544 0.0
O147 O 0.78254 0.75914 0.73394 0.0
C148 C 0.79297 0.78368 0.73838 0.0
C149 C 0.7238 0.70667 0.76713 0.0
O150 O 0.76697 0.71544 0.70995 0.0
O151 O 0.79256 0.71037 0.75171 0.0
O152 O 0.69917 0.74387 0.69985 0.0
O153 O 0.73433 0.77277 0.69216 0.0
O154 O 0.71888 0.70256 0.74004 0.0
O155 O 0.73406 0.73122 0.77199 0.0
O156 O 0.74878 0.77405 0.79729 0.0
O157 O 0.72183 0.77844 0.75639 0.0
C158 C 0.78652 0.70342 0.72472 0.0
C159 C 0.72814 0.78515 0.78338 0.0
Fe160 Fe 0.01644 0.03563 0.50178 0.0
O161 O 0.98976 0.00752 0.5201 0.0
Fe162 Fe 0.07049 0.9974 0.47962 0.0
Fe163 Fe 0.94864 0.01057 0.52196 0.0
O164 O 0.03024 1.0031 0.48204 0.0
O165 O 0.02943 1.00046 0.48175 0.0
O166 O 0.9889 0.0049 0.51974 0.0
Fe167 Fe 1.00282 0.97237 0.50014 0.0
C168 C 0.98034 0.06312 0.54656 0.0
O169 O 0.98833 0.03876 0.46893 0.0
O170 O 0.9484 0.04123 0.49237 0.0
O171 O 0.02111 0.94177 0.47638 0.0
O172 O 0.05632 0.96609 0.45147 0.0
O173 O 0.0698 0.03004 0.4526 0.0
O174 O 0.04623 0.06115 0.47855 0.0
O175 O 0.93554 0.9814 0.49059 0.0
O176 O 0.97446 0.97461 0.46698 0.0
C177 C 0.06223 0.05462 0.45766 0.0
O178 O 0.03098 0.96924 0.53301 0.0
O179 O 0.07085 0.96693 0.50938 0.0
O180 O 0.99813 0.06621 0.52592 0.0
O181 O 0.96281 0.04151 0.55035 0.0
C182 C 0.96343 0.0461 0.47077 0.0
C183 C 0.94766 0.97321 0.46858 0.0
C184 C 0.95678 0.95328 0.5439 0.0
O185 O 0.94909 0.97783 0.54887 0.0
O186 O 0.97301 0.94682 0.52322 0.0
C187 C 0.03898 0.94449 0.45584 0.0
O188 O 0.08369 0.02675 0.51074 0.0
O189 O 0.04497 0.03327 0.53482 0.0
C190 C 0.05581 0.96172 0.53092 0.0
C191 C 0.07176 0.03473 0.53293 0.0
Fe192 Fe 0.50972 0.97115 0.99518 0.0
O193 O 0.53092 0.0058 0.9826 0.0
Fe194 Fe 0.44479 0.99542 0.01457 0.0
Fe195 Fe 0.57226 0.01172 0.9839 0.0
O196 O 0.48678 0.99781 0.01591 0.0
O197 O 0.48613 1.00099 0.01577 0.0
O198 O 0.53024 0.00902 0.98244 0.0
Fe199 Fe 0.50737 0.03567 0.00333 0.0
C200 C 0.56347 0.96748 0.03039 0.0
O201 O 0.53708 0.94816 0.97054 0.0
O202 O 0.56883 0.98157 0.95227 0.0
O203 O 0.48058 0.03911 0.96811 0.0
O204 O 0.43903 0.028 0.98777 0.0
O205 O 0.44118 0.96927 0.97993 0.0
O206 O 0.48345 0.97145 0.95976 0.0
O207 O 0.56586 0.04577 0.96002 0.0
O208 O 0.53372 0.06815 0.98638 0.0
C209 C 0.45663 0.9662 0.95866 0.0
O210 O 0.4801 0.05856 0.0285 0.0
O211 O 0.44896 0.0248 0.04692 0.0
O212 O 0.5365 0.96782 0.0305 0.0
O213 O 0.57822 0.97979 0.01145 0.0
C214 C 0.55748 0.95634 0.95358 0.0
C215 C 0.55269 0.06717 0.96687 0.0
C216 C 0.56042 0.04092 0.03949 0.0
O217 O 0.57557 0.03862 0.01789 0.0
O218 O 0.53369 0.03512 0.03866 0.0
C219 C 0.45369 0.03989 0.9685 0.0
O220 O 0.45064 0.96074 0.0377 0.0
O221 O 0.48348 0.9387 0.01199 0.0
C222 C 0.46045 0.05004 0.04623 0.0
C223 C 0.46392 0.93942 0.03086 0.0
Fe224 Fe 0.0164 0.53607 0.00397 0.0
O225 O 0.99285 0.50689 0.02403 0.0
Fe226 Fe 0.06653 0.50068 0.97036 0.0
Fe227 Fe 0.95285 0.50922 0.03286 0.0
O228 O 0.02708 0.5053 0.97931 0.0
O229 O 0.02646 0.50293 0.97908 0.0
O230 O 0.99216 0.50459 0.02371 0.0
Fe231 Fe 1.00303 0.47377 0.99931 0.0
C232 C 0.98691 0.56173 0.05485 0.0
O233 O 0.98376 0.54204 0.97631 0.0
O234 O 0.94754 0.54093 0.00569 0.0
O235 O 0.01768 0.44498 0.9714 0.0
O236 O 0.04897 0.46977 0.94271 0.0
O237 O 0.06121 0.53477 0.94632 0.0
O238 O 0.04241 0.56305 0.97942 0.0
O239 O 0.93555 0.48128 0.00193 0.0
O240 O 0.97003 0.47802 0.97124 0.0
C241 C 0.05529 0.55877 0.95587 0.0
O242 O 0.03563 0.4682 0.02715 0.0
O243 O 0.07192 0.46925 0.99785 0.0
O244 O 1.00218 0.56477 0.03242 0.0
O245 O 0.97076 0.53961 0.0607 0.0
C246 C 0.95927 0.54839 0.9828 0.0
C247 C 0.94401 0.47504 0.97743 0.0
C248 C 0.96397 0.45101 0.04726 0.0
O249 O 0.95802 0.47501 0.05674 0.0
O250 O 0.97704 0.44673 0.02384 0.0
C251 C 0.03338 0.4475 0.94924 0.0
O252 O 0.08373 0.52895 1.00101 0.0
O253 O 0.04941 0.53146 0.03191 0.0
C254 C 0.06014 0.46184 0.02073 0.0
C255 C 0.07535 0.53499 0.02559 0.0
Fe256 Fe 0.51064 0.50697 0.96932 0.0
O257 O 0.52848 0.48379 0.9978 0.0
Fe258 Fe 0.4525 0.52897 0.00431 0.0
Fe259 Fe 0.56897 0.47826 0.99888 0.0
O260 O 0.49318 0.52394 0.00263 0.0
O261 O 0.49293 0.5234 0.00508 0.0
O262 O 0.52831 0.48334 1.00028 0.0
Fe263 Fe 0.51088 0.50034 0.03354 0.0
C264 C 0.54527 0.46416 0.9394 0.0
O265 O 0.5444 0.53683 0.97177 0.0
O266 O 0.58019 0.51013 0.9718 0.0
O267 O 0.49076 0.52148 0.06492 0.0
O268 O 0.46436 0.55167 0.04081 0.0
O269 O 0.46399 0.5583 0.9747 0.0
O270 O 0.49004 0.53399 0.94381 0.0
O271 O 0.58056 0.50454 0.03318 0.0
O272 O 0.54426 0.53016 0.03797 0.0
C273 C 0.47643 0.55512 0.95076 0.0
O274 O 0.47727 0.47042 0.03115 0.0
O275 O 0.44132 0.49693 0.03135 0.0
O276 O 0.53084 0.48569 0.938 0.0
O277 O 0.55723 0.45557 0.96231 0.0
C278 C 0.56991 0.53282 0.96622 0.0
C279 C 0.57017 0.52623 0.04228 0.0
C280 C 0.54494 0.45232 0.0524 0.0
O281 O 0.5574 0.44894 0.02851 0.0
O282 O 0.5315 0.47357 0.05918 0.0
C283 C 0.47638 0.54302 0.06364 0.0
O284 O 0.44083 0.50286 0.97008 0.0
O285 O 0.47708 0.47725 0.96468 0.0
C286 C 0.45175 0.47427 0.03677 0.0
C287 C 0.45111 0.48121 0.96075 0.0
Fe288 Fe 0.02946 0.44431 0.49543 0.0
O289 O 0.02737 0.48422 0.5009 0.0
Fe290 Fe 0.0097 0.5057 0.46675 0.0
Fe291 Fe 1.00758 0.50067 0.53328 0.0
O292 O 0.02723 0.4844 0.49764 0.0
O293 O 0.98968 0.52195 0.4991 0.0
O294 O 0.98985 0.52179 0.5024 0.0
Fe295 Fe 0.98759 0.56188 0.50455 0.0
C296 C 0.9751 0.44504 0.52888 0.0
O297 O 0.05576 0.44949 0.53098 0.0
O298 O 0.03015 0.47491 0.56132 0.0
O299 O 0.01961 0.57267 0.47692 0.0
O300 O 0.0429 0.53523 0.47155 0.0
O301 O 0.03485 0.48472 0.43713 0.0
O302 O 0.05866 0.45545 0.46533 0.0
O303 O 0.04085 0.5304 0.53831 0.0
O304 O 0.01698 0.56783 0.53764 0.0
C305 C 0.05498 0.46822 0.44184 0.0
O306 O 0.96098 0.55634 0.46918 0.0
O307 O 0.9871 0.53155 0.43872 0.0
O308 O 0.99735 0.43357 0.52275 0.0
O309 O 0.97422 0.47104 0.52911 0.0
C310 C 0.0497 0.45797 0.55613 0.0
C311 C 0.03912 0.55585 0.54372 0.0
C312 C 0.96251 0.53813 0.55835 0.0
O313 O 0.98275 0.52178 0.563 0.0
O314 O 0.95856 0.55075 0.53482 0.0
C315 C 0.04195 0.56118 0.47111 0.0
O316 O 0.97649 0.47603 0.46119 0.0
O317 O 1.00013 0.43844 0.46249 0.0
C318 C 0.96677 0.54762 0.44403 0.0
C319 C 0.9779 0.45038 0.45675 0.0
Fe320 Fe 0.53292 0.94746 0.49638 0.0
O321 O 0.52781 0.98631 0.50369 0.0
Fe322 Fe 0.50926 0.00859 0.47197 0.0
Fe323 Fe 0.50688 0.9997 0.53652 0.0
O324 O 0.528 0.98673 0.50104 0.0
O325 O 0.48761 0.02136 0.50466 0.0
O326 O 0.48755 0.02103 0.50743 0.0
Fe327 Fe 0.48248 0.06022 0.51236 0.0
C328 C 0.47833 0.94252 0.52977 0.0
O329 O 0.55883 0.95376 0.53187 0.0
O330 O 0.53033 0.97526 0.56281 0.0
O331 O 0.51363 0.07486 0.48539 0.0
O332 O 0.54052 0.04016 0.47855 0.0
O333 O 0.53515 0.99201 0.44143 0.0
O334 O 0.56119 0.96262 0.46717 0.0
O335 O 0.53835 0.03111 0.54296 0.0
O336 O 0.51167 0.06646 0.54576 0.0
C337 C 0.55659 0.97725 0.44514 0.0
O338 O 0.45677 0.05402 0.47669 0.0
O339 O 0.48611 0.03347 0.4458 0.0
O340 O 0.50154 0.93302 0.52313 0.0
O341 O 0.47547 0.96822 0.53108 0.0
C342 C 0.55208 0.96174 0.55697 0.0
C343 C 0.53486 0.05571 0.55059 0.0
C344 C 0.46018 0.03129 0.56419 0.0
O345 O 0.48191 0.01687 0.56737 0.0
O346 O 0.45433 0.0449 0.54176 0.0
C347 C 0.53698 0.06574 0.47859 0.0
O348 O 0.47796 0.97734 0.46418 0.0
O349 O 0.50363 0.94109 0.46325 0.0
C350 C 0.46405 0.04662 0.45155 0.0
C351 C 0.48083 0.95229 0.45782 0.0
C352 C 0.2078 0.21712 0.31116 0.0
C353 C 0.20918 0.2071 0.28316 0.0
C354 C 0.1909 0.20261 0.3309 0.0
C355 C 0.12963 0.14907 0.33453 0.0
H356 H 0.15308 0.14526 0.41341 0.0
C357 C 0.07779 0.06889 0.40969 0.0
C358 C 0.0737 0.07623 0.43813 0.0
C359 C 0.09204 0.08736 0.39153 0.0
C360 C 0.14599 0.14649 0.39155 0.0
H361 H 0.19465 0.17348 0.25426 0.0
H362 H 0.16575 0.14791 0.28864 0.0
H363 H 0.18362 0.17141 0.38063 0.0
H364 H 0.08084 0.10918 0.46958 0.0
H365 H 0.10614 0.14172 0.43767 0.0
H366 H 0.09233 0.1237 0.3453 0.0
C367 C 0.17712 0.16731 0.29531 0.0
C368 C 0.16356 0.16146 0.37267 0.0
C369 C 0.19394 0.18185 0.2756 0.0
C370 C 0.08346 0.10299 0.44774 0.0
C371 C 0.0982 0.12148 0.42954 0.0
C372 C 0.11218 0.13405 0.35333 0.0
C373 C 0.17496 0.17766 0.32317 0.0
C374 C 0.15584 0.16265 0.34375 0.0
C375 C 0.10297 0.11373 0.40126 0.0
C376 C 0.12027 0.13218 0.38203 0.0
H377 H 0.21923 0.23657 0.31766 0.0
H378 H 0.18972 0.21142 0.35199 0.0
H379 H 0.12249 0.15003 0.31266 0.0
H380 H 0.07051 0.04846 0.40157 0.0
H381 H 0.09548 0.08048 0.37007 0.0
C382 C 0.86613 0.18877 0.29102 0.0
C383 C 0.8492 0.20596 0.30595 0.0
C384 C 0.88646 0.17491 0.30539 0.0
C385 C 0.92166 0.16861 0.37618 0.0
H386 H 0.91572 0.09074 0.35551 0.0
C387 C 0.93392 0.08305 0.45516 0.0
C388 C 0.95332 0.06385 0.44864 0.0
C389 C 0.92668 0.10197 0.43512 0.0
C390 C 0.91794 0.11251 0.3612 0.0
H391 H 0.84109 0.22369 0.347 0.0
H392 H 0.8757 0.1988 0.37233 0.0
H393 H 0.89489 0.12311 0.32428 0.0
H394 H 0.97965 0.0486 0.41593 0.0
H395 H 0.96603 0.08131 0.38042 0.0
H396 H 0.94293 0.15737 0.41418 0.0
C397 C 0.87395 0.19634 0.34953 0.0
C398 C 0.90622 0.13112 0.34329 0.0
C399 C 0.8539 0.21042 0.3351 0.0
C400 C 0.96466 0.06327 0.42146 0.0
C401 C 0.95699 0.08191 0.40122 0.0
C402 C 0.93297 0.14992 0.39428 0.0
C403 C 0.88987 0.1778 0.33495 0.0
C404 C 0.90714 0.15925 0.35105 0.0
C405 C 0.93836 0.10166 0.40815 0.0
C406 C 0.9304 0.12169 0.38725 0.0
H407 H 0.86304 0.18533 0.2684 0.0
H408 H 0.89878 0.16119 0.29351 0.0
H409 H 0.92327 0.19022 0.38243 0.0
H410 H 0.92505 0.08406 0.47602 0.0
H411 H 0.91192 0.11686 0.44065 0.0
C412 C 0.83323 0.84135 0.26587 0.0
C413 C 0.81456 0.819 0.27383 0.0
C414 C 0.84644 0.85963 0.28641 0.0
C415 C 0.86239 0.86503 0.36445 0.0
H416 H 0.88345 0.94177 0.34813 0.0
C417 C 0.90338 0.94589 0.45037 0.0
C418 C 0.93026 0.9592 0.44518 0.0
C419 C 0.88814 0.93033 0.42895 0.0
C420 C 0.87767 0.92036 0.35289 0.0
H421 H 0.7947 0.79846 0.30943 0.0
H422 H 0.81599 0.8311 0.3449 0.0
H423 H 0.85827 0.91178 0.31196 0.0
H424 H 0.96172 0.96757 0.41316 0.0
H425 H 0.93456 0.94102 0.37548 0.0
H426 H 0.88105 0.87408 0.40572 0.0
C427 C 0.8215 0.83418 0.32304 0.0
C428 C 0.86342 0.90305 0.33213 0.0
C429 C 0.80887 0.81561 0.3026 0.0
C430 C 0.94108 0.9575 0.41781 0.0
C431 C 0.92554 0.94242 0.39624 0.0
C432 C 0.87605 0.88247 0.38532 0.0
C433 C 0.84088 0.85624 0.31536 0.0
C434 C 0.85566 0.87505 0.33755 0.0
C435 C 0.89919 0.92828 0.40177 0.0
C436 C 0.88393 0.91024 0.37971 0.0
H437 H 0.83816 0.84434 0.24383 0.0
H438 H 0.86153 0.87599 0.27954 0.0
H439 H 0.85759 0.84354 0.36938 0.0
H440 H 0.89454 0.94666 0.47125 0.0
H441 H 0.8678 0.91966 0.43368 0.0
C442 C 0.16321 0.82701 0.27752 0.0
C443 C 0.18801 0.82044 0.29181 0.0
C444 C 0.14132 0.83761 0.29256 0.0
C445 C 0.11055 0.83588 0.36216 0.0
H446 H 0.08293 0.90659 0.34591 0.0
C447 C 0.0597 0.90079 0.44559 0.0
C448 C 0.04212 0.92087 0.43698 0.0
C449 C 0.07073 0.88354 0.42551 0.0
C450 C 0.08969 0.88642 0.35039 0.0
H451 H 0.20982 0.82044 0.33271 0.0
H452 H 0.17153 0.83849 0.35887 0.0
H453 H 0.11642 0.88745 0.31437 0.0
H454 H 0.02039 0.93772 0.40143 0.0
H455 H 0.03833 0.90659 0.36631 0.0
H456 H 0.08407 0.83466 0.39816 0.0
C457 C 0.16898 0.83544 0.33616 0.0
C458 C 0.10907 0.87562 0.33235 0.0
C459 C 0.19096 0.82538 0.32113 0.0
C460 C 0.03373 0.92206 0.40843 0.0
C461 C 0.04438 0.90453 0.38836 0.0
C462 C 0.09082 0.84642 0.37994 0.0
C463 C 0.1438 0.8412 0.3221 0.0
C464 C 0.12033 0.85072 0.33864 0.0
C465 C 0.0642 0.88605 0.39646 0.0
C466 C 0.08086 0.8723 0.37485 0.0
H467 H 0.16042 0.82326 0.25492 0.0
H468 H 0.12211 0.84207 0.2813 0.0
H469 H 0.11869 0.81639 0.36716 0.0
H470 H 0.06688 0.90005 0.46749 0.0
H471 H 0.08614 0.86988 0.43266 0.0
C472 C 0.15142 0.81255 0.70598 0.0
C473 C 0.16985 0.79698 0.69098 0.0
C474 C 0.13129 0.82655 0.69149 0.0
C475 C 0.09918 0.83585 0.61986 0.0
H476 H 0.10087 0.9123 0.64517 0.0
C477 C 0.08587 0.92478 0.54539 0.0
C478 C 0.0658 0.94317 0.55241 0.0
C479 C 0.09312 0.90509 0.56458 0.0
C480 C 0.09981 0.8909 0.63815 0.0
H481 H 0.18086 0.78225 0.64953 0.0
H482 H 0.14651 0.8074 0.62407 0.0
H483 H 0.12183 0.87903 0.67522 0.0
H484 H 0.03824 0.95608 0.58522 0.0
H485 H 0.05182 0.92196 0.61926 0.0
H486 H 0.07889 0.84844 0.58187 0.0
C487 C 0.14699 0.80847 0.64697 0.0
C488 C 0.11163 0.87178 0.65538 0.0
C489 C 0.16687 0.79424 0.6615 0.0
C490 C 0.05377 0.94209 0.5793 0.0
C491 C 0.06142 0.92264 0.5987 0.0
C492 C 0.08774 0.85507 0.6025 0.0
C493 C 0.12954 0.82543 0.66176 0.0
C494 C 0.11226 0.84422 0.64601 0.0
C495 C 0.08076 0.90373 0.59122 0.0
C496 C 0.08877 0.88285 0.61121 0.0
H497 H 0.15318 0.81464 0.72883 0.0
H498 H 0.11779 0.83902 0.7035 0.0
H499 H 0.09878 0.81466 0.61233 0.0
H500 H 0.09532 0.925 0.52475 0.0
H501 H 0.10845 0.8909 0.55862 0.0
C502 C 0.21275 0.1908 0.6967 0.0
C503 C 0.2096 0.18675 0.72585 0.0
C504 C 0.19985 0.17163 0.67692 0.0
C505 C 0.13799 0.12414 0.66577 0.0
H506 H 0.17935 0.09021 0.60674 0.0
C507 C 0.07966 0.04831 0.58409 0.0
C508 C 0.08942 0.04842 0.55629 0.0
C509 C 0.09562 0.06265 0.60586 0.0
C510 C 0.16731 0.09979 0.62276 0.0
H511 H 0.19045 0.15951 0.75714 0.0
H512 H 0.16698 0.12649 0.7224 0.0
H513 H 0.20496 0.12057 0.64222 0.0
H514 H 0.1235 0.06364 0.52944 0.0
H515 H 0.15061 0.08973 0.56686 0.0
H516 H 0.1002 0.10497 0.6458 0.0
C517 C 0.17988 0.14428 0.715 0.0
C518 C 0.1821 0.117 0.64321 0.0
C519 C 0.19334 0.16312 0.73482 0.0
C520 C 0.11558 0.06292 0.55074 0.0
C521 C 0.13123 0.07779 0.57235 0.0
C522 C 0.1231 0.10746 0.64499 0.0
C523 C 0.18296 0.14843 0.68589 0.0
C524 C 0.16755 0.12934 0.66485 0.0
C525 C 0.12142 0.07805 0.60025 0.0
C526 C 0.1375 0.09505 0.62308 0.0
H527 H 0.22471 0.20905 0.68914 0.0
H528 H 0.20228 0.17541 0.65456 0.0
H529 H 0.12628 0.13371 0.6821 0.0
H530 H 0.05966 0.03709 0.58903 0.0
H531 H 0.08757 0.06165 0.62707 0.0
C532 C 0.86805 0.19755 0.72296 0.0
C533 C 0.83905 0.19009 0.71759 0.0
C534 C 0.88842 0.18718 0.70577 0.0
C535 C 0.8954 0.15843 0.63375 0.0
H536 H 0.96629 0.13472 0.66299 0.0
C537 C 0.97698 0.07947 0.59597 0.0
C538 C 0.9783 0.08577 0.56718 0.0
C539 C 0.96675 0.09785 0.61533 0.0
C540 C 0.94667 0.14147 0.65448 0.0
H541 H 0.80859 0.16495 0.69105 0.0
H542 H 0.84412 0.14632 0.66141 0.0
H543 H 0.93293 0.15288 0.69557 0.0
H544 H 0.9722 0.11694 0.53616 0.0
H545 H 0.95432 0.14952 0.57019 0.0
H546 H 0.90838 0.14586 0.5929 0.0
C547 C 0.85115 0.16067 0.67847 0.0
C548 C 0.92761 0.15197 0.67314 0.0
C549 C 0.83081 0.17104 0.69565 0.0
C550 C 0.97158 0.1118 0.55835 0.0
C551 C 0.96106 0.13022 0.57776 0.0
C552 C 0.91442 0.14797 0.61514 0.0
C553 C 0.88014 0.16918 0.68286 0.0
C554 C 0.90143 0.15989 0.66304 0.0
C555 C 0.95734 0.12286 0.60622 0.0
C556 C 0.93998 0.13871 0.62534 0.0
H557 H 0.87496 0.21234 0.73967 0.0
H558 H 0.91055 0.19418 0.7097 0.0
H559 H 0.8757 0.16495 0.62521 0.0
H560 H 0.98198 0.05941 0.60318 0.0
H561 H 0.96402 0.09135 0.63694 0.0
C562 C 0.82357 0.82568 0.72431 0.0
C563 C 0.80857 0.80032 0.71674 0.0
C564 C 0.8405 0.84022 0.70471 0.0
C565 C 0.85494 0.84591 0.62758 0.0
H566 H 0.92579 0.88387 0.65574 0.0
C567 C 0.93574 0.90481 0.55356 0.0
C568 C 0.94516 0.93162 0.56329 0.0
C569 C 0.92089 0.88621 0.57156 0.0
C570 C 0.90605 0.87345 0.6475 0.0
H571 H 0.799 0.77067 0.68231 0.0
H572 H 0.82872 0.79585 0.64815 0.0
H573 H 0.89534 0.85741 0.68803 0.0
H574 H 0.94763 0.95939 0.59984 0.0
H575 H 0.92245 0.92716 0.631 0.0
H576 H 0.86583 0.86219 0.58698 0.0
C577 C 0.82727 0.80472 0.66918 0.0
C578 C 0.88843 0.85836 0.66609 0.0
C579 C 0.81024 0.7902 0.68881 0.0
C580 C 0.94061 0.93892 0.59164 0.0
C581 C 0.92625 0.92034 0.6096 0.0
C582 C 0.87268 0.86096 0.60891 0.0
C583 C 0.84302 0.82976 0.67696 0.0
C584 C 0.86235 0.84475 0.65657 0.0
C585 C 0.91567 0.89392 0.59974 0.0
C586 C 0.89825 0.87533 0.61873 0.0
H587 H 0.82261 0.83412 0.7456 0.0
H588 H 0.8517 0.8597 0.7114 0.0
H589 H 0.83499 0.83591 0.61941 0.0
H590 H 0.93872 0.89866 0.53178 0.0
H591 H 0.91321 0.86593 0.56334 0.0
C592 C 0.33274 0.19436 0.21303 0.0
C593 C 0.30867 0.20441 0.20016 0.0
C594 C 0.35102 0.17902 0.19732 0.0
C595 C 0.37065 0.16243 0.1225 0.0
H596 H 0.40688 0.10311 0.15783 0.0
C597 C 0.45055 0.09879 0.06171 0.0
C598 C 0.44831 0.07015 0.06613 0.0
C599 C 0.43586 0.1166 0.07882 0.0
C600 C 0.39689 0.11948 0.14743 0.0
H601 H 0.28502 0.20552 0.16037 0.0
H602 H 0.31626 0.17846 0.13336 0.0
H603 H 0.37587 0.12988 0.18527 0.0
H604 H 0.42938 0.03829 0.09308 0.0
H605 H 0.40409 0.06875 0.12216 0.0
H606 H 0.39098 0.15132 0.08436 0.0
C607 C 0.3215 0.18288 0.1555 0.0
C608 C 0.37923 0.13519 0.16341 0.0
C609 C 0.30329 0.19826 0.17116 0.0
C610 C 0.43176 0.06013 0.08876 0.0
C611 C 0.41726 0.07779 0.10576 0.0
C612 C 0.3883 0.14666 0.10648 0.0
C613 C 0.34585 0.17312 0.1682 0.0
C614 C 0.36553 0.15681 0.15121 0.0
C615 C 0.41868 0.10631 0.10098 0.0
C616 C 0.40149 0.12467 0.11856 0.0
H617 H 0.33784 0.19877 0.2352 0.0
H618 H 0.3696 0.1723 0.20801 0.0
H619 H 0.36103 0.17912 0.11226 0.0
H620 H 0.46292 0.10736 0.0445 0.0
H621 H 0.43787 0.13844 0.07456 0.0
C622 C 0.79286 0.30812 0.17351 0.0
C623 C 0.8022 0.28722 0.19054 0.0
C624 C 0.81135 0.32165 0.15452 0.0
C625 C 0.88748 0.33892 0.14719 0.0
H626 H 0.86709 0.36314 0.07236 0.0
C627 C 0.94129 0.40268 0.04802 0.0
C628 C 0.95184 0.42695 0.06272 0.0
C629 C 0.92504 0.38196 0.06196 0.0
C630 C 0.87316 0.35617 0.09308 0.0
H631 H 0.83733 0.26256 0.19938 0.0
H632 H 0.86916 0.28592 0.16638 0.0
H633 H 0.83275 0.33351 0.09852 0.0
H634 H 0.9553 0.44789 0.1037 0.0
H635 H 0.92753 0.41154 0.1281 0.0
H636 H 0.92757 0.36197 0.14211 0.0
C637 C 0.84794 0.29237 0.1681 0.0
C638 C 0.85344 0.33951 0.10813 0.0
C639 C 0.82963 0.27899 0.18699 0.0
C640 C 0.94737 0.4294 0.09187 0.0
C641 C 0.93155 0.40857 0.10584 0.0
C642 C 0.90704 0.3557 0.13229 0.0
C643 C 0.83934 0.31438 0.1523 0.0
C644 C 0.86035 0.33092 0.13543 0.0
C645 C 0.91957 0.38501 0.09087 0.0
C646 C 0.89997 0.36476 0.10524 0.0
H647 H 0.77181 0.31484 0.17575 0.0
H648 H 0.80419 0.33863 0.14261 0.0
H649 H 0.89332 0.33288 0.16832 0.0
H650 H 0.94422 0.40038 0.02547 0.0
H651 H 0.91619 0.36386 0.05002 0.0
C652 C 0.71122 0.80955 0.15903 0.0
C653 C 0.7153 0.81377 0.1885 0.0
C654 C 0.69381 0.82592 0.14307 0.0
C655 C 0.66378 0.89415 0.14312 0.0
H656 H 0.61062 0.86074 0.08603 0.0
C657 C 0.60771 0.95813 0.05837 0.0
C658 C 0.57872 0.95113 0.05177 0.0
C659 C 0.62311 0.94179 0.07631 0.0
C660 C 0.62523 0.87046 0.10197 0.0
H661 H 0.70409 0.83916 0.22395 0.0
H662 H 0.67449 0.86798 0.19614 0.0
H663 H 0.64 0.83167 0.11399 0.0
H664 H 0.54338 0.92106 0.05938 0.0
H665 H 0.57042 0.89217 0.09025 0.0
H666 H 0.64944 0.93297 0.13075 0.0
C667 C 0.68462 0.85184 0.18534 0.0
C668 C 0.64232 0.85375 0.11789 0.0
C669 C 0.70159 0.83515 0.20137 0.0
C670 C 0.56556 0.9273 0.06405 0.0
C671 C 0.58118 0.91057 0.08159 0.0
C672 C 0.64709 0.91088 0.12684 0.0
C673 C 0.68028 0.84745 0.15591 0.0
C674 C 0.6619 0.86529 0.13879 0.0
C675 C 0.61029 0.91748 0.08792 0.0
C676 C 0.62749 0.89936 0.10597 0.0
H677 H 0.72123 0.79329 0.14826 0.0
H678 H 0.69126 0.82194 0.12049 0.0
H679 H 0.67862 0.90394 0.15881 0.0
H680 H 0.6187 0.97626 0.0494 0.0
H681 H 0.64542 0.94783 0.08041 0.0
C682 C 0.21378 0.70997 0.16915 0.0
C683 C 0.21902 0.7048 0.19784 0.0
C684 C 0.20148 0.68898 0.15099 0.0
C685 C 0.15079 0.63062 0.14913 0.0
H686 H 0.18572 0.60617 0.08092 0.0
C687 C 0.09153 0.54791 0.07527 0.0
C688 C 0.09542 0.55014 0.04605 0.0
C689 C 0.10901 0.56414 0.09454 0.0
C690 C 0.17537 0.61299 0.09961 0.0
H691 H 0.21594 0.67367 0.23005 0.0
H692 H 0.19333 0.63716 0.19839 0.0
H693 H 0.21179 0.6402 0.11258 0.0
H694 H 0.12059 0.57108 0.014 0.0
H695 H 0.15006 0.60036 0.04725 0.0
H696 H 0.11375 0.60513 0.13574 0.0
C697 C 0.1992 0.65735 0.18998 0.0
C698 C 0.1905 0.63231 0.11784 0.0
C699 C 0.21217 0.67816 0.20799 0.0
C700 C 0.11738 0.56863 0.03646 0.0
C701 C 0.1344 0.58537 0.05566 0.0
C702 C 0.13537 0.61184 0.1306 0.0
C703 C 0.19363 0.66266 0.16138 0.0
C704 C 0.1783 0.64129 0.1427 0.0
C705 C 0.13033 0.58361 0.08503 0.0
C706 C 0.14736 0.60275 0.10546 0.0
H707 H 0.21895 0.73033 0.16082 0.0
H708 H 0.19724 0.69353 0.12903 0.0
H709 H 0.14085 0.63753 0.16807 0.0
H710 H 0.07484 0.53368 0.08324 0.0
H711 H 0.10556 0.56149 0.1169 0.0
C712 C 0.28759 0.83288 0.80548 0.0
C713 C 0.29683 0.81319 0.78667 0.0
C714 C 0.30712 0.84948 0.82225 0.0
C715 C 0.38243 0.87623 0.82838 0.0
H716 H 0.36232 0.89191 0.90565 0.0
C717 C 0.45613 0.93531 0.91547 0.0
C718 C 0.44249 0.95343 0.93292 0.0
C719 C 0.44049 0.91903 0.89474 0.0
C720 C 0.36814 0.88791 0.88404 0.0
H721 H 0.33364 0.79518 0.77053 0.0
H722 H 0.36795 0.82401 0.80033 0.0
H723 H 0.33099 0.86043 0.87622 0.0
H724 H 0.40275 0.97089 0.9406 0.0
H725 H 0.37574 0.9429 0.90442 0.0
H726 H 0.41986 0.9038 0.83664 0.0
C727 C 0.34561 0.82686 0.80181 0.0
C728 C 0.35018 0.86988 0.86717 0.0
C729 C 0.32599 0.81026 0.78493 0.0
C730 C 0.41367 0.95669 0.92779 0.0
C731 C 0.39819 0.94062 0.90717 0.0
C732 C 0.40058 0.89426 0.84543 0.0
C733 C 0.33634 0.84662 0.8207 0.0
C734 C 0.35679 0.86423 0.83898 0.0
C735 C 0.41113 0.92081 0.89128 0.0
C736 C 0.39324 0.90067 0.87323 0.0
H737 H 0.26523 0.83564 0.80712 0.0
H738 H 0.2993 0.86481 0.83622 0.0
H739 H 0.38804 0.87234 0.80669 0.0
H740 H 0.47836 0.93242 0.91902 0.0
H741 H 0.45097 0.90396 0.88267 0.0
C742 C 0.1853 0.2986 0.86021 0.0
C743 C 0.17866 0.27517 0.84282 0.0
C744 C 0.16387 0.31069 0.87434 0.0
C745 C 0.09198 0.32384 0.8628 0.0
H746 H 0.09513 0.34926 0.94115 0.0
C747 C 0.03211 0.39626 0.94583 0.0
C748 C 0.03745 0.42201 0.93304 0.0
C749 C 0.04235 0.37277 0.93404 0.0
C750 C 0.09369 0.34187 0.91935 0.0
H751 H 0.14496 0.24507 0.82747 0.0
H752 H 0.10734 0.26677 0.85162 0.0
H753 H 0.12888 0.31749 0.92492 0.0
H754 H 0.05487 0.44273 0.8963 0.0
H755 H 0.0723 0.40141 0.87542 0.0
H756 H 0.05807 0.34977 0.85679 0.0
C757 C 0.12909 0.27554 0.8545 0.0
C758 C 0.11304 0.3239 0.91011 0.0
C759 C 0.15058 0.26317 0.84081 0.0
C760 C 0.05067 0.42325 0.90677 0.0
C761 C 0.0605 0.39961 0.89475 0.0
C762 C 0.07297 0.34225 0.87192 0.0
C763 C 0.13553 0.29971 0.87083 0.0
C764 C 0.11265 0.31522 0.88166 0.0
C765 C 0.05756 0.37453 0.909 0.0
C766 C 0.07407 0.35178 0.90014 0.0
H767 H 0.20683 0.30818 0.86203 0.0
H768 H 0.16921 0.32948 0.88671 0.0
H769 H 0.09155 0.31755 0.84068 0.0
H770 H 0.02195 0.39452 0.96607 0.0
H771 H 0.03976 0.35355 0.94526 0.0
C772 C 0.6923 0.23435 0.82667 0.0
C773 C 0.71307 0.22053 0.81283 0.0
C774 C 0.67385 0.22042 0.84523 0.0
C775 C 0.64343 0.15022 0.86013 0.0
H776 H 0.61742 0.18428 0.92843 0.0
C777 C 0.55626 0.09351 0.92284 0.0
C778 C 0.5618 0.09238 0.95201 0.0
C779 C 0.57158 0.11298 0.90662 0.0
C780 C 0.62451 0.17448 0.90945 0.0
H781 H 0.73149 0.18147 0.80867 0.0
H782 H 0.69957 0.15725 0.84144 0.0
H783 H 0.6531 0.20952 0.90007 0.0
H784 H 0.58643 0.11108 0.98758 0.0
H785 H 0.61368 0.14503 0.95925 0.0
H786 H 0.61571 0.1149 0.86979 0.0
C787 C 0.69721 0.17877 0.83746 0.0
C788 C 0.64481 0.189 0.89309 0.0
C789 C 0.71565 0.19271 0.81882 0.0
C790 C 0.58149 0.11207 0.96513 0.0
C791 C 0.59712 0.1314 0.94886 0.0
C792 C 0.62325 0.13573 0.87644 0.0
C793 C 0.67575 0.19234 0.85046 0.0
C794 C 0.65458 0.17696 0.86829 0.0
C795 C 0.59318 0.13124 0.91923 0.0
C796 C 0.61349 0.14765 0.9013 0.0
H797 H 0.68969 0.25582 0.82263 0.0
H798 H 0.65744 0.23144 0.85467 0.0
H799 H 0.65012 0.14047 0.84094 0.0
H800 H 0.54131 0.07824 0.91236 0.0
H801 H 0.56753 0.11275 0.88396 0.0
C802 C 0.81469 0.70319 0.86536 0.0
C803 C 0.82697 0.72188 0.84605 0.0
C804 C 0.83182 0.68941 0.88362 0.0
C805 C 0.89955 0.66188 0.88326 0.0
H806 H 0.88328 0.64381 0.96103 0.0
C807 C 0.96138 0.58553 0.94706 0.0
C808 C 0.94537 0.56801 0.96509 0.0
C809 C 0.94894 0.60675 0.93342 0.0
C810 C 0.88791 0.64852 0.93924 0.0
H811 H 0.86636 0.74236 0.83164 0.0
H812 H 0.89651 0.71782 0.86348 0.0
H813 H 0.85848 0.67944 0.93788 0.0
H814 H 0.90352 0.55781 0.98167 0.0
H815 H 0.88161 0.59425 0.95713 0.0
H816 H 0.92799 0.63018 0.88407 0.0
C817 C 0.87368 0.7139 0.86444 0.0
C818 C 0.87392 0.66903 0.92615 0.0
C819 C 0.85649 0.72795 0.84638 0.0
C820 C 0.91644 0.57122 0.96814 0.0
C821 C 0.90397 0.59224 0.95432 0.0
C822 C 0.91338 0.6412 0.89627 0.0
C823 C 0.86147 0.69395 0.88259 0.0
C824 C 0.87925 0.6755 0.8979 0.0
C825 C 0.92024 0.61064 0.93738 0.0
C826 C 0.90724 0.63392 0.92419 0.0
H827 H 0.79192 0.69829 0.86547 0.0
H828 H 0.82192 0.67396 0.89727 0.0
H829 H 0.90368 0.66624 0.86128 0.0
H830 H 0.9838 0.58365 0.94446 0.0
H831 H 0.96204 0.62067 0.92057 0.0
C832 C 0.20375 0.30547 0.13536 0.0
C833 C 0.1916 0.28611 0.15407 0.0
C834 C 0.18654 0.31922 0.11717 0.0
C835 C 0.1185 0.34563 0.11762 0.0
H836 H 0.13539 0.36587 0.04054 0.0
C837 C 0.05755 0.42405 0.05571 0.0
C838 C 0.07382 0.44197 0.03829 0.0
C839 C 0.06974 0.40241 0.06886 0.0
C840 C 0.13057 0.36055 0.06214 0.0
H841 H 0.15242 0.26443 0.16749 0.0
H842 H 0.12207 0.289 0.13582 0.0
H843 H 0.16007 0.32968 0.06281 0.0
H844 H 0.11588 0.4525 0.02236 0.0
H845 H 0.13738 0.41534 0.04609 0.0
H846 H 0.09006 0.37735 0.11756 0.0
C847 C 0.14488 0.29341 0.13523 0.0
C848 C 0.14448 0.3397 0.07471 0.0
C849 C 0.16218 0.27935 0.15319 0.0
C850 C 0.10278 0.43879 0.03544 0.0
C851 C 0.115 0.41735 0.04878 0.0
C852 C 0.10476 0.36666 0.10514 0.0
C853 C 0.15693 0.314 0.11771 0.0
C854 C 0.13897 0.3325 0.10273 0.0
C855 C 0.09844 0.39852 0.065 0.0
C856 C 0.11116 0.37475 0.07751 0.0
H857 H 0.22645 0.31089 0.13568 0.0
H858 H 0.19631 0.33518 0.10401 0.0
H859 H 0.11423 0.34069 0.13943 0.0
H860 H 0.03509 0.42591 0.05812 0.0
H861 H 0.05643 0.38817 0.08118 0.0
C862 C 0.18836 0.72918 0.81354 0.0
C863 C 0.21588 0.72089 0.81092 0.0
C864 C 0.16989 0.71674 0.83289 0.0
C865 C 0.13032 0.67106 0.8553 0.0
H866 H 0.15033 0.64865 0.93091 0.0
C867 C 0.07188 0.58033 0.91122 0.0
C868 C 0.06715 0.58288 0.94031 0.0
C869 C 0.08728 0.6014 0.89718 0.0
C870 C 0.14433 0.65514 0.90998 0.0
H871 H 0.24629 0.69432 0.82778 0.0
H872 H 0.21364 0.67212 0.86162 0.0
H873 H 0.18449 0.67824 0.90456 0.0
H874 H 0.07383 0.60987 0.97736 0.0
H875 H 0.10111 0.64679 0.95269 0.0
H876 H 0.0905 0.64751 0.86036 0.0
C877 C 0.20652 0.68843 0.8487 0.0
C878 C 0.16397 0.67178 0.89483 0.0
C879 C 0.22517 0.70104 0.8293 0.0
C880 C 0.077 0.60746 0.95486 0.0
C881 C 0.09281 0.62843 0.94086 0.0
C882 C 0.11084 0.65432 0.87033 0.0
C883 C 0.17842 0.69562 0.85003 0.0
C884 C 0.15726 0.67963 0.8672 0.0
C885 C 0.09854 0.62532 0.91202 0.0
C886 C 0.1178 0.64583 0.89762 0.0
H887 H 0.18073 0.74485 0.80007 0.0
H888 H 0.14859 0.72314 0.83388 0.0
H889 H 0.12462 0.67649 0.83393 0.0
H890 H 0.06447 0.56163 0.89948 0.0
H891 H 0.09154 0.59836 0.87499 0.0
C892 C 0.31693 0.17298 0.79697 0.0
C893 C 0.30309 0.1941 0.81012 0.0
C894 C 0.33383 0.15608 0.81284 0.0
C895 C 0.37589 0.15363 0.88028 0.0
H896 H 0.36835 0.07439 0.86758 0.0
C897 C 0.45195 0.07978 0.9345 0.0
C898 C 0.43853 0.05625 0.94711 0.0
C899 C 0.43651 0.09649 0.91678 0.0
C900 C 0.37082 0.09648 0.87142 0.0
H901 H 0.29686 0.21393 0.85064 0.0
H902 H 0.32671 0.18498 0.87807 0.0
H903 H 0.33947 0.10356 0.83929 0.0
H904 H 0.39832 0.03159 0.94985 0.0
H905 H 0.37189 0.05998 0.91847 0.0
H906 H 0.40741 0.14654 0.91228 0.0
C907 C 0.32431 0.18133 0.85544 0.0
C908 C 0.35431 0.11329 0.85502 0.0
C909 C 0.30696 0.19787 0.83966 0.0
C910 C 0.40947 0.0495 0.94065 0.0
C911 C 0.39426 0.0658 0.9225 0.0
C912 C 0.39282 0.13686 0.89629 0.0
C913 C 0.33799 0.16007 0.84233 0.0
C914 C 0.35633 0.14214 0.85935 0.0
C915 C 0.40735 0.08982 0.91057 0.0
C916 C 0.39038 0.10796 0.89235 0.0
H917 H 0.3146 0.16936 0.77432 0.0
H918 H 0.34408 0.14011 0.80187 0.0
H919 H 0.37829 0.17571 0.88416 0.0
H920 H 0.47419 0.08581 0.93905 0.0
H921 H 0.44746 0.11467 0.90788 0.0
C922 C 0.80786 0.33233 0.79437 0.0
C923 C 0.80051 0.30606 0.80522 0.0
C924 C 0.82034 0.35362 0.81211 0.0
C925 C 0.82776 0.38022 0.8841 0.0
H926 H 0.90503 0.40621 0.86688 0.0
C927 C 0.90128 0.44245 0.9661 0.0
C928 C 0.92374 0.46049 0.95676 0.0
C929 C 0.88401 0.4262 0.9467 0.0
C930 C 0.88326 0.39985 0.8718 0.0
H931 H 0.79903 0.28174 0.84311 0.0
H932 H 0.81988 0.31935 0.87435 0.0
H933 H 0.87786 0.37389 0.83453 0.0
H934 H 0.94494 0.47674 0.91982 0.0
H935 H 0.91384 0.44979 0.8858 0.0
H936 H 0.83253 0.40656 0.92088 0.0
C937 C 0.81641 0.32326 0.8521 0.0
C938 C 0.8678 0.38113 0.85326 0.0
C939 C 0.8046 0.30179 0.83426 0.0
C940 C 0.92787 0.46283 0.92759 0.0
C941 C 0.91016 0.4471 0.90812 0.0
C942 C 0.84296 0.39948 0.90234 0.0
C943 C 0.8249 0.34917 0.84107 0.0
C944 C 0.84011 0.37084 0.85948 0.0
C945 C 0.88835 0.42803 0.91738 0.0
C946 C 0.87117 0.40923 0.89677 0.0
H947 H 0.80497 0.33612 0.77203 0.0
H948 H 0.82673 0.37347 0.80319 0.0
H949 H 0.80634 0.37262 0.88921 0.0
H950 H 0.89784 0.43994 0.98852 0.0
H951 H 0.86795 0.4115 0.95492 0.0
C952 C 0.71974 0.81646 0.82501 0.0
C953 C 0.71004 0.80364 0.79919 0.0
C954 C 0.70227 0.83259 0.84071 0.0
C955 C 0.62752 0.84321 0.85441 0.0
H956 H 0.65818 0.91466 0.88403 0.0
C957 C 0.55826 0.9172 0.91714 0.0
C958 C 0.57224 0.93558 0.93727 0.0
C959 C 0.57388 0.90039 0.89981 0.0
C960 C 0.6492 0.89454 0.87655 0.0
H961 H 0.67391 0.79774 0.76993 0.0
H962 H 0.64326 0.82542 0.79767 0.0
H963 H 0.68751 0.88721 0.85544 0.0
H964 H 0.61322 0.94963 0.95605 0.0
H965 H 0.63996 0.91971 0.92758 0.0
H966 H 0.58948 0.85004 0.87626 0.0
C967 C 0.66456 0.82313 0.8056 0.0
C968 C 0.66615 0.87884 0.85984 0.0
C969 C 0.68226 0.80744 0.78957 0.0
C970 C 0.60184 0.9359 0.9405 0.0
C971 C 0.61728 0.91887 0.92376 0.0
C972 C 0.61064 0.85874 0.87161 0.0
C973 C 0.67432 0.83596 0.83141 0.0
C974 C 0.65567 0.85289 0.84861 0.0
C975 C 0.60381 0.90128 0.90251 0.0
C976 C 0.62125 0.88465 0.88325 0.0
H977 H 0.74092 0.814 0.83319 0.0
H978 H 0.71049 0.842 0.86053 0.0
H979 H 0.61877 0.82323 0.84624 0.0
H980 H 0.53548 0.91663 0.91401 0.0
H981 H 0.56248 0.88736 0.88374 0.0
C982 C 0.85763 0.74087 0.14577 0.0
C983 C 0.8367 0.7239 0.15921 0.0
C984 C 0.88147 0.72968 0.13508 0.0
C985 C 0.92612 0.67553 0.14952 0.0
H986 H 0.94266 0.67114 0.0698 0.0
C987 C 0.97036 0.58383 0.09871 0.0
C988 C 0.98469 0.58633 0.07314 0.0
C989 C 0.96215 0.60714 0.11266 0.0
C990 C 0.93906 0.6729 0.09226 0.0
H991 H 0.82332 0.68197 0.17084 0.0
H992 H 0.86508 0.66254 0.15244 0.0
H993 H 0.90652 0.70027 0.08565 0.0
H994 H 1.00469 0.61551 0.04393 0.0
H995 H 0.99038 0.65628 0.06849 0.0
H996 H 0.95776 0.64747 0.15621 0.0
C997 C 0.8631 0.68442 0.15032 0.0
C998 C 0.91822 0.68943 0.10122 0.0
C999 C 0.83915 0.69547 0.16055 0.0
C1000 C 0.99331 0.61282 0.06341 0.0
C1001 C 0.98503 0.63621 0.07739 0.0
C1002 C 0.94717 0.65932 0.14067 0.0
C1003 C 0.88472 0.70155 0.13823 0.0
C1004 C 0.91072 0.68968 0.12967 0.0
C1005 C 0.96816 0.63346 0.10136 0.0
C1006 C 0.95274 0.65664 0.11175 0.0
H1007 H 0.85614 0.7629 0.14457 0.0
H1008 H 0.89789 0.74309 0.12553 0.0
H1009 H 0.9208 0.67586 0.17168 0.0
H1010 H 0.9638 0.56376 0.10705 0.0
H1011 H 0.94905 0.6042 0.131 0.0
C1012 C 0.32637 0.77371 0.1741 0.0
C1013 C 0.30974 0.78877 0.19193 0.0
C1014 C 0.34478 0.7872 0.15525 0.0
C1015 C 0.3842 0.85442 0.1442 0.0
H1016 H 0.39261 0.82584 0.06801 0.0
C1017 C 0.46534 0.90805 0.07135 0.0
C1018 C 0.45409 0.91388 0.04469 0.0
C1019 C 0.4509 0.88848 0.08825 0.0
C1020 C 0.39055 0.83402 0.08925 0.0
H1021 H 0.29886 0.82981 0.20333 0.0
H1022 H 0.33087 0.8534 0.17011 0.0
H1023 H 0.35884 0.80181 0.09927 0.0
H1024 H 0.42005 0.90358 0.01397 0.0
H1025 H 0.39472 0.86935 0.04331 0.0
H1026 H 0.41512 0.88711 0.13398 0.0
C1027 C 0.32991 0.83113 0.17108 0.0
C1028 C 0.37132 0.8202 0.1072 0.0
C1029 C 0.3114 0.81761 0.18994 0.0
C1030 C 0.42928 0.89885 0.03432 0.0
C1031 C 0.41482 0.87933 0.05116 0.0
C1032 C 0.40342 0.8682 0.12629 0.0
C1033 C 0.34705 0.81608 0.15378 0.0
C1034 C 0.36773 0.83043 0.13477 0.0
C1035 C 0.42487 0.87474 0.07877 0.0
C1036 C 0.40663 0.85832 0.09852 0.0
H1037 H 0.32561 0.75145 0.17501 0.0
H1038 H 0.35783 0.77503 0.14239 0.0
H1039 H 0.38224 0.86259 0.16547 0.0
H1040 H 0.48427 0.91983 0.0798 0.0
H1041 H 0.45938 0.88509 0.10926 0.0
C1042 C 0.69214 0.19584 0.21324 0.0
C1043 C 0.72129 0.19359 0.21024 0.0
C1044 C 0.67226 0.17971 0.19626 0.0
C1045 C 0.66597 0.13914 0.12928 0.0
H1046 H 0.5988 0.10207 0.16178 0.0
C1047 C 0.56083 0.07132 0.08302 0.0
C1048 C 0.57465 0.05374 0.06513 0.0
C1049 C 0.57647 0.0878 0.10359 0.0
C1050 C 0.61736 0.11252 0.15246 0.0
H1051 H 0.75263 0.17297 0.18728 0.0
H1052 H 0.71808 0.14458 0.15794 0.0
H1053 H 0.63091 0.1336 0.19136 0.0
H1054 H 0.61474 0.03735 0.05651 0.0
H1055 H 0.64178 0.06575 0.09235 0.0
H1056 H 0.65289 0.11779 0.09064 0.0
C1057 C 0.71047 0.15904 0.17303 0.0
C1058 C 0.63566 0.13059 0.16929 0.0
C1059 C 0.73028 0.17517 0.18992 0.0
C1060 C 0.60368 0.05114 0.06967 0.0
C1061 C 0.61917 0.06743 0.0901 0.0
C1062 C 0.64788 0.12105 0.11263 0.0
C1063 C 0.68124 0.1611 0.17599 0.0
C1064 C 0.66045 0.14368 0.15795 0.0
C1065 C 0.60598 0.08673 0.1064 0.0
C1066 C 0.62373 0.10715 0.12416 0.0
H1067 H 0.68469 0.20992 0.22883 0.0
H1068 H 0.64991 0.18195 0.19884 0.0
H1069 H 0.68446 0.14944 0.11971 0.0
H1070 H 0.53844 0.07368 0.07991 0.0
H1071 H 0.56585 0.10248 0.11604 0.0
C1072 C 0.6964 0.66294 0.78154 0.0
C1073 C 0.71047 0.68876 0.78904 0.0
C1074 C 0.68223 0.64675 0.80188 0.0
C1075 C 0.66682 0.61028 0.85193 0.0
H1076 H 0.62182 0.64554 0.90711 0.0
C1077 C 0.61565 0.54955 0.94381 0.0
C1078 C 0.58733 0.55363 0.9498 0.0
C1079 C 0.63125 0.56706 0.92568 0.0
C1080 C 0.63419 0.63536 0.89178 0.0
H1081 H 0.72111 0.71769 0.82391 0.0
H1082 H 0.69653 0.68939 0.85946 0.0
H1083 H 0.64793 0.67348 0.87228 0.0
H1084 H 0.55361 0.58015 0.94187 0.0
H1085 H 0.58095 0.61078 0.91023 0.0
H1086 H 0.65281 0.57215 0.87105 0.0
C1087 C 0.69616 0.68175 0.83778 0.0
C1088 C 0.64941 0.65141 0.87198 0.0
C1089 C 0.71045 0.69787 0.81745 0.0
C1090 C 0.57539 0.5764 0.93791 0.0
C1091 C 0.59109 0.59401 0.91975 0.0
C1092 C 0.65177 0.59428 0.8718 0.0
C1093 C 0.68168 0.65604 0.83024 0.0
C1094 C 0.66587 0.63907 0.85173 0.0
C1095 C 0.61906 0.58923 0.91297 0.0
C1096 C 0.63522 0.60657 0.892 0.0
H1097 H 0.69598 0.65538 0.75982 0.0
H1098 H 0.67111 0.62721 0.79522 0.0
H1099 H 0.67943 0.60007 0.83685 0.0
H1100 H 0.62568 0.53238 0.95265 0.0
H1101 H 0.65289 0.56306 0.92141 0.0
C1102 C 0.38043 0.69409 0.77382 0.0
C1103 C 0.36343 0.71062 0.78951 0.0
C1104 C 0.40306 0.68243 0.78691 0.0
C1105 C 0.44576 0.6817 0.85413 0.0
H1106 H 0.44081 0.60295 0.83827 0.0
C1107 C 0.46308 0.6017 0.93724 0.0
C1108 C 0.47446 0.57697 0.92972 0.0
C1109 C 0.45933 0.6216 0.91707 0.0
C1110 C 0.44313 0.62499 0.84252 0.0
H1111 H 0.35746 0.72938 0.83057 0.0
H1112 H 0.39642 0.70827 0.85382 0.0
H1113 H 0.41588 0.63245 0.80749 0.0
H1114 H 0.4925 0.55454 0.8954 0.0
H1115 H 0.48553 0.58933 0.86002 0.0
H1116 H 0.47161 0.6737 0.89034 0.0
C1117 C 0.39274 0.70469 0.8313 0.0
C1118 C 0.42882 0.64196 0.82484 0.0
C1119 C 0.37024 0.71656 0.81811 0.0
C1120 C 0.48334 0.5732 0.90185 0.0
C1121 C 0.47943 0.59312 0.88158 0.0
C1122 C 0.46003 0.66466 0.8719 0.0
C1123 C 0.40889 0.68688 0.816 0.0
C1124 C 0.42902 0.67032 0.83112 0.0
C1125 C 0.46681 0.61721 0.8889 0.0
C1126 C 0.45784 0.636 0.86688 0.0
H1127 H 0.37578 0.68956 0.75157 0.0
H1128 H 0.4154 0.66917 0.77447 0.0
H1129 H 0.44676 0.70357 0.85915 0.0
H1130 H 0.45636 0.6055 0.95859 0.0
H1131 H 0.4492 0.6398 0.92326 0.0
C1132 C 0.30135 0.30497 0.82083 0.0
C1133 C 0.30125 0.31039 0.79175 0.0
C1134 C 0.31569 0.32367 0.84024 0.0
C1135 C 0.34612 0.39616 0.84923 0.0
H1136 H 0.39329 0.36664 0.90745 0.0
C1137 C 0.44319 0.43685 0.93232 0.0
C1138 C 0.43256 0.4608 0.94341 0.0
C1139 C 0.42601 0.41825 0.91501 0.0
C1140 C 0.38031 0.37522 0.89126 0.0
H1141 H 0.31523 0.33996 0.76024 0.0
H1142 H 0.34026 0.37262 0.79406 0.0
H1143 H 0.36504 0.33521 0.8748 0.0
H1144 H 0.39523 0.48358 0.94525 0.0
H1145 H 0.36538 0.45111 0.91519 0.0
H1146 H 0.36182 0.43618 0.86532 0.0
C1147 C 0.32921 0.354 0.80194 0.0
C1148 C 0.36386 0.3572 0.87274 0.0
C1149 C 0.31497 0.33525 0.78253 0.0
C1150 C 0.40421 0.46544 0.93704 0.0
C1151 C 0.3871 0.4469 0.91965 0.0
C1152 C 0.36245 0.41417 0.86784 0.0
C1153 C 0.33009 0.34826 0.83099 0.0
C1154 C 0.34669 0.36745 0.85138 0.0
C1155 C 0.39783 0.42317 0.90826 0.0
C1156 C 0.37988 0.40393 0.88898 0.0
H1157 H 0.29086 0.28601 0.82856 0.0
H1158 H 0.3156 0.31881 0.8625 0.0
H1159 H 0.33296 0.40474 0.83318 0.0
H1160 H 0.46491 0.43258 0.9367 0.0
H1161 H 0.43504 0.40032 0.90636 0.0
C1162 C 0.65242 0.33773 0.75474 0.0
C1163 C 0.68084 0.34285 0.76397 0.0
C1164 C 0.63188 0.35388 0.76505 0.0
C1165 C 0.59465 0.37343 0.81134 0.0
H1166 H 0.6078 0.45147 0.83007 0.0
C1167 C 0.55906 0.4228 0.91293 0.0
C1168 C 0.55048 0.44966 0.91262 0.0
C1169 C 0.56763 0.41041 0.88815 0.0
C1170 C 0.60344 0.4298 0.82449 0.0
H1171 H 0.71058 0.36973 0.78959 0.0
H1172 H 0.67471 0.39793 0.80778 0.0
H1173 H 0.6384 0.43055 0.79656 0.0
H1174 H 0.54262 0.48406 0.8858 0.0
H1175 H 0.5581 0.46241 0.8425 0.0
H1176 H 0.56063 0.37239 0.84038 0.0
C1177 C 0.66825 0.38161 0.79246 0.0
C1178 C 0.62109 0.41781 0.80553 0.0
C1179 C 0.68876 0.36536 0.78225 0.0
C1180 C 0.54917 0.46332 0.88673 0.0
C1181 C 0.55809 0.45103 0.86196 0.0
C1182 C 0.57713 0.38538 0.83042 0.0
C1183 C 0.6395 0.37549 0.78461 0.0
C1184 C 0.61751 0.38933 0.79962 0.0
C1185 C 0.56803 0.42473 0.86263 0.0
C1186 C 0.58206 0.41344 0.83797 0.0
H1187 H 0.64585 0.32054 0.74047 0.0
H1188 H 0.60991 0.34889 0.75851 0.0
H1189 H 0.59148 0.35138 0.80731 0.0
H1190 H 0.56004 0.41166 0.93249 0.0
H1191 H 0.57548 0.39021 0.88933 0.0
C1192 C 0.63923 0.31346 0.2297 0.0
C1193 C 0.65517 0.29604 0.21386 0.0
C1194 C 0.61657 0.32544 0.21701 0.0
C1195 C 0.57241 0.32596 0.15056 0.0
H1196 H 0.57983 0.40497 0.16505 0.0
C1197 C 0.55761 0.40562 0.0664 0.0
C1198 C 0.54658 0.4306 0.07362 0.0
C1199 C 0.56083 0.38579 0.08679 0.0
C1200 C 0.57684 0.38288 0.1612 0.0
H1201 H 0.65922 0.27604 0.17304 0.0
H1202 H 0.62036 0.29774 0.15046 0.0
H1203 H 0.6042 0.37527 0.19606 0.0
H1204 H 0.52863 0.4536 0.1076 0.0
H1205 H 0.53477 0.41899 0.14333 0.0
H1206 H 0.5466 0.33412 0.11435 0.0
C1207 C 0.6248 0.30177 0.1728 0.0
C1208 C 0.59081 0.36578 0.17902 0.0
C1209 C 0.64727 0.28957 0.1856 0.0
C1210 C 0.53754 0.43473 0.10138 0.0
C1211 C 0.54095 0.41492 0.12185 0.0
C1212 C 0.55856 0.34313 0.13259 0.0
C1213 C 0.60971 0.32044 0.18818 0.0
C1214 C 0.58974 0.33728 0.1732 0.0
C1215 C 0.55319 0.39055 0.11484 0.0
C1216 C 0.56166 0.37185 0.13712 0.0
H1217 H 0.64472 0.31841 0.25171 0.0
H1218 H 0.60506 0.33936 0.22953 0.0
H1219 H 0.57069 0.304 0.14591 0.0
H1220 H 0.56443 0.40157 0.04514 0.0
H1221 H 0.57068 0.36734 0.08088 0.0
C1222 C 0.71613 0.70484 0.18265 0.0
C1223 C 0.71401 0.7013 0.21197 0.0
C1224 C 0.70227 0.68553 0.16356 0.0
C1225 C 0.65524 0.65181 0.12972 0.0
H1226 H 0.65392 0.57321 0.14214 0.0
C1227 C 0.57777 0.5715 0.06906 0.0
C1228 C 0.58829 0.54678 0.05991 0.0
C1229 C 0.59431 0.59035 0.08663 0.0
C1230 C 0.65426 0.59508 0.13824 0.0
H1231 H 0.69641 0.67444 0.24432 0.0
H1232 H 0.67219 0.64064 0.21099 0.0
H1233 H 0.68121 0.60563 0.17465 0.0
H1234 H 0.62476 0.52278 0.06196 0.0
H1235 H 0.65357 0.55571 0.09263 0.0
H1236 H 0.62832 0.64129 0.09332 0.0
C1237 C 0.68463 0.6583 0.20273 0.0
C1238 C 0.66967 0.61367 0.15704 0.0
C1239 C 0.69838 0.67771 0.22183 0.0
C1240 C 0.61593 0.54157 0.06858 0.0
C1241 C 0.6324 0.56037 0.08632 0.0
C1242 C 0.63969 0.63324 0.11105 0.0
C1243 C 0.68612 0.66215 0.17336 0.0
C1244 C 0.6703 0.64226 0.15305 0.0
C1245 C 0.62174 0.58493 0.09566 0.0
C1246 C 0.63893 0.60465 0.11512 0.0
H1247 H 0.72817 0.72276 0.17442 0.0
H1248 H 0.7042 0.68892 0.14109 0.0
H1249 H 0.65504 0.6737 0.12617 0.0
H1250 H 0.55659 0.57624 0.06288 0.0
H1251 H 0.58533 0.60893 0.09367 0.0
C1252 C 0.33195 0.64235 0.21808 0.0
C1253 C 0.33983 0.66447 0.23686 0.0
C1254 C 0.35236 0.62576 0.2083 0.0
C1255 C 0.39912 0.58874 0.19623 0.0
H1256 H 0.46144 0.63373 0.16384 0.0
C1257 C 0.47214 0.54336 0.11621 0.0
C1258 C 0.47121 0.55735 0.09049 0.0
C1259 C 0.46311 0.55548 0.14101 0.0
C1260 C 0.44444 0.62086 0.17316 0.0
H1261 H 0.37453 0.68568 0.26173 0.0
H1262 H 0.41026 0.65673 0.24449 0.0
H1263 H 0.43005 0.65479 0.19631 0.0
H1264 H 0.46235 0.59571 0.07093 0.0
H1265 H 0.44677 0.61688 0.1142 0.0
H1266 H 0.4125 0.55519 0.17158 0.0
C1267 C 0.38843 0.65233 0.23718 0.0
C1268 C 0.42658 0.63282 0.19188 0.0
C1269 C 0.36801 0.66884 0.24701 0.0
C1270 C 0.46301 0.58434 0.09038 0.0
C1271 C 0.45436 0.59656 0.11521 0.0
C1272 C 0.41711 0.57673 0.17764 0.0
C1273 C 0.38094 0.63114 0.21713 0.0
C1274 C 0.40308 0.61711 0.20264 0.0
C1275 C 0.4535 0.58191 0.14053 0.0
C1276 C 0.43917 0.59298 0.16505 0.0
H1277 H 0.3103 0.63857 0.21005 0.0
H1278 H 0.34605 0.60977 0.19259 0.0
H1279 H 0.3813 0.57615 0.20448 0.0
H1280 H 0.47839 0.52251 0.11695 0.0
H1281 H 0.4627 0.54385 0.16033 0.0
C1282 C 0.3065 0.31087 0.18332 0.0
C1283 C 0.30891 0.31834 0.21222 0.0
C1284 C 0.32112 0.32692 0.16314 0.0
C1285 C 0.3835 0.3776 0.15606 0.0
H1286 H 0.34837 0.39258 0.08368 0.0
C1287 C 0.44744 0.43194 0.06683 0.0
C1288 C 0.43458 0.45318 0.05305 0.0
C1289 C 0.43185 0.41411 0.08481 0.0
C1290 C 0.3585 0.38864 0.10381 0.0
H1291 H 0.32812 0.34881 0.24251 0.0
H1292 H 0.35359 0.37681 0.20737 0.0
H1293 H 0.32127 0.36534 0.1183 0.0
H1294 H 0.39485 0.47153 0.04674 0.0
H1295 H 0.36776 0.44042 0.07784 0.0
H1296 H 0.42058 0.4012 0.14178 0.0
C1297 C 0.34064 0.3584 0.20028 0.0
C1298 C 0.34301 0.37282 0.12359 0.0
C1299 C 0.32587 0.34245 0.22043 0.0
C1300 C 0.4055 0.45545 0.05695 0.0
C1301 C 0.38989 0.43749 0.07474 0.0
C1302 C 0.39904 0.39324 0.13622 0.0
C1303 C 0.33868 0.35072 0.17139 0.0
C1304 C 0.35524 0.36724 0.15007 0.0
C1305 C 0.40294 0.41688 0.0893 0.0
C1306 C 0.38671 0.39913 0.10988 0.0
H1307 H 0.29371 0.29232 0.17633 0.0
H1308 H 0.31927 0.32025 0.14113 0.0
H1309 H 0.39374 0.37345 0.17607 0.0
H1310 H 0.4698 0.42959 0.06446 0.0
H1311 H 0.44252 0.39825 0.0954 0.0
C1312 C 0.82808 0.67403 0.72319 0.0
C1313 C 0.80342 0.68286 0.71023 0.0
C1314 C 0.84487 0.65603 0.70893 0.0
C1315 C 0.8582 0.62919 0.63576 0.0
H1316 H 0.90044 0.57653 0.67568 0.0
C1317 C 0.91458 0.5486 0.5737 0.0
C1318 C 0.94303 0.54534 0.58119 0.0
C1319 C 0.89737 0.56262 0.59163 0.0
C1320 C 0.88893 0.59124 0.66422 0.0
H1321 H 0.77686 0.67869 0.67214 0.0
H1322 H 0.80533 0.64687 0.64777 0.0
H1323 H 0.87066 0.60612 0.70205 0.0
H1324 H 0.97515 0.55319 0.6144 0.0
H1325 H 0.94479 0.57748 0.64625 0.0
H1326 H 0.87613 0.61417 0.59798 0.0
C1327 C 0.81236 0.65443 0.66868 0.0
C1328 C 0.87182 0.60837 0.67937 0.0
C1329 C 0.79575 0.67261 0.68282 0.0
C1330 C 0.95322 0.55488 0.60817 0.0
C1331 C 0.93584 0.56903 0.6263 0.0
C1332 C 0.875 0.61197 0.62068 0.0
C1333 C 0.83748 0.64605 0.68128 0.0
C1334 C 0.856 0.6276 0.66538 0.0
C1335 C 0.90799 0.57404 0.61774 0.0
C1336 C 0.89052 0.59257 0.63457 0.0
H1337 H 0.83486 0.68152 0.74421 0.0
H1338 H 0.86408 0.65054 0.71944 0.0
H1339 H 0.84723 0.6441 0.62404 0.0
H1340 H 0.906 0.54155 0.5531 0.0
H1341 H 0.8759 0.56537 0.58452 0.0
C1342 C 0.29751 0.79369 0.6471 0.0
C1343 C 0.31166 0.78487 0.67132 0.0
C1344 C 0.31277 0.80692 0.62558 0.0
C1345 C 0.3857 0.82144 0.59901 0.0
H1346 H 0.35675 0.88832 0.57152 0.0
C1347 C 0.43339 0.93176 0.55552 0.0
C1348 C 0.45465 0.92296 0.53821 0.0
C1349 C 0.41262 0.91268 0.56582 0.0
C1350 C 0.36512 0.86969 0.57898 0.0
H1351 H 0.35297 0.78221 0.69154 0.0
H1352 H 0.3794 0.80572 0.65448 0.0
H1353 H 0.3275 0.85792 0.60145 0.0
H1354 H 0.46963 0.88772 0.51629 0.0
H1355 H 0.43296 0.85449 0.53372 0.0
H1356 H 0.42401 0.83407 0.57823 0.0
C1357 C 0.3566 0.80204 0.65176 0.0
C1358 C 0.34821 0.85206 0.59583 0.0
C1359 C 0.34139 0.78872 0.67316 0.0
C1360 C 0.4538 0.895 0.53007 0.0
C1361 C 0.43284 0.87597 0.54009 0.0
C1362 C 0.40268 0.83915 0.58237 0.0
C1363 C 0.34246 0.81163 0.6279 0.0
C1364 C 0.35864 0.82813 0.60668 0.0
C1365 C 0.41248 0.88446 0.55872 0.0
C1366 C 0.39287 0.86386 0.57279 0.0
H1367 H 0.27461 0.7908 0.64493 0.0
H1368 H 0.30129 0.81374 0.60729 0.0
H1369 H 0.39416 0.8029 0.60661 0.0
H1370 H 0.43349 0.9532 0.56213 0.0
H1371 H 0.39751 0.91993 0.58041 0.0
C1372 C 0.21148 0.31078 0.68088 0.0
C1373 C 0.20827 0.30687 0.71014 0.0
C1374 C 0.19475 0.32846 0.66576 0.0
C1375 C 0.14617 0.38569 0.6748 0.0
H1376 H 0.12217 0.36453 0.59799 0.0
C1377 C 0.08346 0.45667 0.59924 0.0
C1378 C 0.0638 0.44327 0.57955 0.0
C1379 C 0.10072 0.44126 0.61678 0.0
C1380 C 0.12836 0.37084 0.6195 0.0
H1381 H 0.18455 0.3193 0.74616 0.0
H1382 H 0.15553 0.34968 0.72001 0.0
H1383 H 0.15233 0.33582 0.62452 0.0
H1384 H 0.0464 0.40315 0.56378 0.0
H1385 H 0.07526 0.37668 0.5944 0.0
H1386 H 0.12162 0.42057 0.66974 0.0
C1387 C 0.17123 0.33934 0.70863 0.0
C1388 C 0.14619 0.35438 0.63473 0.0
C1389 C 0.1879 0.32161 0.72373 0.0
C1390 C 0.06117 0.41423 0.57875 0.0
C1391 C 0.07816 0.39896 0.59615 0.0
C1392 C 0.12835 0.40228 0.65946 0.0
C1393 C 0.17413 0.34302 0.67926 0.0
C1394 C 0.15541 0.36132 0.66277 0.0
C1395 C 0.0989 0.41205 0.61498 0.0
C1396 C 0.11883 0.39504 0.63155 0.0
H1397 H 0.22687 0.3 0.66949 0.0
H1398 H 0.19821 0.33082 0.64336 0.0
H1399 H 0.15288 0.39218 0.69613 0.0
H1400 H 0.08654 0.47898 0.60007 0.0
H1401 H 0.11636 0.45232 0.63084 0.0
C1402 C 0.71134 0.19321 0.70124 0.0
C1403 C 0.71599 0.21966 0.68998 0.0
C1404 C 0.696 0.172 0.68555 0.0
C1405 C 0.66891 0.14976 0.61417 0.0
H1406 H 0.60391 0.11659 0.65348 0.0
C1407 C 0.58625 0.06575 0.56436 0.0
C1408 C 0.55796 0.07202 0.56661 0.0
C1409 C 0.60807 0.08147 0.57935 0.0
C1410 C 0.62206 0.12557 0.64231 0.0
H1411 H 0.71009 0.24431 0.65298 0.0
H1412 H 0.68363 0.20713 0.62539 0.0
H1413 H 0.63945 0.14753 0.6793 0.0
H1414 H 0.5303 0.0994 0.58657 0.0
H1415 H 0.56833 0.12644 0.61313 0.0
H1416 H 0.6511 0.12808 0.57702 0.0
C1417 C 0.69165 0.20282 0.64635 0.0
C1418 C 0.6425 0.14306 0.65711 0.0
C1419 C 0.70665 0.22411 0.66217 0.0
C1420 C 0.55189 0.09412 0.58432 0.0
C1421 C 0.5736 0.10948 0.59966 0.0
C1422 C 0.64864 0.1319 0.59944 0.0
C1423 C 0.68547 0.1768 0.65819 0.0
C1424 C 0.66584 0.15574 0.64307 0.0
C1425 C 0.60188 0.10336 0.59726 0.0
C1426 C 0.62475 0.12012 0.61328 0.0
H1427 H 0.71842 0.18922 0.72262 0.0
H1428 H 0.69172 0.15205 0.69506 0.0
H1429 H 0.68674 0.15923 0.60289 0.0
H1430 H 0.59157 0.04891 0.55075 0.0
H1431 H 0.62972 0.07634 0.57721 0.0
C1432 C 0.8137 0.30658 0.3047 0.0
C1433 C 0.78455 0.30653 0.30922 0.0
C1434 C 0.83329 0.32083 0.32341 0.0
C1435 C 0.87143 0.34151 0.37266 0.0
H1436 H 0.85405 0.41264 0.40251 0.0
C1437 C 0.9497 0.4053 0.44787 0.0
C1438 C 0.95343 0.43381 0.44345 0.0
C1439 C 0.92732 0.38915 0.43446 0.0
C1440 C 0.85932 0.3929 0.39421 0.0
H1441 H 0.75284 0.32033 0.33713 0.0
H1442 H 0.78708 0.34467 0.37034 0.0
H1443 H 0.819 0.38526 0.37286 0.0
H1444 H 0.93634 0.46799 0.4222 0.0
H1445 H 0.8978 0.43967 0.39784 0.0
H1446 H 0.91227 0.34975 0.39264 0.0
C1447 C 0.79486 0.33436 0.35199 0.0
C1448 C 0.83905 0.37699 0.37754 0.0
C1449 C 0.77526 0.32032 0.33309 0.0
C1450 C 0.93393 0.44604 0.42595 0.0
C1451 C 0.91175 0.4298 0.41217 0.0
C1452 C 0.89178 0.35753 0.38906 0.0
C1453 C 0.82411 0.33505 0.34719 0.0
C1454 C 0.84498 0.35122 0.36632 0.0
C1455 C 0.90839 0.4011 0.41599 0.0
C1456 C 0.88608 0.38353 0.39984 0.0
H1457 H 0.82137 0.29609 0.28639 0.0
H1458 H 0.8556 0.32125 0.31879 0.0
H1459 H 0.87655 0.32157 0.36476 0.0
H1460 H 0.96411 0.39542 0.46173 0.0
H1461 H 0.92496 0.36726 0.43847 0.0
C1462 C 0.71476 0.84617 0.31707 0.0
C1463 C 0.70663 0.81791 0.31994 0.0
C1464 C 0.69829 0.86591 0.32805 0.0
C1465 C 0.64962 0.87966 0.38234 0.0
H1466 H 0.62517 0.93629 0.33276 0.0
C1467 C 0.6049 0.9733 0.42865 0.0
C1468 C 0.57587 0.97335 0.42191 0.0
C1469 C 0.62212 0.95847 0.41179 0.0
C1470 C 0.63195 0.92061 0.34672 0.0
H1471 H 0.67555 0.78804 0.3374 0.0
H1472 H 0.64703 0.82298 0.35782 0.0
H1473 H 0.65197 0.89944 0.31355 0.0
H1474 H 0.54268 0.96096 0.39077 0.0
H1475 H 0.57322 0.9353 0.3607 0.0
H1476 H 0.63028 0.90103 0.41561 0.0
C1477 C 0.66599 0.82961 0.34654 0.0
C1478 C 0.64719 0.89963 0.33584 0.0
C1479 C 0.68229 0.8097 0.33505 0.0
C1480 C 0.56511 0.96148 0.39612 0.0
C1481 C 0.58247 0.94662 0.37911 0.0
C1482 C 0.63492 0.90085 0.39328 0.0
C1483 C 0.67361 0.85783 0.34255 0.0
C1484 C 0.65619 0.87907 0.35363 0.0
C1485 C 0.61057 0.94363 0.38791 0.0
C1486 C 0.62616 0.92158 0.37562 0.0
H1487 H 0.73345 0.85311 0.30551 0.0
H1488 H 0.70481 0.88755 0.32514 0.0
H1489 H 0.65648 0.86411 0.39643 0.0
H1490 H 0.61357 0.9823 0.44851 0.0
H1491 H 0.64386 0.95667 0.41872 0.0
C1492 C 0.2268 0.67401 0.32984 0.0
C1493 C 0.21927 0.7 0.32155 0.0
C1494 C 0.21202 0.65974 0.35093 0.0
C1495 C 0.16188 0.66747 0.40875 0.0
H1496 H 0.1387 0.59061 0.39075 0.0
C1497 C 0.06548 0.60649 0.45633 0.0
C1498 C 0.06691 0.57824 0.46117 0.0
C1499 C 0.0881 0.62193 0.44423 0.0
C1500 C 0.14545 0.61188 0.39643 0.0
H1501 H 0.19085 0.73177 0.32941 0.0
H1502 H 0.16463 0.70654 0.3658 0.0
H1503 H 0.17088 0.61663 0.35993 0.0
H1504 H 0.09399 0.54451 0.45902 0.0
H1505 H 0.13346 0.57161 0.43804 0.0
H1506 H 0.13556 0.66278 0.44484 0.0
C1507 C 0.18225 0.6974 0.35629 0.0
C1508 C 0.16389 0.62681 0.37874 0.0
C1509 C 0.19711 0.71174 0.33526 0.0
C1510 C 0.09202 0.56616 0.45515 0.0
C1511 C 0.11463 0.58161 0.44311 0.0
C1512 C 0.14336 0.6525 0.42647 0.0
C1513 C 0.18934 0.67111 0.36408 0.0
C1514 C 0.17193 0.65486 0.38445 0.0
C1515 C 0.11259 0.60945 0.43684 0.0
C1516 C 0.13463 0.62468 0.4202 0.0
H1517 H 0.244 0.66453 0.31994 0.0
H1518 H 0.2182 0.63968 0.35678 0.0
H1519 H 0.16806 0.68898 0.41386 0.0
H1520 H 0.04653 0.61646 0.4609 0.0
H1521 H 0.08583 0.64331 0.43942 0.0
C1522 C 0.31246 0.204 0.35002 0.0
C1523 C 0.32579 0.22559 0.33464 0.0
C1524 C 0.32839 0.18452 0.36244 0.0
C1525 C 0.39381 0.15208 0.35198 0.0
H1526 H 0.37837 0.1215 0.42566 0.0
C1527 C 0.46193 0.07586 0.40942 0.0
C1528 C 0.44795 0.05778 0.42829 0.0
C1529 C 0.44663 0.09417 0.39412 0.0
C1530 C 0.38258 0.12944 0.40479 0.0
H1531 H 0.3662 0.24484 0.3214 0.0
H1532 H 0.39425 0.21066 0.34336 0.0
H1533 H 0.35393 0.16059 0.41009 0.0
H1534 H 0.40718 0.04208 0.44379 0.0
H1535 H 0.38023 0.07297 0.41603 0.0
H1536 H 0.42242 0.12074 0.34668 0.0
C1537 C 0.37145 0.20873 0.34554 0.0
C1538 C 0.36875 0.15201 0.39603 0.0
C1539 C 0.35547 0.22842 0.33331 0.0
C1540 C 0.4183 0.05597 0.42933 0.0
C1541 C 0.403 0.07388 0.41375 0.0
C1542 C 0.40762 0.12936 0.36072 0.0
C1543 C 0.35793 0.18619 0.35952 0.0
C1544 C 0.37412 0.16348 0.36952 0.0
C1545 C 0.41719 0.09432 0.3974 0.0
C1546 C 0.40197 0.11768 0.38715 0.0
H1547 H 0.28955 0.20136 0.35122 0.0
H1548 H 0.3174 0.1673 0.37299 0.0
H1549 H 0.39802 0.16031 0.33123 0.0
H1550 H 0.48487 0.07778 0.40866 0.0
H1551 H 0.45818 0.10965 0.38168 0.0
C1552 C 0.66145 0.77748 0.66821 0.0
C1553 C 0.69105 0.78011 0.66597 0.0
C1554 C 0.64529 0.79744 0.65677 0.0
C1555 C 0.64706 0.85533 0.6076 0.0
H1556 H 0.59565 0.8861 0.65982 0.0
C1557 C 0.59809 0.95274 0.5787 0.0
C1558 C 0.56847 0.95085 0.58016 0.0
C1559 C 0.61361 0.93454 0.59364 0.0
C1560 C 0.60983 0.87764 0.645 0.0
H1561 H 0.72688 0.80413 0.64838 0.0
H1562 H 0.69872 0.83865 0.628 0.0
H1563 H 0.61986 0.84573 0.67316 0.0
H1564 H 0.53187 0.93056 0.60007 0.0
H1565 H 0.55894 0.89824 0.62597 0.0
H1566 H 0.63704 0.88685 0.57933 0.0
C1567 C 0.68792 0.82141 0.63866 0.0
C1568 C 0.62351 0.85445 0.65252 0.0
C1569 C 0.70404 0.80165 0.65028 0.0
C1570 C 0.55479 0.93253 0.599 0.0
C1571 C 0.5703 0.91396 0.61367 0.0
C1572 C 0.63339 0.87839 0.60008 0.0
C1573 C 0.65854 0.82004 0.64268 0.0
C1574 C 0.64238 0.84321 0.63392 0.0
C1575 C 0.59964 0.91378 0.60975 0.0
C1576 C 0.61483 0.88997 0.61877 0.0
H1577 H 0.65099 0.76109 0.68036 0.0
H1578 H 0.62261 0.79572 0.65977 0.0
H1579 H 0.66123 0.8469 0.59274 0.0
H1580 H 0.60897 0.96679 0.56423 0.0
H1581 H 0.63631 0.9354 0.5909 0.0
C1582 C 0.6804 0.22391 0.33383 0.0
C1583 C 0.70693 0.21523 0.32713 0.0
C1584 C 0.66409 0.2104 0.35436 0.0
C1585 C 0.6659 0.15917 0.4119 0.0
H1586 H 0.58541 0.14798 0.39338 0.0
C1587 C 0.58596 0.07649 0.46032 0.0
C1588 C 0.5595 0.08528 0.4675 0.0
C1589 C 0.60595 0.0944 0.44704 0.0
C1590 C 0.6078 0.15122 0.399 0.0
H1591 H 0.73768 0.18617 0.33712 0.0
H1592 H 0.70872 0.1618 0.37219 0.0
H1593 H 0.61642 0.17542 0.36265 0.0
H1594 H 0.53395 0.12023 0.46775 0.0
H1595 H 0.56869 0.15116 0.44435 0.0
H1596 H 0.65698 0.1337 0.44774 0.0
C1597 C 0.70073 0.17947 0.36216 0.0
C1598 C 0.6256 0.16707 0.38148 0.0
C1599 C 0.71728 0.19333 0.34193 0.0
C1600 C 0.554 0.11268 0.46234 0.0
C1601 C 0.57384 0.13042 0.44888 0.0
C1602 C 0.64804 0.14294 0.42928 0.0
C1603 C 0.6737 0.18755 0.36825 0.0
C1604 C 0.65488 0.17132 0.38768 0.0
C1605 C 0.59969 0.12125 0.44054 0.0
C1606 C 0.61883 0.13891 0.42296 0.0
H1607 H 0.6721 0.24104 0.32305 0.0
H1608 H 0.64373 0.21769 0.35905 0.0
H1609 H 0.68828 0.16226 0.41749 0.0
H1610 H 0.59093 0.05557 0.46419 0.0
H1611 H 0.62574 0.08685 0.4407 0.0
C1612 C 0.82635 0.68398 0.27724 0.0
C1613 C 0.81092 0.70335 0.29139 0.0
C1614 C 0.84296 0.66613 0.29224 0.0
C1615 C 0.85647 0.63903 0.36583 0.0
H1616 H 0.92253 0.61256 0.33127 0.0
C1617 C 0.9196 0.55828 0.42344 0.0
C1618 C 0.94919 0.5588 0.42064 0.0
C1619 C 0.90299 0.57412 0.40612 0.0
C1620 C 0.90435 0.6198 0.34156 0.0
H1621 H 0.80155 0.71878 0.33305 0.0
H1622 H 0.83079 0.68847 0.35908 0.0
H1623 H 0.8944 0.64398 0.30577 0.0
H1624 H 0.98431 0.57676 0.39684 0.0
H1625 H 0.95564 0.60471 0.36679 0.0
H1626 H 0.86702 0.61595 0.40208 0.0
C1627 C 0.82963 0.68642 0.33625 0.0
C1628 C 0.88772 0.63774 0.32658 0.0
C1629 C 0.81279 0.70412 0.32121 0.0
C1630 C 0.96153 0.57516 0.39917 0.0
C1631 C 0.9449 0.59143 0.38198 0.0
C1632 C 0.87317 0.6213 0.38086 0.0
C1633 C 0.84515 0.66697 0.32213 0.0
C1634 C 0.86331 0.64775 0.33832 0.0
C1635 C 0.91529 0.59182 0.38559 0.0
C1636 C 0.89744 0.61108 0.36908 0.0
H1637 H 0.82555 0.68246 0.25434 0.0
H1638 H 0.85382 0.65137 0.28017 0.0
H1639 H 0.83787 0.64561 0.37591 0.0
H1640 H 0.9093 0.54621 0.4399 0.0
H1641 H 0.88038 0.57275 0.40937 0.0
C1642 C 0.3049 0.81259 0.30897 0.0
C1643 C 0.30655 0.78475 0.31546 0.0
C1644 C 0.31844 0.83344 0.32657 0.0
C1645 C 0.35468 0.84594 0.3975 0.0
H1646 H 0.39694 0.9057 0.35954 0.0
C1647 C 0.45469 0.90668 0.44545 0.0
C1648 C 0.45704 0.93553 0.44334 0.0
C1649 C 0.43234 0.89066 0.43176 0.0
C1650 C 0.38492 0.88936 0.37047 0.0
H1651 H 0.32264 0.75681 0.34584 0.0
H1652 H 0.34684 0.79286 0.37595 0.0
H1653 H 0.36421 0.87337 0.33217 0.0
H1654 H 0.43771 0.97028 0.42544 0.0
H1655 H 0.39892 0.94203 0.4008 0.0
H1656 H 0.3767 0.86124 0.43554 0.0
C1657 C 0.33472 0.79887 0.35773 0.0
C1658 C 0.36605 0.87087 0.35483 0.0
C1659 C 0.32103 0.77812 0.34031 0.0
C1660 C 0.43644 0.94807 0.4274 0.0
C1661 C 0.41433 0.93196 0.41327 0.0
C1662 C 0.37382 0.86421 0.41303 0.0
C1663 C 0.33402 0.82681 0.35088 0.0
C1664 C 0.35116 0.84853 0.36805 0.0
C1665 C 0.41211 0.90311 0.41534 0.0
C1666 C 0.38952 0.88574 0.39955 0.0
H1667 H 0.29369 0.81823 0.28999 0.0
H1668 H 0.31705 0.85473 0.32089 0.0
H1669 H 0.34309 0.8294 0.40852 0.0
H1670 H 0.47008 0.89646 0.4578 0.0
H1671 H 0.43125 0.86844 0.4335 0.0
C1672 C 0.19044 0.33356 0.27641 0.0
C1673 C 0.21463 0.32433 0.28994 0.0
C1674 C 0.17366 0.35187 0.2902 0.0
C1675 C 0.17484 0.4035 0.34963 0.0
H1676 H 0.09292 0.39037 0.34446 0.0
C1677 C 0.10275 0.4564 0.42698 0.0
C1678 C 0.07472 0.46108 0.41913 0.0
C1679 C 0.12009 0.4431 0.40855 0.0
C1680 C 0.11572 0.39481 0.34579 0.0
H1681 H 0.24003 0.32774 0.32884 0.0
H1682 H 0.21107 0.35982 0.35268 0.0
H1683 H 0.12223 0.36038 0.31833 0.0
H1684 H 0.04348 0.45624 0.38483 0.0
H1685 H 0.07409 0.43361 0.35202 0.0
H1686 H 0.16856 0.43798 0.37682 0.0
C1687 C 0.20507 0.3529 0.33129 0.0
C1688 C 0.13263 0.37741 0.33082 0.0
C1689 C 0.22169 0.33433 0.31761 0.0
C1690 C 0.06506 0.45339 0.39148 0.0
C1691 C 0.08253 0.43991 0.37286 0.0
C1692 C 0.15798 0.42104 0.36436 0.0
C1693 C 0.18065 0.36184 0.31789 0.0
C1694 C 0.16249 0.38121 0.33283 0.0
C1695 C 0.11015 0.43389 0.38138 0.0
C1696 C 0.12808 0.41678 0.36315 0.0
H1697 H 0.18415 0.32637 0.25517 0.0
H1698 H 0.15527 0.3584 0.27901 0.0
H1699 H 0.19769 0.40753 0.35133 0.0
H1700 H 0.11089 0.46182 0.44818 0.0
H1701 H 0.14086 0.43875 0.4164 0.0
C1702 C 0.31144 0.18414 0.6629 0.0
C1703 C 0.32424 0.20575 0.68013 0.0
C1704 C 0.32703 0.16267 0.65411 0.0
C1705 C 0.39996 0.14154 0.64807 0.0
H1706 H 0.36077 0.06805 0.64794 0.0
C1707 C 0.4141 0.03817 0.58531 0.0
C1708 C 0.4435 0.03736 0.58888 0.0
C1709 C 0.39929 0.05381 0.60389 0.0
C1710 C 0.37202 0.08843 0.64817 0.0
H1711 H 0.36359 0.22275 0.70055 0.0
H1712 H 0.39084 0.18514 0.68544 0.0
H1713 H 0.33602 0.1076 0.66275 0.0
H1714 H 0.48014 0.04972 0.61596 0.0
H1715 H 0.4542 0.07731 0.64855 0.0
H1716 H 0.43581 0.12237 0.63311 0.0
C1717 C 0.36885 0.1848 0.67846 0.0
C1718 C 0.3578 0.11113 0.65629 0.0
C1719 C 0.35328 0.20642 0.68705 0.0
C1720 C 0.45737 0.04981 0.61303 0.0
C1721 C 0.44262 0.06585 0.63142 0.0
C1722 C 0.41424 0.11882 0.6402 0.0
C1723 C 0.35567 0.16226 0.6626 0.0
C1724 C 0.37139 0.13802 0.65566 0.0
C1725 C 0.41381 0.0692 0.62603 0.0
C1726 C 0.40023 0.09212 0.63958 0.0
H1727 H 0.28904 0.18318 0.65728 0.0
H1728 H 0.31643 0.14603 0.64122 0.0
H1729 H 0.41101 0.16193 0.64712 0.0
H1730 H 0.40309 0.02884 0.56667 0.0
H1731 H 0.37712 0.05605 0.59915 0.0
C1732 C 0.81649 0.28908 0.6602 0.0
C1733 C 0.80052 0.3044 0.67835 0.0
C1734 C 0.83121 0.30188 0.63816 0.0
C1735 C 0.83865 0.36585 0.59655 0.0
H1736 H 0.91672 0.34846 0.59143 0.0
C1737 C 0.92822 0.43906 0.55231 0.0
C1738 C 0.95018 0.42749 0.53811 0.0
C1739 C 0.90626 0.42206 0.56369 0.0
C1740 C 0.89481 0.35319 0.5921 0.0
H1741 H 0.78673 0.34498 0.68714 0.0
H1742 H 0.81299 0.36743 0.64911 0.0
H1743 H 0.88501 0.32202 0.62231 0.0
H1744 H 0.96515 0.38923 0.52262 0.0
H1745 H 0.92672 0.35965 0.54234 0.0
H1746 H 0.84899 0.3978 0.56702 0.0
C1747 C 0.81374 0.34544 0.65158 0.0
C1748 C 0.87662 0.33801 0.60983 0.0
C1749 C 0.7989 0.33261 0.67354 0.0
C1750 C 0.94883 0.39874 0.53397 0.0
C1751 C 0.92684 0.38179 0.54524 0.0
C1752 C 0.85693 0.38111 0.57881 0.0
C1753 C 0.83038 0.33028 0.63392 0.0
C1754 C 0.84851 0.3445 0.61266 0.0
C1755 C 0.90583 0.39323 0.56093 0.0
C1756 C 0.88533 0.37522 0.57683 0.0
H1757 H 0.81789 0.26722 0.66312 0.0
H1758 H 0.84353 0.28959 0.62463 0.0
H1759 H 0.81696 0.37104 0.59802 0.0
H1760 H 0.92858 0.46115 0.5557 0.0
H1761 H 0.89047 0.43147 0.57588 0.0
C1762 C 0.20595 0.70003 0.69361 0.0
C1763 C 0.2345 0.69435 0.69419 0.0
C1764 C 0.18652 0.68574 0.67476 0.0
C1765 C 0.17266 0.62039 0.63659 0.0
H1766 H 0.12004 0.65902 0.59137 0.0
C1767 C 0.09013 0.56226 0.55992 0.0
C1768 C 0.06305 0.57193 0.55873 0.0
C1769 C 0.11264 0.57763 0.57417 0.0
C1770 C 0.13436 0.64788 0.60408 0.0
H1771 H 0.26526 0.66942 0.67567 0.0
H1772 H 0.23102 0.6439 0.64304 0.0
H1773 H 0.15628 0.68526 0.62087 0.0
H1774 H 0.03829 0.6052 0.57169 0.0
H1775 H 0.07712 0.63145 0.59724 0.0
H1776 H 0.1502 0.583 0.62081 0.0
C1777 C 0.2238 0.65954 0.65705 0.0
C1778 C 0.15516 0.66294 0.62084 0.0
C1779 C 0.24333 0.67414 0.67563 0.0
C1780 C 0.05895 0.59726 0.57204 0.0
C1781 C 0.08132 0.61243 0.58653 0.0
C1782 C 0.15161 0.60529 0.62011 0.0
C1783 C 0.19524 0.66523 0.65647 0.0
C1784 C 0.17431 0.64932 0.63744 0.0
C1785 C 0.10846 0.60285 0.58778 0.0
C1786 C 0.13199 0.61885 0.60388 0.0
H1787 H 0.19859 0.71541 0.70784 0.0
H1788 H 0.16454 0.69029 0.67491 0.0
H1789 H 0.18704 0.60942 0.64943 0.0
H1790 H 0.09401 0.54292 0.54963 0.0
H1791 H 0.13335 0.56981 0.57435 0.0
loop_
_geom_bond_atom_site_label_1
_geom_bond_atom_site_label_2
_geom_bond_distance
_geom_bond_site_symmetry_2
_ccdc_geom_bond_type
Dy0 O4 2.398 . S
Dy0 O5 2.491 . S
Dy0 O6 2.403 . S
Dy0 O7 2.664 . S
Dy0 O11 2.326 . S
Dy0 O15 2.310 . S
Dy0 O16 2.351 . S
C1 O12 1.185 . S
C1 O13 1.355 . S
C2 O4 1.185 . S
C2 O5 1.355 . S
Dy3 O7 2.310 . S
Dy3 O10 2.351 . S
Dy3 O12 2.398 . S
Dy3 O13 2.491 . S
Dy3 O14 2.403 . S
Dy3 O15 2.664 . S
Dy3 O17 2.326 . S
O4 Dy0 2.398 . S
O4 C2 1.185 . S
O5 Dy0 2.491 . S
O5 C2 1.355 . S
O6 Dy0 2.403 . S
O6 C8 1.254 . S
O7 Dy0 2.664 . S
O7 Dy3 2.310 . S
O7 C8 1.268 . S
C8 O6 1.254 . S
C8 O7 1.268 . S
C9 O14 1.254 . S
C9 O15 1.268 . S
O10 Dy3 2.351 . S
O10 C18 1.249 . S
O11 Dy0 2.326 . S
O11 C18 1.267 . S
O12 C1 1.185 . S
O12 Dy3 2.398 . S
O13 C1 1.355 . S
O13 Dy3 2.491 . S
O14 Dy3 2.403 . S
O14 C9 1.254 . S
O15 Dy0 2.310 . S
O15 Dy3 2.664 . S
O15 C9 1.268 . S
O16 Dy0 2.351 . S
O16 C19 1.249 . S
O17 Dy3 2.326 . S
O17 C19 1.267 . S
C18 O10 1.249 . S
C18 O11 1.267 . S
C19 O16 1.249 . S
C19 O17 1.267 . S
Dy20 O24 2.398 . S
Dy20 O25 2.491 . S
Dy20 O26 2.403 . S
Dy20 O27 2.664 . S
Dy20 O31 2.326 . S
Dy20 O35 2.310 . S
Dy20 O36 2.351 . S
C21 O32 1.185 . S
C21 O33 1.355 . S
C22 O24 1.185 . S
C22 O25 1.355 . S
Dy23 O27 2.310 . S
Dy23 O30 2.351 . S
Dy23 O32 2.398 . S
Dy23 O33 2.491 . S
Dy23 O34 2.403 . S
Dy23 O35 2.664 . S
Dy23 O37 2.326 . S
O24 Dy20 2.398 . S
O24 C22 1.185 . S
O25 Dy20 2.491 . S
O25 C22 1.355 . S
O26 Dy20 2.403 . S
O26 C28 1.254 . S
O27 Dy20 2.664 . S
O27 Dy23 2.310 . S
O27 C28 1.268 . S
C28 O26 1.254 . S
C28 O27 1.268 . S
C29 O34 1.254 . S
C29 O35 1.268 . S
O30 Dy23 2.351 . S
O30 C38 1.249 . S
O31 Dy20 2.326 . S
O31 C38 1.267 . S
O32 C21 1.185 . S
O32 Dy23 2.398 . S
O33 C21 1.355 . S
O33 Dy23 2.491 . S
O34 Dy23 2.403 . S
O34 C29 1.254 . S
O35 Dy20 2.310 . S
O35 Dy23 2.664 . S
O35 C29 1.268 . S
O36 Dy20 2.351 . S
O36 C39 1.249 . S
O37 Dy23 2.326 . S
O37 C39 1.267 . S
C38 O30 1.249 . S
C38 O31 1.267 . S
C39 O36 1.249 . S
C39 O37 1.267 . S
Dy40 O44 2.398 . S
Dy40 O45 2.491 . S
Dy40 O46 2.403 . S
Dy40 O47 2.664 . S
Dy40 O51 2.326 . S
Dy40 O55 2.310 . S
Dy40 O56 2.351 . S
C41 O52 1.185 . S
C41 O53 1.355 . S
C42 O44 1.185 . S
C42 O45 1.355 . S
Dy43 O47 2.310 . S
Dy43 O50 2.351 . S
Dy43 O52 2.398 . S
Dy43 O53 2.491 . S
Dy43 O54 2.403 . S
Dy43 O55 2.664 . S
Dy43 O57 2.326 . S
O44 Dy40 2.398 . S
O44 C42 1.185 . S
O45 Dy40 2.491 . S
O45 C42 1.355 . S
O46 Dy40 2.403 . S
O46 C48 1.254 . S
O47 Dy40 2.664 . S
O47 Dy43 2.310 . S
O47 C48 1.268 . S
C48 O46 1.254 . S
C48 O47 1.268 . S
C49 O54 1.254 . S
C49 O55 1.268 . S
O50 Dy43 2.351 . S
O50 C58 1.249 . S
O51 Dy40 2.326 . S
O51 C58 1.267 . S
O52 C41 1.185 . S
O52 Dy43 2.398 . S
O53 C41 1.355 . S
O53 Dy43 2.491 . S
O54 Dy43 2.403 . S
O54 C49 1.254 . S
O55 Dy40 2.310 . S
O55 Dy43 2.664 . S
O55 C49 1.268 . S
O56 Dy40 2.351 . S
O56 C59 1.249 . S
O57 Dy43 2.326 . S
O57 C59 1.267 . S
C58 O50 1.249 . S
C58 O51 1.267 . S
C59 O56 1.249 . S
C59 O57 1.267 . S
Dy60 O64 2.398 . S
Dy60 O65 2.491 . S
Dy60 O66 2.403 . S
Dy60 O67 2.664 . S
Dy60 O71 2.326 . S
Dy60 O75 2.310 . S
Dy60 O76 2.351 . S
C61 O72 1.185 . S
C61 O73 1.355 . S
C62 O64 1.185 . S
C62 O65 1.355 . S
Dy63 O67 2.310 . S
Dy63 O70 2.351 . S
Dy63 O72 2.398 . S
Dy63 O73 2.491 . S
Dy63 O74 2.403 . S
Dy63 O75 2.664 . S
Dy63 O77 2.326 . S
O64 Dy60 2.398 . S
O64 C62 1.185 . S
O65 Dy60 2.491 . S
O65 C62 1.355 . S
O66 Dy60 2.403 . S
O66 C68 1.254 . S
O67 Dy60 2.664 . S
O67 Dy63 2.310 . S
O67 C68 1.268 . S
C68 O66 1.254 . S
C68 O67 1.268 . S
C69 O74 1.254 . S
C69 O75 1.268 . S
O70 Dy63 2.351 . S
O70 C78 1.249 . S
O71 Dy60 2.326 . S
O71 C78 1.267 . S
O72 C61 1.185 . S
O72 Dy63 2.398 . S
O73 C61 1.355 . S
O73 Dy63 2.491 . S
O74 Dy63 2.403 . S
O74 C69 1.254 . S
O75 Dy60 2.310 . S
O75 Dy63 2.664 . S
O75 C69 1.268 . S
O76 Dy60 2.351 . S
O76 C79 1.249 . S
O77 Dy63 2.326 . S
O77 C79 1.267 . S
C78 O70 1.249 . S
C78 O71 1.267 . S
C79 O76 1.249 . S
C79 O77 1.267 . S
Dy80 O84 2.398 . S
Dy80 O85 2.491 . S
Dy80 O86 2.403 . S
Dy80 O87 2.664 . S
Dy80 O91 2.326 . S
Dy80 O95 2.310 . S
Dy80 O96 2.351 . S
C81 O92 1.185 . S
C81 O93 1.355 . S
C82 O84 1.185 . S
C82 O85 1.355 . S
Dy83 O87 2.310 . S
Dy83 O90 2.351 . S
Dy83 O92 2.398 . S
Dy83 O93 2.491 . S
Dy83 O94 2.403 . S
Dy83 O95 2.664 . S
Dy83 O97 2.326 . S
O84 Dy80 2.398 . S
O84 C82 1.185 . S
O85 Dy80 2.491 . S
O85 C82 1.355 . S
O86 Dy80 2.403 . S
O86 C88 1.254 . S
O87 Dy80 2.664 . S
O87 Dy83 2.310 . S
O87 C88 1.268 . S
C88 O86 1.254 . S
C88 O87 1.268 . S
C89 O94 1.254 . S
C89 O95 1.268 . S
O90 Dy83 2.351 . S
O90 C98 1.249 . S
O91 Dy80 2.326 . S
O91 C98 1.267 . S
O92 C81 1.185 . S
O92 Dy83 2.398 . S
O93 C81 1.355 . S
O93 Dy83 2.491 . S
O94 Dy83 2.403 . S
O94 C89 1.254 . S
O95 Dy80 2.310 . S
O95 Dy83 2.664 . S
O95 C89 1.268 . S
O96 Dy80 2.351 . S
O96 C99 1.249 . S
O97 Dy83 2.326 . S
O97 C99 1.267 . S
C98 O90 1.249 . S
C98 O91 1.267 . S
C99 O96 1.249 . S
C99 O97 1.267 . S
Dy100 O104 2.398 . S
Dy100 O105 2.491 . S
Dy100 O106 2.403 . S
Dy100 O107 2.664 . S
Dy100 O111 2.326 . S
Dy100 O115 2.310 . S
Dy100 O116 2.351 . S
C101 O112 1.185 . S
C101 O113 1.355 . S
C102 O104 1.185 . S
C102 O105 1.355 . S
Dy103 O107 2.310 . S
Dy103 O110 2.351 . S
Dy103 O112 2.398 . S
Dy103 O113 2.491 . S
Dy103 O114 2.403 . S
Dy103 O115 2.664 . S
Dy103 O117 2.326 . S
O104 Dy100 2.398 . S
O104 C102 1.185 . S
O105 Dy100 2.491 . S
O105 C102 1.355 . S
O106 Dy100 2.403 . S
O106 C108 1.254 . S
O107 Dy100 2.664 . S
O107 Dy103 2.310 . S
O107 C108 1.268 . S
C108 O106 1.254 . S
C108 O107 1.268 . S
C109 O114 1.254 . S
C109 O115 1.268 . S
O110 Dy103 2.351 . S
O110 C118 1.249 . S
O111 Dy100 2.326 . S
O111 C118 1.267 . S
O112 C101 1.185 . S
O112 Dy103 2.398 . S
O113 C101 1.355 . S
O113 Dy103 2.491 . S
O114 Dy103 2.403 . S
O114 C109 1.254 . S
O115 Dy100 2.310 . S
O115 Dy103 2.664 . S
O115 C109 1.268 . S
O116 Dy100 2.351 . S
O116 C119 1.249 . S
O117 Dy103 2.326 . S
O117 C119 1.267 . S
C118 O110 1.249 . S
C118 O111 1.267 . S
C119 O116 1.249 . S
C119 O117 1.267 . S
Dy120 O124 2.398 . S
Dy120 O125 2.491 . S
Dy120 O126 2.403 . S
Dy120 O127 2.664 . S
Dy120 O131 2.326 . S
Dy120 O135 2.310 . S
Dy120 O136 2.351 . S
C121 O132 1.185 . S
C121 O133 1.355 . S
C122 O124 1.185 . S
C122 O125 1.355 . S
Dy123 O127 2.310 . S
Dy123 O130 2.351 . S
Dy123 O132 2.398 . S
Dy123 O133 2.491 . S
Dy123 O134 2.403 . S
Dy123 O135 2.664 . S
Dy123 O137 2.326 . S
O124 Dy120 2.398 . S
O124 C122 1.185 . S
O125 Dy120 2.491 . S
O125 C122 1.355 . S
O126 Dy120 2.403 . S
O126 C128 1.254 . S
O127 Dy120 2.664 . S
O127 Dy123 2.310 . S
O127 C128 1.268 . S
C128 O126 1.254 . S
C128 O127 1.268 . S
C129 O134 1.254 . S
C129 O135 1.268 . S
O130 Dy123 2.351 . S
O130 C138 1.249 . S
O131 Dy120 2.326 . S
O131 C138 1.267 . S
O132 C121 1.185 . S
O132 Dy123 2.398 . S
O133 C121 1.355 . S
O133 Dy123 2.491 . S
O134 Dy123 2.403 . S
O134 C129 1.254 . S
O135 Dy120 2.310 . S
O135 Dy123 2.664 . S
O135 C129 1.268 . S
O136 Dy120 2.351 . S
O136 C139 1.249 . S
O137 Dy123 2.326 . S
O137 C139 1.267 . S
C138 O130 1.249 . S
C138 O131 1.267 . S
C139 O136 1.249 . S
C139 O137 1.267 . S
Dy140 O144 2.398 . S
Dy140 O145 2.491 . S
Dy140 O146 2.403 . S
Dy140 O147 2.664 . S
Dy140 O151 2.326 . S
Dy140 O155 2.310 . S
Dy140 O156 2.351 . S
C141 O152 1.185 . S
C141 O153 1.355 . S
C142 O144 1.185 . S
C142 O145 1.355 . S
Dy143 O147 2.310 . S
Dy143 O150 2.351 . S
Dy143 O152 2.398 . S
Dy143 O153 2.491 . S
Dy143 O154 2.403 . S
Dy143 O155 2.664 . S
Dy143 O157 2.326 . S
O144 Dy140 2.398 . S
O144 C142 1.185 . S
O145 Dy140 2.491 . S
O145 C142 1.355 . S
O146 Dy140 2.403 . S
O146 C148 1.254 . S
O147 Dy140 2.664 . S
O147 Dy143 2.310 . S
O147 C148 1.268 . S
C148 O146 1.254 . S
C148 O147 1.268 . S
C149 O154 1.254 . S
C149 O155 1.268 . S
O150 Dy143 2.351 . S
O150 C158 1.249 . S
O151 Dy140 2.326 . S
O151 C158 1.267 . S
O152 C141 1.185 . S
O152 Dy143 2.398 . S
O153 C141 1.355 . S
O153 Dy143 2.491 . S
O154 Dy143 2.403 . S
O154 C149 1.254 . S
O155 Dy140 2.310 . S
O155 Dy143 2.664 . S
O155 C149 1.268 . S
O156 Dy140 2.351 . S
O156 C159 1.249 . S
O157 Dy143 2.326 . S
O157 C159 1.267 . S
C158 O150 1.249 . S
C158 O151 1.267 . S
C159 O156 1.249 . S
C159 O157 1.267 . S
Fe160 O161 1.886 1_455 S
Fe160 O164 1.715 . S
Fe160 O169 2.077 1_455 S
Fe160 O174 1.935 . S
Fe160 O180 2.077 1_455 S
Fe160 O189 1.935 . S
O161 Fe160 1.886 1_655 S
O161 Fe163 1.715 1_545 S
Fe162 O164 1.886 . S
Fe162 O165 1.715 1_545 S
Fe162 O172 1.935 1_545 S
Fe162 O173 2.077 . S
Fe162 O179 1.935 1_545 S
Fe162 O188 2.077 . S
Fe163 O161 1.715 1_565 S
Fe163 O166 1.886 . S
Fe163 O170 1.935 1_565 S
Fe163 O175 2.077 . S
Fe163 O181 1.935 1_565 S
Fe163 O185 2.077 . S
O164 Fe160 1.715 . S
O164 Fe162 1.886 . S
O165 Fe162 1.715 1_565 S
O165 Fe167 1.886 1_455 S
O166 Fe163 1.886 . S
O166 Fe167 1.715 . S
Fe167 O165 1.886 1_655 S
Fe167 O166 1.715 . S
Fe167 O171 2.077 1_655 S
Fe167 O176 1.935 . S
Fe167 O178 2.077 1_655 S
Fe167 O186 1.935 . S
C168 O180 1.381 . S
C168 O181 1.421 . S
O169 Fe160 2.077 1_655 S
O169 C182 1.381 . S
O170 Fe163 1.935 1_545 S
O170 C182 1.421 . S
O171 Fe167 2.077 1_455 S
O171 C187 1.381 . S
O172 Fe162 1.935 1_565 S
O172 C187 1.421 . S
O173 Fe162 2.077 . S
O173 C177 1.381 . S
O174 Fe160 1.935 . S
O174 C177 1.421 . S
O175 Fe163 2.077 . S
O175 C183 1.381 . S
O176 Fe167 1.935 . S
O176 C183 1.421 . S
C177 O173 1.381 . S
C177 O174 1.421 . S
O178 Fe167 2.077 1_455 S
O178 C190 1.381 . S
O179 Fe162 1.935 1_565 S
O179 C190 1.421 . S
O180 Fe160 2.077 1_655 S
O180 C168 1.381 . S
O181 Fe163 1.935 1_545 S
O181 C168 1.421 . S
C182 O169 1.381 . S
C182 O170 1.421 . S
C183 O175 1.381 . S
C183 O176 1.421 . S
C184 O185 1.381 . S
C184 O186 1.421 . S
O185 Fe163 2.077 . S
O185 C184 1.381 . S
O186 Fe167 1.935 . S
O186 C184 1.421 . S
C187 O171 1.381 . S
C187 O172 1.421 . S
O188 Fe162 2.077 . S
O188 C191 1.381 . S
O189 Fe160 1.935 . S
O189 C191 1.421 . S
C190 O178 1.381 . S
C190 O179 1.421 . S
C191 O188 1.381 . S
C191 O189 1.421 . S
Fe192 O193 1.886 1_556 S
Fe192 O196 1.715 . S
Fe192 O201 2.097 . S
Fe192 O206 1.958 . S
Fe192 O212 2.058 1_556 S
Fe192 O221 1.912 1_556 S
O193 Fe192 1.886 1_554 S
O193 Fe195 1.716 1_565 S
Fe194 O196 1.886 . S
Fe194 O197 1.716 1_566 S
Fe194 O204 1.960 1_565 S
Fe194 O205 2.098 . S
Fe194 O211 1.911 1_566 S
Fe194 O220 2.056 1_556 S
Fe195 O193 1.716 1_545 S
Fe195 O198 1.886 . S
Fe195 O202 1.903 1_544 S
Fe195 O207 2.049 1_554 S
Fe195 O213 1.968 1_545 S
Fe195 O217 2.105 . S
O196 Fe192 1.715 . S
O196 Fe194 1.886 . S
O197 Fe194 1.716 1_544 S
O197 Fe199 1.887 . S
O198 Fe195 1.886 . S
O198 Fe199 1.715 . S
Fe199 O197 1.887 . S
Fe199 O198 1.715 . S
Fe199 O203 2.051 1_554 S
Fe199 O208 1.905 1_554 S
Fe199 O210 2.104 . S
Fe199 O218 1.965 . S
C200 O212 1.381 . S
C200 O213 1.421 . S
O201 Fe192 2.097 . S
O201 C214 1.381 . S
O202 Fe195 1.903 1_566 S
O202 C214 1.421 . S
O203 Fe199 2.051 1_556 S
O203 C219 1.381 . S
O204 Fe194 1.960 1_545 S
O204 C219 1.421 . S
O205 Fe194 2.098 . S
O205 C209 1.381 . S
O206 Fe192 1.958 . S
O206 C209 1.421 . S
O207 Fe195 2.049 1_556 S
O207 C215 1.381 . S
O208 Fe199 1.905 1_556 S
O208 C215 1.421 . S
C209 O205 1.381 . S
C209 O206 1.421 . S
O210 Fe199 2.104 . S
O210 C222 1.381 . S
O211 Fe194 1.911 1_544 S
O211 C222 1.421 . S
O212 Fe192 2.058 1_554 S
O212 C200 1.381 . S
O213 Fe195 1.968 1_565 S
O213 C200 1.421 . S
C214 O201 1.381 . S
C214 O202 1.421 . S
C215 O207 1.381 . S
C215 O208 1.421 . S
C216 O217 1.381 . S
C216 O218 1.421 . S
O217 Fe195 2.105 . S
O217 C216 1.381 . S
O218 Fe199 1.965 . S
O218 C216 1.421 . S
C219 O203 1.381 . S
C219 O204 1.421 . S
O220 Fe194 2.056 1_554 S
O220 C223 1.381 . S
O221 Fe192 1.912 1_554 S
O221 C223 1.421 . S
C222 O210 1.381 . S
C222 O211 1.421 . S
C223 O220 1.381 . S
C223 O221 1.421 . S
Fe224 O225 1.887 1_455 S
Fe224 O228 1.715 . S
Fe224 O233 2.051 1_454 S
Fe224 O238 1.905 1_554 S
Fe224 O244 2.104 1_455 S
Fe224 O253 1.965 . S
O225 Fe224 1.887 1_655 S
O225 Fe227 1.716 1_554 S
Fe226 O228 1.886 . S
Fe226 O229 1.716 . S
Fe226 O236 1.903 1_554 S
Fe226 O237 2.049 1_554 S
Fe226 O243 1.968 . S
Fe226 O252 2.105 . S
Fe227 O225 1.716 1_556 S
Fe227 O230 1.886 . S
Fe227 O234 1.960 . S
Fe227 O239 2.098 . S
Fe227 O245 1.911 1_556 S
Fe227 O249 2.056 1_556 S
O228 Fe224 1.715 . S
O228 Fe226 1.886 . S
O229 Fe226 1.716 . S
O229 Fe231 1.886 1_454 S
O230 Fe227 1.886 . S
O230 Fe231 1.715 . S
Fe231 O229 1.886 1_656 S
Fe231 O230 1.715 . S
Fe231 O235 2.097 1_655 S
Fe231 O240 1.958 . S
Fe231 O242 2.058 1_656 S
Fe231 O250 1.912 1_556 S
C232 O244 1.381 . S
C232 O245 1.421 . S
O233 Fe224 2.051 1_656 S
O233 C246 1.381 . S
O234 Fe227 1.960 . S
O234 C246 1.421 . S
O235 Fe231 2.097 1_455 S
O235 C251 1.381 . S
O236 Fe226 1.903 1_556 S
O236 C251 1.421 . S
O237 Fe226 2.049 1_556 S
O237 C241 1.381 . S
O238 Fe224 1.905 1_556 S
O238 C241 1.421 . S
O239 Fe227 2.098 . S
O239 C247 1.381 . S
O240 Fe231 1.958 . S
O240 C247 1.421 . S
C241 O237 1.381 . S
C241 O238 1.421 . S
O242 Fe231 2.058 1_454 S
O242 C254 1.381 . S
O243 Fe226 1.968 . S
O243 C254 1.421 . S
O244 Fe224 2.104 1_655 S
O244 C232 1.381 . S
O245 Fe227 1.911 1_554 S
O245 C232 1.421 . S
C246 O233 1.381 . S
C246 O234 1.421 . S
C247 O239 1.381 . S
C247 O240 1.421 . S
C248 O249 1.381 . S
C248 O250 1.421 . S
O249 Fe227 2.056 1_554 S
O249 C248 1.381 . S
O250 Fe231 1.912 1_554 S
O250 C248 1.421 . S
C251 O235 1.381 . S
C251 O236 1.421 . S
O252 Fe226 2.105 . S
O252 C255 1.381 . S
O253 Fe224 1.965 . S
O253 C255 1.421 . S
C254 O242 1.381 . S
C254 O243 1.421 . S
C255 O252 1.381 . S
C255 O253 1.421 . S
Fe256 O257 1.886 . S
Fe256 O260 1.715 . S
Fe256 O265 2.077 . S
Fe256 O270 1.935 . S
Fe256 O276 2.077 . S
Fe256 O285 1.935 . S
O257 Fe256 1.886 . S
O257 Fe259 1.715 1_556 S
Fe258 O260 1.886 . S
Fe258 O261 1.715 1_556 S
Fe258 O268 1.935 1_556 S
Fe258 O269 2.077 . S
Fe258 O275 1.935 1_556 S
Fe258 O284 2.077 . S
Fe259 O257 1.715 1_554 S
Fe259 O262 1.886 . S
Fe259 O266 1.935 1_554 S
Fe259 O271 2.077 . S
Fe259 O277 1.935 1_554 S
Fe259 O281 2.077 . S
O260 Fe256 1.715 . S
O260 Fe258 1.886 . S
O261 Fe258 1.715 1_554 S
O261 Fe263 1.886 . S
O262 Fe259 1.886 . S
O262 Fe263 1.715 . S
Fe263 O261 1.886 . S
Fe263 O262 1.715 . S
Fe263 O267 2.077 . S
Fe263 O272 1.935 . S
Fe263 O274 2.077 . S
Fe263 O282 1.935 . S
C264 O276 1.381 . S
C264 O277 1.421 . S
O265 Fe256 2.077 . S
O265 C278 1.381 . S
O266 Fe259 1.935 1_556 S
O266 C278 1.421 . S
O267 Fe263 2.077 . S
O267 C283 1.381 . S
O268 Fe258 1.935 1_554 S
O268 C283 1.421 . S
O269 Fe258 2.077 . S
O269 C273 1.381 . S
O270 Fe256 1.935 . S
O270 C273 1.421 . S
O271 Fe259 2.077 . S
O271 C279 1.381 . S
O272 Fe263 1.935 . S
O272 C279 1.421 . S
C273 O269 1.381 . S
C273 O270 1.421 . S
O274 Fe263 2.077 . S
O274 C286 1.381 . S
O275 Fe258 1.935 1_554 S
O275 C286 1.421 . S
O276 Fe256 2.077 . S
O276 C264 1.381 . S
O277 Fe259 1.935 1_556 S
O277 C264 1.421 . S
C278 O265 1.381 . S
C278 O266 1.421 . S
C279 O271 1.381 . S
C279 O272 1.421 . S
C280 O281 1.381 . S
C280 O282 1.421 . S
O281 Fe259 2.077 . S
O281 C280 1.381 . S
O282 Fe263 1.935 . S
O282 C280 1.421 . S
C283 O267 1.381 . S
C283 O268 1.421 . S
O284 Fe258 2.077 . S
O284 C287 1.381 . S
O285 Fe256 1.935 . S
O285 C287 1.421 . S
C286 O274 1.381 . S
C286 O275 1.421 . S
C287 O284 1.381 . S
C287 O285 1.421 . S
Fe288 O289 1.886 . S
Fe288 O292 1.715 . S
Fe288 O297 2.077 1_655 S
Fe288 O302 1.935 1_655 S
Fe288 O308 2.077 . S
Fe288 O317 1.935 . S
O289 Fe288 1.886 . S
O289 Fe291 1.718 1_655 S
Fe290 O292 1.885 . S
Fe290 O293 1.717 1_655 S
Fe290 O300 1.910 1_655 S
Fe290 O301 2.053 1_655 S
Fe290 O307 1.963 . S
Fe290 O316 2.099 . S
Fe291 O289 1.718 1_455 S
Fe291 O294 1.884 . S
Fe291 O298 1.971 . S
Fe291 O303 2.105 . S
Fe291 O309 1.902 1_455 S
Fe291 O313 2.046 1_455 S
O292 Fe288 1.715 . S
O292 Fe290 1.885 . S
O293 Fe290 1.717 1_455 S
O293 Fe295 1.886 . S
O294 Fe291 1.884 . S
O294 Fe295 1.715 . S
Fe295 O293 1.886 . S
Fe295 O294 1.715 . S
Fe295 O299 2.077 . S
Fe295 O304 1.935 . S
Fe295 O306 2.077 1_455 S
Fe295 O314 1.935 1_455 S
C296 O308 1.381 . S
C296 O309 1.421 . S
O297 Fe288 2.077 1_455 S
O297 C310 1.381 . S
O298 Fe291 1.971 . S
O298 C310 1.421 . S
O299 Fe295 2.077 . S
O299 C315 1.381 . S
O300 Fe290 1.910 1_455 S
O300 C315 1.421 . S
O301 Fe290 2.053 1_455 S
O301 C305 1.381 . S
O302 Fe288 1.935 1_455 S
O302 C305 1.421 . S
O303 Fe291 2.105 . S
O303 C311 1.381 . S
O304 Fe295 1.935 . S
O304 C311 1.421 . S
C305 O301 1.381 . S
C305 O302 1.421 . S
O306 Fe295 2.077 1_655 S
O306 C318 1.381 . S
O307 Fe290 1.963 . S
O307 C318 1.421 . S
O308 Fe288 2.077 . S
O308 C296 1.381 . S
O309 Fe291 1.902 1_655 S
O309 C296 1.421 . S
C310 O297 1.381 . S
C310 O298 1.421 . S
C311 O303 1.381 . S
C311 O304 1.421 . S
C312 O313 1.381 . S
C312 O314 1.421 . S
O313 Fe291 2.046 1_655 S
O313 C312 1.381 . S
O314 Fe295 1.935 1_655 S
O314 C312 1.421 . S
C315 O299 1.381 . S
C315 O300 1.421 . S
O316 Fe290 2.099 . S
O316 C319 1.381 . S
O317 Fe288 1.935 . S
O317 C319 1.421 . S
C318 O306 1.381 . S
C318 O307 1.421 . S
C319 O316 1.381 . S
C319 O317 1.421 . S
Fe320 O321 1.886 . S
Fe320 O324 1.715 . S
Fe320 O329 2.077 . S
Fe320 O334 1.935 . S
Fe320 O340 2.077 . S
Fe320 O349 1.935 . S
O321 Fe320 1.886 . S
O321 Fe323 1.715 1_565 S
Fe322 O324 1.886 . S
Fe322 O325 1.715 1_565 S
Fe322 O332 1.935 1_565 S
Fe322 O333 2.077 . S
Fe322 O339 1.935 1_565 S
Fe322 O348 2.077 . S
Fe323 O321 1.715 1_545 S
Fe323 O326 1.886 . S
Fe323 O330 1.935 1_545 S
Fe323 O335 2.077 . S
Fe323 O341 1.935 1_545 S
Fe323 O345 2.077 . S
O324 Fe320 1.715 . S
O324 Fe322 1.886 . S
O325 Fe322 1.715 1_545 S
O325 Fe327 1.886 . S
O326 Fe323 1.886 . S
O326 Fe327 1.715 . S
Fe327 O325 1.886 . S
Fe327 O326 1.715 . S
Fe327 O331 2.077 . S
Fe327 O336 1.935 . S
Fe327 O338 2.077 . S
Fe327 O346 1.935 . S
C328 O340 1.381 . S
C328 O341 1.421 . S
O329 Fe320 2.077 . S
O329 C342 1.381 . S
O330 Fe323 1.935 1_565 S
O330 C342 1.421 . S
O331 Fe327 2.077 . S
O331 C347 1.381 . S
O332 Fe322 1.935 1_545 S
O332 C347 1.421 . S
O333 Fe322 2.077 . S
O333 C337 1.381 . S
O334 Fe320 1.935 . S
O334 C337 1.421 . S
O335 Fe323 2.077 . S
O335 C343 1.381 . S
O336 Fe327 1.935 . S
O336 C343 1.421 . S
C337 O333 1.381 . S
C337 O334 1.421 . S
O338 Fe327 2.077 . S
O338 C350 1.381 . S
O339 Fe322 1.935 1_545 S
O339 C350 1.421 . S
O340 Fe320 2.077 . S
O340 C328 1.381 . S
O341 Fe323 1.935 1_565 S
O341 C328 1.421 . S
C342 O329 1.381 . S
C342 O330 1.421 . S
C343 O335 1.381 . S
C343 O336 1.421 . S
C344 O345 1.381 . S
C344 O346 1.421 . S
O345 Fe323 2.077 . S
O345 C344 1.381 . S
O346 Fe327 1.935 . S
O346 C344 1.421 . S
C347 O331 1.381 . S
C347 O332 1.421 . S
O348 Fe322 2.077 . S
O348 C351 1.381 . S
O349 Fe320 1.935 . S
O349 C351 1.421 . S
C350 O338 1.381 . S
C350 O339 1.421 . S
C351 O348 1.381 . S
C351 O349 1.421 . S
C352 C353 1.349 . S
C352 C354 1.327 . S
C352 H377 0.950 . S
C353 C352 1.349 . S
C353 C369 1.349 . S
C354 C352 1.327 . S
C354 C373 1.429 . S
C354 H378 0.950 . S
C355 C372 1.574 . S
C355 C374 1.368 . S
C355 H379 0.949 . S
H356 C360 0.949 . S
C357 C358 1.349 . S
C357 C359 1.327 . S
C357 H380 0.950 . S
C358 C357 1.349 . S
C358 C370 1.349 . S
C359 C357 1.327 . S
C359 C375 1.429 . S
C359 H381 0.950 . S
C360 H356 0.949 . S
C360 C368 1.574 . S
C360 C376 1.368 . S
H361 C369 0.950 . S
H362 C367 0.950 . S
H363 C368 0.949 . S
H364 C370 0.950 . S
H365 C371 0.950 . S
H366 C372 0.949 . S
C367 H362 0.950 . S
C367 C369 1.327 . S
C367 C373 1.429 . S
C368 C360 1.574 . S
C368 H363 0.949 . S
C368 C374 1.368 . S
C369 C353 1.349 . S
C369 H361 0.950 . S
C369 C367 1.327 . S
C370 C358 1.349 . S
C370 H364 0.950 . S
C370 C371 1.327 . S
C371 H365 0.950 . S
C371 C370 1.327 . S
C371 C375 1.429 . S
C372 C355 1.574 . S
C372 H366 0.949 . S
C372 C376 1.368 . S
C373 C354 1.429 . S
C373 C367 1.429 . S
C373 C374 1.523 . S
C374 C355 1.368 . S
C374 C368 1.368 . S
C374 C373 1.523 . S
C375 C359 1.429 . S
C375 C371 1.429 . S
C375 C376 1.523 . S
C376 C360 1.368 . S
C376 C372 1.368 . S
C376 C375 1.523 . S
H377 C352 0.950 . S
H378 C354 0.950 . S
H379 C355 0.949 . S
H380 C357 0.950 . S
H381 C359 0.950 . S
C382 C383 1.349 . S
C382 C384 1.327 . S
C382 H407 0.950 . S
C383 C382 1.349 . S
C383 C399 1.349 . S
C384 C382 1.327 . S
C384 C403 1.429 . S
C384 H408 0.950 . S
C385 C402 1.574 . S
C385 C404 1.368 . S
C385 H409 0.949 . S
H386 C390 0.949 . S
C387 C388 1.349 . S
C387 C389 1.327 . S
C387 H410 0.950 . S
C388 C387 1.349 . S
C388 C400 1.349 . S
C389 C387 1.327 . S
C389 C405 1.429 . S
C389 H411 0.950 . S
C390 H386 0.949 . S
C390 C398 1.574 . S
C390 C406 1.368 . S
H391 C399 0.950 . S
H392 C397 0.950 . S
H393 C398 0.949 . S
H394 C400 0.950 . S
H395 C401 0.950 . S
H396 C402 0.949 . S
C397 H392 0.950 . S
C397 C399 1.327 . S
C397 C403 1.429 . S
C398 C390 1.574 . S
C398 H393 0.949 . S
C398 C404 1.368 . S
C399 C383 1.349 . S
C399 H391 0.950 . S
C399 C397 1.327 . S
C400 C388 1.349 . S
C400 H394 0.950 . S
C400 C401 1.327 . S
C401 H395 0.950 . S
C401 C400 1.327 . S
C401 C405 1.429 . S
C402 C385 1.574 . S
C402 H396 0.949 . S
C402 C406 1.368 . S
C403 C384 1.429 . S
C403 C397 1.429 . S
C403 C404 1.523 . S
C404 C385 1.368 . S
C404 C398 1.368 . S
C404 C403 1.523 . S
C405 C389 1.429 . S
C405 C401 1.429 . S
C405 C406 1.523 . S
C406 C390 1.368 . S
C406 C402 1.368 . S
C406 C405 1.523 . S
H407 C382 0.950 . S
H408 C384 0.950 . S
H409 C385 0.949 . S
H410 C387 0.950 . S
H411 C389 0.950 . S
C412 C413 1.349 . S
C412 C414 1.327 . S
C412 H437 0.950 . S
C413 C412 1.349 . S
C413 C429 1.349 . S
C414 C412 1.327 . S
C414 C433 1.429 . S
C414 H438 0.950 . S
C415 C432 1.574 . S
C415 C434 1.368 . S
C415 H439 0.949 . S
H416 C420 0.949 . S
C417 C418 1.349 . S
C417 C419 1.327 . S
C417 H440 0.950 . S
C418 C417 1.349 . S
C418 C430 1.349 . S
C419 C417 1.327 . S
C419 C435 1.429 . S
C419 H441 0.950 . S
C420 H416 0.949 . S
C420 C428 1.574 . S
C420 C436 1.368 . S
H421 C429 0.950 . S
H422 C427 0.950 . S
H423 C428 0.949 . S
H424 C430 0.950 . S
H425 C431 0.950 . S
H426 C432 0.949 . S
C427 H422 0.950 . S
C427 C429 1.327 . S
C427 C433 1.429 . S
C428 C420 1.574 . S
C428 H423 0.949 . S
C428 C434 1.368 . S
C429 C413 1.349 . S
C429 H421 0.950 . S
C429 C427 1.327 . S
C430 C418 1.349 . S
C430 H424 0.950 . S
C430 C431 1.327 . S
C431 H425 0.950 . S
C431 C430 1.327 . S
C431 C435 1.429 . S
C432 C415 1.574 . S
C432 H426 0.949 . S
C432 C436 1.368 . S
C433 C414 1.429 . S
C433 C427 1.429 . S
C433 C434 1.523 . S
C434 C415 1.368 . S
C434 C428 1.368 . S
C434 C433 1.523 . S
C435 C419 1.429 . S
C435 C431 1.429 . S
C435 C436 1.523 . S
C436 C420 1.368 . S
C436 C432 1.368 . S
C436 C435 1.523 . S
H437 C412 0.950 . S
H438 C414 0.950 . S
H439 C415 0.949 . S
H440 C417 0.950 . S
H441 C419 0.950 . S
C442 C443 1.349 . S
C442 C444 1.327 . S
C442 H467 0.950 . S
C443 C442 1.349 . S
C443 C459 1.349 . S
C444 C442 1.327 . S
C444 C463 1.429 . S
C444 H468 0.950 . S
C445 C462 1.574 . S
C445 C464 1.368 . S
C445 H469 0.949 . S
H446 C450 0.949 . S
C447 C448 1.349 . S
C447 C449 1.327 . S
C447 H470 0.950 . S
C448 C447 1.349 . S
C448 C460 1.349 . S
C449 C447 1.327 . S
C449 C465 1.429 . S
C449 H471 0.950 . S
C450 H446 0.949 . S
C450 C458 1.574 . S
C450 C466 1.368 . S
H451 C459 0.950 . S
H452 C457 0.950 . S
H453 C458 0.949 . S
H454 C460 0.950 . S
H455 C461 0.950 . S
H456 C462 0.949 . S
C457 H452 0.950 . S
C457 C459 1.327 . S
C457 C463 1.429 . S
C458 C450 1.574 . S
C458 H453 0.949 . S
C458 C464 1.368 . S
C459 C443 1.349 . S
C459 H451 0.950 . S
C459 C457 1.327 . S
C460 C448 1.349 . S
C460 H454 0.950 . S
C460 C461 1.327 . S
C461 H455 0.950 . S
C461 C460 1.327 . S
C461 C465 1.429 . S
C462 C445 1.574 . S
C462 H456 0.949 . S
C462 C466 1.368 . S
C463 C444 1.429 . S
C463 C457 1.429 . S
C463 C464 1.523 . S
C464 C445 1.368 . S
C464 C458 1.368 . S
C464 C463 1.523 . S
C465 C449 1.429 . S
C465 C461 1.429 . S
C465 C466 1.523 . S
C466 C450 1.368 . S
C466 C462 1.368 . S
C466 C465 1.523 . S
H467 C442 0.950 . S
H468 C444 0.950 . S
H469 C445 0.949 . S
H470 C447 0.950 . S
H471 C449 0.950 . S
C472 C473 1.349 . S
C472 C474 1.327 . S
C472 H497 0.950 . S
C473 C472 1.349 . S
C473 C489 1.349 . S
C474 C472 1.327 . S
C474 C493 1.429 . S
C474 H498 0.950 . S
C475 C492 1.574 . S
C475 C494 1.368 . S
C475 H499 0.949 . S
H476 C480 0.949 . S
C477 C478 1.349 . S
C477 C479 1.327 . S
C477 H500 0.950 . S
C478 C477 1.349 . S
C478 C490 1.349 . S
C479 C477 1.327 . S
C479 C495 1.429 . S
C479 H501 0.950 . S
C480 H476 0.949 . S
C480 C488 1.574 . S
C480 C496 1.368 . S
H481 C489 0.950 . S
H482 C487 0.950 . S
H483 C488 0.949 . S
H484 C490 0.950 . S
H485 C491 0.950 . S
H486 C492 0.949 . S
C487 H482 0.950 . S
C487 C489 1.327 . S
C487 C493 1.429 . S
C488 C480 1.574 . S
C488 H483 0.949 . S
C488 C494 1.368 . S
C489 C473 1.349 . S
C489 H481 0.950 . S
C489 C487 1.327 . S
C490 C478 1.349 . S
C490 H484 0.950 . S
C490 C491 1.327 . S
C491 H485 0.950 . S
C491 C490 1.327 . S
C491 C495 1.429 . S
C492 C475 1.574 . S
C492 H486 0.949 . S
C492 C496 1.368 . S
C493 C474 1.429 . S
C493 C487 1.429 . S
C493 C494 1.523 . S
C494 C475 1.368 . S
C494 C488 1.368 . S
C494 C493 1.523 . S
C495 C479 1.429 . S
C495 C491 1.429 . S
C495 C496 1.523 . S
C496 C480 1.368 . S
C496 C492 1.368 . S
C496 C495 1.523 . S
H497 C472 0.950 . S
H498 C474 0.950 . S
H499 C475 0.949 . S
H500 C477 0.950 . S
H501 C479 0.950 . S
C502 C503 1.349 . S
C502 C504 1.327 . S
C502 H527 0.950 . S
C503 C502 1.349 . S
C503 C519 1.349 . S
C504 C502 1.327 . S
C504 C523 1.429 . S
C504 H528 0.950 . S
C505 C522 1.574 . S
C505 C524 1.368 . S
C505 H529 0.949 . S
H506 C510 0.949 . S
C507 C508 1.349 . S
C507 C509 1.327 . S
C507 H530 0.950 . S
C508 C507 1.349 . S
C508 C520 1.349 . S
C509 C507 1.327 . S
C509 C525 1.429 . S
C509 H531 0.950 . S
C510 H506 0.949 . S
C510 C518 1.574 . S
C510 C526 1.368 . S
H511 C519 0.950 . S
H512 C517 0.950 . S
H513 C518 0.949 . S
H514 C520 0.950 . S
H515 C521 0.950 . S
H516 C522 0.949 . S
C517 H512 0.950 . S
C517 C519 1.327 . S
C517 C523 1.429 . S
C518 C510 1.574 . S
C518 H513 0.949 . S
C518 C524 1.368 . S
C519 C503 1.349 . S
C519 H511 0.950 . S
C519 C517 1.327 . S
C520 C508 1.349 . S
C520 H514 0.950 . S
C520 C521 1.327 . S
C521 H515 0.950 . S
C521 C520 1.327 . S
C521 C525 1.429 . S
C522 C505 1.574 . S
C522 H516 0.949 . S
C522 C526 1.368 . S
C523 C504 1.429 . S
C523 C517 1.429 . S
C523 C524 1.523 . S
C524 C505 1.368 . S
C524 C518 1.368 . S
C524 C523 1.523 . S
C525 C509 1.429 . S
C525 C521 1.429 . S
C525 C526 1.523 . S
C526 C510 1.368 . S
C526 C522 1.368 . S
C526 C525 1.523 . S
H527 C502 0.950 . S
H528 C504 0.950 . S
H529 C505 0.949 . S
H530 C507 0.950 . S
H531 C509 0.950 . S
C532 C533 1.349 . S
C532 C534 1.327 . S
C532 H557 0.950 . S
C533 C532 1.349 . S
C533 C549 1.349 . S
C534 C532 1.327 . S
C534 C553 1.429 . S
C534 H558 0.950 . S
C535 C552 1.574 . S
C535 C554 1.368 . S
C535 H559 0.949 . S
H536 C540 0.949 . S
C537 C538 1.349 . S
C537 C539 1.327 . S
C537 H560 0.950 . S
C538 C537 1.349 . S
C538 C550 1.349 . S
C539 C537 1.327 . S
C539 C555 1.429 . S
C539 H561 0.950 . S
C540 H536 0.949 . S
C540 C548 1.574 . S
C540 C556 1.368 . S
H541 C549 0.950 . S
H542 C547 0.950 . S
H543 C548 0.949 . S
H544 C550 0.950 . S
H545 C551 0.950 . S
H546 C552 0.949 . S
C547 H542 0.950 . S
C547 C549 1.327 . S
C547 C553 1.429 . S
C548 C540 1.574 . S
C548 H543 0.949 . S
C548 C554 1.368 . S
C549 C533 1.349 . S
C549 H541 0.950 . S
C549 C547 1.327 . S
C550 C538 1.349 . S
C550 H544 0.950 . S
C550 C551 1.327 . S
C551 H545 0.950 . S
C551 C550 1.327 . S
C551 C555 1.429 . S
C552 C535 1.574 . S
C552 H546 0.949 . S
C552 C556 1.368 . S
C553 C534 1.429 . S
C553 C547 1.429 . S
C553 C554 1.523 . S
C554 C535 1.368 . S
C554 C548 1.368 . S
C554 C553 1.523 . S
C555 C539 1.429 . S
C555 C551 1.429 . S
C555 C556 1.523 . S
C556 C540 1.368 . S
C556 C552 1.368 . S
C556 C555 1.523 . S
H557 C532 0.950 . S
H558 C534 0.950 . S
H559 C535 0.949 . S
H560 C537 0.950 . S
H561 C539 0.950 . S
C562 C563 1.349 . S
C562 C564 1.327 . S
C562 H587 0.950 . S
C563 C562 1.349 . S
C563 C579 1.349 . S
C564 C562 1.327 . S
C564 C583 1.429 . S
C564 H588 0.950 . S
C565 C582 1.574 . S
C565 C584 1.368 . S
C565 H589 0.949 . S
H566 C570 0.949 . S
C567 C568 1.349 . S
C567 C569 1.327 . S
C567 H590 0.950 . S
C568 C567 1.349 . S
C568 C580 1.349 . S
C569 C567 1.327 . S
C569 C585 1.429 . S
C569 H591 0.950 . S
C570 H566 0.949 . S
C570 C578 1.574 . S
C570 C586 1.368 . S
H571 C579 0.950 . S
H572 C577 0.950 . S
H573 C578 0.949 . S
H574 C580 0.950 . S
H575 C581 0.950 . S
H576 C582 0.949 . S
C577 H572 0.950 . S
C577 C579 1.327 . S
C577 C583 1.429 . S
C578 C570 1.574 . S
C578 H573 0.949 . S
C578 C584 1.368 . S
C579 C563 1.349 . S
C579 H571 0.950 . S
C579 C577 1.327 . S
C580 C568 1.349 . S
C580 H574 0.950 . S
C580 C581 1.327 . S
C581 H575 0.950 . S
C581 C580 1.327 . S
C581 C585 1.429 . S
C582 C565 1.574 . S
C582 H576 0.949 . S
C582 C586 1.368 . S
C583 C564 1.429 . S
C583 C577 1.429 . S
C583 C584 1.523 . S
C584 C565 1.368 . S
C584 C578 1.368 . S
C584 C583 1.523 . S
C585 C569 1.429 . S
C585 C581 1.429 . S
C585 C586 1.523 . S
C586 C570 1.368 . S
C586 C582 1.368 . S
C586 C585 1.523 . S
H587 C562 0.950 . S
H588 C564 0.950 . S
H589 C565 0.949 . S
H590 C567 0.950 . S
H591 C569 0.950 . S
C592 C593 1.349 . S
C592 C594 1.327 . S
C592 H617 0.950 . S
C593 C592 1.349 . S
C593 C609 1.349 . S
C594 C592 1.327 . S
C594 C613 1.429 . S
C594 H618 0.950 . S
C595 C612 1.574 . S
C595 C614 1.368 . S
C595 H619 0.949 . S
H596 C600 0.949 . S
C597 C598 1.349 . S
C597 C599 1.327 . S
C597 H620 0.950 . S
C598 C597 1.349 . S
C598 C610 1.349 . S
C599 C597 1.327 . S
C599 C615 1.429 . S
C599 H621 0.950 . S
C600 H596 0.949 . S
C600 C608 1.574 . S
C600 C616 1.368 . S
H601 C609 0.950 . S
H602 C607 0.950 . S
H603 C608 0.949 . S
H604 C610 0.950 . S
H605 C611 0.950 . S
H606 C612 0.949 . S
C607 H602 0.950 . S
C607 C609 1.327 . S
C607 C613 1.429 . S
C608 C600 1.574 . S
C608 H603 0.949 . S
C608 C614 1.368 . S
C609 C593 1.349 . S
C609 H601 0.950 . S
C609 C607 1.327 . S
C610 C598 1.349 . S
C610 H604 0.950 . S
C610 C611 1.327 . S
C611 H605 0.950 . S
C611 C610 1.327 . S
C611 C615 1.429 . S
C612 C595 1.574 . S
C612 H606 0.949 . S
C612 C616 1.368 . S
C613 C594 1.429 . S
C613 C607 1.429 . S
C613 C614 1.523 . S
C614 C595 1.368 . S
C614 C608 1.368 . S
C614 C613 1.523 . S
C615 C599 1.429 . S
C615 C611 1.429 . S
C615 C616 1.523 . S
C616 C600 1.368 . S
C616 C612 1.368 . S
C616 C615 1.523 . S
H617 C592 0.950 . S
H618 C594 0.950 . S
H619 C595 0.949 . S
H620 C597 0.950 . S
H621 C599 0.950 . S
C622 C623 1.349 . S
C622 C624 1.327 . S
C622 H647 0.950 . S
C623 C622 1.349 . S
C623 C639 1.349 . S
C624 C622 1.327 . S
C624 C643 1.429 . S
C624 H648 0.950 . S
C625 C642 1.574 . S
C625 C644 1.368 . S
C625 H649 0.949 . S
H626 C630 0.949 . S
C627 C628 1.349 . S
C627 C629 1.327 . S
C627 H650 0.950 . S
C628 C627 1.349 . S
C628 C640 1.349 . S
C629 C627 1.327 . S
C629 C645 1.429 . S
C629 H651 0.950 . S
C630 H626 0.949 . S
C630 C638 1.574 . S
C630 C646 1.368 . S
H631 C639 0.950 . S
H632 C637 0.950 . S
H633 C638 0.949 . S
H634 C640 0.950 . S
H635 C641 0.950 . S
H636 C642 0.949 . S
C637 H632 0.950 . S
C637 C639 1.327 . S
C637 C643 1.429 . S
C638 C630 1.574 . S
C638 H633 0.949 . S
C638 C644 1.368 . S
C639 C623 1.349 . S
C639 H631 0.950 . S
C639 C637 1.327 . S
C640 C628 1.349 . S
C640 H634 0.950 . S
C640 C641 1.327 . S
C641 H635 0.950 . S
C641 C640 1.327 . S
C641 C645 1.429 . S
C642 C625 1.574 . S
C642 H636 0.949 . S
C642 C646 1.368 . S
C643 C624 1.429 . S
C643 C637 1.429 . S
C643 C644 1.523 . S
C644 C625 1.368 . S
C644 C638 1.368 . S
C644 C643 1.523 . S
C645 C629 1.429 . S
C645 C641 1.429 . S
C645 C646 1.523 . S
C646 C630 1.368 . S
C646 C642 1.368 . S
C646 C645 1.523 . S
H647 C622 0.950 . S
H648 C624 0.950 . S
H649 C625 0.949 . S
H650 C627 0.950 . S
H651 C629 0.950 . S
C652 C653 1.349 . S
C652 C654 1.327 . S
C652 H677 0.950 . S
C653 C652 1.349 . S
C653 C669 1.349 . S
C654 C652 1.327 . S
C654 C673 1.429 . S
C654 H678 0.950 . S
C655 C672 1.574 . S
C655 C674 1.368 . S
C655 H679 0.949 . S
H656 C660 0.949 . S
C657 C658 1.349 . S
C657 C659 1.327 . S
C657 H680 0.950 . S
C658 C657 1.349 . S
C658 C670 1.349 . S
C659 C657 1.327 . S
C659 C675 1.429 . S
C659 H681 0.950 . S
C660 H656 0.949 . S
C660 C668 1.574 . S
C660 C676 1.368 . S
H661 C669 0.950 . S
H662 C667 0.950 . S
H663 C668 0.949 . S
H664 C670 0.950 . S
H665 C671 0.950 . S
H666 C672 0.949 . S
C667 H662 0.950 . S
C667 C669 1.327 . S
C667 C673 1.429 . S
C668 C660 1.574 . S
C668 H663 0.949 . S
C668 C674 1.368 . S
C669 C653 1.349 . S
C669 H661 0.950 . S
C669 C667 1.327 . S
C670 C658 1.349 . S
C670 H664 0.950 . S
C670 C671 1.327 . S
C671 H665 0.950 . S
C671 C670 1.327 . S
C671 C675 1.429 . S
C672 C655 1.574 . S
C672 H666 0.949 . S
C672 C676 1.368 . S
C673 C654 1.429 . S
C673 C667 1.429 . S
C673 C674 1.523 . S
C674 C655 1.368 . S
C674 C668 1.368 . S
C674 C673 1.523 . S
C675 C659 1.429 . S
C675 C671 1.429 . S
C675 C676 1.523 . S
C676 C660 1.368 . S
C676 C672 1.368 . S
C676 C675 1.523 . S
H677 C652 0.950 . S
H678 C654 0.950 . S
H679 C655 0.949 . S
H680 C657 0.950 . S
H681 C659 0.950 . S
C682 C683 1.349 . S
C682 C684 1.327 . S
C682 H707 0.950 . S
C683 C682 1.349 . S
C683 C699 1.349 . S
C684 C682 1.327 . S
C684 C703 1.429 . S
C684 H708 0.950 . S
C685 C702 1.574 . S
C685 C704 1.368 . S
C685 H709 0.949 . S
H686 C690 0.949 . S
C687 C688 1.349 . S
C687 C689 1.327 . S
C687 H710 0.950 . S
C688 C687 1.349 . S
C688 C700 1.349 . S
C689 C687 1.327 . S
C689 C705 1.429 . S
C689 H711 0.950 . S
C690 H686 0.949 . S
C690 C698 1.574 . S
C690 C706 1.368 . S
H691 C699 0.950 . S
H692 C697 0.950 . S
H693 C698 0.949 . S
H694 C700 0.950 . S
H695 C701 0.950 . S
H696 C702 0.949 . S
C697 H692 0.950 . S
C697 C699 1.327 . S
C697 C703 1.429 . S
C698 C690 1.574 . S
C698 H693 0.949 . S
C698 C704 1.368 . S
C699 C683 1.349 . S
C699 H691 0.950 . S
C699 C697 1.327 . S
C700 C688 1.349 . S
C700 H694 0.950 . S
C700 C701 1.327 . S
C701 H695 0.950 . S
C701 C700 1.327 . S
C701 C705 1.429 . S
C702 C685 1.574 . S
C702 H696 0.949 . S
C702 C706 1.368 . S
C703 C684 1.429 . S
C703 C697 1.429 . S
C703 C704 1.523 . S
C704 C685 1.368 . S
C704 C698 1.368 . S
C704 C703 1.523 . S
C705 C689 1.429 . S
C705 C701 1.429 . S
C705 C706 1.523 . S
C706 C690 1.368 . S
C706 C702 1.368 . S
C706 C705 1.523 . S
H707 C682 0.950 . S
H708 C684 0.950 . S
H709 C685 0.949 . S
H710 C687 0.950 . S
H711 C689 0.950 . S
C712 C713 1.349 . S
C712 C714 1.327 . S
C712 H737 0.950 . S
C713 C712 1.349 . S
C713 C729 1.349 . S
C714 C712 1.327 . S
C714 C733 1.429 . S
C714 H738 0.950 . S
C715 C732 1.574 . S
C715 C734 1.368 . S
C715 H739 0.949 . S
H716 C720 0.949 . S
C717 C718 1.349 . S
C717 C719 1.327 . S
C717 H740 0.950 . S
C718 C717 1.349 . S
C718 C730 1.349 . S
C719 C717 1.327 . S
C719 C735 1.429 . S
C719 H741 0.950 . S
C720 H716 0.949 . S
C720 C728 1.574 . S
C720 C736 1.368 . S
H721 C729 0.950 . S
H722 C727 0.950 . S
H723 C728 0.949 . S
H724 C730 0.950 . S
H725 C731 0.950 . S
H726 C732 0.949 . S
C727 H722 0.950 . S
C727 C729 1.327 . S
C727 C733 1.429 . S
C728 C720 1.574 . S
C728 H723 0.949 . S
C728 C734 1.368 . S
C729 C713 1.349 . S
C729 H721 0.950 . S
C729 C727 1.327 . S
C730 C718 1.349 . S
C730 H724 0.950 . S
C730 C731 1.327 . S
C731 H725 0.950 . S
C731 C730 1.327 . S
C731 C735 1.429 . S
C732 C715 1.574 . S
C732 H726 0.949 . S
C732 C736 1.368 . S
C733 C714 1.429 . S
C733 C727 1.429 . S
C733 C734 1.523 . S
C734 C715 1.368 . S
C734 C728 1.368 . S
C734 C733 1.523 . S
C735 C719 1.429 . S
C735 C731 1.429 . S
C735 C736 1.523 . S
C736 C720 1.368 . S
C736 C732 1.368 . S
C736 C735 1.523 . S
H737 C712 0.950 . S
H738 C714 0.950 . S
H739 C715 0.949 . S
H740 C717 0.950 . S
H741 C719 0.950 . S
C742 C743 1.349 . S
C742 C744 1.327 . S
C742 H767 0.950 . S
C743 C742 1.349 . S
C743 C759 1.349 . S
C744 C742 1.327 . S
C744 C763 1.429 . S
C744 H768 0.950 . S
C745 C762 1.574 . S
C745 C764 1.368 . S
C745 H769 0.949 . S
H746 C750 0.949 . S
C747 C748 1.349 . S
C747 C749 1.327 . S
C747 H770 0.950 . S
C748 C747 1.349 . S
C748 C760 1.349 . S
C749 C747 1.327 . S
C749 C765 1.429 . S
C749 H771 0.950 . S
C750 H746 0.949 . S
C750 C758 1.574 . S
C750 C766 1.368 . S
H751 C759 0.950 . S
H752 C757 0.950 . S
H753 C758 0.949 . S
H754 C760 0.950 . S
H755 C761 0.950 . S
H756 C762 0.949 . S
C757 H752 0.950 . S
C757 C759 1.327 . S
C757 C763 1.429 . S
C758 C750 1.574 . S
C758 H753 0.949 . S
C758 C764 1.368 . S
C759 C743 1.349 . S
C759 H751 0.950 . S
C759 C757 1.327 . S
C760 C748 1.349 . S
C760 H754 0.950 . S
C760 C761 1.327 . S
C761 H755 0.950 . S
C761 C760 1.327 . S
C761 C765 1.429 . S
C762 C745 1.574 . S
C762 H756 0.949 . S
C762 C766 1.368 . S
C763 C744 1.429 . S
C763 C757 1.429 . S
C763 C764 1.523 . S
C764 C745 1.368 . S
C764 C758 1.368 . S
C764 C763 1.523 . S
C765 C749 1.429 . S
C765 C761 1.429 . S
C765 C766 1.523 . S
C766 C750 1.368 . S
C766 C762 1.368 . S
C766 C765 1.523 . S
H767 C742 0.950 . S
H768 C744 0.950 . S
H769 C745 0.949 . S
H770 C747 0.950 . S
H771 C749 0.950 . S
C772 C773 1.349 . S
C772 C774 1.327 . S
C772 H797 0.950 . S
C773 C772 1.349 . S
C773 C789 1.349 . S
C774 C772 1.327 . S
C774 C793 1.429 . S
C774 H798 0.950 . S
C775 C792 1.574 . S
C775 C794 1.368 . S
C775 H799 0.949 . S
H776 C780 0.949 . S
C777 C778 1.349 . S
C777 C779 1.327 . S
C777 H800 0.950 . S
C778 C777 1.349 . S
C778 C790 1.349 . S
C779 C777 1.327 . S
C779 C795 1.429 . S
C779 H801 0.950 . S
C780 H776 0.949 . S
C780 C788 1.574 . S
C780 C796 1.368 . S
H781 C789 0.950 . S
H782 C787 0.950 . S
H783 C788 0.949 . S
H784 C790 0.950 . S
H785 C791 0.950 . S
H786 C792 0.949 . S
C787 H782 0.950 . S
C787 C789 1.327 . S
C787 C793 1.429 . S
C788 C780 1.574 . S
C788 H783 0.949 . S
C788 C794 1.368 . S
C789 C773 1.349 . S
C789 H781 0.950 . S
C789 C787 1.327 . S
C790 C778 1.349 . S
C790 H784 0.950 . S
C790 C791 1.327 . S
C791 H785 0.950 . S
C791 C790 1.327 . S
C791 C795 1.429 . S
C792 C775 1.574 . S
C792 H786 0.949 . S
C792 C796 1.368 . S
C793 C774 1.429 . S
C793 C787 1.429 . S
C793 C794 1.523 . S
C794 C775 1.368 . S
C794 C788 1.368 . S
C794 C793 1.523 . S
C795 C779 1.429 . S
C795 C791 1.429 . S
C795 C796 1.523 . S
C796 C780 1.368 . S
C796 C792 1.368 . S
C796 C795 1.523 . S
H797 C772 0.950 . S
H798 C774 0.950 . S
H799 C775 0.949 . S
H800 C777 0.950 . S
H801 C779 0.950 . S
C802 C803 1.349 . S
C802 C804 1.327 . S
C802 H827 0.950 . S
C803 C802 1.349 . S
C803 C819 1.349 . S
C804 C802 1.327 . S
C804 C823 1.429 . S
C804 H828 0.950 . S
C805 C822 1.574 . S
C805 C824 1.368 . S
C805 H829 0.949 . S
H806 C810 0.949 . S
C807 C808 1.349 . S
C807 C809 1.327 . S
C807 H830 0.950 . S
C808 C807 1.349 . S
C808 C820 1.349 . S
C809 C807 1.327 . S
C809 C825 1.429 . S
C809 H831 0.950 . S
C810 H806 0.949 . S
C810 C818 1.574 . S
C810 C826 1.368 . S
H811 C819 0.950 . S
H812 C817 0.950 . S
H813 C818 0.949 . S
H814 C820 0.950 . S
H815 C821 0.950 . S
H816 C822 0.949 . S
C817 H812 0.950 . S
C817 C819 1.327 . S
C817 C823 1.429 . S
C818 C810 1.574 . S
C818 H813 0.949 . S
C818 C824 1.368 . S
C819 C803 1.349 . S
C819 H811 0.950 . S
C819 C817 1.327 . S
C820 C808 1.349 . S
C820 H814 0.950 . S
C820 C821 1.327 . S
C821 H815 0.950 . S
C821 C820 1.327 . S
C821 C825 1.429 . S
C822 C805 1.574 . S
C822 H816 0.949 . S
C822 C826 1.368 . S
C823 C804 1.429 . S
C823 C817 1.429 . S
C823 C824 1.523 . S
C824 C805 1.368 . S
C824 C818 1.368 . S
C824 C823 1.523 . S
C825 C809 1.429 . S
C825 C821 1.429 . S
C825 C826 1.523 . S
C826 C810 1.368 . S
C826 C822 1.368 . S
C826 C825 1.523 . S
H827 C802 0.950 . S
H828 C804 0.950 . S
H829 C805 0.949 . S
H830 C807 0.950 . S
H831 C809 0.950 . S
C832 C833 1.349 . S
C832 C834 1.327 . S
C832 H857 0.950 . S
C833 C832 1.349 . S
C833 C849 1.349 . S
C834 C832 1.327 . S
C834 C853 1.429 . S
C834 H858 0.950 . S
C835 C852 1.574 . S
C835 C854 1.368 . S
C835 H859 0.949 . S
H836 C840 0.949 . S
C837 C838 1.349 . S
C837 C839 1.327 . S
C837 H860 0.950 . S
C838 C837 1.349 . S
C838 C850 1.349 . S
C839 C837 1.327 . S
C839 C855 1.429 . S
C839 H861 0.950 . S
C840 H836 0.949 . S
C840 C848 1.574 . S
C840 C856 1.368 . S
H841 C849 0.950 . S
H842 C847 0.950 . S
H843 C848 0.949 . S
H844 C850 0.950 . S
H845 C851 0.950 . S
H846 C852 0.949 . S
C847 H842 0.950 . S
C847 C849 1.327 . S
C847 C853 1.429 . S
C848 C840 1.574 . S
C848 H843 0.949 . S
C848 C854 1.368 . S
C849 C833 1.349 . S
C849 H841 0.950 . S
C849 C847 1.327 . S
C850 C838 1.349 . S
C850 H844 0.950 . S
C850 C851 1.327 . S
C851 H845 0.950 . S
C851 C850 1.327 . S
C851 C855 1.429 . S
C852 C835 1.574 . S
C852 H846 0.949 . S
C852 C856 1.368 . S
C853 C834 1.429 . S
C853 C847 1.429 . S
C853 C854 1.523 . S
C854 C835 1.368 . S
C854 C848 1.368 . S
C854 C853 1.523 . S
C855 C839 1.429 . S
C855 C851 1.429 . S
C855 C856 1.523 . S
C856 C840 1.368 . S
C856 C852 1.368 . S
C856 C855 1.523 . S
H857 C832 0.950 . S
H858 C834 0.950 . S
H859 C835 0.949 . S
H860 C837 0.950 . S
H861 C839 0.950 . S
C862 C863 1.349 . S
C862 C864 1.327 . S
C862 H887 0.950 . S
C863 C862 1.349 . S
C863 C879 1.349 . S
C864 C862 1.327 . S
C864 C883 1.429 . S
C864 H888 0.950 . S
C865 C882 1.574 . S
C865 C884 1.368 . S
C865 H889 0.949 . S
H866 C870 0.949 . S
C867 C868 1.349 . S
C867 C869 1.327 . S
C867 H890 0.950 . S
C868 C867 1.349 . S
C868 C880 1.349 . S
C869 C867 1.327 . S
C869 C885 1.429 . S
C869 H891 0.950 . S
C870 H866 0.949 . S
C870 C878 1.574 . S
C870 C886 1.368 . S
H871 C879 0.950 . S
H872 C877 0.950 . S
H873 C878 0.949 . S
H874 C880 0.950 . S
H875 C881 0.950 . S
H876 C882 0.949 . S
C877 H872 0.950 . S
C877 C879 1.327 . S
C877 C883 1.429 . S
C878 C870 1.574 . S
C878 H873 0.949 . S
C878 C884 1.368 . S
C879 C863 1.349 . S
C879 H871 0.950 . S
C879 C877 1.327 . S
C880 C868 1.349 . S
C880 H874 0.950 . S
C880 C881 1.327 . S
C881 H875 0.950 . S
C881 C880 1.327 . S
C881 C885 1.429 . S
C882 C865 1.574 . S
C882 H876 0.949 . S
C882 C886 1.368 . S
C883 C864 1.429 . S
C883 C877 1.429 . S
C883 C884 1.523 . S
C884 C865 1.368 . S
C884 C878 1.368 . S
C884 C883 1.523 . S
C885 C869 1.429 . S
C885 C881 1.429 . S
C885 C886 1.523 . S
C886 C870 1.368 . S
C886 C882 1.368 . S
C886 C885 1.523 . S
H887 C862 0.950 . S
H888 C864 0.950 . S
H889 C865 0.949 . S
H890 C867 0.950 . S
H891 C869 0.950 . S
C892 C893 1.349 . S
C892 C894 1.327 . S
C892 H917 0.950 . S
C893 C892 1.349 . S
C893 C909 1.349 . S
C894 C892 1.327 . S
C894 C913 1.429 . S
C894 H918 0.950 . S
C895 C912 1.574 . S
C895 C914 1.368 . S
C895 H919 0.949 . S
H896 C900 0.949 . S
C897 C898 1.349 . S
C897 C899 1.327 . S
C897 H920 0.950 . S
C898 C897 1.349 . S
C898 C910 1.349 . S
C899 C897 1.327 . S
C899 C915 1.429 . S
C899 H921 0.950 . S
C900 H896 0.949 . S
C900 C908 1.574 . S
C900 C916 1.368 . S
H901 C909 0.950 . S
H902 C907 0.950 . S
H903 C908 0.949 . S
H904 C910 0.950 . S
H905 C911 0.950 . S
H906 C912 0.949 . S
C907 H902 0.950 . S
C907 C909 1.327 . S
C907 C913 1.429 . S
C908 C900 1.574 . S
C908 H903 0.949 . S
C908 C914 1.368 . S
C909 C893 1.349 . S
C909 H901 0.950 . S
C909 C907 1.327 . S
C910 C898 1.349 . S
C910 H904 0.950 . S
C910 C911 1.327 . S
C911 H905 0.950 . S
C911 C910 1.327 . S
C911 C915 1.429 . S
C912 C895 1.574 . S
C912 H906 0.949 . S
C912 C916 1.368 . S
C913 C894 1.429 . S
C913 C907 1.429 . S
C913 C914 1.523 . S
C914 C895 1.368 . S
C914 C908 1.368 . S
C914 C913 1.523 . S
C915 C899 1.429 . S
C915 C911 1.429 . S
C915 C916 1.523 . S
C916 C900 1.368 . S
C916 C912 1.368 . S
C916 C915 1.523 . S
H917 C892 0.950 . S
H918 C894 0.950 . S
H919 C895 0.949 . S
H920 C897 0.950 . S
H921 C899 0.950 . S
C922 C923 1.349 . S
C922 C924 1.327 . S
C922 H947 0.950 . S
C923 C922 1.349 . S
C923 C939 1.349 . S
C924 C922 1.327 . S
C924 C943 1.429 . S
C924 H948 0.950 . S
C925 C942 1.574 . S
C925 C944 1.368 . S
C925 H949 0.949 . S
H926 C930 0.949 . S
C927 C928 1.349 . S
C927 C929 1.327 . S
C927 H950 0.950 . S
C928 C927 1.349 . S
C928 C940 1.349 . S
C929 C927 1.327 . S
C929 C945 1.429 . S
C929 H951 0.950 . S
C930 H926 0.949 . S
C930 C938 1.574 . S
C930 C946 1.368 . S
H931 C939 0.950 . S
H932 C937 0.950 . S
H933 C938 0.949 . S
H934 C940 0.950 . S
H935 C941 0.950 . S
H936 C942 0.949 . S
C937 H932 0.950 . S
C937 C939 1.327 . S
C937 C943 1.429 . S
C938 C930 1.574 . S
C938 H933 0.949 . S
C938 C944 1.368 . S
C939 C923 1.349 . S
C939 H931 0.950 . S
C939 C937 1.327 . S
C940 C928 1.349 . S
C940 H934 0.950 . S
C940 C941 1.327 . S
C941 H935 0.950 . S
C941 C940 1.327 . S
C941 C945 1.429 . S
C942 C925 1.574 . S
C942 H936 0.949 . S
C942 C946 1.368 . S
C943 C924 1.429 . S
C943 C937 1.429 . S
C943 C944 1.523 . S
C944 C925 1.368 . S
C944 C938 1.368 . S
C944 C943 1.523 . S
C945 C929 1.429 . S
C945 C941 1.429 . S
C945 C946 1.523 . S
C946 C930 1.368 . S
C946 C942 1.368 . S
C946 C945 1.523 . S
H947 C922 0.950 . S
H948 C924 0.950 . S
H949 C925 0.949 . S
H950 C927 0.950 . S
H951 C929 0.950 . S
C952 C953 1.349 . S
C952 C954 1.327 . S
C952 H977 0.950 . S
C953 C952 1.349 . S
C953 C969 1.349 . S
C954 C952 1.327 . S
C954 C973 1.429 . S
C954 H978 0.950 . S
C955 C972 1.574 . S
C955 C974 1.368 . S
C955 H979 0.949 . S
H956 C960 0.949 . S
C957 C958 1.349 . S
C957 C959 1.327 . S
C957 H980 0.950 . S
C958 C957 1.349 . S
C958 C970 1.349 . S
C959 C957 1.327 . S
C959 C975 1.429 . S
C959 H981 0.950 . S
C960 H956 0.949 . S
C960 C968 1.574 . S
C960 C976 1.368 . S
H961 C969 0.950 . S
H962 C967 0.950 . S
H963 C968 0.949 . S
H964 C970 0.950 . S
H965 C971 0.950 . S
H966 C972 0.949 . S
C967 H962 0.950 . S
C967 C969 1.327 . S
C967 C973 1.429 . S
C968 C960 1.574 . S
C968 H963 0.949 . S
C968 C974 1.368 . S
C969 C953 1.349 . S
C969 H961 0.950 . S
C969 C967 1.327 . S
C970 C958 1.349 . S
C970 H964 0.950 . S
C970 C971 1.327 . S
C971 H965 0.950 . S
C971 C970 1.327 . S
C971 C975 1.429 . S
C972 C955 1.574 . S
C972 H966 0.949 . S
C972 C976 1.368 . S
C973 C954 1.429 . S
C973 C967 1.429 . S
C973 C974 1.523 . S
C974 C955 1.368 . S
C974 C968 1.368 . S
C974 C973 1.523 . S
C975 C959 1.429 . S
C975 C971 1.429 . S
C975 C976 1.523 . S
C976 C960 1.368 . S
C976 C972 1.368 . S
C976 C975 1.523 . S
H977 C952 0.950 . S
H978 C954 0.950 . S
H979 C955 0.949 . S
H980 C957 0.950 . S
H981 C959 0.950 . S
C982 C983 1.349 . S
C982 C984 1.327 . S
C982 H1007 0.950 . S
C983 C982 1.349 . S
C983 C999 1.349 . S
C984 C982 1.327 . S
C984 C1003 1.429 . S
C984 H1008 0.950 . S
C985 C1002 1.574 . S
C985 C1004 1.368 . S
C985 H1009 0.949 . S
H986 C990 0.949 . S
C987 C988 1.349 . S
C987 C989 1.327 . S
C987 H1010 0.950 . S
C988 C987 1.349 . S
C988 C1000 1.349 . S
C989 C987 1.327 . S
C989 C1005 1.429 . S
C989 H1011 0.950 . S
C990 H986 0.949 . S
C990 C998 1.574 . S
C990 C1006 1.368 . S
H991 C999 0.950 . S
H992 C997 0.950 . S
H993 C998 0.949 . S
H994 C1000 0.950 . S
H995 C1001 0.950 . S
H996 C1002 0.949 . S
C997 H992 0.950 . S
C997 C999 1.327 . S
C997 C1003 1.429 . S
C998 C990 1.574 . S
C998 H993 0.949 . S
C998 C1004 1.368 . S
C999 C983 1.349 . S
C999 H991 0.950 . S
C999 C997 1.327 . S
C1000 C988 1.349 . S
C1000 H994 0.950 . S
C1000 C1001 1.327 . S
C1001 H995 0.950 . S
C1001 C1000 1.327 . S
C1001 C1005 1.429 . S
C1002 C985 1.574 . S
C1002 H996 0.949 . S
C1002 C1006 1.368 . S
C1003 C984 1.429 . S
C1003 C997 1.429 . S
C1003 C1004 1.523 . S
C1004 C985 1.368 . S
C1004 C998 1.368 . S
C1004 C1003 1.523 . S
C1005 C989 1.429 . S
C1005 C1001 1.429 . S
C1005 C1006 1.523 . S
C1006 C990 1.368 . S
C1006 C1002 1.368 . S
C1006 C1005 1.523 . S
H1007 C982 0.950 . S
H1008 C984 0.950 . S
H1009 C985 0.949 . S
H1010 C987 0.950 . S
H1011 C989 0.950 . S
C1012 C1013 1.349 . S
C1012 C1014 1.327 . S
C1012 H1037 0.950 . S
C1013 C1012 1.349 . S
C1013 C1029 1.349 . S
C1014 C1012 1.327 . S
C1014 C1033 1.429 . S
C1014 H1038 0.950 . S
C1015 C1032 1.574 . S
C1015 C1034 1.368 . S
C1015 H1039 0.949 . S
H1016 C1020 0.949 . S
C1017 C1018 1.349 . S
C1017 C1019 1.327 . S
C1017 H1040 0.950 . S
C1018 C1017 1.349 . S
C1018 C1030 1.349 . S
C1019 C1017 1.327 . S
C1019 C1035 1.429 . S
C1019 H1041 0.950 . S
C1020 H1016 0.949 . S
C1020 C1028 1.574 . S
C1020 C1036 1.368 . S
H1021 C1029 0.950 . S
H1022 C1027 0.950 . S
H1023 C1028 0.949 . S
H1024 C1030 0.950 . S
H1025 C1031 0.950 . S
H1026 C1032 0.949 . S
C1027 H1022 0.950 . S
C1027 C1029 1.327 . S
C1027 C1033 1.429 . S
C1028 C1020 1.574 . S
C1028 H1023 0.949 . S
C1028 C1034 1.368 . S
C1029 C1013 1.349 . S
C1029 H1021 0.950 . S
C1029 C1027 1.327 . S
C1030 C1018 1.349 . S
C1030 H1024 0.950 . S
C1030 C1031 1.327 . S
C1031 H1025 0.950 . S
C1031 C1030 1.327 . S
C1031 C1035 1.429 . S
C1032 C1015 1.574 . S
C1032 H1026 0.949 . S
C1032 C1036 1.368 . S
C1033 C1014 1.429 . S
C1033 C1027 1.429 . S
C1033 C1034 1.523 . S
C1034 C1015 1.368 . S
C1034 C1028 1.368 . S
C1034 C1033 1.523 . S
C1035 C1019 1.429 . S
C1035 C1031 1.429 . S
C1035 C1036 1.523 . S
C1036 C1020 1.368 . S
C1036 C1032 1.368 . S
C1036 C1035 1.523 . S
H1037 C1012 0.950 . S
H1038 C1014 0.950 . S
H1039 C1015 0.949 . S
H1040 C1017 0.950 . S
H1041 C1019 0.950 . S
C1042 C1043 1.349 . S
C1042 C1044 1.327 . S
C1042 H1067 0.950 . S
C1043 C1042 1.349 . S
C1043 C1059 1.349 . S
C1044 C1042 1.327 . S
C1044 C1063 1.429 . S
C1044 H1068 0.950 . S
C1045 C1062 1.574 . S
C1045 C1064 1.368 . S
C1045 H1069 0.949 . S
H1046 C1050 0.949 . S
C1047 C1048 1.349 . S
C1047 C1049 1.327 . S
C1047 H1070 0.950 . S
C1048 C1047 1.349 . S
C1048 C1060 1.349 . S
C1049 C1047 1.327 . S
C1049 C1065 1.429 . S
C1049 H1071 0.950 . S
C1050 H1046 0.949 . S
C1050 C1058 1.574 . S
C1050 C1066 1.368 . S
H1051 C1059 0.950 . S
H1052 C1057 0.950 . S
H1053 C1058 0.949 . S
H1054 C1060 0.950 . S
H1055 C1061 0.950 . S
H1056 C1062 0.949 . S
C1057 H1052 0.950 . S
C1057 C1059 1.327 . S
C1057 C1063 1.429 . S
C1058 C1050 1.574 . S
C1058 H1053 0.949 . S
C1058 C1064 1.368 . S
C1059 C1043 1.349 . S
C1059 H1051 0.950 . S
C1059 C1057 1.327 . S
C1060 C1048 1.349 . S
C1060 H1054 0.950 . S
C1060 C1061 1.327 . S
C1061 H1055 0.950 . S
C1061 C1060 1.327 . S
C1061 C1065 1.429 . S
C1062 C1045 1.574 . S
C1062 H1056 0.949 . S
C1062 C1066 1.368 . S
C1063 C1044 1.429 . S
C1063 C1057 1.429 . S
C1063 C1064 1.523 . S
C1064 C1045 1.368 . S
C1064 C1058 1.368 . S
C1064 C1063 1.523 . S
C1065 C1049 1.429 . S
C1065 C1061 1.429 . S
C1065 C1066 1.523 . S
C1066 C1050 1.368 . S
C1066 C1062 1.368 . S
C1066 C1065 1.523 . S
H1067 C1042 0.950 . S
H1068 C1044 0.950 . S
H1069 C1045 0.949 . S
H1070 C1047 0.950 . S
H1071 C1049 0.950 . S
C1072 C1073 1.349 . S
C1072 C1074 1.327 . S
C1072 H1097 0.950 . S
C1073 C1072 1.349 . S
C1073 C1089 1.349 . S
C1074 C1072 1.327 . S
C1074 C1093 1.429 . S
C1074 H1098 0.950 . S
C1075 C1092 1.574 . S
C1075 C1094 1.368 . S
C1075 H1099 0.949 . S
H1076 C1080 0.949 . S
C1077 C1078 1.349 . S
C1077 C1079 1.327 . S
C1077 H1100 0.950 . S
C1078 C1077 1.349 . S
C1078 C1090 1.349 . S
C1079 C1077 1.327 . S
C1079 C1095 1.429 . S
C1079 H1101 0.950 . S
C1080 H1076 0.949 . S
C1080 C1088 1.574 . S
C1080 C1096 1.368 . S
H1081 C1089 0.950 . S
H1082 C1087 0.950 . S
H1083 C1088 0.949 . S
H1084 C1090 0.950 . S
H1085 C1091 0.950 . S
H1086 C1092 0.949 . S
C1087 H1082 0.950 . S
C1087 C1089 1.327 . S
C1087 C1093 1.429 . S
C1088 C1080 1.574 . S
C1088 H1083 0.949 . S
C1088 C1094 1.368 . S
C1089 C1073 1.349 . S
C1089 H1081 0.950 . S
C1089 C1087 1.327 . S
C1090 C1078 1.349 . S
C1090 H1084 0.950 . S
C1090 C1091 1.327 . S
C1091 H1085 0.950 . S
C1091 C1090 1.327 . S
C1091 C1095 1.429 . S
C1092 C1075 1.574 . S
C1092 H1086 0.949 . S
C1092 C1096 1.368 . S
C1093 C1074 1.429 . S
C1093 C1087 1.429 . S
C1093 C1094 1.523 . S
C1094 C1075 1.368 . S
C1094 C1088 1.368 . S
C1094 C1093 1.523 . S
C1095 C1079 1.429 . S
C1095 C1091 1.429 . S
C1095 C1096 1.523 . S
C1096 C1080 1.368 . S
C1096 C1092 1.368 . S
C1096 C1095 1.523 . S
H1097 C1072 0.950 . S
H1098 C1074 0.950 . S
H1099 C1075 0.949 . S
H1100 C1077 0.950 . S
H1101 C1079 0.950 . S
C1102 C1103 1.349 . S
C1102 C1104 1.327 . S
C1102 H1127 0.950 . S
C1103 C1102 1.349 . S
C1103 C1119 1.349 . S
C1104 C1102 1.327 . S
C1104 C1123 1.429 . S
C1104 H1128 0.950 . S
C1105 C1122 1.574 . S
C1105 C1124 1.368 . S
C1105 H1129 0.949 . S
H1106 C1110 0.949 . S
C1107 C1108 1.349 . S
C1107 C1109 1.327 . S
C1107 H1130 0.950 . S
C1108 C1107 1.349 . S
C1108 C1120 1.349 . S
C1109 C1107 1.327 . S
C1109 C1125 1.429 . S
C1109 H1131 0.950 . S
C1110 H1106 0.949 . S
C1110 C1118 1.574 . S
C1110 C1126 1.368 . S
H1111 C1119 0.950 . S
H1112 C1117 0.950 . S
H1113 C1118 0.949 . S
H1114 C1120 0.950 . S
H1115 C1121 0.950 . S
H1116 C1122 0.949 . S
C1117 H1112 0.950 . S
C1117 C1119 1.327 . S
C1117 C1123 1.429 . S
C1118 C1110 1.574 . S
C1118 H1113 0.949 . S
C1118 C1124 1.368 . S
C1119 C1103 1.349 . S
C1119 H1111 0.950 . S
C1119 C1117 1.327 . S
C1120 C1108 1.349 . S
C1120 H1114 0.950 . S
C1120 C1121 1.327 . S
C1121 H1115 0.950 . S
C1121 C1120 1.327 . S
C1121 C1125 1.429 . S
C1122 C1105 1.574 . S
C1122 H1116 0.949 . S
C1122 C1126 1.368 . S
C1123 C1104 1.429 . S
C1123 C1117 1.429 . S
C1123 C1124 1.523 . S
C1124 C1105 1.368 . S
C1124 C1118 1.368 . S
C1124 C1123 1.523 . S
C1125 C1109 1.429 . S
C1125 C1121 1.429 . S
C1125 C1126 1.523 . S
C1126 C1110 1.368 . S
C1126 C1122 1.368 . S
C1126 C1125 1.523 . S
H1127 C1102 0.950 . S
H1128 C1104 0.950 . S
H1129 C1105 0.949 . S
H1130 C1107 0.950 . S
H1131 C1109 0.950 . S
C1132 C1133 1.349 . S
C1132 C1134 1.327 . S
C1132 H1157 0.950 . S
C1133 C1132 1.349 . S
C1133 C1149 1.349 . S
C1134 C1132 1.327 . S
C1134 C1153 1.429 . S
C1134 H1158 0.950 . S
C1135 C1152 1.574 . S
C1135 C1154 1.368 . S
C1135 H1159 0.949 . S
H1136 C1140 0.949 . S
C1137 C1138 1.349 . S
C1137 C1139 1.327 . S
C1137 H1160 0.950 . S
C1138 C1137 1.349 . S
C1138 C1150 1.349 . S
C1139 C1137 1.327 . S
C1139 C1155 1.429 . S
C1139 H1161 0.950 . S
C1140 H1136 0.949 . S
C1140 C1148 1.574 . S
C1140 C1156 1.368 . S
H1141 C1149 0.950 . S
H1142 C1147 0.950 . S
H1143 C1148 0.949 . S
H1144 C1150 0.950 . S
H1145 C1151 0.950 . S
H1146 C1152 0.949 . S
C1147 H1142 0.950 . S
C1147 C1149 1.327 . S
C1147 C1153 1.429 . S
C1148 C1140 1.574 . S
C1148 H1143 0.949 . S
C1148 C1154 1.368 . S
C1149 C1133 1.349 . S
C1149 H1141 0.950 . S
C1149 C1147 1.327 . S
C1150 C1138 1.349 . S
C1150 H1144 0.950 . S
C1150 C1151 1.327 . S
C1151 H1145 0.950 . S
C1151 C1150 1.327 . S
C1151 C1155 1.429 . S
C1152 C1135 1.574 . S
C1152 H1146 0.949 . S
C1152 C1156 1.368 . S
C1153 C1134 1.429 . S
C1153 C1147 1.429 . S
C1153 C1154 1.523 . S
C1154 C1135 1.368 . S
C1154 C1148 1.368 . S
C1154 C1153 1.523 . S
C1155 C1139 1.429 . S
C1155 C1151 1.429 . S
C1155 C1156 1.523 . S
C1156 C1140 1.368 . S
C1156 C1152 1.368 . S
C1156 C1155 1.523 . S
H1157 C1132 0.950 . S
H1158 C1134 0.950 . S
H1159 C1135 0.949 . S
H1160 C1137 0.950 . S
H1161 C1139 0.950 . S
C1162 C1163 1.349 . S
C1162 C1164 1.327 . S
C1162 H1187 0.950 . S
C1163 C1162 1.349 . S
C1163 C1179 1.349 . S
C1164 C1162 1.327 . S
C1164 C1183 1.429 . S
C1164 H1188 0.950 . S
C1165 C1182 1.574 . S
C1165 C1184 1.368 . S
C1165 H1189 0.949 . S
H1166 C1170 0.949 . S
C1167 C1168 1.349 . S
C1167 C1169 1.327 . S
C1167 H1190 0.950 . S
C1168 C1167 1.349 . S
C1168 C1180 1.349 . S
C1169 C1167 1.327 . S
C1169 C1185 1.429 . S
C1169 H1191 0.950 . S
C1170 H1166 0.949 . S
C1170 C1178 1.574 . S
C1170 C1186 1.368 . S
H1171 C1179 0.950 . S
H1172 C1177 0.950 . S
H1173 C1178 0.949 . S
H1174 C1180 0.950 . S
H1175 C1181 0.950 . S
H1176 C1182 0.949 . S
C1177 H1172 0.950 . S
C1177 C1179 1.327 . S
C1177 C1183 1.429 . S
C1178 C1170 1.574 . S
C1178 H1173 0.949 . S
C1178 C1184 1.368 . S
C1179 C1163 1.349 . S
C1179 H1171 0.950 . S
C1179 C1177 1.327 . S
C1180 C1168 1.349 . S
C1180 H1174 0.950 . S
C1180 C1181 1.327 . S
C1181 H1175 0.950 . S
C1181 C1180 1.327 . S
C1181 C1185 1.429 . S
C1182 C1165 1.574 . S
C1182 H1176 0.949 . S
C1182 C1186 1.368 . S
C1183 C1164 1.429 . S
C1183 C1177 1.429 . S
C1183 C1184 1.523 . S
C1184 C1165 1.368 . S
C1184 C1178 1.368 . S
C1184 C1183 1.523 . S
C1185 C1169 1.429 . S
C1185 C1181 1.429 . S
C1185 C1186 1.523 . S
C1186 C1170 1.368 . S
C1186 C1182 1.368 . S
C1186 C1185 1.523 . S
H1187 C1162 0.950 . S
H1188 C1164 0.950 . S
H1189 C1165 0.949 . S
H1190 C1167 0.950 . S
H1191 C1169 0.950 . S
C1192 C1193 1.349 . S
C1192 C1194 1.327 . S
C1192 H1217 0.950 . S
C1193 C1192 1.349 . S
C1193 C1209 1.349 . S
C1194 C1192 1.327 . S
C1194 C1213 1.429 . S
C1194 H1218 0.950 . S
C1195 C1212 1.574 . S
C1195 C1214 1.368 . S
C1195 H1219 0.949 . S
H1196 C1200 0.949 . S
C1197 C1198 1.349 . S
C1197 C1199 1.327 . S
C1197 H1220 0.950 . S
C1198 C1197 1.349 . S
C1198 C1210 1.349 . S
C1199 C1197 1.327 . S
C1199 C1215 1.429 . S
C1199 H1221 0.950 . S
C1200 H1196 0.949 . S
C1200 C1208 1.574 . S
C1200 C1216 1.368 . S
H1201 C1209 0.950 . S
H1202 C1207 0.950 . S
H1203 C1208 0.949 . S
H1204 C1210 0.950 . S
H1205 C1211 0.950 . S
H1206 C1212 0.949 . S
C1207 H1202 0.950 . S
C1207 C1209 1.327 . S
C1207 C1213 1.429 . S
C1208 C1200 1.574 . S
C1208 H1203 0.949 . S
C1208 C1214 1.368 . S
C1209 C1193 1.349 . S
C1209 H1201 0.950 . S
C1209 C1207 1.327 . S
C1210 C1198 1.349 . S
C1210 H1204 0.950 . S
C1210 C1211 1.327 . S
C1211 H1205 0.950 . S
C1211 C1210 1.327 . S
C1211 C1215 1.429 . S
C1212 C1195 1.574 . S
C1212 H1206 0.949 . S
C1212 C1216 1.368 . S
C1213 C1194 1.429 . S
C1213 C1207 1.429 . S
C1213 C1214 1.523 . S
C1214 C1195 1.368 . S
C1214 C1208 1.368 . S
C1214 C1213 1.523 . S
C1215 C1199 1.429 . S
C1215 C1211 1.429 . S
C1215 C1216 1.523 . S
C1216 C1200 1.368 . S
C1216 C1212 1.368 . S
C1216 C1215 1.523 . S
H1217 C1192 0.950 . S
H1218 C1194 0.950 . S
H1219 C1195 0.949 . S
H1220 C1197 0.950 . S
H1221 C1199 0.950 . S
C1222 C1223 1.349 . S
C1222 C1224 1.327 . S
C1222 H1247 0.950 . S
C1223 C1222 1.349 . S
C1223 C1239 1.349 . S
C1224 C1222 1.327 . S
C1224 C1243 1.429 . S
C1224 H1248 0.950 . S
C1225 C1242 1.574 . S
C1225 C1244 1.368 . S
C1225 H1249 0.949 . S
H1226 C1230 0.949 . S
C1227 C1228 1.349 . S
C1227 C1229 1.327 . S
C1227 H1250 0.950 . S
C1228 C1227 1.349 . S
C1228 C1240 1.349 . S
C1229 C1227 1.327 . S
C1229 C1245 1.429 . S
C1229 H1251 0.950 . S
C1230 H1226 0.949 . S
C1230 C1238 1.574 . S
C1230 C1246 1.368 . S
H1231 C1239 0.950 . S
H1232 C1237 0.950 . S
H1233 C1238 0.949 . S
H1234 C1240 0.950 . S
H1235 C1241 0.950 . S
H1236 C1242 0.949 . S
C1237 H1232 0.950 . S
C1237 C1239 1.327 . S
C1237 C1243 1.429 . S
C1238 C1230 1.574 . S
C1238 H1233 0.949 . S
C1238 C1244 1.368 . S
C1239 C1223 1.349 . S
C1239 H1231 0.950 . S
C1239 C1237 1.327 . S
C1240 C1228 1.349 . S
C1240 H1234 0.950 . S
C1240 C1241 1.327 . S
C1241 H1235 0.950 . S
C1241 C1240 1.327 . S
C1241 C1245 1.429 . S
C1242 C1225 1.574 . S
C1242 H1236 0.949 . S
C1242 C1246 1.368 . S
C1243 C1224 1.429 . S
C1243 C1237 1.429 . S
C1243 C1244 1.523 . S
C1244 C1225 1.368 . S
C1244 C1238 1.368 . S
C1244 C1243 1.523 . S
C1245 C1229 1.429 . S
C1245 C1241 1.429 . S
C1245 C1246 1.523 . S
C1246 C1230 1.368 . S
C1246 C1242 1.368 . S
C1246 C1245 1.523 . S
H1247 C1222 0.950 . S
H1248 C1224 0.950 . S
H1249 C1225 0.949 . S
H1250 C1227 0.950 . S
H1251 C1229 0.950 . S
C1252 C1253 1.349 . S
C1252 C1254 1.327 . S
C1252 H1277 0.950 . S
C1253 C1252 1.349 . S
C1253 C1269 1.349 . S
C1254 C1252 1.327 . S
C1254 C1273 1.429 . S
C1254 H1278 0.950 . S
C1255 C1272 1.574 . S
C1255 C1274 1.368 . S
C1255 H1279 0.949 . S
H1256 C1260 0.949 . S
C1257 C1258 1.349 . S
C1257 C1259 1.327 . S
C1257 H1280 0.950 . S
C1258 C1257 1.349 . S
C1258 C1270 1.349 . S
C1259 C1257 1.327 . S
C1259 C1275 1.429 . S
C1259 H1281 0.950 . S
C1260 H1256 0.949 . S
C1260 C1268 1.574 . S
C1260 C1276 1.368 . S
H1261 C1269 0.950 . S
H1262 C1267 0.950 . S
H1263 C1268 0.949 . S
H1264 C1270 0.950 . S
H1265 C1271 0.950 . S
H1266 C1272 0.949 . S
C1267 H1262 0.950 . S
C1267 C1269 1.327 . S
C1267 C1273 1.429 . S
C1268 C1260 1.574 . S
C1268 H1263 0.949 . S
C1268 C1274 1.368 . S
C1269 C1253 1.349 . S
C1269 H1261 0.950 . S
C1269 C1267 1.327 . S
C1270 C1258 1.349 . S
C1270 H1264 0.950 . S
C1270 C1271 1.327 . S
C1271 H1265 0.950 . S
C1271 C1270 1.327 . S
C1271 C1275 1.429 . S
C1272 C1255 1.574 . S
C1272 H1266 0.949 . S
C1272 C1276 1.368 . S
C1273 C1254 1.429 . S
C1273 C1267 1.429 . S
C1273 C1274 1.523 . S
C1274 C1255 1.368 . S
C1274 C1268 1.368 . S
C1274 C1273 1.523 . S
C1275 C1259 1.429 . S
C1275 C1271 1.429 . S
C1275 C1276 1.523 . S
C1276 C1260 1.368 . S
C1276 C1272 1.368 . S
C1276 C1275 1.523 . S
H1277 C1252 0.950 . S
H1278 C1254 0.950 . S
H1279 C1255 0.949 . S
H1280 C1257 0.950 . S
H1281 C1259 0.950 . S
C1282 C1283 1.349 . S
C1282 C1284 1.327 . S
C1282 H1307 0.950 . S
C1283 C1282 1.349 . S
C1283 C1299 1.349 . S
C1284 C1282 1.327 . S
C1284 C1303 1.429 . S
C1284 H1308 0.950 . S
C1285 C1302 1.574 . S
C1285 C1304 1.368 . S
C1285 H1309 0.949 . S
H1286 C1290 0.949 . S
C1287 C1288 1.349 . S
C1287 C1289 1.327 . S
C1287 H1310 0.950 . S
C1288 C1287 1.349 . S
C1288 C1300 1.349 . S
C1289 C1287 1.327 . S
C1289 C1305 1.429 . S
C1289 H1311 0.950 . S
C1290 H1286 0.949 . S
C1290 C1298 1.574 . S
C1290 C1306 1.368 . S
H1291 C1299 0.950 . S
H1292 C1297 0.950 . S
H1293 C1298 0.949 . S
H1294 C1300 0.950 . S
H1295 C1301 0.950 . S
H1296 C1302 0.949 . S
C1297 H1292 0.950 . S
C1297 C1299 1.327 . S
C1297 C1303 1.429 . S
C1298 C1290 1.574 . S
C1298 H1293 0.949 . S
C1298 C1304 1.368 . S
C1299 C1283 1.349 . S
C1299 H1291 0.950 . S
C1299 C1297 1.327 . S
C1300 C1288 1.349 . S
C1300 H1294 0.950 . S
C1300 C1301 1.327 . S
C1301 H1295 0.950 . S
C1301 C1300 1.327 . S
C1301 C1305 1.429 . S
C1302 C1285 1.574 . S
C1302 H1296 0.949 . S
C1302 C1306 1.368 . S
C1303 C1284 1.429 . S
C1303 C1297 1.429 . S
C1303 C1304 1.523 . S
C1304 C1285 1.368 . S
C1304 C1298 1.368 . S
C1304 C1303 1.523 . S
C1305 C1289 1.429 . S
C1305 C1301 1.429 . S
C1305 C1306 1.523 . S
C1306 C1290 1.368 . S
C1306 C1302 1.368 . S
C1306 C1305 1.523 . S
H1307 C1282 0.950 . S
H1308 C1284 0.950 . S
H1309 C1285 0.949 . S
H1310 C1287 0.950 . S
H1311 C1289 0.950 . S
C1312 C1313 1.349 . S
C1312 C1314 1.327 . S
C1312 H1337 0.950 . S
C1313 C1312 1.349 . S
C1313 C1329 1.349 . S
C1314 C1312 1.327 . S
C1314 C1333 1.429 . S
C1314 H1338 0.950 . S
C1315 C1332 1.574 . S
C1315 C1334 1.368 . S
C1315 H1339 0.949 . S
H1316 C1320 0.949 . S
C1317 C1318 1.349 . S
C1317 C1319 1.327 . S
C1317 H1340 0.950 . S
C1318 C1317 1.349 . S
C1318 C1330 1.349 . S
C1319 C1317 1.327 . S
C1319 C1335 1.429 . S
C1319 H1341 0.950 . S
C1320 H1316 0.949 . S
C1320 C1328 1.574 . S
C1320 C1336 1.368 . S
H1321 C1329 0.950 . S
H1322 C1327 0.950 . S
H1323 C1328 0.949 . S
H1324 C1330 0.950 . S
H1325 C1331 0.950 . S
H1326 C1332 0.949 . S
C1327 H1322 0.950 . S
C1327 C1329 1.327 . S
C1327 C1333 1.429 . S
C1328 C1320 1.574 . S
C1328 H1323 0.949 . S
C1328 C1334 1.368 . S
C1329 C1313 1.349 . S
C1329 H1321 0.950 . S
C1329 C1327 1.327 . S
C1330 C1318 1.349 . S
C1330 H1324 0.950 . S
C1330 C1331 1.327 . S
C1331 H1325 0.950 . S
C1331 C1330 1.327 . S
C1331 C1335 1.429 . S
C1332 C1315 1.574 . S
C1332 H1326 0.949 . S
C1332 C1336 1.368 . S
C1333 C1314 1.429 . S
C1333 C1327 1.429 . S
C1333 C1334 1.523 . S
C1334 C1315 1.368 . S
C1334 C1328 1.368 . S
C1334 C1333 1.523 . S
C1335 C1319 1.429 . S
C1335 C1331 1.429 . S
C1335 C1336 1.523 . S
C1336 C1320 1.368 . S
C1336 C1332 1.368 . S
C1336 C1335 1.523 . S
H1337 C1312 0.950 . S
H1338 C1314 0.950 . S
H1339 C1315 0.949 . S
H1340 C1317 0.950 . S
H1341 C1319 0.950 . S
C1342 C1343 1.349 . S
C1342 C1344 1.327 . S
C1342 H1367 0.950 . S
C1343 C1342 1.349 . S
C1343 C1359 1.349 . S
C1344 C1342 1.327 . S
C1344 C1363 1.429 . S
C1344 H1368 0.950 . S
C1345 C1362 1.574 . S
C1345 C1364 1.368 . S
C1345 H1369 0.949 . S
H1346 C1350 0.949 . S
C1347 C1348 1.349 . S
C1347 C1349 1.327 . S
C1347 H1370 0.950 . S
C1348 C1347 1.349 . S
C1348 C1360 1.349 . S
C1349 C1347 1.327 . S
C1349 C1365 1.429 . S
C1349 H1371 0.950 . S
C1350 H1346 0.949 . S
C1350 C1358 1.574 . S
C1350 C1366 1.368 . S
H1351 C1359 0.950 . S
H1352 C1357 0.950 . S
H1353 C1358 0.949 . S
H1354 C1360 0.950 . S
H1355 C1361 0.950 . S
H1356 C1362 0.949 . S
C1357 H1352 0.950 . S
C1357 C1359 1.327 . S
C1357 C1363 1.429 . S
C1358 C1350 1.574 . S
C1358 H1353 0.949 . S
C1358 C1364 1.368 . S
C1359 C1343 1.349 . S
C1359 H1351 0.950 . S
C1359 C1357 1.327 . S
C1360 C1348 1.349 . S
C1360 H1354 0.950 . S
C1360 C1361 1.327 . S
C1361 H1355 0.950 . S
C1361 C1360 1.327 . S
C1361 C1365 1.429 . S
C1362 C1345 1.574 . S
C1362 H1356 0.949 . S
C1362 C1366 1.368 . S
C1363 C1344 1.429 . S
C1363 C1357 1.429 . S
C1363 C1364 1.523 . S
C1364 C1345 1.368 . S
C1364 C1358 1.368 . S
C1364 C1363 1.523 . S
C1365 C1349 1.429 . S
C1365 C1361 1.429 . S
C1365 C1366 1.523 . S
C1366 C1350 1.368 . S
C1366 C1362 1.368 . S
C1366 C1365 1.523 . S
H1367 C1342 0.950 . S
H1368 C1344 0.950 . S
H1369 C1345 0.949 . S
H1370 C1347 0.950 . S
H1371 C1349 0.950 . S
C1372 C1373 1.349 . S
C1372 C1374 1.327 . S
C1372 H1397 0.950 . S
C1373 C1372 1.349 . S
C1373 C1389 1.349 . S
C1374 C1372 1.327 . S
C1374 C1393 1.429 . S
C1374 H1398 0.950 . S
C1375 C1392 1.574 . S
C1375 C1394 1.368 . S
C1375 H1399 0.949 . S
H1376 C1380 0.949 . S
C1377 C1378 1.349 . S
C1377 C1379 1.327 . S
C1377 H1400 0.950 . S
C1378 C1377 1.349 . S
C1378 C1390 1.349 . S
C1379 C1377 1.327 . S
C1379 C1395 1.429 . S
C1379 H1401 0.950 . S
C1380 H1376 0.949 . S
C1380 C1388 1.574 . S
C1380 C1396 1.368 . S
H1381 C1389 0.950 . S
H1382 C1387 0.950 . S
H1383 C1388 0.949 . S
H1384 C1390 0.950 . S
H1385 C1391 0.950 . S
H1386 C1392 0.949 . S
C1387 H1382 0.950 . S
C1387 C1389 1.327 . S
C1387 C1393 1.429 . S
C1388 C1380 1.574 . S
C1388 H1383 0.949 . S
C1388 C1394 1.368 . S
C1389 C1373 1.349 . S
C1389 H1381 0.950 . S
C1389 C1387 1.327 . S
C1390 C1378 1.349 . S
C1390 H1384 0.950 . S
C1390 C1391 1.327 . S
C1391 H1385 0.950 . S
C1391 C1390 1.327 . S
C1391 C1395 1.429 . S
C1392 C1375 1.574 . S
C1392 H1386 0.949 . S
C1392 C1396 1.368 . S
C1393 C1374 1.429 . S
C1393 C1387 1.429 . S
C1393 C1394 1.523 . S
C1394 C1375 1.368 . S
C1394 C1388 1.368 . S
C1394 C1393 1.523 . S
C1395 C1379 1.429 . S
C1395 C1391 1.429 . S
C1395 C1396 1.523 . S
C1396 C1380 1.368 . S
C1396 C1392 1.368 . S
C1396 C1395 1.523 . S
H1397 C1372 0.950 . S
H1398 C1374 0.950 . S
H1399 C1375 0.949 . S
H1400 C1377 0.950 . S
H1401 C1379 0.950 . S
C1402 C1403 1.349 . S
C1402 C1404 1.327 . S
C1402 H1427 0.950 . S
C1403 C1402 1.349 . S
C1403 C1419 1.349 . S
C1404 C1402 1.327 . S
C1404 C1423 1.429 . S
C1404 H1428 0.950 . S
C1405 C1422 1.574 . S
C1405 C1424 1.368 . S
C1405 H1429 0.949 . S
H1406 C1410 0.949 . S
C1407 C1408 1.349 . S
C1407 C1409 1.327 . S
C1407 H1430 0.950 . S
C1408 C1407 1.349 . S
C1408 C1420 1.349 . S
C1409 C1407 1.327 . S
C1409 C1425 1.429 . S
C1409 H1431 0.950 . S
C1410 H1406 0.949 . S
C1410 C1418 1.574 . S
C1410 C1426 1.368 . S
H1411 C1419 0.950 . S
H1412 C1417 0.950 . S
H1413 C1418 0.949 . S
H1414 C1420 0.950 . S
H1415 C1421 0.950 . S
H1416 C1422 0.949 . S
C1417 H1412 0.950 . S
C1417 C1419 1.327 . S
C1417 C1423 1.429 . S
C1418 C1410 1.574 . S
C1418 H1413 0.949 . S
C1418 C1424 1.368 . S
C1419 C1403 1.349 . S
C1419 H1411 0.950 . S
C1419 C1417 1.327 . S
C1420 C1408 1.349 . S
C1420 H1414 0.950 . S
C1420 C1421 1.327 . S
C1421 H1415 0.950 . S
C1421 C1420 1.327 . S
C1421 C1425 1.429 . S
C1422 C1405 1.574 . S
C1422 H1416 0.949 . S
C1422 C1426 1.368 . S
C1423 C1404 1.429 . S
C1423 C1417 1.429 . S
C1423 C1424 1.523 . S
C1424 C1405 1.368 . S
C1424 C1418 1.368 . S
C1424 C1423 1.523 . S
C1425 C1409 1.429 . S
C1425 C1421 1.429 . S
C1425 C1426 1.523 . S
C1426 C1410 1.368 . S
C1426 C1422 1.368 . S
C1426 C1425 1.523 . S
H1427 C1402 0.950 . S
H1428 C1404 0.950 . S
H1429 C1405 0.949 . S
H1430 C1407 0.950 . S
H1431 C1409 0.950 . S
C1432 C1433 1.349 . S
C1432 C1434 1.327 . S
C1432 H1457 0.950 . S
C1433 C1432 1.349 . S
C1433 C1449 1.349 . S
C1434 C1432 1.327 . S
C1434 C1453 1.429 . S
C1434 H1458 0.950 . S
C1435 C1452 1.574 . S
C1435 C1454 1.368 . S
C1435 H1459 0.949 . S
H1436 C1440 0.949 . S
C1437 C1438 1.349 . S
C1437 C1439 1.327 . S
C1437 H1460 0.950 . S
C1438 C1437 1.349 . S
C1438 C1450 1.349 . S
C1439 C1437 1.327 . S
C1439 C1455 1.429 . S
C1439 H1461 0.950 . S
C1440 H1436 0.949 . S
C1440 C1448 1.574 . S
C1440 C1456 1.368 . S
H1441 C1449 0.950 . S
H1442 C1447 0.950 . S
H1443 C1448 0.949 . S
H1444 C1450 0.950 . S
H1445 C1451 0.950 . S
H1446 C1452 0.949 . S
C1447 H1442 0.950 . S
C1447 C1449 1.327 . S
C1447 C1453 1.429 . S
C1448 C1440 1.574 . S
C1448 H1443 0.949 . S
C1448 C1454 1.368 . S
C1449 C1433 1.349 . S
C1449 H1441 0.950 . S
C1449 C1447 1.327 . S
C1450 C1438 1.349 . S
C1450 H1444 0.950 . S
C1450 C1451 1.327 . S
C1451 H1445 0.950 . S
C1451 C1450 1.327 . S
C1451 C1455 1.429 . S
C1452 C1435 1.574 . S
C1452 H1446 0.949 . S
C1452 C1456 1.368 . S
C1453 C1434 1.429 . S
C1453 C1447 1.429 . S
C1453 C1454 1.523 . S
C1454 C1435 1.368 . S
C1454 C1448 1.368 . S
C1454 C1453 1.523 . S
C1455 C1439 1.429 . S
C1455 C1451 1.429 . S
C1455 C1456 1.523 . S
C1456 C1440 1.368 . S
C1456 C1452 1.368 . S
C1456 C1455 1.523 . S
H1457 C1432 0.950 . S
H1458 C1434 0.950 . S
H1459 C1435 0.949 . S
H1460 C1437 0.950 . S
H1461 C1439 0.950 . S
C1462 C1463 1.349 . S
C1462 C1464 1.327 . S
C1462 H1487 0.950 . S
C1463 C1462 1.349 . S
C1463 C1479 1.349 . S
C1464 C1462 1.327 . S
C1464 C1483 1.429 . S
C1464 H1488 0.950 . S
C1465 C1482 1.574 . S
C1465 C1484 1.368 . S
C1465 H1489 0.949 . S
H1466 C1470 0.949 . S
C1467 C1468 1.349 . S
C1467 C1469 1.327 . S
C1467 H1490 0.950 . S
C1468 C1467 1.349 . S
C1468 C1480 1.349 . S
C1469 C1467 1.327 . S
C1469 C1485 1.429 . S
C1469 H1491 0.950 . S
C1470 H1466 0.949 . S
C1470 C1478 1.574 . S
C1470 C1486 1.368 . S
H1471 C1479 0.950 . S
H1472 C1477 0.950 . S
H1473 C1478 0.949 . S
H1474 C1480 0.950 . S
H1475 C1481 0.950 . S
H1476 C1482 0.949 . S
C1477 H1472 0.950 . S
C1477 C1479 1.327 . S
C1477 C1483 1.429 . S
C1478 C1470 1.574 . S
C1478 H1473 0.949 . S
C1478 C1484 1.368 . S
C1479 C1463 1.349 . S
C1479 H1471 0.950 . S
C1479 C1477 1.327 . S
C1480 C1468 1.349 . S
C1480 H1474 0.950 . S
C1480 C1481 1.327 . S
C1481 H1475 0.950 . S
C1481 C1480 1.327 . S
C1481 C1485 1.429 . S
C1482 C1465 1.574 . S
C1482 H1476 0.949 . S
C1482 C1486 1.368 . S
C1483 C1464 1.429 . S
C1483 C1477 1.429 . S
C1483 C1484 1.523 . S
C1484 C1465 1.368 . S
C1484 C1478 1.368 . S
C1484 C1483 1.523 . S
C1485 C1469 1.429 . S
C1485 C1481 1.429 . S
C1485 C1486 1.523 . S
C1486 C1470 1.368 . S
C1486 C1482 1.368 . S
C1486 C1485 1.523 . S
H1487 C1462 0.950 . S
H1488 C1464 0.950 . S
H1489 C1465 0.949 . S
H1490 C1467 0.950 . S
H1491 C1469 0.950 . S
C1492 C1493 1.349 . S
C1492 C1494 1.327 . S
C1492 H1517 0.950 . S
C1493 C1492 1.349 . S
C1493 C1509 1.349 . S
C1494 C1492 1.327 . S
C1494 C1513 1.429 . S
C1494 H1518 0.950 . S
C1495 C1512 1.574 . S
C1495 C1514 1.368 . S
C1495 H1519 0.949 . S
H1496 C1500 0.949 . S
C1497 C1498 1.349 . S
C1497 C1499 1.327 . S
C1497 H1520 0.950 . S
C1498 C1497 1.349 . S
C1498 C1510 1.349 . S
C1499 C1497 1.327 . S
C1499 C1515 1.429 . S
C1499 H1521 0.950 . S
C1500 H1496 0.949 . S
C1500 C1508 1.574 . S
C1500 C1516 1.368 . S
H1501 C1509 0.950 . S
H1502 C1507 0.950 . S
H1503 C1508 0.949 . S
H1504 C1510 0.950 . S
H1505 C1511 0.950 . S
H1506 C1512 0.949 . S
C1507 H1502 0.950 . S
C1507 C1509 1.327 . S
C1507 C1513 1.429 . S
C1508 C1500 1.574 . S
C1508 H1503 0.949 . S
C1508 C1514 1.368 . S
C1509 C1493 1.349 . S
C1509 H1501 0.950 . S
C1509 C1507 1.327 . S
C1510 C1498 1.349 . S
C1510 H1504 0.950 . S
C1510 C1511 1.327 . S
C1511 H1505 0.950 . S
C1511 C1510 1.327 . S
C1511 C1515 1.429 . S
C1512 C1495 1.574 . S
C1512 H1506 0.949 . S
C1512 C1516 1.368 . S
C1513 C1494 1.429 . S
C1513 C1507 1.429 . S
C1513 C1514 1.523 . S
C1514 C1495 1.368 . S
C1514 C1508 1.368 . S
C1514 C1513 1.523 . S
C1515 C1499 1.429 . S
C1515 C1511 1.429 . S
C1515 C1516 1.523 . S
C1516 C1500 1.368 . S
C1516 C1512 1.368 . S
C1516 C1515 1.523 . S
H1517 C1492 0.950 . S
H1518 C1494 0.950 . S
H1519 C1495 0.949 . S
H1520 C1497 0.950 . S
H1521 C1499 0.950 . S
C1522 C1523 1.349 . S
C1522 C1524 1.327 . S
C1522 H1547 0.950 . S
C1523 C1522 1.349 . S
C1523 C1539 1.349 . S
C1524 C1522 1.327 . S
C1524 C1543 1.429 . S
C1524 H1548 0.950 . S
C1525 C1542 1.574 . S
C1525 C1544 1.368 . S
C1525 H1549 0.949 . S
H1526 C1530 0.949 . S
C1527 C1528 1.349 . S
C1527 C1529 1.327 . S
C1527 H1550 0.950 . S
C1528 C1527 1.349 . S
C1528 C1540 1.349 . S
C1529 C1527 1.327 . S
C1529 C1545 1.429 . S
C1529 H1551 0.950 . S
C1530 H1526 0.949 . S
C1530 C1538 1.574 . S
C1530 C1546 1.368 . S
H1531 C1539 0.950 . S
H1532 C1537 0.950 . S
H1533 C1538 0.949 . S
H1534 C1540 0.950 . S
H1535 C1541 0.950 . S
H1536 C1542 0.949 . S
C1537 H1532 0.950 . S
C1537 C1539 1.327 . S
C1537 C1543 1.429 . S
C1538 C1530 1.574 . S
C1538 H1533 0.949 . S
C1538 C1544 1.368 . S
C1539 C1523 1.349 . S
C1539 H1531 0.950 . S
C1539 C1537 1.327 . S
C1540 C1528 1.349 . S
C1540 H1534 0.950 . S
C1540 C1541 1.327 . S
C1541 H1535 0.950 . S
C1541 C1540 1.327 . S
C1541 C1545 1.429 . S
C1542 C1525 1.574 . S
C1542 H1536 0.949 . S
C1542 C1546 1.368 . S
C1543 C1524 1.429 . S
C1543 C1537 1.429 . S
C1543 C1544 1.523 . S
C1544 C1525 1.368 . S
C1544 C1538 1.368 . S
C1544 C1543 1.523 . S
C1545 C1529 1.429 . S
C1545 C1541 1.429 . S
C1545 C1546 1.523 . S
C1546 C1530 1.368 . S
C1546 C1542 1.368 . S
C1546 C1545 1.523 . S
H1547 C1522 0.950 . S
H1548 C1524 0.950 . S
H1549 C1525 0.949 . S
H1550 C1527 0.950 . S
H1551 C1529 0.950 . S
C1552 C1553 1.349 . S
C1552 C1554 1.327 . S
C1552 H1577 0.950 . S
C1553 C1552 1.349 . S
C1553 C1569 1.349 . S
C1554 C1552 1.327 . S
C1554 C1573 1.429 . S
C1554 H1578 0.950 . S
C1555 C1572 1.574 . S
C1555 C1574 1.368 . S
C1555 H1579 0.949 . S
H1556 C1560 0.949 . S
C1557 C1558 1.349 . S
C1557 C1559 1.327 . S
C1557 H1580 0.950 . S
C1558 C1557 1.349 . S
C1558 C1570 1.349 . S
C1559 C1557 1.327 . S
C1559 C1575 1.429 . S
C1559 H1581 0.950 . S
C1560 H1556 0.949 . S
C1560 C1568 1.574 . S
C1560 C1576 1.368 . S
H1561 C1569 0.950 . S
H1562 C1567 0.950 . S
H1563 C1568 0.949 . S
H1564 C1570 0.950 . S
H1565 C1571 0.950 . S
H1566 C1572 0.949 . S
C1567 H1562 0.950 . S
C1567 C1569 1.327 . S
C1567 C1573 1.429 . S
C1568 C1560 1.574 . S
C1568 H1563 0.949 . S
C1568 C1574 1.368 . S
C1569 C1553 1.349 . S
C1569 H1561 0.950 . S
C1569 C1567 1.327 . S
C1570 C1558 1.349 . S
C1570 H1564 0.950 . S
C1570 C1571 1.327 . S
C1571 H1565 0.950 . S
C1571 C1570 1.327 . S
C1571 C1575 1.429 . S
C1572 C1555 1.574 . S
C1572 H1566 0.949 . S
C1572 C1576 1.368 . S
C1573 C1554 1.429 . S
C1573 C1567 1.429 . S
C1573 C1574 1.523 . S
C1574 C1555 1.368 . S
C1574 C1568 1.368 . S
C1574 C1573 1.523 . S
C1575 C1559 1.429 . S
C1575 C1571 1.429 . S
C1575 C1576 1.523 . S
C1576 C1560 1.368 . S
C1576 C1572 1.368 . S
C1576 C1575 1.523 . S
H1577 C1552 0.950 . S
H1578 C1554 0.950 . S
H1579 C1555 0.949 . S
H1580 C1557 0.950 . S
H1581 C1559 0.950 . S
C1582 C1583 1.349 . S
C1582 C1584 1.327 . S
C1582 H1607 0.950 . S
C1583 C1582 1.349 . S
C1583 C1599 1.349 . S
C1584 C1582 1.327 . S
C1584 C1603 1.429 . S
C1584 H1608 0.950 . S
C1585 C1602 1.574 . S
C1585 C1604 1.368 . S
C1585 H1609 0.949 . S
H1586 C1590 0.949 . S
C1587 C1588 1.349 . S
C1587 C1589 1.327 . S
C1587 H1610 0.950 . S
C1588 C1587 1.349 . S
C1588 C1600 1.349 . S
C1589 C1587 1.327 . S
C1589 C1605 1.429 . S
C1589 H1611 0.950 . S
C1590 H1586 0.949 . S
C1590 C1598 1.574 . S
C1590 C1606 1.368 . S
H1591 C1599 0.950 . S
H1592 C1597 0.950 . S
H1593 C1598 0.949 . S
H1594 C1600 0.950 . S
H1595 C1601 0.950 . S
H1596 C1602 0.949 . S
C1597 H1592 0.950 . S
C1597 C1599 1.327 . S
C1597 C1603 1.429 . S
C1598 C1590 1.574 . S
C1598 H1593 0.949 . S
C1598 C1604 1.368 . S
C1599 C1583 1.349 . S
C1599 H1591 0.950 . S
C1599 C1597 1.327 . S
C1600 C1588 1.349 . S
C1600 H1594 0.950 . S
C1600 C1601 1.327 . S
C1601 H1595 0.950 . S
C1601 C1600 1.327 . S
C1601 C1605 1.429 . S
C1602 C1585 1.574 . S
C1602 H1596 0.949 . S
C1602 C1606 1.368 . S
C1603 C1584 1.429 . S
C1603 C1597 1.429 . S
C1603 C1604 1.523 . S
C1604 C1585 1.368 . S
C1604 C1598 1.368 . S
C1604 C1603 1.523 . S
C1605 C1589 1.429 . S
C1605 C1601 1.429 . S
C1605 C1606 1.523 . S
C1606 C1590 1.368 . S
C1606 C1602 1.368 . S
C1606 C1605 1.523 . S
H1607 C1582 0.950 . S
H1608 C1584 0.950 . S
H1609 C1585 0.949 . S
H1610 C1587 0.950 . S
H1611 C1589 0.950 . S
C1612 C1613 1.349 . S
C1612 C1614 1.327 . S
C1612 H1637 0.950 . S
C1613 C1612 1.349 . S
C1613 C1629 1.349 . S
C1614 C1612 1.327 . S
C1614 C1633 1.429 . S
C1614 H1638 0.950 . S
C1615 C1632 1.574 . S
C1615 C1634 1.368 . S
C1615 H1639 0.949 . S
H1616 C1620 0.949 . S
C1617 C1618 1.349 . S
C1617 C1619 1.327 . S
C1617 H1640 0.950 . S
C1618 C1617 1.349 . S
C1618 C1630 1.349 . S
C1619 C1617 1.327 . S
C1619 C1635 1.429 . S
C1619 H1641 0.950 . S
C1620 H1616 0.949 . S
C1620 C1628 1.574 . S
C1620 C1636 1.368 . S
H1621 C1629 0.950 . S
H1622 C1627 0.950 . S
H1623 C1628 0.949 . S
H1624 C1630 0.950 . S
H1625 C1631 0.950 . S
H1626 C1632 0.949 . S
C1627 H1622 0.950 . S
C1627 C1629 1.327 . S
C1627 C1633 1.429 . S
C1628 C1620 1.574 . S
C1628 H1623 0.949 . S
C1628 C1634 1.368 . S
C1629 C1613 1.349 . S
C1629 H1621 0.950 . S
C1629 C1627 1.327 . S
C1630 C1618 1.349 . S
C1630 H1624 0.950 . S
C1630 C1631 1.327 . S
C1631 H1625 0.950 . S
C1631 C1630 1.327 . S
C1631 C1635 1.429 . S
C1632 C1615 1.574 . S
C1632 H1626 0.949 . S
C1632 C1636 1.368 . S
C1633 C1614 1.429 . S
C1633 C1627 1.429 . S
C1633 C1634 1.523 . S
C1634 C1615 1.368 . S
C1634 C1628 1.368 . S
C1634 C1633 1.523 . S
C1635 C1619 1.429 . S
C1635 C1631 1.429 . S
C1635 C1636 1.523 . S
C1636 C1620 1.368 . S
C1636 C1632 1.368 . S
C1636 C1635 1.523 . S
H1637 C1612 0.950 . S
H1638 C1614 0.950 . S
H1639 C1615 0.949 . S
H1640 C1617 0.950 . S
H1641 C1619 0.950 . S
C1642 C1643 1.349 . S
C1642 C1644 1.327 . S
C1642 H1667 0.950 . S
C1643 C1642 1.349 . S
C1643 C1659 1.349 . S
C1644 C1642 1.327 . S
C1644 C1663 1.429 . S
C1644 H1668 0.950 . S
C1645 C1662 1.574 . S
C1645 C1664 1.368 . S
C1645 H1669 0.949 . S
H1646 C1650 0.949 . S
C1647 C1648 1.349 . S
C1647 C1649 1.327 . S
C1647 H1670 0.950 . S
C1648 C1647 1.349 . S
C1648 C1660 1.349 . S
C1649 C1647 1.327 . S
C1649 C1665 1.429 . S
C1649 H1671 0.950 . S
C1650 H1646 0.949 . S
C1650 C1658 1.574 . S
C1650 C1666 1.368 . S
H1651 C1659 0.950 . S
H1652 C1657 0.950 . S
H1653 C1658 0.949 . S
H1654 C1660 0.950 . S
H1655 C1661 0.950 . S
H1656 C1662 0.949 . S
C1657 H1652 0.950 . S
C1657 C1659 1.327 . S
C1657 C1663 1.429 . S
C1658 C1650 1.574 . S
C1658 H1653 0.949 . S
C1658 C1664 1.368 . S
C1659 C1643 1.349 . S
C1659 H1651 0.950 . S
C1659 C1657 1.327 . S
C1660 C1648 1.349 . S
C1660 H1654 0.950 . S
C1660 C1661 1.327 . S
C1661 H1655 0.950 . S
C1661 C1660 1.327 . S
C1661 C1665 1.429 . S
C1662 C1645 1.574 . S
C1662 H1656 0.949 . S
C1662 C1666 1.368 . S
C1663 C1644 1.429 . S
C1663 C1657 1.429 . S
C1663 C1664 1.523 . S
C1664 C1645 1.368 . S
C1664 C1658 1.368 . S
C1664 C1663 1.523 . S
C1665 C1649 1.429 . S
C1665 C1661 1.429 . S
C1665 C1666 1.523 . S
C1666 C1650 1.368 . S
C1666 C1662 1.368 . S
C1666 C1665 1.523 . S
H1667 C1642 0.950 . S
H1668 C1644 0.950 . S
H1669 C1645 0.949 . S
H1670 C1647 0.950 . S
H1671 C1649 0.950 . S
C1672 C1673 1.349 . S
C1672 C1674 1.327 . S
C1672 H1697 0.950 . S
C1673 C1672 1.349 . S
C1673 C1689 1.349 . S
C1674 C1672 1.327 . S
C1674 C1693 1.429 . S
C1674 H1698 0.950 . S
C1675 C1692 1.574 . S
C1675 C1694 1.368 . S
C1675 H1699 0.949 . S
H1676 C1680 0.949 . S
C1677 C1678 1.349 . S
C1677 C1679 1.327 . S
C1677 H1700 0.950 . S
C1678 C1677 1.349 . S
C1678 C1690 1.349 . S
C1679 C1677 1.327 . S
C1679 C1695 1.429 . S
C1679 H1701 0.950 . S
C1680 H1676 0.949 . S
C1680 C1688 1.574 . S
C1680 C1696 1.368 . S
H1681 C1689 0.950 . S
H1682 C1687 0.950 . S
H1683 C1688 0.949 . S
H1684 C1690 0.950 . S
H1685 C1691 0.950 . S
H1686 C1692 0.949 . S
C1687 H1682 0.950 . S
C1687 C1689 1.327 . S
C1687 C1693 1.429 . S
C1688 C1680 1.574 . S
C1688 H1683 0.949 . S
C1688 C1694 1.368 . S
C1689 C1673 1.349 . S
C1689 H1681 0.950 . S
C1689 C1687 1.327 . S
C1690 C1678 1.349 . S
C1690 H1684 0.950 . S
C1690 C1691 1.327 . S
C1691 H1685 0.950 . S
C1691 C1690 1.327 . S
C1691 C1695 1.429 . S
C1692 C1675 1.574 . S
C1692 H1686 0.949 . S
C1692 C1696 1.368 . S
C1693 C1674 1.429 . S
C1693 C1687 1.429 . S
C1693 C1694 1.523 . S
C1694 C1675 1.368 . S
C1694 C1688 1.368 . S
C1694 C1693 1.523 . S
C1695 C1679 1.429 . S
C1695 C1691 1.429 . S
C1695 C1696 1.523 . S
C1696 C1680 1.368 . S
C1696 C1692 1.368 . S
C1696 C1695 1.523 . S
H1697 C1672 0.950 . S
H1698 C1674 0.950 . S
H1699 C1675 0.949 . S
H1700 C1677 0.950 . S
H1701 C1679 0.950 . S
C1702 C1703 1.349 . S
C1702 C1704 1.327 . S
C1702 H1727 0.950 . S
C1703 C1702 1.349 . S
C1703 C1719 1.349 . S
C1704 C1702 1.327 . S
C1704 C1723 1.429 . S
C1704 H1728 0.950 . S
C1705 C1722 1.574 . S
C1705 C1724 1.368 . S
C1705 H1729 0.949 . S
H1706 C1710 0.949 . S
C1707 C1708 1.349 . S
C1707 C1709 1.327 . S
C1707 H1730 0.950 . S
C1708 C1707 1.349 . S
C1708 C1720 1.349 . S
C1709 C1707 1.327 . S
C1709 C1725 1.429 . S
C1709 H1731 0.950 . S
C1710 H1706 0.949 . S
C1710 C1718 1.574 . S
C1710 C1726 1.368 . S
H1711 C1719 0.950 . S
H1712 C1717 0.950 . S
H1713 C1718 0.949 . S
H1714 C1720 0.950 . S
H1715 C1721 0.950 . S
H1716 C1722 0.949 . S
C1717 H1712 0.950 . S
C1717 C1719 1.327 . S
C1717 C1723 1.429 . S
C1718 C1710 1.574 . S
C1718 H1713 0.949 . S
C1718 C1724 1.368 . S
C1719 C1703 1.349 . S
C1719 H1711 0.950 . S
C1719 C1717 1.327 . S
C1720 C1708 1.349 . S
C1720 H1714 0.950 . S
C1720 C1721 1.327 . S
C1721 H1715 0.950 . S
C1721 C1720 1.327 . S
C1721 C1725 1.429 . S
C1722 C1705 1.574 . S
C1722 H1716 0.949 . S
C1722 C1726 1.368 . S
C1723 C1704 1.429 . S
C1723 C1717 1.429 . S
C1723 C1724 1.523 . S
C1724 C1705 1.368 . S
C1724 C1718 1.368 . S
C1724 C1723 1.523 . S
C1725 C1709 1.429 . S
C1725 C1721 1.429 . S
C1725 C1726 1.523 . S
C1726 C1710 1.368 . S
C1726 C1722 1.368 . S
C1726 C1725 1.523 . S
H1727 C1702 0.950 . S
H1728 C1704 0.950 . S
H1729 C1705 0.949 . S
H1730 C1707 0.950 . S
H1731 C1709 0.950 . S
C1732 C1733 1.349 . S
C1732 C1734 1.327 . S
C1732 H1757 0.950 . S
C1733 C1732 1.349 . S
C1733 C1749 1.349 . S
C1734 C1732 1.327 . S
C1734 C1753 1.429 . S
C1734 H1758 0.950 . S
C1735 C1752 1.574 . S
C1735 C1754 1.368 . S
C1735 H1759 0.949 . S
H1736 C1740 0.949 . S
C1737 C1738 1.349 . S
C1737 C1739 1.327 . S
C1737 H1760 0.950 . S
C1738 C1737 1.349 . S
C1738 C1750 1.349 . S
C1739 C1737 1.327 . S
C1739 C1755 1.429 . S
C1739 H1761 0.950 . S
C1740 H1736 0.949 . S
C1740 C1748 1.574 . S
C1740 C1756 1.368 . S
H1741 C1749 0.950 . S
H1742 C1747 0.950 . S
H1743 C1748 0.949 . S
H1744 C1750 0.950 . S
H1745 C1751 0.950 . S
H1746 C1752 0.949 . S
C1747 H1742 0.950 . S
C1747 C1749 1.327 . S
C1747 C1753 1.429 . S
C1748 C1740 1.574 . S
C1748 H1743 0.949 . S
C1748 C1754 1.368 . S
C1749 C1733 1.349 . S
C1749 H1741 0.950 . S
C1749 C1747 1.327 . S
C1750 C1738 1.349 . S
C1750 H1744 0.950 . S
C1750 C1751 1.327 . S
C1751 H1745 0.950 . S
C1751 C1750 1.327 . S
C1751 C1755 1.429 . S
C1752 C1735 1.574 . S
C1752 H1746 0.949 . S
C1752 C1756 1.368 . S
C1753 C1734 1.429 . S
C1753 C1747 1.429 . S
C1753 C1754 1.523 . S
C1754 C1735 1.368 . S
C1754 C1748 1.368 . S
C1754 C1753 1.523 . S
C1755 C1739 1.429 . S
C1755 C1751 1.429 . S
C1755 C1756 1.523 . S
C1756 C1740 1.368 . S
C1756 C1752 1.368 . S
C1756 C1755 1.523 . S
H1757 C1732 0.950 . S
H1758 C1734 0.950 . S
H1759 C1735 0.949 . S
H1760 C1737 0.950 . S
H1761 C1739 0.950 . S
C1762 C1763 1.349 . S
C1762 C1764 1.327 . S
C1762 H1787 0.950 . S
C1763 C1762 1.349 . S
C1763 C1779 1.349 . S
C1764 C1762 1.327 . S
C1764 C1783 1.429 . S
C1764 H1788 0.950 . S
C1765 C1782 1.574 . S
C1765 C1784 1.368 . S
C1765 H1789 0.949 . S
H1766 C1770 0.949 . S
C1767 C1768 1.349 . S
C1767 C1769 1.327 . S
C1767 H1790 0.950 . S
C1768 C1767 1.349 . S
C1768 C1780 1.349 . S
C1769 C1767 1.327 . S
C1769 C1785 1.429 . S
C1769 H1791 0.950 . S
C1770 H1766 0.949 . S
C1770 C1778 1.574 . S
C1770 C1786 1.368 . S
H1771 C1779 0.950 . S
H1772 C1777 0.950 . S
H1773 C1778 0.949 . S
H1774 C1780 0.950 . S
H1775 C1781 0.950 . S
H1776 C1782 0.949 . S
C1777 H1772 0.950 . S
C1777 C1779 1.327 . S
C1777 C1783 1.429 . S
C1778 C1770 1.574 . S
C1778 H1773 0.949 . S
C1778 C1784 1.368 . S
C1779 C1763 1.349 . S
C1779 H1771 0.950 . S
C1779 C1777 1.327 . S
C1780 C1768 1.349 . S
C1780 H1774 0.950 . S
C1780 C1781 1.327 . S
C1781 H1775 0.950 . S
C1781 C1780 1.327 . S
C1781 C1785 1.429 . S
C1782 C1765 1.574 . S
C1782 H1776 0.949 . S
C1782 C1786 1.368 . S
C1783 C1764 1.429 . S
C1783 C1777 1.429 . S
C1783 C1784 1.523 . S
C1784 C1765 1.368 . S
C1784 C1778 1.368 . S
C1784 C1783 1.523 . S
C1785 C1769 1.429 . S
C1785 C1781 1.429 . S
C1785 C1786 1.523 . S
C1786 C1770 1.368 . S
C1786 C1782 1.368 . S
C1786 C1785 1.523 . S
H1787 C1762 0.950 . S
H1788 C1764 0.950 . S
H1789 C1765 0.949 . S
H1790 C1767 0.950 . S
H1791 C1769 0.950 . S
C358 C177 1.489 . S
C353 C9 1.502 . S
C388 C182 1.201 . S
C383 C22 1.219 . S
C418 C183 1.085 . S
C413 C49 1.101 . S
C443 C61 1.231 . S
C448 C187 1.218 . S
C473 C81 1.220 . S
C478 C190 1.201 . S
C508 C191 1.085 . S
C503 C108 1.093 . S
C533 C122 1.231 . S
C538 C168 1.217 . S
C563 C148 1.506 . S
C568 C184 1.492 . S
C598 C222 2.057 . S
C593 C18 2.062 . S
C623 C39 1.345 . S
C628 C248 1.337 . S
C658 C200 2.048 . S
C653 C58 2.065 . S
C688 C255 1.040 . S
C683 C69 1.058 . S
C713 C89 1.072 . S
C718 C209 1.059 . S
C748 C251 1.187 . S
C743 C102 1.207 . S
C773 C139 1.361 . S
C778 C215 1.357 . S
C803 C142 1.225 . S
C808 C246 1.209 . S
C833 C1 1.225 . S
C838 C254 1.198 . S
C863 C98 1.345 . S
C868 C241 1.340 . S
C898 C219 2.049 . S
C893 C119 2.063 . S
C928 C247 1.041 . S
C923 C128 1.066 . S
C953 C159 2.067 . S
C958 C214 2.062 . S
C983 C41 1.208 . S
C988 C232 1.184 . S
C1018 C223 1.355 . S
C1013 C78 1.360 . S
C1043 C28 1.072 . S
C1048 C216 1.048 . S
C1073 C149 1.475 . S
C1078 C278 1.439 . S
C1103 C82 1.192 . S
C1108 C273 1.178 . S
C1138 C287 1.041 . S
C1133 C109 1.069 . S
C1168 C264 1.202 . S
C1163 C121 1.205 . S
C1193 C21 1.191 . S
C1198 C280 1.174 . S
C1228 C279 1.041 . S
C1223 C48 1.062 . S
C1253 C62 1.202 . S
C1258 C283 1.200 . S
C1283 C8 1.475 . S
C1288 C286 1.434 . S
C1313 C158 2.074 . S
C1318 C312 2.094 . S
C1348 C328 1.369 . S
C1343 C99 1.371 . S
C1373 C118 2.070 . S
C1378 C310 2.070 . S
C1403 C129 1.088 . S
C1408 C343 1.062 . S
C1438 C319 1.055 . S
C1433 C29 1.072 . S
C1463 C42 1.235 . S
C1468 C337 1.208 . S
C1498 C315 1.355 . S
C1493 C79 1.354 . S
C1528 C350 1.220 . S
C1523 C2 1.248 . S
C1558 C342 1.219 . S
C1553 C141 1.254 . S
C1583 C38 1.369 . S
C1588 C347 1.367 . S
C1613 C59 2.070 . S
C1618 C318 2.077 . S
C1648 C351 1.064 . S
C1643 C68 1.092 . S
C1673 C19 2.075 . S
C1678 C305 2.088 . S
C1703 C101 1.236 . S
C1708 C344 1.204 . S
C1738 C296 1.355 . S
C1733 C138 1.358 . S
C1768 C311 1.055 . S
C1763 C88 1.065 . S
