# Generated by pormake.
# Topology iac, (4,6)-cn, num edge types: 1
# Building blocks:
#     Node 0, Type 0, BuildingBlock: QUQFOY_clean_sbu_3, # of connection points: 4
#     Node 1, Type 0, BuildingBlock: QUQFOY_clean_sbu_3, # of connection points: 4
#     Node 2, Type 0, BuildingBlock: QUQFOY_clean_sbu_3, # of connection points: 4
#     Node 3, Type 0, BuildingBlock: QUQFOY_clean_sbu_3, # of connection points: 4
#     Node 4, Type 0, BuildingBlock: QUQFOY_clean_sbu_3, # of connection points: 4
#     Node 5, Type 0, BuildingBlock: QUQFOY_clean_sbu_3, # of connection points: 4
#     Node 6, Type 0, BuildingBlock: QUQFOY_clean_sbu_3, # of connection points: 4
#     Node 7, Type 0, BuildingBlock: QUQFOY_clean_sbu_3, # of connection points: 4
#     Node 8, Type 0, BuildingBlock: QUQFOY_clean_sbu_3, # of connection points: 4
#     Node 9, Type 0, BuildingBlock: QUQFOY_clean_sbu_3, # of connection points: 4
#     Node 10, Type 0, BuildingBlock: QUQFOY_clean_sbu_3, # of connection points: 4
#     Node 11, Type 0, BuildingBlock: QUQFOY_clean_sbu_3, # of connection points: 4
#     Node 12, Type 0, BuildingBlock: QUQFOY_clean_sbu_3, # of connection points: 4
#     Node 13, Type 0, BuildingBlock: QUQFOY_clean_sbu_3, # of connection points: 4
#     Node 14, Type 0, BuildingBlock: QUQFOY_clean_sbu_3, # of connection points: 4
#     Node 15, Type 0, BuildingBlock: QUQFOY_clean_sbu_3, # of connection points: 4
#     Node 16, Type 0, BuildingBlock: QUQFOY_clean_sbu_3, # of connection points: 4
#     Node 17, Type 0, BuildingBlock: QUQFOY_clean_sbu_3, # of connection points: 4
#     Node 18, Type 0, BuildingBlock: QUQFOY_clean_sbu_3, # of connection points: 4
#     Node 19, Type 0, BuildingBlock: QUQFOY_clean_sbu_3, # of connection points: 4
#     Node 20, Type 0, BuildingBlock: QUQFOY_clean_sbu_3, # of connection points: 4
#     Node 21, Type 0, BuildingBlock: QUQFOY_clean_sbu_3, # of connection points: 4
#     Node 22, Type 0, BuildingBlock: QUQFOY_clean_sbu_3, # of connection points: 4
#     Node 23, Type 0, BuildingBlock: QUQFOY_clean_sbu_3, # of connection points: 4
#     Node 24, Type 1, BuildingBlock: VOLQOD_clean_sbu_1, # of connection points: 6
#     Node 25, Type 1, BuildingBlock: VOLQOD_clean_sbu_1, # of connection points: 6
#     Node 26, Type 1, BuildingBlock: VOLQOD_clean_sbu_1, # of connection points: 6
#     Node 27, Type 1, BuildingBlock: VOLQOD_clean_sbu_1, # of connection points: 6
#     Node 28, Type 1, BuildingBlock: VOLQOD_clean_sbu_1, # of connection points: 6
#     Node 29, Type 1, BuildingBlock: VOLQOD_clean_sbu_1, # of connection points: 6
#     Node 30, Type 1, BuildingBlock: VOLQOD_clean_sbu_1, # of connection points: 6
#     Node 31, Type 1, BuildingBlock: VOLQOD_clean_sbu_1, # of connection points: 6
#     Node 32, Type 1, BuildingBlock: VOLQOD_clean_sbu_1, # of connection points: 6
#     Node 33, Type 1, BuildingBlock: VOLQOD_clean_sbu_1, # of connection points: 6
#     Node 34, Type 1, BuildingBlock: VOLQOD_clean_sbu_1, # of connection points: 6
#     Node 35, Type 1, BuildingBlock: VOLQOD_clean_sbu_1, # of connection points: 6
#     Node 36, Type 1, BuildingBlock: VOLQOD_clean_sbu_1, # of connection points: 6
#     Node 37, Type 1, BuildingBlock: VOLQOD_clean_sbu_1, # of connection points: 6
#     Node 38, Type 1, BuildingBlock: VOLQOD_clean_sbu_1, # of connection points: 6
#     Node 39, Type 1, BuildingBlock: VOLQOD_clean_sbu_1, # of connection points: 6
#     Edge 40, Type (0, 1), BuildingBlock: AJUNOK_clean_linker_0, # of connection points: 2
#     Edge 41, Type (0, 1), BuildingBlock: AJUNOK_clean_linker_0, # of connection points: 2
#     Edge 42, Type (0, 1), BuildingBlock: AJUNOK_clean_linker_0, # of connection points: 2
#     Edge 43, Type (0, 1), BuildingBlock: AJUNOK_clean_linker_0, # of connection points: 2
#     Edge 44, Type (0, 1), BuildingBlock: AJUNOK_clean_linker_0, # of connection points: 2
#     Edge 45, Type (0, 1), BuildingBlock: AJUNOK_clean_linker_0, # of connection points: 2
#     Edge 46, Type (0, 1), BuildingBlock: AJUNOK_clean_linker_0, # of connection points: 2
#     Edge 47, Type (0, 1), BuildingBlock: AJUNOK_clean_linker_0, # of connection points: 2
#     Edge 48, Type (0, 1), BuildingBlock: AJUNOK_clean_linker_0, # of connection points: 2
#     Edge 49, Type (0, 1), BuildingBlock: AJUNOK_clean_linker_0, # of connection points: 2
#     Edge 50, Type (0, 1), BuildingBlock: AJUNOK_clean_linker_0, # of connection points: 2
#     Edge 51, Type (0, 1), BuildingBlock: AJUNOK_clean_linker_0, # of connection points: 2
#     Edge 52, Type (0, 1), BuildingBlock: AJUNOK_clean_linker_0, # of connection points: 2
#     Edge 53, Type (0, 1), BuildingBlock: AJUNOK_clean_linker_0, # of connection points: 2
#     Edge 54, Type (0, 1), BuildingBlock: AJUNOK_clean_linker_0, # of connection points: 2
#     Edge 55, Type (0, 1), BuildingBlock: AJUNOK_clean_linker_0, # of connection points: 2
#     Edge 56, Type (0, 1), BuildingBlock: AJUNOK_clean_linker_0, # of connection points: 2
#     Edge 57, Type (0, 1), BuildingBlock: AJUNOK_clean_linker_0, # of connection points: 2
#     Edge 58, Type (0, 1), BuildingBlock: AJUNOK_clean_linker_0, # of connection points: 2
#     Edge 59, Type (0, 1), BuildingBlock: AJUNOK_clean_linker_0, # of connection points: 2
#     Edge 60, Type (0, 1), BuildingBlock: AJUNOK_clean_linker_0, # of connection points: 2
#     Edge 61, Type (0, 1), BuildingBlock: AJUNOK_clean_linker_0, # of connection points: 2
#     Edge 62, Type (0, 1), BuildingBlock: AJUNOK_clean_linker_0, # of connection points: 2
#     Edge 63, Type (0, 1), BuildingBlock: AJUNOK_clean_linker_0, # of connection points: 2
#     Edge 64, Type (0, 1), BuildingBlock: AJUNOK_clean_linker_0, # of connection points: 2
#     Edge 65, Type (0, 1), BuildingBlock: AJUNOK_clean_linker_0, # of connection points: 2
#     Edge 66, Type (0, 1), BuildingBlock: AJUNOK_clean_linker_0, # of connection points: 2
#     Edge 67, Type (0, 1), BuildingBlock: AJUNOK_clean_linker_0, # of connection points: 2
#     Edge 68, Type (0, 1), BuildingBlock: AJUNOK_clean_linker_0, # of connection points: 2
#     Edge 69, Type (0, 1), BuildingBlock: AJUNOK_clean_linker_0, # of connection points: 2
#     Edge 70, Type (0, 1), BuildingBlock: AJUNOK_clean_linker_0, # of connection points: 2
#     Edge 71, Type (0, 1), BuildingBlock: AJUNOK_clean_linker_0, # of connection points: 2
#     Edge 72, Type (0, 1), BuildingBlock: AJUNOK_clean_linker_0, # of connection points: 2
#     Edge 73, Type (0, 1), BuildingBlock: AJUNOK_clean_linker_0, # of connection points: 2
#     Edge 74, Type (0, 1), BuildingBlock: AJUNOK_clean_linker_0, # of connection points: 2
#     Edge 75, Type (0, 1), BuildingBlock: AJUNOK_clean_linker_0, # of connection points: 2
#     Edge 76, Type (0, 1), BuildingBlock: AJUNOK_clean_linker_0, # of connection points: 2
#     Edge 77, Type (0, 1), BuildingBlock: AJUNOK_clean_linker_0, # of connection points: 2
#     Edge 78, Type (0, 1), BuildingBlock: AJUNOK_clean_linker_0, # of connection points: 2
#     Edge 79, Type (0, 1), BuildingBlock: AJUNOK_clean_linker_0, # of connection points: 2
#     Edge 80, Type (0, 1), BuildingBlock: AJUNOK_clean_linker_0, # of connection points: 2
#     Edge 81, Type (0, 1), BuildingBlock: AJUNOK_clean_linker_0, # of connection points: 2
#     Edge 82, Type (0, 1), BuildingBlock: AJUNOK_clean_linker_0, # of connection points: 2
#     Edge 83, Type (0, 1), BuildingBlock: AJUNOK_clean_linker_0, # of connection points: 2
#     Edge 84, Type (0, 1), BuildingBlock: AJUNOK_clean_linker_0, # of connection points: 2
#     Edge 85, Type (0, 1), BuildingBlock: AJUNOK_clean_linker_0, # of connection points: 2
#     Edge 86, Type (0, 1), BuildingBlock: AJUNOK_clean_linker_0, # of connection points: 2
#     Edge 87, Type (0, 1), BuildingBlock: AJUNOK_clean_linker_0, # of connection points: 2
#     Edge 88, Type (0, 1), BuildingBlock: AJUNOK_clean_linker_0, # of connection points: 2
#     Edge 89, Type (0, 1), BuildingBlock: AJUNOK_clean_linker_0, # of connection points: 2
#     Edge 90, Type (0, 1), BuildingBlock: AJUNOK_clean_linker_0, # of connection points: 2
#     Edge 91, Type (0, 1), BuildingBlock: AJUNOK_clean_linker_0, # of connection points: 2
#     Edge 92, Type (0, 1), BuildingBlock: AJUNOK_clean_linker_0, # of connection points: 2
#     Edge 93, Type (0, 1), BuildingBlock: AJUNOK_clean_linker_0, # of connection points: 2
#     Edge 94, Type (0, 1), BuildingBlock: AJUNOK_clean_linker_0, # of connection points: 2
#     Edge 95, Type (0, 1), BuildingBlock: AJUNOK_clean_linker_0, # of connection points: 2
#     Edge 96, Type (0, 1), BuildingBlock: AJUNOK_clean_linker_0, # of connection points: 2
#     Edge 97, Type (0, 1), BuildingBlock: AJUNOK_clean_linker_0, # of connection points: 2
#     Edge 98, Type (0, 1), BuildingBlock: AJUNOK_clean_linker_0, # of connection points: 2
#     Edge 99, Type (0, 1), BuildingBlock: AJUNOK_clean_linker_0, # of connection points: 2
#     Edge 100, Type (0, 1), BuildingBlock: AJUNOK_clean_linker_0, # of connection points: 2
#     Edge 101, Type (0, 1), BuildingBlock: AJUNOK_clean_linker_0, # of connection points: 2
#     Edge 102, Type (0, 1), BuildingBlock: AJUNOK_clean_linker_0, # of connection points: 2
#     Edge 103, Type (0, 1), BuildingBlock: AJUNOK_clean_linker_0, # of connection points: 2
#     Edge 104, Type (0, 1), BuildingBlock: AJUNOK_clean_linker_0, # of connection points: 2
#     Edge 105, Type (0, 1), BuildingBlock: AJUNOK_clean_linker_0, # of connection points: 2
#     Edge 106, Type (0, 1), BuildingBlock: AJUNOK_clean_linker_0, # of connection points: 2
#     Edge 107, Type (0, 1), BuildingBlock: AJUNOK_clean_linker_0, # of connection points: 2
#     Edge 108, Type (0, 1), BuildingBlock: AJUNOK_clean_linker_0, # of connection points: 2
#     Edge 109, Type (0, 1), BuildingBlock: AJUNOK_clean_linker_0, # of connection points: 2
#     Edge 110, Type (0, 1), BuildingBlock: AJUNOK_clean_linker_0, # of connection points: 2
#     Edge 111, Type (0, 1), BuildingBlock: AJUNOK_clean_linker_0, # of connection points: 2
#     Edge 112, Type (0, 1), BuildingBlock: AJUNOK_clean_linker_0, # of connection points: 2
#     Edge 113, Type (0, 1), BuildingBlock: AJUNOK_clean_linker_0, # of connection points: 2
#     Edge 114, Type (0, 1), BuildingBlock: AJUNOK_clean_linker_0, # of connection points: 2
#     Edge 115, Type (0, 1), BuildingBlock: AJUNOK_clean_linker_0, # of connection points: 2
#     Edge 116, Type (0, 1), BuildingBlock: AJUNOK_clean_linker_0, # of connection points: 2
#     Edge 117, Type (0, 1), BuildingBlock: AJUNOK_clean_linker_0, # of connection points: 2
#     Edge 118, Type (0, 1), BuildingBlock: AJUNOK_clean_linker_0, # of connection points: 2
#     Edge 119, Type (0, 1), BuildingBlock: AJUNOK_clean_linker_0, # of connection points: 2
#     Edge 120, Type (0, 1), BuildingBlock: AJUNOK_clean_linker_0, # of connection points: 2
#     Edge 121, Type (0, 1), BuildingBlock: AJUNOK_clean_linker_0, # of connection points: 2
#     Edge 122, Type (0, 1), BuildingBlock: AJUNOK_clean_linker_0, # of connection points: 2
#     Edge 123, Type (0, 1), BuildingBlock: AJUNOK_clean_linker_0, # of connection points: 2
#     Edge 124, Type (0, 1), BuildingBlock: AJUNOK_clean_linker_0, # of connection points: 2
#     Edge 125, Type (0, 1), BuildingBlock: AJUNOK_clean_linker_0, # of connection points: 2
#     Edge 126, Type (0, 1), BuildingBlock: AJUNOK_clean_linker_0, # of connection points: 2
#     Edge 127, Type (0, 1), BuildingBlock: AJUNOK_clean_linker_0, # of connection points: 2
#     Edge 128, Type (0, 1), BuildingBlock: AJUNOK_clean_linker_0, # of connection points: 2
#     Edge 129, Type (0, 1), BuildingBlock: AJUNOK_clean_linker_0, # of connection points: 2
#     Edge 130, Type (0, 1), BuildingBlock: AJUNOK_clean_linker_0, # of connection points: 2
#     Edge 131, Type (0, 1), BuildingBlock: AJUNOK_clean_linker_0, # of connection points: 2
#     Edge 132, Type (0, 1), BuildingBlock: AJUNOK_clean_linker_0, # of connection points: 2
#     Edge 133, Type (0, 1), BuildingBlock: AJUNOK_clean_linker_0, # of connection points: 2
#     Edge 134, Type (0, 1), BuildingBlock: AJUNOK_clean_linker_0, # of connection points: 2
#     Edge 135, Type (0, 1), BuildingBlock: AJUNOK_clean_linker_0, # of connection points: 2
# Relax obj value: 0.303
# Max RMSD: 0.292
# Mean RMSD: 0.139
data_MOF--net-iac--node1-QUQFOY_clean_sbu_3--node2-VOLQOD_clean_sbu_1--edge1-AJUNOK_clean_linker_0
_symmetry_space_group_name_H-M    P1
_symmetry_Int_Tables_number       1
_symmetry_cell_setting            triclinic
loop_
_symmetry_equiv_pos_as_xyz
'x, y, z'
_cell_length_a     41.834795
_cell_length_b     42.808764
_cell_length_c     42.197729
_cell_angle_alpha  91.269215
_cell_angle_beta   90.019211
_cell_angle_gamma 90.657679
loop_
_atom_site_label
_atom_site_type_symbol
_atom_site_fract_x
_atom_site_fract_y
_atom_site_fract_z
_atom_type_partial_charge
C0 C 0.95808 0.22055 0.16933 0.0
O1 O 0.98194 0.20828 0.18259 0.0
Cd2 Cd 0.03147 0.20831 0.15626 0.0
O3 O 0.96163 0.23762 0.14507 0.0
Cd4 Cd 0.00628 0.25911 0.11204 0.0
C5 C 0.00038 0.18798 0.08217 0.0
O6 O 0.04545 0.26242 0.15314 0.0
O7 O 0.06492 0.26062 0.10587 0.0
O8 O -0.01035 0.31327 0.11591 0.0
C9 C 0.06914 0.26678 0.13514 0.0
O10 O 0.01331 0.18049 0.1082 0.0
C11 C -0.00668 0.31821 0.08654 0.0
O12 O -0.00436 0.21635 0.0759 0.0
O13 O 0.00036 0.29491 0.06892 0.0
C14 C 0.95327 0.74652 0.33469 0.0
O15 O 0.97944 0.75535 0.32242 0.0
Cd16 Cd 0.02888 0.75284 0.34868 0.0
O17 O 0.95263 0.73235 0.36103 0.0
Cd18 Cd -0.00905 0.71229 0.40087 0.0
C19 C 0.0003 0.78716 0.41884 0.0
O20 O 0.03221 0.70059 0.36445 0.0
O21 O 0.04895 0.71092 0.4115 0.0
O22 O 0.96629 0.66092 0.40286 0.0
C23 C 0.0555 0.70212 0.38338 0.0
O24 O 0.01738 0.78762 0.39383 0.0
C25 C 0.96946 0.65859 0.43267 0.0
O26 O -0.01422 0.76238 0.42706 0.0
O27 O 0.98003 0.68249 0.44783 0.0
C28 C 0.45165 0.73545 0.67457 0.0
O29 O 0.47535 0.72221 0.68709 0.0
Cd30 Cd 0.52582 0.72157 0.66256 0.0
O31 O 0.45512 0.75245 0.65024 0.0
Cd32 Cd 0.5005 0.77104 0.61658 0.0
C33 C 0.49836 0.69799 0.58843 0.0
O34 O 0.53858 0.77582 0.65864 0.0
O35 O 0.55911 0.77324 0.61187 0.0
O36 O 0.48682 0.826 0.61762 0.0
C37 C 0.56245 0.78056 0.641 0.0
O38 O 0.51175 0.69143 0.61451 0.0
C39 C 0.49076 0.82935 0.58804 0.0
O40 O 0.49153 0.72601 0.5823 0.0
O41 O 0.49564 0.80482 0.57138 0.0
C42 C 0.45806 0.24502 0.83025 0.0
O43 O 0.48336 0.25564 0.81767 0.0
Cd44 Cd 0.52924 0.26384 0.84801 0.0
O45 O 0.45801 0.23478 0.85855 0.0
Cd46 Cd 0.49539 0.2236 0.90355 0.0
C47 C 0.48939 0.29945 0.91268 0.0
O48 O 0.53601 0.21306 0.86707 0.0
O49 O 0.55422 0.22574 0.91294 0.0
O50 O 0.47082 0.17254 0.90607 0.0
C51 C 0.55995 0.21604 0.88491 0.0
O52 O 0.50534 0.29964 0.88696 0.0
C53 C 0.47698 0.16866 0.93517 0.0
O54 O 0.4823 0.27409 0.92623 0.0
O55 O 0.48946 0.19163 0.95039 0.0
C56 C 0.06191 0.03289 0.27835 0.0
O57 O 0.04672 0.0493 0.25883 0.0
Cd58 Cd 0.06768 0.06054 0.2082 0.0
O59 O 0.08814 0.01982 0.27047 0.0
Cd60 Cd 0.12338 0.01293 0.22282 0.0
C61 C 0.14192 0.08953 0.23171 0.0
O62 O 0.07785 0.00906 0.18765 0.0
O63 O 0.12342 0.01182 0.16424 0.0
O64 O 0.12771 0.95929 0.23932 0.0
C65 C 0.09354 0.00693 0.16213 0.0
O66 O 0.11358 0.09409 0.22198 0.0
C67 C 0.15714 0.95623 0.23279 0.0
O68 O 0.15246 0.06192 0.23413 0.0
O69 O 0.17159 0.98023 0.22259 0.0
C70 C 0.27938 0.94929 0.55626 0.0
O71 O 0.25956 0.9654 0.54103 0.0
Cd72 Cd 0.21268 0.94505 0.51673 0.0
O73 O 0.27313 0.92084 0.56266 0.0
Cd74 Cd 0.22623 0.8847 0.55372 0.0
C75 C 0.24678 0.8822 0.47739 0.0
O76 O 0.18224 0.9209 0.5573 0.0
O77 O 0.17338 0.87969 0.52847 0.0
O78 O 0.22002 0.86192 0.60595 0.0
C79 C 0.16227 0.90367 0.54254 0.0
O80 O 0.2327 0.90837 0.47562 0.0
C81 C 0.2227 0.83386 0.59588 0.0
O82 O 0.24941 0.86896 0.50386 0.0
O83 O 0.22903 0.82981 0.56671 0.0
C84 C 0.41037 0.92762 0.77722 0.0
O85 O 0.41459 0.90246 0.76131 0.0
Cd86 Cd 0.39663 0.89601 0.7073 0.0
O87 O 0.39395 0.94965 0.76579 0.0
Cd88 Cd 0.36324 0.95768 0.71661 0.0
C89 C 0.31801 0.89293 0.72084 0.0
O90 O 0.40925 0.94512 0.6841 0.0
O91 O 0.3659 0.95436 0.65862 0.0
O92 O 0.36743 0.01489 0.7245 0.0
C93 C 0.39616 0.95337 0.65867 0.0
O94 O 0.34111 0.87872 0.70765 0.0
C95 C 0.33852 0.01964 0.71683 0.0
O96 O 0.32095 0.92121 0.72991 0.0
O97 O 0.3214 -0.00437 0.7108 0.0
C98 C 0.2673 0.04612 0.02606 0.0
O99 O 0.24854 0.04438 0.04957 0.0
Cd100 Cd 0.20908 0.0826 0.05829 0.0
O101 O 0.26641 0.06901 0.0072 0.0
Cd102 Cd 0.23595 0.1173 -0.00051 0.0
C103 C 0.25831 0.14602 0.06993 0.0
O104 O 0.18887 0.0872 0.00532 0.0
O105 O 0.18078 0.13675 0.001 0.0
O106 O 0.24491 0.11283 0.9423 0.0
C107 C 0.17013 0.10899 -0.00141 0.0
O108 O 0.23999 0.12546 0.08175 0.0
C109 C 0.24839 0.1421 0.93898 0.0
O110 O 0.26157 0.14807 0.04025 0.0
O111 O 0.24841 0.15892 0.96406 0.0
C112 C 0.76645 0.44671 0.03614 0.0
O113 O 0.74466 0.46193 0.02261 0.0
Cd114 Cd 0.69356 0.44355 0.00759 0.0
O115 O 0.76133 0.41915 0.04625 0.0
Cd116 Cd 0.71436 0.38233 0.04842 0.0
C117 C 0.72332 0.37851 0.96901 0.0
O118 O 0.67467 0.42108 0.05485 0.0
O119 O 0.65565 0.3766 0.03977 0.0
O120 O 0.72032 0.36028 0.10091 0.0
C121 C 0.65028 0.40464 0.04822 0.0
O122 O 0.70952 0.4048 0.96705 0.0
C123 C 0.72162 0.33225 0.09027 0.0
O124 O 0.72807 0.36638 -0.00429 0.0
O125 O 0.7211 0.32811 0.06043 0.0
C126 C 0.88397 0.42692 0.308 0.0
O127 O 0.89839 0.41232 0.28585 0.0
Cd128 Cd 0.89457 0.42527 0.23141 0.0
O129 O 0.86554 0.44962 0.302 0.0
Cd130 Cd 0.84669 0.47569 0.25414 0.0
C131 C 0.81578 0.40854 0.22408 0.0
O132 O 0.90076 0.48077 0.23416 0.0
O133 O 0.86275 0.49295 0.20219 0.0
O134 O 0.84157 0.52663 0.28026 0.0
C135 C 0.89205 0.49473 0.20967 0.0
O136 O 0.8438 0.40238 0.21432 0.0
C137 C 0.81561 0.53312 0.26632 0.0
O138 O 0.8107 0.43288 0.24095 0.0
O139 O 0.80228 0.51127 0.25017 0.0
C140 C 0.76442 0.55884 0.54091 0.0
O141 O 0.73767 0.55203 0.55325 0.0
Cd142 Cd 0.69235 0.58328 0.54421 0.0
O143 O 0.76716 0.5814 0.52173 0.0
Cd144 Cd 0.73278 0.62101 0.49793 0.0
C145 C 0.72604 0.65241 0.56929 0.0
O146 O 0.6899 0.58624 0.48728 0.0
O147 O 0.67728 0.63507 0.48764 0.0
O148 O 0.75362 0.62149 0.44421 0.0
C149 C 0.67144 0.60732 0.47802 0.0
O150 O 0.70663 0.63025 0.57535 0.0
C151 C 0.75495 0.65118 0.44374 0.0
O152 O 0.7393 0.6541 0.54251 0.0
O153 O 0.75031 0.66581 0.46973 0.0
C154 C 0.56567 0.5365 0.76666 0.0
O155 O 0.55146 0.55265 0.74624 0.0
Cd156 Cd 0.57128 0.56189 0.69503 0.0
O157 O 0.59212 0.52312 0.76003 0.0
Cd158 Cd 0.62826 0.51656 0.71255 0.0
C159 C 0.64419 0.59417 0.71783 0.0
O160 O 0.58323 0.51019 0.67758 0.0
O161 O 0.62788 0.51612 0.6534 0.0
O162 O 0.63355 0.46263 0.72756 0.0
C163 C 0.59835 0.50923 0.65175 0.0
O164 O 0.61624 0.59685 0.70639 0.0
C165 C 0.66298 0.45993 0.72093 0.0
O166 O 0.65518 0.56724 0.72355 0.0
O167 O 0.6774 0.48451 0.71208 0.0
C168 C 0.96062 0.75182 0.8247 0.0
O169 O 0.98419 0.75511 0.80603 0.0
Cd170 Cd 0.0381 0.75598 0.82382 0.0
O171 O 0.96457 0.74774 0.85426 0.0
Cd172 Cd 0.00473 0.73971 0.89572 0.0
C173 C 0.03424 0.8124 0.8841 0.0
O174 O 0.03388 0.71272 0.85766 0.0
O175 O 0.05732 0.71309 0.90269 0.0
O176 O 0.96251 0.70638 0.91358 0.0
C177 C 0.05817 0.70566 0.87344 0.0
O178 O 0.0423 0.80466 0.85588 0.0
C179 C 0.96683 0.71203 0.94292 0.0
O180 O 0.0203 0.79332 0.90231 0.0
O181 O -0.01098 0.73135 0.95042 0.0
C182 C 0.94342 0.21522 0.71578 0.0
O183 O 0.95678 0.1916 0.72757 0.0
Cd184 Cd 0.00346 0.16803 0.70173 0.0
O185 O 0.95211 0.22488 0.68897 0.0
Cd186 Cd -0.01189 0.21611 0.64611 0.0
C187 C 0.98076 0.14059 0.62849 0.0
O188 O 0.03235 0.21197 0.68203 0.0
O189 O 0.04388 0.21015 0.63207 0.0
O190 O 0.97642 0.27008 0.63799 0.0
C191 C 0.05321 0.2083 0.66055 0.0
O192 O -0.0045 0.13469 0.65404 0.0
C193 C 0.96858 0.26627 0.60908 0.0
O194 O 0.96979 0.16761 0.62381 0.0
O195 O 0.97202 0.23921 0.59676 0.0
C196 C 0.4634 0.24819 0.33027 0.0
O197 O 0.48515 0.25203 0.30966 0.0
Cd198 Cd 0.53929 0.26042 0.32478 0.0
O199 O 0.46996 0.24638 0.35963 0.0
Cd200 Cd 0.5122 0.24432 0.39986 0.0
C201 C 0.52893 0.31915 0.38205 0.0
O202 O 0.54253 0.21947 0.36144 0.0
O203 O 0.56762 0.22291 0.40562 0.0
O204 O 0.47218 0.20939 0.41854 0.0
C205 C 0.56812 0.21529 0.37638 0.0
O206 O 0.53643 0.31082 0.35384 0.0
C207 C 0.47571 0.21621 0.44774 0.0
O208 O 0.52008 0.29956 0.40255 0.0
O209 O 0.49737 0.23619 0.45509 0.0
C210 C 0.43795 0.71629 0.19859 0.0
O211 O 0.45278 0.69255 0.20837 0.0
Cd212 Cd 0.5027 0.67458 0.18497 0.0
O213 O 0.44633 0.72917 0.17302 0.0
Cd214 Cd 0.4858 0.72288 0.13141 0.0
C215 C 0.48571 0.64731 0.111 0.0
O216 O 0.52594 0.72378 0.17239 0.0
O217 O 0.54416 0.72573 0.12476 0.0
O218 O 0.4637 0.77309 0.11906 0.0
C219 C 0.54986 0.72494 0.1542 0.0
O220 O 0.50147 0.64204 0.13607 0.0
C221 C 0.46658 0.76948 0.08926 0.0
O222 O 0.47226 0.67336 0.10731 0.0
O223 O 0.48004 0.7448 0.07918 0.0
C224 C 0.9303 0.02837 0.75427 0.0
O225 O 0.95 0.02284 0.73202 0.0
Cd226 Cd 0.92826 0.01807 0.67903 0.0
O227 O 0.90153 0.03522 0.7485 0.0
Cd228 Cd 0.8587 0.04708 0.71307 0.0
C229 C 0.86186 0.96999 0.6939 0.0
O230 O 0.89427 0.06172 0.67352 0.0
O231 O 0.84504 0.06178 0.65893 0.0
O232 O 0.85467 0.09113 0.74849 0.0
C233 C 0.87431 0.06162 0.65093 0.0
O234 O 0.89021 0.97392 0.68336 0.0
C235 C 0.82544 0.08664 0.75534 0.0
O236 O 0.84582 -0.00764 0.70609 0.0
O237 O 0.81089 0.06427 0.74082 0.0
C238 C 0.79278 0.06816 0.49777 0.0
O239 O 0.78006 0.0548 0.52137 0.0
Cd240 Cd 0.73584 0.07935 0.54887 0.0
O241 O 0.78601 0.09638 0.49185 0.0
Cd242 Cd 0.75546 0.14366 0.507 0.0
C243 C 0.75769 0.15015 0.58724 0.0
O244 O 0.7156 0.1043 0.50371 0.0
O245 O 0.6969 0.15073 0.50194 0.0
O246 O 0.79516 0.15817 0.46841 0.0
C247 C 0.6914 0.1216 0.50355 0.0
O248 O 0.74759 0.12191 0.58789 0.0
C249 C 0.78003 0.18093 0.45731 0.0
O250 O 0.76452 0.16281 0.56103 0.0
O251 O 0.75351 0.18741 0.47039 0.0
C252 C 0.53632 0.00598 0.31222 0.0
O253 O 0.52816 0.02593 0.29192 0.0
Cd254 Cd 0.54185 0.02612 0.23666 0.0
O255 O 0.55653 0.98482 0.30511 0.0
Cd256 Cd 0.58865 0.97231 0.25657 0.0
C257 C 0.62075 0.04353 0.23944 0.0
O258 O 0.54094 0.97169 0.22315 0.0
O259 O 0.58477 0.96356 0.19837 0.0
O260 O 0.60276 0.91964 0.27562 0.0
C261 C 0.55463 0.96541 0.19722 0.0
O262 O 0.59405 0.05126 0.2277 0.0
C263 C 0.63226 0.92315 0.26893 0.0
O264 O 0.62316 0.01831 0.2545 0.0
O265 O 0.64052 0.94893 0.2571 0.0
C266 C 0.77761 0.93362 0.0032 0.0
O267 O 0.755 0.95159 -0.00436 0.0
Cd268 Cd 0.70068 0.93352 -0.0113 0.0
O269 O 0.77229 0.90527 0.01009 0.0
Cd270 Cd 0.73069 0.86595 0.01832 0.0
C271 C 0.71685 0.86933 0.93986 0.0
O272 O 0.69125 0.90238 0.03311 0.0
O273 O 0.67291 0.85589 0.02488 0.0
O274 O 0.76055 0.8537 0.06484 0.0
C275 C 0.66708 0.8846 0.02994 0.0
O276 O 0.7038 0.89595 0.94378 0.0
C277 C 0.76196 0.82451 0.05898 0.0
O278 O 0.72996 0.85518 0.96258 0.0
O279 O 0.7475 0.81409 0.03434 0.0
C280 C 0.29865 0.5687 0.01747 0.0
O281 O 0.2864 0.55224 0.03912 0.0
Cd282 Cd 0.23869 0.57317 0.06495 0.0
O283 O 0.28697 0.59509 0.01143 0.0
Cd284 Cd 0.24802 0.63556 0.01911 0.0
C285 C 0.25502 0.64771 0.0977 0.0
O286 O 0.21035 0.59341 0.0209 0.0
O287 O 0.18948 0.6391 0.01903 0.0
O288 O 0.26976 0.63494 0.96743 0.0
C289 C 0.1855 0.6099 0.02231 0.0
O290 O 0.24704 0.61902 0.1004 0.0
C291 C 0.26869 0.66395 0.96266 0.0
O292 O 0.26025 0.65917 0.07058 0.0
O293 O 0.25609 0.68097 0.98431 0.0
C294 C 0.05219 0.49796 0.81532 0.0
O295 O 0.04381 0.5174 0.79462 0.0
Cd296 Cd 0.0557 0.51589 0.7393 0.0
O297 O 0.07199 0.47631 0.8086 0.0
Cd298 Cd 0.1034 0.46048 0.76073 0.0
C299 C 0.13597 0.53024 0.73749 0.0
O300 O 0.05579 0.46122 0.72956 0.0
O301 O 0.09796 0.45134 0.7026 0.0
O302 O 0.10924 0.40485 0.77163 0.0
C303 C 0.0679 0.45461 0.70297 0.0
O304 O 0.10831 0.5389 0.72898 0.0
C305 C 0.1395 0.4061 0.77423 0.0
O306 O 0.13953 0.50461 0.7517 0.0
O307 O 0.15259 0.43279 0.77182 0.0
C308 C 0.27244 0.44685 0.49626 0.0
O309 O 0.249 0.46183 0.48527 0.0
Cd310 Cd 0.19623 0.44168 0.47707 0.0
O311 O 0.26912 0.41876 0.50522 0.0
Cd312 Cd 0.22862 0.37671 0.51097 0.0
C313 C 0.21661 0.37666 0.43116 0.0
O314 O 0.18735 0.41225 0.52277 0.0
O315 O 0.17085 0.3648 0.51819 0.0
O316 O 0.25489 0.36539 0.56045 0.0
C317 C 0.16388 0.39346 0.52143 0.0
O318 O 0.20412 0.40362 0.4339 0.0
C319 C 0.25886 0.33649 0.55444 0.0
O320 O 0.22797 0.36259 0.4549 0.0
O321 O 0.24796 0.32592 0.52813 0.0
C322 C 0.42488 0.53143 0.25322 0.0
O323 O 0.44674 0.523 0.23412 0.0
Cd324 Cd 0.42514 0.51643 0.18098 0.0
O325 O 0.39746 0.53759 0.2427 0.0
Cd326 Cd 0.35198 0.54621 0.21067 0.0
C327 C 0.35795 0.46832 0.19472 0.0
O328 O 0.39085 0.56043 0.17514 0.0
O329 O 0.34351 0.56476 0.15596 0.0
O330 O 0.35301 0.58714 0.24996 0.0
C331 C 0.37355 0.56439 0.15105 0.0
O332 O 0.3869 0.47244 0.18593 0.0
C333 C 0.32369 0.58527 0.25732 0.0
O334 O 0.34071 0.49081 0.20484 0.0
O335 O 0.30635 0.56614 0.24108 0.0
O336 O 0.96246 0.08274 0.97453 0.0
Zn337 Zn -0.01481 0.05022 0.9483 0.0
O338 O -0.01443 0.00921 0.96772 0.0
Zn339 Zn 0.02892 -0.00551 0.97133 0.0
Zn340 Zn 0.96653 0.01273 0.0092 0.0
Zn341 Zn 0.96144 0.98018 0.94191 0.0
O342 O 0.03587 0.95353 0.94858 0.0
O343 O -0.01317 0.94243 0.93098 0.0
O344 O 0.02905 0.06777 0.94791 0.0
O345 O 0.05952 0.02663 0.95614 0.0
O346 O 0.04062 -0.01024 0.01683 0.0
O347 O -0.0044 -0.00285 0.0434 0.0
O348 O 0.92289 -0.00724 0.01012 0.0
O349 O 0.97049 0.04748 0.90311 0.0
O350 O 0.92053 0.96829 0.96303 0.0
O351 O 0.9519 -0.00135 0.90038 0.0
C352 C 0.96001 0.08283 0.00459 0.0
C353 C 0.01613 0.93557 0.93401 0.0
C354 C 0.02535 -0.00897 0.04284 0.0
C355 C 0.0563 0.05544 0.95028 0.0
C356 C 0.9082 0.97558 -0.01028 0.0
C357 C 0.95766 0.02475 0.8877 0.0
O358 O 0.96235 0.0577 0.01985 0.0
O359 O 0.22589 0.71641 0.2327 0.0
Zn360 Zn 0.22591 0.72649 0.2788 0.0
O361 O 0.24856 0.76457 0.2891 0.0
Zn362 Zn 0.28337 0.75662 0.31876 0.0
Zn363 Zn 0.26333 0.78393 0.25021 0.0
Zn364 Zn 0.21874 0.79109 0.30965 0.0
O365 O 0.28327 0.78713 0.35685 0.0
O366 O 0.23921 0.81318 0.34575 0.0
O367 O 0.24906 0.69198 0.29704 0.0
O368 O 0.28457 0.71108 0.33148 0.0
O369 O 0.32369 0.76042 0.29403 0.0
O370 O 0.31153 0.78483 0.24978 0.0
O371 O 0.24213 0.82651 0.2441 0.0
O372 O 0.1829 0.72341 0.29799 0.0
O373 O 0.20413 0.82381 0.28086 0.0
O374 O 0.18173 0.76706 0.32701 0.0
C375 C 0.23945 0.72899 0.20917 0.0
C376 C 0.26378 0.80925 0.36279 0.0
C377 C 0.33178 0.77142 0.26741 0.0
C378 C 0.27025 0.68795 0.31794 0.0
C379 C 0.21692 0.83726 0.25738 0.0
C380 C 0.16987 0.74056 0.31908 0.0
O381 O 0.25399 0.7552 0.21227 0.0
O382 O 0.48324 0.96078 0.51991 0.0
Zn383 Zn 0.46449 -0.00037 0.50431 0.0
O384 O 0.48368 0.03506 0.5268 0.0
Zn385 Zn 0.45183 0.05697 0.55275 0.0
Zn386 Zn 0.52047 0.02159 0.5532 0.0
Zn387 Zn 0.4984 0.06379 0.49618 0.0
O388 O 0.43879 0.09884 0.53695 0.0
O389 O 0.4726 0.10194 0.49659 0.0
O390 O 0.41863 -0.00551 0.51795 0.0
O391 O 0.41306 0.02951 0.55751 0.0
O392 O 0.47515 0.06548 0.59274 0.0
O393 O 0.51201 0.03141 0.5996 0.0
O394 O 0.5616 0.04367 0.5403 0.0
O395 O 0.47261 -0.00015 0.45648 0.0
O396 O 0.54295 0.07672 0.50508 0.0
O397 O 0.49798 0.04542 0.45277 0.0
C398 C 0.50565 0.95346 0.53847 0.0
C399 C 0.45028 0.11318 0.51351 0.0
C400 C 0.48487 0.04201 0.60748 0.0
C401 C 0.40289 0.00604 0.54125 0.0
C402 C 0.56563 0.06664 0.52185 0.0
C403 C 0.48732 0.02021 0.44014 0.0
O404 O 0.52327 0.97423 0.55214 0.0
O405 O 0.25712 0.22309 0.80992 0.0
Zn406 Zn 0.26716 0.24891 0.77249 0.0
O407 O 0.25972 0.22405 0.734 0.0
Zn408 Zn 0.29927 0.21571 0.71067 0.0
Zn409 Zn 0.23717 0.18544 0.74367 0.0
Zn410 Zn 0.23261 0.24793 0.70813 0.0
O411 O 0.30105 0.23866 0.66849 0.0
O412 O 0.25615 0.26586 0.67254 0.0
O413 O 0.31355 0.25818 0.7774 0.0
O414 O 0.33575 0.23092 0.7378 0.0
O415 O 0.30575 0.16892 0.70473 0.0
O416 O 0.26214 0.14917 0.72719 0.0
O417 O 0.19315 0.18343 0.72386 0.0
O418 O 0.24047 0.28818 0.77604 0.0
O419 O 0.19799 0.22206 0.68993 0.0
O420 O 0.21153 0.28243 0.73226 0.0
C421 C 0.24468 0.19628 0.81405 0.0
C422 C 0.282 0.25927 0.65837 0.0
C423 C 0.28867 0.14557 0.71294 0.0
C424 C 0.33806 0.24777 0.76297 0.0
C425 C 0.18302 0.19847 0.70023 0.0
C426 C 0.21776 0.29675 0.75824 0.0
O427 O 0.23487 0.17941 0.79072 0.0
O428 O 0.98099 -0.00666 0.40146 0.0
Zn429 Zn 0.95497 0.97354 0.43632 0.0
O430 O 0.9716 -0.00978 0.47469 0.0
Zn431 Zn 0.97221 0.961 0.50787 0.0
Zn432 Zn 0.01112 0.01144 0.47282 0.0
Zn433 Zn 0.94024 0.02035 0.48254 0.0
O434 O 0.94464 0.97906 0.54269 0.0
O435 O 0.90889 0.00311 0.51328 0.0
O436 O 0.96299 0.92801 0.4385 0.0
O437 O 0.95942 0.91844 0.49027 0.0
O438 O 0.01785 0.95476 0.52238 0.0
O439 O 0.0447 0.98229 0.48681 0.0
O440 O 0.01011 0.04785 0.50479 0.0
O441 O 0.90693 0.98316 0.4345 0.0
O442 O 0.95798 0.05667 0.50516 0.0
O443 O 0.91941 0.03219 0.44256 0.0
C444 C 0.00559 0.01141 0.40149 0.0
C445 C 0.91864 -0.00589 0.54009 0.0
C446 C 0.04389 0.96226 0.50863 0.0
C447 C 0.96223 0.90915 0.46147 0.0
C448 C -0.014 0.06317 0.51478 0.0
C449 C 0.89859 0.01168 0.43511 0.0
O450 O 0.01905 0.02126 0.4271 0.0
O451 O 0.32065 0.72296 0.75143 0.0
Zn452 Zn 0.28041 0.73177 0.77534 0.0
O453 O 0.24696 0.70718 0.75631 0.0
Zn454 Zn 0.20968 0.73231 0.7495 0.0
Zn455 Zn 0.25812 0.68884 0.71607 0.0
Zn456 Zn 0.23955 0.67473 0.78553 0.0
O457 O 0.17543 0.71982 0.7797 0.0
O458 O 0.19831 0.6827 0.80794 0.0
O459 O 0.27132 0.77667 0.7702 0.0
O460 O 0.22085 0.77804 0.75394 0.0
O461 O 0.19468 0.72964 0.70441 0.0
O462 O 0.24094 0.71677 0.68286 0.0
O463 O 0.23847 0.64499 0.71203 0.0
O464 O 0.28523 0.72321 0.8218 0.0
O465 O 0.23386 0.63396 0.76312 0.0
O466 O 0.27294 0.67278 0.81902 0.0
C467 C 0.32715 0.70712 0.72636 0.0
C468 C 0.17493 0.70044 0.80221 0.0
C469 C 0.21421 0.73052 0.68134 0.0
C470 C 0.24687 0.79175 0.76178 0.0
C471 C 0.23165 0.62597 0.73401 0.0
C472 C 0.28439 0.69638 0.8341 0.0
O473 O 0.30587 0.69142 0.711 0.0
O474 O 0.50463 0.98472 0.05315 0.0
Zn475 Zn 0.49957 0.98398 0.00606 0.0
O476 O 0.46396 0.95679 -0.00639 0.0
Zn477 Zn 0.47875 0.91973 0.97034 0.0
Zn478 Zn 0.43958 0.9459 0.03106 0.0
Zn479 Zn 0.43675 0.97909 0.96637 0.0
O480 O 0.46829 0.9206 0.92278 0.0
O481 O 0.43858 0.96313 0.92247 0.0
O482 O 0.54092 0.96494 -0.00725 0.0
O483 O 0.526 0.91682 0.97803 0.0
O484 O 0.46045 0.88085 -0.01022 0.0
O485 O 0.43552 0.89987 0.03229 0.0
O486 O 0.39518 0.96362 0.03075 0.0
O487 O 0.49462 0.02847 -0.00871 0.0
O488 O 0.39213 0.97769 0.98067 0.0
O489 O 0.44872 0.02379 0.96535 0.0
C490 C 0.48927 0.97288 0.07601 0.0
C491 C 0.45173 0.94046 0.90796 0.0
C492 C 0.44451 0.87684 0.01513 0.0
C493 C 0.54761 0.93655 0.98639 0.0
C494 C 0.37911 0.97329 0.00735 0.0
C495 C 0.47194 0.04043 0.97563 0.0
O496 O 0.46318 0.95789 0.0713 0.0
O497 O 0.18898 0.28514 0.22578 0.0
Zn498 Zn 0.22132 0.27023 0.2566 0.0
O499 O 0.26381 0.27324 0.2383 0.0
Zn500 Zn 0.28302 0.2319 0.23795 0.0
Zn501 Zn 0.26194 0.28969 0.19551 0.0
Zn502 Zn 0.28919 0.3016 0.26394 0.0
O503 O 0.32207 0.23047 0.26542 0.0
O504 O 0.3252 0.27959 0.28352 0.0
O505 O 0.20826 0.22551 0.26194 0.0
O506 O 0.25093 0.19808 0.24883 0.0
O507 O 0.29611 0.22027 0.19424 0.0
O508 O 0.28055 0.25915 0.16435 0.0
O509 O 0.28442 0.33138 0.19175 0.0
O510 O 0.2174 0.29441 0.29801 0.0
O511 O 0.30749 0.33645 0.23903 0.0
O512 O 0.26367 0.3205 0.29886 0.0
C513 C 0.19009 0.2917 0.19652 0.0
C514 C 0.33557 0.25184 0.28222 0.0
C515 C 0.29297 0.23238 0.16722 0.0
C516 C 0.22172 0.19934 0.2572 0.0
C517 C 0.30268 0.34609 0.2112 0.0
C518 C 0.23626 0.31478 0.31042 0.0
O519 O 0.21652 0.29375 0.18184 0.0
O520 O 0.48103 0.50593 0.89134 0.0
Zn521 Zn 0.45445 0.48802 0.92663 0.0
O522 O 0.47317 0.50387 0.96427 0.0
Zn523 Zn 0.46706 0.47474 -0.00279 0.0
Zn524 Zn 0.51625 0.51718 0.9621 0.0
Zn525 Zn 0.45049 0.54237 0.96875 0.0
O526 O 0.43948 0.49557 0.03076 0.0
O527 O 0.42594 0.54082 0.00904 0.0
O528 O 0.45721 0.44211 0.92752 0.0
O529 O 0.45114 0.43309 0.97894 0.0
O530 O 0.51 0.46344 0.01496 0.0
O531 O 0.54386 0.48478 0.98055 0.0
O532 O 0.51981 0.55413 -0.00716 0.0
O533 O 0.40739 0.49933 0.92924 0.0
O534 O 0.47983 0.57876 0.97194 0.0
O535 O 0.42189 0.54798 0.93219 0.0
C536 C 0.50879 0.51887 0.89056 0.0
C537 C 0.42464 0.52154 0.03152 0.0
C538 C 0.53804 0.46696 0.00368 0.0
C539 C 0.45288 0.42335 0.95016 0.0
C540 C 0.50136 0.5775 -0.00709 0.0
C541 C 0.39962 0.52781 0.93231 0.0
O542 O 0.52536 0.52441 0.91566 0.0
O543 O 0.82725 0.21775 0.2427 0.0
Zn544 Zn 0.78848 0.23348 0.26459 0.0
O545 O 0.75303 0.20916 0.25117 0.0
Zn546 Zn 0.71674 0.23553 0.24468 0.0
Zn547 Zn 0.76139 0.18725 0.21238 0.0
Zn548 Zn 0.74596 0.18 0.28374 0.0
O549 O 0.68331 0.22656 0.27707 0.0
O550 O 0.70677 0.1921 0.30803 0.0
O551 O 0.78213 0.27702 0.25103 0.0
O552 O 0.72942 0.28104 0.24565 0.0
O553 O 0.70038 0.23024 0.2003 0.0
O554 O 0.74571 0.21484 0.17835 0.0
O555 O 0.73596 0.1466 0.21304 0.0
O556 O 0.79321 0.23134 0.31185 0.0
O557 O 0.73487 0.13797 0.26488 0.0
O558 O 0.78176 0.18079 0.31537 0.0
C559 C 0.83206 0.1987 0.21965 0.0
C560 C 0.68348 0.20972 0.30161 0.0
C561 C 0.71952 0.22951 0.17683 0.0
C562 C 0.75739 0.29294 0.24541 0.0
C563 C 0.72808 0.12969 0.23643 0.0
C564 C 0.79289 0.20622 0.32742 0.0
O565 O 0.80917 0.18386 0.20576 0.0
O566 O 0.00044 0.48472 0.56744 0.0
Zn567 Zn -0.01129 0.48245 0.52181 0.0
O568 O 0.95234 0.45481 0.51526 0.0
Zn569 Zn 0.96521 0.4168 0.49325 0.0
Zn570 Zn 0.9323 0.44572 0.55577 0.0
Zn571 Zn 0.92261 0.47574 0.48955 0.0
O572 O 0.9452 0.41231 0.44966 0.0
O573 O 0.9095 0.45019 0.45242 0.0
O574 O 0.02808 0.46348 0.5037 0.0
O575 O 0.01322 0.41478 0.49166 0.0
O576 O 0.95147 0.38028 0.51842 0.0
O577 O 0.92396 0.39991 0.55906 0.0
O578 O 0.89179 0.47017 0.56327 0.0
O579 O 0.98203 0.5254 0.50457 0.0
O580 O 0.88506 0.48739 0.51442 0.0
O581 O 0.93932 0.51647 0.47448 0.0
C582 C -0.01038 0.47092 0.59159 0.0
C583 C 0.92146 0.42665 0.43818 0.0
C584 C 0.93494 0.37666 0.54338 0.0
C585 C 0.035 0.4355 0.49591 0.0
C586 C 0.87597 0.48513 0.54293 0.0
C587 C 0.96166 0.53447 0.48442 0.0
O588 O 0.96363 0.45523 0.59058 0.0
O589 O 0.75296 0.74138 0.3228 0.0
Zn590 Zn 0.7613 0.76741 0.28563 0.0
O591 O 0.75269 0.74201 0.24799 0.0
Zn592 Zn 0.79143 0.72637 0.22863 0.0
Zn593 Zn 0.72439 0.70723 0.25826 0.0
Zn594 Zn 0.73301 0.7686 0.21865 0.0
O595 O 0.79579 0.73745 0.18219 0.0
O596 O 0.76039 0.77583 0.1817 0.0
O597 O 0.80825 0.777 0.28916 0.0
O598 O 0.82829 0.74511 0.252 0.0
O599 O 0.79452 0.68019 0.23504 0.0
O600 O 0.74525 0.66609 0.24862 0.0
O601 O 0.68251 0.70938 0.23438 0.0
O602 O 0.73364 0.8062 0.28855 0.0
O603 O 0.69348 0.74864 0.20237 0.0
O604 O 0.71966 0.80915 0.23796 0.0
C605 C 0.73552 0.71754 0.32774 0.0
C606 C 0.78271 0.76036 0.16873 0.0
C607 C 0.77416 0.65931 0.24255 0.0
C608 C 0.83196 0.76469 0.27486 0.0
C609 C 0.67533 0.72648 0.21111 0.0
C610 C 0.71971 0.82015 0.26615 0.0
O611 O 0.71945 0.70422 0.30551 0.0
O612 O 0.72287 0.22013 0.72147 0.0
Zn613 Zn 0.72232 0.23042 0.76774 0.0
O614 O 0.74697 0.26731 0.77803 0.0
Zn615 Zn 0.77682 0.2588 0.81197 0.0
Zn616 Zn 0.76586 0.28497 0.74052 0.0
Zn617 Zn 0.71844 0.29662 0.795 0.0
O618 O 0.76972 0.28667 0.85075 0.0
O619 O 0.73789 0.3216 0.82971 0.0
O620 O 0.74419 0.19476 0.7856 0.0
O621 O 0.7772 0.21301 0.82279 0.0
O622 O 0.82033 0.26506 0.79464 0.0
O623 O 0.81384 0.28451 0.7466 0.0
O624 O 0.7466 0.32839 0.73131 0.0
O625 O 0.6797 0.22936 0.78889 0.0
O626 O 0.70423 0.32603 0.76304 0.0
O627 O 0.68222 0.27479 0.81502 0.0
C628 C 0.74096 0.22997 0.69948 0.0
C629 C 0.75501 0.31257 0.85248 0.0
C630 C 0.83179 0.27419 0.76848 0.0
C631 C 0.764 0.19024 0.80769 0.0
C632 C 0.71979 0.33915 0.74105 0.0
C633 C 0.66925 0.24822 0.81005 0.0
O634 O 0.75843 0.25443 0.70332 0.0
O635 O 0.68212 0.79636 0.72947 0.0
Zn636 Zn 0.71497 0.7779 0.75723 0.0
O637 O 0.757 0.7815 0.7384 0.0
Zn638 Zn 0.77658 0.74028 0.73644 0.0
Zn639 Zn 0.75351 0.79898 0.6963 0.0
Zn640 Zn 0.78335 0.80852 0.76407 0.0
O641 O 0.81848 0.73853 0.75931 0.0
O642 O 0.82146 0.78678 0.77954 0.0
O643 O 0.70178 0.73277 0.75751 0.0
O644 O 0.74618 0.70592 0.74943 0.0
O645 O 0.78377 0.72776 0.69184 0.0
O646 O 0.76112 0.7651 0.66425 0.0
O647 O 0.78224 0.83656 0.69041 0.0
O648 O 0.71285 0.79856 0.80053 0.0
O649 O 0.80009 0.84435 0.73968 0.0
O650 O 0.76012 0.82298 0.80226 0.0
C651 C 0.68258 0.80734 0.70173 0.0
C652 C 0.83283 0.75964 0.77571 0.0
C653 C 0.7729 0.73797 0.66604 0.0
C654 C 0.71613 0.70688 0.75393 0.0
C655 C 0.79879 0.85202 0.7108 0.0
C656 C 0.73308 0.81665 0.81437 0.0
O657 O 0.70862 0.81062 0.68665 0.0
O658 O 0.46833 0.59442 0.4766 0.0
Zn659 Zn 0.48315 0.5614 0.4455 0.0
O660 O 0.48142 0.51958 0.46338 0.0
Zn661 Zn 0.52349 0.50171 0.46379 0.0
Zn662 Zn 0.46454 0.52128 0.5062 0.0
Zn663 Zn 0.45466 0.49322 0.43743 0.0
O664 O 0.52525 0.4598 0.44248 0.0
O665 O 0.47548 0.45296 0.42521 0.0
O666 O 0.5282 0.57377 0.43811 0.0
O667 O 0.55482 0.52976 0.44345 0.0
O668 O 0.53887 0.49786 0.50816 0.0
O669 O 0.49541 0.5034 0.53768 0.0
O670 O 0.41991 0.50227 0.50867 0.0
O671 O 0.46256 0.56284 0.4025 0.0
O672 O 0.41334 0.48578 0.45864 0.0
O673 O 0.44532 0.51365 0.39736 0.0
C674 C 0.46396 0.59254 0.50637 0.0
C675 C 0.50401 0.44352 0.42806 0.0
C676 C 0.52525 0.49807 0.53505 0.0
C677 C 0.55393 0.55846 0.43652 0.0
C678 C 0.40274 0.49012 0.48657 0.0
C679 C 0.4492 0.5408 0.38652 0.0
O680 O 0.46253 0.56618 0.5197 0.0
O681 O 0.97784 0.45084 0.01792 0.0
Zn682 Zn 0.96161 0.48967 -0.0011 0.0
O683 O 0.97638 0.52595 0.02411 0.0
Zn684 Zn 0.94045 0.54726 0.04355 0.0
Zn685 Zn 0.00703 0.51343 0.0566 0.0
Zn686 Zn -0.0038 0.55525 -0.00328 0.0
O687 O 0.93296 0.59091 0.02951 0.0
O688 O 0.97201 0.59448 -0.00582 0.0
O689 O 0.91352 0.48437 0.00207 0.0
O690 O 0.90089 0.52268 0.03602 0.0
O691 O 0.94551 0.54882 0.08966 0.0
O692 O -0.00914 0.52495 0.10016 0.0
O693 O 0.05056 0.5338 0.0504 0.0
O694 O 0.97816 0.49069 0.95356 0.0
O695 O 0.03938 0.56665 0.01204 0.0
O696 O 0.00172 0.53744 0.95344 0.0
C697 C -0.00368 0.44481 0.04082 0.0
C698 C 0.94814 0.60589 0.00868 0.0
C699 C 0.96574 0.53898 0.10935 0.0
C700 C 0.89314 0.4988 0.01925 0.0
C701 C 0.05863 0.55596 0.03224 0.0
C702 C -0.00587 0.51182 0.9395 0.0
O703 O 0.00992 0.46647 0.05726 0.0
C704 C 0.97484 0.13594 0.07502 0.0
C705 C -0.01306 0.16318 0.0613 0.0
C706 C 0.96272 0.11132 0.05632 0.0
C707 C 0.96294 0.11257 0.023 0.0
H708 H 0.9751 0.13338 0.10052 0.0
H709 H 0.95488 0.09039 0.06818 0.0
S710 S -0.01173 0.18073 0.9757 0.0
N711 N -0.00495 0.19185 0.01285 0.0
N712 N 0.97324 0.14495 0.9772 0.0
C713 C 0.97289 0.14067 0.00901 0.0
C714 C -0.01521 0.16608 0.02828 0.0
C715 C 0.10689 0.73152 0.38255 0.0
C716 C 0.08746 0.70724 0.37016 0.0
C717 C 0.13354 0.7421 0.3658 0.0
C718 C 0.14183 0.72853 0.33628 0.0
H719 H 0.1005 0.74365 0.40441 0.0
H720 H 0.14744 0.76136 0.37591 0.0
S721 S 0.10015 0.66195 0.29548 0.0
N722 N 0.07925 0.66836 0.3281 0.0
N723 N 0.12968 0.68787 0.2966 0.0
C724 C 0.1235 0.70305 0.32453 0.0
C725 C 0.09624 0.69248 0.34152 0.0
C726 C 0.50678 0.88531 0.59348 0.0
C727 C 0.49441 0.86063 0.57445 0.0
C728 C 0.51295 0.91476 0.58091 0.0
C729 C 0.50623 0.92082 0.54901 0.0
H730 H 0.5121 0.88181 0.61827 0.0
H731 H 0.52176 0.9332 0.59669 0.0
S732 S 0.47484 0.86374 0.4889 0.0
N733 N 0.47709 0.84367 0.52179 0.0
N734 N 0.48761 0.8994 0.49831 0.0
C735 C 0.49445 0.89614 0.52955 0.0
C736 C 0.48875 0.86598 0.54224 0.0
C737 C 0.39905 0.25021 0.82868 0.0
C738 C 0.42799 0.24635 0.81233 0.0
C739 C 0.37022 0.25252 0.81228 0.0
C740 C 0.36925 0.25051 0.77895 0.0
H741 H 0.39865 0.25162 0.85435 0.0
H742 H 0.34842 0.2547 0.82596 0.0
S743 S 0.43863 0.24138 0.72503 0.0
N744 N 0.45425 0.24162 0.76098 0.0
N745 N 0.39976 0.24542 0.73011 0.0
C746 C 0.39809 0.24719 0.76227 0.0
C747 C 0.42754 0.24524 0.77898 0.0
C748 C 0.96408 0.8213 0.45113 0.0
C749 C -0.00649 0.81705 0.43536 0.0
C750 C 0.95417 0.8512 0.46094 0.0
C751 C 0.9734 0.87743 0.45502 0.0
H752 H 0.94781 0.80176 0.45431 0.0
H753 H 0.93086 0.85397 0.47175 0.0
S754 S 0.05473 0.8783 0.4203 0.0
N755 N 0.04347 0.84121 0.41859 0.0
N756 N 0.02461 0.89726 0.43668 0.0
C757 C 0.00373 0.87325 0.44153 0.0
C758 C 0.01389 0.84302 0.4318 0.0
C759 C 0.41571 0.72335 0.71973 0.0
C760 C 0.41958 0.72871 0.68718 0.0
C761 C 0.38582 0.71529 0.73217 0.0
C762 C 0.35903 0.71142 0.71235 0.0
H763 H 0.43585 0.72581 0.73577 0.0
H764 H 0.3836 0.71228 0.75751 0.0
S765 S 0.35678 0.72186 0.62531 0.0
N766 N 0.39434 0.72918 0.63529 0.0
N767 N 0.33818 0.71339 0.65859 0.0
C768 C 0.3627 0.71608 0.67966 0.0
C769 C 0.39298 0.72498 0.6671 0.0
C770 C 0.45305 0.11539 0.93409 0.0
C771 C 0.47316 0.13757 0.94916 0.0
C772 C 0.4525 0.08431 0.94339 0.0
C773 C 0.47234 0.07399 0.96793 0.0
H774 H 0.43814 0.12188 0.91434 0.0
H775 H 0.43698 0.0681 0.93046 0.0
S776 S 0.52801 0.12335 0.01639 0.0
N777 N 0.5123 0.14764 -0.00902 0.0
N778 N 0.51142 0.08889 0.00838 0.0
C779 C 0.49186 0.09613 0.98396 0.0
C780 C 0.49215 0.12802 0.97467 0.0
C781 C 0.10172 0.28675 0.18052 0.0
C782 C 0.10029 0.27678 0.14856 0.0
C783 C 0.13085 0.29387 0.1952 0.0
C784 C 0.15979 0.29134 0.17853 0.0
H785 H 0.08021 0.28825 0.19474 0.0
H786 H 0.13072 0.30016 0.22022 0.0
S787 S 0.1689 0.26928 0.09335 0.0
N788 N 0.13002 0.26721 0.09984 0.0
N789 N 0.18511 0.28049 0.12748 0.0
C790 C 0.15863 0.28331 0.14595 0.0
C791 C 0.12879 0.27599 0.13096 0.0
C792 C 0.0435 -0.00092 0.13062 0.0
C793 C 0.07713 0.00024 0.13157 0.0
C794 C 0.02699 -0.0057 0.10206 0.0
C795 C 0.04339 -0.00964 0.07316 0.0
H796 H 0.02963 0.00268 0.15204 0.0
H797 H 0.00111 -0.00525 0.10262 0.0
S798 S 0.13172 -0.01183 0.06322 0.0
N799 N 0.12639 -0.0053 0.10154 0.0
N800 N 0.09553 0.98554 0.04774 0.0
C801 C 0.07713 -0.0101 0.07399 0.0
C802 C 0.09394 -0.00505 0.10317 0.0
C803 C 0.24881 0.87732 0.41843 0.0
C804 C 0.25755 0.86571 0.44806 0.0
C805 C 0.25345 0.85972 0.39059 0.0
C806 C 0.26719 0.82987 0.39114 0.0
H807 H 0.23666 0.89943 0.41675 0.0
H808 H 0.24464 0.86896 0.36857 0.0
S809 S 0.29944 0.79103 0.46171 0.0
N810 N 0.28469 0.82417 0.47574 0.0
N811 N 0.29316 0.79107 0.42307 0.0
C812 C 0.27871 0.81912 0.42009 0.0
C813 C 0.27388 0.83702 0.44865 0.0
C814 C 0.44596 0.96497 0.62974 0.0
C815 C 0.4149 0.97385 0.63822 0.0
C816 C 0.46827 0.987 0.61929 0.0
C817 C 0.46044 0.01884 0.61732 0.0
H818 H 0.45356 0.9411 0.6328 0.0
H819 H 0.49211 0.97908 0.61373 0.0
S820 S 0.38166 0.05372 0.63636 0.0
N821 N 0.37674 0.0161 0.64287 0.0
N822 N 0.41901 0.05789 0.6244 0.0
C823 C 0.42907 0.02781 0.62504 0.0
C824 C 0.40614 0.00519 0.63494 0.0
C825 C 0.2426 0.13771 0.88017 0.0
C826 C 0.24909 0.15629 0.90736 0.0
C827 C 0.24032 0.15097 0.85024 0.0
C828 C 0.24462 0.18331 0.84629 0.0
H829 H 0.23881 0.11274 0.88198 0.0
H830 H 0.23558 0.13559 0.83 0.0
S831 S 0.2619 0.24234 0.91009 0.0
N832 N 0.25973 0.20878 0.9285 0.0
N833 N 0.25538 0.2337 0.87233 0.0
C834 C 0.25112 0.20219 0.87334 0.0
C835 C 0.25342 0.18868 0.90381 0.0
C836 C 0.01497 0.0287 0.31445 0.0
C837 C 0.04835 0.02839 0.31024 0.0
C838 C 0.00126 0.0236 0.34419 0.0
C839 C 0.02048 0.01887 0.3709 0.0
H840 H -0.00077 0.03219 0.29447 0.0
H841 H 0.97544 0.02332 0.34628 0.0
S842 S 0.10911 0.01668 0.37276 0.0
N843 N 0.10028 0.02321 0.33535 0.0
N844 N 0.07453 0.01437 0.39146 0.0
C845 C 0.0539 0.01917 0.3672 0.0
C846 C 0.06784 0.02369 0.33679 0.0
C847 C 0.23132 0.77792 0.60872 0.0
C848 C 0.21778 0.80696 0.61674 0.0
C849 C 0.22809 0.75238 0.62872 0.0
C850 C 0.21058 0.75472 0.65712 0.0
H851 H 0.24553 0.77518 0.5874 0.0
H852 H 0.24041 0.73099 0.62248 0.0
S853 S 0.16771 0.82493 0.6872 0.0
N854 N 0.18445 0.8361 0.65384 0.0
N855 N 0.17761 0.78801 0.69107 0.0
C856 C 0.19527 0.78315 0.6644 0.0
C857 C 0.19918 0.80934 0.64438 0.0
C858 C 0.43254 0.90484 0.8269 0.0
C859 C 0.42419 0.93127 0.80945 0.0
C860 C 0.44325 0.90783 0.85841 0.0
C861 C 0.446 0.93736 0.87343 0.0
H862 H 0.42968 0.88158 0.81657 0.0
H863 H 0.44796 0.88687 0.87147 0.0
S864 S 0.43225 0.01408 0.83657 0.0
N865 N 0.42301 -0.01194 0.80853 0.0
N866 N 0.44321 -0.00631 0.86737 0.0
C867 C 0.43964 0.96401 0.85559 0.0
C868 C 0.42868 0.96097 0.82372 0.0
C869 C 0.28646 0.15778 0.12031 0.0
C870 C 0.27518 0.16815 0.09116 0.0
C871 C 0.29691 0.17905 0.14367 0.0
C872 C 0.29528 0.2115 0.139 0.0
H873 H 0.28565 0.13315 0.12573 0.0
H874 H 0.30327 0.1699 0.16653 0.0
S875 S 0.27422 0.24979 0.06386 0.0
N876 N 0.26843 0.21212 0.0564 0.0
N877 N 0.28723 0.25253 0.10078 0.0
C878 C 0.28763 0.22189 0.10852 0.0
C879 C 0.27756 0.20006 0.08448 0.0
C880 C 0.14226 0.07575 0.95903 0.0
C881 C 0.14121 0.10123 0.98059 0.0
C882 C 0.11438 0.06312 0.9459 0.0
C883 C 0.08459 0.07558 0.95396 0.0
H884 H 0.16467 0.06433 0.95365 0.0
H885 H 0.11593 0.04199 0.93137 0.0
S886 S 0.06973 0.14537 0.00547 0.0
N887 N 0.10892 0.1411 0.00627 0.0
N888 N 0.0558 0.11722 0.98166 0.0
C889 C 0.08347 0.10314 0.97285 0.0
C890 C 0.11209 0.11603 0.98626 0.0
C891 C 0.62009 0.45245 0.0359 0.0
C892 C 0.61994 0.41995 0.04047 0.0
C893 C 0.59317 0.46747 0.02449 0.0
C894 C 0.56484 0.45075 0.01808 0.0
H895 H 0.64156 0.46636 0.03993 0.0
H896 H 0.59464 0.49234 0.02031 0.0
S897 S 0.55081 0.36597 0.02825 0.0
N898 N 0.58844 0.37177 0.03901 0.0
N899 N 0.53722 0.40054 0.01845 0.0
C900 C 0.56363 0.41862 0.02395 0.0
C901 C 0.59137 0.40307 0.03494 0.0
C902 C 0.77149 0.37927 0.24952 0.0
C903 C 0.79149 0.38333 0.22297 0.0
C904 C 0.7573 0.35018 0.25543 0.0
C905 C 0.76235 0.32478 0.23466 0.0
H906 H 0.76955 0.39753 0.26758 0.0
H907 H 0.74482 0.34687 0.27763 0.0
S908 S 0.80503 0.32547 0.15786 0.0
N909 N 0.81013 0.36119 0.1728 0.0
N910 N 0.78307 0.30659 0.1839 0.0
C911 C 0.77863 0.3296 0.20613 0.0
C912 C 0.79324 0.35901 0.20018 0.0
C913 C 0.82319 0.55398 0.54354 0.0
C914 C 0.79287 0.5405 0.54836 0.0
C915 C 0.85066 0.53612 0.54542 0.0
C916 C 0.84879 0.50422 0.55219 0.0
H917 H 0.82568 0.57817 0.53681 0.0
H918 H 0.8734 0.54683 0.53934 0.0
S919 S 0.77592 0.45862 0.57093 0.0
N920 N 0.76287 0.49407 0.56378 0.0
N921 N 0.81518 0.46034 0.56681 0.0
C922 C 0.81913 0.49093 0.55969 0.0
C923 C 0.79091 0.50918 0.5579 0.0
C924 C 0.19572 0.11531 0.23913 0.0
C925 C 0.16223 0.11676 0.24131 0.0
C926 C 0.21503 0.14164 0.2461 0.0
C927 C 0.20162 0.17035 0.25594 0.0
H928 H 0.20706 0.09403 0.23083 0.0
H929 H 0.24059 0.13971 0.24259 0.0
S930 S 0.1152 0.18474 0.27003 0.0
N931 N 0.11661 0.14813 0.25709 0.0
N932 N 0.15262 0.19732 0.27068 0.0
C933 C 0.16819 0.17138 0.26016 0.0
C934 C 0.14859 0.14472 0.25266 0.0
C935 C 0.31597 -0.00477 0.56287 0.0
C936 C 0.31187 0.96253 0.56074 0.0
C937 C 0.34595 0.00923 0.55812 0.0
C938 C 0.37258 -0.009 0.55032 0.0
H939 H 0.29553 0.01019 0.56658 0.0
H940 H 0.34789 0.0345 0.55873 0.0
S941 S 0.37597 0.9045 0.54742 0.0
N942 N 0.33806 0.91225 0.55473 0.0
N943 N 0.39431 0.93875 0.5452 0.0
C944 C 0.36944 0.95831 0.55061 0.0
C945 C 0.33907 0.944 0.55609 0.0
C946 C 0.77353 0.57138 0.25217 0.0
C947 C 0.80433 0.56563 0.26403 0.0
C948 C 0.76396 0.60171 0.24503 0.0
C949 C 0.78509 0.6273 0.24873 0.0
H950 H 0.75683 0.55223 0.24787 0.0
H951 H 0.74 0.60507 0.23604 0.0
S952 S 0.86779 0.62517 0.28054 0.0
N953 N 0.85543 0.58842 0.2805 0.0
N954 N 0.83762 0.64523 0.2666 0.0
C955 C 0.81574 0.62199 0.26111 0.0
C956 C 0.82528 0.59123 0.26895 0.0
C957 C 0.65981 0.40246 0.72811 0.0
C958 C 0.6788 0.4291 0.72262 0.0
C959 C 0.67339 0.3731 0.73152 0.0
C960 C 0.70665 0.36888 0.72968 0.0
H961 H 0.63411 0.40426 0.7305 0.0
H962 H 0.65765 0.35363 0.73687 0.0
S963 S 0.76704 0.43038 0.71292 0.0
N964 N 0.73264 0.44898 0.71309 0.0
N965 N 0.75827 0.39344 0.71998 0.0
C966 C 0.72595 0.39488 0.72251 0.0
C967 C 0.71202 0.42506 0.71896 0.0
C968 C 0.02449 0.86845 0.87585 0.0
C969 C 0.03694 0.84505 0.89491 0.0
C970 C 0.01913 0.89841 0.88844 0.0
C971 C 0.02697 0.90597 0.92008 0.0
H972 H 0.01665 0.86298 0.85187 0.0
H973 H 0.00768 0.91545 0.87372 0.0
S974 S 0.0637 0.85395 0.97838 0.0
N975 N 0.05916 0.83182 0.94606 0.0
N976 N 0.05031 0.8888 0.96933 0.0
C977 C 0.04171 0.88352 0.9386 0.0
C978 C 0.04638 0.85278 0.92608 0.0
C979 C 0.90334 0.25784 0.7173 0.0
C980 C 0.91782 0.23261 0.73253 0.0
C981 C 0.87739 0.27346 0.73072 0.0
C982 C 0.8647 0.26461 0.76 0.0
H983 H 0.91124 0.26502 0.69409 0.0
H984 H 0.86605 0.2914 0.71707 0.0
S985 S 0.8975 0.20378 0.81232 0.0
N986 N 0.92026 0.20222 0.7804 0.0
N987 N 0.87148 0.23166 0.80602 0.0
C988 C 0.88073 0.24126 0.77689 0.0
C989 C 0.90716 0.22515 0.763 0.0
C990 C 0.43413 0.17709 0.46128 0.0
C991 C 0.45849 0.19791 0.47161 0.0
C992 C 0.42604 0.15099 0.47897 0.0
C993 C 0.44183 0.14538 0.50751 0.0
H994 H 0.42392 0.17886 0.43779 0.0
H995 H 0.41082 0.13306 0.46819 0.0
S996 S 0.49953 0.19771 0.54944 0.0
N997 N 0.49241 0.21515 0.51568 0.0
N998 N 0.47682 0.16589 0.54898 0.0
C999 C 0.46165 0.16885 0.52073 0.0
C1000 C 0.47021 0.19532 0.50263 0.0
C1001 C 0.58699 0.7132 0.1983 0.0
C1002 C 0.58249 0.7233 0.1671 0.0
C1003 C 0.61743 0.71263 0.21193 0.0
C1004 C 0.64436 0.72258 0.19491 0.0
H1005 H 0.56676 0.70599 0.21257 0.0
H1006 H 0.61969 0.70563 0.2363 0.0
S1007 S 0.64586 0.74885 0.11163 0.0
N1008 N 0.60775 0.74158 0.11892 0.0
N1009 N 0.66508 0.74083 0.14458 0.0
C1010 C 0.64037 0.73165 0.16331 0.0
C1011 C 0.60942 0.73194 0.14932 0.0
C1012 C 0.96139 0.12409 0.57505 0.0
C1013 C 0.9816 0.11866 0.60095 0.0
C1014 C 0.96466 0.10746 0.54649 0.0
C1015 C -0.01172 0.08463 0.54247 0.0
H1016 H 0.94296 0.14164 0.57668 0.0
H1017 H 0.94802 0.1121 0.52751 0.0
S1018 S 0.04684 0.06063 0.60301 0.0
N1019 N 0.02605 0.08848 0.62083 0.0
N1020 N 0.03177 0.0567 0.56695 0.0
C1021 C 0.00869 0.07878 0.56807 0.0
C1022 C 0.0053 0.09573 0.59741 0.0
C1023 C 0.59708 0.21206 0.32531 0.0
C1024 C 0.59806 0.21041 0.35859 0.0
C1025 C 0.62493 0.21187 0.30733 0.0
C1026 C 0.65488 0.20905 0.32173 0.0
H1027 H 0.57465 0.21442 0.31283 0.0
H1028 H 0.62291 0.21388 0.28185 0.0
S1029 S 0.67066 0.19992 0.40753 0.0
N1030 N 0.63145 0.20355 0.40512 0.0
N1031 N 0.68419 0.20189 0.37082 0.0
C1032 C 0.65637 0.2055 0.35476 0.0
C1033 C 0.62784 0.20646 0.37332 0.0
C1034 C 0.47112 0.79691 0.03802 0.0
C1035 C 0.45583 0.79347 0.06739 0.0
C1036 C 0.46477 0.82257 0.01912 0.0
C1037 C 0.4428 0.84548 0.029 0.0
H1038 H 0.4896 0.78084 0.03052 0.0
H1039 H 0.47903 0.82564 -0.00203 0.0
S1040 S 0.39049 0.84232 0.09998 0.0
N1041 N 0.4137 0.81156 0.1027 0.0
N1042 N 0.40123 0.85956 0.06697 0.0
C1043 C 0.42471 0.84018 0.05654 0.0
C1044 C 0.43146 0.81429 0.0759 0.0
C1045 C 0.90341 0.76504 0.83066 0.0
C1046 C 0.92795 0.75199 0.81214 0.0
C1047 C 0.87224 0.76639 0.81903 0.0
C1048 C 0.86449 0.75392 0.78891 0.0
H1049 H 0.90851 0.77512 0.85393 0.0
H1050 H 0.85415 0.77768 0.8335 0.0
S1051 S 0.91968 0.71547 0.732 0.0
N1052 N 0.94238 0.72533 0.76275 0.0
N1053 N 0.88329 0.72719 0.74117 0.0
C1054 C 0.88849 0.73973 0.77061 0.0
C1055 C 0.92043 0.739 0.78215 0.0
C1056 C 0.91884 0.01099 0.80824 0.0
C1057 C 0.93956 0.02657 0.78756 0.0
C1058 C 0.9247 0.01106 0.84074 0.0
C1059 C 0.95105 0.02736 0.85374 0.0
H1060 H 0.89787 -0.00135 0.79919 0.0
H1061 H 0.90834 -0.00161 0.85582 0.0
S1062 S 0.01227 0.07212 0.80952 0.0
N1063 N -0.01261 0.05862 0.78189 0.0
N1064 N -0.00172 0.05936 0.84355 0.0
C1065 C 0.97192 0.04326 0.83334 0.0
C1066 C 0.96626 0.04262 0.80002 0.0
C1067 C 0.75798 0.20285 0.61475 0.0
C1068 C 0.75674 0.16996 0.61668 0.0
C1069 C 0.75278 0.22226 0.6415 0.0
C1070 C 0.74569 0.20954 0.67111 0.0
H1071 H 0.76216 0.21383 0.59223 0.0
H1072 H 0.7537 0.24736 0.63885 0.0
S1073 S 0.74449 0.1252 0.6902 0.0
N1074 N 0.75134 0.12579 0.6517 0.0
N1075 N 0.74127 0.16212 0.70168 0.0
C1076 C 0.74571 0.17677 0.67371 0.0
C1077 C 0.75133 0.15704 0.64662 0.0
C1078 C 0.50947 0.03647 0.35543 0.0
C1079 C 0.52191 0.00786 0.34433 0.0
C1080 C 0.49669 0.03967 0.38593 0.0
C1081 C 0.49518 0.01425 0.40643 0.0
H1082 H 0.51049 0.05695 0.34082 0.0
H1083 H 0.48863 0.06251 0.39383 0.0
S1084 S 0.52224 0.93366 0.38829 0.0
N1085 N 0.5304 0.95308 0.35581 0.0
N1086 N 0.50585 0.95913 0.41318 0.0
C1087 C 0.50618 0.98513 0.39529 0.0
C1088 C 0.51977 0.98195 0.36428 0.0
C1089 C 0.76527 0.77278 0.08469 0.0
C1090 C 0.77685 0.80356 0.08183 0.0
C1091 C 0.772 0.75569 0.1118 0.0
C1092 C 0.79074 0.76884 0.13639 0.0
H1093 H 0.74834 0.76304 0.06762 0.0
H1094 H 0.75943 0.73373 0.11516 0.0
S1095 S 0.83322 0.84506 0.13648 0.0
N1096 N 0.81306 0.84387 0.1028 0.0
N1097 N 0.82536 0.81161 0.15379 0.0
C1098 C 0.80591 0.79767 0.13175 0.0
C1099 C 0.79899 0.81516 0.10437 0.0
C1100 C 0.91682 0.04606 0.61298 0.0
C1101 C 0.88401 0.04804 0.61997 0.0
C1102 C 0.9277 0.02751 0.5877 0.0
C1103 C 0.90618 0.01061 0.56816 0.0
H1104 H 0.93439 0.05814 0.62779 0.0
H1105 H 0.95319 0.02674 0.58316 0.0
S1106 S 0.81801 0.00909 0.57468 0.0
N1107 N 0.82997 0.03237 0.60417 0.0
N1108 N 0.85084 -0.00201 0.55606 0.0
C1109 C 0.87335 0.01337 0.57379 0.0
C1110 C 0.86214 0.03206 0.5998 0.0
C1111 C 0.81324 0.17948 0.40857 0.0
C1112 C 0.79003 0.19489 0.42712 0.0
C1113 C 0.8163 0.18518 0.37622 0.0
C1114 C 0.79737 0.20759 0.36182 0.0
H1115 H 0.82727 0.16102 0.41841 0.0
H1116 H 0.83207 0.17062 0.36203 0.0
S1117 S 0.73886 0.25979 0.40134 0.0
N1118 N 0.7516 0.23712 0.42979 0.0
N1119 N 0.75853 0.24889 0.36909 0.0
C1120 C 0.77714 0.22604 0.38084 0.0
C1121 C 0.77326 0.21954 0.4136 0.0
C1122 C 0.5541 0.97301 0.13875 0.0
C1123 C 0.53722 0.96687 0.16676 0.0
C1124 C 0.53814 0.97609 0.10986 0.0
C1125 C 0.50465 0.97268 0.10765 0.0
H1126 H 0.57987 0.9758 0.13912 0.0
H1127 H 0.55239 0.98042 0.08894 0.0
S1128 S 0.44933 0.95635 0.17412 0.0
N1129 N 0.48512 0.95768 0.19065 0.0
N1130 N 0.45514 0.96289 0.13612 0.0
C1131 C 0.48745 0.96649 0.13548 0.0
C1132 C 0.50371 0.96374 0.16506 0.0
C1133 C 0.74767 0.8404 0.89924 0.0
C1134 C 0.71922 0.85535 0.90796 0.0
C1135 C 0.75157 0.82767 0.86886 0.0
C1136 C 0.72687 0.82878 0.84642 0.0
H1137 H 0.76742 0.83919 0.91579 0.0
H1138 H 0.77415 0.81688 0.86287 0.0
S1139 S 0.64711 0.86386 0.85797 0.0
N1140 N 0.6656 0.87003 0.89221 0.0
N1141 N 0.67269 0.84496 0.8349 0.0
C1142 C 0.69791 0.84281 0.85498 0.0
C1143 C 0.69418 0.85651 0.88584 0.0
C1144 C 0.83446 0.92436 -0.00986 0.0
C1145 C 0.81092 0.9447 0.00193 0.0
C1146 C 0.86613 0.93444 0.98687 0.0
C1147 C 0.87546 0.96487 -0.00385 0.0
H1148 H 0.82818 0.90076 0.98245 0.0
H1149 H 0.8834 0.91837 0.97679 0.0
S1150 S 0.8233 0.02657 0.02997 0.0
N1151 N 0.79906 -0.00367 0.02365 0.0
N1152 N 0.85912 0.01504 0.01849 0.0
C1153 C 0.85243 0.98514 0.00899 0.0
C1154 C 0.81995 0.97512 0.01156 0.0
C1155 C 0.34118 0.57809 0.97758 0.0
C1156 C 0.32389 0.55667 -0.00407 0.0
C1157 C 0.36377 0.56814 0.95535 0.0
C1158 C 0.3705 0.53626 0.95056 0.0
H1159 H 0.3375 0.603 0.98056 0.0
H1160 H 0.37692 0.58581 0.94257 0.0
S1161 S 0.3305 0.47035 -0.00876 0.0
N1162 N 0.31353 0.50189 0.00653 0.0
N1163 N 0.35692 0.483 0.9653 0.0
C1164 C 0.35271 0.51437 0.96805 0.0
C1165 C 0.32933 0.52461 -0.00935 0.0
C1166 C 0.16156 0.57577 0.7106 0.0
C1167 C 0.16407 0.55086 0.73172 0.0
C1168 C 0.18598 0.59832 0.70816 0.0
C1169 C 0.21355 0.59692 0.72705 0.0
H1170 H 0.13994 0.57878 0.69693 0.0
H1171 H 0.18188 0.61842 0.6936 0.0
S1172 S 0.2344 0.53406 0.78209 0.0
N1173 N 0.1986 0.52402 0.76859 0.0
N1174 N 0.24395 0.56691 0.76444 0.0
C1175 C 0.21763 0.57079 0.7461 0.0
C1176 C 0.19301 0.54763 0.74836 0.0
C1177 C 0.10683 0.38342 0.50601 0.0
C1178 C 0.13129 0.40475 0.51468 0.0
C1179 C 0.07624 0.39367 0.49801 0.0
C1180 C 0.06883 0.42571 0.49837 0.0
H1181 H 0.11123 0.35853 0.50549 0.0
H1182 H 0.05805 0.37619 0.49247 0.0
S1183 S 0.12501 0.49129 0.51785 0.0
N1184 N 0.14632 0.45952 0.52233 0.0
N1185 N 0.08922 0.47882 0.50668 0.0
C1186 C 0.09342 0.44735 0.50609 0.0
C1187 C 0.12446 0.43688 0.51451 0.0
C1188 C 0.81549 0.93407 0.68475 0.0
C1189 C 0.84764 0.93851 0.69371 0.0
C1190 C 0.80023 0.90504 0.68817 0.0
C1191 C 0.8165 0.88004 0.7015 0.0
H1192 H 0.80189 0.95337 0.67577 0.0
H1193 H 0.77514 0.90267 0.68209 0.0
S1194 S 0.9011 0.87937 0.72741 0.0
N1195 N 0.89566 0.91515 0.71469 0.0
N1196 N 0.86654 0.86088 0.72234 0.0
C1197 C 0.84886 0.88389 0.70958 0.0
C1198 C 0.8646 0.91312 0.70533 0.0
C1199 C 0.65546 0.0779 0.51958 0.0
C1200 C 0.65904 0.10854 0.50849 0.0
C1201 C 0.62518 0.06478 0.5248 0.0
C1202 C 0.59738 0.08168 0.51868 0.0
H1203 H 0.67621 0.06385 0.52437 0.0
H1204 H 0.62358 0.041 0.53295 0.0
S1205 S 0.59372 0.16318 0.49028 0.0
N1206 N 0.63228 0.15571 0.4923 0.0
N1207 N 0.57528 0.13112 0.50189 0.0
C1208 C 0.60061 0.11253 0.50794 0.0
C1209 C 0.63147 0.12595 0.5029 0.0
C1210 C 0.14584 0.34902 0.76413 0.0
C1211 C 0.15885 0.37747 0.77569 0.0
C1212 C 0.165 0.32273 0.75968 0.0
C1213 C 0.19773 0.32365 0.7673 0.0
H1214 H 0.12104 0.34744 0.7568 0.0
H1215 H 0.15424 0.30169 0.74942 0.0
S1216 S 0.24274 0.39134 0.80161 0.0
N1217 N 0.20606 0.40436 0.79689 0.0
N1218 N 0.24189 0.35445 0.78925 0.0
C1219 C 0.21066 0.35125 0.78081 0.0
C1220 C 0.19126 0.37831 0.78479 0.0
C1221 C 0.33038 0.62966 0.2961 0.0
C1222 C 0.31054 0.60626 0.28224 0.0
C1223 C 0.31743 0.65443 0.31386 0.0
C1224 C 0.28424 0.65661 0.31799 0.0
H1225 H 0.35576 0.63042 0.29102 0.0
H1226 H 0.33302 0.67383 0.32063 0.0
S1227 S 0.22352 0.59629 0.29585 0.0
N1228 N 0.25725 0.58286 0.2808 0.0
N1229 N 0.23294 0.62963 0.31416 0.0
C1230 C 0.26499 0.63077 0.30894 0.0
C1231 C 0.2781 0.60561 0.29073 0.0
C1232 C 0.48281 0.64237 0.57901 0.0
C1233 C 0.48777 0.67229 0.56676 0.0
C1234 C 0.47269 0.61736 0.5596 0.0
C1235 C 0.46757 0.62096 0.52689 0.0
H1236 H 0.48688 0.63808 0.60388 0.0
H1237 H 0.47024 0.59469 0.57031 0.0
S1238 S 0.4747 0.69528 0.48351 0.0
N1239 N 0.48466 0.70484 0.52036 0.0
N1240 N 0.46618 0.65752 0.48351 0.0
C1241 C 0.47117 0.6511 0.5145 0.0
C1242 C 0.48117 0.67679 0.53449 0.0
C1243 C 0.59605 0.20595 0.83975 0.0
C1244 C 0.59135 0.21985 0.8699 0.0
C1245 C 0.62166 0.21485 0.82069 0.0
C1246 C 0.6433 0.23813 0.83107 0.0
H1247 H 0.57891 0.18908 0.83014 0.0
H1248 H 0.62377 0.20426 0.79723 0.0
S1249 S 0.64466 0.27797 0.91023 0.0
N1250 N 0.61251 0.25525 0.91083 0.0
N1251 N 0.66099 0.27201 0.87504 0.0
C1252 C 0.64022 0.25065 0.86209 0.0
C1253 C 0.6142 0.24138 0.8816 0.0
C1254 C -0.00171 0.3758 0.09499 0.0
C1255 C -0.00686 0.35017 0.0741 0.0
C1256 C 0.00091 0.40623 0.08378 0.0
C1257 C -0.00203 0.41222 0.05129 0.0
H1258 H 0.00077 0.37235 0.12023 0.0
H1259 H 0.00431 0.42527 0.10084 0.0
S1260 S -0.01517 0.3533 0.98666 0.0
N1261 N -0.01419 0.33272 0.01928 0.0
N1262 N -0.00989 0.39009 -0.00175 0.0
C1263 C -0.00706 0.38683 0.03009 0.0
C1264 C -0.00932 0.35577 0.04148 0.0
C1265 C 0.89551 0.75946 0.33704 0.0
C1266 C 0.92313 0.75422 0.31884 0.0
C1267 C 0.86637 0.76604 0.32257 0.0
C1268 C 0.8638 0.767 0.28938 0.0
H1269 H 0.89629 0.75803 0.36264 0.0
H1270 H 0.84535 0.76835 0.3374 0.0
S1271 S 0.92953 0.75737 0.23126 0.0
N1272 N 0.94666 0.75271 0.26607 0.0
N1273 N 0.89152 0.76433 0.23883 0.0
C1274 C 0.89151 0.76323 0.27101 0.0
C1275 C 0.92128 0.75699 0.28575 0.0
C1276 C 0.4788 0.33935 0.95554 0.0
C1277 C 0.47538 0.32891 0.92393 0.0
C1278 C 0.46893 0.36943 0.96485 0.0
C1279 C 0.45517 0.3896 0.94281 0.0
H1280 H 0.49073 0.32496 0.9726 0.0
H1281 H 0.474 0.37758 -0.01116 0.0
S1282 S 0.43514 0.37006 0.85896 0.0
N1283 N 0.45332 0.33879 0.87192 0.0
N1284 N 0.43427 0.39494 0.88939 0.0
C1285 C 0.44911 0.37808 0.91192 0.0
C1286 C 0.45942 0.34781 0.90246 0.0
C1287 C 0.92134 0.2083 0.21384 0.0
C1288 C 0.92587 0.21323 0.18132 0.0
C1289 C 0.89098 0.20157 0.22594 0.0
C1290 C 0.86429 0.19864 0.20582 0.0
H1291 H 0.94123 0.21064 0.23021 0.0
H1292 H 0.88818 0.19953 0.25135 0.0
S1293 S 0.86395 0.20674 0.1185 0.0
N1294 N 0.90158 0.213 0.12893 0.0
N1295 N 0.84447 0.19973 0.15168 0.0
C1296 C 0.86873 0.20201 0.17307 0.0
C1297 C 0.89955 0.20956 0.16081 0.0
C1298 C 0.94977 0.60346 0.43129 0.0
C1299 C 0.96484 0.62822 0.4481 0.0
C1300 C 0.94873 0.57334 0.44339 0.0
C1301 C 0.9631 0.56667 0.47259 0.0
H1302 H 0.93919 0.6072 0.40826 0.0
H1303 H 0.93714 0.55498 0.42935 0.0
S1304 S 0.00391 0.6236 0.52692 0.0
N1305 N -0.00687 0.64442 0.49631 0.0
N1306 N -0.00862 0.58759 0.51889 0.0
C1307 C 0.97758 0.59132 0.49007 0.0
C1308 C 0.97831 0.62216 0.47791 0.0
C1309 C 0.5944 0.79958 0.68729 0.0
C1310 C 0.59291 0.79221 0.65466 0.0
C1311 C 0.62331 0.80771 0.70192 0.0
C1312 C 0.65192 0.80878 0.68452 0.0
H1313 H 0.5733 0.7979 0.70205 0.0
H1314 H 0.62349 0.81138 0.72741 0.0
S1315 S 0.66002 0.7964 0.59744 0.0
N1316 N 0.6217 0.79027 0.6046 0.0
N1317 N 0.67633 0.80548 0.6321 0.0
C1318 C 0.65033 0.80411 0.65136 0.0
C1319 C 0.62076 0.7957 0.63645 0.0
C1320 C 0.54784 0.49853 0.62192 0.0
C1321 C 0.58117 0.50356 0.62144 0.0
C1322 C 0.53021 0.49517 0.59389 0.0
C1323 C 0.54513 0.49653 0.56411 0.0
H1324 H 0.53497 0.49795 0.64418 0.0
H1325 H 0.50451 0.49237 0.59567 0.0
S1326 S 0.6324 0.50669 0.54982 0.0
N1327 N 0.6288 0.50778 0.58878 0.0
N1328 N 0.59582 0.50137 0.53589 0.0
C1329 C 0.57875 0.50008 0.56326 0.0
C1330 C 0.5967 0.50367 0.59194 0.0
C1331 C 0.73127 0.37631 0.91046 0.0
C1332 C 0.73468 0.36213 0.93995 0.0
C1333 C 0.74023 0.36086 0.88244 0.0
C1334 C 0.75288 0.33052 0.88268 0.0
H1335 H 0.72093 0.3993 0.90879 0.0
H1336 H 0.73603 0.37243 0.86027 0.0
S1337 S 0.76976 0.28414 0.95388 0.0
N1338 N 0.75413 0.31683 0.96796 0.0
N1339 N 0.77068 0.28774 0.91504 0.0
C1340 C 0.75815 0.31669 0.91207 0.0
C1341 C 0.74901 0.33245 0.94075 0.0
C1342 C 0.9448 0.4975 0.18301 0.0
C1343 C 0.91518 0.51108 0.18994 0.0
C1344 C 0.96438 0.50974 0.15934 0.0
C1345 C 0.95471 0.53589 0.14225 0.0
H1346 H 0.95161 0.47591 0.19397 0.0
H1347 H -0.01472 0.49664 0.15221 0.0
S1348 S 0.88425 0.5853 0.15953 0.0
N1349 N 0.88054 0.55562 0.18364 0.0
N1350 N 0.91774 0.57933 0.13969 0.0
C1351 C 0.92756 0.55228 0.15268 0.0
C1352 C 0.90744 0.53949 0.17626 0.0
C1353 C 0.74248 0.6525 0.38629 0.0
C1354 C 0.7541 0.66804 0.41372 0.0
C1355 C 0.73504 0.66899 0.35908 0.0
C1356 C 0.73928 0.7016 0.35813 0.0
H1357 H 0.73798 0.62752 0.38612 0.0
H1358 H 0.72646 0.6559 0.33845 0.0
S1359 S 0.77024 0.75314 0.42336 0.0
N1360 N 0.77027 0.71776 0.43813 0.0
N1361 N 0.75659 0.74879 0.3868 0.0
C1362 C 0.75146 0.71737 0.38523 0.0
C1363 C 0.75886 0.70058 0.41301 0.0
C1364 C 0.56982 0.52587 0.82464 0.0
C1365 C 0.5509 0.53303 0.79828 0.0
C1366 C 0.55616 0.52248 0.85473 0.0
C1367 C 0.52302 0.52554 0.85938 0.0
H1368 H 0.59538 0.52295 0.82206 0.0
H1369 H 0.57156 0.51654 0.87429 0.0
S1370 S 0.46299 0.54481 0.79839 0.0
N1371 N 0.49727 0.54376 0.77906 0.0
N1372 N 0.47174 0.53692 0.83547 0.0
C1373 C 0.50388 0.53298 0.83335 0.0
C1374 C 0.51778 0.53686 0.80284 0.0
C1375 C 0.70548 0.30802 0.1409 0.0
C1376 C 0.72101 0.30539 0.1115 0.0
C1377 C 0.703 0.28247 0.16087 0.0
C1378 C 0.71657 0.25349 0.15245 0.0
H1379 H 0.69497 0.32995 0.14851 0.0
H1380 H 0.69162 0.28597 0.18371 0.0
S1381 S 0.7599 0.23458 0.07795 0.0
N1382 N 0.74969 0.27151 0.07454 0.0
N1383 N 0.74594 0.22363 0.11264 0.0
C1384 C 0.73197 0.2505 0.12298 0.0
C1385 C 0.73399 0.2764 0.10237 0.0
C1386 C 0.87071 0.43177 0.36517 0.0
C1387 C 0.89078 0.41971 0.34134 0.0
C1388 C 0.87971 0.43127 0.39694 0.0
C1389 C 0.90925 0.41891 0.40613 0.0
H1390 H 0.84858 0.44315 0.35918 0.0
H1391 H 0.86415 0.44239 0.41424 0.0
S1392 S 0.96767 0.37907 0.35347 0.0
N1393 N 0.93931 0.39076 0.32939 0.0
N1394 N 0.95639 0.39017 0.38944 0.0
C1395 C 0.92807 0.4039 0.38295 0.0
C1396 C 0.91881 0.40427 0.35042 0.0
C1397 C 0.74813 0.70418 0.58649 0.0
C1398 C 0.73686 0.67424 0.5944 0.0
C1399 C 0.76134 0.72442 0.60955 0.0
C1400 C 0.76453 0.71498 0.64101 0.0
H1401 H 0.74647 0.71212 0.56234 0.0
H1402 H 0.76872 0.7477 0.60284 0.0
S1403 S 0.73894 0.6386 0.67359 0.0
N1404 N 0.72977 0.63603 0.6356 0.0
N1405 N 0.75506 0.67366 0.67898 0.0
C1406 C 0.75376 0.68483 0.64907 0.0
C1407 C 0.73969 0.66458 0.62576 0.0
C1408 C 0.61542 0.61706 0.46179 0.0
C1409 C 0.64308 0.59898 0.4593 0.0
C1410 C 0.58634 0.6055 0.4499 0.0
C1411 C 0.58439 0.57557 0.43544 0.0
H1412 H 0.61563 0.63891 0.47525 0.0
H1413 H 0.56491 0.6186 0.4552 0.0
S1414 S 0.65206 0.52413 0.41443 0.0
N1415 N 0.66839 0.55356 0.4348 0.0
N1416 N 0.61351 0.53174 0.41262 0.0
C1417 C 0.61272 0.55957 0.42876 0.0
C1418 C 0.64221 0.57126 0.44085 0.0
C1419 C 0.10889 0.92468 0.5568 0.0
C1420 C 0.13133 0.91639 0.53346 0.0
C1421 C 0.08012 0.93894 0.54858 0.0
C1422 C 0.07363 0.94629 0.51692 0.0
H1423 H 0.11365 0.92017 0.58151 0.0
H1424 H 0.06328 0.94502 0.56716 0.0
S1425 S 0.12536 0.92971 0.44726 0.0
N1426 N 0.14539 0.91615 0.47765 0.0
N1427 N 0.09194 0.94399 0.46217 0.0
C1428 C 0.09606 0.93813 0.49344 0.0
C1429 C 0.12483 0.92289 0.50172 0.0
C1430 C 0.27499 0.85407 0.70932 0.0
C1431 C 0.29036 0.87445 0.73107 0.0
C1432 C 0.25587 0.82941 0.71993 0.0
C1433 C 0.25254 0.82399 0.7525 0.0
H1434 H 0.27982 0.8557 0.68418 0.0
H1435 H 0.24702 0.81235 0.70262 0.0
S1436 S 0.2845 0.87314 0.81861 0.0
N1437 N 0.29756 0.89028 0.78631 0.0
N1438 N 0.26293 0.84269 0.80619 0.0
C1439 C 0.2653 0.84586 0.77431 0.0
C1440 C 0.28398 0.8715 0.76354 0.0
C1441 C 0.30824 0.0106 0.04726 0.0
C1442 C 0.29159 0.02218 0.0212 0.0
C1443 C 0.33537 -0.00778 0.04273 0.0
C1444 C 0.34632 0.98475 0.012 0.0
H1445 H 0.30161 0.01752 0.0712 0.0
H1446 H 0.34897 0.98574 0.06337 0.0
S1447 S 0.30582 0.00323 0.93638 0.0
N1448 N 0.28432 0.02084 0.96412 0.0
N1449 N 0.3347 0.98548 0.95534 0.0
C1450 C 0.32759 -0.0066 0.9859 0.0
C1451 C 0.30039 0.01246 -0.00943 0.0
C1452 C 0.69086 0.62139 0.74497 0.0
C1453 C 0.66276 0.623 0.72659 0.0
C1454 C 0.70772 0.64859 0.75468 0.0
C1455 C 0.69675 0.67839 0.74691 0.0
H1456 H 0.69994 0.59898 0.75197 0.0
H1457 H 0.72952 0.64629 0.76825 0.0
S1458 S 0.62632 0.69563 0.69684 0.0
N1459 N 0.62616 0.65723 0.6993 0.0
N1460 N 0.65733 0.70788 0.71799 0.0
C1461 C 0.66895 0.68033 0.7283 0.0
C1462 C 0.65212 0.65279 0.71802 0.0
C1463 C 0.82492 0.44062 0.02746 0.0
C1464 C 0.79905 0.45991 0.03549 0.0
C1465 C 0.85514 0.45347 0.02105 0.0
C1466 C 0.86053 0.48596 0.02293 0.0
H1467 H 0.82153 0.41556 0.02498 0.0
H1468 H 0.87449 0.43782 0.01503 0.0
S1469 S 0.80073 0.5463 0.04418 0.0
N1470 N 0.78077 0.51287 0.04563 0.0
N1471 N 0.83761 0.53704 0.0341 0.0
C1472 C 0.83494 0.50539 0.03157 0.0
C1473 C 0.80419 0.49235 0.03775 0.0
C1474 C 0.34613 0.0778 0.71503 0.0
C1475 C 0.3255 0.05157 0.71406 0.0
C1476 C 0.33426 0.1082 0.71268 0.0
C1477 C 0.30128 0.1135 0.70967 0.0
H1478 H 0.37165 0.07489 0.71789 0.0
H1479 H 0.35092 0.12772 0.71459 0.0
S1480 S 0.23733 0.05289 0.70344 0.0
N1481 N 0.27054 0.033 0.70783 0.0
N1482 N 0.24838 0.09003 0.70381 0.0
C1483 C 0.28052 0.08748 0.70761 0.0
C1484 C 0.29258 0.05656 0.70972 0.0
C1485 C 0.15578 0.90089 0.24964 0.0
C1486 C 0.17323 0.92585 0.23681 0.0
C1487 C 0.16996 0.87208 0.25478 0.0
C1488 C 0.20224 0.86676 0.24724 0.0
H1489 H 0.13096 0.90365 0.25632 0.0
H1490 H 0.15547 0.85393 0.26534 0.0
S1491 S 0.2582 0.92374 0.21137 0.0
N1492 N 0.22435 0.94296 0.21525 0.0
N1493 N 0.25107 0.88848 0.22506 0.0
C1494 C 0.21982 0.89107 0.23335 0.0
C1495 C 0.20534 0.92069 0.2282 0.0
C1496 C 0.53926 0.36313 0.41986 0.0
C1497 C 0.52675 0.35231 0.3907 0.0
C1498 C 0.53278 0.39331 0.43129 0.0
C1499 C 0.51269 0.41303 0.41436 0.0
H1500 H 0.55347 0.34789 0.43426 0.0
H1501 H 0.54238 0.40072 0.45413 0.0
S1502 S 0.47508 0.3959 0.33624 0.0
N1503 N 0.49479 0.36384 0.34442 0.0
N1504 N 0.48163 0.42038 0.36642 0.0
C1505 C 0.5007 0.40274 0.38479 0.0
C1506 C 0.50803 0.37235 0.37279 0.0
C1507 C 0.39457 0.75557 0.20495 0.0
C1508 C 0.41223 0.73101 0.21777 0.0
C1509 C 0.37029 0.77033 0.22221 0.0
C1510 C 0.36253 0.76125 0.25312 0.0
H1511 H 0.39901 0.76318 0.18102 0.0
H1512 H 0.35664 0.78813 0.21059 0.0
S1513 S 0.40392 0.70036 0.299 0.0
N1514 N 0.42198 0.69989 0.26425 0.0
N1515 N 0.37648 0.72762 0.29688 0.0
C1516 C 0.38119 0.73781 0.26693 0.0
C1517 C 0.40584 0.72261 0.24918 0.0
C1518 C 0.92859 0.66961 0.95587 0.0
C1519 C 0.95104 0.69226 0.96655 0.0
C1520 C 0.9232 0.64249 0.97295 0.0
C1521 C 0.93962 0.63775 0.00131 0.0
H1522 H 0.918 0.67097 0.93251 0.0
H1523 H 0.90927 0.62364 0.96203 0.0
S1524 S -0.00726 0.6939 0.04413 0.0
N1525 N 0.98364 0.71143 0.01089 0.0
N1526 N 0.97328 0.66011 0.0429 0.0
C1527 C 0.95771 0.66233 0.01478 0.0
C1528 C 0.96341 0.68993 -0.00261 0.0
C1529 C 0.09386 0.19147 0.69946 0.0
C1530 C 0.08645 0.2009 0.66858 0.0
C1531 C 0.12555 0.18735 0.70885 0.0
C1532 C 0.15074 0.1929 0.68772 0.0
H1533 H 0.07516 0.18834 0.7169 0.0
H1534 H 0.13037 0.18215 0.73339 0.0
S1535 S 0.14399 0.21333 0.60306 0.0
N1536 N 0.10673 0.21199 0.61589 0.0
N1537 N 0.16641 0.2046 0.63376 0.0
C1538 C 0.14358 0.19994 0.65615 0.0
C1539 C 0.11135 0.20391 0.64651 0.0
C1540 C 0.51709 0.61189 0.07537 0.0
C1541 C 0.48794 0.6263 0.08298 0.0
C1542 C 0.5216 0.59685 0.04584 0.0
C1543 C 0.49725 0.59598 0.02278 0.0
H1544 H 0.5369 0.61316 0.0919 0.0
H1545 H 0.54441 0.58602 0.04097 0.0
S1546 S 0.41518 0.62749 0.03297 0.0
N1547 N 0.43361 0.63664 0.06653 0.0
N1548 N 0.44191 0.60917 0.01092 0.0
C1549 C 0.46765 0.60971 0.03064 0.0
C1550 C 0.46304 0.62459 0.06077 0.0
C1551 C 0.08794 0.69888 0.82321 0.0
C1552 C 0.08824 0.6989 0.8566 0.0
C1553 C 0.11623 0.6988 0.8059 0.0
C1554 C 0.14585 0.69778 0.82123 0.0
H1555 H 0.06573 0.70042 0.81016 0.0
H1556 H 0.11491 0.70003 0.7803 0.0
S1557 S 0.16005 0.69307 0.90767 0.0
N1558 N 0.12077 0.69504 0.90421 0.0
N1559 N 0.17432 0.69374 0.87118 0.0
C1560 C 0.14671 0.6954 0.85436 0.0
C1561 C 0.11776 0.69617 0.8722 0.0
C1562 C 0.94395 0.31861 0.60774 0.0
C1563 C 0.95538 0.29222 0.59112 0.0
C1564 C 0.93394 0.34491 0.59172 0.0
C1565 C 0.9355 0.34597 0.55847 0.0
H1566 H 0.94367 0.31942 0.63342 0.0
H1567 H 0.92721 0.3653 0.60574 0.0
S1568 S 0.9582 0.28091 0.50375 0.0
N1569 N 0.96348 0.26698 0.53953 0.0
N1570 N 0.94507 0.31686 0.50927 0.0
C1571 C 0.94431 0.31878 0.54146 0.0
C1572 C 0.95423 0.2918 0.55783 0.0
C1573 C 0.42202 0.23156 0.29093 0.0
C1574 C 0.42991 0.24601 0.32017 0.0
C1575 C 0.39052 0.2312 0.27986 0.0
C1576 C 0.36626 0.24595 0.2974 0.0
H1577 H 0.4404 0.22098 0.27629 0.0
H1578 H 0.38551 0.22102 0.25662 0.0
S1579 S 0.37418 0.28523 0.37615 0.0
N1580 N 0.41067 0.27353 0.36738 0.0
N1581 N 0.35152 0.27372 0.34594 0.0
C1582 C 0.37358 0.25938 0.32716 0.0
C1583 C 0.40546 0.25918 0.33874 0.0
C1584 C 0.46099 0.54478 0.29882 0.0
C1585 C 0.43063 0.53582 0.28737 0.0
C1586 C 0.46626 0.54939 0.33139 0.0
C1587 C 0.44143 0.5447 0.35322 0.0
H1588 H 0.48075 0.54803 0.28259 0.0
H1589 H 0.49025 0.5549 0.33964 0.0
S1590 S 0.35762 0.52207 0.3355 0.0
N1591 N 0.37516 0.52358 0.30052 0.0
N1592 N 0.38565 0.53147 0.36168 0.0
C1593 C 0.41093 0.53652 0.34211 0.0
C1594 C 0.40537 0.53226 0.30913 0.0
C1595 C 0.23561 0.65911 0.15251 0.0
C1596 C 0.25305 0.6689 0.12596 0.0
C1597 C 0.23026 0.67922 0.17843 0.0
C1598 C 0.24242 0.71006 0.17933 0.0
H1599 H 0.22535 0.63578 0.15318 0.0
H1600 H 0.21681 0.67011 0.19819 0.0
S1601 S 0.29039 0.74721 0.11604 0.0
N1602 N 0.28273 0.71157 0.10208 0.0
N1603 N 0.27314 0.74937 0.15119 0.0
C1604 C 0.26004 0.72026 0.15295 0.0
C1605 C 0.26529 0.69971 0.12627 0.0
C1606 C 0.02588 0.52928 0.85804 0.0
C1607 C 0.03741 0.50026 0.8471 0.0
C1608 C 0.01092 0.5324 0.8875 0.0
C1609 C 0.00635 0.50656 0.90704 0.0
H1610 H 0.02882 0.54994 0.84391 0.0
H1611 H 0.00312 0.55541 0.89518 0.0
S1612 S 0.03094 0.42513 0.88905 0.0
N1613 N 0.04254 0.4449 0.85781 0.0
N1614 N 0.01396 0.45082 0.91329 0.0
C1615 C 0.01703 0.47721 0.8962 0.0
C1616 C 0.03279 0.47408 0.86627 0.0
C1617 C 0.26865 0.28314 0.57531 0.0
C1618 C 0.27309 0.31575 0.57817 0.0
C1619 C 0.2759 0.26361 0.60054 0.0
C1620 C 0.28822 0.27606 0.62914 0.0
H1621 H 0.25725 0.27284 0.55446 0.0
H1622 H 0.26912 0.23913 0.5987 0.0
S1623 S 0.30964 0.35873 0.64673 0.0
N1624 N 0.29494 0.35884 0.61041 0.0
N1625 N 0.30815 0.32195 0.65772 0.0
C1626 C 0.29566 0.30801 0.63116 0.0
C1627 C 0.28822 0.32795 0.60566 0.0
C1628 C 0.36633 0.54976 0.09376 0.0
C1629 C 0.38679 0.55802 0.11918 0.0
C1630 C 0.37863 0.53759 0.06524 0.0
C1631 C 0.41151 0.53295 0.06156 0.0
H1632 H 0.34064 0.55155 0.09626 0.0
H1633 H 0.36235 0.53101 0.04636 0.0
S1634 S 0.47548 0.55424 0.11887 0.0
N1635 N 0.44201 0.56388 0.13711 0.0
N1636 N 0.46459 0.53985 0.08384 0.0
C1637 C 0.43229 0.54236 0.086 0.0
C1638 C 0.42003 0.55531 0.11472 0.0
C1639 C 0.26823 0.70471 0.92108 0.0
C1640 C 0.2798 0.67625 0.93215 0.0
C1641 C 0.27303 0.71313 0.88949 0.0
C1642 C 0.28938 0.69321 0.86823 0.0
H1643 H 0.25346 0.71943 0.93614 0.0
H1644 H 0.26142 0.73385 0.88102 0.0
S1645 S 0.33025 0.61976 0.88723 0.0
N1646 N 0.31317 0.63102 0.92078 0.0
N1647 N 0.3212 0.6466 0.8613 0.0
C1648 C 0.3037 0.66639 0.8798 0.0
C1649 C 0.29916 0.65796 0.91187 0.0
C1650 C 0.01529 0.46007 0.67635 0.0
C1651 C 0.04879 0.45805 0.67389 0.0
C1652 C -0.0037 0.46507 0.64973 0.0
C1653 C 0.01014 0.46877 0.61976 0.0
H1654 H 0.00353 0.45767 0.69905 0.0
H1655 H 0.97058 0.46599 0.65262 0.0
S1656 S 0.09655 0.46411 0.60016 0.0
N1657 N 0.09493 0.45918 0.63882 0.0
N1658 N 0.05923 0.46889 0.58871 0.0
C1659 C 0.0436 0.46674 0.61686 0.0
C1660 C 0.06293 0.46122 0.64393 0.0
C1661 C 0.21283 0.32952 0.39562 0.0
C1662 C 0.21885 0.36176 0.39957 0.0
C1663 C 0.21658 0.31461 0.36599 0.0
C1664 C 0.22733 0.33141 0.33977 0.0
H1665 H 0.20546 0.31573 0.41563 0.0
H1666 H 0.21252 0.2896 0.36393 0.0
S1667 S 0.24559 0.41624 0.33761 0.0
N1668 N 0.23476 0.41017 0.37462 0.0
N1669 N 0.243 0.38186 0.31917 0.0
C1670 C 0.23283 0.36369 0.34328 0.0
C1671 C 0.22826 0.37898 0.37317 0.0
C1672 C 0.32786 0.45188 0.51819 0.0
C1673 C 0.30463 0.46124 0.49625 0.0
C1674 C 0.35955 0.4628 0.51633 0.0
C1675 C 0.36892 0.48277 0.49204 0.0
H1676 H 0.32167 0.43551 0.53649 0.0
H1677 H 0.37706 0.45439 0.53293 0.0
S1678 S 0.31729 0.51542 0.42981 0.0
N1679 N 0.2931 0.49304 0.45058 0.0
N1680 N 0.3527 0.51286 0.44675 0.0
C1681 C 0.3458 0.49312 0.4707 0.0
C1682 C 0.31358 0.48254 0.4729 0.0
C1683 C 0.82433 0.02012 0.48354 0.0
C1684 C 0.81552 0.05095 0.47675 0.0
C1685 C 0.84892 0.00509 0.46669 0.0
C1686 C 0.86538 0.02036 0.44234 0.0
H1687 H 0.81324 0.008 0.50295 0.0
H1688 H 0.85692 0.98262 0.4747 0.0
S1689 S 0.84611 0.09715 0.40933 0.0
N1690 N 0.82118 0.09339 0.43938 0.0
N1691 N 0.86749 0.06502 0.40828 0.0
C1692 C 0.85432 0.04943 0.43285 0.0
C1693 C 0.82941 0.06481 0.44992 0.0
C1694 C 0.6754 0.0609 0.25679 0.0
C1695 C 0.64961 0.0636 0.23562 0.0
C1696 C 0.70214 0.0808 0.25522 0.0
C1697 C 0.70447 0.10388 0.2321 0.0
H1698 H 0.67443 0.04412 0.27562 0.0
H1699 H 0.7205 0.07898 0.27318 0.0
S1700 S 0.64528 0.11805 0.16855 0.0
N1701 N 0.6294 0.08932 0.18898 0.0
N1702 N 0.6798 0.12656 0.18584 0.0
C1703 C 0.67985 0.10546 0.20944 0.0
C1704 C 0.65234 0.08546 0.21133 0.0
C1705 C 0.6149 0.8801 0.00121 0.0
C1706 C 0.63618 0.89786 0.02034 0.0
C1707 C 0.5872 0.89331 -0.0111 0.0
C1708 C 0.57957 0.9248 -0.00474 0.0
H1709 H 0.61986 0.8559 -0.00476 0.0
H1710 H 0.57139 0.87848 0.97467 0.0
S1711 S 0.62734 0.98106 0.04491 0.0
N1712 N 0.64773 0.94832 0.04552 0.0
N1713 N 0.59579 0.9733 0.0225 0.0
C1714 C 0.60084 0.94285 0.01431 0.0
C1715 C 0.629 0.92932 0.0269 0.0
C1716 C 0.36278 0.41218 0.20728 0.0
C1717 C 0.34458 0.43645 0.19495 0.0
C1718 C 0.34928 0.3825 0.21143 0.0
C1719 C 0.3175 0.37594 0.20246 0.0
H1720 H 0.38711 0.41656 0.21517 0.0
H1721 H 0.36356 0.36473 0.22236 0.0
S1722 S 0.26084 0.43082 0.16648 0.0
N1723 N 0.29382 0.45176 0.17233 0.0
N1724 N 0.26876 0.39546 0.17905 0.0
C1725 C 0.29961 0.39952 0.18851 0.0
C1726 C 0.31308 0.42998 0.18508 0.0
C1727 C 0.12629 0.61357 0.02086 0.0
C1728 C 0.15354 0.59593 0.0272 0.0
C1729 C 0.0957 0.6006 0.02367 0.0
C1730 C 0.09112 0.56961 0.03332 0.0
H1731 H 0.12855 0.63738 0.01288 0.0
H1732 H 0.07543 0.61491 0.01775 0.0
S1733 S 0.15452 0.51421 0.05499 0.0
N1734 N 0.17406 0.54629 0.04515 0.0
N1735 N 0.11621 0.52201 0.0507 0.0
C1736 C 0.11804 0.55204 0.04099 0.0
C1737 C 0.14935 0.56515 0.03778 0.0
C1738 C 0.6839 0.89894 0.25355 0.0
C1739 C 0.65601 0.89804 0.27223 0.0
C1740 C 0.70559 0.87433 0.2533 0.0
C1741 C 0.70076 0.84832 0.27241 0.0
H1742 H 0.68836 0.91814 0.23778 0.0
H1743 H 0.72573 0.87514 0.23718 0.0
S1744 S 0.63326 0.83548 0.3276 0.0
N1745 N 0.62571 0.86954 0.31165 0.0
N1746 N 0.66723 0.82352 0.31174 0.0
C1747 C 0.67403 0.84775 0.29252 0.0
C1748 C 0.65143 0.87256 0.29227 0.0
C1749 C 0.82682 0.13196 0.79335 0.0
C1750 C 0.80905 0.1081 0.77767 0.0
C1751 C 0.81156 0.15695 0.80863 0.0
C1752 C 0.7781 0.15899 0.80827 0.0
H1753 H 0.85267 0.13269 0.79178 0.0
H1754 H 0.8261 0.17646 0.81723 0.0
S1755 S 0.72088 0.09827 0.77894 0.0
N1756 N 0.75638 0.08461 0.76918 0.0
N1757 N 0.72773 0.13196 0.79767 0.0
C1758 C 0.76021 0.13307 0.79699 0.0
C1759 C 0.7757 0.10755 0.78149 0.0
loop_
_geom_bond_atom_site_label_1
_geom_bond_atom_site_label_2
_geom_bond_distance
_geom_bond_site_symmetry_2
_ccdc_geom_bond_type
C0 O1 1.306 . S
C0 O3 1.160 . S
O1 C0 1.306 . S
O1 Cd2 2.228 1_655 S
Cd2 O1 2.228 1_455 S
Cd2 O6 2.273 . S
Cd2 O10 2.277 . S
O3 C0 1.160 . S
O3 Cd4 2.203 1_655 S
Cd4 O3 2.203 1_455 S
Cd4 O6 2.411 . S
Cd4 O7 2.333 . S
Cd4 O8 2.352 . S
Cd4 O12 2.277 . S
Cd4 O13 2.356 . S
C5 O10 1.209 . S
C5 O12 1.226 . S
O6 Cd2 2.273 . S
O6 Cd4 2.411 . S
O6 C9 1.320 . S
O7 Cd4 2.333 . S
O7 C9 1.214 . S
O8 Cd4 2.352 . S
O8 C11 1.258 . S
C9 O6 1.320 . S
C9 O7 1.214 . S
O10 Cd2 2.277 . S
O10 C5 1.209 . S
C11 O8 1.258 . S
C11 O13 1.282 . S
O12 Cd4 2.277 . S
O12 C5 1.226 . S
O13 Cd4 2.356 . S
O13 C11 1.282 . S
C14 O15 1.306 . S
C14 O17 1.160 . S
O15 C14 1.306 . S
O15 Cd16 2.228 1_655 S
Cd16 O15 2.228 1_455 S
Cd16 O20 2.273 . S
Cd16 O24 2.277 . S
O17 C14 1.160 . S
O17 Cd18 2.203 1_655 S
Cd18 O17 2.203 1_455 S
Cd18 O20 2.411 . S
Cd18 O21 2.333 . S
Cd18 O22 2.352 . S
Cd18 O26 2.277 . S
Cd18 O27 2.356 . S
C19 O24 1.209 . S
C19 O26 1.226 . S
O20 Cd16 2.273 . S
O20 Cd18 2.411 . S
O20 C23 1.320 . S
O21 Cd18 2.333 . S
O21 C23 1.214 . S
O22 Cd18 2.352 . S
O22 C25 1.258 . S
C23 O20 1.320 . S
C23 O21 1.214 . S
O24 Cd16 2.277 . S
O24 C19 1.209 . S
C25 O22 1.258 . S
C25 O27 1.282 . S
O26 Cd18 2.277 . S
O26 C19 1.226 . S
O27 Cd18 2.356 . S
O27 C25 1.282 . S
C28 O29 1.306 . S
C28 O31 1.160 . S
O29 C28 1.306 . S
O29 Cd30 2.228 . S
Cd30 O29 2.228 . S
Cd30 O34 2.273 . S
Cd30 O38 2.277 . S
O31 C28 1.160 . S
O31 Cd32 2.203 . S
Cd32 O31 2.203 . S
Cd32 O34 2.411 . S
Cd32 O35 2.333 . S
Cd32 O36 2.352 . S
Cd32 O40 2.277 . S
Cd32 O41 2.356 . S
C33 O38 1.209 . S
C33 O40 1.226 . S
O34 Cd30 2.273 . S
O34 Cd32 2.411 . S
O34 C37 1.320 . S
O35 Cd32 2.333 . S
O35 C37 1.214 . S
O36 Cd32 2.352 . S
O36 C39 1.258 . S
C37 O34 1.320 . S
C37 O35 1.214 . S
O38 Cd30 2.277 . S
O38 C33 1.209 . S
C39 O36 1.258 . S
C39 O41 1.282 . S
O40 Cd32 2.277 . S
O40 C33 1.226 . S
O41 Cd32 2.356 . S
O41 C39 1.282 . S
C42 O43 1.306 . S
C42 O45 1.160 . S
O43 C42 1.306 . S
O43 Cd44 2.228 . S
Cd44 O43 2.228 . S
Cd44 O48 2.273 . S
Cd44 O52 2.277 . S
O45 C42 1.160 . S
O45 Cd46 2.203 . S
Cd46 O45 2.203 . S
Cd46 O48 2.411 . S
Cd46 O49 2.333 . S
Cd46 O50 2.352 . S
Cd46 O54 2.277 . S
Cd46 O55 2.356 . S
C47 O52 1.209 . S
C47 O54 1.226 . S
O48 Cd44 2.273 . S
O48 Cd46 2.411 . S
O48 C51 1.320 . S
O49 Cd46 2.333 . S
O49 C51 1.214 . S
O50 Cd46 2.352 . S
O50 C53 1.258 . S
C51 O48 1.320 . S
C51 O49 1.214 . S
O52 Cd44 2.277 . S
O52 C47 1.209 . S
C53 O50 1.258 . S
C53 O55 1.282 . S
O54 Cd46 2.277 . S
O54 C47 1.226 . S
O55 Cd46 2.356 . S
O55 C53 1.282 . S
C56 O57 1.306 . S
C56 O59 1.160 . S
O57 C56 1.306 . S
O57 Cd58 2.228 . S
Cd58 O57 2.228 . S
Cd58 O62 2.273 . S
Cd58 O66 2.277 . S
O59 C56 1.160 . S
O59 Cd60 2.203 . S
Cd60 O59 2.203 . S
Cd60 O62 2.411 . S
Cd60 O63 2.333 . S
Cd60 O64 2.352 1_545 S
Cd60 O68 2.277 . S
Cd60 O69 2.356 1_545 S
C61 O66 1.209 . S
C61 O68 1.226 . S
O62 Cd58 2.273 . S
O62 Cd60 2.411 . S
O62 C65 1.320 . S
O63 Cd60 2.333 . S
O63 C65 1.214 . S
O64 Cd60 2.352 1_565 S
O64 C67 1.258 . S
C65 O62 1.320 . S
C65 O63 1.214 . S
O66 Cd58 2.277 . S
O66 C61 1.209 . S
C67 O64 1.258 . S
C67 O69 1.282 . S
O68 Cd60 2.277 . S
O68 C61 1.226 . S
O69 Cd60 2.356 1_565 S
O69 C67 1.282 . S
C70 O71 1.306 . S
C70 O73 1.160 . S
O71 C70 1.306 . S
O71 Cd72 2.228 . S
Cd72 O71 2.228 . S
Cd72 O76 2.273 . S
Cd72 O80 2.277 . S
O73 C70 1.160 . S
O73 Cd74 2.203 . S
Cd74 O73 2.203 . S
Cd74 O76 2.411 . S
Cd74 O77 2.333 . S
Cd74 O78 2.352 . S
Cd74 O82 2.277 . S
Cd74 O83 2.356 . S
C75 O80 1.209 . S
C75 O82 1.226 . S
O76 Cd72 2.273 . S
O76 Cd74 2.411 . S
O76 C79 1.320 . S
O77 Cd74 2.333 . S
O77 C79 1.214 . S
O78 Cd74 2.352 . S
O78 C81 1.258 . S
C79 O76 1.320 . S
C79 O77 1.214 . S
O80 Cd72 2.277 . S
O80 C75 1.209 . S
C81 O78 1.258 . S
C81 O83 1.282 . S
O82 Cd74 2.277 . S
O82 C75 1.226 . S
O83 Cd74 2.356 . S
O83 C81 1.282 . S
C84 O85 1.306 . S
C84 O87 1.160 1_565 S
O85 C84 1.306 . S
O85 Cd86 2.228 . S
Cd86 O85 2.228 . S
Cd86 O90 2.273 . S
Cd86 O94 2.277 . S
O87 C84 1.160 1_545 S
O87 Cd88 2.203 . S
Cd88 O87 2.203 . S
Cd88 O90 2.411 1_545 S
Cd88 O91 2.333 . S
Cd88 O92 2.352 . S
Cd88 O96 2.277 1_545 S
Cd88 O97 2.356 . S
C89 O94 1.209 . S
C89 O96 1.226 . S
O90 Cd86 2.273 . S
O90 Cd88 2.411 1_565 S
O90 C93 1.317 1_565 S
O91 Cd88 2.333 . S
O91 C93 1.219 . S
O92 Cd88 2.352 . S
O92 C95 1.258 . S
C93 O90 1.317 1_545 S
C93 O91 1.219 . S
O94 Cd86 2.277 . S
O94 C89 1.209 . S
C95 O92 1.258 . S
C95 O97 1.282 . S
O96 Cd88 2.277 1_565 S
O96 C89 1.226 . S
O97 Cd88 2.356 . S
O97 C95 1.282 . S
C98 O99 1.306 . S
C98 O101 1.160 . S
O99 C98 1.306 . S
O99 Cd100 2.228 . S
Cd100 O99 2.228 . S
Cd100 O104 2.273 . S
Cd100 O108 2.277 . S
O101 C98 1.160 . S
O101 Cd102 2.203 . S
Cd102 O101 2.203 . S
Cd102 O104 2.411 . S
Cd102 O105 2.333 . S
Cd102 O106 2.352 1_554 S
Cd102 O110 2.277 . S
Cd102 O111 2.356 1_554 S
C103 O108 1.209 . S
C103 O110 1.226 . S
O104 Cd100 2.273 . S
O104 Cd102 2.411 . S
O104 C107 1.320 . S
O105 Cd102 2.333 . S
O105 C107 1.214 . S
O106 Cd102 2.352 1_556 S
O106 C109 1.258 . S
C107 O104 1.320 . S
C107 O105 1.214 . S
O108 Cd100 2.277 . S
O108 C103 1.209 . S
C109 O106 1.258 . S
C109 O111 1.282 . S
O110 Cd102 2.277 . S
O110 C103 1.226 . S
O111 Cd102 2.356 1_556 S
O111 C109 1.282 . S
C112 O113 1.306 1_554 S
C112 O115 1.160 . S
O113 C112 1.306 1_556 S
O113 Cd114 2.228 . S
Cd114 O113 2.228 . S
Cd114 O118 2.273 1_556 S
Cd114 O122 2.277 . S
O115 C112 1.160 . S
O115 Cd116 2.203 . S
Cd116 O115 2.203 . S
Cd116 O118 2.411 . S
Cd116 O119 2.333 . S
Cd116 O120 2.352 . S
Cd116 O124 2.277 1_554 S
Cd116 O125 2.356 . S
C117 O122 1.209 . S
C117 O124 1.226 . S
O118 Cd114 2.273 1_554 S
O118 Cd116 2.411 . S
O118 C121 1.320 . S
O119 Cd116 2.333 . S
O119 C121 1.214 . S
O120 Cd116 2.352 . S
O120 C123 1.258 . S
C121 O118 1.320 . S
C121 O119 1.214 . S
O122 Cd114 2.277 . S
O122 C117 1.209 . S
C123 O120 1.258 . S
C123 O125 1.282 . S
O124 Cd116 2.277 1_556 S
O124 C117 1.226 . S
O125 Cd116 2.356 . S
O125 C123 1.282 . S
C126 O127 1.306 . S
C126 O129 1.160 . S
O127 C126 1.306 . S
O127 Cd128 2.228 . S
Cd128 O127 2.228 . S
Cd128 O132 2.273 . S
Cd128 O136 2.277 . S
O129 C126 1.160 . S
O129 Cd130 2.203 . S
Cd130 O129 2.203 . S
Cd130 O132 2.411 . S
Cd130 O133 2.333 . S
Cd130 O134 2.352 . S
Cd130 O138 2.277 . S
Cd130 O139 2.356 . S
C131 O136 1.209 . S
C131 O138 1.226 . S
O132 Cd128 2.273 . S
O132 Cd130 2.411 . S
O132 C135 1.320 . S
O133 Cd130 2.333 . S
O133 C135 1.214 . S
O134 Cd130 2.352 . S
O134 C137 1.258 . S
C135 O132 1.320 . S
C135 O133 1.214 . S
O136 Cd128 2.277 . S
O136 C131 1.209 . S
C137 O134 1.258 . S
C137 O139 1.282 . S
O138 Cd130 2.277 . S
O138 C131 1.226 . S
O139 Cd130 2.356 . S
O139 C137 1.282 . S
C140 O141 1.306 . S
C140 O143 1.160 . S
O141 C140 1.306 . S
O141 Cd142 2.228 . S
Cd142 O141 2.228 . S
Cd142 O146 2.273 . S
Cd142 O150 2.277 . S
O143 C140 1.160 . S
O143 Cd144 2.203 . S
Cd144 O143 2.203 . S
Cd144 O146 2.411 . S
Cd144 O147 2.333 . S
Cd144 O148 2.352 . S
Cd144 O152 2.277 . S
Cd144 O153 2.356 . S
C145 O150 1.209 . S
C145 O152 1.226 . S
O146 Cd142 2.273 . S
O146 Cd144 2.411 . S
O146 C149 1.320 . S
O147 Cd144 2.333 . S
O147 C149 1.214 . S
O148 Cd144 2.352 . S
O148 C151 1.258 . S
C149 O146 1.320 . S
C149 O147 1.214 . S
O150 Cd142 2.277 . S
O150 C145 1.209 . S
C151 O148 1.258 . S
C151 O153 1.282 . S
O152 Cd144 2.277 . S
O152 C145 1.226 . S
O153 Cd144 2.356 . S
O153 C151 1.282 . S
C154 O155 1.306 . S
C154 O157 1.160 . S
O155 C154 1.306 . S
O155 Cd156 2.228 . S
Cd156 O155 2.228 . S
Cd156 O160 2.273 . S
Cd156 O164 2.277 . S
O157 C154 1.160 . S
O157 Cd158 2.203 . S
Cd158 O157 2.203 . S
Cd158 O160 2.411 . S
Cd158 O161 2.333 . S
Cd158 O162 2.352 . S
Cd158 O166 2.277 . S
Cd158 O167 2.356 . S
C159 O164 1.209 . S
C159 O166 1.226 . S
O160 Cd156 2.273 . S
O160 Cd158 2.411 . S
O160 C163 1.320 . S
O161 Cd158 2.333 . S
O161 C163 1.214 . S
O162 Cd158 2.352 . S
O162 C165 1.258 . S
C163 O160 1.320 . S
C163 O161 1.214 . S
O164 Cd156 2.277 . S
O164 C159 1.209 . S
C165 O162 1.258 . S
C165 O167 1.282 . S
O166 Cd158 2.277 . S
O166 C159 1.226 . S
O167 Cd158 2.356 . S
O167 C165 1.282 . S
C168 O169 1.306 . S
C168 O171 1.160 . S
O169 C168 1.306 . S
O169 Cd170 2.228 1_655 S
Cd170 O169 2.228 1_455 S
Cd170 O174 2.273 . S
Cd170 O178 2.277 . S
O171 C168 1.160 . S
O171 Cd172 2.203 1_655 S
Cd172 O171 2.203 1_455 S
Cd172 O174 2.411 . S
Cd172 O175 2.333 . S
Cd172 O176 2.352 . S
Cd172 O180 2.277 . S
Cd172 O181 2.356 . S
C173 O178 1.209 . S
C173 O180 1.226 . S
O174 Cd170 2.273 . S
O174 Cd172 2.411 . S
O174 C177 1.320 . S
O175 Cd172 2.333 . S
O175 C177 1.214 . S
O176 Cd172 2.352 . S
O176 C179 1.258 . S
C177 O174 1.320 . S
C177 O175 1.214 . S
O178 Cd170 2.277 . S
O178 C173 1.209 . S
C179 O176 1.258 . S
C179 O181 1.282 . S
O180 Cd172 2.277 . S
O180 C173 1.226 . S
O181 Cd172 2.356 . S
O181 C179 1.282 . S
C182 O183 1.306 . S
C182 O185 1.160 . S
O183 C182 1.306 . S
O183 Cd184 2.228 1_655 S
Cd184 O183 2.228 1_455 S
Cd184 O188 2.273 . S
Cd184 O192 2.277 . S
O185 C182 1.160 . S
O185 Cd186 2.203 1_655 S
Cd186 O185 2.203 1_455 S
Cd186 O188 2.411 . S
Cd186 O189 2.333 . S
Cd186 O190 2.352 . S
Cd186 O194 2.277 . S
Cd186 O195 2.356 . S
C187 O192 1.209 . S
C187 O194 1.226 . S
O188 Cd184 2.273 . S
O188 Cd186 2.411 . S
O188 C191 1.320 . S
O189 Cd186 2.333 . S
O189 C191 1.214 . S
O190 Cd186 2.352 . S
O190 C193 1.258 . S
C191 O188 1.320 . S
C191 O189 1.214 . S
O192 Cd184 2.277 . S
O192 C187 1.209 . S
C193 O190 1.258 . S
C193 O195 1.282 . S
O194 Cd186 2.277 . S
O194 C187 1.226 . S
O195 Cd186 2.356 . S
O195 C193 1.282 . S
C196 O197 1.306 . S
C196 O199 1.160 . S
O197 C196 1.306 . S
O197 Cd198 2.228 . S
Cd198 O197 2.228 . S
Cd198 O202 2.273 . S
Cd198 O206 2.277 . S
O199 C196 1.160 . S
O199 Cd200 2.203 . S
Cd200 O199 2.203 . S
Cd200 O202 2.411 . S
Cd200 O203 2.333 . S
Cd200 O204 2.352 . S
Cd200 O208 2.277 . S
Cd200 O209 2.356 . S
C201 O206 1.209 . S
C201 O208 1.226 . S
O202 Cd198 2.273 . S
O202 Cd200 2.411 . S
O202 C205 1.320 . S
O203 Cd200 2.333 . S
O203 C205 1.214 . S
O204 Cd200 2.352 . S
O204 C207 1.258 . S
C205 O202 1.320 . S
C205 O203 1.214 . S
O206 Cd198 2.277 . S
O206 C201 1.209 . S
C207 O204 1.258 . S
C207 O209 1.282 . S
O208 Cd200 2.277 . S
O208 C201 1.226 . S
O209 Cd200 2.356 . S
O209 C207 1.282 . S
C210 O211 1.306 . S
C210 O213 1.160 . S
O211 C210 1.306 . S
O211 Cd212 2.228 . S
Cd212 O211 2.228 . S
Cd212 O216 2.273 . S
Cd212 O220 2.277 . S
O213 C210 1.160 . S
O213 Cd214 2.203 . S
Cd214 O213 2.203 . S
Cd214 O216 2.411 . S
Cd214 O217 2.333 . S
Cd214 O218 2.352 . S
Cd214 O222 2.277 . S
Cd214 O223 2.356 . S
C215 O220 1.209 . S
C215 O222 1.226 . S
O216 Cd212 2.273 . S
O216 Cd214 2.411 . S
O216 C219 1.320 . S
O217 Cd214 2.333 . S
O217 C219 1.214 . S
O218 Cd214 2.352 . S
O218 C221 1.258 . S
C219 O216 1.320 . S
C219 O217 1.214 . S
O220 Cd212 2.277 . S
O220 C215 1.209 . S
C221 O218 1.258 . S
C221 O223 1.282 . S
O222 Cd214 2.277 . S
O222 C215 1.226 . S
O223 Cd214 2.356 . S
O223 C221 1.282 . S
C224 O225 1.314 . S
C224 O227 1.160 . S
O225 C224 1.314 . S
O225 Cd226 2.218 1_545 S
Cd226 O225 2.218 1_565 S
Cd226 O230 2.273 1_565 S
Cd226 O234 2.277 . S
O227 C224 1.160 . S
O227 Cd228 2.203 . S
Cd228 O227 2.203 . S
Cd228 O230 2.411 . S
Cd228 O231 2.333 . S
Cd228 O232 2.352 . S
Cd228 O236 2.277 1_545 S
Cd228 O237 2.356 . S
C229 O234 1.209 . S
C229 O236 1.226 . S
O230 Cd226 2.273 1_545 S
O230 Cd228 2.411 . S
O230 C233 1.320 . S
O231 Cd228 2.333 . S
O231 C233 1.214 . S
O232 Cd228 2.352 . S
O232 C235 1.258 . S
C233 O230 1.320 . S
C233 O231 1.214 . S
O234 Cd226 2.277 . S
O234 C229 1.209 . S
C235 O232 1.258 . S
C235 O237 1.282 . S
O236 Cd228 2.277 1_565 S
O236 C229 1.226 . S
O237 Cd228 2.356 . S
O237 C235 1.282 . S
C238 O239 1.306 . S
C238 O241 1.160 . S
O239 C238 1.306 . S
O239 Cd240 2.228 . S
Cd240 O239 2.228 . S
Cd240 O244 2.273 . S
Cd240 O248 2.277 . S
O241 C238 1.160 . S
O241 Cd242 2.203 . S
Cd242 O241 2.203 . S
Cd242 O244 2.411 . S
Cd242 O245 2.333 . S
Cd242 O246 2.352 . S
Cd242 O250 2.277 . S
Cd242 O251 2.356 . S
C243 O248 1.209 . S
C243 O250 1.226 . S
O244 Cd240 2.273 . S
O244 Cd242 2.411 . S
O244 C247 1.320 . S
O245 Cd242 2.333 . S
O245 C247 1.214 . S
O246 Cd242 2.352 . S
O246 C249 1.258 . S
C247 O244 1.320 . S
C247 O245 1.214 . S
O248 Cd240 2.277 . S
O248 C243 1.209 . S
C249 O246 1.258 . S
C249 O251 1.282 . S
O250 Cd242 2.277 . S
O250 C243 1.226 . S
O251 Cd242 2.356 . S
O251 C249 1.282 . S
C252 O253 1.306 . S
C252 O255 1.160 1_545 S
O253 C252 1.306 . S
O253 Cd254 2.228 . S
Cd254 O253 2.228 . S
Cd254 O258 2.273 . S
Cd254 O262 2.277 . S
O255 C252 1.160 1_565 S
O255 Cd256 2.203 . S
Cd256 O255 2.203 . S
Cd256 O258 2.411 1_565 S
Cd256 O259 2.333 . S
Cd256 O260 2.352 . S
Cd256 O264 2.277 1_565 S
Cd256 O265 2.356 . S
C257 O262 1.209 . S
C257 O264 1.226 . S
O258 Cd254 2.273 . S
O258 Cd256 2.411 1_545 S
O258 C261 1.317 1_545 S
O259 Cd256 2.333 . S
O259 C261 1.220 . S
O260 Cd256 2.352 . S
O260 C263 1.258 . S
C261 O258 1.317 1_565 S
C261 O259 1.220 . S
O262 Cd254 2.277 . S
O262 C257 1.209 . S
C263 O260 1.258 . S
C263 O265 1.282 . S
O264 Cd256 2.277 1_545 S
O264 C257 1.226 . S
O265 Cd256 2.356 . S
O265 C263 1.282 . S
C266 O267 1.306 . S
C266 O269 1.160 1_556 S
O267 C266 1.306 . S
O267 Cd268 2.228 . S
Cd268 O267 2.228 . S
Cd268 O272 2.273 1_556 S
Cd268 O276 2.277 . S
O269 C266 1.160 1_554 S
O269 Cd270 2.203 . S
Cd270 O269 2.203 . S
Cd270 O272 2.411 . S
Cd270 O273 2.333 . S
Cd270 O274 2.352 . S
Cd270 O278 2.277 1_554 S
Cd270 O279 2.356 . S
C271 O276 1.209 . S
C271 O278 1.226 . S
O272 Cd268 2.273 1_554 S
O272 Cd270 2.411 . S
O272 C275 1.320 . S
O273 Cd270 2.333 . S
O273 C275 1.214 . S
O274 Cd270 2.352 . S
O274 C277 1.258 . S
C275 O272 1.320 . S
C275 O273 1.214 . S
O276 Cd268 2.277 . S
O276 C271 1.209 . S
C277 O274 1.258 . S
C277 O279 1.282 . S
O278 Cd270 2.277 1_556 S
O278 C271 1.226 . S
O279 Cd270 2.356 . S
O279 C277 1.282 . S
C280 O281 1.306 . S
C280 O283 1.160 1_554 S
O281 C280 1.306 . S
O281 Cd282 2.228 . S
Cd282 O281 2.228 . S
Cd282 O286 2.273 . S
Cd282 O290 2.277 . S
O283 C280 1.160 1_556 S
O283 Cd284 2.203 . S
Cd284 O283 2.203 . S
Cd284 O286 2.411 1_556 S
Cd284 O287 2.333 . S
Cd284 O288 2.352 . S
Cd284 O292 2.277 1_556 S
Cd284 O293 2.356 . S
C285 O290 1.209 . S
C285 O292 1.226 . S
O286 Cd282 2.273 . S
O286 Cd284 2.411 1_554 S
O286 C289 1.320 . S
O287 Cd284 2.333 . S
O287 C289 1.214 1_556 S
O288 Cd284 2.352 . S
O288 C291 1.258 . S
C289 O286 1.320 . S
C289 O287 1.214 1_554 S
O290 Cd282 2.277 . S
O290 C285 1.209 . S
C291 O288 1.258 . S
C291 O293 1.282 . S
O292 Cd284 2.277 1_554 S
O292 C285 1.226 . S
O293 Cd284 2.356 . S
O293 C291 1.282 . S
C294 O295 1.306 . S
C294 O297 1.160 . S
O295 C294 1.306 . S
O295 Cd296 2.228 . S
Cd296 O295 2.228 . S
Cd296 O300 2.273 . S
Cd296 O304 2.277 . S
O297 C294 1.160 . S
O297 Cd298 2.203 . S
Cd298 O297 2.203 . S
Cd298 O300 2.411 . S
Cd298 O301 2.333 . S
Cd298 O302 2.352 . S
Cd298 O306 2.277 . S
Cd298 O307 2.356 . S
C299 O304 1.209 . S
C299 O306 1.226 . S
O300 Cd296 2.273 . S
O300 Cd298 2.411 . S
O300 C303 1.320 . S
O301 Cd298 2.333 . S
O301 C303 1.214 . S
O302 Cd298 2.352 . S
O302 C305 1.258 . S
C303 O300 1.320 . S
C303 O301 1.214 . S
O304 Cd296 2.277 . S
O304 C299 1.209 . S
C305 O302 1.258 . S
C305 O307 1.282 . S
O306 Cd298 2.277 . S
O306 C299 1.226 . S
O307 Cd298 2.356 . S
O307 C305 1.282 . S
C308 O309 1.306 . S
C308 O311 1.160 . S
O309 C308 1.306 . S
O309 Cd310 2.228 . S
Cd310 O309 2.228 . S
Cd310 O314 2.273 . S
Cd310 O318 2.277 . S
O311 C308 1.160 . S
O311 Cd312 2.203 . S
Cd312 O311 2.203 . S
Cd312 O314 2.411 . S
Cd312 O315 2.333 . S
Cd312 O316 2.352 . S
Cd312 O320 2.277 . S
Cd312 O321 2.356 . S
C313 O318 1.209 . S
C313 O320 1.226 . S
O314 Cd310 2.273 . S
O314 Cd312 2.411 . S
O314 C317 1.320 . S
O315 Cd312 2.333 . S
O315 C317 1.214 . S
O316 Cd312 2.352 . S
O316 C319 1.258 . S
C317 O314 1.320 . S
C317 O315 1.214 . S
O318 Cd310 2.277 . S
O318 C313 1.209 . S
C319 O316 1.258 . S
C319 O321 1.282 . S
O320 Cd312 2.277 . S
O320 C313 1.226 . S
O321 Cd312 2.356 . S
O321 C319 1.282 . S
C322 O323 1.306 . S
C322 O325 1.160 . S
O323 C322 1.306 . S
O323 Cd324 2.228 . S
Cd324 O323 2.228 . S
Cd324 O328 2.273 . S
Cd324 O332 2.277 . S
O325 C322 1.160 . S
O325 Cd326 2.203 . S
Cd326 O325 2.203 . S
Cd326 O328 2.411 . S
Cd326 O329 2.333 . S
Cd326 O330 2.352 . S
Cd326 O334 2.277 . S
Cd326 O335 2.356 . S
C327 O332 1.209 . S
C327 O334 1.226 . S
O328 Cd324 2.273 . S
O328 Cd326 2.411 . S
O328 C331 1.320 . S
O329 Cd326 2.333 . S
O329 C331 1.214 . S
O330 Cd326 2.352 . S
O330 C333 1.258 . S
C331 O328 1.320 . S
C331 O329 1.214 . S
O332 Cd324 2.277 . S
O332 C327 1.209 . S
C333 O330 1.258 . S
C333 O335 1.282 . S
O334 Cd326 2.277 . S
O334 C327 1.226 . S
O335 Cd326 2.356 . S
O335 C333 1.282 . S
O336 Zn337 1.953 1_554 S
O336 C352 1.225 1_455 S
Zn337 O336 1.953 1_556 S
Zn337 O338 1.958 1_556 S
Zn337 O344 1.919 . S
Zn337 O349 1.924 1_455 S
O338 Zn337 1.958 1_554 S
O338 Zn339 1.944 1_545 S
O338 Zn340 1.933 1_455 S
O338 Zn341 1.931 1_444 S
Zn339 O338 1.944 1_565 S
Zn339 O342 1.933 . S
Zn339 O345 1.941 1_565 S
Zn339 O346 1.965 . S
Zn340 O338 1.933 1_655 S
Zn340 O347 1.938 . S
Zn340 O348 1.906 1_545 S
Zn340 O358 1.953 . S
Zn341 O338 1.931 1_666 S
Zn341 O343 1.932 . S
Zn341 O350 1.977 1_556 S
Zn341 O351 1.910 1_565 S
O342 Zn339 1.933 . S
O342 C353 1.226 1_554 S
O343 Zn341 1.932 . S
O343 C353 1.307 1_655 S
O344 Zn337 1.919 . S
O344 C355 1.252 . S
O345 Zn339 1.941 1_545 S
O345 C355 1.285 1_554 S
O346 Zn339 1.965 . S
O346 C354 1.315 . S
O347 Zn340 1.938 . S
O347 C354 1.239 1_645 S
O348 Zn340 1.906 1_565 S
O348 C356 1.304 . S
O349 Zn337 1.924 1_655 S
O349 C357 1.311 . S
O350 Zn341 1.977 1_554 S
O350 C356 1.272 . S
O351 Zn341 1.910 1_545 S
O351 C357 1.231 . S
C352 O336 1.225 1_655 S
C352 O358 1.298 . S
C353 O342 1.226 1_556 S
C353 O343 1.307 1_455 S
C354 O346 1.315 . S
C354 O347 1.239 1_465 S
C355 O344 1.252 . S
C355 O345 1.285 1_556 S
C356 O348 1.304 . S
C356 O350 1.272 . S
C357 O349 1.311 . S
C357 O351 1.231 . S
O358 Zn340 1.953 . S
O358 C352 1.298 . S
O359 Zn360 1.953 . S
O359 C375 1.225 . S
Zn360 O359 1.953 . S
Zn360 O361 1.949 . S
Zn360 O367 1.919 . S
Zn360 O372 1.924 . S
O361 Zn360 1.949 . S
O361 Zn362 1.923 . S
O361 Zn363 1.950 . S
O361 Zn364 1.945 . S
Zn362 O361 1.923 . S
Zn362 O365 1.933 . S
Zn362 O368 1.941 . S
Zn362 O369 1.965 . S
Zn363 O361 1.950 . S
Zn363 O370 1.938 . S
Zn363 O371 1.906 . S
Zn363 O381 1.953 . S
Zn364 O361 1.945 . S
Zn364 O366 1.932 . S
Zn364 O373 1.977 . S
Zn364 O374 1.910 . S
O365 Zn362 1.933 . S
O365 C376 1.226 . S
O366 Zn364 1.932 . S
O366 C376 1.307 . S
O367 Zn360 1.919 . S
O367 C378 1.253 . S
O368 Zn362 1.941 . S
O368 C378 1.283 . S
O369 Zn362 1.965 . S
O369 C377 1.303 . S
O370 Zn363 1.938 . S
O370 C377 1.247 . S
O371 Zn363 1.906 . S
O371 C379 1.304 . S
O372 Zn360 1.924 . S
O372 C380 1.311 . S
O373 Zn364 1.977 . S
O373 C379 1.272 . S
O374 Zn364 1.910 . S
O374 C380 1.231 . S
C375 O359 1.225 . S
C375 O381 1.298 . S
C376 O365 1.226 . S
C376 O366 1.307 . S
C377 O369 1.303 . S
C377 O370 1.247 . S
C378 O367 1.253 . S
C378 O368 1.283 . S
C379 O371 1.304 . S
C379 O373 1.272 . S
C380 O372 1.311 . S
C380 O374 1.231 . S
O381 Zn363 1.953 . S
O381 C375 1.298 . S
O382 Zn383 1.953 . S
O382 C398 1.225 . S
Zn383 O382 1.953 . S
Zn383 O384 1.949 1_565 S
Zn383 O390 1.919 . S
Zn383 O395 1.924 . S
O384 Zn383 1.949 1_545 S
O384 Zn385 1.923 . S
O384 Zn386 1.950 . S
O384 Zn387 1.945 . S
Zn385 O384 1.923 . S
Zn385 O388 1.933 . S
Zn385 O391 1.941 . S
Zn385 O392 1.965 . S
Zn386 O384 1.950 . S
Zn386 O393 1.938 . S
Zn386 O394 1.906 . S
Zn386 O404 1.953 1_545 S
Zn387 O384 1.945 . S
Zn387 O389 1.932 . S
Zn387 O396 1.977 . S
Zn387 O397 1.910 . S
O388 Zn385 1.933 . S
O388 C399 1.226 . S
O389 Zn387 1.932 . S
O389 C399 1.307 . S
O390 Zn383 1.919 . S
O390 C401 1.253 . S
O391 Zn385 1.941 . S
O391 C401 1.283 1_545 S
O392 Zn385 1.965 . S
O392 C400 1.303 . S
O393 Zn386 1.938 . S
O393 C400 1.247 . S
O394 Zn386 1.906 . S
O394 C402 1.304 . S
O395 Zn383 1.924 . S
O395 C403 1.311 . S
O396 Zn387 1.977 . S
O396 C402 1.272 . S
O397 Zn387 1.910 . S
O397 C403 1.231 1_545 S
C398 O382 1.225 . S
C398 O404 1.298 . S
C399 O388 1.226 . S
C399 O389 1.307 . S
C400 O392 1.303 . S
C400 O393 1.247 . S
C401 O390 1.253 . S
C401 O391 1.283 1_565 S
C402 O394 1.304 . S
C402 O396 1.272 . S
C403 O395 1.311 . S
C403 O397 1.231 1_565 S
O404 Zn386 1.953 1_565 S
O404 C398 1.298 . S
O405 Zn406 1.953 . S
O405 C421 1.225 . S
Zn406 O405 1.953 . S
Zn406 O407 1.949 . S
Zn406 O413 1.919 . S
Zn406 O418 1.924 . S
O407 Zn406 1.949 . S
O407 Zn408 1.923 . S
O407 Zn409 1.950 . S
O407 Zn410 1.945 . S
Zn408 O407 1.923 . S
Zn408 O411 1.933 . S
Zn408 O414 1.941 . S
Zn408 O415 1.965 . S
Zn409 O407 1.950 . S
Zn409 O416 1.938 . S
Zn409 O417 1.906 . S
Zn409 O427 1.953 . S
Zn410 O407 1.945 . S
Zn410 O412 1.932 . S
Zn410 O419 1.977 . S
Zn410 O420 1.910 . S
O411 Zn408 1.933 . S
O411 C422 1.226 . S
O412 Zn410 1.932 . S
O412 C422 1.307 . S
O413 Zn406 1.919 . S
O413 C424 1.253 . S
O414 Zn408 1.941 . S
O414 C424 1.283 . S
O415 Zn408 1.965 . S
O415 C423 1.303 . S
O416 Zn409 1.938 . S
O416 C423 1.247 . S
O417 Zn409 1.906 . S
O417 C425 1.304 . S
O418 Zn406 1.924 . S
O418 C426 1.311 . S
O419 Zn410 1.977 . S
O419 C425 1.272 . S
O420 Zn410 1.910 . S
O420 C426 1.231 . S
C421 O405 1.225 . S
C421 O427 1.298 . S
C422 O411 1.226 . S
C422 O412 1.307 . S
C423 O415 1.303 . S
C423 O416 1.247 . S
C424 O413 1.253 . S
C424 O414 1.283 . S
C425 O417 1.304 . S
C425 O419 1.272 . S
C426 O418 1.311 . S
C426 O420 1.231 . S
O427 Zn409 1.953 . S
O427 C421 1.298 . S
O428 Zn429 1.953 1_445 S
O428 C444 1.225 . S
Zn429 O428 1.953 1_665 S
Zn429 O430 1.949 1_665 S
Zn429 O436 1.919 . S
Zn429 O441 1.924 1_565 S
O430 Zn429 1.949 1_445 S
O430 Zn431 1.923 1_545 S
O430 Zn432 1.950 . S
O430 Zn433 1.945 1_455 S
Zn431 O430 1.923 1_565 S
Zn431 O434 1.933 . S
Zn431 O437 1.941 . S
Zn431 O438 1.965 . S
Zn432 O430 1.950 . S
Zn432 O439 1.938 . S
Zn432 O440 1.906 . S
Zn432 O450 1.953 . S
Zn433 O430 1.945 1_655 S
Zn433 O435 1.932 . S
Zn433 O442 1.977 . S
Zn433 O443 1.910 . S
O434 Zn431 1.933 . S
O434 C445 1.226 1_455 S
O435 Zn433 1.932 . S
O435 C445 1.307 1_545 S
O436 Zn429 1.919 . S
O436 C447 1.253 . S
O437 Zn431 1.941 . S
O437 C447 1.283 1_455 S
O438 Zn431 1.965 . S
O438 C446 1.303 . S
O439 Zn432 1.938 . S
O439 C446 1.247 1_545 S
O440 Zn432 1.906 . S
O440 C448 1.304 . S
O441 Zn429 1.924 1_545 S
O441 C449 1.311 . S
O442 Zn433 1.977 . S
O442 C448 1.272 1_655 S
O443 Zn433 1.910 . S
O443 C449 1.231 . S
C444 O428 1.225 . S
C444 O450 1.298 . S
C445 O434 1.226 1_655 S
C445 O435 1.307 1_565 S
C446 O438 1.303 . S
C446 O439 1.247 1_565 S
C447 O436 1.253 . S
C447 O437 1.283 1_655 S
C448 O440 1.304 . S
C448 O442 1.272 1_455 S
C449 O441 1.311 . S
C449 O443 1.231 . S
O450 Zn432 1.953 . S
O450 C444 1.298 . S
O451 Zn452 1.953 . S
O451 C467 1.225 . S
Zn452 O451 1.953 . S
Zn452 O453 1.949 . S
Zn452 O459 1.919 . S
Zn452 O464 1.924 . S
O453 Zn452 1.949 . S
O453 Zn454 1.923 . S
O453 Zn455 1.950 . S
O453 Zn456 1.945 . S
Zn454 O453 1.923 . S
Zn454 O457 1.933 . S
Zn454 O460 1.941 . S
Zn454 O461 1.965 . S
Zn455 O453 1.950 . S
Zn455 O462 1.938 . S
Zn455 O463 1.906 . S
Zn455 O473 1.953 . S
Zn456 O453 1.945 . S
Zn456 O458 1.932 . S
Zn456 O465 1.977 . S
Zn456 O466 1.910 . S
O457 Zn454 1.933 . S
O457 C468 1.226 . S
O458 Zn456 1.932 . S
O458 C468 1.307 . S
O459 Zn452 1.919 . S
O459 C470 1.253 . S
O460 Zn454 1.941 . S
O460 C470 1.283 . S
O461 Zn454 1.965 . S
O461 C469 1.303 . S
O462 Zn455 1.938 . S
O462 C469 1.247 . S
O463 Zn455 1.906 . S
O463 C471 1.304 . S
O464 Zn452 1.924 . S
O464 C472 1.311 . S
O465 Zn456 1.977 . S
O465 C471 1.272 . S
O466 Zn456 1.910 . S
O466 C472 1.231 . S
C467 O451 1.225 . S
C467 O473 1.298 . S
C468 O457 1.226 . S
C468 O458 1.307 . S
C469 O461 1.303 . S
C469 O462 1.247 . S
C470 O459 1.253 . S
C470 O460 1.283 . S
C471 O463 1.304 . S
C471 O465 1.272 . S
C472 O464 1.311 . S
C472 O466 1.231 . S
O473 Zn455 1.953 . S
O473 C467 1.298 . S
O474 Zn475 1.953 . S
O474 C490 1.225 . S
Zn475 O474 1.953 . S
Zn475 O476 1.949 . S
Zn475 O482 1.919 1_545 S
Zn475 O487 1.924 . S
O476 Zn475 1.949 . S
O476 Zn477 1.923 1_544 S
O476 Zn478 1.950 . S
O476 Zn479 1.945 1_554 S
Zn477 O476 1.923 1_566 S
Zn477 O480 1.933 . S
Zn477 O483 1.941 . S
Zn477 O484 1.965 1_556 S
Zn478 O476 1.950 . S
Zn478 O485 1.938 1_545 S
Zn478 O486 1.906 . S
Zn478 O496 1.953 . S
Zn479 O476 1.945 1_556 S
Zn479 O481 1.932 . S
Zn479 O488 1.977 1_556 S
Zn479 O489 1.910 . S
O480 Zn477 1.933 . S
O480 C491 1.226 . S
O481 Zn479 1.932 . S
O481 C491 1.307 1_545 S
O482 Zn475 1.919 1_565 S
O482 C493 1.253 1_554 S
O483 Zn477 1.941 . S
O483 C493 1.283 . S
O484 Zn477 1.965 1_554 S
O484 C492 1.303 . S
O485 Zn478 1.938 1_565 S
O485 C492 1.247 . S
O486 Zn478 1.906 . S
O486 C494 1.304 . S
O487 Zn475 1.924 . S
O487 C495 1.311 1_554 S
O488 Zn479 1.977 1_554 S
O488 C494 1.272 . S
O489 Zn479 1.910 . S
O489 C495 1.231 . S
C490 O474 1.225 . S
C490 O496 1.298 . S
C491 O480 1.226 . S
C491 O481 1.307 1_565 S
C492 O484 1.303 . S
C492 O485 1.247 . S
C493 O482 1.253 1_556 S
C493 O483 1.283 . S
C494 O486 1.304 . S
C494 O488 1.272 . S
C495 O487 1.311 1_556 S
C495 O489 1.231 . S
O496 Zn478 1.953 . S
O496 C490 1.298 . S
O497 Zn498 1.953 . S
O497 C513 1.225 . S
Zn498 O497 1.953 . S
Zn498 O499 1.949 . S
Zn498 O505 1.919 . S
Zn498 O510 1.924 . S
O499 Zn498 1.949 . S
O499 Zn500 1.923 . S
O499 Zn501 1.950 . S
O499 Zn502 1.945 . S
Zn500 O499 1.923 . S
Zn500 O503 1.933 . S
Zn500 O506 1.941 . S
Zn500 O507 1.965 . S
Zn501 O499 1.950 . S
Zn501 O508 1.938 . S
Zn501 O509 1.906 . S
Zn501 O519 1.953 . S
Zn502 O499 1.945 . S
Zn502 O504 1.932 . S
Zn502 O511 1.977 . S
Zn502 O512 1.910 . S
O503 Zn500 1.933 . S
O503 C514 1.226 . S
O504 Zn502 1.932 . S
O504 C514 1.307 . S
O505 Zn498 1.919 . S
O505 C516 1.253 . S
O506 Zn500 1.941 . S
O506 C516 1.283 . S
O507 Zn500 1.965 . S
O507 C515 1.303 . S
O508 Zn501 1.938 . S
O508 C515 1.247 . S
O509 Zn501 1.906 . S
O509 C517 1.304 . S
O510 Zn498 1.924 . S
O510 C518 1.311 . S
O511 Zn502 1.977 . S
O511 C517 1.272 . S
O512 Zn502 1.910 . S
O512 C518 1.231 . S
C513 O497 1.225 . S
C513 O519 1.298 . S
C514 O503 1.226 . S
C514 O504 1.307 . S
C515 O507 1.303 . S
C515 O508 1.247 . S
C516 O505 1.253 . S
C516 O506 1.283 . S
C517 O509 1.304 . S
C517 O511 1.272 . S
C518 O510 1.311 . S
C518 O512 1.231 . S
O519 Zn501 1.953 . S
O519 C513 1.298 . S
O520 Zn521 1.953 . S
O520 C536 1.225 . S
Zn521 O520 1.953 . S
Zn521 O522 1.949 1_556 S
Zn521 O528 1.919 . S
Zn521 O533 1.924 . S
O522 Zn521 1.949 1_554 S
O522 Zn523 1.923 . S
O522 Zn524 1.950 . S
O522 Zn525 1.945 . S
Zn523 O522 1.923 . S
Zn523 O526 1.933 . S
Zn523 O529 1.941 . S
Zn523 O530 1.965 . S
Zn524 O522 1.950 . S
Zn524 O531 1.938 . S
Zn524 O532 1.906 . S
Zn524 O542 1.953 1_554 S
Zn525 O522 1.945 . S
Zn525 O527 1.932 . S
Zn525 O534 1.977 . S
Zn525 O535 1.910 . S
O526 Zn523 1.933 . S
O526 C537 1.226 . S
O527 Zn525 1.932 . S
O527 C537 1.307 . S
O528 Zn521 1.919 . S
O528 C539 1.253 . S
O529 Zn523 1.941 . S
O529 C539 1.283 1_554 S
O530 Zn523 1.965 . S
O530 C538 1.303 . S
O531 Zn524 1.938 . S
O531 C538 1.247 . S
O532 Zn524 1.906 . S
O532 C540 1.304 . S
O533 Zn521 1.924 . S
O533 C541 1.311 . S
O534 Zn525 1.977 . S
O534 C540 1.272 . S
O535 Zn525 1.910 . S
O535 C541 1.231 1_554 S
C536 O520 1.225 . S
C536 O542 1.298 . S
C537 O526 1.226 . S
C537 O527 1.307 . S
C538 O530 1.303 . S
C538 O531 1.247 . S
C539 O528 1.253 . S
C539 O529 1.283 1_556 S
C540 O532 1.304 . S
C540 O534 1.272 . S
C541 O533 1.311 . S
C541 O535 1.231 1_556 S
O542 Zn524 1.953 1_556 S
O542 C536 1.298 . S
O543 Zn544 1.953 . S
O543 C559 1.225 . S
Zn544 O543 1.953 . S
Zn544 O545 1.949 . S
Zn544 O551 1.919 . S
Zn544 O556 1.924 . S
O545 Zn544 1.949 . S
O545 Zn546 1.923 . S
O545 Zn547 1.950 . S
O545 Zn548 1.945 . S
Zn546 O545 1.923 . S
Zn546 O549 1.933 . S
Zn546 O552 1.941 . S
Zn546 O553 1.965 . S
Zn547 O545 1.950 . S
Zn547 O554 1.938 . S
Zn547 O555 1.906 . S
Zn547 O565 1.953 . S
Zn548 O545 1.945 . S
Zn548 O550 1.932 . S
Zn548 O557 1.977 . S
Zn548 O558 1.910 . S
O549 Zn546 1.933 . S
O549 C560 1.226 . S
O550 Zn548 1.932 . S
O550 C560 1.307 . S
O551 Zn544 1.919 . S
O551 C562 1.253 . S
O552 Zn546 1.941 . S
O552 C562 1.283 . S
O553 Zn546 1.965 . S
O553 C561 1.303 . S
O554 Zn547 1.938 . S
O554 C561 1.247 . S
O555 Zn547 1.906 . S
O555 C563 1.304 . S
O556 Zn544 1.924 . S
O556 C564 1.311 . S
O557 Zn548 1.977 . S
O557 C563 1.272 . S
O558 Zn548 1.910 . S
O558 C564 1.231 . S
C559 O543 1.225 . S
C559 O565 1.298 . S
C560 O549 1.226 . S
C560 O550 1.307 . S
C561 O553 1.303 . S
C561 O554 1.247 . S
C562 O551 1.253 . S
C562 O552 1.283 . S
C563 O555 1.304 . S
C563 O557 1.272 . S
C564 O556 1.311 . S
C564 O558 1.231 . S
O565 Zn547 1.953 . S
O565 C559 1.298 . S
O566 Zn567 1.953 . S
O566 C582 1.225 . S
Zn567 O566 1.953 . S
Zn567 O568 1.958 . S
Zn567 O574 1.919 . S
Zn567 O579 1.924 . S
O568 Zn567 1.958 . S
O568 Zn569 1.923 . S
O568 Zn570 1.945 1_455 S
O568 Zn571 1.940 1_455 S
Zn569 O568 1.923 . S
Zn569 O572 1.933 1_455 S
Zn569 O575 1.941 . S
Zn569 O576 1.965 1_455 S
Zn570 O568 1.945 1_655 S
Zn570 O577 1.938 . S
Zn570 O578 1.906 . S
Zn570 O588 1.945 1_655 S
Zn571 O568 1.940 1_655 S
Zn571 O573 1.932 . S
Zn571 O580 1.977 . S
Zn571 O581 1.910 1_655 S
O572 Zn569 1.933 1_655 S
O572 C583 1.226 . S
O573 Zn571 1.932 . S
O573 C583 1.307 . S
O574 Zn567 1.919 . S
O574 C585 1.253 . S
O575 Zn569 1.941 . S
O575 C585 1.283 . S
O576 Zn569 1.965 1_655 S
O576 C584 1.303 . S
O577 Zn570 1.938 . S
O577 C584 1.247 . S
O578 Zn570 1.906 . S
O578 C586 1.304 . S
O579 Zn567 1.924 . S
O579 C587 1.311 . S
O580 Zn571 1.977 . S
O580 C586 1.272 . S
O581 Zn571 1.910 1_455 S
O581 C587 1.231 . S
C582 O566 1.225 . S
C582 O588 1.314 . S
C583 O572 1.226 . S
C583 O573 1.307 . S
C584 O576 1.303 . S
C584 O577 1.247 . S
C585 O574 1.253 . S
C585 O575 1.283 . S
C586 O578 1.304 . S
C586 O580 1.272 . S
C587 O579 1.311 . S
C587 O581 1.231 . S
O588 Zn570 1.945 1_455 S
O588 C582 1.314 . S
O589 Zn590 1.953 . S
O589 C605 1.225 . S
Zn590 O589 1.953 . S
Zn590 O591 1.949 . S
Zn590 O597 1.919 . S
Zn590 O602 1.924 . S
O591 Zn590 1.949 . S
O591 Zn592 1.923 . S
O591 Zn593 1.950 . S
O591 Zn594 1.945 . S
Zn592 O591 1.923 . S
Zn592 O595 1.933 . S
Zn592 O598 1.941 . S
Zn592 O599 1.965 . S
Zn593 O591 1.950 . S
Zn593 O600 1.938 . S
Zn593 O601 1.906 . S
Zn593 O611 1.953 . S
Zn594 O591 1.945 . S
Zn594 O596 1.932 . S
Zn594 O603 1.977 . S
Zn594 O604 1.910 . S
O595 Zn592 1.933 . S
O595 C606 1.226 . S
O596 Zn594 1.932 . S
O596 C606 1.307 . S
O597 Zn590 1.919 . S
O597 C608 1.253 . S
O598 Zn592 1.941 . S
O598 C608 1.283 . S
O599 Zn592 1.965 . S
O599 C607 1.303 . S
O600 Zn593 1.938 . S
O600 C607 1.247 . S
O601 Zn593 1.906 . S
O601 C609 1.304 . S
O602 Zn590 1.924 . S
O602 C610 1.311 . S
O603 Zn594 1.977 . S
O603 C609 1.272 . S
O604 Zn594 1.910 . S
O604 C610 1.231 . S
C605 O589 1.225 . S
C605 O611 1.298 . S
C606 O595 1.226 . S
C606 O596 1.307 . S
C607 O599 1.303 . S
C607 O600 1.247 . S
C608 O597 1.253 . S
C608 O598 1.283 . S
C609 O601 1.304 . S
C609 O603 1.272 . S
C610 O602 1.311 . S
C610 O604 1.231 . S
O611 Zn593 1.953 . S
O611 C605 1.298 . S
O612 Zn613 1.953 . S
O612 C628 1.225 . S
Zn613 O612 1.953 . S
Zn613 O614 1.949 . S
Zn613 O620 1.919 . S
Zn613 O625 1.924 . S
O614 Zn613 1.949 . S
O614 Zn615 1.923 . S
O614 Zn616 1.950 . S
O614 Zn617 1.945 . S
Zn615 O614 1.923 . S
Zn615 O618 1.933 . S
Zn615 O621 1.941 . S
Zn615 O622 1.965 . S
Zn616 O614 1.950 . S
Zn616 O623 1.938 . S
Zn616 O624 1.906 . S
Zn616 O634 1.953 . S
Zn617 O614 1.945 . S
Zn617 O619 1.932 . S
Zn617 O626 1.977 . S
Zn617 O627 1.910 . S
O618 Zn615 1.933 . S
O618 C629 1.226 . S
O619 Zn617 1.932 . S
O619 C629 1.307 . S
O620 Zn613 1.919 . S
O620 C631 1.253 . S
O621 Zn615 1.941 . S
O621 C631 1.283 . S
O622 Zn615 1.965 . S
O622 C630 1.303 . S
O623 Zn616 1.938 . S
O623 C630 1.247 . S
O624 Zn616 1.906 . S
O624 C632 1.304 . S
O625 Zn613 1.924 . S
O625 C633 1.311 . S
O626 Zn617 1.977 . S
O626 C632 1.272 . S
O627 Zn617 1.910 . S
O627 C633 1.231 . S
C628 O612 1.225 . S
C628 O634 1.298 . S
C629 O618 1.226 . S
C629 O619 1.307 . S
C630 O622 1.303 . S
C630 O623 1.247 . S
C631 O620 1.253 . S
C631 O621 1.283 . S
C632 O624 1.304 . S
C632 O626 1.272 . S
C633 O625 1.311 . S
C633 O627 1.231 . S
O634 Zn616 1.953 . S
O634 C628 1.298 . S
O635 Zn636 1.953 . S
O635 C651 1.225 . S
Zn636 O635 1.953 . S
Zn636 O637 1.949 . S
Zn636 O643 1.919 . S
Zn636 O648 1.924 . S
O637 Zn636 1.949 . S
O637 Zn638 1.923 . S
O637 Zn639 1.950 . S
O637 Zn640 1.945 . S
Zn638 O637 1.923 . S
Zn638 O641 1.933 . S
Zn638 O644 1.941 . S
Zn638 O645 1.965 . S
Zn639 O637 1.950 . S
Zn639 O646 1.938 . S
Zn639 O647 1.906 . S
Zn639 O657 1.953 . S
Zn640 O637 1.945 . S
Zn640 O642 1.932 . S
Zn640 O649 1.977 . S
Zn640 O650 1.910 . S
O641 Zn638 1.933 . S
O641 C652 1.226 . S
O642 Zn640 1.932 . S
O642 C652 1.307 . S
O643 Zn636 1.919 . S
O643 C654 1.253 . S
O644 Zn638 1.941 . S
O644 C654 1.283 . S
O645 Zn638 1.965 . S
O645 C653 1.303 . S
O646 Zn639 1.938 . S
O646 C653 1.247 . S
O647 Zn639 1.906 . S
O647 C655 1.304 . S
O648 Zn636 1.924 . S
O648 C656 1.311 . S
O649 Zn640 1.977 . S
O649 C655 1.272 . S
O650 Zn640 1.910 . S
O650 C656 1.231 . S
C651 O635 1.225 . S
C651 O657 1.298 . S
C652 O641 1.226 . S
C652 O642 1.307 . S
C653 O645 1.303 . S
C653 O646 1.247 . S
C654 O643 1.253 . S
C654 O644 1.283 . S
C655 O647 1.304 . S
C655 O649 1.272 . S
C656 O648 1.311 . S
C656 O650 1.231 . S
O657 Zn639 1.953 . S
O657 C651 1.298 . S
O658 Zn659 1.953 . S
O658 C674 1.225 . S
Zn659 O658 1.953 . S
Zn659 O660 1.949 . S
Zn659 O666 1.919 . S
Zn659 O671 1.924 . S
O660 Zn659 1.949 . S
O660 Zn661 1.923 . S
O660 Zn662 1.950 . S
O660 Zn663 1.945 . S
Zn661 O660 1.923 . S
Zn661 O664 1.933 . S
Zn661 O667 1.941 . S
Zn661 O668 1.965 . S
Zn662 O660 1.950 . S
Zn662 O669 1.938 . S
Zn662 O670 1.906 . S
Zn662 O680 1.953 . S
Zn663 O660 1.945 . S
Zn663 O665 1.932 . S
Zn663 O672 1.977 . S
Zn663 O673 1.910 . S
O664 Zn661 1.933 . S
O664 C675 1.226 . S
O665 Zn663 1.932 . S
O665 C675 1.307 . S
O666 Zn659 1.919 . S
O666 C677 1.253 . S
O667 Zn661 1.941 . S
O667 C677 1.283 . S
O668 Zn661 1.965 . S
O668 C676 1.303 . S
O669 Zn662 1.938 . S
O669 C676 1.247 . S
O670 Zn662 1.906 . S
O670 C678 1.304 . S
O671 Zn659 1.924 . S
O671 C679 1.311 . S
O672 Zn663 1.977 . S
O672 C678 1.272 . S
O673 Zn663 1.910 . S
O673 C679 1.231 . S
C674 O658 1.225 . S
C674 O680 1.298 . S
C675 O664 1.226 . S
C675 O665 1.307 . S
C676 O668 1.303 . S
C676 O669 1.247 . S
C677 O666 1.253 . S
C677 O667 1.283 . S
C678 O670 1.304 . S
C678 O672 1.272 . S
C679 O671 1.311 . S
C679 O673 1.231 . S
O680 Zn662 1.953 . S
O680 C674 1.298 . S
O681 Zn682 1.939 1_454 S
O681 C697 1.225 . S
Zn682 O681 1.939 1_656 S
Zn682 O683 1.939 1_656 S
Zn682 O689 1.923 . S
Zn682 O694 1.947 1_655 S
O683 Zn682 1.939 1_454 S
O683 Zn684 1.923 1_455 S
O683 Zn685 1.950 . S
O683 Zn686 1.945 1_554 S
Zn684 O683 1.923 1_655 S
Zn684 O687 1.933 . S
Zn684 O690 1.941 . S
Zn684 O691 1.965 . S
Zn685 O683 1.950 . S
Zn685 O692 1.938 . S
Zn685 O693 1.906 . S
Zn685 O703 1.953 . S
Zn686 O683 1.945 1_556 S
Zn686 O688 1.932 . S
Zn686 O695 1.977 1_556 S
Zn686 O696 1.910 . S
O687 Zn684 1.933 . S
O687 C698 1.226 1_554 S
O688 Zn686 1.932 . S
O688 C698 1.307 1_455 S
O689 Zn682 1.923 . S
O689 C700 1.245 1_556 S
O690 Zn684 1.941 . S
O690 C700 1.306 . S
O691 Zn684 1.965 . S
O691 C699 1.303 . S
O692 Zn685 1.938 . S
O692 C699 1.247 1_455 S
O693 Zn685 1.906 . S
O693 C701 1.304 . S
O694 Zn682 1.947 1_455 S
O694 C702 1.311 . S
O695 Zn686 1.977 1_554 S
O695 C701 1.272 . S
O696 Zn686 1.910 . S
O696 C702 1.231 . S
C697 O681 1.225 . S
C697 O703 1.298 . S
C698 O687 1.226 1_556 S
C698 O688 1.307 1_655 S
C699 O691 1.303 . S
C699 O692 1.247 1_655 S
C700 O689 1.245 1_554 S
C700 O690 1.306 . S
C701 O693 1.304 . S
C701 O695 1.272 . S
C702 O694 1.311 . S
C702 O696 1.231 . S
O703 Zn685 1.953 . S
O703 C697 1.298 . S
C704 C705 1.364 1_455 S
C704 C706 1.419 . S
C704 H708 0.930 . S
C705 C704 1.364 1_655 S
C705 C714 1.437 . S
C706 C704 1.419 . S
C706 C707 1.363 1_455 S
C706 H709 0.929 . S
C707 C706 1.363 1_655 S
C707 C713 1.428 . S
H708 C704 0.930 . S
H709 C706 0.929 . S
S710 N711 1.613 . S
S710 N712 1.610 . S
N711 S710 1.613 . S
N711 C714 1.350 . S
N712 S710 1.610 . S
N712 C713 1.351 . S
C713 C707 1.428 . S
C713 N712 1.351 . S
C713 C714 1.434 . S
C714 C705 1.437 . S
C714 N711 1.350 . S
C714 C713 1.434 . S
C715 C716 1.369 . S
C715 C717 1.419 . S
C715 H719 0.930 . S
C716 C715 1.369 . S
C716 C725 1.429 . S
C717 C715 1.419 . S
C717 C718 1.363 . S
C717 H720 0.929 . S
C718 C717 1.363 . S
C718 C724 1.428 . S
H719 C715 0.930 . S
H720 C717 0.929 . S
S721 N722 1.613 . S
S721 N723 1.610 . S
N722 S721 1.613 . S
N722 C725 1.350 . S
N723 S721 1.610 . S
N723 C724 1.351 . S
C724 C718 1.428 . S
C724 N723 1.351 . S
C724 C725 1.434 . S
C725 C716 1.429 . S
C725 N722 1.350 . S
C725 C724 1.434 . S
C726 C727 1.369 . S
C726 C728 1.419 . S
C726 H730 0.930 . S
C727 C726 1.369 . S
C727 C736 1.429 . S
C728 C726 1.419 . S
C728 C729 1.363 . S
C728 H731 0.929 . S
C729 C728 1.363 . S
C729 C735 1.428 . S
H730 C726 0.930 . S
H731 C728 0.929 . S
S732 N733 1.613 . S
S732 N734 1.610 . S
N733 S732 1.613 . S
N733 C736 1.350 . S
N734 S732 1.610 . S
N734 C735 1.351 . S
C735 C729 1.428 . S
C735 N734 1.351 . S
C735 C736 1.434 . S
C736 C727 1.429 . S
C736 N733 1.350 . S
C736 C735 1.434 . S
C737 C738 1.369 . S
C737 C739 1.419 . S
C737 H741 0.930 . S
C738 C737 1.369 . S
C738 C747 1.429 . S
C739 C737 1.419 . S
C739 C740 1.363 . S
C739 H742 0.929 . S
C740 C739 1.363 . S
C740 C746 1.428 . S
H741 C737 0.930 . S
H742 C739 0.929 . S
S743 N744 1.613 . S
S743 N745 1.610 . S
N744 S743 1.613 . S
N744 C747 1.350 . S
N745 S743 1.610 . S
N745 C746 1.351 . S
C746 C740 1.428 . S
C746 N745 1.351 . S
C746 C747 1.434 . S
C747 C738 1.429 . S
C747 N744 1.350 . S
C747 C746 1.434 . S
C748 C749 1.369 1_655 S
C748 C750 1.419 . S
C748 H752 0.930 . S
C749 C748 1.369 1_455 S
C749 C758 1.429 . S
C750 C748 1.419 . S
C750 C751 1.363 . S
C750 H753 0.929 . S
C751 C750 1.363 . S
C751 C757 1.428 1_655 S
H752 C748 0.930 . S
H753 C750 0.929 . S
S754 N755 1.613 . S
S754 N756 1.610 . S
N755 S754 1.613 . S
N755 C758 1.350 . S
N756 S754 1.610 . S
N756 C757 1.351 . S
C757 C751 1.428 1_455 S
C757 N756 1.351 . S
C757 C758 1.434 . S
C758 C749 1.429 . S
C758 N755 1.350 . S
C758 C757 1.434 . S
C759 C760 1.369 . S
C759 C761 1.419 . S
C759 H763 0.930 . S
C760 C759 1.369 . S
C760 C769 1.429 . S
C761 C759 1.419 . S
C761 C762 1.363 . S
C761 H764 0.929 . S
C762 C761 1.363 . S
C762 C768 1.428 . S
H763 C759 0.930 . S
H764 C761 0.929 . S
S765 N766 1.613 . S
S765 N767 1.610 . S
N766 S765 1.613 . S
N766 C769 1.350 . S
N767 S765 1.610 . S
N767 C768 1.351 . S
C768 C762 1.428 . S
C768 N767 1.351 . S
C768 C769 1.434 . S
C769 C760 1.429 . S
C769 N766 1.350 . S
C769 C768 1.434 . S
C770 C771 1.369 . S
C770 C772 1.419 . S
C770 H774 0.930 . S
C771 C770 1.369 . S
C771 C780 1.429 . S
C772 C770 1.419 . S
C772 C773 1.363 . S
C772 H775 0.929 . S
C773 C772 1.363 . S
C773 C779 1.428 . S
H774 C770 0.930 . S
H775 C772 0.929 . S
S776 N777 1.613 . S
S776 N778 1.610 . S
N777 S776 1.613 . S
N777 C780 1.350 . S
N778 S776 1.610 . S
N778 C779 1.351 . S
C779 C773 1.428 . S
C779 N778 1.351 . S
C779 C780 1.434 . S
C780 C771 1.429 . S
C780 N777 1.350 . S
C780 C779 1.434 . S
C781 C782 1.369 . S
C781 C783 1.419 . S
C781 H785 0.930 . S
C782 C781 1.369 . S
C782 C791 1.429 . S
C783 C781 1.419 . S
C783 C784 1.363 . S
C783 H786 0.929 . S
C784 C783 1.363 . S
C784 C790 1.428 . S
H785 C781 0.930 . S
H786 C783 0.929 . S
S787 N788 1.613 . S
S787 N789 1.610 . S
N788 S787 1.613 . S
N788 C791 1.350 . S
N789 S787 1.610 . S
N789 C790 1.351 . S
C790 C784 1.428 . S
C790 N789 1.351 . S
C790 C791 1.434 . S
C791 C782 1.429 . S
C791 N788 1.350 . S
C791 C790 1.434 . S
C792 C793 1.369 . S
C792 C794 1.419 . S
C792 H796 0.930 . S
C793 C792 1.369 . S
C793 C802 1.429 . S
C794 C792 1.419 . S
C794 C795 1.363 . S
C794 H797 0.929 . S
C795 C794 1.363 . S
C795 C801 1.428 . S
H796 C792 0.930 . S
H797 C794 0.929 . S
S798 N799 1.613 . S
S798 N800 1.610 . S
N799 S798 1.613 . S
N799 C802 1.350 . S
N800 S798 1.610 . S
N800 C801 1.351 . S
C801 C795 1.428 . S
C801 N800 1.351 . S
C801 C802 1.434 . S
C802 C793 1.429 . S
C802 N799 1.350 . S
C802 C801 1.434 . S
C803 C804 1.369 . S
C803 C805 1.419 . S
C803 H807 0.930 . S
C804 C803 1.369 . S
C804 C813 1.429 . S
C805 C803 1.419 . S
C805 C806 1.363 . S
C805 H808 0.929 . S
C806 C805 1.363 . S
C806 C812 1.428 . S
H807 C803 0.930 . S
H808 C805 0.929 . S
S809 N810 1.613 . S
S809 N811 1.610 . S
N810 S809 1.613 . S
N810 C813 1.350 . S
N811 S809 1.610 . S
N811 C812 1.351 . S
C812 C806 1.428 . S
C812 N811 1.351 . S
C812 C813 1.434 . S
C813 C804 1.429 . S
C813 N810 1.350 . S
C813 C812 1.434 . S
C814 C815 1.369 1_565 S
C814 C816 1.419 . S
C814 H818 0.930 . S
C815 C814 1.369 1_545 S
C815 C824 1.429 . S
C816 C814 1.419 . S
C816 C817 1.363 1_565 S
C816 H819 0.929 . S
C817 C816 1.363 1_545 S
C817 C823 1.428 . S
H818 C814 0.930 . S
H819 C816 0.929 . S
S820 N821 1.613 . S
S820 N822 1.610 . S
N821 S820 1.613 . S
N821 C824 1.350 . S
N822 S820 1.610 . S
N822 C823 1.351 . S
C823 C817 1.428 . S
C823 N822 1.351 . S
C823 C824 1.434 . S
C824 C815 1.429 . S
C824 N821 1.350 . S
C824 C823 1.434 . S
C825 C826 1.369 . S
C825 C827 1.419 . S
C825 H829 0.930 . S
C826 C825 1.369 . S
C826 C835 1.429 . S
C827 C825 1.419 . S
C827 C828 1.363 . S
C827 H830 0.929 . S
C828 C827 1.363 . S
C828 C834 1.428 . S
H829 C825 0.930 . S
H830 C827 0.929 . S
S831 N832 1.613 . S
S831 N833 1.610 . S
N832 S831 1.613 . S
N832 C835 1.350 . S
N833 S831 1.610 . S
N833 C834 1.351 . S
C834 C828 1.428 . S
C834 N833 1.351 . S
C834 C835 1.434 . S
C835 C826 1.429 . S
C835 N832 1.350 . S
C835 C834 1.434 . S
C836 C837 1.369 . S
C836 C838 1.419 . S
C836 H840 0.930 . S
C837 C836 1.369 . S
C837 C846 1.429 . S
C838 C836 1.419 . S
C838 C839 1.363 . S
C838 H841 0.929 . S
C839 C838 1.363 . S
C839 C845 1.428 . S
H840 C836 0.930 . S
H841 C838 0.929 . S
S842 N843 1.613 . S
S842 N844 1.610 . S
N843 S842 1.613 . S
N843 C846 1.350 . S
N844 S842 1.610 . S
N844 C845 1.351 . S
C845 C839 1.428 . S
C845 N844 1.351 . S
C845 C846 1.434 . S
C846 C837 1.429 . S
C846 N843 1.350 . S
C846 C845 1.434 . S
C847 C848 1.369 . S
C847 C849 1.419 . S
C847 H851 0.930 . S
C848 C847 1.369 . S
C848 C857 1.429 . S
C849 C847 1.419 . S
C849 C850 1.363 . S
C849 H852 0.929 . S
C850 C849 1.363 . S
C850 C856 1.428 . S
H851 C847 0.930 . S
H852 C849 0.929 . S
S853 N854 1.613 . S
S853 N855 1.610 . S
N854 S853 1.613 . S
N854 C857 1.350 . S
N855 S853 1.610 . S
N855 C856 1.351 . S
C856 C850 1.428 . S
C856 N855 1.351 . S
C856 C857 1.434 . S
C857 C848 1.429 . S
C857 N854 1.350 . S
C857 C856 1.434 . S
C858 C859 1.369 . S
C858 C860 1.419 . S
C858 H862 0.930 . S
C859 C858 1.369 . S
C859 C868 1.429 1_565 S
C860 C858 1.419 . S
C860 C861 1.363 . S
C860 H863 0.929 . S
C861 C860 1.363 . S
C861 C867 1.428 1_565 S
H862 C858 0.930 . S
H863 C860 0.929 . S
S864 N865 1.613 . S
S864 N866 1.610 . S
N865 S864 1.613 . S
N865 C868 1.350 . S
N866 S864 1.610 . S
N866 C867 1.351 . S
C867 C861 1.428 1_545 S
C867 N866 1.351 . S
C867 C868 1.434 . S
C868 C859 1.429 1_545 S
C868 N865 1.350 . S
C868 C867 1.434 . S
C869 C870 1.369 . S
C869 C871 1.419 . S
C869 H873 0.930 . S
C870 C869 1.369 . S
C870 C879 1.429 . S
C871 C869 1.419 . S
C871 C872 1.363 . S
C871 H874 0.929 . S
C872 C871 1.363 . S
C872 C878 1.428 . S
H873 C869 0.930 . S
H874 C871 0.929 . S
S875 N876 1.613 . S
S875 N877 1.610 . S
N876 S875 1.613 . S
N876 C879 1.350 . S
N877 S875 1.610 . S
N877 C878 1.351 . S
C878 C872 1.428 . S
C878 N877 1.351 . S
C878 C879 1.434 . S
C879 C870 1.429 . S
C879 N876 1.350 . S
C879 C878 1.434 . S
C880 C881 1.369 . S
C880 C882 1.419 . S
C880 H884 0.930 . S
C881 C880 1.369 . S
C881 C890 1.429 1_554 S
C882 C880 1.419 . S
C882 C883 1.363 1_554 S
C882 H885 0.929 . S
C883 C882 1.363 1_556 S
C883 C889 1.428 . S
H884 C880 0.930 . S
H885 C882 0.929 . S
S886 N887 1.613 . S
S886 N888 1.610 . S
N887 S886 1.613 . S
N887 C890 1.350 . S
N888 S886 1.610 . S
N888 C889 1.351 . S
C889 C883 1.428 . S
C889 N888 1.351 . S
C889 C890 1.434 . S
C890 C881 1.429 1_556 S
C890 N887 1.350 . S
C890 C889 1.434 . S
C891 C892 1.369 . S
C891 C893 1.419 . S
C891 H895 0.930 . S
C892 C891 1.369 . S
C892 C901 1.429 1_554 S
C893 C891 1.419 . S
C893 C894 1.363 . S
C893 H896 0.929 . S
C894 C893 1.363 . S
C894 C900 1.428 1_554 S
H895 C891 0.930 . S
H896 C893 0.929 . S
S897 N898 1.613 . S
S897 N899 1.610 . S
N898 S897 1.613 . S
N898 C901 1.350 . S
N899 S897 1.610 . S
N899 C900 1.351 . S
C900 C894 1.428 1_556 S
C900 N899 1.351 . S
C900 C901 1.434 . S
C901 C892 1.429 1_556 S
C901 N898 1.350 . S
C901 C900 1.434 . S
C902 C903 1.369 . S
C902 C904 1.419 . S
C902 H906 0.930 . S
C903 C902 1.369 . S
C903 C912 1.429 . S
C904 C902 1.419 . S
C904 C905 1.363 . S
C904 H907 0.929 . S
C905 C904 1.363 . S
C905 C911 1.428 . S
H906 C902 0.930 . S
H907 C904 0.929 . S
S908 N909 1.613 . S
S908 N910 1.610 . S
N909 S908 1.613 . S
N909 C912 1.350 . S
N910 S908 1.610 . S
N910 C911 1.351 . S
C911 C905 1.428 . S
C911 N910 1.351 . S
C911 C912 1.434 . S
C912 C903 1.429 . S
C912 N909 1.350 . S
C912 C911 1.434 . S
C913 C914 1.369 . S
C913 C915 1.419 . S
C913 H917 0.930 . S
C914 C913 1.369 . S
C914 C923 1.429 . S
C915 C913 1.419 . S
C915 C916 1.363 . S
C915 H918 0.929 . S
C916 C915 1.363 . S
C916 C922 1.428 . S
H917 C913 0.930 . S
H918 C915 0.929 . S
S919 N920 1.613 . S
S919 N921 1.610 . S
N920 S919 1.613 . S
N920 C923 1.350 . S
N921 S919 1.610 . S
N921 C922 1.351 . S
C922 C916 1.428 . S
C922 N921 1.351 . S
C922 C923 1.434 . S
C923 C914 1.429 . S
C923 N920 1.350 . S
C923 C922 1.434 . S
C924 C925 1.369 . S
C924 C926 1.419 . S
C924 H928 0.930 . S
C925 C924 1.369 . S
C925 C934 1.429 . S
C926 C924 1.419 . S
C926 C927 1.363 . S
C926 H929 0.929 . S
C927 C926 1.363 . S
C927 C933 1.428 . S
H928 C924 0.930 . S
H929 C926 0.929 . S
S930 N931 1.613 . S
S930 N932 1.610 . S
N931 S930 1.613 . S
N931 C934 1.350 . S
N932 S930 1.610 . S
N932 C933 1.351 . S
C933 C927 1.428 . S
C933 N932 1.351 . S
C933 C934 1.434 . S
C934 C925 1.429 . S
C934 N931 1.350 . S
C934 C933 1.434 . S
C935 C936 1.369 . S
C935 C937 1.419 . S
C935 H939 0.930 . S
C936 C935 1.369 . S
C936 C945 1.429 . S
C937 C935 1.419 . S
C937 C938 1.363 . S
C937 H940 0.929 . S
C938 C937 1.363 . S
C938 C944 1.428 . S
H939 C935 0.930 . S
H940 C937 0.929 . S
S941 N942 1.613 1_545 S
S941 N943 1.610 . S
N942 S941 1.613 1_565 S
N942 C945 1.350 . S
N943 S941 1.610 . S
N943 C944 1.351 1_545 S
C944 C938 1.428 . S
C944 N943 1.351 1_565 S
C944 C945 1.434 . S
C945 C936 1.429 . S
C945 N942 1.350 . S
C945 C944 1.434 . S
C946 C947 1.369 . S
C946 C948 1.419 . S
C946 H950 0.930 . S
C947 C946 1.369 . S
C947 C956 1.429 . S
C948 C946 1.419 . S
C948 C949 1.363 . S
C948 H951 0.929 . S
C949 C948 1.363 . S
C949 C955 1.428 . S
H950 C946 0.930 . S
H951 C948 0.929 . S
S952 N953 1.613 . S
S952 N954 1.610 . S
N953 S952 1.613 . S
N953 C956 1.350 . S
N954 S952 1.610 . S
N954 C955 1.351 . S
C955 C949 1.428 . S
C955 N954 1.351 . S
C955 C956 1.434 . S
C956 C947 1.429 . S
C956 N953 1.350 . S
C956 C955 1.434 . S
C957 C958 1.369 . S
C957 C959 1.419 . S
C957 H961 0.930 . S
C958 C957 1.369 . S
C958 C967 1.429 . S
C959 C957 1.419 . S
C959 C960 1.363 . S
C959 H962 0.929 . S
C960 C959 1.363 . S
C960 C966 1.428 . S
H961 C957 0.930 . S
H962 C959 0.929 . S
S963 N964 1.613 . S
S963 N965 1.610 . S
N964 S963 1.613 . S
N964 C967 1.350 . S
N965 S963 1.610 . S
N965 C966 1.351 . S
C966 C960 1.428 . S
C966 N965 1.351 . S
C966 C967 1.434 . S
C967 C958 1.429 . S
C967 N964 1.350 . S
C967 C966 1.434 . S
C968 C969 1.369 1_655 S
C968 C970 1.419 . S
C968 H972 0.930 . S
C969 C968 1.369 1_455 S
C969 C978 1.429 . S
C970 C968 1.419 . S
C970 C971 1.363 1_655 S
C970 H973 0.929 . S
C971 C970 1.363 1_455 S
C971 C977 1.428 . S
H972 C968 0.930 . S
H973 C970 0.929 . S
S974 N975 1.613 . S
S974 N976 1.610 . S
N975 S974 1.613 . S
N975 C978 1.350 . S
N976 S974 1.610 . S
N976 C977 1.351 . S
C977 C971 1.428 . S
C977 N976 1.351 . S
C977 C978 1.434 . S
C978 C969 1.429 . S
C978 N975 1.350 . S
C978 C977 1.434 . S
C979 C980 1.369 . S
C979 C981 1.419 . S
C979 H983 0.930 . S
C980 C979 1.369 . S
C980 C989 1.429 . S
C981 C979 1.419 . S
C981 C982 1.363 . S
C981 H984 0.929 . S
C982 C981 1.363 . S
C982 C988 1.428 . S
H983 C979 0.930 . S
H984 C981 0.929 . S
S985 N986 1.613 . S
S985 N987 1.610 . S
N986 S985 1.613 . S
N986 C989 1.350 . S
N987 S985 1.610 . S
N987 C988 1.351 . S
C988 C982 1.428 . S
C988 N987 1.351 . S
C988 C989 1.434 . S
C989 C980 1.429 . S
C989 N986 1.350 . S
C989 C988 1.434 . S
C990 C991 1.369 . S
C990 C992 1.419 . S
C990 H994 0.930 . S
C991 C990 1.369 . S
C991 C1000 1.429 . S
C992 C990 1.419 . S
C992 C993 1.363 . S
C992 H995 0.929 . S
C993 C992 1.363 . S
C993 C999 1.428 . S
H994 C990 0.930 . S
H995 C992 0.929 . S
S996 N997 1.613 . S
S996 N998 1.610 . S
N997 S996 1.613 . S
N997 C1000 1.350 . S
N998 S996 1.610 . S
N998 C999 1.351 . S
C999 C993 1.428 . S
C999 N998 1.351 . S
C999 C1000 1.434 . S
C1000 C991 1.429 . S
C1000 N997 1.350 . S
C1000 C999 1.434 . S
C1001 C1002 1.369 . S
C1001 C1003 1.419 . S
C1001 H1005 0.930 . S
C1002 C1001 1.369 . S
C1002 C1011 1.429 . S
C1003 C1001 1.419 . S
C1003 C1004 1.363 . S
C1003 H1006 0.929 . S
C1004 C1003 1.363 . S
C1004 C1010 1.428 . S
H1005 C1001 0.930 . S
H1006 C1003 0.929 . S
S1007 N1008 1.613 . S
S1007 N1009 1.610 . S
N1008 S1007 1.613 . S
N1008 C1011 1.350 . S
N1009 S1007 1.610 . S
N1009 C1010 1.351 . S
C1010 C1004 1.428 . S
C1010 N1009 1.351 . S
C1010 C1011 1.434 . S
C1011 C1002 1.429 . S
C1011 N1008 1.350 . S
C1011 C1010 1.434 . S
C1012 C1013 1.369 . S
C1012 C1014 1.419 . S
C1012 H1016 0.930 . S
C1013 C1012 1.369 . S
C1013 C1022 1.429 1_455 S
C1014 C1012 1.419 . S
C1014 C1015 1.363 . S
C1014 H1017 0.929 . S
C1015 C1014 1.363 . S
C1015 C1021 1.428 . S
H1016 C1012 0.930 . S
H1017 C1014 0.929 . S
S1018 N1019 1.613 . S
S1018 N1020 1.610 . S
N1019 S1018 1.613 . S
N1019 C1022 1.350 . S
N1020 S1018 1.610 . S
N1020 C1021 1.351 1_655 S
C1021 C1015 1.428 . S
C1021 N1020 1.351 1_455 S
C1021 C1022 1.434 1_455 S
C1022 C1013 1.429 1_655 S
C1022 N1019 1.350 . S
C1022 C1021 1.434 1_655 S
C1023 C1024 1.369 . S
C1023 C1025 1.419 . S
C1023 H1027 0.930 . S
C1024 C1023 1.369 . S
C1024 C1033 1.429 . S
C1025 C1023 1.419 . S
C1025 C1026 1.363 . S
C1025 H1028 0.929 . S
C1026 C1025 1.363 . S
C1026 C1032 1.428 . S
H1027 C1023 0.930 . S
H1028 C1025 0.929 . S
S1029 N1030 1.613 . S
S1029 N1031 1.610 . S
N1030 S1029 1.613 . S
N1030 C1033 1.350 . S
N1031 S1029 1.610 . S
N1031 C1032 1.351 . S
C1032 C1026 1.428 . S
C1032 N1031 1.351 . S
C1032 C1033 1.434 . S
C1033 C1024 1.429 . S
C1033 N1030 1.350 . S
C1033 C1032 1.434 . S
C1034 C1035 1.369 . S
C1034 C1036 1.419 . S
C1034 H1038 0.930 . S
C1035 C1034 1.369 . S
C1035 C1044 1.429 . S
C1036 C1034 1.419 . S
C1036 C1037 1.363 . S
C1036 H1039 0.929 . S
C1037 C1036 1.363 . S
C1037 C1043 1.428 . S
H1038 C1034 0.930 . S
H1039 C1036 0.929 . S
S1040 N1041 1.613 . S
S1040 N1042 1.610 . S
N1041 S1040 1.613 . S
N1041 C1044 1.350 . S
N1042 S1040 1.610 . S
N1042 C1043 1.351 . S
C1043 C1037 1.428 . S
C1043 N1042 1.351 . S
C1043 C1044 1.434 . S
C1044 C1035 1.429 . S
C1044 N1041 1.350 . S
C1044 C1043 1.434 . S
C1045 C1046 1.369 . S
C1045 C1047 1.419 . S
C1045 H1049 0.930 . S
C1046 C1045 1.369 . S
C1046 C1055 1.429 . S
C1047 C1045 1.419 . S
C1047 C1048 1.363 . S
C1047 H1050 0.929 . S
C1048 C1047 1.363 . S
C1048 C1054 1.428 . S
H1049 C1045 0.930 . S
H1050 C1047 0.929 . S
S1051 N1052 1.613 . S
S1051 N1053 1.610 . S
N1052 S1051 1.613 . S
N1052 C1055 1.350 . S
N1053 S1051 1.610 . S
N1053 C1054 1.351 . S
C1054 C1048 1.428 . S
C1054 N1053 1.351 . S
C1054 C1055 1.434 . S
C1055 C1046 1.429 . S
C1055 N1052 1.350 . S
C1055 C1054 1.434 . S
C1056 C1057 1.369 . S
C1056 C1058 1.419 . S
C1056 H1060 0.930 . S
C1057 C1056 1.369 . S
C1057 C1066 1.429 . S
C1058 C1056 1.419 . S
C1058 C1059 1.363 . S
C1058 H1061 0.929 . S
C1059 C1058 1.363 . S
C1059 C1065 1.428 . S
H1060 C1056 0.930 . S
H1061 C1058 0.929 . S
S1062 N1063 1.613 1_455 S
S1062 N1064 1.610 . S
N1063 S1062 1.613 1_655 S
N1063 C1066 1.350 . S
N1064 S1062 1.610 . S
N1064 C1065 1.351 1_455 S
C1065 C1059 1.428 . S
C1065 N1064 1.351 1_655 S
C1065 C1066 1.434 . S
C1066 C1057 1.429 . S
C1066 N1063 1.350 . S
C1066 C1065 1.434 . S
C1067 C1068 1.369 . S
C1067 C1069 1.419 . S
C1067 H1071 0.930 . S
C1068 C1067 1.369 . S
C1068 C1077 1.429 . S
C1069 C1067 1.419 . S
C1069 C1070 1.363 . S
C1069 H1072 0.929 . S
C1070 C1069 1.363 . S
C1070 C1076 1.428 . S
H1071 C1067 0.930 . S
H1072 C1069 0.929 . S
S1073 N1074 1.613 . S
S1073 N1075 1.610 . S
N1074 S1073 1.613 . S
N1074 C1077 1.350 . S
N1075 S1073 1.610 . S
N1075 C1076 1.351 . S
C1076 C1070 1.428 . S
C1076 N1075 1.351 . S
C1076 C1077 1.434 . S
C1077 C1068 1.429 . S
C1077 N1074 1.350 . S
C1077 C1076 1.434 . S
C1078 C1079 1.371 1_545 S
C1078 C1080 1.419 . S
C1078 H1082 0.930 . S
C1079 C1078 1.371 1_565 S
C1079 C1088 1.426 . S
C1080 C1078 1.419 . S
C1080 C1081 1.363 1_545 S
C1080 H1083 0.929 . S
C1081 C1080 1.363 1_565 S
C1081 C1087 1.428 . S
H1082 C1078 0.930 . S
H1083 C1080 0.929 . S
S1084 N1085 1.613 . S
S1084 N1086 1.610 . S
N1085 S1084 1.613 . S
N1085 C1088 1.350 . S
N1086 S1084 1.610 . S
N1086 C1087 1.351 . S
C1087 C1081 1.428 . S
C1087 N1086 1.351 . S
C1087 C1088 1.434 . S
C1088 C1079 1.426 . S
C1088 N1085 1.350 . S
C1088 C1087 1.434 . S
C1089 C1090 1.369 . S
C1089 C1091 1.419 . S
C1089 H1093 0.930 . S
C1090 C1089 1.369 . S
C1090 C1099 1.429 . S
C1091 C1089 1.419 . S
C1091 C1092 1.363 . S
C1091 H1094 0.929 . S
C1092 C1091 1.363 . S
C1092 C1098 1.428 . S
H1093 C1089 0.930 . S
H1094 C1091 0.929 . S
S1095 N1096 1.613 . S
S1095 N1097 1.610 . S
N1096 S1095 1.613 . S
N1096 C1099 1.350 . S
N1097 S1095 1.610 . S
N1097 C1098 1.351 . S
C1098 C1092 1.428 . S
C1098 N1097 1.351 . S
C1098 C1099 1.434 . S
C1099 C1090 1.429 . S
C1099 N1096 1.350 . S
C1099 C1098 1.434 . S
C1100 C1101 1.369 . S
C1100 C1102 1.419 . S
C1100 H1104 0.930 . S
C1101 C1100 1.369 . S
C1101 C1110 1.429 1_545 S
C1102 C1100 1.419 . S
C1102 C1103 1.363 1_545 S
C1102 H1105 0.929 . S
C1103 C1102 1.363 1_565 S
C1103 C1109 1.428 . S
H1104 C1100 0.930 . S
H1105 C1102 0.929 . S
S1106 N1107 1.613 . S
S1106 N1108 1.610 . S
N1107 S1106 1.613 . S
N1107 C1110 1.350 . S
N1108 S1106 1.610 . S
N1108 C1109 1.351 . S
C1109 C1103 1.428 . S
C1109 N1108 1.351 . S
C1109 C1110 1.434 . S
C1110 C1101 1.429 1_565 S
C1110 N1107 1.350 . S
C1110 C1109 1.434 . S
C1111 C1112 1.369 . S
C1111 C1113 1.419 . S
C1111 H1115 0.930 . S
C1112 C1111 1.369 . S
C1112 C1121 1.429 . S
C1113 C1111 1.419 . S
C1113 C1114 1.363 . S
C1113 H1116 0.929 . S
C1114 C1113 1.363 . S
C1114 C1120 1.428 . S
H1115 C1111 0.930 . S
H1116 C1113 0.929 . S
S1117 N1118 1.613 . S
S1117 N1119 1.610 . S
N1118 S1117 1.613 . S
N1118 C1121 1.350 . S
N1119 S1117 1.610 . S
N1119 C1120 1.351 . S
C1120 C1114 1.428 . S
C1120 N1119 1.351 . S
C1120 C1121 1.434 . S
C1121 C1112 1.429 . S
C1121 N1118 1.350 . S
C1121 C1120 1.434 . S
C1122 C1123 1.369 . S
C1122 C1124 1.419 . S
C1122 H1126 0.930 . S
C1123 C1122 1.369 . S
C1123 C1132 1.429 1_545 S
C1124 C1122 1.419 . S
C1124 C1125 1.363 . S
C1124 H1127 0.929 . S
C1125 C1124 1.363 . S
C1125 C1131 1.428 1_545 S
H1126 C1122 0.930 . S
H1127 C1124 0.929 . S
S1128 N1129 1.613 . S
S1128 N1130 1.610 . S
N1129 S1128 1.613 . S
N1129 C1132 1.350 . S
N1130 S1128 1.610 . S
N1130 C1131 1.351 . S
C1131 C1125 1.428 1_565 S
C1131 N1130 1.351 . S
C1131 C1132 1.434 . S
C1132 C1123 1.429 1_565 S
C1132 N1129 1.350 . S
C1132 C1131 1.434 . S
C1133 C1134 1.369 . S
C1133 C1135 1.419 . S
C1133 H1137 0.930 . S
C1134 C1133 1.369 . S
C1134 C1143 1.429 . S
C1135 C1133 1.419 . S
C1135 C1136 1.363 . S
C1135 H1138 0.929 . S
C1136 C1135 1.363 . S
C1136 C1142 1.428 . S
H1137 C1133 0.930 . S
H1138 C1135 0.929 . S
S1139 N1140 1.613 . S
S1139 N1141 1.610 . S
N1140 S1139 1.613 . S
N1140 C1143 1.350 . S
N1141 S1139 1.610 . S
N1141 C1142 1.351 . S
C1142 C1136 1.428 . S
C1142 N1141 1.351 . S
C1142 C1143 1.434 . S
C1143 C1134 1.429 . S
C1143 N1140 1.350 . S
C1143 C1142 1.434 . S
C1144 C1145 1.369 . S
C1144 C1146 1.419 . S
C1144 H1148 0.930 1_554 S
C1145 C1144 1.369 . S
C1145 C1154 1.429 . S
C1146 C1144 1.419 . S
C1146 C1147 1.363 . S
C1146 H1149 0.929 . S
C1147 C1146 1.363 . S
C1147 C1153 1.428 . S
H1148 C1144 0.930 1_556 S
H1149 C1146 0.929 . S
S1150 N1151 1.613 1_545 S
S1150 N1152 1.610 1_545 S
N1151 S1150 1.613 1_565 S
N1151 C1154 1.350 . S
N1152 S1150 1.610 1_565 S
N1152 C1153 1.351 . S
C1153 C1147 1.428 . S
C1153 N1152 1.351 . S
C1153 C1154 1.434 . S
C1154 C1145 1.429 . S
C1154 N1151 1.350 . S
C1154 C1153 1.434 . S
C1155 C1156 1.368 . S
C1155 C1157 1.419 . S
C1155 H1159 0.930 . S
C1156 C1155 1.368 . S
C1156 C1165 1.430 1_554 S
C1157 C1155 1.419 . S
C1157 C1158 1.363 1_554 S
C1157 H1160 0.929 . S
C1158 C1157 1.363 1_556 S
C1158 C1164 1.428 . S
H1159 C1155 0.930 . S
H1160 C1157 0.929 . S
S1161 N1162 1.613 . S
S1161 N1163 1.610 . S
N1162 S1161 1.613 . S
N1162 C1165 1.350 . S
N1163 S1161 1.610 . S
N1163 C1164 1.351 . S
C1164 C1158 1.428 . S
C1164 N1163 1.351 . S
C1164 C1165 1.434 . S
C1165 C1156 1.430 1_556 S
C1165 N1162 1.350 . S
C1165 C1164 1.434 . S
C1166 C1167 1.369 . S
C1166 C1168 1.419 . S
C1166 H1170 0.930 . S
C1167 C1166 1.369 . S
C1167 C1176 1.429 . S
C1168 C1166 1.419 . S
C1168 C1169 1.363 . S
C1168 H1171 0.929 . S
C1169 C1168 1.363 . S
C1169 C1175 1.428 . S
H1170 C1166 0.930 . S
H1171 C1168 0.929 . S
S1172 N1173 1.613 . S
S1172 N1174 1.610 . S
N1173 S1172 1.613 . S
N1173 C1176 1.350 . S
N1174 S1172 1.610 . S
N1174 C1175 1.351 . S
C1175 C1169 1.428 . S
C1175 N1174 1.351 . S
C1175 C1176 1.434 . S
C1176 C1167 1.429 . S
C1176 N1173 1.350 . S
C1176 C1175 1.434 . S
C1177 C1178 1.369 . S
C1177 C1179 1.419 . S
C1177 H1181 0.930 . S
C1178 C1177 1.369 . S
C1178 C1187 1.429 . S
C1179 C1177 1.419 . S
C1179 C1180 1.363 . S
C1179 H1182 0.929 . S
C1180 C1179 1.363 . S
C1180 C1186 1.428 . S
H1181 C1177 0.930 . S
H1182 C1179 0.929 . S
S1183 N1184 1.613 . S
S1183 N1185 1.610 . S
N1184 S1183 1.613 . S
N1184 C1187 1.350 . S
N1185 S1183 1.610 . S
N1185 C1186 1.351 . S
C1186 C1180 1.428 . S
C1186 N1185 1.351 . S
C1186 C1187 1.434 . S
C1187 C1178 1.429 . S
C1187 N1184 1.350 . S
C1187 C1186 1.434 . S
C1188 C1189 1.369 . S
C1188 C1190 1.419 . S
C1188 H1192 0.930 . S
C1189 C1188 1.369 . S
C1189 C1198 1.429 . S
C1190 C1188 1.419 . S
C1190 C1191 1.363 . S
C1190 H1193 0.929 . S
C1191 C1190 1.363 . S
C1191 C1197 1.428 . S
H1192 C1188 0.930 . S
H1193 C1190 0.929 . S
S1194 N1195 1.613 . S
S1194 N1196 1.610 . S
N1195 S1194 1.613 . S
N1195 C1198 1.350 . S
N1196 S1194 1.610 . S
N1196 C1197 1.351 . S
C1197 C1191 1.428 . S
C1197 N1196 1.351 . S
C1197 C1198 1.434 . S
C1198 C1189 1.429 . S
C1198 N1195 1.350 . S
C1198 C1197 1.434 . S
C1199 C1200 1.369 . S
C1199 C1201 1.419 . S
C1199 H1203 0.930 . S
C1200 C1199 1.369 . S
C1200 C1209 1.429 . S
C1201 C1199 1.419 . S
C1201 C1202 1.363 . S
C1201 H1204 0.929 . S
C1202 C1201 1.363 . S
C1202 C1208 1.428 . S
H1203 C1199 0.930 . S
H1204 C1201 0.929 . S
S1205 N1206 1.613 . S
S1205 N1207 1.610 . S
N1206 S1205 1.613 . S
N1206 C1209 1.350 . S
N1207 S1205 1.610 . S
N1207 C1208 1.351 . S
C1208 C1202 1.428 . S
C1208 N1207 1.351 . S
C1208 C1209 1.434 . S
C1209 C1200 1.429 . S
C1209 N1206 1.350 . S
C1209 C1208 1.434 . S
C1210 C1211 1.369 . S
C1210 C1212 1.419 . S
C1210 H1214 0.930 . S
C1211 C1210 1.369 . S
C1211 C1220 1.429 . S
C1212 C1210 1.419 . S
C1212 C1213 1.363 . S
C1212 H1215 0.929 . S
C1213 C1212 1.363 . S
C1213 C1219 1.428 . S
H1214 C1210 0.930 . S
H1215 C1212 0.929 . S
S1216 N1217 1.613 . S
S1216 N1218 1.610 . S
N1217 S1216 1.613 . S
N1217 C1220 1.350 . S
N1218 S1216 1.610 . S
N1218 C1219 1.351 . S
C1219 C1213 1.428 . S
C1219 N1218 1.351 . S
C1219 C1220 1.434 . S
C1220 C1211 1.429 . S
C1220 N1217 1.350 . S
C1220 C1219 1.434 . S
C1221 C1222 1.369 . S
C1221 C1223 1.419 . S
C1221 H1225 0.930 . S
C1222 C1221 1.369 . S
C1222 C1231 1.429 . S
C1223 C1221 1.419 . S
C1223 C1224 1.363 . S
C1223 H1226 0.929 . S
C1224 C1223 1.363 . S
C1224 C1230 1.428 . S
H1225 C1221 0.930 . S
H1226 C1223 0.929 . S
S1227 N1228 1.613 . S
S1227 N1229 1.610 . S
N1228 S1227 1.613 . S
N1228 C1231 1.350 . S
N1229 S1227 1.610 . S
N1229 C1230 1.351 . S
C1230 C1224 1.428 . S
C1230 N1229 1.351 . S
C1230 C1231 1.434 . S
C1231 C1222 1.429 . S
C1231 N1228 1.350 . S
C1231 C1230 1.434 . S
C1232 C1233 1.369 . S
C1232 C1234 1.419 . S
C1232 H1236 0.930 . S
C1233 C1232 1.369 . S
C1233 C1242 1.429 . S
C1234 C1232 1.419 . S
C1234 C1235 1.363 . S
C1234 H1237 0.929 . S
C1235 C1234 1.363 . S
C1235 C1241 1.428 . S
H1236 C1232 0.930 . S
H1237 C1234 0.929 . S
S1238 N1239 1.613 . S
S1238 N1240 1.610 . S
N1239 S1238 1.613 . S
N1239 C1242 1.350 . S
N1240 S1238 1.610 . S
N1240 C1241 1.351 . S
C1241 C1235 1.428 . S
C1241 N1240 1.351 . S
C1241 C1242 1.434 . S
C1242 C1233 1.429 . S
C1242 N1239 1.350 . S
C1242 C1241 1.434 . S
C1243 C1244 1.369 . S
C1243 C1245 1.419 . S
C1243 H1247 0.930 . S
C1244 C1243 1.369 . S
C1244 C1253 1.429 . S
C1245 C1243 1.419 . S
C1245 C1246 1.363 . S
C1245 H1248 0.929 . S
C1246 C1245 1.363 . S
C1246 C1252 1.428 . S
H1247 C1243 0.930 . S
H1248 C1245 0.929 . S
S1249 N1250 1.613 . S
S1249 N1251 1.610 . S
N1250 S1249 1.613 . S
N1250 C1253 1.350 . S
N1251 S1249 1.610 . S
N1251 C1252 1.351 . S
C1252 C1246 1.428 . S
C1252 N1251 1.351 . S
C1252 C1253 1.434 . S
C1253 C1244 1.429 . S
C1253 N1250 1.350 . S
C1253 C1252 1.434 . S
C1254 C1255 1.369 . S
C1254 C1256 1.419 . S
C1254 H1258 0.930 . S
C1255 C1254 1.369 . S
C1255 C1264 1.429 . S
C1256 C1254 1.419 . S
C1256 C1257 1.363 . S
C1256 H1259 0.929 . S
C1257 C1256 1.363 . S
C1257 C1263 1.428 . S
H1258 C1254 0.930 . S
H1259 C1256 0.929 . S
S1260 N1261 1.613 . S
S1260 N1262 1.610 . S
N1261 S1260 1.613 . S
N1261 C1264 1.350 . S
N1262 S1260 1.610 . S
N1262 C1263 1.351 . S
C1263 C1257 1.428 . S
C1263 N1262 1.351 . S
C1263 C1264 1.434 . S
C1264 C1255 1.429 . S
C1264 N1261 1.350 . S
C1264 C1263 1.434 . S
C1265 C1266 1.369 . S
C1265 C1267 1.419 . S
C1265 H1269 0.930 . S
C1266 C1265 1.369 . S
C1266 C1275 1.429 . S
C1267 C1265 1.419 . S
C1267 C1268 1.363 . S
C1267 H1270 0.929 . S
C1268 C1267 1.363 . S
C1268 C1274 1.428 . S
H1269 C1265 0.930 . S
H1270 C1267 0.929 . S
S1271 N1272 1.613 . S
S1271 N1273 1.610 . S
N1272 S1271 1.613 . S
N1272 C1275 1.350 . S
N1273 S1271 1.610 . S
N1273 C1274 1.351 . S
C1274 C1268 1.428 . S
C1274 N1273 1.351 . S
C1274 C1275 1.434 . S
C1275 C1266 1.429 . S
C1275 N1272 1.350 . S
C1275 C1274 1.434 . S
C1276 C1277 1.369 . S
C1276 C1278 1.419 . S
C1276 H1280 0.930 . S
C1277 C1276 1.369 . S
C1277 C1286 1.429 . S
C1278 C1276 1.419 . S
C1278 C1279 1.363 . S
C1278 H1281 0.929 1_556 S
C1279 C1278 1.363 . S
C1279 C1285 1.428 . S
H1280 C1276 0.930 . S
H1281 C1278 0.929 1_554 S
S1282 N1283 1.613 . S
S1282 N1284 1.610 . S
N1283 S1282 1.613 . S
N1283 C1286 1.350 . S
N1284 S1282 1.610 . S
N1284 C1285 1.351 . S
C1285 C1279 1.428 . S
C1285 N1284 1.351 . S
C1285 C1286 1.434 . S
C1286 C1277 1.429 . S
C1286 N1283 1.350 . S
C1286 C1285 1.434 . S
C1287 C1288 1.369 . S
C1287 C1289 1.419 . S
C1287 H1291 0.930 . S
C1288 C1287 1.369 . S
C1288 C1297 1.429 . S
C1289 C1287 1.419 . S
C1289 C1290 1.363 . S
C1289 H1292 0.929 . S
C1290 C1289 1.363 . S
C1290 C1296 1.428 . S
H1291 C1287 0.930 . S
H1292 C1289 0.929 . S
S1293 N1294 1.613 . S
S1293 N1295 1.610 . S
N1294 S1293 1.613 . S
N1294 C1297 1.350 . S
N1295 S1293 1.610 . S
N1295 C1296 1.351 . S
C1296 C1290 1.428 . S
C1296 N1295 1.351 . S
C1296 C1297 1.434 . S
C1297 C1288 1.429 . S
C1297 N1294 1.350 . S
C1297 C1296 1.434 . S
C1298 C1299 1.369 . S
C1298 C1300 1.419 . S
C1298 H1302 0.930 . S
C1299 C1298 1.369 . S
C1299 C1308 1.429 . S
C1300 C1298 1.419 . S
C1300 C1301 1.363 . S
C1300 H1303 0.929 . S
C1301 C1300 1.363 . S
C1301 C1307 1.428 . S
H1302 C1298 0.930 . S
H1303 C1300 0.929 . S
S1304 N1305 1.613 . S
S1304 N1306 1.610 . S
N1305 S1304 1.613 . S
N1305 C1308 1.350 . S
N1306 S1304 1.610 . S
N1306 C1307 1.351 . S
C1307 C1301 1.428 . S
C1307 N1306 1.351 . S
C1307 C1308 1.434 . S
C1308 C1299 1.429 . S
C1308 N1305 1.350 . S
C1308 C1307 1.434 . S
C1309 C1310 1.369 . S
C1309 C1311 1.419 . S
C1309 H1313 0.930 . S
C1310 C1309 1.369 . S
C1310 C1319 1.429 . S
C1311 C1309 1.419 . S
C1311 C1312 1.363 . S
C1311 H1314 0.929 . S
C1312 C1311 1.363 . S
C1312 C1318 1.428 . S
H1313 C1309 0.930 . S
H1314 C1311 0.929 . S
S1315 N1316 1.613 . S
S1315 N1317 1.610 . S
N1316 S1315 1.613 . S
N1316 C1319 1.350 . S
N1317 S1315 1.610 . S
N1317 C1318 1.351 . S
C1318 C1312 1.428 . S
C1318 N1317 1.351 . S
C1318 C1319 1.434 . S
C1319 C1310 1.429 . S
C1319 N1316 1.350 . S
C1319 C1318 1.434 . S
C1320 C1321 1.369 . S
C1320 C1322 1.419 . S
C1320 H1324 0.930 . S
C1321 C1320 1.369 . S
C1321 C1330 1.429 . S
C1322 C1320 1.419 . S
C1322 C1323 1.363 . S
C1322 H1325 0.929 . S
C1323 C1322 1.363 . S
C1323 C1329 1.428 . S
H1324 C1320 0.930 . S
H1325 C1322 0.929 . S
S1326 N1327 1.613 . S
S1326 N1328 1.610 . S
N1327 S1326 1.613 . S
N1327 C1330 1.350 . S
N1328 S1326 1.610 . S
N1328 C1329 1.351 . S
C1329 C1323 1.428 . S
C1329 N1328 1.351 . S
C1329 C1330 1.434 . S
C1330 C1321 1.429 . S
C1330 N1327 1.350 . S
C1330 C1329 1.434 . S
C1331 C1332 1.369 . S
C1331 C1333 1.419 . S
C1331 H1335 0.930 . S
C1332 C1331 1.369 . S
C1332 C1341 1.429 . S
C1333 C1331 1.419 . S
C1333 C1334 1.363 . S
C1333 H1336 0.929 . S
C1334 C1333 1.363 . S
C1334 C1340 1.428 . S
H1335 C1331 0.930 . S
H1336 C1333 0.929 . S
S1337 N1338 1.613 . S
S1337 N1339 1.610 . S
N1338 S1337 1.613 . S
N1338 C1341 1.350 . S
N1339 S1337 1.610 . S
N1339 C1340 1.351 . S
C1340 C1334 1.428 . S
C1340 N1339 1.351 . S
C1340 C1341 1.434 . S
C1341 C1332 1.429 . S
C1341 N1338 1.350 . S
C1341 C1340 1.434 . S
C1342 C1343 1.369 . S
C1342 C1344 1.419 . S
C1342 H1346 0.930 . S
C1343 C1342 1.369 . S
C1343 C1352 1.429 . S
C1344 C1342 1.419 . S
C1344 C1345 1.363 . S
C1344 H1347 0.929 . S
C1345 C1344 1.363 . S
C1345 C1351 1.428 . S
H1346 C1342 0.930 . S
H1347 C1344 0.929 . S
S1348 N1349 1.613 . S
S1348 N1350 1.610 . S
N1349 S1348 1.613 . S
N1349 C1352 1.350 . S
N1350 S1348 1.610 . S
N1350 C1351 1.351 . S
C1351 C1345 1.428 . S
C1351 N1350 1.351 . S
C1351 C1352 1.434 . S
C1352 C1343 1.429 . S
C1352 N1349 1.350 . S
C1352 C1351 1.434 . S
C1353 C1354 1.369 . S
C1353 C1355 1.419 . S
C1353 H1357 0.930 . S
C1354 C1353 1.369 . S
C1354 C1363 1.429 . S
C1355 C1353 1.419 . S
C1355 C1356 1.363 . S
C1355 H1358 0.929 . S
C1356 C1355 1.363 . S
C1356 C1362 1.428 . S
H1357 C1353 0.930 . S
H1358 C1355 0.929 . S
S1359 N1360 1.613 . S
S1359 N1361 1.610 . S
N1360 S1359 1.613 . S
N1360 C1363 1.350 . S
N1361 S1359 1.610 . S
N1361 C1362 1.351 . S
C1362 C1356 1.428 . S
C1362 N1361 1.351 . S
C1362 C1363 1.434 . S
C1363 C1354 1.429 . S
C1363 N1360 1.350 . S
C1363 C1362 1.434 . S
C1364 C1365 1.369 . S
C1364 C1366 1.419 . S
C1364 H1368 0.930 . S
C1365 C1364 1.369 . S
C1365 C1374 1.429 . S
C1366 C1364 1.419 . S
C1366 C1367 1.363 . S
C1366 H1369 0.929 . S
C1367 C1366 1.363 . S
C1367 C1373 1.428 . S
H1368 C1364 0.930 . S
H1369 C1366 0.929 . S
S1370 N1371 1.613 . S
S1370 N1372 1.610 . S
N1371 S1370 1.613 . S
N1371 C1374 1.350 . S
N1372 S1370 1.610 . S
N1372 C1373 1.351 . S
C1373 C1367 1.428 . S
C1373 N1372 1.351 . S
C1373 C1374 1.434 . S
C1374 C1365 1.429 . S
C1374 N1371 1.350 . S
C1374 C1373 1.434 . S
C1375 C1376 1.369 . S
C1375 C1377 1.419 . S
C1375 H1379 0.930 . S
C1376 C1375 1.369 . S
C1376 C1385 1.429 . S
C1377 C1375 1.419 . S
C1377 C1378 1.363 . S
C1377 H1380 0.929 . S
C1378 C1377 1.363 . S
C1378 C1384 1.428 . S
H1379 C1375 0.930 . S
H1380 C1377 0.929 . S
S1381 N1382 1.613 . S
S1381 N1383 1.610 . S
N1382 S1381 1.613 . S
N1382 C1385 1.350 . S
N1383 S1381 1.610 . S
N1383 C1384 1.351 . S
C1384 C1378 1.428 . S
C1384 N1383 1.351 . S
C1384 C1385 1.434 . S
C1385 C1376 1.429 . S
C1385 N1382 1.350 . S
C1385 C1384 1.434 . S
C1386 C1387 1.369 . S
C1386 C1388 1.419 . S
C1386 H1390 0.930 . S
C1387 C1386 1.369 . S
C1387 C1396 1.429 . S
C1388 C1386 1.419 . S
C1388 C1389 1.363 . S
C1388 H1391 0.929 . S
C1389 C1388 1.363 . S
C1389 C1395 1.428 . S
H1390 C1386 0.930 . S
H1391 C1388 0.929 . S
S1392 N1393 1.613 . S
S1392 N1394 1.610 . S
N1393 S1392 1.613 . S
N1393 C1396 1.350 . S
N1394 S1392 1.610 . S
N1394 C1395 1.351 . S
C1395 C1389 1.428 . S
C1395 N1394 1.351 . S
C1395 C1396 1.434 . S
C1396 C1387 1.429 . S
C1396 N1393 1.350 . S
C1396 C1395 1.434 . S
C1397 C1398 1.369 . S
C1397 C1399 1.419 . S
C1397 H1401 0.930 . S
C1398 C1397 1.369 . S
C1398 C1407 1.429 . S
C1399 C1397 1.419 . S
C1399 C1400 1.363 . S
C1399 H1402 0.929 . S
C1400 C1399 1.363 . S
C1400 C1406 1.428 . S
H1401 C1397 0.930 . S
H1402 C1399 0.929 . S
S1403 N1404 1.613 . S
S1403 N1405 1.610 . S
N1404 S1403 1.613 . S
N1404 C1407 1.350 . S
N1405 S1403 1.610 . S
N1405 C1406 1.351 . S
C1406 C1400 1.428 . S
C1406 N1405 1.351 . S
C1406 C1407 1.434 . S
C1407 C1398 1.429 . S
C1407 N1404 1.350 . S
C1407 C1406 1.434 . S
C1408 C1409 1.369 . S
C1408 C1410 1.419 . S
C1408 H1412 0.930 . S
C1409 C1408 1.369 . S
C1409 C1418 1.429 . S
C1410 C1408 1.419 . S
C1410 C1411 1.363 . S
C1410 H1413 0.929 . S
C1411 C1410 1.363 . S
C1411 C1417 1.428 . S
H1412 C1408 0.930 . S
H1413 C1410 0.929 . S
S1414 N1415 1.613 . S
S1414 N1416 1.610 . S
N1415 S1414 1.613 . S
N1415 C1418 1.350 . S
N1416 S1414 1.610 . S
N1416 C1417 1.351 . S
C1417 C1411 1.428 . S
C1417 N1416 1.351 . S
C1417 C1418 1.434 . S
C1418 C1409 1.429 . S
C1418 N1415 1.350 . S
C1418 C1417 1.434 . S
C1419 C1420 1.369 . S
C1419 C1421 1.419 . S
C1419 H1423 0.930 . S
C1420 C1419 1.369 . S
C1420 C1429 1.429 . S
C1421 C1419 1.419 . S
C1421 C1422 1.363 . S
C1421 H1424 0.929 . S
C1422 C1421 1.363 . S
C1422 C1428 1.428 . S
H1423 C1419 0.930 . S
H1424 C1421 0.929 . S
S1425 N1426 1.613 . S
S1425 N1427 1.610 . S
N1426 S1425 1.613 . S
N1426 C1429 1.350 . S
N1427 S1425 1.610 . S
N1427 C1428 1.351 . S
C1428 C1422 1.428 . S
C1428 N1427 1.351 . S
C1428 C1429 1.434 . S
C1429 C1420 1.429 . S
C1429 N1426 1.350 . S
C1429 C1428 1.434 . S
C1430 C1431 1.369 . S
C1430 C1432 1.419 . S
C1430 H1434 0.930 . S
C1431 C1430 1.369 . S
C1431 C1440 1.429 . S
C1432 C1430 1.419 . S
C1432 C1433 1.363 . S
C1432 H1435 0.929 . S
C1433 C1432 1.363 . S
C1433 C1439 1.428 . S
H1434 C1430 0.930 . S
H1435 C1432 0.929 . S
S1436 N1437 1.613 . S
S1436 N1438 1.610 . S
N1437 S1436 1.613 . S
N1437 C1440 1.350 . S
N1438 S1436 1.610 . S
N1438 C1439 1.351 . S
C1439 C1433 1.428 . S
C1439 N1438 1.351 . S
C1439 C1440 1.434 . S
C1440 C1431 1.429 . S
C1440 N1437 1.350 . S
C1440 C1439 1.434 . S
C1441 C1442 1.369 . S
C1441 C1443 1.419 . S
C1441 H1445 0.930 . S
C1442 C1441 1.369 . S
C1442 C1451 1.429 . S
C1443 C1441 1.419 . S
C1443 C1444 1.363 . S
C1443 H1446 0.929 . S
C1444 C1443 1.363 . S
C1444 C1450 1.428 . S
H1445 C1441 0.930 . S
H1446 C1443 0.929 . S
S1447 N1448 1.613 . S
S1447 N1449 1.610 . S
N1448 S1447 1.613 . S
N1448 C1451 1.350 . S
N1449 S1447 1.610 . S
N1449 C1450 1.351 . S
C1450 C1444 1.428 . S
C1450 N1449 1.351 . S
C1450 C1451 1.434 . S
C1451 C1442 1.429 . S
C1451 N1448 1.350 . S
C1451 C1450 1.434 . S
C1452 C1453 1.369 . S
C1452 C1454 1.419 . S
C1452 H1456 0.930 . S
C1453 C1452 1.369 . S
C1453 C1462 1.429 . S
C1454 C1452 1.419 . S
C1454 C1455 1.363 . S
C1454 H1457 0.929 . S
C1455 C1454 1.363 . S
C1455 C1461 1.428 . S
H1456 C1452 0.930 . S
H1457 C1454 0.929 . S
S1458 N1459 1.613 . S
S1458 N1460 1.610 . S
N1459 S1458 1.613 . S
N1459 C1462 1.350 . S
N1460 S1458 1.610 . S
N1460 C1461 1.351 . S
C1461 C1455 1.428 . S
C1461 N1460 1.351 . S
C1461 C1462 1.434 . S
C1462 C1453 1.429 . S
C1462 N1459 1.350 . S
C1462 C1461 1.434 . S
C1463 C1464 1.369 1_556 S
C1463 C1465 1.419 . S
C1463 H1467 0.930 . S
C1464 C1463 1.369 1_554 S
C1464 C1473 1.429 . S
C1465 C1463 1.419 . S
C1465 C1466 1.363 . S
C1465 H1468 0.929 . S
C1466 C1465 1.363 . S
C1466 C1472 1.424 1_556 S
H1467 C1463 0.930 . S
H1468 C1465 0.929 . S
S1469 N1470 1.613 . S
S1469 N1471 1.610 . S
N1470 S1469 1.613 . S
N1470 C1473 1.350 . S
N1471 S1469 1.610 . S
N1471 C1472 1.351 . S
C1472 C1466 1.424 1_554 S
C1472 N1471 1.351 . S
C1472 C1473 1.439 . S
C1473 C1464 1.429 . S
C1473 N1470 1.350 . S
C1473 C1472 1.439 . S
C1474 C1475 1.369 . S
C1474 C1476 1.419 . S
C1474 H1478 0.930 . S
C1475 C1474 1.369 . S
C1475 C1484 1.429 . S
C1476 C1474 1.419 . S
C1476 C1477 1.363 . S
C1476 H1479 0.929 . S
C1477 C1476 1.363 . S
C1477 C1483 1.428 . S
H1478 C1474 0.930 . S
H1479 C1476 0.929 . S
S1480 N1481 1.613 . S
S1480 N1482 1.610 . S
N1481 S1480 1.613 . S
N1481 C1484 1.350 . S
N1482 S1480 1.610 . S
N1482 C1483 1.351 . S
C1483 C1477 1.428 . S
C1483 N1482 1.351 . S
C1483 C1484 1.434 . S
C1484 C1475 1.429 . S
C1484 N1481 1.350 . S
C1484 C1483 1.434 . S
C1485 C1486 1.369 . S
C1485 C1487 1.419 . S
C1485 H1489 0.930 . S
C1486 C1485 1.369 . S
C1486 C1495 1.429 . S
C1487 C1485 1.419 . S
C1487 C1488 1.363 . S
C1487 H1490 0.929 . S
C1488 C1487 1.363 . S
C1488 C1494 1.428 . S
H1489 C1485 0.930 . S
H1490 C1487 0.929 . S
S1491 N1492 1.613 . S
S1491 N1493 1.610 . S
N1492 S1491 1.613 . S
N1492 C1495 1.350 . S
N1493 S1491 1.610 . S
N1493 C1494 1.351 . S
C1494 C1488 1.428 . S
C1494 N1493 1.351 . S
C1494 C1495 1.434 . S
C1495 C1486 1.429 . S
C1495 N1492 1.350 . S
C1495 C1494 1.434 . S
C1496 C1497 1.369 . S
C1496 C1498 1.419 . S
C1496 H1500 0.930 . S
C1497 C1496 1.369 . S
C1497 C1506 1.429 . S
C1498 C1496 1.419 . S
C1498 C1499 1.363 . S
C1498 H1501 0.929 . S
C1499 C1498 1.363 . S
C1499 C1505 1.428 . S
H1500 C1496 0.930 . S
H1501 C1498 0.929 . S
S1502 N1503 1.613 . S
S1502 N1504 1.610 . S
N1503 S1502 1.613 . S
N1503 C1506 1.350 . S
N1504 S1502 1.610 . S
N1504 C1505 1.351 . S
C1505 C1499 1.428 . S
C1505 N1504 1.351 . S
C1505 C1506 1.434 . S
C1506 C1497 1.429 . S
C1506 N1503 1.350 . S
C1506 C1505 1.434 . S
C1507 C1508 1.369 . S
C1507 C1509 1.419 . S
C1507 H1511 0.930 . S
C1508 C1507 1.369 . S
C1508 C1517 1.429 . S
C1509 C1507 1.419 . S
C1509 C1510 1.363 . S
C1509 H1512 0.929 . S
C1510 C1509 1.363 . S
C1510 C1516 1.428 . S
H1511 C1507 0.930 . S
H1512 C1509 0.929 . S
S1513 N1514 1.613 . S
S1513 N1515 1.610 . S
N1514 S1513 1.613 . S
N1514 C1517 1.350 . S
N1515 S1513 1.610 . S
N1515 C1516 1.351 . S
C1516 C1510 1.428 . S
C1516 N1515 1.351 . S
C1516 C1517 1.434 . S
C1517 C1508 1.429 . S
C1517 N1514 1.350 . S
C1517 C1516 1.434 . S
C1518 C1519 1.369 . S
C1518 C1520 1.419 . S
C1518 H1522 0.930 . S
C1519 C1518 1.369 . S
C1519 C1528 1.429 1_455 S
C1520 C1518 1.419 . S
C1520 C1521 1.363 1_455 S
C1520 H1523 0.929 . S
C1521 C1520 1.363 1_655 S
C1521 C1527 1.428 . S
H1522 C1518 0.930 . S
H1523 C1520 0.929 . S
S1524 N1525 1.613 . S
S1524 N1526 1.610 1_556 S
N1525 S1524 1.613 . S
N1525 C1528 1.350 . S
N1526 S1524 1.610 1_554 S
N1526 C1527 1.349 1_554 S
C1527 C1521 1.428 . S
C1527 N1526 1.349 1_556 S
C1527 C1528 1.434 . S
C1528 C1519 1.429 1_655 S
C1528 N1525 1.350 . S
C1528 C1527 1.434 . S
C1529 C1530 1.369 . S
C1529 C1531 1.419 . S
C1529 H1533 0.930 . S
C1530 C1529 1.369 . S
C1530 C1539 1.429 . S
C1531 C1529 1.419 . S
C1531 C1532 1.363 . S
C1531 H1534 0.929 . S
C1532 C1531 1.363 . S
C1532 C1538 1.428 . S
H1533 C1529 0.930 . S
H1534 C1531 0.929 . S
S1535 N1536 1.613 . S
S1535 N1537 1.610 . S
N1536 S1535 1.613 . S
N1536 C1539 1.350 . S
N1537 S1535 1.610 . S
N1537 C1538 1.351 . S
C1538 C1532 1.428 . S
C1538 N1537 1.351 . S
C1538 C1539 1.434 . S
C1539 C1530 1.429 . S
C1539 N1536 1.350 . S
C1539 C1538 1.434 . S
C1540 C1541 1.369 . S
C1540 C1542 1.419 . S
C1540 H1544 0.930 . S
C1541 C1540 1.369 . S
C1541 C1550 1.429 . S
C1542 C1540 1.419 . S
C1542 C1543 1.363 . S
C1542 H1545 0.929 . S
C1543 C1542 1.363 . S
C1543 C1549 1.428 . S
H1544 C1540 0.930 . S
H1545 C1542 0.929 . S
S1546 N1547 1.613 . S
S1546 N1548 1.610 . S
N1547 S1546 1.613 . S
N1547 C1550 1.350 . S
N1548 S1546 1.610 . S
N1548 C1549 1.351 . S
C1549 C1543 1.428 . S
C1549 N1548 1.351 . S
C1549 C1550 1.434 . S
C1550 C1541 1.429 . S
C1550 N1547 1.350 . S
C1550 C1549 1.434 . S
C1551 C1552 1.369 . S
C1551 C1553 1.419 . S
C1551 H1555 0.930 . S
C1552 C1551 1.369 . S
C1552 C1561 1.429 . S
C1553 C1551 1.419 . S
C1553 C1554 1.363 . S
C1553 H1556 0.929 . S
C1554 C1553 1.363 . S
C1554 C1560 1.428 . S
H1555 C1551 0.930 . S
H1556 C1553 0.929 . S
S1557 N1558 1.613 . S
S1557 N1559 1.610 . S
N1558 S1557 1.613 . S
N1558 C1561 1.350 . S
N1559 S1557 1.610 . S
N1559 C1560 1.351 . S
C1560 C1554 1.428 . S
C1560 N1559 1.351 . S
C1560 C1561 1.434 . S
C1561 C1552 1.429 . S
C1561 N1558 1.350 . S
C1561 C1560 1.434 . S
C1562 C1563 1.369 . S
C1562 C1564 1.419 . S
C1562 H1566 0.930 . S
C1563 C1562 1.369 . S
C1563 C1572 1.429 1_455 S
C1564 C1562 1.419 . S
C1564 C1565 1.363 1_455 S
C1564 H1567 0.929 . S
C1565 C1564 1.363 1_655 S
C1565 C1571 1.428 . S
H1566 C1562 0.930 . S
H1567 C1564 0.929 . S
S1568 N1569 1.613 . S
S1568 N1570 1.610 . S
N1569 S1568 1.613 . S
N1569 C1572 1.350 . S
N1570 S1568 1.610 . S
N1570 C1571 1.351 . S
C1571 C1565 1.428 . S
C1571 N1570 1.351 . S
C1571 C1572 1.434 . S
C1572 C1563 1.429 1_655 S
C1572 N1569 1.350 . S
C1572 C1571 1.434 . S
C1573 C1574 1.369 . S
C1573 C1575 1.419 . S
C1573 H1577 0.930 . S
C1574 C1573 1.369 . S
C1574 C1583 1.429 . S
C1575 C1573 1.419 . S
C1575 C1576 1.363 . S
C1575 H1578 0.929 . S
C1576 C1575 1.363 . S
C1576 C1582 1.428 . S
H1577 C1573 0.930 . S
H1578 C1575 0.929 . S
S1579 N1580 1.613 . S
S1579 N1581 1.610 . S
N1580 S1579 1.613 . S
N1580 C1583 1.350 . S
N1581 S1579 1.610 . S
N1581 C1582 1.351 . S
C1582 C1576 1.428 . S
C1582 N1581 1.351 . S
C1582 C1583 1.434 . S
C1583 C1574 1.429 . S
C1583 N1580 1.350 . S
C1583 C1582 1.434 . S
C1584 C1585 1.369 . S
C1584 C1586 1.419 . S
C1584 H1588 0.930 . S
C1585 C1584 1.369 . S
C1585 C1594 1.429 . S
C1586 C1584 1.419 . S
C1586 C1587 1.363 . S
C1586 H1589 0.929 . S
C1587 C1586 1.363 . S
C1587 C1593 1.428 . S
H1588 C1584 0.930 . S
H1589 C1586 0.929 . S
S1590 N1591 1.613 . S
S1590 N1592 1.610 . S
N1591 S1590 1.613 . S
N1591 C1594 1.350 . S
N1592 S1590 1.610 . S
N1592 C1593 1.351 . S
C1593 C1587 1.428 . S
C1593 N1592 1.351 . S
C1593 C1594 1.434 . S
C1594 C1585 1.429 . S
C1594 N1591 1.350 . S
C1594 C1593 1.434 . S
C1595 C1596 1.369 . S
C1595 C1597 1.419 . S
C1595 H1599 0.930 . S
C1596 C1595 1.369 . S
C1596 C1605 1.429 . S
C1597 C1595 1.419 . S
C1597 C1598 1.363 . S
C1597 H1600 0.929 . S
C1598 C1597 1.363 . S
C1598 C1604 1.428 . S
H1599 C1595 0.930 . S
H1600 C1597 0.929 . S
S1601 N1602 1.613 . S
S1601 N1603 1.610 . S
N1602 S1601 1.613 . S
N1602 C1605 1.350 . S
N1603 S1601 1.610 . S
N1603 C1604 1.351 . S
C1604 C1598 1.428 . S
C1604 N1603 1.351 . S
C1604 C1605 1.434 . S
C1605 C1596 1.429 . S
C1605 N1602 1.350 . S
C1605 C1604 1.434 . S
C1606 C1607 1.369 . S
C1606 C1608 1.419 . S
C1606 H1610 0.930 . S
C1607 C1606 1.369 . S
C1607 C1616 1.429 . S
C1608 C1606 1.419 . S
C1608 C1609 1.363 . S
C1608 H1611 0.929 . S
C1609 C1608 1.363 . S
C1609 C1615 1.428 . S
H1610 C1606 0.930 . S
H1611 C1608 0.929 . S
S1612 N1613 1.613 . S
S1612 N1614 1.610 . S
N1613 S1612 1.613 . S
N1613 C1616 1.350 . S
N1614 S1612 1.610 . S
N1614 C1615 1.351 . S
C1615 C1609 1.428 . S
C1615 N1614 1.351 . S
C1615 C1616 1.434 . S
C1616 C1607 1.429 . S
C1616 N1613 1.350 . S
C1616 C1615 1.434 . S
C1617 C1618 1.369 . S
C1617 C1619 1.419 . S
C1617 H1621 0.930 . S
C1618 C1617 1.369 . S
C1618 C1627 1.429 . S
C1619 C1617 1.419 . S
C1619 C1620 1.363 . S
C1619 H1622 0.929 . S
C1620 C1619 1.363 . S
C1620 C1626 1.428 . S
H1621 C1617 0.930 . S
H1622 C1619 0.929 . S
S1623 N1624 1.613 . S
S1623 N1625 1.610 . S
N1624 S1623 1.613 . S
N1624 C1627 1.350 . S
N1625 S1623 1.610 . S
N1625 C1626 1.351 . S
C1626 C1620 1.428 . S
C1626 N1625 1.351 . S
C1626 C1627 1.434 . S
C1627 C1618 1.429 . S
C1627 N1624 1.350 . S
C1627 C1626 1.434 . S
C1628 C1629 1.369 . S
C1628 C1630 1.419 . S
C1628 H1632 0.930 . S
C1629 C1628 1.369 . S
C1629 C1638 1.429 . S
C1630 C1628 1.419 . S
C1630 C1631 1.363 . S
C1630 H1633 0.929 . S
C1631 C1630 1.363 . S
C1631 C1637 1.428 . S
H1632 C1628 0.930 . S
H1633 C1630 0.929 . S
S1634 N1635 1.613 . S
S1634 N1636 1.610 . S
N1635 S1634 1.613 . S
N1635 C1638 1.350 . S
N1636 S1634 1.610 . S
N1636 C1637 1.351 . S
C1637 C1631 1.428 . S
C1637 N1636 1.351 . S
C1637 C1638 1.434 . S
C1638 C1629 1.429 . S
C1638 N1635 1.350 . S
C1638 C1637 1.434 . S
C1639 C1640 1.369 . S
C1639 C1641 1.419 . S
C1639 H1643 0.930 . S
C1640 C1639 1.369 . S
C1640 C1649 1.429 . S
C1641 C1639 1.419 . S
C1641 C1642 1.363 . S
C1641 H1644 0.929 . S
C1642 C1641 1.363 . S
C1642 C1648 1.428 . S
H1643 C1639 0.930 . S
H1644 C1641 0.929 . S
S1645 N1646 1.613 . S
S1645 N1647 1.610 . S
N1646 S1645 1.613 . S
N1646 C1649 1.350 . S
N1647 S1645 1.610 . S
N1647 C1648 1.351 . S
C1648 C1642 1.428 . S
C1648 N1647 1.351 . S
C1648 C1649 1.434 . S
C1649 C1640 1.429 . S
C1649 N1646 1.350 . S
C1649 C1648 1.434 . S
C1650 C1651 1.369 . S
C1650 C1652 1.419 . S
C1650 H1654 0.930 . S
C1651 C1650 1.369 . S
C1651 C1660 1.429 . S
C1652 C1650 1.419 . S
C1652 C1653 1.363 . S
C1652 H1655 0.929 . S
C1653 C1652 1.363 . S
C1653 C1659 1.428 . S
H1654 C1650 0.930 . S
H1655 C1652 0.929 . S
S1656 N1657 1.613 . S
S1656 N1658 1.610 . S
N1657 S1656 1.613 . S
N1657 C1660 1.350 . S
N1658 S1656 1.610 . S
N1658 C1659 1.351 . S
C1659 C1653 1.428 . S
C1659 N1658 1.351 . S
C1659 C1660 1.434 . S
C1660 C1651 1.429 . S
C1660 N1657 1.350 . S
C1660 C1659 1.434 . S
C1661 C1662 1.369 . S
C1661 C1663 1.419 . S
C1661 H1665 0.930 . S
C1662 C1661 1.369 . S
C1662 C1671 1.429 . S
C1663 C1661 1.419 . S
C1663 C1664 1.363 . S
C1663 H1666 0.929 . S
C1664 C1663 1.363 . S
C1664 C1670 1.428 . S
H1665 C1661 0.930 . S
H1666 C1663 0.929 . S
S1667 N1668 1.613 . S
S1667 N1669 1.610 . S
N1668 S1667 1.613 . S
N1668 C1671 1.350 . S
N1669 S1667 1.610 . S
N1669 C1670 1.351 . S
C1670 C1664 1.428 . S
C1670 N1669 1.351 . S
C1670 C1671 1.434 . S
C1671 C1662 1.429 . S
C1671 N1668 1.350 . S
C1671 C1670 1.434 . S
C1672 C1673 1.369 . S
C1672 C1674 1.419 . S
C1672 H1676 0.930 . S
C1673 C1672 1.369 . S
C1673 C1682 1.429 . S
C1674 C1672 1.419 . S
C1674 C1675 1.363 . S
C1674 H1677 0.929 . S
C1675 C1674 1.363 . S
C1675 C1681 1.428 . S
H1676 C1672 0.930 . S
H1677 C1674 0.929 . S
S1678 N1679 1.613 . S
S1678 N1680 1.610 . S
N1679 S1678 1.613 . S
N1679 C1682 1.350 . S
N1680 S1678 1.610 . S
N1680 C1681 1.351 . S
C1681 C1675 1.428 . S
C1681 N1680 1.351 . S
C1681 C1682 1.434 . S
C1682 C1673 1.429 . S
C1682 N1679 1.350 . S
C1682 C1681 1.434 . S
C1683 C1684 1.369 . S
C1683 C1685 1.419 . S
C1683 H1687 0.930 . S
C1684 C1683 1.369 . S
C1684 C1693 1.429 . S
C1685 C1683 1.419 . S
C1685 C1686 1.363 . S
C1685 H1688 0.929 . S
C1686 C1685 1.363 . S
C1686 C1692 1.428 . S
H1687 C1683 0.930 . S
H1688 C1685 0.929 . S
S1689 N1690 1.613 . S
S1689 N1691 1.610 . S
N1690 S1689 1.613 . S
N1690 C1693 1.350 . S
N1691 S1689 1.610 . S
N1691 C1692 1.351 . S
C1692 C1686 1.428 . S
C1692 N1691 1.351 . S
C1692 C1693 1.434 . S
C1693 C1684 1.429 . S
C1693 N1690 1.350 . S
C1693 C1692 1.434 . S
C1694 C1695 1.369 . S
C1694 C1696 1.419 . S
C1694 H1698 0.930 . S
C1695 C1694 1.369 . S
C1695 C1704 1.429 . S
C1696 C1694 1.419 . S
C1696 C1697 1.363 . S
C1696 H1699 0.929 . S
C1697 C1696 1.363 . S
C1697 C1703 1.428 . S
H1698 C1694 0.930 . S
H1699 C1696 0.929 . S
S1700 N1701 1.613 . S
S1700 N1702 1.610 . S
N1701 S1700 1.613 . S
N1701 C1704 1.350 . S
N1702 S1700 1.610 . S
N1702 C1703 1.351 . S
C1703 C1697 1.428 . S
C1703 N1702 1.351 . S
C1703 C1704 1.434 . S
C1704 C1695 1.429 . S
C1704 N1701 1.350 . S
C1704 C1703 1.434 . S
C1705 C1706 1.369 . S
C1705 C1707 1.419 . S
C1705 H1709 0.930 . S
C1706 C1705 1.369 . S
C1706 C1715 1.429 1_556 S
C1707 C1705 1.419 . S
C1707 C1708 1.363 . S
C1707 H1710 0.929 . S
C1708 C1707 1.363 . S
C1708 C1714 1.428 1_556 S
H1709 C1705 0.930 . S
H1710 C1707 0.929 . S
S1711 N1712 1.613 . S
S1711 N1713 1.610 . S
N1712 S1711 1.613 . S
N1712 C1715 1.350 . S
N1713 S1711 1.610 . S
N1713 C1714 1.351 . S
C1714 C1708 1.428 1_554 S
C1714 N1713 1.351 . S
C1714 C1715 1.434 . S
C1715 C1706 1.429 1_554 S
C1715 N1712 1.350 . S
C1715 C1714 1.434 . S
C1716 C1717 1.369 . S
C1716 C1718 1.419 . S
C1716 H1720 0.930 . S
C1717 C1716 1.369 . S
C1717 C1726 1.429 . S
C1718 C1716 1.419 . S
C1718 C1719 1.363 . S
C1718 H1721 0.929 . S
C1719 C1718 1.363 . S
C1719 C1725 1.428 . S
H1720 C1716 0.930 . S
H1721 C1718 0.929 . S
S1722 N1723 1.613 . S
S1722 N1724 1.610 . S
N1723 S1722 1.613 . S
N1723 C1726 1.350 . S
N1724 S1722 1.610 . S
N1724 C1725 1.351 . S
C1725 C1719 1.428 . S
C1725 N1724 1.351 . S
C1725 C1726 1.434 . S
C1726 C1717 1.429 . S
C1726 N1723 1.350 . S
C1726 C1725 1.434 . S
C1727 C1728 1.369 1_556 S
C1727 C1729 1.419 1_556 S
C1727 H1731 0.930 . S
C1728 C1727 1.369 1_554 S
C1728 C1737 1.429 . S
C1729 C1727 1.419 1_554 S
C1729 C1730 1.363 . S
C1729 H1732 0.929 1_554 S
C1730 C1729 1.363 . S
C1730 C1736 1.428 . S
H1731 C1727 0.930 . S
H1732 C1729 0.929 1_556 S
S1733 N1734 1.613 . S
S1733 N1735 1.610 . S
N1734 S1733 1.613 . S
N1734 C1737 1.350 . S
N1735 S1733 1.610 . S
N1735 C1736 1.351 . S
C1736 C1730 1.428 . S
C1736 N1735 1.351 . S
C1736 C1737 1.434 . S
C1737 C1728 1.429 . S
C1737 N1734 1.350 . S
C1737 C1736 1.434 . S
C1738 C1739 1.369 . S
C1738 C1740 1.419 . S
C1738 H1742 0.930 . S
C1739 C1738 1.369 . S
C1739 C1748 1.429 . S
C1740 C1738 1.419 . S
C1740 C1741 1.363 . S
C1740 H1743 0.929 . S
C1741 C1740 1.363 . S
C1741 C1747 1.428 . S
H1742 C1738 0.930 . S
H1743 C1740 0.929 . S
S1744 N1745 1.613 . S
S1744 N1746 1.610 . S
N1745 S1744 1.613 . S
N1745 C1748 1.350 . S
N1746 S1744 1.610 . S
N1746 C1747 1.351 . S
C1747 C1741 1.428 . S
C1747 N1746 1.351 . S
C1747 C1748 1.434 . S
C1748 C1739 1.429 . S
C1748 N1745 1.350 . S
C1748 C1747 1.434 . S
C1749 C1750 1.369 . S
C1749 C1751 1.419 . S
C1749 H1753 0.930 . S
C1750 C1749 1.369 . S
C1750 C1759 1.429 . S
C1751 C1749 1.419 . S
C1751 C1752 1.363 . S
C1751 H1754 0.929 . S
C1752 C1751 1.363 . S
C1752 C1758 1.428 . S
H1753 C1749 0.930 . S
H1754 C1751 0.929 . S
S1755 N1756 1.613 . S
S1755 N1757 1.610 . S
N1756 S1755 1.613 . S
N1756 C1759 1.350 . S
N1757 S1755 1.610 . S
N1757 C1758 1.351 . S
C1758 C1752 1.428 . S
C1758 N1757 1.351 . S
C1758 C1759 1.434 . S
C1759 C1750 1.429 . S
C1759 N1756 1.350 . S
C1759 C1758 1.434 . S
C707 C352 1.260 . S
C705 C5 1.290 1_655 S
C716 C23 1.566 . S
C718 C380 1.416 . S
C727 C39 1.242 . S
C729 C398 1.219 . S
C740 C424 1.387 . S
C738 C42 1.543 . S
C749 C19 1.608 . S
C751 C447 1.397 . S
C762 C467 1.243 . S
C760 C28 1.259 . S
C773 C495 1.394 . S
C771 C53 1.530 . S
C782 C9 1.274 . S
C784 C513 1.237 . S
C793 C65 1.496 . S
C795 C354 1.496 1_545 S
C804 C75 1.277 . S
C806 C376 1.249 . S
C817 C400 1.524 . S
C815 C93 1.514 . S
C828 C421 1.227 . S
C826 C109 1.240 . S
C837 C56 1.274 . S
C839 C444 1.257 . S
C850 C469 1.428 . S
C848 C81 1.407 . S
C861 C491 1.252 . S
C859 C84 1.264 . S
C872 C515 1.480 . S
C870 C103 1.468 . S
C883 C355 1.100 . S
C881 C107 1.243 . S
C894 C538 1.320 . S
C892 C121 1.313 . S
C903 C131 1.335 . S
C905 C562 1.161 . S
C916 C586 1.261 . S
C914 C140 1.283 . S
C925 C61 1.280 . S
C927 C516 1.126 . S
C938 C401 1.117 . S
C936 C70 1.239 . S
C947 C137 1.255 . S
C949 C607 1.267 . S
C960 C632 1.198 . S
C958 C165 1.220 . S
C969 C173 1.293 . S
C971 C353 1.268 . S
C982 C630 1.191 . S
C980 C182 1.193 . S
C991 C207 1.254 . S
C993 C399 1.232 . S
C1002 C219 1.163 . S
C1004 C609 1.123 . S
C1015 C448 1.143 . S
C1013 C187 1.192 . S
C1026 C560 1.251 . S
C1024 C205 1.293 . S
C1037 C492 1.188 . S
C1035 C221 1.182 . S
C1048 C652 1.237 . S
C1046 C168 1.268 . S
C1059 C357 1.133 . S
C1057 C224 1.255 . S
C1068 C243 1.433 . S
C1070 C628 1.383 . S
C1081 C403 1.150 . S
C1079 C252 1.273 1_565 S
C1090 C277 1.386 . S
C1092 C606 1.339 . S
C1101 C233 1.460 . S
C1103 C445 1.419 . S
C1112 C249 1.182 . S
C1114 C564 1.071 . S
C1125 C490 1.433 . S
C1123 C261 1.477 1_545 S
C1134 C271 1.216 . S
C1136 C656 1.117 . S
C1145 C266 1.424 1_554 S
C1147 C356 1.349 . S
C1156 C280 1.416 . S
C1158 C541 1.304 . S
C1167 C299 1.470 . S
C1169 C471 1.396 . S
C1178 C317 1.433 . S
C1180 C585 1.267 . S
C1191 C655 1.390 . S
C1189 C229 1.450 . S
C1202 C402 1.370 . S
C1200 C247 1.435 . S
C1213 C426 1.261 . S
C1211 C305 1.387 . S
C1224 C378 1.215 . S
C1222 C333 1.366 . S
C1233 C33 1.294 . S
C1235 C674 1.256 . S
C1246 C633 1.405 . S
C1244 C51 1.571 . S
C1257 C697 1.220 . S
C1255 C11 1.242 . S
C1266 C14 1.543 . S
C1268 C608 1.388 . S
C1277 C47 1.606 . S
C1279 C539 1.400 . S
C1290 C559 1.237 . S
C1288 C0 1.262 . S
C1301 C587 1.387 . S
C1299 C25 1.535 . S
C1312 C651 1.243 . S
C1310 C37 1.268 . S
C1323 C676 1.499 . S
C1321 C163 1.496 . S
C1332 C117 1.279 . S
C1334 C629 1.245 . S
C1343 C135 1.516 . S
C1345 C699 1.524 . S
C1356 C605 1.226 . S
C1354 C151 1.241 . S
C1367 C536 1.263 . S
C1365 C154 1.266 . S
C1376 C123 1.401 . S
C1378 C561 1.431 . S
C1389 C583 1.255 . S
C1387 C126 1.261 . S
C1398 C145 1.473 . S
C1400 C653 1.477 . S
C1411 C677 1.104 . S
C1409 C149 1.242 . S
C1422 C446 1.321 . S
C1420 C79 1.313 . S
C1433 C470 1.171 . S
C1431 C89 1.334 . S
C1442 C98 1.289 . S
C1444 C494 1.253 . S
C1455 C654 1.125 . S
C1453 C159 1.279 . S
C1464 C112 1.236 . S
C1466 C700 1.115 1_556 S
C1477 C423 1.267 . S
C1475 C95 1.247 . S
C1488 C379 1.197 . S
C1486 C67 1.220 . S
C1497 C201 1.298 . S
C1499 C675 1.264 . S
C1510 C377 1.190 . S
C1508 C210 1.193 . S
C1521 C698 1.234 . S
C1519 C179 1.253 . S
C1530 C191 1.165 . S
C1532 C425 1.120 . S
C1541 C215 1.193 . S
C1543 C540 1.142 . S
C1552 C177 1.292 . S
C1554 C468 1.253 . S
C1563 C193 1.181 . S
C1565 C584 1.186 . S
C1574 C196 1.271 . S
C1576 C514 1.236 . S
C1587 C679 1.139 . S
C1585 C322 1.256 . S
C1596 C285 1.429 . S
C1598 C375 1.391 . S
C1609 C702 1.149 . S
C1607 C294 1.272 . S
C1618 C319 1.385 . S
C1620 C422 1.341 . S
C1629 C331 1.463 . S
C1631 C537 1.418 . S
C1642 C472 1.074 . S
C1640 C291 1.184 . S
C1651 C303 1.483 . S
C1653 C582 1.440 . S
C1664 C518 1.107 . S
C1662 C313 1.223 . S
C1675 C678 1.347 . S
C1673 C308 1.427 . S
C1686 C449 1.301 . S
C1684 C238 1.421 . S
C1695 C257 1.466 . S
C1697 C563 1.402 . S
C1708 C493 1.256 . S
C1706 C275 1.435 1_556 S
C1719 C517 1.391 . S
C1717 C327 1.447 . S
C1728 C289 1.436 . S
C1730 C701 1.367 . S
C1741 C610 1.262 . S
C1739 C263 1.388 . S
C1752 C631 1.208 . S
C1750 C235 1.369 . S
