# Generated by pormake.
# Topology apo, (3,6)-cn, num edge types: 1
# Building blocks:
#     Node 0, Type 0, BuildingBlock: WUSLED_clean_sbu_0, # of connection points: 3
#     Node 1, Type 0, BuildingBlock: WUSLED_clean_sbu_0, # of connection points: 3
#     Node 2, Type 0, BuildingBlock: WUSLED_clean_sbu_0, # of connection points: 3
#     Node 3, Type 0, BuildingBlock: WUSLED_clean_sbu_0, # of connection points: 3
#     Node 4, Type 0, BuildingBlock: WUSLED_clean_sbu_0, # of connection points: 3
#     Node 5, Type 0, BuildingBlock: WUSLED_clean_sbu_0, # of connection points: 3
#     Node 6, Type 0, BuildingBlock: WUSLED_clean_sbu_0, # of connection points: 3
#     Node 7, Type 0, BuildingBlock: WUSLED_clean_sbu_0, # of connection points: 3
#     Node 8, Type 1, BuildingBlock: KUMJIN_clean_sbu_1, # of connection points: 6
#     Node 9, Type 1, BuildingBlock: KUMJIN_clean_sbu_1, # of connection points: 6
#     Node 10, Type 1, BuildingBlock: KUMJIN_clean_sbu_1, # of connection points: 6
#     Node 11, Type 1, BuildingBlock: KUMJIN_clean_sbu_1, # of connection points: 6
#     Edge 12, Type (0, 1), BuildingBlock: EZIPEK_clean_linker_0, # of connection points: 2
#     Edge 13, Type (0, 1), BuildingBlock: EZIPEK_clean_linker_0, # of connection points: 2
#     Edge 14, Type (0, 1), BuildingBlock: EZIPEK_clean_linker_0, # of connection points: 2
#     Edge 15, Type (0, 1), BuildingBlock: EZIPEK_clean_linker_0, # of connection points: 2
#     Edge 16, Type (0, 1), BuildingBlock: EZIPEK_clean_linker_0, # of connection points: 2
#     Edge 17, Type (0, 1), BuildingBlock: EZIPEK_clean_linker_0, # of connection points: 2
#     Edge 18, Type (0, 1), BuildingBlock: EZIPEK_clean_linker_0, # of connection points: 2
#     Edge 19, Type (0, 1), BuildingBlock: EZIPEK_clean_linker_0, # of connection points: 2
#     Edge 20, Type (0, 1), BuildingBlock: EZIPEK_clean_linker_0, # of connection points: 2
#     Edge 21, Type (0, 1), BuildingBlock: EZIPEK_clean_linker_0, # of connection points: 2
#     Edge 22, Type (0, 1), BuildingBlock: EZIPEK_clean_linker_0, # of connection points: 2
#     Edge 23, Type (0, 1), BuildingBlock: EZIPEK_clean_linker_0, # of connection points: 2
#     Edge 24, Type (0, 1), BuildingBlock: EZIPEK_clean_linker_0, # of connection points: 2
#     Edge 25, Type (0, 1), BuildingBlock: EZIPEK_clean_linker_0, # of connection points: 2
#     Edge 26, Type (0, 1), BuildingBlock: EZIPEK_clean_linker_0, # of connection points: 2
#     Edge 27, Type (0, 1), BuildingBlock: EZIPEK_clean_linker_0, # of connection points: 2
#     Edge 28, Type (0, 1), BuildingBlock: EZIPEK_clean_linker_0, # of connection points: 2
#     Edge 29, Type (0, 1), BuildingBlock: EZIPEK_clean_linker_0, # of connection points: 2
#     Edge 30, Type (0, 1), BuildingBlock: EZIPEK_clean_linker_0, # of connection points: 2
#     Edge 31, Type (0, 1), BuildingBlock: EZIPEK_clean_linker_0, # of connection points: 2
#     Edge 32, Type (0, 1), BuildingBlock: EZIPEK_clean_linker_0, # of connection points: 2
#     Edge 33, Type (0, 1), BuildingBlock: EZIPEK_clean_linker_0, # of connection points: 2
#     Edge 34, Type (0, 1), BuildingBlock: EZIPEK_clean_linker_0, # of connection points: 2
#     Edge 35, Type (0, 1), BuildingBlock: EZIPEK_clean_linker_0, # of connection points: 2
# Relax obj value: 0.008
# Max RMSD: 0.111
# Mean RMSD: 0.083
data_MOF--net-apo--node1-WUSLED_clean_sbu_0--node2-KUMJIN_clean_sbu_1--edge1-EZIPEK_clean_linker_0
_symmetry_space_group_name_H-M    P1
_symmetry_Int_Tables_number       1
_symmetry_cell_setting            triclinic
loop_
_symmetry_equiv_pos_as_xyz
'x, y, z'
_cell_length_a     25.302844
_cell_length_b     43.751131
_cell_length_c     53.89506
_cell_angle_alpha  90.343349
_cell_angle_beta   89.702692
_cell_angle_gamma 90.034971
loop_
_atom_site_label
_atom_site_type_symbol
_atom_site_fract_x
_atom_site_fract_y
_atom_site_fract_z
_atom_type_partial_charge
C0 C 0.30459 0.44919 0.37328 0.0
C1 C 0.27226 0.4737 0.36605 0.0
C2 C 0.34958 0.50337 0.35436 0.0
C3 C 0.29457 0.50063 0.35674 0.0
C4 C 0.38207 0.47944 0.36233 0.0
C5 C 0.35985 0.45261 0.37177 0.0
U6 U 0.27095 0.38403 0.41898 0.0
O7 O 0.19727 0.35746 0.42259 0.0
O8 O 0.2713 0.33431 0.41261 0.0
C9 C 0.21968 0.33195 0.4149 0.0
C10 C 0.28007 0.41955 0.38005 0.0
C11 C 0.19153 0.31418 0.39534 0.0
C12 C 0.10887 0.29618 0.37718 0.0
C13 C 0.13602 0.31519 0.39381 0.0
C14 C 0.192 0.27504 0.36281 0.0
C15 C 0.13662 0.27565 0.36185 0.0
C16 C 0.21922 0.29406 0.37941 0.0
C17 C 0.32046 0.39158 0.4871 0.0
C18 C 0.28458 0.37171 0.52581 0.0
C19 C 0.37335 0.39245 0.52474 0.0
C20 C 0.36783 0.39846 0.4994 0.0
C21 C 0.33143 0.37954 0.53822 0.0
C22 C 0.2791 0.37766 0.50041 0.0
C23 C 0.31409 0.40145 0.46109 0.0
O24 O 0.31226 0.39668 0.38459 0.0
O25 O 0.23946 0.42069 0.39535 0.0
O26 O 0.26621 0.40936 0.45425 0.0
O27 O 0.33972 0.38569 0.44403 0.0
H28 H 0.22962 0.47162 0.36679 0.0
H29 H 0.26893 0.51876 0.35041 0.0
H30 H 0.42462 0.48112 0.36041 0.0
H31 H 0.386 0.43421 0.37708 0.0
H32 H 0.06607 0.29672 0.37688 0.0
H33 H 0.11337 0.33005 0.40599 0.0
H34 H 0.21403 0.25912 0.35128 0.0
H35 H 0.26186 0.29233 0.38022 0.0
H36 H 0.25186 0.36167 0.53592 0.0
H37 H 0.40979 0.39859 0.53399 0.0
H38 H 0.40016 0.40928 0.48953 0.0
H39 H 0.24217 0.37209 0.49136 0.0
C40 C 0.23559 0.15425 0.99578 0.0
C41 C 0.20024 0.13101 1.00235 0.0
C42 C 0.21816 0.13947 0.04683 0.0
C43 C 0.1901 0.12454 0.02744 0.0
C44 C 0.24696 0.16584 0.03962 0.0
C45 C 0.25697 0.17245 1.01461 0.0
U46 U 0.24224 0.13086 0.92684 0.0
O47 O 0.23288 0.1583 0.89299 0.0
O48 O 0.3079 0.13486 0.9 0.0
C49 C 0.28144 0.15307 0.88527 0.0
C50 C 0.25049 0.15998 0.9696 0.0
C51 C 0.31073 0.17918 0.87467 0.0
C52 C 0.34559 0.23104 0.87669 0.0
C53 C 0.31928 0.20643 0.88798 0.0
C54 C 0.35556 0.20129 0.83891 0.0
C55 C 0.36355 0.22871 0.85197 0.0
C56 C 0.32946 0.17677 0.85017 0.0
C57 C 0.18048 0.05392 0.90683 0.0
C58 C 0.17419 0.03584 0.86409 0.0
C59 C 0.13955 1.00489 0.89758 0.0
C60 C 0.15553 0.02706 0.91478 0.0
C61 C 0.14834 1.00919 0.87211 0.0
C62 C 0.19021 0.05811 0.88136 0.0
C63 C 0.19429 0.07747 0.9254 0.0
O64 O 0.28758 0.14207 0.96049 0.0
O65 O 0.21149 0.16441 0.954 0.0
O66 O 0.16938 0.10369 0.92345 0.0
O67 O 0.24483 0.0807 0.93024 0.0
H68 H 0.18035 0.11785 0.98809 0.0
H69 H 0.15938 0.10809 0.03099 0.0
H70 H 0.26238 0.18178 0.05313 0.0
H71 H 0.28182 0.19181 1.01001 0.0
H72 H 0.35124 0.25206 0.88706 0.0
H73 H 0.30515 0.20875 0.90691 0.0
H74 H 0.36886 0.19903 0.81985 0.0
H75 H 0.32324 0.15596 0.83958 0.0
H76 H 0.18094 0.03964 0.84448 0.0
H77 H 0.11937 0.9846 0.9041 0.0
H78 H 0.14762 0.02344 0.93432 0.0
H79 H 0.20937 0.07874 0.87487 0.0
C80 C 0.82821 0.0863 0.69418 0.0
C81 C 0.88072 0.07685 0.6901 0.0
C82 C 0.86697 0.03277 0.71676 0.0
C83 C 0.89993 0.0503 0.70136 0.0
C84 C 0.81436 0.04185 0.72047 0.0
C85 C 0.79522 0.06841 0.70932 0.0
U86 U 0.80035 0.14609 0.64265 0.0
O87 O 0.72834 0.17355 0.63769 0.0
O88 O 0.80361 0.19633 0.64558 0.0
C89 C 0.75224 0.1994 0.64312 0.0
C90 C 0.80764 0.11553 0.6844 0.0
C91 C 0.72566 0.21878 0.66192 0.0
C92 C 0.69161 0.22725 0.70379 0.0
C93 C 0.71798 0.20866 0.68639 0.0
C94 C 0.68083 0.2663 0.67254 0.0
C95 C 0.67259 0.25616 0.69692 0.0
C96 C 0.7071 0.24775 0.65519 0.0
C97 C 0.84454 0.12876 0.57419 0.0
C98 C 0.88013 0.15759 0.53916 0.0
C99 C 0.83446 0.10979 0.53183 0.0
C100 C 0.8259 0.10664 0.55736 0.0
C101 C 0.86198 0.13511 0.52251 0.0
C102 C 0.87152 0.15445 0.56482 0.0
C103 C 0.83925 0.12278 0.60122 0.0
O104 O 0.84251 0.13602 0.67725 0.0
O105 O 0.7666 0.11366 0.66962 0.0
O106 O 0.79147 0.1167 0.60954 0.0
O107 O 0.86697 0.13981 0.6166 0.0
H108 H 0.90713 0.09017 0.67856 0.0
H109 H 0.94065 0.04358 0.69828 0.0
H110 H 0.7884 0.02861 0.73231 0.0
H111 H 0.75475 0.07531 0.71288 0.0
H112 H 0.6857 0.21906 0.72253 0.0
H113 H 0.73208 0.18636 0.69196 0.0
H114 H 0.66649 0.28851 0.66689 0.0
H115 H 0.71266 0.25596 0.63643 0.0
H116 H 0.90159 0.17727 0.53233 0.0
H117 H 0.82027 0.09216 0.51932 0.0
H118 H 0.80558 0.08646 0.56403 0.0
H119 H 0.88678 0.1718 0.57727 0.0
C120 C 0.69835 0.36382 0.0662 0.0
C121 C 0.69779 0.39409 0.05756 0.0
C122 C 0.66976 0.37653 1.01671 0.0
C123 C 0.68378 0.40036 0.03298 0.0
C124 C 0.66889 0.34639 0.02554 0.0
C125 C 0.68323 0.3401 0.05007 0.0
U126 U 0.71122 0.38255 0.1356 0.0
O127 O 0.70488 0.35312 0.16841 0.0
O128 O 0.77934 0.37705 0.16061 0.0
C129 C 0.75445 0.35735 0.17481 0.0
C130 C 0.71618 0.35643 0.09159 0.0
C131 C 0.78436 0.32986 0.18211 0.0
C132 C 0.8023 0.2753 0.17924 0.0
C133 C 0.77682 0.30146 0.17034 0.0
C134 C 0.84442 0.30572 0.21123 0.0
C135 C 0.83572 0.27721 0.19994 0.0
C136 C 0.81889 0.33183 0.20238 0.0
C137 C 0.65017 0.45703 0.1608 0.0
C138 C 0.67062 0.48058 0.20064 0.0
C139 C 0.59572 0.49848 0.17693 0.0
C140 C 0.60692 0.47684 0.15844 0.0
C141 C 0.62775 0.50066 0.19804 0.0
C142 C 0.68169 0.45881 0.18216 0.0
C143 C 0.66202 0.43515 0.14063 0.0
O144 O 0.7539 0.37385 0.10065 0.0
O145 O 0.67881 0.35036 0.10787 0.0
O146 O 0.63786 0.40863 0.14201 0.0
O147 O 0.71198 0.43277 0.13407 0.0
H148 H 0.70894 0.41283 0.06967 0.0
H149 H 0.68459 0.42376 0.02653 0.0
H150 H 0.65807 0.32771 1.0133 0.0
H151 H 0.68324 0.31662 0.05635 0.0
H152 H 0.79505 0.25344 0.17034 0.0
H153 H 0.7504 0.29939 0.15467 0.0
H154 H 0.86991 0.3076 0.22725 0.0
H155 H 0.82514 0.35349 0.21176 0.0
H156 H 0.69571 0.48199 0.21683 0.0
H157 H 0.5625 0.51381 0.17466 0.0
H158 H 0.58209 0.47576 0.14213 0.0
H159 H 0.71509 0.44361 0.1844 0.0
C160 C 0.68758 0.58051 0.68927 0.0
C161 C 0.65955 0.56066 0.67353 0.0
C162 C 0.6382 0.52787 0.70863 0.0
C163 C 0.63502 0.53448 0.68317 0.0
C164 C 0.6667 0.54757 0.72424 0.0
C165 C 0.69119 0.57367 0.71462 0.0
U166 U 0.72452 0.6393 0.63832 0.0
O167 O 0.72734 0.68942 0.6415 0.0
O168 O 0.80007 0.66387 0.63353 0.0
C169 C 0.77901 0.69056 0.63894 0.0
C170 C 0.71288 0.60862 0.67993 0.0
C171 C 0.80786 0.70962 0.65717 0.0
C172 C 0.81908 0.73071 0.69881 0.0
C173 C 0.79262 0.71112 0.6823 0.0
C174 C 0.87709 0.74693 0.6655 0.0
C175 C 0.8613 0.74892 0.69047 0.0
C176 C 0.85057 0.72748 0.64901 0.0
C177 C 0.67816 0.62716 0.57032 0.0
C178 C 0.70737 0.65585 0.5341 0.0
C179 C 0.63814 0.61794 0.52992 0.0
C180 C 0.6416 0.61164 0.55531 0.0
C181 C 0.67123 0.63993 0.51905 0.0
C182 C 0.71084 0.64951 0.55958 0.0
C183 C 0.68223 0.61884 0.59681 0.0
O184 O 0.75311 0.60484 0.66471 0.0
O185 O 0.68084 0.63059 0.67303 0.0
O186 O 0.65688 0.63646 0.61272 0.0
O187 O 0.72931 0.61074 0.6046 0.0
H188 H 0.65632 0.56556 0.65392 0.0
H189 H 0.613 0.51958 0.67087 0.0
H190 H 0.66944 0.5429 0.74392 0.0
H191 H 0.71265 0.5887 0.72705 0.0
H192 H 0.80625 0.732 0.718 0.0
H193 H 0.75987 0.69749 0.68905 0.0
H194 H 0.90948 0.76081 0.65869 0.0
H195 H 0.86297 0.7267 0.62975 0.0
H196 H 0.73328 0.67288 0.52605 0.0
H197 H 0.61004 0.60542 0.51867 0.0
H198 H 0.61604 0.59432 0.56321 0.0
H199 H 0.73932 0.66177 0.57081 0.0
C200 C 0.76562 0.86431 0.05974 0.0
C201 C 0.80387 0.88549 0.05181 0.0
C202 C 0.78715 0.87176 1.00863 0.0
C203 C 0.81465 0.88914 0.02641 0.0
C204 C 0.74878 0.85077 1.01662 0.0
C205 C 0.73814 0.84709 0.04194 0.0
U206 U 0.76867 0.88823 0.12873 0.0
O207 O 0.70819 0.8831 0.15784 0.0
O208 O 0.78482 0.86021 0.1618 0.0
C209 C 0.73702 0.86417 0.17094 0.0
C210 C 0.75426 0.8593 0.08634 0.0
C211 C 0.71011 0.83681 0.18102 0.0
C212 C 0.70386 0.79872 0.21374 0.0
C213 C 0.73081 0.8228 0.20226 0.0
C214 C 0.63518 0.80184 0.18271 0.0
C215 C 0.65557 0.78834 0.20422 0.0
C216 C 0.66226 0.82587 0.17116 0.0
C217 C 0.83044 0.96501 0.14826 0.0
C218 C 0.86899 0.9788 0.18812 0.0
C219 C 0.84314 0.01849 0.15947 0.0
C220 C 0.82587 0.99619 0.14263 0.0
C221 C 0.86544 1.00993 0.18216 0.0
C222 C 0.85139 0.95647 0.17134 0.0
C223 C 0.81496 0.94201 0.12945 0.0
O224 O 0.79548 0.85492 0.10063 0.0
O225 O 0.71859 0.87736 0.09647 0.0
O226 O 0.76393 0.93845 0.12605 0.0
O227 O 0.84104 0.91602 0.12964 0.0
H228 H 0.82551 0.89904 0.06524 0.0
H229 H 0.84443 0.90543 1.02061 0.0
H230 H 0.72718 0.83716 1.00322 0.0
H231 H 0.70855 0.83062 0.04766 0.0
H232 H 0.72016 0.78852 0.2303 0.0
H233 H 0.7674 0.83095 0.2103 0.0
H234 H 0.598 0.794 0.17508 0.0
H235 H 0.64528 0.83623 0.15483 0.0
H236 H 0.88625 0.97183 0.20554 0.0
H237 H 0.84034 0.0424 0.15454 0.0
H238 H 0.8098 1.00327 0.12498 0.0
H239 H 0.85506 0.93258 0.1762 0.0
C240 C 0.15881 0.92922 0.36503 0.0
C241 C 0.10522 0.93757 0.36707 0.0
C242 C 0.12194 0.98369 0.34324 0.0
C243 C 0.08696 0.96458 0.3562 0.0
C244 C 0.17553 0.97574 0.3416 0.0
C245 C 0.19375 0.94869 0.35233 0.0
U246 U 0.18259 0.86851 0.41596 0.0
O247 O 0.17724 0.81836 0.41283 0.0
O248 O 0.2529 0.83997 0.42197 0.0
C249 C 0.22823 0.8145 0.41613 0.0
C250 C 0.17867 0.89959 0.37439 0.0
C251 C 0.25532 0.79492 0.39768 0.0
C252 C 0.29037 0.78618 0.35608 0.0
C253 C 0.26243 0.80453 0.37305 0.0
C254 C 0.30358 0.74823 0.38803 0.0
C255 C 0.31159 0.75802 0.36353 0.0
C256 C 0.27566 0.76656 0.40496 0.0
C257 C 0.13449 0.88459 0.48332 0.0
C258 C 0.12335 0.84808 0.5169 0.0
C259 C 0.11822 0.90241 0.52556 0.0
C260 C 0.12755 0.90855 0.50046 0.0
C261 C 0.11561 0.87215 0.53395 0.0
C262 C 0.1328 0.85425 0.49173 0.0
C263 C 0.14171 0.89207 0.45682 0.0
O264 O 0.21898 0.90084 0.38965 0.0
O265 O 0.14318 0.87908 0.38078 0.0
O266 O 0.1144 0.87573 0.44083 0.0
O267 O 0.19045 0.89731 0.44947 0.0
H268 H 0.07724 0.92306 0.37669 0.0
H269 H 0.04545 0.97042 0.35765 0.0
H270 H 0.20304 0.99022 0.33164 0.0
H271 H 0.2351 0.94269 0.35033 0.0
H272 H 0.29633 0.79415 0.33729 0.0
H273 H 0.24704 0.82638 0.3671 0.0
H274 H 0.31983 0.72666 0.39413 0.0
H275 H 0.2706 0.75877 0.42387 0.0
H276 H 0.12148 0.82458 0.52305 0.0
H277 H 0.11239 0.92126 0.53841 0.0
H278 H 0.12872 0.9321 0.49436 0.0
H279 H 0.13816 0.83541 0.47883 0.0
C280 C 0.3591 0.68234 0.98468 0.0
C281 C 0.37262 0.65453 0.99593 0.0
C282 C 0.39242 0.68132 0.03459 0.0
C283 C 0.38913 0.65403 1.02077 0.0
C284 C 0.37957 0.70906 1.02317 0.0
C285 C 0.36308 0.70955 0.99844 0.0
U286 U 0.33682 0.64993 0.91849 0.0
O287 O 0.33746 0.67392 0.88273 0.0
O288 O 0.26455 0.652 0.89582 0.0
C289 C 0.28669 0.66953 0.87897 0.0
C290 C 0.33862 0.68364 0.95909 0.0
C291 C 0.25528 0.69601 0.87021 0.0
C292 C 0.17402 0.71497 0.85163 0.0
C293 C 0.2029 0.69129 0.86247 0.0
C294 C 0.24899 0.74887 0.85629 0.0
C295 C 0.19705 0.74383 0.84815 0.0
C296 C 0.27788 0.72521 0.86724 0.0
C297 C 0.39028 0.57108 0.89857 0.0
C298 C 0.44754 0.53415 0.87755 0.0
C299 C 0.35314 0.53311 0.87039 0.0
C300 C 0.34652 0.55807 0.88644 0.0
C301 C 0.40355 0.52076 0.866 0.0
C302 C 0.44087 0.559 0.89383 0.0
C303 C 0.38376 0.59633 0.91682 0.0
O304 O 0.37393 0.68608 0.94123 0.0
O305 O 0.30028 0.66447 0.95373 0.0
O306 O 0.33587 0.60058 0.92581 0.0
O307 O 0.40824 0.62205 0.91166 0.0
H308 H 0.36974 0.63325 0.98564 0.0
H309 H 0.39878 0.63239 0.02929 0.0
H310 H 0.38179 0.73032 0.03353 0.0
H311 H 0.3527 0.73121 0.99014 0.0
H312 H 0.13405 0.71059 0.84543 0.0
H313 H 0.18466 0.66899 0.86424 0.0
H314 H 0.26751 0.77097 0.8537 0.0
H315 H 0.31823 0.72963 0.87281 0.0
H316 H 0.48678 0.52505 0.87425 0.0
H317 H 0.3188 0.52322 0.86149 0.0
H318 H 0.30706 0.56692 0.88955 0.0
H319 H 0.47519 0.56862 0.90293 0.0
Eu320 Eu 0.06233 0.14545 0.25283 0.0
C321 C 0.81472 0.12152 0.29902 0.0
N322 N 0.8473 0.14582 0.30216 0.0
C323 C 0.77254 0.17937 0.30516 0.0
C324 C 0.75947 0.12532 0.29791 0.0
C325 C 0.82717 0.17448 0.30568 0.0
C326 C 0.73857 0.15476 0.30078 0.0
C327 C 0.80391 0.06654 0.29715 0.0
C328 C 0.83658 0.0926 0.29865 0.0
C329 C 0.74909 0.0702 0.29447 0.0
C330 C 0.72688 0.09956 0.29491 0.0
Eu331 Eu 0.93908 0.13589 0.30323 0.0
N332 N 0.88948 0.08992 0.30184 0.0
C333 C 0.82709 0.03767 0.29954 0.0
C334 C 0.91139 0.06205 0.30662 0.0
C335 C 0.88095 0.03545 0.30481 0.0
H336 H 0.85352 0.19365 0.30855 0.0
H337 H 0.89892 0.01333 0.30773 0.0
H338 H 0.15356 0.10991 0.28657 0.0
H339 H 0.05907 0.26386 0.21998 0.0
H340 H 0.95265 0.06045 0.3113 0.0
H341 H 0.8034 0.01707 0.29843 0.0
H342 H 0.0319 0.20999 0.22125 0.0
H343 H 0.75678 0.20217 0.30771 0.0
H344 H 0.72337 0.05048 0.29298 0.0
H345 H 0.68436 0.10202 0.29371 0.0
H346 H 0.2318 0.12297 0.31187 0.0
H347 H 0.6963 0.15862 0.30021 0.0
H348 H 0.13306 0.28185 0.2461 0.0
N349 N 0.1387 0.15586 0.27632 0.0
C350 C 0.15651 0.18518 0.27634 0.0
C351 C 0.21069 0.14073 0.30216 0.0
C352 C 0.20093 0.19371 0.29046 0.0
C353 C 0.16625 0.13342 0.28799 0.0
C354 C 0.22769 0.17108 0.30369 0.0
N355 N 0.08695 0.19761 0.24895 0.0
C356 C 0.06285 0.21756 0.2333 0.0
C357 C 0.1472 0.2373 0.26203 0.0
C358 C 0.12964 0.20668 0.2624 0.0
C359 C 0.12082 0.25814 0.2469 0.0
C360 C 0.0789 0.24811 0.23223 0.0
H361 H 0.26202 0.1767 0.31475 0.0
H362 H 0.25109 0.23144 0.30171 0.0
H363 H 0.20418 0.26959 0.27675 0.0
O364 O 0.09551 0.15307 0.21497 0.0
O365 O 0.0628 0.16238 0.29283 0.0
O366 O 0.98043 0.18136 0.29886 0.0
O367 O 0.11512 0.11217 0.23597 0.0
O368 O 0.98551 0.16854 0.24129 0.0
O369 O 0.92086 0.17092 0.27259 0.0
O370 O 0.96452 0.12087 0.34011 0.0
O371 O 0.9425 0.10112 0.27132 0.0
O372 O 0.98744 0.12324 0.23804 0.0
O373 O 0.91005 0.1581 0.33723 0.0
O374 O 0.01948 0.11385 0.30895 0.0
O375 O 0.05718 0.09937 0.27194 0.0
C376 C 0.03163 0.18413 0.30106 0.0
C377 C 0.15617 0.11556 0.19531 0.0
C378 C 0.18801 0.11402 0.15221 0.0
C379 C 0.22247 0.09022 0.15856 0.0
C380 C 0.19128 0.09168 0.20091 0.0
C381 C 0.22409 0.07921 0.18269 0.0
C382 C 0.15471 0.1269 0.17072 0.0
C383 C 0.93838 0.17699 0.24977 0.0
C384 C 0.12115 0.12729 0.21544 0.0
C385 C 0.21737 0.22437 0.29077 0.0
C386 C 0.19063 0.24609 0.27656 0.0
C387 C 0.95559 0.10246 0.24756 0.0
C388 C 0.90111 0.12666 0.3724 0.0
C389 C 0.87563 0.12355 0.41624 0.0
C390 C 0.83582 0.10264 0.40988 0.0
C391 C 0.86106 0.10564 0.36665 0.0
C392 C 0.90845 0.13563 0.39738 0.0
C393 C 0.82869 0.09374 0.38525 0.0
C394 C 0.0437 0.09344 0.29501 0.0
C395 C 0.93394 0.1397 0.35226 0.0
H396 H 0.2483 0.08009 0.14467 0.0
H397 H 0.1935 0.0825 0.2195 0.0
H398 H 0.25088 0.06084 0.1873 0.0
H399 H 0.12784 0.14518 0.16595 0.0
H400 H 0.81027 0.09314 0.42407 0.0
H401 H 0.85456 0.09848 0.34778 0.0
H402 H 0.93914 0.1519 0.40213 0.0
H403 H 0.79787 0.07759 0.38052 0.0
Eu404 Eu 0.4319 0.37677 0.74826 0.0
C405 C 0.65478 0.41731 0.79021 0.0
N406 N 0.63345 0.38988 0.79646 0.0
C407 C 0.71799 0.36577 0.79133 0.0
C408 C 0.70807 0.41959 0.78263 0.0
C409 C 0.66486 0.36462 0.79857 0.0
C410 C 0.73932 0.39319 0.78268 0.0
C411 C 0.64708 0.47262 0.78926 0.0
C412 C 0.62477 0.44359 0.79361 0.0
C413 C 0.69864 0.47475 0.77968 0.0
C414 C 0.72913 0.44829 0.77642 0.0
Eu415 Eu 0.54226 0.39032 0.80641 0.0
N416 N 0.57498 0.44086 0.8029 0.0
C417 C 0.6177 0.49865 0.79567 0.0
C418 C 0.54821 0.46604 0.81134 0.0
C419 C 0.56863 0.49531 0.80737 0.0
H420 H 0.64851 0.34332 0.80524 0.0
H421 H 0.54642 0.51525 0.81322 0.0
H422 H 0.44775 0.44377 0.71973 0.0
H423 H 0.25093 0.32015 0.78043 0.0
H424 H 0.51043 0.46343 0.82036 0.0
H425 H 0.63342 0.52135 0.79256 0.0
H426 H 0.34524 0.32346 0.77004 0.0
H427 H 0.74232 0.34548 0.79226 0.0
H428 H 0.71607 0.49683 0.77572 0.0
H429 H 0.76966 0.45039 0.77007 0.0
H430 H 0.39308 0.48776 0.7072 0.0
H431 H 0.78047 0.39401 0.77706 0.0
H432 H 0.19206 0.36405 0.77259 0.0
N433 N 0.38403 0.42034 0.73694 0.0
C434 C 0.33113 0.41935 0.74142 0.0
C435 C 0.37524 0.46878 0.71695 0.0
C436 C 0.29824 0.44374 0.73421 0.0
C437 C 0.40623 0.44406 0.72433 0.0
C438 C 0.32104 0.4687 0.722 0.0
N439 N 0.34209 0.37039 0.75958 0.0
C440 C 0.32105 0.34356 0.76796 0.0
C441 C 0.25493 0.39261 0.7582 0.0
C442 C 0.30985 0.3941 0.75355 0.0
C443 C 0.234 0.36606 0.76876 0.0
C444 C 0.2671 0.34128 0.7733 0.0
H445 H 0.29711 0.48789 0.71623 0.0
H446 H 0.21811 0.46118 0.73418 0.0
H447 H 0.18016 0.41635 0.75499 0.0
O448 O 0.39836 0.34044 0.72516 0.0
O449 O 0.43085 0.34146 0.7795 0.0
O450 O 0.49997 0.34461 0.80859 0.0
O451 O 0.43322 0.37984 0.70766 0.0
O452 O 0.50701 0.34882 0.74652 0.0
O453 O 0.56759 0.35266 0.77932 0.0
O454 O 0.52441 0.40776 0.84373 0.0
O455 O 0.52206 0.42516 0.77664 0.0
O456 O 0.5069 0.40261 0.73901 0.0
O457 O 0.58338 0.37291 0.83907 0.0
O458 O 0.45324 0.39311 0.8086 0.0
O459 O 0.41858 0.41669 0.77561 0.0
C460 C 0.45745 0.33152 0.79903 0.0
C461 C 0.36105 0.35673 0.68698 0.0
C462 C 0.32782 0.36303 0.64478 0.0
C463 C 0.27591 0.36091 0.65385 0.0
C464 C 0.30866 0.35425 0.69556 0.0
C465 C 0.26648 0.3565 0.67909 0.0
C466 C 0.37044 0.36103 0.66142 0.0
C467 C 0.55121 0.34136 0.75782 0.0
C468 C 0.406 0.35493 0.70438 0.0
C469 C 0.2439 0.44258 0.73948 0.0
C470 C 0.22233 0.41711 0.75144 0.0
C471 C 0.53132 0.4231 0.75265 0.0
C472 C 0.59452 0.40696 0.87271 0.0
C473 C 0.63209 0.41042 0.91433 0.0
C474 C 0.66221 0.43568 0.90679 0.0
C475 C 0.6252 0.43215 0.86553 0.0
C476 C 0.59804 0.39611 0.89721 0.0
C477 C 0.65866 0.44648 0.88253 0.0
C478 C 0.42548 0.41575 0.79982 0.0
C479 C 0.56009 0.39129 0.85464 0.0
H480 H 0.24272 0.36251 0.64131 0.0
H481 H 0.3001 0.35042 0.71494 0.0
H482 H 0.22631 0.35469 0.68593 0.0
H483 H 0.4106 0.36283 0.65448 0.0
H484 H 0.68871 0.4469 0.91968 0.0
H485 H 0.62367 0.44065 0.8468 0.0
H486 H 0.57494 0.37646 0.90289 0.0
H487 H 0.68221 0.46589 0.87682 0.0
Eu488 Eu 0.06423 0.88537 0.75052 0.0
C489 C 0.86088 0.82662 0.79004 0.0
N490 N 0.87366 0.8567 0.78863 0.0
C491 C 0.79212 0.86736 0.76806 0.0
C492 C 0.81386 0.81546 0.77939 0.0
C493 C 0.83923 0.87733 0.77889 0.0
C494 C 0.77972 0.83623 0.76799 0.0
C495 C 0.88206 0.77585 0.80465 0.0
C496 C 0.8949 0.8071 0.80232 0.0
C497 C 0.83609 0.7644 0.7934 0.0
C498 C 0.80213 0.78415 0.78075 0.0
Eu499 Eu 0.95475 0.87177 0.80617 0.0
N500 N 0.9396 0.81879 0.81264 0.0
C501 C 0.91547 0.7571 0.81847 0.0
C502 C 0.97043 0.80093 0.82744 0.0
C503 C 0.95942 0.76981 0.83019 0.0
H504 H 0.84866 0.90142 0.77926 0.0
H505 H 0.98457 0.75571 0.84159 0.0
H506 H 0.16029 0.83141 0.75466 0.0
H507 H 0.08608 1.00852 0.74029 0.0
H508 H 0.00311 0.81054 0.83762 0.0
H509 H 0.90701 0.73299 0.82069 0.0
H510 H 0.04029 0.95854 0.73784 0.0
H511 H 0.76541 0.88368 0.75982 0.0
H512 H 0.82603 0.74039 0.79471 0.0
H513 H 0.76645 0.77506 0.77247 0.0
H514 H 0.25503 0.82884 0.7645 0.0
H515 H 0.74321 0.82855 0.75957 0.0
H516 H 0.17967 1.01077 0.7534 0.0
N517 N 0.15612 0.87994 0.75791 0.0
C518 C 0.18408 0.90636 0.76009 0.0
C519 C 0.23545 0.85079 0.76362 0.0
C520 C 0.23878 0.90594 0.76506 0.0
C521 C 0.18142 0.85235 0.75848 0.0
C522 C 0.26414 0.87769 0.76726 0.0
N523 N 0.10596 0.93356 0.75122 0.0
C524 C 0.08071 0.95959 0.74406 0.0
C525 C 0.18632 0.96176 0.75793 0.0
C526 C 0.15826 0.93395 0.75666 0.0
C527 C 0.15952 0.98893 0.75262 0.0
C528 C 0.10669 0.98777 0.74523 0.0
H529 H 0.30606 0.8764 0.77111 0.0
H530 H 0.3084 0.93376 0.77137 0.0
H531 H 0.26247 0.98264 0.76508 0.0
O532 O 0.03313 0.89294 0.71326 0.0
O533 O 0.06254 0.92009 0.78261 0.0
O534 O 0.03288 0.89346 0.81689 0.0
O535 O 0.1113 0.87462 0.71735 0.0
O536 O 0.98313 0.90748 0.74731 0.0
O537 O 0.95013 0.91796 0.78665 0.0
O538 O 0.93659 0.86395 0.84536 0.0
O539 O 0.94128 0.85765 0.7658 0.0
O540 O 0.02112 0.83989 0.75247 0.0
O541 O 0.90405 0.90329 0.82732 0.0
O542 O 0.03609 0.85071 0.81243 0.0
O543 O 0.07746 0.84318 0.77426 0.0
C544 C 0.05731 0.91681 0.80681 0.0
C545 C 0.06403 0.85996 0.68153 0.0
C546 C 0.06646 0.84698 0.63738 0.0
C547 C 0.04272 0.81875 0.64269 0.0
C548 C 0.04107 0.83143 0.6865 0.0
C549 C 0.03016 0.81105 0.66715 0.0
C550 C 0.07692 0.86763 0.65689 0.0
C551 C 0.95706 0.92504 0.76307 0.0
C552 C 0.07433 0.88187 0.70183 0.0
C553 C 0.2665 0.93365 0.76733 0.0
C554 C 0.24033 0.96149 0.76378 0.0
C555 C 0.96956 0.83725 0.75371 0.0
C556 C 0.85635 0.88277 0.86168 0.0
C557 C 0.81041 0.87809 0.90154 0.0
C558 C 0.76296 0.87275 0.88886 0.0
C559 C 0.80854 0.87718 0.84937 0.0
C560 C 0.8571 0.88319 0.88784 0.0
C561 C 0.76213 0.87229 0.86293 0.0
C562 C 0.07185 0.83722 0.79812 0.0
C563 C 0.90598 0.88755 0.84772 0.0
H564 H 0.03413 0.80266 0.62789 0.0
H565 H 0.03161 0.82494 0.70531 0.0
H566 H 0.012 0.7892 0.67113 0.0
H567 H 0.09487 0.88957 0.65287 0.0
H568 H 0.72663 0.86879 0.89907 0.0
H569 H 0.80703 0.87655 0.82933 0.0
H570 H 0.8939 0.88729 0.89753 0.0
H571 H 0.72539 0.86803 0.85331 0.0
Eu572 Eu 0.45749 0.64078 0.24771 0.0
C573 C 0.68637 0.64956 0.28684 0.0
N574 N 0.65102 0.62809 0.29449 0.0
C575 C 0.71549 0.58866 0.28754 0.0
C576 C 0.73701 0.64113 0.27812 0.0
C577 C 0.66593 0.59813 0.29619 0.0
C578 C 0.75085 0.61017 0.27804 0.0
C579 C 0.70948 0.70315 0.28234 0.0
C580 C 0.67301 0.68021 0.28897 0.0
C581 C 0.75891 0.69479 0.2725 0.0
C582 C 0.77266 0.66385 0.27041 0.0
Eu583 Eu 0.56596 0.64673 0.30591 0.0
N584 N 0.62463 0.68764 0.29827 0.0
C585 C 0.69559 0.73377 0.28641 0.0
C586 C 0.61281 0.71714 0.30436 0.0
C587 C 0.64748 0.74075 0.29797 0.0
H588 H 0.63952 0.58133 0.30409 0.0
H589 H 0.63725 0.76426 0.30209 0.0
H590 H 0.34708 0.6824 0.25959 0.0
H591 H 0.47248 0.52596 0.20866 0.0
H592 H 0.57658 0.72225 0.31402 0.0
H593 H 0.72243 0.75209 0.28149 0.0
H594 H 0.50318 0.57809 0.21908 0.0
H595 H 0.72648 0.56478 0.28832 0.0
H596 H 0.78728 0.71208 0.26704 0.0
H597 H 0.81148 0.65776 0.2634 0.0
H598 H 0.252 0.67317 0.2663 0.0
H599 H 0.78932 0.60276 0.27146 0.0
H600 H 0.38009 0.51094 0.21794 0.0
N601 N 0.36485 0.63563 0.2522 0.0
C602 C 0.34507 0.60715 0.24803 0.0
C603 C 0.27782 0.65435 0.26137 0.0
C604 C 0.29074 0.601 0.25115 0.0
C605 C 0.3319 0.65942 0.25782 0.0
C606 C 0.25724 0.62495 0.25836 0.0
N607 N 0.43092 0.59113 0.23623 0.0
C608 C 0.46364 0.57126 0.22409 0.0
C609 C 0.35919 0.55511 0.23349 0.0
C610 C 0.37895 0.58434 0.23953 0.0
C611 C 0.39375 0.53363 0.2229 0.0
C612 C 0.44597 0.54197 0.21772 0.0
H613 H 0.21527 0.62115 0.26099 0.0
H614 H 0.22985 0.56623 0.24892 0.0
H615 H 0.28972 0.52612 0.23332 0.0
O616 O 0.49155 0.64133 0.21034 0.0
O617 O 0.43993 0.60764 0.27882 0.0
O618 O 0.49855 0.61297 0.31219 0.0
O619 O 0.41275 0.659 0.21648 0.0
O620 O 0.54079 0.62084 0.24827 0.0
O621 O 0.55929 0.60136 0.28619 0.0
O622 O 0.56176 0.66839 0.34268 0.0
O623 O 0.57499 0.67389 0.26957 0.0
O624 O 0.49286 0.68697 0.25511 0.0
O625 O 0.60485 0.62638 0.33803 0.0
O626 O 0.49055 0.67392 0.31197 0.0
O627 O 0.43344 0.67543 0.27759 0.0
C628 C 0.45626 0.60118 0.30138 0.0
C629 C 0.45924 0.67706 0.18121 0.0
C630 C 0.45381 0.69287 0.1379 0.0
C631 C 0.47717 0.72093 0.14431 0.0
C632 C 0.48161 0.70539 0.18735 0.0
C633 C 0.49095 0.72711 0.16893 0.0
C634 C 0.44525 0.67088 0.15643 0.0
C635 C 0.55679 0.59796 0.26209 0.0
C636 C 0.44999 0.65367 0.20026 0.0
C637 C 0.2714 0.57144 0.2464 0.0
C638 C 0.3055 0.54858 0.23753 0.0
C639 C 0.54347 0.69237 0.25722 0.0
C640 C 0.63211 0.65915 0.37062 0.0
C641 C 0.66757 0.66288 0.41272 0.0
C642 C 0.71125 0.67899 0.40337 0.0
C643 C 0.67614 0.67526 0.36169 0.0
C644 C 0.62784 0.65306 0.39623 0.0
C645 C 0.71536 0.68518 0.37803 0.0
C646 C 0.44674 0.68244 0.30072 0.0
C647 C 0.5911 0.64798 0.35342 0.0
H648 H 0.48417 0.73812 0.13029 0.0
H649 H 0.49147 0.7107 0.20635 0.0
H650 H 0.50858 0.74888 0.17379 0.0
H651 H 0.42743 0.64912 0.15158 0.0
H652 H 0.74222 0.68668 0.41573 0.0
H653 H 0.68039 0.68 0.34213 0.0
H654 H 0.59412 0.64046 0.4033 0.0
H655 H 0.74925 0.69756 0.37099 0.0
C656 C 0.07866 1.00953 0.30706 0.0
C657 C 0.1023 0.01175 0.33079 0.0
C658 C 0.09478 0.06758 0.32934 0.0
C659 C 0.06547 0.06529 0.30691 0.0
N660 N 0.02209 0.03305 0.27665 0.0
N661 N 0.12592 0.04226 0.36639 0.0
C662 C 0.05571 0.03597 0.29626 0.0
C663 C 0.10821 0.04061 0.3425 0.0
N664 N 0.07887 0.98221 0.29461 0.0
N665 N 0.1126 0.09536 0.3374 0.0
H666 H 0.13715 0.02305 0.37645 0.0
H667 H 0.12525 0.06232 0.3769 0.0
H668 H 0.10643 0.11542 0.32762 0.0
H669 H 0.13861 0.0981 0.35216 0.0
H670 H 0.06786 0.97992 0.2761 0.0
H671 H 0.09421 0.96219 0.30213 0.0
H672 H 0.00878 0.0121 0.26987 0.0
H673 H 0.00303 0.05157 0.26872 0.0
C674 C 0.41449 0.46399 0.85929 0.0
C675 C 0.4093 0.49372 0.84923 0.0
C676 C 0.39752 0.47147 0.80782 0.0
C677 C 0.4096 0.44188 0.81704 0.0
N678 N 0.40397 0.40951 0.85305 0.0
N679 N 0.40486 0.52621 0.81341 0.0
C680 C 0.41129 0.43795 0.84329 0.0
C681 C 0.40359 0.49755 0.82334 0.0
N682 N 0.42331 0.46062 0.88413 0.0
N683 N 0.37364 0.47451 0.78544 0.0
H684 H 0.40922 0.54593 0.8242 0.0
H685 H 0.40682 0.53013 0.79437 0.0
H686 H 0.35718 0.4558 0.77661 0.0
H687 H 0.36104 0.49531 0.77827 0.0
H688 H 0.43476 0.44008 0.89214 0.0
H689 H 0.42313 0.4789 0.89663 0.0
H690 H 0.4004 0.40515 0.87195 0.0
H691 H 0.39391 0.39071 0.84218 0.0
C692 C 0.56114 0.50536 0.73191 0.0
C693 C 0.60979 0.501 0.71921 0.0
C694 C 0.60085 0.44547 0.72405 0.0
C695 C 0.55593 0.44987 0.73964 0.0
N696 N 0.49261 0.48461 0.75831 0.0
N697 N 0.68048 0.46752 0.70645 0.0
C698 C 0.53604 0.48004 0.74361 0.0
C699 C 0.63089 0.47121 0.71619 0.0
N700 N 0.53781 0.53357 0.73191 0.0
N701 N 0.61407 0.41683 0.71599 0.0
H702 H 0.70346 0.48579 0.70026 0.0
H703 H 0.70061 0.44676 0.70658 0.0
H704 H 0.59193 0.39752 0.72026 0.0
H705 H 0.64346 0.41259 0.70281 0.0
H706 H 0.49953 0.5377 0.73824 0.0
H707 H 0.55511 0.55268 0.72372 0.0
H708 H 0.48108 0.50592 0.76509 0.0
H709 H 0.46882 0.46688 0.76453 0.0
C710 C 0.85543 0.05 0.21562 0.0
C711 C 0.88838 0.03357 0.19891 0.0
C712 C 0.96592 0.0608 0.21495 0.0
C713 C 0.93247 0.07914 0.2303 0.0
N714 N 0.84413 0.09592 0.24024 0.0
N715 N 0.97348 0.027 0.1793 0.0
C716 C 0.87681 0.07494 0.22934 0.0
C717 C 0.94318 0.04012 0.19756 0.0
N718 N 0.80382 0.04154 0.21864 0.0
N719 N 0.01948 0.06193 0.21772 0.0
H720 H 0.95868 1.01113 0.16659 0.0
H721 H 0.01214 0.0337 0.17544 0.0
H722 H 0.03789 0.07615 0.23047 0.0
H723 H 0.04543 0.04665 0.20916 0.0
H724 H 0.77954 0.05044 0.23259 0.0
H725 H 0.78656 0.02377 0.20853 0.0
H726 H 0.80322 0.09583 0.23818 0.0
H727 H 0.85852 0.11522 0.24931 0.0
C728 C 0.91826 1.0085 0.75134 0.0
C729 C 0.88781 1.00516 0.72947 0.0
C730 C 0.89388 0.9494 0.73299 0.0
C731 C 0.93007 0.9527 0.75292 0.0
N732 N 0.98249 0.98605 0.77882 0.0
N733 N 0.85153 0.9727 0.69755 0.0
C734 C 0.94342 0.98245 0.76168 0.0
C735 C 0.87693 0.97566 0.71977 0.0
N736 N 0.92258 0.03656 0.76245 0.0
N737 N 0.87384 0.92126 0.72735 0.0
H738 H 0.83778 0.99137 0.68752 0.0
H739 H 0.84787 0.95197 0.68812 0.0
H740 H 0.88379 0.90183 0.7373 0.0
H741 H 0.84338 0.91767 0.71475 0.0
H742 H 0.93918 0.03989 0.7799 0.0
H743 H 0.9055 0.05626 0.75518 0.0
H744 H 0.99824 1.00717 0.78387 0.0
H745 H 0.00293 0.9677 0.7862 0.0
C746 C 0.63462 0.55511 0.21271 0.0
C747 C 0.61721 0.52477 0.21702 0.0
C748 C 0.57673 0.54107 0.25646 0.0
C749 C 0.58636 0.57206 0.25 0.0
N750 N 0.64553 0.60637 0.22919 0.0
N751 N 0.56965 0.48857 0.24221 0.0
C752 C 0.62142 0.57849 0.2301 0.0
C753 C 0.58847 0.51757 0.2389 0.0
N754 N 0.66228 0.56176 0.19155 0.0
N755 N 0.55924 0.53375 0.27968 0.0
H756 H 0.57819 0.47058 0.23005 0.0
H757 H 0.54234 0.48286 0.25595 0.0
H758 H 0.55146 0.54985 0.29347 0.0
H759 H 0.55721 0.51141 0.28618 0.0
H760 H 0.67008 0.58393 0.18567 0.0
H761 H 0.67512 0.54503 0.17904 0.0
H762 H 0.6753 0.612 0.21663 0.0
H763 H 0.64032 0.6226 0.24321 0.0
C764 C 0.38467 0.52615 0.31522 0.0
C765 C 0.37323 0.52958 0.3408 0.0
C766 C 0.4095 0.58167 0.33989 0.0
C767 C 0.4271 0.57669 0.31505 0.0
N768 N 0.44083 0.54094 0.28127 0.0
N769 N 0.37895 0.55913 0.3785 0.0
C770 C 0.41682 0.54815 0.30323 0.0
C771 C 0.3868 0.55696 0.35345 0.0
N772 N 0.36459 0.50188 0.30222 0.0
N773 N 0.41247 0.61022 0.35022 0.0
H774 H 0.36092 0.54186 0.38879 0.0
H775 H 0.39351 0.57704 0.38929 0.0
H776 H 0.42801 0.62901 0.3409 0.0
H777 H 0.39518 0.61597 0.36719 0.0
H778 H 0.36649 0.50026 0.28293 0.0
H779 H 0.34176 0.48479 0.31039 0.0
H780 H 0.43991 0.51916 0.27337 0.0
H781 H 0.46684 0.55564 0.2724 0.0
C782 C 0.07222 0.98738 0.84839 0.0
C783 C 0.12678 0.98653 0.85401 0.0
C784 C 0.13679 0.94021 0.82819 0.0
C785 C 0.08142 0.94024 0.82369 0.0
N786 N 0.99519 0.95945 0.83507 0.0
N787 N 0.21107 0.96131 0.85134 0.0
C788 C 0.04882 0.96258 0.83538 0.0
C789 C 0.15924 0.96276 0.84435 0.0
N790 N 0.04277 0.01235 0.85504 0.0
N791 N 0.16753 0.91808 0.81751 0.0
H792 H 0.22869 0.97782 0.86263 0.0
H793 H 0.23629 0.94326 0.84707 0.0
H794 H 0.15161 0.89983 0.80755 0.0
H795 H 0.2086 0.91797 0.81785 0.0
H796 H 0.00431 0.01595 0.84892 0.0
H797 H 0.05832 0.03094 0.86479 0.0
H798 H 0.96957 0.97288 0.84567 0.0
H799 H 0.97653 0.94158 0.82595 0.0
C800 C 0.17974 0.10645 0.08277 0.0
C801 C 0.21445 0.1299 0.07429 0.0
C802 C 0.2303 0.14396 0.11806 0.0
C803 C 0.189 0.12432 0.12579 0.0
N804 N 0.11991 0.089 0.11489 0.0
N805 N 0.29794 0.15125 0.08714 0.0
C806 C 0.1618 0.10664 0.10785 0.0
C807 C 0.24692 0.14375 0.09278 0.0
N808 N 0.17384 0.08039 0.06907 0.0
N809 N 0.25461 0.16245 0.135 0.0
H810 H 0.31516 0.14522 0.07016 0.0
H811 H 0.32506 0.1588 0.10032 0.0
H812 H 0.24359 0.16292 0.1537 0.0
H813 H 0.28189 0.17919 0.12995 0.0
H814 H 0.15217 0.06158 0.07517 0.0
H815 H 0.19879 0.0755 0.05409 0.0
H816 H 0.09619 0.07751 0.1021 0.0
H817 H 0.10623 0.08835 0.13319 0.0
C818 C 0.32993 0.40123 0.58163 0.0
C819 C 0.3356 0.37551 0.56561 0.0
C820 C 0.34072 0.3416 0.60169 0.0
C821 C 0.33646 0.36742 0.61767 0.0
N822 N 0.33766 0.42202 0.62335 0.0
N823 N 0.35656 0.32222 0.55996 0.0
C824 C 0.33457 0.39734 0.60775 0.0
C825 C 0.34411 0.34596 0.57554 0.0
N826 N 0.31771 0.42916 0.57195 0.0
N827 N 0.33981 0.31286 0.61152 0.0
H828 H 0.35902 0.32462 0.54074 0.0
H829 H 0.36858 0.30082 0.56609 0.0
H830 H 0.33951 0.30883 0.63058 0.0
H831 H 0.33629 0.29303 0.60089 0.0
H832 H 0.30714 0.44804 0.58272 0.0
H833 H 0.31417 0.43303 0.55296 0.0
H834 H 0.34212 0.4444 0.61725 0.0
H835 H 0.34035 0.41992 0.64258 0.0
C836 C 0.69496 0.37514 0.97137 0.0
C837 C 0.65777 0.38313 0.99016 0.0
C838 C 0.60201 0.40805 0.95899 0.0
C839 C 0.63802 0.39879 0.94012 0.0
N840 N 0.71282 0.3684 0.92739 0.0
N841 N 0.57137 0.40192 1.00145 0.0
C842 C 0.68263 0.38067 0.94605 0.0
C843 C 0.60987 0.39803 0.98383 0.0
N844 N 0.74318 0.36361 0.97779 0.0
N845 N 0.56132 0.42729 0.95332 0.0
H846 H 0.5758 0.39484 1.01977 0.0
H847 H 0.53351 0.40976 0.99753 0.0
H848 H 0.55349 0.43439 0.93526 0.0
H849 H 0.53745 0.43782 0.96663 0.0
H850 H 0.77416 0.36057 0.96523 0.0
H851 H 0.754 0.35938 0.9961 0.0
H852 H 0.74247 0.35235 0.93033 0.0
H853 H 0.70512 0.37218 0.90865 0.0
C854 C 0.9134 0.11881 0.48458 0.0
C855 C 0.87282 0.13713 0.49526 0.0
C856 C 0.84692 0.15399 0.4536 0.0
C857 C 0.8817 0.13205 0.44296 0.0
N858 N 0.9478 0.09303 0.44786 0.0
N859 N 0.79983 0.17186 0.49032 0.0
C860 C 0.91548 0.11461 0.45833 0.0
C861 C 0.83974 0.15503 0.47987 0.0
N862 N 0.95017 0.10565 0.49963 0.0
N863 N 0.82083 0.17379 0.43845 0.0
H864 H 0.79418 0.17369 0.50945 0.0
H865 H 0.77043 0.18259 0.48013 0.0
H866 H 0.82532 0.17337 0.41919 0.0
H867 H 0.79856 0.19221 0.4449 0.0
H868 H 0.98371 0.09442 0.49305 0.0
H869 H 0.94953 0.10823 0.51889 0.0
H870 H 0.96851 0.07686 0.45803 0.0
H871 H 0.95188 0.09023 0.42871 0.0
C872 C 0.77869 0.90073 0.96842 0.0
C873 C 0.79841 0.87512 0.98153 0.0
C874 C 0.82848 0.85192 0.94226 0.0
C875 C 0.81048 0.87803 0.92926 0.0
N876 N 0.77871 0.9299 0.93021 0.0
N877 N 0.85178 0.82954 0.98184 0.0
C878 C 0.7888 0.90328 0.94247 0.0
C879 C 0.82636 0.85169 0.96869 0.0
N880 N 0.74831 0.92196 0.98055 0.0
N881 N 0.84556 0.8268 0.9293 0.0
H882 H 0.85107 0.82872 1.00118 0.0
H883 H 0.87733 0.81364 0.9738 0.0
H884 H 0.84848 0.82622 0.91 0.0
H885 H 0.85326 0.8058 0.93751 0.0
H886 H 0.7277 0.9392 0.97155 0.0
H887 H 0.74037 0.92107 0.99954 0.0
H888 H 0.76806 0.95017 0.93913 0.0
H889 H 0.78559 0.93248 0.91123 0.0
C890 C 0.69366 0.62471 0.47502 0.0
C891 C 0.66886 0.64554 0.49172 0.0
C892 C 0.64226 0.67765 0.45657 0.0
C893 C 0.66472 0.656 0.43983 0.0
N894 N 0.70459 0.60676 0.43255 0.0
N895 N 0.61266 0.68923 0.49856 0.0
C896 C 0.68817 0.62883 0.44893 0.0
C897 C 0.64119 0.67131 0.48252 0.0
N898 N 0.72414 0.60159 0.48415 0.0
N899 N 0.62308 0.70463 0.44766 0.0
H900 H 0.61159 0.68552 0.51766 0.0
H901 H 0.58696 0.70635 0.49289 0.0
H902 H 0.62117 0.70949 0.42876 0.0
H903 H 0.61199 0.72295 0.45893 0.0
H904 H 0.7481 0.58767 0.47313 0.0
H905 H 0.72882 0.59769 0.50309 0.0
H906 H 0.71658 0.58502 0.43786 0.0
H907 H 0.70236 0.60929 0.41335 0.0
C908 C 0.46187 0.67868 0.068 0.0
C909 C 0.40785 0.68114 0.06129 0.0
C910 C 0.38369 0.69069 0.10488 0.0
C911 C 0.43741 0.68701 0.11174 0.0
N912 N 0.52607 0.67184 0.10087 0.0
N913 N 0.31621 0.68328 0.07356 0.0
C914 C 0.47605 0.67924 0.09357 0.0
C915 C 0.3684 0.68524 0.07984 0.0
N916 N 0.49982 0.67703 0.04989 0.0
N917 N 0.34759 0.70056 0.12212 0.0
H918 H 0.30361 0.67938 0.05541 0.0
H919 H 0.28556 0.68284 0.08651 0.0
H920 H 0.357 0.70434 0.1407 0.0
H921 H 0.30927 0.70716 0.11771 0.0
H922 H 0.54013 0.67873 0.05339 0.0
H923 H 0.49094 0.67609 0.03102 0.0
H924 H 0.55465 0.66289 0.08892 0.0
H925 H 0.5378 0.67222 0.1194 0.0
C926 C 0.14435 0.85703 0.57693 0.0
C927 C 0.10336 0.86582 0.56056 0.0
C928 C 0.03999 0.86608 0.59531 0.0
C929 C 0.07991 0.85472 0.61118 0.0
N930 N 0.16837 0.83569 0.61681 0.0
N931 N 0.01075 0.87462 0.5531 0.0
C932 C 0.1317 0.84921 0.60191 0.0
C933 C 0.05075 0.86929 0.56948 0.0
N934 N 0.19562 0.85705 0.56878 0.0
N935 N 0.99209 0.8744 0.60506 0.0
H936 H 0.01704 0.87716 0.53408 0.0
H937 H 0.97089 0.87405 0.55796 0.0
H938 H 0.9826 0.87198 0.62381 0.0
H939 H 0.96329 0.88596 0.59509 0.0
H940 H 0.22792 0.85417 0.58042 0.0
H941 H 0.2063 0.86233 0.55059 0.0
H942 H 0.20479 0.82777 0.61041 0.0
H943 H 0.16099 0.83038 0.63535 0.0
C944 C 0.10072 0.2226 0.35599 0.0
C945 C 0.10744 0.25263 0.34667 0.0
C946 C 0.05461 0.23915 0.31003 0.0
C947 C 0.05347 0.20823 0.31784 0.0
N948 N 0.07362 0.17029 0.34855 0.0
N949 N 0.09588 0.28909 0.31387 0.0
C950 C 0.07617 0.19993 0.3409 0.0
C951 C 0.08549 0.26086 0.32347 0.0
N952 N 0.116 0.21613 0.37971 0.0
N953 N 0.02566 0.24785 0.28994 0.0
H954 H 0.11788 0.30559 0.32331 0.0
H955 H 0.08632 0.29535 0.29584 0.0
H956 H 0.0033 0.23253 0.27945 0.0
H957 H 0.02047 0.27053 0.28476 0.0
H958 H 0.10713 0.1958 0.38876 0.0
H959 H 0.13447 0.23201 0.39128 0.0
H960 H 0.09575 0.16146 0.36306 0.0
H961 H 0.04988 0.15417 0.33981 0.0
C962 C 0.35703 0.28067 0.83235 0.0
C963 C 0.38855 0.25536 0.8392 0.0
C964 C 0.46534 0.27885 0.81841 0.0
C965 C 0.43443 0.30515 0.81303 0.0
N966 N 0.35501 0.3341 0.82173 0.0
N967 N 0.47478 0.23258 0.84274 0.0
C968 C 0.38144 0.3069 0.82192 0.0
C969 C 0.44338 0.25509 0.83335 0.0
N970 N 0.3033 0.27939 0.83498 0.0
N971 N 0.51511 0.27608 0.80869 0.0
H972 H 0.46007 0.21494 0.85374 0.0
H973 H 0.51585 0.23279 0.84148 0.0
H974 H 0.53319 0.29309 0.79821 0.0
H975 H 0.5371 0.256 0.80941 0.0
H976 H 0.27804 0.29577 0.82762 0.0
H977 H 0.28358 0.26061 0.84246 0.0
H978 H 0.31888 0.33749 0.83069 0.0
H979 H 0.37103 0.35402 0.8144 0.0
C980 C 0.58951 0.26988 0.72063 0.0
C981 C 0.64331 0.27598 0.71499 0.0
C982 C 0.63734 0.32477 0.73751 0.0
C983 C 0.58453 0.31788 0.74477 0.0
N984 N 0.51344 0.28101 0.7466 0.0
N985 N 0.72169 0.30576 0.72254 0.0
C986 C 0.56161 0.28952 0.73736 0.0
C987 C 0.66823 0.3023 0.72494 0.0
N988 N 0.56427 0.24609 0.70915 0.0
N989 N 0.65697 0.35353 0.74087 0.0
H990 H 0.74551 0.28983 0.71333 0.0
H991 H 0.74285 0.32285 0.73168 0.0
H992 H 0.63551 0.37092 0.74943 0.0
H993 H 0.69261 0.36092 0.73321 0.0
H994 H 0.52357 0.2427 0.71007 0.0
H995 H 0.58337 0.23097 0.69707 0.0
H996 H 0.49754 0.25923 0.74426 0.0
H997 H 0.4912 0.29475 0.75852 0.0
C998 C 0.8326 0.234 0.23047 0.0
C999 C 0.85896 0.24899 0.2107 0.0
C1000 C 0.92477 0.20785 0.2098 0.0
C1001 C 0.90524 0.19704 0.23294 0.0
N1002 N 0.82132 0.18611 0.25153 0.0
N1003 N 0.93135 0.25041 0.18143 0.0
C1004 C 0.85359 0.20628 0.2398 0.0
C1005 C 0.90524 0.23587 0.20019 0.0
N1006 N 0.78777 0.24626 0.24065 0.0
N1007 N 0.95598 0.18948 0.19534 0.0
H1008 H 0.91779 0.2707 0.17362 0.0
H1009 H 0.96847 0.24351 0.17506 0.0
H1010 H 0.96312 0.16668 0.19969 0.0
H1011 H 0.96787 0.19528 0.17743 0.0
H1012 H 0.77069 0.23789 0.2569 0.0
H1013 H 0.7697 0.26588 0.23381 0.0
H1014 H 0.78093 0.18983 0.25395 0.0
H1015 H 0.83331 0.16381 0.25493 0.0
C1016 C 0.87921 0.80288 0.70431 0.0
C1017 C 0.88787 0.77115 0.70746 0.0
C1018 C 0.94755 0.78245 0.74222 0.0
C1019 C 0.94252 0.81425 0.73749 0.0
N1020 N 0.91496 0.85363 0.70933 0.0
N1021 N 0.93646 0.73052 0.72689 0.0
C1022 C 0.91126 0.82419 0.7173 0.0
C1023 C 0.92381 0.76084 0.72575 0.0
N1024 N 0.83962 0.81278 0.68919 0.0
N1025 N 0.97368 0.77289 0.76284 0.0
H1026 H 0.91951 0.71406 0.71533 0.0
H1027 H 0.96669 0.72197 0.73789 0.0
H1028 H 0.99071 0.78808 0.7754 0.0
H1029 H 0.97443 0.75027 0.76873 0.0
H1030 H 0.82799 0.83559 0.68828 0.0
H1031 H 0.81505 0.79789 0.67939 0.0
H1032 H 0.89726 0.86144 0.69315 0.0
H1033 H 0.94092 0.86923 0.71727 0.0
C1034 C 0.58455 0.77137 0.23385 0.0
C1035 C 0.62571 0.76361 0.21704 0.0
C1036 C 0.60927 0.70908 0.22448 0.0
C1037 C 0.56801 0.71685 0.24147 0.0
N1038 N 0.50506 0.75518 0.25499 0.0
N1039 N 0.67361 0.72567 0.19359 0.0
C1040 C 0.55221 0.74791 0.24403 0.0
C1041 C 0.6372 0.73256 0.21164 0.0
N1042 N 0.57711 0.80123 0.24064 0.0
N1043 N 0.62007 0.67903 0.21988 0.0
H1044 H 0.69514 0.74232 0.18413 0.0
H1045 H 0.68108 0.70375 0.18692 0.0
H1046 H 0.59406 0.66175 0.22501 0.0
H1047 H 0.65383 0.67116 0.21081 0.0
H1048 H 0.55228 0.80794 0.25516 0.0
H1049 H 0.59916 0.81917 0.23323 0.0
H1050 H 0.48939 0.77718 0.2552 0.0
H1051 H 0.47821 0.73895 0.2612 0.0
C1052 C 0.32469 0.71202 0.33568 0.0
C1053 C 0.34484 0.73946 0.34617 0.0
C1054 C 0.42819 0.73181 0.32353 0.0
C1055 C 0.41038 0.70273 0.31522 0.0
N1056 N 0.3445 0.66286 0.31687 0.0
N1057 N 0.41871 0.77324 0.35324 0.0
C1058 C 0.35921 0.69225 0.32211 0.0
C1059 C 0.3974 0.74878 0.34092 0.0
N1060 N 0.27227 0.70514 0.33828 0.0
N1061 N 0.47388 0.7437 0.31417 0.0
H1062 H 0.39754 0.78639 0.36606 0.0
H1063 H 0.45864 0.77894 0.35234 0.0
H1064 H 0.49675 0.73195 0.30121 0.0
H1065 H 0.48628 0.76609 0.3173 0.0
H1066 H 0.25399 0.68723 0.32883 0.0
H1067 H 0.24601 0.719 0.34822 0.0
H1068 H 0.31021 0.65282 0.32383 0.0
H1069 H 0.3687 0.64758 0.30721 0.0
C1070 C 0.14931 0.79445 0.848 0.0
C1071 C 0.16743 0.76831 0.83495 0.0
C1072 C 0.12267 0.78629 0.79741 0.0
C1073 C 0.10783 0.81398 0.80992 0.0
N1074 N 0.12408 0.84736 0.84515 0.0
N1075 N 0.18294 0.74326 0.79569 0.0
C1076 C 0.12599 0.81889 0.83468 0.0
C1077 C 0.15766 0.76547 0.80919 0.0
N1078 N 0.15329 0.79581 0.87326 0.0
N1079 N 0.10194 0.77865 0.77486 0.0
H1080 H 0.20896 0.72763 0.80356 0.0
H1081 H 0.18224 0.74233 0.77636 0.0
H1082 H 0.07695 0.79246 0.76474 0.0
H1083 H 0.10609 0.75698 0.76695 0.0
H1084 H 0.1354 0.81289 0.88392 0.0
H1085 H 0.17022 0.77842 0.88371 0.0
H1086 H 0.1413 0.85263 0.86217 0.0
H1087 H 0.11171 0.86656 0.83557 0.0
loop_
_geom_bond_atom_site_label_1
_geom_bond_atom_site_label_2
_geom_bond_distance
_geom_bond_site_symmetry_2
_ccdc_geom_bond_type
C0 C1 1.264 . S
C0 C5 1.479 . S
C0 C10 1.465 . S
C1 C0 1.264 . S
C1 C3 1.339 . S
C1 H28 0.931 . S
C2 C3 1.395 . S
C2 C4 1.320 . S
C3 C1 1.339 . S
C3 C2 1.395 . S
C3 H29 0.929 . S
C4 C2 1.320 . S
C4 C5 1.405 . S
C4 H30 0.930 . S
C5 C0 1.479 . S
C5 C4 1.405 . S
C5 H31 0.931 . S
U6 O7 2.454 . S
U6 O8 2.458 . S
U6 C9 2.984 . S
U6 C10 2.847 . S
U6 C23 2.882 . S
U6 O24 2.441 . S
U6 O25 2.420 . S
U6 O26 2.455 . S
U6 O27 2.449 . S
O7 U6 2.454 . S
O7 C9 1.353 . S
O8 U6 2.458 . S
O8 C9 1.286 . S
C9 U6 2.984 . S
C9 O7 1.353 . S
C9 O8 1.286 . S
C9 C11 1.363 . S
C10 C0 1.465 . S
C10 U6 2.847 . S
C10 O24 1.249 . S
C10 O25 1.202 . S
C11 C9 1.363 . S
C11 C13 1.408 . S
C11 C16 1.342 . S
C12 C13 1.310 . S
C12 C15 1.461 . S
C12 H32 0.932 . S
C13 C11 1.408 . S
C13 C12 1.310 . S
C13 H33 0.930 . S
C14 C15 1.474 . S
C14 C16 1.285 . S
C14 H34 0.929 . S
C15 C12 1.461 . S
C15 C14 1.474 . S
C16 C11 1.342 . S
C16 C14 1.285 . S
C16 H35 0.930 . S
C17 C20 1.424 . S
C17 C22 1.245 . S
C17 C23 1.428 . S
C18 C21 1.260 . S
C18 C22 1.477 . S
C18 H36 0.932 . S
C19 C20 1.384 . S
C19 C21 1.479 . S
C19 H37 0.929 . S
C20 C17 1.424 . S
C20 C19 1.384 . S
C20 H38 0.928 . S
C21 C18 1.260 . S
C21 C19 1.479 . S
C22 C17 1.245 . S
C22 C18 1.477 . S
C22 H39 0.932 . S
C23 U6 2.882 . S
C23 C17 1.428 . S
C23 O26 1.301 . S
C23 O27 1.282 . S
O24 U6 2.441 . S
O24 C10 1.249 . S
O25 U6 2.420 . S
O25 C10 1.202 . S
O26 U6 2.455 . S
O26 C23 1.301 . S
O27 U6 2.449 . S
O27 C23 1.282 . S
H28 C1 0.931 . S
H29 C3 0.929 . S
H30 C4 0.930 . S
H31 C5 0.931 . S
H32 C12 0.932 . S
H33 C13 0.930 . S
H34 C14 0.929 . S
H35 C16 0.930 . S
H36 C18 0.932 . S
H37 C19 0.929 . S
H38 C20 0.928 . S
H39 C22 0.932 . S
C40 C41 1.264 . S
C40 C45 1.479 . S
C40 C50 1.465 . S
C41 C40 1.264 . S
C41 C43 1.339 1_556 S
C41 H68 0.931 . S
C42 C43 1.395 . S
C42 C44 1.320 . S
C43 C41 1.339 1_554 S
C43 C42 1.395 . S
C43 H69 0.929 . S
C44 C42 1.320 . S
C44 C45 1.405 1_554 S
C44 H70 0.930 . S
C45 C40 1.479 . S
C45 C44 1.405 1_556 S
C45 H71 0.931 . S
U46 O47 2.454 . S
U46 O48 2.458 . S
U46 C49 2.984 . S
U46 C50 2.847 . S
U46 C63 2.882 . S
U46 O64 2.441 . S
U46 O65 2.420 . S
U46 O66 2.455 . S
U46 O67 2.449 . S
O47 U46 2.454 . S
O47 C49 1.353 . S
O48 U46 2.458 . S
O48 C49 1.286 . S
C49 U46 2.984 . S
C49 O47 1.353 . S
C49 O48 1.286 . S
C49 C51 1.363 . S
C50 C40 1.465 . S
C50 U46 2.847 . S
C50 O64 1.249 . S
C50 O65 1.202 . S
C51 C49 1.363 . S
C51 C53 1.408 . S
C51 C56 1.342 . S
C52 C53 1.310 . S
C52 C55 1.461 . S
C52 H72 0.932 . S
C53 C51 1.408 . S
C53 C52 1.310 . S
C53 H73 0.930 . S
C54 C55 1.474 . S
C54 C56 1.285 . S
C54 H74 0.929 . S
C55 C52 1.461 . S
C55 C54 1.474 . S
C56 C51 1.342 . S
C56 C54 1.285 . S
C56 H75 0.930 . S
C57 C60 1.424 . S
C57 C62 1.245 . S
C57 C63 1.428 . S
C58 C61 1.260 1_545 S
C58 C62 1.477 . S
C58 H76 0.932 . S
C59 C60 1.382 . S
C59 C61 1.479 1_545 S
C59 H77 0.930 1_545 S
C60 C57 1.424 . S
C60 C59 1.382 . S
C60 H78 0.928 . S
C61 C58 1.260 1_565 S
C61 C59 1.479 1_565 S
C62 C57 1.245 . S
C62 C58 1.477 . S
C62 H79 0.932 . S
C63 U46 2.882 . S
C63 C57 1.428 . S
C63 O66 1.301 . S
C63 O67 1.282 . S
O64 U46 2.441 . S
O64 C50 1.249 . S
O65 U46 2.420 . S
O65 C50 1.202 . S
O66 U46 2.455 . S
O66 C63 1.301 . S
O67 U46 2.449 . S
O67 C63 1.282 . S
H68 C41 0.931 . S
H69 C43 0.929 . S
H70 C44 0.930 . S
H71 C45 0.931 . S
H72 C52 0.932 . S
H73 C53 0.930 . S
H74 C54 0.929 . S
H75 C56 0.930 . S
H76 C58 0.932 . S
H77 C59 0.930 1_565 S
H78 C60 0.928 . S
H79 C62 0.932 . S
C80 C81 1.264 . S
C80 C85 1.479 . S
C80 C90 1.465 . S
C81 C80 1.264 . S
C81 C83 1.339 1_545 S
C81 H108 0.931 . S
C82 C83 1.395 . S
C82 C84 1.320 1_565 S
C83 C81 1.339 1_565 S
C83 C82 1.395 . S
C83 H109 0.929 . S
C84 C82 1.320 1_545 S
C84 C85 1.405 . S
C84 H110 0.930 . S
C85 C80 1.479 . S
C85 C84 1.405 . S
C85 H111 0.931 . S
U86 O87 2.454 . S
U86 O88 2.458 . S
U86 C89 2.984 . S
U86 C90 2.847 . S
U86 C103 2.882 . S
U86 O104 2.441 . S
U86 O105 2.420 . S
U86 O106 2.455 . S
U86 O107 2.449 . S
O87 U86 2.454 . S
O87 C89 1.353 . S
O88 U86 2.458 . S
O88 C89 1.286 . S
C89 U86 2.984 . S
C89 O87 1.353 . S
C89 O88 1.286 . S
C89 C91 1.363 . S
C90 C80 1.465 . S
C90 U86 2.847 . S
C90 O104 1.249 . S
C90 O105 1.202 . S
C91 C89 1.363 . S
C91 C93 1.408 . S
C91 C96 1.342 . S
C92 C93 1.310 . S
C92 C95 1.461 . S
C92 H112 0.932 . S
C93 C91 1.408 . S
C93 C92 1.310 . S
C93 H113 0.930 . S
C94 C95 1.474 . S
C94 C96 1.285 . S
C94 H114 0.929 . S
C95 C92 1.461 . S
C95 C94 1.474 . S
C96 C91 1.342 . S
C96 C94 1.285 . S
C96 H115 0.930 . S
C97 C100 1.424 . S
C97 C102 1.245 . S
C97 C103 1.428 . S
C98 C101 1.260 . S
C98 C102 1.477 . S
C98 H116 0.932 . S
C99 C100 1.384 . S
C99 C101 1.479 . S
C99 H117 0.929 . S
C100 C97 1.424 . S
C100 C99 1.384 . S
C100 H118 0.928 . S
C101 C98 1.260 . S
C101 C99 1.479 . S
C102 C97 1.245 . S
C102 C98 1.477 . S
C102 H119 0.932 . S
C103 U86 2.882 . S
C103 C97 1.428 . S
C103 O106 1.301 . S
C103 O107 1.282 . S
O104 U86 2.441 . S
O104 C90 1.249 . S
O105 U86 2.420 . S
O105 C90 1.202 . S
O106 U86 2.455 . S
O106 C103 1.301 . S
O107 U86 2.449 . S
O107 C103 1.282 . S
H108 C81 0.931 . S
H109 C83 0.929 . S
H110 C84 0.930 . S
H111 C85 0.931 . S
H112 C92 0.932 . S
H113 C93 0.930 . S
H114 C94 0.929 . S
H115 C96 0.930 . S
H116 C98 0.932 . S
H117 C99 0.929 . S
H118 C100 0.928 . S
H119 C102 0.932 . S
C120 C121 1.264 . S
C120 C125 1.479 . S
C120 C130 1.465 . S
C121 C120 1.264 . S
C121 C123 1.339 1_554 S
C121 H148 0.931 . S
C122 C123 1.395 . S
C122 C124 1.320 . S
C123 C121 1.339 1_556 S
C123 C122 1.395 . S
C123 H149 0.929 . S
C124 C122 1.320 . S
C124 C125 1.405 1_556 S
C124 H150 0.930 . S
C125 C120 1.479 . S
C125 C124 1.405 1_554 S
C125 H151 0.931 . S
U126 O127 2.454 . S
U126 O128 2.458 . S
U126 C129 2.984 . S
U126 C130 2.847 . S
U126 C143 2.882 . S
U126 O144 2.441 . S
U126 O145 2.420 . S
U126 O146 2.455 . S
U126 O147 2.449 . S
O127 U126 2.454 . S
O127 C129 1.353 . S
O128 U126 2.458 . S
O128 C129 1.286 . S
C129 U126 2.984 . S
C129 O127 1.353 . S
C129 O128 1.286 . S
C129 C131 1.363 . S
C130 C120 1.465 . S
C130 U126 2.847 . S
C130 O144 1.249 . S
C130 O145 1.202 . S
C131 C129 1.363 . S
C131 C133 1.408 . S
C131 C136 1.342 . S
C132 C133 1.310 . S
C132 C135 1.461 . S
C132 H152 0.932 . S
C133 C131 1.408 . S
C133 C132 1.310 . S
C133 H153 0.930 . S
C134 C135 1.474 . S
C134 C136 1.285 . S
C134 H154 0.929 . S
C135 C132 1.461 . S
C135 C134 1.474 . S
C136 C131 1.342 . S
C136 C134 1.285 . S
C136 H155 0.930 . S
C137 C140 1.424 . S
C137 C142 1.245 . S
C137 C143 1.428 . S
C138 C141 1.260 . S
C138 C142 1.477 . S
C138 H156 0.932 . S
C139 C140 1.384 . S
C139 C141 1.479 . S
C139 H157 0.929 . S
C140 C137 1.424 . S
C140 C139 1.384 . S
C140 H158 0.928 . S
C141 C138 1.260 . S
C141 C139 1.479 . S
C142 C137 1.245 . S
C142 C138 1.477 . S
C142 H159 0.932 . S
C143 U126 2.882 . S
C143 C137 1.428 . S
C143 O146 1.301 . S
C143 O147 1.282 . S
O144 U126 2.441 . S
O144 C130 1.249 . S
O145 U126 2.420 . S
O145 C130 1.202 . S
O146 U126 2.455 . S
O146 C143 1.301 . S
O147 U126 2.449 . S
O147 C143 1.282 . S
H148 C121 0.931 . S
H149 C123 0.929 . S
H150 C124 0.930 . S
H151 C125 0.931 . S
H152 C132 0.932 . S
H153 C133 0.930 . S
H154 C134 0.929 . S
H155 C136 0.930 . S
H156 C138 0.932 . S
H157 C139 0.929 . S
H158 C140 0.928 . S
H159 C142 0.932 . S
C160 C161 1.264 . S
C160 C165 1.479 . S
C160 C170 1.465 . S
C161 C160 1.264 . S
C161 C163 1.339 . S
C161 H188 0.931 . S
C162 C163 1.395 . S
C162 C164 1.320 . S
C163 C161 1.339 . S
C163 C162 1.395 . S
C163 H189 0.929 . S
C164 C162 1.320 . S
C164 C165 1.405 . S
C164 H190 0.930 . S
C165 C160 1.479 . S
C165 C164 1.405 . S
C165 H191 0.931 . S
U166 O167 2.454 . S
U166 O168 2.458 . S
U166 C169 2.984 . S
U166 C170 2.847 . S
U166 C183 2.882 . S
U166 O184 2.441 . S
U166 O185 2.420 . S
U166 O186 2.455 . S
U166 O187 2.449 . S
O167 U166 2.454 . S
O167 C169 1.353 . S
O168 U166 2.458 . S
O168 C169 1.286 . S
C169 U166 2.984 . S
C169 O167 1.353 . S
C169 O168 1.286 . S
C169 C171 1.363 . S
C170 C160 1.465 . S
C170 U166 2.847 . S
C170 O184 1.249 . S
C170 O185 1.202 . S
C171 C169 1.363 . S
C171 C173 1.408 . S
C171 C176 1.342 . S
C172 C173 1.310 . S
C172 C175 1.461 . S
C172 H192 0.932 . S
C173 C171 1.408 . S
C173 C172 1.310 . S
C173 H193 0.930 . S
C174 C175 1.474 . S
C174 C176 1.285 . S
C174 H194 0.929 . S
C175 C172 1.461 . S
C175 C174 1.474 . S
C176 C171 1.342 . S
C176 C174 1.285 . S
C176 H195 0.930 . S
C177 C180 1.424 . S
C177 C182 1.245 . S
C177 C183 1.428 . S
C178 C181 1.260 . S
C178 C182 1.477 . S
C178 H196 0.932 . S
C179 C180 1.384 . S
C179 C181 1.479 . S
C179 H197 0.929 . S
C180 C177 1.424 . S
C180 C179 1.384 . S
C180 H198 0.928 . S
C181 C178 1.260 . S
C181 C179 1.479 . S
C182 C177 1.245 . S
C182 C178 1.477 . S
C182 H199 0.932 . S
C183 U166 2.882 . S
C183 C177 1.428 . S
C183 O186 1.301 . S
C183 O187 1.282 . S
O184 U166 2.441 . S
O184 C170 1.249 . S
O185 U166 2.420 . S
O185 C170 1.202 . S
O186 U166 2.455 . S
O186 C183 1.301 . S
O187 U166 2.449 . S
O187 C183 1.282 . S
H188 C161 0.931 . S
H189 C163 0.929 . S
H190 C164 0.930 . S
H191 C165 0.931 . S
H192 C172 0.932 . S
H193 C173 0.930 . S
H194 C174 0.929 . S
H195 C176 0.930 . S
H196 C178 0.932 . S
H197 C179 0.929 . S
H198 C180 0.928 . S
H199 C182 0.932 . S
C200 C201 1.264 . S
C200 C205 1.479 . S
C200 C210 1.465 . S
C201 C200 1.264 . S
C201 C203 1.339 1_554 S
C201 H228 0.931 . S
C202 C203 1.395 . S
C202 C204 1.320 . S
C203 C201 1.339 1_556 S
C203 C202 1.395 . S
C203 H229 0.929 . S
C204 C202 1.320 . S
C204 C205 1.405 1_556 S
C204 H230 0.930 . S
C205 C200 1.479 . S
C205 C204 1.405 1_554 S
C205 H231 0.931 . S
U206 O207 2.454 . S
U206 O208 2.458 . S
U206 C209 2.984 . S
U206 C210 2.847 . S
U206 C223 2.882 . S
U206 O224 2.441 . S
U206 O225 2.420 . S
U206 O226 2.455 . S
U206 O227 2.449 . S
O207 U206 2.454 . S
O207 C209 1.353 . S
O208 U206 2.458 . S
O208 C209 1.286 . S
C209 U206 2.984 . S
C209 O207 1.353 . S
C209 O208 1.286 . S
C209 C211 1.363 . S
C210 C200 1.465 . S
C210 U206 2.847 . S
C210 O224 1.249 . S
C210 O225 1.202 . S
C211 C209 1.363 . S
C211 C213 1.408 . S
C211 C216 1.342 . S
C212 C213 1.310 . S
C212 C215 1.461 . S
C212 H232 0.932 . S
C213 C211 1.408 . S
C213 C212 1.310 . S
C213 H233 0.930 . S
C214 C215 1.474 . S
C214 C216 1.285 . S
C214 H234 0.929 . S
C215 C212 1.461 . S
C215 C214 1.474 . S
C216 C211 1.342 . S
C216 C214 1.285 . S
C216 H235 0.930 . S
C217 C220 1.424 . S
C217 C222 1.245 . S
C217 C223 1.428 . S
C218 C221 1.260 1_565 S
C218 C222 1.477 . S
C218 H236 0.932 . S
C219 C220 1.384 1_545 S
C219 C221 1.479 . S
C219 H237 0.929 . S
C220 C217 1.424 . S
C220 C219 1.384 1_565 S
C220 H238 0.928 . S
C221 C218 1.260 1_545 S
C221 C219 1.479 . S
C222 C217 1.245 . S
C222 C218 1.477 . S
C222 H239 0.932 . S
C223 U206 2.882 . S
C223 C217 1.428 . S
C223 O226 1.301 . S
C223 O227 1.282 . S
O224 U206 2.441 . S
O224 C210 1.249 . S
O225 U206 2.420 . S
O225 C210 1.202 . S
O226 U206 2.455 . S
O226 C223 1.301 . S
O227 U206 2.449 . S
O227 C223 1.282 . S
H228 C201 0.931 . S
H229 C203 0.929 . S
H230 C204 0.930 . S
H231 C205 0.931 . S
H232 C212 0.932 . S
H233 C213 0.930 . S
H234 C214 0.929 . S
H235 C216 0.930 . S
H236 C218 0.932 . S
H237 C219 0.929 . S
H238 C220 0.928 . S
H239 C222 0.932 . S
C240 C241 1.264 . S
C240 C245 1.479 . S
C240 C250 1.465 . S
C241 C240 1.264 . S
C241 C243 1.369 . S
C241 H268 0.931 . S
C242 C243 1.386 1_545 S
C242 C244 1.320 1_545 S
C243 C241 1.369 . S
C243 C242 1.386 1_565 S
C243 H269 0.906 1_565 S
C244 C242 1.320 1_565 S
C244 C245 1.405 . S
C244 H270 0.930 . S
C245 C240 1.479 . S
C245 C244 1.405 . S
C245 H271 0.931 . S
U246 O247 2.454 . S
U246 O248 2.458 . S
U246 C249 2.984 . S
U246 C250 2.847 . S
U246 C263 2.882 . S
U246 O264 2.441 . S
U246 O265 2.420 . S
U246 O266 2.455 . S
U246 O267 2.449 . S
O247 U246 2.454 . S
O247 C249 1.353 . S
O248 U246 2.458 . S
O248 C249 1.286 . S
C249 U246 2.984 . S
C249 O247 1.353 . S
C249 O248 1.286 . S
C249 C251 1.363 . S
C250 C240 1.465 . S
C250 U246 2.847 . S
C250 O264 1.249 . S
C250 O265 1.202 . S
C251 C249 1.363 . S
C251 C253 1.408 . S
C251 C256 1.342 . S
C252 C253 1.310 . S
C252 C255 1.461 . S
C252 H272 0.932 . S
C253 C251 1.408 . S
C253 C252 1.310 . S
C253 H273 0.930 . S
C254 C255 1.474 . S
C254 C256 1.285 . S
C254 H274 0.929 . S
C255 C252 1.461 . S
C255 C254 1.474 . S
C256 C251 1.342 . S
C256 C254 1.285 . S
C256 H275 0.930 . S
C257 C260 1.424 . S
C257 C262 1.245 . S
C257 C263 1.428 . S
C258 C261 1.260 . S
C258 C262 1.477 . S
C258 H276 0.932 . S
C259 C260 1.384 . S
C259 C261 1.479 . S
C259 H277 0.929 . S
C260 C257 1.424 . S
C260 C259 1.384 . S
C260 H278 0.928 . S
C261 C258 1.260 . S
C261 C259 1.479 . S
C262 C257 1.245 . S
C262 C258 1.477 . S
C262 H279 0.932 . S
C263 U246 2.882 . S
C263 C257 1.428 . S
C263 O266 1.301 . S
C263 O267 1.282 . S
O264 U246 2.441 . S
O264 C250 1.249 . S
O265 U246 2.420 . S
O265 C250 1.202 . S
O266 U246 2.455 . S
O266 C263 1.301 . S
O267 U246 2.449 . S
O267 C263 1.282 . S
H268 C241 0.931 . S
H269 C243 0.906 1_545 S
H270 C244 0.930 . S
H271 C245 0.931 . S
H272 C252 0.932 . S
H273 C253 0.930 . S
H274 C254 0.929 . S
H275 C256 0.930 . S
H276 C258 0.932 . S
H277 C259 0.929 . S
H278 C260 0.928 . S
H279 C262 0.932 . S
C280 C281 1.264 . S
C280 C285 1.479 . S
C280 C290 1.465 . S
C281 C280 1.264 . S
C281 C283 1.339 1_556 S
C281 H308 0.931 . S
C282 C283 1.395 . S
C282 C284 1.320 . S
C283 C281 1.339 1_554 S
C283 C282 1.395 . S
C283 H309 0.929 . S
C284 C282 1.320 . S
C284 C285 1.405 1_554 S
C284 H310 0.930 . S
C285 C280 1.479 . S
C285 C284 1.405 1_556 S
C285 H311 0.931 . S
U286 O287 2.454 . S
U286 O288 2.458 . S
U286 C289 2.984 . S
U286 C290 2.847 . S
U286 C303 2.882 . S
U286 O304 2.441 . S
U286 O305 2.420 . S
U286 O306 2.455 . S
U286 O307 2.449 . S
O287 U286 2.454 . S
O287 C289 1.353 . S
O288 U286 2.458 . S
O288 C289 1.286 . S
C289 U286 2.984 . S
C289 O287 1.353 . S
C289 O288 1.286 . S
C289 C291 1.363 . S
C290 C280 1.465 . S
C290 U286 2.847 . S
C290 O304 1.249 . S
C290 O305 1.202 . S
C291 C289 1.363 . S
C291 C293 1.408 . S
C291 C296 1.342 . S
C292 C293 1.310 . S
C292 C295 1.461 . S
C292 H312 0.932 . S
C293 C291 1.408 . S
C293 C292 1.310 . S
C293 H313 0.930 . S
C294 C295 1.474 . S
C294 C296 1.285 . S
C294 H314 0.929 . S
C295 C292 1.461 . S
C295 C294 1.474 . S
C296 C291 1.342 . S
C296 C294 1.285 . S
C296 H315 0.930 . S
C297 C300 1.424 . S
C297 C302 1.245 . S
C297 C303 1.428 . S
C298 C301 1.260 . S
C298 C302 1.477 . S
C298 H316 0.932 . S
C299 C300 1.384 . S
C299 C301 1.479 . S
C299 H317 0.929 . S
C300 C297 1.424 . S
C300 C299 1.384 . S
C300 H318 0.928 . S
C301 C298 1.260 . S
C301 C299 1.479 . S
C302 C297 1.245 . S
C302 C298 1.477 . S
C302 H319 0.932 . S
C303 U286 2.882 . S
C303 C297 1.428 . S
C303 O306 1.301 . S
C303 O307 1.282 . S
O304 U286 2.441 . S
O304 C290 1.249 . S
O305 U286 2.420 . S
O305 C290 1.202 . S
O306 U286 2.455 . S
O306 C303 1.301 . S
O307 U286 2.449 . S
O307 C303 1.282 . S
H308 C281 0.931 . S
H309 C283 0.929 . S
H310 C284 0.930 . S
H311 C285 0.931 . S
H312 C292 0.932 . S
H313 C293 0.930 . S
H314 C294 0.929 . S
H315 C296 0.930 . S
H316 C298 0.932 . S
H317 C299 0.929 . S
H318 C300 0.928 . S
H319 C302 0.932 . S
Eu320 N349 2.600 . S
Eu320 N355 2.562 . S
Eu320 O364 2.462 . S
Eu320 O365 2.373 . S
Eu320 O367 2.432 . S
Eu320 O368 2.293 1_455 S
Eu320 O372 2.335 . S
Eu320 O375 2.372 . S
Eu320 C384 2.787 . S
C321 N322 1.365 . S
C321 C324 1.405 . S
C321 C328 1.448 . S
N322 C321 1.365 . S
N322 C325 1.319 . S
N322 Eu331 2.600 . S
C323 C325 1.397 . S
C323 C326 1.367 . S
C323 H343 0.931 . S
C324 C321 1.405 . S
C324 C326 1.403 . S
C324 C330 1.439 . S
C325 N322 1.319 . S
C325 C323 1.397 . S
C325 H336 0.930 . S
C326 C323 1.367 . S
C326 C324 1.403 . S
C326 H347 0.929 . S
C327 C328 1.430 . S
C327 C329 1.387 . S
C327 C333 1.404 . S
C328 C321 1.448 . S
C328 C327 1.430 . S
C328 N332 1.351 . S
C329 C327 1.387 . S
C329 C330 1.374 . S
C329 H344 0.931 . S
C330 C324 1.439 . S
C330 C329 1.374 . S
C330 H345 0.931 . S
Eu331 N322 2.600 . S
Eu331 N332 2.562 . S
Eu331 O366 2.337 . S
Eu331 O369 2.372 . S
Eu331 O370 2.462 . S
Eu331 O371 2.373 . S
Eu331 O373 2.432 . S
Eu331 O374 2.291 1_655 S
Eu331 C395 2.787 . S
N332 C328 1.351 . S
N332 Eu331 2.562 . S
N332 C334 1.325 . S
C333 C327 1.404 . S
C333 C335 1.366 . S
C333 H341 0.930 . S
C334 N332 1.325 . S
C334 C335 1.416 . S
C334 H340 0.929 . S
C335 C333 1.366 . S
C335 C334 1.416 . S
C335 H337 0.930 . S
H336 C325 0.930 . S
H337 C335 0.930 . S
H338 C353 0.930 . S
H339 C360 0.930 . S
H340 C334 0.929 . S
H341 C333 0.930 . S
H342 C356 0.929 . S
H343 C323 0.931 . S
H344 C329 0.931 . S
H345 C330 0.931 . S
H346 C351 0.931 . S
H347 C326 0.929 . S
H348 C359 0.930 . S
N349 Eu320 2.600 . S
N349 C350 1.365 . S
N349 C353 1.319 . S
C350 N349 1.365 . S
C350 C352 1.405 . S
C350 C358 1.448 . S
C351 H346 0.931 . S
C351 C353 1.397 . S
C351 C354 1.367 . S
C352 C350 1.405 . S
C352 C354 1.403 . S
C352 C385 1.439 . S
C353 H338 0.930 . S
C353 N349 1.319 . S
C353 C351 1.397 . S
C354 C351 1.367 . S
C354 C352 1.403 . S
C354 H361 0.929 . S
N355 Eu320 2.562 . S
N355 C356 1.325 . S
N355 C358 1.351 . S
C356 H342 0.929 . S
C356 N355 1.325 . S
C356 C360 1.416 . S
C357 C358 1.430 . S
C357 C359 1.404 . S
C357 C386 1.387 . S
C358 C350 1.448 . S
C358 N355 1.351 . S
C358 C357 1.430 . S
C359 H348 0.930 . S
C359 C357 1.404 . S
C359 C360 1.366 . S
C360 H339 0.930 . S
C360 C356 1.416 . S
C360 C359 1.366 . S
H361 C354 0.929 . S
H362 C385 0.931 . S
H363 C386 0.931 . S
O364 Eu320 2.462 . S
O364 C384 1.252 . S
O365 Eu320 2.373 . S
O365 C376 1.249 . S
O366 Eu331 2.337 . S
O366 C376 1.261 1_655 S
O367 Eu320 2.432 . S
O367 C384 1.268 . S
O368 Eu320 2.293 1_655 S
O368 C383 1.253 . S
O369 Eu331 2.372 . S
O369 C383 1.257 . S
O370 Eu331 2.462 . S
O370 C395 1.252 . S
O371 Eu331 2.373 . S
O371 C387 1.249 . S
O372 Eu320 2.335 . S
O372 C387 1.264 1_455 S
O373 Eu331 2.432 . S
O373 C395 1.268 . S
O374 Eu331 2.291 1_455 S
O374 C394 1.255 . S
O375 Eu320 2.372 . S
O375 C394 1.257 . S
C376 O365 1.249 . S
C376 O366 1.261 1_455 S
C377 C380 1.382 . S
C377 C382 1.390 . S
C377 C384 1.506 . S
C378 C379 1.398 . S
C378 C382 1.392 . S
C379 C378 1.398 . S
C379 C381 1.372 . S
C379 H396 0.931 . S
C380 C377 1.382 . S
C380 C381 1.390 . S
C380 H397 0.931 . S
C381 C379 1.372 . S
C381 C380 1.390 . S
C381 H398 0.929 . S
C382 C377 1.390 . S
C382 C378 1.392 . S
C382 H399 0.930 . S
C383 O368 1.253 . S
C383 O369 1.257 . S
C384 Eu320 2.787 . S
C384 O364 1.252 . S
C384 O367 1.268 . S
C384 C377 1.506 . S
C385 C352 1.439 . S
C385 H362 0.931 . S
C385 C386 1.374 . S
C386 C357 1.387 . S
C386 H363 0.931 . S
C386 C385 1.374 . S
C387 O371 1.249 . S
C387 O372 1.264 1_655 S
C388 C391 1.382 . S
C388 C392 1.390 . S
C388 C395 1.506 . S
C389 C390 1.398 . S
C389 C392 1.392 . S
C390 C389 1.398 . S
C390 C393 1.372 . S
C390 H400 0.931 . S
C391 C388 1.382 . S
C391 C393 1.390 . S
C391 H401 0.931 . S
C392 C388 1.390 . S
C392 C389 1.392 . S
C392 H402 0.930 . S
C393 C390 1.372 . S
C393 C391 1.390 . S
C393 H403 0.929 . S
C394 O374 1.255 . S
C394 O375 1.257 . S
C395 Eu331 2.787 . S
C395 O370 1.252 . S
C395 O373 1.268 . S
C395 C388 1.506 . S
H396 C379 0.931 . S
H397 C380 0.931 . S
H398 C381 0.929 . S
H399 C382 0.930 . S
H400 C390 0.931 . S
H401 C391 0.931 . S
H402 C392 0.930 . S
H403 C393 0.929 . S
Eu404 N433 2.600 . S
Eu404 N439 2.562 . S
Eu404 O448 2.462 . S
Eu404 O449 2.373 . S
Eu404 O451 2.432 . S
Eu404 O452 2.291 . S
Eu404 O456 2.335 . S
Eu404 O459 2.372 . S
Eu404 C468 2.787 . S
C405 N406 1.365 . S
C405 C408 1.405 . S
C405 C412 1.448 . S
N406 C405 1.365 . S
N406 C409 1.319 . S
N406 Eu415 2.600 . S
C407 C409 1.397 . S
C407 C410 1.367 . S
C407 H427 0.931 . S
C408 C405 1.405 . S
C408 C410 1.403 . S
C408 C414 1.439 . S
C409 N406 1.319 . S
C409 C407 1.397 . S
C409 H420 0.930 . S
C410 C407 1.367 . S
C410 C408 1.403 . S
C410 H431 0.929 . S
C411 C412 1.430 . S
C411 C413 1.387 . S
C411 C417 1.404 . S
C412 C405 1.448 . S
C412 C411 1.430 . S
C412 N416 1.351 . S
C413 C411 1.387 . S
C413 C414 1.374 . S
C413 H428 0.931 . S
C414 C408 1.439 . S
C414 C413 1.374 . S
C414 H429 0.931 . S
Eu415 N406 2.600 . S
Eu415 N416 2.562 . S
Eu415 O450 2.335 . S
Eu415 O453 2.372 . S
Eu415 O454 2.462 . S
Eu415 O455 2.373 . S
Eu415 O457 2.432 . S
Eu415 O458 2.291 . S
Eu415 C479 2.787 . S
N416 C412 1.351 . S
N416 Eu415 2.562 . S
N416 C418 1.325 . S
C417 C411 1.404 . S
C417 C419 1.366 . S
C417 H425 0.930 . S
C418 N416 1.325 . S
C418 C419 1.416 . S
C418 H424 0.929 . S
C419 C417 1.366 . S
C419 C418 1.416 . S
C419 H421 0.930 . S
H420 C409 0.930 . S
H421 C419 0.930 . S
H422 C437 0.930 . S
H423 C444 0.930 . S
H424 C418 0.929 . S
H425 C417 0.930 . S
H426 C440 0.929 . S
H427 C407 0.931 . S
H428 C413 0.931 . S
H429 C414 0.931 . S
H430 C435 0.931 . S
H431 C410 0.929 . S
H432 C443 0.930 . S
N433 Eu404 2.600 . S
N433 C434 1.365 . S
N433 C437 1.319 . S
C434 N433 1.365 . S
C434 C436 1.405 . S
C434 C442 1.448 . S
C435 H430 0.931 . S
C435 C437 1.397 . S
C435 C438 1.367 . S
C436 C434 1.405 . S
C436 C438 1.403 . S
C436 C469 1.439 . S
C437 H422 0.930 . S
C437 N433 1.319 . S
C437 C435 1.397 . S
C438 C435 1.367 . S
C438 C436 1.403 . S
C438 H445 0.929 . S
N439 Eu404 2.562 . S
N439 C440 1.325 . S
N439 C442 1.351 . S
C440 H426 0.929 . S
C440 N439 1.325 . S
C440 C444 1.416 . S
C441 C442 1.430 . S
C441 C443 1.404 . S
C441 C470 1.387 . S
C442 C434 1.448 . S
C442 N439 1.351 . S
C442 C441 1.430 . S
C443 H432 0.930 . S
C443 C441 1.404 . S
C443 C444 1.366 . S
C444 H423 0.930 . S
C444 C440 1.416 . S
C444 C443 1.366 . S
H445 C438 0.929 . S
H446 C469 0.931 . S
H447 C470 0.931 . S
O448 Eu404 2.462 . S
O448 C468 1.252 . S
O449 Eu404 2.373 . S
O449 C460 1.249 . S
O450 Eu415 2.335 . S
O450 C460 1.264 . S
O451 Eu404 2.432 . S
O451 C468 1.268 . S
O452 Eu404 2.291 . S
O452 C467 1.255 . S
O453 Eu415 2.372 . S
O453 C467 1.257 . S
O454 Eu415 2.462 . S
O454 C479 1.252 . S
O455 Eu415 2.373 . S
O455 C471 1.249 . S
O456 Eu404 2.335 . S
O456 C471 1.264 . S
O457 Eu415 2.432 . S
O457 C479 1.268 . S
O458 Eu415 2.291 . S
O458 C478 1.255 . S
O459 Eu404 2.372 . S
O459 C478 1.257 . S
C460 O449 1.249 . S
C460 O450 1.264 . S
C461 C464 1.382 . S
C461 C466 1.390 . S
C461 C468 1.506 . S
C462 C463 1.398 . S
C462 C466 1.392 . S
C463 C462 1.398 . S
C463 C465 1.372 . S
C463 H480 0.931 . S
C464 C461 1.382 . S
C464 C465 1.390 . S
C464 H481 0.931 . S
C465 C463 1.372 . S
C465 C464 1.390 . S
C465 H482 0.929 . S
C466 C461 1.390 . S
C466 C462 1.392 . S
C466 H483 0.930 . S
C467 O452 1.255 . S
C467 O453 1.257 . S
C468 Eu404 2.787 . S
C468 O448 1.252 . S
C468 O451 1.268 . S
C468 C461 1.506 . S
C469 C436 1.439 . S
C469 H446 0.931 . S
C469 C470 1.374 . S
C470 C441 1.387 . S
C470 H447 0.931 . S
C470 C469 1.374 . S
C471 O455 1.249 . S
C471 O456 1.264 . S
C472 C475 1.382 . S
C472 C476 1.390 . S
C472 C479 1.506 . S
C473 C474 1.398 . S
C473 C476 1.392 . S
C474 C473 1.398 . S
C474 C477 1.372 . S
C474 H484 0.931 . S
C475 C472 1.382 . S
C475 C477 1.390 . S
C475 H485 0.931 . S
C476 C472 1.390 . S
C476 C473 1.392 . S
C476 H486 0.930 . S
C477 C474 1.372 . S
C477 C475 1.390 . S
C477 H487 0.929 . S
C478 O458 1.255 . S
C478 O459 1.257 . S
C479 Eu415 2.787 . S
C479 O454 1.252 . S
C479 O457 1.268 . S
C479 C472 1.506 . S
H480 C463 0.931 . S
H481 C464 0.931 . S
H482 C465 0.929 . S
H483 C466 0.930 . S
H484 C474 0.931 . S
H485 C475 0.931 . S
H486 C476 0.930 . S
H487 C477 0.929 . S
Eu488 N517 2.600 . S
Eu488 N523 2.562 . S
Eu488 O532 2.462 . S
Eu488 O533 2.373 . S
Eu488 O535 2.432 . S
Eu488 O536 2.291 . S
Eu488 O540 2.335 . S
Eu488 O543 2.372 . S
Eu488 C552 2.787 . S
C489 N490 1.365 . S
C489 C492 1.405 . S
C489 C496 1.448 . S
N490 C489 1.365 . S
N490 C493 1.319 . S
N490 Eu499 2.600 . S
C491 C493 1.397 . S
C491 C494 1.367 . S
C491 H511 0.931 . S
C492 C489 1.405 . S
C492 C494 1.403 . S
C492 C498 1.439 . S
C493 N490 1.319 . S
C493 C491 1.397 . S
C493 H504 0.930 . S
C494 C491 1.367 . S
C494 C492 1.403 . S
C494 H515 0.929 . S
C495 C496 1.430 . S
C495 C497 1.387 . S
C495 C501 1.404 . S
C496 C489 1.448 . S
C496 C495 1.430 . S
C496 N500 1.351 . S
C497 C495 1.387 . S
C497 C498 1.374 . S
C497 H512 0.931 . S
C498 C492 1.439 . S
C498 C497 1.374 . S
C498 H513 0.931 . S
Eu499 N490 2.600 . S
Eu499 N500 2.562 . S
Eu499 O534 2.335 1_655 S
Eu499 O537 2.372 . S
Eu499 O538 2.462 . S
Eu499 O539 2.373 . S
Eu499 O541 2.432 . S
Eu499 O542 2.291 1_655 S
Eu499 C563 2.787 . S
N500 C496 1.351 . S
N500 Eu499 2.562 . S
N500 C502 1.325 . S
C501 C495 1.404 . S
C501 C503 1.366 . S
C501 H509 0.930 . S
C502 N500 1.325 . S
C502 C503 1.416 . S
C502 H508 0.929 . S
C503 C501 1.366 . S
C503 C502 1.416 . S
C503 H505 0.930 . S
H504 C493 0.930 . S
H505 C503 0.930 . S
H506 C521 0.930 . S
H507 C528 0.930 . S
H508 C502 0.929 . S
H509 C501 0.930 . S
H510 C524 0.929 . S
H511 C491 0.931 . S
H512 C497 0.931 . S
H513 C498 0.931 . S
H514 C519 0.931 . S
H515 C494 0.929 . S
H516 C527 0.930 . S
N517 Eu488 2.600 . S
N517 C518 1.365 . S
N517 C521 1.319 . S
C518 N517 1.365 . S
C518 C520 1.405 . S
C518 C526 1.448 . S
C519 H514 0.931 . S
C519 C521 1.397 . S
C519 C522 1.367 . S
C520 C518 1.405 . S
C520 C522 1.403 . S
C520 C553 1.439 . S
C521 H506 0.930 . S
C521 N517 1.319 . S
C521 C519 1.397 . S
C522 C519 1.367 . S
C522 C520 1.403 . S
C522 H529 0.929 . S
N523 Eu488 2.562 . S
N523 C524 1.325 . S
N523 C526 1.351 . S
C524 H510 0.929 . S
C524 N523 1.325 . S
C524 C528 1.416 . S
C525 C526 1.430 . S
C525 C527 1.404 . S
C525 C554 1.387 . S
C526 C518 1.448 . S
C526 N523 1.351 . S
C526 C525 1.430 . S
C527 H516 0.930 . S
C527 C525 1.404 . S
C527 C528 1.366 . S
C528 H507 0.930 . S
C528 C524 1.416 . S
C528 C527 1.366 . S
H529 C522 0.929 . S
H530 C553 0.931 . S
H531 C554 0.931 . S
O532 Eu488 2.462 . S
O532 C552 1.252 . S
O533 Eu488 2.373 . S
O533 C544 1.249 . S
O534 Eu499 2.335 1_455 S
O534 C544 1.264 . S
O535 Eu488 2.432 . S
O535 C552 1.268 . S
O536 Eu488 2.291 . S
O536 C551 1.255 1_455 S
O537 Eu499 2.372 . S
O537 C551 1.257 . S
O538 Eu499 2.462 . S
O538 C563 1.252 . S
O539 Eu499 2.373 . S
O539 C555 1.249 . S
O540 Eu488 2.335 . S
O540 C555 1.264 1_455 S
O541 Eu499 2.432 . S
O541 C563 1.268 . S
O542 Eu499 2.291 1_455 S
O542 C562 1.255 . S
O543 Eu488 2.372 . S
O543 C562 1.257 . S
C544 O533 1.249 . S
C544 O534 1.264 . S
C545 C548 1.382 . S
C545 C550 1.390 . S
C545 C552 1.506 . S
C546 C547 1.398 . S
C546 C550 1.392 . S
C547 C546 1.398 . S
C547 C549 1.372 . S
C547 H564 0.931 . S
C548 C545 1.382 . S
C548 C549 1.390 . S
C548 H565 0.931 . S
C549 C547 1.372 . S
C549 C548 1.390 . S
C549 H566 0.929 . S
C550 C545 1.390 . S
C550 C546 1.392 . S
C550 H567 0.930 . S
C551 O536 1.255 1_655 S
C551 O537 1.257 . S
C552 Eu488 2.787 . S
C552 O532 1.252 . S
C552 O535 1.268 . S
C552 C545 1.506 . S
C553 C520 1.439 . S
C553 H530 0.931 . S
C553 C554 1.374 . S
C554 C525 1.387 . S
C554 H531 0.931 . S
C554 C553 1.374 . S
C555 O539 1.249 . S
C555 O540 1.264 1_655 S
C556 C559 1.382 . S
C556 C560 1.390 . S
C556 C563 1.506 . S
C557 C558 1.398 . S
C557 C560 1.392 . S
C558 C557 1.398 . S
C558 C561 1.372 . S
C558 H568 0.931 . S
C559 C556 1.382 . S
C559 C561 1.390 . S
C559 H569 0.931 . S
C560 C556 1.390 . S
C560 C557 1.392 . S
C560 H570 0.930 . S
C561 C558 1.372 . S
C561 C559 1.390 . S
C561 H571 0.929 . S
C562 O542 1.255 . S
C562 O543 1.257 . S
C563 Eu499 2.787 . S
C563 O538 1.252 . S
C563 O541 1.268 . S
C563 C556 1.506 . S
H564 C547 0.931 . S
H565 C548 0.931 . S
H566 C549 0.929 . S
H567 C550 0.930 . S
H568 C558 0.931 . S
H569 C559 0.931 . S
H570 C560 0.930 . S
H571 C561 0.929 . S
Eu572 N601 2.600 . S
Eu572 N607 2.562 . S
Eu572 O616 2.462 . S
Eu572 O617 2.373 . S
Eu572 O619 2.432 . S
Eu572 O620 2.291 . S
Eu572 O624 2.335 . S
Eu572 O627 2.372 . S
Eu572 C636 2.787 . S
C573 N574 1.365 . S
C573 C576 1.405 . S
C573 C580 1.448 . S
N574 C573 1.365 . S
N574 C577 1.319 . S
N574 Eu583 2.600 . S
C575 C577 1.397 . S
C575 C578 1.367 . S
C575 H595 0.931 . S
C576 C573 1.405 . S
C576 C578 1.403 . S
C576 C582 1.439 . S
C577 N574 1.319 . S
C577 C575 1.397 . S
C577 H588 0.930 . S
C578 C575 1.367 . S
C578 C576 1.403 . S
C578 H599 0.929 . S
C579 C580 1.430 . S
C579 C581 1.387 . S
C579 C585 1.404 . S
C580 C573 1.448 . S
C580 C579 1.430 . S
C580 N584 1.351 . S
C581 C579 1.387 . S
C581 C582 1.374 . S
C581 H596 0.931 . S
C582 C576 1.439 . S
C582 C581 1.374 . S
C582 H597 0.931 . S
Eu583 N574 2.600 . S
Eu583 N584 2.562 . S
Eu583 O618 2.335 . S
Eu583 O621 2.372 . S
Eu583 O622 2.462 . S
Eu583 O623 2.373 . S
Eu583 O625 2.432 . S
Eu583 O626 2.291 . S
Eu583 C647 2.787 . S
N584 C580 1.351 . S
N584 Eu583 2.562 . S
N584 C586 1.325 . S
C585 C579 1.404 . S
C585 C587 1.366 . S
C585 H593 0.930 . S
C586 N584 1.325 . S
C586 C587 1.416 . S
C586 H592 0.929 . S
C587 C585 1.366 . S
C587 C586 1.416 . S
C587 H589 0.930 . S
H588 C577 0.930 . S
H589 C587 0.930 . S
H590 C605 0.930 . S
H591 C612 0.930 . S
H592 C586 0.929 . S
H593 C585 0.930 . S
H594 C608 0.929 . S
H595 C575 0.931 . S
H596 C581 0.931 . S
H597 C582 0.931 . S
H598 C603 0.931 . S
H599 C578 0.929 . S
H600 C611 0.930 . S
N601 Eu572 2.600 . S
N601 C602 1.365 . S
N601 C605 1.319 . S
C602 N601 1.365 . S
C602 C604 1.405 . S
C602 C610 1.448 . S
C603 H598 0.931 . S
C603 C605 1.397 . S
C603 C606 1.367 . S
C604 C602 1.405 . S
C604 C606 1.403 . S
C604 C637 1.439 . S
C605 H590 0.930 . S
C605 N601 1.319 . S
C605 C603 1.397 . S
C606 C603 1.367 . S
C606 C604 1.403 . S
C606 H613 0.929 . S
N607 Eu572 2.562 . S
N607 C608 1.325 . S
N607 C610 1.351 . S
C608 H594 0.929 . S
C608 N607 1.325 . S
C608 C612 1.416 . S
C609 C610 1.430 . S
C609 C611 1.404 . S
C609 C638 1.387 . S
C610 C602 1.448 . S
C610 N607 1.351 . S
C610 C609 1.430 . S
C611 H600 0.930 . S
C611 C609 1.404 . S
C611 C612 1.366 . S
C612 H591 0.930 . S
C612 C608 1.416 . S
C612 C611 1.366 . S
H613 C606 0.929 . S
H614 C637 0.931 . S
H615 C638 0.931 . S
O616 Eu572 2.462 . S
O616 C636 1.252 . S
O617 Eu572 2.373 . S
O617 C628 1.249 . S
O618 Eu583 2.335 . S
O618 C628 1.264 . S
O619 Eu572 2.432 . S
O619 C636 1.268 . S
O620 Eu572 2.291 . S
O620 C635 1.255 . S
O621 Eu583 2.372 . S
O621 C635 1.257 . S
O622 Eu583 2.462 . S
O622 C647 1.252 . S
O623 Eu583 2.373 . S
O623 C639 1.249 . S
O624 Eu572 2.335 . S
O624 C639 1.264 . S
O625 Eu583 2.432 . S
O625 C647 1.268 . S
O626 Eu583 2.291 . S
O626 C646 1.255 . S
O627 Eu572 2.372 . S
O627 C646 1.257 . S
C628 O617 1.249 . S
C628 O618 1.264 . S
C629 C632 1.382 . S
C629 C634 1.390 . S
C629 C636 1.506 . S
C630 C631 1.398 . S
C630 C634 1.392 . S
C631 C630 1.398 . S
C631 C633 1.372 . S
C631 H648 0.931 . S
C632 C629 1.382 . S
C632 C633 1.390 . S
C632 H649 0.931 . S
C633 C631 1.372 . S
C633 C632 1.390 . S
C633 H650 0.929 . S
C634 C629 1.390 . S
C634 C630 1.392 . S
C634 H651 0.930 . S
C635 O620 1.255 . S
C635 O621 1.257 . S
C636 Eu572 2.787 . S
C636 O616 1.252 . S
C636 O619 1.268 . S
C636 C629 1.506 . S
C637 C604 1.439 . S
C637 H614 0.931 . S
C637 C638 1.374 . S
C638 C609 1.387 . S
C638 H615 0.931 . S
C638 C637 1.374 . S
C639 O623 1.249 . S
C639 O624 1.264 . S
C640 C643 1.382 . S
C640 C644 1.390 . S
C640 C647 1.506 . S
C641 C642 1.398 . S
C641 C644 1.392 . S
C642 C641 1.398 . S
C642 C645 1.372 . S
C642 H652 0.931 . S
C643 C640 1.382 . S
C643 C645 1.390 . S
C643 H653 0.931 . S
C644 C640 1.390 . S
C644 C641 1.392 . S
C644 H654 0.930 . S
C645 C642 1.372 . S
C645 C643 1.390 . S
C645 H655 0.929 . S
C646 O626 1.255 . S
C646 O627 1.257 . S
C647 Eu583 2.787 . S
C647 O622 1.252 . S
C647 O625 1.268 . S
C647 C640 1.506 . S
H648 C631 0.931 . S
H649 C632 0.931 . S
H650 C633 0.929 . S
H651 C634 0.930 . S
H652 C642 0.931 . S
H653 C643 0.931 . S
H654 C644 0.930 . S
H655 C645 0.929 . S
C656 C657 1.363 . S
C656 C662 1.379 . S
C656 N664 1.385 . S
C657 C656 1.363 . S
C657 C663 1.363 . S
C658 C659 1.363 . S
C658 C663 1.379 . S
C658 N665 1.356 . S
C659 C658 1.363 . S
C659 C662 1.363 . S
N660 C662 1.356 . S
N660 H672 0.984 . S
N660 H673 0.985 . S
N661 C663 1.356 . S
N661 H666 0.984 . S
N661 H667 0.985 . S
C662 C656 1.379 . S
C662 C659 1.363 . S
C662 N660 1.356 . S
C663 C657 1.363 . S
C663 C658 1.379 . S
C663 N661 1.356 . S
N664 C656 1.385 . S
N664 H670 0.970 1_545 S
N664 H671 0.971 1_545 S
N665 C658 1.356 . S
N665 H668 0.984 . S
N665 H669 0.985 . S
H666 N661 0.984 . S
H667 N661 0.985 . S
H668 N665 0.984 . S
H669 N665 0.985 . S
H670 N664 0.970 1_565 S
H671 N664 0.971 1_565 S
H672 N660 0.984 . S
H673 N660 0.985 . S
C674 C675 1.363 . S
C674 C680 1.379 . S
C674 N682 1.356 . S
C675 C674 1.363 . S
C675 C681 1.363 . S
C676 C677 1.363 . S
C676 C681 1.379 . S
C676 N683 1.356 . S
C677 C676 1.363 . S
C677 C680 1.363 . S
N678 C680 1.356 . S
N678 H690 0.984 . S
N678 H691 0.985 . S
N679 C681 1.356 . S
N679 H684 0.984 . S
N679 H685 0.985 . S
C680 C674 1.379 . S
C680 C677 1.363 . S
C680 N678 1.356 . S
C681 C675 1.363 . S
C681 C676 1.379 . S
C681 N679 1.356 . S
N682 C674 1.356 . S
N682 H688 0.984 . S
N682 H689 0.984 . S
N683 C676 1.356 . S
N683 H686 0.984 . S
N683 H687 0.985 . S
H684 N679 0.984 . S
H685 N679 0.985 . S
H686 N683 0.984 . S
H687 N683 0.985 . S
H688 N682 0.984 . S
H689 N682 0.984 . S
H690 N678 0.984 . S
H691 N678 0.985 . S
C692 C693 1.363 . S
C692 C698 1.379 . S
C692 N700 1.356 . S
C693 C692 1.363 . S
C693 C699 1.363 . S
C694 C695 1.363 . S
C694 C699 1.379 . S
C694 N701 1.356 . S
C695 C694 1.363 . S
C695 C698 1.363 . S
N696 C698 1.356 . S
N696 H708 0.984 . S
N696 H709 0.985 . S
N697 C699 1.356 . S
N697 H702 0.984 . S
N697 H703 0.985 . S
C698 C692 1.379 . S
C698 C695 1.363 . S
C698 N696 1.356 . S
C699 C693 1.363 . S
C699 C694 1.379 . S
C699 N697 1.356 . S
N700 C692 1.356 . S
N700 H706 0.984 . S
N700 H707 0.984 . S
N701 C694 1.356 . S
N701 H704 0.984 . S
N701 H705 0.985 . S
H702 N697 0.984 . S
H703 N697 0.985 . S
H704 N701 0.984 . S
H705 N701 0.985 . S
H706 N700 0.984 . S
H707 N700 0.984 . S
H708 N696 0.984 . S
H709 N696 0.985 . S
C710 C711 1.363 . S
C710 C716 1.379 . S
C710 N718 1.356 . S
C711 C710 1.363 . S
C711 C717 1.363 . S
C712 C713 1.363 . S
C712 C717 1.379 . S
C712 N719 1.356 1_655 S
C713 C712 1.363 . S
C713 C716 1.363 . S
N714 C716 1.356 . S
N714 H726 0.984 . S
N714 H727 0.985 . S
N715 C717 1.356 . S
N715 H720 0.984 . S
N715 H721 0.985 . S
C716 C710 1.379 . S
C716 C713 1.363 . S
C716 N714 1.356 . S
C717 C711 1.363 . S
C717 C712 1.379 . S
C717 N715 1.356 . S
N718 C710 1.356 . S
N718 H724 0.984 . S
N718 H725 0.984 . S
N719 C712 1.356 1_455 S
N719 H722 0.984 . S
N719 H723 0.985 . S
H720 N715 0.984 . S
H721 N715 0.985 . S
H722 N719 0.984 . S
H723 N719 0.985 . S
H724 N718 0.984 . S
H725 N718 0.984 . S
H726 N714 0.984 . S
H727 N714 0.985 . S
C728 C729 1.363 . S
C728 C734 1.379 . S
C728 N736 1.356 1_565 S
C729 C728 1.363 . S
C729 C735 1.363 . S
C730 C731 1.363 . S
C730 C735 1.379 . S
C730 N737 1.356 . S
C731 C730 1.363 . S
C731 C734 1.363 . S
N732 C734 1.356 . S
N732 H744 0.984 1_655 S
N732 H745 0.990 . S
N733 C735 1.356 . S
N733 H738 0.984 . S
N733 H739 0.985 . S
C734 C728 1.379 . S
C734 C731 1.363 . S
C734 N732 1.356 . S
C735 C729 1.363 . S
C735 C730 1.379 . S
C735 N733 1.356 . S
N736 C728 1.356 1_545 S
N736 H742 0.984 . S
N736 H743 0.984 . S
N737 C730 1.356 . S
N737 H740 0.984 . S
N737 H741 0.985 . S
H738 N733 0.984 . S
H739 N733 0.985 . S
H740 N737 0.984 . S
H741 N737 0.985 . S
H742 N736 0.984 . S
H743 N736 0.984 . S
H744 N732 0.984 1_455 S
H745 N732 0.990 . S
C746 C747 1.363 . S
C746 C752 1.379 . S
C746 N754 1.356 . S
C747 C746 1.363 . S
C747 C753 1.363 . S
C748 C749 1.363 . S
C748 C753 1.379 . S
C748 N755 1.356 . S
C749 C748 1.363 . S
C749 C752 1.363 . S
N750 C752 1.356 . S
N750 H762 0.984 . S
N750 H763 0.985 . S
N751 C753 1.356 . S
N751 H756 0.984 . S
N751 H757 0.985 . S
C752 C746 1.379 . S
C752 C749 1.363 . S
C752 N750 1.356 . S
C753 C747 1.363 . S
C753 C748 1.379 . S
C753 N751 1.356 . S
N754 C746 1.356 . S
N754 H760 0.984 . S
N754 H761 0.984 . S
N755 C748 1.356 . S
N755 H758 0.984 . S
N755 H759 0.985 . S
H756 N751 0.984 . S
H757 N751 0.985 . S
H758 N755 0.984 . S
H759 N755 0.985 . S
H760 N754 0.984 . S
H761 N754 0.984 . S
H762 N750 0.984 . S
H763 N750 0.985 . S
C764 C765 1.363 . S
C764 C770 1.379 . S
C764 N772 1.356 . S
C765 C764 1.363 . S
C765 C771 1.363 . S
C766 C767 1.363 . S
C766 C771 1.379 . S
C766 N773 1.356 . S
C767 C766 1.363 . S
C767 C770 1.363 . S
N768 C770 1.356 . S
N768 H780 0.984 . S
N768 H781 0.985 . S
N769 C771 1.356 . S
N769 H774 0.984 . S
N769 H775 0.985 . S
C770 C764 1.379 . S
C770 C767 1.363 . S
C770 N768 1.356 . S
C771 C765 1.363 . S
C771 C766 1.379 . S
C771 N769 1.356 . S
N772 C764 1.356 . S
N772 H778 0.984 . S
N772 H779 0.984 . S
N773 C766 1.356 . S
N773 H776 0.984 . S
N773 H777 0.985 . S
H774 N769 0.984 . S
H775 N769 0.985 . S
H776 N773 0.984 . S
H777 N773 0.985 . S
H778 N772 0.984 . S
H779 N772 0.984 . S
H780 N768 0.984 . S
H781 N768 0.985 . S
C782 C783 1.363 . S
C782 C788 1.379 . S
C782 N790 1.356 1_565 S
C783 C782 1.363 . S
C783 C789 1.363 . S
C784 C785 1.363 . S
C784 C789 1.379 . S
C784 N791 1.356 . S
C785 C784 1.363 . S
C785 C788 1.363 . S
N786 C788 1.356 . S
N786 H798 0.984 . S
N786 H799 0.985 . S
N787 C789 1.356 . S
N787 H792 0.984 . S
N787 H793 0.985 . S
C788 C782 1.379 . S
C788 C785 1.363 . S
C788 N786 1.356 . S
C789 C783 1.363 . S
C789 C784 1.379 . S
C789 N787 1.356 . S
N790 C782 1.356 1_545 S
N790 H796 0.984 . S
N790 H797 0.984 . S
N791 C784 1.356 . S
N791 H794 0.984 . S
N791 H795 0.985 . S
H792 N787 0.984 . S
H793 N787 0.985 . S
H794 N791 0.984 . S
H795 N791 0.985 . S
H796 N790 0.984 . S
H797 N790 0.984 . S
H798 N786 0.984 . S
H799 N786 0.985 . S
C800 C801 1.363 . S
C800 C806 1.379 . S
C800 N808 1.356 . S
C801 C800 1.363 . S
C801 C807 1.363 . S
C802 C803 1.363 . S
C802 C807 1.379 . S
C802 N809 1.356 . S
C803 C802 1.363 . S
C803 C806 1.363 . S
N804 C806 1.356 . S
N804 H816 0.984 . S
N804 H817 0.985 . S
N805 C807 1.356 . S
N805 H810 0.984 . S
N805 H811 0.985 . S
C806 C800 1.379 . S
C806 C803 1.363 . S
C806 N804 1.356 . S
C807 C801 1.363 . S
C807 C802 1.379 . S
C807 N805 1.356 . S
N808 C800 1.356 . S
N808 H814 0.984 . S
N808 H815 0.984 . S
N809 C802 1.356 . S
N809 H812 0.984 . S
N809 H813 0.985 . S
H810 N805 0.984 . S
H811 N805 0.985 . S
H812 N809 0.984 . S
H813 N809 0.985 . S
H814 N808 0.984 . S
H815 N808 0.984 . S
H816 N804 0.984 . S
H817 N804 0.985 . S
C818 C819 1.363 . S
C818 C824 1.379 . S
C818 N826 1.356 . S
C819 C818 1.363 . S
C819 C825 1.363 . S
C820 C821 1.363 . S
C820 C825 1.379 . S
C820 N827 1.356 . S
C821 C820 1.363 . S
C821 C824 1.363 . S
N822 C824 1.356 . S
N822 H834 0.984 . S
N822 H835 0.985 . S
N823 C825 1.356 . S
N823 H828 0.984 . S
N823 H829 0.985 . S
C824 C818 1.379 . S
C824 C821 1.363 . S
C824 N822 1.356 . S
C825 C819 1.363 . S
C825 C820 1.379 . S
C825 N823 1.356 . S
N826 C818 1.356 . S
N826 H832 0.984 . S
N826 H833 0.984 . S
N827 C820 1.356 . S
N827 H830 0.984 . S
N827 H831 0.985 . S
H828 N823 0.984 . S
H829 N823 0.985 . S
H830 N827 0.984 . S
H831 N827 0.985 . S
H832 N826 0.984 . S
H833 N826 0.984 . S
H834 N822 0.984 . S
H835 N822 0.985 . S
C836 C837 1.363 . S
C836 C842 1.379 . S
C836 N844 1.356 . S
C837 C836 1.363 . S
C837 C843 1.363 . S
C838 C839 1.363 . S
C838 C843 1.379 . S
C838 N845 1.356 . S
C839 C838 1.363 . S
C839 C842 1.363 . S
N840 C842 1.356 . S
N840 H852 0.984 . S
N840 H853 0.985 . S
N841 C843 1.356 . S
N841 H846 0.984 . S
N841 H847 0.985 . S
C842 C836 1.379 . S
C842 C839 1.363 . S
C842 N840 1.356 . S
C843 C837 1.363 . S
C843 C838 1.379 . S
C843 N841 1.356 . S
N844 C836 1.356 . S
N844 H850 0.984 . S
N844 H851 0.984 . S
N845 C838 1.356 . S
N845 H848 0.984 . S
N845 H849 0.985 . S
H846 N841 0.984 . S
H847 N841 0.985 . S
H848 N845 0.984 . S
H849 N845 0.985 . S
H850 N844 0.984 . S
H851 N844 0.984 . S
H852 N840 0.984 . S
H853 N840 0.985 . S
C854 C855 1.363 . S
C854 C860 1.379 . S
C854 N862 1.356 . S
C855 C854 1.363 . S
C855 C861 1.363 . S
C856 C857 1.363 . S
C856 C861 1.379 . S
C856 N863 1.356 . S
C857 C856 1.363 . S
C857 C860 1.363 . S
N858 C860 1.356 . S
N858 H870 0.984 . S
N858 H871 0.985 . S
N859 C861 1.356 . S
N859 H864 0.984 . S
N859 H865 0.985 . S
C860 C854 1.379 . S
C860 C857 1.363 . S
C860 N858 1.356 . S
C861 C855 1.363 . S
C861 C856 1.379 . S
C861 N859 1.356 . S
N862 C854 1.356 . S
N862 H868 0.984 . S
N862 H869 0.984 . S
N863 C856 1.356 . S
N863 H866 0.984 . S
N863 H867 0.985 . S
H864 N859 0.984 . S
H865 N859 0.985 . S
H866 N863 0.984 . S
H867 N863 0.985 . S
H868 N862 0.984 . S
H869 N862 0.984 . S
H870 N858 0.984 . S
H871 N858 0.985 . S
C872 C873 1.363 . S
C872 C878 1.379 . S
C872 N880 1.356 . S
C873 C872 1.363 . S
C873 C879 1.363 . S
C874 C875 1.363 . S
C874 C879 1.379 . S
C874 N881 1.356 . S
C875 C874 1.363 . S
C875 C878 1.363 . S
N876 C878 1.356 . S
N876 H888 0.984 . S
N876 H889 0.985 . S
N877 C879 1.356 . S
N877 H882 0.984 . S
N877 H883 0.985 . S
C878 C872 1.379 . S
C878 C875 1.363 . S
C878 N876 1.356 . S
C879 C873 1.363 . S
C879 C874 1.379 . S
C879 N877 1.356 . S
N880 C872 1.356 . S
N880 H886 0.984 . S
N880 H887 0.984 . S
N881 C874 1.356 . S
N881 H884 0.984 . S
N881 H885 0.985 . S
H882 N877 0.984 . S
H883 N877 0.985 . S
H884 N881 0.984 . S
H885 N881 0.985 . S
H886 N880 0.984 . S
H887 N880 0.984 . S
H888 N876 0.984 . S
H889 N876 0.985 . S
C890 C891 1.363 . S
C890 C896 1.379 . S
C890 N898 1.356 . S
C891 C890 1.363 . S
C891 C897 1.363 . S
C892 C893 1.363 . S
C892 C897 1.379 . S
C892 N899 1.356 . S
C893 C892 1.363 . S
C893 C896 1.363 . S
N894 C896 1.356 . S
N894 H906 0.984 . S
N894 H907 0.985 . S
N895 C897 1.356 . S
N895 H900 0.984 . S
N895 H901 0.985 . S
C896 C890 1.379 . S
C896 C893 1.363 . S
C896 N894 1.356 . S
C897 C891 1.363 . S
C897 C892 1.379 . S
C897 N895 1.356 . S
N898 C890 1.356 . S
N898 H904 0.984 . S
N898 H905 0.984 . S
N899 C892 1.356 . S
N899 H902 0.984 . S
N899 H903 0.985 . S
H900 N895 0.984 . S
H901 N895 0.985 . S
H902 N899 0.984 . S
H903 N899 0.985 . S
H904 N898 0.984 . S
H905 N898 0.984 . S
H906 N894 0.984 . S
H907 N894 0.985 . S
C908 C909 1.363 . S
C908 C914 1.379 . S
C908 N916 1.356 . S
C909 C908 1.363 . S
C909 C915 1.363 . S
C910 C911 1.363 . S
C910 C915 1.379 . S
C910 N917 1.356 . S
C911 C910 1.363 . S
C911 C914 1.363 . S
N912 C914 1.356 . S
N912 H924 0.984 . S
N912 H925 0.985 . S
N913 C915 1.356 . S
N913 H918 0.984 . S
N913 H919 0.985 . S
C914 C908 1.379 . S
C914 C911 1.363 . S
C914 N912 1.356 . S
C915 C909 1.363 . S
C915 C910 1.379 . S
C915 N913 1.356 . S
N916 C908 1.356 . S
N916 H922 0.984 . S
N916 H923 0.984 . S
N917 C910 1.356 . S
N917 H920 0.984 . S
N917 H921 0.985 . S
H918 N913 0.984 . S
H919 N913 0.985 . S
H920 N917 0.984 . S
H921 N917 0.985 . S
H922 N916 0.984 . S
H923 N916 0.984 . S
H924 N912 0.984 . S
H925 N912 0.985 . S
C926 C927 1.363 . S
C926 C932 1.379 . S
C926 N934 1.356 . S
C927 C926 1.363 . S
C927 C933 1.363 . S
C928 C929 1.363 . S
C928 C933 1.379 . S
C928 N935 1.356 . S
C929 C928 1.363 . S
C929 C932 1.363 . S
N930 C932 1.356 . S
N930 H942 0.984 . S
N930 H943 0.985 . S
N931 C933 1.356 . S
N931 H936 0.984 . S
N931 H937 0.985 . S
C932 C926 1.379 . S
C932 C929 1.363 . S
C932 N930 1.356 . S
C933 C927 1.363 . S
C933 C928 1.379 . S
C933 N931 1.356 . S
N934 C926 1.356 . S
N934 H940 0.984 . S
N934 H941 0.984 . S
N935 C928 1.356 . S
N935 H938 0.984 . S
N935 H939 0.985 . S
H936 N931 0.984 . S
H937 N931 0.985 . S
H938 N935 0.984 . S
H939 N935 0.985 . S
H940 N934 0.984 . S
H941 N934 0.984 . S
H942 N930 0.984 . S
H943 N930 0.985 . S
C944 C945 1.363 . S
C944 C950 1.379 . S
C944 N952 1.356 . S
C945 C944 1.363 . S
C945 C951 1.363 . S
C946 C947 1.363 . S
C946 C951 1.379 . S
C946 N953 1.356 . S
C947 C946 1.363 . S
C947 C950 1.363 . S
N948 C950 1.356 . S
N948 H960 0.984 1_455 S
N948 H961 0.985 . S
N949 C951 1.356 . S
N949 H954 0.984 . S
N949 H955 0.985 . S
C950 C944 1.379 . S
C950 C947 1.363 . S
C950 N948 1.356 . S
C951 C945 1.363 . S
C951 C946 1.379 . S
C951 N949 1.356 . S
N952 C944 1.356 . S
N952 H958 0.984 . S
N952 H959 0.984 . S
N953 C946 1.356 . S
N953 H956 0.984 . S
N953 H957 0.985 . S
H954 N949 0.984 . S
H955 N949 0.985 . S
H956 N953 0.984 . S
H957 N953 0.985 . S
H958 N952 0.984 . S
H959 N952 0.984 . S
H960 N948 0.984 1_655 S
H961 N948 0.985 . S
C962 C963 1.363 . S
C962 C968 1.379 . S
C962 N970 1.356 . S
C963 C962 1.363 . S
C963 C969 1.363 . S
C964 C965 1.363 . S
C964 C969 1.379 . S
C964 N971 1.356 . S
C965 C964 1.363 . S
C965 C968 1.363 . S
N966 C968 1.356 . S
N966 H978 0.984 . S
N966 H979 0.985 . S
N967 C969 1.356 . S
N967 H972 0.984 . S
N967 H973 0.985 . S
C968 C962 1.379 . S
C968 C965 1.363 . S
C968 N966 1.356 . S
C969 C963 1.363 . S
C969 C964 1.379 . S
C969 N967 1.356 . S
N970 C962 1.356 . S
N970 H976 0.984 . S
N970 H977 0.984 . S
N971 C964 1.356 . S
N971 H974 0.984 . S
N971 H975 0.985 . S
H972 N967 0.984 . S
H973 N967 0.985 . S
H974 N971 0.984 . S
H975 N971 0.985 . S
H976 N970 0.984 . S
H977 N970 0.984 . S
H978 N966 0.984 . S
H979 N966 0.985 . S
C980 C981 1.363 . S
C980 C986 1.379 . S
C980 N988 1.356 . S
C981 C980 1.363 . S
C981 C987 1.363 . S
C982 C983 1.363 . S
C982 C987 1.379 . S
C982 N989 1.356 . S
C983 C982 1.363 . S
C983 C986 1.363 . S
N984 C986 1.356 . S
N984 H996 0.984 . S
N984 H997 0.985 . S
N985 C987 1.356 . S
N985 H990 0.984 . S
N985 H991 0.985 . S
C986 C980 1.379 . S
C986 C983 1.363 . S
C986 N984 1.356 . S
C987 C981 1.363 . S
C987 C982 1.379 . S
C987 N985 1.356 . S
N988 C980 1.356 . S
N988 H994 0.984 . S
N988 H995 0.984 . S
N989 C982 1.356 . S
N989 H992 0.984 . S
N989 H993 0.985 . S
H990 N985 0.984 . S
H991 N985 0.985 . S
H992 N989 0.984 . S
H993 N989 0.985 . S
H994 N988 0.984 . S
H995 N988 0.984 . S
H996 N984 0.984 . S
H997 N984 0.985 . S
C998 C999 1.363 . S
C998 C1004 1.379 . S
C998 N1006 1.356 . S
C999 C998 1.363 . S
C999 C1005 1.363 . S
C1000 C1001 1.363 . S
C1000 C1005 1.379 . S
C1000 N1007 1.356 1_655 S
C1001 C1000 1.363 . S
C1001 C1004 1.363 . S
N1002 C1004 1.356 . S
N1002 H1014 0.984 . S
N1002 H1015 0.985 . S
N1003 C1005 1.356 . S
N1003 H1008 0.984 . S
N1003 H1009 0.985 1_655 S
C1004 C998 1.379 . S
C1004 C1001 1.363 . S
C1004 N1002 1.356 . S
C1005 C999 1.363 . S
C1005 C1000 1.379 . S
C1005 N1003 1.356 . S
N1006 C998 1.356 . S
N1006 H1012 0.984 . S
N1006 H1013 0.984 . S
N1007 C1000 1.356 1_455 S
N1007 H1010 0.984 . S
N1007 H1011 0.985 . S
H1008 N1003 0.984 . S
H1009 N1003 0.985 1_455 S
H1010 N1007 0.984 . S
H1011 N1007 0.985 . S
H1012 N1006 0.984 . S
H1013 N1006 0.984 . S
H1014 N1002 0.984 . S
H1015 N1002 0.985 . S
C1016 C1017 1.363 . S
C1016 C1022 1.379 . S
C1016 N1024 1.356 . S
C1017 C1016 1.363 . S
C1017 C1023 1.363 . S
C1018 C1019 1.363 . S
C1018 C1023 1.379 . S
C1018 N1025 1.356 . S
C1019 C1018 1.363 . S
C1019 C1022 1.363 . S
N1020 C1022 1.356 . S
N1020 H1032 0.984 . S
N1020 H1033 0.985 . S
N1021 C1023 1.356 . S
N1021 H1026 0.984 . S
N1021 H1027 0.985 . S
C1022 C1016 1.379 . S
C1022 C1019 1.363 . S
C1022 N1020 1.356 . S
C1023 C1017 1.363 . S
C1023 C1018 1.379 . S
C1023 N1021 1.356 . S
N1024 C1016 1.356 . S
N1024 H1030 0.984 . S
N1024 H1031 0.984 . S
N1025 C1018 1.356 . S
N1025 H1028 0.984 . S
N1025 H1029 0.985 . S
H1026 N1021 0.984 . S
H1027 N1021 0.985 . S
H1028 N1025 0.984 . S
H1029 N1025 0.985 . S
H1030 N1024 0.984 . S
H1031 N1024 0.984 . S
H1032 N1020 0.984 . S
H1033 N1020 0.985 . S
C1034 C1035 1.363 . S
C1034 C1040 1.379 . S
C1034 N1042 1.356 . S
C1035 C1034 1.363 . S
C1035 C1041 1.363 . S
C1036 C1037 1.363 . S
C1036 C1041 1.379 . S
C1036 N1043 1.356 . S
C1037 C1036 1.363 . S
C1037 C1040 1.363 . S
N1038 C1040 1.356 . S
N1038 H1050 0.984 . S
N1038 H1051 0.985 . S
N1039 C1041 1.356 . S
N1039 H1044 0.984 . S
N1039 H1045 0.985 . S
C1040 C1034 1.379 . S
C1040 C1037 1.363 . S
C1040 N1038 1.356 . S
C1041 C1035 1.363 . S
C1041 C1036 1.379 . S
C1041 N1039 1.356 . S
N1042 C1034 1.356 . S
N1042 H1048 0.984 . S
N1042 H1049 0.984 . S
N1043 C1036 1.356 . S
N1043 H1046 0.984 . S
N1043 H1047 0.985 . S
H1044 N1039 0.984 . S
H1045 N1039 0.985 . S
H1046 N1043 0.984 . S
H1047 N1043 0.985 . S
H1048 N1042 0.984 . S
H1049 N1042 0.984 . S
H1050 N1038 0.984 . S
H1051 N1038 0.985 . S
C1052 C1053 1.363 . S
C1052 C1058 1.379 . S
C1052 N1060 1.356 . S
C1053 C1052 1.363 . S
C1053 C1059 1.363 . S
C1054 C1055 1.363 . S
C1054 C1059 1.379 . S
C1054 N1061 1.356 . S
C1055 C1054 1.363 . S
C1055 C1058 1.363 . S
N1056 C1058 1.356 . S
N1056 H1068 0.984 . S
N1056 H1069 0.985 . S
N1057 C1059 1.356 . S
N1057 H1062 0.984 . S
N1057 H1063 0.985 . S
C1058 C1052 1.379 . S
C1058 C1055 1.363 . S
C1058 N1056 1.356 . S
C1059 C1053 1.363 . S
C1059 C1054 1.379 . S
C1059 N1057 1.356 . S
N1060 C1052 1.356 . S
N1060 H1066 0.984 . S
N1060 H1067 0.984 . S
N1061 C1054 1.356 . S
N1061 H1064 0.984 . S
N1061 H1065 0.985 . S
H1062 N1057 0.984 . S
H1063 N1057 0.985 . S
H1064 N1061 0.984 . S
H1065 N1061 0.985 . S
H1066 N1060 0.984 . S
H1067 N1060 0.984 . S
H1068 N1056 0.984 . S
H1069 N1056 0.985 . S
C1070 C1071 1.363 . S
C1070 C1076 1.379 . S
C1070 N1078 1.356 . S
C1071 C1070 1.363 . S
C1071 C1077 1.363 . S
C1072 C1073 1.363 . S
C1072 C1077 1.379 . S
C1072 N1079 1.356 . S
C1073 C1072 1.363 . S
C1073 C1076 1.363 . S
N1074 C1076 1.356 . S
N1074 H1086 0.984 . S
N1074 H1087 0.985 . S
N1075 C1077 1.356 . S
N1075 H1080 0.984 . S
N1075 H1081 0.985 . S
C1076 C1070 1.379 . S
C1076 C1073 1.363 . S
C1076 N1074 1.356 . S
C1077 C1071 1.363 . S
C1077 C1072 1.379 . S
C1077 N1075 1.356 . S
N1078 C1070 1.356 . S
N1078 H1084 0.984 . S
N1078 H1085 0.984 . S
N1079 C1072 1.356 . S
N1079 H1082 0.984 . S
N1079 H1083 0.985 . S
H1080 N1075 0.984 . S
H1081 N1075 0.985 . S
H1082 N1079 0.984 . S
H1083 N1079 0.985 . S
H1084 N1078 0.984 . S
H1085 N1078 0.984 . S
H1086 N1074 0.984 . S
H1087 N1074 0.985 . S
C657 C242 1.467 . S
C659 C394 1.500 . S
C677 C478 1.493 . S
C675 C301 1.507 . S
C695 C471 1.502 . S
C693 C162 1.463 . S
C711 C221 1.506 . S
C713 C387 1.495 . S
C731 C551 1.500 . S
C729 C82 1.505 . S
C749 C635 1.493 . S
C747 C141 1.473 . S
C765 C2 1.507 . S
C767 C628 1.502 . S
C783 C61 1.467 . S
C785 C544 1.495 . S
C803 C378 1.326 . S
C801 C42 1.498 . S
C821 C462 1.325 . S
C819 C21 1.547 . S
C839 C473 1.398 . S
C837 C122 1.512 . S
C857 C389 1.399 . S
C855 C101 1.556 . S
C875 C557 1.326 . S
C873 C202 1.539 . S
C891 C181 1.497 . S
C893 C641 1.325 . S
C911 C630 1.398 . S
C909 C282 1.548 . S
C927 C261 1.512 . S
C929 C546 1.399 . S
C947 C376 1.615 . S
C945 C15 1.601 . S
C965 C460 1.597 . S
C963 C55 1.584 . S
C981 C95 1.589 . S
C983 C467 1.604 . S
C1001 C383 1.586 . S
C999 C135 1.574 . S
C1019 C555 1.615 . S
C1017 C175 1.596 . S
C1035 C215 1.588 . S
C1037 C639 1.597 . S
C1053 C255 1.585 . S
C1055 C646 1.604 . S
C1071 C295 1.578 . S
C1073 C562 1.586 . S
