# Generated by pormake.
# Topology iac, (4,6)-cn, num edge types: 1
# Building blocks:
#     Node 0, Type 0, BuildingBlock: NAHDIM_clean_sbu_0, # of connection points: 4
#     Node 1, Type 0, BuildingBlock: NAHDIM_clean_sbu_0, # of connection points: 4
#     Node 2, Type 0, BuildingBlock: NAHDIM_clean_sbu_0, # of connection points: 4
#     Node 3, Type 0, BuildingBlock: NAHDIM_clean_sbu_0, # of connection points: 4
#     Node 4, Type 0, BuildingBlock: NAHDIM_clean_sbu_0, # of connection points: 4
#     Node 5, Type 0, BuildingBlock: NAHDIM_clean_sbu_0, # of connection points: 4
#     Node 6, Type 0, BuildingBlock: NAHDIM_clean_sbu_0, # of connection points: 4
#     Node 7, Type 0, BuildingBlock: NAHDIM_clean_sbu_0, # of connection points: 4
#     Node 8, Type 0, BuildingBlock: NAHDIM_clean_sbu_0, # of connection points: 4
#     Node 9, Type 0, BuildingBlock: NAHDIM_clean_sbu_0, # of connection points: 4
#     Node 10, Type 0, BuildingBlock: NAHDIM_clean_sbu_0, # of connection points: 4
#     Node 11, Type 0, BuildingBlock: NAHDIM_clean_sbu_0, # of connection points: 4
#     Node 12, Type 0, BuildingBlock: NAHDIM_clean_sbu_0, # of connection points: 4
#     Node 13, Type 0, BuildingBlock: NAHDIM_clean_sbu_0, # of connection points: 4
#     Node 14, Type 0, BuildingBlock: NAHDIM_clean_sbu_0, # of connection points: 4
#     Node 15, Type 0, BuildingBlock: NAHDIM_clean_sbu_0, # of connection points: 4
#     Node 16, Type 0, BuildingBlock: NAHDIM_clean_sbu_0, # of connection points: 4
#     Node 17, Type 0, BuildingBlock: NAHDIM_clean_sbu_0, # of connection points: 4
#     Node 18, Type 0, BuildingBlock: NAHDIM_clean_sbu_0, # of connection points: 4
#     Node 19, Type 0, BuildingBlock: NAHDIM_clean_sbu_0, # of connection points: 4
#     Node 20, Type 0, BuildingBlock: NAHDIM_clean_sbu_0, # of connection points: 4
#     Node 21, Type 0, BuildingBlock: NAHDIM_clean_sbu_0, # of connection points: 4
#     Node 22, Type 0, BuildingBlock: NAHDIM_clean_sbu_0, # of connection points: 4
#     Node 23, Type 0, BuildingBlock: NAHDIM_clean_sbu_0, # of connection points: 4
#     Node 24, Type 1, BuildingBlock: LEVNOQ01_clean_sbu_1, # of connection points: 6
#     Node 25, Type 1, BuildingBlock: LEVNOQ01_clean_sbu_1, # of connection points: 6
#     Node 26, Type 1, BuildingBlock: LEVNOQ01_clean_sbu_1, # of connection points: 6
#     Node 27, Type 1, BuildingBlock: LEVNOQ01_clean_sbu_1, # of connection points: 6
#     Node 28, Type 1, BuildingBlock: LEVNOQ01_clean_sbu_1, # of connection points: 6
#     Node 29, Type 1, BuildingBlock: LEVNOQ01_clean_sbu_1, # of connection points: 6
#     Node 30, Type 1, BuildingBlock: LEVNOQ01_clean_sbu_1, # of connection points: 6
#     Node 31, Type 1, BuildingBlock: LEVNOQ01_clean_sbu_1, # of connection points: 6
#     Node 32, Type 1, BuildingBlock: LEVNOQ01_clean_sbu_1, # of connection points: 6
#     Node 33, Type 1, BuildingBlock: LEVNOQ01_clean_sbu_1, # of connection points: 6
#     Node 34, Type 1, BuildingBlock: LEVNOQ01_clean_sbu_1, # of connection points: 6
#     Node 35, Type 1, BuildingBlock: LEVNOQ01_clean_sbu_1, # of connection points: 6
#     Node 36, Type 1, BuildingBlock: LEVNOQ01_clean_sbu_1, # of connection points: 6
#     Node 37, Type 1, BuildingBlock: LEVNOQ01_clean_sbu_1, # of connection points: 6
#     Node 38, Type 1, BuildingBlock: LEVNOQ01_clean_sbu_1, # of connection points: 6
#     Node 39, Type 1, BuildingBlock: LEVNOQ01_clean_sbu_1, # of connection points: 6
#     Edge 40, Type (0, 1), None
#     Edge 41, Type (0, 1), None
#     Edge 42, Type (0, 1), None
#     Edge 43, Type (0, 1), None
#     Edge 44, Type (0, 1), None
#     Edge 45, Type (0, 1), None
#     Edge 46, Type (0, 1), None
#     Edge 47, Type (0, 1), None
#     Edge 48, Type (0, 1), None
#     Edge 49, Type (0, 1), None
#     Edge 50, Type (0, 1), None
#     Edge 51, Type (0, 1), None
#     Edge 52, Type (0, 1), None
#     Edge 53, Type (0, 1), None
#     Edge 54, Type (0, 1), None
#     Edge 55, Type (0, 1), None
#     Edge 56, Type (0, 1), None
#     Edge 57, Type (0, 1), None
#     Edge 58, Type (0, 1), None
#     Edge 59, Type (0, 1), None
#     Edge 60, Type (0, 1), None
#     Edge 61, Type (0, 1), None
#     Edge 62, Type (0, 1), None
#     Edge 63, Type (0, 1), None
#     Edge 64, Type (0, 1), None
#     Edge 65, Type (0, 1), None
#     Edge 66, Type (0, 1), None
#     Edge 67, Type (0, 1), None
#     Edge 68, Type (0, 1), None
#     Edge 69, Type (0, 1), None
#     Edge 70, Type (0, 1), None
#     Edge 71, Type (0, 1), None
#     Edge 72, Type (0, 1), None
#     Edge 73, Type (0, 1), None
#     Edge 74, Type (0, 1), None
#     Edge 75, Type (0, 1), None
#     Edge 76, Type (0, 1), None
#     Edge 77, Type (0, 1), None
#     Edge 78, Type (0, 1), None
#     Edge 79, Type (0, 1), None
#     Edge 80, Type (0, 1), None
#     Edge 81, Type (0, 1), None
#     Edge 82, Type (0, 1), None
#     Edge 83, Type (0, 1), None
#     Edge 84, Type (0, 1), None
#     Edge 85, Type (0, 1), None
#     Edge 86, Type (0, 1), None
#     Edge 87, Type (0, 1), None
#     Edge 88, Type (0, 1), None
#     Edge 89, Type (0, 1), None
#     Edge 90, Type (0, 1), None
#     Edge 91, Type (0, 1), None
#     Edge 92, Type (0, 1), None
#     Edge 93, Type (0, 1), None
#     Edge 94, Type (0, 1), None
#     Edge 95, Type (0, 1), None
#     Edge 96, Type (0, 1), None
#     Edge 97, Type (0, 1), None
#     Edge 98, Type (0, 1), None
#     Edge 99, Type (0, 1), None
#     Edge 100, Type (0, 1), None
#     Edge 101, Type (0, 1), None
#     Edge 102, Type (0, 1), None
#     Edge 103, Type (0, 1), None
#     Edge 104, Type (0, 1), None
#     Edge 105, Type (0, 1), None
#     Edge 106, Type (0, 1), None
#     Edge 107, Type (0, 1), None
#     Edge 108, Type (0, 1), None
#     Edge 109, Type (0, 1), None
#     Edge 110, Type (0, 1), None
#     Edge 111, Type (0, 1), None
#     Edge 112, Type (0, 1), None
#     Edge 113, Type (0, 1), None
#     Edge 114, Type (0, 1), None
#     Edge 115, Type (0, 1), None
#     Edge 116, Type (0, 1), None
#     Edge 117, Type (0, 1), None
#     Edge 118, Type (0, 1), None
#     Edge 119, Type (0, 1), None
#     Edge 120, Type (0, 1), None
#     Edge 121, Type (0, 1), None
#     Edge 122, Type (0, 1), None
#     Edge 123, Type (0, 1), None
#     Edge 124, Type (0, 1), None
#     Edge 125, Type (0, 1), None
#     Edge 126, Type (0, 1), None
#     Edge 127, Type (0, 1), None
#     Edge 128, Type (0, 1), None
#     Edge 129, Type (0, 1), None
#     Edge 130, Type (0, 1), None
#     Edge 131, Type (0, 1), None
#     Edge 132, Type (0, 1), None
#     Edge 133, Type (0, 1), None
#     Edge 134, Type (0, 1), None
#     Edge 135, Type (0, 1), None
# Relax obj value: 0.110
# Max RMSD: 0.168
# Mean RMSD: 0.129
data_MOF--net-iac--node1-NAHDIM_clean_sbu_0--node2-LEVNOQ01_clean_sbu_1--edge1-none
_symmetry_space_group_name_H-M    P1
_symmetry_Int_Tables_number       1
_symmetry_cell_setting            triclinic
loop_
_symmetry_equiv_pos_as_xyz
'x, y, z'
_cell_length_a     26.498799
_cell_length_b     25.420923
_cell_length_c     25.023972
_cell_angle_alpha  89.34312
_cell_angle_beta   89.633501
_cell_angle_gamma 88.859503
loop_
_atom_site_label
_atom_site_type_symbol
_atom_site_fract_x
_atom_site_fract_y
_atom_site_fract_z
_atom_type_partial_charge
C0 C 0.88436 0.25617 0.19009 0.0
O1 O 0.86244 0.27229 0.14577 0.0
O2 O 0.95593 0.19559 0.08689 0.0
Zn3 Zn 0.97813 0.25774 0.12916 0.0
O4 O 0.96609 0.3196 0.07793 0.0
C5 C 0.08357 0.27815 0.13123 0.0
O6 O 0.07088 0.30127 0.08601 0.0
O7 O 0.93218 0.25645 0.19319 0.0
C8 C 0.95823 0.35835 0.04615 0.0
O9 O 0.91881 0.38942 0.05393 0.0
C10 C 0.97197 0.15131 0.07014 0.0
O11 O 0.01817 0.13471 0.08036 0.0
O12 O 0.05034 0.25317 0.15723 0.0
C13 C 0.10281 0.70439 0.33488 0.0
O14 O 0.08701 0.6751 0.37479 0.0
O15 O -0.01399 0.6651 0.36058 0.0
Zn16 Zn -0.00042 0.74078 0.34023 0.0
O17 O -0.01386 0.78937 0.40173 0.0
C18 C 0.92282 0.79932 0.27644 0.0
O19 O 0.91169 0.82609 0.3196 0.0
O20 O 0.0733 0.73962 0.31515 0.0
C21 C 0.94914 0.7893 0.43452 0.0
O22 O 0.91409 0.75368 0.43165 0.0
C23 C -0.01499 0.64457 0.40722 0.0
O24 O -0.01342 0.6745 0.44948 0.0
O25 O 0.95689 0.76338 0.27789 0.0
C26 C 0.38433 0.75622 0.69026 0.0
O27 O 0.36237 0.77231 0.64595 0.0
O28 O 0.45589 0.69569 0.58698 0.0
Zn29 Zn 0.47808 0.75783 0.62929 0.0
O30 O 0.46607 0.81972 0.57808 0.0
C31 C 0.58355 0.77787 0.63113 0.0
O32 O 0.5709 0.80062 0.58572 0.0
O33 O 0.43214 0.75652 0.69333 0.0
C34 C 0.45829 0.85848 0.54628 0.0
O35 O 0.41888 0.88958 0.55399 0.0
C36 C 0.47193 0.65139 0.5703 0.0
O37 O 0.5181 0.63476 0.58062 0.0
O38 O 0.55026 0.75322 0.65738 0.0
C39 C 0.60272 0.20414 0.83481 0.0
O40 O 0.58693 0.17477 0.87466 0.0
O41 O 0.48591 0.1649 0.8606 0.0
Zn42 Zn 0.49949 0.24057 0.84026 0.0
O43 O 0.48606 0.28915 0.90176 0.0
C44 C 0.42273 0.29916 0.77652 0.0
O45 O 0.41164 0.32593 0.81969 0.0
O46 O 0.57321 0.23941 0.81515 0.0
C47 C 0.44903 0.2891 0.93451 0.0
O48 O 0.41396 0.25351 0.9316 0.0
C49 C 0.48489 0.14437 0.90724 0.0
O50 O 0.48645 0.17431 0.9495 0.0
O51 O 0.45678 0.26319 0.77794 0.0
C52 C 0.16966 0.87912 0.25946 0.0
O53 O 0.12689 0.85408 0.26248 0.0
O54 O 0.09402 0.96857 0.18313 0.0
Zn55 Zn 0.11042 0.97505 0.26087 0.0
O56 O 0.04629 0.95984 0.29961 0.0
C57 C 0.15353 0.08565 0.26122 0.0
O58 O 0.1624 0.0847 0.20957 0.0
O59 O 0.17014 0.92702 0.27271 0.0
C60 C 0.04107 0.96086 0.34986 0.0
O61 O 0.08139 0.95882 0.38005 0.0
C62 C 0.04991 0.9723 0.16347 0.0
O63 O 0.01157 -0.01212 0.1932 0.0
O64 O 0.1328 0.04685 0.28459 0.0
C65 C 0.14055 0.87619 0.48381 0.0
O66 O 0.1597 0.82851 0.48971 0.0
O67 O 0.24687 0.86086 0.5394 0.0
Zn68 Zn 0.24141 0.88926 0.46336 0.0
O69 O 0.25892 0.83499 0.40605 0.0
C70 C 0.32147 0.95835 0.42806 0.0
O71 O 0.33499 0.9187 0.39765 0.0
O72 O 0.16764 0.91173 0.46305 0.0
C73 C 0.29368 0.79948 0.40569 0.0
O74 O 0.32434 0.7941 0.44646 0.0
C75 C 0.24696 0.81444 0.55909 0.0
O76 O 0.2522 0.77357 0.52788 0.0
O77 O 0.28245 0.95469 0.45732 0.0
C78 C 0.35585 0.09276 0.73407 0.0
O79 O 0.40284 0.07586 0.73067 0.0
O80 O 0.37482 -0.01333 0.66977 0.0
Zn81 Zn 0.34737 -0.01212 0.74517 0.0
O82 O 0.39964 0.97038 0.80004 0.0
C83 C 0.27999 0.9076 0.78484 0.0
O84 O 0.31586 0.89441 0.81868 0.0
O85 O 0.32227 0.06176 0.75048 0.0
C86 C 0.43705 0.93832 0.79783 0.0
O87 O 0.44506 0.90925 0.75549 0.0
C88 C 0.41989 -0.00834 0.65287 0.0
O89 O 0.45778 -0.00881 0.68632 0.0
O90 O 0.28675 0.94455 0.75145 0.0
C91 C 0.34357 0.04 0.97067 0.0
O92 O 0.37025 0.08195 -0.0206 0.0
O93 O 0.27043 0.15207 0.03345 0.0
Zn94 Zn 0.25122 0.10885 0.96858 0.0
O95 O 0.23933 0.16275 0.90906 0.0
C96 C 0.14165 0.07672 0.96087 0.0
O97 O 0.12961 0.11919 0.93307 0.0
O98 O 0.29736 0.0455 0.95882 0.0
C99 C 0.25953 0.18516 0.86876 0.0
O100 O 0.30484 0.17096 0.8522 0.0
C101 C 0.27005 0.14399 0.08382 0.0
O102 O 0.25601 0.09825 0.1031 0.0
O103 O 0.18595 0.0702 -0.02047 0.0
C104 C 0.64035 0.37622 -0.01627 0.0
O105 O 0.65954 0.32855 -0.01038 0.0
O106 O 0.74665 0.36095 0.03931 0.0
Zn107 Zn 0.74117 0.38932 0.96326 0.0
O108 O 0.75869 0.33503 0.90597 0.0
C109 C 0.82127 0.45834 0.92798 0.0
O110 O 0.83478 0.41867 0.8976 0.0
O111 O 0.66741 0.41178 0.96295 0.0
C112 C 0.79348 0.29956 0.90561 0.0
O113 O 0.82416 0.29423 0.94637 0.0
C114 C 0.7468 0.31455 0.05903 0.0
O115 O 0.75207 0.27366 0.02783 0.0
O116 O 0.78222 0.45473 0.9572 0.0
C117 C 0.85592 0.59284 0.23405 0.0
O118 O 0.90289 0.57591 0.23061 0.0
O119 O 0.87476 0.48666 0.1698 0.0
Zn120 Zn 0.84738 0.48797 0.24522 0.0
O121 O 0.89971 0.47052 0.30004 0.0
C122 C 0.78016 0.40755 0.28484 0.0
O123 O 0.81619 0.39421 0.31843 0.0
O124 O 0.82233 0.56187 0.25049 0.0
C125 C 0.93713 0.43847 0.29782 0.0
O126 O 0.94512 0.40936 0.25551 0.0
C127 C 0.91981 0.49161 0.15283 0.0
O128 O 0.95774 0.49118 0.18624 0.0
O129 O 0.78676 0.44467 0.25161 0.0
C130 C 0.84365 0.54017 0.47057 0.0
O131 O 0.87029 0.58215 0.47928 0.0
O132 O 0.77044 0.65213 0.53339 0.0
Zn133 Zn 0.75125 0.60892 0.46849 0.0
O134 O 0.73936 0.66282 0.40897 0.0
C135 C 0.64166 0.5768 0.46088 0.0
O136 O 0.62956 0.61934 0.43323 0.0
O137 O 0.79744 0.54562 0.45871 0.0
C138 C 0.75955 0.68523 0.36866 0.0
O139 O 0.80486 0.67104 0.35209 0.0
C140 C 0.77009 0.64402 0.58376 0.0
O141 O 0.75611 0.59827 0.60302 0.0
O142 O 0.686 0.57024 0.47942 0.0
C143 C 0.6694 0.37893 0.75944 0.0
O144 O 0.62653 0.35405 0.76231 0.0
O145 O 0.59412 0.46858 0.6832 0.0
Zn146 Zn 0.61047 0.47502 0.76096 0.0
O147 O 0.54625 0.46002 0.79961 0.0
C148 C 0.65369 0.58557 0.76127 0.0
O149 O 0.66242 0.58468 0.7096 0.0
O150 O 0.67003 0.42677 0.77287 0.0
C151 C 0.54095 0.46099 0.84985 0.0
O152 O 0.58121 0.45891 0.88013 0.0
C153 C 0.55001 0.47237 0.66355 0.0
O154 O 0.51169 0.48798 0.69327 0.0
O155 O 0.63302 0.54675 0.78467 0.0
C156 C 0.07226 0.7426 0.77679 0.0
O157 O 0.09603 0.71537 0.8141 0.0
O158 O -0.01044 0.66973 0.88615 0.0
Zn159 Zn 0.98111 0.74064 0.84649 0.0
O160 O 0.00484 0.79893 0.89628 0.0
C161 C 0.87529 0.71382 0.84174 0.0
O162 O 0.88951 0.68333 0.88162 0.0
O163 O 0.02495 0.75109 0.78096 0.0
C164 C -0.00823 0.84473 0.91218 0.0
O165 O 0.94924 0.86682 0.89607 0.0
C166 C -0.00397 0.66903 0.9366 0.0
O167 O 0.01353 0.71129 0.95899 0.0
O168 O 0.90683 0.74566 0.82133 0.0
C169 C 0.89777 0.25552 0.63722 0.0
O170 O 0.90198 0.25796 0.58507 0.0
O171 O -0.00841 0.13855 0.59049 0.0
Zn172 Zn -0.00401 0.21257 0.61993 0.0
O173 O -0.00425 0.26544 0.55797 0.0
C174 C 0.10442 0.20761 0.65478 0.0
O175 O 0.11568 0.1837 0.60992 0.0
O176 O 0.93255 0.23236 0.66402 0.0
C177 C 0.00025 0.29404 0.51624 0.0
O178 O 0.03386 0.28124 0.4796 0.0
C179 C 0.01283 0.12911 0.54583 0.0
O180 O 0.0379 0.16665 0.52176 0.0
O181 O 0.05881 0.2212 0.66507 0.0
C182 C 0.57225 0.24271 0.27685 0.0
O183 O 0.59602 0.21541 0.31411 0.0
O184 O 0.4898 0.16984 0.38628 0.0
Zn185 Zn 0.48115 0.24071 0.34662 0.0
O186 O 0.50485 0.29903 0.39638 0.0
C187 C 0.3754 0.21337 0.34158 0.0
O188 O 0.38976 0.18234 0.38098 0.0
O189 O 0.52495 0.25123 0.28106 0.0
C190 C 0.49177 0.34482 0.4123 0.0
O191 O 0.44922 0.36689 0.39623 0.0
C192 C 0.4962 0.16919 0.43674 0.0
O193 O 0.51358 0.2115 0.45913 0.0
O194 O 0.40681 0.24561 0.3216 0.0
C195 C 0.3979 0.75533 0.13729 0.0
O196 O 0.40205 0.75763 0.08514 0.0
O197 O 0.49159 0.63837 0.09054 0.0
Zn198 Zn 0.49608 0.71238 0.11995 0.0
O199 O 0.49578 0.76524 0.05798 0.0
C200 C 0.60456 0.7075 0.15476 0.0
O201 O 0.61586 0.68364 0.10988 0.0
O202 O 0.43271 0.73223 0.16411 0.0
C203 C 0.50023 0.79384 0.01625 0.0
O204 O 0.53383 0.78108 -0.02041 0.0
C205 C 0.51281 0.62892 0.04586 0.0
O206 O 0.53792 0.66645 0.02181 0.0
O207 O 0.55894 0.72102 0.16505 0.0
C208 C 0.82005 0.10565 0.69751 0.0
O209 O 0.81576 0.14176 0.65984 0.0
O210 O 0.91791 0.95546 0.70053 0.0
Zn211 Zn 0.85889 -0.00357 0.72959 0.0
O212 O 0.87502 0.01527 0.80442 0.0
C213 C 0.80416 0.89697 0.72675 0.0
O214 O 0.83904 0.87784 0.75895 0.0
O215 O 0.84388 0.06293 0.68662 0.0
C216 C 0.91999 0.02186 0.82006 0.0
O217 O 0.95843 0.01079 0.78853 0.0
C218 C 0.93719 0.96298 0.65474 0.0
O219 O 0.92199 0.00327 0.62534 0.0
O220 O 0.80191 0.94628 0.71702 0.0
C221 C 0.8107 0.00893 0.51667 0.0
O222 O 0.80087 -0.01328 0.56311 0.0
O223 O 0.72661 0.14254 0.56869 0.0
Zn224 Zn 0.72469 0.09817 0.50376 0.0
O225 O 0.7384 0.14044 0.43707 0.0
C226 C 0.65184 0.01855 0.51948 0.0
O227 O 0.68976 -0.00688 0.54214 0.0
O228 O 0.78346 0.04705 0.49945 0.0
C229 C 0.71565 0.17318 0.40652 0.0
O230 O 0.66908 0.1885 0.41705 0.0
C231 C 0.69754 0.18272 0.57142 0.0
O232 O 0.66714 0.19428 0.53161 0.0
O233 O 0.65824 0.06401 0.49969 0.0
C234 C 0.70132 0.9202 0.19265 0.0
O235 O 0.72038 0.93119 0.14535 0.0
O236 O 0.56757 -0.00241 0.14257 0.0
Zn237 Zn 0.61187 0.00334 0.2063 0.0
O238 O 0.57457 -0.01577 0.27368 0.0
C239 C 0.68692 0.07776 0.18118 0.0
O240 O 0.70341 0.03954 0.15055 0.0
O241 O 0.66353 0.94584 0.2105 0.0
C242 C 0.54375 0.00741 0.30475 0.0
O243 O 0.53002 0.05657 0.2953 0.0
C244 C 0.51989 -0.00125 0.14799 0.0
O245 O 0.49949 0.00463 0.19547 0.0
O246 O 0.64651 0.07225 0.20812 0.0
C247 C 0.62426 0.92597 -4e-05 0.0
O248 O 0.60634 0.87841 0.00494 0.0
O249 O 0.73882 0.82661 0.06215 0.0
Zn250 Zn 0.72122 0.87919 0.00343 0.0
O251 O 0.69806 0.8379 0.93909 0.0
C252 C 0.82548 0.91956 0.01692 0.0
O253 O 0.83407 0.88199 0.05222 0.0
O254 O 0.66822 0.93424 0.01707 0.0
C255 C 0.69457 0.84714 0.88912 0.0
O256 O 0.70947 0.89228 0.8692 0.0
C257 C 0.76638 0.78955 0.04325 0.0
O258 O 0.77261 0.78691 -0.00873 0.0
O259 O 0.78391 0.9222 -0.00858 0.0
C260 C 0.31044 0.5088 0.0166 0.0
O261 O 0.30045 0.48615 0.06279 0.0
O262 O 0.2264 0.64262 0.06881 0.0
Zn263 Zn 0.22447 0.59821 0.00389 0.0
O264 O 0.23822 0.64047 0.9372 0.0
C265 C 0.15165 0.51851 0.01943 0.0
O266 O 0.18962 0.49303 0.04195 0.0
O267 O 0.28323 0.54706 -0.00037 0.0
C268 C 0.21549 0.67319 0.90661 0.0
O269 O 0.16889 0.68847 0.91707 0.0
C270 C 0.19752 0.68296 0.07145 0.0
O271 O 0.16727 0.69467 0.03156 0.0
O272 O 0.15801 0.56405 -0.0002 0.0
C273 C 0.20127 0.4201 0.69275 0.0
O274 O 0.2201 0.43099 0.64532 0.0
O275 O 0.06773 0.49756 0.64256 0.0
Zn276 Zn 0.11195 0.50331 0.70634 0.0
O277 O 0.07451 0.48426 0.77364 0.0
C278 C 0.18709 0.57767 0.68133 0.0
O279 O 0.20364 0.5394 0.65079 0.0
O280 O 0.16355 0.44577 0.71073 0.0
C281 C 0.04367 0.50745 0.8047 0.0
O282 O 0.03002 0.55664 0.7953 0.0
C283 C 0.02004 0.49896 0.64792 0.0
O284 O -0.00038 0.50508 0.69535 0.0
O285 O 0.14662 0.5722 0.70818 0.0
C286 C 0.12434 0.42609 0.49988 0.0
O287 O 0.10641 0.37853 0.50482 0.0
O288 O 0.23884 0.32668 0.56218 0.0
Zn289 Zn 0.22128 0.37927 0.50347 0.0
O290 O 0.19815 0.33796 0.43914 0.0
C291 C 0.32552 0.41964 0.51704 0.0
O292 O 0.33404 0.38214 0.55244 0.0
O293 O 0.16829 0.43435 0.51703 0.0
C294 C 0.19465 0.34715 0.38916 0.0
O295 O 0.2095 0.39229 0.36922 0.0
C296 C 0.26646 0.28968 0.54326 0.0
O297 O 0.27278 0.28714 0.49129 0.0
O298 O 0.28399 0.42224 0.49148 0.0
C299 C 0.32 0.60563 0.19752 0.0
O300 O 0.31567 0.64172 0.15984 0.0
O301 O 0.41806 0.45557 0.20061 0.0
Zn302 Zn 0.35899 0.49647 0.22965 0.0
O303 O 0.37508 0.51537 0.30448 0.0
C304 C 0.30435 0.39692 0.22681 0.0
O305 O 0.33928 0.37781 0.25896 0.0
O306 O 0.34388 0.56294 0.18665 0.0
C307 C 0.42005 0.52192 0.32015 0.0
O308 O 0.4585 0.51078 0.28867 0.0
C309 C 0.43717 0.463 0.15471 0.0
O310 O 0.42176 0.50316 0.12526 0.0
O311 O 0.30207 0.44624 0.2171 0.0
O312 O 0.89755 0.0702 0.89532 0.0
Mg313 Mg 0.88257 0.07521 -0.02228 0.0
O314 O 0.95849 0.00892 0.90371 0.0
Mg315 Mg -0.0162 -0.00217 -0.00837 0.0
O316 O 0.94961 0.07593 0.017 0.0
O317 O 0.8945 0.14171 0.0241 0.0
O318 O 0.00982 -0.01332 0.07998 0.0
O319 O 0.05853 0.04355 0.97324 0.0
Mg320 Mg 0.08601 0.92033 0.00187 0.0
O321 O 0.01718 0.91906 0.96613 0.0
O322 O 0.07429 0.92897 0.08512 0.0
O323 O 0.12431 -0.01265 0.97274 0.0
O324 O 0.0705 0.85225 0.95748 0.0
C325 C 0.86115 0.96236 0.01032 0.0
C326 C 0.92788 0.03648 0.87526 0.0
C327 C 0.93798 0.12148 0.03629 0.0
C328 C 0.04313 0.96092 0.10686 0.0
C329 C 0.10587 0.03372 0.96802 0.0
C330 C 0.02708 0.87321 0.94645 0.0
O331 O 0.8427 0.00824 0.00251 0.0
O332 O 0.90877 0.95268 0.00935 0.0
O333 O 0.29795 0.71066 0.37806 0.0
Mg334 Mg 0.26249 0.64558 0.33813 0.0
O335 O 0.27554 0.77278 0.31839 0.0
Mg336 Mg 0.25049 0.73899 0.23803 0.0
O337 O 0.27603 0.66033 0.26099 0.0
O338 O 0.30033 0.58402 0.29023 0.0
O339 O 0.22316 0.70591 0.15778 0.0
O340 O 0.32993 0.74773 0.19895 0.0
Mg341 Mg 0.24717 0.82963 0.13776 0.0
O342 O 0.2259 0.81878 0.21428 0.0
O343 O 0.20654 0.77013 0.09812 0.0
O344 O 0.32588 0.80978 0.13521 0.0
O345 O 0.20979 0.89455 0.17552 0.0
C346 C 0.15512 0.69718 0.31611 0.0
C347 C 0.29218 0.75896 0.36431 0.0
C348 C 0.29793 0.61651 0.25077 0.0
C349 C 0.20707 0.72184 0.11222 0.0
C350 C 0.35017 0.77415 0.16109 0.0
C351 C 0.20442 0.86413 0.21653 0.0
O352 O 0.18234 0.66225 0.34007 0.0
O353 O 0.17237 0.72692 0.27884 0.0
O354 O 0.54942 0.93533 0.36515 0.0
Mg355 Mg 0.56192 0.89785 0.44235 0.0
O356 O 0.50855 0.00839 0.39142 0.0
Mg357 Mg 0.48272 0.00029 0.47842 0.0
O358 O 0.4985 0.91525 0.48173 0.0
O359 O 0.52506 0.83402 0.48488 0.0
O360 O 0.45824 -0.00791 0.5672 0.0
O361 O 0.40403 0.97936 0.44967 0.0
Mg362 Mg 0.39384 0.0864 0.50842 0.0
O363 O 0.46497 0.08764 0.47459 0.0
O364 O 0.399 0.05265 0.58584 0.0
O365 O 0.34505 0.04164 0.45955 0.0
O366 O 0.42093 0.16096 0.48782 0.0
C367 C 0.60681 -0.00933 0.50486 0.0
C368 C 0.53137 0.98152 0.35575 0.0
C369 C 0.49371 0.86925 0.50202 0.0
C370 C 0.42675 0.01351 0.59936 0.0
C371 C 0.35907 -0.00352 0.44325 0.0
C372 C 0.46074 0.13799 0.46862 0.0
O373 O 0.61293 0.94432 0.48667 0.0
O374 O 0.56458 0.01608 0.50344 0.0
O375 O 0.40395 0.29141 0.68623 0.0
Mg376 Mg 0.37223 0.23528 0.63531 0.0
O377 O 0.34217 0.28137 0.74584 0.0
Mg378 Mg 0.26809 0.25033 0.71023 0.0
O379 O 0.29837 0.2555 0.62716 0.0
O380 O 0.34797 0.25161 0.55666 0.0
O381 O 0.19113 0.22034 0.67665 0.0
O382 O 0.23865 0.33514 0.69617 0.0
Mg383 Mg 0.1742 0.28626 0.79228 0.0
O384 O 0.23836 0.24269 0.79366 0.0
O385 O 0.13062 0.2479 0.73342 0.0
O386 O 0.1941 0.36293 0.7663 0.0
O387 O 0.19185 0.24849 0.86606 0.0
C388 C 0.34207 0.1431 0.70977 0.0
C389 C 0.38644 0.29636 0.73331 0.0
C390 C 0.30438 0.26328 0.57678 0.0
C391 C 0.1445 0.22481 0.6907 0.0
C392 C 0.21471 0.37126 0.72101 0.0
C393 C 0.23057 0.22793 0.84227 0.0
O394 O 0.37284 0.16197 0.67579 0.0
O395 O 0.30094 0.16662 0.72319 0.0
O396 O 0.95381 0.808 0.52607 0.0
Mg397 Mg 0.00304 0.8455 0.58126 0.0
O398 O 0.96105 0.8735 0.46688 0.0
Mg399 Mg 0.98051 0.95373 0.50112 0.0
O400 O 0.97971 0.92109 0.58183 0.0
O401 O 0.97767 0.87772 0.65689 0.0
O402 O 0.00047 0.03737 0.53272 0.0
O403 O 0.89527 0.97573 0.51359 0.0
Mg404 Mg 0.9372 0.0475 0.41407 0.0
O405 O 0.98119 -0.0167 0.41877 0.0
O406 O 0.97608 0.09572 0.46929 0.0
O407 O 0.86615 0.0242 0.4452 0.0
O408 O 0.97285 0.02265 0.34147 0.0
C409 C 0.09054 0.88769 0.50657 0.0
C410 C 0.95019 0.82616 0.4786 0.0
C411 C 0.9677 0.92066 0.63111 0.0
C412 C -0.00356 0.08459 0.51418 0.0
C413 C 0.85924 -0.00018 0.48928 0.0
C414 C -0.00456 -0.01286 0.3701 0.0
O415 O 0.07407 0.85472 0.54107 0.0
O416 O 0.06455 0.92775 0.49031 0.0
O417 O 0.27855 0.65784 0.84247 0.0
Mg418 Mg 0.31188 0.64739 0.76576 0.0
O419 O 0.21664 0.71497 0.82088 0.0
Mg420 Mg 0.22947 0.74468 0.73343 0.0
O421 O 0.31053 0.71963 0.7329 0.0
O422 O 0.38288 0.67765 0.74271 0.0
O423 O 0.2429 0.77325 0.64514 0.0
O424 O 0.256 0.82278 0.76516 0.0
Mg425 Mg 0.15249 0.84578 0.70087 0.0
O426 O 0.14866 0.77234 0.73359 0.0
O427 O 0.18803 0.83809 0.62501 0.0
O428 O 0.19982 0.88809 0.75308 0.0
O429 O 0.07942 0.8197 0.72227 0.0
C430 C 0.22128 0.61853 0.69712 0.0
C431 C 0.2388 0.6842 0.85445 0.0
C432 C 0.3584 0.71828 0.72471 0.0
C433 C 0.22501 0.80789 0.61262 0.0
C434 C 0.24156 0.87031 0.77137 0.0
C435 C 0.10077 0.7775 0.74102 0.0
O436 O 0.26506 0.6043 0.71306 0.0
O437 O 0.20335 0.6649 0.70377 0.0
O438 O 0.43158 0.851 0.03911 0.0
Mg439 Mg 0.39671 0.92575 0.05913 0.0
O440 O 0.49344 0.88265 -0.01159 0.0
Mg441 Mg 0.4838 0.97118 0.97023 0.0
O442 O 0.40486 0.97273 -0.00558 0.0
O443 O 0.32999 0.96642 0.0291 0.0
O444 O 0.47847 0.0601 0.94862 0.0
O445 O 0.45868 0.9532 0.88597 0.0
Mg446 Mg 0.57033 -0.00385 0.87155 0.0
O447 O 0.56127 0.96874 0.946 0.0
O448 O 0.53361 0.07156 0.88101 0.0
O449 O 0.52119 0.9469 0.82616 0.0
O450 O 0.63743 0.96924 0.91522 0.0
C451 C 0.48847 -0.01509 0.10308 0.0
C452 C 0.47262 0.8446 0.01293 0.0
C453 C 0.35939 -0.01006 -0.00412 0.0
C454 C 0.49903 0.08874 0.91245 0.0
C455 C 0.47492 0.9423 0.83935 0.0
C456 C 0.60738 0.95726 0.95373 0.0
O457 O 0.44538 0.96531 0.11293 0.0
O458 O 0.50717 -0.01163 0.05601 0.0
O459 O 0.28205 0.23419 0.09656 0.0
Mg460 Mg 0.24652 0.30529 0.12166 0.0
O461 O 0.25199 0.1884 0.16558 0.0
Mg462 Mg 0.229 0.24432 0.23713 0.0
O463 O 0.26184 0.31777 0.19955 0.0
O464 O 0.28284 0.37588 0.13756 0.0
O465 O 0.20768 0.30154 0.30771 0.0
O466 O 0.30771 0.23105 0.27988 0.0
Mg467 Mg 0.21154 0.19014 0.35069 0.0
O468 O 0.19364 0.16974 0.27486 0.0
O469 O 0.17489 0.25905 0.37685 0.0
O470 O 0.29115 0.19195 0.358 0.0
O471 O 0.17342 0.12063 0.34589 0.0
C472 C 0.13644 0.27983 0.14864 0.0
C473 C 0.27148 0.19047 0.11861 0.0
C474 C 0.28212 0.36211 0.18728 0.0
C475 C 0.18792 0.30159 0.35444 0.0
C476 C 0.32212 0.2123 0.32516 0.0
C477 C 0.17356 0.1275 0.2947 0.0
O478 O 0.16721 0.30145 0.11647 0.0
O479 O 0.15076 0.25912 0.19326 0.0
O480 O 0.36597 0.52441 0.94527 0.0
Mg481 Mg 0.43706 0.54753 0.91408 0.0
O482 O 0.39499 0.47558 0.01346 0.0
Mg483 Mg 0.48023 0.45361 0.00103 0.0
O484 O 0.48087 0.48316 0.91867 0.0
O485 O 0.47272 0.52276 0.84146 0.0
O486 O 0.56429 0.42768 -0.00978 0.0
O487 O 0.46082 0.37334 0.96682 0.0
Mg488 Mg 0.50292 0.34544 0.08125 0.0
O489 O 0.47935 0.42093 0.08171 0.0
O490 O 0.57393 0.35472 0.04105 0.0
O491 O 0.45375 0.30784 0.02606 0.0
O492 O 0.47768 0.37775 0.15689 0.0
C493 C 0.49633 0.58446 0.01417 0.0
C494 C 0.359 0.49983 -0.01077 0.0
C495 C 0.49525 0.48719 0.87005 0.0
C496 C 0.59034 0.38768 0.00651 0.0
C497 C 0.45004 0.32598 -0.02142 0.0
C498 C 0.46759 0.42063 0.13106 0.0
O499 O 0.47606 0.59567 0.96926 0.0
O500 O 0.50022 0.53723 0.03269 0.0
O501 O 0.77861 0.15778 0.34227 0.0
Mg502 Mg 0.81184 0.14735 0.26551 0.0
O503 O 0.71673 0.21497 0.3208 0.0
Mg504 Mg 0.72947 0.2447 0.23335 0.0
O505 O 0.81053 0.21961 0.2327 0.0
O506 O 0.88284 0.17754 0.24242 0.0
O507 O 0.74281 0.27332 0.14506 0.0
O508 O 0.75609 0.32277 0.26509 0.0
Mg509 Mg 0.65253 0.34588 0.20096 0.0
O510 O 0.64866 0.27241 0.23363 0.0
O511 O 0.68798 0.33822 0.12505 0.0
O512 O 0.69993 0.38812 0.25316 0.0
O513 O 0.57946 0.31986 0.22241 0.0
C514 C 0.72115 0.11859 0.19696 0.0
C515 C 0.7389 0.18418 0.35433 0.0
C516 C 0.8584 0.21821 0.22448 0.0
C517 C 0.72491 0.30799 0.11259 0.0
C518 C 0.7417 0.3703 0.27136 0.0
C519 C 0.60078 0.27762 0.24111 0.0
O520 O 0.76495 0.10432 0.21283 0.0
O521 O 0.70326 0.16497 0.20367 0.0
O522 O 0.93166 0.35125 0.5391 0.0
Mg523 Mg 0.89682 0.42601 0.55912 0.0
O524 O -0.00648 0.38284 0.48837 0.0
Mg525 Mg -0.0161 0.47137 0.47019 0.0
O526 O 0.90496 0.47295 0.49438 0.0
O527 O 0.8301 0.46665 0.52908 0.0
O528 O 0.97859 0.56029 0.44858 0.0
O529 O 0.95878 0.45339 0.38594 0.0
Mg530 Mg 0.07044 0.49634 0.3715 0.0
O531 O 0.06137 0.46892 0.44595 0.0
O532 O 0.03373 0.57176 0.38098 0.0
O533 O 0.02128 0.44711 0.32612 0.0
O534 O 0.13753 0.4694 0.41517 0.0
C535 C -0.0114 0.48514 0.60303 0.0
C536 C 0.97268 0.34482 0.51291 0.0
C537 C 0.85948 0.49014 0.49583 0.0
C538 C -0.00085 0.58894 0.41242 0.0
C539 C 0.97501 0.44248 0.33932 0.0
C540 C 0.10748 0.45741 0.45367 0.0
O541 O 0.9455 0.46559 0.61288 0.0
O542 O 0.0073 0.48856 0.55595 0.0
O543 O 0.69393 0.86297 0.26613 0.0
Mg544 Mg 0.67418 0.7863 0.29223 0.0
O545 O 0.73874 0.83525 0.19614 0.0
Mg546 Mg 0.76819 0.75045 0.21022 0.0
O547 O 0.73847 0.74296 0.29367 0.0
O548 O 0.69186 0.74855 0.36601 0.0
O549 O 0.80105 0.66675 0.22322 0.0
O550 O 0.84227 0.78153 0.24578 0.0
Mg551 Mg 0.87232 0.73532 0.13523 0.0
O552 O 0.79847 0.75557 0.12716 0.0
O553 O 0.87289 0.66203 0.17574 0.0
O554 O 0.90406 0.79145 0.18614 0.0
O555 O 0.84796 0.75159 0.05658 0.0
C556 C 0.64461 0.72475 0.19069 0.0
C557 C 0.71467 0.87134 0.22091 0.0
C558 C 0.73061 0.72805 0.34223 0.0
C559 C 0.84215 0.64319 0.20977 0.0
C560 C 0.88655 0.79648 0.23322 0.0
C561 C 0.80438 0.76325 0.07675 0.0
O562 O 0.63067 0.7478 0.23342 0.0
O563 O 0.69124 0.7204 0.17664 0.0
O564 O 0.79784 0.21072 0.87801 0.0
Mg565 Mg 0.76248 0.14557 0.8381 0.0
O566 O 0.77537 0.2728 0.81832 0.0
Mg567 Mg 0.75038 0.23893 0.73797 0.0
O568 O 0.77603 0.16033 0.76097 0.0
O569 O 0.80039 0.08404 0.79022 0.0
O570 O 0.72312 0.20577 0.65773 0.0
O571 O 0.82981 0.24781 0.69889 0.0
Mg572 Mg 0.74687 0.32953 0.63764 0.0
O573 O 0.72566 0.31866 0.71418 0.0
O574 O 0.70632 0.26992 0.59806 0.0
O575 O 0.82561 0.30979 0.63508 0.0
O576 O 0.70938 0.3944 0.67541 0.0
C577 C 0.65505 0.197 0.81605 0.0
C578 C 0.79201 0.25902 0.86425 0.0
C579 C 0.79797 0.11652 0.75075 0.0
C580 C 0.70698 0.22164 0.61217 0.0
C581 C 0.84998 0.27424 0.66099 0.0
C582 C 0.70411 0.36398 0.71645 0.0
O583 O 0.6823 0.16211 0.84002 0.0
O584 O 0.67227 0.22675 0.77878 0.0
O585 O 0.7821 0.73422 0.59652 0.0
Mg586 Mg 0.74646 0.80528 0.62155 0.0
O587 O 0.752 0.68841 0.66552 0.0
Mg588 Mg 0.72898 0.74433 0.73708 0.0
O589 O 0.76172 0.81778 0.69946 0.0
O590 O 0.78266 0.87594 0.63749 0.0
O591 O 0.70764 0.80154 0.80766 0.0
O592 O 0.8077 0.73117 0.77984 0.0
Mg593 Mg 0.71148 0.69026 0.85066 0.0
O594 O 0.69372 0.66971 0.77485 0.0
O595 O 0.67463 0.7591 0.87671 0.0
O596 O 0.79106 0.69233 0.85807 0.0
O597 O 0.67354 0.62064 0.84592 0.0
C598 C 0.63641 0.77965 0.64856 0.0
C599 C 0.77152 0.69049 0.61856 0.0
C600 C 0.78195 0.86216 0.6872 0.0
C601 C 0.68778 0.80163 0.85435 0.0
C602 C 0.82206 0.7126 0.82521 0.0
C603 C 0.67369 0.62745 0.79472 0.0
O604 O 0.66716 0.80125 0.61637 0.0
O605 O 0.65073 0.75903 0.69322 0.0
O606 O 0.62433 0.48743 0.47274 0.0
Mg607 Mg 0.58606 0.42042 0.50192 0.0
O608 O 0.55856 0.54363 0.47332 0.0
Mg609 Mg 0.48383 0.4979 0.49173 0.0
O610 O 0.51721 0.41914 0.46623 0.0
O611 O 0.57052 0.35234 0.45756 0.0
O612 O 0.40882 0.45275 0.50948 0.0
O613 O 0.45851 0.50899 0.40382 0.0
Mg614 Mg 0.38261 0.57528 0.47781 0.0
O615 O 0.44965 0.57602 0.51712 0.0
O616 O 0.34274 0.50831 0.5026 0.0
O617 O 0.39759 0.57028 0.39541 0.0
O618 O 0.39451 0.64177 0.52419 0.0
C619 C 0.54322 0.46101 0.60693 0.0
C620 C 0.60589 0.5338 0.46805 0.0
C621 C 0.52709 0.37329 0.44655 0.0
C622 C 0.36119 0.46243 0.51043 0.0
C623 C 0.42791 0.53655 0.37536 0.0
C624 C 0.43798 0.62155 0.53641 0.0
O625 O 0.57439 0.42908 0.58517 0.0
O626 O 0.50988 0.48675 0.58007 0.0
O627 O 0.04927 0.43532 0.86503 0.0
Mg628 Mg 0.06178 0.39782 0.9422 0.0
O629 O 0.00839 0.50836 0.89134 0.0
Mg630 Mg -0.01746 0.50022 -0.02168 0.0
O631 O -0.00165 0.41517 -0.01841 0.0
O632 O 0.02497 0.33396 -0.01529 0.0
O633 O 0.95807 0.49199 0.06711 0.0
O634 O 0.90385 0.4793 0.94956 0.0
Mg635 Mg 0.89366 0.58635 0.00841 0.0
O636 O 0.96475 0.58753 0.97453 0.0
O637 O 0.89889 0.5526 0.08582 0.0
O638 O 0.84488 0.54158 0.95955 0.0
O639 O 0.9208 0.66089 -0.01222 0.0
C640 C 0.10663 0.49064 0.00475 0.0
C641 C 0.03122 0.48151 0.85565 0.0
C642 C -0.0064 0.36916 0.00187 0.0
C643 C 0.92661 0.51343 0.0993 0.0
C644 C 0.85889 0.49643 0.94319 0.0
C645 C 0.96057 0.63788 0.96853 0.0
O646 O 0.11277 0.44429 -0.01346 0.0
O647 O 0.06439 0.51603 0.00336 0.0
loop_
_geom_bond_atom_site_label_1
_geom_bond_atom_site_label_2
_geom_bond_distance
_geom_bond_site_symmetry_2
_ccdc_geom_bond_type
C0 O1 1.160 . S
C0 O7 1.185 . S
O1 C0 1.160 . S
O2 Zn3 1.900 . S
O2 C10 1.284 1_655 S
Zn3 O2 1.900 . S
Zn3 O4 2.034 . S
Zn3 O7 2.093 . S
Zn3 O12 1.970 1_655 S
O4 Zn3 2.034 . S
O4 C8 1.278 1_655 S
C5 O6 1.203 . S
C5 O12 1.267 . S
O6 C5 1.203 . S
O7 C0 1.185 . S
O7 Zn3 2.093 . S
C8 O4 1.278 1_455 S
C8 O9 1.211 . S
O9 C8 1.211 . S
C10 O2 1.284 1_455 S
C10 O11 1.273 . S
O11 C10 1.273 . S
O12 Zn3 1.970 1_455 S
O12 C5 1.267 . S
C13 O14 1.160 . S
C13 O20 1.185 . S
O14 C13 1.160 . S
O15 Zn16 1.899 . S
O15 C23 1.284 1_455 S
Zn16 O15 1.899 . S
Zn16 O17 2.032 . S
Zn16 O20 2.086 . S
Zn16 O25 1.977 1_455 S
O17 Zn16 2.032 . S
O17 C21 1.278 1_455 S
C18 O19 1.203 . S
C18 O25 1.267 . S
O19 C18 1.203 . S
O20 C13 1.185 . S
O20 Zn16 2.086 . S
C21 O17 1.278 1_655 S
C21 O22 1.211 . S
O22 C21 1.211 . S
C23 O15 1.284 1_655 S
C23 O24 1.273 . S
O24 C23 1.273 . S
O25 Zn16 1.977 1_655 S
O25 C18 1.267 . S
C26 O27 1.160 . S
C26 O33 1.185 . S
O27 C26 1.160 . S
O28 Zn29 1.899 . S
O28 C36 1.284 . S
Zn29 O28 1.899 . S
Zn29 O30 2.032 . S
Zn29 O33 2.086 . S
Zn29 O38 1.977 . S
O30 Zn29 2.032 . S
O30 C34 1.278 . S
C31 O32 1.203 . S
C31 O38 1.267 . S
O32 C31 1.203 . S
O33 C26 1.185 . S
O33 Zn29 2.086 . S
C34 O30 1.278 . S
C34 O35 1.211 . S
O35 C34 1.211 . S
C36 O28 1.284 . S
C36 O37 1.273 . S
O37 C36 1.273 . S
O38 Zn29 1.977 . S
O38 C31 1.267 . S
C39 O40 1.160 . S
C39 O46 1.185 . S
O40 C39 1.160 . S
O41 Zn42 1.899 . S
O41 C49 1.284 . S
Zn42 O41 1.899 . S
Zn42 O43 2.032 . S
Zn42 O46 2.086 . S
Zn42 O51 1.977 . S
O43 Zn42 2.032 . S
O43 C47 1.278 . S
C44 O45 1.203 . S
C44 O51 1.267 . S
O45 C44 1.203 . S
O46 C39 1.185 . S
O46 Zn42 2.086 . S
C47 O43 1.278 . S
C47 O48 1.211 . S
O48 C47 1.211 . S
C49 O41 1.284 . S
C49 O50 1.273 . S
O50 C49 1.273 . S
O51 Zn42 1.977 . S
O51 C44 1.267 . S
C52 O53 1.160 . S
C52 O59 1.185 . S
O53 C52 1.160 . S
O54 Zn55 1.899 1_565 S
O54 C62 1.284 1_565 S
Zn55 O54 1.899 1_545 S
Zn55 O56 2.032 1_545 S
Zn55 O59 2.086 1_545 S
Zn55 O64 1.977 . S
O56 Zn55 2.032 1_565 S
O56 C60 1.278 1_565 S
C57 O58 1.203 . S
C57 O64 1.267 . S
O58 C57 1.203 . S
O59 C52 1.185 . S
O59 Zn55 2.086 1_565 S
C60 O56 1.278 1_545 S
C60 O61 1.211 . S
O61 C60 1.211 . S
C62 O54 1.284 1_545 S
C62 O63 1.273 . S
O63 C62 1.273 . S
O64 Zn55 1.977 . S
O64 C57 1.267 . S
C65 O66 1.160 . S
C65 O72 1.185 . S
O66 C65 1.160 . S
O67 Zn68 1.899 . S
O67 C75 1.284 . S
Zn68 O67 1.899 . S
Zn68 O69 2.032 . S
Zn68 O72 2.086 . S
Zn68 O77 1.977 . S
O69 Zn68 2.032 . S
O69 C73 1.278 . S
C70 O71 1.203 . S
C70 O77 1.267 . S
O71 C70 1.203 . S
O72 C65 1.185 . S
O72 Zn68 2.086 . S
C73 O69 1.278 . S
C73 O74 1.211 . S
O74 C73 1.211 . S
C75 O67 1.284 . S
C75 O76 1.273 . S
O76 C75 1.273 . S
O77 Zn68 1.977 . S
O77 C70 1.267 . S
C78 O79 1.160 . S
C78 O85 1.185 . S
O79 C78 1.160 . S
O80 Zn81 1.899 . S
O80 C88 1.288 . S
Zn81 O80 1.899 . S
Zn81 O82 2.032 . S
Zn81 O85 2.086 . S
Zn81 O90 1.977 1_545 S
O82 Zn81 2.032 . S
O82 C86 1.278 1_545 S
C83 O84 1.203 . S
C83 O90 1.267 . S
O84 C83 1.203 . S
O85 C78 1.185 . S
O85 Zn81 2.086 . S
C86 O82 1.278 1_565 S
C86 O87 1.211 . S
O87 C86 1.211 . S
C88 O80 1.288 . S
C88 O89 1.268 1_545 S
O89 C88 1.268 1_565 S
O90 Zn81 1.977 1_565 S
O90 C83 1.267 . S
C91 O92 1.160 . S
C91 O98 1.184 1_554 S
O92 C91 1.160 . S
O93 Zn94 1.899 . S
O93 C101 1.284 . S
Zn94 O93 1.899 . S
Zn94 O95 2.032 1_554 S
Zn94 O98 2.086 1_554 S
Zn94 O103 1.977 1_554 S
O95 Zn94 2.032 1_556 S
O95 C99 1.278 . S
C96 O97 1.203 . S
C96 O103 1.267 1_554 S
O97 C96 1.203 . S
O98 C91 1.184 1_556 S
O98 Zn94 2.086 1_556 S
C99 O95 1.278 . S
C99 O100 1.211 . S
O100 C99 1.211 . S
C101 O93 1.284 . S
C101 O102 1.273 . S
O102 C101 1.273 . S
O103 Zn94 1.977 1_556 S
O103 C96 1.267 1_556 S
C104 O105 1.160 . S
C104 O111 1.185 1_554 S
O105 C104 1.160 . S
O106 Zn107 1.899 . S
O106 C114 1.284 . S
Zn107 O106 1.899 . S
Zn107 O108 2.032 1_554 S
Zn107 O111 2.086 1_554 S
Zn107 O116 1.977 1_554 S
O108 Zn107 2.032 1_556 S
O108 C112 1.278 . S
C109 O110 1.203 . S
C109 O116 1.267 1_554 S
O110 C109 1.203 . S
O111 C104 1.185 1_556 S
O111 Zn107 2.086 1_556 S
C112 O108 1.278 . S
C112 O113 1.211 . S
O113 C112 1.211 . S
C114 O106 1.284 . S
C114 O115 1.273 . S
O115 C114 1.273 . S
O116 Zn107 1.977 1_556 S
O116 C109 1.267 1_556 S
C117 O118 1.160 . S
C117 O124 1.185 . S
O118 C117 1.160 . S
O119 Zn120 1.899 . S
O119 C127 1.284 . S
Zn120 O119 1.899 . S
Zn120 O121 2.032 . S
Zn120 O124 2.086 . S
Zn120 O129 1.977 . S
O121 Zn120 2.032 . S
O121 C125 1.278 . S
C122 O123 1.203 . S
C122 O129 1.267 . S
O123 C122 1.203 . S
O124 C117 1.185 . S
O124 Zn120 2.086 . S
C125 O121 1.278 . S
C125 O126 1.211 . S
O126 C125 1.211 . S
C127 O119 1.284 . S
C127 O128 1.273 . S
O128 C127 1.273 . S
O129 Zn120 1.977 . S
O129 C122 1.267 . S
C130 O131 1.160 . S
C130 O137 1.185 . S
O131 C130 1.160 . S
O132 Zn133 1.899 . S
O132 C140 1.284 . S
Zn133 O132 1.899 . S
Zn133 O134 2.032 . S
Zn133 O137 2.086 . S
Zn133 O142 1.977 . S
O134 Zn133 2.032 . S
O134 C138 1.278 . S
C135 O136 1.203 . S
C135 O142 1.267 . S
O136 C135 1.203 . S
O137 C130 1.185 . S
O137 Zn133 2.086 . S
C138 O134 1.278 . S
C138 O139 1.211 . S
O139 C138 1.211 . S
C140 O132 1.284 . S
C140 O141 1.273 . S
O141 C140 1.273 . S
O142 Zn133 1.977 . S
O142 C135 1.267 . S
C143 O144 1.160 . S
C143 O150 1.185 . S
O144 C143 1.160 . S
O145 Zn146 1.899 . S
O145 C153 1.284 . S
Zn146 O145 1.899 . S
Zn146 O147 2.032 . S
Zn146 O150 2.086 . S
Zn146 O155 1.977 . S
O147 Zn146 2.032 . S
O147 C151 1.278 . S
C148 O149 1.203 . S
C148 O155 1.267 . S
O149 C148 1.203 . S
O150 C143 1.185 . S
O150 Zn146 2.086 . S
C151 O147 1.278 . S
C151 O152 1.211 . S
O152 C151 1.211 . S
C153 O145 1.284 . S
C153 O154 1.273 . S
O154 C153 1.273 . S
O155 Zn146 1.977 . S
O155 C148 1.267 . S
C156 O157 1.160 . S
C156 O163 1.185 . S
O157 C156 1.160 . S
O158 Zn159 1.899 . S
O158 C166 1.284 . S
Zn159 O158 1.899 . S
Zn159 O160 2.032 . S
Zn159 O163 2.086 . S
Zn159 O168 1.977 1_455 S
O160 Zn159 2.032 . S
O160 C164 1.269 1_455 S
C161 O162 1.203 . S
C161 O168 1.267 . S
O162 C161 1.203 . S
O163 C156 1.185 . S
O163 Zn159 2.086 . S
C164 O160 1.269 1_655 S
C164 O165 1.223 . S
O165 C164 1.223 . S
C166 O158 1.284 . S
C166 O167 1.273 1_455 S
O167 C166 1.273 1_655 S
O168 Zn159 1.977 1_655 S
O168 C161 1.267 . S
C169 O170 1.160 . S
C169 O176 1.185 . S
O170 C169 1.160 . S
O171 Zn172 1.899 1_655 S
O171 C179 1.280 1_655 S
Zn172 O171 1.899 1_455 S
Zn172 O173 2.032 1_455 S
Zn172 O176 2.086 1_455 S
Zn172 O181 1.977 . S
O173 Zn172 2.032 1_655 S
O173 C177 1.278 1_655 S
C174 O175 1.203 . S
C174 O181 1.267 . S
O175 C174 1.203 . S
O176 C169 1.185 . S
O176 Zn172 2.086 1_655 S
C177 O173 1.278 1_455 S
C177 O178 1.211 . S
O178 C177 1.211 . S
C179 O171 1.280 1_455 S
C179 O180 1.273 . S
O180 C179 1.273 . S
O181 Zn172 1.977 . S
O181 C174 1.267 . S
C182 O183 1.160 . S
C182 O189 1.185 . S
O183 C182 1.160 . S
O184 Zn185 1.899 . S
O184 C192 1.284 . S
Zn185 O184 1.899 . S
Zn185 O186 2.032 . S
Zn185 O189 2.086 . S
Zn185 O194 1.977 . S
O186 Zn185 2.032 . S
O186 C190 1.278 . S
C187 O188 1.203 . S
C187 O194 1.267 . S
O188 C187 1.203 . S
O189 C182 1.185 . S
O189 Zn185 2.086 . S
C190 O186 1.278 . S
C190 O191 1.211 . S
O191 C190 1.211 . S
C192 O184 1.284 . S
C192 O193 1.273 . S
O193 C192 1.273 . S
O194 Zn185 1.977 . S
O194 C187 1.267 . S
C195 O196 1.160 . S
C195 O202 1.185 . S
O196 C195 1.160 . S
O197 Zn198 1.899 . S
O197 C205 1.284 . S
Zn198 O197 1.899 . S
Zn198 O199 2.032 . S
Zn198 O202 2.086 . S
Zn198 O207 1.977 . S
O199 Zn198 2.032 . S
O199 C203 1.278 . S
C200 O201 1.203 . S
C200 O207 1.267 . S
O201 C200 1.203 . S
O202 C195 1.185 . S
O202 Zn198 2.086 . S
C203 O199 1.278 . S
C203 O204 1.211 . S
O204 C203 1.211 . S
C205 O197 1.284 . S
C205 O206 1.273 . S
O206 C205 1.273 . S
O207 Zn198 1.977 . S
O207 C200 1.267 . S
C208 O209 1.160 . S
C208 O215 1.185 . S
O209 C208 1.160 . S
O210 Zn211 1.899 . S
O210 C218 1.284 1_545 S
Zn211 O210 1.899 . S
Zn211 O212 2.032 . S
Zn211 O215 2.086 . S
Zn211 O220 1.977 1_545 S
O212 Zn211 2.032 . S
O212 C216 1.278 1_545 S
C213 O214 1.203 . S
C213 O220 1.267 . S
O214 C213 1.203 . S
O215 C208 1.185 . S
O215 Zn211 2.086 . S
C216 O212 1.278 1_565 S
C216 O217 1.211 . S
O217 C216 1.211 . S
C218 O210 1.284 1_565 S
C218 O219 1.273 . S
O219 C218 1.273 . S
O220 Zn211 1.977 1_565 S
O220 C213 1.267 . S
C221 O222 1.160 . S
C221 O228 1.185 . S
O222 C221 1.160 . S
O223 Zn224 1.899 . S
O223 C231 1.284 . S
Zn224 O223 1.899 . S
Zn224 O225 2.032 . S
Zn224 O228 2.086 . S
Zn224 O233 1.977 . S
O225 Zn224 2.032 . S
O225 C229 1.278 . S
C226 O227 1.203 . S
C226 O233 1.267 . S
O227 C226 1.203 . S
O228 C221 1.185 . S
O228 Zn224 2.086 . S
C229 O225 1.278 . S
C229 O230 1.211 . S
O230 C229 1.211 . S
C231 O223 1.284 . S
C231 O232 1.273 . S
O232 C231 1.273 . S
O233 Zn224 1.977 . S
O233 C226 1.267 . S
C234 O235 1.160 . S
C234 O241 1.185 . S
O235 C234 1.160 . S
O236 Zn237 1.899 1_565 S
O236 C244 1.284 1_565 S
Zn237 O236 1.899 1_545 S
Zn237 O238 2.030 1_545 S
Zn237 O241 2.082 1_545 S
Zn237 O246 1.982 . S
O238 Zn237 2.030 1_565 S
O238 C242 1.278 1_565 S
C239 O240 1.203 . S
C239 O246 1.267 . S
O240 C239 1.203 . S
O241 C234 1.185 . S
O241 Zn237 2.082 1_565 S
C242 O238 1.278 1_545 S
C242 O243 1.211 . S
O243 C242 1.211 . S
C244 O236 1.284 1_545 S
C244 O245 1.273 . S
O245 C244 1.273 . S
O246 Zn237 1.982 . S
O246 C239 1.267 . S
C247 O248 1.160 . S
C247 O254 1.185 . S
O248 C247 1.160 . S
O249 Zn250 1.899 . S
O249 C257 1.284 . S
Zn250 O249 1.899 . S
Zn250 O251 2.032 1_554 S
Zn250 O254 2.086 . S
Zn250 O259 1.977 . S
O251 Zn250 2.032 1_556 S
O251 C255 1.278 . S
C252 O253 1.203 . S
C252 O259 1.267 . S
O253 C252 1.203 . S
O254 C247 1.185 . S
O254 Zn250 2.086 . S
C255 O251 1.278 . S
C255 O256 1.211 . S
O256 C255 1.211 . S
C257 O249 1.284 . S
C257 O258 1.273 . S
O258 C257 1.273 . S
O259 Zn250 1.977 . S
O259 C252 1.267 . S
C260 O261 1.160 . S
C260 O267 1.185 1_554 S
O261 C260 1.160 . S
O262 Zn263 1.899 . S
O262 C270 1.284 . S
Zn263 O262 1.899 . S
Zn263 O264 2.032 1_554 S
Zn263 O267 2.086 1_554 S
Zn263 O272 1.977 1_554 S
O264 Zn263 2.032 1_556 S
O264 C268 1.278 . S
C265 O266 1.203 . S
C265 O272 1.267 1_554 S
O266 C265 1.203 . S
O267 C260 1.185 1_556 S
O267 Zn263 2.086 1_556 S
C268 O264 1.278 . S
C268 O269 1.211 . S
O269 C268 1.211 . S
C270 O262 1.284 . S
C270 O271 1.273 . S
O271 C270 1.273 . S
O272 Zn263 1.977 1_556 S
O272 C265 1.267 1_556 S
C273 O274 1.160 . S
C273 O280 1.185 . S
O274 C273 1.160 . S
O275 Zn276 1.899 . S
O275 C283 1.284 . S
Zn276 O275 1.899 . S
Zn276 O277 2.032 . S
Zn276 O280 2.086 . S
Zn276 O285 1.977 . S
O277 Zn276 2.032 . S
O277 C281 1.278 . S
C278 O279 1.203 . S
C278 O285 1.267 . S
O279 C278 1.203 . S
O280 C273 1.185 . S
O280 Zn276 2.086 . S
C281 O277 1.278 . S
C281 O282 1.211 . S
O282 C281 1.211 . S
C283 O275 1.284 . S
C283 O284 1.273 . S
O284 C283 1.273 . S
O285 Zn276 1.977 . S
O285 C278 1.267 . S
C286 O287 1.160 . S
C286 O293 1.185 . S
O287 C286 1.160 . S
O288 Zn289 1.899 . S
O288 C296 1.284 . S
Zn289 O288 1.899 . S
Zn289 O290 2.032 . S
Zn289 O293 2.086 . S
Zn289 O298 1.977 . S
O290 Zn289 2.032 . S
O290 C294 1.278 . S
C291 O292 1.203 . S
C291 O298 1.267 . S
O292 C291 1.203 . S
O293 C286 1.185 . S
O293 Zn289 2.086 . S
C294 O290 1.278 . S
C294 O295 1.211 . S
O295 C294 1.211 . S
C296 O288 1.284 . S
C296 O297 1.273 . S
O297 C296 1.273 . S
O298 Zn289 1.977 . S
O298 C291 1.267 . S
C299 O300 1.160 . S
C299 O306 1.185 . S
O300 C299 1.160 . S
O301 Zn302 1.899 . S
O301 C309 1.284 . S
Zn302 O301 1.899 . S
Zn302 O303 2.032 . S
Zn302 O306 2.086 . S
Zn302 O311 1.977 . S
O303 Zn302 2.032 . S
O303 C307 1.278 . S
C304 O305 1.203 . S
C304 O311 1.267 . S
O305 C304 1.203 . S
O306 C299 1.185 . S
O306 Zn302 2.086 . S
C307 O303 1.278 . S
C307 O308 1.211 . S
O308 C307 1.211 . S
C309 O301 1.284 . S
C309 O310 1.273 . S
O310 C309 1.273 . S
O311 Zn302 1.977 . S
O311 C304 1.267 . S
O312 Mg313 1.990 . S
O312 C326 1.253 . S
Mg313 O312 1.990 . S
Mg313 O316 2.180 1_556 S
Mg313 O317 2.117 1_556 S
Mg313 O331 2.030 . S
O314 Mg315 2.072 1_656 S
O314 C326 1.260 . S
Mg315 O314 2.072 1_454 S
Mg315 O316 2.099 1_455 S
Mg315 O318 2.079 1_545 S
Mg315 O319 2.072 1_554 S
Mg315 O321 2.099 1_544 S
Mg315 O332 2.079 1_445 S
O316 Mg313 2.180 1_554 S
O316 Mg315 2.099 1_655 S
O316 C327 1.279 . S
O317 Mg313 2.117 1_554 S
O317 C327 1.250 . S
O318 Mg315 2.079 1_565 S
O318 C328 1.264 . S
O319 Mg315 2.072 1_556 S
O319 C329 1.260 . S
Mg320 O321 2.180 1_554 S
Mg320 O322 2.030 . S
Mg320 O323 1.990 1_554 S
Mg320 O324 2.117 1_554 S
O321 Mg315 2.099 1_566 S
O321 Mg320 2.180 1_556 S
O321 C330 1.279 . S
O322 Mg320 2.030 . S
O322 C328 1.248 . S
O323 Mg320 1.990 1_556 S
O323 C329 1.253 1_565 S
O324 Mg320 2.117 1_556 S
O324 C330 1.250 . S
C325 O331 1.248 1_564 S
C325 O332 1.264 . S
C326 O312 1.253 . S
C326 O314 1.260 . S
C327 O316 1.279 . S
C327 O317 1.250 . S
C328 O318 1.264 . S
C328 O322 1.248 . S
C329 O319 1.260 . S
C329 O323 1.253 1_545 S
C330 O321 1.279 . S
C330 O324 1.250 . S
O331 Mg313 2.030 . S
O331 C325 1.248 1_546 S
O332 Mg315 2.079 1_665 S
O332 C325 1.264 . S
O333 Mg334 1.990 . S
O333 C347 1.253 . S
Mg334 O333 1.990 . S
Mg334 O337 2.180 . S
Mg334 O338 2.117 . S
Mg334 O352 2.030 . S
O335 Mg336 2.072 . S
O335 C347 1.260 . S
Mg336 O335 2.072 . S
Mg336 O337 2.099 . S
Mg336 O339 2.079 . S
Mg336 O340 2.072 . S
Mg336 O342 2.099 . S
Mg336 O353 2.079 . S
O337 Mg334 2.180 . S
O337 Mg336 2.099 . S
O337 C348 1.279 . S
O338 Mg334 2.117 . S
O338 C348 1.250 . S
O339 Mg336 2.079 . S
O339 C349 1.264 . S
O340 Mg336 2.072 . S
O340 C350 1.260 . S
Mg341 O342 2.180 . S
Mg341 O343 2.030 . S
Mg341 O344 1.990 . S
Mg341 O345 2.117 . S
O342 Mg336 2.099 . S
O342 Mg341 2.180 . S
O342 C351 1.279 . S
O343 Mg341 2.030 . S
O343 C349 1.248 . S
O344 Mg341 1.990 . S
O344 C350 1.253 . S
O345 Mg341 2.117 . S
O345 C351 1.250 . S
C346 O352 1.248 . S
C346 O353 1.264 . S
C347 O333 1.253 . S
C347 O335 1.260 . S
C348 O337 1.279 . S
C348 O338 1.250 . S
C349 O339 1.264 . S
C349 O343 1.248 . S
C350 O340 1.260 . S
C350 O344 1.253 . S
C351 O342 1.279 . S
C351 O345 1.250 . S
O352 Mg334 2.030 . S
O352 C346 1.248 . S
O353 Mg336 2.079 . S
O353 C346 1.264 . S
O354 Mg355 1.990 . S
O354 C368 1.253 . S
Mg355 O354 1.990 . S
Mg355 O358 2.180 . S
Mg355 O359 2.117 . S
Mg355 O373 2.029 1_565 S
O356 Mg357 2.072 . S
O356 C368 1.260 1_545 S
Mg357 O356 2.072 . S
Mg357 O358 2.099 1_545 S
Mg357 O360 2.079 . S
Mg357 O361 2.072 1_545 S
Mg357 O363 2.099 . S
Mg357 O374 2.079 . S
O358 Mg355 2.180 . S
O358 Mg357 2.099 1_565 S
O358 C369 1.279 . S
O359 Mg355 2.117 . S
O359 C369 1.250 . S
O360 Mg357 2.079 . S
O360 C370 1.264 . S
O361 Mg357 2.072 1_565 S
O361 C371 1.260 . S
Mg362 O363 2.180 . S
Mg362 O364 2.030 . S
Mg362 O365 1.990 . S
Mg362 O366 2.117 . S
O363 Mg357 2.099 . S
O363 Mg362 2.180 . S
O363 C372 1.279 . S
O364 Mg362 2.030 . S
O364 C370 1.248 . S
O365 Mg362 1.990 . S
O365 C371 1.253 1_545 S
O366 Mg362 2.117 . S
O366 C372 1.250 . S
C367 O373 1.248 . S
C367 O374 1.264 . S
C368 O354 1.253 . S
C368 O356 1.260 1_565 S
C369 O358 1.279 . S
C369 O359 1.250 . S
C370 O360 1.264 . S
C370 O364 1.248 . S
C371 O361 1.260 . S
C371 O365 1.253 1_565 S
C372 O363 1.279 . S
C372 O366 1.250 . S
O373 Mg355 2.029 1_545 S
O373 C367 1.248 . S
O374 Mg357 2.079 . S
O374 C367 1.264 . S
O375 Mg376 1.990 . S
O375 C389 1.253 . S
Mg376 O375 1.990 . S
Mg376 O379 2.180 . S
Mg376 O380 2.117 . S
Mg376 O394 2.030 . S
O377 Mg378 2.072 . S
O377 C389 1.260 . S
Mg378 O377 2.072 . S
Mg378 O379 2.099 . S
Mg378 O381 2.079 . S
Mg378 O382 2.072 . S
Mg378 O384 2.099 . S
Mg378 O395 2.079 . S
O379 Mg376 2.180 . S
O379 Mg378 2.099 . S
O379 C390 1.279 . S
O380 Mg376 2.117 . S
O380 C390 1.250 . S
O381 Mg378 2.079 . S
O381 C391 1.264 . S
O382 Mg378 2.072 . S
O382 C392 1.260 . S
Mg383 O384 2.180 . S
Mg383 O385 2.030 . S
Mg383 O386 1.990 . S
Mg383 O387 2.117 . S
O384 Mg378 2.099 . S
O384 Mg383 2.180 . S
O384 C393 1.279 . S
O385 Mg383 2.030 . S
O385 C391 1.248 . S
O386 Mg383 1.990 . S
O386 C392 1.253 . S
O387 Mg383 2.117 . S
O387 C393 1.250 . S
C388 O394 1.248 . S
C388 O395 1.264 . S
C389 O375 1.253 . S
C389 O377 1.260 . S
C390 O379 1.279 . S
C390 O380 1.250 . S
C391 O381 1.264 . S
C391 O385 1.248 . S
C392 O382 1.260 . S
C392 O386 1.253 . S
C393 O384 1.279 . S
C393 O387 1.250 . S
O394 Mg376 2.030 . S
O394 C388 1.248 . S
O395 Mg378 2.079 . S
O395 C388 1.264 . S
O396 Mg397 1.990 1_655 S
O396 C410 1.253 . S
Mg397 O396 1.990 1_455 S
Mg397 O400 2.180 1_455 S
Mg397 O401 2.117 1_455 S
Mg397 O415 2.030 . S
O398 Mg399 2.075 1_565 S
O398 C410 1.258 1_455 S
Mg399 O398 2.075 1_545 S
Mg399 O400 2.099 1_445 S
Mg399 O402 2.079 . S
Mg399 O403 2.072 1_455 S
Mg399 O405 2.099 . S
Mg399 O416 2.079 1_545 S
O400 Mg397 2.180 1_655 S
O400 Mg399 2.099 1_665 S
O400 C411 1.279 . S
O401 Mg397 2.117 1_655 S
O401 C411 1.250 . S
O402 Mg399 2.079 . S
O402 C412 1.264 . S
O403 Mg399 2.072 1_655 S
O403 C413 1.260 . S
Mg404 O405 2.180 1_655 S
Mg404 O406 2.031 . S
Mg404 O407 1.990 . S
Mg404 O408 2.117 1_655 S
O405 Mg399 2.099 . S
O405 Mg404 2.180 1_455 S
O405 C414 1.279 . S
O406 Mg404 2.031 . S
O406 C412 1.241 1_655 S
O407 Mg404 1.990 . S
O407 C413 1.253 . S
O408 Mg404 2.117 1_455 S
O408 C414 1.250 . S
C409 O415 1.248 . S
C409 O416 1.264 . S
C410 O396 1.253 . S
C410 O398 1.258 1_655 S
C411 O400 1.279 . S
C411 O401 1.250 . S
C412 O402 1.264 . S
C412 O406 1.241 1_455 S
C413 O403 1.260 . S
C413 O407 1.253 . S
C414 O405 1.279 . S
C414 O408 1.250 . S
O415 Mg397 2.030 . S
O415 C409 1.248 . S
O416 Mg399 2.079 1_565 S
O416 C409 1.264 . S
O417 Mg418 1.990 . S
O417 C431 1.253 . S
Mg418 O417 1.990 . S
Mg418 O421 2.180 . S
Mg418 O422 2.117 . S
Mg418 O436 2.030 . S
O419 Mg420 2.072 . S
O419 C431 1.260 . S
Mg420 O419 2.072 . S
Mg420 O421 2.099 . S
Mg420 O423 2.079 . S
Mg420 O424 2.072 . S
Mg420 O426 2.099 . S
Mg420 O437 2.079 . S
O421 Mg418 2.180 . S
O421 Mg420 2.099 . S
O421 C432 1.279 . S
O422 Mg418 2.117 . S
O422 C432 1.250 . S
O423 Mg420 2.079 . S
O423 C433 1.264 . S
O424 Mg420 2.072 . S
O424 C434 1.260 . S
Mg425 O426 2.180 . S
Mg425 O427 2.030 . S
Mg425 O428 1.990 . S
Mg425 O429 2.117 . S
O426 Mg420 2.099 . S
O426 Mg425 2.180 . S
O426 C435 1.279 . S
O427 Mg425 2.030 . S
O427 C433 1.248 . S
O428 Mg425 1.990 . S
O428 C434 1.253 . S
O429 Mg425 2.117 . S
O429 C435 1.250 . S
C430 O436 1.248 . S
C430 O437 1.264 . S
C431 O417 1.253 . S
C431 O419 1.260 . S
C432 O421 1.279 . S
C432 O422 1.250 . S
C433 O423 1.264 . S
C433 O427 1.248 . S
C434 O424 1.260 . S
C434 O428 1.253 . S
C435 O426 1.279 . S
C435 O429 1.250 . S
O436 Mg418 2.030 . S
O436 C430 1.248 . S
O437 Mg420 2.079 . S
O437 C430 1.264 . S
O438 Mg439 1.990 . S
O438 C452 1.253 . S
Mg439 O438 1.990 . S
Mg439 O442 2.180 1_565 S
Mg439 O443 2.117 1_565 S
Mg439 O457 2.030 . S
O440 Mg441 2.072 1_565 S
O440 C452 1.260 . S
Mg441 O440 2.072 1_545 S
Mg441 O442 2.099 . S
Mg441 O444 2.079 1_554 S
Mg441 O445 2.072 1_544 S
Mg441 O447 2.099 1_544 S
Mg441 O458 2.079 . S
O442 Mg439 2.180 1_545 S
O442 Mg441 2.099 . S
O442 C453 1.279 . S
O443 Mg439 2.117 1_545 S
O443 C453 1.250 . S
O444 Mg441 2.079 1_556 S
O444 C454 1.264 . S
O445 Mg441 2.072 1_566 S
O445 C455 1.260 . S
Mg446 O447 2.180 1_545 S
Mg446 O448 2.030 . S
Mg446 O449 1.990 1_545 S
Mg446 O450 2.117 1_545 S
O447 Mg441 2.099 1_566 S
O447 Mg446 2.180 1_565 S
O447 C456 1.279 . S
O448 Mg446 2.030 . S
O448 C454 1.248 . S
O449 Mg446 1.990 1_565 S
O449 C455 1.253 . S
O450 Mg446 2.117 1_565 S
O450 C456 1.250 . S
C451 O457 1.248 1_545 S
C451 O458 1.264 . S
C452 O438 1.253 . S
C452 O440 1.260 . S
C453 O442 1.279 . S
C453 O443 1.250 . S
C454 O444 1.264 . S
C454 O448 1.248 . S
C455 O445 1.260 . S
C455 O449 1.253 . S
C456 O447 1.279 . S
C456 O450 1.250 . S
O457 Mg439 2.030 . S
O457 C451 1.248 1_565 S
O458 Mg441 2.079 . S
O458 C451 1.264 . S
O459 Mg460 1.990 . S
O459 C473 1.253 . S
Mg460 O459 1.990 . S
Mg460 O463 2.180 . S
Mg460 O464 2.117 . S
Mg460 O478 2.030 . S
O461 Mg462 2.072 . S
O461 C473 1.260 . S
Mg462 O461 2.072 . S
Mg462 O463 2.099 . S
Mg462 O465 2.079 . S
Mg462 O466 2.072 . S
Mg462 O468 2.099 . S
Mg462 O479 2.079 . S
O463 Mg460 2.180 . S
O463 Mg462 2.099 . S
O463 C474 1.279 . S
O464 Mg460 2.117 . S
O464 C474 1.250 . S
O465 Mg462 2.079 . S
O465 C475 1.264 . S
O466 Mg462 2.072 . S
O466 C476 1.260 . S
Mg467 O468 2.180 . S
Mg467 O469 2.030 . S
Mg467 O470 1.990 . S
Mg467 O471 2.117 . S
O468 Mg462 2.099 . S
O468 Mg467 2.180 . S
O468 C477 1.279 . S
O469 Mg467 2.030 . S
O469 C475 1.248 . S
O470 Mg467 1.990 . S
O470 C476 1.253 . S
O471 Mg467 2.117 . S
O471 C477 1.250 . S
C472 O478 1.248 . S
C472 O479 1.264 . S
C473 O459 1.253 . S
C473 O461 1.260 . S
C474 O463 1.279 . S
C474 O464 1.250 . S
C475 O465 1.264 . S
C475 O469 1.248 . S
C476 O466 1.260 . S
C476 O470 1.253 . S
C477 O468 1.279 . S
C477 O471 1.250 . S
O478 Mg460 2.030 . S
O478 C472 1.248 . S
O479 Mg462 2.079 . S
O479 C472 1.264 . S
O480 Mg481 1.990 . S
O480 C494 1.253 . S
Mg481 O480 1.990 . S
Mg481 O484 2.180 . S
Mg481 O485 2.117 . S
Mg481 O499 2.030 . S
O482 Mg483 2.073 . S
O482 C494 1.251 1_554 S
Mg483 O482 2.073 . S
Mg483 O484 2.099 1_554 S
Mg483 O486 2.079 . S
Mg483 O487 2.072 1_554 S
Mg483 O489 2.099 . S
Mg483 O500 2.079 . S
O484 Mg481 2.180 . S
O484 Mg483 2.099 1_556 S
O484 C495 1.279 . S
O485 Mg481 2.117 . S
O485 C495 1.250 . S
O486 Mg483 2.079 . S
O486 C496 1.264 . S
O487 Mg483 2.072 1_556 S
O487 C497 1.260 . S
Mg488 O489 2.180 . S
Mg488 O490 2.030 . S
Mg488 O491 1.990 . S
Mg488 O492 2.117 . S
O489 Mg483 2.099 . S
O489 Mg488 2.180 . S
O489 C498 1.279 . S
O490 Mg488 2.030 . S
O490 C496 1.248 . S
O491 Mg488 1.990 . S
O491 C497 1.253 1_554 S
O492 Mg488 2.117 . S
O492 C498 1.250 . S
C493 O499 1.248 1_554 S
C493 O500 1.264 . S
C494 O480 1.253 . S
C494 O482 1.251 1_556 S
C495 O484 1.279 . S
C495 O485 1.250 . S
C496 O486 1.264 . S
C496 O490 1.248 . S
C497 O487 1.260 . S
C497 O491 1.253 1_556 S
C498 O489 1.279 . S
C498 O492 1.250 . S
O499 Mg481 2.030 . S
O499 C493 1.248 1_556 S
O500 Mg483 2.079 . S
O500 C493 1.264 . S
O501 Mg502 1.990 . S
O501 C515 1.253 . S
Mg502 O501 1.990 . S
Mg502 O505 2.180 . S
Mg502 O506 2.117 . S
Mg502 O520 2.030 . S
O503 Mg504 2.072 . S
O503 C515 1.260 . S
Mg504 O503 2.072 . S
Mg504 O505 2.099 . S
Mg504 O507 2.079 . S
Mg504 O508 2.072 . S
Mg504 O510 2.099 . S
Mg504 O521 2.079 . S
O505 Mg502 2.180 . S
O505 Mg504 2.099 . S
O505 C516 1.279 . S
O506 Mg502 2.117 . S
O506 C516 1.250 . S
O507 Mg504 2.079 . S
O507 C517 1.264 . S
O508 Mg504 2.072 . S
O508 C518 1.260 . S
Mg509 O510 2.180 . S
Mg509 O511 2.030 . S
Mg509 O512 1.990 . S
Mg509 O513 2.117 . S
O510 Mg504 2.099 . S
O510 Mg509 2.180 . S
O510 C519 1.279 . S
O511 Mg509 2.030 . S
O511 C517 1.248 . S
O512 Mg509 1.990 . S
O512 C518 1.253 . S
O513 Mg509 2.117 . S
O513 C519 1.250 . S
C514 O520 1.248 . S
C514 O521 1.264 . S
C515 O501 1.253 . S
C515 O503 1.260 . S
C516 O505 1.279 . S
C516 O506 1.250 . S
C517 O507 1.264 . S
C517 O511 1.248 . S
C518 O508 1.260 . S
C518 O512 1.253 . S
C519 O510 1.279 . S
C519 O513 1.250 . S
O520 Mg502 2.030 . S
O520 C514 1.248 . S
O521 Mg504 2.079 . S
O521 C514 1.264 . S
O522 Mg523 1.990 . S
O522 C536 1.253 . S
Mg523 O522 1.990 . S
Mg523 O526 2.180 . S
Mg523 O527 2.117 . S
Mg523 O541 2.030 . S
O524 Mg525 2.072 . S
O524 C536 1.260 1_455 S
Mg525 O524 2.072 . S
Mg525 O526 2.099 1_455 S
Mg525 O528 2.079 . S
Mg525 O529 2.072 1_455 S
Mg525 O531 2.099 . S
Mg525 O542 2.079 . S
O526 Mg523 2.180 . S
O526 Mg525 2.099 1_655 S
O526 C537 1.279 . S
O527 Mg523 2.117 . S
O527 C537 1.250 . S
O528 Mg525 2.079 . S
O528 C538 1.264 . S
O529 Mg525 2.072 1_655 S
O529 C539 1.260 . S
Mg530 O531 2.180 . S
Mg530 O532 2.030 . S
Mg530 O533 1.990 . S
Mg530 O534 2.117 . S
O531 Mg525 2.099 . S
O531 Mg530 2.180 . S
O531 C540 1.279 . S
O532 Mg530 2.030 . S
O532 C538 1.248 . S
O533 Mg530 1.990 . S
O533 C539 1.253 1_455 S
O534 Mg530 2.117 . S
O534 C540 1.250 . S
C535 O541 1.248 1_455 S
C535 O542 1.264 . S
C536 O522 1.253 . S
C536 O524 1.260 1_655 S
C537 O526 1.279 . S
C537 O527 1.250 . S
C538 O528 1.264 . S
C538 O532 1.248 . S
C539 O529 1.260 . S
C539 O533 1.253 1_655 S
C540 O531 1.279 . S
C540 O534 1.250 . S
O541 Mg523 2.030 . S
O541 C535 1.248 1_655 S
O542 Mg525 2.079 . S
O542 C535 1.264 . S
O543 Mg544 1.990 . S
O543 C557 1.253 . S
Mg544 O543 1.990 . S
Mg544 O547 2.180 . S
Mg544 O548 2.117 . S
Mg544 O562 2.030 . S
O545 Mg546 2.072 . S
O545 C557 1.260 . S
Mg546 O545 2.072 . S
Mg546 O547 2.099 . S
Mg546 O549 2.079 . S
Mg546 O550 2.072 . S
Mg546 O552 2.099 . S
Mg546 O563 2.079 . S
O547 Mg544 2.180 . S
O547 Mg546 2.099 . S
O547 C558 1.279 . S
O548 Mg544 2.117 . S
O548 C558 1.250 . S
O549 Mg546 2.079 . S
O549 C559 1.264 . S
O550 Mg546 2.072 . S
O550 C560 1.260 . S
Mg551 O552 2.180 . S
Mg551 O553 2.030 . S
Mg551 O554 1.990 . S
Mg551 O555 2.117 . S
O552 Mg546 2.099 . S
O552 Mg551 2.180 . S
O552 C561 1.279 . S
O553 Mg551 2.030 . S
O553 C559 1.248 . S
O554 Mg551 1.990 . S
O554 C560 1.253 . S
O555 Mg551 2.117 . S
O555 C561 1.250 . S
C556 O562 1.248 . S
C556 O563 1.264 . S
C557 O543 1.253 . S
C557 O545 1.260 . S
C558 O547 1.279 . S
C558 O548 1.250 . S
C559 O549 1.264 . S
C559 O553 1.248 . S
C560 O550 1.260 . S
C560 O554 1.253 . S
C561 O552 1.279 . S
C561 O555 1.250 . S
O562 Mg544 2.030 . S
O562 C556 1.248 . S
O563 Mg546 2.079 . S
O563 C556 1.264 . S
O564 Mg565 1.990 . S
O564 C578 1.253 . S
Mg565 O564 1.990 . S
Mg565 O568 2.180 . S
Mg565 O569 2.117 . S
Mg565 O583 2.030 . S
O566 Mg567 2.072 . S
O566 C578 1.260 . S
Mg567 O566 2.072 . S
Mg567 O568 2.099 . S
Mg567 O570 2.079 . S
Mg567 O571 2.072 . S
Mg567 O573 2.099 . S
Mg567 O584 2.079 . S
O568 Mg565 2.180 . S
O568 Mg567 2.099 . S
O568 C579 1.279 . S
O569 Mg565 2.117 . S
O569 C579 1.250 . S
O570 Mg567 2.079 . S
O570 C580 1.264 . S
O571 Mg567 2.072 . S
O571 C581 1.260 . S
Mg572 O573 2.180 . S
Mg572 O574 2.030 . S
Mg572 O575 1.990 . S
Mg572 O576 2.117 . S
O573 Mg567 2.099 . S
O573 Mg572 2.180 . S
O573 C582 1.279 . S
O574 Mg572 2.030 . S
O574 C580 1.248 . S
O575 Mg572 1.990 . S
O575 C581 1.253 . S
O576 Mg572 2.117 . S
O576 C582 1.250 . S
C577 O583 1.248 . S
C577 O584 1.264 . S
C578 O564 1.253 . S
C578 O566 1.260 . S
C579 O568 1.279 . S
C579 O569 1.250 . S
C580 O570 1.264 . S
C580 O574 1.248 . S
C581 O571 1.260 . S
C581 O575 1.253 . S
C582 O573 1.279 . S
C582 O576 1.250 . S
O583 Mg565 2.030 . S
O583 C577 1.248 . S
O584 Mg567 2.079 . S
O584 C577 1.264 . S
O585 Mg586 1.990 . S
O585 C599 1.253 . S
Mg586 O585 1.990 . S
Mg586 O589 2.180 . S
Mg586 O590 2.117 . S
Mg586 O604 2.030 . S
O587 Mg588 2.072 . S
O587 C599 1.260 . S
Mg588 O587 2.072 . S
Mg588 O589 2.099 . S
Mg588 O591 2.079 . S
Mg588 O592 2.072 . S
Mg588 O594 2.099 . S
Mg588 O605 2.079 . S
O589 Mg586 2.180 . S
O589 Mg588 2.099 . S
O589 C600 1.279 . S
O590 Mg586 2.117 . S
O590 C600 1.250 . S
O591 Mg588 2.079 . S
O591 C601 1.264 . S
O592 Mg588 2.072 . S
O592 C602 1.260 . S
Mg593 O594 2.180 . S
Mg593 O595 2.030 . S
Mg593 O596 1.990 . S
Mg593 O597 2.117 . S
O594 Mg588 2.099 . S
O594 Mg593 2.180 . S
O594 C603 1.279 . S
O595 Mg593 2.030 . S
O595 C601 1.248 . S
O596 Mg593 1.990 . S
O596 C602 1.253 . S
O597 Mg593 2.117 . S
O597 C603 1.250 . S
C598 O604 1.248 . S
C598 O605 1.264 . S
C599 O585 1.253 . S
C599 O587 1.260 . S
C600 O589 1.279 . S
C600 O590 1.250 . S
C601 O591 1.264 . S
C601 O595 1.248 . S
C602 O592 1.260 . S
C602 O596 1.253 . S
C603 O594 1.279 . S
C603 O597 1.250 . S
O604 Mg586 2.030 . S
O604 C598 1.248 . S
O605 Mg588 2.079 . S
O605 C598 1.264 . S
O606 Mg607 1.990 . S
O606 C620 1.253 . S
Mg607 O606 1.990 . S
Mg607 O610 2.180 . S
Mg607 O611 2.117 . S
Mg607 O625 2.030 . S
O608 Mg609 2.072 . S
O608 C620 1.260 . S
Mg609 O608 2.072 . S
Mg609 O610 2.099 . S
Mg609 O612 2.079 . S
Mg609 O613 2.072 . S
Mg609 O615 2.099 . S
Mg609 O626 2.079 . S
O610 Mg607 2.180 . S
O610 Mg609 2.099 . S
O610 C621 1.279 . S
O611 Mg607 2.117 . S
O611 C621 1.250 . S
O612 Mg609 2.079 . S
O612 C622 1.264 . S
O613 Mg609 2.072 . S
O613 C623 1.260 . S
Mg614 O615 2.180 . S
Mg614 O616 2.030 . S
Mg614 O617 1.990 . S
Mg614 O618 2.117 . S
O615 Mg609 2.099 . S
O615 Mg614 2.180 . S
O615 C624 1.279 . S
O616 Mg614 2.030 . S
O616 C622 1.248 . S
O617 Mg614 1.990 . S
O617 C623 1.253 . S
O618 Mg614 2.117 . S
O618 C624 1.250 . S
C619 O625 1.248 . S
C619 O626 1.264 . S
C620 O606 1.253 . S
C620 O608 1.260 . S
C621 O610 1.279 . S
C621 O611 1.250 . S
C622 O612 1.264 . S
C622 O616 1.248 . S
C623 O613 1.260 . S
C623 O617 1.253 . S
C624 O615 1.279 . S
C624 O618 1.250 . S
O625 Mg607 2.030 . S
O625 C619 1.248 . S
O626 Mg609 2.079 . S
O626 C619 1.264 . S
O627 Mg628 1.990 . S
O627 C641 1.253 . S
Mg628 O627 1.990 . S
Mg628 O631 2.180 1_556 S
Mg628 O632 2.117 1_556 S
Mg628 O646 2.030 . S
O629 Mg630 2.072 1_556 S
O629 C641 1.260 . S
Mg630 O629 2.072 1_554 S
Mg630 O631 2.099 . S
Mg630 O633 2.079 1_455 S
Mg630 O634 2.072 1_454 S
Mg630 O636 2.099 1_454 S
Mg630 O647 2.079 . S
O631 Mg628 2.180 1_554 S
O631 Mg630 2.099 . S
O631 C642 1.279 . S
O632 Mg628 2.117 1_554 S
O632 C642 1.250 . S
O633 Mg630 2.079 1_655 S
O633 C643 1.264 . S
O634 Mg630 2.072 1_656 S
O634 C644 1.260 . S
Mg635 O636 2.180 1_554 S
Mg635 O637 2.030 . S
Mg635 O638 1.990 1_554 S
Mg635 O639 2.117 1_554 S
O636 Mg630 2.099 1_656 S
O636 Mg635 2.180 1_556 S
O636 C645 1.279 . S
O637 Mg635 2.030 . S
O637 C643 1.248 . S
O638 Mg635 1.990 1_556 S
O638 C644 1.253 . S
O639 Mg635 2.117 1_556 S
O639 C645 1.250 . S
C640 O646 1.248 1_554 S
C640 O647 1.264 . S
C641 O627 1.253 . S
C641 O629 1.260 . S
C642 O631 1.279 . S
C642 O632 1.250 . S
C643 O633 1.264 . S
C643 O637 1.248 . S
C644 O634 1.260 . S
C644 O638 1.253 . S
C645 O636 1.279 . S
C645 O639 1.250 . S
O646 Mg628 2.030 . S
O646 C640 1.248 1_556 S
O647 Mg630 2.079 . S
O647 C640 1.264 . S
C327 C10 1.476 1_655 S
C13 C346 1.184 . S
C34 C369 1.323 . S
C389 C44 1.373 . S
C21 C410 1.227 . S
C432 C26 1.465 . S
C454 C49 1.594 . S
C5 C472 1.389 . S
C62 C328 1.458 1_545 S
C73 C347 1.213 . S
C370 C88 1.457 . S
C393 C99 1.359 . S
C60 C414 1.482 . S
C433 C75 1.467 . S
C455 C86 1.175 . S
C473 C101 1.315 . S
C329 C96 1.390 1_556 S
C496 C104 1.152 . S
C122 C518 1.366 . S
C537 C130 1.414 . S
C57 C477 1.566 . S
C371 C70 1.394 . S
C117 C559 0.996 . S
C582 C143 1.390 . S
C164 C330 1.755 1_655 S
C581 C169 1.383 . S
C192 C372 1.735 . S
C200 C556 1.328 . S
C412 C179 1.268 . S
C519 C182 1.678 . S
C452 C203 1.648 . S
C602 C161 1.435 . S
C326 C216 1.626 1_545 S
C231 C580 1.203 . S
C368 C242 1.418 1_565 S
C257 C561 1.638 . S
C218 C411 1.620 . S
C229 C515 1.448 . S
C451 C244 1.175 . S
C255 C601 1.261 . S
C252 C325 1.235 . S
C260 C494 1.420 1_554 S
C278 C430 1.297 . S
C286 C540 1.806 . S
C600 C213 1.404 . S
C367 C226 1.273 . S
C392 C273 1.325 . S
C348 C299 1.799 . S
C36 C624 1.476 . S
C577 C39 1.184 . S
C642 C8 1.323 . S
C18 C560 1.373 . S
C47 C497 1.227 . S
C516 C0 1.465 . S
C538 C23 1.594 1_455 S
C598 C31 1.389 . S
C619 C153 1.458 . S
C112 C578 1.213 . S
C127 C643 1.449 . S
C558 C138 1.359 . S
C495 C151 1.482 . S
C114 C517 1.467 . S
C539 C125 1.175 . S
C140 C599 1.315 . S
C620 C135 1.390 . S
C409 C65 1.152 . S
C434 C83 1.366 . S
C91 C453 1.414 . S
C603 C148 1.566 . S
C109 C644 1.394 1_554 S
C388 C78 0.996 . S
C351 C52 1.390 . S
C190 C621 1.764 . S
C350 C195 1.383 . S
C645 C166 1.735 1_655 S
C174 C391 1.328 . S
C205 C493 1.268 . S
C156 C435 1.678 . S
C177 C536 1.648 1_455 S
C187 C476 1.435 . S
C623 C307 1.626 . S
C270 C349 1.203 . S
C641 C281 1.418 . S
C296 C390 1.638 . S
C309 C498 1.620 . S
C431 C268 1.448 . S
C283 C535 1.175 . S
C475 C294 1.261 . S
C622 C291 1.235 . S
C413 C221 1.420 . S
C239 C514 1.297 . S
C456 C247 1.806 1_556 S
C474 C304 1.404 . S
C265 C640 1.273 . S
C557 C234 1.325 . S
C579 C208 1.799 . S
