# Generated by pormake.
# Topology zzz, (3,6)-cn, num edge types: 1
# Building blocks:
#     Node 0, Type 0, BuildingBlock: WUSLED_clean_sbu_0, # of connection points: 3
#     Node 1, Type 0, BuildingBlock: WUSLED_clean_sbu_0, # of connection points: 3
#     Node 2, Type 0, BuildingBlock: WUSLED_clean_sbu_0, # of connection points: 3
#     Node 3, Type 0, BuildingBlock: WUSLED_clean_sbu_0, # of connection points: 3
#     Node 4, Type 0, BuildingBlock: WUSLED_clean_sbu_0, # of connection points: 3
#     Node 5, Type 0, BuildingBlock: WUSLED_clean_sbu_0, # of connection points: 3
#     Node 6, Type 0, BuildingBlock: WUSLED_clean_sbu_0, # of connection points: 3
#     Node 7, Type 0, BuildingBlock: WUSLED_clean_sbu_0, # of connection points: 3
#     Node 8, Type 1, BuildingBlock: KUMJIN_clean_sbu_1, # of connection points: 6
#     Node 9, Type 1, BuildingBlock: KUMJIN_clean_sbu_1, # of connection points: 6
#     Node 10, Type 1, BuildingBlock: KUMJIN_clean_sbu_1, # of connection points: 6
#     Node 11, Type 1, BuildingBlock: KUMJIN_clean_sbu_1, # of connection points: 6
#     Edge 12, Type (0, 1), BuildingBlock: XIVTED_clean_linker_0, # of connection points: 2
#     Edge 13, Type (0, 1), BuildingBlock: XIVTED_clean_linker_0, # of connection points: 2
#     Edge 14, Type (0, 1), BuildingBlock: XIVTED_clean_linker_0, # of connection points: 2
#     Edge 15, Type (0, 1), BuildingBlock: XIVTED_clean_linker_0, # of connection points: 2
#     Edge 16, Type (0, 1), BuildingBlock: XIVTED_clean_linker_0, # of connection points: 2
#     Edge 17, Type (0, 1), BuildingBlock: XIVTED_clean_linker_0, # of connection points: 2
#     Edge 18, Type (0, 1), BuildingBlock: XIVTED_clean_linker_0, # of connection points: 2
#     Edge 19, Type (0, 1), BuildingBlock: XIVTED_clean_linker_0, # of connection points: 2
#     Edge 20, Type (0, 1), BuildingBlock: XIVTED_clean_linker_0, # of connection points: 2
#     Edge 21, Type (0, 1), BuildingBlock: XIVTED_clean_linker_0, # of connection points: 2
#     Edge 22, Type (0, 1), BuildingBlock: XIVTED_clean_linker_0, # of connection points: 2
#     Edge 23, Type (0, 1), BuildingBlock: XIVTED_clean_linker_0, # of connection points: 2
#     Edge 24, Type (0, 1), BuildingBlock: XIVTED_clean_linker_0, # of connection points: 2
#     Edge 25, Type (0, 1), BuildingBlock: XIVTED_clean_linker_0, # of connection points: 2
#     Edge 26, Type (0, 1), BuildingBlock: XIVTED_clean_linker_0, # of connection points: 2
#     Edge 27, Type (0, 1), BuildingBlock: XIVTED_clean_linker_0, # of connection points: 2
#     Edge 28, Type (0, 1), BuildingBlock: XIVTED_clean_linker_0, # of connection points: 2
#     Edge 29, Type (0, 1), BuildingBlock: XIVTED_clean_linker_0, # of connection points: 2
#     Edge 30, Type (0, 1), BuildingBlock: XIVTED_clean_linker_0, # of connection points: 2
#     Edge 31, Type (0, 1), BuildingBlock: XIVTED_clean_linker_0, # of connection points: 2
#     Edge 32, Type (0, 1), BuildingBlock: XIVTED_clean_linker_0, # of connection points: 2
#     Edge 33, Type (0, 1), BuildingBlock: XIVTED_clean_linker_0, # of connection points: 2
#     Edge 34, Type (0, 1), BuildingBlock: XIVTED_clean_linker_0, # of connection points: 2
#     Edge 35, Type (0, 1), BuildingBlock: XIVTED_clean_linker_0, # of connection points: 2
# Relax obj value: 0.287
# Max RMSD: 0.199
# Mean RMSD: 0.174
data_MOF--net-zzz--node1-WUSLED_clean_sbu_0--node2-KUMJIN_clean_sbu_1--edge1-XIVTED_clean_linker_0
_symmetry_space_group_name_H-M    P1
_symmetry_Int_Tables_number       1
_symmetry_cell_setting            triclinic
loop_
_symmetry_equiv_pos_as_xyz
'x, y, z'
_cell_length_a     60.767135
_cell_length_b     60.909577
_cell_length_c     22.406108
_cell_angle_alpha  90.009145
_cell_angle_beta   89.967394
_cell_angle_gamma 90.134113
loop_
_atom_site_label
_atom_site_type_symbol
_atom_site_fract_x
_atom_site_fract_y
_atom_site_fract_z
_atom_type_partial_charge
C0 C 0.78816 0.53689 0.35248 0.0
C1 C 0.80749 0.534 0.31893 0.0
C2 C 0.82995 0.53513 0.40998 0.0
C3 C 0.82816 0.53327 0.34731 0.0
C4 C 0.81049 0.53824 0.44304 0.0
C5 C 0.78994 0.53914 0.41466 0.0
U6 U 0.74315 0.54433 0.22728 0.0
O7 O 0.71564 0.52143 0.21116 0.0
O8 O 0.70875 0.55541 0.23692 0.0
C9 C 0.7006 0.53671 0.21734 0.0
C10 C 0.76582 0.53615 0.32536 0.0
C11 C 0.68406 0.53783 0.16855 0.0
C12 C 0.65242 0.52152 0.11815 0.0
C13 C 0.66762 0.52164 0.16518 0.0
C14 C 0.66941 0.55415 0.07721 0.0
C15 C 0.65315 0.53766 0.07318 0.0
C16 C 0.68478 0.55416 0.12416 0.0
C17 C 0.78481 0.56404 0.10692 0.0
C18 C 0.80663 0.56948 0.01774 0.0
C19 C 0.8246 0.56149 0.11179 0.0
C20 C 0.80407 0.56098 0.14023 0.0
C21 C 0.82603 0.56485 0.04962 0.0
C22 C 0.78626 0.5691 0.04621 0.0
C23 C 0.76304 0.55901 0.13128 0.0
O24 O 0.75599 0.55499 0.31505 0.0
O25 O 0.76235 0.52157 0.28307 0.0
O26 O 0.75935 0.5381 0.14168 0.0
O27 O 0.75529 0.57206 0.173 0.0
H28 H 0.80661 0.53191 0.27103 0.0
H29 H 0.84268 0.53065 0.32023 0.0
H30 H 0.8111 0.54009 0.49108 0.0
H31 H 0.7753 0.54127 0.44164 0.0
H32 H 0.64 0.50874 0.1171 0.0
H33 H 0.66669 0.50888 0.19877 0.0
H34 H 0.67063 0.56672 0.04319 0.0
H35 H 0.69739 0.56675 0.12527 0.0
H36 H 0.80686 0.57179 0.96984 0.0
H37 H 0.83921 0.55825 0.13794 0.0
H38 H 0.80314 0.55717 0.18734 0.0
H39 H 0.77149 0.5714 0.01986 0.0
C40 C 0.99612 0.79033 0.3545 0.0
C41 C 1.00991 0.80667 0.3301 0.0
C42 C 0.99764 0.83346 0.40473 0.0
C43 C 1.01065 0.82789 0.35486 0.0
C44 C 0.98344 0.81725 0.42799 0.0
C45 C 0.98278 0.79602 0.40342 0.0
U46 U 0.98814 0.74216 0.24046 0.0
O47 O 1.01099 0.71477 0.22566 0.0
O48 O 0.97699 0.70775 0.25188 0.0
C49 C 0.99555 0.69975 0.23092 0.0
C50 C 0.99712 0.76692 0.33416 0.0
C51 C 0.99378 0.68425 0.17974 0.0
C52 C 0.98942 0.64695 0.14112 0.0
C53 C 0.98969 0.6618 0.18928 0.0
C54 C 0.99705 0.67681 0.07301 0.0
C55 C 0.99351 0.65422 0.08242 0.0
C56 C 0.99705 0.69163 0.12091 0.0
C57 C 0.96775 0.78335 0.12325 0.0
C58 C 0.96206 0.80634 0.03678 0.0
C59 C 0.97346 0.82262 0.13061 0.0
C60 C 0.97292 0.80192 0.15748 0.0
C61 C 0.9692 0.82485 0.06908 0.0
C62 C 0.96134 0.78577 0.06377 0.0
C63 C 0.97248 0.76128 0.14489 0.0
O64 O 0.97835 0.75637 0.32745 0.0
O65 O 1.01161 0.76199 0.29263 0.0
O66 O 0.99348 0.75728 0.15313 0.0
O67 O 0.95981 0.75364 0.18769 0.0
H68 H 0.02051 0.80299 0.29257 0.0
H69 H 0.02156 0.83992 0.33498 0.0
H70 H 0.97334 0.8207 0.46668 0.0
H71 H 0.97221 0.78381 0.42391 0.0
H72 H 0.98674 0.62968 0.15006 0.0
H73 H 0.9871 0.65567 0.23412 0.0
H74 H 0.99993 0.68306 0.02842 0.0
H75 H 1.00001 0.70887 0.11201 0.0
H76 H 0.95888 0.80723 0.98931 0.0
H77 H 0.97857 0.83661 0.15706 0.0
H78 H 0.97789 0.80022 0.2037 0.0
H79 H 0.95738 0.77151 0.03686 0.0
C80 C 0.75235 1.00053 0.37949 0.0
C81 C 0.73391 1.00407 0.3429 0.0
C82 C 0.7092 1.00167 0.42899 0.0
C83 C 0.71267 1.00475 0.3673 0.0
C84 C 0.72774 0.99762 0.46523 0.0
C85 C 0.74903 0.99713 0.44077 0.0
U86 U 0.79147 0.99389 0.24784 0.0
O87 O 0.81671 0.01715 0.21595 0.0
O88 O 0.82605 0.98339 0.23872 0.0
C89 C 0.83244 1.00239 0.21658 0.0
C90 C 0.77498 1.00147 0.35451 0.0
C91 C 0.84735 1.00217 0.16396 0.0
C92 C 0.87673 0.02027 0.10835 0.0
C93 C 0.86183 0.01991 0.15598 0.0
C94 C 0.86315 0.98496 0.07525 0.0
C95 C 0.87766 1.00283 0.06717 0.0
C96 C 0.84809 0.98466 0.12304 0.0
C97 C 0.76071 0.97494 0.10389 0.0
C98 C 0.76464 0.98785 1.0021 0.0
C99 C 0.73359 0.965 0.0296 0.0
C100 C 0.74197 0.96308 0.08721 0.0
C101 C 0.74389 0.97887 0.98768 0.0
C102 C 0.77289 0.98612 0.06022 0.0
C103 C 0.76361 0.97962 0.16752 0.0
O104 O 0.78405 0.98264 0.33972 0.0
O105 O 0.77821 0.01683 0.3143 0.0
O106 O 0.76614 1.00044 0.1812 0.0
O107 O 0.77597 0.96631 0.19917 0.0
H108 H 0.73597 1.00676 0.29542 0.0
H109 H 0.69904 1.00824 0.33775 0.0
H110 H 0.72587 0.99475 0.51264 0.0
H111 H 0.76296 0.99432 0.46992 0.0
H112 H 0.88782 0.03414 0.1044 0.0
H113 H 0.86175 0.03352 0.18713 0.0
H114 H 0.86324 0.97133 0.0442 0.0
H115 H 0.8371 0.97075 0.12802 0.0
H116 H 0.77346 0.99798 0.97034 0.0
H117 H 0.71768 0.95767 0.02078 0.0
H118 H 0.73244 0.95427 0.12041 0.0
H119 H 0.78761 0.99516 0.07228 0.0
C120 C 0.52993 0.75219 0.35419 0.0
C121 C 0.53356 0.73327 0.31963 0.0
C122 C 0.52945 0.70994 0.40798 0.0
C123 C 0.5336 0.71236 0.34642 0.0
C124 C 0.52586 0.72896 0.4422 0.0
C125 C 0.52624 0.74978 0.41569 0.0
U126 U 0.53903 0.79886 0.23451 0.0
O127 O 0.51459 0.82441 0.21412 0.0
O128 O 0.54683 0.83386 0.24943 0.0
C129 C 0.5283 0.84057 0.22527 0.0
C130 C 0.52864 0.77454 0.32797 0.0
C131 C 0.53008 0.8572 0.17721 0.0
C132 C 0.51644 0.89065 0.13064 0.0
C133 C 0.51611 0.87548 0.17768 0.0
C134 C 0.54501 0.86964 0.08191 0.0
C135 C 0.53083 0.88796 0.08178 0.0
C136 C 0.54457 0.8544 0.12894 0.0
C137 C 0.56575 0.7604 0.11746 0.0
C138 C 0.57085 0.73885 0.02784 0.0
C139 C 0.56543 0.72066 0.12296 0.0
C140 C 0.56454 0.74111 0.15132 0.0
C141 C 0.56746 0.71938 0.0604 0.0
C142 C 0.56997 0.75916 0.05622 0.0
C143 C 0.5588 0.78156 0.14168 0.0
O144 O 0.54705 0.78586 0.32399 0.0
O145 O 0.51569 0.77717 0.28154 0.0
O146 O 0.53738 0.78386 0.14598 0.0
O147 O 0.5696 0.7894 0.18787 0.0
H148 H 0.53594 0.73462 0.27199 0.0
H149 H 0.53623 0.69802 0.31872 0.0
H150 H 0.52277 0.72772 0.48971 0.0
H151 H 0.52328 0.76409 0.44329 0.0
H152 H 0.50497 0.90421 0.13202 0.0
H153 H 0.5046 0.87783 0.21407 0.0
H154 H 0.55654 0.86706 0.04575 0.0
H155 H 0.5554 0.8403 0.12732 0.0
H156 H 0.57224 0.73863 0.97967 0.0
H157 H 0.56321 0.70596 0.14948 0.0
H158 H 0.56162 0.74191 0.19886 0.0
H159 H 0.57089 0.77396 0.02947 0.0
C160 C 0.25053 0.50591 0.92687 0.0
C161 C 0.23522 0.48986 0.94484 0.0
C162 C 0.20713 0.50571 0.87915 0.0
C163 C 0.21375 0.48972 0.92103 0.0
C164 C 0.22268 0.52158 0.86126 0.0
C165 C 0.24403 0.52165 0.88479 0.0
U166 U 0.29689 0.49426 0.04334 0.0
O167 O 0.3324 0.48704 0.03245 0.0
O168 O 0.32182 0.51831 0.07103 0.0
C169 C 0.3384 0.50506 0.06059 0.0
C170 C 0.27328 0.507 0.95086 0.0
C171 C 0.35415 0.50259 0.11088 0.0
C172 C 0.39196 0.50227 0.14765 0.0
C173 C 0.37691 0.50248 0.10004 0.0
C174 C 0.36171 0.50188 0.21785 0.0
C175 C 0.38456 0.50239 0.20728 0.0
C176 C 0.34671 0.50188 0.17029 0.0
C177 C 0.25504 0.46443 0.14354 0.0
C178 C 0.2326 0.4446 0.21493 0.0
C179 C 0.21652 0.47363 0.15534 0.0
C180 C 0.23654 0.4765 0.12577 0.0
C181 C 0.21478 0.45863 0.20295 0.0
C182 C 0.25266 0.44762 0.18567 0.0
C183 C 0.27725 0.4718 0.12772 0.0
O184 O 0.27605 0.51896 0.9991 0.0
O185 O 0.28476 0.48871 0.95167 0.0
O186 O 0.28665 0.46239 0.08153 0.0
O187 O 0.2802 0.49317 0.12965 0.0
H188 H 0.23981 0.47755 0.97738 0.0
H189 H 0.20222 0.47734 0.93624 0.0
H190 H 0.21844 0.53392 0.82847 0.0
H191 H 0.25555 0.53413 0.87 0.0
H192 H 0.40939 0.5028 0.13772 0.0
H193 H 0.38307 0.50309 0.05468 0.0
H194 H 0.35539 0.5016 0.26304 0.0
H195 H 0.32924 0.50182 0.18002 0.0
H196 H 0.2316 0.43257 0.25042 0.0
H197 H 0.20319 0.48475 0.14489 0.0
H198 H 0.23807 0.48947 0.09291 0.0
H199 H 0.26677 0.43802 0.19946 0.0
C200 C 0.0385 0.25184 0.94441 0.0
C201 C 0.02846 0.23424 0.97489 0.0
C202 C 0.03813 0.20876 0.89443 0.0
C203 C 0.02828 0.21302 0.95022 0.0
C204 C 0.04876 0.22627 0.86501 0.0
C205 C 0.04885 0.24749 0.88955 0.0
U206 U 0.04702 0.30036 0.05654 0.0
O207 O 0.02254 0.32569 0.07732 0.0
O208 O 0.05477 0.33552 0.04249 0.0
C209 C 0.03621 0.342 0.06708 0.0
C210 C 0.03643 0.27502 0.96541 0.0
C211 C 0.03793 0.35824 0.11619 0.0
C212 C 0.03549 0.39608 0.15107 0.0
C213 C 0.03576 0.38074 0.10429 0.0
C214 C 0.0399 0.36665 0.22251 0.0
C215 C 0.03724 0.38926 0.21108 0.0
C216 C 0.04031 0.35137 0.17569 0.0
C217 C 0.07345 0.25984 0.16472 0.0
C218 C 0.08439 0.23653 0.24687 0.0
C219 C 0.06347 0.22134 0.16448 0.0
C220 C 0.06402 0.24169 0.13591 0.0
C221 C 0.07235 0.21901 0.22214 0.0
C222 C 0.08479 0.25691 0.21844 0.0
C223 C 0.06741 0.28209 0.1467 0.0
O224 O 0.02331 0.27874 1.011 0.0
O225 O 0.0545 0.28698 0.96699 0.0
O226 O 0.07793 0.29053 0.10085 0.0
O227 O 0.04608 0.28545 0.14515 0.0
H228 H 0.02028 0.23691 0.01723 0.0
H229 H 0.02023 0.19996 0.97475 0.0
H230 H 0.05632 0.2238 0.82177 0.0
H231 H 0.05649 0.2607 0.86459 0.0
H232 H 0.03385 0.4133 0.14005 0.0
H233 H 0.03392 0.38644 0.05877 0.0
H234 H 0.04101 0.36059 0.26781 0.0
H235 H 0.04195 0.33408 0.1861 0.0
H236 H 0.09175 0.23506 0.29072 0.0
H237 H 0.05404 0.20821 0.14418 0.0
H238 H 0.05522 0.24375 0.09423 0.0
H239 H 0.09225 0.27079 0.24102 0.0
C240 C 0.28449 0.04472 0.93746 0.0
C241 C 0.30262 0.03756 0.97129 0.0
C242 C 0.32767 0.04446 0.88741 0.0
C243 C 0.32391 0.03746 0.94663 0.0
C244 C 0.30951 0.0522 0.85448 0.0
C245 C 0.28828 0.05226 0.87911 0.0
U246 U 0.23661 0.05265 0.05223 0.0
O247 O 0.20145 0.06047 0.03934 0.0
O248 O 0.21112 0.02805 0.07249 0.0
C249 C 0.19486 0.04171 0.06254 0.0
C250 C 0.2614 0.04269 0.95942 0.0
C251 C 0.17815 0.04263 0.11073 0.0
C252 C 0.14772 0.02501 0.16312 0.0
C253 C 0.16258 0.02567 0.11533 0.0
C254 C 0.1633 0.05867 0.20206 0.0
C255 C 0.14799 0.04137 0.20749 0.0
C256 C 0.17833 0.05922 0.15439 0.0
C257 C 0.27885 0.07714 0.15679 0.0
C258 C 0.30668 0.07835 0.23401 0.0
C259 C 0.31714 0.07155 0.13121 0.0
C260 C 0.29524 0.07383 0.1137 0.0
C261 C 0.32282 0.07241 0.19203 0.0
C262 C 0.28477 0.0806 0.21643 0.0
C263 C 0.25594 0.07193 0.14275 0.0
O264 O 0.25784 0.02929 1.00443 0.0
O265 O 0.24971 0.06081 0.96273 0.0
O266 O 0.24691 0.08293 0.09863 0.0
O267 O 0.25209 0.05074 0.14019 0.0
H268 H 0.30033 0.03156 1.01637 0.0
H269 H 0.33729 0.0312 0.97352 0.0
H270 H 0.31163 0.05816 0.80933 0.0
H271 H 0.27465 0.05781 0.85189 0.0
H272 H 0.13601 1.0116 0.16538 0.0
H273 H 0.16216 1.01265 0.08238 0.0
H274 H 0.16411 0.07143 0.23566 0.0
H275 H 0.19036 0.07235 0.15231 0.0
H276 H 0.31053 0.07902 0.28118 0.0
H277 H 0.32932 0.06726 0.09786 0.0
H278 H 0.29087 0.0711 0.06741 0.0
H279 H 0.27224 0.08305 0.2502 0.0
C280 C 0.49987 0.29116 0.9425 0.0
C281 C 0.50922 0.3093 0.9722 0.0
C282 C 0.49979 0.33366 0.88902 0.0
C283 C 0.50918 0.33024 0.94579 0.0
C284 C 0.48982 0.31561 0.86038 0.0
C285 C 0.48996 0.29468 0.88663 0.0
U286 U 0.49181 0.24317 0.05706 0.0
O287 O 0.48515 0.20788 0.0429 0.0
O288 O 0.51667 0.21845 0.08061 0.0
C289 C 0.50359 0.20183 0.06887 0.0
C290 C 0.50232 0.26825 0.9653 0.0
C291 C 0.50175 0.1854 0.11741 0.0
C292 C 0.51429 0.15128 0.16277 0.0
C293 C 0.51453 0.16628 0.11527 0.0
C294 C 0.48821 0.17417 0.21534 0.0
C295 C 0.50122 0.15501 0.2138 0.0
C296 C 0.48852 0.1892 0.16779 0.0
C297 C 0.46304 0.28297 0.16446 0.0
C298 C 0.44472 0.30443 0.24066 0.0
C299 C 0.47242 0.32132 0.17765 0.0
C300 C 0.47464 0.30171 0.14611 0.0
C301 C 0.45841 0.32249 0.2277 0.0
C302 C 0.44719 0.28473 0.20955 0.0
C303 C 0.47028 0.2611 0.14582 0.0
O304 O 0.5152 0.26524 1.01176 0.0
O305 O 0.48455 0.25588 0.96671 0.0
O306 O 0.46029 0.25222 0.09972 0.0
O307 O 0.49173 0.25849 0.14514 0.0
H308 H 0.51704 0.30728 1.01526 0.0
H309 H 0.51672 0.34374 0.96973 0.0
H310 H 0.48262 0.31744 0.81646 0.0
H311 H 0.48286 0.28103 0.86224 0.0
H312 H 0.52485 0.13703 0.15998 0.0
H313 H 0.52507 0.16313 0.07721 0.0
H314 H 0.4777 0.17757 0.25325 0.0
H315 H 0.47863 0.20395 0.17066 0.0
H316 H 0.43332 0.30497 0.27778 0.0
H317 H 0.48328 0.33478 0.16617 0.0
H318 H 0.48686 0.30066 0.11095 0.0
H319 H 0.43795 0.27042 0.22383 0.0
Eu320 Eu 0.99244 0.0323 0.59614 0.0
C321 C 0.07801 0.04638 0.74447 0.0
N322 N 0.07481 0.03241 0.69791 0.0
C323 C 0.11 0.04212 0.65725 0.0
C324 C 0.09735 0.05915 0.74848 0.0
C325 C 0.09054 0.02987 0.655 0.0
C326 C 0.1134 0.05689 0.70404 0.0
C327 C 0.06439 0.06293 0.83591 0.0
C328 C 0.06165 0.04827 0.78768 0.0
C329 C 0.0836 0.0757 0.83986 0.0
C330 C 0.10004 0.0738 0.79631 0.0
Eu331 Eu 0.04145 1.01253 0.69798 0.0
N332 N 0.04293 0.03611 0.78197 0.0
C333 C 0.04772 0.06433 0.8788 0.0
C334 C 0.02721 0.03657 0.82542 0.0
C335 C 0.02917 0.05091 0.87385 0.0
H336 H 0.08832 0.01811 0.61953 0.0
H337 H 0.01647 0.05141 0.90773 0.0
H338 H 0.94545 0.03256 0.67548 0.0
H339 H 1.01277 0.98877 0.38982 0.0
H340 H 0.0134 0.02559 0.82398 0.0
H341 H 0.04918 0.07542 0.91642 0.0
H342 H 0.01894 0.01461 0.47242 0.0
H343 H 0.12242 0.04009 0.62305 0.0
H344 H 0.08593 0.08709 0.87648 0.0
H345 H 0.11476 0.08378 0.80002 0.0
H346 H 0.90937 0.01389 0.6748 0.0
H347 H 0.12848 0.06639 0.70559 0.0
H348 H 0.97757 0.96849 0.38271 0.0
N349 N 0.95722 0.01596 0.59848 0.0
C350 C 0.95251 1.0018 0.55331 0.0
C351 C 0.9214 1.01023 0.64061 0.0
C352 C 0.93197 0.99102 0.55065 0.0
C353 C 0.94197 0.02055 0.64139 0.0
C354 C 0.9164 0.99533 0.5952 0.0
N355 N 0.98827 1.00811 0.51432 0.0
C356 C 1.00384 1.00546 0.47109 0.0
C357 C 0.96398 0.9832 0.46259 0.0
C358 C 0.96837 0.99792 0.50974 0.0
C359 C 0.98029 0.97969 0.41955 0.0
C360 C 1.00023 0.99102 0.42358 0.0
H361 H 0.90043 0.98738 0.5947 0.0
H362 H 0.91193 0.96785 0.50116 0.0
H363 H 0.93993 0.961 0.42415 0.0
O364 O 0.99673 0.05798 0.52971 0.0
O365 O 0.99548 0.99503 0.60919 0.0
O366 O 0.0324 0.98896 0.62314 0.0
O367 O 0.9647 0.0539 0.57375 0.0
O368 O 0.02751 0.0389 0.56265 0.0
O369 O 0.04877 1.01072 0.59919 0.0
O370 O 0.04211 0.98911 0.77123 0.0
O371 O 0.03851 0.04936 0.67804 0.0
O372 O 1.00136 0.05453 0.67405 0.0
O373 O 0.07015 0.9916 0.71229 0.0
O374 O 1.00621 1.00422 0.72896 0.0
O375 O 0.98586 0.03337 0.69514 0.0
C376 C 1.01283 0.98219 0.60613 0.0
C377 C 0.96798 0.08333 0.50036 0.0
C378 C 0.97525 0.11532 0.43827 0.0
C379 C 0.9528 0.12073 0.44022 0.0
C380 C 0.94554 0.08877 0.50159 0.0
C381 C 0.93801 0.10736 0.47134 0.0
C382 C 0.98266 0.09651 0.46794 0.0
C383 C 0.04503 0.02623 0.55977 0.0
C384 C 0.97649 0.06479 0.53531 0.0
C385 C 0.92761 0.9763 0.50385 0.0
C386 C 0.94356 0.97241 0.45996 0.0
C387 C 0.02117 0.06179 0.68684 0.0
C388 C 0.05924 0.95615 0.74457 0.0
C389 C 0.04416 0.92117 0.77783 0.0
C390 C 0.05057 0.91151 0.72363 0.0
C391 C 0.06581 0.94625 0.6907 0.0
C392 C 0.04889 0.94336 0.78828 0.0
C393 C 0.06159 0.92399 0.68061 0.0
C394 C 0.98864 0.01687 0.73205 0.0
C395 C 0.06041 0.98008 0.75349 0.0
H396 H 0.94675 0.13524 0.41766 0.0
H397 H 0.93389 0.07883 0.52639 0.0
H398 H 0.92072 0.11156 0.47264 0.0
H399 H 1.00008 0.09267 0.46766 0.0
H400 H 0.04707 0.89438 0.71467 0.0
H401 H 0.07365 0.95577 0.65579 0.0
H402 H 0.0434 0.95103 0.82936 0.0
H403 H 0.06645 0.91651 0.63881 0.0
Eu404 Eu 0.52914 0.04718 0.70312 0.0
C405 C 0.5177 0.94897 0.63025 0.0
N406 N 0.52598 0.96586 0.59743 0.0
C407 C 0.55499 0.94278 0.56128 0.0
C408 C 0.52815 0.92831 0.63057 0.0
C409 C 0.54415 0.96298 0.56251 0.0
C410 C 0.54702 0.92539 0.59565 0.0
C411 C 0.49017 0.93527 0.69955 0.0
C412 C 0.4989 0.95247 0.66452 0.0
C413 C 0.50064 0.91474 0.70021 0.0
C414 C 0.51954 0.91127 0.66578 0.0
Eu415 Eu 0.50628 0.9992 0.6018 0.0
N416 N 0.48928 0.97266 0.66396 0.0
C417 C 0.47105 0.93915 0.73265 0.0
C418 C 0.4699 0.97603 0.69323 0.0
C419 C 0.46073 0.95954 0.72887 0.0
H420 H 0.55 0.97605 0.53427 0.0
H421 H 0.44551 0.96246 0.75265 0.0
H422 H 0.49161 0.06668 0.79956 0.0
H423 H 0.57774 0.09015 0.53397 0.0
H424 H 0.46103 0.99108 0.68804 0.0
H425 H 0.46385 0.92638 0.76013 0.0
H426 H 0.56589 0.05851 0.59435 0.0
H427 H 0.56939 0.94059 0.53346 0.0
H428 H 0.49417 0.9014 0.72703 0.0
H429 H 0.52739 0.89531 0.66667 0.0
H430 H 0.47289 0.10171 0.82157 0.0
H431 H 0.55548 0.90974 0.59463 0.0
H432 H 0.56062 0.12648 0.54988 0.0
N433 N 0.51073 0.07987 0.72876 0.0
C434 C 0.51654 0.09807 0.69731 0.0
C435 C 0.48503 0.10088 0.78627 0.0
C436 C 0.50655 0.1185 0.70905 0.0
C437 C 0.49542 0.081 0.7732 0.0
C438 C 0.49056 0.1197 0.75394 0.0
N439 N 0.54153 0.07628 0.64189 0.0
C440 C 0.55799 0.07406 0.60095 0.0
C441 C 0.539 0.11494 0.62013 0.0
C442 C 0.53256 0.0963 0.65323 0.0
C443 C 0.55525 0.11257 0.57632 0.0
C444 C 0.56489 0.09207 0.56703 0.0
H445 H 0.48252 0.1351 0.7643 0.0
H446 H 0.50533 0.15287 0.68427 0.0
H447 H 0.53372 0.14976 0.60648 0.0
O448 O 0.56282 0.04443 0.73482 0.0
O449 O 0.51083 0.05773 0.61842 0.0
O450 O 0.51716 0.02975 0.55211 0.0
O451 O 0.53861 0.06264 0.78813 0.0
O452 O 0.55393 0.02396 0.65938 0.0
O453 O 0.53906 1.0128 0.57017 0.0
O454 O 0.47488 0.99842 0.55324 0.0
O455 O 0.52567 0.99006 0.68611 0.0
O456 O 0.51675 0.01716 0.75248 0.0
O457 O 0.50366 0.98104 0.51809 0.0
O458 O 0.4809 0.02271 0.64365 0.0
O459 O 0.49605 0.03393 0.73296 0.0
C460 C 0.51168 0.05015 0.56346 0.0
C461 C 0.57612 0.06042 0.82716 0.0
C462 C 0.61331 0.05412 0.86434 0.0
C463 C 0.60942 0.06936 0.9103 0.0
C464 C 0.57248 0.07548 0.8735 0.0
C465 C 0.5891 0.07992 0.91478 0.0
C466 C 0.59655 0.04975 0.82291 0.0
C467 C 0.5562 0.017 0.60414 0.0
C468 C 0.55885 0.0559 0.78279 0.0
C469 C 0.51284 0.13705 0.67589 0.0
C470 C 0.52902 0.13528 0.6316 0.0
C471 C 0.52253 0.99682 0.74121 0.0
C472 C 0.47032 0.97857 0.45944 0.0
C473 C 0.4425 0.98545 0.38323 0.0
C474 C 0.44875 0.96583 0.35458 0.0
C475 C 0.47624 0.95908 0.43027 0.0
C476 C 0.45323 0.99149 0.43645 0.0
C477 C 0.46535 0.95269 0.37836 0.0
C478 C 0.47883 0.03036 0.69861 0.0
C479 C 0.48314 0.98626 0.51091 0.0
H480 H 0.62194 0.07285 0.94336 0.0
H481 H 0.55687 0.0839 0.87763 0.0
H482 H 0.58622 0.09154 0.95047 0.0
H483 H 0.59951 0.03817 0.78706 0.0
H484 H 0.44123 0.96082 0.31295 0.0
H485 H 0.48944 0.94892 0.44727 0.0
H486 H 0.44867 1.00647 0.4594 0.0
H487 H 0.47009 0.93771 0.35577 0.0
Eu488 Eu 0.54327 0.5107 0.58937 0.0
C489 C 0.45918 0.49321 0.7407 0.0
N490 N 0.46149 0.50786 0.69532 0.0
C491 C 0.42625 0.49753 0.65625 0.0
C492 C 0.44032 0.47974 0.74475 0.0
C493 C 0.44527 0.51045 0.6539 0.0
C494 C 0.4238 0.48202 0.70168 0.0
C495 C 0.47416 0.47601 0.82958 0.0
C496 C 0.47598 0.49133 0.78257 0.0
C497 C 0.45545 0.46251 0.83348 0.0
C498 C 0.43858 0.46437 0.79123 0.0
Eu499 Eu 0.49425 0.5287 0.69458 0.0
N500 N 0.49421 0.50423 0.77685 0.0
C501 C 0.49119 0.47474 0.8714 0.0
C502 C 0.51014 0.50398 0.81966 0.0
C503 C 0.50911 0.48899 0.86683 0.0
H504 H 0.44679 0.52275 0.6196 0.0
H505 H 0.52201 0.48867 0.90012 0.0
H506 H 0.59027 0.50797 0.66827 0.0
H507 H 0.52394 0.55794 0.38888 0.0
H508 H 0.52334 0.51567 0.81889 0.0
H509 H 0.49043 0.46316 0.90805 0.0
H510 H 0.51686 0.53164 0.47005 0.0
H511 H 0.41345 0.4996 0.62316 0.0
H512 H 0.45385 0.45058 0.86912 0.0
H513 H 0.42425 0.45384 0.7949 0.0
H514 H 0.62702 0.52527 0.66853 0.0
H515 H 0.40906 0.47199 0.70329 0.0
H516 H 0.5601 0.57648 0.38165 0.0
N517 N 0.57902 0.52585 0.59283 0.0
C518 C 0.58421 0.54031 0.54879 0.0
C519 C 0.61509 0.52976 0.63484 0.0
C520 C 0.60516 0.55031 0.54659 0.0
C521 C 0.59415 0.52021 0.63507 0.0
C522 C 0.6206 0.54493 0.59055 0.0
N523 N 0.54818 0.53592 0.51032 0.0
C524 C 0.53248 0.53989 0.46824 0.0
C525 C 0.57335 0.56028 0.45977 0.0
C526 C 0.56848 0.54526 0.50588 0.0
C527 C 0.55703 0.56499 0.41764 0.0
C528 C 0.53656 0.55465 0.42173 0.0
H529 H 0.63687 0.55227 0.59042 0.0
H530 H 0.62603 0.57316 0.49848 0.0
H531 H 0.59818 0.58189 0.42253 0.0
O532 O 0.53923 0.4876 0.5163 0.0
O533 O 0.53984 0.54777 0.60376 0.0
O534 O 0.503 0.55339 0.62229 0.0
O535 O 0.56968 0.4879 0.56627 0.0
O536 O 0.50811 0.50453 0.55591 0.0
O537 O 0.48605 0.53147 0.59631 0.0
O538 O 0.49314 0.55073 0.77091 0.0
O539 O 0.49749 0.49226 0.66993 0.0
O540 O 0.53466 0.48779 0.6658 0.0
O541 O 0.46542 0.54929 0.71083 0.0
O542 O 0.52947 0.53761 0.72381 0.0
O543 O 0.55012 0.50898 0.68831 0.0
C544 C 0.52234 0.56048 0.60417 0.0
C545 C 0.55549 0.45335 0.53534 0.0
C546 C 0.53724 0.41922 0.50635 0.0
C547 C 0.54858 0.40818 0.55205 0.0
C548 C 0.5667 0.44205 0.58076 0.0
C549 C 0.56323 0.41957 0.58887 0.0
C550 C 0.54093 0.44179 0.49831 0.0
C551 C 0.49038 0.51699 0.55436 0.0
C552 C 0.55755 0.47733 0.52788 0.0
C553 C 0.61003 0.5653 0.50081 0.0
C554 C 0.59418 0.57026 0.4575 0.0
C555 C 0.51499 0.47995 0.67735 0.0
C556 C 0.47585 0.58418 0.74896 0.0
C557 C 0.49152 0.61868 0.78449 0.0
C558 C 0.48286 0.62946 0.73433 0.0
C559 C 0.46701 0.59526 0.69941 0.0
C560 C 0.48767 0.59614 0.79184 0.0
C561 C 0.47048 0.6178 0.69239 0.0
C562 C 0.54721 0.5252 0.72607 0.0
C563 C 0.47488 0.56004 0.75402 0.0
H564 H 0.54633 0.39072 0.55895 0.0
H565 H 0.57791 0.45055 0.61042 0.0
H566 H 0.57187 0.41095 0.62398 0.0
H567 H 0.53194 0.4506 0.46412 0.0
H568 H 0.48555 0.64688 0.72781 0.0
H569 H 0.45789 0.58649 0.66537 0.0
H570 H 0.49475 0.58765 0.82978 0.0
H571 H 0.46384 0.62619 0.65383 0.0
Eu572 Eu 0.03008 0.54674 0.6014 0.0
C573 C 0.04311 0.47358 0.78869 0.0
N574 N 0.03368 0.47037 0.73467 0.0
C575 C 0.05524 0.43793 0.71972 0.0
C576 C 0.05986 0.45952 0.80944 0.0
C577 C 0.03879 0.45241 0.70106 0.0
C578 C 0.0661 0.44171 0.77373 0.0
C579 C 0.04342 0.49306 0.8827 0.0
C580 C 0.03497 0.49011 0.82461 0.0
C581 C 0.0612 0.48016 0.9021 0.0
C582 C 0.06936 0.46336 0.86558 0.0
Eu583 Eu 1.00739 0.49627 0.70311 0.0
N584 N 0.01737 0.50181 0.80495 0.0
C585 C 0.03298 0.508 0.92063 0.0
C586 C 1.0056 0.51423 0.84434 0.0
C587 C 0.01361 0.51818 0.90189 0.0
H588 H 0.0302 0.4493 0.65978 0.0
H589 H 1.00462 0.52873 0.93212 0.0
H590 H 0.0391 0.58937 0.69502 0.0
H591 H 1.00026 0.5534 0.37327 0.0
H592 H 0.98986 0.52096 0.83194 0.0
H593 H 0.03897 0.5108 0.96554 0.0
H594 H 0.02139 0.53763 0.45715 0.0
H595 H 0.0595 0.42388 0.69253 0.0
H596 H 0.06812 0.48242 0.94624 0.0
H597 H 0.08251 0.453 0.88192 0.0
H598 H 0.02368 0.62603 0.71573 0.0
H599 H 0.07884 0.43048 0.78815 0.0
H600 H 0.9795 0.58794 0.38759 0.0
N601 N 0.01846 0.58343 0.62017 0.0
C602 C 1.00479 0.59267 0.57953 0.0
C603 C 0.01789 0.61668 0.67776 0.0
C604 C 0.99628 0.61398 0.58771 0.0
C605 C 0.02624 0.59568 0.66667 0.0
C606 C 1.00245 0.6257 0.63875 0.0
N607 N 1.01167 0.56228 0.51877 0.0
C608 C 1.01206 0.55247 0.46401 0.0
C609 C 0.98937 0.59157 0.47999 0.0
C610 C 1.00139 0.58172 0.52663 0.0
C611 C 0.9885 0.58091 0.42465 0.0
C612 C 1.00024 0.56145 0.41634 0.0
H613 H 0.9963 0.64213 0.64677 0.0
H614 H 0.97611 0.6396 0.54887 0.0
H615 H 0.97005 0.6199 0.45427 0.0
O616 O 0.06096 0.53313 0.5675 0.0
O617 O 0.99702 0.53208 0.57509 0.0
O618 O 0.98224 0.52026 0.6641 0.0
O619 O 0.05524 0.56874 0.56536 0.0
O620 O 0.02458 0.51506 0.54946 0.0
O621 O 0.0193 0.48501 0.61243 0.0
O622 O 0.98789 0.4739 0.7577 0.0
O623 O 0.04381 0.49947 0.67861 0.0
O624 O 0.04701 0.53629 0.68669 0.0
O625 O 0.98358 0.47396 0.66204 0.0
O626 O 0.99595 0.53084 0.72994 0.0
O627 O 0.02548 0.55192 0.70159 0.0
C628 C 0.97999 0.52642 0.60801 0.0
C629 C 0.0904 0.55594 0.52771 0.0
C630 C 0.12219 0.54147 0.47491 0.0
C631 C 0.13313 0.56159 0.48326 0.0
C632 C 0.10136 0.57607 0.53496 0.0
C633 C 0.12267 0.57883 0.51287 0.0
C634 C 0.10081 0.53873 0.49723 0.0
C635 C 0.02315 0.4938 0.55983 0.0
C636 C 0.0686 0.55254 0.55428 0.0
C637 C 0.98299 0.62334 0.54316 0.0
C638 C 0.97956 0.61214 0.48927 0.0
C639 C 0.0555 0.51673 0.69355 0.0
C640 C 0.95179 0.46999 0.72053 0.0
C641 C 0.92055 0.48884 0.76552 0.0
C642 C 0.90633 0.47754 0.72669 0.0
C643 C 0.93737 0.45865 0.68255 0.0
C644 C 0.94325 0.485 0.76218 0.0
C645 C 0.91474 0.46244 0.68569 0.0
C646 C 1.00812 0.54866 0.73557 0.0
C647 C 0.97571 0.46748 0.71317 0.0
H648 H 0.14963 0.56405 0.46615 0.0
H649 H 0.09363 0.58952 0.55861 0.0
H650 H 0.13113 0.59432 0.51892 0.0
H651 H 0.09243 0.52313 0.49152 0.0
H652 H 0.88872 0.48016 0.72868 0.0
H653 H 0.94367 0.44717 0.64982 0.0
H654 H 0.95425 0.49419 0.79101 0.0
H655 H 0.90369 0.45373 0.65607 0.0
H656 H 0.12402 0.07436 0.26122 0.0
H657 H 0.07581 0.99687 0.51979 0.0
H658 H 0.13739 1.005 0.27391 0.0
H659 H 0.04952 0.06116 0.48245 0.0
H660 H 0.10085 1.00087 0.43512 0.0
H661 H 0.09912 0.07116 0.34719 0.0
C662 C 0.1218 0.05848 0.28216 0.0
C663 C 0.1328 0.0399 0.25996 0.0
C664 C 0.08963 0.01414 0.44539 0.0
C665 C 0.10432 0.03614 0.35863 0.0
C666 C 0.07536 1.01191 0.49401 0.0
C667 C 0.06053 0.02874 0.50861 0.0
C668 C 0.08931 0.03343 0.41099 0.0
C669 C 0.06063 0.04774 0.47294 0.0
C670 C 0.10748 0.05665 0.33105 0.0
C671 C 0.12909 0.01972 0.28879 0.0
N672 N 0.07483 0.04961 0.42601 0.0
N673 N 0.11529 0.01842 0.33655 0.0
H674 H 0.50477 0.10982 0.21116 0.0
H675 H 0.49846 0.09347 0.56615 0.0
H676 H 0.49841 0.16382 0.33477 0.0
H677 H 0.51794 0.04237 0.44377 0.0
H678 H 0.49562 0.11898 0.48215 0.0
H679 H 0.50679 0.08453 0.2955 0.0
C680 C 0.5039 0.11647 0.25591 0.0
C681 C 0.50154 0.13919 0.2653 0.0
C682 C 0.50054 0.10219 0.47368 0.0
C683 C 0.5035 0.10997 0.36287 0.0
C684 C 0.50228 0.08759 0.52179 0.0
C685 C 0.50884 0.06573 0.51254 0.0
C686 C 0.505 0.09487 0.4154 0.0
C687 C 0.51296 0.05904 0.45347 0.0
C688 C 0.50494 0.10192 0.30421 0.0
C689 C 0.49997 0.14652 0.32481 0.0
N690 N 0.51097 0.0735 0.4074 0.0
N691 N 0.501 0.13201 0.37109 0.0
H692 H 0.42415 0.48084 0.22206 0.0
H693 H 0.45466 0.54278 0.52727 0.0
H694 H 0.3815 0.52751 0.30881 0.0
H695 H 0.49074 0.4866 0.46284 0.0
H696 H 0.42911 0.53882 0.44392 0.0
H697 H 0.45005 0.48415 0.30569 0.0
C698 C 0.42023 0.49182 0.25854 0.0
C699 C 0.4005 0.50385 0.25822 0.0
C700 C 0.44255 0.52729 0.44806 0.0
C701 C 0.4302 0.50777 0.35432 0.0
C702 C 0.45718 0.52949 0.49594 0.0
C703 C 0.47481 0.51481 0.503 0.0
C704 C 0.4456 0.51045 0.40596 0.0
C705 C 0.47736 0.49825 0.45972 0.0
C706 C 0.43499 0.49362 0.30646 0.0
C707 C 0.3963 0.51767 0.30723 0.0
N708 N 0.46297 0.49654 0.41317 0.0
N709 N 0.411 0.51931 0.3529 0.0
H710 H 1.01204 0.4269 0.21827 0.0
H711 H 0.04272 0.45338 0.55834 0.0
H712 H 0.05874 0.38886 0.31993 0.0
H713 H 1.00953 0.49955 0.44402 0.0
H714 H 0.04663 0.42834 0.47351 0.0
H715 H 1.00922 0.45263 0.30155 0.0
C716 C 0.0219 0.42398 0.25768 0.0
C717 C 0.03571 0.4055 0.26145 0.0
C718 C 0.03852 0.44395 0.46686 0.0
C719 C 0.03209 0.43492 0.35817 0.0
C720 C 0.03613 0.4582 0.51546 0.0
C721 C 0.02576 0.4786 0.50837 0.0
C722 C 0.03019 0.44995 0.41067 0.0
C723 C 0.01788 0.48412 0.45139 0.0
C724 C 0.02014 0.43868 0.30553 0.0
C725 C 0.0476 0.40255 0.31479 0.0
N726 N 0.02012 0.46984 0.4049 0.0
N727 N 0.04545 0.417 0.36088 0.0
H728 H 0.90315 0.96938 0.02013 0.0
H729 H 0.95985 0.04734 0.77493 0.0
H730 H 0.88881 0.0382 0.99746 0.0
H731 H 0.98075 0.98053 0.80357 0.0
H732 H 0.93287 0.04323 0.85432 0.0
H733 H 0.93028 0.97197 0.93892 0.0
C734 C 0.90556 0.98499 0.99795 0.0
C735 C 0.89367 1.00363 1.0162 0.0
C736 C 0.94327 0.02938 0.84343 0.0
C737 C 0.92486 1.00673 0.92326 0.0
C738 C 0.9587 0.03169 0.7977 0.0
C739 C 0.9725 0.01417 0.7818 0.0
C740 C 0.94141 1.00937 0.87418 0.0
C741 C 0.97042 0.99446 0.81409 0.0
C742 C 0.92118 0.98648 0.95182 0.0
C743 C 0.89774 0.02345 0.98592 0.0
N744 N 0.9551 0.99256 0.85855 0.0
N745 N 0.91289 0.02443 0.94126 0.0
H746 H 0.53716 0.8799 0.96144 0.0
H747 H 0.51035 1.00281 0.85797 0.0
H748 H 0.52409 0.9328 0.08473 0.0
H749 H 0.53968 0.95488 0.74077 0.0
H750 H 0.51301 0.97662 0.94024 0.0
H751 H 0.53604 0.90624 0.87909 0.0
C752 C 0.53425 0.89703 0.97154 0.0
C753 C 0.5307 0.90396 0.03073 0.0
C754 C 0.51883 0.97179 0.89649 0.0
C755 C 0.52897 0.93428 0.93571 0.0
C756 C 0.51734 0.98677 0.84933 0.0
C757 C 0.52454 0.98102 0.7918 0.0
C758 C 0.52749 0.95074 0.88638 0.0
C759 C 0.53346 0.95994 0.78381 0.0
C760 C 0.53348 0.91207 0.92422 0.0
C761 C 0.52655 0.92644 0.04015 0.0
N762 N 0.53456 0.94555 0.83034 0.0
N763 N 0.52573 0.94069 0.99334 0.0
H764 H 0.63082 0.57172 0.01858 0.0
H765 H 0.57595 0.49459 0.76907 0.0
H766 H 0.63962 0.50155 1.0096 0.0
H767 H 0.55434 0.56107 0.79942 0.0
H768 H 0.60153 0.49811 0.85228 0.0
H769 H 0.60506 0.5694 0.9342 0.0
C770 C 0.62743 0.55584 0.99883 0.0
C771 C 0.63743 0.53679 0.02165 0.0
C772 C 0.59127 0.512 0.84084 0.0
C773 C 0.60792 0.53404 0.92477 0.0
C774 C 0.5767 0.51005 0.79289 0.0
C775 C 0.56305 0.52765 0.77659 0.0
C776 C 0.59246 0.53174 0.87311 0.0
C777 C 0.56457 0.5471 0.8102 0.0
C778 C 0.61261 0.55453 0.95085 0.0
C779 C 0.63217 0.51666 0.99433 0.0
N780 N 0.57906 0.54867 0.85664 0.0
N781 N 0.61793 0.51585 0.94747 0.0
H782 H 0.02465 0.65287 0.99423 0.0
H783 H 0.97005 0.55682 0.80013 0.0
H784 H 0.9661 0.61934 0.05411 0.0
H785 H 0.03882 0.57419 0.79169 0.0
H786 H 0.96578 0.58193 0.88577 0.0
H787 H 0.02742 0.62712 0.91096 0.0
C788 C 1.01227 0.64016 0.9897 0.0
C789 C 0.99508 0.63837 0.0314 0.0
C790 C 0.98176 0.58026 0.86481 0.0
C791 C 0.99818 0.60861 0.93544 0.0
C792 C 0.9842 0.56596 0.81594 0.0
C793 C 1.00474 0.56364 0.78768 0.0
C794 C 0.9999 0.59259 0.88501 0.0
C795 C 0.02251 0.57586 0.8105 0.0
C796 C 0.01394 0.62534 0.94226 0.0
C797 C 0.9797 0.62129 0.02334 0.0
N798 N 0.01964 0.58984 0.85719 0.0
N799 N 0.98151 0.60717 0.97615 0.0
H800 H 0.06774 0.17507 0.19479 0.0
H801 H 0.98034 0.15937 0.45258 0.0
H802 H 0.05789 0.22205 0.33662 0.0
H803 H 1.00692 0.10387 0.35743 0.0
H804 H 1.00813 0.18291 0.40621 0.0
H805 H 0.04602 0.14821 0.25155 0.0
C806 C 0.06146 0.17955 0.23836 0.0
C807 C 0.06453 0.20087 0.26078 0.0
C808 C 1.00796 0.16556 0.39561 0.0
C809 C 0.03942 0.17057 0.32495 0.0
C810 C 0.99195 0.15223 0.42147 0.0
C811 C 0.9913 0.12978 0.40825 0.0
C812 C 0.0232 0.15642 0.35555 0.0
C813 C 1.00694 0.12117 0.36853 0.0
C814 C 0.04907 0.16427 0.27062 0.0
C815 C 0.05614 0.2058 0.31763 0.0
N816 N 0.02219 0.13457 0.34304 0.0
N817 N 0.04366 0.1909 0.34722 0.0
H818 H 0.34112 0.03436 0.154 0.0
H819 H 0.4407 0.03077 0.38204 0.0
H820 H 0.35115 0.08719 0.27965 0.0
H821 H 0.40523 0.97317 0.3226 0.0
H822 H 0.41309 0.05382 0.33325 0.0
H823 H 0.37126 0.01434 0.19995 0.0
C824 C 0.35005 0.04204 0.19029 0.0
C825 C 0.34367 0.06254 0.21291 0.0
C826 C 0.41147 0.03613 0.33114 0.0
C827 C 0.37789 0.03939 0.26654 0.0
C828 C 0.42709 0.0229 0.35932 0.0
C829 C 0.42544 0.99987 0.35629 0.0
C830 C 0.3944 0.02624 0.29879 0.0
C831 C 0.40759 0.99076 0.32508 0.0
C832 C 0.36704 0.03043 0.21703 0.0
C833 C 0.35555 0.0714 0.26105 0.0
N834 N 0.3929 1.00396 0.2972 0.0
N835 N 0.37214 0.05971 0.28652 0.0
H836 H 0.45763 0.3192 0.3496 0.0
H837 H 0.53082 0.42493 0.38627 0.0
H838 H 0.46717 0.36639 0.20788 0.0
H839 H 0.50768 0.38683 0.5364 0.0
H840 H 0.50523 0.40533 0.32191 0.0
H841 H 0.47206 0.34563 0.42046 0.0
C842 C 0.4621 0.33534 0.33336 0.0
C843 C 0.46151 0.34036 0.27211 0.0
C844 C 0.50556 0.4014 0.36904 0.0
C845 C 0.47894 0.37049 0.35341 0.0
C846 C 0.52018 0.41261 0.40594 0.0
C847 C 0.52153 0.40746 0.46694 0.0
C848 C 0.49236 0.38464 0.39294 0.0
C849 C 0.50756 0.39104 0.48947 0.0
C850 C 0.47062 0.35039 0.37406 0.0
C851 C 0.46789 0.36154 0.2543 0.0
N852 N 0.4937 0.38008 0.45235 0.0
N853 N 0.47677 0.37567 0.29458 0.0
H854 H 0.17065 0.46666 0.18357 0.0
H855 H 0.16265 0.52416 0.49622 0.0
H856 H 0.21839 0.45777 0.32416 0.0
H857 H 0.10636 0.51795 0.38033 0.0
H858 H 0.18192 0.49673 0.43652 0.0
H859 H 0.14488 0.48156 0.25714 0.0
C860 C 0.17551 0.46731 0.23003 0.0
C861 C 0.19687 0.4613 0.2474 0.0
C862 C 0.16524 0.50108 0.42448 0.0
C863 C 0.16767 0.47853 0.33142 0.0
C864 C 0.15434 0.51685 0.45831 0.0
C865 C 0.13309 0.52344 0.44248 0.0
C866 C 0.15496 0.4922 0.37368 0.0
C867 C 0.12283 0.51329 0.39361 0.0
C868 C 0.1608 0.47579 0.27201 0.0
C869 C 0.20216 0.46216 0.3084 0.0
N870 N 0.13402 0.49842 0.36016 0.0
N871 N 0.18785 0.47107 0.3479 0.0
H872 H 1.00491 0.85113 0.09095 0.0
H873 H 1.00778 0.89555 0.76024 0.0
H874 H 0.94981 0.84391 0.97057 0.0
H875 H 0.0516 0.91909 0.89759 0.0
H876 H 0.98616 0.87643 0.83666 0.0
H877 H 0.02116 0.87762 0.02314 0.0
C878 C 0.99584 0.85553 0.05116 0.0
C879 C 0.97606 0.84489 0.03614 0.0
C880 C 1.00042 0.8859 0.85008 0.0
C881 C 0.99521 0.87468 0.9569 0.0
C882 C 1.0129 0.89652 0.80647 0.0
C883 C 0.03156 0.90868 0.8228 0.0
C884 C 1.00687 0.88725 0.91017 0.0
C885 C 0.0373 0.90984 0.88331 0.0
C886 C 1.00533 0.87053 1.01197 0.0
C887 C 0.96539 0.8512 0.98324 0.0
N888 N 0.02509 0.89912 0.92481 0.0
N889 N 0.97532 0.86535 0.94487 0.0
H890 H 0.74469 0.02092 0.94381 0.0
H891 H 0.62062 1.01037 0.8431 0.0
H892 H 0.71185 0.95859 0.9186 0.0
H893 H 0.65462 0.07143 0.87624 0.0
H894 H 0.65588 0.99107 0.84688 0.0
H895 H 0.71514 0.03889 0.89105 0.0
C896 C 0.7317 1.01076 0.92562 0.0
C897 C 0.73055 0.98815 0.9379 0.0
C898 C 0.65566 1.00873 0.85239 0.0
C899 C 0.69586 1.00911 0.87931 0.0
C900 C 0.63555 0.01976 0.85021 0.0
C901 C 0.63468 0.0425 0.86045 0.0
C902 C 0.67501 0.02053 0.8649 0.0
C903 C 0.6545 0.05383 0.86957 0.0
C904 C 0.71453 0.02122 0.89605 0.0
C905 C 0.71305 0.97618 0.91258 0.0
N906 N 0.67379 0.0427 0.87218 0.0
N907 N 0.69606 0.98688 0.886 0.0
H908 H 0.58608 0.70333 0.95704 0.0
H909 H 0.48859 0.6171 0.906 0.0
H910 H 0.53597 0.68885 0.08818 0.0
H911 H 0.52566 0.64694 0.76304 0.0
H912 H 0.51137 0.63685 0.97836 0.0
H913 H 0.57001 0.67549 0.89144 0.0
C914 C 0.57198 0.69404 0.97256 0.0
C915 C 0.56211 0.69881 0.02779 0.0
C916 C 0.51459 0.63898 0.93117 0.0
C917 C 0.54378 0.66694 0.95312 0.0
C918 C 0.50162 0.62774 0.88994 0.0
C919 C 0.50513 0.63062 0.82856 0.0
C920 C 0.5313 0.65306 0.91086 0.0
C921 C 0.52218 0.64461 0.81001 0.0
C922 C 0.56281 0.6782 0.93504 0.0
C923 C 0.5442 0.68583 0.04615 0.0
N924 N 0.53463 0.65537 0.85105 0.0
N925 N 0.53543 0.6707 1.00853 0.0
H926 H 0.84197 0.58517 0.9483 0.0
H927 H 0.9296 0.49055 0.88471 0.0
H928 H 0.85715 0.53346 0.0736 0.0
H929 H 0.89164 0.52248 0.74738 0.0
H930 H 0.91226 0.51433 0.95948 0.0
H931 H 0.8698 0.57041 0.8805 0.0
C932 C 0.85137 0.57097 0.96215 0.0
C933 C 0.84668 0.56019 1.01619 0.0
C934 C 0.90797 0.51629 0.91286 0.0
C935 C 0.87881 0.54361 0.93928 0.0
C936 C 0.91784 0.50279 0.8703 0.0
C937 C 0.9117 0.50438 0.81011 0.0
C938 C 0.89213 0.53164 0.89485 0.0
C939 C 0.89644 0.5205 0.79359 0.0
C940 C 0.86727 0.56263 0.92344 0.0
C941 C 0.86001 0.54233 0.0325 0.0
N942 N 0.88707 0.53346 0.83584 0.0
N943 N 0.87525 0.53441 0.99379 0.0
H944 H 0.0696 0.18638 0.82932 0.0
H945 H 0.98993 0.08516 0.74795 0.0
H946 H 1.0029 0.18017 0.89337 0.0
H947 H 0.05824 0.0878 0.69621 0.0
H948 H 0.9944 0.1202 0.79997 0.0
H949 H 0.06586 0.15073 0.77953 0.0
C950 C 0.05414 0.17759 0.83296 0.0
C951 C 0.03654 0.18648 0.86583 0.0
C952 C 1.00845 0.11315 0.77732 0.0
C953 C 0.03216 0.14538 0.80859 0.0
C954 C 1.00588 0.09315 0.74724 0.0
C955 C 0.02373 0.08342 0.7175 0.0
C956 C 0.02902 0.12379 0.77753 0.0
C957 C 0.04404 0.09456 0.71876 0.0
C958 C 0.05207 0.15713 0.80464 0.0
C959 C 0.01705 0.17401 0.86934 0.0
N960 N 0.04612 0.1141 0.7481 0.0
N961 N 0.01538 0.15427 0.84098 0.0
H962 H 0.36833 0.05123 0.94011 0.0
H963 H 0.43863 0.03047 0.64114 0.0
H964 H 0.33882 0.03464 0.77071 0.0
H965 H 0.46746 0.03636 0.81635 0.0
H966 H 0.40202 0.03435 0.68613 0.0
H967 H 0.4047 0.0482 0.89416 0.0
C968 C 0.36939 0.04686 0.89336 0.0
C969 C 0.3502 0.04318 0.8596 0.0
C970 C 0.41638 0.03493 0.71467 0.0
C971 C 0.3922 0.03997 0.8061 0.0
C972 C 0.43734 0.03275 0.68895 0.0
C973 C 0.45634 0.03338 0.7247 0.0
C974 C 0.41427 0.03783 0.77674 0.0
C975 C 0.45346 0.03623 0.78657 0.0
C976 C 0.39026 0.04524 0.867 0.0
C977 C 0.35294 0.03798 0.79871 0.0
N978 N 0.43294 0.03837 0.81043 0.0
N979 N 0.37342 0.03654 0.77411 0.0
H980 H 0.46846 0.3547 0.82034 0.0
H981 H 0.54672 0.45674 0.73674 0.0
H982 H 0.53449 0.36285 0.88751 0.0
H983 H 0.47847 0.45309 0.68501 0.0
H984 H 0.54277 0.42164 0.7886 0.0
H985 H 0.47191 0.3899 0.76807 0.0
C986 C 0.48371 0.36382 0.82413 0.0
C987 C 0.5012 0.35562 0.85868 0.0
C988 C 0.52862 0.42848 0.766 0.0
C989 C 0.50526 0.39618 0.79854 0.0
C990 C 0.53089 0.44852 0.736 0.0
C991 C 0.51286 0.45805 0.70668 0.0
C992 C 0.50818 0.4176 0.7665 0.0
C993 C 0.49277 0.44654 0.70754 0.0
C994 C 0.48562 0.38402 0.79438 0.0
C995 C 0.52043 0.36849 0.86223 0.0
N996 N 0.49097 0.42698 0.73692 0.0
N997 N 0.52195 0.38796 0.83247 0.0
H998 H 0.18054 0.47107 0.84358 0.0
H999 H 0.07961 0.54866 0.74913 0.0
H1000 H 0.18108 0.54169 0.85799 0.0
H1001 H 0.08231 0.48012 0.70161 0.0
H1002 H 0.11572 0.54546 0.79557 0.0
H1003 H 0.14353 0.47302 0.79951 0.0
C1004 C 0.17288 0.48697 0.8379 0.0
C1005 C 0.18417 0.50626 0.85434 0.0
C1006 C 0.10845 0.53104 0.77527 0.0
C1007 C 0.14171 0.50859 0.80354 0.0
C1008 C 0.08774 0.53285 0.74855 0.0
C1009 C 0.07765 0.51455 0.72181 0.0
C1010 C 0.11939 0.51073 0.77572 0.0
C1011 C 0.0892 0.49456 0.7226 0.0
C1012 C 0.15179 0.48806 0.81231 0.0
C1013 C 0.17333 0.52638 0.84527 0.0
N1014 N 0.10938 0.49315 0.74926 0.0
N1015 N 0.15285 0.52699 0.8207 0.0
H1016 H 0.96458 0.85905 0.45331 0.0
H1017 H 0.04566 0.95557 0.56295 0.0
H1018 H 0.03469 0.85898 0.42283 0.0
H1019 H 0.97516 0.95803 0.58403 0.0
H1020 H 0.04195 0.91983 0.51418 0.0
H1021 H 0.96808 0.89477 0.50275 0.0
C1022 C 0.98074 0.86645 0.45706 0.0
C1023 C 0.99936 0.85576 0.43355 0.0
C1024 C 0.02725 0.92817 0.52933 0.0
C1025 C 1.00347 0.89703 0.49045 0.0
C1026 C 0.02936 0.94861 0.55759 0.0
C1027 C 1.01069 0.96003 0.57769 0.0
C1028 C 1.00628 0.91884 0.52089 0.0
C1029 C 0.99003 0.95005 0.56886 0.0
C1030 C 0.9827 0.88697 0.48517 0.0
C1031 C 0.01978 0.86654 0.43933 0.0
N1032 N 0.9884 0.93013 0.5412 0.0
N1033 N 0.02127 0.88641 0.46721 0.0
H1034 H 0.66954 0.98901 0.37886 0.0
H1035 H 0.59582 0.0207 0.6628 0.0
H1036 H 0.69648 0.0176 0.53947 0.0
H1037 H 0.56859 1.00767 0.48844 0.0
H1038 H 0.63281 0.01665 0.6212 0.0
H1039 H 0.63266 0.99275 0.42091 0.0
C1040 C 0.66782 0.99619 0.42281 0.0
C1041 C 0.68645 1.00308 0.45523 0.0
C1042 C 0.61874 0.01461 0.59207 0.0
C1043 C 0.64386 1.00701 0.5044 0.0
C1044 C 0.59754 0.01691 0.61581 0.0
C1045 C 0.57887 0.01432 0.57934 0.0
C1046 C 0.62147 1.00957 0.5313 0.0
C1047 C 0.58236 1.0095 0.51865 0.0
C1048 C 0.64665 0.9982 0.44695 0.0
C1049 C 0.68286 1.01174 0.51275 0.0
N1050 N 0.60315 1.00721 0.4967 0.0
N1051 N 0.66209 1.01342 0.53535 0.0
H1052 H 0.49733 0.69388 0.48194 0.0
H1053 H 0.55954 0.58349 0.5705 0.0
H1054 H 0.55876 0.67557 0.39978 0.0
H1055 H 0.48887 0.58935 0.57858 0.0
H1056 H 0.56139 0.61922 0.52048 0.0
H1057 H 0.49574 0.65785 0.53068 0.0
C1058 C 0.51052 0.68229 0.47426 0.0
C1059 C 0.52821 0.68779 0.43663 0.0
C1060 C 0.54549 0.61264 0.53316 0.0
C1061 C 0.5266 0.64651 0.49301 0.0
C1062 C 0.54438 0.59213 0.56146 0.0
C1063 C 0.52397 0.58299 0.5778 0.0
C1064 C 0.5261 0.62453 0.52266 0.0
C1065 C 0.50499 0.59556 0.56683 0.0
C1066 C 0.50955 0.66169 0.50191 0.0
C1067 C 0.54476 0.67199 0.42806 0.0
N1068 N 0.50653 0.61564 0.54028 0.0
N1069 N 0.54366 0.65217 0.4564 0.0
H1070 H 0.84014 0.51496 0.517 0.0
H1071 H 0.96851 0.54549 0.50179 0.0
H1072 H 0.87006 0.55199 0.37415 0.0
H1073 H 0.93981 0.51152 0.65148 0.0
H1074 H 0.93249 0.5479 0.45564 0.0
H1075 H 0.87593 0.51325 0.56715 0.0
C1076 C 0.85416 0.52287 0.4962 0.0
C1077 C 0.85187 0.53369 0.44095 0.0
C1078 C 0.93394 0.53987 0.49857 0.0
C1079 C 0.89321 0.53159 0.49846 0.0
C1080 C 0.95468 0.5385 0.5252 0.0
C1081 C 0.95751 0.52825 0.58087 0.0
C1082 C 0.91552 0.53073 0.52718 0.0
C1083 C 0.93859 0.51958 0.60862 0.0
C1084 C 0.87466 0.52178 0.5249 0.0
C1085 C 0.87088 0.54323 0.4161 0.0
N1086 N 0.91847 0.52091 0.58145 0.0
N1087 N 0.8906 0.54198 0.44494 0.0
loop_
_geom_bond_atom_site_label_1
_geom_bond_atom_site_label_2
_geom_bond_distance
_geom_bond_site_symmetry_2
_ccdc_geom_bond_type
C0 C1 1.264 . S
C0 C5 1.479 . S
C0 C10 1.465 . S
C1 C0 1.264 . S
C1 C3 1.339 . S
C1 H28 0.931 . S
C2 C3 1.395 . S
C2 C4 1.320 . S
C3 C1 1.339 . S
C3 C2 1.395 . S
C3 H29 0.929 . S
C4 C2 1.320 . S
C4 C5 1.405 . S
C4 H30 0.930 . S
C5 C0 1.479 . S
C5 C4 1.405 . S
C5 H31 0.931 . S
U6 O7 2.454 . S
U6 O8 2.458 . S
U6 C9 2.984 . S
U6 C10 2.847 . S
U6 C23 2.882 . S
U6 O24 2.441 . S
U6 O25 2.420 . S
U6 O26 2.455 . S
U6 O27 2.449 . S
O7 U6 2.454 . S
O7 C9 1.353 . S
O8 U6 2.458 . S
O8 C9 1.286 . S
C9 U6 2.984 . S
C9 O7 1.353 . S
C9 O8 1.286 . S
C9 C11 1.363 . S
C10 C0 1.465 . S
C10 U6 2.847 . S
C10 O24 1.249 . S
C10 O25 1.202 . S
C11 C9 1.363 . S
C11 C13 1.408 . S
C11 C16 1.342 . S
C12 C13 1.310 . S
C12 C15 1.461 . S
C12 H32 0.932 . S
C13 C11 1.408 . S
C13 C12 1.310 . S
C13 H33 0.930 . S
C14 C15 1.474 . S
C14 C16 1.285 . S
C14 H34 0.929 . S
C15 C12 1.461 . S
C15 C14 1.474 . S
C16 C11 1.342 . S
C16 C14 1.285 . S
C16 H35 0.930 . S
C17 C20 1.424 . S
C17 C22 1.245 . S
C17 C23 1.428 . S
C18 C21 1.260 . S
C18 C22 1.477 1_556 S
C18 H36 0.932 . S
C19 C20 1.384 . S
C19 C21 1.479 1_554 S
C19 H37 0.929 . S
C20 C17 1.424 . S
C20 C19 1.384 . S
C20 H38 0.928 . S
C21 C18 1.260 . S
C21 C19 1.479 1_556 S
C22 C17 1.245 . S
C22 C18 1.477 1_554 S
C22 H39 0.932 . S
C23 U6 2.882 . S
C23 C17 1.428 . S
C23 O26 1.301 . S
C23 O27 1.282 . S
O24 U6 2.441 . S
O24 C10 1.249 . S
O25 U6 2.420 . S
O25 C10 1.202 . S
O26 U6 2.455 . S
O26 C23 1.301 . S
O27 U6 2.449 . S
O27 C23 1.282 . S
H28 C1 0.931 . S
H29 C3 0.929 . S
H30 C4 0.930 . S
H31 C5 0.931 . S
H32 C12 0.932 . S
H33 C13 0.930 . S
H34 C14 0.929 . S
H35 C16 0.930 . S
H36 C18 0.932 . S
H37 C19 0.929 . S
H38 C20 0.928 . S
H39 C22 0.932 . S
C40 C41 1.264 . S
C40 C45 1.479 . S
C40 C50 1.465 . S
C41 C40 1.264 . S
C41 C43 1.339 . S
C41 H68 0.931 . S
C42 C43 1.395 . S
C42 C44 1.320 . S
C43 C41 1.339 . S
C43 C42 1.395 . S
C43 H69 0.929 . S
C44 C42 1.320 . S
C44 C45 1.405 . S
C44 H70 0.930 . S
C45 C40 1.479 . S
C45 C44 1.405 . S
C45 H71 0.931 . S
U46 O47 2.454 . S
U46 O48 2.458 . S
U46 C49 2.984 . S
U46 C50 2.847 . S
U46 C63 2.882 . S
U46 O64 2.441 . S
U46 O65 2.420 . S
U46 O66 2.455 . S
U46 O67 2.449 . S
O47 U46 2.454 . S
O47 C49 1.353 . S
O48 U46 2.458 . S
O48 C49 1.286 . S
C49 U46 2.984 . S
C49 O47 1.353 . S
C49 O48 1.286 . S
C49 C51 1.363 . S
C50 C40 1.465 . S
C50 U46 2.847 . S
C50 O64 1.249 . S
C50 O65 1.202 . S
C51 C49 1.363 . S
C51 C53 1.408 . S
C51 C56 1.342 . S
C52 C53 1.310 . S
C52 C55 1.461 . S
C52 H72 0.932 . S
C53 C51 1.408 . S
C53 C52 1.310 . S
C53 H73 0.930 . S
C54 C55 1.474 . S
C54 C56 1.285 . S
C54 H74 0.929 . S
C55 C52 1.461 . S
C55 C54 1.474 . S
C56 C51 1.342 . S
C56 C54 1.285 . S
C56 H75 0.930 . S
C57 C60 1.424 . S
C57 C62 1.245 . S
C57 C63 1.428 . S
C58 C61 1.260 . S
C58 C62 1.477 1_556 S
C58 H76 0.932 . S
C59 C60 1.384 . S
C59 C61 1.479 1_554 S
C59 H77 0.929 . S
C60 C57 1.424 . S
C60 C59 1.384 . S
C60 H78 0.928 . S
C61 C58 1.260 . S
C61 C59 1.479 1_556 S
C62 C57 1.245 . S
C62 C58 1.477 1_554 S
C62 H79 0.932 . S
C63 U46 2.882 . S
C63 C57 1.428 . S
C63 O66 1.301 . S
C63 O67 1.282 . S
O64 U46 2.441 . S
O64 C50 1.249 . S
O65 U46 2.420 . S
O65 C50 1.202 . S
O66 U46 2.455 . S
O66 C63 1.301 . S
O67 U46 2.449 . S
O67 C63 1.282 . S
H68 C41 0.931 . S
H69 C43 0.929 . S
H70 C44 0.930 . S
H71 C45 0.931 . S
H72 C52 0.932 . S
H73 C53 0.930 . S
H74 C54 0.929 . S
H75 C56 0.930 . S
H76 C58 0.932 . S
H77 C59 0.929 . S
H78 C60 0.928 . S
H79 C62 0.932 . S
C80 C81 1.264 . S
C80 C85 1.479 . S
C80 C90 1.465 . S
C81 C80 1.264 . S
C81 C83 1.339 . S
C81 H108 0.931 . S
C82 C83 1.395 . S
C82 C84 1.320 . S
C83 C81 1.339 . S
C83 C82 1.395 . S
C83 H109 0.929 . S
C84 C82 1.320 . S
C84 C85 1.405 . S
C84 H110 0.930 . S
C85 C80 1.479 . S
C85 C84 1.405 . S
C85 H111 0.931 . S
U86 O87 2.454 . S
U86 O88 2.458 . S
U86 C89 2.984 . S
U86 C90 2.847 . S
U86 C103 2.882 . S
U86 O104 2.441 . S
U86 O105 2.420 . S
U86 O106 2.455 . S
U86 O107 2.449 . S
O87 U86 2.454 . S
O87 C89 1.353 . S
O88 U86 2.458 . S
O88 C89 1.286 . S
C89 U86 2.984 . S
C89 O87 1.353 . S
C89 O88 1.286 . S
C89 C91 1.363 . S
C90 C80 1.465 . S
C90 U86 2.847 . S
C90 O104 1.249 . S
C90 O105 1.202 . S
C91 C89 1.363 . S
C91 C93 1.408 . S
C91 C96 1.342 . S
C92 C93 1.310 . S
C92 C95 1.461 . S
C92 H112 0.932 . S
C93 C91 1.408 . S
C93 C92 1.310 . S
C93 H113 0.930 . S
C94 C95 1.474 . S
C94 C96 1.285 . S
C94 H114 0.929 . S
C95 C92 1.461 . S
C95 C94 1.474 . S
C96 C91 1.342 . S
C96 C94 1.285 . S
C96 H115 0.930 . S
C97 C100 1.424 . S
C97 C102 1.245 . S
C97 C103 1.428 . S
C98 C101 1.260 . S
C98 C102 1.477 1_556 S
C98 H116 0.932 . S
C99 C100 1.384 . S
C99 C101 1.479 1_554 S
C99 H117 0.929 . S
C100 C97 1.424 . S
C100 C99 1.384 . S
C100 H118 0.928 . S
C101 C98 1.260 . S
C101 C99 1.479 1_556 S
C102 C97 1.245 . S
C102 C98 1.477 1_554 S
C102 H119 0.932 . S
C103 U86 2.882 . S
C103 C97 1.428 . S
C103 O106 1.301 . S
C103 O107 1.282 . S
O104 U86 2.441 . S
O104 C90 1.249 . S
O105 U86 2.420 . S
O105 C90 1.202 . S
O106 U86 2.455 . S
O106 C103 1.301 . S
O107 U86 2.449 . S
O107 C103 1.282 . S
H108 C81 0.931 . S
H109 C83 0.929 . S
H110 C84 0.930 . S
H111 C85 0.931 . S
H112 C92 0.932 . S
H113 C93 0.930 . S
H114 C94 0.929 . S
H115 C96 0.930 . S
H116 C98 0.932 . S
H117 C99 0.929 . S
H118 C100 0.928 . S
H119 C102 0.932 . S
C120 C121 1.264 . S
C120 C125 1.479 . S
C120 C130 1.465 . S
C121 C120 1.264 . S
C121 C123 1.339 . S
C121 H148 0.931 . S
C122 C123 1.395 . S
C122 C124 1.320 . S
C123 C121 1.339 . S
C123 C122 1.395 . S
C123 H149 0.929 . S
C124 C122 1.320 . S
C124 C125 1.405 . S
C124 H150 0.930 . S
C125 C120 1.479 . S
C125 C124 1.405 . S
C125 H151 0.931 . S
U126 O127 2.454 . S
U126 O128 2.458 . S
U126 C129 2.984 . S
U126 C130 2.847 . S
U126 C143 2.882 . S
U126 O144 2.441 . S
U126 O145 2.420 . S
U126 O146 2.455 . S
U126 O147 2.449 . S
O127 U126 2.454 . S
O127 C129 1.353 . S
O128 U126 2.458 . S
O128 C129 1.286 . S
C129 U126 2.984 . S
C129 O127 1.353 . S
C129 O128 1.286 . S
C129 C131 1.363 . S
C130 C120 1.465 . S
C130 U126 2.847 . S
C130 O144 1.249 . S
C130 O145 1.202 . S
C131 C129 1.363 . S
C131 C133 1.408 . S
C131 C136 1.342 . S
C132 C133 1.310 . S
C132 C135 1.461 . S
C132 H152 0.932 . S
C133 C131 1.408 . S
C133 C132 1.310 . S
C133 H153 0.930 . S
C134 C135 1.474 . S
C134 C136 1.285 . S
C134 H154 0.929 . S
C135 C132 1.461 . S
C135 C134 1.474 . S
C136 C131 1.342 . S
C136 C134 1.285 . S
C136 H155 0.930 . S
C137 C140 1.424 . S
C137 C142 1.245 . S
C137 C143 1.428 . S
C138 C141 1.259 1_556 S
C138 C142 1.477 1_556 S
C138 H156 0.932 . S
C139 C140 1.384 . S
C139 C141 1.480 . S
C139 H157 0.929 . S
C140 C137 1.424 . S
C140 C139 1.384 . S
C140 H158 0.928 . S
C141 C138 1.259 1_554 S
C141 C139 1.480 . S
C142 C137 1.245 . S
C142 C138 1.477 1_554 S
C142 H159 0.932 . S
C143 U126 2.882 . S
C143 C137 1.428 . S
C143 O146 1.301 . S
C143 O147 1.282 . S
O144 U126 2.441 . S
O144 C130 1.249 . S
O145 U126 2.420 . S
O145 C130 1.202 . S
O146 U126 2.455 . S
O146 C143 1.301 . S
O147 U126 2.449 . S
O147 C143 1.282 . S
H148 C121 0.931 . S
H149 C123 0.929 . S
H150 C124 0.930 . S
H151 C125 0.931 . S
H152 C132 0.932 . S
H153 C133 0.930 . S
H154 C134 0.929 . S
H155 C136 0.930 . S
H156 C138 0.932 . S
H157 C139 0.929 . S
H158 C140 0.928 . S
H159 C142 0.932 . S
C160 C161 1.264 . S
C160 C165 1.479 . S
C160 C170 1.465 . S
C161 C160 1.264 . S
C161 C163 1.339 . S
C161 H188 0.931 . S
C162 C163 1.395 . S
C162 C164 1.320 . S
C163 C161 1.339 . S
C163 C162 1.395 . S
C163 H189 0.929 . S
C164 C162 1.320 . S
C164 C165 1.405 . S
C164 H190 0.930 . S
C165 C160 1.479 . S
C165 C164 1.405 . S
C165 H191 0.931 . S
U166 O167 2.454 . S
U166 O168 2.458 . S
U166 C169 2.984 . S
U166 C170 2.847 1_554 S
U166 C183 2.882 . S
U166 O184 2.441 1_554 S
U166 O185 2.420 1_554 S
U166 O186 2.455 . S
U166 O187 2.449 . S
O167 U166 2.454 . S
O167 C169 1.353 . S
O168 U166 2.458 . S
O168 C169 1.286 . S
C169 U166 2.984 . S
C169 O167 1.353 . S
C169 O168 1.286 . S
C169 C171 1.363 . S
C170 C160 1.465 . S
C170 U166 2.847 1_556 S
C170 O184 1.249 . S
C170 O185 1.202 . S
C171 C169 1.363 . S
C171 C173 1.408 . S
C171 C176 1.342 . S
C172 C173 1.310 . S
C172 C175 1.461 . S
C172 H192 0.932 . S
C173 C171 1.408 . S
C173 C172 1.310 . S
C173 H193 0.938 . S
C174 C175 1.474 . S
C174 C176 1.285 . S
C174 H194 0.929 . S
C175 C172 1.461 . S
C175 C174 1.474 . S
C176 C171 1.342 . S
C176 C174 1.285 . S
C176 H195 0.930 . S
C177 C180 1.424 . S
C177 C182 1.245 . S
C177 C183 1.428 . S
C178 C181 1.260 . S
C178 C182 1.477 . S
C178 H196 0.932 . S
C179 C180 1.384 . S
C179 C181 1.479 . S
C179 H197 0.929 . S
C180 C177 1.424 . S
C180 C179 1.384 . S
C180 H198 0.928 . S
C181 C178 1.260 . S
C181 C179 1.479 . S
C182 C177 1.245 . S
C182 C178 1.477 . S
C182 H199 0.932 . S
C183 U166 2.882 . S
C183 C177 1.428 . S
C183 O186 1.301 . S
C183 O187 1.282 . S
O184 U166 2.441 1_556 S
O184 C170 1.249 . S
O185 U166 2.420 1_556 S
O185 C170 1.202 . S
O186 U166 2.455 . S
O186 C183 1.301 . S
O187 U166 2.449 . S
O187 C183 1.282 . S
H188 C161 0.931 . S
H189 C163 0.929 . S
H190 C164 0.930 . S
H191 C165 0.931 . S
H192 C172 0.932 . S
H193 C173 0.938 . S
H194 C174 0.929 . S
H195 C176 0.930 . S
H196 C178 0.932 . S
H197 C179 0.929 . S
H198 C180 0.928 . S
H199 C182 0.932 . S
C200 C201 1.264 . S
C200 C205 1.479 . S
C200 C210 1.465 . S
C201 C200 1.264 . S
C201 C203 1.339 . S
C201 H228 0.931 . S
C202 C203 1.395 . S
C202 C204 1.320 . S
C203 C201 1.339 . S
C203 C202 1.395 . S
C203 H229 0.929 . S
C204 C202 1.320 . S
C204 C205 1.405 . S
C204 H230 0.930 . S
C205 C200 1.479 . S
C205 C204 1.405 . S
C205 H231 0.931 . S
U206 O207 2.454 . S
U206 O208 2.458 . S
U206 C209 2.984 . S
U206 C210 2.847 1_554 S
U206 C223 2.882 . S
U206 O224 2.441 1_554 S
U206 O225 2.420 1_554 S
U206 O226 2.455 . S
U206 O227 2.449 . S
O207 U206 2.454 . S
O207 C209 1.353 . S
O208 U206 2.458 . S
O208 C209 1.286 . S
C209 U206 2.984 . S
C209 O207 1.353 . S
C209 O208 1.286 . S
C209 C211 1.363 . S
C210 C200 1.465 . S
C210 U206 2.847 1_556 S
C210 O224 1.249 . S
C210 O225 1.202 . S
C211 C209 1.363 . S
C211 C213 1.408 . S
C211 C216 1.342 . S
C212 C213 1.310 . S
C212 C215 1.461 . S
C212 H232 0.932 . S
C213 C211 1.408 . S
C213 C212 1.310 . S
C213 H233 0.930 . S
C214 C215 1.474 . S
C214 C216 1.285 . S
C214 H234 0.929 . S
C215 C212 1.461 . S
C215 C214 1.474 . S
C216 C211 1.342 . S
C216 C214 1.285 . S
C216 H235 0.930 . S
C217 C220 1.424 . S
C217 C222 1.245 . S
C217 C223 1.428 . S
C218 C221 1.260 . S
C218 C222 1.477 . S
C218 H236 0.932 . S
C219 C220 1.384 . S
C219 C221 1.479 . S
C219 H237 0.929 . S
C220 C217 1.424 . S
C220 C219 1.384 . S
C220 H238 0.928 . S
C221 C218 1.260 . S
C221 C219 1.479 . S
C222 C217 1.245 . S
C222 C218 1.477 . S
C222 H239 0.932 . S
C223 U206 2.882 . S
C223 C217 1.428 . S
C223 O226 1.301 . S
C223 O227 1.282 . S
O224 U206 2.441 1_556 S
O224 C210 1.249 . S
O225 U206 2.420 1_556 S
O225 C210 1.202 . S
O226 U206 2.455 . S
O226 C223 1.301 . S
O227 U206 2.449 . S
O227 C223 1.282 . S
H228 C201 0.931 . S
H229 C203 0.929 . S
H230 C204 0.930 . S
H231 C205 0.931 . S
H232 C212 0.932 . S
H233 C213 0.930 . S
H234 C214 0.929 . S
H235 C216 0.930 . S
H236 C218 0.932 . S
H237 C219 0.929 . S
H238 C220 0.928 . S
H239 C222 0.932 . S
C240 C241 1.264 . S
C240 C245 1.479 . S
C240 C250 1.465 . S
C241 C240 1.264 . S
C241 C243 1.339 . S
C241 H268 0.931 . S
C242 C243 1.395 . S
C242 C244 1.320 . S
C243 C241 1.339 . S
C243 C242 1.395 . S
C243 H269 0.929 . S
C244 C242 1.320 . S
C244 C245 1.405 . S
C244 H270 0.930 . S
C245 C240 1.479 . S
C245 C244 1.405 . S
C245 H271 0.931 . S
U246 O247 2.454 . S
U246 O248 2.458 . S
U246 C249 2.984 . S
U246 C250 2.847 1_554 S
U246 C263 2.882 . S
U246 O264 2.441 1_554 S
U246 O265 2.420 1_554 S
U246 O266 2.455 . S
U246 O267 2.449 . S
O247 U246 2.454 . S
O247 C249 1.353 . S
O248 U246 2.458 . S
O248 C249 1.286 . S
C249 U246 2.984 . S
C249 O247 1.353 . S
C249 O248 1.286 . S
C249 C251 1.363 . S
C250 C240 1.465 . S
C250 U246 2.847 1_556 S
C250 O264 1.249 . S
C250 O265 1.202 . S
C251 C249 1.363 . S
C251 C253 1.408 . S
C251 C256 1.342 . S
C252 C253 1.310 . S
C252 C255 1.461 . S
C252 H272 0.932 . S
C253 C251 1.408 . S
C253 C252 1.310 . S
C253 H273 0.930 . S
C254 C255 1.474 . S
C254 C256 1.285 . S
C254 H274 0.929 . S
C255 C252 1.461 . S
C255 C254 1.474 . S
C256 C251 1.342 . S
C256 C254 1.285 . S
C256 H275 0.930 . S
C257 C260 1.424 . S
C257 C262 1.245 . S
C257 C263 1.428 . S
C258 C261 1.260 . S
C258 C262 1.477 . S
C258 H276 0.932 . S
C259 C260 1.384 . S
C259 C261 1.479 . S
C259 H277 0.929 . S
C260 C257 1.424 . S
C260 C259 1.384 . S
C260 H278 0.928 . S
C261 C258 1.260 . S
C261 C259 1.479 . S
C262 C257 1.245 . S
C262 C258 1.477 . S
C262 H279 0.932 . S
C263 U246 2.882 . S
C263 C257 1.428 . S
C263 O266 1.301 . S
C263 O267 1.282 . S
O264 U246 2.441 1_556 S
O264 C250 1.249 . S
O265 U246 2.420 1_556 S
O265 C250 1.202 . S
O266 U246 2.455 . S
O266 C263 1.301 . S
O267 U246 2.449 . S
O267 C263 1.282 . S
H268 C241 0.931 . S
H269 C243 0.929 . S
H270 C244 0.930 . S
H271 C245 0.931 . S
H272 C252 0.932 . S
H273 C253 0.930 . S
H274 C254 0.929 . S
H275 C256 0.930 . S
H276 C258 0.932 . S
H277 C259 0.929 . S
H278 C260 0.928 . S
H279 C262 0.932 . S
C280 C281 1.264 . S
C280 C285 1.479 . S
C280 C290 1.465 . S
C281 C280 1.264 . S
C281 C283 1.339 . S
C281 H308 0.931 . S
C282 C283 1.395 . S
C282 C284 1.320 . S
C283 C281 1.339 . S
C283 C282 1.395 . S
C283 H309 0.929 . S
C284 C282 1.320 . S
C284 C285 1.405 . S
C284 H310 0.930 . S
C285 C280 1.479 . S
C285 C284 1.405 . S
C285 H311 0.931 . S
U286 O287 2.454 . S
U286 O288 2.458 . S
U286 C289 2.984 . S
U286 C290 2.847 1_554 S
U286 C303 2.882 . S
U286 O304 2.441 1_554 S
U286 O305 2.420 1_554 S
U286 O306 2.455 . S
U286 O307 2.449 . S
O287 U286 2.454 . S
O287 C289 1.353 . S
O288 U286 2.458 . S
O288 C289 1.286 . S
C289 U286 2.984 . S
C289 O287 1.353 . S
C289 O288 1.286 . S
C289 C291 1.363 . S
C290 C280 1.465 . S
C290 U286 2.847 1_556 S
C290 O304 1.249 . S
C290 O305 1.202 . S
C291 C289 1.363 . S
C291 C293 1.408 . S
C291 C296 1.342 . S
C292 C293 1.310 . S
C292 C295 1.461 . S
C292 H312 0.932 . S
C293 C291 1.408 . S
C293 C292 1.310 . S
C293 H313 0.915 1_554 S
C294 C295 1.474 . S
C294 C296 1.285 . S
C294 H314 0.929 . S
C295 C292 1.461 . S
C295 C294 1.474 . S
C296 C291 1.342 . S
C296 C294 1.285 . S
C296 H315 0.930 . S
C297 C300 1.424 . S
C297 C302 1.245 . S
C297 C303 1.428 . S
C298 C301 1.260 . S
C298 C302 1.477 . S
C298 H316 0.932 . S
C299 C300 1.384 . S
C299 C301 1.479 . S
C299 H317 0.929 . S
C300 C297 1.424 . S
C300 C299 1.384 . S
C300 H318 0.928 . S
C301 C298 1.260 . S
C301 C299 1.479 . S
C302 C297 1.245 . S
C302 C298 1.477 . S
C302 H319 0.932 . S
C303 U286 2.882 . S
C303 C297 1.428 . S
C303 O306 1.301 . S
C303 O307 1.282 . S
O304 U286 2.441 1_556 S
O304 C290 1.249 . S
O305 U286 2.420 1_556 S
O305 C290 1.202 . S
O306 U286 2.455 . S
O306 C303 1.301 . S
O307 U286 2.449 . S
O307 C303 1.282 . S
H308 C281 0.931 . S
H309 C283 0.929 . S
H310 C284 0.930 . S
H311 C285 0.931 . S
H312 C292 0.932 . S
H313 C293 0.915 1_556 S
H314 C294 0.929 . S
H315 C296 0.930 . S
H316 C298 0.932 . S
H317 C299 0.929 . S
H318 C300 0.928 . S
H319 C302 0.932 . S
Eu320 N349 2.600 . S
Eu320 N355 2.562 . S
Eu320 O364 2.462 . S
Eu320 O365 2.373 1_545 S
Eu320 O367 2.432 . S
Eu320 O368 2.291 1_655 S
Eu320 O372 2.335 1_655 S
Eu320 O375 2.372 . S
Eu320 C384 2.787 . S
C321 N322 1.377 . S
C321 C324 1.405 . S
C321 C328 1.448 . S
N322 C321 1.377 . S
N322 C325 1.316 1_545 S
N322 Eu331 2.594 1_545 S
C323 C325 1.397 1_545 S
C323 C326 1.367 . S
C323 H343 0.931 . S
C324 C321 1.405 . S
C324 C326 1.403 . S
C324 C330 1.439 . S
C325 N322 1.316 1_565 S
C325 C323 1.397 1_565 S
C325 H336 0.930 . S
C326 C323 1.367 . S
C326 C324 1.403 . S
C326 H347 0.929 . S
C327 C328 1.430 . S
C327 C329 1.387 . S
C327 C333 1.404 . S
C328 C321 1.448 . S
C328 C327 1.430 . S
C328 N332 1.351 . S
C329 C327 1.387 . S
C329 C330 1.374 . S
C329 H344 0.931 . S
C330 C324 1.439 . S
C330 C329 1.374 . S
C330 H345 0.931 . S
Eu331 N322 2.594 1_565 S
Eu331 N332 2.562 1_565 S
Eu331 O366 2.335 . S
Eu331 O369 2.372 . S
Eu331 O370 2.462 . S
Eu331 O371 2.373 1_565 S
Eu331 O373 2.432 . S
Eu331 O374 2.291 1_465 S
Eu331 C395 2.787 . S
N332 C328 1.351 . S
N332 Eu331 2.562 1_545 S
N332 C334 1.325 . S
C333 C327 1.404 . S
C333 C335 1.366 . S
C333 H341 0.930 . S
C334 N332 1.325 . S
C334 C335 1.416 . S
C334 H340 0.929 1_455 S
C335 C333 1.366 . S
C335 C334 1.416 . S
C335 H337 0.937 . S
H336 C325 0.930 . S
H337 C335 0.937 . S
H338 C353 0.930 . S
H339 C360 0.936 1_455 S
H340 C334 0.929 1_655 S
H341 C333 0.930 . S
H342 C356 0.929 1_455 S
H343 C323 0.931 . S
H344 C329 0.931 . S
H345 C330 0.931 . S
H346 C351 0.931 . S
H347 C326 0.929 . S
H348 C359 0.930 . S
N349 Eu320 2.600 . S
N349 C350 1.365 . S
N349 C353 1.319 . S
C350 N349 1.365 . S
C350 C352 1.405 1_545 S
C350 C358 1.448 . S
C351 H346 0.931 . S
C351 C353 1.397 . S
C351 C354 1.390 . S
C352 C350 1.405 1_565 S
C352 C354 1.398 1_565 S
C352 C385 1.439 . S
C353 H338 0.930 . S
C353 N349 1.319 . S
C353 C351 1.397 . S
C354 C351 1.390 . S
C354 C352 1.398 1_545 S
C354 H361 0.915 1_545 S
N355 Eu320 2.562 . S
N355 C356 1.325 . S
N355 C358 1.351 . S
C356 H342 0.929 1_655 S
C356 N355 1.325 . S
C356 C360 1.395 1_545 S
C357 C358 1.430 1_565 S
C357 C359 1.404 . S
C357 C386 1.387 . S
C358 C350 1.448 . S
C358 N355 1.351 . S
C358 C357 1.430 1_545 S
C359 H348 0.930 . S
C359 C357 1.404 . S
C359 C360 1.383 . S
C360 H339 0.936 1_655 S
C360 C356 1.395 1_565 S
C360 C359 1.383 . S
H361 C354 0.915 1_565 S
H362 C385 0.931 . S
H363 C386 0.931 . S
O364 Eu320 2.462 . S
O364 C384 1.252 . S
O365 Eu320 2.373 1_565 S
O365 C376 1.249 . S
O366 Eu331 2.335 . S
O366 C376 1.264 1_455 S
O367 Eu320 2.432 . S
O367 C384 1.268 . S
O368 Eu320 2.291 1_455 S
O368 C383 1.255 . S
O369 Eu331 2.372 . S
O369 C383 1.257 1_565 S
O370 Eu331 2.462 . S
O370 C395 1.252 . S
O371 Eu331 2.373 1_545 S
O371 C387 1.249 . S
O372 Eu320 2.335 1_455 S
O372 C387 1.264 . S
O373 Eu331 2.432 . S
O373 C395 1.268 . S
O374 Eu331 2.291 1_645 S
O374 C394 1.255 . S
O375 Eu320 2.372 . S
O375 C394 1.257 . S
C376 O365 1.249 . S
C376 O366 1.264 1_655 S
C377 C380 1.382 . S
C377 C382 1.390 . S
C377 C384 1.506 . S
C378 C379 1.398 . S
C378 C382 1.392 . S
C379 C378 1.398 . S
C379 C381 1.372 . S
C379 H396 0.931 . S
C380 C377 1.382 . S
C380 C381 1.390 . S
C380 H397 0.931 . S
C381 C379 1.372 . S
C381 C380 1.390 . S
C381 H398 0.929 . S
C382 C377 1.390 . S
C382 C378 1.392 . S
C382 H399 0.930 1_655 S
C383 O368 1.255 . S
C383 O369 1.257 1_545 S
C384 Eu320 2.787 . S
C384 O364 1.252 . S
C384 O367 1.268 . S
C384 C377 1.506 . S
C385 C352 1.439 . S
C385 H362 0.931 . S
C385 C386 1.374 . S
C386 C357 1.387 . S
C386 H363 0.931 . S
C386 C385 1.374 . S
C387 O371 1.249 . S
C387 O372 1.264 . S
C388 C391 1.382 . S
C388 C392 1.390 . S
C388 C395 1.506 . S
C389 C390 1.398 . S
C389 C392 1.392 . S
C390 C389 1.398 . S
C390 C393 1.372 . S
C390 H400 0.931 . S
C391 C388 1.382 . S
C391 C393 1.390 . S
C391 H401 0.931 . S
C392 C388 1.390 . S
C392 C389 1.392 . S
C392 H402 0.925 . S
C393 C390 1.372 . S
C393 C391 1.390 . S
C393 H403 0.929 . S
C394 O374 1.255 . S
C394 O375 1.257 . S
C395 Eu331 2.787 . S
C395 O370 1.252 . S
C395 O373 1.268 . S
C395 C388 1.506 . S
H396 C379 0.931 . S
H397 C380 0.931 . S
H398 C381 0.929 . S
H399 C382 0.930 1_455 S
H400 C390 0.931 . S
H401 C391 0.931 . S
H402 C392 0.925 . S
H403 C393 0.929 . S
Eu404 N433 2.600 . S
Eu404 N439 2.562 . S
Eu404 O448 2.462 . S
Eu404 O449 2.373 . S
Eu404 O451 2.432 . S
Eu404 O452 2.291 . S
Eu404 O456 2.335 1_545 S
Eu404 O459 2.372 . S
Eu404 C468 2.787 . S
C405 N406 1.365 . S
C405 C408 1.405 . S
C405 C412 1.448 . S
N406 C405 1.365 . S
N406 C409 1.319 . S
N406 Eu415 2.600 . S
C407 C409 1.397 . S
C407 C410 1.367 . S
C407 H427 0.931 . S
C408 C405 1.405 . S
C408 C410 1.403 . S
C408 C414 1.439 . S
C409 N406 1.319 . S
C409 C407 1.397 . S
C409 H420 0.930 . S
C410 C407 1.367 . S
C410 C408 1.403 . S
C410 H431 0.929 . S
C411 C412 1.430 . S
C411 C413 1.387 . S
C411 C417 1.404 . S
C412 C405 1.448 . S
C412 C411 1.430 . S
C412 N416 1.351 . S
C413 C411 1.387 . S
C413 C414 1.374 . S
C413 H428 0.931 . S
C414 C408 1.439 . S
C414 C413 1.374 . S
C414 H429 0.931 . S
Eu415 N406 2.600 . S
Eu415 N416 2.562 . S
Eu415 O450 2.335 1_565 S
Eu415 O453 2.372 . S
Eu415 O454 2.462 . S
Eu415 O455 2.373 . S
Eu415 O457 2.432 . S
Eu415 O458 2.291 1_565 S
Eu415 C479 2.787 . S
N416 C412 1.351 . S
N416 Eu415 2.562 . S
N416 C418 1.325 . S
C417 C411 1.404 . S
C417 C419 1.366 . S
C417 H425 0.930 . S
C418 N416 1.325 . S
C418 C419 1.416 . S
C418 H424 0.929 . S
C419 C417 1.366 . S
C419 C418 1.416 . S
C419 H421 0.930 . S
H420 C409 0.930 . S
H421 C419 0.930 . S
H422 C437 0.930 . S
H423 C444 0.930 . S
H424 C418 0.929 . S
H425 C417 0.930 . S
H426 C440 0.929 . S
H427 C407 0.931 . S
H428 C413 0.931 . S
H429 C414 0.931 . S
H430 C435 0.931 . S
H431 C410 0.929 . S
H432 C443 0.930 . S
N433 Eu404 2.600 . S
N433 C434 1.365 . S
N433 C437 1.319 . S
C434 N433 1.365 . S
C434 C436 1.405 . S
C434 C442 1.448 . S
C435 H430 0.931 . S
C435 C437 1.397 . S
C435 C438 1.367 . S
C436 C434 1.405 . S
C436 C438 1.403 . S
C436 C469 1.439 . S
C437 H422 0.930 . S
C437 N433 1.319 . S
C437 C435 1.397 . S
C438 C435 1.367 . S
C438 C436 1.403 . S
C438 H445 0.929 . S
N439 Eu404 2.562 . S
N439 C440 1.325 . S
N439 C442 1.351 . S
C440 H426 0.929 . S
C440 N439 1.325 . S
C440 C444 1.416 . S
C441 C442 1.430 . S
C441 C443 1.404 . S
C441 C470 1.387 . S
C442 C434 1.448 . S
C442 N439 1.351 . S
C442 C441 1.430 . S
C443 H432 0.930 . S
C443 C441 1.404 . S
C443 C444 1.366 . S
C444 H423 0.930 . S
C444 C440 1.416 . S
C444 C443 1.366 . S
H445 C438 0.929 . S
H446 C469 0.931 . S
H447 C470 0.931 . S
O448 Eu404 2.462 . S
O448 C468 1.252 . S
O449 Eu404 2.373 . S
O449 C460 1.249 . S
O450 Eu415 2.335 1_545 S
O450 C460 1.264 . S
O451 Eu404 2.432 . S
O451 C468 1.268 . S
O452 Eu404 2.291 . S
O452 C467 1.232 1_545 S
O453 Eu415 2.372 . S
O453 C467 1.272 . S
O454 Eu415 2.462 . S
O454 C479 1.252 . S
O455 Eu415 2.373 . S
O455 C471 1.249 . S
O456 Eu404 2.335 1_565 S
O456 C471 1.264 . S
O457 Eu415 2.432 . S
O457 C479 1.268 . S
O458 Eu415 2.291 1_545 S
O458 C478 1.255 . S
O459 Eu404 2.372 . S
O459 C478 1.257 . S
C460 O449 1.249 . S
C460 O450 1.264 . S
C461 C464 1.382 . S
C461 C466 1.390 . S
C461 C468 1.506 . S
C462 C463 1.398 . S
C462 C466 1.392 . S
C463 C462 1.398 . S
C463 C465 1.372 . S
C463 H480 0.931 . S
C464 C461 1.382 . S
C464 C465 1.390 . S
C464 H481 0.931 . S
C465 C463 1.372 . S
C465 C464 1.390 . S
C465 H482 0.929 . S
C466 C461 1.390 . S
C466 C462 1.392 . S
C466 H483 0.930 . S
C467 O452 1.232 1_565 S
C467 O453 1.272 . S
C468 Eu404 2.787 . S
C468 O448 1.252 . S
C468 O451 1.268 . S
C468 C461 1.506 . S
C469 C436 1.439 . S
C469 H446 0.931 . S
C469 C470 1.374 . S
C470 C441 1.387 . S
C470 H447 0.931 . S
C470 C469 1.374 . S
C471 O455 1.249 . S
C471 O456 1.264 . S
C472 C475 1.382 . S
C472 C476 1.390 1_565 S
C472 C479 1.506 . S
C473 C474 1.398 1_545 S
C473 C476 1.392 . S
C474 C473 1.398 1_565 S
C474 C477 1.372 . S
C474 H484 0.931 . S
C475 C472 1.382 . S
C475 C477 1.390 . S
C475 H485 0.931 . S
C476 C472 1.390 1_545 S
C476 C473 1.392 . S
C476 H486 0.930 . S
C477 C474 1.372 . S
C477 C475 1.390 . S
C477 H487 0.929 . S
C478 O458 1.255 . S
C478 O459 1.257 . S
C479 Eu415 2.787 . S
C479 O454 1.252 . S
C479 O457 1.268 . S
C479 C472 1.506 . S
H480 C463 0.931 . S
H481 C464 0.931 . S
H482 C465 0.929 . S
H483 C466 0.930 . S
H484 C474 0.931 . S
H485 C475 0.931 . S
H486 C476 0.930 . S
H487 C477 0.929 . S
Eu488 N517 2.600 . S
Eu488 N523 2.562 . S
Eu488 O532 2.462 . S
Eu488 O533 2.373 . S
Eu488 O535 2.432 . S
Eu488 O536 2.291 . S
Eu488 O540 2.335 . S
Eu488 O543 2.372 . S
Eu488 C552 2.787 . S
C489 N490 1.365 . S
C489 C492 1.405 . S
C489 C496 1.448 . S
N490 C489 1.365 . S
N490 C493 1.319 . S
N490 Eu499 2.600 . S
C491 C493 1.397 . S
C491 C494 1.367 . S
C491 H511 0.931 . S
C492 C489 1.405 . S
C492 C494 1.403 . S
C492 C498 1.439 . S
C493 N490 1.319 . S
C493 C491 1.397 . S
C493 H504 0.930 . S
C494 C491 1.367 . S
C494 C492 1.403 . S
C494 H515 0.929 . S
C495 C496 1.430 . S
C495 C497 1.387 . S
C495 C501 1.404 . S
C496 C489 1.448 . S
C496 C495 1.430 . S
C496 N500 1.351 . S
C497 C495 1.387 . S
C497 C498 1.374 . S
C497 H512 0.931 . S
C498 C492 1.439 . S
C498 C497 1.374 . S
C498 H513 0.931 . S
Eu499 N490 2.600 . S
Eu499 N500 2.562 . S
Eu499 O534 2.335 . S
Eu499 O537 2.372 . S
Eu499 O538 2.462 . S
Eu499 O539 2.373 . S
Eu499 O541 2.432 . S
Eu499 O542 2.291 . S
Eu499 C563 2.787 . S
N500 C496 1.351 . S
N500 Eu499 2.562 . S
N500 C502 1.325 . S
C501 C495 1.404 . S
C501 C503 1.366 . S
C501 H509 0.930 . S
C502 N500 1.325 . S
C502 C503 1.416 . S
C502 H508 0.929 . S
C503 C501 1.366 . S
C503 C502 1.416 . S
C503 H505 0.930 . S
H504 C493 0.930 . S
H505 C503 0.930 . S
H506 C521 0.930 . S
H507 C528 0.930 . S
H508 C502 0.929 . S
H509 C501 0.930 . S
H510 C524 0.929 . S
H511 C491 0.931 . S
H512 C497 0.931 . S
H513 C498 0.931 . S
H514 C519 0.931 . S
H515 C494 0.929 . S
H516 C527 0.930 . S
N517 Eu488 2.600 . S
N517 C518 1.365 . S
N517 C521 1.319 . S
C518 N517 1.365 . S
C518 C520 1.405 . S
C518 C526 1.448 . S
C519 H514 0.931 . S
C519 C521 1.397 . S
C519 C522 1.367 . S
C520 C518 1.405 . S
C520 C522 1.403 . S
C520 C553 1.439 . S
C521 H506 0.930 . S
C521 N517 1.319 . S
C521 C519 1.397 . S
C522 C519 1.367 . S
C522 C520 1.403 . S
C522 H529 0.929 . S
N523 Eu488 2.562 . S
N523 C524 1.325 . S
N523 C526 1.351 . S
C524 H510 0.929 . S
C524 N523 1.325 . S
C524 C528 1.416 . S
C525 C526 1.430 . S
C525 C527 1.404 . S
C525 C554 1.387 . S
C526 C518 1.448 . S
C526 N523 1.351 . S
C526 C525 1.430 . S
C527 H516 0.930 . S
C527 C525 1.404 . S
C527 C528 1.366 . S
C528 H507 0.930 . S
C528 C524 1.416 . S
C528 C527 1.366 . S
H529 C522 0.929 . S
H530 C553 0.931 . S
H531 C554 0.931 . S
O532 Eu488 2.462 . S
O532 C552 1.252 . S
O533 Eu488 2.373 . S
O533 C544 1.249 . S
O534 Eu499 2.335 . S
O534 C544 1.264 . S
O535 Eu488 2.432 . S
O535 C552 1.268 . S
O536 Eu488 2.291 . S
O536 C551 1.255 . S
O537 Eu499 2.372 . S
O537 C551 1.257 . S
O538 Eu499 2.462 . S
O538 C563 1.252 . S
O539 Eu499 2.373 . S
O539 C555 1.249 . S
O540 Eu488 2.335 . S
O540 C555 1.264 . S
O541 Eu499 2.432 . S
O541 C563 1.268 . S
O542 Eu499 2.291 . S
O542 C562 1.255 . S
O543 Eu488 2.372 . S
O543 C562 1.257 . S
C544 O533 1.249 . S
C544 O534 1.264 . S
C545 C548 1.382 . S
C545 C550 1.390 . S
C545 C552 1.506 . S
C546 C547 1.398 . S
C546 C550 1.392 . S
C547 C546 1.398 . S
C547 C549 1.372 . S
C547 H564 0.931 . S
C548 C545 1.382 . S
C548 C549 1.390 . S
C548 H565 0.931 . S
C549 C547 1.372 . S
C549 C548 1.390 . S
C549 H566 0.929 . S
C550 C545 1.390 . S
C550 C546 1.392 . S
C550 H567 0.930 . S
C551 O536 1.255 . S
C551 O537 1.257 . S
C552 Eu488 2.787 . S
C552 O532 1.252 . S
C552 O535 1.268 . S
C552 C545 1.506 . S
C553 C520 1.439 . S
C553 H530 0.931 . S
C553 C554 1.374 . S
C554 C525 1.387 . S
C554 H531 0.931 . S
C554 C553 1.374 . S
C555 O539 1.249 . S
C555 O540 1.264 . S
C556 C559 1.382 . S
C556 C560 1.390 . S
C556 C563 1.506 . S
C557 C558 1.398 . S
C557 C560 1.392 . S
C558 C557 1.398 . S
C558 C561 1.372 . S
C558 H568 0.931 . S
C559 C556 1.382 . S
C559 C561 1.390 . S
C559 H569 0.931 . S
C560 C556 1.390 . S
C560 C557 1.392 . S
C560 H570 0.930 . S
C561 C558 1.372 . S
C561 C559 1.390 . S
C561 H571 0.929 . S
C562 O542 1.255 . S
C562 O543 1.257 . S
C563 Eu499 2.787 . S
C563 O538 1.252 . S
C563 O541 1.268 . S
C563 C556 1.506 . S
H564 C547 0.931 . S
H565 C548 0.931 . S
H566 C549 0.929 . S
H567 C550 0.930 . S
H568 C558 0.931 . S
H569 C559 0.931 . S
H570 C560 0.930 . S
H571 C561 0.929 . S
Eu572 N601 2.600 . S
Eu572 N607 2.562 . S
Eu572 O616 2.462 . S
Eu572 O617 2.373 1_455 S
Eu572 O619 2.432 . S
Eu572 O620 2.291 . S
Eu572 O624 2.335 . S
Eu572 O627 2.372 . S
Eu572 C636 2.787 . S
C573 N574 1.365 1_455 S
C573 C576 1.405 . S
C573 C580 1.448 . S
N574 C573 1.365 1_655 S
N574 C577 1.319 . S
N574 Eu583 2.600 . S
C575 C577 1.397 1_455 S
C575 C578 1.367 . S
C575 H595 0.930 1_455 S
C576 C573 1.405 . S
C576 C578 1.403 . S
C576 C582 1.439 . S
C577 N574 1.319 . S
C577 C575 1.397 1_655 S
C577 H588 0.930 . S
C578 C575 1.367 . S
C578 C576 1.403 . S
C578 H599 0.929 . S
C579 C580 1.430 . S
C579 C581 1.387 . S
C579 C585 1.404 . S
C580 C573 1.448 . S
C580 C579 1.430 . S
C580 N584 1.371 . S
C581 C579 1.387 . S
C581 C582 1.374 . S
C581 H596 0.931 . S
C582 C576 1.439 . S
C582 C581 1.374 . S
C582 H597 0.931 . S
Eu583 N574 2.600 . S
Eu583 N584 2.545 1_655 S
Eu583 O618 2.335 . S
Eu583 O621 2.372 . S
Eu583 O622 2.462 . S
Eu583 O623 2.373 1_655 S
Eu583 O625 2.432 . S
Eu583 O626 2.301 . S
Eu583 C647 2.787 . S
N584 C580 1.371 . S
N584 Eu583 2.545 1_455 S
N584 C586 1.332 . S
C585 C579 1.404 . S
C585 C587 1.366 . S
C585 H593 0.930 . S
C586 N584 1.332 . S
C586 C587 1.416 . S
C586 H592 0.929 1_455 S
C587 C585 1.366 . S
C587 C586 1.416 . S
C587 H589 0.930 . S
H588 C577 0.930 . S
H589 C587 0.930 . S
H590 C605 0.930 . S
H591 C612 0.930 . S
H592 C586 0.929 1_655 S
H593 C585 0.930 . S
H594 C608 0.929 . S
H595 C575 0.930 1_655 S
H596 C581 0.931 . S
H597 C582 0.931 . S
H598 C603 0.931 . S
H599 C578 0.929 . S
H600 C611 0.930 . S
N601 Eu572 2.600 . S
N601 C602 1.365 . S
N601 C605 1.319 . S
C602 N601 1.365 . S
C602 C604 1.405 1_455 S
C602 C610 1.448 . S
C603 H598 0.931 . S
C603 C605 1.397 . S
C603 C606 1.349 1_455 S
C604 C602 1.405 1_655 S
C604 C606 1.410 . S
C604 C637 1.439 . S
C605 H590 0.930 . S
C605 N601 1.319 . S
C605 C603 1.397 . S
C606 C603 1.349 1_655 S
C606 C604 1.410 . S
C606 H613 0.944 . S
N607 Eu572 2.562 . S
N607 C608 1.325 . S
N607 C610 1.351 . S
C608 H594 0.929 . S
C608 N607 1.325 . S
C608 C612 1.416 1_455 S
C609 C610 1.430 1_655 S
C609 C611 1.404 . S
C609 C638 1.387 . S
C610 C602 1.448 . S
C610 N607 1.351 . S
C610 C609 1.430 1_455 S
C611 H600 0.930 . S
C611 C609 1.404 . S
C611 C612 1.366 . S
C612 H591 0.930 . S
C612 C608 1.416 1_655 S
C612 C611 1.366 . S
H613 C606 0.944 . S
H614 C637 0.931 . S
H615 C638 0.931 . S
O616 Eu572 2.462 . S
O616 C636 1.252 . S
O617 Eu572 2.373 1_655 S
O617 C628 1.249 . S
O618 Eu583 2.335 . S
O618 C628 1.264 . S
O619 Eu572 2.432 . S
O619 C636 1.268 . S
O620 Eu572 2.291 . S
O620 C635 1.255 . S
O621 Eu583 2.372 . S
O621 C635 1.257 1_655 S
O622 Eu583 2.462 . S
O622 C647 1.252 . S
O623 Eu583 2.373 1_455 S
O623 C639 1.249 . S
O624 Eu572 2.335 . S
O624 C639 1.264 . S
O625 Eu583 2.432 . S
O625 C647 1.268 . S
O626 Eu583 2.301 . S
O626 C646 1.248 1_655 S
O627 Eu572 2.372 . S
O627 C646 1.257 . S
C628 O617 1.249 . S
C628 O618 1.264 . S
C629 C632 1.382 . S
C629 C634 1.390 . S
C629 C636 1.506 . S
C630 C631 1.398 . S
C630 C634 1.392 . S
C631 C630 1.398 . S
C631 C633 1.372 . S
C631 H648 0.931 . S
C632 C629 1.382 . S
C632 C633 1.390 . S
C632 H649 0.931 . S
C633 C631 1.372 . S
C633 C632 1.390 . S
C633 H650 0.929 . S
C634 C629 1.390 . S
C634 C630 1.392 . S
C634 H651 0.930 . S
C635 O620 1.255 . S
C635 O621 1.257 1_455 S
C636 Eu572 2.787 . S
C636 O616 1.252 . S
C636 O619 1.268 . S
C636 C629 1.506 . S
C637 C604 1.439 . S
C637 H614 0.931 . S
C637 C638 1.374 . S
C638 C609 1.387 . S
C638 H615 0.931 . S
C638 C637 1.374 . S
C639 O623 1.249 . S
C639 O624 1.264 . S
C640 C643 1.382 . S
C640 C644 1.390 . S
C640 C647 1.506 . S
C641 C642 1.398 . S
C641 C644 1.392 . S
C642 C641 1.398 . S
C642 C645 1.372 . S
C642 H652 0.931 . S
C643 C640 1.382 . S
C643 C645 1.390 . S
C643 H653 0.931 . S
C644 C640 1.390 . S
C644 C641 1.392 . S
C644 H654 0.930 . S
C645 C642 1.372 . S
C645 C643 1.390 . S
C645 H655 0.929 . S
C646 O626 1.248 1_455 S
C646 O627 1.257 . S
C647 Eu583 2.787 . S
C647 O622 1.252 . S
C647 O625 1.268 . S
C647 C640 1.506 . S
H648 C631 0.931 . S
H649 C632 0.931 . S
H650 C633 0.929 . S
H651 C634 0.930 . S
H652 C642 0.931 . S
H653 C643 0.931 . S
H654 C644 0.930 . S
H655 C645 0.929 . S
H656 C662 0.930 . S
H657 C666 0.930 1_565 S
H658 C671 0.929 . S
H659 C669 0.929 . S
H660 C664 0.929 1_565 S
H661 C670 0.929 . S
C662 H656 0.930 . S
C662 C663 1.367 . S
C662 C670 1.378 . S
C663 C662 1.367 . S
C663 C671 1.433 . S
C664 H660 0.929 1_545 S
C664 C666 1.378 . S
C664 C668 1.350 . S
C665 C668 1.463 . S
C665 C670 1.350 . S
C665 N673 1.427 . S
C666 H657 0.930 1_545 S
C666 C664 1.378 . S
C666 C667 1.367 . S
C667 C666 1.367 . S
C667 C669 1.433 . S
C668 C664 1.350 . S
C668 C665 1.463 . S
C668 N672 1.427 . S
C669 H659 0.929 . S
C669 C667 1.433 . S
C669 N672 1.384 . S
C670 H661 0.929 . S
C670 C662 1.378 . S
C670 C665 1.350 . S
C671 H658 0.929 . S
C671 C663 1.433 . S
C671 N673 1.384 . S
N672 C668 1.427 . S
N672 C669 1.384 . S
N673 C665 1.427 . S
N673 C671 1.384 . S
H674 C680 0.930 . S
H675 C684 0.930 . S
H676 C689 0.929 . S
H677 C687 0.929 . S
H678 C682 0.929 . S
H679 C688 0.929 . S
C680 H674 0.930 . S
C680 C681 1.367 . S
C680 C688 1.378 . S
C681 C680 1.367 . S
C681 C689 1.433 . S
C682 H678 0.929 . S
C682 C684 1.378 . S
C682 C686 1.350 . S
C683 C686 1.463 . S
C683 C688 1.350 . S
C683 N691 1.427 . S
C684 H675 0.930 . S
C684 C682 1.378 . S
C684 C685 1.367 . S
C685 C684 1.367 . S
C685 C687 1.433 . S
C686 C682 1.350 . S
C686 C683 1.463 . S
C686 N690 1.427 . S
C687 H677 0.929 . S
C687 C685 1.433 . S
C687 N690 1.384 . S
C688 H679 0.929 . S
C688 C680 1.378 . S
C688 C683 1.350 . S
C689 H676 0.929 . S
C689 C681 1.433 . S
C689 N691 1.384 . S
N690 C686 1.427 . S
N690 C687 1.384 . S
N691 C683 1.427 . S
N691 C689 1.384 . S
H692 C698 0.930 . S
H693 C702 0.930 . S
H694 C707 0.929 . S
H695 C705 0.929 . S
H696 C700 0.929 . S
H697 C706 0.929 . S
C698 H692 0.930 . S
C698 C699 1.367 . S
C698 C706 1.378 . S
C699 C698 1.367 . S
C699 C707 1.433 . S
C700 H696 0.929 . S
C700 C702 1.378 . S
C700 C704 1.350 . S
C701 C704 1.463 . S
C701 C706 1.350 . S
C701 N709 1.427 . S
C702 H693 0.930 . S
C702 C700 1.378 . S
C702 C703 1.367 . S
C703 C702 1.367 . S
C703 C705 1.433 . S
C704 C700 1.350 . S
C704 C701 1.463 . S
C704 N708 1.427 . S
C705 H695 0.929 . S
C705 C703 1.433 . S
C705 N708 1.384 . S
C706 H697 0.929 . S
C706 C698 1.378 . S
C706 C701 1.350 . S
C707 H694 0.929 . S
C707 C699 1.433 . S
C707 N709 1.384 . S
N708 C704 1.427 . S
N708 C705 1.384 . S
N709 C701 1.427 . S
N709 C707 1.384 . S
H710 C716 0.930 . S
H711 C720 0.930 . S
H712 C725 0.929 . S
H713 C723 0.929 . S
H714 C718 0.929 . S
H715 C724 0.929 . S
C716 H710 0.930 . S
C716 C717 1.367 . S
C716 C724 1.378 . S
C717 C716 1.367 . S
C717 C725 1.433 . S
C718 H714 0.929 . S
C718 C720 1.378 . S
C718 C722 1.350 . S
C719 C722 1.463 . S
C719 C724 1.350 . S
C719 N727 1.427 . S
C720 H711 0.930 . S
C720 C718 1.378 . S
C720 C721 1.367 . S
C721 C720 1.367 . S
C721 C723 1.433 . S
C722 C718 1.350 . S
C722 C719 1.463 . S
C722 N726 1.427 . S
C723 H713 0.929 . S
C723 C721 1.433 . S
C723 N726 1.384 . S
C724 H715 0.929 . S
C724 C716 1.378 . S
C724 C719 1.350 . S
C725 H712 0.929 . S
C725 C717 1.433 . S
C725 N727 1.384 . S
N726 C722 1.427 . S
N726 C723 1.384 . S
N727 C719 1.427 . S
N727 C725 1.384 . S
H728 C734 0.930 . S
H729 C738 0.930 . S
H730 C743 0.929 1_545 S
H731 C741 0.929 . S
H732 C736 0.929 . S
H733 C742 0.929 . S
C734 H728 0.930 . S
C734 C735 1.367 . S
C734 C742 1.378 1_554 S
C735 C734 1.367 . S
C735 C743 1.433 . S
C736 H732 0.929 . S
C736 C738 1.378 . S
C736 C740 1.350 1_545 S
C737 C740 1.463 . S
C737 C742 1.350 . S
C737 N745 1.427 . S
C738 H729 0.930 . S
C738 C736 1.378 . S
C738 C739 1.367 1_545 S
C739 C738 1.367 1_565 S
C739 C741 1.433 . S
C740 C736 1.350 1_565 S
C740 C737 1.463 . S
C740 N744 1.427 . S
C741 H731 0.929 . S
C741 C739 1.433 . S
C741 N744 1.384 . S
C742 H733 0.929 . S
C742 C734 1.378 1_556 S
C742 C737 1.350 . S
C743 H730 0.929 1_565 S
C743 C735 1.433 . S
C743 N745 1.384 1_554 S
N744 C740 1.427 . S
N744 C741 1.384 . S
N745 C737 1.427 . S
N745 C743 1.384 1_556 S
H746 C752 0.930 . S
H747 C756 0.930 . S
H748 C761 0.929 . S
H749 C759 0.929 . S
H750 C754 0.929 . S
H751 C760 0.929 . S
C752 H746 0.930 . S
C752 C753 1.367 . S
C752 C760 1.378 1_554 S
C753 C752 1.367 . S
C753 C761 1.433 . S
C754 H750 0.929 . S
C754 C756 1.378 . S
C754 C758 1.350 . S
C755 C758 1.463 . S
C755 C760 1.350 . S
C755 N763 1.427 . S
C756 H747 0.930 . S
C756 C754 1.378 . S
C756 C757 1.367 . S
C757 C756 1.367 . S
C757 C759 1.433 . S
C758 C754 1.350 . S
C758 C755 1.463 . S
C758 N762 1.427 . S
C759 H749 0.929 . S
C759 C757 1.433 . S
C759 N762 1.384 . S
C760 H751 0.929 . S
C760 C752 1.378 1_556 S
C760 C755 1.350 . S
C761 H748 0.929 . S
C761 C753 1.433 . S
C761 N763 1.384 1_554 S
N762 C758 1.427 . S
N762 C759 1.384 . S
N763 C755 1.427 . S
N763 C761 1.384 1_556 S
H764 C770 0.930 . S
H765 C774 0.930 . S
H766 C779 0.929 . S
H767 C777 0.929 . S
H768 C772 0.929 . S
H769 C778 0.929 . S
C770 H764 0.930 . S
C770 C771 1.367 . S
C770 C778 1.378 1_554 S
C771 C770 1.367 . S
C771 C779 1.433 . S
C772 H768 0.929 . S
C772 C774 1.378 . S
C772 C776 1.350 . S
C773 C776 1.463 . S
C773 C778 1.350 . S
C773 N781 1.427 . S
C774 H765 0.930 . S
C774 C772 1.378 . S
C774 C775 1.367 . S
C775 C774 1.367 . S
C775 C777 1.433 . S
C776 C772 1.350 . S
C776 C773 1.463 . S
C776 N780 1.427 . S
C777 H767 0.929 . S
C777 C775 1.433 . S
C777 N780 1.384 . S
C778 H769 0.929 . S
C778 C770 1.378 1_556 S
C778 C773 1.350 . S
C779 H766 0.929 . S
C779 C771 1.433 . S
C779 N781 1.384 1_554 S
N780 C776 1.427 . S
N780 C777 1.384 . S
N781 C773 1.427 . S
N781 C779 1.384 1_556 S
H782 C788 0.930 . S
H783 C792 0.930 . S
H784 C797 0.929 . S
H785 C795 0.929 . S
H786 C790 0.929 . S
H787 C796 0.929 . S
C788 H782 0.930 . S
C788 C789 1.367 . S
C788 C796 1.378 1_554 S
C789 C788 1.367 . S
C789 C797 1.433 . S
C790 H786 0.929 . S
C790 C792 1.378 . S
C790 C794 1.350 . S
C791 C794 1.463 . S
C791 C796 1.350 . S
C791 N799 1.427 . S
C792 H783 0.930 . S
C792 C790 1.378 . S
C792 C793 1.367 . S
C793 C792 1.367 . S
C793 C795 1.433 . S
C794 C790 1.350 . S
C794 C791 1.463 . S
C794 N798 1.427 . S
C795 H785 0.929 . S
C795 C793 1.433 . S
C795 N798 1.384 . S
C796 H787 0.929 . S
C796 C788 1.378 1_556 S
C796 C791 1.350 . S
C797 H784 0.929 . S
C797 C789 1.433 . S
C797 N799 1.384 1_554 S
N798 C794 1.427 . S
N798 C795 1.384 . S
N799 C791 1.427 . S
N799 C797 1.384 1_556 S
H800 C806 0.930 . S
H801 C810 0.930 . S
H802 C815 0.929 . S
H803 C813 0.929 . S
H804 C808 0.929 1_655 S
H805 C814 0.929 . S
C806 H800 0.930 . S
C806 C807 1.367 . S
C806 C814 1.378 . S
C807 C806 1.367 . S
C807 C815 1.433 . S
C808 H804 0.929 1_455 S
C808 C810 1.378 1_455 S
C808 C812 1.350 . S
C809 C812 1.463 . S
C809 C814 1.350 . S
C809 N817 1.427 . S
C810 H801 0.930 . S
C810 C808 1.378 1_655 S
C810 C811 1.353 1_655 S
C811 C810 1.353 1_455 S
C811 C813 1.462 . S
C812 C808 1.350 . S
C812 C809 1.463 . S
C812 N816 1.427 . S
C813 H803 0.929 . S
C813 C811 1.462 . S
C813 N816 1.384 . S
C814 H805 0.929 . S
C814 C806 1.378 . S
C814 C809 1.350 . S
C815 H802 0.929 . S
C815 C807 1.433 . S
C815 N817 1.384 . S
N816 C812 1.427 . S
N816 C813 1.384 . S
N817 C809 1.427 . S
N817 C815 1.384 . S
H818 C824 0.930 . S
H819 C828 0.930 . S
H820 C833 0.929 . S
H821 C831 0.930 . S
H822 C826 0.929 . S
H823 C832 0.929 . S
C824 H818 0.930 . S
C824 C825 1.367 . S
C824 C832 1.378 . S
C825 C824 1.367 . S
C825 C833 1.433 . S
C826 H822 0.929 . S
C826 C828 1.378 . S
C826 C830 1.350 . S
C827 C830 1.463 . S
C827 C832 1.350 . S
C827 N835 1.427 . S
C828 H819 0.930 . S
C828 C826 1.378 . S
C828 C829 1.367 . S
C829 C828 1.367 . S
C829 C831 1.433 1_545 S
C830 C826 1.350 . S
C830 C827 1.463 . S
C830 N834 1.427 . S
C831 H821 0.930 . S
C831 C829 1.433 1_565 S
C831 N834 1.383 1_565 S
C832 H823 0.929 . S
C832 C824 1.378 . S
C832 C827 1.350 . S
C833 H820 0.929 . S
C833 C825 1.433 . S
C833 N835 1.384 . S
N834 C830 1.427 . S
N834 C831 1.383 1_545 S
N835 C827 1.427 . S
N835 C833 1.384 . S
H836 C842 0.930 . S
H837 C846 0.930 . S
H838 C851 0.929 . S
H839 C849 0.929 . S
H840 C844 0.929 . S
H841 C850 0.929 . S
C842 H836 0.930 . S
C842 C843 1.367 . S
C842 C850 1.378 . S
C843 C842 1.367 . S
C843 C851 1.433 . S
C844 H840 0.929 . S
C844 C846 1.378 . S
C844 C848 1.350 . S
C845 C848 1.463 . S
C845 C850 1.350 . S
C845 N853 1.427 . S
C846 H837 0.930 . S
C846 C844 1.378 . S
C846 C847 1.367 . S
C847 C846 1.367 . S
C847 C849 1.433 . S
C848 C844 1.350 . S
C848 C845 1.463 . S
C848 N852 1.427 . S
C849 H839 0.929 . S
C849 C847 1.433 . S
C849 N852 1.384 . S
C850 H841 0.929 . S
C850 C842 1.378 . S
C850 C845 1.350 . S
C851 H838 0.929 . S
C851 C843 1.433 . S
C851 N853 1.384 . S
N852 C848 1.427 . S
N852 C849 1.384 . S
N853 C845 1.427 . S
N853 C851 1.384 . S
H854 C860 0.930 . S
H855 C864 0.930 . S
H856 C869 0.929 . S
H857 C867 0.929 . S
H858 C862 0.929 . S
H859 C868 0.929 . S
C860 H854 0.930 . S
C860 C861 1.367 . S
C860 C868 1.378 . S
C861 C860 1.367 . S
C861 C869 1.433 . S
C862 H858 0.929 . S
C862 C864 1.378 . S
C862 C866 1.350 . S
C863 C866 1.463 . S
C863 C868 1.350 . S
C863 N871 1.427 . S
C864 H855 0.930 . S
C864 C862 1.378 . S
C864 C865 1.367 . S
C865 C864 1.367 . S
C865 C867 1.433 . S
C866 C862 1.350 . S
C866 C863 1.463 . S
C866 N870 1.427 . S
C867 H857 0.929 . S
C867 C865 1.433 . S
C867 N870 1.384 . S
C868 H859 0.929 . S
C868 C860 1.378 . S
C868 C863 1.350 . S
C869 H856 0.929 . S
C869 C861 1.433 . S
C869 N871 1.384 . S
N870 C866 1.427 . S
N870 C867 1.384 . S
N871 C863 1.427 . S
N871 C869 1.384 . S
H872 C878 0.930 . S
H873 C882 0.930 . S
H874 C887 0.929 . S
H875 C885 0.929 . S
H876 C880 0.929 . S
H877 C886 0.929 1_554 S
C878 H872 0.930 . S
C878 C879 1.367 1_554 S
C878 C886 1.378 1_554 S
C879 C878 1.367 1_556 S
C879 C887 1.433 . S
C880 H876 0.929 . S
C880 C882 1.378 . S
C880 C884 1.350 . S
C881 C884 1.463 . S
C881 C886 1.350 . S
C881 N889 1.427 . S
C882 H873 0.930 . S
C882 C880 1.378 . S
C882 C883 1.367 1_655 S
C883 C882 1.367 1_455 S
C883 C885 1.433 . S
C884 C880 1.350 . S
C884 C881 1.463 . S
C884 N888 1.427 1_655 S
C885 H875 0.929 . S
C885 C883 1.433 . S
C885 N888 1.384 . S
C886 H877 0.929 1_556 S
C886 C878 1.378 1_556 S
C886 C881 1.350 . S
C887 H874 0.929 . S
C887 C879 1.433 . S
C887 N889 1.384 . S
N888 C884 1.427 1_455 S
N888 C885 1.384 . S
N889 C881 1.427 . S
N889 C887 1.384 . S
H890 C896 0.930 . S
H891 C900 0.939 . S
H892 C905 0.929 . S
H893 C903 0.929 . S
H894 C898 0.929 . S
H895 C904 0.929 . S
C896 H890 0.930 . S
C896 C897 1.367 . S
C896 C904 1.378 . S
C897 C896 1.367 . S
C897 C905 1.433 1_556 S
C898 H894 0.929 . S
C898 C900 1.402 . S
C898 C902 1.350 . S
C899 C902 1.463 . S
C899 C904 1.350 . S
C899 N907 1.427 . S
C900 H891 0.939 . S
C900 C898 1.402 . S
C900 C901 1.336 1_565 S
C901 C900 1.336 1_545 S
C901 C903 1.433 . S
C902 C898 1.350 . S
C902 C899 1.463 . S
C902 N906 1.427 1_565 S
C903 H893 0.929 . S
C903 C901 1.433 . S
C903 N906 1.384 . S
C904 H895 0.929 . S
C904 C896 1.378 . S
C904 C899 1.350 . S
C905 H892 0.929 . S
C905 C897 1.433 1_554 S
C905 N907 1.384 1_554 S
N906 C902 1.427 1_545 S
N906 C903 1.384 . S
N907 C899 1.427 . S
N907 C905 1.384 1_556 S
H908 C914 0.930 . S
H909 C918 0.930 . S
H910 C923 0.929 . S
H911 C921 0.929 . S
H912 C916 0.929 . S
H913 C922 0.929 . S
C914 H908 0.930 . S
C914 C915 1.367 . S
C914 C922 1.378 . S
C915 C914 1.367 . S
C915 C923 1.433 1_556 S
C916 H912 0.929 . S
C916 C918 1.378 . S
C916 C920 1.350 . S
C917 C920 1.463 . S
C917 C922 1.350 . S
C917 N925 1.427 . S
C918 H909 0.930 . S
C918 C916 1.378 . S
C918 C919 1.367 . S
C919 C918 1.367 . S
C919 C921 1.433 . S
C920 C916 1.350 . S
C920 C917 1.463 . S
C920 N924 1.427 . S
C921 H911 0.929 . S
C921 C919 1.433 . S
C921 N924 1.384 . S
C922 H913 0.929 . S
C922 C914 1.378 . S
C922 C917 1.350 . S
C923 H910 0.929 . S
C923 C915 1.433 1_554 S
C923 N925 1.384 1_554 S
N924 C920 1.427 . S
N924 C921 1.384 . S
N925 C917 1.427 . S
N925 C923 1.384 1_556 S
H926 C932 0.930 . S
H927 C936 0.930 . S
H928 C941 0.929 . S
H929 C939 0.929 . S
H930 C934 0.929 . S
H931 C940 0.929 . S
C932 H926 0.930 . S
C932 C933 1.367 . S
C932 C940 1.378 . S
C933 C932 1.367 . S
C933 C941 1.433 1_556 S
C934 H930 0.929 . S
C934 C936 1.378 . S
C934 C938 1.350 . S
C935 C938 1.463 . S
C935 C940 1.350 . S
C935 N943 1.427 . S
C936 H927 0.930 . S
C936 C934 1.378 . S
C936 C937 1.367 . S
C937 C936 1.367 . S
C937 C939 1.433 . S
C938 C934 1.350 . S
C938 C935 1.463 . S
C938 N942 1.427 . S
C939 H929 0.929 . S
C939 C937 1.433 . S
C939 N942 1.384 . S
C940 H931 0.929 . S
C940 C932 1.378 . S
C940 C935 1.350 . S
C941 H928 0.929 . S
C941 C933 1.433 1_554 S
C941 N943 1.384 1_554 S
N942 C938 1.427 . S
N942 C939 1.384 . S
N943 C935 1.427 . S
N943 C941 1.384 1_556 S
H944 C950 0.930 . S
H945 C954 0.930 . S
H946 C959 0.929 . S
H947 C957 0.929 . S
H948 C952 0.929 . S
H949 C958 0.929 . S
C950 H944 0.930 . S
C950 C951 1.367 . S
C950 C958 1.378 . S
C951 C950 1.367 . S
C951 C959 1.433 . S
C952 H948 0.929 . S
C952 C954 1.378 . S
C952 C956 1.350 . S
C953 C956 1.463 . S
C953 C958 1.350 . S
C953 N961 1.427 . S
C954 H945 0.930 . S
C954 C952 1.378 . S
C954 C955 1.367 . S
C955 C954 1.367 . S
C955 C957 1.433 . S
C956 C952 1.350 . S
C956 C953 1.463 . S
C956 N960 1.427 . S
C957 H947 0.929 . S
C957 C955 1.433 . S
C957 N960 1.384 . S
C958 H949 0.929 . S
C958 C950 1.378 . S
C958 C953 1.350 . S
C959 H946 0.929 . S
C959 C951 1.433 . S
C959 N961 1.384 . S
N960 C956 1.427 . S
N960 C957 1.384 . S
N961 C953 1.427 . S
N961 C959 1.384 . S
H962 C968 0.930 . S
H963 C972 0.930 1_565 S
H964 C977 0.929 . S
H965 C975 0.929 . S
H966 C970 0.920 1_565 S
H967 C976 0.929 . S
C968 H962 0.930 . S
C968 C969 1.367 . S
C968 C976 1.378 . S
C969 C968 1.367 . S
C969 C977 1.433 . S
C970 H966 0.920 1_545 S
C970 C972 1.378 . S
C970 C974 1.350 . S
C971 C974 1.463 . S
C971 C976 1.350 . S
C971 N979 1.427 . S
C972 H963 0.930 1_545 S
C972 C970 1.378 . S
C972 C973 1.367 . S
C973 C972 1.367 . S
C973 C975 1.433 . S
C974 C970 1.350 . S
C974 C971 1.463 . S
C974 N978 1.427 . S
C975 H965 0.929 . S
C975 C973 1.433 . S
C975 N978 1.384 . S
C976 H967 0.929 . S
C976 C968 1.378 . S
C976 C971 1.350 . S
C977 H964 0.929 . S
C977 C969 1.433 . S
C977 N979 1.384 . S
N978 C974 1.427 . S
N978 C975 1.384 . S
N979 C971 1.427 . S
N979 C977 1.384 . S
H980 C986 0.930 . S
H981 C990 0.930 . S
H982 C995 0.929 . S
H983 C993 0.929 . S
H984 C988 0.929 . S
H985 C994 0.929 . S
C986 H980 0.930 . S
C986 C987 1.367 . S
C986 C994 1.378 . S
C987 C986 1.367 . S
C987 C995 1.433 . S
C988 H984 0.929 . S
C988 C990 1.378 . S
C988 C992 1.350 . S
C989 C992 1.463 . S
C989 C994 1.350 . S
C989 N997 1.427 . S
C990 H981 0.930 . S
C990 C988 1.378 . S
C990 C991 1.367 . S
C991 C990 1.367 . S
C991 C993 1.433 . S
C992 C988 1.350 . S
C992 C989 1.463 . S
C992 N996 1.427 . S
C993 H983 0.929 . S
C993 C991 1.433 . S
C993 N996 1.384 . S
C994 H985 0.929 . S
C994 C986 1.378 . S
C994 C989 1.350 . S
C995 H982 0.929 . S
C995 C987 1.433 . S
C995 N997 1.384 . S
N996 C992 1.427 . S
N996 C993 1.384 . S
N997 C989 1.427 . S
N997 C995 1.384 . S
H998 C1004 0.930 . S
H999 C1008 0.930 . S
H1000 C1013 0.929 . S
H1001 C1011 0.929 . S
H1002 C1006 0.929 . S
H1003 C1012 0.929 . S
C1004 H998 0.930 . S
C1004 C1005 1.367 . S
C1004 C1012 1.378 . S
C1005 C1004 1.367 . S
C1005 C1013 1.433 . S
C1006 H1002 0.929 . S
C1006 C1008 1.378 . S
C1006 C1010 1.350 . S
C1007 C1010 1.463 . S
C1007 C1012 1.350 . S
C1007 N1015 1.427 . S
C1008 H999 0.930 . S
C1008 C1006 1.378 . S
C1008 C1009 1.367 . S
C1009 C1008 1.367 . S
C1009 C1011 1.433 . S
C1010 C1006 1.350 . S
C1010 C1007 1.463 . S
C1010 N1014 1.427 . S
C1011 H1001 0.929 . S
C1011 C1009 1.433 . S
C1011 N1014 1.384 . S
C1012 H1003 0.929 . S
C1012 C1004 1.378 . S
C1012 C1007 1.350 . S
C1013 H1000 0.929 . S
C1013 C1005 1.433 . S
C1013 N1015 1.384 . S
N1014 C1010 1.427 . S
N1014 C1011 1.384 . S
N1015 C1007 1.427 . S
N1015 C1013 1.384 . S
H1016 C1022 0.930 . S
H1017 C1026 0.930 . S
H1018 C1031 0.953 . S
H1019 C1029 0.929 . S
H1020 C1024 0.929 1_455 S
H1021 C1030 0.929 . S
C1022 H1016 0.930 . S
C1022 C1023 1.367 . S
C1022 C1030 1.378 . S
C1023 C1022 1.367 . S
C1023 C1031 1.433 . S
C1024 H1020 0.929 1_655 S
C1024 C1026 1.378 1_655 S
C1024 C1028 1.350 . S
C1025 C1028 1.463 . S
C1025 C1030 1.350 . S
C1025 N1033 1.427 . S
C1026 H1017 0.930 . S
C1026 C1024 1.378 1_455 S
C1026 C1027 1.367 1_455 S
C1027 C1026 1.367 1_655 S
C1027 C1029 1.433 . S
C1028 C1024 1.350 . S
C1028 C1025 1.463 . S
C1028 N1032 1.427 . S
C1029 H1019 0.929 . S
C1029 C1027 1.433 . S
C1029 N1032 1.384 . S
C1030 H1021 0.929 . S
C1030 C1022 1.378 . S
C1030 C1025 1.350 . S
C1031 H1018 0.953 . S
C1031 C1023 1.433 . S
C1031 N1033 1.384 . S
N1032 C1028 1.427 . S
N1032 C1029 1.384 . S
N1033 C1025 1.427 . S
N1033 C1031 1.384 . S
H1034 C1040 0.930 . S
H1035 C1044 0.930 1_545 S
H1036 C1049 0.929 . S
H1037 C1047 0.929 . S
H1038 C1042 0.944 . S
H1039 C1048 0.929 . S
C1040 H1034 0.930 . S
C1040 C1041 1.367 . S
C1040 C1048 1.378 . S
C1041 C1040 1.367 . S
C1041 C1049 1.433 . S
C1042 H1038 0.944 . S
C1042 C1044 1.378 . S
C1042 C1046 1.350 . S
C1043 C1046 1.463 . S
C1043 C1048 1.350 . S
C1043 N1051 1.427 . S
C1044 H1035 0.930 1_565 S
C1044 C1042 1.378 . S
C1044 C1045 1.367 . S
C1045 C1044 1.367 . S
C1045 C1047 1.433 . S
C1046 C1042 1.350 . S
C1046 C1043 1.463 . S
C1046 N1050 1.427 . S
C1047 H1037 0.929 . S
C1047 C1045 1.433 . S
C1047 N1050 1.384 . S
C1048 H1039 0.929 . S
C1048 C1040 1.378 . S
C1048 C1043 1.350 . S
C1049 H1036 0.929 . S
C1049 C1041 1.433 . S
C1049 N1051 1.384 . S
N1050 C1046 1.427 . S
N1050 C1047 1.384 . S
N1051 C1043 1.427 . S
N1051 C1049 1.384 . S
H1052 C1058 0.930 . S
H1053 C1062 0.930 . S
H1054 C1067 0.929 . S
H1055 C1065 0.929 . S
H1056 C1060 0.929 . S
H1057 C1066 0.929 . S
C1058 H1052 0.930 . S
C1058 C1059 1.367 . S
C1058 C1066 1.378 . S
C1059 C1058 1.367 . S
C1059 C1067 1.433 . S
C1060 H1056 0.929 . S
C1060 C1062 1.378 . S
C1060 C1064 1.350 . S
C1061 C1064 1.463 . S
C1061 C1066 1.350 . S
C1061 N1069 1.427 . S
C1062 H1053 0.930 . S
C1062 C1060 1.378 . S
C1062 C1063 1.367 . S
C1063 C1062 1.367 . S
C1063 C1065 1.433 . S
C1064 C1060 1.350 . S
C1064 C1061 1.463 . S
C1064 N1068 1.427 . S
C1065 H1055 0.929 . S
C1065 C1063 1.433 . S
C1065 N1068 1.384 . S
C1066 H1057 0.929 . S
C1066 C1058 1.378 . S
C1066 C1061 1.350 . S
C1067 H1054 0.929 . S
C1067 C1059 1.433 . S
C1067 N1069 1.384 . S
N1068 C1064 1.427 . S
N1068 C1065 1.384 . S
N1069 C1061 1.427 . S
N1069 C1067 1.384 . S
H1070 C1076 0.930 . S
H1071 C1080 0.930 . S
H1072 C1085 0.929 . S
H1073 C1083 0.929 . S
H1074 C1078 0.929 . S
H1075 C1084 0.929 . S
C1076 H1070 0.930 . S
C1076 C1077 1.367 . S
C1076 C1084 1.378 . S
C1077 C1076 1.367 . S
C1077 C1085 1.433 . S
C1078 H1074 0.929 . S
C1078 C1080 1.378 . S
C1078 C1082 1.350 . S
C1079 C1082 1.463 . S
C1079 C1084 1.350 . S
C1079 N1087 1.427 . S
C1080 H1071 0.930 . S
C1080 C1078 1.378 . S
C1080 C1081 1.367 . S
C1081 C1080 1.367 . S
C1081 C1083 1.433 . S
C1082 C1078 1.350 . S
C1082 C1079 1.463 . S
C1082 N1086 1.427 . S
C1083 H1073 0.929 . S
C1083 C1081 1.433 . S
C1083 N1086 1.384 . S
C1084 H1075 0.929 . S
C1084 C1076 1.378 . S
C1084 C1079 1.350 . S
C1085 H1072 0.929 . S
C1085 C1077 1.433 . S
C1085 N1087 1.384 . S
N1086 C1082 1.427 . S
N1086 C1083 1.384 . S
N1087 C1079 1.427 . S
N1087 C1085 1.384 . S
C663 C255 2.395 . S
C667 C383 2.560 . S
C685 C460 2.574 . S
C681 C295 2.413 . S
C703 C551 2.563 . S
C699 C175 2.399 . S
C721 C635 2.548 . S
C717 C215 2.385 . S
C739 C394 2.560 1_565 S
C735 C95 2.389 . S
C753 C135 2.394 . S
C757 C471 2.566 . S
C771 C15 2.389 . S
C775 C562 2.559 . S
C789 C55 2.365 . S
C793 C646 2.540 1_655 S
C811 C378 0.462 1_455 S
C807 C221 0.475 . S
C829 C473 0.562 . S
C825 C261 0.440 . S
C847 C546 0.532 . S
C843 C301 0.494 . S
C861 C181 0.451 . S
C865 C630 0.483 . S
C879 C61 0.543 . S
C883 C389 0.510 . S
C901 C462 0.518 . S
C897 C101 0.553 . S
C919 C557 0.513 . S
C915 C141 0.593 1_556 S
C933 C21 0.579 . S
C937 C641 0.491 . S
C951 C202 2.921 . S
C955 C387 3.150 . S
C969 C242 2.918 . S
C973 C478 3.211 . S
C991 C555 3.172 . S
C987 C282 2.943 . S
C1009 C639 3.170 . S
C1005 C162 2.937 . S
C1023 C42 2.881 . S
C1027 C376 3.149 . S
C1045 C467 3.219 . S
C1041 C82 2.871 . S
C1063 C544 3.173 . S
C1059 C122 2.899 . S
C1077 C2 2.903 . S
C1081 C628 3.173 . S
