# Generated by pormake.
# Topology nia, (6,6)-cn, num edge types: 1
# Building blocks:
#     Node 0, Type 0, BuildingBlock: INOVEN_clean_sbu_0, # of connection points: 6
#     Node 1, Type 0, BuildingBlock: INOVEN_clean_sbu_0, # of connection points: 6
#     Node 2, Type 1, BuildingBlock: MIDCAF_clean_sbu_0, # of connection points: 6
#     Node 3, Type 1, BuildingBlock: MIDCAF_clean_sbu_0, # of connection points: 6
#     Edge 4, Type (0, 1), BuildingBlock: CIFDUS_clean_linker_0, # of connection points: 2
#     Edge 5, Type (0, 1), BuildingBlock: CIFDUS_clean_linker_0, # of connection points: 2
#     Edge 6, Type (0, 1), BuildingBlock: CIFDUS_clean_linker_0, # of connection points: 2
#     Edge 7, Type (0, 1), BuildingBlock: CIFDUS_clean_linker_0, # of connection points: 2
#     Edge 8, Type (0, 1), BuildingBlock: CIFDUS_clean_linker_0, # of connection points: 2
#     Edge 9, Type (0, 1), BuildingBlock: CIFDUS_clean_linker_0, # of connection points: 2
#     Edge 10, Type (0, 1), BuildingBlock: CIFDUS_clean_linker_0, # of connection points: 2
#     Edge 11, Type (0, 1), BuildingBlock: CIFDUS_clean_linker_0, # of connection points: 2
#     Edge 12, Type (0, 1), BuildingBlock: CIFDUS_clean_linker_0, # of connection points: 2
#     Edge 13, Type (0, 1), BuildingBlock: CIFDUS_clean_linker_0, # of connection points: 2
#     Edge 14, Type (0, 1), BuildingBlock: CIFDUS_clean_linker_0, # of connection points: 2
#     Edge 15, Type (0, 1), BuildingBlock: CIFDUS_clean_linker_0, # of connection points: 2
# Relax obj value: 0.346
# Max RMSD: 0.275
# Mean RMSD: 0.258
data_MOF--net-nia--node1-INOVEN_clean_sbu_0--node2-MIDCAF_clean_sbu_0--edge1-CIFDUS_clean_linker_0
_symmetry_space_group_name_H-M    P1
_symmetry_Int_Tables_number       1
_symmetry_cell_setting            triclinic
loop_
_symmetry_equiv_pos_as_xyz
'x, y, z'
_cell_length_a     22.584522
_cell_length_b     25.542202
_cell_length_c     30.439989
_cell_angle_alpha  68.756135
_cell_angle_beta   103.87927
_cell_angle_gamma 128.59546
loop_
_atom_site_label
_atom_site_type_symbol
_atom_site_fract_x
_atom_site_fract_y
_atom_site_fract_z
_atom_type_partial_charge
Gd0 Gd 0.0855 0.03829 0.06034 0.0
Gd1 Gd 0.98249 0.9548 0.99589 0.0
C2 C 0.99037 0.0881 0.99233 0.0
C3 C 0.19519 0.10444 0.11548 0.0
C4 C 0.20821 0.14173 0.1473 0.0
C5 C 0.16295 0.16322 0.14345 0.0
C6 C 0.2664 0.15655 0.1814 0.0
C7 C 0.24062 0.22267 0.20365 0.0
C8 C 0.28244 0.19668 0.20962 0.0
C9 C 0.17919 0.20364 0.17129 0.0
C10 C 0.94007 0.95392 0.08851 0.0
C11 C 0.07544 0.90369 0.06599 0.0
C12 C 0.87404 0.88817 0.94011 0.0
C13 C 0.86223 0.85528 0.90514 0.0
C14 C 0.9232 0.87868 0.88031 0.0
C15 C 0.78928 0.79838 0.89754 0.0
C16 C 0.83899 0.78401 0.84366 0.0
C17 C 0.77766 0.76292 0.8671 0.0
C18 C 0.91158 0.84349 0.84958 0.0
C19 C 0.12878 0.04089 0.96822 0.0
O20 O 0.05528 0.11135 1.01627 0.0
O21 O 0.9485 0.025 0.98674 0.0
O22 O 0.14223 0.03733 0.12838 0.0
O23 O 0.19161 0.13343 0.07051 0.0
O24 O 0.99095 0.01532 0.09452 0.0
O25 O 0.96943 0.93697 0.07085 0.0
O26 O 0.01102 0.8808 0.04156 0.0
O27 O 0.11807 0.96719 0.07065 0.0
O28 O 0.92288 0.95605 0.92901 0.0
O29 O 0.88048 0.85766 0.98409 0.0
O30 O 0.07901 0.97936 0.96227 0.0
O31 O 0.09776 0.0566 0.98541 0.0
H32 H 0.11704 0.1511 0.1176 0.0
H33 H 0.30078 0.13893 0.18517 0.0
H34 H 0.32952 0.20992 0.23461 0.0
H35 H 0.14656 0.22364 0.16512 0.0
H36 H 0.98003 0.92294 0.88559 0.0
H37 H 0.74167 0.7799 0.91639 0.0
H38 H 0.72126 0.71659 0.86411 0.0
H39 H 0.95979 0.8613 0.83176 0.0
Gd40 Gd 0.9976 0.02012 0.55529 0.0
Gd41 Gd 0.0811 0.98634 0.51259 0.0
C42 C 0.92788 0.96698 0.46281 0.0
C43 C 0.95822 0.08267 0.57782 0.0
C44 C 0.95089 0.1065 0.61227 0.0
C45 C 0.90904 0.06024 0.65368 0.0
C46 C 0.97874 0.17664 0.59982 0.0
C47 C 0.91621 0.15285 0.66647 0.0
C48 C 0.96148 0.19959 0.62656 0.0
C49 C 0.89223 0.08349 0.68083 0.0
C50 C 0.95105 0.88536 0.58841 0.0
C51 C 0.15803 0.05224 0.6024 0.0
C52 C 0.12476 0.92316 0.49567 0.0
C53 C 0.15055 0.91931 0.45732 0.0
C54 C 0.10013 0.88562 0.4231 0.0
C55 C 0.22655 0.94509 0.45738 0.0
C56 C 0.20106 0.90092 0.39129 0.0
C57 C 0.25153 0.9362 0.4248 0.0
C58 C 0.1252 0.87656 0.39038 0.0
C59 C 0.11722 0.11655 0.46356 0.0
O60 O 0.9405 0.00948 0.48467 0.0
O61 O 0.96817 0.94232 0.47296 0.0
O62 O 0.02619 0.11418 0.56376 0.0
O63 O 0.91208 0.01628 0.57974 0.0
O64 O 0.90798 0.90428 0.5848 0.0
O65 O 0.01825 0.93929 0.57812 0.0
O66 O 0.16034 0.02566 0.57313 0.0
O67 O 0.10102 0.0543 0.60274 0.0
O68 O 0.05312 0.89721 0.49621 0.0
O69 O 0.17107 0.98072 0.50868 0.0
O70 O 0.14404 0.08961 0.45369 0.0
O71 O 0.07327 0.0716 0.49748 0.0
H72 H 0.88672 0.00577 0.66392 0.0
H73 H 0.01081 0.21313 0.56792 0.0
H74 H 0.98111 0.25341 0.61501 0.0
H75 H 0.85697 0.04648 0.71142 0.0
H76 H 0.04103 0.86482 0.42225 0.0
H77 H 0.26646 0.97034 0.48373 0.0
H78 H 0.30987 0.9543 0.42739 0.0
H79 H 0.08493 0.84945 0.36491 0.0
Zn80 Zn 0.37704 0.68978 0.1709 0.0
Zn81 Zn 0.39345 0.65769 0.35643 0.0
Zn82 Zn 0.3978 0.6836 0.26328 0.0
C83 C 0.54834 0.75449 0.32467 0.0
C84 C 0.32446 0.52844 0.34808 0.0
O85 O 0.33409 0.73068 0.22564 0.0
O86 O 0.32094 0.73172 0.1509 0.0
C87 C 0.53695 0.76565 0.19358 0.0
O88 O 0.5189 0.74709 0.28356 0.0
O89 O 0.50675 0.72238 0.36008 0.0
O90 O 0.33921 0.55459 0.38074 0.0
O91 O 0.34273 0.56835 0.30518 0.0
O92 O 0.48859 0.74624 0.16065 0.0
O93 O 0.51504 0.75033 0.2348 0.0
O94 O 0.33823 0.57998 0.2562 0.0
O95 O 0.31773 0.58841 0.17975 0.0
C96 C 0.31045 0.55204 0.222 0.0
O97 O 0.34015 0.72319 0.2746 0.0
O98 O 0.33644 0.69442 0.35247 0.0
C99 C 0.30915 0.74427 0.18311 0.0
C100 C 0.32109 0.72152 0.31205 0.0
Zn101 Zn 0.70056 0.31852 0.88665 0.0
Zn102 Zn 0.67951 0.358 0.65493 0.0
Zn103 Zn 0.6769 0.31816 0.79886 0.0
C104 C 0.74828 0.47382 0.69892 0.0
C105 C 0.55685 0.25933 0.73547 0.0
O106 O 0.74014 0.2703 0.8375 0.0
O107 O 0.75221 0.27123 0.91155 0.0
C108 C 0.77119 0.45711 0.82559 0.0
O109 O 0.72884 0.42982 0.74148 0.0
O110 O 0.73486 0.45509 0.66176 0.0
O111 O 0.62131 0.30361 0.71664 0.0
O112 O 0.5568 0.25073 0.77943 0.0
O113 O 0.76716 0.42287 0.8683 0.0
O114 O 0.73727 0.42613 0.79302 0.0
O115 O 0.56002 0.25299 0.82643 0.0
O116 O 0.58881 0.26632 0.89819 0.0
C117 C 0.5392 0.24211 0.86669 0.0
O118 O 0.73129 0.27606 0.79009 0.0
O119 O 0.69942 0.3151 0.7212 0.0
C120 C 0.76322 0.25621 0.88051 0.0
C121 C 0.73119 0.28686 0.74586 0.0
H122 H 0.18254 0.92119 0.13551 0.0
H123 H 0.03476 0.78992 0.04334 0.0
H124 H 0.09191 0.72726 0.07307 0.0
H125 H 0.18909 0.71419 0.12217 0.0
H126 H 0.33681 0.84609 0.21354 0.0
H127 H 0.27369 0.90322 0.18808 0.0
C128 C 0.16237 0.87859 0.12201 0.0
C129 C 0.10461 0.8608 0.08678 0.0
C130 C 0.19538 0.84269 0.13942 0.0
C131 C 0.07886 0.80483 0.07033 0.0
C132 C 0.11183 0.76915 0.08725 0.0
C133 C 0.20693 0.75504 0.13681 0.0
C134 C 0.26679 0.77501 0.17057 0.0
C135 C 0.17087 0.78827 0.12129 0.0
C136 C 0.28937 0.82814 0.18897 0.0
C137 C 0.25394 0.8615 0.17376 0.0
H138 H 0.30308 0.10449 0.59191 0.0
H139 H 0.16036 0.07219 0.68563 0.0
H140 H 0.27025 0.13109 0.73641 0.0
H141 H 0.40885 0.19652 0.75242 0.0
H142 H 0.55049 0.23349 0.65531 0.0
H143 H 0.43969 0.16891 0.60764 0.0
C144 C 0.29577 0.10956 0.62373 0.0
C145 C 0.22345 0.08348 0.63506 0.0
C146 C 0.35943 0.14518 0.652 0.0
C147 C 0.21538 0.09172 0.67605 0.0
C148 C 0.27826 0.12554 0.70509 0.0
C149 C 0.41513 0.18978 0.72108 0.0
C150 C 0.48783 0.21967 0.70754 0.0
C151 C 0.35084 0.1532 0.69318 0.0
C152 C 0.49529 0.21155 0.66635 0.0
C153 C 0.43187 0.1743 0.63911 0.0
H154 H 0.15688 0.24084 0.23948 0.0
H155 H 0.38692 0.33234 0.21203 0.0
H156 H 0.42966 0.44162 0.22138 0.0
H157 H 0.39818 0.51725 0.22141 0.0
H158 H 0.1687 0.43076 0.24378 0.0
H159 H 0.12823 0.31348 0.25107 0.0
C160 C 0.21653 0.28441 0.23641 0.0
C161 C 0.26824 0.27897 0.224 0.0
C162 C 0.24023 0.34841 0.23932 0.0
C163 C 0.34576 0.33492 0.22158 0.0
C164 C 0.37021 0.39795 0.22613 0.0
C165 C 0.33952 0.47226 0.22839 0.0
C166 C 0.28578 0.4813 0.23127 0.0
C167 C 0.31734 0.4062 0.23228 0.0
C168 C 0.21018 0.42384 0.24093 0.0
C169 C 0.18743 0.35728 0.24523 0.0
H170 H 0.84513 0.21264 0.62407 0.0
H171 H 0.9225 0.14171 0.76033 0.0
H172 H 0.87548 0.18051 0.79701 0.0
H173 H 0.8128 0.2356 0.78928 0.0
H174 H 0.72752 0.29729 0.6532 0.0
H175 H 0.7794 0.26334 0.61703 0.0
C176 C 0.85208 0.20612 0.66178 0.0
C177 C 0.88778 0.17516 0.6895 0.0
C178 C 0.82394 0.22732 0.68244 0.0
C179 C 0.8952 0.16556 0.73841 0.0
C180 C 0.86853 0.18786 0.75926 0.0
C181 C 0.80448 0.2404 0.75199 0.0
C182 C 0.76544 0.26812 0.7243 0.0
C183 C 0.83264 0.21872 0.73155 0.0
C184 C 0.7573 0.27623 0.67551 0.0
C185 C 0.7867 0.25652 0.65474 0.0
H186 H 0.89001 0.96473 0.15556 0.0
H187 H 0.81428 0.83934 0.06265 0.0
H188 H 0.68363 0.76954 0.08798 0.0
H189 H 0.59032 0.74769 0.13373 0.0
H190 H 0.66576 0.86828 0.23005 0.0
H191 H 0.79736 0.93582 0.20686 0.0
C192 C 0.84494 0.92174 0.14111 0.0
C193 C 0.86186 0.90753 0.1069 0.0
C194 C 0.77004 0.88111 0.15652 0.0
C195 C 0.80294 0.8513 0.08894 0.0
C196 C 0.72818 0.81157 0.10335 0.0
C197 C 0.63559 0.78863 0.14985 0.0
C198 C 0.61796 0.80331 0.18337 0.0
C199 C 0.71097 0.82655 0.13665 0.0
C200 C 0.67754 0.85568 0.20441 0.0
C201 C 0.75277 0.89456 0.19087 0.0
H202 H 0.81555 0.77104 0.62887 0.0
H203 H 0.03306 0.83483 0.6003 0.0
H204 H 0.99276 0.71455 0.63657 0.0
H205 H 0.89232 0.58891 0.67271 0.0
H206 H 0.6744 0.52594 0.69882 0.0
H207 H 0.71818 0.64748 0.66833 0.0
C208 C 0.85437 0.75879 0.6307 0.0
C209 C 0.92727 0.81225 0.6114 0.0
C210 C 0.83079 0.68935 0.65188 0.0
C211 C 0.97665 0.79503 0.6145 0.0
C212 C 0.95357 0.72609 0.6354 0.0
C213 C 0.85534 0.60229 0.67299 0.0
C214 C 0.78107 0.54856 0.69011 0.0
C215 C 0.88052 0.67256 0.65394 0.0
C216 C 0.73266 0.56639 0.68792 0.0
C217 C 0.75744 0.63591 0.66978 0.0
H218 H 0.12455 0.77922 0.36813 0.0
H219 H 0.33639 0.9855 0.34633 0.0
H220 H 0.38959 0.9505 0.312 0.0
H221 H 0.38234 0.85576 0.30073 0.0
H222 H 0.17133 0.64998 0.32283 0.0
H223 H 0.11055 0.69051 0.34336 0.0
C224 C 0.18152 0.81728 0.35452 0.0
C225 C 0.22691 0.88445 0.36089 0.0
C226 C 0.21203 0.79667 0.33506 0.0
C227 C 0.30083 0.93285 0.34311 0.0
C228 C 0.3313 0.91297 0.32332 0.0
C229 C 0.32233 0.82078 0.30825 0.0
C230 C 0.28075 0.75048 0.30968 0.0
C231 C 0.28847 0.84422 0.32097 0.0
C232 C 0.20369 0.7047 0.32072 0.0
C233 C 0.16928 0.72772 0.33289 0.0
H234 H 0.18608 0.02873 0.90612 0.0
H235 H 0.24942 0.16053 0.991 0.0
H236 H 0.38121 0.23436 0.96681 0.0
H237 H 0.47957 0.25926 0.92356 0.0
H238 H 0.41549 0.13179 0.83497 0.0
H239 H 0.28302 0.05925 0.85781 0.0
C240 C 0.22869 0.07386 0.91914 0.0
C241 C 0.20788 0.08863 0.95085 0.0
C242 C 0.30428 0.11697 0.90421 0.0
C243 C 0.26373 0.14774 0.96687 0.0
C244 C 0.3392 0.18995 0.95302 0.0
C245 C 0.43653 0.21577 0.90906 0.0
C246 C 0.45765 0.201 0.87755 0.0
C247 C 0.36032 0.17472 0.92207 0.0
C248 C 0.40091 0.14487 0.85878 0.0
C249 C 0.32516 0.10304 0.87218 0.0
H250 H 0.22875 0.22107 0.39948 0.0
H251 H 0.06049 0.1772 0.47821 0.0
H252 H 0.10806 0.29972 0.44868 0.0
H253 H 0.2017 0.42127 0.40296 0.0
H254 H 0.3695 0.46538 0.32385 0.0
H255 H 0.31731 0.34141 0.34971 0.0
C256 C 0.20216 0.23824 0.40995 0.0
C257 C 0.1421 0.19 0.44217 0.0
C258 C 0.22954 0.30905 0.39222 0.0
C259 C 0.10799 0.21325 0.45478 0.0
C260 C 0.13495 0.28342 0.43752 0.0
C261 C 0.22616 0.40346 0.39097 0.0
C262 C 0.28827 0.45231 0.36041 0.0
C263 C 0.1964 0.33207 0.40675 0.0
C264 C 0.32004 0.42858 0.34581 0.0
C265 C 0.29081 0.35775 0.36124 0.0
H266 H 0.87375 0.06588 0.92912 0.0
H267 H 0.03819 0.20536 1.01344 0.0
H268 H 0.98328 0.26986 0.98598 0.0
H269 H 0.88564 0.28474 0.93953 0.0
H270 H 0.72281 0.14582 0.85483 0.0
H271 H 0.7799 0.08332 0.88068 0.0
C272 C 0.89793 0.11053 0.94149 0.0
C273 C 0.96013 0.13034 0.97363 0.0
C274 C 0.86618 0.1476 0.92535 0.0
C275 C 0.99066 0.18881 0.98874 0.0
C276 C 0.95901 0.22564 0.97312 0.0
C277 C 0.86303 0.24099 0.92657 0.0
C278 C 0.80065 0.22064 0.89463 0.0
C279 C 0.89639 0.20525 0.94168 0.0
C280 C 0.7716 0.16346 0.87857 0.0
C281 C 0.804 0.12743 0.89362 0.0
H282 H 0.87476 0.87513 0.41145 0.0
H283 H 0.83598 0.00842 0.43521 0.0
H284 H 0.72095 0.962 0.38732 0.0
H285 H 0.62203 0.87277 0.3479 0.0
H286 H 0.65628 0.73793 0.32327 0.0
H287 H 0.78267 0.79652 0.36103 0.0
C288 C 0.84176 0.89474 0.40556 0.0
C289 C 0.86375 0.94435 0.42795 0.0
C290 C 0.77462 0.86755 0.37767 0.0
C291 C 0.82042 0.9696 0.4193 0.0
C292 C 0.75432 0.94315 0.39172 0.0
C293 C 0.65845 0.858 0.34938 0.0
C294 C 0.63068 0.80181 0.33266 0.0
C295 C 0.7297 0.89071 0.37199 0.0
C296 C 0.67734 0.78196 0.33533 0.0
C297 C 0.74907 0.81486 0.35748 0.0
H298 H 0.93208 0.74905 0.84874 0.0
H299 H 0.72139 0.71323 0.78551 0.0
H300 H 0.68686 0.61205 0.76658 0.0
H301 H 0.705 0.52092 0.7843 0.0
H302 H 0.91426 0.55602 0.84847 0.0
H303 H 0.96169 0.67125 0.85077 0.0
C304 C 0.87996 0.72097 0.82914 0.0
C305 C 0.82848 0.73753 0.81961 0.0
C306 C 0.85985 0.66218 0.81934 0.0
C307 C 0.76103 0.70027 0.79435 0.0
C308 C 0.74121 0.64242 0.78359 0.0
C309 C 0.76249 0.55563 0.79631 0.0
C310 C 0.80697 0.53148 0.81523 0.0
C311 C 0.78838 0.62084 0.79827 0.0
C312 C 0.87982 0.57463 0.83319 0.0
C313 C 0.90661 0.6401 0.8347 0.0
loop_
_geom_bond_atom_site_label_1
_geom_bond_atom_site_label_2
_geom_bond_distance
_geom_bond_site_symmetry_2
_ccdc_geom_bond_type
Gd0 C3 2.818 . S
Gd0 O20 2.377 . S
Gd0 O22 2.448 . S
Gd0 O23 2.506 . S
Gd0 O24 2.435 1_445 S
Gd0 O25 2.717 1_445 S
Gd0 O27 2.395 1_545 S
Gd0 O31 2.327 1_554 S
Gd1 C12 2.818 . S
Gd1 O21 2.395 1_565 S
Gd1 O25 2.327 1_556 S
Gd1 O26 2.377 1_656 S
Gd1 O28 2.448 . S
Gd1 O29 2.506 . S
Gd1 O30 2.435 1_665 S
Gd1 O31 2.717 1_665 S
C2 O20 1.240 1_656 S
C2 O21 1.240 . S
C3 Gd0 2.818 . S
C3 C4 1.510 . S
C3 O22 1.249 . S
C3 O23 1.252 . S
C4 C3 1.510 . S
C4 C5 1.404 . S
C4 C6 1.352 . S
C5 C4 1.404 . S
C5 C9 1.389 . S
C5 H32 0.930 . S
C6 C4 1.352 . S
C6 C8 1.374 . S
C6 H33 0.931 . S
C7 C8 1.359 . S
C7 C9 1.364 . S
C8 C6 1.374 . S
C8 C7 1.359 . S
C8 H34 0.931 . S
C9 C5 1.389 . S
C9 C7 1.364 . S
C9 H35 0.931 . S
C10 O24 1.256 . S
C10 O25 1.257 . S
C11 O26 1.240 . S
C11 O27 1.240 . S
C12 Gd1 2.818 . S
C12 C13 1.510 . S
C12 O28 1.249 . S
C12 O29 1.252 . S
C13 C12 1.510 . S
C13 C14 1.404 . S
C13 C15 1.352 . S
C14 C13 1.404 . S
C14 C18 1.389 . S
C14 H36 0.930 . S
C15 C13 1.352 . S
C15 C17 1.374 . S
C15 H37 0.931 1_556 S
C16 C17 1.359 . S
C16 C18 1.364 . S
C17 C15 1.374 . S
C17 C16 1.359 . S
C17 H38 0.931 1_556 S
C18 C14 1.389 . S
C18 C16 1.364 . S
C18 H39 0.931 . S
C19 O30 1.256 . S
C19 O31 1.257 . S
O20 Gd0 2.377 . S
O20 C2 1.240 1_454 S
O21 Gd1 2.395 1_545 S
O21 C2 1.240 . S
O22 Gd0 2.448 . S
O22 C3 1.249 . S
O23 Gd0 2.506 . S
O23 C3 1.252 . S
O24 Gd0 2.435 1_665 S
O24 C10 1.256 . S
O25 Gd0 2.717 1_665 S
O25 Gd1 2.327 1_554 S
O25 C10 1.257 . S
O26 Gd1 2.377 1_454 S
O26 C11 1.240 . S
O27 Gd0 2.395 1_565 S
O27 C11 1.240 . S
O28 Gd1 2.448 . S
O28 C12 1.249 . S
O29 Gd1 2.506 . S
O29 C12 1.252 . S
O30 Gd1 2.435 1_445 S
O30 C19 1.256 . S
O31 Gd0 2.327 1_556 S
O31 Gd1 2.717 1_445 S
O31 C19 1.257 . S
H32 C5 0.930 . S
H33 C6 0.931 . S
H34 C8 0.931 . S
H35 C9 0.931 . S
H36 C14 0.930 . S
H37 C15 0.931 1_554 S
H38 C17 0.931 1_554 S
H39 C18 0.931 . S
Gd40 C43 2.818 1_455 S
Gd40 O60 2.377 1_445 S
Gd40 O62 2.448 1_455 S
Gd40 O63 2.506 1_455 S
Gd40 O64 2.435 1_445 S
Gd40 O65 2.717 1_545 S
Gd40 O67 2.395 . S
Gd40 O71 2.327 . S
Gd41 C52 2.818 . S
Gd41 O61 2.395 1_455 S
Gd41 O65 2.327 . S
Gd41 O66 2.377 1_565 S
Gd41 O68 2.448 1_565 S
Gd41 O69 2.506 . S
Gd41 O70 2.435 1_565 S
Gd41 O71 2.717 1_565 S
C42 O60 1.240 . S
C42 O61 1.240 . S
C43 Gd40 2.818 1_655 S
C43 C44 1.510 . S
C43 O62 1.249 . S
C43 O63 1.252 . S
C44 C43 1.510 . S
C44 C45 1.404 . S
C44 C46 1.352 . S
C45 C44 1.404 . S
C45 C49 1.389 . S
C45 H72 0.926 1_545 S
C46 C44 1.352 . S
C46 C48 1.374 . S
C46 H73 0.931 . S
C47 C48 1.359 . S
C47 C49 1.364 . S
C48 C46 1.374 . S
C48 C47 1.359 . S
C48 H74 0.931 . S
C49 C45 1.389 . S
C49 C47 1.364 . S
C49 H75 0.931 . S
C50 O64 1.256 . S
C50 O65 1.257 1_655 S
C51 O66 1.240 . S
C51 O67 1.240 . S
C52 Gd41 2.818 . S
C52 C53 1.510 . S
C52 O68 1.249 1_565 S
C52 O69 1.252 . S
C53 C52 1.510 . S
C53 C54 1.404 . S
C53 C55 1.352 . S
C54 C53 1.404 . S
C54 C58 1.395 . S
C54 H76 0.924 1_565 S
C55 C53 1.352 . S
C55 C57 1.374 . S
C55 H77 0.931 . S
C56 C57 1.359 . S
C56 C58 1.364 . S
C57 C55 1.374 . S
C57 C56 1.359 . S
C57 H78 0.931 . S
C58 C54 1.395 . S
C58 C56 1.364 . S
C58 H79 0.931 1_565 S
C59 O70 1.256 . S
C59 O71 1.257 . S
O60 Gd40 2.377 1_665 S
O60 C42 1.240 . S
O61 Gd41 2.395 1_655 S
O61 C42 1.240 . S
O62 Gd40 2.448 1_655 S
O62 C43 1.249 . S
O63 Gd40 2.506 1_655 S
O63 C43 1.252 . S
O64 Gd40 2.435 1_665 S
O64 C50 1.256 . S
O65 Gd40 2.717 1_565 S
O65 Gd41 2.327 . S
O65 C50 1.257 1_455 S
O66 Gd41 2.377 1_545 S
O66 C51 1.240 . S
O67 Gd40 2.395 . S
O67 C51 1.240 . S
O68 Gd41 2.448 1_545 S
O68 C52 1.249 1_545 S
O69 Gd41 2.506 . S
O69 C52 1.252 . S
O70 Gd41 2.435 1_545 S
O70 C59 1.256 . S
O71 Gd40 2.327 . S
O71 Gd41 2.717 1_545 S
O71 C59 1.257 . S
H72 C45 0.926 1_565 S
H73 C46 0.931 . S
H74 C48 0.931 . S
H75 C49 0.931 . S
H76 C54 0.924 1_545 S
H77 C55 0.931 . S
H78 C57 0.931 . S
H79 C58 0.931 1_545 S
Zn80 O86 1.920 . S
Zn80 O92 1.898 . S
Zn80 O95 1.905 . S
Zn81 O89 1.905 . S
Zn81 O90 1.898 . S
Zn81 O98 1.920 . S
Zn82 O85 2.080 . S
Zn82 O88 2.114 . S
Zn82 O91 2.120 . S
Zn82 O93 2.120 . S
Zn82 O94 2.114 . S
Zn82 O97 2.080 . S
C83 O88 1.166 . S
C83 O89 1.182 . S
C84 O90 1.167 . S
C84 O91 1.299 . S
O85 Zn82 2.080 . S
O85 C99 1.305 . S
O86 Zn80 1.920 . S
O86 C99 1.234 . S
C87 O92 1.167 . S
C87 O93 1.299 . S
O88 Zn82 2.114 . S
O88 C83 1.166 . S
O89 Zn81 1.905 . S
O89 C83 1.182 . S
O90 Zn81 1.898 . S
O90 C84 1.167 . S
O91 Zn82 2.120 . S
O91 C84 1.299 . S
O92 Zn80 1.898 . S
O92 C87 1.167 . S
O93 Zn82 2.120 . S
O93 C87 1.299 . S
O94 Zn82 2.114 . S
O94 C96 1.166 . S
O95 Zn80 1.905 . S
O95 C96 1.182 . S
C96 O94 1.166 . S
C96 O95 1.182 . S
O97 Zn82 2.080 . S
O97 C100 1.305 . S
O98 Zn81 1.920 . S
O98 C100 1.234 . S
C99 O85 1.305 . S
C99 O86 1.234 . S
C100 O97 1.305 . S
C100 O98 1.234 . S
Zn101 O107 1.920 . S
Zn101 O113 1.898 . S
Zn101 O116 1.905 . S
Zn102 O110 1.905 . S
Zn102 O111 1.898 . S
Zn102 O119 1.920 . S
Zn103 O106 2.080 . S
Zn103 O109 2.114 . S
Zn103 O112 2.120 . S
Zn103 O114 2.120 . S
Zn103 O115 2.114 . S
Zn103 O118 2.080 . S
C104 O109 1.166 . S
C104 O110 1.182 . S
C105 O111 1.167 . S
C105 O112 1.299 . S
O106 Zn103 2.080 . S
O106 C120 1.305 . S
O107 Zn101 1.920 . S
O107 C120 1.234 . S
C108 O113 1.167 . S
C108 O114 1.299 . S
O109 Zn103 2.114 . S
O109 C104 1.166 . S
O110 Zn102 1.905 . S
O110 C104 1.182 . S
O111 Zn102 1.898 . S
O111 C105 1.167 . S
O112 Zn103 2.120 . S
O112 C105 1.299 . S
O113 Zn101 1.898 . S
O113 C108 1.167 . S
O114 Zn103 2.120 . S
O114 C108 1.299 . S
O115 Zn103 2.114 . S
O115 C117 1.166 . S
O116 Zn101 1.905 . S
O116 C117 1.182 . S
C117 O115 1.166 . S
C117 O116 1.182 . S
O118 Zn103 2.080 . S
O118 C121 1.305 . S
O119 Zn102 1.920 . S
O119 C121 1.234 . S
C120 O106 1.305 . S
C120 O107 1.234 . S
C121 O118 1.305 . S
C121 O119 1.234 . S
H122 C128 0.930 . S
H123 C131 0.930 . S
H124 C132 0.930 . S
H125 C133 0.930 . S
H126 C136 0.930 . S
H127 C137 0.930 . S
C128 H122 0.930 . S
C128 C129 1.355 . S
C128 C130 1.415 . S
C129 C128 1.355 . S
C129 C131 1.419 . S
C130 C128 1.415 . S
C130 C135 1.425 . S
C130 C137 1.409 . S
C131 H123 0.930 . S
C131 C129 1.419 . S
C131 C132 1.362 . S
C132 H124 0.930 . S
C132 C131 1.362 . S
C132 C135 1.409 . S
C133 H125 0.930 . S
C133 C134 1.355 . S
C133 C135 1.415 . S
C134 C133 1.355 . S
C134 C136 1.419 . S
C135 C130 1.425 . S
C135 C132 1.409 . S
C135 C133 1.415 . S
C136 H126 0.930 . S
C136 C134 1.419 . S
C136 C137 1.362 . S
C137 H127 0.930 . S
C137 C130 1.409 . S
C137 C136 1.362 . S
H138 C144 0.930 . S
H139 C147 0.930 1_565 S
H140 C148 0.930 . S
H141 C149 0.930 . S
H142 C152 0.930 . S
H143 C153 0.930 . S
C144 H138 0.930 . S
C144 C145 1.355 . S
C144 C146 1.415 . S
C145 C144 1.355 . S
C145 C147 1.419 . S
C146 C144 1.415 . S
C146 C151 1.425 . S
C146 C153 1.409 . S
C147 H139 0.930 1_545 S
C147 C145 1.419 . S
C147 C148 1.362 . S
C148 H140 0.930 . S
C148 C147 1.362 . S
C148 C151 1.409 . S
C149 H141 0.930 . S
C149 C150 1.355 . S
C149 C151 1.415 . S
C150 C149 1.355 . S
C150 C152 1.419 . S
C151 C146 1.425 . S
C151 C148 1.409 . S
C151 C149 1.415 . S
C152 H142 0.930 . S
C152 C150 1.419 . S
C152 C153 1.362 . S
C153 H143 0.930 . S
C153 C146 1.409 . S
C153 C152 1.362 . S
H154 C160 0.930 . S
H155 C163 0.930 . S
H156 C164 0.930 . S
H157 C165 0.930 . S
H158 C168 0.930 . S
H159 C169 0.930 . S
C160 H154 0.930 . S
C160 C161 1.355 . S
C160 C162 1.415 . S
C161 C160 1.355 . S
C161 C163 1.419 . S
C162 C160 1.415 . S
C162 C167 1.425 . S
C162 C169 1.409 . S
C163 H155 0.930 . S
C163 C161 1.419 . S
C163 C164 1.362 . S
C164 H156 0.930 . S
C164 C163 1.362 . S
C164 C167 1.409 . S
C165 H157 0.930 . S
C165 C166 1.355 . S
C165 C167 1.415 . S
C166 C165 1.355 . S
C166 C168 1.419 . S
C167 C162 1.425 . S
C167 C164 1.409 . S
C167 C165 1.415 . S
C168 H158 0.930 . S
C168 C166 1.419 . S
C168 C169 1.362 . S
C169 H159 0.930 . S
C169 C162 1.409 . S
C169 C168 1.362 . S
H170 C176 0.930 . S
H171 C179 0.930 . S
H172 C180 0.930 . S
H173 C181 0.930 . S
H174 C184 0.930 . S
H175 C185 0.930 . S
C176 H170 0.930 . S
C176 C177 1.355 . S
C176 C178 1.415 . S
C177 C176 1.355 . S
C177 C179 1.419 . S
C178 C176 1.415 . S
C178 C183 1.425 . S
C178 C185 1.409 . S
C179 H171 0.930 . S
C179 C177 1.419 . S
C179 C180 1.362 . S
C180 H172 0.930 . S
C180 C179 1.362 . S
C180 C183 1.409 . S
C181 H173 0.930 . S
C181 C182 1.355 . S
C181 C183 1.415 . S
C182 C181 1.355 . S
C182 C184 1.419 . S
C183 C178 1.425 . S
C183 C180 1.409 . S
C183 C181 1.415 . S
C184 H174 0.930 . S
C184 C182 1.419 . S
C184 C185 1.362 . S
C185 H175 0.930 . S
C185 C178 1.409 . S
C185 C184 1.362 . S
H186 C192 0.930 . S
H187 C195 0.930 . S
H188 C196 0.930 . S
H189 C197 0.930 . S
H190 C200 0.930 . S
H191 C201 0.930 . S
C192 H186 0.930 . S
C192 C193 1.355 . S
C192 C194 1.415 . S
C193 C192 1.355 . S
C193 C195 1.419 . S
C194 C192 1.415 . S
C194 C199 1.425 . S
C194 C201 1.409 . S
C195 H187 0.930 . S
C195 C193 1.419 . S
C195 C196 1.362 . S
C196 H188 0.930 . S
C196 C195 1.362 . S
C196 C199 1.409 . S
C197 H189 0.930 . S
C197 C198 1.355 . S
C197 C199 1.415 . S
C198 C197 1.355 . S
C198 C200 1.419 . S
C199 C194 1.425 . S
C199 C196 1.409 . S
C199 C197 1.415 . S
C200 H190 0.930 . S
C200 C198 1.419 . S
C200 C201 1.362 . S
C201 H191 0.930 . S
C201 C194 1.409 . S
C201 C200 1.362 . S
H202 C208 0.930 . S
H203 C211 0.930 . S
H204 C212 0.930 . S
H205 C213 0.930 . S
H206 C216 0.930 . S
H207 C217 0.930 . S
C208 H202 0.930 . S
C208 C209 1.355 . S
C208 C210 1.415 . S
C209 C208 1.355 . S
C209 C211 1.419 . S
C210 C208 1.415 . S
C210 C215 1.425 . S
C210 C217 1.409 . S
C211 H203 0.930 . S
C211 C209 1.419 . S
C211 C212 1.362 . S
C212 H204 0.930 . S
C212 C211 1.362 . S
C212 C215 1.409 . S
C213 H205 0.930 . S
C213 C214 1.355 . S
C213 C215 1.415 . S
C214 C213 1.355 . S
C214 C216 1.419 . S
C215 C210 1.425 . S
C215 C212 1.409 . S
C215 C213 1.415 . S
C216 H206 0.930 . S
C216 C214 1.419 . S
C216 C217 1.362 . S
C217 H207 0.930 . S
C217 C210 1.409 . S
C217 C216 1.362 . S
H218 C224 0.930 . S
H219 C227 0.930 1_545 S
H220 C228 0.930 . S
H221 C229 0.930 . S
H222 C232 0.930 . S
H223 C233 0.930 . S
C224 H218 0.930 . S
C224 C225 1.355 . S
C224 C226 1.415 . S
C225 C224 1.355 . S
C225 C227 1.419 . S
C226 C224 1.415 . S
C226 C231 1.425 . S
C226 C233 1.409 . S
C227 H219 0.930 1_565 S
C227 C225 1.419 . S
C227 C228 1.362 . S
C228 H220 0.930 . S
C228 C227 1.362 . S
C228 C231 1.409 . S
C229 H221 0.930 . S
C229 C230 1.355 . S
C229 C231 1.415 . S
C230 C229 1.355 . S
C230 C232 1.419 . S
C231 C226 1.425 . S
C231 C228 1.409 . S
C231 C229 1.415 . S
C232 H222 0.930 . S
C232 C230 1.419 . S
C232 C233 1.362 . S
C233 H223 0.930 . S
C233 C226 1.409 . S
C233 C232 1.362 . S
H234 C240 0.930 . S
H235 C243 0.930 . S
H236 C244 0.930 . S
H237 C245 0.930 . S
H238 C248 0.930 . S
H239 C249 0.930 . S
C240 H234 0.930 . S
C240 C241 1.355 . S
C240 C242 1.415 . S
C241 C240 1.355 . S
C241 C243 1.419 . S
C242 C240 1.415 . S
C242 C247 1.425 . S
C242 C249 1.409 . S
C243 H235 0.930 . S
C243 C241 1.419 . S
C243 C244 1.362 . S
C244 H236 0.930 . S
C244 C243 1.362 . S
C244 C247 1.409 . S
C245 H237 0.930 . S
C245 C246 1.355 . S
C245 C247 1.415 . S
C246 C245 1.355 . S
C246 C248 1.419 . S
C247 C242 1.425 . S
C247 C244 1.409 . S
C247 C245 1.415 . S
C248 H238 0.930 . S
C248 C246 1.419 . S
C248 C249 1.362 . S
C249 H239 0.930 . S
C249 C242 1.409 . S
C249 C248 1.362 . S
H250 C256 0.930 . S
H251 C259 0.930 . S
H252 C260 0.930 . S
H253 C261 0.930 . S
H254 C264 0.930 . S
H255 C265 0.930 . S
C256 H250 0.930 . S
C256 C257 1.355 . S
C256 C258 1.415 . S
C257 C256 1.355 . S
C257 C259 1.419 . S
C258 C256 1.415 . S
C258 C263 1.425 . S
C258 C265 1.409 . S
C259 H251 0.930 . S
C259 C257 1.419 . S
C259 C260 1.362 . S
C260 H252 0.930 . S
C260 C259 1.362 . S
C260 C263 1.409 . S
C261 H253 0.930 . S
C261 C262 1.355 . S
C261 C263 1.415 . S
C262 C261 1.355 . S
C262 C264 1.419 . S
C263 C258 1.425 . S
C263 C260 1.409 . S
C263 C261 1.415 . S
C264 H254 0.930 . S
C264 C262 1.419 . S
C264 C265 1.362 . S
C265 H255 0.930 . S
C265 C258 1.409 . S
C265 C264 1.362 . S
H266 C272 0.930 . S
H267 C275 0.930 . S
H268 C276 0.930 . S
H269 C277 0.930 . S
H270 C280 0.930 . S
H271 C281 0.930 . S
C272 H266 0.930 . S
C272 C273 1.355 . S
C272 C274 1.415 . S
C273 C272 1.355 . S
C273 C275 1.419 . S
C274 C272 1.415 . S
C274 C279 1.425 . S
C274 C281 1.409 . S
C275 H267 0.930 . S
C275 C273 1.419 . S
C275 C276 1.362 . S
C276 H268 0.930 . S
C276 C275 1.362 . S
C276 C279 1.409 . S
C277 H269 0.930 . S
C277 C278 1.355 . S
C277 C279 1.415 . S
C278 C277 1.355 . S
C278 C280 1.419 . S
C279 C274 1.425 . S
C279 C276 1.409 . S
C279 C277 1.415 . S
C280 H270 0.930 . S
C280 C278 1.419 . S
C280 C281 1.362 . S
C281 H271 0.930 . S
C281 C274 1.409 . S
C281 C280 1.362 . S
H282 C288 0.930 . S
H283 C291 0.930 . S
H284 C292 0.930 . S
H285 C293 0.930 . S
H286 C296 0.930 . S
H287 C297 0.930 . S
C288 H282 0.930 . S
C288 C289 1.355 . S
C288 C290 1.415 . S
C289 C288 1.355 . S
C289 C291 1.419 . S
C290 C288 1.415 . S
C290 C295 1.425 . S
C290 C297 1.409 . S
C291 H283 0.930 . S
C291 C289 1.419 . S
C291 C292 1.362 . S
C292 H284 0.930 . S
C292 C291 1.362 . S
C292 C295 1.409 . S
C293 H285 0.930 . S
C293 C294 1.355 . S
C293 C295 1.415 . S
C294 C293 1.355 . S
C294 C296 1.419 . S
C295 C290 1.425 . S
C295 C292 1.409 . S
C295 C293 1.415 . S
C296 H286 0.930 . S
C296 C294 1.419 . S
C296 C297 1.362 . S
C297 H287 0.930 . S
C297 C290 1.409 . S
C297 C296 1.362 . S
H298 C304 0.930 . S
H299 C307 0.930 . S
H300 C308 0.930 . S
H301 C309 0.930 . S
H302 C312 0.930 . S
H303 C313 0.930 . S
C304 H298 0.930 . S
C304 C305 1.355 . S
C304 C306 1.415 . S
C305 C304 1.355 . S
C305 C307 1.419 . S
C306 C304 1.415 . S
C306 C311 1.425 . S
C306 C313 1.409 . S
C307 H299 0.930 . S
C307 C305 1.419 . S
C307 C308 1.362 . S
C308 H300 0.930 . S
C308 C307 1.362 . S
C308 C311 1.409 . S
C309 H301 0.930 . S
C309 C310 1.355 . S
C309 C311 1.415 . S
C310 C309 1.355 . S
C310 C312 1.419 . S
C311 C306 1.425 . S
C311 C308 1.409 . S
C311 C309 1.415 . S
C312 H302 0.930 . S
C312 C310 1.419 . S
C312 C313 1.362 . S
C313 H303 0.930 . S
C313 C306 1.409 . S
C313 C312 1.362 . S
C129 C11 1.906 . S
C134 C99 1.887 . S
C145 C51 1.295 . S
C150 C105 1.131 . S
C161 C7 0.998 . S
C166 C96 0.906 . S
C177 C47 1.424 . S
C182 C121 1.255 . S
C193 C10 2.111 . S
C198 C87 1.994 . S
C214 C104 2.310 . S
C209 C50 2.359 . S
C225 C56 1.338 . S
C230 C100 1.220 . S
C246 C117 1.696 . S
C241 C19 1.790 . S
C262 C84 2.106 . S
C257 C59 2.194 . S
C278 C120 2.085 . S
C273 C2 2.163 . S
C294 C83 1.523 . S
C289 C42 1.607 . S
C310 C108 0.863 . S
C305 C16 0.935 . S
