# Generated by pormake.
# Topology ocu, (6,8)-cn, num edge types: 1
# Building blocks:
#     Node 0, Type 0, BuildingBlock: KUMBOL_clean_sbu_1, # of connection points: 6
#     Node 1, Type 0, BuildingBlock: KUMBOL_clean_sbu_1, # of connection points: 6
#     Node 2, Type 0, BuildingBlock: KUMBOL_clean_sbu_1, # of connection points: 6
#     Node 3, Type 0, BuildingBlock: KUMBOL_clean_sbu_1, # of connection points: 6
#     Node 4, Type 0, BuildingBlock: KUMBOL_clean_sbu_1, # of connection points: 6
#     Node 5, Type 0, BuildingBlock: KUMBOL_clean_sbu_1, # of connection points: 6
#     Node 6, Type 0, BuildingBlock: KUMBOL_clean_sbu_1, # of connection points: 6
#     Node 7, Type 0, BuildingBlock: KUMBOL_clean_sbu_1, # of connection points: 6
#     Node 8, Type 1, BuildingBlock: GIZVER_clean_sbu_0, # of connection points: 8
#     Node 9, Type 1, BuildingBlock: GIZVER_clean_sbu_0, # of connection points: 8
#     Node 10, Type 1, BuildingBlock: GIZVER_clean_sbu_0, # of connection points: 8
#     Node 11, Type 1, BuildingBlock: GIZVER_clean_sbu_0, # of connection points: 8
#     Node 12, Type 1, BuildingBlock: GIZVER_clean_sbu_0, # of connection points: 8
#     Node 13, Type 1, BuildingBlock: GIZVER_clean_sbu_0, # of connection points: 8
#     Edge 14, Type (0, 1), BuildingBlock: XUDNAN_clean_linker_2, # of connection points: 2
#     Edge 15, Type (0, 1), BuildingBlock: XUDNAN_clean_linker_2, # of connection points: 2
#     Edge 16, Type (0, 1), BuildingBlock: XUDNAN_clean_linker_2, # of connection points: 2
#     Edge 17, Type (0, 1), BuildingBlock: XUDNAN_clean_linker_2, # of connection points: 2
#     Edge 18, Type (0, 1), BuildingBlock: XUDNAN_clean_linker_2, # of connection points: 2
#     Edge 19, Type (0, 1), BuildingBlock: XUDNAN_clean_linker_2, # of connection points: 2
#     Edge 20, Type (0, 1), BuildingBlock: XUDNAN_clean_linker_2, # of connection points: 2
#     Edge 21, Type (0, 1), BuildingBlock: XUDNAN_clean_linker_2, # of connection points: 2
#     Edge 22, Type (0, 1), BuildingBlock: XUDNAN_clean_linker_2, # of connection points: 2
#     Edge 23, Type (0, 1), BuildingBlock: XUDNAN_clean_linker_2, # of connection points: 2
#     Edge 24, Type (0, 1), BuildingBlock: XUDNAN_clean_linker_2, # of connection points: 2
#     Edge 25, Type (0, 1), BuildingBlock: XUDNAN_clean_linker_2, # of connection points: 2
#     Edge 26, Type (0, 1), BuildingBlock: XUDNAN_clean_linker_2, # of connection points: 2
#     Edge 27, Type (0, 1), BuildingBlock: XUDNAN_clean_linker_2, # of connection points: 2
#     Edge 28, Type (0, 1), BuildingBlock: XUDNAN_clean_linker_2, # of connection points: 2
#     Edge 29, Type (0, 1), BuildingBlock: XUDNAN_clean_linker_2, # of connection points: 2
#     Edge 30, Type (0, 1), BuildingBlock: XUDNAN_clean_linker_2, # of connection points: 2
#     Edge 31, Type (0, 1), BuildingBlock: XUDNAN_clean_linker_2, # of connection points: 2
#     Edge 32, Type (0, 1), BuildingBlock: XUDNAN_clean_linker_2, # of connection points: 2
#     Edge 33, Type (0, 1), BuildingBlock: XUDNAN_clean_linker_2, # of connection points: 2
#     Edge 34, Type (0, 1), BuildingBlock: XUDNAN_clean_linker_2, # of connection points: 2
#     Edge 35, Type (0, 1), BuildingBlock: XUDNAN_clean_linker_2, # of connection points: 2
#     Edge 36, Type (0, 1), BuildingBlock: XUDNAN_clean_linker_2, # of connection points: 2
#     Edge 37, Type (0, 1), BuildingBlock: XUDNAN_clean_linker_2, # of connection points: 2
#     Edge 38, Type (0, 1), BuildingBlock: XUDNAN_clean_linker_2, # of connection points: 2
#     Edge 39, Type (0, 1), BuildingBlock: XUDNAN_clean_linker_2, # of connection points: 2
#     Edge 40, Type (0, 1), BuildingBlock: XUDNAN_clean_linker_2, # of connection points: 2
#     Edge 41, Type (0, 1), BuildingBlock: XUDNAN_clean_linker_2, # of connection points: 2
#     Edge 42, Type (0, 1), BuildingBlock: XUDNAN_clean_linker_2, # of connection points: 2
#     Edge 43, Type (0, 1), BuildingBlock: XUDNAN_clean_linker_2, # of connection points: 2
#     Edge 44, Type (0, 1), BuildingBlock: XUDNAN_clean_linker_2, # of connection points: 2
#     Edge 45, Type (0, 1), BuildingBlock: XUDNAN_clean_linker_2, # of connection points: 2
#     Edge 46, Type (0, 1), BuildingBlock: XUDNAN_clean_linker_2, # of connection points: 2
#     Edge 47, Type (0, 1), BuildingBlock: XUDNAN_clean_linker_2, # of connection points: 2
#     Edge 48, Type (0, 1), BuildingBlock: XUDNAN_clean_linker_2, # of connection points: 2
#     Edge 49, Type (0, 1), BuildingBlock: XUDNAN_clean_linker_2, # of connection points: 2
#     Edge 50, Type (0, 1), BuildingBlock: XUDNAN_clean_linker_2, # of connection points: 2
#     Edge 51, Type (0, 1), BuildingBlock: XUDNAN_clean_linker_2, # of connection points: 2
#     Edge 52, Type (0, 1), BuildingBlock: XUDNAN_clean_linker_2, # of connection points: 2
#     Edge 53, Type (0, 1), BuildingBlock: XUDNAN_clean_linker_2, # of connection points: 2
#     Edge 54, Type (0, 1), BuildingBlock: XUDNAN_clean_linker_2, # of connection points: 2
#     Edge 55, Type (0, 1), BuildingBlock: XUDNAN_clean_linker_2, # of connection points: 2
#     Edge 56, Type (0, 1), BuildingBlock: XUDNAN_clean_linker_2, # of connection points: 2
#     Edge 57, Type (0, 1), BuildingBlock: XUDNAN_clean_linker_2, # of connection points: 2
#     Edge 58, Type (0, 1), BuildingBlock: XUDNAN_clean_linker_2, # of connection points: 2
#     Edge 59, Type (0, 1), BuildingBlock: XUDNAN_clean_linker_2, # of connection points: 2
#     Edge 60, Type (0, 1), BuildingBlock: XUDNAN_clean_linker_2, # of connection points: 2
#     Edge 61, Type (0, 1), BuildingBlock: XUDNAN_clean_linker_2, # of connection points: 2
# Relax obj value: 0.164
# Max RMSD: 0.211
# Mean RMSD: 0.172
data_MOF--net-ocu--node1-KUMBOL_clean_sbu_1--node2-GIZVER_clean_sbu_0--edge1-XUDNAN_clean_linker_2
_symmetry_space_group_name_H-M    P1
_symmetry_Int_Tables_number       1
_symmetry_cell_setting            triclinic
loop_
_symmetry_equiv_pos_as_xyz
'x, y, z'
_cell_length_a     42.568076
_cell_length_b     44.264803
_cell_length_c     34.529428
_cell_angle_alpha  102.13588
_cell_angle_beta   78.657312
_cell_angle_gamma 111.71068
loop_
_atom_site_label
_atom_site_type_symbol
_atom_site_fract_x
_atom_site_fract_y
_atom_site_fract_z
_atom_type_partial_charge
C0 C 0.3327 0.36078 0.36268 0.0
C1 C 0.28948 0.3471 0.41985 0.0
C2 C 0.30494 0.33768 0.38143 0.0
C3 C 0.30205 0.37977 0.43885 0.0
C4 C 0.34492 0.39372 0.38149 0.0
C5 C 0.32948 0.40303 0.41963 0.0
N6 N 0.34714 0.35128 0.3256 0.0
C7 C 0.3742 0.37315 0.30614 0.0
C8 C 0.37227 0.41643 0.36132 0.0
C9 C 0.38699 0.40606 0.32349 0.0
Gd10 Gd 0.2601 0.26794 0.22103 0.0
Gd11 Gd 0.32533 0.29523 0.30059 0.0
N12 N 0.29321 0.30613 0.36228 0.0
C13 C 0.26219 0.32329 0.43838 0.0
C14 C 0.26786 0.28255 0.38133 0.0
C15 C 0.25151 0.29085 0.41914 0.0
H16 H 0.26091 0.25707 0.36861 0.0
H17 H 0.23121 0.27203 0.43385 0.0
H18 H 0.3297 0.28703 0.15127 0.0
H19 H 0.38664 0.36506 0.27783 0.0
H20 H 0.35367 0.25984 0.08919 0.0
H21 H 0.24976 0.32946 0.46794 0.0
H22 H 0.29098 0.38731 0.46861 0.0
H23 H 0.18414 0.21336 0.24887 0.0
H24 H 0.38232 0.44194 0.37477 0.0
H25 H 0.40847 0.42331 0.30788 0.0
H26 H 0.27016 0.15183 0.06863 0.0
H27 H 0.33867 0.42816 0.43463 0.0
H28 H 0.16991 0.12476 0.1647 0.0
H29 H 0.14934 0.15578 0.22641 0.0
N30 N 0.22451 0.21413 0.20152 0.0
C31 C 0.23602 0.19781 0.16703 0.0
C32 C 0.19369 0.19962 0.22258 0.0
C33 C 0.18543 0.14985 0.17468 0.0
C34 C 0.17378 0.16723 0.20963 0.0
C35 C 0.21678 0.16513 0.15276 0.0
H36 H 0.21493 0.12362 0.10584 0.0
N37 N 0.28579 0.24499 0.16112 0.0
C38 C 0.26725 0.21377 0.14593 0.0
C39 C 0.31153 0.21409 0.08994 0.0
C40 C 0.27991 0.19737 0.1102 0.0
C41 C 0.31599 0.26184 0.14057 0.0
C42 C 0.32947 0.24654 0.10502 0.0
O43 O 0.29432 0.32757 0.29901 0.0
O44 O 0.24236 0.29202 0.28233 0.0
O45 O 0.25765 0.30602 0.1924 0.0
O46 O 0.21392 0.26171 0.19696 0.0
O47 O 0.28477 0.24421 0.29767 0.0
O48 O 0.23793 0.24977 0.28021 0.0
O49 O 0.29346 0.23636 0.21611 0.0
O50 O 0.34361 0.26795 0.24225 0.0
O51 O 0.33649 0.26788 0.33852 0.0
O52 O 0.37573 0.31107 0.3183 0.0
O53 O 0.30457 0.31591 0.21875 0.0
O54 O 0.35052 0.31251 0.24145 0.0
C55 C 0.26105 0.32012 0.30127 0.0
C56 C 0.25171 0.23374 0.29583 0.0
C57 C 0.22328 0.28805 0.14043 0.0
C58 C 0.19689 0.30082 0.09207 0.0
C59 C 0.24293 0.27888 0.06935 0.0
C60 C 0.24507 0.27772 0.10877 0.0
C61 C 0.21915 0.29059 0.06098 0.0
C62 C 0.19881 0.29925 0.13186 0.0
C63 C 0.22733 0.28918 0.18231 0.0
C64 C 0.2608 0.16481 0.09599 0.0
C65 C 0.22935 0.14874 0.11721 0.0
H66 H 0.32219 0.20227 0.06252 0.0
C67 C 0.32551 0.24176 0.21976 0.0
C68 C 0.33761 0.32474 0.21938 0.0
C69 C 0.39356 0.26966 0.33038 0.0
C70 C 0.42001 0.23825 0.35482 0.0
C71 C 0.44037 0.25479 0.28918 0.0
C72 C 0.41591 0.26985 0.2945 0.0
C73 C 0.44213 0.23865 0.31886 0.0
C74 C 0.39593 0.25406 0.36066 0.0
C75 C 0.36847 0.28649 0.33744 0.0
H76 H 0.26007 0.27107 0.04525 0.0
H77 H 0.26416 0.26928 0.1144 0.0
H78 H 0.21801 0.29156 0.03022 0.0
H79 H 0.18204 0.30761 0.15605 0.0
H80 H 0.45838 0.25596 0.26229 0.0
H81 H 0.4148 0.28196 0.27087 0.0
H82 H 0.46122 0.227 0.31408 0.0
H83 H 0.37896 0.25404 0.38857 0.0
C84 C 0.83521 0.21181 0.17797 0.0
C85 C 0.88894 0.2452 0.14569 0.0
C86 C 0.86168 0.2413 0.17709 0.0
C87 C 0.88797 0.21925 0.11398 0.0
C88 C 0.83458 0.18518 0.14708 0.0
C89 C 0.86075 0.18928 0.11461 0.0
N90 N 0.81107 0.20864 0.21033 0.0
C91 C 0.78618 0.17889 0.21462 0.0
C92 C 0.80818 0.15505 0.15036 0.0
C93 C 0.78405 0.15183 0.1845 0.0
Gd94 Gd 0.74577 0.30253 0.30398 0.0
Gd95 Gd 0.81407 0.25607 0.25784 0.0
N96 N 0.8618 0.26554 0.20839 0.0
C97 C 0.91676 0.27465 0.14786 0.0
C98 C 0.88941 0.29378 0.21151 0.0
C99 C 0.91715 0.29891 0.18119 0.0
H100 H 0.88993 0.31243 0.23735 0.0
H101 H 0.93879 0.32154 0.18355 0.0
H102 H 0.69187 0.28234 0.23448 0.0
H103 H 0.76764 0.17596 0.24109 0.0
H104 H 0.63521 0.24215 0.2221 0.0
H105 H 0.93828 0.27863 0.12443 0.0
H106 H 0.90849 0.22183 0.08935 0.0
H107 H 0.74734 0.31533 0.40182 0.0
H108 H 0.80667 0.13399 0.12723 0.0
H109 H 0.76391 0.12847 0.18774 0.0
H110 H 0.58919 0.19955 0.34591 0.0
H111 H 0.86064 0.1692 0.09042 0.0
H112 H 0.65373 0.25105 0.45601 0.0
H113 H 0.71065 0.29365 0.46217 0.0
N114 N 0.71158 0.28478 0.36252 0.0
C115 C 0.67996 0.26249 0.35872 0.0
C116 C 0.72243 0.29679 0.39916 0.0
C117 C 0.66971 0.2604 0.42958 0.0
C118 C 0.7018 0.28453 0.43321 0.0
C119 C 0.6583 0.24921 0.39203 0.0
H120 H 0.60904 0.21481 0.41197 0.0
N121 N 0.6898 0.26913 0.29101 0.0
C122 C 0.66892 0.25394 0.32159 0.0
C123 C 0.62408 0.22645 0.27979 0.0
C124 C 0.63566 0.23184 0.31671 0.0
C125 C 0.67708 0.26692 0.25673 0.0
C126 C 0.64459 0.24473 0.25 0.0
O127 O 0.82418 0.29987 0.2269 0.0
O128 O 0.78133 0.32334 0.24993 0.0
O129 O 0.71374 0.33256 0.31222 0.0
O130 O 0.76428 0.35408 0.3295 0.0
O131 O 0.83345 0.30985 0.28371 0.0
O132 O 0.79191 0.31521 0.33536 0.0
O133 O 0.75186 0.26401 0.33306 0.0
O134 O 0.76056 0.22667 0.28031 0.0
O135 O 0.8173 0.25859 0.32062 0.0
O136 O 0.84844 0.23657 0.27468 0.0
O137 O 0.74615 0.27901 0.23859 0.0
O138 O 0.7635 0.23435 0.23314 0.0
C139 C 0.80928 0.32124 0.22624 0.0
C140 C 0.82353 0.32538 0.31799 0.0
C141 C 0.74572 0.38745 0.30061 0.0
C142 C 0.73196 0.41323 0.2529 0.0
C143 C 0.78506 0.43971 0.28206 0.0
C144 C 0.77618 0.41434 0.30447 0.0
C145 C 0.7634 0.43907 0.25622 0.0
C146 C 0.72344 0.38725 0.27506 0.0
C147 C 0.73807 0.3597 0.32273 0.0
C148 C 0.61462 0.21697 0.34923 0.0
C149 C 0.62589 0.22573 0.38688 0.0
H150 H 0.59876 0.20957 0.27473 0.0
C151 C 0.74434 0.23348 0.31533 0.0
C152 C 0.74701 0.24981 0.22087 0.0
C153 C 0.83375 0.21761 0.33685 0.0
C154 C 0.85756 0.19214 0.37474 0.0
C155 C 0.79766 0.16814 0.36428 0.0
C156 C 0.80189 0.19288 0.34243 0.0
C157 C 0.82522 0.16759 0.38013 0.0
C158 C 0.86131 0.21735 0.35329 0.0
C159 C 0.83934 0.24335 0.31287 0.0
H160 H 0.80899 0.45989 0.28455 0.0
H161 H 0.7936 0.4154 0.32417 0.0
H162 H 0.77141 0.45894 0.23878 0.0
H163 H 0.69939 0.36717 0.27283 0.0
H164 H 0.77307 0.14895 0.36832 0.0
H165 H 0.78048 0.19249 0.32961 0.0
H166 H 0.82128 0.14736 0.39562 0.0
H167 H 0.88574 0.23681 0.34908 0.0
C168 C 0.8814 0.84659 0.19162 0.0
C169 C 0.89312 0.80952 0.13255 0.0
C170 C 0.87092 0.81689 0.16624 0.0
C171 C 0.9263 0.83203 0.12541 0.0
C172 C 0.91432 0.86967 0.18386 0.0
C173 C 0.93686 0.86202 0.15098 0.0
N174 N 0.85897 0.85346 0.22297 0.0
C175 C 0.86711 0.8834 0.24663 0.0
C176 C 0.92338 0.89999 0.20899 0.0
C177 C 0.89954 0.907 0.24027 0.0
Gd178 Gd 0.77491 0.7502 0.31354 0.0
Gd179 Gd 0.80645 0.81144 0.2331 0.0
N180 N 0.83875 0.79549 0.1741 0.0
C181 C 0.88115 0.77997 0.10671 0.0
C182 C 0.82633 0.76744 0.14785 0.0
C183 C 0.84748 0.75904 0.11417 0.0
H184 H 0.80054 0.75083 0.15382 0.0
H185 H 0.83788 0.73633 0.09411 0.0
H186 H 0.81552 0.8108 0.38275 0.0
H187 H 0.84849 0.88904 0.27042 0.0
H188 H 0.80147 0.84216 0.44693 0.0
H189 H 0.89748 0.77335 0.08061 0.0
H190 H 0.9438 0.82669 0.09984 0.0
H191 H 0.70193 0.68993 0.29158 0.0
H192 H 0.94845 0.91837 0.20405 0.0
H193 H 0.90608 0.93061 0.25934 0.0
H194 H 0.6805 0.79173 0.4772 0.0
H195 H 0.96235 0.87935 0.1447 0.0
H196 H 0.62237 0.70049 0.38473 0.0
H197 H 0.64141 0.67141 0.32035 0.0
N198 N 0.7169 0.73011 0.33832 0.0
C199 C 0.7071 0.74621 0.374 0.0
C200 C 0.69391 0.70335 0.31923 0.0
C201 C 0.64896 0.70901 0.37204 0.0
C202 C 0.6596 0.69256 0.33564 0.0
C203 C 0.6728 0.73602 0.39186 0.0
H204 H 0.63717 0.74543 0.44301 0.0
N205 N 0.76427 0.7826 0.37457 0.0
C206 C 0.73142 0.77314 0.39265 0.0
C207 C 0.7476 0.8152 0.44954 0.0
C208 C 0.72213 0.78961 0.43035 0.0
C209 C 0.7893 0.80623 0.39433 0.0
C210 C 0.78138 0.82334 0.43158 0.0
O211 O 0.83555 0.77512 0.22506 0.0
O212 O 0.79999 0.73015 0.25538 0.0
O213 O 0.80229 0.74188 0.35471 0.0
O214 O 0.76225 0.70108 0.32773 0.0
O215 O 0.76258 0.76442 0.2172 0.0
O216 O 0.75377 0.72413 0.25613 0.0
O217 O 0.74304 0.77978 0.30667 0.0
O218 O 0.78233 0.82926 0.29429 0.0
O219 O 0.76022 0.8124 0.21686 0.0
O220 O 0.80868 0.84906 0.19973 0.0
O221 O 0.82909 0.78605 0.30642 0.0
O222 O 0.82565 0.83292 0.29307 0.0
C223 C 0.82627 0.74402 0.23005 0.0
C224 C 0.74771 0.73432 0.22598 0.0
C225 C 0.81237 0.69209 0.33466 0.0
C226 C 0.86052 0.68015 0.34768 0.0
C227 C 0.84383 0.66521 0.28103 0.0
C228 C 0.81729 0.67772 0.29456 0.0
C229 C 0.86557 0.66666 0.30733 0.0
C230 C 0.83377 0.69271 0.3613 0.0
C231 C 0.78807 0.71004 0.34768 0.0
C232 C 0.68802 0.77948 0.44819 0.0
C233 C 0.66338 0.75295 0.42885 0.0
H234 H 0.74172 0.82801 0.47881 0.0
C235 C 0.75206 0.81197 0.31062 0.0
C236 C 0.84013 0.81823 0.30965 0.0
C237 C 0.76681 0.83151 0.15596 0.0
C238 C 0.74658 0.84985 0.10655 0.0
C239 C 0.75727 0.79806 0.09105 0.0
C240 C 0.76668 0.80294 0.12901 0.0
C241 C 0.74709 0.82124 0.07987 0.0
C242 C 0.75677 0.8549 0.14461 0.0
C243 C 0.77624 0.83659 0.19634 0.0
H244 H 0.84775 0.65463 0.24999 0.0
H245 H 0.8011 0.67669 0.27343 0.0
H246 H 0.88607 0.65686 0.29634 0.0
H247 H 0.83032 0.70386 0.39223 0.0
H248 H 0.75751 0.77605 0.07036 0.0
H249 H 0.77344 0.78425 0.13746 0.0
H250 H 0.73985 0.81688 0.05027 0.0
H251 H 0.75616 0.87663 0.16577 0.0
C252 C 0.32819 0.75592 0.3439 0.0
C253 C 0.30486 0.69699 0.3445 0.0
C254 C 0.31325 0.72432 0.32477 0.0
C255 C 0.30949 0.70206 0.38481 0.0
C256 C 0.33562 0.76087 0.38332 0.0
C257 C 0.32484 0.73398 0.40422 0.0
N258 N 0.33906 0.78122 0.32239 0.0
C259 C 0.36215 0.81067 0.3365 0.0
C260 C 0.35578 0.7922 0.39951 0.0
C261 C 0.37009 0.81686 0.37542 0.0
Gd262 Gd 0.24137 0.79723 0.26747 0.0
Gd263 Gd 0.32144 0.76753 0.25789 0.0
N264 N 0.3095 0.72015 0.28574 0.0
C265 C 0.29357 0.6654 0.32256 0.0
C266 C 0.29978 0.68956 0.2637 0.0
C267 C 0.29154 0.6617 0.28181 0.0
H268 H 0.29796 0.6868 0.23227 0.0
H269 H 0.28352 0.63741 0.2644 0.0
H270 H 0.22313 0.81917 0.36632 0.0
H271 H 0.37481 0.8297 0.31801 0.0
H272 H 0.20945 0.86485 0.41226 0.0
H273 H 0.28737 0.64378 0.33648 0.0
H274 H 0.30267 0.68139 0.4007 0.0
H275 H 0.23237 0.8047 0.1769 0.0
H276 H 0.36233 0.79698 0.42952 0.0
H277 H 0.38793 0.84042 0.38635 0.0
H278 H 0.20213 0.93285 0.32529 0.0
H279 H 0.32983 0.73741 0.43472 0.0
H280 H 0.21267 0.89407 0.18435 0.0
H281 H 0.22195 0.84405 0.14402 0.0
N282 N 0.22989 0.83266 0.23478 0.0
C283 C 0.22364 0.85923 0.25755 0.0
C284 C 0.22835 0.82648 0.19464 0.0
C285 C 0.21736 0.87696 0.19882 0.0
C286 C 0.2225 0.84872 0.17597 0.0
C287 C 0.21736 0.88226 0.24026 0.0
H288 H 0.2057 0.92732 0.25222 0.0
N289 N 0.22597 0.83851 0.31376 0.0
C290 C 0.22161 0.86228 0.29846 0.0
C291 C 0.20934 0.88962 0.36497 0.0
C292 C 0.21328 0.88855 0.32356 0.0
C293 C 0.22069 0.83868 0.35416 0.0
C294 C 0.21282 0.86442 0.38031 0.0
O295 O 0.26737 0.73678 0.2777 0.0
O296 O 0.25061 0.77681 0.3174 0.0
O297 O 0.1863 0.78224 0.27157 0.0
O298 O 0.21002 0.74523 0.25837 0.0
O299 O 0.28131 0.73563 0.21883 0.0
O300 O 0.26175 0.77421 0.2074 0.0
O301 O 0.2846 0.82387 0.22239 0.0
O302 O 0.33282 0.81275 0.22869 0.0
O303 O 0.35117 0.76284 0.19934 0.0
O304 O 0.36766 0.7565 0.25153 0.0
O305 O 0.27594 0.82239 0.31593 0.0
O306 O 0.32804 0.81997 0.28406 0.0
C307 C 0.25111 0.74673 0.31121 0.0
C308 C 0.26345 0.74443 0.19915 0.0
C309 C 0.15843 0.73398 0.301 0.0
C310 C 0.13444 0.73589 0.37129 0.0
C311 C 0.11616 0.68514 0.32508 0.0
C312 C 0.13837 0.70065 0.29376 0.0
C313 C 0.11396 0.7027 0.36372 0.0
C314 C 0.15669 0.75112 0.33984 0.0
C315 C 0.18161 0.75105 0.26862 0.0
C316 C 0.20831 0.91235 0.30653 0.0
C317 C 0.21034 0.90921 0.26493 0.0
H318 H 0.20297 0.90939 0.3853 0.0
C319 C 0.31777 0.82895 0.21473 0.0
C320 C 0.30937 0.83481 0.30984 0.0
C321 C 0.40965 0.78669 0.20676 0.0
C322 C 0.46871 0.79843 0.17756 0.0
C323 C 0.45268 0.83883 0.22825 0.0
C324 C 0.41868 0.8177 0.23077 0.0
C325 C 0.47789 0.82903 0.2021 0.0
C326 C 0.43443 0.77778 0.17939 0.0
C327 C 0.37616 0.76152 0.21463 0.0
H328 H 0.10009 0.65964 0.31924 0.0
H329 H 0.13963 0.68682 0.26397 0.0
H330 H 0.09597 0.69066 0.38738 0.0
H331 H 0.17164 0.77696 0.34532 0.0
H332 H 0.45969 0.86218 0.2478 0.0
H333 H 0.39971 0.82502 0.25233 0.0
H334 H 0.50441 0.84454 0.20212 0.0
H335 H 0.42757 0.75319 0.16233 0.0
C336 C 0.39128 0.77295 0.70453 0.0
C337 C 0.43799 0.81195 0.73886 0.0
C338 C 0.40395 0.79025 0.73976 0.0
C339 C 0.45836 0.81726 0.7019 0.0
C340 C 0.41212 0.77677 0.6675 0.0
C341 C 0.44548 0.79962 0.66629 0.0
N342 N 0.35864 0.7517 0.70664 0.0
C343 C 0.34601 0.73144 0.67342 0.0
C344 C 0.39888 0.75717 0.63292 0.0
C345 C 0.36583 0.73408 0.63598 0.0
Gd346 Gd 0.2636 0.80352 0.79332 0.0
Gd347 Gd 0.32687 0.74923 0.77021 0.0
N348 N 0.38373 0.78409 0.77495 0.0
C349 C 0.45093 0.82658 0.77516 0.0
C350 C 0.39737 0.7955 0.81004 0.0
C351 C 0.43074 0.8177 0.81087 0.0
H352 H 0.38268 0.78725 0.83744 0.0
H353 H 0.44102 0.82755 0.83899 0.0
H354 H 0.1865 0.75153 0.77635 0.0
H355 H 0.32041 0.71374 0.67588 0.0
H356 H 0.13068 0.72491 0.81481 0.0
H357 H 0.4769 0.84349 0.77582 0.0
H358 H 0.48445 0.83414 0.7006 0.0
H359 H 0.302 0.87189 0.8559 0.0
H360 H 0.41409 0.75931 0.60387 0.0
H361 H 0.35558 0.71846 0.60952 0.0
H362 H 0.14785 0.76913 0.95169 0.0
H363 H 0.46176 0.8033 0.63807 0.0
H364 H 0.24987 0.86119 0.97418 0.0
H365 H 0.29771 0.89216 0.9282 0.0
N366 N 0.25916 0.82786 0.86115 0.0
C367 C 0.23151 0.81183 0.88553 0.0
C368 C 0.28171 0.85741 0.87574 0.0
C369 C 0.25212 0.8517 0.94255 0.0
C370 C 0.27912 0.86927 0.91669 0.0
C371 C 0.22724 0.82316 0.9269 0.0
H372 H 0.19397 0.81474 0.98277 0.0
N373 N 0.21009 0.77749 0.82812 0.0
C374 C 0.20581 0.78603 0.86831 0.0
C375 C 0.14781 0.74809 0.87204 0.0
C376 C 0.17482 0.77103 0.89157 0.0
C377 C 0.18319 0.75687 0.80862 0.0
C378 C 0.15177 0.74164 0.8303 0.0
O379 O 0.32785 0.78107 0.72583 0.0
O380 O 0.31786 0.826 0.76532 0.0
O381 O 0.23552 0.8065 0.7493 0.0
O382 O 0.25333 0.84851 0.79369 0.0
O383 O 0.3249 0.78259 0.82972 0.0
O384 O 0.31635 0.82668 0.81392 0.0
O385 O 0.24394 0.75152 0.80811 0.0
O386 O 0.29105 0.74954 0.82757 0.0
O387 O 0.35706 0.72289 0.7825 0.0
O388 O 0.30844 0.69586 0.7612 0.0
O389 O 0.26247 0.76851 0.73495 0.0
O390 O 0.278 0.72496 0.74191 0.0
C391 C 0.33343 0.81285 0.73338 0.0
C392 C 0.32968 0.81424 0.83528 0.0
C393 C 0.24976 0.85735 0.72935 0.0
C394 C 0.23491 0.87783 0.67737 0.0
C395 C 0.29391 0.88349 0.67879 0.0
C396 C 0.28411 0.86833 0.7129 0.0
C397 C 0.26959 0.88811 0.66101 0.0
C398 C 0.22527 0.8623 0.71173 0.0
C399 C 0.23859 0.83704 0.76148 0.0
C400 C 0.17127 0.78069 0.93317 0.0
C401 C 0.19753 0.80666 0.95085 0.0
H402 H 0.12345 0.73623 0.88878 0.0
C403 C 0.25799 0.73851 0.82759 0.0
C404 C 0.26006 0.73728 0.72665 0.0
C405 C 0.32433 0.6734 0.80802 0.0
C406 C 0.34219 0.6519 0.85657 0.0
C407 C 0.28205 0.63545 0.84984 0.0
C408 C 0.29018 0.65488 0.81984 0.0
C409 C 0.30776 0.63405 0.86825 0.0
C410 C 0.35021 0.67163 0.82643 0.0
C411 C 0.33338 0.6943 0.77641 0.0
H412 H 0.32037 0.89116 0.66564 0.0
H413 H 0.30314 0.86441 0.72587 0.0
H414 H 0.27797 0.89932 0.63406 0.0
H415 H 0.19877 0.85384 0.72478 0.0
H416 H 0.25567 0.6214 0.85888 0.0
H417 H 0.26965 0.65545 0.80611 0.0
H418 H 0.30067 0.61893 0.89163 0.0
H419 H 0.37666 0.68511 0.81666 0.0
C420 C 0.3979 0.32026 0.68419 0.0
C421 C 0.39269 0.27818 0.62547 0.0
C422 C 0.37769 0.29378 0.66 0.0
C423 C 0.42831 0.28934 0.61574 0.0
C424 C 0.43363 0.3319 0.67404 0.0
C425 C 0.44872 0.31612 0.63994 0.0
N426 N 0.38263 0.33485 0.71729 0.0
C427 C 0.4014 0.36238 0.73999 0.0
C428 C 0.45315 0.35925 0.6983 0.0
C429 C 0.43691 0.37474 0.73117 0.0
Gd430 Gd 0.28066 0.24669 0.80845 0.0
Gd431 Gd 0.32309 0.31084 0.73019 0.0
N432 N 0.34331 0.2827 0.67096 0.0
C433 C 0.37139 0.25182 0.60175 0.0
C434 C 0.32234 0.25819 0.64694 0.0
C435 C 0.33604 0.24206 0.61229 0.0
H436 H 0.29513 0.25081 0.65479 0.0
H437 H 0.31935 0.2221 0.59378 0.0
H438 H 0.3097 0.30954 0.8816 0.0
H439 H 0.38898 0.37525 0.76446 0.0
H440 H 0.28624 0.33731 0.94377 0.0
H441 H 0.38195 0.23913 0.57503 0.0
H442 H 0.44033 0.27751 0.58947 0.0
H443 H 0.21582 0.18026 0.77781 0.0
H444 H 0.48067 0.36894 0.6915 0.0
H445 H 0.45172 0.39639 0.74952 0.0
H446 H 0.16662 0.27447 0.95786 0.0
H447 H 0.47615 0.32459 0.63185 0.0
H448 H 0.12576 0.18063 0.85885 0.0
H449 H 0.15382 0.15537 0.79782 0.0
N450 N 0.22228 0.21994 0.82586 0.0
C451 C 0.20758 0.23385 0.85999 0.0
C452 C 0.2036 0.19189 0.80388 0.0
C453 C 0.15288 0.19185 0.84996 0.0
C454 C 0.1686 0.17754 0.81543 0.0
C455 C 0.17238 0.22021 0.87288 0.0
H456 H 0.13079 0.2251 0.91843 0.0
N457 N 0.26159 0.27479 0.86866 0.0
C458 C 0.2278 0.2618 0.88228 0.0
C459 C 0.23457 0.30447 0.93983 0.0
C460 C 0.21332 0.27664 0.91795 0.0
C461 C 0.28271 0.30077 0.891 0.0
C462 C 0.26948 0.3163 0.92654 0.0
O463 O 0.34359 0.26826 0.72648 0.0
O464 O 0.29868 0.22392 0.74771 0.0
O465 O 0.3169 0.23805 0.83683 0.0
O466 O 0.26658 0.20136 0.83324 0.0
O467 O 0.26764 0.27764 0.73152 0.0
O468 O 0.26076 0.22793 0.74864 0.0
O469 O 0.25876 0.28701 0.81291 0.0
O470 O 0.29785 0.33322 0.78772 0.0
O471 O 0.29376 0.31895 0.6902 0.0
O472 O 0.34016 0.35786 0.70879 0.0
O473 O 0.33546 0.28133 0.80551 0.0
O474 O 0.34005 0.33094 0.79139 0.0
C475 C 0.32846 0.2362 0.72663 0.0
C476 C 0.25432 0.24539 0.72658 0.0
C477 C 0.29475 0.20529 0.88794 0.0
C478 C 0.31422 0.18217 0.9329 0.0
C479 C 0.28016 0.2172 0.95972 0.0
C480 C 0.27839 0.22077 0.92098 0.0
C481 C 0.29819 0.19817 0.96577 0.0
C482 C 0.31243 0.18597 0.89407 0.0
C483 C 0.29559 0.21017 0.8469 0.0
C484 C 0.17821 0.2633 0.93063 0.0
C485 C 0.15781 0.23518 0.90816 0.0
H486 H 0.22437 0.3167 0.96725 0.0
C487 C 0.26895 0.31836 0.80917 0.0
C488 C 0.34739 0.31357 0.81254 0.0
C489 C 0.31128 0.37091 0.66357 0.0
C490 C 0.27732 0.38714 0.62708 0.0
C491 C 0.33755 0.41903 0.63001 0.0
C492 C 0.3399 0.39782 0.65304 0.0
C493 C 0.30665 0.41389 0.61724 0.0
C494 C 0.27989 0.36558 0.65044 0.0
C495 C 0.315 0.34874 0.68782 0.0
H496 H 0.26755 0.22923 0.98511 0.0
H497 H 0.26453 0.23571 0.91698 0.0
H498 H 0.29913 0.19552 0.99595 0.0
H499 H 0.32539 0.17432 0.8685 0.0
H500 H 0.3598 0.43978 0.62225 0.0
H501 H 0.3643 0.40244 0.66247 0.0
H502 H 0.30563 0.43147 0.60036 0.0
H503 H 0.25767 0.34483 0.65837 0.0
C504 C 0.90685 0.2002 0.73095 0.0
C505 C 0.87908 0.14345 0.74101 0.0
C506 C 0.87844 0.17229 0.73047 0.0
C507 C 0.90874 0.14379 0.75344 0.0
C508 C 0.93715 0.20055 0.74203 0.0
C509 C 0.93777 0.17234 0.75396 0.0
N510 N 0.9053 0.22654 0.71848 0.0
C511 C 0.93379 0.25367 0.71431 0.0
C512 C 0.96599 0.229 0.73995 0.0
C513 C 0.96433 0.25563 0.72579 0.0
Gd514 Gd 0.78965 0.27754 0.74394 0.0
Gd515 Gd 0.85232 0.22349 0.70405 0.0
N516 N 0.85068 0.17293 0.71766 0.0
C517 C 0.85017 0.11504 0.73779 0.0
C518 C 0.82291 0.14497 0.7129 0.0
C519 C 0.82207 0.11574 0.72328 0.0
H520 H 0.80116 0.14514 0.70142 0.0
H521 H 0.7998 0.09377 0.71999 0.0
H522 H 0.78633 0.30212 0.843 0.0
H523 H 0.9329 0.27397 0.70242 0.0
H524 H 0.79963 0.35411 0.89021 0.0
H525 H 0.84956 0.09235 0.7456 0.0
H526 H 0.90971 0.12196 0.76192 0.0
H527 H 0.78519 0.29744 0.65748 0.0
H528 H 0.98975 0.2304 0.74837 0.0
H529 H 0.98659 0.27759 0.72362 0.0
H530 H 0.83546 0.4379 0.80619 0.0
H531 H 0.96072 0.17214 0.76285 0.0
H532 H 0.82313 0.40258 0.66701 0.0
H533 H 0.80119 0.34769 0.62663 0.0
N534 N 0.79939 0.32382 0.71396 0.0
C535 C 0.80954 0.3536 0.73708 0.0
C536 C 0.79483 0.32137 0.67521 0.0
C537 C 0.81623 0.38066 0.68058 0.0
C538 C 0.8038 0.34972 0.65771 0.0
C539 C 0.81852 0.3829 0.72105 0.0
H540 H 0.83614 0.43614 0.73424 0.0
N541 N 0.79934 0.3257 0.79152 0.0
C542 C 0.80946 0.35457 0.77727 0.0
C543 C 0.815 0.38467 0.84402 0.0
C544 C 0.81801 0.3849 0.80298 0.0
C545 C 0.79501 0.32526 0.8317 0.0
C546 C 0.80298 0.35467 0.85846 0.0
O547 O 0.80958 0.20438 0.75376 0.0
O548 O 0.7918 0.24778 0.78902 0.0
O549 O 0.74175 0.28546 0.74748 0.0
O550 O 0.74139 0.23851 0.75587 0.0
O551 O 0.79549 0.19912 0.7053 0.0
O552 O 0.78643 0.2413 0.68749 0.0
O553 O 0.82553 0.27968 0.6863 0.0
O554 O 0.87441 0.27761 0.69933 0.0
O555 O 0.83778 0.22445 0.64771 0.0
O556 O 0.87692 0.20468 0.64735 0.0
O557 O 0.83142 0.29086 0.7837 0.0
O558 O 0.87344 0.26914 0.74927 0.0
C559 C 0.79242 0.21755 0.78474 0.0
C560 C 0.77644 0.21007 0.69057 0.0
C561 C 0.69542 0.25467 0.78833 0.0
C562 C 0.67737 0.27373 0.85739 0.0
C563 C 0.63525 0.24078 0.81257 0.0
C564 C 0.66138 0.23952 0.78136 0.0
C565 C 0.64309 0.25824 0.85023 0.0
C566 C 0.70314 0.27019 0.8265 0.0
C567 C 0.72303 0.25614 0.75546 0.0
C568 C 0.82839 0.41432 0.78701 0.0
C569 C 0.82875 0.41332 0.74606 0.0
H570 H 0.82112 0.40742 0.86484 0.0
C571 C 0.85853 0.29305 0.68647 0.0
C572 C 0.86239 0.28915 0.77843 0.0
C573 C 0.88172 0.23521 0.59601 0.0
C574 C 0.93315 0.28025 0.57644 0.0
C575 C 0.88751 0.25608 0.53449 0.0
C576 C 0.86846 0.2345 0.56164 0.0
C577 C 0.91985 0.27848 0.54145 0.0
C578 C 0.91341 0.25842 0.60359 0.0
C579 C 0.86108 0.21409 0.62594 0.0
H580 H 0.6089 0.22927 0.80718 0.0
H581 H 0.6551 0.22711 0.75186 0.0
H582 H 0.62232 0.26077 0.87288 0.0
H583 H 0.72953 0.28078 0.83144 0.0
H584 H 0.87742 0.25507 0.50763 0.0
H585 H 0.84347 0.21725 0.55583 0.0
H586 H 0.93464 0.29397 0.51915 0.0
H587 H 0.92313 0.25823 0.63019 0.0
C588 C 0.84704 0.86619 0.86962 0.0
C589 C 0.80088 0.85227 0.92389 0.0
C590 C 0.81856 0.84301 0.88695 0.0
C591 C 0.81174 0.88514 0.94259 0.0
C592 C 0.85819 0.89916 0.8885 0.0
C593 C 0.84029 0.90851 0.92495 0.0
N594 N 0.86354 0.85659 0.834 0.0
C595 C 0.89186 0.87841 0.81622 0.0
C596 C 0.8869 0.92181 0.87004 0.0
C597 C 0.90389 0.91133 0.83382 0.0
Gd598 Gd 0.77684 0.77155 0.72406 0.0
Gd599 Gd 0.84072 0.80128 0.80595 0.0
N600 N 0.80812 0.81149 0.86762 0.0
C601 C 0.773 0.82815 0.94115 0.0
C602 C 0.78235 0.78759 0.88564 0.0
C603 C 0.76403 0.79558 0.9222 0.0
H604 H 0.77634 0.76222 0.8728 0.0
H605 H 0.7433 0.77651 0.93602 0.0
H606 H 0.84441 0.80415 0.6569 0.0
H607 H 0.90558 0.87028 0.78882 0.0
H608 H 0.87518 0.78512 0.59419 0.0
H609 H 0.75879 0.83425 0.96952 0.0
H610 H 0.79834 0.8927 0.97085 0.0
H611 H 0.7074 0.70684 0.74468 0.0
H612 H 0.89624 0.94736 0.88359 0.0
H613 H 0.92633 0.92857 0.81952 0.0
H614 H 0.81095 0.67015 0.5652 0.0
H615 H 0.84839 0.93376 0.93979 0.0
H616 H 0.71094 0.62447 0.65539 0.0
H617 H 0.68269 0.64792 0.71772 0.0
N618 N 0.75002 0.716 0.69954 0.0
C619 C 0.7655 0.70385 0.66466 0.0
C620 C 0.72042 0.69652 0.71826 0.0
C621 C 0.7221 0.6502 0.66741 0.0
C622 C 0.70613 0.66331 0.70268 0.0
C623 C 0.75201 0.67054 0.64776 0.0
H624 H 0.75878 0.63304 0.59857 0.0
N625 N 0.80782 0.75677 0.66326 0.0
C626 C 0.79505 0.72483 0.64578 0.0
C627 C 0.84111 0.73487 0.59129 0.0
C628 C 0.81167 0.71296 0.60961 0.0
C629 C 0.83555 0.77853 0.64452 0.0
C630 C 0.85286 0.76785 0.60861 0.0
O631 O 0.80681 0.83097 0.80701 0.0
O632 O 0.75697 0.79408 0.78544 0.0
O633 O 0.76844 0.80645 0.6951 0.0
O634 O 0.72848 0.75986 0.70173 0.0
O635 O 0.80219 0.74927 0.80064 0.0
O636 O 0.75389 0.75077 0.78178 0.0
O637 O 0.81382 0.74326 0.71975 0.0
O638 O 0.86122 0.78245 0.74396 0.0
O639 O 0.85172 0.76807 0.8352 0.0
O640 O 0.8908 0.81445 0.82384 0.0
O641 O 0.81687 0.82289 0.72543 0.0
O642 O 0.86419 0.82319 0.74912 0.0
C643 C 0.77391 0.82239 0.80572 0.0
C644 C 0.76899 0.73741 0.79967 0.0
C645 C 0.73091 0.78501 0.64623 0.0
C646 C 0.70389 0.80079 0.601 0.0
C647 C 0.74135 0.76894 0.57451 0.0
C648 C 0.74672 0.76906 0.61316 0.0
C649 C 0.72025 0.78481 0.56836 0.0
C650 C 0.70928 0.80064 0.64003 0.0
C651 C 0.73816 0.78715 0.68705 0.0
C652 C 0.79841 0.67974 0.59288 0.0
C653 C 0.76869 0.65859 0.6119 0.0
H654 H 0.85464 0.72667 0.56351 0.0
C655 C 0.84678 0.75409 0.7224 0.0
C656 C 0.84957 0.83592 0.72969 0.0
C657 C 0.89378 0.79184 0.87886 0.0
C658 C 0.92176 0.77325 0.91995 0.0
C659 C 0.90334 0.82049 0.94582 0.0
C660 C 0.89104 0.81719 0.90991 0.0
C661 C 0.91879 0.79885 0.95083 0.0
C662 C 0.90846 0.76973 0.88431 0.0
C663 C 0.88255 0.78805 0.83995 0.0
H664 H 0.75375 0.75662 0.54917 0.0
H665 H 0.76346 0.75699 0.61708 0.0
H666 H 0.71643 0.7843 0.53808 0.0
H667 H 0.69733 0.81335 0.66548 0.0
H668 H 0.90132 0.84018 0.96968 0.0
H669 H 0.87971 0.83448 0.90632 0.0
H670 H 0.92894 0.80261 0.97853 0.0
H671 H 0.90951 0.74973 0.8604 0.0
Co672 Co 0.06414 0.96193 0.50253 0.0
Co673 Co 0.08319 1.00786 0.56276 0.0
Co674 Co 0.05063 0.03532 0.51413 0.0
O675 O 0.08044 1.00888 0.50979 0.0
H676 H 0.10285 1.01832 0.49552 0.0
O677 O 1.02191 0.06352 0.52043 0.0
Co678 Co 1.04427 0.11108 0.53009 0.0
Co679 Co 1.01798 0.06886 0.4705 0.0
H680 H 0.99998 0.05552 0.53634 0.0
O681 O 0.12034 1.00341 0.57423 0.0
O682 O 0.07086 0.96302 0.55931 0.0
O683 O 0.05226 1.01999 0.60636 0.0
O684 O 1.0194 1.0169 0.56266 0.0
O685 O 0.08288 0.07121 0.54754 0.0
O686 O 0.06247 0.15363 0.53988 0.0
O687 O 1.00735 0.12257 0.55462 0.0
O688 O 0.08648 0.10646 0.50941 0.0
O689 O 0.08102 0.05291 0.46426 0.0
O690 O 1.04668 0.05547 0.42524 0.0
O691 O 1.03385 0.1144 0.47696 0.0
O692 O 0.98148 0.07822 0.46442 0.0
C693 C 0.08456 0.92555 0.48629 0.0
C694 C 1.00634 0.96932 0.48913 0.0
C695 C 1.023 1.01435 0.59753 0.0
C696 C 0.10099 0.97263 0.57129 0.0
C697 C 1.03167 0.15136 0.55535 0.0
C698 C 0.09841 0.09904 0.53572 0.0
C699 C 0.07607 0.05797 0.43109 0.0
C700 C 1.00318 0.10807 0.46827 0.0
O701 O 0.05191 0.91906 0.49486 0.0
O702 O 0.105 0.95608 0.48675 0.0
O703 O 1.01867 0.99861 0.4806 0.0
O704 O 1.01855 0.96187 0.51542 0.0
Co705 Co 0.59125 0.97481 0.9797 0.0
Co706 Co 0.58269 0.99787 0.05318 0.0
Co707 Co 0.5507 0.03397 1.0083 0.0
O708 O 0.58844 1.01693 1.00892 0.0
H709 H 0.61048 0.03418 1.00718 0.0
O710 O 0.51271 0.05073 1.00762 0.0
Co711 Co 0.50706 0.09087 0.03986 0.0
Co712 Co 0.52215 0.0756 0.96808 0.0
H713 H 0.49112 0.033 1.00553 0.0
O714 O 0.62035 1.00552 0.0752 0.0
O715 O 0.59491 0.96176 0.03043 0.0
O716 O 0.53855 0.98455 0.08276 0.0
O717 O 0.51557 1.00774 0.05 0.0
O718 O 0.57043 0.07211 0.05021 0.0
O719 O 0.49898 0.1263 0.07023 0.0
O720 O 0.4601 0.07727 0.05189 0.0
O721 O 0.55565 0.11087 0.03372 0.0
O722 O 0.58596 0.05971 0.96612 0.0
O723 O 0.56794 0.09376 0.94472 0.0
O724 O 0.50256 0.1063 0.99097 0.0
O725 O 0.48861 0.06465 0.93895 0.0
C726 C 0.62968 0.95559 0.95025 0.0
C727 C 0.52311 0.96594 0.97124 0.0
C728 C 0.51294 0.98979 0.0761 0.0
C729 C 0.61913 0.97745 0.05323 0.0
C730 C 0.46716 0.10756 0.07082 0.0
C731 C 0.57558 0.10238 0.0491 0.0
C732 C 0.59128 0.08294 0.94606 0.0
C733 C 0.48268 0.08926 0.96341 0.0
O734 O 0.59756 0.9375 0.95183 0.0
O735 O 0.63774 0.98643 0.96724 0.0
O736 O 0.53106 0.99593 0.96657 0.0
O737 O 0.5423 0.9567 0.98691 0.0
Co738 Co 0.08651 0.47068 0.96527 0.0
Co739 Co 0.04844 0.4579 0.02669 0.0
Co740 Co 1.03649 0.52152 0.01806 0.0
O741 O 0.07123 0.4984 1.01277 0.0
H742 H 0.0893 0.51067 0.029 0.0
O743 O 1.00269 0.54487 0.02433 0.0
Co744 Co 1.00411 0.58735 0.05601 0.0
Co745 Co 1.00808 0.565 0.98076 0.0
H746 H 0.97968 0.52935 0.02733 0.0
O747 O 0.06777 0.44552 0.05984 0.0
O748 O 0.06695 0.43028 0.99258 0.0
O749 O 1.00005 0.44344 0.03348 0.0
O750 O 1.00178 0.49424 0.05866 0.0
O751 O 0.06059 0.55408 0.06184 0.0
O752 O 1.00009 0.62518 0.08624 0.0
O753 O 0.95864 0.58057 0.06175 0.0
O754 O 0.05255 0.60014 0.05604 0.0
O755 O 0.07194 0.54915 0.97915 0.0
O756 O 0.04799 0.56824 0.94268 0.0
O757 O 1.01123 0.60702 1.00634 0.0
O758 O 0.97328 0.57208 0.96511 0.0
C759 C 0.12797 0.4549 0.94285 0.0
C760 C 1.01822 0.46656 0.94809 0.0
C761 C 0.98592 0.46304 0.05476 0.0
C762 C 0.07396 0.42718 0.02663 0.0
C763 C 0.96784 0.61006 0.08262 0.0
C764 C 0.07041 0.58549 0.06506 0.0
C765 C 0.07382 0.56412 0.95045 0.0
C766 C 0.98845 0.60155 0.98284 0.0
O767 O 0.10222 0.44715 0.92353 0.0
O768 O 0.12921 0.47543 0.97657 0.0
O769 O 1.01131 0.48952 0.97349 0.0
O770 O 1.04543 0.46067 0.94622 0.0
Co771 Co 0.59233 0.46097 1.00635 0.0
Co772 Co 0.58781 0.50438 0.0684 0.0
Co773 Co 0.5602 0.52073 1.00453 0.0
O774 O 0.59567 0.50551 1.01356 0.0
H775 H 0.61843 0.51987 1.00547 0.0
O776 O 0.52496 0.53708 0.9978 0.0
Co777 Co 0.53084 0.58242 0.01755 0.0
Co778 Co 0.52969 0.54696 0.94816 0.0
H779 H 0.5021 0.52233 1.00471 0.0
O780 O 0.62193 0.50861 0.09471 0.0
O781 O 0.58448 0.46144 0.06636 0.0
O782 O 0.54644 0.50763 0.10023 0.0
O783 O 0.52359 0.49482 0.04437 0.0
O784 O 0.57569 0.55824 0.04682 0.0
O785 O 0.53237 0.62202 0.03653 0.0
O786 O 0.48573 0.57599 0.03049 0.0
O787 O 0.58017 0.59608 1.01185 0.0
O788 O 0.59672 0.54697 0.96337 0.0
O789 O 0.57035 0.54746 0.91389 0.0
O790 O 0.52926 0.58965 0.96253 0.0
O791 O 0.49246 0.545 0.92911 0.0
C792 C 0.6254 0.43718 1.0032 0.0
C793 C 0.53315 0.45278 0.97206 0.0
C794 C 0.52059 0.49502 0.08191 0.0
C795 C 0.60821 0.47673 0.08997 0.0
C796 C 0.49976 0.60724 0.04335 0.0
C797 C 0.5907 0.58705 0.03822 0.0
C798 C 0.59745 0.55409 0.92881 0.0
C799 C 0.50244 0.5762 0.94341 0.0
O800 O 0.59339 0.4209 0.99977 0.0
O801 O 0.63679 0.46923 1.00781 0.0
O802 O 0.54416 0.4819 0.96322 0.0
O803 O 0.54443 0.44614 1.0 0.0
Co804 Co 0.10415 0.49237 0.52515 0.0
Co805 Co 0.0935 0.49254 0.4545 0.0
Co806 Co 1.04621 0.52999 0.51988 0.0
O807 O 0.06538 0.49281 0.50359 0.0
H808 H 1.04713 0.47181 0.50371 0.0
O809 O 1.02787 0.5674 0.53524 0.0
Co810 Co 0.98903 0.56722 0.51421 0.0
Co811 Co 1.00114 0.56951 0.58364 0.0
H812 H 1.04621 0.58827 0.53413 0.0
O813 O 0.09753 0.45301 0.42448 0.0
O814 O 0.13064 0.48734 0.47004 0.0
O815 O 0.10886 0.53316 0.4319 0.0
O816 O 0.08011 0.55867 0.48051 0.0
O817 O 1.01396 0.50806 0.47952 0.0
O818 O 0.95572 0.57072 0.49384 0.0
O819 O 1.00457 0.61058 0.51016 0.0
O820 O 0.96866 0.52028 0.51263 0.0
O821 O 1.01208 0.50159 0.55993 0.0
O822 O 0.98766 0.53139 0.60876 0.0
O823 O 0.96476 0.57717 0.5699 0.0
O824 O 1.00255 0.60995 0.61195 0.0
C825 C 0.11812 0.4572 0.54071 0.0
C826 C 0.11041 0.55911 0.55365 0.0
C827 C 0.10165 0.5587 0.44876 0.0
C828 C 0.1244 0.46145 0.44222 0.0
C829 C 0.9757 0.60129 0.49581 0.0
C830 C 0.9818 0.5024 0.48527 0.0
C831 C 0.99278 0.50466 0.59317 0.0
C832 C 0.97553 0.60422 0.59547 0.0
O833 O 0.13721 0.48803 0.54553 0.0
O834 O 0.08985 0.44812 0.52508 0.0
O835 O 0.07819 0.55244 0.56036 0.0
O836 O 0.12383 0.53929 0.53058 0.0
Co837 Co 0.58781 0.97811 0.51374 0.0
Co838 Co 0.57625 0.97896 0.44488 0.0
Co839 Co 0.53387 1.01971 0.51257 0.0
O840 O 0.54987 0.98091 0.49373 0.0
H841 H 0.5307 0.96057 0.49421 0.0
O842 O 0.51769 0.05837 0.53245 0.0
Co843 Co 0.47876 0.06008 0.51393 0.0
Co844 Co 0.49257 0.06006 0.58322 0.0
H845 H 0.53664 0.0788 0.53111 0.0
O846 O 0.57635 0.93862 0.41512 0.0
O847 O 0.61281 0.97131 0.45831 0.0
O848 O 0.5895 1.01811 0.42144 0.0
O849 O 0.56826 0.04842 0.47321 0.0
O850 O 0.50095 1.00085 0.47225 0.0
O851 O 0.44563 0.06588 0.49529 0.0
O852 O 0.49438 0.10391 0.51503 0.0
O853 O 0.4578 1.01363 0.50952 0.0
O854 O 0.49963 0.99121 0.5514 0.0
O855 O 0.47805 1.01942 0.60502 0.0
O856 O 0.45465 0.06503 0.56941 0.0
O857 O 0.48865 0.1001 0.61331 0.0
C858 C 0.59835 0.94111 0.52942 0.0
C859 C 0.59843 0.04356 0.54472 0.0
C860 C 0.58587 0.04518 0.4388 0.0
C861 C 0.60355 0.94506 0.43155 0.0
C862 C 0.46608 0.09631 0.50013 0.0
C863 C 0.46911 0.99643 0.47984 0.0
C864 C 0.48148 0.99272 0.58565 0.0
C865 C 0.46158 0.09155 0.59595 0.0
O866 O 0.61999 0.97108 0.5332 0.0
O867 O 0.57022 0.93437 0.51456 0.0
O868 O 0.56655 0.03847 0.55257 0.0
O869 O 0.61025 1.02469 0.51762 0.0
H870 H 0.18164 0.21116 0.31707 0.0
H871 H 0.27239 0.18773 0.31499 0.0
H872 H 0.2372 0.13801 0.34515 0.0
H873 H 0.14008 0.18523 0.40979 0.0
H874 H 0.09793 0.16842 0.39512 0.0
H875 H 0.13002 0.20157 0.37204 0.0
H876 H 0.12121 0.16679 0.30215 0.0
H877 H 0.08886 0.13347 0.3249 0.0
H878 H 0.12489 0.12649 0.29212 0.0
H879 H 0.19216 0.0925 0.38032 0.0
H880 H 0.14088 0.05492 0.41588 0.0
H881 H 0.07938 0.10566 0.39001 0.0
C882 C 0.19406 0.19521 0.32201 0.0
C883 C 0.22984 0.20329 0.31301 0.0
C884 C 0.24507 0.18219 0.32146 0.0
C885 C 0.22525 0.15373 0.33849 0.0
C886 C 0.19006 0.14638 0.34675 0.0
C887 C 0.17459 0.16644 0.33859 0.0
C888 C 0.13644 0.15358 0.35148 0.0
C889 C 0.12549 0.17869 0.38403 0.0
C890 C 0.11669 0.14454 0.3155 0.0
C891 C 0.13286 0.12317 0.36812 0.0
C892 C 0.1641 0.11954 0.36546 0.0
C893 C 0.16746 0.09472 0.38182 0.0
C894 C 0.13822 0.07339 0.40182 0.0
C895 C 0.10593 0.0766 0.40469 0.0
C896 C 0.1034 0.10164 0.38703 0.0
H897 H 0.85877 0.16978 0.44323 0.0
H898 H 0.92436 0.20929 0.33908 0.0
H899 H 0.97255 0.20161 0.36 0.0
H900 H 0.92346 0.19965 0.51234 0.0
H901 H 0.908 0.16216 0.53372 0.0
H902 H 0.8788 0.17518 0.51576 0.0
H903 H 0.8579 0.12073 0.46869 0.0
H904 H 0.88514 0.10589 0.48736 0.0
H905 H 0.88851 0.10562 0.43442 0.0
H906 H 1.01163 0.18217 0.38635 0.0
H907 H 1.03656 0.15028 0.41441 0.0
H908 H 0.94505 0.12083 0.49863 0.0
C909 C 0.88331 0.17724 0.42497 0.0
C910 C 0.88753 0.19042 0.38955 0.0
C911 C 0.92034 0.1999 0.36683 0.0
C912 C 0.948 0.19552 0.37842 0.0
C913 C 0.94266 0.18164 0.41285 0.0
C914 C 0.91108 0.17265 0.43582 0.0
C915 C 0.91085 0.1545 0.46855 0.0
C916 C 0.90498 0.17407 0.51005 0.0
C917 C 0.88403 0.11963 0.46448 0.0
C918 C 0.9468 0.15355 0.45944 0.0
C919 C 0.96503 0.16992 0.4277 0.0
C920 C 0.99783 0.16985 0.41171 0.0
C921 C 1.01198 0.15198 0.42799 0.0
C922 C 0.99293 0.13381 0.45906 0.0
C923 C 0.96037 0.13529 0.47551 0.0
H924 H 0.86858 0.88633 0.33252 0.0
H925 H 0.87601 0.7931 0.34308 0.0
H926 H 0.91749 0.82173 0.39032 0.0
H927 H 0.96045 0.93319 0.33618 0.0
H928 H 0.95328 0.96983 0.36421 0.0
H929 H 0.92387 0.94237 0.33056 0.0
H930 H 0.87407 0.93716 0.38819 0.0
H931 H 0.9032 0.96436 0.42228 0.0
H932 H 0.87626 0.92399 0.43327 0.0
H933 H 0.95293 0.85847 0.44158 0.0
H934 H 0.98925 0.90308 0.48566 0.0
H935 H 0.96627 0.97479 0.43796 0.0
C936 C 0.87945 0.87203 0.34408 0.0
C937 C 0.86862 0.83727 0.33396 0.0
C938 C 0.88348 0.81962 0.35024 0.0
C939 C 0.9071 0.83566 0.37736 0.0
C940 C 0.91649 0.86961 0.3875 0.0
C941 C 0.90394 0.88784 0.37073 0.0
C942 C 0.9194 0.92432 0.38646 0.0
C943 C 0.94051 0.94356 0.35232 0.0
C944 C 0.89157 0.93827 0.40888 0.0
C945 C 0.9421 0.92345 0.41497 0.0
C946 C 0.9394 0.89146 0.4154 0.0
C947 C 0.95596 0.88373 0.44085 0.0
C948 C 0.97664 0.9094 0.46588 0.0
C949 C 0.98152 0.94268 0.46476 0.0
C950 C 0.96361 0.94969 0.43911 0.0
H951 H 0.07546 0.74431 0.40739 0.0
H952 H 0.18294 0.77743 0.41773 0.0
H953 H 0.179 0.8274 0.46183 0.0
H954 H 0.07418 0.81072 0.3892 0.0
H955 H 1.0341 0.8122 0.41702 0.0
H956 H 1.04043 0.77343 0.40112 0.0
H957 H 1.0267 0.76102 0.47362 0.0
H958 H 1.01865 0.79925 0.49007 0.0
H959 H 0.04889 0.79084 0.51229 0.0
H960 H 0.16879 0.88042 0.4825 0.0
H961 H 0.1493 0.92798 0.49116 0.0
H962 H 0.04855 0.86108 0.46714 0.0
C963 C 0.0975 0.76106 0.42128 0.0
C964 C 0.12941 0.75695 0.40952 0.0
C965 C 0.15819 0.77988 0.42684 0.0
C966 C 0.1562 0.80858 0.45174 0.0
C967 C 0.12516 0.81381 0.45917 0.0
C968 C 0.09589 0.7901 0.44572 0.0
C969 C 0.06724 0.80374 0.45188 0.0
C970 C 0.05324 0.7998 0.41246 0.0
C971 C 1.03869 0.78777 0.48389 0.0
C972 C 0.08601 0.8394 0.46682 0.0
C973 C 0.11914 0.84472 0.47178 0.0
C974 C 0.14252 0.87644 0.48016 0.0
C975 C 0.13148 0.90331 0.4843 0.0
C976 C 0.09749 0.8981 0.4798 0.0
C977 C 0.07461 0.86575 0.47128 0.0
H978 H 0.24332 0.93119 0.64289 0.0
H979 H 0.16795 0.83789 0.66969 0.0
H980 H 0.12548 0.84932 0.64074 0.0
H981 H 0.19026 0.97736 0.66601 0.0
H982 H 0.20994 1.00129 0.62587 0.0
H983 H 0.23443 0.98435 0.6462 0.0
H984 H 0.24953 0.9548 0.57549 0.0
H985 H 0.22509 0.97182 0.55498 0.0
H986 H 0.21571 0.92798 0.54699 0.0
H987 H 0.09003 0.87357 0.6113 0.0
H988 H 0.06618 0.90884 0.58741 0.0
H989 H 0.16668 0.98384 0.57856 0.0
C990 C 0.21818 0.91267 0.64196 0.0
C991 C 0.20919 0.88361 0.65867 0.0
C992 C 0.17551 0.86061 0.65765 0.0
C993 C 0.15125 0.86671 0.64084 0.0
C994 C 0.1611 0.89574 0.62473 0.0
C995 C 0.19392 0.91817 0.62503 0.0
C996 C 0.19815 0.94815 0.60752 0.0
C997 C 0.2088 0.97962 0.63824 0.0
C998 C 0.22363 0.95083 0.56896 0.0
C999 C 0.16229 0.93979 0.59865 0.0
C1000 C 0.14117 0.90931 0.60808 0.0
C1001 C 0.1065 0.89738 0.60361 0.0
C1002 C 0.09314 0.91751 0.59002 0.0
C1003 C 0.11445 0.94922 0.58151 0.0
C1004 C 0.14952 0.95987 0.58511 0.0
H1005 H 0.2194 0.17881 0.70798 0.0
H1006 H 0.23596 0.27368 0.67542 0.0
H1007 H 0.20095 0.24607 0.62105 0.0
H1008 H 0.21889 0.13255 0.60977 0.0
H1009 H 0.18457 0.09645 0.624 0.0
H1010 H 0.21216 0.12337 0.65984 0.0
H1011 H 0.15985 0.13053 0.70862 0.0
H1012 H 0.13208 0.10329 0.67314 0.0
H1013 H 0.13048 0.144 0.69164 0.0
H1014 H 0.167 0.20844 0.56795 0.0
H1015 H 0.12859 0.16374 0.52569 0.0
H1016 H 0.12818 0.09333 0.59671 0.0
C1017 C 0.2154 0.19386 0.68979 0.0
C1018 C 0.23083 0.22852 0.696 0.0
C1019 C 0.22487 0.24714 0.67123 0.0
C1020 C 0.20501 0.23167 0.6401 0.0
C1021 C 0.19062 0.19754 0.63451 0.0
C1022 C 0.1949 0.17885 0.65911 0.0
C1023 C 0.17503 0.14263 0.64776 0.0
C1024 C 0.19911 0.12257 0.63456 0.0
C1025 C 0.14774 0.12933 0.68234 0.0
C1026 C 0.15905 0.14398 0.61286 0.0
C1027 C 0.16895 0.17588 0.60536 0.0
C1028 C 0.15855 0.18341 0.57393 0.0
C1029 C 0.13662 0.15779 0.55013 0.0
C1030 C 0.12455 0.12508 0.55848 0.0
C1031 C 0.13651 0.11811 0.58988 0.0
H1032 H 0.98823 0.29046 0.51838 0.0
H1033 H 0.96279 0.31258 0.64553 0.0
H1034 H 1.00386 0.28952 0.65663 0.0
H1035 H 0.98517 0.22601 0.50146 0.0
H1036 H 1.0232 0.22261 0.46983 0.0
H1037 H 1.01138 0.25746 0.47128 0.0
H1038 H 0.07023 0.29617 0.49108 0.0
H1039 H 0.08212 0.26057 0.4883 0.0
H1040 H 0.08554 0.2904 0.53311 0.0
H1041 H 1.00963 0.23486 0.6513 0.0
H1042 H 1.01146 0.17819 0.63111 0.0
H1043 H 1.03986 0.19455 0.508 0.0
C1044 C 0.99356 0.29309 0.54847 0.0
C1045 C 0.96972 0.29872 0.58116 0.0
C1046 C 0.97914 0.30524 0.61995 0.0
C1047 C 1.00233 0.29189 0.62662 0.0
C1048 C 1.01861 0.27675 0.59357 0.0
C1049 C 1.01774 0.28074 0.55492 0.0
C1050 C 1.03307 0.25817 0.52449 0.0
C1051 C 1.01178 0.23999 0.48986 0.0
C1052 C 0.06992 0.27747 0.50833 0.0
C1053 C 1.03279 0.23506 0.55114 0.0
C1054 C 1.02582 0.24675 0.59112 0.0
C1055 C 1.0172 0.22636 0.62039 0.0
C1056 C 1.01718 0.19394 0.60868 0.0
C1057 C 1.02525 0.18236 0.56805 0.0
C1058 C 1.03351 0.20324 0.53926 0.0
H1059 H 0.91989 0.86503 0.71836 0.0
H1060 H 0.82677 0.87442 0.69766 0.0
H1061 H 0.86076 0.9239 0.6666 0.0
H1062 H 0.96534 0.9532 0.74335 0.0
H1063 H 1.00592 0.95037 0.719 0.0
H1064 H 0.97419 0.91592 0.74034 0.0
H1065 H 0.97695 0.87842 0.67201 0.0
H1066 H 1.00879 0.91267 0.65061 0.0
H1067 H 0.9702 0.89025 0.62829 0.0
H1068 H 0.90519 0.97064 0.63376 0.0
H1069 H 0.95662 1.0103 0.60155 0.0
H1070 H 1.02048 0.97304 0.64792 0.0
C1071 C 0.90654 0.87777 0.708 0.0
C1072 C 0.87049 0.86585 0.71104 0.0
C1073 C 0.85429 0.88292 0.69589 0.0
C1074 C 0.87339 0.91123 0.67831 0.0
C1075 C 0.90879 0.92252 0.67625 0.0
C1076 C 0.92522 0.90635 0.69076 0.0
C1077 C 0.9636 0.92316 0.68403 0.0
C1078 C 0.97812 0.93645 0.72406 0.0
C1079 C 0.98089 0.89973 0.65713 0.0
C1080 C 0.96621 0.95096 0.66289 0.0
C1081 C 0.9343 0.95017 0.65867 0.0
C1082 C 0.9303 0.97187 0.63751 0.0
C1083 C 0.95964 0.99442 0.61945 0.0
C1084 C 0.9926 0.99543 0.623 0.0
C1085 C 0.99573 0.97376 0.64577 0.0
H1086 H 0.3943 0.24955 0.19496 0.0
H1087 H 0.29252 0.17716 0.19169 0.0
H1088 H 0.31684 0.1355 0.15324 0.0
H1089 H 0.42649 0.22116 0.09408 0.0
H1090 H 0.46862 0.22791 0.10456 0.0
H1091 H 0.4447 0.25323 0.13309 0.0
H1092 H 0.45098 0.23956 0.19725 0.0
H1093 H 0.47473 0.21322 0.17235 0.0
H1094 H 0.43657 0.1975 0.20635 0.0
H1095 H 0.35283 0.10047 0.11536 0.0
H1096 H 0.39704 0.07651 0.08084 0.0
H1097 H 0.47542 0.17125 0.10788 0.0
C1098 C 0.37713 0.2249 0.18634 0.0
C1099 C 0.3413 0.21685 0.19674 0.0
C1100 C 0.31994 0.18426 0.18419 0.0
C1101 C 0.33357 0.16024 0.16229 0.0
C1102 C 0.36886 0.16889 0.15258 0.0
C1103 C 0.39036 0.20055 0.16389 0.0
C1104 C 0.42732 0.20356 0.14864 0.0
C1105 C 0.44269 0.22785 0.11827 0.0
C1106 C 0.44864 0.21399 0.18329 0.0
C1107 C 0.42337 0.16846 0.12862 0.0
C1108 C 0.3894 0.14887 0.13078 0.0
C1109 C 0.37951 0.11566 0.11371 0.0
C1110 C 0.40486 0.10217 0.0941 0.0
C1111 C 0.43993 0.12165 0.09174 0.0
C1112 C 0.44898 0.15534 0.10931 0.0
H1113 H 0.84732 0.31471 0.15334 0.0
H1114 H 0.81304 0.38533 0.24114 0.0
H1115 H 0.85003 0.42995 0.20274 0.0
H1116 H 0.93044 0.36055 0.13654 0.0
H1117 H 0.93717 0.34868 0.08316 0.0
H1118 H 0.90403 0.3213 0.11311 0.0
H1119 H 0.85848 0.31848 0.07234 0.0
H1120 H 0.89116 0.34501 0.04056 0.0
H1121 H 0.85452 0.35597 0.06491 0.0
H1122 H 0.89806 0.46789 0.15959 0.0
H1123 H 0.94924 0.49444 0.11379 0.0
H1124 H 0.9484 0.39792 0.05251 0.0
C1125 C 0.84697 0.33944 0.16387 0.0
C1126 C 0.82722 0.34665 0.20007 0.0
C1127 C 0.82759 0.3793 0.21315 0.0
C1128 C 0.84863 0.40479 0.19157 0.0
C1129 C 0.8685 0.39704 0.15638 0.0
C1130 C 0.86715 0.36496 0.14215 0.0
C1131 C 0.89197 0.36318 0.10457 0.0
C1132 C 0.91745 0.34756 0.10972 0.0
C1133 C 0.87289 0.34456 0.06846 0.0
C1134 C 0.90915 0.39936 0.10144 0.0
C1135 C 0.89508 0.41863 0.13112 0.0
C1136 C 0.9088 0.45297 0.13571 0.0
C1137 C 0.93791 0.46787 0.10963 0.0
C1138 C 0.95298 0.44837 0.07954 0.0
C1139 C 0.93762 0.41371 0.07505 0.0
H1140 H 0.69125 0.838 0.0682 0.0
H1141 H 0.77584 0.91683 0.11906 0.0
H1142 H 0.75513 0.95768 0.10387 0.0
H1143 H 0.68807 0.88144 0.98755 0.0
H1144 H 0.64219 0.86476 0.99223 0.0
H1145 H 0.66572 0.84144 1.0025 0.0
H1146 H 0.63066 0.83689 0.07285 0.0
H1147 H 0.60718 0.86019 0.06275 0.0
H1148 H 0.62938 0.87387 0.10608 0.0
H1149 H 0.72321 0.98963 0.08926 0.0
H1150 H 0.68111 1.01142 0.0776 0.0
H1151 H 0.61652 0.91254 0.03507 0.0
C1152 C 0.70583 0.86387 0.07529 0.0
C1153 C 0.73518 0.87426 0.0949 0.0
C1154 C 0.75314 0.90832 0.10445 0.0
C1155 C 0.74175 0.93169 0.09558 0.0
C1156 C 0.71248 0.92066 0.07689 0.0
C1157 C 0.69477 0.88759 0.06663 0.0
C1158 C 0.66267 0.88251 0.04935 0.0
C1159 C 0.66481 0.86659 1.0053 0.0
C1160 C 0.63059 0.86217 0.07426 0.0
C1161 C 0.66435 0.91783 0.05322 0.0
C1162 C 0.69369 0.93935 0.06849 0.0
C1163 C 0.70034 0.97308 0.07691 0.0
C1164 C 0.6761 0.98517 0.07035 0.0
C1165 C 0.6454 0.96366 0.05564 0.0
C1166 C 0.63985 0.92957 0.04605 0.0
H1167 H 0.20627 0.74489 0.17304 0.0
H1168 H 0.26819 0.68443 0.16564 0.0
H1169 H 0.22696 0.63832 0.12788 0.0
H1170 H 0.12704 0.68224 0.18981 0.0
H1171 H 0.10503 0.6956 0.16093 0.0
H1172 H 0.141 0.72495 0.18404 0.0
H1173 H 0.17089 0.74253 0.11525 0.0
H1174 H 0.13489 0.71328 0.09198 0.0
H1175 H 0.1771 0.71181 0.07399 0.0
H1176 H 0.17708 0.5974 0.09556 0.0
H1177 H 0.12277 0.56491 0.06894 0.0
H1178 H 0.09267 0.65149 0.09676 0.0
C1179 C 0.21167 0.72228 0.16255 0.0
C1180 C 0.24077 0.71849 0.17202 0.0
C1181 C 0.24624 0.68807 0.15866 0.0
C1182 C 0.22293 0.66168 0.13717 0.0
C1183 C 0.19414 0.66596 0.12918 0.0
C1184 C 0.18848 0.69553 0.14123 0.0
C1185 C 0.15449 0.69297 0.13072 0.0
C1186 C 0.13048 0.69932 0.16863 0.0
C1187 C 0.15966 0.71655 0.10122 0.0
C1188 C 0.14188 0.6573 0.11108 0.0
C1189 C 0.1652 0.64222 0.11054 0.0
C1190 C 0.15876 0.60902 0.09549 0.0
C1191 C 0.1277 0.5907 0.08058 0.0
C1192 C 0.10334 0.60553 0.08062 0.0
C1193 C 0.11081 0.63942 0.0959 0.0
H1194 H 0.3753 0.87693 0.8311 0.0
H1195 H 0.33556 0.79999 0.90564 0.0
H1196 H 0.37861 0.83224 0.95095 0.0
H1197 H 0.46204 0.8944 0.83765 0.0
H1198 H 0.47422 0.93803 0.8382 0.0
H1199 H 0.43807 0.91002 0.81435 0.0
H1200 H 0.40051 0.94224 0.85911 0.0
H1201 H 0.43667 0.9697 0.88346 0.0
H1202 H 0.39814 0.9475 0.9127 0.0
H1203 H 0.42953 0.86951 0.98382 0.0
H1204 H 0.48314 0.91126 1.00462 0.0
H1205 H 0.48981 0.96522 0.91018 0.0
C1206 C 0.3751 0.86744 0.85765 0.0
C1207 C 0.35205 0.83609 0.86511 0.0
C1208 C 0.353 0.824 0.89953 0.0
C1209 C 0.37736 0.84212 0.92539 0.0
C1210 C 0.40053 0.87243 0.91656 0.0
C1211 C 0.39945 0.88522 0.88378 0.0
C1212 C 0.42867 0.91746 0.87985 0.0
C1213 C 0.45213 0.91481 0.84016 0.0
C1214 C 0.41518 0.94591 0.88404 0.0
C1215 C 0.44648 0.92058 0.91528 0.0
C1216 C 0.42983 0.89425 0.93596 0.0
C1217 C 0.44256 0.89047 0.9682 0.0
C1218 C 0.47313 0.91418 0.97965 0.0
C1219 C 0.49055 0.94149 0.95913 0.0
C1220 C 0.47677 0.94482 0.92677 0.0
H1221 H 0.28121 0.38666 0.8327 0.0
H1222 H 0.20174 0.29053 0.83332 0.0
H1223 H 0.1615 0.31583 0.87298 0.0
H1224 H 0.25338 0.42317 0.93338 0.0
H1225 H 0.26132 0.46284 0.92006 0.0
H1226 H 0.2863 0.43795 0.89326 0.0
H1227 H 0.26946 0.44072 0.82642 0.0
H1228 H 0.24476 0.46593 0.85289 0.0
H1229 H 0.22497 0.42832 0.82099 0.0
H1230 H 0.12877 0.34896 0.91059 0.0
H1231 H 0.10217 0.39035 0.94017 0.0
H1232 H 0.19861 0.46833 0.91599 0.0
C1233 C 0.25533 0.37107 0.84119 0.0
C1234 C 0.24523 0.33625 0.83061 0.0
C1235 C 0.21086 0.31696 0.84194 0.0
C1236 C 0.18749 0.33115 0.86447 0.0
C1237 C 0.19822 0.36507 0.87513 0.0
C1238 C 0.231 0.3851 0.86361 0.0
C1239 C 0.23437 0.42119 0.87801 0.0
C1240 C 0.2604 0.43724 0.90796 0.0
C1241 C 0.24395 0.44016 0.84245 0.0
C1242 C 0.19821 0.41794 0.89859 0.0
C1243 C 0.17829 0.38506 0.8967 0.0
C1244 C 0.14405 0.3748 0.91236 0.0
C1245 C 0.12923 0.3986 0.92947 0.0
C1246 C 0.14831 0.4326 0.93137 0.0
C1247 C 0.18358 0.44255 0.91606 0.0
H1248 H 0.73351 0.22243 0.83069 0.0
H1249 H 0.79688 0.16136 0.80191 0.0
H1250 H 0.75408 0.12123 0.84301 0.0
H1251 H 0.69754 0.20604 0.93246 0.0
H1252 H 0.65622 0.20515 0.92582 0.0
H1253 H 0.69416 0.22995 0.89824 0.0
H1254 H 0.66922 0.19914 0.83135 0.0
H1255 H 0.63149 0.17558 0.86029 0.0
H1256 H 0.65515 0.15502 0.82174 0.0
H1257 H 0.70179 0.08622 0.88628 0.0
H1258 H 0.64533 0.0596 0.92382 0.0
H1259 H 0.61578 0.14262 0.9196 0.0
C1260 C 0.73884 0.20103 0.83367 0.0
C1261 C 0.76892 0.19541 0.81338 0.0
C1262 C 0.77423 0.16646 0.81736 0.0
C1263 C 0.75001 0.14348 0.84069 0.0
C1264 C 0.72025 0.14948 0.85959 0.0
C1265 C 0.71462 0.17755 0.85605 0.0
C1266 C 0.67949 0.1771 0.87625 0.0
C1267 C 0.682 0.20629 0.91021 0.0
C1268 C 0.6575 0.17666 0.84561 0.0
C1269 C 0.66628 0.14467 0.89222 0.0
C1270 C 0.6901 0.12903 0.8826 0.0
C1271 C 0.68304 0.09838 0.89388 0.0
C1272 C 0.65086 0.08338 0.9152 0.0
C1273 C 0.62583 0.09875 0.92448 0.0
C1274 C 0.63405 0.12992 0.91283 0.0
H1275 H 0.92235 0.74917 0.9879 0.0
H1276 H 0.96138 0.74602 0.86138 0.0
H1277 H 0.98489 0.70406 0.8654 0.0
H1278 H 0.99917 0.73948 1.01376 0.0
H1279 H 0.97528 0.71537 0.05262 0.0
H1280 H 0.96161 0.74663 0.04223 0.0
H1281 H 0.90212 0.70419 0.03123 0.0
H1282 H 0.91463 0.67282 0.04277 0.0
H1283 H 0.89863 0.66699 0.99611 0.0
H1284 H 0.99821 0.65837 0.88032 0.0
H1285 H 1.00553 0.61442 0.90754 0.0
H1286 H 0.96397 0.65011 0.02566 0.0
C1287 C 0.9364 0.74021 0.96117 0.0
C1288 C 0.93904 0.75045 0.92403 0.0
C1289 C 0.95771 0.73785 0.88989 0.0
C1290 C 0.97161 0.71423 0.8919 0.0
C1291 C 0.96764 0.70403 0.92852 0.0
C1292 C 0.95122 0.71704 0.9628 0.0
C1293 C 0.95094 0.70168 0.99836 0.0
C1294 C 0.97304 0.72734 0.02856 0.0
C1295 C 0.9144 0.68545 0.01825 0.0
C1296 C 0.96747 0.67639 0.97795 0.0
C1297 C 0.9773 0.6786 0.93773 0.0
C1298 C 0.99127 0.65676 0.91189 0.0
C1299 C 0.99518 0.63187 0.92751 0.0
C1300 C 0.9855 0.62923 0.96856 0.0
C1301 C 0.97195 0.65201 0.99428 0.0
H1302 H 0.21164 0.35555 0.05809 0.0
H1303 H 0.12738 0.27539 0.10468 0.0
H1304 H 0.08647 0.29609 0.08596 0.0
H1305 H 0.17223 0.41645 0.09541 0.0
H1306 H 0.19047 0.4383 0.05324 0.0
H1307 H 0.21248 0.41547 0.06758 0.0
H1308 H 0.2138 0.38276 0.996 0.0
H1309 H 0.19144 0.40535 0.98181 0.0
H1310 H 0.17447 0.36096 0.97509 0.0
H1311 H 0.05504 0.3262 0.06304 0.0
H1312 H 1.03512 0.36694 0.04534 0.0
H1313 H 0.13987 0.42947 0.01817 0.0
C1314 C 0.18454 0.34237 0.06413 0.0
C1315 C 0.17242 0.31385 0.08256 0.0
C1316 C 0.13693 0.29733 0.0906 0.0
C1317 C 0.11364 0.30877 0.0798 0.0
C1318 C 0.12638 0.33694 0.06142 0.0
C1319 C 0.161 0.35383 0.05428 0.0
C1320 C 0.16806 0.38485 0.0371 0.0
C1321 C 0.18691 0.41558 0.06501 0.0
C1322 C 0.18811 0.38336 0.99497 0.0
C1323 C 0.13197 0.38299 0.03594 0.0
C1324 C 0.10831 0.35482 0.04937 0.0
C1325 C 0.07332 0.34817 0.05215 0.0
C1326 C 0.06222 0.37127 0.04187 0.0
C1327 C 0.08601 0.40065 0.02929 0.0
C1328 C 0.12126 0.40656 0.02629 0.0
H1329 H 0.19472 0.69526 0.81257 0.0
H1330 H 0.27269 0.71747 0.88867 0.0
H1331 H 0.23635 0.67034 0.92343 0.0
H1332 H 0.12436 0.67469 0.88481 0.0
H1333 H 0.09699 0.64075 0.85424 0.0
H1334 H 0.12974 0.67338 0.83135 0.0
H1335 H 0.15638 0.63364 0.78459 0.0
H1336 H 0.12313 0.59974 0.80535 0.0
H1337 H 0.16726 0.60507 0.80501 0.0
H1338 H 0.18997 0.62256 0.95232 0.0
H1339 H 0.13585 0.58154 0.97662 0.0
H1340 H 0.08844 0.59052 0.88123 0.0
C1341 C 0.20418 0.69019 0.83651 0.0
C1342 C 0.23648 0.71007 0.84804 0.0
C1343 C 0.24805 0.70248 0.8793 0.0
C1344 C 0.22763 0.67571 0.89912 0.0
C1345 C 0.19598 0.65644 0.88684 0.0
C1346 C 0.18431 0.66338 0.85627 0.0
C1347 C 0.14871 0.63981 0.85003 0.0
C1348 C 0.12347 0.6583 0.85553 0.0
C1349 C 0.14889 0.61829 0.8088 0.0
C1350 C 0.14145 0.61965 0.8832 0.0
C1351 C 0.16933 0.62901 0.90347 0.0
C1352 C 0.16811 0.61482 0.93641 0.0
C1353 C 0.13725 0.59135 0.94986 0.0
C1354 C 0.10784 0.5827 0.93077 0.0
C1355 C 0.11047 0.59642 0.89631 0.0
H1356 H 0.36364 0.19762 0.98171 0.0
H1357 H 0.30718 0.12008 0.89554 0.0
H1358 H 0.3419 0.08687 0.89833 0.0
H1359 H 0.44413 0.19233 0.94379 0.0
H1360 H 0.459 0.19921 0.99139 0.0
H1361 H 0.42733 0.21566 0.98662 0.0
H1362 H 0.38668 0.18557 0.04368 0.0
H1363 H 0.41849 0.1691 0.04832 0.0
H1364 H 0.37606 0.14179 0.04015 0.0
H1365 H 0.38466 0.06436 0.90543 0.0
H1366 H 0.43338 0.05228 0.91684 0.0
H1367 H 0.46418 0.14404 0.99886 0.0
C1368 C 0.3582 0.17334 0.96418 0.0
C1369 C 0.33279 0.1613 0.93837 0.0
C1370 C 0.32666 0.12971 0.91529 0.0
C1371 C 0.34613 0.11066 0.91681 0.0
C1372 C 0.37158 0.12352 0.94165 0.0
C1373 C 0.37764 0.15398 0.96512 0.0
C1374 C 0.40792 0.16247 0.98742 0.0
C1375 C 0.43627 0.1943 0.97663 0.0
C1376 C 0.39655 0.16489 0.03262 0.0
C1377 C 0.41872 0.13261 0.97153 0.0
C1378 C 0.39691 0.11036 0.94564 0.0
C1379 C 0.40179 0.08141 0.92588 0.0
C1380 C 0.42981 0.07493 0.93249 0.0
C1381 C 0.45296 0.09733 0.95856 0.0
C1382 C 0.44703 0.12644 0.97877 0.0
H1383 H 0.85727 0.32185 0.85746 0.0
H1384 H 0.92778 0.31882 0.74838 0.0
H1385 H 0.97166 0.36648 0.77873 0.0
H1386 H 0.88419 0.40968 0.88504 0.0
H1387 H 0.88389 0.41141 0.93776 0.0
H1388 H 0.85531 0.37617 0.91047 0.0
H1389 H 0.87751 0.33604 0.93041 0.0
H1390 H 0.9047 0.37017 0.96088 0.0
H1391 H 0.92276 0.34381 0.92363 0.0
H1392 H 1.00781 0.41473 0.81808 0.0
H1393 H 1.03863 0.45651 0.86955 0.0
H1394 H 0.94862 0.42951 0.95707 0.0
C1395 C 0.882 0.33122 0.84017 0.0
C1396 C 0.88895 0.31613 0.80034 0.0
C1397 C 0.92185 0.32905 0.77903 0.0
C1398 C 0.94692 0.35666 0.79583 0.0
C1399 C 0.9393 0.37113 0.8346 0.0
C1400 C 0.90807 0.3586 0.85712 0.0
C1401 C 0.90823 0.37802 0.89935 0.0
C1402 C 0.8813 0.39484 0.90864 0.0
C1403 C 0.903 0.35568 0.9304 0.0
C1404 C 0.94419 0.40338 0.89651 0.0
C1405 C 0.96121 0.39899 0.85849 0.0
C1406 C 0.99479 0.41846 0.84798 0.0
C1407 C 1.01204 0.44228 0.87739 0.0
C1408 C 0.99597 0.44662 0.91712 0.0
C1409 C 0.96126 0.42733 0.9267 0.0
H1410 H 0.70394 0.81378 0.82549 0.0
H1411 H 0.80484 0.88679 0.83531 0.0
H1412 H 0.77943 0.92697 0.87444 0.0
H1413 H 0.66498 0.87196 0.81359 0.0
H1414 H 0.62476 0.85221 0.84198 0.0
H1415 H 0.65084 0.82844 0.81515 0.0
H1416 H 0.64909 0.8082 0.88009 0.0
H1417 H 0.62476 0.83307 0.90885 0.0
H1418 H 0.66506 0.8373 0.92267 0.0
H1419 H 0.74356 0.96046 0.91262 0.0
H1420 H 0.69942 0.98473 0.94529 0.0
H1421 H 0.62076 0.89202 0.91051 0.0
C1422 C 0.72067 0.83823 0.83577 0.0
C1423 C 0.75669 0.84651 0.82775 0.0
C1424 C 0.77735 0.87908 0.84172 0.0
C1425 C 0.7631 0.90242 0.86389 0.0
C1426 C 0.72777 0.89345 0.87173 0.0
C1427 C 0.70671 0.86227 0.85782 0.0
C1428 C 0.66944 0.85957 0.87003 0.0
C1429 C 0.65145 0.85264 0.83298 0.0
C1430 C 0.65097 0.83297 0.89704 0.0
C1431 C 0.673 0.89394 0.89298 0.0
C1432 C 0.70695 0.91304 0.8935 0.0
C1433 C 0.71686 0.94572 0.91231 0.0
C1434 C 0.69153 0.9594 0.93079 0.0
C1435 C 0.65643 0.94062 0.93049 0.0
C1436 C 0.64727 0.90727 0.91136 0.0
H1437 H 0.89583 0.75306 0.20948 0.0
H1438 H 0.79509 0.68406 0.19029 0.0
H1439 H 0.82014 0.64387 0.14934 0.0
H1440 H 0.93877 0.73242 0.11207 0.0
H1441 H 0.97726 0.73455 0.12883 0.0
H1442 H 0.95274 0.75951 0.15681 0.0
H1443 H 0.94603 0.7357 0.22077 0.0
H1444 H 0.97168 0.71127 0.19478 0.0
H1445 H 0.92968 0.69176 0.21981 0.0
H1446 H 0.85548 0.61007 0.11204 0.0
H1447 H 0.89873 0.58434 0.08172 0.0
H1448 H 0.97809 0.67333 0.12527 0.0
C1449 C 0.8792 0.72964 0.19615 0.0
C1450 C 0.84327 0.72179 0.20298 0.0
C1451 C 0.82246 0.69065 0.18558 0.0
C1452 C 0.83655 0.66761 0.16215 0.0
C1453 C 0.87183 0.67569 0.15647 0.0
C1454 C 0.89297 0.70584 0.1731 0.0
C1455 C 0.93001 0.70739 0.16349 0.0
C1456 C 0.951 0.7351 0.1388 0.0
C1457 C 0.94525 0.71179 0.20201 0.0
C1458 C 0.92628 0.67351 0.13891 0.0
C1459 C 0.89239 0.65578 0.13525 0.0
C1460 C 0.88213 0.62373 0.11468 0.0
C1461 C 0.90699 0.60924 0.09755 0.0
C1462 C 0.942 0.62648 0.10105 0.0
C1463 C 0.95162 0.65926 0.122 0.0
H1464 H 0.38736 0.85235 0.20372 0.0
H1465 H 0.30067 0.86693 0.17285 0.0
H1466 H 0.34037 0.91139 0.13512 0.0
H1467 H 0.44024 0.93812 0.21861 0.0
H1468 H 0.47821 0.92778 0.19997 0.0
H1469 H 0.44108 0.89894 0.22387 0.0
H1470 H 0.44229 0.85482 0.15784 0.0
H1471 H 0.47952 0.8855 0.1371 0.0
H1472 H 0.44266 0.8664 0.1109 0.0
H1473 H 0.39263 0.95439 0.09808 0.0
H1474 H 0.44901 0.98974 0.0686 0.0
H1475 H 0.49885 0.94655 0.12852 0.0
C1476 C 0.3764 0.86455 0.18897 0.0
C1477 C 0.34065 0.85565 0.19121 0.0
C1478 C 0.32787 0.873 0.17162 0.0
C1479 C 0.35032 0.89838 0.15011 0.0
C1480 C 0.38554 0.90643 0.14877 0.0
C1481 C 0.39824 0.88991 0.16802 0.0
C1482 C 0.43676 0.90289 0.16308 0.0
C1483 C 0.44988 0.9178 0.20376 0.0
C1484 C 0.45118 0.87583 0.14096 0.0
C1485 C 0.44421 0.92921 0.13761 0.0
C1486 C 0.41457 0.9311 0.12933 0.0
C1487 C 0.41584 0.95314 0.10486 0.0
C1488 C 0.44805 0.97327 0.08832 0.0
C1489 C 0.47867 0.9714 0.09643 0.0
C1490 C 0.47625 0.94917 0.12186 0.0
H1491 H 0.71581 0.18323 0.2001 0.0
H1492 H 0.73058 0.27754 0.16774 0.0
H1493 H 0.69105 0.24954 0.11726 0.0
H1494 H 0.70752 0.13494 0.09963 0.0
H1495 H 0.67478 0.09961 0.11806 0.0
H1496 H 0.70665 0.12687 0.14894 0.0
H1497 H 0.65907 0.13525 0.20507 0.0
H1498 H 0.62701 0.10826 0.17439 0.0
H1499 H 0.62761 0.1495 0.19432 0.0
H1500 H 0.64705 0.21192 0.07383 0.0
H1501 H 0.60164 0.16739 0.04014 0.0
H1502 H 0.61462 0.09705 0.10085 0.0
C1503 C 0.71117 0.19792 0.1819 0.0
C1504 C 0.72612 0.23261 0.18795 0.0
C1505 C 0.71919 0.25097 0.16378 0.0
C1506 C 0.69686 0.23527 0.13497 0.0
C1507 C 0.68176 0.20113 0.13052 0.0
C1508 C 0.6887 0.18263 0.15319 0.0
C1509 C 0.6675 0.14649 0.14414 0.0
C1510 C 0.69049 0.12576 0.12664 0.0
C1511 C 0.6439 0.13416 0.1817 0.0
C1512 C 0.64733 0.14761 0.11307 0.0
C1513 C 0.65613 0.17937 0.10556 0.0
C1514 C 0.64012 0.18691 0.07924 0.0
C1515 C 0.61424 0.1614 0.06032 0.0
C1516 C 0.60445 0.12863 0.06773 0.0
C1517 C 0.62164 0.12173 0.09419 0.0
H1518 H 0.69864 0.707 0.81231 0.0
H1519 H 0.79318 0.70121 0.83396 0.0
H1520 H 0.76053 0.65337 0.86847 0.0
H1521 H 0.64847 0.68315 0.90324 0.0
H1522 H 0.61038 0.6588 0.88067 0.0
H1523 H 0.64131 0.6931 0.85845 0.0
H1524 H 0.64594 0.65475 0.79133 0.0
H1525 H 0.61506 0.62023 0.81328 0.0
H1526 H 0.65634 0.61858 0.7901 0.0
H1527 H 0.71637 0.60701 0.90463 0.0
H1528 H 0.66511 0.56481 0.93401 0.0
H1529 H 0.60098 0.59787 0.8819 0.0
C1530 C 0.71263 0.69533 0.8234 0.0
C1531 C 0.74867 0.70788 0.81963 0.0
C1532 C 0.76563 0.69222 0.83609 0.0
C1533 C 0.74728 0.6649 0.85585 0.0
C1534 C 0.71184 0.65297 0.85862 0.0
C1535 C 0.69475 0.66751 0.8424 0.0
C1536 C 0.65661 0.64963 0.84871 0.0
C1537 C 0.63811 0.67254 0.87429 0.0
C1538 C 0.64267 0.63492 0.80846 0.0
C1539 C 0.6549 0.62295 0.87118 0.0
C1540 C 0.6869 0.6254 0.87717 0.0
C1541 C 0.6912 0.60451 0.89947 0.0
C1542 C 0.66201 0.58058 0.91602 0.0
C1543 C 0.62903 0.57729 0.90946 0.0
C1544 C 0.6258 0.59885 0.88653 0.0
H1545 H 0.34588 0.59568 0.8729 0.0
H1546 H 0.40086 0.7006 0.88004 0.0
H1547 H 0.44717 0.69396 0.90744 0.0
H1548 H 0.36928 0.58532 0.96436 0.0
H1549 H 0.37251 0.54561 0.94291 0.0
H1550 H 0.34318 0.55947 0.92655 0.0
H1551 H 0.37124 0.55044 0.85329 0.0
H1552 H 0.40065 0.53664 0.86942 0.0
H1553 H 0.41653 0.57031 0.84102 0.0
H1554 H 0.48889 0.67446 0.93194 0.0
H1555 H 0.52199 0.64376 0.948 0.0
H1556 H 0.43807 0.55254 0.92429 0.0
C1557 C 0.36729 0.61743 0.88095 0.0
C1558 C 0.36961 0.64868 0.87455 0.0
C1559 C 0.39861 0.67634 0.88448 0.0
C1560 C 0.42491 0.67285 0.90032 0.0
C1561 C 0.42179 0.64154 0.90607 0.0
C1562 C 0.3936 0.61437 0.89665 0.0
C1563 C 0.39678 0.58313 0.90358 0.0
C1564 C 0.36878 0.56747 0.9363 0.0
C1565 C 0.39629 0.55871 0.8645 0.0
C1566 C 0.43148 0.59674 0.91761 0.0
C1567 C 0.44554 0.63049 0.91942 0.0
C1568 C 0.478 0.64803 0.93073 0.0
C1569 C 0.49662 0.63045 0.9398 0.0
C1570 C 0.48273 0.59577 0.9371 0.0
C1571 C 0.44958 0.57903 0.92641 0.0
H1572 H 0.38203 0.38037 0.8345 0.0
H1573 H 0.37406 0.28337 0.8523 0.0
H1574 H 0.41852 0.30848 0.89637 0.0
H1575 H 0.47359 0.41452 0.82892 0.0
H1576 H 0.47441 0.45469 0.85452 0.0
H1577 H 0.44012 0.42937 0.82602 0.0
H1578 H 0.39611 0.43406 0.88839 0.0
H1579 H 0.43025 0.4594 0.91712 0.0
H1580 H 0.39946 0.42243 0.93402 0.0
H1581 H 0.46421 0.34345 0.93827 0.0
H1582 H 0.51019 0.38643 0.97292 0.0
H1583 H 0.49192 0.46105 0.92551 0.0
C1584 C 0.3898 0.36437 0.84732 0.0
C1585 C 0.37439 0.32972 0.83941 0.0
C1586 C 0.3851 0.30989 0.85765 0.0
C1587 C 0.41051 0.32394 0.88286 0.0
C1588 C 0.42541 0.35799 0.88957 0.0
C1589 C 0.41568 0.37803 0.87222 0.0
C1590 C 0.43691 0.41393 0.88339 0.0
C1591 C 0.45748 0.42901 0.84599 0.0
C1592 C 0.41433 0.43361 0.90715 0.0
C1593 C 0.46006 0.41076 0.90953 0.0
C1594 C 0.45268 0.37826 0.91298 0.0
C1595 C 0.47031 0.36902 0.93576 0.0
C1596 C 0.49637 0.39363 0.95541 0.0
C1597 C 0.50486 0.42713 0.95189 0.0
C1598 C 0.48627 0.43567 0.92864 0.0
H1599 H 0.64228 0.27258 0.9333 0.0
H1600 H 0.73167 0.33098 0.86333 0.0
H1601 H 0.74052 0.37626 0.91775 0.0
H1602 H 0.60608 0.32308 0.94858 0.0
H1603 H 0.58531 0.32007 0.9992 0.0
H1604 H 0.59681 0.28648 0.97021 0.0
H1605 H 0.63174 0.28844 0.02468 0.0
H1606 H 0.62028 0.32259 0.05403 0.0
H1607 H 0.6645 0.32619 0.04111 0.0
H1608 H 0.72836 0.42066 0.96111 0.0
H1609 H 0.69439 0.45713 0.98172 0.0
H1610 H 0.60718 0.37583 0.02051 0.0
C1611 C 0.66438 0.29456 0.9303 0.0
C1612 C 0.68666 0.29763 0.89417 0.0
C1613 C 0.71522 0.32685 0.8912 0.0
C1614 C 0.72031 0.35319 0.92228 0.0
C1615 C 0.69587 0.35086 0.95586 0.0
C1616 C 0.66836 0.32198 0.96029 0.0
C1617 C 0.64036 0.32852 0.99167 0.0
C1618 C 0.60515 0.31374 0.97641 0.0
C1619 C 0.63918 0.31568 0.03015 0.0
C1620 C 0.6536 0.36577 0.998 0.0
C1621 C 0.68695 0.37812 0.98017 0.0
C1622 C 0.70263 0.41139 0.97614 0.0
C1623 C 0.68311 0.43197 0.98761 0.0
C1624 C 0.64819 0.41886 1.00191 0.0
C1625 C 0.63398 0.38612 1.00954 0.0
H1626 H 0.71993 0.46726 0.24213 0.0
H1627 H 0.68995 0.36166 0.20493 0.0
H1628 H 0.65227 0.36497 0.16077 0.0
H1629 H 0.63992 0.47609 0.24113 0.0
H1630 H 0.65946 0.51455 0.22177 0.0
H1631 H 0.68191 0.50294 0.25192 0.0
H1632 H 0.73306 0.50955 0.19539 0.0
H1633 H 0.7108 0.52127 0.16517 0.0
H1634 H 0.72594 0.48728 0.14597 0.0
H1635 H 0.6178 0.38142 0.11912 0.0
H1636 H 0.59314 0.40935 0.08402 0.0
H1637 H 0.65072 0.50353 0.14677 0.0
C1638 C 0.70575 0.44472 0.22457 0.0
C1639 C 0.70816 0.41423 0.22703 0.0
C1640 C 0.68834 0.38534 0.20401 0.0
C1641 C 0.66697 0.387 0.17865 0.0
C1642 C 0.66575 0.41771 0.17659 0.0
C1643 C 0.68483 0.44599 0.19898 0.0
C1644 C 0.68046 0.47626 0.19077 0.0
C1645 C 0.66447 0.49345 0.22865 0.0
C1646 C 0.71459 0.49997 0.17328 0.0
C1647 C 0.65602 0.46081 0.16008 0.0
C1648 C 0.64736 0.42701 0.1523 0.0
C1649 C 0.62467 0.40791 0.12496 0.0
C1650 C 0.61088 0.42393 0.10502 0.0
C1651 C 0.62048 0.45866 0.11191 0.0
C1652 C 0.64306 0.47698 0.1402 0.0
H1653 H 0.70884 0.74191 0.17512 0.0
H1654 H 0.73739 0.66888 0.21248 0.0
H1655 H 0.70744 0.62685 0.16088 0.0
H1656 H 0.62276 0.68526 0.16364 0.0
H1657 H 0.61863 0.70196 0.12233 0.0
H1658 H 0.64596 0.72789 0.15887 0.0
H1659 H 0.69556 0.74273 0.10241 0.0
H1660 H 0.66945 0.71583 0.06521 0.0
H1661 H 0.7087 0.71081 0.0696 0.0
H1662 H 0.6766 0.59304 0.10581 0.0
H1663 H 0.63398 0.56444 0.06019 0.0
H1664 H 0.61624 0.65528 0.06212 0.0
C1665 C 0.70896 0.7171 0.17207 0.0
C1666 C 0.72674 0.70902 0.19686 0.0
C1667 C 0.72511 0.67603 0.19309 0.0
C1668 C 0.70814 0.6519 0.16376 0.0
C1669 C 0.69165 0.66071 0.13927 0.0
C1670 C 0.69067 0.69209 0.14391 0.0
C1671 C 0.66688 0.69331 0.11693 0.0
C1672 C 0.63677 0.70265 0.14193 0.0
C1673 C 0.68635 0.71707 0.08671 0.0
C1674 C 0.65511 0.65776 0.09625 0.0
C1675 C 0.67062 0.6399 0.10922 0.0
C1676 C 0.66407 0.60663 0.09561 0.0
C1677 C 0.63976 0.5906 0.06953 0.0
C1678 C 0.62154 0.60746 0.05761 0.0
C1679 C 0.63007 0.64183 0.0702 0.0
H1680 H 0.483 0.77943 0.09815 0.0
H1681 H 0.50612 0.77908 0.21456 0.0
H1682 H 0.51028 0.72401 0.19211 0.0
H1683 H 0.42964 0.70533 0.08375 0.0
H1684 H 0.442 0.69262 0.03164 0.0
H1685 H 0.45069 0.73558 0.05067 0.0
H1686 H 0.51541 0.74974 0.02685 0.0
H1687 H 0.50663 0.70732 1.00454 0.0
H1688 H 0.53767 0.72607 0.03906 0.0
H1689 H 0.4938 0.66462 0.16495 0.0
H1690 H 0.48646 0.61083 0.12252 0.0
H1691 H 0.47652 0.65002 0.02258 0.0
C1692 C 0.49184 0.76886 0.1176 0.0
C1693 C 0.49379 0.78288 0.15806 0.0
C1694 C 0.5047 0.76851 0.18337 0.0
C1695 C 0.50622 0.73688 0.17119 0.0
C1696 C 0.49855 0.7213 0.13308 0.0
C1697 C 0.49387 0.73745 0.10562 0.0
C1698 C 0.4845 0.71443 0.06723 0.0
C1699 C 0.44964 0.71187 0.05783 0.0
C1700 C 0.51274 0.725 0.03236 0.0
C1701 C 0.48285 0.6826 0.07838 0.0
C1702 C 0.49033 0.68704 0.11677 0.0
C1703 C 0.48889 0.66098 0.13442 0.0
C1704 C 0.48355 0.63027 0.11055 0.0
C1705 C 0.48094 0.6266 0.06954 0.0
C1706 C 0.47798 0.65225 0.05404 0.0
H1707 H 0.40831 0.35297 0.21187 0.0
H1708 H 0.31904 0.35567 0.1715 0.0
H1709 H 0.35566 0.40011 0.13349 0.0
H1710 H 0.45056 0.44129 0.22699 0.0
H1711 H 0.49267 0.43903 0.21075 0.0
H1712 H 0.45962 0.4061 0.23343 0.0
H1713 H 0.469 0.36426 0.17141 0.0
H1714 H 0.50215 0.39703 0.14862 0.0
H1715 H 0.46651 0.37096 0.12254 0.0
H1716 H 0.40222 0.44331 0.09765 0.0
H1717 H 0.45547 0.48337 0.06896 0.0
H1718 H 0.51352 0.4569 0.13806 0.0
C1719 C 0.39631 0.36314 0.19555 0.0
C1720 C 0.36053 0.35095 0.19551 0.0
C1721 C 0.34625 0.36453 0.17256 0.0
C1722 C 0.36687 0.38992 0.15077 0.0
C1723 C 0.40183 0.40192 0.15237 0.0
C1724 C 0.41646 0.38913 0.17434 0.0
C1725 C 0.45466 0.40706 0.17176 0.0
C1726 C 0.46498 0.4244 0.2132 0.0
C1727 C 0.47422 0.38342 0.15243 0.0
C1728 C 0.45917 0.43172 0.14471 0.0
C1729 C 0.42841 0.4281 0.13351 0.0
C1730 C 0.4264 0.44674 0.10669 0.0
C1731 C 0.45669 0.46946 0.09063 0.0
C1732 C 0.4884 0.47381 0.10206 0.0
C1733 C 0.48948 0.45486 0.12976 0.0
H1734 H 0.83049 0.68699 0.6904 0.0
H1735 H 0.91469 0.77996 0.69773 0.0
H1736 H 0.95403 0.75186 0.66037 0.0
H1737 H 0.85698 0.60287 0.67118 0.0
H1738 H 0.83414 0.63035 0.69515 0.0
H1739 H 0.87662 0.63865 0.70576 0.0
H1740 H 0.82553 0.63701 0.62626 0.0
H1741 H 0.84941 0.61068 0.60108 0.0
H1742 H 0.862 0.65186 0.58984 0.0
H1743 H 0.98565 0.71452 0.62703 0.0
H1744 H 1.00837 0.66948 0.60141 0.0
H1745 H 0.90593 0.59819 0.61392 0.0
C1746 C 0.85714 0.70143 0.68364 0.0
C1747 C 0.86932 0.73594 0.69733 0.0
C1748 C 0.90451 0.75368 0.68806 0.0
C1749 C 0.92718 0.73789 0.66654 0.0
C1750 C 0.91467 0.70403 0.65417 0.0
C1751 C 0.88053 0.68583 0.6623 0.0
C1752 C 0.87466 0.6493 0.64728 0.0
C1753 C 0.85972 0.6291 0.68191 0.0
C1754 C 0.85152 0.63644 0.61413 0.0
C1755 C 0.91095 0.64988 0.63064 0.0
C1756 C 0.93334 0.68197 0.6346 0.0
C1757 C 0.96832 0.68935 0.62348 0.0
C1758 C 0.98103 0.66347 0.60893 0.0
C1759 C 0.95914 0.63018 0.60525 0.0
C1760 C 0.92336 0.62334 0.61555 0.0
H1761 H 0.36749 0.87902 0.74936 0.0
H1762 H 0.35167 0.79615 0.65354 0.0
H1763 H 0.39114 0.83266 0.60642 0.0
H1764 H 0.36773 0.93747 0.69101 0.0
H1765 H 0.39934 0.97091 0.71678 0.0
H1766 H 0.37137 0.93707 0.74203 0.0
H1767 H 0.42502 0.92941 0.75754 0.0
H1768 H 0.45278 0.96215 0.73039 0.0
H1769 H 0.45634 0.92182 0.71698 0.0
H1770 H 0.43095 0.87838 0.56959 0.0
H1771 H 0.46581 0.93037 0.54431 0.0
H1772 H 0.45296 0.98442 0.66336 0.0
C1773 C 0.37245 0.86854 0.71847 0.0
C1774 C 0.35714 0.83458 0.70517 0.0
C1775 C 0.36396 0.82187 0.66453 0.0
C1776 C 0.38612 0.84248 0.63753 0.0
C1777 C 0.40082 0.87584 0.65161 0.0
C1778 C 0.39405 0.88887 0.69104 0.0
C1779 C 0.41189 0.92581 0.69813 0.0
C1780 C 0.38602 0.94384 0.71285 0.0
C1781 C 0.43808 0.93535 0.72748 0.0
C1782 C 0.42925 0.93164 0.65629 0.0
C1783 C 0.42293 0.90241 0.63009 0.0
C1784 C 0.4361 0.90142 0.58981 0.0
C1785 C 0.45596 0.93113 0.57577 0.0
C1786 C 0.46211 0.96154 0.60182 0.0
C1787 C 0.44864 0.96163 0.64267 0.0
H1788 H 0.26663 0.39725 0.55547 0.0
H1789 H 0.21336 0.37065 0.67071 0.0
H1790 H 0.16152 0.37552 0.65463 0.0
H1791 H 0.23977 0.45955 0.55716 0.0
H1792 H 0.23483 0.45283 0.505 0.0
H1793 H 0.26423 0.43866 0.52031 0.0
H1794 H 0.23343 0.37938 0.48628 0.0
H1795 H 0.20427 0.3938 0.47064 0.0
H1796 H 0.18826 0.36017 0.4991 0.0
H1797 H 0.11831 0.39213 0.63042 0.0
H1798 H 0.09042 0.42159 0.60244 0.0
H1799 H 0.17392 0.44142 0.50633 0.0
C1800 C 0.24382 0.39166 0.577 0.0
C1801 C 0.24423 0.38359 0.61447 0.0
C1802 C 0.21371 0.37637 0.64161 0.0
C1803 C 0.18407 0.37915 0.63271 0.0
C1804 C 0.18512 0.38878 0.59632 0.0
C1805 C 0.2142 0.39454 0.56865 0.0
C1806 C 0.21043 0.4087 0.53411 0.0
C1807 C 0.23899 0.4419 0.5289 0.0
C1808 C 0.20901 0.38404 0.49524 0.0
C1809 C 0.17603 0.41265 0.5483 0.0
C1810 C 0.161 0.39965 0.58326 0.0
C1811 C 0.12966 0.40182 0.6027 0.0
C1812 C 0.11389 0.41844 0.58658 0.0
C1813 C 0.12988 0.43319 0.55195 0.0
C1814 C 0.16092 0.42968 0.53232 0.0
H1815 H 0.75892 0.19672 0.61538 0.0
H1816 H 0.72435 0.16945 0.73395 0.0
H1817 H 0.67291 0.12602 0.70983 0.0
H1818 H 0.67448 0.17823 0.58472 0.0
H1819 H 0.68651 0.16087 0.53445 0.0
H1820 H 0.7182 0.19286 0.56188 0.0
H1821 H 0.75474 0.15544 0.5501 0.0
H1822 H 0.72322 0.12336 0.52266 0.0
H1823 H 0.73606 0.11516 0.56499 0.0
H1824 H 0.62647 0.08528 0.67314 0.0
H1825 H 0.58948 0.04586 0.62459 0.0
H1826 H 0.65703 0.09489 0.52781 0.0
C1827 C 0.73992 0.18206 0.63626 0.0
C1828 C 0.74471 0.1867 0.67663 0.0
C1829 C 0.72044 0.16643 0.70308 0.0
C1830 C 0.69128 0.1418 0.68966 0.0
C1831 C 0.68737 0.13739 0.64951 0.0
C1832 C 0.71112 0.15666 0.623 0.0
C1833 C 0.70237 0.14451 0.58064 0.0
C1834 C 0.69495 0.17068 0.56448 0.0
C1835 C 0.73079 0.13399 0.55299 0.0
C1836 C 0.67028 0.11518 0.5875 0.0
C1837 C 0.66176 0.11206 0.62759 0.0
C1838 C 0.63288 0.08734 0.64166 0.0
C1839 C 0.61211 0.06513 0.61399 0.0
C1840 C 0.62081 0.06737 0.57277 0.0
C1841 C 0.65026 0.0926 0.55925 0.0
H1842 H 0.82029 0.3579 0.39635 0.0
H1843 H 0.88597 0.35963 0.28267 0.0
H1844 H 0.93172 0.40531 0.31328 0.0
H1845 H 0.85073 0.44795 0.42667 0.0
H1846 H 0.84851 0.44552 0.47865 0.0
H1847 H 0.81974 0.41311 0.44798 0.0
H1848 H 0.83999 0.37017 0.46678 0.0
H1849 H 0.86843 0.40258 0.49769 0.0
H1850 H 0.88489 0.37604 0.45881 0.0
H1851 H 0.97177 0.44737 0.35551 0.0
H1852 H 1.00377 0.48744 0.4072 0.0
H1853 H 0.91331 0.4628 0.4948 0.0
C1854 C 0.84422 0.36811 0.37791 0.0
C1855 C 0.84963 0.35459 0.33714 0.0
C1856 C 0.88129 0.36882 0.31406 0.0
C1857 C 0.90749 0.39504 0.33113 0.0
C1858 C 0.90172 0.40725 0.37137 0.0
C1859 C 0.87088 0.39468 0.39456 0.0
C1860 C 0.87204 0.41272 0.43729 0.0
C1861 C 0.84622 0.43091 0.44829 0.0
C1862 C 0.86599 0.38895 0.46687 0.0
C1863 C 0.90854 0.43681 0.4344 0.0
C1864 C 0.92499 0.43296 0.39595 0.0
C1865 C 0.95913 0.45094 0.38565 0.0
C1866 C 0.97715 0.47354 0.41535 0.0
C1867 C 0.96107 0.4784 0.45502 0.0
C1868 C 0.92613 0.45992 0.46461 0.0
H1869 H 0.76043 0.87905 0.33481 0.0
H1870 H 0.68439 0.78114 0.33308 0.0
H1871 H 0.64115 0.80471 0.36902 0.0
H1872 H 0.72872 0.91582 0.43224 0.0
H1873 H 0.73518 0.9545 0.41727 0.0
H1874 H 0.76216 0.93094 0.39293 0.0
H1875 H 0.74726 0.93052 0.32411 0.0
H1876 H 0.72091 0.95487 0.34755 0.0
H1877 H 0.70318 0.91631 0.31614 0.0
H1878 H 0.60452 0.83779 0.40116 0.0
H1879 H 0.57632 0.87906 0.42643 0.0
H1880 H 0.67361 0.95733 0.40918 0.0
C1881 C 0.73473 0.8626 0.34224 0.0
C1882 C 0.72635 0.82791 0.33172 0.0
C1883 C 0.69212 0.80754 0.3416 0.0
C1884 C 0.6671 0.82077 0.36195 0.0
C1885 C 0.67611 0.85476 0.37208 0.0
C1886 C 0.70899 0.87558 0.36246 0.0
C1887 C 0.71089 0.91139 0.37515 0.0
C1888 C 0.73568 0.9292 0.40626 0.0
C1889 C 0.72117 0.92933 0.33856 0.0
C1890 C 0.67402 0.90726 0.39335 0.0
C1891 C 0.65457 0.87423 0.39101 0.0
C1892 C 0.61953 0.86371 0.40342 0.0
C1893 C 0.60368 0.88737 0.41774 0.0
C1894 C 0.62263 0.92141 0.42023 0.0
C1895 C 0.65851 0.93149 0.40845 0.0
H1896 H 0.22463 0.67887 0.29344 0.0
H1897 H 0.2274 0.76006 0.3894 0.0
H1898 H 0.1867 0.72122 0.43357 0.0
H1899 H 0.13582 0.62777 0.31539 0.0
H1900 H 0.14525 0.59026 0.30333 0.0
H1901 H 0.17213 0.62536 0.27956 0.0
H1902 H 0.22339 0.6203 0.30399 0.0
H1903 H 0.19614 0.58682 0.33 0.0
H1904 H 0.22391 0.62316 0.35689 0.0
H1905 H 0.14466 0.67374 0.46661 0.0
H1906 H 0.10969 0.62066 0.48927 0.0
H1907 H 0.13753 0.56914 0.37367 0.0
C1908 C 0.21669 0.68845 0.32378 0.0
C1909 C 0.22824 0.72273 0.3378 0.0
C1910 C 0.21767 0.73412 0.37778 0.0
C1911 C 0.19485 0.7122 0.40307 0.0
C1912 C 0.18323 0.6787 0.38813 0.0
C1913 C 0.19424 0.66674 0.34963 0.0
C1914 C 0.17923 0.62936 0.34183 0.0
C1915 C 0.15679 0.61753 0.30801 0.0
C1916 C 0.2074 0.61405 0.33267 0.0
C1917 C 0.158 0.62226 0.38184 0.0
C1918 C 0.16036 0.65112 0.40791 0.0
C1919 C 0.1428 0.65099 0.44649 0.0
C1920 C 0.12283 0.62062 0.45904 0.0
C1921 C 0.1208 0.59054 0.43337 0.0
C1922 C 0.13858 0.59158 0.39411 0.0
H1923 H 0.40994 0.17339 0.3497 0.0
H1924 H 0.43716 0.26603 0.42956 0.0
H1925 H 0.4485 0.23903 0.47886 0.0
H1926 H 0.36791 0.12097 0.42919 0.0
H1927 H 0.38306 0.08841 0.40218 0.0
H1928 H 0.37451 0.11471 0.37533 0.0
H1929 H 0.43612 0.12914 0.33801 0.0
H1930 H 0.44493 0.10313 0.3649 0.0
H1931 H 0.47166 0.14574 0.36645 0.0
H1932 H 0.4642 0.20303 0.51476 0.0
H1933 H 0.47747 0.15985 0.53716 0.0
H1934 H 0.43554 0.09026 0.43579 0.0
C1935 C 0.41766 0.18773 0.37795 0.0
C1936 C 0.42272 0.22162 0.38617 0.0
C1937 C 0.43297 0.23991 0.42315 0.0
C1938 C 0.43951 0.22481 0.45114 0.0
C1939 C 0.43497 0.19134 0.44181 0.0
C1940 C 0.42362 0.17292 0.4064 0.0
C1941 C 0.42162 0.13766 0.40289 0.0
C1942 C 0.38457 0.11405 0.40238 0.0
C1943 C 0.44498 0.1284 0.36588 0.0
C1944 C 0.43477 0.1393 0.44115 0.0
C1945 C 0.44244 0.17044 0.46326 0.0
C1946 C 0.45767 0.17841 0.49808 0.0
C1947 C 0.46529 0.1539 0.51044 0.0
C1948 C 0.45717 0.12185 0.4883 0.0
C1949 C 0.44134 0.11445 0.45362 0.0
H1950 H 0.7173 0.84306 0.54713 0.0
H1951 H 0.64009 0.79697 0.63955 0.0
H1952 H 0.60277 0.82493 0.62797 0.0
H1953 H 0.70755 0.92038 0.57021 0.0
H1954 H 0.71367 0.92717 0.51913 0.0
H1955 H 0.73286 0.90128 0.53214 0.0
H1956 H 0.70392 0.85591 0.47785 0.0
H1957 H 0.68103 0.87915 0.4665 0.0
H1958 H 0.65801 0.8394 0.4813 0.0
H1959 H 0.57357 0.85779 0.60559 0.0
H1960 H 0.55812 0.89817 0.58006 0.0
H1961 H 0.65609 0.92557 0.50609 0.0
C1962 C 0.69232 0.83846 0.56446 0.0
C1963 C 0.68147 0.81766 0.59408 0.0
C1964 C 0.64895 0.81291 0.61687 0.0
C1965 C 0.62748 0.82845 0.61023 0.0
C1966 C 0.63894 0.84878 0.58079 0.0
C1967 C 0.67071 0.85397 0.55841 0.0
C1968 C 0.67776 0.87855 0.53032 0.0
C1969 C 0.70986 0.90864 0.53848 0.0
C1970 C 0.68036 0.86222 0.48644 0.0
C1971 C 0.64574 0.88743 0.54166 0.0
C1972 C 0.6231 0.86917 0.56978 0.0
C1973 C 0.59121 0.87232 0.58373 0.0
C1974 C 0.58259 0.89514 0.56902 0.0
C1975 C 0.60612 0.91498 0.54158 0.0
C1976 C 0.63791 0.91087 0.52752 0.0
H1977 H 0.72618 0.21705 0.39141 0.0
H1978 H 0.69554 0.18976 0.27281 0.0
H1979 H 0.6479 0.1417 0.29424 0.0
H1980 H 0.71157 0.13619 0.40537 0.0
H1981 H 0.69611 0.14138 0.45791 0.0
H1982 H 0.7252 0.17625 0.43525 0.0
H1983 H 0.6821 0.2071 0.4608 0.0
H1984 H 0.65305 0.17222 0.48358 0.0
H1985 H 0.63904 0.18797 0.44863 0.0
H1986 H 0.60853 0.09369 0.32491 0.0
H1987 H 0.57795 0.0483 0.36434 0.0
H1988 H 0.63192 0.10546 0.4645 0.0
C1989 C 0.70882 0.20129 0.37046 0.0
C1990 C 0.71419 0.20708 0.33055 0.0
C1991 C 0.69176 0.18558 0.30344 0.0
C1992 C 0.66453 0.15838 0.31543 0.0
C1993 C 0.6602 0.15279 0.35464 0.0
C1994 C 0.68156 0.17358 0.38192 0.0
C1995 C 0.67285 0.15997 0.42113 0.0
C1996 C 0.70324 0.15305 0.43045 0.0
C1997 C 0.66106 0.18323 0.45556 0.0
C1998 C 0.64362 0.12824 0.41131 0.0
C1999 C 0.63682 0.12475 0.37276 0.0
C2000 C 0.61306 0.09639 0.35541 0.0
C2001 C 0.59591 0.07075 0.37791 0.0
C2002 C 0.60224 0.07378 0.41746 0.0
C2003 C 0.62606 0.10304 0.43462 0.0
H2004 H 0.84279 0.64576 0.40971 0.0
H2005 H 0.92888 0.71329 0.34578 0.0
H2006 H 0.96775 0.7078 0.38664 0.0
H2007 H 0.87628 0.66746 0.50962 0.0
H2008 H 0.85897 0.62489 0.51673 0.0
H2009 H 0.83777 0.6405 0.48944 0.0
H2010 H 0.84092 0.59457 0.42955 0.0
H2011 H 0.8625 0.57945 0.45665 0.0
H2012 H 0.88183 0.59099 0.40815 0.0
H2013 H 0.99777 0.68956 0.4286 0.0
H2014 H 1.01651 0.6564 0.46274 0.0
H2015 H 0.91089 0.59833 0.49577 0.0
C2016 C 0.86968 0.66025 0.4055 0.0
C2017 C 0.88299 0.68041 0.37539 0.0
C2018 C 0.91839 0.69809 0.36925 0.0
C2019 C 0.94052 0.69522 0.39242 0.0
C2020 C 0.92679 0.67441 0.42134 0.0
C2021 C 0.89212 0.65717 0.42787 0.0
C2022 C 0.88431 0.63276 0.45626 0.0
C2023 C 0.86309 0.64198 0.49533 0.0
C2024 C 0.86636 0.59737 0.43645 0.0
C2025 C 0.92004 0.63778 0.46315 0.0
C2026 C 0.94417 0.66264 0.44388 0.0
C2027 C 0.97905 0.67032 0.44418 0.0
C2028 C 0.9895 0.65144 0.46365 0.0
C2029 C 0.96511 0.62478 0.48157 0.0
C2030 C 0.93004 0.61857 0.48219 0.0
H2031 H 0.30485 0.85978 0.39095 0.0
H2032 H 0.35919 0.88208 0.27455 0.0
H2033 H 0.40376 0.92845 0.30615 0.0
H2034 H 0.33107 0.95101 0.43944 0.0
H2035 H 0.33418 0.94124 0.48633 0.0
H2036 H 0.30325 0.91247 0.45518 0.0
H2037 H 0.32858 0.86649 0.45393 0.0
H2038 H 0.35742 0.89573 0.48696 0.0
H2039 H 0.37402 0.87594 0.44099 0.0
H2040 H 0.44783 0.96322 0.34782 0.0
H2041 H 0.48518 0.99381 0.39969 0.0
H2042 H 0.40231 0.9551 0.49141 0.0
C2043 C 0.32532 0.8755 0.37241 0.0
C2044 C 0.32856 0.86748 0.33026 0.0
C2045 C 0.35617 0.88792 0.3068 0.0
C2046 C 0.38175 0.91428 0.32449 0.0
C2047 C 0.37909 0.9205 0.36591 0.0
C2048 C 0.35117 0.90258 0.38984 0.0
C2049 C 0.35581 0.91445 0.43376 0.0
C2050 C 0.32952 0.93077 0.45493 0.0
C2051 C 0.35379 0.88643 0.45507 0.0
C2052 C 0.39168 0.93972 0.43019 0.0
C2053 C 0.40437 0.94278 0.39065 0.0
C2054 C 0.43794 0.96187 0.37902 0.0
C2055 C 0.45909 0.97882 0.4086 0.0
C2056 C 0.44652 0.97692 0.44938 0.0
C2057 C 0.41229 0.9573 0.46037 0.0
H2058 H 0.19189 0.31389 0.32307 0.0
H2059 H 0.29415 0.38427 0.33102 0.0
H2060 H 0.27066 0.42509 0.37279 0.0
H2061 H 0.15654 0.37328 0.31119 0.0
H2062 H 0.11574 0.35523 0.3396 0.0
H2063 H 0.14042 0.32984 0.31386 0.0
H2064 H 0.13813 0.31022 0.38029 0.0
H2065 H 0.11353 0.3357 0.40625 0.0
H2066 H 0.15279 0.34025 0.42296 0.0
H2067 H 0.23615 0.45929 0.41448 0.0
H2068 H 0.19348 0.48606 0.44477 0.0
H2069 H 0.11286 0.39699 0.40463 0.0
C2070 C 0.20936 0.33781 0.33376 0.0
C2071 C 0.24525 0.34503 0.32481 0.0
C2072 C 0.26682 0.37714 0.33882 0.0
C2073 C 0.25362 0.40084 0.3624 0.0
C2074 C 0.21839 0.39285 0.37122 0.0
C2075 C 0.19646 0.36232 0.35677 0.0
C2076 C 0.15957 0.36114 0.3684 0.0
C2077 C 0.14204 0.35448 0.33103 0.0
C2078 C 0.13984 0.33528 0.39611 0.0
C2079 C 0.16434 0.39587 0.39077 0.0
C2080 C 0.1985 0.41345 0.39285 0.0
C2081 C 0.20934 0.44579 0.41268 0.0
C2082 C 0.18485 0.46083 0.42999 0.0
C2083 C 0.14971 0.44391 0.42705 0.0
C2084 C 0.13949 0.41079 0.40731 0.0
H2085 H 0.39682 0.24169 0.70857 0.0
H2086 H 0.29512 0.1769 0.6857 0.0
H2087 H 0.3188 0.13528 0.64538 0.0
H2088 H 0.44246 0.21702 0.61071 0.0
H2089 H 0.47844 0.21883 0.6324 0.0
H2090 H 0.45431 0.24539 0.65554 0.0
H2091 H 0.44389 0.22315 0.72222 0.0
H2092 H 0.46795 0.19654 0.69948 0.0
H2093 H 0.42482 0.17947 0.72308 0.0
H2094 H 0.35305 0.09946 0.60926 0.0
H2095 H 0.39441 0.07042 0.58495 0.0
H2096 H 0.47398 0.1557 0.63513 0.0
C2097 C 0.37969 0.21892 0.69452 0.0
C2098 C 0.34404 0.21262 0.70025 0.0
C2099 C 0.32243 0.18228 0.6819 0.0
C2100 C 0.33571 0.15851 0.65871 0.0
C2101 C 0.37078 0.16506 0.65429 0.0
C2102 C 0.39252 0.19443 0.67185 0.0
C2103 C 0.42884 0.19402 0.6649 0.0
C2104 C 0.45241 0.22038 0.63937 0.0
C2105 C 0.44215 0.19856 0.7048 0.0
C2106 C 0.42389 0.15953 0.64187 0.0
C2107 C 0.39031 0.14363 0.6352 0.0
C2108 C 0.37939 0.11168 0.61442 0.0
C2109 C 0.40315 0.09532 0.60067 0.0
C2110 C 0.43747 0.11046 0.60837 0.0
C2111 C 0.44789 0.14322 0.62901 0.0
H2112 H 0.87738 0.31757 0.6154 0.0
H2113 H 0.87958 0.34619 0.7429 0.0
H2114 H 0.91429 0.40318 0.733 0.0
H2115 H 0.95992 0.36512 0.58319 0.0
H2116 H 0.95191 0.37996 0.54254 0.0
H2117 H 0.92363 0.34141 0.55695 0.0
H2118 H 0.87087 0.35771 0.56944 0.0
H2119 H 0.89711 0.39595 0.55182 0.0
H2120 H 0.87154 0.39624 0.60007 0.0
H2121 H 0.9498 0.45673 0.70922 0.0
H2122 H 0.98338 0.50372 0.67308 0.0
H2123 H 0.9593 0.44117 0.56039 0.0
C2124 C 0.88503 0.33603 0.6411 0.0
C2125 C 0.87661 0.3275 0.67997 0.0
C2126 C 0.88692 0.35206 0.71293 0.0
C2127 C 0.90622 0.3846 0.70757 0.0
C2128 C 0.91483 0.39225 0.6689 0.0
C2129 C 0.90431 0.36883 0.63619 0.0
C2130 C 0.91731 0.38386 0.59788 0.0
C2131 C 0.93964 0.36658 0.56845 0.0
C2132 C 0.88742 0.38341 0.57867 0.0
C2133 C 0.93821 0.4187 0.61394 0.0
C2134 C 0.93573 0.42318 0.65511 0.0
C2135 C 0.95199 0.45348 0.67697 0.0
C2136 C 0.97108 0.47996 0.65622 0.0
C2137 C 0.97437 0.47584 0.61401 0.0
C2138 C 0.95783 0.44474 0.59262 0.0
H2139 H 0.25374 0.67352 0.69125 0.0
H2140 H 0.21344 0.75141 0.69592 0.0
H2141 H 0.17325 0.71514 0.64957 0.0
H2142 H 0.24749 0.64124 0.58539 0.0
H2143 H 0.23517 0.59904 0.59269 0.0
H2144 H 0.26187 0.6315 0.62543 0.0
H2145 H 0.21863 0.61134 0.68673 0.0
H2146 H 0.19176 0.57886 0.65426 0.0
H2147 H 0.17468 0.60743 0.68871 0.0
H2148 H 0.13455 0.66971 0.60694 0.0
H2149 H 0.10116 0.61807 0.56814 0.0
H2150 H 0.16786 0.56999 0.58713 0.0
C2151 C 0.23666 0.68306 0.6823 0.0
C2152 C 0.23692 0.71546 0.69736 0.0
C2153 C 0.21401 0.72684 0.68486 0.0
C2154 C 0.19098 0.70639 0.65845 0.0
C2155 C 0.1913 0.67465 0.64435 0.0
C2156 C 0.21366 0.66304 0.65553 0.0
C2157 C 0.20815 0.62762 0.6364 0.0
C2158 C 0.24007 0.62469 0.6083 0.0
C2159 C 0.19767 0.60498 0.66843 0.0
C2160 C 0.17891 0.62107 0.61318 0.0
C2161 C 0.16957 0.64858 0.61839 0.0
C2162 C 0.14191 0.64815 0.60213 0.0
C2163 C 0.12308 0.61874 0.58024 0.0
C2164 C 0.13225 0.59031 0.57429 0.0
C2165 C 0.16081 0.59163 0.59054 0.0
loop_
_geom_bond_atom_site_label_1
_geom_bond_atom_site_label_2
_geom_bond_distance
_geom_bond_site_symmetry_2
_ccdc_geom_bond_type
C0 C2 1.422 . S
C0 C4 1.415 . S
C0 N6 1.369 . S
C1 C2 1.421 . S
C1 C3 1.417 . S
C1 C13 1.422 . S
C2 C0 1.422 . S
C2 C1 1.421 . S
C2 N12 1.359 . S
C3 C1 1.417 . S
C3 C5 1.329 . S
C3 H22 0.930 . S
C4 C0 1.415 . S
C4 C5 1.437 . S
C4 C8 1.413 . S
C5 C3 1.329 . S
C5 C4 1.437 . S
C5 H27 0.929 . S
N6 C0 1.369 . S
N6 C7 1.338 . S
N6 Gd11 2.622 . S
C7 N6 1.338 . S
C7 C9 1.378 . S
C7 H19 0.929 . S
C8 C4 1.413 . S
C8 C9 1.348 . S
C8 H24 0.931 . S
C9 C7 1.378 . S
C9 C8 1.348 . S
C9 H25 0.930 . S
Gd10 N30 2.622 . S
Gd10 N37 2.570 . S
Gd10 O44 2.353 . S
Gd10 O45 2.468 . S
Gd10 O46 2.427 . S
Gd10 O48 2.388 . S
Gd10 O49 2.386 . S
Gd10 O53 2.307 . S
Gd10 C63 2.805 . S
Gd11 N6 2.622 . S
Gd11 N12 2.570 . S
Gd11 O43 2.386 . S
Gd11 O47 2.307 . S
Gd11 O50 2.353 . S
Gd11 O51 2.468 . S
Gd11 O52 2.427 . S
Gd11 O54 2.388 . S
Gd11 C75 2.805 . S
N12 C2 1.359 . S
N12 Gd11 2.570 . S
N12 C14 1.343 . S
C13 C1 1.422 . S
C13 C15 1.321 . S
C13 H21 0.931 . S
C14 N12 1.343 . S
C14 C15 1.390 . S
C14 H16 0.931 . S
C15 C13 1.321 . S
C15 C14 1.390 . S
C15 H17 0.930 . S
H16 C14 0.931 . S
H17 C15 0.930 . S
H18 C41 0.931 . S
H19 C7 0.929 . S
H20 C42 0.930 . S
H21 C13 0.931 . S
H22 C3 0.930 . S
H23 C32 0.929 . S
H24 C8 0.931 . S
H25 C9 0.930 . S
H26 C64 0.930 . S
H27 C5 0.929 . S
H28 C33 0.931 . S
H29 C34 0.930 . S
N30 Gd10 2.622 . S
N30 C31 1.369 . S
N30 C32 1.338 . S
C31 N30 1.369 . S
C31 C35 1.415 . S
C31 C38 1.422 . S
C32 H23 0.929 . S
C32 N30 1.338 . S
C32 C34 1.378 . S
C33 H28 0.931 . S
C33 C34 1.348 . S
C33 C35 1.413 . S
C34 H29 0.930 . S
C34 C32 1.378 . S
C34 C33 1.348 . S
C35 C31 1.415 . S
C35 C33 1.413 . S
C35 C65 1.437 . S
H36 C65 0.929 . S
N37 Gd10 2.570 . S
N37 C38 1.359 . S
N37 C41 1.343 . S
C38 C31 1.422 . S
C38 N37 1.359 . S
C38 C40 1.421 . S
C39 C40 1.422 . S
C39 C42 1.321 . S
C39 H66 0.931 . S
C40 C38 1.421 . S
C40 C39 1.422 . S
C40 C64 1.417 . S
C41 H18 0.931 . S
C41 N37 1.343 . S
C41 C42 1.390 . S
C42 H20 0.930 . S
C42 C39 1.321 . S
C42 C41 1.390 . S
O43 Gd11 2.386 . S
O43 C55 1.265 . S
O44 Gd10 2.353 . S
O44 C55 1.242 . S
O45 Gd10 2.468 . S
O45 C63 1.263 . S
O46 Gd10 2.427 . S
O46 C63 1.252 . S
O47 Gd11 2.307 . S
O47 C56 1.261 . S
O48 Gd10 2.388 . S
O48 C56 1.252 . S
O49 Gd10 2.386 . S
O49 C67 1.265 . S
O50 Gd11 2.353 . S
O50 C67 1.242 . S
O51 Gd11 2.468 . S
O51 C75 1.263 . S
O52 Gd11 2.427 . S
O52 C75 1.252 . S
O53 Gd10 2.307 . S
O53 C68 1.261 . S
O54 Gd11 2.388 . S
O54 C68 1.252 . S
C55 O43 1.265 . S
C55 O44 1.242 . S
C56 O47 1.261 . S
C56 O48 1.252 . S
C57 C60 1.394 . S
C57 C62 1.370 . S
C57 C63 1.500 . S
C58 C61 1.383 . S
C58 C62 1.395 . S
C59 C60 1.396 . S
C59 C61 1.365 . S
C59 H76 0.929 . S
C60 C57 1.394 . S
C60 C59 1.396 . S
C60 H77 0.930 . S
C61 C58 1.383 . S
C61 C59 1.365 . S
C61 H78 0.931 . S
C62 C57 1.370 . S
C62 C58 1.395 . S
C62 H79 0.930 . S
C63 Gd10 2.805 . S
C63 O45 1.263 . S
C63 O46 1.252 . S
C63 C57 1.500 . S
C64 H26 0.930 . S
C64 C40 1.417 . S
C64 C65 1.329 . S
C65 C35 1.437 . S
C65 H36 0.929 . S
C65 C64 1.329 . S
H66 C39 0.931 . S
C67 O49 1.265 . S
C67 O50 1.242 . S
C68 O53 1.261 . S
C68 O54 1.252 . S
C69 C72 1.394 . S
C69 C74 1.370 . S
C69 C75 1.500 . S
C70 C73 1.383 . S
C70 C74 1.395 . S
C71 C72 1.396 . S
C71 C73 1.365 . S
C71 H80 0.929 . S
C72 C69 1.394 . S
C72 C71 1.396 . S
C72 H81 0.930 . S
C73 C70 1.383 . S
C73 C71 1.365 . S
C73 H82 0.931 . S
C74 C69 1.370 . S
C74 C70 1.395 . S
C74 H83 0.930 . S
C75 Gd11 2.805 . S
C75 O51 1.263 . S
C75 O52 1.252 . S
C75 C69 1.500 . S
H76 C59 0.929 . S
H77 C60 0.930 . S
H78 C61 0.931 . S
H79 C62 0.930 . S
H80 C71 0.929 . S
H81 C72 0.930 . S
H82 C73 0.931 . S
H83 C74 0.930 . S
C84 C86 1.422 . S
C84 C88 1.415 . S
C84 N90 1.369 . S
C85 C86 1.421 . S
C85 C87 1.417 . S
C85 C97 1.422 . S
C86 C84 1.422 . S
C86 C85 1.421 . S
C86 N96 1.359 . S
C87 C85 1.417 . S
C87 C89 1.329 . S
C87 H106 0.930 . S
C88 C84 1.415 . S
C88 C89 1.437 . S
C88 C92 1.413 . S
C89 C87 1.329 . S
C89 C88 1.437 . S
C89 H111 0.929 . S
N90 C84 1.369 . S
N90 C91 1.338 . S
N90 Gd95 2.622 . S
C91 N90 1.338 . S
C91 C93 1.378 . S
C91 H103 0.929 . S
C92 C88 1.413 . S
C92 C93 1.348 . S
C92 H108 0.931 . S
C93 C91 1.378 . S
C93 C92 1.348 . S
C93 H109 0.930 . S
Gd94 N114 2.622 . S
Gd94 N121 2.570 . S
Gd94 O128 2.353 . S
Gd94 O129 2.468 . S
Gd94 O130 2.427 . S
Gd94 O132 2.388 . S
Gd94 O133 2.386 . S
Gd94 O137 2.307 . S
Gd94 C147 2.805 . S
Gd95 N90 2.622 . S
Gd95 N96 2.570 . S
Gd95 O127 2.386 . S
Gd95 O131 2.307 . S
Gd95 O134 2.353 . S
Gd95 O135 2.468 . S
Gd95 O136 2.427 . S
Gd95 O138 2.388 . S
Gd95 C159 2.805 . S
N96 C86 1.359 . S
N96 Gd95 2.570 . S
N96 C98 1.343 . S
C97 C85 1.422 . S
C97 C99 1.321 . S
C97 H105 0.931 . S
C98 N96 1.343 . S
C98 C99 1.390 . S
C98 H100 0.931 . S
C99 C97 1.321 . S
C99 C98 1.390 . S
C99 H101 0.930 . S
H100 C98 0.931 . S
H101 C99 0.930 . S
H102 C125 0.931 . S
H103 C91 0.929 . S
H104 C126 0.930 . S
H105 C97 0.931 . S
H106 C87 0.930 . S
H107 C116 0.929 . S
H108 C92 0.931 . S
H109 C93 0.930 . S
H110 C148 0.930 . S
H111 C89 0.929 . S
H112 C117 0.931 . S
H113 C118 0.930 . S
N114 Gd94 2.622 . S
N114 C115 1.369 . S
N114 C116 1.338 . S
C115 N114 1.369 . S
C115 C119 1.415 . S
C115 C122 1.422 . S
C116 H107 0.929 . S
C116 N114 1.338 . S
C116 C118 1.378 . S
C117 H112 0.931 . S
C117 C118 1.348 . S
C117 C119 1.413 . S
C118 H113 0.930 . S
C118 C116 1.378 . S
C118 C117 1.348 . S
C119 C115 1.415 . S
C119 C117 1.413 . S
C119 C149 1.437 . S
H120 C149 0.929 . S
N121 Gd94 2.570 . S
N121 C122 1.359 . S
N121 C125 1.343 . S
C122 C115 1.422 . S
C122 N121 1.359 . S
C122 C124 1.421 . S
C123 C124 1.422 . S
C123 C126 1.321 . S
C123 H150 0.931 . S
C124 C122 1.421 . S
C124 C123 1.422 . S
C124 C148 1.417 . S
C125 H102 0.931 . S
C125 N121 1.343 . S
C125 C126 1.390 . S
C126 H104 0.930 . S
C126 C123 1.321 . S
C126 C125 1.390 . S
O127 Gd95 2.386 . S
O127 C139 1.265 . S
O128 Gd94 2.353 . S
O128 C139 1.242 . S
O129 Gd94 2.468 . S
O129 C147 1.263 . S
O130 Gd94 2.427 . S
O130 C147 1.252 . S
O131 Gd95 2.307 . S
O131 C140 1.261 . S
O132 Gd94 2.388 . S
O132 C140 1.252 . S
O133 Gd94 2.386 . S
O133 C151 1.265 . S
O134 Gd95 2.353 . S
O134 C151 1.242 . S
O135 Gd95 2.468 . S
O135 C159 1.263 . S
O136 Gd95 2.427 . S
O136 C159 1.252 . S
O137 Gd94 2.307 . S
O137 C152 1.261 . S
O138 Gd95 2.388 . S
O138 C152 1.252 . S
C139 O127 1.265 . S
C139 O128 1.242 . S
C140 O131 1.261 . S
C140 O132 1.252 . S
C141 C144 1.394 . S
C141 C146 1.370 . S
C141 C147 1.500 . S
C142 C145 1.383 . S
C142 C146 1.395 . S
C143 C144 1.396 . S
C143 C145 1.365 . S
C143 H160 0.929 . S
C144 C141 1.394 . S
C144 C143 1.396 . S
C144 H161 0.930 . S
C145 C142 1.383 . S
C145 C143 1.365 . S
C145 H162 0.931 . S
C146 C141 1.370 . S
C146 C142 1.395 . S
C146 H163 0.930 . S
C147 Gd94 2.805 . S
C147 O129 1.263 . S
C147 O130 1.252 . S
C147 C141 1.500 . S
C148 H110 0.930 . S
C148 C124 1.417 . S
C148 C149 1.329 . S
C149 C119 1.437 . S
C149 H120 0.929 . S
C149 C148 1.329 . S
H150 C123 0.931 . S
C151 O133 1.265 . S
C151 O134 1.242 . S
C152 O137 1.261 . S
C152 O138 1.252 . S
C153 C156 1.394 . S
C153 C158 1.370 . S
C153 C159 1.500 . S
C154 C157 1.383 . S
C154 C158 1.395 . S
C155 C156 1.396 . S
C155 C157 1.365 . S
C155 H164 0.929 . S
C156 C153 1.394 . S
C156 C155 1.396 . S
C156 H165 0.930 . S
C157 C154 1.383 . S
C157 C155 1.365 . S
C157 H166 0.931 . S
C158 C153 1.370 . S
C158 C154 1.395 . S
C158 H167 0.930 . S
C159 Gd95 2.805 . S
C159 O135 1.263 . S
C159 O136 1.252 . S
C159 C153 1.500 . S
H160 C143 0.929 . S
H161 C144 0.930 . S
H162 C145 0.931 . S
H163 C146 0.930 . S
H164 C155 0.929 . S
H165 C156 0.930 . S
H166 C157 0.931 . S
H167 C158 0.930 . S
C168 C170 1.422 . S
C168 C172 1.415 . S
C168 N174 1.369 . S
C169 C170 1.421 . S
C169 C171 1.417 . S
C169 C181 1.422 . S
C170 C168 1.422 . S
C170 C169 1.421 . S
C170 N180 1.359 . S
C171 C169 1.417 . S
C171 C173 1.329 . S
C171 H190 0.930 . S
C172 C168 1.415 . S
C172 C173 1.437 . S
C172 C176 1.413 . S
C173 C171 1.329 . S
C173 C172 1.437 . S
C173 H195 0.929 . S
N174 C168 1.369 . S
N174 C175 1.338 . S
N174 Gd179 2.622 . S
C175 N174 1.338 . S
C175 C177 1.378 . S
C175 H187 0.929 . S
C176 C172 1.413 . S
C176 C177 1.348 . S
C176 H192 0.931 . S
C177 C175 1.378 . S
C177 C176 1.348 . S
C177 H193 0.930 . S
Gd178 N198 2.622 . S
Gd178 N205 2.570 . S
Gd178 O212 2.353 . S
Gd178 O213 2.468 . S
Gd178 O214 2.427 . S
Gd178 O216 2.388 . S
Gd178 O217 2.386 . S
Gd178 O221 2.307 . S
Gd178 C231 2.805 . S
Gd179 N174 2.622 . S
Gd179 N180 2.570 . S
Gd179 O211 2.386 . S
Gd179 O215 2.307 . S
Gd179 O218 2.353 . S
Gd179 O219 2.468 . S
Gd179 O220 2.427 . S
Gd179 O222 2.388 . S
Gd179 C243 2.805 . S
N180 C170 1.359 . S
N180 Gd179 2.570 . S
N180 C182 1.343 . S
C181 C169 1.422 . S
C181 C183 1.321 . S
C181 H189 0.931 . S
C182 N180 1.343 . S
C182 C183 1.390 . S
C182 H184 0.931 . S
C183 C181 1.321 . S
C183 C182 1.390 . S
C183 H185 0.930 . S
H184 C182 0.931 . S
H185 C183 0.930 . S
H186 C209 0.931 . S
H187 C175 0.929 . S
H188 C210 0.930 . S
H189 C181 0.931 . S
H190 C171 0.930 . S
H191 C200 0.929 . S
H192 C176 0.931 . S
H193 C177 0.930 . S
H194 C232 0.930 . S
H195 C173 0.929 . S
H196 C201 0.931 . S
H197 C202 0.930 . S
N198 Gd178 2.622 . S
N198 C199 1.369 . S
N198 C200 1.338 . S
C199 N198 1.369 . S
C199 C203 1.415 . S
C199 C206 1.422 . S
C200 H191 0.929 . S
C200 N198 1.338 . S
C200 C202 1.378 . S
C201 H196 0.931 . S
C201 C202 1.348 . S
C201 C203 1.413 . S
C202 H197 0.930 . S
C202 C200 1.378 . S
C202 C201 1.348 . S
C203 C199 1.415 . S
C203 C201 1.413 . S
C203 C233 1.437 . S
H204 C233 0.929 . S
N205 Gd178 2.570 . S
N205 C206 1.359 . S
N205 C209 1.343 . S
C206 C199 1.422 . S
C206 N205 1.359 . S
C206 C208 1.421 . S
C207 C208 1.422 . S
C207 C210 1.321 . S
C207 H234 0.931 . S
C208 C206 1.421 . S
C208 C207 1.422 . S
C208 C232 1.417 . S
C209 H186 0.931 . S
C209 N205 1.343 . S
C209 C210 1.390 . S
C210 H188 0.930 . S
C210 C207 1.321 . S
C210 C209 1.390 . S
O211 Gd179 2.386 . S
O211 C223 1.265 . S
O212 Gd178 2.353 . S
O212 C223 1.242 . S
O213 Gd178 2.468 . S
O213 C231 1.263 . S
O214 Gd178 2.427 . S
O214 C231 1.252 . S
O215 Gd179 2.307 . S
O215 C224 1.261 . S
O216 Gd178 2.388 . S
O216 C224 1.252 . S
O217 Gd178 2.386 . S
O217 C235 1.265 . S
O218 Gd179 2.353 . S
O218 C235 1.242 . S
O219 Gd179 2.468 . S
O219 C243 1.263 . S
O220 Gd179 2.427 . S
O220 C243 1.252 . S
O221 Gd178 2.307 . S
O221 C236 1.261 . S
O222 Gd179 2.388 . S
O222 C236 1.252 . S
C223 O211 1.265 . S
C223 O212 1.242 . S
C224 O215 1.261 . S
C224 O216 1.252 . S
C225 C228 1.394 . S
C225 C230 1.370 . S
C225 C231 1.500 . S
C226 C229 1.383 . S
C226 C230 1.395 . S
C227 C228 1.396 . S
C227 C229 1.365 . S
C227 H244 0.929 . S
C228 C225 1.394 . S
C228 C227 1.396 . S
C228 H245 0.930 . S
C229 C226 1.383 . S
C229 C227 1.365 . S
C229 H246 0.931 . S
C230 C225 1.370 . S
C230 C226 1.395 . S
C230 H247 0.930 . S
C231 Gd178 2.805 . S
C231 O213 1.263 . S
C231 O214 1.252 . S
C231 C225 1.500 . S
C232 H194 0.930 . S
C232 C208 1.417 . S
C232 C233 1.329 . S
C233 C203 1.437 . S
C233 H204 0.929 . S
C233 C232 1.329 . S
H234 C207 0.931 . S
C235 O217 1.265 . S
C235 O218 1.242 . S
C236 O221 1.261 . S
C236 O222 1.252 . S
C237 C240 1.394 . S
C237 C242 1.370 . S
C237 C243 1.500 . S
C238 C241 1.383 . S
C238 C242 1.395 . S
C239 C240 1.396 . S
C239 C241 1.365 . S
C239 H248 0.929 . S
C240 C237 1.394 . S
C240 C239 1.396 . S
C240 H249 0.930 . S
C241 C238 1.383 . S
C241 C239 1.365 . S
C241 H250 0.931 . S
C242 C237 1.370 . S
C242 C238 1.395 . S
C242 H251 0.930 . S
C243 Gd179 2.805 . S
C243 O219 1.263 . S
C243 O220 1.252 . S
C243 C237 1.500 . S
H244 C227 0.929 . S
H245 C228 0.930 . S
H246 C229 0.931 . S
H247 C230 0.930 . S
H248 C239 0.929 . S
H249 C240 0.930 . S
H250 C241 0.931 . S
H251 C242 0.930 . S
C252 C254 1.422 . S
C252 C256 1.415 . S
C252 N258 1.369 . S
C253 C254 1.421 . S
C253 C255 1.417 . S
C253 C265 1.422 . S
C254 C252 1.422 . S
C254 C253 1.421 . S
C254 N264 1.359 . S
C255 C253 1.417 . S
C255 C257 1.329 . S
C255 H274 0.930 . S
C256 C252 1.415 . S
C256 C257 1.437 . S
C256 C260 1.413 . S
C257 C255 1.329 . S
C257 C256 1.437 . S
C257 H279 0.929 . S
N258 C252 1.369 . S
N258 C259 1.338 . S
N258 Gd263 2.622 . S
C259 N258 1.338 . S
C259 C261 1.378 . S
C259 H271 0.929 . S
C260 C256 1.413 . S
C260 C261 1.348 . S
C260 H276 0.931 . S
C261 C259 1.378 . S
C261 C260 1.348 . S
C261 H277 0.930 . S
Gd262 N282 2.622 . S
Gd262 N289 2.570 . S
Gd262 O296 2.353 . S
Gd262 O297 2.468 . S
Gd262 O298 2.427 . S
Gd262 O300 2.388 . S
Gd262 O301 2.386 . S
Gd262 O305 2.307 . S
Gd262 C315 2.805 . S
Gd263 N258 2.622 . S
Gd263 N264 2.570 . S
Gd263 O295 2.386 . S
Gd263 O299 2.307 . S
Gd263 O302 2.353 . S
Gd263 O303 2.468 . S
Gd263 O304 2.427 . S
Gd263 O306 2.388 . S
Gd263 C327 2.805 . S
N264 C254 1.359 . S
N264 Gd263 2.570 . S
N264 C266 1.343 . S
C265 C253 1.422 . S
C265 C267 1.321 . S
C265 H273 0.931 . S
C266 N264 1.343 . S
C266 C267 1.390 . S
C266 H268 0.931 . S
C267 C265 1.321 . S
C267 C266 1.390 . S
C267 H269 0.930 . S
H268 C266 0.931 . S
H269 C267 0.930 . S
H270 C293 0.931 . S
H271 C259 0.929 . S
H272 C294 0.930 . S
H273 C265 0.931 . S
H274 C255 0.930 . S
H275 C284 0.929 . S
H276 C260 0.931 . S
H277 C261 0.930 . S
H278 C316 0.930 . S
H279 C257 0.929 . S
H280 C285 0.931 . S
H281 C286 0.930 . S
N282 Gd262 2.622 . S
N282 C283 1.369 . S
N282 C284 1.338 . S
C283 N282 1.369 . S
C283 C287 1.415 . S
C283 C290 1.422 . S
C284 H275 0.929 . S
C284 N282 1.338 . S
C284 C286 1.378 . S
C285 H280 0.931 . S
C285 C286 1.348 . S
C285 C287 1.413 . S
C286 H281 0.930 . S
C286 C284 1.378 . S
C286 C285 1.348 . S
C287 C283 1.415 . S
C287 C285 1.413 . S
C287 C317 1.437 . S
H288 C317 0.929 . S
N289 Gd262 2.570 . S
N289 C290 1.359 . S
N289 C293 1.343 . S
C290 C283 1.422 . S
C290 N289 1.359 . S
C290 C292 1.421 . S
C291 C292 1.422 . S
C291 C294 1.321 . S
C291 H318 0.931 . S
C292 C290 1.421 . S
C292 C291 1.422 . S
C292 C316 1.417 . S
C293 H270 0.931 . S
C293 N289 1.343 . S
C293 C294 1.390 . S
C294 H272 0.930 . S
C294 C291 1.321 . S
C294 C293 1.390 . S
O295 Gd263 2.386 . S
O295 C307 1.265 . S
O296 Gd262 2.353 . S
O296 C307 1.242 . S
O297 Gd262 2.468 . S
O297 C315 1.263 . S
O298 Gd262 2.427 . S
O298 C315 1.252 . S
O299 Gd263 2.307 . S
O299 C308 1.261 . S
O300 Gd262 2.388 . S
O300 C308 1.252 . S
O301 Gd262 2.386 . S
O301 C319 1.265 . S
O302 Gd263 2.353 . S
O302 C319 1.242 . S
O303 Gd263 2.468 . S
O303 C327 1.263 . S
O304 Gd263 2.427 . S
O304 C327 1.252 . S
O305 Gd262 2.307 . S
O305 C320 1.261 . S
O306 Gd263 2.388 . S
O306 C320 1.252 . S
C307 O295 1.265 . S
C307 O296 1.242 . S
C308 O299 1.261 . S
C308 O300 1.252 . S
C309 C312 1.394 . S
C309 C314 1.370 . S
C309 C315 1.500 . S
C310 C313 1.383 . S
C310 C314 1.395 . S
C311 C312 1.396 . S
C311 C313 1.365 . S
C311 H328 0.929 . S
C312 C309 1.394 . S
C312 C311 1.396 . S
C312 H329 0.930 . S
C313 C310 1.383 . S
C313 C311 1.365 . S
C313 H330 0.931 . S
C314 C309 1.370 . S
C314 C310 1.395 . S
C314 H331 0.930 . S
C315 Gd262 2.805 . S
C315 O297 1.263 . S
C315 O298 1.252 . S
C315 C309 1.500 . S
C316 H278 0.930 . S
C316 C292 1.417 . S
C316 C317 1.329 . S
C317 C287 1.437 . S
C317 H288 0.929 . S
C317 C316 1.329 . S
H318 C291 0.931 . S
C319 O301 1.265 . S
C319 O302 1.242 . S
C320 O305 1.261 . S
C320 O306 1.252 . S
C321 C324 1.394 . S
C321 C326 1.370 . S
C321 C327 1.500 . S
C322 C325 1.383 . S
C322 C326 1.395 . S
C323 C324 1.396 . S
C323 C325 1.365 . S
C323 H332 0.929 . S
C324 C321 1.394 . S
C324 C323 1.396 . S
C324 H333 0.930 . S
C325 C322 1.383 . S
C325 C323 1.365 . S
C325 H334 0.931 . S
C326 C321 1.370 . S
C326 C322 1.395 . S
C326 H335 0.930 . S
C327 Gd263 2.805 . S
C327 O303 1.263 . S
C327 O304 1.252 . S
C327 C321 1.500 . S
H328 C311 0.929 . S
H329 C312 0.930 . S
H330 C313 0.931 . S
H331 C314 0.930 . S
H332 C323 0.929 . S
H333 C324 0.930 . S
H334 C325 0.931 . S
H335 C326 0.930 . S
C336 C338 1.422 . S
C336 C340 1.415 . S
C336 N342 1.369 . S
C337 C338 1.421 . S
C337 C339 1.417 . S
C337 C349 1.422 . S
C338 C336 1.422 . S
C338 C337 1.421 . S
C338 N348 1.359 . S
C339 C337 1.417 . S
C339 C341 1.329 . S
C339 H358 0.930 . S
C340 C336 1.415 . S
C340 C341 1.437 . S
C340 C344 1.413 . S
C341 C339 1.329 . S
C341 C340 1.437 . S
C341 H363 0.929 . S
N342 C336 1.369 . S
N342 C343 1.338 . S
N342 Gd347 2.622 . S
C343 N342 1.338 . S
C343 C345 1.378 . S
C343 H355 0.929 . S
C344 C340 1.413 . S
C344 C345 1.348 . S
C344 H360 0.931 . S
C345 C343 1.378 . S
C345 C344 1.348 . S
C345 H361 0.930 . S
Gd346 N366 2.622 . S
Gd346 N373 2.570 . S
Gd346 O380 2.353 . S
Gd346 O381 2.468 . S
Gd346 O382 2.427 . S
Gd346 O384 2.388 . S
Gd346 O385 2.386 . S
Gd346 O389 2.307 . S
Gd346 C399 2.805 . S
Gd347 N342 2.622 . S
Gd347 N348 2.570 . S
Gd347 O379 2.386 . S
Gd347 O383 2.307 . S
Gd347 O386 2.353 . S
Gd347 O387 2.468 . S
Gd347 O388 2.427 . S
Gd347 O390 2.388 . S
Gd347 C411 2.805 . S
N348 C338 1.359 . S
N348 Gd347 2.570 . S
N348 C350 1.343 . S
C349 C337 1.422 . S
C349 C351 1.321 . S
C349 H357 0.931 . S
C350 N348 1.343 . S
C350 C351 1.390 . S
C350 H352 0.931 . S
C351 C349 1.321 . S
C351 C350 1.390 . S
C351 H353 0.930 . S
H352 C350 0.931 . S
H353 C351 0.930 . S
H354 C377 0.931 . S
H355 C343 0.929 . S
H356 C378 0.930 . S
H357 C349 0.931 . S
H358 C339 0.930 . S
H359 C368 0.929 . S
H360 C344 0.931 . S
H361 C345 0.930 . S
H362 C400 0.930 . S
H363 C341 0.929 . S
H364 C369 0.931 . S
H365 C370 0.930 . S
N366 Gd346 2.622 . S
N366 C367 1.369 . S
N366 C368 1.338 . S
C367 N366 1.369 . S
C367 C371 1.415 . S
C367 C374 1.422 . S
C368 H359 0.929 . S
C368 N366 1.338 . S
C368 C370 1.378 . S
C369 H364 0.931 . S
C369 C370 1.348 . S
C369 C371 1.413 . S
C370 H365 0.930 . S
C370 C368 1.378 . S
C370 C369 1.348 . S
C371 C367 1.415 . S
C371 C369 1.413 . S
C371 C401 1.437 . S
H372 C401 0.929 . S
N373 Gd346 2.570 . S
N373 C374 1.359 . S
N373 C377 1.343 . S
C374 C367 1.422 . S
C374 N373 1.359 . S
C374 C376 1.421 . S
C375 C376 1.422 . S
C375 C378 1.321 . S
C375 H402 0.931 . S
C376 C374 1.421 . S
C376 C375 1.422 . S
C376 C400 1.417 . S
C377 H354 0.931 . S
C377 N373 1.343 . S
C377 C378 1.390 . S
C378 H356 0.930 . S
C378 C375 1.321 . S
C378 C377 1.390 . S
O379 Gd347 2.386 . S
O379 C391 1.265 . S
O380 Gd346 2.353 . S
O380 C391 1.242 . S
O381 Gd346 2.468 . S
O381 C399 1.263 . S
O382 Gd346 2.427 . S
O382 C399 1.252 . S
O383 Gd347 2.307 . S
O383 C392 1.261 . S
O384 Gd346 2.388 . S
O384 C392 1.252 . S
O385 Gd346 2.386 . S
O385 C403 1.265 . S
O386 Gd347 2.353 . S
O386 C403 1.242 . S
O387 Gd347 2.468 . S
O387 C411 1.263 . S
O388 Gd347 2.427 . S
O388 C411 1.252 . S
O389 Gd346 2.307 . S
O389 C404 1.261 . S
O390 Gd347 2.388 . S
O390 C404 1.252 . S
C391 O379 1.265 . S
C391 O380 1.242 . S
C392 O383 1.261 . S
C392 O384 1.252 . S
C393 C396 1.394 . S
C393 C398 1.370 . S
C393 C399 1.500 . S
C394 C397 1.383 . S
C394 C398 1.395 . S
C395 C396 1.396 . S
C395 C397 1.365 . S
C395 H412 0.929 . S
C396 C393 1.394 . S
C396 C395 1.396 . S
C396 H413 0.930 . S
C397 C394 1.383 . S
C397 C395 1.365 . S
C397 H414 0.931 . S
C398 C393 1.370 . S
C398 C394 1.395 . S
C398 H415 0.930 . S
C399 Gd346 2.805 . S
C399 O381 1.263 . S
C399 O382 1.252 . S
C399 C393 1.500 . S
C400 H362 0.930 . S
C400 C376 1.417 . S
C400 C401 1.329 . S
C401 C371 1.437 . S
C401 H372 0.929 . S
C401 C400 1.329 . S
H402 C375 0.931 . S
C403 O385 1.265 . S
C403 O386 1.242 . S
C404 O389 1.261 . S
C404 O390 1.252 . S
C405 C408 1.394 . S
C405 C410 1.370 . S
C405 C411 1.500 . S
C406 C409 1.383 . S
C406 C410 1.395 . S
C407 C408 1.396 . S
C407 C409 1.365 . S
C407 H416 0.929 . S
C408 C405 1.394 . S
C408 C407 1.396 . S
C408 H417 0.930 . S
C409 C406 1.383 . S
C409 C407 1.365 . S
C409 H418 0.931 . S
C410 C405 1.370 . S
C410 C406 1.395 . S
C410 H419 0.930 . S
C411 Gd347 2.805 . S
C411 O387 1.263 . S
C411 O388 1.252 . S
C411 C405 1.500 . S
H412 C395 0.929 . S
H413 C396 0.930 . S
H414 C397 0.931 . S
H415 C398 0.930 . S
H416 C407 0.929 . S
H417 C408 0.930 . S
H418 C409 0.931 . S
H419 C410 0.930 . S
C420 C422 1.422 . S
C420 C424 1.415 . S
C420 N426 1.369 . S
C421 C422 1.421 . S
C421 C423 1.417 . S
C421 C433 1.422 . S
C422 C420 1.422 . S
C422 C421 1.421 . S
C422 N432 1.359 . S
C423 C421 1.417 . S
C423 C425 1.329 . S
C423 H442 0.930 . S
C424 C420 1.415 . S
C424 C425 1.437 . S
C424 C428 1.413 . S
C425 C423 1.329 . S
C425 C424 1.437 . S
C425 H447 0.929 . S
N426 C420 1.369 . S
N426 C427 1.338 . S
N426 Gd431 2.622 . S
C427 N426 1.338 . S
C427 C429 1.378 . S
C427 H439 0.929 . S
C428 C424 1.413 . S
C428 C429 1.348 . S
C428 H444 0.931 . S
C429 C427 1.378 . S
C429 C428 1.348 . S
C429 H445 0.930 . S
Gd430 N450 2.622 . S
Gd430 N457 2.570 . S
Gd430 O464 2.353 . S
Gd430 O465 2.468 . S
Gd430 O466 2.427 . S
Gd430 O468 2.388 . S
Gd430 O469 2.386 . S
Gd430 O473 2.307 . S
Gd430 C483 2.805 . S
Gd431 N426 2.622 . S
Gd431 N432 2.570 . S
Gd431 O463 2.386 . S
Gd431 O467 2.307 . S
Gd431 O470 2.353 . S
Gd431 O471 2.468 . S
Gd431 O472 2.427 . S
Gd431 O474 2.388 . S
Gd431 C495 2.805 . S
N432 C422 1.359 . S
N432 Gd431 2.570 . S
N432 C434 1.343 . S
C433 C421 1.422 . S
C433 C435 1.321 . S
C433 H441 0.931 . S
C434 N432 1.343 . S
C434 C435 1.390 . S
C434 H436 0.931 . S
C435 C433 1.321 . S
C435 C434 1.390 . S
C435 H437 0.930 . S
H436 C434 0.931 . S
H437 C435 0.930 . S
H438 C461 0.931 . S
H439 C427 0.929 . S
H440 C462 0.930 . S
H441 C433 0.931 . S
H442 C423 0.930 . S
H443 C452 0.929 . S
H444 C428 0.931 . S
H445 C429 0.930 . S
H446 C484 0.930 . S
H447 C425 0.929 . S
H448 C453 0.931 . S
H449 C454 0.930 . S
N450 Gd430 2.622 . S
N450 C451 1.369 . S
N450 C452 1.338 . S
C451 N450 1.369 . S
C451 C455 1.415 . S
C451 C458 1.422 . S
C452 H443 0.929 . S
C452 N450 1.338 . S
C452 C454 1.378 . S
C453 H448 0.931 . S
C453 C454 1.348 . S
C453 C455 1.413 . S
C454 H449 0.930 . S
C454 C452 1.378 . S
C454 C453 1.348 . S
C455 C451 1.415 . S
C455 C453 1.413 . S
C455 C485 1.437 . S
H456 C485 0.929 . S
N457 Gd430 2.570 . S
N457 C458 1.359 . S
N457 C461 1.343 . S
C458 C451 1.422 . S
C458 N457 1.359 . S
C458 C460 1.421 . S
C459 C460 1.422 . S
C459 C462 1.321 . S
C459 H486 0.931 . S
C460 C458 1.421 . S
C460 C459 1.422 . S
C460 C484 1.417 . S
C461 H438 0.931 . S
C461 N457 1.343 . S
C461 C462 1.390 . S
C462 H440 0.930 . S
C462 C459 1.321 . S
C462 C461 1.390 . S
O463 Gd431 2.386 . S
O463 C475 1.265 . S
O464 Gd430 2.353 . S
O464 C475 1.242 . S
O465 Gd430 2.468 . S
O465 C483 1.263 . S
O466 Gd430 2.427 . S
O466 C483 1.252 . S
O467 Gd431 2.307 . S
O467 C476 1.261 . S
O468 Gd430 2.388 . S
O468 C476 1.252 . S
O469 Gd430 2.386 . S
O469 C487 1.265 . S
O470 Gd431 2.353 . S
O470 C487 1.242 . S
O471 Gd431 2.468 . S
O471 C495 1.263 . S
O472 Gd431 2.427 . S
O472 C495 1.252 . S
O473 Gd430 2.307 . S
O473 C488 1.261 . S
O474 Gd431 2.388 . S
O474 C488 1.252 . S
C475 O463 1.265 . S
C475 O464 1.242 . S
C476 O467 1.261 . S
C476 O468 1.252 . S
C477 C480 1.394 . S
C477 C482 1.370 . S
C477 C483 1.500 . S
C478 C481 1.383 . S
C478 C482 1.395 . S
C479 C480 1.396 . S
C479 C481 1.365 . S
C479 H496 0.929 . S
C480 C477 1.394 . S
C480 C479 1.396 . S
C480 H497 0.930 . S
C481 C478 1.383 . S
C481 C479 1.365 . S
C481 H498 0.931 . S
C482 C477 1.370 . S
C482 C478 1.395 . S
C482 H499 0.930 . S
C483 Gd430 2.805 . S
C483 O465 1.263 . S
C483 O466 1.252 . S
C483 C477 1.500 . S
C484 H446 0.930 . S
C484 C460 1.417 . S
C484 C485 1.329 . S
C485 C455 1.437 . S
C485 H456 0.929 . S
C485 C484 1.329 . S
H486 C459 0.931 . S
C487 O469 1.265 . S
C487 O470 1.242 . S
C488 O473 1.261 . S
C488 O474 1.252 . S
C489 C492 1.394 . S
C489 C494 1.370 . S
C489 C495 1.500 . S
C490 C493 1.383 . S
C490 C494 1.395 . S
C491 C492 1.396 . S
C491 C493 1.365 . S
C491 H500 0.929 . S
C492 C489 1.394 . S
C492 C491 1.396 . S
C492 H501 0.930 . S
C493 C490 1.383 . S
C493 C491 1.365 . S
C493 H502 0.931 . S
C494 C489 1.370 . S
C494 C490 1.395 . S
C494 H503 0.930 . S
C495 Gd431 2.805 . S
C495 O471 1.263 . S
C495 O472 1.252 . S
C495 C489 1.500 . S
H496 C479 0.929 . S
H497 C480 0.930 . S
H498 C481 0.931 . S
H499 C482 0.930 . S
H500 C491 0.929 . S
H501 C492 0.930 . S
H502 C493 0.931 . S
H503 C494 0.930 . S
C504 C506 1.422 . S
C504 C508 1.415 . S
C504 N510 1.369 . S
C505 C506 1.421 . S
C505 C507 1.417 . S
C505 C517 1.422 . S
C506 C504 1.422 . S
C506 C505 1.421 . S
C506 N516 1.359 . S
C507 C505 1.417 . S
C507 C509 1.329 . S
C507 H526 0.930 . S
C508 C504 1.415 . S
C508 C509 1.437 . S
C508 C512 1.413 . S
C509 C507 1.329 . S
C509 C508 1.437 . S
C509 H531 0.929 . S
N510 C504 1.369 . S
N510 C511 1.338 . S
N510 Gd515 2.622 . S
C511 N510 1.338 . S
C511 C513 1.378 . S
C511 H523 0.929 . S
C512 C508 1.413 . S
C512 C513 1.348 . S
C512 H528 0.931 . S
C513 C511 1.378 . S
C513 C512 1.348 . S
C513 H529 0.930 . S
Gd514 N534 2.622 . S
Gd514 N541 2.570 . S
Gd514 O548 2.353 . S
Gd514 O549 2.468 . S
Gd514 O550 2.427 . S
Gd514 O552 2.388 . S
Gd514 O553 2.386 . S
Gd514 O557 2.307 . S
Gd514 C567 2.805 . S
Gd515 N510 2.622 . S
Gd515 N516 2.570 . S
Gd515 O547 2.386 . S
Gd515 O551 2.307 . S
Gd515 O554 2.353 . S
Gd515 O555 2.468 . S
Gd515 O556 2.427 . S
Gd515 O558 2.388 . S
Gd515 C579 2.805 . S
N516 C506 1.359 . S
N516 Gd515 2.570 . S
N516 C518 1.343 . S
C517 C505 1.422 . S
C517 C519 1.321 . S
C517 H525 0.931 . S
C518 N516 1.343 . S
C518 C519 1.390 . S
C518 H520 0.931 . S
C519 C517 1.321 . S
C519 C518 1.390 . S
C519 H521 0.930 . S
H520 C518 0.931 . S
H521 C519 0.930 . S
H522 C545 0.931 . S
H523 C511 0.929 . S
H524 C546 0.930 . S
H525 C517 0.931 . S
H526 C507 0.930 . S
H527 C536 0.929 . S
H528 C512 0.931 . S
H529 C513 0.930 . S
H530 C568 0.930 . S
H531 C509 0.929 . S
H532 C537 0.931 . S
H533 C538 0.930 . S
N534 Gd514 2.622 . S
N534 C535 1.369 . S
N534 C536 1.338 . S
C535 N534 1.369 . S
C535 C539 1.415 . S
C535 C542 1.422 . S
C536 H527 0.929 . S
C536 N534 1.338 . S
C536 C538 1.378 . S
C537 H532 0.931 . S
C537 C538 1.348 . S
C537 C539 1.413 . S
C538 H533 0.930 . S
C538 C536 1.378 . S
C538 C537 1.348 . S
C539 C535 1.415 . S
C539 C537 1.413 . S
C539 C569 1.437 . S
H540 C569 0.929 . S
N541 Gd514 2.570 . S
N541 C542 1.359 . S
N541 C545 1.343 . S
C542 C535 1.422 . S
C542 N541 1.359 . S
C542 C544 1.421 . S
C543 C544 1.422 . S
C543 C546 1.321 . S
C543 H570 0.931 . S
C544 C542 1.421 . S
C544 C543 1.422 . S
C544 C568 1.417 . S
C545 H522 0.931 . S
C545 N541 1.343 . S
C545 C546 1.390 . S
C546 H524 0.930 . S
C546 C543 1.321 . S
C546 C545 1.390 . S
O547 Gd515 2.386 . S
O547 C559 1.265 . S
O548 Gd514 2.353 . S
O548 C559 1.242 . S
O549 Gd514 2.468 . S
O549 C567 1.263 . S
O550 Gd514 2.427 . S
O550 C567 1.252 . S
O551 Gd515 2.307 . S
O551 C560 1.261 . S
O552 Gd514 2.388 . S
O552 C560 1.252 . S
O553 Gd514 2.386 . S
O553 C571 1.265 . S
O554 Gd515 2.353 . S
O554 C571 1.242 . S
O555 Gd515 2.468 . S
O555 C579 1.263 . S
O556 Gd515 2.427 . S
O556 C579 1.252 . S
O557 Gd514 2.307 . S
O557 C572 1.261 . S
O558 Gd515 2.388 . S
O558 C572 1.252 . S
C559 O547 1.265 . S
C559 O548 1.242 . S
C560 O551 1.261 . S
C560 O552 1.252 . S
C561 C564 1.394 . S
C561 C566 1.370 . S
C561 C567 1.500 . S
C562 C565 1.383 . S
C562 C566 1.395 . S
C563 C564 1.396 . S
C563 C565 1.365 . S
C563 H580 0.929 . S
C564 C561 1.394 . S
C564 C563 1.396 . S
C564 H581 0.930 . S
C565 C562 1.383 . S
C565 C563 1.365 . S
C565 H582 0.931 . S
C566 C561 1.370 . S
C566 C562 1.395 . S
C566 H583 0.930 . S
C567 Gd514 2.805 . S
C567 O549 1.263 . S
C567 O550 1.252 . S
C567 C561 1.500 . S
C568 H530 0.930 . S
C568 C544 1.417 . S
C568 C569 1.329 . S
C569 C539 1.437 . S
C569 H540 0.929 . S
C569 C568 1.329 . S
H570 C543 0.931 . S
C571 O553 1.265 . S
C571 O554 1.242 . S
C572 O557 1.261 . S
C572 O558 1.252 . S
C573 C576 1.394 . S
C573 C578 1.370 . S
C573 C579 1.500 . S
C574 C577 1.383 . S
C574 C578 1.395 . S
C575 C576 1.396 . S
C575 C577 1.365 . S
C575 H584 0.929 . S
C576 C573 1.394 . S
C576 C575 1.396 . S
C576 H585 0.930 . S
C577 C574 1.383 . S
C577 C575 1.365 . S
C577 H586 0.931 . S
C578 C573 1.370 . S
C578 C574 1.395 . S
C578 H587 0.930 . S
C579 Gd515 2.805 . S
C579 O555 1.263 . S
C579 O556 1.252 . S
C579 C573 1.500 . S
H580 C563 0.929 . S
H581 C564 0.930 . S
H582 C565 0.931 . S
H583 C566 0.930 . S
H584 C575 0.929 . S
H585 C576 0.930 . S
H586 C577 0.931 . S
H587 C578 0.930 . S
C588 C590 1.422 . S
C588 C592 1.415 . S
C588 N594 1.369 . S
C589 C590 1.421 . S
C589 C591 1.417 . S
C589 C601 1.422 . S
C590 C588 1.422 . S
C590 C589 1.421 . S
C590 N600 1.359 . S
C591 C589 1.417 . S
C591 C593 1.329 . S
C591 H610 0.930 . S
C592 C588 1.415 . S
C592 C593 1.437 . S
C592 C596 1.413 . S
C593 C591 1.329 . S
C593 C592 1.437 . S
C593 H615 0.929 . S
N594 C588 1.369 . S
N594 C595 1.338 . S
N594 Gd599 2.622 . S
C595 N594 1.338 . S
C595 C597 1.378 . S
C595 H607 0.929 . S
C596 C592 1.413 . S
C596 C597 1.348 . S
C596 H612 0.931 . S
C597 C595 1.378 . S
C597 C596 1.348 . S
C597 H613 0.930 . S
Gd598 N618 2.622 . S
Gd598 N625 2.570 . S
Gd598 O632 2.353 . S
Gd598 O633 2.468 . S
Gd598 O634 2.427 . S
Gd598 O636 2.388 . S
Gd598 O637 2.386 . S
Gd598 O641 2.307 . S
Gd598 C651 2.805 . S
Gd599 N594 2.622 . S
Gd599 N600 2.570 . S
Gd599 O631 2.386 . S
Gd599 O635 2.307 . S
Gd599 O638 2.353 . S
Gd599 O639 2.468 . S
Gd599 O640 2.427 . S
Gd599 O642 2.388 . S
Gd599 C663 2.805 . S
N600 C590 1.359 . S
N600 Gd599 2.570 . S
N600 C602 1.343 . S
C601 C589 1.422 . S
C601 C603 1.321 . S
C601 H609 0.931 . S
C602 N600 1.343 . S
C602 C603 1.390 . S
C602 H604 0.931 . S
C603 C601 1.321 . S
C603 C602 1.390 . S
C603 H605 0.930 . S
H604 C602 0.931 . S
H605 C603 0.930 . S
H606 C629 0.931 . S
H607 C595 0.929 . S
H608 C630 0.930 . S
H609 C601 0.931 . S
H610 C591 0.930 . S
H611 C620 0.929 . S
H612 C596 0.931 . S
H613 C597 0.930 . S
H614 C652 0.930 . S
H615 C593 0.929 . S
H616 C621 0.931 . S
H617 C622 0.930 . S
N618 Gd598 2.622 . S
N618 C619 1.369 . S
N618 C620 1.338 . S
C619 N618 1.369 . S
C619 C623 1.415 . S
C619 C626 1.422 . S
C620 H611 0.929 . S
C620 N618 1.338 . S
C620 C622 1.378 . S
C621 H616 0.931 . S
C621 C622 1.348 . S
C621 C623 1.413 . S
C622 H617 0.930 . S
C622 C620 1.378 . S
C622 C621 1.348 . S
C623 C619 1.415 . S
C623 C621 1.413 . S
C623 C653 1.437 . S
H624 C653 0.929 . S
N625 Gd598 2.570 . S
N625 C626 1.359 . S
N625 C629 1.343 . S
C626 C619 1.422 . S
C626 N625 1.359 . S
C626 C628 1.421 . S
C627 C628 1.422 . S
C627 C630 1.321 . S
C627 H654 0.931 . S
C628 C626 1.421 . S
C628 C627 1.422 . S
C628 C652 1.417 . S
C629 H606 0.931 . S
C629 N625 1.343 . S
C629 C630 1.390 . S
C630 H608 0.930 . S
C630 C627 1.321 . S
C630 C629 1.390 . S
O631 Gd599 2.386 . S
O631 C643 1.265 . S
O632 Gd598 2.353 . S
O632 C643 1.242 . S
O633 Gd598 2.468 . S
O633 C651 1.263 . S
O634 Gd598 2.427 . S
O634 C651 1.252 . S
O635 Gd599 2.307 . S
O635 C644 1.261 . S
O636 Gd598 2.388 . S
O636 C644 1.252 . S
O637 Gd598 2.386 . S
O637 C655 1.265 . S
O638 Gd599 2.353 . S
O638 C655 1.242 . S
O639 Gd599 2.468 . S
O639 C663 1.263 . S
O640 Gd599 2.427 . S
O640 C663 1.252 . S
O641 Gd598 2.307 . S
O641 C656 1.261 . S
O642 Gd599 2.388 . S
O642 C656 1.252 . S
C643 O631 1.265 . S
C643 O632 1.242 . S
C644 O635 1.261 . S
C644 O636 1.252 . S
C645 C648 1.394 . S
C645 C650 1.370 . S
C645 C651 1.500 . S
C646 C649 1.383 . S
C646 C650 1.395 . S
C647 C648 1.396 . S
C647 C649 1.365 . S
C647 H664 0.929 . S
C648 C645 1.394 . S
C648 C647 1.396 . S
C648 H665 0.930 . S
C649 C646 1.383 . S
C649 C647 1.365 . S
C649 H666 0.931 . S
C650 C645 1.370 . S
C650 C646 1.395 . S
C650 H667 0.930 . S
C651 Gd598 2.805 . S
C651 O633 1.263 . S
C651 O634 1.252 . S
C651 C645 1.500 . S
C652 H614 0.930 . S
C652 C628 1.417 . S
C652 C653 1.329 . S
C653 C623 1.437 . S
C653 H624 0.929 . S
C653 C652 1.329 . S
H654 C627 0.931 . S
C655 O637 1.265 . S
C655 O638 1.242 . S
C656 O641 1.261 . S
C656 O642 1.252 . S
C657 C660 1.394 . S
C657 C662 1.370 . S
C657 C663 1.500 . S
C658 C661 1.383 . S
C658 C662 1.395 . S
C659 C660 1.396 . S
C659 C661 1.365 . S
C659 H668 0.929 . S
C660 C657 1.394 . S
C660 C659 1.396 . S
C660 H669 0.930 . S
C661 C658 1.383 . S
C661 C659 1.365 . S
C661 H670 0.931 . S
C662 C657 1.370 . S
C662 C658 1.395 . S
C662 H671 0.930 . S
C663 Gd599 2.805 . S
C663 O639 1.263 . S
C663 O640 1.252 . S
C663 C657 1.500 . S
H664 C647 0.929 . S
H665 C648 0.930 . S
H666 C649 0.931 . S
H667 C650 0.930 . S
H668 C659 0.929 . S
H669 C660 0.930 . S
H670 C661 0.931 . S
H671 C662 0.930 . S
Co672 O675 2.042 . S
Co672 O682 2.264 . S
Co672 O701 2.286 . S
Co672 O702 2.069 . S
Co672 O704 2.015 1_455 S
Co673 O675 2.122 . S
Co673 O681 2.073 . S
Co673 O682 2.327 . S
Co673 O683 1.976 1_455 S
Co674 O675 2.094 1_545 S
Co674 O677 2.080 1_455 S
Co674 O684 2.108 1_445 S
Co674 O685 2.146 . S
Co674 O689 2.115 . S
Co674 O703 2.141 1_445 S
O675 Co672 2.042 . S
O675 Co673 2.122 . S
O675 Co674 2.094 1_565 S
O675 H676 0.980 . S
H676 O675 0.980 . S
O677 Co674 2.080 1_655 S
O677 Co678 2.042 . S
O677 Co679 2.122 . S
O677 H680 0.980 . S
Co678 O677 2.042 . S
Co678 O686 2.286 . S
Co678 O687 2.069 . S
Co678 O688 2.015 1_655 S
Co678 O691 2.264 . S
Co679 O677 2.122 . S
Co679 O690 1.976 1_655 S
Co679 O691 2.327 . S
Co679 O692 2.073 . S
H680 O677 0.980 . S
O681 Co673 2.073 . S
O681 C696 1.245 . S
O682 Co672 2.264 . S
O682 Co673 2.327 . S
O682 C696 1.257 . S
O683 Co673 1.976 1_655 S
O683 C695 1.251 . S
O684 Co674 2.108 1_665 S
O684 C695 1.274 . S
O685 Co674 2.146 . S
O685 C698 1.246 . S
O686 Co678 2.286 . S
O686 C697 1.259 . S
O687 Co678 2.069 . S
O687 C697 1.289 . S
O688 Co678 2.015 1_455 S
O688 C698 1.257 . S
O689 Co674 2.115 . S
O689 C699 1.274 . S
O690 Co679 1.976 1_455 S
O690 C699 1.251 . S
O691 Co678 2.264 . S
O691 Co679 2.327 . S
O691 C700 1.257 . S
O692 Co679 2.073 . S
O692 C700 1.245 . S
C693 O701 1.259 . S
C693 O702 1.289 . S
C694 O703 1.246 . S
C694 O704 1.257 . S
C695 O683 1.251 . S
C695 O684 1.274 . S
C696 O681 1.245 . S
C696 O682 1.257 . S
C697 O686 1.259 . S
C697 O687 1.289 . S
C698 O685 1.246 . S
C698 O688 1.257 . S
C699 O689 1.274 . S
C699 O690 1.251 . S
C700 O691 1.257 . S
C700 O692 1.245 . S
O701 Co672 2.286 . S
O701 C693 1.259 . S
O702 Co672 2.069 . S
O702 C693 1.289 . S
O703 Co674 2.141 1_665 S
O703 C694 1.246 . S
O704 Co672 2.015 1_655 S
O704 C694 1.257 . S
Co705 O708 2.042 1_556 S
Co705 O715 2.264 1_556 S
Co705 O734 2.286 . S
Co705 O735 2.069 . S
Co705 O737 2.015 . S
Co706 O708 2.122 . S
Co706 O714 2.073 . S
Co706 O715 2.327 . S
Co706 O716 1.976 . S
Co707 O708 2.087 1_545 S
Co707 O710 2.087 1_554 S
Co707 O717 2.111 1_545 S
Co707 O718 2.143 . S
Co707 O722 2.111 1_554 S
Co707 O736 2.143 1_544 S
O708 Co705 2.042 1_554 S
O708 Co706 2.122 . S
O708 Co707 2.087 1_565 S
O708 H709 0.980 . S
H709 O708 0.980 . S
O710 Co707 2.087 1_556 S
O710 Co711 2.042 1_556 S
O710 Co712 2.122 . S
O710 H713 0.980 . S
Co711 O710 2.042 1_554 S
Co711 O719 2.286 . S
Co711 O720 2.069 . S
Co711 O721 2.015 . S
Co711 O724 2.264 1_554 S
Co712 O710 2.122 . S
Co712 O723 1.976 . S
Co712 O724 2.327 . S
Co712 O725 2.073 . S
H713 O710 0.980 . S
O714 Co706 2.073 . S
O714 C729 1.245 . S
O715 Co705 2.264 1_554 S
O715 Co706 2.327 . S
O715 C729 1.257 . S
O716 Co706 1.976 . S
O716 C728 1.251 . S
O717 Co707 2.111 1_565 S
O717 C728 1.274 . S
O718 Co707 2.143 . S
O718 C731 1.246 . S
O719 Co711 2.286 . S
O719 C730 1.259 . S
O720 Co711 2.069 . S
O720 C730 1.289 . S
O721 Co711 2.015 . S
O721 C731 1.257 . S
O722 Co707 2.111 1_556 S
O722 C732 1.274 . S
O723 Co712 1.976 . S
O723 C732 1.251 . S
O724 Co711 2.264 1_556 S
O724 Co712 2.327 . S
O724 C733 1.257 . S
O725 Co712 2.073 . S
O725 C733 1.245 . S
C726 O734 1.259 . S
C726 O735 1.289 . S
C727 O736 1.246 . S
C727 O737 1.257 . S
C728 O716 1.251 . S
C728 O717 1.274 . S
C729 O714 1.245 . S
C729 O715 1.257 . S
C730 O719 1.259 . S
C730 O720 1.289 . S
C731 O718 1.246 . S
C731 O721 1.257 . S
C732 O722 1.274 . S
C732 O723 1.251 . S
C733 O724 1.257 . S
C733 O725 1.245 . S
O734 Co705 2.286 . S
O734 C726 1.259 . S
O735 Co705 2.069 . S
O735 C726 1.289 . S
O736 Co707 2.143 1_566 S
O736 C727 1.246 . S
O737 Co705 2.015 . S
O737 C727 1.257 . S
Co738 O741 2.042 1_556 S
Co738 O748 2.264 1_556 S
Co738 O767 2.286 . S
Co738 O768 2.069 . S
Co738 O770 2.015 1_455 S
Co739 O741 2.122 . S
Co739 O747 2.073 . S
Co739 O748 2.327 . S
Co739 O749 1.976 1_455 S
Co740 O741 2.094 . S
Co740 O743 2.080 1_454 S
Co740 O750 2.108 1_455 S
Co740 O751 2.146 . S
Co740 O755 2.115 1_554 S
Co740 O769 2.141 1_454 S
O741 Co738 2.042 1_554 S
O741 Co739 2.122 . S
O741 Co740 2.094 . S
O741 H742 0.980 . S
H742 O741 0.980 . S
O743 Co740 2.080 1_656 S
O743 Co744 2.042 1_556 S
O743 Co745 2.122 . S
O743 H746 0.980 . S
Co744 O743 2.042 1_554 S
Co744 O752 2.286 . S
Co744 O753 2.069 . S
Co744 O754 2.015 1_655 S
Co744 O757 2.264 1_554 S
Co745 O743 2.122 . S
Co745 O756 1.976 1_655 S
Co745 O757 2.327 . S
Co745 O758 2.073 . S
H746 O743 0.980 . S
O747 Co739 2.073 . S
O747 C762 1.245 . S
O748 Co738 2.264 1_554 S
O748 Co739 2.327 . S
O748 C762 1.257 . S
O749 Co739 1.976 1_655 S
O749 C761 1.251 . S
O750 Co740 2.108 1_655 S
O750 C761 1.274 . S
O751 Co740 2.146 . S
O751 C764 1.246 . S
O752 Co744 2.286 . S
O752 C763 1.259 . S
O753 Co744 2.069 . S
O753 C763 1.289 . S
O754 Co744 2.015 1_455 S
O754 C764 1.257 . S
O755 Co740 2.115 1_556 S
O755 C765 1.274 . S
O756 Co745 1.976 1_455 S
O756 C765 1.251 . S
O757 Co744 2.264 1_556 S
O757 Co745 2.327 . S
O757 C766 1.257 . S
O758 Co745 2.073 . S
O758 C766 1.245 . S
C759 O767 1.259 . S
C759 O768 1.289 . S
C760 O769 1.246 . S
C760 O770 1.257 . S
C761 O749 1.251 . S
C761 O750 1.274 . S
C762 O747 1.245 . S
C762 O748 1.257 . S
C763 O752 1.259 . S
C763 O753 1.289 . S
C764 O751 1.246 . S
C764 O754 1.257 . S
C765 O755 1.274 . S
C765 O756 1.251 . S
C766 O757 1.257 . S
C766 O758 1.245 . S
O767 Co738 2.286 . S
O767 C759 1.259 . S
O768 Co738 2.069 . S
O768 C759 1.289 . S
O769 Co740 2.141 1_656 S
O769 C760 1.246 . S
O770 Co738 2.015 1_655 S
O770 C760 1.257 . S
Co771 O774 2.042 1_556 S
Co771 O781 2.264 1_556 S
Co771 O800 2.286 . S
Co771 O801 2.069 . S
Co771 O803 2.015 . S
Co772 O774 2.122 . S
Co772 O780 2.073 . S
Co772 O781 2.327 . S
Co772 O782 1.976 . S
Co773 O774 2.087 . S
Co773 O776 2.087 1_554 S
Co773 O783 2.111 . S
Co773 O784 2.143 . S
Co773 O788 2.111 1_554 S
Co773 O802 2.143 1_554 S
O774 Co771 2.042 1_554 S
O774 Co772 2.122 . S
O774 Co773 2.087 . S
O774 H775 0.980 . S
H775 O774 0.980 . S
O776 Co773 2.087 1_556 S
O776 Co777 2.042 1_556 S
O776 Co778 2.122 . S
O776 H779 0.980 . S
Co777 O776 2.042 1_554 S
Co777 O785 2.286 . S
Co777 O786 2.069 . S
Co777 O787 2.015 . S
Co777 O790 2.264 1_554 S
Co778 O776 2.122 . S
Co778 O789 1.976 . S
Co778 O790 2.327 . S
Co778 O791 2.073 . S
H779 O776 0.980 . S
O780 Co772 2.073 . S
O780 C795 1.245 . S
O781 Co771 2.264 1_554 S
O781 Co772 2.327 . S
O781 C795 1.257 . S
O782 Co772 1.976 . S
O782 C794 1.251 . S
O783 Co773 2.111 . S
O783 C794 1.274 . S
O784 Co773 2.143 . S
O784 C797 1.246 . S
O785 Co777 2.286 . S
O785 C796 1.259 . S
O786 Co777 2.069 . S
O786 C796 1.289 . S
O787 Co777 2.015 . S
O787 C797 1.257 . S
O788 Co773 2.111 1_556 S
O788 C798 1.274 . S
O789 Co778 1.976 . S
O789 C798 1.251 . S
O790 Co777 2.264 1_556 S
O790 Co778 2.327 . S
O790 C799 1.257 . S
O791 Co778 2.073 . S
O791 C799 1.245 . S
C792 O800 1.259 . S
C792 O801 1.289 . S
C793 O802 1.246 . S
C793 O803 1.257 . S
C794 O782 1.251 . S
C794 O783 1.274 . S
C795 O780 1.245 . S
C795 O781 1.257 . S
C796 O785 1.259 . S
C796 O786 1.289 . S
C797 O784 1.246 . S
C797 O787 1.257 . S
C798 O788 1.274 . S
C798 O789 1.251 . S
C799 O790 1.257 . S
C799 O791 1.245 . S
O800 Co771 2.286 . S
O800 C792 1.259 . S
O801 Co771 2.069 . S
O801 C792 1.289 . S
O802 Co773 2.143 1_556 S
O802 C793 1.246 . S
O803 Co771 2.015 . S
O803 C793 1.257 . S
Co804 O807 2.042 . S
Co804 O814 2.264 . S
Co804 O833 2.286 . S
Co804 O834 2.069 . S
Co804 O836 2.015 . S
Co805 O807 2.122 . S
Co805 O813 2.073 . S
Co805 O814 2.327 . S
Co805 O815 1.976 . S
Co806 O807 2.093 . S
Co806 O809 2.080 1_455 S
Co806 O816 2.113 . S
Co806 O817 2.139 1_455 S
Co806 O821 2.110 1_455 S
Co806 O835 2.148 . S
O807 Co804 2.042 . S
O807 Co805 2.122 . S
O807 Co806 2.093 . S
O807 H808 0.980 . S
H808 O807 0.980 . S
O809 Co806 2.080 1_655 S
O809 Co810 2.042 . S
O809 Co811 2.122 . S
O809 H812 0.980 . S
Co810 O809 2.042 . S
Co810 O818 2.286 . S
Co810 O819 2.069 . S
Co810 O820 2.015 . S
Co810 O823 2.264 . S
Co811 O809 2.122 . S
Co811 O822 1.976 . S
Co811 O823 2.327 . S
Co811 O824 2.073 . S
H812 O809 0.980 . S
O813 Co805 2.073 . S
O813 C828 1.245 . S
O814 Co804 2.264 . S
O814 Co805 2.327 . S
O814 C828 1.257 . S
O815 Co805 1.976 . S
O815 C827 1.251 . S
O816 Co806 2.113 . S
O816 C827 1.274 . S
O817 Co806 2.139 1_655 S
O817 C830 1.246 . S
O818 Co810 2.286 . S
O818 C829 1.259 . S
O819 Co810 2.069 . S
O819 C829 1.289 . S
O820 Co810 2.015 . S
O820 C830 1.257 . S
O821 Co806 2.110 1_655 S
O821 C831 1.274 . S
O822 Co811 1.976 . S
O822 C831 1.251 . S
O823 Co810 2.264 . S
O823 Co811 2.327 . S
O823 C832 1.257 . S
O824 Co811 2.073 . S
O824 C832 1.245 . S
C825 O833 1.259 . S
C825 O834 1.289 . S
C826 O835 1.246 . S
C826 O836 1.257 . S
C827 O815 1.251 . S
C827 O816 1.274 . S
C828 O813 1.245 . S
C828 O814 1.257 . S
C829 O818 1.259 . S
C829 O819 1.289 . S
C830 O817 1.246 . S
C830 O820 1.257 . S
C831 O821 1.274 . S
C831 O822 1.251 . S
C832 O823 1.257 . S
C832 O824 1.245 . S
O833 Co804 2.286 . S
O833 C825 1.259 . S
O834 Co804 2.069 . S
O834 C825 1.289 . S
O835 Co806 2.148 . S
O835 C826 1.246 . S
O836 Co804 2.015 . S
O836 C826 1.257 . S
Co837 O840 2.042 . S
Co837 O847 2.264 . S
Co837 O866 2.286 . S
Co837 O867 2.069 . S
Co837 O869 2.015 1_565 S
Co838 O840 2.122 . S
Co838 O846 2.073 . S
Co838 O847 2.327 . S
Co838 O848 1.976 1_565 S
Co839 O840 2.087 1_545 S
Co839 O842 2.087 . S
Co839 O849 2.111 . S
Co839 O850 2.143 1_545 S
Co839 O854 2.111 1_545 S
Co839 O868 2.143 . S
O840 Co837 2.042 . S
O840 Co838 2.122 . S
O840 Co839 2.087 1_565 S
O840 H841 0.980 . S
H841 O840 0.980 . S
O842 Co839 2.087 . S
O842 Co843 2.042 . S
O842 Co844 2.122 . S
O842 H845 0.980 . S
Co843 O842 2.042 . S
Co843 O851 2.286 . S
Co843 O852 2.069 . S
Co843 O853 2.015 1_545 S
Co843 O856 2.264 . S
Co844 O842 2.122 . S
Co844 O855 1.976 1_545 S
Co844 O856 2.327 . S
Co844 O857 2.073 . S
H845 O842 0.980 . S
O846 Co838 2.073 . S
O846 C861 1.245 . S
O847 Co837 2.264 . S
O847 Co838 2.327 . S
O847 C861 1.257 . S
O848 Co838 1.976 1_545 S
O848 C860 1.251 . S
O849 Co839 2.111 . S
O849 C860 1.274 . S
O850 Co839 2.143 1_565 S
O850 C863 1.246 . S
O851 Co843 2.286 . S
O851 C862 1.259 . S
O852 Co843 2.069 . S
O852 C862 1.289 . S
O853 Co843 2.015 1_565 S
O853 C863 1.257 . S
O854 Co839 2.111 1_565 S
O854 C864 1.274 . S
O855 Co844 1.976 1_565 S
O855 C864 1.251 . S
O856 Co843 2.264 . S
O856 Co844 2.327 . S
O856 C865 1.257 . S
O857 Co844 2.073 . S
O857 C865 1.245 . S
C858 O866 1.259 . S
C858 O867 1.289 . S
C859 O868 1.246 . S
C859 O869 1.257 . S
C860 O848 1.251 . S
C860 O849 1.274 . S
C861 O846 1.245 . S
C861 O847 1.257 . S
C862 O851 1.259 . S
C862 O852 1.289 . S
C863 O850 1.246 . S
C863 O853 1.257 . S
C864 O854 1.274 . S
C864 O855 1.251 . S
C865 O856 1.257 . S
C865 O857 1.245 . S
O866 Co837 2.286 . S
O866 C858 1.259 . S
O867 Co837 2.069 . S
O867 C858 1.289 . S
O868 Co839 2.143 . S
O868 C859 1.246 . S
O869 Co837 2.015 1_545 S
O869 C859 1.257 . S
H870 C882 0.930 . S
H871 C884 0.930 . S
H872 C885 0.930 . S
H873 C889 0.959 . S
H874 C889 0.959 . S
H875 C889 0.961 . S
H876 C890 0.960 . S
H877 C890 0.961 . S
H878 C890 0.959 . S
H879 C893 0.929 . S
H880 C894 0.931 . S
H881 C896 0.930 . S
C882 H870 0.930 . S
C882 C883 1.399 . S
C882 C887 1.399 . S
C883 C882 1.399 . S
C883 C884 1.376 . S
C884 H871 0.930 . S
C884 C883 1.376 . S
C884 C885 1.388 . S
C885 H872 0.930 . S
C885 C884 1.388 . S
C885 C886 1.390 . S
C886 C885 1.390 . S
C886 C887 1.394 . S
C886 C892 1.465 . S
C887 C882 1.399 . S
C887 C886 1.394 . S
C887 C888 1.516 . S
C888 C887 1.516 . S
C888 C889 1.502 . S
C888 C890 1.561 . S
C888 C891 1.526 . S
C889 H873 0.959 . S
C889 H874 0.959 . S
C889 H875 0.961 . S
C889 C888 1.502 . S
C890 H876 0.960 . S
C890 H877 0.961 . S
C890 H878 0.959 . S
C890 C888 1.561 . S
C891 C888 1.526 . S
C891 C892 1.396 . S
C891 C896 1.390 . S
C892 C886 1.465 . S
C892 C891 1.396 . S
C892 C893 1.399 . S
C893 H879 0.929 . S
C893 C892 1.399 . S
C893 C894 1.385 . S
C894 H880 0.931 . S
C894 C893 1.385 . S
C894 C895 1.389 . S
C895 C894 1.389 . S
C895 C896 1.387 . S
C896 H881 0.930 . S
C896 C891 1.390 . S
C896 C895 1.387 . S
H897 C909 0.930 . S
H898 C911 0.930 . S
H899 C912 0.930 . S
H900 C916 0.959 . S
H901 C916 0.959 . S
H902 C916 0.961 . S
H903 C917 0.960 . S
H904 C917 0.961 . S
H905 C917 0.959 . S
H906 C920 0.929 . S
H907 C921 0.931 . S
H908 C923 0.930 . S
C909 H897 0.930 . S
C909 C910 1.399 . S
C909 C914 1.399 . S
C910 C909 1.399 . S
C910 C911 1.376 . S
C911 H898 0.930 . S
C911 C910 1.376 . S
C911 C912 1.388 . S
C912 H899 0.930 . S
C912 C911 1.388 . S
C912 C913 1.390 . S
C913 C912 1.390 . S
C913 C914 1.394 . S
C913 C919 1.465 . S
C914 C909 1.399 . S
C914 C913 1.394 . S
C914 C915 1.516 . S
C915 C914 1.516 . S
C915 C916 1.502 . S
C915 C917 1.561 . S
C915 C918 1.526 . S
C916 H900 0.959 . S
C916 H901 0.959 . S
C916 H902 0.961 . S
C916 C915 1.502 . S
C917 H903 0.960 . S
C917 H904 0.961 . S
C917 H905 0.959 . S
C917 C915 1.561 . S
C918 C915 1.526 . S
C918 C919 1.396 . S
C918 C923 1.390 . S
C919 C913 1.465 . S
C919 C918 1.396 . S
C919 C920 1.399 . S
C920 H906 0.929 . S
C920 C919 1.399 . S
C920 C921 1.385 . S
C921 H907 0.931 . S
C921 C920 1.385 . S
C921 C922 1.389 . S
C922 C921 1.389 . S
C922 C923 1.387 . S
C923 H908 0.930 . S
C923 C918 1.390 . S
C923 C922 1.387 . S
H924 C936 0.930 . S
H925 C938 0.930 . S
H926 C939 0.930 . S
H927 C943 0.959 . S
H928 C943 0.959 . S
H929 C943 0.961 . S
H930 C944 0.960 . S
H931 C944 0.961 . S
H932 C944 0.959 . S
H933 C947 0.929 . S
H934 C948 0.931 . S
H935 C950 0.930 . S
C936 H924 0.930 . S
C936 C937 1.399 . S
C936 C941 1.399 . S
C937 C936 1.399 . S
C937 C938 1.376 . S
C938 H925 0.930 . S
C938 C937 1.376 . S
C938 C939 1.388 . S
C939 H926 0.930 . S
C939 C938 1.388 . S
C939 C940 1.390 . S
C940 C939 1.390 . S
C940 C941 1.394 . S
C940 C946 1.465 . S
C941 C936 1.399 . S
C941 C940 1.394 . S
C941 C942 1.516 . S
C942 C941 1.516 . S
C942 C943 1.502 . S
C942 C944 1.561 . S
C942 C945 1.526 . S
C943 H927 0.959 . S
C943 H928 0.959 . S
C943 H929 0.961 . S
C943 C942 1.502 . S
C944 H930 0.960 . S
C944 H931 0.961 . S
C944 H932 0.959 . S
C944 C942 1.561 . S
C945 C942 1.526 . S
C945 C946 1.396 . S
C945 C950 1.390 . S
C946 C940 1.465 . S
C946 C945 1.396 . S
C946 C947 1.399 . S
C947 H933 0.929 . S
C947 C946 1.399 . S
C947 C948 1.385 . S
C948 H934 0.931 . S
C948 C947 1.385 . S
C948 C949 1.389 . S
C949 C948 1.389 . S
C949 C950 1.387 . S
C950 H935 0.930 . S
C950 C945 1.390 . S
C950 C949 1.387 . S
H951 C963 0.930 . S
H952 C965 0.930 . S
H953 C966 0.930 . S
H954 C970 0.959 . S
H955 C970 0.959 . S
H956 C970 0.961 . S
H957 C971 0.960 . S
H958 C971 0.961 . S
H959 C971 0.959 . S
H960 C974 0.929 . S
H961 C975 0.931 . S
H962 C977 0.930 . S
C963 H951 0.930 . S
C963 C964 1.399 . S
C963 C968 1.399 . S
C964 C963 1.399 . S
C964 C965 1.376 . S
C965 H952 0.930 . S
C965 C964 1.376 . S
C965 C966 1.388 . S
C966 H953 0.930 . S
C966 C965 1.388 . S
C966 C967 1.390 . S
C967 C966 1.390 . S
C967 C968 1.394 . S
C967 C973 1.465 . S
C968 C963 1.399 . S
C968 C967 1.394 . S
C968 C969 1.516 . S
C969 C968 1.516 . S
C969 C970 1.502 . S
C969 C971 1.561 . S
C969 C972 1.526 . S
C970 H954 0.959 . S
C970 H955 0.959 . S
C970 H956 0.961 . S
C970 C969 1.502 . S
C971 H957 0.960 . S
C971 H958 0.961 . S
C971 H959 0.959 . S
C971 C969 1.561 . S
C972 C969 1.526 . S
C972 C973 1.396 . S
C972 C977 1.390 . S
C973 C967 1.465 . S
C973 C972 1.396 . S
C973 C974 1.399 . S
C974 H960 0.929 . S
C974 C973 1.399 . S
C974 C975 1.385 . S
C975 H961 0.931 . S
C975 C974 1.385 . S
C975 C976 1.389 . S
C976 C975 1.389 . S
C976 C977 1.387 . S
C977 H962 0.930 . S
C977 C972 1.390 . S
C977 C976 1.387 . S
H978 C990 0.930 . S
H979 C992 0.930 . S
H980 C993 0.930 . S
H981 C997 0.959 . S
H982 C997 0.959 . S
H983 C997 0.961 . S
H984 C998 0.960 . S
H985 C998 0.961 . S
H986 C998 0.959 . S
H987 C1001 0.929 . S
H988 C1002 0.931 . S
H989 C1004 0.930 . S
C990 H978 0.930 . S
C990 C991 1.399 . S
C990 C995 1.399 . S
C991 C990 1.399 . S
C991 C992 1.376 . S
C992 H979 0.930 . S
C992 C991 1.376 . S
C992 C993 1.388 . S
C993 H980 0.930 . S
C993 C992 1.388 . S
C993 C994 1.390 . S
C994 C993 1.390 . S
C994 C995 1.394 . S
C994 C1000 1.465 . S
C995 C990 1.399 . S
C995 C994 1.394 . S
C995 C996 1.516 . S
C996 C995 1.516 . S
C996 C997 1.502 . S
C996 C998 1.561 . S
C996 C999 1.526 . S
C997 H981 0.959 . S
C997 H982 0.959 . S
C997 H983 0.961 . S
C997 C996 1.502 . S
C998 H984 0.960 . S
C998 H985 0.961 . S
C998 H986 0.959 . S
C998 C996 1.561 . S
C999 C996 1.526 . S
C999 C1000 1.396 . S
C999 C1004 1.390 . S
C1000 C994 1.465 . S
C1000 C999 1.396 . S
C1000 C1001 1.399 . S
C1001 H987 0.929 . S
C1001 C1000 1.399 . S
C1001 C1002 1.385 . S
C1002 H988 0.931 . S
C1002 C1001 1.385 . S
C1002 C1003 1.389 . S
C1003 C1002 1.389 . S
C1003 C1004 1.387 . S
C1004 H989 0.930 . S
C1004 C999 1.390 . S
C1004 C1003 1.387 . S
H1005 C1017 0.930 . S
H1006 C1019 0.930 . S
H1007 C1020 0.930 . S
H1008 C1024 0.959 . S
H1009 C1024 0.959 . S
H1010 C1024 0.961 . S
H1011 C1025 0.960 . S
H1012 C1025 0.961 . S
H1013 C1025 0.959 . S
H1014 C1028 0.929 . S
H1015 C1029 0.931 . S
H1016 C1031 0.930 . S
C1017 H1005 0.930 . S
C1017 C1018 1.399 . S
C1017 C1022 1.399 . S
C1018 C1017 1.399 . S
C1018 C1019 1.376 . S
C1019 H1006 0.930 . S
C1019 C1018 1.376 . S
C1019 C1020 1.388 . S
C1020 H1007 0.930 . S
C1020 C1019 1.388 . S
C1020 C1021 1.390 . S
C1021 C1020 1.390 . S
C1021 C1022 1.394 . S
C1021 C1027 1.465 . S
C1022 C1017 1.399 . S
C1022 C1021 1.394 . S
C1022 C1023 1.516 . S
C1023 C1022 1.516 . S
C1023 C1024 1.502 . S
C1023 C1025 1.561 . S
C1023 C1026 1.526 . S
C1024 H1008 0.959 . S
C1024 H1009 0.959 . S
C1024 H1010 0.961 . S
C1024 C1023 1.502 . S
C1025 H1011 0.960 . S
C1025 H1012 0.961 . S
C1025 H1013 0.959 . S
C1025 C1023 1.561 . S
C1026 C1023 1.526 . S
C1026 C1027 1.396 . S
C1026 C1031 1.390 . S
C1027 C1021 1.465 . S
C1027 C1026 1.396 . S
C1027 C1028 1.399 . S
C1028 H1014 0.929 . S
C1028 C1027 1.399 . S
C1028 C1029 1.385 . S
C1029 H1015 0.931 . S
C1029 C1028 1.385 . S
C1029 C1030 1.389 . S
C1030 C1029 1.389 . S
C1030 C1031 1.387 . S
C1031 H1016 0.930 . S
C1031 C1026 1.390 . S
C1031 C1030 1.387 . S
H1032 C1044 0.930 . S
H1033 C1046 0.930 . S
H1034 C1047 0.930 . S
H1035 C1051 0.959 . S
H1036 C1051 0.959 . S
H1037 C1051 0.961 . S
H1038 C1052 0.960 . S
H1039 C1052 0.961 . S
H1040 C1052 0.959 . S
H1041 C1055 0.929 . S
H1042 C1056 0.931 . S
H1043 C1058 0.930 . S
C1044 H1032 0.930 . S
C1044 C1045 1.399 . S
C1044 C1049 1.399 . S
C1045 C1044 1.399 . S
C1045 C1046 1.376 . S
C1046 H1033 0.930 . S
C1046 C1045 1.376 . S
C1046 C1047 1.388 . S
C1047 H1034 0.930 . S
C1047 C1046 1.388 . S
C1047 C1048 1.390 . S
C1048 C1047 1.390 . S
C1048 C1049 1.394 . S
C1048 C1054 1.465 . S
C1049 C1044 1.399 . S
C1049 C1048 1.394 . S
C1049 C1050 1.516 . S
C1050 C1049 1.516 . S
C1050 C1051 1.502 . S
C1050 C1052 1.561 . S
C1050 C1053 1.526 . S
C1051 H1035 0.959 . S
C1051 H1036 0.959 . S
C1051 H1037 0.961 . S
C1051 C1050 1.502 . S
C1052 H1038 0.960 . S
C1052 H1039 0.961 . S
C1052 H1040 0.959 . S
C1052 C1050 1.561 . S
C1053 C1050 1.526 . S
C1053 C1054 1.396 . S
C1053 C1058 1.390 . S
C1054 C1048 1.465 . S
C1054 C1053 1.396 . S
C1054 C1055 1.399 . S
C1055 H1041 0.929 . S
C1055 C1054 1.399 . S
C1055 C1056 1.385 . S
C1056 H1042 0.931 . S
C1056 C1055 1.385 . S
C1056 C1057 1.389 . S
C1057 C1056 1.389 . S
C1057 C1058 1.387 . S
C1058 H1043 0.930 . S
C1058 C1053 1.390 . S
C1058 C1057 1.387 . S
H1059 C1071 0.930 . S
H1060 C1073 0.930 . S
H1061 C1074 0.930 . S
H1062 C1078 0.959 . S
H1063 C1078 0.959 . S
H1064 C1078 0.961 . S
H1065 C1079 0.960 . S
H1066 C1079 0.961 . S
H1067 C1079 0.959 . S
H1068 C1082 0.929 . S
H1069 C1083 0.931 . S
H1070 C1085 0.930 . S
C1071 H1059 0.930 . S
C1071 C1072 1.399 . S
C1071 C1076 1.399 . S
C1072 C1071 1.399 . S
C1072 C1073 1.376 . S
C1073 H1060 0.930 . S
C1073 C1072 1.376 . S
C1073 C1074 1.388 . S
C1074 H1061 0.930 . S
C1074 C1073 1.388 . S
C1074 C1075 1.390 . S
C1075 C1074 1.390 . S
C1075 C1076 1.394 . S
C1075 C1081 1.465 . S
C1076 C1071 1.399 . S
C1076 C1075 1.394 . S
C1076 C1077 1.516 . S
C1077 C1076 1.516 . S
C1077 C1078 1.502 . S
C1077 C1079 1.561 . S
C1077 C1080 1.526 . S
C1078 H1062 0.959 . S
C1078 H1063 0.959 . S
C1078 H1064 0.961 . S
C1078 C1077 1.502 . S
C1079 H1065 0.960 . S
C1079 H1066 0.961 . S
C1079 H1067 0.959 . S
C1079 C1077 1.561 . S
C1080 C1077 1.526 . S
C1080 C1081 1.396 . S
C1080 C1085 1.390 . S
C1081 C1075 1.465 . S
C1081 C1080 1.396 . S
C1081 C1082 1.399 . S
C1082 H1068 0.929 . S
C1082 C1081 1.399 . S
C1082 C1083 1.385 . S
C1083 H1069 0.931 . S
C1083 C1082 1.385 . S
C1083 C1084 1.389 . S
C1084 C1083 1.389 . S
C1084 C1085 1.387 . S
C1085 H1070 0.930 . S
C1085 C1080 1.390 . S
C1085 C1084 1.387 . S
H1086 C1098 0.930 . S
H1087 C1100 0.930 . S
H1088 C1101 0.930 . S
H1089 C1105 0.959 . S
H1090 C1105 0.959 . S
H1091 C1105 0.961 . S
H1092 C1106 0.960 . S
H1093 C1106 0.961 . S
H1094 C1106 0.959 . S
H1095 C1109 0.929 . S
H1096 C1110 0.931 . S
H1097 C1112 0.930 . S
C1098 H1086 0.930 . S
C1098 C1099 1.399 . S
C1098 C1103 1.399 . S
C1099 C1098 1.399 . S
C1099 C1100 1.376 . S
C1100 H1087 0.930 . S
C1100 C1099 1.376 . S
C1100 C1101 1.388 . S
C1101 H1088 0.930 . S
C1101 C1100 1.388 . S
C1101 C1102 1.390 . S
C1102 C1101 1.390 . S
C1102 C1103 1.394 . S
C1102 C1108 1.465 . S
C1103 C1098 1.399 . S
C1103 C1102 1.394 . S
C1103 C1104 1.516 . S
C1104 C1103 1.516 . S
C1104 C1105 1.502 . S
C1104 C1106 1.561 . S
C1104 C1107 1.526 . S
C1105 H1089 0.959 . S
C1105 H1090 0.959 . S
C1105 H1091 0.961 . S
C1105 C1104 1.502 . S
C1106 H1092 0.960 . S
C1106 H1093 0.961 . S
C1106 H1094 0.959 . S
C1106 C1104 1.561 . S
C1107 C1104 1.526 . S
C1107 C1108 1.396 . S
C1107 C1112 1.390 . S
C1108 C1102 1.465 . S
C1108 C1107 1.396 . S
C1108 C1109 1.399 . S
C1109 H1095 0.929 . S
C1109 C1108 1.399 . S
C1109 C1110 1.385 . S
C1110 H1096 0.931 . S
C1110 C1109 1.385 . S
C1110 C1111 1.389 . S
C1111 C1110 1.389 . S
C1111 C1112 1.387 . S
C1112 H1097 0.930 . S
C1112 C1107 1.390 . S
C1112 C1111 1.387 . S
H1113 C1125 0.930 . S
H1114 C1127 0.930 . S
H1115 C1128 0.930 . S
H1116 C1132 0.959 . S
H1117 C1132 0.959 . S
H1118 C1132 0.961 . S
H1119 C1133 0.960 . S
H1120 C1133 0.961 . S
H1121 C1133 0.959 . S
H1122 C1136 0.929 . S
H1123 C1137 0.931 . S
H1124 C1139 0.930 . S
C1125 H1113 0.930 . S
C1125 C1126 1.399 . S
C1125 C1130 1.399 . S
C1126 C1125 1.399 . S
C1126 C1127 1.376 . S
C1127 H1114 0.930 . S
C1127 C1126 1.376 . S
C1127 C1128 1.388 . S
C1128 H1115 0.930 . S
C1128 C1127 1.388 . S
C1128 C1129 1.390 . S
C1129 C1128 1.390 . S
C1129 C1130 1.394 . S
C1129 C1135 1.465 . S
C1130 C1125 1.399 . S
C1130 C1129 1.394 . S
C1130 C1131 1.516 . S
C1131 C1130 1.516 . S
C1131 C1132 1.502 . S
C1131 C1133 1.561 . S
C1131 C1134 1.526 . S
C1132 H1116 0.959 . S
C1132 H1117 0.959 . S
C1132 H1118 0.961 . S
C1132 C1131 1.502 . S
C1133 H1119 0.960 . S
C1133 H1120 0.961 . S
C1133 H1121 0.959 . S
C1133 C1131 1.561 . S
C1134 C1131 1.526 . S
C1134 C1135 1.396 . S
C1134 C1139 1.390 . S
C1135 C1129 1.465 . S
C1135 C1134 1.396 . S
C1135 C1136 1.399 . S
C1136 H1122 0.929 . S
C1136 C1135 1.399 . S
C1136 C1137 1.385 . S
C1137 H1123 0.931 . S
C1137 C1136 1.385 . S
C1137 C1138 1.389 . S
C1138 C1137 1.389 . S
C1138 C1139 1.387 . S
C1139 H1124 0.930 . S
C1139 C1134 1.390 . S
C1139 C1138 1.387 . S
H1140 C1152 0.930 . S
H1141 C1154 0.930 . S
H1142 C1155 0.930 . S
H1143 C1159 0.961 . S
H1144 C1159 0.956 1_556 S
H1145 C1159 0.961 1_556 S
H1146 C1160 0.960 . S
H1147 C1160 0.961 1_556 S
H1148 C1160 0.959 . S
H1149 C1163 0.929 . S
H1150 C1164 0.931 . S
H1151 C1166 0.933 1_556 S
C1152 H1140 0.930 . S
C1152 C1153 1.399 . S
C1152 C1157 1.399 . S
C1153 C1152 1.399 . S
C1153 C1154 1.376 . S
C1154 H1141 0.930 . S
C1154 C1153 1.376 . S
C1154 C1155 1.388 . S
C1155 H1142 0.930 . S
C1155 C1154 1.388 . S
C1155 C1156 1.390 . S
C1156 C1155 1.390 . S
C1156 C1157 1.394 . S
C1156 C1162 1.465 . S
C1157 C1152 1.399 . S
C1157 C1156 1.394 . S
C1157 C1158 1.516 . S
C1158 C1157 1.516 . S
C1158 C1159 1.504 . S
C1158 C1160 1.561 . S
C1158 C1161 1.526 . S
C1159 H1143 0.961 . S
C1159 H1144 0.956 1_554 S
C1159 H1145 0.961 1_554 S
C1159 C1158 1.504 . S
C1160 H1146 0.960 . S
C1160 H1147 0.961 1_554 S
C1160 H1148 0.959 . S
C1160 C1158 1.561 . S
C1161 C1158 1.526 . S
C1161 C1162 1.396 . S
C1161 C1166 1.390 . S
C1162 C1156 1.465 . S
C1162 C1161 1.396 . S
C1162 C1163 1.399 . S
C1163 H1149 0.929 . S
C1163 C1162 1.399 . S
C1163 C1164 1.385 . S
C1164 H1150 0.931 . S
C1164 C1163 1.385 . S
C1164 C1165 1.389 . S
C1165 C1164 1.389 . S
C1165 C1166 1.387 . S
C1166 H1151 0.933 1_554 S
C1166 C1161 1.390 . S
C1166 C1165 1.387 . S
H1167 C1179 0.930 . S
H1168 C1181 0.930 . S
H1169 C1182 0.930 . S
H1170 C1186 0.959 . S
H1171 C1186 0.959 . S
H1172 C1186 0.961 . S
H1173 C1187 0.960 . S
H1174 C1187 0.961 . S
H1175 C1187 0.959 . S
H1176 C1190 0.929 . S
H1177 C1191 0.931 . S
H1178 C1193 0.930 . S
C1179 H1167 0.930 . S
C1179 C1180 1.399 . S
C1179 C1184 1.399 . S
C1180 C1179 1.399 . S
C1180 C1181 1.376 . S
C1181 H1168 0.930 . S
C1181 C1180 1.376 . S
C1181 C1182 1.388 . S
C1182 H1169 0.930 . S
C1182 C1181 1.388 . S
C1182 C1183 1.390 . S
C1183 C1182 1.390 . S
C1183 C1184 1.394 . S
C1183 C1189 1.465 . S
C1184 C1179 1.399 . S
C1184 C1183 1.394 . S
C1184 C1185 1.516 . S
C1185 C1184 1.516 . S
C1185 C1186 1.502 . S
C1185 C1187 1.561 . S
C1185 C1188 1.526 . S
C1186 H1170 0.959 . S
C1186 H1171 0.959 . S
C1186 H1172 0.961 . S
C1186 C1185 1.502 . S
C1187 H1173 0.960 . S
C1187 H1174 0.961 . S
C1187 H1175 0.959 . S
C1187 C1185 1.561 . S
C1188 C1185 1.526 . S
C1188 C1189 1.396 . S
C1188 C1193 1.390 . S
C1189 C1183 1.465 . S
C1189 C1188 1.396 . S
C1189 C1190 1.399 . S
C1190 H1176 0.929 . S
C1190 C1189 1.399 . S
C1190 C1191 1.385 . S
C1191 H1177 0.931 . S
C1191 C1190 1.385 . S
C1191 C1192 1.389 . S
C1192 C1191 1.389 . S
C1192 C1193 1.387 . S
C1193 H1178 0.930 . S
C1193 C1188 1.390 . S
C1193 C1192 1.387 . S
H1194 C1206 0.930 . S
H1195 C1208 0.930 . S
H1196 C1209 0.930 . S
H1197 C1213 0.959 . S
H1198 C1213 0.959 . S
H1199 C1213 0.961 . S
H1200 C1214 0.960 . S
H1201 C1214 0.961 . S
H1202 C1214 0.959 . S
H1203 C1217 0.929 . S
H1204 C1218 0.931 . S
H1205 C1220 0.930 . S
C1206 H1194 0.930 . S
C1206 C1207 1.399 . S
C1206 C1211 1.399 . S
C1207 C1206 1.399 . S
C1207 C1208 1.376 . S
C1208 H1195 0.930 . S
C1208 C1207 1.376 . S
C1208 C1209 1.388 . S
C1209 H1196 0.930 . S
C1209 C1208 1.388 . S
C1209 C1210 1.390 . S
C1210 C1209 1.390 . S
C1210 C1211 1.394 . S
C1210 C1216 1.465 . S
C1211 C1206 1.399 . S
C1211 C1210 1.394 . S
C1211 C1212 1.516 . S
C1212 C1211 1.516 . S
C1212 C1213 1.502 . S
C1212 C1214 1.561 . S
C1212 C1215 1.526 . S
C1213 H1197 0.959 . S
C1213 H1198 0.959 . S
C1213 H1199 0.961 . S
C1213 C1212 1.502 . S
C1214 H1200 0.960 . S
C1214 H1201 0.961 . S
C1214 H1202 0.959 . S
C1214 C1212 1.561 . S
C1215 C1212 1.526 . S
C1215 C1216 1.396 . S
C1215 C1220 1.390 . S
C1216 C1210 1.465 . S
C1216 C1215 1.396 . S
C1216 C1217 1.399 . S
C1217 H1203 0.929 . S
C1217 C1216 1.399 . S
C1217 C1218 1.385 . S
C1218 H1204 0.931 . S
C1218 C1217 1.385 . S
C1218 C1219 1.389 . S
C1219 C1218 1.389 . S
C1219 C1220 1.387 . S
C1220 H1205 0.930 . S
C1220 C1215 1.390 . S
C1220 C1219 1.387 . S
H1221 C1233 0.930 . S
H1222 C1235 0.930 . S
H1223 C1236 0.930 . S
H1224 C1240 0.959 . S
H1225 C1240 0.959 . S
H1226 C1240 0.961 . S
H1227 C1241 0.960 . S
H1228 C1241 0.961 . S
H1229 C1241 0.959 . S
H1230 C1244 0.929 . S
H1231 C1245 0.931 . S
H1232 C1247 0.930 . S
C1233 H1221 0.930 . S
C1233 C1234 1.399 . S
C1233 C1238 1.399 . S
C1234 C1233 1.399 . S
C1234 C1235 1.376 . S
C1235 H1222 0.930 . S
C1235 C1234 1.376 . S
C1235 C1236 1.388 . S
C1236 H1223 0.930 . S
C1236 C1235 1.388 . S
C1236 C1237 1.390 . S
C1237 C1236 1.390 . S
C1237 C1238 1.394 . S
C1237 C1243 1.465 . S
C1238 C1233 1.399 . S
C1238 C1237 1.394 . S
C1238 C1239 1.516 . S
C1239 C1238 1.516 . S
C1239 C1240 1.502 . S
C1239 C1241 1.561 . S
C1239 C1242 1.526 . S
C1240 H1224 0.959 . S
C1240 H1225 0.959 . S
C1240 H1226 0.961 . S
C1240 C1239 1.502 . S
C1241 H1227 0.960 . S
C1241 H1228 0.961 . S
C1241 H1229 0.959 . S
C1241 C1239 1.561 . S
C1242 C1239 1.526 . S
C1242 C1243 1.396 . S
C1242 C1247 1.390 . S
C1243 C1237 1.465 . S
C1243 C1242 1.396 . S
C1243 C1244 1.399 . S
C1244 H1230 0.929 . S
C1244 C1243 1.399 . S
C1244 C1245 1.385 . S
C1245 H1231 0.931 . S
C1245 C1244 1.385 . S
C1245 C1246 1.389 . S
C1246 C1245 1.389 . S
C1246 C1247 1.387 . S
C1247 H1232 0.930 . S
C1247 C1242 1.390 . S
C1247 C1246 1.387 . S
H1248 C1260 0.930 . S
H1249 C1262 0.930 . S
H1250 C1263 0.930 . S
H1251 C1267 0.959 . S
H1252 C1267 0.959 . S
H1253 C1267 0.961 . S
H1254 C1268 0.960 . S
H1255 C1268 0.961 . S
H1256 C1268 0.959 . S
H1257 C1271 0.929 . S
H1258 C1272 0.931 . S
H1259 C1274 0.930 . S
C1260 H1248 0.930 . S
C1260 C1261 1.399 . S
C1260 C1265 1.399 . S
C1261 C1260 1.399 . S
C1261 C1262 1.376 . S
C1262 H1249 0.930 . S
C1262 C1261 1.376 . S
C1262 C1263 1.388 . S
C1263 H1250 0.930 . S
C1263 C1262 1.388 . S
C1263 C1264 1.390 . S
C1264 C1263 1.390 . S
C1264 C1265 1.394 . S
C1264 C1270 1.465 . S
C1265 C1260 1.399 . S
C1265 C1264 1.394 . S
C1265 C1266 1.516 . S
C1266 C1265 1.516 . S
C1266 C1267 1.502 . S
C1266 C1268 1.561 . S
C1266 C1269 1.526 . S
C1267 H1251 0.959 . S
C1267 H1252 0.959 . S
C1267 H1253 0.961 . S
C1267 C1266 1.502 . S
C1268 H1254 0.960 . S
C1268 H1255 0.961 . S
C1268 H1256 0.959 . S
C1268 C1266 1.561 . S
C1269 C1266 1.526 . S
C1269 C1270 1.396 . S
C1269 C1274 1.390 . S
C1270 C1264 1.465 . S
C1270 C1269 1.396 . S
C1270 C1271 1.399 . S
C1271 H1257 0.929 . S
C1271 C1270 1.399 . S
C1271 C1272 1.385 . S
C1272 H1258 0.931 . S
C1272 C1271 1.385 . S
C1272 C1273 1.389 . S
C1273 C1272 1.389 . S
C1273 C1274 1.387 . S
C1274 H1259 0.930 . S
C1274 C1269 1.390 . S
C1274 C1273 1.387 . S
H1275 C1287 0.930 . S
H1276 C1289 0.930 . S
H1277 C1290 0.930 . S
H1278 C1294 0.959 . S
H1279 C1294 0.959 . S
H1280 C1294 0.961 . S
H1281 C1295 0.960 . S
H1282 C1295 0.961 . S
H1283 C1295 0.959 . S
H1284 C1298 0.929 . S
H1285 C1299 0.931 . S
H1286 C1301 0.930 . S
C1287 H1275 0.930 . S
C1287 C1288 1.399 . S
C1287 C1292 1.399 . S
C1288 C1287 1.399 . S
C1288 C1289 1.376 . S
C1289 H1276 0.930 . S
C1289 C1288 1.376 . S
C1289 C1290 1.388 . S
C1290 H1277 0.930 . S
C1290 C1289 1.388 . S
C1290 C1291 1.390 . S
C1291 C1290 1.390 . S
C1291 C1292 1.394 . S
C1291 C1297 1.465 . S
C1292 C1287 1.399 . S
C1292 C1291 1.394 . S
C1292 C1293 1.516 . S
C1293 C1292 1.516 . S
C1293 C1294 1.502 . S
C1293 C1295 1.561 1_556 S
C1293 C1296 1.526 . S
C1294 H1278 0.959 . S
C1294 H1279 0.959 . S
C1294 H1280 0.961 . S
C1294 C1293 1.502 . S
C1295 H1281 0.960 . S
C1295 H1282 0.961 . S
C1295 H1283 0.959 . S
C1295 C1293 1.561 1_554 S
C1296 C1293 1.526 . S
C1296 C1297 1.396 . S
C1296 C1301 1.390 . S
C1297 C1291 1.465 . S
C1297 C1296 1.396 . S
C1297 C1298 1.399 . S
C1298 H1284 0.929 . S
C1298 C1297 1.399 . S
C1298 C1299 1.385 . S
C1299 H1285 0.931 . S
C1299 C1298 1.385 . S
C1299 C1300 1.389 . S
C1300 C1299 1.389 . S
C1300 C1301 1.387 . S
C1301 H1286 0.930 . S
C1301 C1296 1.390 . S
C1301 C1300 1.387 . S
H1302 C1314 0.930 . S
H1303 C1316 0.930 . S
H1304 C1317 0.930 . S
H1305 C1321 0.959 . S
H1306 C1321 0.959 1_556 S
H1307 C1321 0.961 1_556 S
H1308 C1322 0.960 . S
H1309 C1322 0.961 1_556 S
H1310 C1322 0.959 . S
H1311 C1325 0.929 . S
H1312 C1326 0.931 . S
H1313 C1328 0.907 1_556 S
C1314 H1302 0.930 . S
C1314 C1315 1.399 . S
C1314 C1319 1.399 . S
C1315 C1314 1.399 . S
C1315 C1316 1.376 . S
C1316 H1303 0.930 . S
C1316 C1315 1.376 . S
C1316 C1317 1.388 . S
C1317 H1304 0.930 . S
C1317 C1316 1.388 . S
C1317 C1318 1.390 . S
C1318 C1317 1.390 . S
C1318 C1319 1.394 . S
C1318 C1324 1.465 . S
C1319 C1314 1.399 . S
C1319 C1318 1.394 . S
C1319 C1320 1.516 . S
C1320 C1319 1.516 . S
C1320 C1321 1.502 . S
C1320 C1322 1.561 . S
C1320 C1323 1.526 . S
C1321 H1305 0.959 . S
C1321 H1306 0.959 1_554 S
C1321 H1307 0.961 1_554 S
C1321 C1320 1.502 . S
C1322 H1308 0.960 . S
C1322 H1309 0.961 1_554 S
C1322 H1310 0.959 . S
C1322 C1320 1.561 . S
C1323 C1320 1.526 . S
C1323 C1324 1.396 . S
C1323 C1328 1.390 . S
C1324 C1318 1.465 . S
C1324 C1323 1.396 . S
C1324 C1325 1.399 . S
C1325 H1311 0.929 . S
C1325 C1324 1.399 . S
C1325 C1326 1.385 . S
C1326 H1312 0.931 . S
C1326 C1325 1.385 . S
C1326 C1327 1.389 . S
C1327 C1326 1.389 . S
C1327 C1328 1.387 . S
C1328 H1313 0.907 1_554 S
C1328 C1323 1.390 . S
C1328 C1327 1.387 . S
H1329 C1341 0.930 . S
H1330 C1343 0.930 . S
H1331 C1344 0.930 . S
H1332 C1348 0.959 . S
H1333 C1348 0.959 . S
H1334 C1348 0.961 . S
H1335 C1349 0.960 . S
H1336 C1349 0.961 . S
H1337 C1349 0.959 . S
H1338 C1352 0.929 . S
H1339 C1353 0.931 . S
H1340 C1355 0.930 . S
C1341 H1329 0.930 . S
C1341 C1342 1.399 . S
C1341 C1346 1.399 . S
C1342 C1341 1.399 . S
C1342 C1343 1.376 . S
C1343 H1330 0.930 . S
C1343 C1342 1.376 . S
C1343 C1344 1.388 . S
C1344 H1331 0.930 . S
C1344 C1343 1.388 . S
C1344 C1345 1.390 . S
C1345 C1344 1.390 . S
C1345 C1346 1.394 . S
C1345 C1351 1.465 . S
C1346 C1341 1.399 . S
C1346 C1345 1.394 . S
C1346 C1347 1.516 . S
C1347 C1346 1.516 . S
C1347 C1348 1.502 . S
C1347 C1349 1.561 . S
C1347 C1350 1.526 . S
C1348 H1332 0.959 . S
C1348 H1333 0.959 . S
C1348 H1334 0.961 . S
C1348 C1347 1.502 . S
C1349 H1335 0.960 . S
C1349 H1336 0.961 . S
C1349 H1337 0.959 . S
C1349 C1347 1.561 . S
C1350 C1347 1.526 . S
C1350 C1351 1.396 . S
C1350 C1355 1.390 . S
C1351 C1345 1.465 . S
C1351 C1350 1.396 . S
C1351 C1352 1.399 . S
C1352 H1338 0.929 . S
C1352 C1351 1.399 . S
C1352 C1353 1.385 . S
C1353 H1339 0.931 . S
C1353 C1352 1.385 . S
C1353 C1354 1.389 . S
C1354 C1353 1.389 . S
C1354 C1355 1.387 . S
C1355 H1340 0.930 . S
C1355 C1350 1.390 . S
C1355 C1354 1.387 . S
H1356 C1368 0.930 . S
H1357 C1370 0.930 . S
H1358 C1371 0.930 . S
H1359 C1375 0.959 . S
H1360 C1375 0.959 . S
H1361 C1375 0.961 . S
H1362 C1376 0.960 1_554 S
H1363 C1376 0.955 1_554 S
H1364 C1376 0.958 1_554 S
H1365 C1379 0.929 . S
H1366 C1380 0.931 . S
H1367 C1382 0.930 . S
C1368 H1356 0.930 . S
C1368 C1369 1.399 . S
C1368 C1373 1.399 . S
C1369 C1368 1.399 . S
C1369 C1370 1.376 . S
C1370 H1357 0.930 . S
C1370 C1369 1.376 . S
C1370 C1371 1.388 . S
C1371 H1358 0.930 . S
C1371 C1370 1.388 . S
C1371 C1372 1.390 . S
C1372 C1371 1.390 . S
C1372 C1373 1.394 . S
C1372 C1378 1.465 . S
C1373 C1368 1.399 . S
C1373 C1372 1.394 . S
C1373 C1374 1.516 . S
C1374 C1373 1.516 . S
C1374 C1375 1.502 . S
C1374 C1376 1.568 . S
C1374 C1377 1.526 . S
C1375 H1359 0.959 . S
C1375 H1360 0.959 . S
C1375 H1361 0.961 . S
C1375 C1374 1.502 . S
C1376 H1362 0.960 1_556 S
C1376 H1363 0.955 1_556 S
C1376 H1364 0.958 1_556 S
C1376 C1374 1.568 . S
C1377 C1374 1.526 . S
C1377 C1378 1.396 . S
C1377 C1382 1.390 . S
C1378 C1372 1.465 . S
C1378 C1377 1.396 . S
C1378 C1379 1.399 . S
C1379 H1365 0.929 . S
C1379 C1378 1.399 . S
C1379 C1380 1.385 . S
C1380 H1366 0.931 . S
C1380 C1379 1.385 . S
C1380 C1381 1.389 . S
C1381 C1380 1.389 . S
C1381 C1382 1.387 . S
C1382 H1367 0.930 . S
C1382 C1377 1.390 . S
C1382 C1381 1.387 . S
H1383 C1395 0.930 . S
H1384 C1397 0.930 . S
H1385 C1398 0.930 . S
H1386 C1402 0.959 . S
H1387 C1402 0.959 . S
H1388 C1402 0.961 . S
H1389 C1403 0.960 . S
H1390 C1403 0.961 . S
H1391 C1403 0.959 . S
H1392 C1406 0.929 . S
H1393 C1407 0.931 . S
H1394 C1409 0.930 . S
C1395 H1383 0.930 . S
C1395 C1396 1.399 . S
C1395 C1400 1.399 . S
C1396 C1395 1.399 . S
C1396 C1397 1.376 . S
C1397 H1384 0.930 . S
C1397 C1396 1.376 . S
C1397 C1398 1.388 . S
C1398 H1385 0.930 . S
C1398 C1397 1.388 . S
C1398 C1399 1.390 . S
C1399 C1398 1.390 . S
C1399 C1400 1.394 . S
C1399 C1405 1.465 . S
C1400 C1395 1.399 . S
C1400 C1399 1.394 . S
C1400 C1401 1.516 . S
C1401 C1400 1.516 . S
C1401 C1402 1.502 . S
C1401 C1403 1.561 . S
C1401 C1404 1.526 . S
C1402 H1386 0.959 . S
C1402 H1387 0.959 . S
C1402 H1388 0.961 . S
C1402 C1401 1.502 . S
C1403 H1389 0.960 . S
C1403 H1390 0.961 . S
C1403 H1391 0.959 . S
C1403 C1401 1.561 . S
C1404 C1401 1.526 . S
C1404 C1405 1.396 . S
C1404 C1409 1.390 . S
C1405 C1399 1.465 . S
C1405 C1404 1.396 . S
C1405 C1406 1.399 . S
C1406 H1392 0.929 . S
C1406 C1405 1.399 . S
C1406 C1407 1.385 . S
C1407 H1393 0.931 . S
C1407 C1406 1.385 . S
C1407 C1408 1.389 . S
C1408 C1407 1.389 . S
C1408 C1409 1.387 . S
C1409 H1394 0.930 . S
C1409 C1404 1.390 . S
C1409 C1408 1.387 . S
H1410 C1422 0.930 . S
H1411 C1424 0.930 . S
H1412 C1425 0.930 . S
H1413 C1429 0.959 . S
H1414 C1429 0.959 . S
H1415 C1429 0.961 . S
H1416 C1430 0.960 . S
H1417 C1430 0.961 . S
H1418 C1430 0.959 . S
H1419 C1433 0.929 . S
H1420 C1434 0.931 . S
H1421 C1436 0.930 . S
C1422 H1410 0.930 . S
C1422 C1423 1.399 . S
C1422 C1427 1.399 . S
C1423 C1422 1.399 . S
C1423 C1424 1.376 . S
C1424 H1411 0.930 . S
C1424 C1423 1.376 . S
C1424 C1425 1.388 . S
C1425 H1412 0.930 . S
C1425 C1424 1.388 . S
C1425 C1426 1.390 . S
C1426 C1425 1.390 . S
C1426 C1427 1.394 . S
C1426 C1432 1.465 . S
C1427 C1422 1.399 . S
C1427 C1426 1.394 . S
C1427 C1428 1.516 . S
C1428 C1427 1.516 . S
C1428 C1429 1.502 . S
C1428 C1430 1.561 . S
C1428 C1431 1.526 . S
C1429 H1413 0.959 . S
C1429 H1414 0.959 . S
C1429 H1415 0.961 . S
C1429 C1428 1.502 . S
C1430 H1416 0.960 . S
C1430 H1417 0.961 . S
C1430 H1418 0.959 . S
C1430 C1428 1.561 . S
C1431 C1428 1.526 . S
C1431 C1432 1.396 . S
C1431 C1436 1.390 . S
C1432 C1426 1.465 . S
C1432 C1431 1.396 . S
C1432 C1433 1.399 . S
C1433 H1419 0.929 . S
C1433 C1432 1.399 . S
C1433 C1434 1.385 . S
C1434 H1420 0.931 . S
C1434 C1433 1.385 . S
C1434 C1435 1.389 . S
C1435 C1434 1.389 . S
C1435 C1436 1.387 . S
C1436 H1421 0.930 . S
C1436 C1431 1.390 . S
C1436 C1435 1.387 . S
H1437 C1449 0.930 . S
H1438 C1451 0.930 . S
H1439 C1452 0.930 . S
H1440 C1456 0.959 . S
H1441 C1456 0.959 . S
H1442 C1456 0.961 . S
H1443 C1457 0.960 . S
H1444 C1457 0.961 . S
H1445 C1457 0.959 . S
H1446 C1460 0.929 . S
H1447 C1461 0.931 . S
H1448 C1463 0.930 . S
C1449 H1437 0.930 . S
C1449 C1450 1.399 . S
C1449 C1454 1.399 . S
C1450 C1449 1.399 . S
C1450 C1451 1.376 . S
C1451 H1438 0.930 . S
C1451 C1450 1.376 . S
C1451 C1452 1.388 . S
C1452 H1439 0.930 . S
C1452 C1451 1.388 . S
C1452 C1453 1.390 . S
C1453 C1452 1.390 . S
C1453 C1454 1.394 . S
C1453 C1459 1.465 . S
C1454 C1449 1.399 . S
C1454 C1453 1.394 . S
C1454 C1455 1.516 . S
C1455 C1454 1.516 . S
C1455 C1456 1.502 . S
C1455 C1457 1.561 . S
C1455 C1458 1.526 . S
C1456 H1440 0.959 . S
C1456 H1441 0.959 . S
C1456 H1442 0.961 . S
C1456 C1455 1.502 . S
C1457 H1443 0.960 . S
C1457 H1444 0.961 . S
C1457 H1445 0.959 . S
C1457 C1455 1.561 . S
C1458 C1455 1.526 . S
C1458 C1459 1.396 . S
C1458 C1463 1.390 . S
C1459 C1453 1.465 . S
C1459 C1458 1.396 . S
C1459 C1460 1.399 . S
C1460 H1446 0.929 . S
C1460 C1459 1.399 . S
C1460 C1461 1.385 . S
C1461 H1447 0.931 . S
C1461 C1460 1.385 . S
C1461 C1462 1.389 . S
C1462 C1461 1.389 . S
C1462 C1463 1.387 . S
C1463 H1448 0.930 . S
C1463 C1458 1.390 . S
C1463 C1462 1.387 . S
H1464 C1476 0.930 . S
H1465 C1478 0.930 . S
H1466 C1479 0.930 . S
H1467 C1483 0.959 . S
H1468 C1483 0.959 . S
H1469 C1483 0.961 . S
H1470 C1484 0.960 . S
H1471 C1484 0.961 . S
H1472 C1484 0.959 . S
H1473 C1487 0.929 . S
H1474 C1488 0.935 . S
H1475 C1490 0.930 . S
C1476 H1464 0.930 . S
C1476 C1477 1.399 . S
C1476 C1481 1.399 . S
C1477 C1476 1.399 . S
C1477 C1478 1.376 . S
C1478 H1465 0.930 . S
C1478 C1477 1.376 . S
C1478 C1479 1.388 . S
C1479 H1466 0.930 . S
C1479 C1478 1.388 . S
C1479 C1480 1.390 . S
C1480 C1479 1.390 . S
C1480 C1481 1.394 . S
C1480 C1486 1.465 . S
C1481 C1476 1.399 . S
C1481 C1480 1.394 . S
C1481 C1482 1.516 . S
C1482 C1481 1.516 . S
C1482 C1483 1.502 . S
C1482 C1484 1.561 . S
C1482 C1485 1.526 . S
C1483 H1467 0.959 . S
C1483 H1468 0.959 . S
C1483 H1469 0.961 . S
C1483 C1482 1.502 . S
C1484 H1470 0.960 . S
C1484 H1471 0.961 . S
C1484 H1472 0.959 . S
C1484 C1482 1.561 . S
C1485 C1482 1.526 . S
C1485 C1486 1.396 . S
C1485 C1490 1.390 . S
C1486 C1480 1.465 . S
C1486 C1485 1.396 . S
C1486 C1487 1.399 . S
C1487 H1473 0.929 . S
C1487 C1486 1.399 . S
C1487 C1488 1.385 . S
C1488 H1474 0.935 . S
C1488 C1487 1.385 . S
C1488 C1489 1.389 . S
C1489 C1488 1.389 . S
C1489 C1490 1.387 . S
C1490 H1475 0.930 . S
C1490 C1485 1.390 . S
C1490 C1489 1.387 . S
H1491 C1503 0.930 . S
H1492 C1505 0.930 . S
H1493 C1506 0.930 . S
H1494 C1510 0.959 . S
H1495 C1510 0.959 . S
H1496 C1510 0.961 . S
H1497 C1511 0.960 . S
H1498 C1511 0.961 . S
H1499 C1511 0.959 . S
H1500 C1514 0.929 . S
H1501 C1515 0.931 . S
H1502 C1517 0.930 . S
C1503 H1491 0.930 . S
C1503 C1504 1.399 . S
C1503 C1508 1.399 . S
C1504 C1503 1.399 . S
C1504 C1505 1.376 . S
C1505 H1492 0.930 . S
C1505 C1504 1.376 . S
C1505 C1506 1.388 . S
C1506 H1493 0.930 . S
C1506 C1505 1.388 . S
C1506 C1507 1.390 . S
C1507 C1506 1.390 . S
C1507 C1508 1.394 . S
C1507 C1513 1.465 . S
C1508 C1503 1.399 . S
C1508 C1507 1.394 . S
C1508 C1509 1.516 . S
C1509 C1508 1.516 . S
C1509 C1510 1.502 . S
C1509 C1511 1.561 . S
C1509 C1512 1.526 . S
C1510 H1494 0.959 . S
C1510 H1495 0.959 . S
C1510 H1496 0.961 . S
C1510 C1509 1.502 . S
C1511 H1497 0.960 . S
C1511 H1498 0.961 . S
C1511 H1499 0.959 . S
C1511 C1509 1.561 . S
C1512 C1509 1.526 . S
C1512 C1513 1.396 . S
C1512 C1517 1.390 . S
C1513 C1507 1.465 . S
C1513 C1512 1.396 . S
C1513 C1514 1.399 . S
C1514 H1500 0.929 . S
C1514 C1513 1.399 . S
C1514 C1515 1.385 . S
C1515 H1501 0.931 . S
C1515 C1514 1.385 . S
C1515 C1516 1.389 . S
C1516 C1515 1.389 . S
C1516 C1517 1.387 . S
C1517 H1502 0.930 . S
C1517 C1512 1.390 . S
C1517 C1516 1.387 . S
H1518 C1530 0.930 . S
H1519 C1532 0.930 . S
H1520 C1533 0.930 . S
H1521 C1537 0.959 . S
H1522 C1537 0.959 . S
H1523 C1537 0.961 . S
H1524 C1538 0.960 . S
H1525 C1538 0.961 . S
H1526 C1538 0.959 . S
H1527 C1541 0.929 . S
H1528 C1542 0.931 . S
H1529 C1544 0.930 . S
C1530 H1518 0.930 . S
C1530 C1531 1.399 . S
C1530 C1535 1.399 . S
C1531 C1530 1.399 . S
C1531 C1532 1.376 . S
C1532 H1519 0.930 . S
C1532 C1531 1.376 . S
C1532 C1533 1.388 . S
C1533 H1520 0.930 . S
C1533 C1532 1.388 . S
C1533 C1534 1.390 . S
C1534 C1533 1.390 . S
C1534 C1535 1.394 . S
C1534 C1540 1.465 . S
C1535 C1530 1.399 . S
C1535 C1534 1.394 . S
C1535 C1536 1.516 . S
C1536 C1535 1.516 . S
C1536 C1537 1.502 . S
C1536 C1538 1.561 . S
C1536 C1539 1.526 . S
C1537 H1521 0.959 . S
C1537 H1522 0.959 . S
C1537 H1523 0.961 . S
C1537 C1536 1.502 . S
C1538 H1524 0.960 . S
C1538 H1525 0.961 . S
C1538 H1526 0.959 . S
C1538 C1536 1.561 . S
C1539 C1536 1.526 . S
C1539 C1540 1.396 . S
C1539 C1544 1.390 . S
C1540 C1534 1.465 . S
C1540 C1539 1.396 . S
C1540 C1541 1.399 . S
C1541 H1527 0.929 . S
C1541 C1540 1.399 . S
C1541 C1542 1.385 . S
C1542 H1528 0.931 . S
C1542 C1541 1.385 . S
C1542 C1543 1.389 . S
C1543 C1542 1.389 . S
C1543 C1544 1.387 . S
C1544 H1529 0.930 . S
C1544 C1539 1.390 . S
C1544 C1543 1.387 . S
H1545 C1557 0.930 . S
H1546 C1559 0.930 . S
H1547 C1560 0.930 . S
H1548 C1564 0.959 . S
H1549 C1564 0.959 . S
H1550 C1564 0.961 . S
H1551 C1565 0.960 . S
H1552 C1565 0.961 . S
H1553 C1565 0.959 . S
H1554 C1568 0.929 . S
H1555 C1569 0.931 1_554 S
H1556 C1571 0.930 . S
C1557 H1545 0.930 . S
C1557 C1558 1.399 . S
C1557 C1562 1.399 . S
C1558 C1557 1.399 . S
C1558 C1559 1.376 . S
C1559 H1546 0.930 . S
C1559 C1558 1.376 . S
C1559 C1560 1.388 . S
C1560 H1547 0.930 . S
C1560 C1559 1.388 . S
C1560 C1561 1.390 . S
C1561 C1560 1.390 . S
C1561 C1562 1.394 . S
C1561 C1567 1.465 . S
C1562 C1557 1.399 . S
C1562 C1561 1.394 . S
C1562 C1563 1.516 . S
C1563 C1562 1.516 . S
C1563 C1564 1.502 . S
C1563 C1565 1.561 . S
C1563 C1566 1.526 . S
C1564 H1548 0.959 . S
C1564 H1549 0.959 . S
C1564 H1550 0.961 . S
C1564 C1563 1.502 . S
C1565 H1551 0.960 . S
C1565 H1552 0.961 . S
C1565 H1553 0.959 . S
C1565 C1563 1.561 . S
C1566 C1563 1.526 . S
C1566 C1567 1.396 . S
C1566 C1571 1.390 . S
C1567 C1561 1.465 . S
C1567 C1566 1.396 . S
C1567 C1568 1.399 . S
C1568 H1554 0.929 . S
C1568 C1567 1.399 . S
C1568 C1569 1.385 . S
C1569 H1555 0.931 1_556 S
C1569 C1568 1.385 . S
C1569 C1570 1.389 . S
C1570 C1569 1.389 . S
C1570 C1571 1.387 . S
C1571 H1556 0.930 . S
C1571 C1566 1.390 . S
C1571 C1570 1.387 . S
H1572 C1584 0.930 . S
H1573 C1586 0.930 . S
H1574 C1587 0.930 . S
H1575 C1591 0.959 . S
H1576 C1591 0.959 . S
H1577 C1591 0.961 . S
H1578 C1592 0.960 . S
H1579 C1592 0.961 . S
H1580 C1592 0.959 . S
H1581 C1595 0.929 . S
H1582 C1596 0.931 . S
H1583 C1598 0.930 . S
C1584 H1572 0.930 . S
C1584 C1585 1.399 . S
C1584 C1589 1.399 . S
C1585 C1584 1.399 . S
C1585 C1586 1.376 . S
C1586 H1573 0.930 . S
C1586 C1585 1.376 . S
C1586 C1587 1.388 . S
C1587 H1574 0.930 . S
C1587 C1586 1.388 . S
C1587 C1588 1.390 . S
C1588 C1587 1.390 . S
C1588 C1589 1.394 . S
C1588 C1594 1.465 . S
C1589 C1584 1.399 . S
C1589 C1588 1.394 . S
C1589 C1590 1.516 . S
C1590 C1589 1.516 . S
C1590 C1591 1.502 . S
C1590 C1592 1.561 . S
C1590 C1593 1.526 . S
C1591 H1575 0.959 . S
C1591 H1576 0.959 . S
C1591 H1577 0.961 . S
C1591 C1590 1.502 . S
C1592 H1578 0.960 . S
C1592 H1579 0.961 . S
C1592 H1580 0.959 . S
C1592 C1590 1.561 . S
C1593 C1590 1.526 . S
C1593 C1594 1.396 . S
C1593 C1598 1.390 . S
C1594 C1588 1.465 . S
C1594 C1593 1.396 . S
C1594 C1595 1.399 . S
C1595 H1581 0.929 . S
C1595 C1594 1.399 . S
C1595 C1596 1.385 . S
C1596 H1582 0.931 . S
C1596 C1595 1.385 . S
C1596 C1597 1.389 . S
C1597 C1596 1.389 . S
C1597 C1598 1.387 . S
C1598 H1583 0.930 . S
C1598 C1593 1.390 . S
C1598 C1597 1.387 . S
H1599 C1611 0.930 . S
H1600 C1613 0.930 . S
H1601 C1614 0.930 . S
H1602 C1618 0.959 . S
H1603 C1618 0.959 1_554 S
H1604 C1618 0.962 1_554 S
H1605 C1619 0.960 1_554 S
H1606 C1619 0.961 1_554 S
H1607 C1619 0.959 . S
H1608 C1622 0.929 . S
H1609 C1623 0.931 . S
H1610 C1625 0.930 . S
C1611 H1599 0.930 . S
C1611 C1612 1.399 . S
C1611 C1616 1.399 . S
C1612 C1611 1.399 . S
C1612 C1613 1.376 . S
C1613 H1600 0.930 . S
C1613 C1612 1.376 . S
C1613 C1614 1.388 . S
C1614 H1601 0.930 . S
C1614 C1613 1.388 . S
C1614 C1615 1.390 . S
C1615 C1614 1.390 . S
C1615 C1616 1.394 . S
C1615 C1621 1.465 . S
C1616 C1611 1.399 . S
C1616 C1615 1.394 . S
C1616 C1617 1.516 . S
C1617 C1616 1.516 . S
C1617 C1618 1.502 . S
C1617 C1619 1.561 . S
C1617 C1620 1.526 . S
C1618 H1602 0.959 . S
C1618 H1603 0.959 1_556 S
C1618 H1604 0.962 1_556 S
C1618 C1617 1.502 . S
C1619 H1605 0.960 1_556 S
C1619 H1606 0.961 1_556 S
C1619 H1607 0.959 . S
C1619 C1617 1.561 . S
C1620 C1617 1.526 . S
C1620 C1621 1.396 . S
C1620 C1625 1.390 . S
C1621 C1615 1.465 . S
C1621 C1620 1.396 . S
C1621 C1622 1.399 . S
C1622 H1608 0.929 . S
C1622 C1621 1.399 . S
C1622 C1623 1.385 . S
C1623 H1609 0.931 . S
C1623 C1622 1.385 . S
C1623 C1624 1.389 . S
C1624 C1623 1.389 . S
C1624 C1625 1.387 . S
C1625 H1610 0.930 . S
C1625 C1620 1.390 . S
C1625 C1624 1.387 . S
H1626 C1638 0.930 . S
H1627 C1640 0.930 . S
H1628 C1641 0.930 . S
H1629 C1645 0.959 . S
H1630 C1645 0.959 . S
H1631 C1645 0.961 . S
H1632 C1646 0.960 . S
H1633 C1646 0.961 . S
H1634 C1646 0.959 . S
H1635 C1649 0.929 . S
H1636 C1650 0.931 1_556 S
H1637 C1652 0.930 . S
C1638 H1626 0.930 . S
C1638 C1639 1.399 . S
C1638 C1643 1.399 . S
C1639 C1638 1.399 . S
C1639 C1640 1.376 . S
C1640 H1627 0.930 . S
C1640 C1639 1.376 . S
C1640 C1641 1.388 . S
C1641 H1628 0.930 . S
C1641 C1640 1.388 . S
C1641 C1642 1.390 . S
C1642 C1641 1.390 . S
C1642 C1643 1.394 . S
C1642 C1648 1.465 . S
C1643 C1638 1.399 . S
C1643 C1642 1.394 . S
C1643 C1644 1.516 . S
C1644 C1643 1.516 . S
C1644 C1645 1.502 . S
C1644 C1646 1.561 . S
C1644 C1647 1.526 . S
C1645 H1629 0.959 . S
C1645 H1630 0.959 . S
C1645 H1631 0.961 . S
C1645 C1644 1.502 . S
C1646 H1632 0.960 . S
C1646 H1633 0.961 . S
C1646 H1634 0.959 . S
C1646 C1644 1.561 . S
C1647 C1644 1.526 . S
C1647 C1648 1.396 . S
C1647 C1652 1.390 . S
C1648 C1642 1.465 . S
C1648 C1647 1.396 . S
C1648 C1649 1.399 . S
C1649 H1635 0.929 . S
C1649 C1648 1.399 . S
C1649 C1650 1.385 . S
C1650 H1636 0.931 1_554 S
C1650 C1649 1.385 . S
C1650 C1651 1.389 . S
C1651 C1650 1.389 . S
C1651 C1652 1.387 . S
C1652 H1637 0.930 . S
C1652 C1647 1.390 . S
C1652 C1651 1.387 . S
H1653 C1665 0.930 . S
H1654 C1667 0.930 . S
H1655 C1668 0.930 . S
H1656 C1672 0.959 . S
H1657 C1672 0.959 . S
H1658 C1672 0.961 . S
H1659 C1673 0.960 . S
H1660 C1673 0.961 . S
H1661 C1673 0.959 . S
H1662 C1676 0.929 . S
H1663 C1677 0.931 . S
H1664 C1679 0.930 . S
C1665 H1653 0.930 . S
C1665 C1666 1.399 . S
C1665 C1670 1.399 . S
C1666 C1665 1.399 . S
C1666 C1667 1.376 . S
C1667 H1654 0.930 . S
C1667 C1666 1.376 . S
C1667 C1668 1.388 . S
C1668 H1655 0.930 . S
C1668 C1667 1.388 . S
C1668 C1669 1.390 . S
C1669 C1668 1.390 . S
C1669 C1670 1.394 . S
C1669 C1675 1.465 . S
C1670 C1665 1.399 . S
C1670 C1669 1.394 . S
C1670 C1671 1.516 . S
C1671 C1670 1.516 . S
C1671 C1672 1.502 . S
C1671 C1673 1.561 . S
C1671 C1674 1.526 . S
C1672 H1656 0.959 . S
C1672 H1657 0.959 . S
C1672 H1658 0.961 . S
C1672 C1671 1.502 . S
C1673 H1659 0.960 . S
C1673 H1660 0.961 . S
C1673 H1661 0.959 . S
C1673 C1671 1.561 . S
C1674 C1671 1.526 . S
C1674 C1675 1.396 . S
C1674 C1679 1.390 . S
C1675 C1669 1.465 . S
C1675 C1674 1.396 . S
C1675 C1676 1.399 . S
C1676 H1662 0.929 . S
C1676 C1675 1.399 . S
C1676 C1677 1.385 . S
C1677 H1663 0.931 . S
C1677 C1676 1.385 . S
C1677 C1678 1.389 . S
C1678 C1677 1.389 . S
C1678 C1679 1.387 . S
C1679 H1664 0.930 . S
C1679 C1674 1.390 . S
C1679 C1678 1.387 . S
H1680 C1692 0.930 . S
H1681 C1694 0.930 . S
H1682 C1695 0.930 . S
H1683 C1699 0.959 . S
H1684 C1699 0.959 1_556 S
H1685 C1699 0.961 . S
H1686 C1700 0.960 1_556 S
H1687 C1700 0.961 1_556 S
H1688 C1700 0.959 . S
H1689 C1703 0.929 . S
H1690 C1704 0.931 . S
H1691 C1706 0.930 . S
C1692 H1680 0.930 . S
C1692 C1693 1.399 . S
C1692 C1697 1.399 . S
C1693 C1692 1.399 . S
C1693 C1694 1.376 . S
C1694 H1681 0.930 . S
C1694 C1693 1.376 . S
C1694 C1695 1.388 . S
C1695 H1682 0.930 . S
C1695 C1694 1.388 . S
C1695 C1696 1.390 . S
C1696 C1695 1.390 . S
C1696 C1697 1.394 . S
C1696 C1702 1.465 . S
C1697 C1692 1.399 . S
C1697 C1696 1.394 . S
C1697 C1698 1.516 . S
C1698 C1697 1.516 . S
C1698 C1699 1.502 . S
C1698 C1700 1.561 . S
C1698 C1701 1.526 . S
C1699 H1683 0.959 . S
C1699 H1684 0.959 1_554 S
C1699 H1685 0.961 . S
C1699 C1698 1.502 . S
C1700 H1686 0.960 1_554 S
C1700 H1687 0.961 1_554 S
C1700 H1688 0.959 . S
C1700 C1698 1.561 . S
C1701 C1698 1.526 . S
C1701 C1702 1.396 . S
C1701 C1706 1.390 . S
C1702 C1696 1.465 . S
C1702 C1701 1.396 . S
C1702 C1703 1.399 . S
C1703 H1689 0.929 . S
C1703 C1702 1.399 . S
C1703 C1704 1.385 . S
C1704 H1690 0.931 . S
C1704 C1703 1.385 . S
C1704 C1705 1.389 . S
C1705 C1704 1.389 . S
C1705 C1706 1.387 . S
C1706 H1691 0.930 . S
C1706 C1701 1.390 . S
C1706 C1705 1.387 . S
H1707 C1719 0.930 . S
H1708 C1721 0.930 . S
H1709 C1722 0.930 . S
H1710 C1726 0.959 . S
H1711 C1726 0.959 . S
H1712 C1726 0.961 . S
H1713 C1727 0.960 . S
H1714 C1727 0.961 . S
H1715 C1727 0.959 . S
H1716 C1730 0.929 . S
H1717 C1731 0.931 . S
H1718 C1733 0.930 . S
C1719 H1707 0.930 . S
C1719 C1720 1.399 . S
C1719 C1724 1.399 . S
C1720 C1719 1.399 . S
C1720 C1721 1.376 . S
C1721 H1708 0.930 . S
C1721 C1720 1.376 . S
C1721 C1722 1.388 . S
C1722 H1709 0.930 . S
C1722 C1721 1.388 . S
C1722 C1723 1.390 . S
C1723 C1722 1.390 . S
C1723 C1724 1.394 . S
C1723 C1729 1.465 . S
C1724 C1719 1.399 . S
C1724 C1723 1.394 . S
C1724 C1725 1.516 . S
C1725 C1724 1.516 . S
C1725 C1726 1.502 . S
C1725 C1727 1.561 . S
C1725 C1728 1.526 . S
C1726 H1710 0.959 . S
C1726 H1711 0.959 . S
C1726 H1712 0.961 . S
C1726 C1725 1.502 . S
C1727 H1713 0.960 . S
C1727 H1714 0.961 . S
C1727 H1715 0.959 . S
C1727 C1725 1.561 . S
C1728 C1725 1.526 . S
C1728 C1729 1.396 . S
C1728 C1733 1.390 . S
C1729 C1723 1.465 . S
C1729 C1728 1.396 . S
C1729 C1730 1.399 . S
C1730 H1716 0.929 . S
C1730 C1729 1.399 . S
C1730 C1731 1.385 . S
C1731 H1717 0.931 . S
C1731 C1730 1.385 . S
C1731 C1732 1.389 . S
C1732 C1731 1.389 . S
C1732 C1733 1.387 . S
C1733 H1718 0.930 . S
C1733 C1728 1.390 . S
C1733 C1732 1.387 . S
H1734 C1746 0.930 . S
H1735 C1748 0.930 . S
H1736 C1749 0.930 . S
H1737 C1753 0.959 . S
H1738 C1753 0.959 . S
H1739 C1753 0.961 . S
H1740 C1754 0.960 . S
H1741 C1754 0.961 . S
H1742 C1754 0.959 . S
H1743 C1757 0.929 . S
H1744 C1758 0.931 . S
H1745 C1760 0.930 . S
C1746 H1734 0.930 . S
C1746 C1747 1.399 . S
C1746 C1751 1.399 . S
C1747 C1746 1.399 . S
C1747 C1748 1.376 . S
C1748 H1735 0.930 . S
C1748 C1747 1.376 . S
C1748 C1749 1.388 . S
C1749 H1736 0.930 . S
C1749 C1748 1.388 . S
C1749 C1750 1.390 . S
C1750 C1749 1.390 . S
C1750 C1751 1.394 . S
C1750 C1756 1.465 . S
C1751 C1746 1.399 . S
C1751 C1750 1.394 . S
C1751 C1752 1.516 . S
C1752 C1751 1.516 . S
C1752 C1753 1.502 . S
C1752 C1754 1.561 . S
C1752 C1755 1.526 . S
C1753 H1737 0.959 . S
C1753 H1738 0.959 . S
C1753 H1739 0.961 . S
C1753 C1752 1.502 . S
C1754 H1740 0.960 . S
C1754 H1741 0.961 . S
C1754 H1742 0.959 . S
C1754 C1752 1.561 . S
C1755 C1752 1.526 . S
C1755 C1756 1.396 . S
C1755 C1760 1.390 . S
C1756 C1750 1.465 . S
C1756 C1755 1.396 . S
C1756 C1757 1.399 . S
C1757 H1743 0.929 . S
C1757 C1756 1.399 . S
C1757 C1758 1.385 . S
C1758 H1744 0.931 . S
C1758 C1757 1.385 . S
C1758 C1759 1.389 . S
C1759 C1758 1.389 . S
C1759 C1760 1.387 . S
C1760 H1745 0.930 . S
C1760 C1755 1.390 . S
C1760 C1759 1.387 . S
H1761 C1773 0.930 . S
H1762 C1775 0.930 . S
H1763 C1776 0.930 . S
H1764 C1780 0.959 . S
H1765 C1780 0.959 . S
H1766 C1780 0.961 . S
H1767 C1781 0.960 . S
H1768 C1781 0.961 . S
H1769 C1781 0.959 . S
H1770 C1784 0.929 . S
H1771 C1785 0.931 . S
H1772 C1787 0.930 . S
C1773 H1761 0.930 . S
C1773 C1774 1.399 . S
C1773 C1778 1.399 . S
C1774 C1773 1.399 . S
C1774 C1775 1.376 . S
C1775 H1762 0.930 . S
C1775 C1774 1.376 . S
C1775 C1776 1.388 . S
C1776 H1763 0.930 . S
C1776 C1775 1.388 . S
C1776 C1777 1.390 . S
C1777 C1776 1.390 . S
C1777 C1778 1.394 . S
C1777 C1783 1.465 . S
C1778 C1773 1.399 . S
C1778 C1777 1.394 . S
C1778 C1779 1.516 . S
C1779 C1778 1.516 . S
C1779 C1780 1.502 . S
C1779 C1781 1.561 . S
C1779 C1782 1.526 . S
C1780 H1764 0.959 . S
C1780 H1765 0.959 . S
C1780 H1766 0.961 . S
C1780 C1779 1.502 . S
C1781 H1767 0.960 . S
C1781 H1768 0.961 . S
C1781 H1769 0.959 . S
C1781 C1779 1.561 . S
C1782 C1779 1.526 . S
C1782 C1783 1.396 . S
C1782 C1787 1.390 . S
C1783 C1777 1.465 . S
C1783 C1782 1.396 . S
C1783 C1784 1.399 . S
C1784 H1770 0.929 . S
C1784 C1783 1.399 . S
C1784 C1785 1.385 . S
C1785 H1771 0.931 . S
C1785 C1784 1.385 . S
C1785 C1786 1.389 . S
C1786 C1785 1.389 . S
C1786 C1787 1.387 . S
C1787 H1772 0.930 . S
C1787 C1782 1.390 . S
C1787 C1786 1.387 . S
H1788 C1800 0.930 . S
H1789 C1802 0.930 . S
H1790 C1803 0.930 . S
H1791 C1807 0.959 . S
H1792 C1807 0.959 . S
H1793 C1807 0.961 . S
H1794 C1808 0.960 . S
H1795 C1808 0.961 . S
H1796 C1808 0.959 . S
H1797 C1811 0.929 . S
H1798 C1812 0.931 . S
H1799 C1814 0.930 . S
C1800 H1788 0.930 . S
C1800 C1801 1.399 . S
C1800 C1805 1.399 . S
C1801 C1800 1.399 . S
C1801 C1802 1.376 . S
C1802 H1789 0.930 . S
C1802 C1801 1.376 . S
C1802 C1803 1.388 . S
C1803 H1790 0.930 . S
C1803 C1802 1.388 . S
C1803 C1804 1.390 . S
C1804 C1803 1.390 . S
C1804 C1805 1.394 . S
C1804 C1810 1.465 . S
C1805 C1800 1.399 . S
C1805 C1804 1.394 . S
C1805 C1806 1.516 . S
C1806 C1805 1.516 . S
C1806 C1807 1.502 . S
C1806 C1808 1.561 . S
C1806 C1809 1.526 . S
C1807 H1791 0.959 . S
C1807 H1792 0.959 . S
C1807 H1793 0.961 . S
C1807 C1806 1.502 . S
C1808 H1794 0.960 . S
C1808 H1795 0.961 . S
C1808 H1796 0.959 . S
C1808 C1806 1.561 . S
C1809 C1806 1.526 . S
C1809 C1810 1.396 . S
C1809 C1814 1.390 . S
C1810 C1804 1.465 . S
C1810 C1809 1.396 . S
C1810 C1811 1.399 . S
C1811 H1797 0.929 . S
C1811 C1810 1.399 . S
C1811 C1812 1.385 . S
C1812 H1798 0.931 . S
C1812 C1811 1.385 . S
C1812 C1813 1.389 . S
C1813 C1812 1.389 . S
C1813 C1814 1.387 . S
C1814 H1799 0.930 . S
C1814 C1809 1.390 . S
C1814 C1813 1.387 . S
H1815 C1827 0.930 . S
H1816 C1829 0.930 . S
H1817 C1830 0.930 . S
H1818 C1834 0.959 . S
H1819 C1834 0.959 . S
H1820 C1834 0.961 . S
H1821 C1835 0.960 . S
H1822 C1835 0.961 . S
H1823 C1835 0.959 . S
H1824 C1838 0.929 . S
H1825 C1839 0.931 . S
H1826 C1841 0.930 . S
C1827 H1815 0.930 . S
C1827 C1828 1.399 . S
C1827 C1832 1.399 . S
C1828 C1827 1.399 . S
C1828 C1829 1.376 . S
C1829 H1816 0.930 . S
C1829 C1828 1.376 . S
C1829 C1830 1.388 . S
C1830 H1817 0.930 . S
C1830 C1829 1.388 . S
C1830 C1831 1.390 . S
C1831 C1830 1.390 . S
C1831 C1832 1.394 . S
C1831 C1837 1.465 . S
C1832 C1827 1.399 . S
C1832 C1831 1.394 . S
C1832 C1833 1.516 . S
C1833 C1832 1.516 . S
C1833 C1834 1.502 . S
C1833 C1835 1.561 . S
C1833 C1836 1.526 . S
C1834 H1818 0.959 . S
C1834 H1819 0.959 . S
C1834 H1820 0.961 . S
C1834 C1833 1.502 . S
C1835 H1821 0.960 . S
C1835 H1822 0.961 . S
C1835 H1823 0.959 . S
C1835 C1833 1.561 . S
C1836 C1833 1.526 . S
C1836 C1837 1.396 . S
C1836 C1841 1.390 . S
C1837 C1831 1.465 . S
C1837 C1836 1.396 . S
C1837 C1838 1.399 . S
C1838 H1824 0.929 . S
C1838 C1837 1.399 . S
C1838 C1839 1.385 . S
C1839 H1825 0.931 . S
C1839 C1838 1.385 . S
C1839 C1840 1.389 . S
C1840 C1839 1.389 . S
C1840 C1841 1.387 . S
C1841 H1826 0.930 . S
C1841 C1836 1.390 . S
C1841 C1840 1.387 . S
H1842 C1854 0.930 . S
H1843 C1856 0.930 . S
H1844 C1857 0.930 . S
H1845 C1861 0.959 . S
H1846 C1861 0.959 . S
H1847 C1861 0.961 . S
H1848 C1862 0.960 . S
H1849 C1862 0.961 . S
H1850 C1862 0.959 . S
H1851 C1865 0.929 . S
H1852 C1866 0.931 . S
H1853 C1868 0.930 . S
C1854 H1842 0.930 . S
C1854 C1855 1.399 . S
C1854 C1859 1.399 . S
C1855 C1854 1.399 . S
C1855 C1856 1.376 . S
C1856 H1843 0.930 . S
C1856 C1855 1.376 . S
C1856 C1857 1.388 . S
C1857 H1844 0.930 . S
C1857 C1856 1.388 . S
C1857 C1858 1.390 . S
C1858 C1857 1.390 . S
C1858 C1859 1.394 . S
C1858 C1864 1.465 . S
C1859 C1854 1.399 . S
C1859 C1858 1.394 . S
C1859 C1860 1.516 . S
C1860 C1859 1.516 . S
C1860 C1861 1.502 . S
C1860 C1862 1.561 . S
C1860 C1863 1.526 . S
C1861 H1845 0.959 . S
C1861 H1846 0.959 . S
C1861 H1847 0.961 . S
C1861 C1860 1.502 . S
C1862 H1848 0.960 . S
C1862 H1849 0.961 . S
C1862 H1850 0.959 . S
C1862 C1860 1.561 . S
C1863 C1860 1.526 . S
C1863 C1864 1.396 . S
C1863 C1868 1.390 . S
C1864 C1858 1.465 . S
C1864 C1863 1.396 . S
C1864 C1865 1.399 . S
C1865 H1851 0.929 . S
C1865 C1864 1.399 . S
C1865 C1866 1.385 . S
C1866 H1852 0.931 . S
C1866 C1865 1.385 . S
C1866 C1867 1.389 . S
C1867 C1866 1.389 . S
C1867 C1868 1.387 . S
C1868 H1853 0.930 . S
C1868 C1863 1.390 . S
C1868 C1867 1.387 . S
H1869 C1881 0.930 . S
H1870 C1883 0.930 . S
H1871 C1884 0.930 . S
H1872 C1888 0.959 . S
H1873 C1888 0.959 . S
H1874 C1888 0.961 . S
H1875 C1889 0.960 . S
H1876 C1889 0.961 . S
H1877 C1889 0.959 . S
H1878 C1892 0.929 . S
H1879 C1893 0.931 . S
H1880 C1895 0.930 . S
C1881 H1869 0.930 . S
C1881 C1882 1.399 . S
C1881 C1886 1.399 . S
C1882 C1881 1.399 . S
C1882 C1883 1.376 . S
C1883 H1870 0.930 . S
C1883 C1882 1.376 . S
C1883 C1884 1.388 . S
C1884 H1871 0.930 . S
C1884 C1883 1.388 . S
C1884 C1885 1.390 . S
C1885 C1884 1.390 . S
C1885 C1886 1.394 . S
C1885 C1891 1.465 . S
C1886 C1881 1.399 . S
C1886 C1885 1.394 . S
C1886 C1887 1.516 . S
C1887 C1886 1.516 . S
C1887 C1888 1.502 . S
C1887 C1889 1.561 . S
C1887 C1890 1.526 . S
C1888 H1872 0.959 . S
C1888 H1873 0.959 . S
C1888 H1874 0.961 . S
C1888 C1887 1.502 . S
C1889 H1875 0.960 . S
C1889 H1876 0.961 . S
C1889 H1877 0.959 . S
C1889 C1887 1.561 . S
C1890 C1887 1.526 . S
C1890 C1891 1.396 . S
C1890 C1895 1.390 . S
C1891 C1885 1.465 . S
C1891 C1890 1.396 . S
C1891 C1892 1.399 . S
C1892 H1878 0.929 . S
C1892 C1891 1.399 . S
C1892 C1893 1.385 . S
C1893 H1879 0.931 . S
C1893 C1892 1.385 . S
C1893 C1894 1.389 . S
C1894 C1893 1.389 . S
C1894 C1895 1.387 . S
C1895 H1880 0.930 . S
C1895 C1890 1.390 . S
C1895 C1894 1.387 . S
H1896 C1908 0.930 . S
H1897 C1910 0.930 . S
H1898 C1911 0.930 . S
H1899 C1915 0.959 . S
H1900 C1915 0.959 . S
H1901 C1915 0.961 . S
H1902 C1916 0.960 . S
H1903 C1916 0.961 . S
H1904 C1916 0.959 . S
H1905 C1919 0.929 . S
H1906 C1920 0.931 . S
H1907 C1922 0.930 . S
C1908 H1896 0.930 . S
C1908 C1909 1.399 . S
C1908 C1913 1.399 . S
C1909 C1908 1.399 . S
C1909 C1910 1.376 . S
C1910 H1897 0.930 . S
C1910 C1909 1.376 . S
C1910 C1911 1.388 . S
C1911 H1898 0.930 . S
C1911 C1910 1.388 . S
C1911 C1912 1.390 . S
C1912 C1911 1.390 . S
C1912 C1913 1.394 . S
C1912 C1918 1.465 . S
C1913 C1908 1.399 . S
C1913 C1912 1.394 . S
C1913 C1914 1.516 . S
C1914 C1913 1.516 . S
C1914 C1915 1.502 . S
C1914 C1916 1.561 . S
C1914 C1917 1.526 . S
C1915 H1899 0.959 . S
C1915 H1900 0.959 . S
C1915 H1901 0.961 . S
C1915 C1914 1.502 . S
C1916 H1902 0.960 . S
C1916 H1903 0.961 . S
C1916 H1904 0.959 . S
C1916 C1914 1.561 . S
C1917 C1914 1.526 . S
C1917 C1918 1.396 . S
C1917 C1922 1.390 . S
C1918 C1912 1.465 . S
C1918 C1917 1.396 . S
C1918 C1919 1.399 . S
C1919 H1905 0.929 . S
C1919 C1918 1.399 . S
C1919 C1920 1.385 . S
C1920 H1906 0.931 . S
C1920 C1919 1.385 . S
C1920 C1921 1.389 . S
C1921 C1920 1.389 . S
C1921 C1922 1.387 . S
C1922 H1907 0.930 . S
C1922 C1917 1.390 . S
C1922 C1921 1.387 . S
H1923 C1935 0.930 . S
H1924 C1937 0.930 . S
H1925 C1938 0.930 . S
H1926 C1942 0.959 . S
H1927 C1942 0.959 . S
H1928 C1942 0.961 . S
H1929 C1943 0.960 . S
H1930 C1943 0.961 . S
H1931 C1943 0.959 . S
H1932 C1946 0.929 . S
H1933 C1947 0.931 . S
H1934 C1949 0.930 . S
C1935 H1923 0.930 . S
C1935 C1936 1.399 . S
C1935 C1940 1.399 . S
C1936 C1935 1.399 . S
C1936 C1937 1.376 . S
C1937 H1924 0.930 . S
C1937 C1936 1.376 . S
C1937 C1938 1.388 . S
C1938 H1925 0.930 . S
C1938 C1937 1.388 . S
C1938 C1939 1.390 . S
C1939 C1938 1.390 . S
C1939 C1940 1.394 . S
C1939 C1945 1.465 . S
C1940 C1935 1.399 . S
C1940 C1939 1.394 . S
C1940 C1941 1.516 . S
C1941 C1940 1.516 . S
C1941 C1942 1.502 . S
C1941 C1943 1.561 . S
C1941 C1944 1.526 . S
C1942 H1926 0.959 . S
C1942 H1927 0.959 . S
C1942 H1928 0.961 . S
C1942 C1941 1.502 . S
C1943 H1929 0.960 . S
C1943 H1930 0.961 . S
C1943 H1931 0.959 . S
C1943 C1941 1.561 . S
C1944 C1941 1.526 . S
C1944 C1945 1.396 . S
C1944 C1949 1.390 . S
C1945 C1939 1.465 . S
C1945 C1944 1.396 . S
C1945 C1946 1.399 . S
C1946 H1932 0.929 . S
C1946 C1945 1.399 . S
C1946 C1947 1.385 . S
C1947 H1933 0.931 . S
C1947 C1946 1.385 . S
C1947 C1948 1.389 . S
C1948 C1947 1.389 . S
C1948 C1949 1.387 . S
C1949 H1934 0.930 . S
C1949 C1944 1.390 . S
C1949 C1948 1.387 . S
H1950 C1962 0.930 . S
H1951 C1964 0.930 . S
H1952 C1965 0.930 . S
H1953 C1969 0.959 . S
H1954 C1969 0.959 . S
H1955 C1969 0.961 . S
H1956 C1970 0.960 . S
H1957 C1970 0.961 . S
H1958 C1970 0.959 . S
H1959 C1973 0.929 . S
H1960 C1974 0.931 . S
H1961 C1976 0.930 . S
C1962 H1950 0.930 . S
C1962 C1963 1.399 . S
C1962 C1967 1.399 . S
C1963 C1962 1.399 . S
C1963 C1964 1.376 . S
C1964 H1951 0.930 . S
C1964 C1963 1.376 . S
C1964 C1965 1.388 . S
C1965 H1952 0.930 . S
C1965 C1964 1.388 . S
C1965 C1966 1.390 . S
C1966 C1965 1.390 . S
C1966 C1967 1.394 . S
C1966 C1972 1.465 . S
C1967 C1962 1.399 . S
C1967 C1966 1.394 . S
C1967 C1968 1.516 . S
C1968 C1967 1.516 . S
C1968 C1969 1.502 . S
C1968 C1970 1.561 . S
C1968 C1971 1.526 . S
C1969 H1953 0.959 . S
C1969 H1954 0.959 . S
C1969 H1955 0.961 . S
C1969 C1968 1.502 . S
C1970 H1956 0.960 . S
C1970 H1957 0.961 . S
C1970 H1958 0.959 . S
C1970 C1968 1.561 . S
C1971 C1968 1.526 . S
C1971 C1972 1.396 . S
C1971 C1976 1.390 . S
C1972 C1966 1.465 . S
C1972 C1971 1.396 . S
C1972 C1973 1.399 . S
C1973 H1959 0.929 . S
C1973 C1972 1.399 . S
C1973 C1974 1.385 . S
C1974 H1960 0.931 . S
C1974 C1973 1.385 . S
C1974 C1975 1.389 . S
C1975 C1974 1.389 . S
C1975 C1976 1.387 . S
C1976 H1961 0.930 . S
C1976 C1971 1.390 . S
C1976 C1975 1.387 . S
H1977 C1989 0.930 . S
H1978 C1991 0.930 . S
H1979 C1992 0.930 . S
H1980 C1996 0.959 . S
H1981 C1996 0.959 . S
H1982 C1996 0.961 . S
H1983 C1997 0.960 . S
H1984 C1997 0.961 . S
H1985 C1997 0.959 . S
H1986 C2000 0.929 . S
H1987 C2001 0.931 . S
H1988 C2003 0.930 . S
C1989 H1977 0.930 . S
C1989 C1990 1.399 . S
C1989 C1994 1.399 . S
C1990 C1989 1.399 . S
C1990 C1991 1.376 . S
C1991 H1978 0.930 . S
C1991 C1990 1.376 . S
C1991 C1992 1.388 . S
C1992 H1979 0.930 . S
C1992 C1991 1.388 . S
C1992 C1993 1.390 . S
C1993 C1992 1.390 . S
C1993 C1994 1.394 . S
C1993 C1999 1.465 . S
C1994 C1989 1.399 . S
C1994 C1993 1.394 . S
C1994 C1995 1.516 . S
C1995 C1994 1.516 . S
C1995 C1996 1.502 . S
C1995 C1997 1.561 . S
C1995 C1998 1.526 . S
C1996 H1980 0.959 . S
C1996 H1981 0.959 . S
C1996 H1982 0.961 . S
C1996 C1995 1.502 . S
C1997 H1983 0.960 . S
C1997 H1984 0.961 . S
C1997 H1985 0.959 . S
C1997 C1995 1.561 . S
C1998 C1995 1.526 . S
C1998 C1999 1.396 . S
C1998 C2003 1.390 . S
C1999 C1993 1.465 . S
C1999 C1998 1.396 . S
C1999 C2000 1.399 . S
C2000 H1986 0.929 . S
C2000 C1999 1.399 . S
C2000 C2001 1.385 . S
C2001 H1987 0.931 . S
C2001 C2000 1.385 . S
C2001 C2002 1.389 . S
C2002 C2001 1.389 . S
C2002 C2003 1.387 . S
C2003 H1988 0.930 . S
C2003 C1998 1.390 . S
C2003 C2002 1.387 . S
H2004 C2016 0.930 . S
H2005 C2018 0.930 . S
H2006 C2019 0.930 . S
H2007 C2023 0.959 . S
H2008 C2023 0.959 . S
H2009 C2023 0.961 . S
H2010 C2024 0.960 . S
H2011 C2024 0.961 . S
H2012 C2024 0.959 . S
H2013 C2027 0.929 . S
H2014 C2028 0.931 . S
H2015 C2030 0.930 . S
C2016 H2004 0.930 . S
C2016 C2017 1.399 . S
C2016 C2021 1.399 . S
C2017 C2016 1.399 . S
C2017 C2018 1.376 . S
C2018 H2005 0.930 . S
C2018 C2017 1.376 . S
C2018 C2019 1.388 . S
C2019 H2006 0.930 . S
C2019 C2018 1.388 . S
C2019 C2020 1.390 . S
C2020 C2019 1.390 . S
C2020 C2021 1.394 . S
C2020 C2026 1.465 . S
C2021 C2016 1.399 . S
C2021 C2020 1.394 . S
C2021 C2022 1.516 . S
C2022 C2021 1.516 . S
C2022 C2023 1.502 . S
C2022 C2024 1.561 . S
C2022 C2025 1.526 . S
C2023 H2007 0.959 . S
C2023 H2008 0.959 . S
C2023 H2009 0.961 . S
C2023 C2022 1.502 . S
C2024 H2010 0.960 . S
C2024 H2011 0.961 . S
C2024 H2012 0.959 . S
C2024 C2022 1.561 . S
C2025 C2022 1.526 . S
C2025 C2026 1.396 . S
C2025 C2030 1.390 . S
C2026 C2020 1.465 . S
C2026 C2025 1.396 . S
C2026 C2027 1.399 . S
C2027 H2013 0.929 . S
C2027 C2026 1.399 . S
C2027 C2028 1.385 . S
C2028 H2014 0.931 . S
C2028 C2027 1.385 . S
C2028 C2029 1.389 . S
C2029 C2028 1.389 . S
C2029 C2030 1.387 . S
C2030 H2015 0.930 . S
C2030 C2025 1.390 . S
C2030 C2029 1.387 . S
H2031 C2043 0.930 . S
H2032 C2045 0.930 . S
H2033 C2046 0.930 . S
H2034 C2050 0.959 . S
H2035 C2050 0.959 . S
H2036 C2050 0.961 . S
H2037 C2051 0.960 . S
H2038 C2051 0.961 . S
H2039 C2051 0.959 . S
H2040 C2054 0.929 . S
H2041 C2055 0.931 . S
H2042 C2057 0.930 . S
C2043 H2031 0.930 . S
C2043 C2044 1.399 . S
C2043 C2048 1.399 . S
C2044 C2043 1.399 . S
C2044 C2045 1.376 . S
C2045 H2032 0.930 . S
C2045 C2044 1.376 . S
C2045 C2046 1.388 . S
C2046 H2033 0.930 . S
C2046 C2045 1.388 . S
C2046 C2047 1.390 . S
C2047 C2046 1.390 . S
C2047 C2048 1.394 . S
C2047 C2053 1.465 . S
C2048 C2043 1.399 . S
C2048 C2047 1.394 . S
C2048 C2049 1.516 . S
C2049 C2048 1.516 . S
C2049 C2050 1.502 . S
C2049 C2051 1.561 . S
C2049 C2052 1.526 . S
C2050 H2034 0.959 . S
C2050 H2035 0.959 . S
C2050 H2036 0.961 . S
C2050 C2049 1.502 . S
C2051 H2037 0.960 . S
C2051 H2038 0.961 . S
C2051 H2039 0.959 . S
C2051 C2049 1.561 . S
C2052 C2049 1.526 . S
C2052 C2053 1.396 . S
C2052 C2057 1.390 . S
C2053 C2047 1.465 . S
C2053 C2052 1.396 . S
C2053 C2054 1.399 . S
C2054 H2040 0.929 . S
C2054 C2053 1.399 . S
C2054 C2055 1.385 . S
C2055 H2041 0.931 . S
C2055 C2054 1.385 . S
C2055 C2056 1.389 . S
C2056 C2055 1.389 . S
C2056 C2057 1.387 . S
C2057 H2042 0.930 . S
C2057 C2052 1.390 . S
C2057 C2056 1.387 . S
H2058 C2070 0.930 . S
H2059 C2072 0.930 . S
H2060 C2073 0.930 . S
H2061 C2077 0.959 . S
H2062 C2077 0.959 . S
H2063 C2077 0.961 . S
H2064 C2078 0.960 . S
H2065 C2078 0.961 . S
H2066 C2078 0.959 . S
H2067 C2081 0.929 . S
H2068 C2082 0.931 . S
H2069 C2084 0.930 . S
C2070 H2058 0.930 . S
C2070 C2071 1.399 . S
C2070 C2075 1.399 . S
C2071 C2070 1.399 . S
C2071 C2072 1.376 . S
C2072 H2059 0.930 . S
C2072 C2071 1.376 . S
C2072 C2073 1.388 . S
C2073 H2060 0.930 . S
C2073 C2072 1.388 . S
C2073 C2074 1.390 . S
C2074 C2073 1.390 . S
C2074 C2075 1.394 . S
C2074 C2080 1.465 . S
C2075 C2070 1.399 . S
C2075 C2074 1.394 . S
C2075 C2076 1.516 . S
C2076 C2075 1.516 . S
C2076 C2077 1.502 . S
C2076 C2078 1.561 . S
C2076 C2079 1.526 . S
C2077 H2061 0.959 . S
C2077 H2062 0.959 . S
C2077 H2063 0.961 . S
C2077 C2076 1.502 . S
C2078 H2064 0.960 . S
C2078 H2065 0.961 . S
C2078 H2066 0.959 . S
C2078 C2076 1.561 . S
C2079 C2076 1.526 . S
C2079 C2080 1.396 . S
C2079 C2084 1.390 . S
C2080 C2074 1.465 . S
C2080 C2079 1.396 . S
C2080 C2081 1.399 . S
C2081 H2067 0.929 . S
C2081 C2080 1.399 . S
C2081 C2082 1.385 . S
C2082 H2068 0.931 . S
C2082 C2081 1.385 . S
C2082 C2083 1.389 . S
C2083 C2082 1.389 . S
C2083 C2084 1.387 . S
C2084 H2069 0.930 . S
C2084 C2079 1.390 . S
C2084 C2083 1.387 . S
H2085 C2097 0.930 . S
H2086 C2099 0.930 . S
H2087 C2100 0.930 . S
H2088 C2104 0.959 . S
H2089 C2104 0.959 . S
H2090 C2104 0.961 . S
H2091 C2105 0.960 . S
H2092 C2105 0.961 . S
H2093 C2105 0.959 . S
H2094 C2108 0.929 . S
H2095 C2109 0.931 . S
H2096 C2111 0.930 . S
C2097 H2085 0.930 . S
C2097 C2098 1.399 . S
C2097 C2102 1.399 . S
C2098 C2097 1.399 . S
C2098 C2099 1.376 . S
C2099 H2086 0.930 . S
C2099 C2098 1.376 . S
C2099 C2100 1.388 . S
C2100 H2087 0.930 . S
C2100 C2099 1.388 . S
C2100 C2101 1.390 . S
C2101 C2100 1.390 . S
C2101 C2102 1.394 . S
C2101 C2107 1.465 . S
C2102 C2097 1.399 . S
C2102 C2101 1.394 . S
C2102 C2103 1.516 . S
C2103 C2102 1.516 . S
C2103 C2104 1.502 . S
C2103 C2105 1.561 . S
C2103 C2106 1.526 . S
C2104 H2088 0.959 . S
C2104 H2089 0.959 . S
C2104 H2090 0.961 . S
C2104 C2103 1.502 . S
C2105 H2091 0.960 . S
C2105 H2092 0.961 . S
C2105 H2093 0.959 . S
C2105 C2103 1.561 . S
C2106 C2103 1.526 . S
C2106 C2107 1.396 . S
C2106 C2111 1.390 . S
C2107 C2101 1.465 . S
C2107 C2106 1.396 . S
C2107 C2108 1.399 . S
C2108 H2094 0.929 . S
C2108 C2107 1.399 . S
C2108 C2109 1.385 . S
C2109 H2095 0.931 . S
C2109 C2108 1.385 . S
C2109 C2110 1.389 . S
C2110 C2109 1.389 . S
C2110 C2111 1.387 . S
C2111 H2096 0.930 . S
C2111 C2106 1.390 . S
C2111 C2110 1.387 . S
H2112 C2124 0.930 . S
H2113 C2126 0.930 . S
H2114 C2127 0.930 . S
H2115 C2131 0.959 . S
H2116 C2131 0.959 . S
H2117 C2131 0.961 . S
H2118 C2132 0.960 . S
H2119 C2132 0.961 . S
H2120 C2132 0.959 . S
H2121 C2135 0.929 . S
H2122 C2136 0.931 . S
H2123 C2138 0.930 . S
C2124 H2112 0.930 . S
C2124 C2125 1.399 . S
C2124 C2129 1.399 . S
C2125 C2124 1.399 . S
C2125 C2126 1.376 . S
C2126 H2113 0.930 . S
C2126 C2125 1.376 . S
C2126 C2127 1.388 . S
C2127 H2114 0.930 . S
C2127 C2126 1.388 . S
C2127 C2128 1.390 . S
C2128 C2127 1.390 . S
C2128 C2129 1.394 . S
C2128 C2134 1.465 . S
C2129 C2124 1.399 . S
C2129 C2128 1.394 . S
C2129 C2130 1.516 . S
C2130 C2129 1.516 . S
C2130 C2131 1.502 . S
C2130 C2132 1.561 . S
C2130 C2133 1.526 . S
C2131 H2115 0.959 . S
C2131 H2116 0.959 . S
C2131 H2117 0.961 . S
C2131 C2130 1.502 . S
C2132 H2118 0.960 . S
C2132 H2119 0.961 . S
C2132 H2120 0.959 . S
C2132 C2130 1.561 . S
C2133 C2130 1.526 . S
C2133 C2134 1.396 . S
C2133 C2138 1.390 . S
C2134 C2128 1.465 . S
C2134 C2133 1.396 . S
C2134 C2135 1.399 . S
C2135 H2121 0.929 . S
C2135 C2134 1.399 . S
C2135 C2136 1.385 . S
C2136 H2122 0.931 . S
C2136 C2135 1.385 . S
C2136 C2137 1.389 . S
C2137 C2136 1.389 . S
C2137 C2138 1.387 . S
C2138 H2123 0.930 . S
C2138 C2133 1.390 . S
C2138 C2137 1.387 . S
H2139 C2151 0.930 . S
H2140 C2153 0.930 . S
H2141 C2154 0.930 . S
H2142 C2158 0.959 . S
H2143 C2158 0.959 . S
H2144 C2158 0.961 . S
H2145 C2159 0.960 . S
H2146 C2159 0.961 . S
H2147 C2159 0.959 . S
H2148 C2162 0.929 . S
H2149 C2163 0.931 . S
H2150 C2165 0.930 . S
C2151 H2139 0.930 . S
C2151 C2152 1.399 . S
C2151 C2156 1.399 . S
C2152 C2151 1.399 . S
C2152 C2153 1.376 . S
C2153 H2140 0.930 . S
C2153 C2152 1.376 . S
C2153 C2154 1.388 . S
C2154 H2141 0.930 . S
C2154 C2153 1.388 . S
C2154 C2155 1.390 . S
C2155 C2154 1.390 . S
C2155 C2156 1.394 . S
C2155 C2161 1.465 . S
C2156 C2151 1.399 . S
C2156 C2155 1.394 . S
C2156 C2157 1.516 . S
C2157 C2156 1.516 . S
C2157 C2158 1.502 . S
C2157 C2159 1.561 . S
C2157 C2160 1.526 . S
C2158 H2142 0.959 . S
C2158 H2143 0.959 . S
C2158 H2144 0.961 . S
C2158 C2157 1.502 . S
C2159 H2145 0.960 . S
C2159 H2146 0.961 . S
C2159 H2147 0.959 . S
C2159 C2157 1.561 . S
C2160 C2157 1.526 . S
C2160 C2161 1.396 . S
C2160 C2165 1.390 . S
C2161 C2155 1.465 . S
C2161 C2160 1.396 . S
C2161 C2162 1.399 . S
C2162 H2148 0.929 . S
C2162 C2161 1.399 . S
C2162 C2163 1.385 . S
C2163 H2149 0.931 . S
C2163 C2162 1.385 . S
C2163 C2164 1.389 . S
C2164 C2163 1.389 . S
C2164 C2165 1.387 . S
C2165 H2150 0.930 . S
C2165 C2160 1.390 . S
C2165 C2164 1.387 . S
C895 C699 1.310 . S
C883 C56 1.467 . S
C922 C700 1.557 . S
C910 C154 1.461 . S
C949 C694 1.587 . S
C937 C236 1.586 . S
C964 C310 0.899 . S
C976 C693 0.357 . S
C991 C394 1.574 . S
C1003 C696 1.614 . S
C1030 C698 1.556 . S
C1018 C476 1.616 . S
C1045 C574 0.827 . S
C1057 C697 0.324 . S
C1072 C656 1.495 . S
C1084 C695 1.338 . S
C1111 C730 2.613 . S
C1099 C67 2.601 . S
C1126 C139 1.622 . S
C1138 C761 1.490 . S
C1165 C729 1.325 . S
C1153 C238 1.270 . S
C1192 C764 1.348 . S
C1180 C308 1.305 . S
C1207 C392 1.648 . S
C1219 C727 1.632 . S
C1246 C759 2.619 . S
C1234 C487 2.627 . S
C1261 C559 1.346 . S
C1273 C732 1.304 . S
C1288 C658 1.292 . S
C1300 C766 1.310 . S
C1315 C58 1.198 . S
C1327 C762 1.286 . S
C1342 C403 1.623 . S
C1354 C765 1.533 . S
C1381 C733 1.348 . S
C1369 C478 1.206 . S
C1408 C760 1.335 . S
C1396 C572 1.277 . S
C1423 C643 2.605 . S
C1435 C726 2.612 . S
C1450 C223 2.614 . S
C1462 C763 2.618 . S
C1489 C728 1.266 . S
C1477 C319 1.361 . S
C1504 C152 1.650 . S
C1516 C731 1.614 . S
C1531 C644 1.539 . S
C1543 C798 1.431 . S
C1558 C406 1.297 . S
C1570 C799 1.299 . S
C1597 C793 1.366 . S
C1585 C488 1.438 . S
C1624 C792 0.378 . S
C1612 C562 0.705 . S
C1639 C142 1.247 . S
C1651 C795 1.305 . S
C1678 C797 1.402 . S
C1666 C224 1.382 . S
C1693 C322 0.607 . S
C1705 C796 0.328 . S
C1720 C68 1.525 . S
C1732 C794 1.365 . S
C1747 C655 2.807 . S
C1759 C832 2.705 . S
C1786 C864 1.362 . S
C1774 C391 1.400 . S
C1801 C490 1.162 . S
C1813 C825 1.298 . S
C1828 C560 1.619 . S
C1840 C859 1.592 . S
C1867 C830 1.334 . S
C1855 C140 1.312 . S
C1882 C235 2.835 . S
C1894 C861 2.748 . S
C1921 C827 1.679 . S
C1909 C307 1.711 . S
C1948 C862 1.318 . S
C1936 C70 1.221 . S
C1975 C858 1.302 . S
C1963 C646 1.172 . S
C1990 C151 1.385 . S
C2002 C860 1.270 . S
C2017 C226 1.150 . S
C2029 C829 1.304 . S
C2056 C863 1.650 . S
C2044 C320 1.606 . S
C2071 C55 2.815 . S
C2083 C828 2.743 . S
C2098 C475 2.832 . S
C2110 C865 2.770 . S
C2137 C831 1.610 . S
C2125 C571 1.701 . S
C2164 C826 1.380 . S
C2152 C404 1.354 . S
