# Generated by pormake.
# Topology gar, (4,6)-cn, num edge types: 1
# Building blocks:
#     Node 0, Type 0, BuildingBlock: GALJAG_clean_sbu_0, # of connection points: 4
#     Node 1, Type 0, BuildingBlock: GALJAG_clean_sbu_0, # of connection points: 4
#     Node 2, Type 0, BuildingBlock: GALJAG_clean_sbu_0, # of connection points: 4
#     Node 3, Type 0, BuildingBlock: GALJAG_clean_sbu_0, # of connection points: 4
#     Node 4, Type 0, BuildingBlock: GALJAG_clean_sbu_0, # of connection points: 4
#     Node 5, Type 0, BuildingBlock: GALJAG_clean_sbu_0, # of connection points: 4
#     Node 6, Type 0, BuildingBlock: GALJAG_clean_sbu_0, # of connection points: 4
#     Node 7, Type 0, BuildingBlock: GALJAG_clean_sbu_0, # of connection points: 4
#     Node 8, Type 0, BuildingBlock: GALJAG_clean_sbu_0, # of connection points: 4
#     Node 9, Type 0, BuildingBlock: GALJAG_clean_sbu_0, # of connection points: 4
#     Node 10, Type 0, BuildingBlock: GALJAG_clean_sbu_0, # of connection points: 4
#     Node 11, Type 0, BuildingBlock: GALJAG_clean_sbu_0, # of connection points: 4
#     Node 12, Type 0, BuildingBlock: GALJAG_clean_sbu_0, # of connection points: 4
#     Node 13, Type 0, BuildingBlock: GALJAG_clean_sbu_0, # of connection points: 4
#     Node 14, Type 0, BuildingBlock: GALJAG_clean_sbu_0, # of connection points: 4
#     Node 15, Type 0, BuildingBlock: GALJAG_clean_sbu_0, # of connection points: 4
#     Node 16, Type 0, BuildingBlock: GALJAG_clean_sbu_0, # of connection points: 4
#     Node 17, Type 0, BuildingBlock: GALJAG_clean_sbu_0, # of connection points: 4
#     Node 18, Type 0, BuildingBlock: GALJAG_clean_sbu_0, # of connection points: 4
#     Node 19, Type 0, BuildingBlock: GALJAG_clean_sbu_0, # of connection points: 4
#     Node 20, Type 0, BuildingBlock: GALJAG_clean_sbu_0, # of connection points: 4
#     Node 21, Type 0, BuildingBlock: GALJAG_clean_sbu_0, # of connection points: 4
#     Node 22, Type 0, BuildingBlock: GALJAG_clean_sbu_0, # of connection points: 4
#     Node 23, Type 0, BuildingBlock: GALJAG_clean_sbu_0, # of connection points: 4
#     Node 24, Type 1, BuildingBlock: HISSIN_clean_sbu_0, # of connection points: 6
#     Node 25, Type 1, BuildingBlock: HISSIN_clean_sbu_0, # of connection points: 6
#     Node 26, Type 1, BuildingBlock: HISSIN_clean_sbu_0, # of connection points: 6
#     Node 27, Type 1, BuildingBlock: HISSIN_clean_sbu_0, # of connection points: 6
#     Node 28, Type 1, BuildingBlock: HISSIN_clean_sbu_0, # of connection points: 6
#     Node 29, Type 1, BuildingBlock: HISSIN_clean_sbu_0, # of connection points: 6
#     Node 30, Type 1, BuildingBlock: HISSIN_clean_sbu_0, # of connection points: 6
#     Node 31, Type 1, BuildingBlock: HISSIN_clean_sbu_0, # of connection points: 6
#     Node 32, Type 1, BuildingBlock: HISSIN_clean_sbu_0, # of connection points: 6
#     Node 33, Type 1, BuildingBlock: HISSIN_clean_sbu_0, # of connection points: 6
#     Node 34, Type 1, BuildingBlock: HISSIN_clean_sbu_0, # of connection points: 6
#     Node 35, Type 1, BuildingBlock: HISSIN_clean_sbu_0, # of connection points: 6
#     Node 36, Type 1, BuildingBlock: HISSIN_clean_sbu_0, # of connection points: 6
#     Node 37, Type 1, BuildingBlock: HISSIN_clean_sbu_0, # of connection points: 6
#     Node 38, Type 1, BuildingBlock: HISSIN_clean_sbu_0, # of connection points: 6
#     Node 39, Type 1, BuildingBlock: HISSIN_clean_sbu_0, # of connection points: 6
#     Edge 40, Type (0, 1), BuildingBlock: UVAHIK_clean_linker_0, # of connection points: 2
#     Edge 41, Type (0, 1), BuildingBlock: UVAHIK_clean_linker_0, # of connection points: 2
#     Edge 42, Type (0, 1), BuildingBlock: UVAHIK_clean_linker_0, # of connection points: 2
#     Edge 43, Type (0, 1), BuildingBlock: UVAHIK_clean_linker_0, # of connection points: 2
#     Edge 44, Type (0, 1), BuildingBlock: UVAHIK_clean_linker_0, # of connection points: 2
#     Edge 45, Type (0, 1), BuildingBlock: UVAHIK_clean_linker_0, # of connection points: 2
#     Edge 46, Type (0, 1), BuildingBlock: UVAHIK_clean_linker_0, # of connection points: 2
#     Edge 47, Type (0, 1), BuildingBlock: UVAHIK_clean_linker_0, # of connection points: 2
#     Edge 48, Type (0, 1), BuildingBlock: UVAHIK_clean_linker_0, # of connection points: 2
#     Edge 49, Type (0, 1), BuildingBlock: UVAHIK_clean_linker_0, # of connection points: 2
#     Edge 50, Type (0, 1), BuildingBlock: UVAHIK_clean_linker_0, # of connection points: 2
#     Edge 51, Type (0, 1), BuildingBlock: UVAHIK_clean_linker_0, # of connection points: 2
#     Edge 52, Type (0, 1), BuildingBlock: UVAHIK_clean_linker_0, # of connection points: 2
#     Edge 53, Type (0, 1), BuildingBlock: UVAHIK_clean_linker_0, # of connection points: 2
#     Edge 54, Type (0, 1), BuildingBlock: UVAHIK_clean_linker_0, # of connection points: 2
#     Edge 55, Type (0, 1), BuildingBlock: UVAHIK_clean_linker_0, # of connection points: 2
#     Edge 56, Type (0, 1), BuildingBlock: UVAHIK_clean_linker_0, # of connection points: 2
#     Edge 57, Type (0, 1), BuildingBlock: UVAHIK_clean_linker_0, # of connection points: 2
#     Edge 58, Type (0, 1), BuildingBlock: UVAHIK_clean_linker_0, # of connection points: 2
#     Edge 59, Type (0, 1), BuildingBlock: UVAHIK_clean_linker_0, # of connection points: 2
#     Edge 60, Type (0, 1), BuildingBlock: UVAHIK_clean_linker_0, # of connection points: 2
#     Edge 61, Type (0, 1), BuildingBlock: UVAHIK_clean_linker_0, # of connection points: 2
#     Edge 62, Type (0, 1), BuildingBlock: UVAHIK_clean_linker_0, # of connection points: 2
#     Edge 63, Type (0, 1), BuildingBlock: UVAHIK_clean_linker_0, # of connection points: 2
#     Edge 64, Type (0, 1), BuildingBlock: UVAHIK_clean_linker_0, # of connection points: 2
#     Edge 65, Type (0, 1), BuildingBlock: UVAHIK_clean_linker_0, # of connection points: 2
#     Edge 66, Type (0, 1), BuildingBlock: UVAHIK_clean_linker_0, # of connection points: 2
#     Edge 67, Type (0, 1), BuildingBlock: UVAHIK_clean_linker_0, # of connection points: 2
#     Edge 68, Type (0, 1), BuildingBlock: UVAHIK_clean_linker_0, # of connection points: 2
#     Edge 69, Type (0, 1), BuildingBlock: UVAHIK_clean_linker_0, # of connection points: 2
#     Edge 70, Type (0, 1), BuildingBlock: UVAHIK_clean_linker_0, # of connection points: 2
#     Edge 71, Type (0, 1), BuildingBlock: UVAHIK_clean_linker_0, # of connection points: 2
#     Edge 72, Type (0, 1), BuildingBlock: UVAHIK_clean_linker_0, # of connection points: 2
#     Edge 73, Type (0, 1), BuildingBlock: UVAHIK_clean_linker_0, # of connection points: 2
#     Edge 74, Type (0, 1), BuildingBlock: UVAHIK_clean_linker_0, # of connection points: 2
#     Edge 75, Type (0, 1), BuildingBlock: UVAHIK_clean_linker_0, # of connection points: 2
#     Edge 76, Type (0, 1), BuildingBlock: UVAHIK_clean_linker_0, # of connection points: 2
#     Edge 77, Type (0, 1), BuildingBlock: UVAHIK_clean_linker_0, # of connection points: 2
#     Edge 78, Type (0, 1), BuildingBlock: UVAHIK_clean_linker_0, # of connection points: 2
#     Edge 79, Type (0, 1), BuildingBlock: UVAHIK_clean_linker_0, # of connection points: 2
#     Edge 80, Type (0, 1), BuildingBlock: UVAHIK_clean_linker_0, # of connection points: 2
#     Edge 81, Type (0, 1), BuildingBlock: UVAHIK_clean_linker_0, # of connection points: 2
#     Edge 82, Type (0, 1), BuildingBlock: UVAHIK_clean_linker_0, # of connection points: 2
#     Edge 83, Type (0, 1), BuildingBlock: UVAHIK_clean_linker_0, # of connection points: 2
#     Edge 84, Type (0, 1), BuildingBlock: UVAHIK_clean_linker_0, # of connection points: 2
#     Edge 85, Type (0, 1), BuildingBlock: UVAHIK_clean_linker_0, # of connection points: 2
#     Edge 86, Type (0, 1), BuildingBlock: UVAHIK_clean_linker_0, # of connection points: 2
#     Edge 87, Type (0, 1), BuildingBlock: UVAHIK_clean_linker_0, # of connection points: 2
#     Edge 88, Type (0, 1), BuildingBlock: UVAHIK_clean_linker_0, # of connection points: 2
#     Edge 89, Type (0, 1), BuildingBlock: UVAHIK_clean_linker_0, # of connection points: 2
#     Edge 90, Type (0, 1), BuildingBlock: UVAHIK_clean_linker_0, # of connection points: 2
#     Edge 91, Type (0, 1), BuildingBlock: UVAHIK_clean_linker_0, # of connection points: 2
#     Edge 92, Type (0, 1), BuildingBlock: UVAHIK_clean_linker_0, # of connection points: 2
#     Edge 93, Type (0, 1), BuildingBlock: UVAHIK_clean_linker_0, # of connection points: 2
#     Edge 94, Type (0, 1), BuildingBlock: UVAHIK_clean_linker_0, # of connection points: 2
#     Edge 95, Type (0, 1), BuildingBlock: UVAHIK_clean_linker_0, # of connection points: 2
#     Edge 96, Type (0, 1), BuildingBlock: UVAHIK_clean_linker_0, # of connection points: 2
#     Edge 97, Type (0, 1), BuildingBlock: UVAHIK_clean_linker_0, # of connection points: 2
#     Edge 98, Type (0, 1), BuildingBlock: UVAHIK_clean_linker_0, # of connection points: 2
#     Edge 99, Type (0, 1), BuildingBlock: UVAHIK_clean_linker_0, # of connection points: 2
#     Edge 100, Type (0, 1), BuildingBlock: UVAHIK_clean_linker_0, # of connection points: 2
#     Edge 101, Type (0, 1), BuildingBlock: UVAHIK_clean_linker_0, # of connection points: 2
#     Edge 102, Type (0, 1), BuildingBlock: UVAHIK_clean_linker_0, # of connection points: 2
#     Edge 103, Type (0, 1), BuildingBlock: UVAHIK_clean_linker_0, # of connection points: 2
#     Edge 104, Type (0, 1), BuildingBlock: UVAHIK_clean_linker_0, # of connection points: 2
#     Edge 105, Type (0, 1), BuildingBlock: UVAHIK_clean_linker_0, # of connection points: 2
#     Edge 106, Type (0, 1), BuildingBlock: UVAHIK_clean_linker_0, # of connection points: 2
#     Edge 107, Type (0, 1), BuildingBlock: UVAHIK_clean_linker_0, # of connection points: 2
#     Edge 108, Type (0, 1), BuildingBlock: UVAHIK_clean_linker_0, # of connection points: 2
#     Edge 109, Type (0, 1), BuildingBlock: UVAHIK_clean_linker_0, # of connection points: 2
#     Edge 110, Type (0, 1), BuildingBlock: UVAHIK_clean_linker_0, # of connection points: 2
#     Edge 111, Type (0, 1), BuildingBlock: UVAHIK_clean_linker_0, # of connection points: 2
#     Edge 112, Type (0, 1), BuildingBlock: UVAHIK_clean_linker_0, # of connection points: 2
#     Edge 113, Type (0, 1), BuildingBlock: UVAHIK_clean_linker_0, # of connection points: 2
#     Edge 114, Type (0, 1), BuildingBlock: UVAHIK_clean_linker_0, # of connection points: 2
#     Edge 115, Type (0, 1), BuildingBlock: UVAHIK_clean_linker_0, # of connection points: 2
#     Edge 116, Type (0, 1), BuildingBlock: UVAHIK_clean_linker_0, # of connection points: 2
#     Edge 117, Type (0, 1), BuildingBlock: UVAHIK_clean_linker_0, # of connection points: 2
#     Edge 118, Type (0, 1), BuildingBlock: UVAHIK_clean_linker_0, # of connection points: 2
#     Edge 119, Type (0, 1), BuildingBlock: UVAHIK_clean_linker_0, # of connection points: 2
#     Edge 120, Type (0, 1), BuildingBlock: UVAHIK_clean_linker_0, # of connection points: 2
#     Edge 121, Type (0, 1), BuildingBlock: UVAHIK_clean_linker_0, # of connection points: 2
#     Edge 122, Type (0, 1), BuildingBlock: UVAHIK_clean_linker_0, # of connection points: 2
#     Edge 123, Type (0, 1), BuildingBlock: UVAHIK_clean_linker_0, # of connection points: 2
#     Edge 124, Type (0, 1), BuildingBlock: UVAHIK_clean_linker_0, # of connection points: 2
#     Edge 125, Type (0, 1), BuildingBlock: UVAHIK_clean_linker_0, # of connection points: 2
#     Edge 126, Type (0, 1), BuildingBlock: UVAHIK_clean_linker_0, # of connection points: 2
#     Edge 127, Type (0, 1), BuildingBlock: UVAHIK_clean_linker_0, # of connection points: 2
#     Edge 128, Type (0, 1), BuildingBlock: UVAHIK_clean_linker_0, # of connection points: 2
#     Edge 129, Type (0, 1), BuildingBlock: UVAHIK_clean_linker_0, # of connection points: 2
#     Edge 130, Type (0, 1), BuildingBlock: UVAHIK_clean_linker_0, # of connection points: 2
#     Edge 131, Type (0, 1), BuildingBlock: UVAHIK_clean_linker_0, # of connection points: 2
#     Edge 132, Type (0, 1), BuildingBlock: UVAHIK_clean_linker_0, # of connection points: 2
#     Edge 133, Type (0, 1), BuildingBlock: UVAHIK_clean_linker_0, # of connection points: 2
#     Edge 134, Type (0, 1), BuildingBlock: UVAHIK_clean_linker_0, # of connection points: 2
#     Edge 135, Type (0, 1), BuildingBlock: UVAHIK_clean_linker_0, # of connection points: 2
# Relax obj value: 0.161
# Max RMSD: 0.265
# Mean RMSD: 0.153
data_MOF--net-gar--node1-GALJAG_clean_sbu_0--node2-HISSIN_clean_sbu_0--edge1-UVAHIK_clean_linker_0
_symmetry_space_group_name_H-M    P1
_symmetry_Int_Tables_number       1
_symmetry_cell_setting            triclinic
loop_
_symmetry_equiv_pos_as_xyz
'x, y, z'
_cell_length_a     75.76785
_cell_length_b     75.465536
_cell_length_c     73.497483
_cell_angle_alpha  99.116951
_cell_angle_beta   93.340572
_cell_angle_gamma 99.980784
loop_
_atom_site_label
_atom_site_type_symbol
_atom_site_fract_x
_atom_site_fract_y
_atom_site_fract_z
_atom_type_partial_charge
In0 In 0.07276 0.29718 0.39235 0.0
O1 O 0.10315 0.30176 0.39249 0.0
O2 O 0.08789 0.2823 0.3707 0.0
C3 C 0.05137 0.29948 0.3625 0.0
C4 C 0.06352 0.2724 0.41449 0.0
C5 C 0.0733 0.32959 0.41401 0.0
O6 O 0.05131 0.28463 0.36837 0.0
O7 O 0.06205 0.31299 0.37173 0.0
O8 O 0.0611 0.3159 0.41407 0.0
O9 O 0.08523 0.32684 0.40321 0.0
C10 C 0.10322 0.29068 0.37775 0.0
O11 O 0.0794 0.28095 0.41466 0.0
O12 O 0.05235 0.27615 0.40296 0.0
In13 In 1.00043 0.77594 0.64779 0.0
O14 O 0.98832 0.78829 0.62441 0.0
O15 O 0.01453 0.80045 0.63663 0.0
C16 C 1.00293 0.74213 0.63113 0.0
C17 C 0.02989 0.78477 0.67192 0.0
C18 C 0.97041 0.7744 0.66571 0.0
O19 O 0.99861 0.7539 0.62217 0.0
O20 O 1.00582 0.74741 0.64834 0.0
O21 O 0.97353 0.76113 0.65444 0.0
O22 O 0.98216 0.78878 0.66746 0.0
C23 C 1.00207 0.80043 0.62454 0.0
O24 O 0.01427 0.78468 0.67708 0.0
O25 O 0.03056 0.78067 0.65469 0.0
In26 In 0.5626 0.79265 0.88595 0.0
O27 O 0.59238 0.80431 0.8857 0.0
O28 O 0.58087 0.78165 0.86505 0.0
C29 C 0.53736 0.78716 0.85724 0.0
C30 C 0.55656 0.76867 0.90947 0.0
C31 C 0.56167 0.826 0.90483 0.0
O32 O 0.54617 0.77499 0.86012 0.0
O33 O 0.54077 0.8015 0.86919 0.0
O34 O 0.55919 0.81189 0.91225 0.0
O35 O 0.56466 0.82325 0.88801 0.0
C36 C 0.59463 0.79335 0.8716 0.0
O37 O 0.57212 0.77635 0.90684 0.0
O38 O 0.54396 0.77278 0.89994 0.0
In39 In 0.49917 0.26518 0.13881 0.0
O40 O 0.50786 0.24946 0.113 0.0
O41 O 0.48199 0.2398 0.12127 0.0
C42 C 0.50303 0.29527 0.12291 0.0
C43 C 0.47286 0.26144 0.16165 0.0
C44 C 0.5284 0.26281 0.16044 0.0
O45 O 0.48912 0.28297 0.11945 0.0
O46 O 0.51457 0.29259 0.13472 0.0
O47 O 0.51827 0.274 0.16522 0.0
O48 O 0.52384 0.25298 0.14481 0.0
C49 C 0.4937 0.23745 0.11005 0.0
O50 O 0.48005 0.24835 0.15482 0.0
O51 O 0.47871 0.2765 0.15671 0.0
In52 In 0.06074 0.78615 0.11194 0.0
O53 O 0.07616 0.76566 0.09693 0.0
O54 O 0.04844 0.75683 0.10029 0.0
C55 C 0.06355 0.80544 0.084 0.0
C56 C 0.03134 0.79401 0.12827 0.0
C57 C 0.08467 0.78811 0.14106 0.0
O58 O 0.05365 0.79001 0.08266 0.0
O59 O 0.07193 0.81155 0.09971 0.0
O60 O 0.08753 0.79825 0.12901 0.0
O61 O 0.06992 0.777 0.13826 0.0
C62 C 0.06263 0.75285 0.0939 0.0
O63 O 0.04604 0.80519 0.13028 0.0
O64 O 0.03136 0.77919 0.11763 0.0
In65 In 0.50411 0.79685 0.39945 0.0
O66 O 0.52226 0.78312 0.38063 0.0
O67 O 0.52677 0.81214 0.38565 0.0
C68 C 0.47413 0.7933 0.37685 0.0
C69 C 0.51014 0.77201 0.42029 0.0
C70 C 0.5017 0.8249 0.42598 0.0
O71 O 0.48801 0.80502 0.37617 0.0
O72 O 0.47546 0.78319 0.3888 0.0
O73 O 0.5161 0.82338 0.41856 0.0
O74 O 0.48837 0.81248 0.41968 0.0
C75 C 0.53147 0.79782 0.37772 0.0
O76 O 0.5156 0.7889 0.42541 0.0
O77 O 0.50146 0.7675 0.40455 0.0
In78 In 0.56293 0.29333 0.61458 0.0
O79 O 0.57237 0.26978 0.59675 0.0
O80 O 0.54831 0.26389 0.60991 0.0
C81 C 0.55733 0.30888 0.58468 0.0
C82 C 0.53904 0.29708 0.63997 0.0
C83 C 0.59439 0.30527 0.63556 0.0
O84 O 0.54593 0.29659 0.58937 0.0
O85 O 0.57152 0.31391 0.59547 0.0
O86 O 0.58176 0.3142 0.63638 0.0
O87 O 0.5914 0.29087 0.62367 0.0
C88 C 0.55935 0.25791 0.59947 0.0
O89 O 0.54976 0.28602 0.63997 0.0
O90 O 0.54036 0.30641 0.62711 0.0
In91 In 1.00538 0.30052 0.90758 0.0
O92 O 0.01848 0.29212 0.93247 0.0
O93 O 1.00497 0.27091 0.91114 0.0
C94 C 1.00291 0.32771 0.9351 0.0
C95 C 0.03181 0.30349 0.88474 0.0
C96 C 0.97435 0.29663 0.88647 0.0
O97 O 0.01708 0.32698 0.92699 0.0
O98 O 0.98984 0.31491 0.92904 0.0
O99 O 0.98799 0.30839 0.8851 0.0
O100 O 0.97642 0.28661 0.89835 0.0
C101 C 0.01411 0.27523 0.92661 0.0
O102 O 0.02276 0.28836 0.88671 0.0
O103 O 0.02735 0.31728 0.8941 0.0
In104 In 0.40201 0.03072 0.30632 0.0
O105 O 0.42557 0.0395 0.2901 0.0
O106 O 0.41082 0.01235 0.28223 0.0
C107 C 0.42239 0.038 0.33889 0.0
C108 C 0.38621 0.05455 0.29075 0.0
C109 C 0.37553 1.00453 0.31315 0.0
O110 O 0.42525 0.02692 0.32518 0.0
O111 O 0.40928 0.04583 0.3362 0.0
O112 O 0.37486 0.02128 0.31689 0.0
O113 O 0.38957 1.00102 0.30604 0.0
C114 C 0.42362 0.0244 0.27928 0.0
O115 O 0.3821 0.0375 0.28555 0.0
O116 O 0.39817 0.0597 0.30418 0.0
In117 In 0.28036 0.19276 0.51659 0.0
O118 O 0.27065 0.21168 0.53981 0.0
O119 O 0.29863 0.21172 0.54036 0.0
C120 C 0.28381 0.20651 0.48477 0.0
C121 C 0.30401 0.17056 0.52135 0.0
C122 C 0.24658 0.17319 0.51397 0.0
O123 O 0.29039 0.21564 0.50029 0.0
O124 O 0.27563 0.19063 0.48536 0.0
O125 O 0.26036 0.16589 0.51356 0.0
O126 O 0.24983 0.19038 0.51569 0.0
C127 C 0.28601 0.21771 0.54824 0.0
O128 O 0.29164 0.17258 0.53182 0.0
O129 O 0.30436 0.17958 0.50826 0.0
In130 In 0.17085 0.02481 0.78358 0.0
O131 O 0.14489 0.01695 0.76117 0.0
O132 O 0.16876 0.02948 0.75218 0.0
C133 C 0.15205 0.02639 0.81702 0.0
C134 C 0.18828 0.99267 0.78158 0.0
C135 C 0.19021 0.06164 0.78652 0.0
O136 O 0.14475 0.0257 0.80091 0.0
O137 O 0.16866 0.02601 0.81643 0.0
O138 O 0.19721 0.04757 0.78249 0.0
O139 O 0.17398 0.05726 0.78976 0.0
C140 C 0.15221 0.02322 0.74784 0.0
O141 O 0.19598 0.00903 0.78772 0.0
O142 O 0.17196 0.99234 0.77632 0.0
In143 In 0.27624 0.95638 0.01107 0.0
O144 O 0.27034 0.93132 0.02485 0.0
O145 O 0.2763 0.95722 0.0424 0.0
C146 C 0.27621 0.93298 0.97889 0.0
C147 C 0.24627 0.97254 0.01131 0.0
C148 C 0.31186 0.9726 0.01461 0.0
O149 O 0.27101 0.92788 0.99353 0.0
O150 O 0.28097 0.95007 0.98021 0.0
O151 O 0.30002 0.97843 1.00553 0.0
O152 O 0.30562 0.95927 0.02216 0.0
C153 C 0.27234 0.94008 0.04116 0.0
O154 O 0.2613 0.98062 0.01952 0.0
O155 O 0.2467 0.95702 1.00228 0.0
In156 In 0.30591 0.38966 0.04805 0.0
O157 O 0.3036 0.36436 0.06222 0.0
O158 O 0.30561 0.39031 0.07909 0.0
C159 C 0.30235 0.36855 0.01395 0.0
C160 C 0.27728 0.40652 0.05089 0.0
C161 C 0.33794 0.41248 0.04899 0.0
O162 O 0.29126 0.37836 0.01953 0.0
O163 O 0.31529 0.36898 0.02572 0.0
O164 O 0.32417 0.41368 0.0391 0.0
O165 O 0.33556 0.39982 0.0584 0.0
C166 C 0.30411 0.37332 0.07835 0.0
O167 O 0.29323 0.41527 0.05217 0.0
O168 O 0.27587 0.38938 0.04844 0.0
In169 In 0.80853 0.13264 0.0415 0.0
O170 O 0.82472 0.10884 0.03554 0.0
O171 O 0.83946 0.13524 0.0453 0.0
C172 C 0.77481 0.11128 0.03588 0.0
C173 C 0.80797 0.15407 0.07495 0.0
C174 C 0.80578 0.1532 0.01467 0.0
O175 O 0.78202 0.11957 0.02384 0.0
O176 O 0.78496 0.11281 0.05053 0.0
O177 O 0.80357 0.15858 0.03138 0.0
O178 O 0.80964 0.13744 0.01141 0.0
C179 C 0.84008 0.11874 0.03979 0.0
O180 O 0.81521 0.15994 0.0615 0.0
O181 O 0.80156 0.13716 0.07183 0.0
In182 In 0.20438 0.55831 0.26185 0.0
O183 O 0.22349 0.53892 0.25293 0.0
O184 O 0.20335 0.53047 0.27021 0.0
C185 C 0.23226 0.58549 0.26093 0.0
C186 C 0.17786 0.54993 0.23415 0.0
C187 C 0.19047 0.5734 0.29216 0.0
O188 O 0.23101 0.57643 0.27397 0.0
O189 O 0.21949 0.58076 0.24834 0.0
O190 O 0.18841 0.57839 0.2767 0.0
O191 O 0.19974 0.56106 0.29232 0.0
C192 C 0.21663 0.52686 0.26179 0.0
O193 O 0.17538 0.54669 0.2502 0.0
O194 O 0.19378 0.55694 0.23198 0.0
In195 In 0.8028 0.89332 0.54605 0.0
O196 O 0.80041 0.86894 0.5616 0.0
O197 O 0.80264 0.8955 0.57727 0.0
C198 C 0.79879 0.87054 0.51278 0.0
C199 C 0.77536 0.91196 0.54772 0.0
C200 C 0.83528 0.9153 0.54713 0.0
O201 O 0.78659 0.87851 0.51903 0.0
O202 O 0.81297 0.87356 0.52352 0.0
O203 O 0.82181 0.91663 0.53683 0.0
O204 O 0.83236 0.90293 0.55685 0.0
C205 C 0.80104 0.87863 0.57739 0.0
O206 O 0.79134 0.91948 0.54628 0.0
O207 O 0.7733 0.89513 0.5484 0.0
In208 In 0.91794 0.0616 0.27637 0.0
O209 O 0.94379 0.06582 0.25871 0.0
O210 O 0.9192 0.05504 0.24339 0.0
C211 C 0.93647 0.06286 0.31199 0.0
C212 C 0.90098 0.09398 0.2776 0.0
C213 C 0.89944 0.02467 0.27441 0.0
O214 O 0.94429 0.0654 0.29758 0.0
O215 O 0.91957 0.06054 0.30875 0.0
O216 O 0.89184 0.03847 0.27722 0.0
O217 O 0.91586 0.02937 0.27202 0.0
C218 C 0.93598 0.05982 0.24263 0.0
O219 O 0.8931 0.07764 0.27161 0.0
O220 O 0.9172 0.09414 0.28306 0.0
In221 In 0.30713 0.63094 0.54158 0.0
O222 O 0.32338 0.60739 0.53488 0.0
O223 O 0.33799 0.63363 0.546 0.0
C224 C 0.27309 0.61019 0.5362 0.0
C225 C 0.3034 0.65239 0.57417 0.0
C226 C 0.30936 0.65097 0.51406 0.0
O227 O 0.28408 0.60952 0.54958 0.0
O228 O 0.27963 0.62031 0.52528 0.0
O229 O 0.31288 0.65798 0.53094 0.0
O230 O 0.30535 0.63373 0.51098 0.0
C231 C 0.33869 0.61726 0.53978 0.0
O232 O 0.30023 0.65651 0.55851 0.0
O233 O 0.30881 0.63739 0.5736 0.0
In234 In 0.41747 0.56095 0.77691 0.0
O235 O 0.3925 0.57693 0.7727 0.0
O236 O 0.41679 0.59352 0.78335 0.0
C237 C 0.39904 0.52402 0.77514 0.0
C238 C 0.43547 0.55903 0.74309 0.0
C239 C 0.43595 0.56256 0.81264 0.0
O240 O 0.39111 0.53758 0.77576 0.0
O241 O 0.41583 0.52895 0.77492 0.0
O242 O 0.44378 0.5648 0.79815 0.0
O243 O 0.41905 0.5604 0.80942 0.0
C244 C 0.40045 0.5933 0.7783 0.0
O245 O 0.44325 0.5653 0.75913 0.0
O246 O 0.41875 0.55401 0.74392 0.0
In247 In 0.68769 0.0598 0.76541 0.0
O248 O 0.70446 0.03798 0.75872 0.0
O249 O 0.69199 0.03896 0.78392 0.0
C250 C 0.71212 0.08613 0.7555 0.0
C251 C 0.66209 0.04262 0.73846 0.0
C252 C 0.675 0.0798 0.79373 0.0
O253 O 0.71636 0.07488 0.76516 0.0
O254 O 0.69552 0.0841 0.75082 0.0
O255 O 0.66612 0.07403 0.77825 0.0
O256 O 0.6903 0.07543 0.79499 0.0
C257 C 0.70203 0.03141 0.77329 0.0
O258 O 0.65991 0.04274 0.75537 0.0
O259 O 0.67717 0.05101 0.73524 0.0
In260 In 0.78109 0.69304 0.01439 0.0
O261 O 0.79369 0.66752 0.00904 0.0
O262 O 0.8112 0.69298 0.01824 0.0
C263 C 0.74711 0.67431 0.01333 0.0
C264 C 0.78442 0.7116 0.04944 0.0
C265 C 0.78352 0.70784 0.98308 0.0
O266 O 0.76067 0.66668 0.01252 0.0
O267 O 0.75066 0.69147 0.01472 0.0
O268 O 0.79029 0.71661 0.99869 0.0
O269 O 0.77558 0.69179 0.98333 0.0
C270 C 0.80961 0.67591 0.01371 0.0
O271 O 0.78011 0.71862 0.03571 0.0
O272 O 0.78682 0.69538 0.04543 0.0
In273 In 0.89921 0.53238 0.80778 0.0
O274 O 0.88265 0.55436 0.81626 0.0
O275 O 0.89805 0.55668 0.79326 0.0
C276 C 0.86931 0.5074 0.80866 0.0
C277 C 0.91841 0.52265 0.77946 0.0
C278 C 0.92162 0.53517 0.83826 0.0
O279 O 0.88186 0.51137 0.82147 0.0
O280 O 0.87196 0.51579 0.79526 0.0
O281 O 0.91913 0.52162 0.82533 0.0
O282 O 0.91284 0.5475 0.83582 0.0
C283 C 0.887 0.56305 0.8034 0.0
O284 O 0.92385 0.53658 0.79171 0.0
O285 O 0.90326 0.51352 0.78153 0.0
In286 In 0.77509 0.4552 0.51177 0.0
O287 O 0.76898 0.43012 0.52548 0.0
O288 O 0.77561 0.4559 0.54314 0.0
C289 C 0.77472 0.43273 0.47897 0.0
C290 C 0.74512 0.47127 0.51228 0.0
C291 C 0.8108 0.47089 0.51532 0.0
O292 O 0.7696 0.42717 0.49343 0.0
O293 O 0.77952 0.44987 0.48076 0.0
O294 O 0.79883 0.47839 0.50855 0.0
O295 O 0.80465 0.4561 0.52054 0.0
C296 C 0.77141 0.43878 0.54183 0.0
O297 O 0.76017 0.47939 0.5204 0.0
O298 O 0.74551 0.45573 0.50325 0.0
In299 In 0.67134 0.52578 0.28438 0.0
O300 O 0.69648 0.50986 0.28782 0.0
O301 O 0.67218 0.49322 0.27728 0.0
C302 C 0.69069 0.56262 0.28713 0.0
C303 C 0.65292 0.52403 0.24852 0.0
C304 C 0.65252 0.52747 0.31789 0.0
O305 O 0.69814 0.54869 0.28556 0.0
O306 O 0.67395 0.55812 0.28799 0.0
O307 O 0.64518 0.52645 0.30174 0.0
O308 O 0.66918 0.5274 0.31734 0.0
C309 C 0.68861 0.49349 0.28205 0.0
O310 O 0.64547 0.51806 0.26192 0.0
O311 O 0.66953 0.53001 0.25282 0.0
Eu312 Eu 0.05352 0.0622 0.03535 0.0
Eu313 Eu 0.03079 0.02118 0.02187 0.0
C314 C 0.05673 0.04054 0.9924 0.0
C315 C 0.07434 0.11078 0.03473 0.0
C316 C 0.06403 0.10929 0.01794 0.0
C317 C 0.08652 0.14237 0.03335 0.0
C318 C 0.06473 0.1243 0.00902 0.0
C319 C 0.08575 0.12727 0.04234 0.0
C320 C 0.07584 0.14107 0.0167 0.0
C321 C 0.07262 0.09516 0.04436 0.0
O322 O 0.05955 0.01728 0.02614 0.0
O323 O 0.07211 0.04427 0.04468 0.0
C324 C 0.07331 0.02785 0.03636 0.0
O325 O 0.04009 0.057 0.06195 0.0
O326 O 0.0133 1.0005 1.00131 0.0
O327 O 0.02153 0.99409 0.028 0.0
O328 O 0.02329 0.02835 0.05212 0.0
C329 C 0.02805 0.04311 0.0651 0.0
O330 O 0.02624 0.06765 0.0256 0.0
O331 O 0.00998 0.03849 0.01743 0.0
O332 O 0.04673 0.02572 0.99651 0.0
O333 O 0.05681 0.09024 0.04993 0.0
O334 O 0.07888 0.08124 0.03621 0.0
O335 O 0.05914 0.05613 1.00433 0.0
C336 C 0.01848 0.97073 1.0023 0.0
C337 C 0.03651 0.9686 1.00298 0.0
C338 C 0.00931 0.9389 0.98831 0.0
C339 C 0.04085 0.9515 0.99722 0.0
C340 C 1.00497 0.956 0.99431 0.0
C341 C 0.02722 0.93626 0.9905 0.0
C342 C 0.01366 0.98774 0.01137 0.0
C343 C 0.01091 0.05626 0.0203 0.0
H344 H 0.05512 0.0966 0.01194 0.0
H345 H 0.09531 0.15507 0.03952 0.0
H346 H 0.05604 0.1229 0.99644 0.0
H347 H 0.09383 0.12854 0.05529 0.0
H348 H 0.04714 0.97993 0.00896 0.0
H349 H 0.99854 0.92754 0.98283 0.0
H350 H 0.05476 0.95004 0.9993 0.0
H351 H 0.991 0.95752 0.99347 0.0
Eu352 Eu 0.27253 0.80818 0.27126 0.0
Eu353 Eu 0.2561 0.79884 0.31063 0.0
C354 C 0.23041 0.79615 0.27406 0.0
C355 C 0.28022 0.82633 0.22545 0.0
C356 C 0.2711 0.84109 0.22818 0.0
C357 C 0.28246 0.82987 0.19337 0.0
C358 C 0.26787 0.85033 0.21359 0.0
C359 C 0.28574 0.82071 0.20794 0.0
C360 C 0.27361 0.84487 0.19604 0.0
C361 C 0.28474 0.81695 0.24069 0.0
O362 O 0.25969 0.77198 0.2944 0.0
O363 O 0.27987 0.78108 0.27376 0.0
C364 C 0.27145 0.76866 0.28243 0.0
O365 O 0.29577 0.8156 0.29325 0.0
O366 O 0.237 0.78267 0.32546 0.0
O367 O 0.25662 0.80528 0.34068 0.0
O368 O 0.2853 0.79707 0.31372 0.0
C369 C 0.29854 0.80686 0.30694 0.0
O370 O 0.25942 0.83147 0.28309 0.0
O371 O 0.26445 0.82927 0.31349 0.0
O372 O 0.2327 0.80231 0.29194 0.0
O373 O 0.28927 0.82704 0.25697 0.0
O374 O 0.27447 0.80138 0.24147 0.0
O375 O 0.24401 0.79339 0.26443 0.0
C376 C 0.24986 0.77915 0.35442 0.0
C377 C 0.2605 0.76615 0.34872 0.0
C378 C 0.25082 0.77094 0.38506 0.0
C379 C 0.26625 0.75558 0.3611 0.0
C380 C 0.24502 0.78144 0.37263 0.0
C381 C 0.26158 0.75794 0.37947 0.0
C382 C 0.24458 0.79094 0.34172 0.0
C383 C 0.26196 0.839 0.30061 0.0
H384 H 0.26665 0.84559 0.2416 0.0
H385 H 0.28728 0.82546 0.18012 0.0
H386 H 0.26086 0.86172 0.21603 0.0
H387 H 0.29285 0.80939 0.20561 0.0
H388 H 0.26455 0.76435 0.33475 0.0
H389 H 0.24683 0.77295 0.39903 0.0
H390 H 0.27468 0.74586 0.35641 0.0
H391 H 0.23688 0.79147 0.37729 0.0
Eu392 Eu 0.54581 0.02658 0.53841 0.0
Eu393 Eu 0.50766 0.02894 0.55806 0.0
C394 C 0.54301 0.02454 0.5815 0.0
C395 C 0.59187 0.01593 0.52731 0.0
C396 C 0.59248 1.0053 0.54128 0.0
C397 C 0.62163 0.01106 0.5199 0.0
C398 C 0.60761 0.99753 0.54451 0.0
C399 C 0.60651 0.01877 0.51667 0.0
C400 C 0.62237 1.00034 0.53385 0.0
C401 C 0.57614 0.02421 0.52377 0.0
O402 O 0.52444 0.05717 0.56368 0.0
O403 O 0.54147 0.05531 0.53891 0.0
C404 C 0.53457 0.06492 0.55218 0.0
O405 O 0.52385 0.02224 0.5153 0.0
O406 O 0.49277 0.03964 0.58054 0.0
O407 O 0.47856 0.02057 0.55697 0.0
O408 O 0.50412 0.03781 0.5305 0.0
C409 C 0.51012 0.03073 0.51513 0.0
O410 O 0.53594 0.99883 0.54523 0.0
O411 O 0.5059 0.9999 0.54404 0.0
O412 O 0.52544 0.01953 0.57874 0.0
O413 O 0.56106 0.01289 0.51809 0.0
O414 O 0.57399 0.03782 0.53627 0.0
O415 O 0.55259 0.03154 0.56915 0.0
C416 C 0.46426 0.04413 0.56969 0.0
C417 C 0.46928 0.05995 0.56203 0.0
C418 C 0.43383 0.05005 0.5706 0.0
C419 C 0.45663 0.07074 0.55862 0.0
C420 C 0.44653 0.0393 0.57406 0.0
C421 C 0.43869 0.06582 0.56268 0.0
C422 C 0.47713 0.03198 0.57186 0.0
C423 C 0.51904 0.99063 0.54332 0.0
H424 H 0.58129 1.00306 0.54969 0.0
H425 H 0.63265 0.01328 0.51128 0.0
H426 H 0.60783 0.98952 0.55548 0.0
H427 H 0.60622 0.02693 0.50581 0.0
H428 H 0.48292 0.0638 0.55842 0.0
H429 H 0.4201 0.04571 0.57366 0.0
H430 H 0.46089 0.08291 0.55274 0.0
H431 H 0.4424 0.027 0.57978 0.0
Eu432 Eu 0.27653 0.29784 0.77777 0.0
Eu433 Eu 0.3159 0.28685 0.78332 0.0
C434 C 0.2786 0.25556 0.78294 0.0
C435 C 0.22823 0.30697 0.78011 0.0
C436 C 0.22345 0.29585 0.79328 0.0
C437 C 0.20023 0.31816 0.78258 0.0
C438 C 0.20704 0.29585 0.80104 0.0
C439 C 0.21656 0.31809 0.77479 0.0
C440 C 0.19532 0.30707 0.7958 0.0
C441 C 0.24541 0.30747 0.77198 0.0
O442 O 0.31306 0.29011 0.75337 0.0
O443 O 0.28243 0.28526 0.7496 0.0
C444 C 0.298 0.28628 0.74266 0.0
O445 O 0.2962 0.32371 0.77362 0.0
O446 O 0.33398 0.26819 0.77459 0.0
O447 O 0.34266 0.29044 0.79758 0.0
O448 O 0.32327 0.31808 0.78456 0.0
C449 C 0.31356 0.32946 0.77881 0.0
O450 O 0.2824 0.30368 0.80865 0.0
O451 O 0.30723 0.29045 0.81227 0.0
O452 O 0.29591 0.25932 0.7802 0.0
O453 O 0.25924 0.31817 0.78167 0.0
O454 O 0.24914 0.29184 0.76458 0.0
O455 O 0.26914 0.26886 0.7849 0.0
C456 C 0.36444 0.28195 0.77793 0.0
C457 C 0.36922 0.29872 0.77187 0.0
C458 C 0.39116 0.27249 0.76607 0.0
C459 C 0.3849 0.30235 0.76295 0.0
C460 C 0.37554 0.26893 0.77509 0.0
C461 C 0.39596 0.28918 0.75975 0.0
C462 C 0.34738 0.27739 0.78611 0.0
C463 C 0.29454 0.29861 0.81915 0.0
H464 H 0.23243 0.28728 0.7976 0.0
H465 H 0.19136 0.32677 0.77813 0.0
H466 H 0.20366 0.28731 0.81133 0.0
H467 H 0.22012 0.32675 0.76463 0.0
H468 H 0.36071 0.3089 0.77381 0.0
H469 H 0.39916 0.26191 0.76356 0.0
H470 H 0.38831 0.31542 0.75847 0.0
H471 H 0.37192 0.25584 0.7795 0.0
Eu472 Eu 0.03603 0.06003 0.54032 0.0
Eu473 Eu 0.04909 0.0238 0.52063 0.0
C474 C 0.07316 0.06319 0.52106 0.0
C475 C 0.0237 0.10659 0.54686 0.0
C476 C 0.01712 0.10509 0.52831 0.0
C477 C 0.0299 0.13961 0.54953 0.0
C478 C 0.01705 0.1207 0.52041 0.0
C479 C 0.02982 0.12395 0.5575 0.0
C480 C 0.02375 0.1381 0.53083 0.0
C481 C 0.02594 0.09021 0.55456 0.0
O482 O 0.05474 0.02358 0.55201 0.0
O483 O 0.05497 0.05366 0.56327 0.0
C484 C 0.05884 0.03771 0.56577 0.0
O485 O 0.01726 0.03693 0.54913 0.0
O486 O 0.0671 1.00402 0.51995 0.0
O487 O 0.04604 1.00074 0.49798 0.0
O488 O 0.02018 0.01461 0.52527 0.0
C489 C 0.01137 0.02087 0.5389 0.0
O490 O 0.02194 0.05486 0.51065 0.0
O491 O 0.03925 0.03611 0.49579 0.0
O492 O 0.07323 0.04601 0.52192 0.0
O493 O 0.01469 0.07517 0.54762 0.0
O494 O 0.04246 0.08758 0.55647 0.0
O495 O 0.05877 0.07032 0.52402 0.0
C496 C 0.05203 0.97425 0.50805 0.0
C497 C 0.03553 0.9693 0.51532 0.0
C498 C 0.05777 0.94358 0.50781 0.0
C499 C 0.0302 0.95165 0.51888 0.0
C500 C 0.06305 0.96127 0.50413 0.0
C501 C 0.04136 0.93866 0.5154 0.0
C502 C 0.05809 0.9932 0.50561 0.0
C503 C 0.02678 0.04639 0.49503 0.0
H504 H 0.01258 0.09183 0.51972 0.0
H505 H 0.03506 0.15287 0.55789 0.0
H506 H 0.0125 0.11909 0.50589 0.0
H507 H 0.03508 0.12537 0.57179 0.0
H508 H 0.02694 0.97921 0.51865 0.0
H509 H 0.0666 0.93382 0.50494 0.0
H510 H 0.01765 0.94839 0.52504 0.0
H511 H 0.07587 0.96492 0.49859 0.0
Eu512 Eu 0.31427 0.80556 0.77475 0.0
Eu513 Eu 0.27672 0.78166 0.78213 0.0
C514 C 0.30029 0.80922 0.81531 0.0
C515 C 0.36136 0.81786 0.76123 0.0
C516 C 0.3639 0.79986 0.76095 0.0
C517 C 0.39123 0.82568 0.75126 0.0
C518 C 0.38028 0.79499 0.75666 0.0
C519 C 0.37486 0.8306 0.75581 0.0
C520 C 0.39439 0.808 0.75235 0.0
C521 C 0.34518 0.82353 0.76837 0.0
O522 O 0.26893 0.81006 0.78044 0.0
O523 O 0.29431 0.82529 0.77031 0.0
C524 C 0.27758 0.825 0.7751 0.0
O525 O 0.30648 0.78465 0.7491 0.0
O526 O 0.25427 0.77782 0.79927 0.0
O527 O 0.25475 0.75822 0.77461 0.0
O528 O 0.27622 0.77779 0.75083 0.0
C529 C 0.29042 0.77684 0.74155 0.0
O530 O 0.32294 0.77859 0.78115 0.0
O531 O 0.29556 0.7603 0.78204 0.0
O532 O 0.29127 0.79247 0.81053 0.0
O533 O 0.33092 0.82018 0.75659 0.0
O534 O 0.34158 0.81925 0.78449 0.0
O535 O 0.30812 0.81777 0.80297 0.0
C536 C 0.22721 0.76664 0.78104 0.0
C537 C 0.2258 0.77971 0.76972 0.0
C538 C 0.19466 0.75925 0.77988 0.0
C539 C 0.209 0.78255 0.7635 0.0
C540 C 0.2116 0.75646 0.78619 0.0
C541 C 0.19323 0.77227 0.76837 0.0
C542 C 0.24509 0.76413 0.78754 0.0
C543 C 0.31333 0.76217 0.7819 0.0
H544 H 0.35351 0.78978 0.76492 0.0
H545 H 0.40165 0.83595 0.74764 0.0
H546 H 0.3822 0.78132 0.75789 0.0
H547 H 0.37299 0.8445 0.75573 0.0
H548 H 0.23775 0.78775 0.76568 0.0
H549 H 0.18273 0.75106 0.78375 0.0
H550 H 0.20837 0.79291 0.75495 0.0
H551 H 0.21251 0.74635 0.79498 0.0
Eu552 Eu 0.5459 0.02923 0.03835 0.0
Eu553 Eu 0.54172 0.04407 0.99894 0.0
C554 C 0.53864 0.06877 0.03662 0.0
C555 C 0.53889 0.01633 0.08588 0.0
C556 C 0.52717 0.02844 0.09083 0.0
C557 C 0.53149 1.0017 0.11225 0.0
C558 C 0.51791 0.02738 0.10661 0.0
C559 C 0.54087 1.00287 0.09655 0.0
C560 C 0.52009 0.01409 0.11753 0.0
C561 C 0.54926 0.01773 0.0698 0.0
O562 O 0.57175 0.04559 1.00425 0.0
O563 O 0.57341 0.04546 0.03552 0.0
C564 C 0.58118 0.04806 0.02036 0.0
O565 O 0.55509 0.00939 0.01656 0.0
O566 O 0.53342 0.06439 0.9838 0.0
O567 O 0.54436 0.04192 0.96941 0.0
O568 O 0.53692 0.01342 0.9923 0.0
C569 C 0.54664 1.00345 1.0001 0.0
O570 O 0.51641 0.01918 0.02837 0.0
O571 O 0.51302 0.03721 1.00637 0.0
O572 O 0.54803 0.06797 0.02223 0.0
O573 O 0.54232 1.00705 0.05439 0.0
O574 O 0.55596 0.03425 0.06736 0.0
O575 O 0.53302 0.05399 0.04342 0.0
C576 C 0.55112 0.07023 0.95937 0.0
C577 C 0.56987 0.07196 0.96191 0.0
C578 C 0.55476 0.09164 0.93788 0.0
C579 C 0.58097 0.08299 0.95204 0.0
C580 C 0.54365 0.08044 0.94765 0.0
C581 C 0.57354 0.09267 0.9396 0.0
C582 C 0.53929 0.05744 0.96843 0.0
C583 C 0.50614 0.02582 0.01706 0.0
H584 H 0.52533 0.0388 0.08261 0.0
H585 H 0.53348 0.99141 0.12051 0.0
H586 H 0.50903 0.03694 0.11026 0.0
H587 H 0.54983 0.99339 0.09285 0.0
H588 H 0.57591 0.06431 0.97106 0.0
H589 H 0.54861 0.09914 0.92867 0.0
H590 H 0.59531 0.08322 0.95356 0.0
H591 H 0.5292 0.07943 0.94573 0.0
Eu592 Eu 0.30702 0.30146 0.28846 0.0
Eu593 Eu 0.28557 0.26168 0.26598 0.0
C594 C 0.29555 0.29568 0.24566 0.0
C595 C 0.31628 0.35124 0.3079 0.0
C596 C 0.29775 0.35131 0.30668 0.0
C597 C 0.32229 0.38404 0.30906 0.0
C598 C 0.29152 0.36758 0.30645 0.0
C599 C 0.32854 0.36769 0.30938 0.0
C600 C 0.30371 0.38406 0.30729 0.0
C601 C 0.32259 0.33382 0.30558 0.0
O602 O 0.31435 0.25816 0.26963 0.0
O603 O 0.32803 0.28834 0.27424 0.0
C604 C 0.32865 0.2709 0.27021 0.0
O605 O 0.31049 0.28086 0.30672 0.0
O606 O 0.27203 0.24461 0.24049 0.0
O607 O 0.27423 0.23302 0.26544 0.0
O608 O 0.28385 0.26164 0.29652 0.0
C609 C 0.29721 0.26812 0.30934 0.0
O610 O 0.27829 0.29953 0.2952 0.0
O611 O 0.26388 0.27833 0.27057 0.0
O612 O 0.29686 0.27852 0.2452 0.0
O613 O 0.31399 0.32133 0.31391 0.0
O614 O 0.32516 0.32732 0.28862 0.0
O615 O 0.29453 0.30615 0.26146 0.0
C616 C 0.27849 0.21493 0.23799 0.0
C617 C 0.29589 0.21886 0.23226 0.0
C618 C 0.27982 0.18269 0.23268 0.0
C619 C 0.30542 0.20484 0.22737 0.0
C620 C 0.27027 0.19674 0.23753 0.0
C621 C 0.29777 0.1867 0.22831 0.0
C622 C 0.27044 0.22968 0.24757 0.0
C623 C 0.26357 0.29098 0.28497 0.0
H624 H 0.28806 0.33869 0.3052 0.0
H625 H 0.33196 0.39657 0.30981 0.0
H626 H 0.27714 0.36708 0.30472 0.0
H627 H 0.34288 0.36781 0.31015 0.0
H628 H 0.30254 0.23287 0.2327 0.0
H629 H 0.27361 0.16889 0.23374 0.0
H630 H 0.31914 0.20832 0.22387 0.0
H631 H 0.25694 0.19351 0.24212 0.0
Eu632 Eu 0.53635 0.56151 0.04139 0.0
Eu633 Eu 0.54982 0.52538 0.02159 0.0
C634 C 0.57351 0.56533 0.02225 0.0
C635 C 0.52861 0.60974 0.05017 0.0
C636 C 0.54416 0.61659 0.04214 0.0
C637 C 0.51569 0.63576 0.04413 0.0
C638 C 0.54544 0.63279 0.03508 0.0
C639 C 0.51445 0.61951 0.0513 0.0
C640 C 0.53117 0.64247 0.03581 0.0
C641 C 0.52673 0.59181 0.05607 0.0
O642 O 0.55562 0.5249 0.05282 0.0
O643 O 0.55529 0.55483 0.06423 0.0
C644 C 0.55942 0.53895 0.06665 0.0
O645 O 0.51696 0.53859 0.04962 0.0
O646 O 0.5708 0.50906 0.01722 0.0
O647 O 0.54449 0.49932 1.00256 0.0
O648 O 0.52115 0.51566 0.02687 0.0
C649 C 0.51179 0.52217 0.03992 0.0
O650 O 0.52268 0.55641 0.01147 0.0
O651 O 0.5394 0.53699 0.99657 0.0
O652 O 0.57355 0.54805 0.02263 0.0
O653 O 0.51576 0.57851 0.04538 0.0
O654 O 0.54168 0.58693 0.06118 0.0
O655 O 0.55928 0.57252 0.02576 0.0
C656 C 0.55895 0.47757 0.01348 0.0
C657 C 0.56122 0.47688 0.03243 0.0
C658 C 0.55099 0.44448 1.00688 0.0
C659 C 0.55833 0.46015 0.03856 0.0
C660 C 0.55402 0.46127 1.00072 0.0
C661 C 0.55294 0.4438 0.02589 0.0
C662 C 0.55994 0.49522 1.0072 0.0
C663 C 0.52719 0.54757 0.99586 0.0
H664 H 0.55519 0.60921 0.04088 0.0
H665 H 0.50451 0.64298 0.04492 0.0
H666 H 0.55738 0.63736 0.02843 0.0
H667 H 0.50231 0.61436 0.05734 0.0
H668 H 0.56472 0.48929 0.04257 0.0
H669 H 0.54693 0.43206 0.99683 0.0
H670 H 0.55963 0.46009 0.05331 0.0
H671 H 0.55204 0.46157 0.98606 0.0
Eu672 Eu 0.81441 0.30638 0.27431 0.0
Eu673 Eu 0.77725 0.28219 0.28261 0.0
C674 C 0.80054 0.31035 0.31497 0.0
C675 C 0.86285 0.32063 0.26398 0.0
C676 C 0.86854 0.30508 0.26864 0.0
C677 C 0.89194 0.33 0.25282 0.0
C678 C 0.88607 0.30246 0.26624 0.0
C679 C 0.87442 0.33275 0.25549 0.0
C680 C 0.89823 0.31522 0.25886 0.0
C681 C 0.84555 0.32502 0.26939 0.0
O682 O 0.76896 0.31027 0.27975 0.0
O683 O 0.79446 0.32614 0.27033 0.0
C684 C 0.77759 0.32546 0.27475 0.0
O685 O 0.80544 0.28764 0.24731 0.0
O686 O 0.75296 0.28057 0.29739 0.0
O687 O 0.75803 0.25663 0.27967 0.0
O688 O 0.77604 0.27652 0.25132 0.0
C689 C 0.7896 0.27796 0.24095 0.0
O690 O 0.82344 0.27928 0.27983 0.0
O691 O 0.79646 0.26125 0.28272 0.0
O692 O 0.79226 0.29333 0.31064 0.0
O693 O 0.83205 0.32076 0.25664 0.0
O694 O 0.84103 0.32098 0.28534 0.0
O695 O 0.80749 0.31888 0.30218 0.0
C696 C 0.72809 0.26087 0.28038 0.0
C697 C 0.72531 0.26167 0.26151 0.0
C698 C 0.69582 0.25589 0.28246 0.0
C699 C 0.70791 0.25948 0.25315 0.0
C700 C 0.71329 0.25794 0.29081 0.0
C701 C 0.693 0.25664 0.26354 0.0
C702 C 0.74641 0.2639 0.28932 0.0
C703 C 0.81408 0.26303 0.28151 0.0
H704 H 0.85974 0.29544 0.27506 0.0
H705 H 0.90075 0.33987 0.24669 0.0
H706 H 0.89034 0.29103 0.27131 0.0
H707 H 0.87015 0.34471 0.25161 0.0
H708 H 0.7366 0.26419 0.25328 0.0
H709 H 0.68454 0.25367 0.29075 0.0
H710 H 0.70614 0.26043 0.23863 0.0
H711 H 0.71525 0.25742 0.30543 0.0
Eu712 Eu 0.04441 0.52943 0.5422 0.0
Eu713 Eu 0.04005 0.54463 0.50312 0.0
C714 C 0.0353 0.5691 0.54148 0.0
C715 C 0.03648 0.51472 0.58868 0.0
C716 C 0.01807 0.51536 0.58707 0.0
C717 C 0.03451 0.51071 0.62061 0.0
C718 C 0.0079 0.51354 0.60211 0.0
C719 C 0.04465 0.51243 0.60551 0.0
C720 C 0.016 0.5112 0.61907 0.0
C721 C 0.04721 0.51632 0.57289 0.0
O722 O 0.06892 0.5561 0.51478 0.0
O723 O 0.07266 0.53513 0.53343 0.0
C724 C 0.07942 0.54824 0.52459 0.0
O725 O 0.03992 0.50553 0.51891 0.0
O726 O 0.04048 0.56755 0.4885 0.0
O727 O 0.03354 0.53991 0.47317 0.0
O728 O 0.05304 0.52 0.49688 0.0
C729 C 0.048 0.50507 0.50364 0.0
O730 O 0.01476 0.53009 0.53778 0.0
O731 O 0.01281 0.52771 0.50619 0.0
O732 O 0.02894 0.56355 0.52418 0.0
O733 O 0.03998 0.50659 0.55714 0.0
O734 O 0.05468 0.53282 0.5712 0.0
O735 O 0.04477 0.55953 0.55018 0.0
C736 C 0.04935 0.56252 0.45845 0.0
C737 C 0.06802 0.56457 0.46226 0.0
C738 C 0.05395 0.57167 0.42867 0.0
C739 C 0.07961 0.57028 0.44938 0.0
C740 C 0.04237 0.56606 0.44162 0.0
C741 C 0.07269 0.5739 0.43246 0.0
C742 C 0.03716 0.55727 0.47222 0.0
C743 C 1.00511 0.52657 0.52171 0.0
H744 H 0.01156 0.51716 0.57414 0.0
H745 H 0.04122 0.50924 0.63356 0.0
H746 H 0.99365 0.51376 0.60039 0.0
H747 H 0.05888 0.51201 0.60697 0.0
H748 H 0.0736 0.56184 0.47521 0.0
H749 H 0.04826 0.57448 0.4158 0.0
H750 H 0.09397 0.57161 0.45254 0.0
H751 H 0.02797 0.56461 0.43856 0.0
Eu752 Eu 0.7784 0.79865 0.27722 0.0
Eu753 Eu 0.81724 0.78767 0.28406 0.0
C754 C 0.78074 0.75613 0.2834 0.0
C755 C 0.72883 0.80388 0.27518 0.0
C756 C 0.72424 0.79299 0.28859 0.0
C757 C 0.69876 0.81063 0.27352 0.0
C758 C 0.70697 0.79112 0.29462 0.0
C759 C 0.71598 0.81245 0.26749 0.0
C760 C 0.69418 0.8002 0.28736 0.0
C761 C 0.7472 0.80735 0.26983 0.0
O762 O 0.8088 0.77771 0.25386 0.0
O763 O 0.7907 0.79809 0.24999 0.0
C764 C 0.8001 0.78607 0.24306 0.0
O765 O 0.79762 0.82647 0.2827 0.0
O766 O 0.8354 0.76815 0.28063 0.0
O767 O 0.84554 0.79572 0.29472 0.0
O768 O 0.82377 0.81666 0.27627 0.0
C769 C 0.81465 0.83019 0.27924 0.0
O770 O 0.78026 0.7978 0.30776 0.0
O771 O 0.81049 0.79789 0.31279 0.0
O772 O 0.79803 0.76189 0.28908 0.0
O773 O 0.75927 0.81682 0.28269 0.0
O774 O 0.7528 0.7936 0.26034 0.0
O775 O 0.77134 0.76742 0.27687 0.0
C776 C 0.86414 0.78207 0.27464 0.0
C777 C 0.86004 0.78242 0.25585 0.0
C778 C 0.89591 0.78651 0.2698 0.0
C779 C 0.87373 0.78463 0.24408 0.0
C780 C 0.88214 0.78415 0.28158 0.0
C781 C 0.89181 0.78673 0.25093 0.0
C782 C 0.84966 0.78038 0.28703 0.0
C783 C 0.79481 0.79939 0.31896 0.0
H784 H 0.73412 0.78634 0.29467 0.0
H785 H 0.68909 0.81757 0.26752 0.0
H786 H 0.70384 0.78313 0.30541 0.0
H787 H 0.71939 0.82088 0.2571 0.0
H788 H 0.84623 0.78112 0.25029 0.0
H789 H 0.90973 0.78801 0.27541 0.0
H790 H 0.87019 0.78503 0.22968 0.0
H791 H 0.88552 0.78406 0.29609 0.0
Eu792 Eu 0.77607 0.30684 0.77013 0.0
Eu793 Eu 0.75677 0.29863 0.8081 0.0
C794 C 0.73351 0.29797 0.77052 0.0
C795 C 0.7859 0.32432 0.72491 0.0
C796 C 0.77562 0.33819 0.72737 0.0
C797 C 0.789 0.32876 0.6932 0.0
C798 C 0.77224 0.34744 0.71285 0.0
C799 C 0.79245 0.31961 0.70773 0.0
C800 C 0.77895 0.34285 0.69561 0.0
C801 C 0.79012 0.3148 0.74012 0.0
O802 O 0.75801 0.27142 0.79091 0.0
O803 O 0.78165 0.27938 0.77374 0.0
C804 C 0.77075 0.26711 0.78056 0.0
O805 O 0.79788 0.3145 0.79361 0.0
O806 O 0.73637 0.28294 0.82203 0.0
O807 O 0.75591 0.30513 0.83798 0.0
O808 O 0.78552 0.29556 0.81281 0.0
C809 C 0.79949 0.30553 0.80733 0.0
O810 O 0.76265 0.33044 0.77989 0.0
O811 O 0.76566 0.32912 0.81071 0.0
O812 O 0.73495 0.30386 0.78845 0.0
O813 O 0.7944 0.32489 0.75644 0.0
O814 O 0.77946 0.2994 0.74074 0.0
O815 O 0.74726 0.29342 0.76208 0.0
C816 C 0.74776 0.27901 0.85138 0.0
C817 C 0.76118 0.26855 0.84779 0.0
C818 C 0.74388 0.26765 0.88029 0.0
C819 C 0.76601 0.2578 0.86042 0.0
C820 C 0.73908 0.27842 0.86764 0.0
C821 C 0.75751 0.25729 0.87691 0.0
C822 C 0.74338 0.29104 0.83853 0.0
C823 C 0.76385 0.33836 0.79722 0.0
H824 H 0.77032 0.34193 0.74053 0.0
H825 H 0.79453 0.32505 0.68017 0.0
H826 H 0.7643 0.3581 0.71506 0.0
H827 H 0.80041 0.30894 0.70561 0.0
H828 H 0.76811 0.26892 0.83532 0.0
H829 H 0.73688 0.26739 0.89271 0.0
H830 H 0.7767 0.25022 0.85745 0.0
H831 H 0.72869 0.28641 0.87063 0.0
Eu832 Eu 0.80231 0.81109 0.79076 0.0
Eu833 Eu 0.78036 0.77156 0.76765 0.0
C834 C 0.79094 0.80622 0.74773 0.0
C835 C 0.81429 0.86149 0.80759 0.0
C836 C 0.80696 0.86554 0.7911 0.0
C837 C 0.81037 0.89099 0.8238 0.0
C838 C 0.80131 0.8821 0.79096 0.0
C839 C 0.81616 0.87438 0.8239 0.0
C840 C 0.80273 0.8949 0.80734 0.0
C841 C 0.81832 0.84324 0.80807 0.0
O842 O 0.80877 0.7672 0.7721 0.0
O843 O 0.82282 0.79725 0.77638 0.0
C844 C 0.82323 0.77974 0.7726 0.0
O845 O 0.80588 0.7907 0.80923 0.0
O846 O 0.77271 0.75255 0.74167 0.0
O847 O 0.76186 0.74571 0.76673 0.0
O848 O 0.78028 0.76997 0.79808 0.0
C849 C 0.79333 0.77695 0.81114 0.0
O850 O 0.77342 0.80875 0.79711 0.0
O851 O 0.75967 0.7895 0.77099 0.0
O852 O 0.79097 0.78874 0.7469 0.0
O853 O 0.80644 0.83238 0.81528 0.0
O854 O 0.82348 0.83504 0.79285 0.0
O855 O 0.79101 0.8169 0.76368 0.0
C856 C 0.77027 0.72208 0.74638 0.0
C857 C 0.78809 0.72137 0.74254 0.0
C858 C 0.76571 0.69017 0.74972 0.0
C859 C 0.7948 0.70534 0.74274 0.0
C860 C 0.75898 0.70625 0.74949 0.0
C861 C 0.78384 0.68972 0.74687 0.0
C862 C 0.76423 0.73971 0.74959 0.0
C863 C 0.759 0.80135 0.78593 0.0
H864 H 0.80508 0.85567 0.7784 0.0
H865 H 0.81162 0.90064 0.8366 0.0
H866 H 0.79514 0.88454 0.77815 0.0
H867 H 0.82163 0.87138 0.83678 0.0
H868 H 0.79713 0.73344 0.74025 0.0
H869 H 0.75692 0.67827 0.75277 0.0
H870 H 0.80888 0.70556 0.74076 0.0
H871 H 0.74521 0.70657 0.75255 0.0
Eu872 Eu 0.55271 0.56211 0.5358 0.0
Eu873 Eu 0.53022 0.52105 0.52203 0.0
C874 C 0.55644 0.54073 0.49295 0.0
C875 C 0.5713 0.61095 0.53536 0.0
C876 C 0.56085 0.60854 0.5185 0.0
C877 C 0.58035 0.64311 0.53412 0.0
C878 C 0.55999 0.62331 0.50958 0.0
C879 C 0.58117 0.62822 0.54311 0.0
C880 C 0.56963 0.64079 0.51731 0.0
C881 C 0.57103 0.59539 0.54491 0.0
O882 O 0.55878 0.51692 0.52733 0.0
O883 O 0.5719 0.54452 0.54457 0.0
C884 C 0.57274 0.52775 0.53699 0.0
O885 O 0.53968 0.55633 0.56245 0.0
O886 O 0.51336 0.50046 0.50085 0.0
O887 O 0.52044 0.49393 0.52781 0.0
O888 O 0.52217 0.52813 0.55208 0.0
C889 C 0.52728 0.54261 0.56533 0.0
O890 O 0.52529 0.56738 0.52634 0.0
O891 O 0.50936 0.5382 0.51717 0.0
O892 O 0.54681 0.52575 0.49713 0.0
O893 O 0.55575 0.58979 0.55125 0.0
O894 O 0.57749 0.58189 0.53616 0.0
O895 O 0.55829 0.55636 0.50474 0.0
C896 C 0.51872 0.4707 0.50188 0.0
C897 C 0.5349 0.46593 0.50784 0.0
C898 C 0.51134 0.44189 0.48054 0.0
C899 C 0.53886 0.44895 0.5009 0.0
C900 C 0.50724 0.45884 0.48777 0.0
C901 C 0.52688 0.43641 0.48754 0.0
C902 C 0.51346 0.48762 0.51084 0.0
C903 C 0.51011 0.55594 0.52053 0.0
H904 H 0.55304 0.59527 0.51243 0.0
H905 H 0.58797 0.65641 0.54035 0.0
H906 H 0.55127 0.62112 0.4969 0.0
H907 H 0.58927 0.63021 0.55617 0.0
H908 H 0.54418 0.475 0.51849 0.0
H909 H 0.502 0.43284 0.46996 0.0
H910 H 0.55082 0.44533 0.50695 0.0
H911 H 0.49483 0.46246 0.48275 0.0
Eu912 Eu 0.04934 0.52569 0.03605 0.0
Eu913 Eu 0.01297 0.53408 0.05663 0.0
C914 C 0.04972 0.5348 0.08029 0.0
C915 C 0.09312 0.50845 0.02564 0.0
C916 C 0.10428 0.51462 0.0422 0.0
C917 C 0.11122 0.48535 0.01693 0.0
C918 C 0.11891 0.50632 0.04598 0.0
C919 C 0.09671 0.49374 0.01308 0.0
C920 C 0.12254 0.49161 0.03337 0.0
C921 C 0.07784 0.51719 0.02103 0.0
O922 O 0.02996 0.56135 0.05534 0.0
O923 O 0.04719 0.55394 0.03145 0.0
C924 C 0.04056 0.56595 0.04265 0.0
O925 O 0.02636 0.51957 0.01374 0.0
O926 O 0.99962 0.55041 0.07692 0.0
O927 O 0.98429 0.52634 0.05917 0.0
O928 O 0.00823 0.53824 0.02735 0.0
C929 C 0.01322 0.52875 0.01266 0.0
O930 O 0.03904 0.50182 0.04968 0.0
O931 O 0.00943 0.50384 0.04663 0.0
O932 O 0.03219 0.52934 0.07913 0.0
O933 O 0.06201 0.50666 0.01796 0.0
O934 O 0.07736 0.53321 0.03058 0.0
O935 O 0.05824 0.53787 0.06572 0.0
C936 C 0.97024 0.55196 0.06557 0.0
C937 C 0.96473 0.55156 0.04689 0.0
C938 C 0.95094 0.57387 0.0745 0.0
C939 C 0.95226 0.56204 0.04207 0.0
C940 C 0.96328 0.56321 0.07933 0.0
C941 C 0.94526 0.57332 0.05582 0.0
C942 C 0.98363 0.54119 0.07074 0.0
C943 C 0.02203 0.49413 0.04813 0.0
H944 H 0.10176 0.52587 0.05222 0.0
H945 H 0.11379 0.47417 1.00685 0.0
H946 H 0.1273 0.51132 0.05884 0.0
H947 H 0.08831 0.48878 1.00021 0.0
H948 H 0.97011 0.54322 0.03597 0.0
H949 H 0.94568 0.58237 0.08538 0.0
H950 H 0.94832 0.56154 0.02757 0.0
H951 H 0.96745 0.5638 0.0938 0.0
C952 C 0.02056 0.24405 0.92748 0.0
C953 C 0.02043 0.26181 0.93662 0.0
C954 C 0.02824 0.23197 0.93659 0.0
C955 C 0.03957 0.22191 0.98211 0.0
H956 H 0.0751 0.19728 0.95816 0.0
C957 C 0.07422 0.17418 0.01879 0.0
C958 C 0.07507 0.15731 1.00793 0.0
C959 C 0.07039 0.18861 0.01046 0.0
C960 C 0.06511 0.20395 0.96498 0.0
H961 H 0.02758 0.28078 0.96249 0.0
H962 H 0.04062 0.25949 0.97851 0.0
H963 H 0.06111 0.21829 0.9426 0.0
H964 H 0.07414 0.14286 0.97981 0.0
H965 H 0.06671 0.1677 0.96533 0.0
H966 H 0.04291 0.20716 1.00415 0.0
C967 C 0.03496 0.25499 0.96431 0.0
C968 C 0.05713 0.21594 0.95606 0.0
C969 C 0.02754 0.26713 0.95514 0.0
C970 C 0.0732 0.15558 0.98856 0.0
C971 C 0.06917 0.16993 0.98025 0.0
C972 C 0.04736 0.20975 0.99092 0.0
C973 C 0.03562 0.23742 0.95502 0.0
C974 C 0.04421 0.2249 0.96451 0.0
C975 C 0.06715 0.18641 0.99113 0.0
C976 C 0.06014 0.20052 0.98241 0.0
H977 H 0.01522 0.23967 0.91317 0.0
H978 H 0.02846 0.21839 0.92923 0.0
H979 H 0.02954 0.2286 0.98882 0.0
H980 H 0.07555 0.17595 0.03375 0.0
H981 H 0.06933 0.20129 0.01922 0.0
C982 C 0.11334 0.80226 0.16056 0.0
C983 C 0.09748 0.78905 0.15723 0.0
C984 C 0.12552 0.80287 0.17578 0.0
C985 C 0.14027 0.77357 0.2064 0.0
H986 H 0.16523 0.81935 0.23568 0.0
C987 C 0.20906 0.78197 0.24653 0.0
C988 C 0.21242 0.79312 0.26404 0.0
C989 C 0.19283 0.78044 0.23599 0.0
C990 C 0.15817 0.80645 0.22782 0.0
H991 H 0.08173 0.76634 0.16732 0.0
H992 H 0.10305 0.76737 0.19382 0.0
H993 H 0.14091 0.81944 0.21234 0.0
H994 H 0.20122 0.81095 0.28453 0.0
H995 H 0.17272 0.80842 0.26583 0.0
H996 H 0.1578 0.76062 0.22154 0.0
C997 C 0.10611 0.77717 0.18464 0.0
C998 C 0.14441 0.80652 0.21433 0.0
C999 C 0.0939 0.77662 0.1695 0.0
C1000 C 0.19896 0.80223 0.27109 0.0
C1001 C 0.18273 0.80087 0.26038 0.0
C1002 C 0.15409 0.77351 0.21978 0.0
C1003 C 0.12209 0.79023 0.18787 0.0
C1004 C 0.13555 0.79011 0.20327 0.0
C1005 C 0.17965 0.79015 0.24263 0.0
C1006 C 0.1634 0.78998 0.23036 0.0
H1007 H 0.11641 0.81203 0.15135 0.0
H1008 H 0.13784 0.81294 0.1778 0.0
H1009 H 0.13376 0.76072 0.19801 0.0
H1010 H 0.21915 0.77471 0.24077 0.0
H1011 H 0.1909 0.77222 0.22228 0.0
C1012 C 0.5167 0.85075 0.45034 0.0
C1013 C 0.50083 0.83941 0.44164 0.0
C1014 C 0.51604 0.86415 0.46555 0.0
C1015 C 0.48715 0.89388 0.48557 0.0
H1016 H 0.52316 0.90402 0.52743 0.0
C1017 C 0.49676 0.96131 0.53595 0.0
C1018 C 0.51474 0.97053 0.53859 0.0
C1019 C 0.49263 0.94265 0.52882 0.0
C1020 C 0.51297 0.90132 0.51588 0.0
H1021 H 0.47182 0.83305 0.44199 0.0
H1022 H 0.47066 0.85688 0.46847 0.0
H1023 H 0.52044 0.87589 0.50501 0.0
H1024 H 0.54254 0.96718 0.53715 0.0
H1025 H 0.53535 0.93489 0.52435 0.0
H1026 H 0.48038 0.91973 0.49565 0.0
C1027 C 0.48358 0.85525 0.46355 0.0
C1028 C 0.51142 0.88525 0.50308 0.0
C1029 C 0.48426 0.84168 0.44842 0.0
C1030 C 0.52854 0.96051 0.53517 0.0
C1031 C 0.52441 0.94191 0.52797 0.0
C1032 C 0.48879 0.91002 0.49827 0.0
C1033 C 0.49949 0.86657 0.47225 0.0
C1034 C 0.49893 0.88172 0.48748 0.0
C1035 C 0.5064 0.93291 0.52415 0.0
C1036 C 0.50217 0.91422 0.51318 0.0
H1037 H 0.52966 0.84924 0.44545 0.0
H1038 H 0.52848 0.87292 0.47181 0.0
H1039 H 0.47747 0.89152 0.47359 0.0
H1040 H 0.48582 0.9686 0.5387 0.0
H1041 H 0.47864 0.93601 0.52631 0.0
C1042 C 0.52644 0.28946 0.66894 0.0
C1043 C 0.52569 0.29849 0.6537 0.0
C1044 C 0.51339 0.28998 0.68155 0.0
C1045 C 0.47703 0.31444 0.69729 0.0
H1046 H 0.45965 0.26949 0.71522 0.0
C1047 C 0.41148 0.30127 0.73374 0.0
C1048 C 0.41203 0.29249 0.74923 0.0
C1049 C 0.42619 0.30338 0.72316 0.0
C1050 C 0.46452 0.2822 0.71051 0.0
H1051 H 0.51091 0.31536 0.63978 0.0
H1052 H 0.4878 0.31591 0.66156 0.0
H1053 H 0.4836 0.27051 0.69454 0.0
H1054 H 0.42881 0.27971 0.76613 0.0
H1055 H 0.45435 0.2831 0.74743 0.0
H1056 H 0.45749 0.3259 0.71298 0.0
C1057 C 0.49865 0.30871 0.664 0.0
C1058 C 0.47828 0.28282 0.69869 0.0
C1059 C 0.51183 0.30832 0.65146 0.0
C1060 C 0.4278 0.28622 0.7541 0.0
C1061 C 0.44244 0.28821 0.74343 0.0
C1062 C 0.46314 0.31376 0.70903 0.0
C1063 C 0.49918 0.29938 0.6791 0.0
C1064 C 0.48471 0.29894 0.69192 0.0
C1065 C 0.44171 0.29662 0.72775 0.0
C1066 C 0.45676 0.29763 0.71574 0.0
H1067 H 0.53707 0.2819 0.67111 0.0
H1068 H 0.51444 0.28296 0.69322 0.0
H1069 H 0.48183 0.32714 0.69256 0.0
H1070 H 0.39947 0.30601 0.72941 0.0
H1071 H 0.42518 0.30974 0.71102 0.0
C1072 C 0.02092 0.82395 0.61024 0.0
C1073 C 1.00414 0.81287 0.61091 0.0
C1074 C 0.02348 0.83501 0.59679 0.0
C1075 C 1.00043 0.8592 0.56685 0.0
H1076 H 0.04406 0.86106 0.54152 0.0
C1077 C 0.0186 0.91101 0.51816 0.0
C1078 C 0.03644 0.92061 0.52113 0.0
C1079 C 0.01354 0.8952 0.5257 0.0
C1080 C 0.03184 0.86074 0.5485 0.0
H1081 H 0.97675 0.80485 0.59823 0.0
H1082 H 0.98118 0.82462 0.57476 0.0
H1083 H 0.03697 0.83867 0.56183 0.0
H1084 H 0.06307 0.9209 0.53381 0.0
H1085 H 0.05427 0.8935 0.54707 0.0
H1086 H 0.99567 0.88179 0.55424 0.0
C1087 C 0.99235 0.82456 0.58464 0.0
C1088 C 0.02778 0.84791 0.56008 0.0
C1089 C 0.98983 0.81329 0.59803 0.0
C1090 C 0.04928 0.91366 0.53107 0.0
C1091 C 0.04421 0.89792 0.53866 0.0
C1092 C 1.00456 0.87215 0.55536 0.0
C1093 C 0.00928 0.83536 0.58379 0.0
C1094 C 0.01227 0.84733 0.56973 0.0
C1095 C 0.02621 0.88872 0.5364 0.0
C1096 C 0.02056 0.87337 0.54643 0.0
H1097 H 0.03221 0.82392 0.61998 0.0
H1098 H 0.03658 0.84344 0.59666 0.0
H1099 H 0.98844 0.85909 0.57421 0.0
H1100 H 0.00848 0.91594 0.51033 0.0
H1101 H 0.99963 0.88826 0.52344 0.0
C1102 C 0.51912 0.8013 0.83649 0.0
C1103 C 0.52516 0.78566 0.84048 0.0
C1104 C 0.50831 0.80052 0.82032 0.0
C1105 C 0.47442 0.77075 0.78824 0.0
H1106 H 0.4817 0.81142 0.76145 0.0
C1107 C 0.41565 0.78607 0.74519 0.0
C1108 C 0.41286 0.80384 0.7518 0.0
C1109 C 0.43233 0.78119 0.74881 0.0
C1110 C 0.47957 0.79983 0.76859 0.0
H1111 H 0.52461 0.7569 0.83074 0.0
H1112 H 0.505 0.75541 0.80245 0.0
H1113 H 0.50594 0.80724 0.78282 0.0
H1114 H 0.426 0.83078 0.76603 0.0
H1115 H 0.45485 0.82243 0.77195 0.0
H1116 H 0.44761 0.76414 0.77517 0.0
C1117 C 0.50896 0.76829 0.81184 0.0
C1118 C 0.49342 0.79744 0.7808 0.0
C1119 C 0.52007 0.76913 0.82799 0.0
C1120 C 0.42759 0.81703 0.7605 0.0
C1121 C 0.44425 0.81221 0.76394 0.0
C1122 C 0.46051 0.77318 0.77607 0.0
C1123 C 0.50313 0.78405 0.80782 0.0
C1124 C 0.49061 0.78347 0.79145 0.0
C1125 C 0.44657 0.79407 0.75889 0.0
C1126 C 0.46265 0.78834 0.76691 0.0
H1127 H 0.52286 0.81425 0.84581 0.0
H1128 H 0.50368 0.81279 0.81778 0.0
H1129 H 0.47191 0.75989 0.79632 0.0
H1130 H 0.4047 0.77567 0.73805 0.0
H1131 H 0.43382 0.76716 0.74454 0.0
C1132 C 0.50577 0.21872 0.08438 0.0
C1133 C 0.4924 0.22049 0.09664 0.0
C1134 C 0.50701 0.2016 0.07467 0.0
C1135 C 0.49927 0.15517 0.08256 0.0
H1136 H 0.51351 0.14378 0.03288 0.0
C1137 C 0.51812 0.08569 0.05485 0.0
C1138 C 0.53248 0.08587 0.04358 0.0
C1139 C 0.51107 0.10148 0.05991 0.0
C1140 C 0.5097 0.14682 0.04685 0.0
H1141 H 0.4689 0.20612 0.10718 0.0
H1142 H 0.47118 0.17612 0.09028 0.0
H1143 H 0.50352 0.17263 0.04266 0.0
H1144 H 0.55106 0.10279 0.02922 0.0
H1145 H 0.53922 0.13051 0.03864 0.0
H1146 H 0.50623 0.12993 0.08718 0.0
C1147 C 0.48074 0.18796 0.0883 0.0
C1148 C 0.50384 0.16325 0.05236 0.0
C1149 C 0.47939 0.20512 0.09788 0.0
C1150 C 0.53995 0.10223 0.03787 0.0
C1151 C 0.53302 0.11806 0.04309 0.0
C1152 C 0.50529 0.13886 0.07714 0.0
C1153 C 0.49497 0.18597 0.07719 0.0
C1154 C 0.49881 0.16766 0.07035 0.0
C1155 C 0.51834 0.11782 0.05398 0.0
C1156 C 0.51085 0.13462 0.05931 0.0
H1157 H 0.51592 0.23038 0.08312 0.0
H1158 H 0.51816 0.20043 0.06625 0.0
H1159 H 0.49578 0.1584 0.09664 0.0
H1160 H 0.51196 0.07323 0.05931 0.0
H1161 H 0.49964 0.10075 0.06814 0.0
C1162 C 0.11909 0.27768 0.3514 0.0
C1163 C 0.11975 0.28918 0.36852 0.0
C1164 C 0.13443 0.27786 0.34171 0.0
C1165 C 0.1839 0.29224 0.34734 0.0
H1166 H 0.1786 0.29221 0.2945 0.0
C1167 C 0.24544 0.30699 0.3072 0.0
C1168 C 0.24605 0.29397 0.29141 0.0
C1169 C 0.2294 0.30758 0.31543 0.0
C1170 C 0.18024 0.29215 0.30923 0.0
H1171 H 0.13699 0.30951 0.3892 0.0
H1172 H 0.16364 0.30997 0.37226 0.0
H1173 H 0.15196 0.28961 0.31182 0.0
H1174 H 0.22998 0.27233 0.27102 0.0
H1175 H 0.20195 0.2734 0.28547 0.0
H1176 H 0.21214 0.29487 0.34479 0.0
C1177 C 0.1514 0.30065 0.36637 0.0
C1178 C 0.16501 0.29056 0.31913 0.0
C1179 C 0.13611 0.30043 0.37606 0.0
C1180 C 0.23 0.28247 0.28323 0.0
C1181 C 0.21391 0.28309 0.29148 0.0
C1182 C 0.19909 0.29392 0.33748 0.0
C1183 C 0.15067 0.28956 0.34897 0.0
C1184 C 0.1667 0.29063 0.3383 0.0
C1185 C 0.21363 0.29521 0.30802 0.0
C1186 C 0.19742 0.29396 0.31835 0.0
H1187 H 0.10664 0.26886 0.34528 0.0
H1188 H 0.13353 0.26894 0.32847 0.0
H1189 H 0.18563 0.29202 0.36203 0.0
H1190 H 0.25751 0.31622 0.31372 0.0
H1191 H 0.22944 0.31732 0.32797 0.0
C1192 C 0.93603 0.05152 0.20691 0.0
C1193 C 0.94559 0.05824 0.2245 0.0
C1194 C 0.94483 0.04986 0.19018 0.0
C1195 C 0.99061 0.06338 0.16996 0.0
H1196 H 0.9675 0.02941 0.1267 0.0
C1197 C 0.02318 0.06029 0.09753 0.0
C1198 C 0.01916 0.04441 0.08371 0.0
C1199 C 0.01454 0.06184 0.11435 0.0
C1200 C 0.97449 0.03895 0.13851 0.0
H1201 H 0.97263 0.06839 0.23734 0.0
H1202 H 0.98781 0.06539 0.20881 0.0
H1203 H 0.95277 0.03196 0.15528 0.0
H1204 H 1.00218 0.01762 0.07786 0.0
H1205 H 0.98756 0.02008 0.10672 0.0
H1206 H 0.01252 0.07005 0.15333 0.0
C1207 C 0.97331 0.06156 0.20765 0.0
C1208 C 0.96572 0.04064 0.15525 0.0
C1209 C 0.96449 0.06322 0.22436 0.0
C1210 C 1.00597 0.03015 0.08779 0.0
C1211 C 0.99731 0.03169 0.10462 0.0
C1212 C 0.99939 0.06169 0.15322 0.0
C1213 C 0.9638 0.0548 0.18993 0.0
C1214 C 0.97344 0.05292 0.1716 0.0
C1215 C 1.00124 0.04762 0.1185 0.0
C1216 C 0.99165 0.04942 0.13687 0.0
H1217 H 0.92154 0.04749 0.20598 0.0
H1218 H 0.93649 0.04485 0.17734 0.0
H1219 H 0.99742 0.07323 0.18164 0.0
H1220 H 0.03302 0.07181 0.09531 0.0
H1221 H 0.01818 0.07457 0.12397 0.0
C1222 C 0.31103 0.6813 0.50392 0.0
C1223 C 0.30808 0.66216 0.49937 0.0
C1224 C 0.30775 0.69186 0.49053 0.0
C1225 C 0.30071 0.69115 0.44005 0.0
H1226 H 0.27388 0.72952 0.45513 0.0
C1227 C 0.26797 0.72832 0.38754 0.0
C1228 C 0.26809 0.74709 0.39284 0.0
C1229 C 0.27386 0.71813 0.40024 0.0
C1230 C 0.28161 0.71906 0.45071 0.0
H1231 H 0.30007 0.63913 0.47703 0.0
H1232 H 0.29435 0.65759 0.45362 0.0
H1233 H 0.283 0.71169 0.47761 0.0
H1234 H 0.27508 0.76996 0.41548 0.0
H1235 H 0.28549 0.75228 0.43755 0.0
H1236 H 0.29928 0.69854 0.4131 0.0
C1237 C 0.29927 0.66444 0.46753 0.0
C1238 C 0.28684 0.70881 0.46363 0.0
C1239 C 0.3025 0.65385 0.48096 0.0
C1240 C 0.27449 0.75546 0.41105 0.0
C1241 C 0.28045 0.7453 0.42371 0.0
C1242 C 0.29554 0.70147 0.42711 0.0
C1243 C 0.30149 0.68355 0.47226 0.0
C1244 C 0.29643 0.69471 0.45847 0.0
C1245 C 0.2801 0.72646 0.41853 0.0
C1246 C 0.28588 0.71555 0.43227 0.0
H1247 H 0.31538 0.68812 0.51797 0.0
H1248 H 0.30989 0.70657 0.49456 0.0
H1249 H 0.30824 0.6805 0.43567 0.0
H1250 H 0.26296 0.72142 0.37367 0.0
H1251 H 0.27316 0.70361 0.39581 0.0
C1252 C 0.63003 0.0287 0.72761 0.0
C1253 C 0.64784 0.03428 0.72357 0.0
C1254 C 0.61629 0.02252 0.71329 0.0
C1255 C 0.60784 1.00627 0.66275 0.0
H1256 H 0.56781 0.03211 0.66622 0.0
C1257 C 0.5713 0.02283 0.5996 0.0
C1258 C 0.55256 0.02168 0.59857 0.0
C1259 C 0.58056 0.02011 0.61553 0.0
C1260 C 0.57866 0.02445 0.66517 0.0
H1261 H 0.66542 0.037 0.70154 0.0
H1262 H 0.64155 0.02624 0.67665 0.0
H1263 H 0.58864 0.03436 0.69346 0.0
H1264 H 0.52877 0.01658 0.61341 0.0
H1265 H 0.54515 0.01207 0.64157 0.0
H1266 H 0.59835 0.99706 0.63426 0.0
C1267 C 0.63815 0.02652 0.69079 0.0
C1268 C 0.59058 0.02573 0.68076 0.0
C1269 C 0.6518 0.03283 0.70505 0.0
C1270 C 0.54323 0.01759 0.61382 0.0
C1271 C 0.55257 0.01503 0.62991 0.0
C1272 C 0.59595 1.005 0.6472 0.0
C1273 C 0.62021 0.02162 0.69475 0.0
C1274 C 0.60567 0.01722 0.67949 0.0
C1275 C 0.57133 0.01626 0.63088 0.0
C1276 C 0.58166 0.01466 0.64808 0.0
H1277 H 0.62663 0.02967 0.7418 0.0
H1278 H 0.60258 0.01875 0.71671 0.0
H1279 H 0.61917 0.9993 0.66149 0.0
H1280 H 0.5789 0.02582 0.58806 0.0
H1281 H 0.59506 0.02146 0.61598 0.0
C1282 C 0.31441 0.34953 0.98796 0.0
C1283 C 0.3007 0.35843 0.99476 0.0
C1284 C 0.3133 0.34136 0.96931 0.0
C1285 C 0.29161 0.34438 0.92387 0.0
H1286 H 0.30625 0.29817 0.90726 0.0
C1287 C 0.2802 0.31057 0.84734 0.0
C1288 C 0.29428 0.30295 0.83956 0.0
C1289 C 0.28055 0.31594 0.86647 0.0
C1290 C 0.30226 0.31117 0.91167 0.0
H1291 H 0.27476 0.36511 0.98754 0.0
H1292 H 0.27273 0.35075 0.95525 0.0
H1293 H 0.3078 0.31004 0.94039 0.0
H1294 H 0.31958 0.29452 0.84597 0.0
H1295 H 0.32028 0.3041 0.87934 0.0
H1296 H 0.28624 0.3457 0.89531 0.0
C1297 C 0.28451 0.35034 0.96415 0.0
C1298 C 0.30316 0.31797 0.93066 0.0
C1299 C 0.28562 0.35848 0.98271 0.0
C1300 C 0.30848 0.30033 0.85146 0.0
C1301 C 0.30886 0.30576 0.87063 0.0
C1302 C 0.29075 0.33762 0.90496 0.0
C1303 C 0.29846 0.34197 0.95711 0.0
C1304 C 0.29774 0.33462 0.93698 0.0
C1305 C 0.29503 0.31389 0.87835 0.0
C1306 C 0.29597 0.3209 0.89859 0.0
H1307 H 0.32621 0.3493 0.99692 0.0
H1308 H 0.32432 0.33512 0.96431 0.0
H1309 H 0.28771 0.35744 0.92822 0.0
H1310 H 0.26895 0.31265 0.83865 0.0
H1311 H 0.26949 0.32181 0.87195 0.0
C1312 C 0.93631 0.0581 0.3461 0.0
C1313 C 0.94605 0.06187 0.33086 0.0
C1314 C 0.94498 0.05665 0.36342 0.0
C1315 C 0.99061 0.05226 0.38718 0.0
H1316 H 0.96675 0.06125 0.43194 0.0
C1317 C 0.0219 0.03898 0.45915 0.0
C1318 C 0.01787 0.04845 0.47618 0.0
C1319 C 0.01346 0.04069 0.44179 0.0
C1320 C 0.97394 0.05878 0.41978 0.0
H1321 H 0.97324 0.06707 0.32283 0.0
H1322 H 0.98824 0.06489 0.35261 0.0
H1323 H 0.95237 0.06447 0.40252 0.0
H1324 H 1.00126 0.06748 0.48729 0.0
H1325 H 0.98698 0.07068 0.45763 0.0
H1326 H 0.01237 0.04698 0.40452 0.0
C1327 C 0.9737 0.06273 0.35128 0.0
C1328 C 0.96538 0.06042 0.40246 0.0
C1329 C 0.965 0.06416 0.33394 0.0
C1330 C 1.00494 0.05979 0.47482 0.0
C1331 C 0.99651 0.06153 0.45748 0.0
C1332 C 0.99917 0.05062 0.4045 0.0
C1333 C 0.96397 0.05889 0.36661 0.0
C1334 C 0.97341 0.0572 0.38555 0.0
C1335 C 1.00045 0.05201 0.44036 0.0
C1336 C 0.99113 0.05382 0.42141 0.0
H1337 H 0.92176 0.05606 0.34462 0.0
H1338 H 0.93653 0.0534 0.37424 0.0
H1339 H 0.99759 0.04936 0.37494 0.0
H1340 H 0.03161 0.03001 0.45917 0.0
H1341 H 0.01705 0.03276 0.42944 0.0
C1342 C 0.30545 0.66014 0.60899 0.0
C1343 C 0.30065 0.66423 0.59157 0.0
C1344 C 0.3029 0.67158 0.62527 0.0
C1345 C 0.27773 0.70786 0.64356 0.0
H1346 H 0.31635 0.72063 0.68293 0.0
C1347 C 0.27346 0.75243 0.71576 0.0
C1348 C 0.28907 0.76524 0.72294 0.0
C1349 C 0.27354 0.73981 0.69947 0.0
C1350 C 0.30543 0.71725 0.67205 0.0
H1351 H 0.28919 0.68342 0.57764 0.0
H1352 H 0.28478 0.70327 0.6059 0.0
H1353 H 0.31904 0.69888 0.65541 0.0
H1354 H 0.31668 0.77538 0.71792 0.0
H1355 H 0.31671 0.75368 0.68982 0.0
H1356 H 0.26428 0.72654 0.66019 0.0
C1357 C 0.29039 0.6912 0.60705 0.0
C1358 C 0.3069 0.7046 0.65634 0.0
C1359 C 0.29306 0.67987 0.59083 0.0
C1360 C 0.30443 0.76563 0.71299 0.0
C1361 C 0.30452 0.75306 0.69688 0.0
C1362 C 0.27619 0.72043 0.65939 0.0
C1363 C 0.29535 0.68728 0.62451 0.0
C1364 C 0.29318 0.69989 0.64176 0.0
C1365 C 0.28926 0.7397 0.69012 0.0
C1366 C 0.29016 0.7255 0.67371 0.0
H1367 H 0.31127 0.64817 0.61005 0.0
H1368 H 0.30673 0.66805 0.63847 0.0
H1369 H 0.26681 0.7044 0.63269 0.0
H1370 H 0.26143 0.75167 0.72308 0.0
H1371 H 0.26153 0.7297 0.69461 0.0
C1372 C 0.64954 0.09187 0.80815 0.0
C1373 C 0.66765 0.08999 0.80942 0.0
C1374 C 0.64199 0.09981 0.82355 0.0
C1375 C 0.62904 0.12101 0.85681 0.0
H1376 H 0.6412 0.10216 0.90106 0.0
C1377 C 0.57922 0.10058 0.90835 0.0
C1378 C 0.58518 0.10211 0.92711 0.0
C1379 C 0.59109 0.1064 0.89578 0.0
C1380 C 0.63792 0.10798 0.88902 0.0
H1381 H 0.69242 0.09601 0.82739 0.0
H1382 H 0.67933 0.11023 0.85426 0.0
H1383 H 0.65936 0.09862 0.87511 0.0
H1384 H 0.60788 0.11265 0.94765 0.0
H1385 H 0.62876 0.1224 0.92551 0.0
H1386 H 0.60677 0.12918 0.87045 0.0
C1387 C 0.67084 0.10519 0.84148 0.0
C1388 C 0.64836 0.10596 0.87408 0.0
C1389 C 0.67835 0.0971 0.82609 0.0
C1390 C 0.60296 0.11086 0.93322 0.0
C1391 C 0.6149 0.11655 0.92059 0.0
C1392 C 0.61849 0.1229 0.87172 0.0
C1393 C 0.65244 0.10618 0.84054 0.0
C1394 C 0.64363 0.1118 0.85752 0.0
C1395 C 0.60922 0.11377 0.90165 0.0
C1396 C 0.62245 0.11578 0.8877 0.0
H1397 H 0.64097 0.08655 0.79545 0.0
H1398 H 0.62773 0.10006 0.82233 0.0
H1399 H 0.62528 0.12606 0.84441 0.0
H1400 H 0.56571 0.09373 0.90306 0.0
H1401 H 0.58637 0.10386 0.88124 0.0
C1402 C 0.30183 0.34584 0.09404 0.0
C1403 C 0.30291 0.36476 0.09514 0.0
C1404 C 0.30062 0.33793 0.11004 0.0
C1405 C 0.28809 0.34629 0.15817 0.0
H1406 H 0.3164 0.30952 0.16576 0.0
C1407 C 0.29564 0.32196 0.2285 0.0
C1408 C 0.29569 0.3033 0.22825 0.0
C1409 C 0.29611 0.32914 0.21207 0.0
C1410 C 0.30821 0.3196 0.16377 0.0
H1411 H 0.3036 0.39022 0.11384 0.0
H1412 H 0.3016 0.37648 0.14166 0.0
H1413 H 0.31785 0.32238 0.13734 0.0
H1414 H 0.29608 0.27753 0.21046 0.0
H1415 H 0.29664 0.28999 0.18187 0.0
H1416 H 0.27843 0.34353 0.18456 0.0
C1417 C 0.30148 0.36769 0.12847 0.0
C1418 C 0.30906 0.32697 0.14746 0.0
C1419 C 0.30275 0.37559 0.11252 0.0
C1420 C 0.2961 0.29199 0.21119 0.0
C1421 C 0.29654 0.29916 0.19477 0.0
C1422 C 0.28721 0.33889 0.17445 0.0
C1423 C 0.30038 0.34877 0.12744 0.0
C1424 C 0.29908 0.34049 0.14451 0.0
C1425 C 0.29661 0.31784 0.19499 0.0
C1426 C 0.29732 0.32551 0.17751 0.0
H1427 H 0.30189 0.33714 0.08083 0.0
H1428 H 0.29964 0.32329 0.10875 0.0
H1429 H 0.28 0.35646 0.15621 0.0
H1430 H 0.2954 0.33108 0.2414 0.0
H1431 H 0.29639 0.34363 0.2128 0.0
C1432 C 0.2128 0.96918 1.00465 0.0
C1433 C 0.22915 0.9797 0.01334 0.0
C1434 C 0.1964 0.97497 1.00755 0.0
C1435 C 0.17482 1.00642 0.04009 0.0
H1436 H 0.13664 0.99516 1.0003 0.0
C1437 C 0.10692 0.03347 0.04531 0.0
C1438 C 0.09113 0.02175 0.03664 0.0
C1439 C 0.12391 0.02857 0.04333 0.0
C1440 C 0.14704 0.99825 0.01168 0.0
H1441 H 0.24095 1.00482 0.03181 0.0
H1442 H 0.2124 0.01515 0.03662 0.0
H1443 H 0.16574 0.98696 0.99467 0.0
H1444 H 0.08105 0.99528 0.01958 0.0
H1445 H 0.11039 0.98676 0.01635 0.0
H1446 H 0.15602 0.01787 0.05703 0.0
C1447 C 0.2122 1.00221 0.02773 0.0
C1448 C 0.16384 0.99352 0.00844 0.0
C1449 C 0.22865 0.99638 0.02483 0.0
C1450 C 0.09281 1.00474 0.02647 0.0
C1451 C 0.10974 0.9999 0.02445 0.0
C1452 C 0.15799 0.01123 0.04331 0.0
C1453 C 0.19576 0.99153 0.01923 0.0
C1454 C 0.178 0.99736 0.02261 0.0
C1455 C 0.12561 0.01186 0.03254 0.0
C1456 C 0.14377 1.00707 0.02919 0.0
H1457 H 0.21259 0.95619 0.99583 0.0
H1458 H 0.18415 0.96614 1.00095 0.0
H1459 H 0.1852 0.00944 0.05147 0.0
H1460 H 0.10626 0.04672 0.05314 0.0
H1461 H 0.13576 0.03821 0.04971 0.0
C1462 C 0.72553 0.64478 0.01078 0.0
C1463 C 0.72859 0.6639 0.01265 0.0
C1464 C 0.70808 0.63485 0.01019 0.0
C1465 C 0.66269 0.63925 0.02346 0.0
H1466 H 0.64856 0.59298 0.99009 0.0
C1467 C 0.59109 0.59589 0.01872 0.0
C1468 C 0.59025 0.5771 0.01852 0.0
C1469 C 0.60727 0.6071 0.01638 0.0
C1470 C 0.65233 0.60582 0.99957 0.0
H1471 H 0.71579 0.68763 0.01531 0.0
H1472 H 0.68524 0.67025 0.0142 0.0
H1473 H 0.67816 0.61148 0.98921 0.0
H1474 H 0.60574 0.55531 0.01524 0.0
H1475 H 0.63383 0.57481 0.01128 0.0
H1476 H 0.63694 0.63346 0.034 0.0
C1477 C 0.69636 0.66295 0.01334 0.0
C1478 C 0.6693 0.61642 0.99908 0.0
C1479 C 0.71384 0.6729 0.01389 0.0
C1480 C 0.60585 0.56971 0.01546 0.0
C1481 C 0.62198 0.58089 0.01308 0.0
C1482 C 0.6457 0.62865 0.02396 0.0
C1483 C 0.69328 0.6438 0.01148 0.0
C1484 C 0.67479 0.63313 0.0112 0.0
C1485 C 0.62294 0.59975 0.0137 0.0
C1486 C 0.64042 0.61168 0.01219 0.0
H1487 H 0.73663 0.63746 0.00983 0.0
H1488 H 0.70622 0.62014 0.00903 0.0
H1489 H 0.66656 0.65197 0.03312 0.0
H1490 H 0.57932 0.60203 0.02091 0.0
H1491 H 0.60751 0.62154 0.01669 0.0
C1492 C 0.71622 0.4773 0.28671 0.0
C1493 C 0.69774 0.47621 0.28109 0.0
C1494 C 0.72456 0.46148 0.28591 0.0
C1495 C 0.71431 0.40777 0.27747 0.0
H1496 H 0.76604 0.41306 0.27845 0.0
C1497 C 0.75041 0.34267 0.27989 0.0
C1498 C 0.7682 0.3425 0.27475 0.0
C1499 C 0.74203 0.35845 0.28052 0.0
C1500 C 0.75153 0.41088 0.278 0.0
H1501 H 0.67403 0.45614 0.27003 0.0
H1502 H 0.68815 0.42918 0.26845 0.0
H1503 H 0.75195 0.43977 0.27942 0.0
H1504 H 0.79059 0.36036 0.26624 0.0
H1505 H 0.77635 0.38716 0.26706 0.0
H1506 H 0.71387 0.37884 0.27573 0.0
C1507 C 0.6965 0.44232 0.27381 0.0
C1508 C 0.7432 0.42671 0.2788 0.0
C1509 C 0.68819 0.45815 0.27461 0.0
C1510 C 0.77698 0.35929 0.27026 0.0
C1511 C 0.76862 0.37509 0.2709 0.0
C1512 C 0.72264 0.39194 0.2767 0.0
C1513 C 0.71505 0.4433 0.27943 0.0
C1514 C 0.72424 0.42584 0.27856 0.0
C1515 C 0.75079 0.37536 0.2761 0.0
C1516 C 0.7416 0.39281 0.27693 0.0
H1517 H 0.72444 0.49058 0.29189 0.0
H1518 H 0.73865 0.46371 0.29072 0.0
H1519 H 0.69983 0.40563 0.27739 0.0
H1520 H 0.7428 0.33047 0.28366 0.0
H1521 H 0.72855 0.35728 0.28486 0.0
C1522 C 0.83754 0.49466 0.51085 0.0
C1523 C 0.83054 0.47808 0.51649 0.0
C1524 C 0.85626 0.50082 0.51166 0.0
C1525 C 0.89995 0.49334 0.5332 0.0
H1526 H 0.92074 0.518 0.49494 0.0
C1527 C 0.97641 0.52252 0.53761 0.0
C1528 C 0.98508 0.5216 0.52115 0.0
C1529 C 0.95761 0.51807 0.53717 0.0
C1530 C 0.91523 0.51099 0.50568 0.0
H1531 H 0.83786 0.45495 0.52726 0.0
H1532 H 0.8701 0.46536 0.52832 0.0
H1533 H 0.88819 0.50863 0.49387 0.0
H1534 H 0.9805 0.51514 0.49125 0.0
H1535 H 0.94785 0.50696 0.49047 0.0
H1536 H 0.92692 0.49504 0.54466 0.0
C1537 C 0.86131 0.47394 0.52366 0.0
C1538 C 0.89644 0.50583 0.50521 0.0
C1539 C 0.84271 0.46786 0.52293 0.0
C1540 C 0.97436 0.51607 0.50423 0.0
C1541 C 0.95554 0.5115 0.50378 0.0
C1542 C 0.91869 0.4984 0.53362 0.0
C1543 C 0.86845 0.49053 0.51808 0.0
C1544 C 0.88849 0.4968 0.5189 0.0
C1545 C 0.94683 0.51241 0.52025 0.0
C1546 C 0.92669 0.50726 0.51985 0.0
H1547 H 0.82857 0.50286 0.5058 0.0
H1548 H 0.86115 0.51375 0.50741 0.0
H1549 H 0.89447 0.48671 0.5442 0.0
H1550 H 0.98414 0.52684 0.55093 0.0
H1551 H 0.95153 0.5193 0.55017 0.0
C1552 C 0.38414 0.08626 0.28607 0.0
C1553 C 0.37795 0.06735 0.28136 0.0
C1554 C 0.37649 0.09826 0.27679 0.0
C1555 C 0.33504 0.10181 0.25074 0.0
H1556 H 0.36458 0.14364 0.23611 0.0
C1557 C 0.30235 0.15436 0.21941 0.0
C1558 C 0.30917 0.17255 0.2277 0.0
C1559 C 0.31197 0.14057 0.22187 0.0
C1560 C 0.35615 0.13203 0.24013 0.0
H1561 H 0.35899 0.0461 0.26325 0.0
H1562 H 0.34557 0.06707 0.24716 0.0
H1563 H 0.37891 0.1214 0.24933 0.0
H1564 H 0.3318 0.19063 0.24436 0.0
H1565 H 0.34841 0.16672 0.24869 0.0
H1566 H 0.3123 0.1127 0.24228 0.0
C1567 C 0.35628 0.07262 0.25803 0.0
C1568 C 0.36436 0.11934 0.24772 0.0
C1569 C 0.36399 0.06064 0.26723 0.0
C1570 C 0.32626 0.17681 0.23753 0.0
C1571 C 0.33582 0.16305 0.24004 0.0
C1572 C 0.32684 0.11454 0.24326 0.0
C1573 C 0.36246 0.09154 0.26272 0.0
C1574 C 0.35387 0.10428 0.25339 0.0
C1575 C 0.32853 0.14471 0.23274 0.0
C1576 C 0.3373 0.12998 0.23819 0.0
H1577 H 0.39491 0.0918 0.29689 0.0
H1578 H 0.38135 0.11281 0.28085 0.0
H1579 H 0.32662 0.09042 0.25515 0.0
H1580 H 0.28932 0.15072 0.21157 0.0
H1581 H 0.30615 0.1266 0.21578 0.0
C1582 C 0.31706 0.1504 0.5402 0.0
C1583 C 0.31736 0.15901 0.5246 0.0
C1584 C 0.33003 0.13999 0.54372 0.0
C1585 C 0.37565 0.13321 0.53276 0.0
H1586 H 0.36238 0.08861 0.55268 0.0
C1587 C 0.42495 0.08398 0.54169 0.0
C1588 C 0.425 0.07679 0.55822 0.0
C1589 C 0.41186 0.09395 0.53728 0.0
C1590 C 0.36632 0.10112 0.54729 0.0
H1591 H 0.3313 0.16327 0.50028 0.0
H1592 H 0.35381 0.14484 0.50625 0.0
H1593 H 0.33926 0.1057 0.5451 0.0
H1594 H 0.41149 0.07482 0.58325 0.0
H1595 H 0.38858 0.0921 0.57547 0.0
H1596 H 0.40272 0.12853 0.5349 0.0
C1597 C 0.34372 0.14637 0.51594 0.0
C1598 C 0.35308 0.11093 0.54294 0.0
C1599 C 0.33077 0.15683 0.51245 0.0
C1600 C 0.41168 0.0799 0.57027 0.0
C1601 C 0.39855 0.08981 0.56582 0.0
C1602 C 0.38889 0.12335 0.53704 0.0
C1603 C 0.34356 0.1379 0.53168 0.0
C1604 C 0.35759 0.12715 0.53573 0.0
C1605 C 0.39847 0.0969 0.54925 0.0
C1606 C 0.38438 0.10725 0.54445 0.0
H1607 H 0.30694 0.15189 0.54987 0.0
H1608 H 0.32964 0.1339 0.55611 0.0
H1609 H 0.37964 0.14578 0.5275 0.0
H1610 H 0.43481 0.08159 0.53193 0.0
H1611 H 0.41201 0.09904 0.5243 0.0
C1612 C 0.69061 0.59676 0.28658 0.0
C1613 C 0.70037 0.58244 0.28724 0.0
C1614 C 0.69924 0.61504 0.2862 0.0
C1615 C 0.74491 0.64784 0.29508 0.0
H1616 H 0.72047 0.6783 0.26864 0.0
C1617 C 0.78151 0.72297 0.28846 0.0
C1618 C 0.7716 0.73629 0.28418 0.0
C1619 C 0.77312 0.70458 0.28882 0.0
C1620 C 0.72767 0.67038 0.27644 0.0
H1621 H 0.72754 0.57713 0.2881 0.0
H1622 H 0.7425 0.60865 0.28766 0.0
H1623 H 0.70604 0.6471 0.26948 0.0
H1624 H 0.74439 0.73966 0.27711 0.0
H1625 H 0.72991 0.70844 0.27824 0.0
H1626 H 0.76641 0.67109 0.30234 0.0
C1627 C 0.72798 0.60582 0.28748 0.0
C1628 C 0.71919 0.65205 0.27687 0.0
C1629 C 0.7193 0.58746 0.28765 0.0
C1630 C 0.7528 0.73017 0.28041 0.0
C1631 C 0.74437 0.71183 0.28093 0.0
C1632 C 0.75333 0.66625 0.29481 0.0
C1633 C 0.71821 0.62018 0.28664 0.0
C1634 C 0.72753 0.64017 0.28618 0.0
C1635 C 0.75424 0.69833 0.28508 0.0
C1636 C 0.74502 0.67819 0.28546 0.0
H1637 H 0.67608 0.59384 0.28623 0.0
H1638 H 0.69087 0.62525 0.28581 0.0
H1639 H 0.75204 0.6397 0.3027 0.0
H1640 H 0.79597 0.72668 0.29138 0.0
H1641 H 0.78174 0.6952 0.29182 0.0
C1642 C 0.85112 0.4841 0.82398 0.0
C1643 C 0.85298 0.49374 0.80916 0.0
C1644 C 0.83621 0.47032 0.82388 0.0
C1645 C 0.80442 0.43731 0.79083 0.0
H1646 H 0.78283 0.42515 0.83489 0.0
C1647 C 0.76049 0.36782 0.78744 0.0
C1648 C 0.7657 0.35838 0.80124 0.0
C1649 C 0.76557 0.38675 0.78964 0.0
C1650 C 0.78868 0.42841 0.82246 0.0
H1651 H 0.84031 0.49726 0.78307 0.0
H1652 H 0.81419 0.4732 0.78291 0.0
H1653 H 0.80284 0.45458 0.83635 0.0
H1654 H 0.77892 0.36141 0.82882 0.0
H1655 H 0.7883 0.39438 0.83244 0.0
H1656 H 0.79119 0.41095 0.77711 0.0
C1657 C 0.82437 0.47613 0.7945 0.0
C1658 C 0.80013 0.44523 0.8233 0.0
C1659 C 0.83931 0.4899 0.79459 0.0
C1660 C 0.77475 0.36834 0.81793 0.0
C1661 C 0.78004 0.38727 0.82003 0.0
C1662 C 0.79307 0.42053 0.79 0.0
C1663 C 0.82286 0.46595 0.80895 0.0
C1664 C 0.80851 0.44961 0.8076 0.0
C1665 C 0.77619 0.39657 0.80556 0.0
C1666 C 0.78546 0.41565 0.80592 0.0
H1667 H 0.86143 0.48685 0.83544 0.0
H1668 H 0.83556 0.46256 0.8351 0.0
H1669 H 0.81086 0.44013 0.77855 0.0
H1670 H 0.75322 0.36049 0.77455 0.0
H1671 H 0.762 0.39357 0.77843 0.0
C1672 C 0.07156 0.83434 0.07129 0.0
C1673 C 0.0647 0.81554 0.0684 0.0
C1674 C 0.07084 0.84409 0.0567 0.0
C1675 C 0.04362 0.84135 0.01303 0.0
H1676 H 0.07588 0.88696 0.01203 0.0
C1677 C 0.01981 0.90403 0.99576 0.0
C1678 C 0.03137 0.91757 0.98885 0.0
C1679 C 0.02535 0.88793 0.99852 0.0
C1680 C 0.06693 0.87404 0.0117 0.0
H1681 H 0.05298 0.79187 0.04782 0.0
H1682 H 0.05215 0.80877 0.02227 0.0
H1683 H 0.08486 0.86573 0.03086 0.0
H1684 H 0.05707 0.92386 0.97749 0.0
H1685 H 0.06688 0.89569 0.98258 0.0
H1686 H 0.02553 0.84985 0.9942 0.0
C1687 C 0.05759 0.81613 0.03586 0.0
C1688 C 0.07197 0.86199 0.02275 0.0
C1689 C 0.05809 0.80645 0.05048 0.0
C1690 C 0.048 0.91388 0.98322 0.0
C1691 C 0.0536 0.89775 0.98609 0.0
C1692 C 0.03865 0.85332 1.00188 0.0
C1693 C 0.06344 0.83516 0.03889 0.0
C1694 C 0.06 0.84593 0.02423 0.0
C1695 C 0.04262 0.88497 0.9945 0.0
C1696 C 0.04985 0.87021 1.00184 0.0
H1697 H 0.07675 0.84164 0.08498 0.0
H1698 H 0.07524 0.85877 0.05964 0.0
H1699 H 0.034 0.82914 0.01381 0.0
H1700 H 0.00703 0.90641 1.00051 0.0
H1701 H 0.01661 0.87853 1.00524 0.0
C1702 C 0.94148 0.28415 0.87984 0.0
C1703 C 0.95695 0.29566 0.87601 0.0
C1704 C 0.9247 0.28457 0.8712 0.0
C1705 C 0.90111 0.31527 0.84913 0.0
H1706 H 0.86457 0.27176 0.83373 0.0
C1707 C 0.83289 0.31581 0.81011 0.0
C1708 C 0.81761 0.3054 0.81577 0.0
C1709 C 0.85009 0.31465 0.81713 0.0
C1710 C 0.87461 0.28403 0.83813 0.0
H1711 H 0.9672 0.31602 0.85958 0.0
H1712 H 0.93792 0.31653 0.84427 0.0
H1713 H 0.89452 0.26892 0.8456 0.0
H1714 H 0.80838 0.28591 0.83355 0.0
H1715 H 0.8384 0.28403 0.84587 0.0
H1716 H 0.88118 0.33038 0.84167 0.0
C1717 C 0.93869 0.30746 0.85421 0.0
C1718 C 0.89174 0.28241 0.8449 0.0
C1719 C 0.95546 0.30708 0.86289 0.0
C1720 C 0.81987 0.29409 0.82887 0.0
C1721 C 0.83706 0.29289 0.83583 0.0
C1722 C 0.884 0.31689 0.84231 0.0
C1723 C 0.92309 0.29646 0.85854 0.0
C1724 C 0.90514 0.29802 0.85056 0.0
C1725 C 0.85233 0.30302 0.82989 0.0
C1726 C 0.87056 0.3013 0.83686 0.0
H1727 H 0.94225 0.27522 0.88992 0.0
H1728 H 0.91291 0.27605 0.87496 0.0
H1729 H 0.91105 0.32759 0.85369 0.0
H1730 H 0.83162 0.32464 0.80002 0.0
H1731 H 0.86165 0.32252 0.81223 0.0
C1732 C 0.56964 0.23229 0.5795 0.0
C1733 C 0.55708 0.23852 0.59109 0.0
C1734 C 0.56746 0.21381 0.5718 0.0
C1735 C 0.53352 0.1711 0.56202 0.0
H1736 H 0.57465 0.14719 0.56564 0.0
C1737 C 0.52665 0.09499 0.56438 0.0
C1738 C 0.53762 0.08495 0.55385 0.0
C1739 C 0.52921 0.11389 0.56579 0.0
C1740 C 0.56312 0.15374 0.56425 0.0
H1741 H 0.53239 0.23045 0.60362 0.0
H1742 H 0.52874 0.19825 0.59046 0.0
H1743 H 0.57883 0.1804 0.57371 0.0
H1744 H 0.55988 0.0868 0.53653 0.0
H1745 H 0.56454 0.12007 0.5393 0.0
H1746 H 0.51772 0.14438 0.55328 0.0
C1747 C 0.54009 0.20761 0.58703 0.0
C1748 C 0.5655 0.17273 0.56883 0.0
C1749 C 0.54226 0.22603 0.59471 0.0
C1750 C 0.55123 0.0942 0.54475 0.0
C1751 C 0.55393 0.11319 0.54635 0.0
C1752 C 0.53114 0.15215 0.55754 0.0
C1753 C 0.55268 0.20129 0.57554 0.0
C1754 C 0.55063 0.18153 0.56825 0.0
C1755 C 0.54288 0.12317 0.55683 0.0
C1756 C 0.54584 0.14328 0.5591 0.0
H1757 H 0.58116 0.24168 0.57644 0.0
H1758 H 0.57731 0.20933 0.56289 0.0
H1759 H 0.52188 0.17756 0.56104 0.0
H1760 H 0.51597 0.08825 0.57146 0.0
H1761 H 0.52067 0.12131 0.57418 0.0
C1762 C 0.55649 0.81477 0.36304 0.0
C1763 C 0.54692 0.79815 0.36647 0.0
C1764 C 0.57166 0.81508 0.3531 0.0
C1765 C 0.59524 0.78569 0.32156 0.0
H1766 H 0.63698 0.82318 0.34014 0.0
C1767 C 0.66652 0.78323 0.29839 0.0
C1768 C 0.67646 0.79967 0.29489 0.0
C1769 C 0.65008 0.783 0.30609 0.0
C1770 C 0.62536 0.81276 0.33467 0.0
H1771 H 0.54547 0.76881 0.36205 0.0
H1772 H 0.57211 0.76936 0.34501 0.0
H1773 H 0.60924 0.82302 0.3553 0.0
H1774 H 0.67709 0.82876 0.29677 0.0
H1775 H 0.64833 0.82833 0.31005 0.0
H1776 H 0.61158 0.77528 0.30112 0.0
C1777 C 0.56777 0.78213 0.3497 0.0
C1778 C 0.60946 0.81268 0.34331 0.0
C1779 C 0.55258 0.78182 0.35955 0.0
C1780 C 0.66961 0.81584 0.29911 0.0
C1781 C 0.65326 0.81564 0.30689 0.0
C1782 C 0.61119 0.78572 0.31296 0.0
C1783 C 0.57757 0.79877 0.3465 0.0
C1784 C 0.59424 0.79914 0.33688 0.0
C1785 C 0.64339 0.79925 0.31055 0.0
C1786 C 0.6264 0.79924 0.31946 0.0
H1787 H 0.55236 0.82756 0.36815 0.0
H1788 H 0.57878 0.82809 0.35062 0.0
H1789 H 0.58366 0.77522 0.31614 0.0
H1790 H 0.67145 0.77055 0.29516 0.0
H1791 H 0.64279 0.7702 0.30891 0.0
C1792 C 0.04059 0.24977 0.42599 0.0
C1793 C 0.05833 0.25944 0.42716 0.0
C1794 C 0.03562 0.23773 0.43819 0.0
C1795 C 0.04888 0.22687 0.48359 0.0
H1796 H 0.02085 0.17889 0.46394 0.0
C1797 C 0.04186 0.16707 0.52431 0.0
C1798 C 0.02562 0.15439 0.52168 0.0
C1799 C 0.04451 0.1812 0.51401 0.0
C1800 C 0.02839 0.19234 0.46974 0.0
H1801 H 0.08476 0.26418 0.44202 0.0
H1802 H 0.07608 0.24307 0.46329 0.0
H1803 H 0.02815 0.20084 0.44332 0.0
H1804 H 0.99905 0.14713 0.50699 0.0
H1805 H 1.00353 0.17199 0.48918 0.0
H1806 H 0.04922 0.21834 0.51 0.0
C1807 C 0.06599 0.24492 0.45305 0.0
C1808 C 0.03262 0.2049 0.45789 0.0
C1809 C 0.07099 0.25689 0.44079 0.0
C1810 C 0.01179 0.15658 0.50912 0.0
C1811 C 0.01439 0.17077 0.49889 0.0
C1812 C 0.04458 0.21434 0.49547 0.0
C1813 C 0.04826 0.2352 0.45186 0.0
C1814 C 0.04307 0.22222 0.46465 0.0
C1815 C 0.03093 0.183 0.50091 0.0
C1816 C 0.03444 0.19685 0.48864 0.0
H1817 H 0.03054 0.25152 0.41566 0.0
H1818 H 0.02182 0.23054 0.43706 0.0
H1819 H 0.05674 0.24023 0.48923 0.0
H1820 H 0.05285 0.16558 0.53371 0.0
H1821 H 0.05749 0.19021 0.51575 0.0
C1822 C 0.5557 0.24933 0.16536 0.0
C1823 C 0.54443 0.26136 0.17204 0.0
C1824 C 0.57109 0.24811 0.17608 0.0
C1825 C 0.59226 0.25713 0.22366 0.0
H1826 H 0.63634 0.2571 0.19936 0.0
C1827 C 0.6625 0.26517 0.263 0.0
C1828 C 0.67466 0.25505 0.25463 0.0
C1829 C 0.64585 0.26504 0.25369 0.0
C1830 C 0.6241 0.25681 0.20631 0.0
H1831 H 0.54021 0.28135 0.19524 0.0
H1832 H 0.56727 0.27925 0.21403 0.0
H1833 H 0.60876 0.25884 0.18164 0.0
H1834 H 0.67862 0.23605 0.2305 0.0
H1835 H 0.64949 0.2356 0.21433 0.0
H1836 H 0.60768 0.25508 0.24837 0.0
C1837 C 0.56409 0.27071 0.20053 0.0
C1838 C 0.60831 0.25786 0.19616 0.0
C1839 C 0.5487 0.27198 0.18976 0.0
C1840 C 0.6696 0.24422 0.23713 0.0
C1841 C 0.65296 0.24401 0.22787 0.0
C1842 C 0.60809 0.25601 0.23384 0.0
C1843 C 0.57551 0.25887 0.19371 0.0
C1844 C 0.59223 0.25796 0.2047 0.0
C1845 C 0.64107 0.25473 0.23587 0.0
C1846 C 0.62415 0.25577 0.22523 0.0
H1847 H 0.55269 0.24091 0.15178 0.0
H1848 H 0.57952 0.23869 0.17057 0.0
H1849 H 0.58 0.25703 0.23055 0.0
H1850 H 0.66614 0.27376 0.27643 0.0
H1851 H 0.63704 0.27356 0.26015 0.0
C1852 C 0.56114 0.84763 0.93418 0.0
C1853 C 0.56071 0.84427 0.91482 0.0
C1854 C 0.56006 0.86497 0.94355 0.0
C1855 C 0.56455 0.91344 0.93717 0.0
H1856 H 0.53786 0.91753 0.98063 0.0
C1857 C 0.54384 0.98044 0.97108 0.0
C1858 C 0.54817 0.98526 0.99028 0.0
C1859 C 0.54558 0.96326 0.96184 0.0
C1860 C 0.54542 0.91655 0.96856 0.0
H1861 H 0.55862 0.8562 0.89 0.0
H1862 H 0.55605 0.88621 0.90622 0.0
H1863 H 0.54049 0.8874 0.96451 0.0
H1864 H 0.55749 0.97584 0.01491 0.0
H1865 H 0.5602 0.94571 0.99875 0.0
H1866 H 0.56897 0.94266 0.94104 0.0
C1867 C 0.55778 0.87572 0.91429 0.0
C1868 C 0.54704 0.89932 0.95938 0.0
C1869 C 0.55913 0.85848 0.90497 0.0
C1870 C 0.5541 0.97253 1.00009 0.0
C1871 C 0.55557 0.95527 0.99089 0.0
C1872 C 0.56269 0.93064 0.94621 0.0
C1873 C 0.55825 0.8792 0.9337 0.0
C1874 C 0.55665 0.89754 0.94358 0.0
C1875 C 0.5514 0.95053 0.97169 0.0
C1876 C 0.55316 0.93233 0.96199 0.0
H1877 H 0.56247 0.83692 0.9421 0.0
H1878 H 0.5608 0.86723 0.95851 0.0
H1879 H 0.57234 0.91263 0.92528 0.0
H1880 H 0.53928 0.99 0.96317 0.0
H1881 H 0.54219 0.95983 0.94702 0.0
C1882 C 0.9428 0.75604 0.67498 0.0
C1883 C 0.95514 0.77259 0.67721 0.0
C1884 C 0.92924 0.75371 0.68691 0.0
C1885 C 0.91751 0.77191 0.73322 0.0
H1886 H 0.86839 0.75144 0.71331 0.0
C1887 C 0.85605 0.78744 0.76936 0.0
C1888 C 0.84011 0.77434 0.76676 0.0
C1889 C 0.87129 0.78364 0.76097 0.0
C1890 C 0.88209 0.75676 0.71917 0.0
H1891 H 0.96283 0.79979 0.6934 0.0
H1892 H 0.93898 0.79582 0.71412 0.0
H1893 H 0.89242 0.75236 0.69268 0.0
H1894 H 0.8281 0.74641 0.75469 0.0
H1895 H 0.85484 0.73976 0.7399 0.0
H1896 H 0.90708 0.77683 0.75962 0.0
C1897 C 0.93997 0.78454 0.70333 0.0
C1898 C 0.89584 0.75737 0.70732 0.0
C1899 C 0.95349 0.7869 0.69136 0.0
C1900 C 0.84013 0.75685 0.75678 0.0
C1901 C 0.8554 0.75306 0.74825 0.0
C1902 C 0.90377 0.77126 0.74506 0.0
C1903 C 0.92783 0.76787 0.70134 0.0
C1904 C 0.91359 0.76543 0.71416 0.0
C1905 C 0.87091 0.76665 0.74977 0.0
C1906 C 0.88585 0.76416 0.73807 0.0
H1907 H 0.94381 0.74475 0.66422 0.0
H1908 H 0.9201 0.7407 0.6851 0.0
H1909 H 0.93115 0.77782 0.73891 0.0
H1910 H 0.85654 0.80099 0.77716 0.0
H1911 H 0.88297 0.79445 0.76231 0.0
C1912 C 0.12482 0.03253 0.83561 0.0
C1913 C 0.14212 0.02779 0.83499 0.0
C1914 C 0.11581 0.03417 0.85224 0.0
C1915 C 0.11473 0.02061 0.90049 0.0
H1916 H 0.08546 0.05765 0.91108 0.0
C1917 C 0.06815 0.0224 0.96371 0.0
C1918 C 0.06602 0.03936 0.97401 0.0
C1919 C 0.07733 0.02114 0.94722 0.0
C1920 C 0.09356 0.04716 0.90858 0.0
H1921 H 0.16297 0.02091 0.85251 0.0
H1922 H 0.14732 0.02316 0.88092 0.0
H1923 H 0.10093 0.05515 0.88262 0.0
H1924 H 0.07247 0.06842 0.9738 0.0
H1925 H 0.08774 0.06625 0.94512 0.0
H1926 H 0.10712 0.01243 0.92628 0.0
C1927 C 0.14061 0.02581 0.8685 0.0
C1928 C 0.10248 0.04561 0.89189 0.0
C1929 C 0.14977 0.02457 0.85197 0.0
C1930 C 0.0735 0.055 0.96663 0.0
C1931 C 0.08236 0.05372 0.94988 0.0
C1932 C 0.10549 0.02191 0.91697 0.0
C1933 C 0.12336 0.03077 0.86922 0.0
C1934 C 0.11345 0.03234 0.88733 0.0
C1935 C 0.0847 0.03674 0.9397 0.0
C1936 C 0.09467 0.03528 0.92162 0.0
H1937 H 0.11818 0.0352 0.82316 0.0
H1938 H 0.10264 0.03786 0.85163 0.0
H1939 H 0.12274 0.01006 0.89795 0.0
H1940 H 0.06289 0.00988 0.96857 0.0
H1941 H 0.07843 1.0077 0.94018 0.0
C1942 C 0.76588 0.41027 0.55547 0.0
C1943 C 0.77016 0.42942 0.55805 0.0
C1944 C 0.7656 0.4012 0.57062 0.0
C1945 C 0.76289 0.40725 0.62119 0.0
H1946 H 0.7855 0.36461 0.61702 0.0
C1947 C 0.77798 0.37205 0.68355 0.0
C1948 C 0.77586 0.35291 0.68025 0.0
C1949 C 0.77622 0.38157 0.66888 0.0
C1950 C 0.7789 0.37633 0.61835 0.0
H1951 H 0.77713 0.45412 0.57853 0.0
H1952 H 0.77674 0.43823 0.6051 0.0
H1953 H 0.78438 0.38093 0.59111 0.0
H1954 H 0.76939 0.32868 0.65911 0.0
H1955 H 0.76615 0.34521 0.63356 0.0
H1956 H 0.75745 0.4026 0.6485 0.0
C1957 C 0.77347 0.43025 0.59133 0.0
C1958 C 0.77828 0.38571 0.60348 0.0
C1959 C 0.77378 0.43935 0.57613 0.0
C1960 C 0.77143 0.34345 0.66205 0.0
C1961 C 0.7696 0.35294 0.64741 0.0
C1962 C 0.76348 0.39782 0.63609 0.0
C1963 C 0.7696 0.41106 0.58872 0.0
C1964 C 0.77023 0.40124 0.60469 0.0
C1965 C 0.77225 0.37213 0.6506 0.0
C1966 C 0.77145 0.3822 0.63482 0.0
H1967 H 0.76293 0.40223 0.54171 0.0
H1968 H 0.76228 0.38642 0.56815 0.0
H1969 H 0.75645 0.41907 0.62248 0.0
H1970 H 0.78158 0.37974 0.69741 0.0
H1971 H 0.77854 0.39634 0.67181 0.0
C1972 C 0.42735 0.0499 0.37297 0.0
C1973 C 0.43291 0.04046 0.35692 0.0
C1974 C 0.43634 0.05037 0.39027 0.0
C1975 C 0.46429 0.02382 0.41341 0.0
H1976 H 0.47413 0.06633 0.4523 0.0
C1977 C 0.50759 0.02516 0.48052 0.0
C1978 C 0.50149 0.03271 0.49718 0.0
C1979 C 0.49946 0.02697 0.46357 0.0
C1980 C 0.47131 0.05431 0.44161 0.0
H1981 H 0.45276 0.02498 0.34619 0.0
H1982 H 0.46859 0.02607 0.37621 0.0
H1983 H 0.45981 0.0685 0.42223 0.0
H1984 H 0.48213 0.04828 0.50908 0.0
H1985 H 0.46784 0.05129 0.4794 0.0
H1986 H 0.47569 0.00959 0.43267 0.0
C1987 C 0.45706 0.03273 0.37556 0.0
C1988 C 0.46312 0.05556 0.42442 0.0
C1989 C 0.44805 0.03221 0.35835 0.0
C1990 C 0.48715 0.04227 0.4965 0.0
C1991 C 0.47903 0.04411 0.47951 0.0
C1992 C 0.47246 0.02258 0.43053 0.0
C1993 C 0.45105 0.04144 0.39176 0.0
C1994 C 0.45963 0.04034 0.4101 0.0
C1995 C 0.48504 0.03639 0.46287 0.0
C1996 C 0.47615 0.03782 0.44479 0.0
H1997 H 0.41569 0.05637 0.37224 0.0
H1998 H 0.43136 0.05712 0.40251 0.0
H1999 H 0.46141 0.01172 0.40281 0.0
H2000 H 0.51866 0.0178 0.48053 0.0
H2001 H 0.50456 0.0211 0.45097 0.0
C2002 C 0.78143 0.7384 0.0734 0.0
C2003 C 0.78684 0.72149 0.06873 0.0
C2004 C 0.78371 0.74748 0.09179 0.0
C2005 C 0.8103 0.75054 0.13611 0.0
H2006 H 0.77007 0.76781 0.15869 0.0
C2007 C 0.80893 0.76714 0.21509 0.0
C2008 C 0.80033 0.78131 0.22272 0.0
C2009 C 0.80826 0.76181 0.19594 0.0
C2010 C 0.78157 0.76339 0.15256 0.0
H2011 H 0.79902 0.7009 0.07958 0.0
H2012 H 0.80314 0.71677 0.1115 0.0
H2013 H 0.76706 0.75511 0.12574 0.0
H2014 H 0.78475 0.80137 0.21613 0.0
H2015 H 0.78392 0.79233 0.18268 0.0
H2016 H 0.82485 0.75876 0.16278 0.0
C2017 C 0.79717 0.72306 0.10101 0.0
C2018 C 0.77981 0.75608 0.13367 0.0
C2019 C 0.7947 0.71391 0.08273 0.0
C2020 C 0.79144 0.79033 0.21072 0.0
C2021 C 0.79086 0.78506 0.19152 0.0
C2022 C 0.81212 0.75799 0.15493 0.0
C2023 C 0.79168 0.73991 0.10576 0.0
C2024 C 0.79404 0.74925 0.12534 0.0
C2025 C 0.7991 0.7706 0.18388 0.0
C2026 C 0.79767 0.76418 0.1635 0.0
H2027 H 0.77532 0.74455 0.06288 0.0
H2028 H 0.77941 0.76049 0.09506 0.0
H2029 H 0.8216 0.74565 0.12999 0.0
H2030 H 0.81588 0.75985 0.22391 0.0
H2031 H 0.81453 0.75043 0.19062 0.0
C2032 C 0.12414 0.01562 0.72384 0.0
C2033 C 0.14236 0.02395 0.72901 0.0
C2034 C 0.11517 0.0167 0.70649 0.0
C2035 C 0.11846 0.04338 0.6659 0.0
H2036 H 0.08094 1.00404 0.64105 0.0
C2037 C 0.07472 0.05111 0.5985 0.0
C2038 C 0.06811 0.03577 0.58452 0.0
C2039 C 0.08353 0.04953 0.61571 0.0
C2040 C 0.09143 0.01526 0.64756 0.0
H2041 H 0.165 0.04015 0.71899 0.0
H2042 H 0.14966 0.04213 0.68935 0.0
H2043 H 0.09618 1.00156 0.67057 0.0
H2044 H 0.06602 1.0064 0.57876 0.0
H2045 H 0.08099 1.0036 0.60841 0.0
H2046 H 0.11377 0.05707 0.64293 0.0
C2047 C 0.14206 0.03472 0.69868 0.0
C2048 C 0.1002 0.01389 0.6649 0.0
C2049 C 0.15106 0.03346 0.7159 0.0
C2050 C 0.07071 0.01869 0.58883 0.0
C2051 C 0.07936 0.01707 0.60615 0.0
C2052 C 0.10955 0.04485 0.6487 0.0
C2053 C 0.12382 0.02638 0.6934 0.0
C2054 C 0.11406 0.02789 0.6746 0.0
C2055 C 0.08613 0.03246 0.62012 0.0
C2056 C 0.09577 0.03082 0.63893 0.0
H2057 H 0.1167 0.00819 0.73328 0.0
H2058 H 0.1012 0.01013 0.70354 0.0
H2059 H 0.12877 0.05473 0.67251 0.0
H2060 H 0.07318 0.06459 0.59615 0.0
H2061 H 0.0881 0.06187 0.62572 0.0
C2062 C 0.76924 0.40116 0.46033 0.0
C2063 C 0.77621 0.41992 0.46183 0.0
C2064 C 0.77184 0.38874 0.44488 0.0
C2065 C 0.8024 0.3829 0.40815 0.0
H2066 H 0.76399 0.34393 0.38405 0.0
C2067 C 0.80868 0.33951 0.33771 0.0
C2068 C 0.79998 0.32111 0.33366 0.0
C2069 C 0.80642 0.35064 0.35416 0.0
C2070 C 0.77498 0.35452 0.3908 0.0
H2071 H 0.79114 0.44036 0.44813 0.0
H2072 H 0.79574 0.41865 0.42114 0.0
H2073 H 0.75818 0.36542 0.41053 0.0
H2074 H 0.78257 0.29985 0.34422 0.0
H2075 H 0.77895 0.31922 0.37327 0.0
H2076 H 0.81928 0.37198 0.38865 0.0
C2077 C 0.78833 0.41355 0.43198 0.0
C2078 C 0.7716 0.36691 0.40593 0.0
C2079 C 0.78557 0.42601 0.44737 0.0
C2080 C 0.78949 0.31394 0.34689 0.0
C2081 C 0.78726 0.32512 0.36346 0.0
C2082 C 0.80582 0.37043 0.39313 0.0
C2083 C 0.78164 0.39474 0.43063 0.0
C2084 C 0.78522 0.38137 0.41467 0.0
C2085 C 0.79546 0.34373 0.36718 0.0
C2086 C 0.79212 0.35618 0.38408 0.0
H2087 H 0.762 0.39601 0.47125 0.0
H2088 H 0.76662 0.37435 0.44436 0.0
H2089 H 0.81329 0.39365 0.41479 0.0
H2090 H 0.81684 0.34557 0.32787 0.0
H2091 H 0.81276 0.3649 0.35631 0.0
C2092 C 0.44769 0.03593 0.2601 0.0
C2093 C 0.43502 0.02139 0.26394 0.0
C2094 C 0.45788 0.03345 0.24502 0.0
C2095 C 0.4575 1.00374 0.20007 0.0
H2096 H 0.50682 0.02937 0.20249 0.0
C2097 C 0.50193 0.99685 0.13871 0.0
C2098 C 0.51089 0.0135 0.13468 0.0
C2099 C 0.4933 0.99641 0.15497 0.0
C2100 C 0.49304 0.02218 0.20163 0.0
H2101 H 0.42336 0.99272 0.25534 0.0
H2102 H 0.44144 0.98825 0.22912 0.0
H2103 H 0.4909 0.03075 0.23043 0.0
H2104 H 0.51818 0.04266 0.14455 0.0
H2105 H 0.5031 0.04189 0.17294 0.0
H2106 H 0.45972 0.99523 0.17121 0.0
C2107 C 0.44327 1.00167 0.23758 0.0
C2108 C 0.48391 0.02299 0.21759 0.0
C2109 C 0.43299 1.00419 0.25264 0.0
C2110 C 0.51121 0.02966 0.14725 0.0
C2111 C 0.50276 0.0292 0.16356 0.0
C2112 C 0.4667 1.00282 0.18413 0.0
C2113 C 0.45571 0.01632 0.23351 0.0
C2114 C 0.46592 0.01407 0.21693 0.0
C2115 C 0.4937 0.01258 0.16756 0.0
C2116 C 0.48444 0.0123 0.1847 0.0
H2117 H 0.44949 0.04937 0.26853 0.0
H2118 H 0.46711 0.0451 0.24211 0.0
H2119 H 0.44359 0.9969 0.19902 0.0
H2120 H 0.50142 0.98421 0.12919 0.0
H2121 H 0.48645 0.98341 0.15778 0.0
C2122 C 0.77526 0.70569 0.94929 0.0
C2123 C 0.78478 0.71555 0.96581 0.0
C2124 C 0.77642 0.71277 0.93286 0.0
C2125 C 0.80521 0.74504 0.90971 0.0
H2126 H 0.76178 0.74168 0.87774 0.0
C2127 C 0.80478 0.77904 0.84432 0.0
C2128 C 0.79334 0.76969 0.82874 0.0
C2129 C 0.80408 0.77265 0.86118 0.0
C2130 C 0.77408 0.74251 0.88635 0.0
H2131 H 0.80304 0.74055 0.97808 0.0
H2132 H 0.80517 0.75292 0.94926 0.0
H2133 H 0.75983 0.73034 0.90693 0.0
H2134 H 0.77253 0.74598 0.81856 0.0
H2135 H 0.77162 0.73463 0.84774 0.0
H2136 H 0.81953 0.75694 0.88902 0.0
C2137 C 0.79683 0.73968 0.94906 0.0
C2138 C 0.77294 0.73606 0.90313 0.0
C2139 C 0.79554 0.73265 0.96556 0.0
C2140 C 0.78144 0.75361 0.83031 0.0
C2141 C 0.78083 0.74716 0.84712 0.0
C2142 C 0.80638 0.75139 0.89285 0.0
C2143 C 0.78724 0.72982 0.93254 0.0
C2144 C 0.78849 0.73718 0.91496 0.0
C2145 C 0.792 0.7567 0.86284 0.0
C2146 C 0.79083 0.75013 0.8809 0.0
H2147 H 0.76687 0.69246 0.94903 0.0
H2148 H 0.76904 0.70475 0.92033 0.0
H2149 H 0.81745 0.74591 0.91844 0.0
H2150 H 0.81405 0.79152 0.84363 0.0
H2151 H 0.81273 0.78048 0.87302 0.0
C2152 C 0.87401 0.12412 0.04254 0.0
C2153 C 0.85746 0.11198 0.03774 0.0
C2154 C 0.89042 0.11818 0.04002 0.0
C2155 C 0.91103 0.07618 0.03257 0.0
H2156 H 0.95061 0.10863 0.01705 0.0
C2157 C 0.97713 0.05139 0.01362 0.0
C2158 C 0.99363 0.06343 0.01926 0.0
C2159 C 0.96067 0.05745 0.01495 0.0
C2160 C 0.93981 0.09941 0.02158 0.0
H2161 H 0.84539 0.08393 0.02653 0.0
H2162 H 0.87395 0.07355 0.022 0.0
H2163 H 0.92195 0.11856 0.02138 0.0
H2164 H 1.00543 0.09164 0.03034 0.0
H2165 H 0.9768 0.1022 0.03269 0.0
H2166 H 0.92888 0.05706 0.03284 0.0
C2167 C 0.87429 0.08769 0.02795 0.0
C2168 C 0.92327 0.10514 0.0241 0.0
C2169 C 0.85784 0.09365 0.03048 0.0
C2170 C 0.9931 0.08193 0.0257 0.0
C2171 C 0.97658 0.08801 0.02705 0.0
C2172 C 0.92756 0.07046 0.03006 0.0
C2173 C 0.89089 0.09988 0.03258 0.0
C2174 C 0.90857 0.09364 0.02968 0.0
C2175 C 0.96004 0.0758 0.02201 0.0
C2176 C 0.94227 0.08196 0.02451 0.0
H2177 H 0.87432 0.13833 0.04821 0.0
H2178 H 0.90279 0.12799 0.04409 0.0
H2179 H 0.90026 0.06698 0.03717 0.0
H2180 H 0.97686 0.03705 0.00853 0.0
H2181 H 0.94836 0.04764 0.01051 0.0
C2182 C 0.37015 0.42347 0.06139 0.0
C2183 C 0.3555 0.42474 0.04933 0.0
C2184 C 0.38688 0.43475 0.0614 0.0
C2185 C 0.41397 0.46122 0.03158 0.0
H2186 H 0.4433 0.48358 0.07717 0.0
C2187 C 0.4884 0.49368 0.03177 0.0
C2188 C 0.49443 0.51091 0.04287 0.0
C2189 C 0.47153 0.48349 0.03343 0.0
C2190 C 0.43522 0.47751 0.06434 0.0
H2191 H 0.34681 0.43896 0.02801 0.0
H2192 H 0.37603 0.45863 0.028 0.0
H2193 H 0.41333 0.46567 0.07842 0.0
H2194 H 0.48756 0.53065 0.06487 0.0
H2195 H 0.45801 0.51274 0.0678 0.0
H2196 H 0.43575 0.47304 0.01748 0.0
C2197 C 0.37462 0.44884 0.03736 0.0
C2198 C 0.41813 0.46713 0.06505 0.0
C2199 C 0.35787 0.43763 0.03742 0.0
C2200 C 0.48334 0.51745 0.05608 0.0
C2201 C 0.46644 0.50717 0.05781 0.0
C2202 C 0.43106 0.47147 0.03088 0.0
C2203 C 0.38934 0.44746 0.04928 0.0
C2204 C 0.40733 0.45885 0.04866 0.0
C2205 C 0.46024 0.49021 0.04628 0.0
C2206 C 0.44192 0.47966 0.04723 0.0
H2207 H 0.36874 0.41366 0.07073 0.0
H2208 H 0.398 0.43323 0.07061 0.0
H2209 H 0.40607 0.45489 0.01871 0.0
H2210 H 0.49659 0.48811 0.02152 0.0
H2211 H 0.46728 0.47033 0.02458 0.0
C2212 C 0.37337 0.60976 0.77214 0.0
C2213 C 0.39154 0.61065 0.77882 0.0
C2214 C 0.36526 0.62568 0.77251 0.0
C2215 C 0.37585 0.67953 0.78302 0.0
H2216 H 0.32417 0.67421 0.77576 0.0
C2217 C 0.34127 0.74563 0.78033 0.0
C2218 C 0.32262 0.74511 0.78215 0.0
C2219 C 0.34952 0.72978 0.77997 0.0
C2220 C 0.33866 0.67644 0.77801 0.0
H2221 H 0.41493 0.63045 0.79133 0.0
H2222 H 0.40119 0.65755 0.79229 0.0
H2223 H 0.33783 0.64743 0.7755 0.0
H2224 H 0.29853 0.72601 0.78506 0.0
H2225 H 0.31247 0.69919 0.78484 0.0
H2226 H 0.37663 0.70858 0.78595 0.0
C2227 C 0.39291 0.64454 0.78637 0.0
C2228 C 0.34678 0.66053 0.77763 0.0
C2229 C 0.40101 0.62861 0.78592 0.0
C2230 C 0.31284 0.72761 0.78365 0.0
C2231 C 0.32107 0.71179 0.78336 0.0
C2232 C 0.36772 0.69545 0.78345 0.0
C2233 C 0.37468 0.64378 0.77966 0.0
C2234 C 0.36573 0.66136 0.7801 0.0
C2235 C 0.33976 0.71216 0.78145 0.0
C2236 C 0.34876 0.69461 0.78097 0.0
H2237 H 0.36525 0.59656 0.76643 0.0
H2238 H 0.35143 0.62357 0.76685 0.0
H2239 H 0.39036 0.68171 0.78486 0.0
H2240 H 0.34968 0.75842 0.77897 0.0
H2241 H 0.36375 0.73153 0.77824 0.0
C2242 C 0.24212 0.60479 0.51989 0.0
C2243 C 0.25365 0.60154 0.53422 0.0
C2244 C 0.22354 0.59837 0.51877 0.0
C2245 C 0.18814 0.5649 0.53416 0.0
H2246 H 0.1571 0.59836 0.52322 0.0
C2247 C 0.11072 0.54799 0.53819 0.0
C2248 C 0.09939 0.55412 0.52563 0.0
C2249 C 0.12948 0.55348 0.53926 0.0
C2250 C 0.16547 0.58867 0.52601 0.0
H2251 H 0.25456 0.58852 0.5584 0.0
H2252 H 0.22202 0.57706 0.55633 0.0
H2253 H 0.18961 0.60789 0.52486 0.0
H2254 H 0.09918 0.57076 0.50416 0.0
H2255 H 0.13177 0.57994 0.50566 0.0
H2256 H 0.16403 0.54556 0.53504 0.0
C2257 C 0.22744 0.58462 0.54593 0.0
C2258 C 0.18421 0.5942 0.52701 0.0
C2259 C 0.2461 0.5912 0.54713 0.0
C2260 C 0.10741 0.56584 0.5141 0.0
C2261 C 0.12619 0.57121 0.51506 0.0
C2262 C 0.16936 0.5593 0.53301 0.0
C2263 C 0.21586 0.58839 0.53189 0.0
C2264 C 0.19584 0.5824 0.53107 0.0
C2265 C 0.13757 0.56517 0.5277 0.0
C2266 C 0.15769 0.57109 0.5289 0.0
H2267 H 0.24742 0.61268 0.50967 0.0
H2268 H 0.21514 0.60129 0.5076 0.0
H2269 H 0.19663 0.55537 0.53712 0.0
H2270 H 0.1051 0.53905 0.54738 0.0
H2271 H 0.13761 0.54873 0.5494 0.0
C2272 C 0.70901 0.0103 0.79465 0.0
C2273 C 0.71109 0.01673 0.77784 0.0
C2274 C 0.71852 0.99706 0.79919 0.0
C2275 C 0.74303 0.96188 0.77804 0.0
H2276 H 0.76712 0.96777 0.82727 0.0
C2277 C 0.79725 0.92116 0.79237 0.0
C2278 C 0.79495 0.91156 0.8072 0.0
C2279 C 0.78746 0.93485 0.7904 0.0
C2280 C 0.76035 0.96593 0.81352 0.0
H2281 H 0.72454 0.01431 0.75254 0.0
H2282 H 0.74119 0.99148 0.7605 0.0
H2283 H 0.74789 0.98924 0.82037 0.0
H2284 H 0.78146 0.9095 0.83221 0.0
H2285 H 0.76444 0.9337 0.82884 0.0
H2286 H 0.75568 0.93883 0.77108 0.0
C2287 C 0.73207 0.99639 0.77008 0.0
C2288 C 0.74929 0.97813 0.80959 0.0
C2289 C 0.7226 0.00955 0.76556 0.0
C2290 C 0.78358 0.91676 0.82072 0.0
C2291 C 0.77381 0.93055 0.81877 0.0
C2292 C 0.75414 0.94983 0.78193 0.0
C2293 C 0.7302 0.99003 0.78696 0.0
C2294 C 0.74074 0.97636 0.79172 0.0
C2295 C 0.77523 0.93925 0.80325 0.0
C2296 C 0.76311 0.95189 0.7996 0.0
H2297 H 0.70022 0.01564 0.80437 0.0
H2298 H 0.71669 0.99228 0.81221 0.0
H2299 H 0.73631 0.95991 0.76427 0.0
H2300 H 0.80618 0.91765 0.78194 0.0
H2301 H 0.78907 0.94165 0.77851 0.0
C2302 C 0.74264 0.91271 0.54954 0.0
C2303 C 0.76015 0.92188 0.54806 0.0
C2304 C 0.72812 0.92186 0.54927 0.0
C2305 C 0.71408 0.9618 0.53375 0.0
H2306 H 0.67581 0.95289 0.56582 0.0
C2307 C 0.65585 1.00203 0.53664 0.0
C2308 C 0.63845 0.99204 0.53711 0.0
C2309 C 0.67095 0.99405 0.53904 0.0
C2310 C 0.6863 0.9554 0.55665 0.0
H2311 H 0.77625 0.94789 0.54541 0.0
H2312 H 0.7509 0.96394 0.54506 0.0
H2313 H 0.70178 0.93801 0.56817 0.0
H2314 H 0.6233 0.96581 0.54051 0.0
H2315 H 0.64965 0.95184 0.54462 0.0
H2316 H 0.69855 0.97903 0.52209 0.0
C2317 C 0.74836 0.94961 0.54622 0.0
C2318 C 0.70119 0.94688 0.55801 0.0
C2319 C 0.76289 0.94045 0.54652 0.0
C2320 C 0.63652 0.97395 0.5403 0.0
C2321 C 0.65164 0.96595 0.54267 0.0
C2322 C 0.69919 0.9703 0.53238 0.0
C2323 C 0.73079 0.94039 0.54748 0.0
C2324 C 0.71522 0.94991 0.54651 0.0
C2325 C 0.66903 0.97586 0.54193 0.0
C2326 C 0.68508 0.96715 0.54376 0.0
H2327 H 0.7401 0.89837 0.5507 0.0
H2328 H 0.71474 0.91429 0.55004 0.0
H2329 H 0.7245 0.96421 0.52448 0.0
H2330 H 0.65781 0.0161 0.53453 0.0
H2331 H 0.68416 1.00218 0.53872 0.0
C2332 C 0.40007 0.49024 0.77638 0.0
C2333 C 0.38986 0.50411 0.77516 0.0
C2334 C 0.39191 0.47183 0.77671 0.0
C2335 C 0.34647 0.44085 0.78141 0.0
H2336 H 0.37287 0.40202 0.76726 0.0
C2337 C 0.31203 0.36253 0.77422 0.0
C2338 C 0.32234 0.3494 0.77817 0.0
C2339 C 0.32003 0.38101 0.77388 0.0
C2340 C 0.36518 0.41254 0.7715 0.0
H2341 H 0.3624 0.50847 0.77326 0.0
H2342 H 0.34822 0.47676 0.77334 0.0
H2343 H 0.38649 0.43347 0.76636 0.0
H2344 H 0.34981 0.34649 0.78476 0.0
H2345 H 0.3636 0.3782 0.78407 0.0
H2346 H 0.32504 0.41972 0.78625 0.0
C2347 C 0.36275 0.48002 0.77444 0.0
C2348 C 0.37315 0.431 0.77102 0.0
C2349 C 0.37097 0.49851 0.77424 0.0
C2350 C 0.34114 0.3558 0.78163 0.0
C2351 C 0.34917 0.37426 0.78111 0.0
C2352 C 0.33844 0.42236 0.78174 0.0
C2353 C 0.37296 0.46603 0.77571 0.0
C2354 C 0.36411 0.44582 0.77603 0.0
C2355 C 0.33885 0.38747 0.77729 0.0
C2356 C 0.34756 0.40762 0.77685 0.0
H2357 H 0.41462 0.49366 0.77726 0.0
H2358 H 0.40074 0.4622 0.77807 0.0
H2359 H 0.33873 0.45129 0.78575 0.0
H2360 H 0.29758 0.35855 0.77144 0.0
H2361 H 0.31129 0.39021 0.77062 0.0
C2362 C 0.25847 0.6083 0.27719 0.0
C2363 C 0.24638 0.60167 0.26138 0.0
C2364 C 0.26939 0.62552 0.27918 0.0
C2365 C 0.28393 0.6653 0.25603 0.0
H2366 H 0.27082 0.69258 0.30084 0.0
C2367 C 0.27516 0.73997 0.26235 0.0
C2368 C 0.27638 0.75059 0.27996 0.0
C2369 C 0.27799 0.72197 0.26046 0.0
C2370 C 0.27519 0.68534 0.2885 0.0
H2371 H 0.23755 0.60686 0.23445 0.0
H2372 H 0.25647 0.63699 0.238 0.0
H2373 H 0.26547 0.65971 0.29644 0.0
H2374 H 0.28322 0.75189 0.30918 0.0
H2375 H 0.28916 0.72089 0.30593 0.0
H2376 H 0.29321 0.69108 0.24788 0.0
C2377 C 0.25759 0.62893 0.24883 0.0
C2378 C 0.27207 0.66637 0.28598 0.0
C2379 C 0.24662 0.61175 0.24687 0.0
C2380 C 0.28178 0.74364 0.29551 0.0
C2381 C 0.28513 0.72589 0.29361 0.0
C2382 C 0.28732 0.68439 0.25867 0.0
C2383 C 0.26842 0.63632 0.26537 0.0
C2384 C 0.27577 0.65614 0.26946 0.0
C2385 C 0.28253 0.71455 0.27615 0.0
C2386 C 0.28233 0.69462 0.27464 0.0
H2387 H 0.25871 0.60071 0.2885 0.0
H2388 H 0.27779 0.63085 0.29198 0.0
H2389 H 0.28703 0.6577 0.24321 0.0
H2390 H 0.27108 0.74523 0.2502 0.0
H2391 H 0.27567 0.71367 0.24681 0.0
C2392 C 0.51371 0.7404 0.42333 0.0
C2393 C 0.51464 0.75867 0.43146 0.0
C2394 C 0.51973 0.7282 0.43356 0.0
C2395 C 0.54937 0.7276 0.47523 0.0
H2396 H 0.52709 0.67637 0.46658 0.0
C2397 C 0.56468 0.67294 0.51876 0.0
C2398 C 0.56737 0.65651 0.50826 0.0
C2399 C 0.55954 0.68659 0.50997 0.0
C2400 C 0.53346 0.69065 0.46903 0.0
H2401 H 0.52169 0.77844 0.45677 0.0
H2402 H 0.53151 0.75699 0.47488 0.0
H2403 H 0.51381 0.69754 0.45072 0.0
H2404 H 0.56834 0.64215 0.48041 0.0
H2405 H 0.55888 0.6658 0.46514 0.0
H2406 H 0.56874 0.72055 0.49399 0.0
C2407 C 0.52675 0.75217 0.46047 0.0
C2408 C 0.52592 0.70276 0.45992 0.0
C2409 C 0.521 0.76441 0.45015 0.0
C2410 C 0.56594 0.65448 0.48886 0.0
C2411 C 0.56059 0.66798 0.48011 0.0
C2412 C 0.55674 0.7155 0.48457 0.0
C2413 C 0.52652 0.73401 0.45219 0.0
C2414 C 0.53392 0.72134 0.46272 0.0
C2415 C 0.55687 0.68389 0.49061 0.0
C2416 C 0.54897 0.69691 0.48131 0.0
H2417 H 0.50896 0.73569 0.40889 0.0
H2418 H 0.51959 0.71438 0.42666 0.0
H2419 H 0.55605 0.74176 0.4775 0.0
H2420 H 0.56555 0.67485 0.53372 0.0
H2421 H 0.55672 0.69881 0.51828 0.0
C2422 C 0.62465 0.30034 0.64622 0.0
C2423 C 0.61039 0.30983 0.64899 0.0
C2424 C 0.63853 0.30237 0.66012 0.0
C2425 C 0.64677 0.31222 0.71028 0.0
H2426 H 0.69627 0.31205 0.69968 0.0
C2427 C 0.70517 0.31008 0.76508 0.0
C2428 C 0.71717 0.29864 0.75888 0.0
C2429 C 0.69166 0.31312 0.75272 0.0
C2430 C 0.68248 0.31201 0.70284 0.0
H2431 H 0.5998 0.32947 0.66812 0.0
H2432 H 0.62417 0.33299 0.69256 0.0
H2433 H 0.67454 0.31611 0.67565 0.0
H2434 H 0.72362 0.28035 0.73535 0.0
H2435 H 0.70002 0.2854 0.71405 0.0
H2436 H 0.65471 0.30764 0.7374 0.0
C2437 C 0.62451 0.32394 0.67963 0.0
C2438 C 0.67007 0.3144 0.6891 0.0
C2439 C 0.61068 0.32204 0.66561 0.0
C2440 C 0.71474 0.28944 0.74049 0.0
C2441 C 0.70131 0.29244 0.72824 0.0
C2442 C 0.65923 0.3098 0.72407 0.0
C2443 C 0.63838 0.31384 0.67714 0.0
C2444 C 0.652 0.31406 0.69252 0.0
C2445 C 0.69001 0.30475 0.73404 0.0
C2446 C 0.67708 0.30916 0.72029 0.0
H2447 H 0.62475 0.29082 0.63356 0.0
H2448 H 0.64893 0.29426 0.65785 0.0
H2449 H 0.63288 0.31175 0.71326 0.0
H2450 H 0.70679 0.31741 0.77916 0.0
H2451 H 0.68308 0.32263 0.75758 0.0
C2452 C 0.01784 0.35331 0.95978 0.0
C2453 C 1.002 0.34194 0.95103 0.0
C2454 C 0.01713 0.36665 0.97504 0.0
C2455 C 0.98838 0.39659 0.99448 0.0
H2456 H 0.02387 0.4068 0.0368 0.0
C2457 C 0.99902 0.4653 0.04257 0.0
C2458 C 0.01716 0.47403 0.04522 0.0
C2459 C 0.99443 0.44648 0.03634 0.0
C2460 C 0.01382 0.40411 0.02512 0.0
H2461 H 0.97301 0.33542 0.95138 0.0
H2462 H 0.97174 0.35921 0.97789 0.0
H2463 H 0.02105 0.37841 0.01475 0.0
H2464 H 0.04472 0.46966 0.04501 0.0
H2465 H 0.03679 0.43713 0.03375 0.0
H2466 H 0.98196 0.42272 1.00395 0.0
C2467 C 0.98469 0.35761 0.973 0.0
C2468 C 0.0122 0.38786 0.01255 0.0
C2469 C 0.98542 0.34407 0.95786 0.0
C2470 C 0.03061 0.46339 0.04298 0.0
C2471 C 0.02603 0.44463 0.03665 0.0
C2472 C 0.99012 0.41292 1.00693 0.0
C2473 C 1.00055 0.36901 0.98171 0.0
C2474 C 0.99991 0.38429 0.99678 0.0
C2475 C 0.0079 0.43608 0.03256 0.0
C2476 C 1.00335 0.41718 0.022 0.0
H2477 H 0.03081 0.35189 0.95486 0.0
H2478 H 0.02953 0.37547 0.98131 0.0
H2479 H 0.97886 0.3942 0.98237 0.0
H2480 H 0.98833 0.4731 0.04443 0.0
H2481 H 0.98034 0.44023 0.03369 0.0
C2482 C 0.0179 0.8116 0.15392 0.0
C2483 C 0.01594 0.7971 0.13894 0.0
C2484 C 1.00404 0.81305 0.16552 0.0
C2485 C 0.95565 0.79726 0.16911 0.0
H2486 H 0.9697 0.80234 0.22154 0.0
C2487 C 0.90445 0.77838 0.22071 0.0
C2488 C 0.90626 0.78927 0.23832 0.0
C2489 C 0.91774 0.78106 0.20854 0.0
C2490 C 0.96554 0.80122 0.20699 0.0
H2491 H 0.99772 0.7733 0.12379 0.0
H2492 H 0.97351 0.77592 0.14391 0.0
H2493 H 0.99277 0.8049 0.19984 0.0
H2494 H 0.92335 0.81156 0.25698 0.0
H2495 H 0.94655 0.81641 0.23564 0.0
H2496 H 0.92844 0.79346 0.17618 0.0
C2497 C 0.9857 0.78615 0.14672 0.0
C2498 C 0.97877 0.8027 0.19457 0.0
C2499 C 0.9996 0.78461 0.13524 0.0
C2500 C 0.92171 0.80283 0.24357 0.0
C2501 C 0.93498 0.8056 0.23134 0.0
C2502 C 0.94243 0.7959 0.18154 0.0
C2503 C 0.98794 0.80014 0.16221 0.0
C2504 C 0.97395 0.80044 0.17547 0.0
C2505 C 0.93311 0.79478 0.21364 0.0
C2506 C 0.94721 0.79754 0.2006 0.0
H2507 H 0.03037 0.82142 0.1571 0.0
H2508 H 1.00604 0.82407 0.17726 0.0
H2509 H 0.95157 0.79569 0.15448 0.0
H2510 H 0.89281 0.76764 0.21639 0.0
H2511 H 0.91605 0.77221 0.1952 0.0
C2512 C 0.49457 0.31201 0.09788 0.0
C2513 C 0.50646 0.31074 0.11282 0.0
C2514 C 0.49894 0.32562 0.08715 0.0
C2515 C 0.53842 0.35536 0.07438 0.0
H2516 H 0.50396 0.38347 0.05849 0.0
C2517 C 0.55932 0.42247 0.04719 0.0
C2518 C 0.5484 0.4263 0.03276 0.0
C2519 C 0.55408 0.40696 0.05508 0.0
C2520 C 0.51366 0.37552 0.06256 0.0
H2521 H 0.53184 0.32308 0.12872 0.0
H2522 H 0.53933 0.3469 0.1102 0.0
H2523 H 0.49445 0.35955 0.07658 0.0
H2524 H 0.52367 0.41664 0.01489 0.0
H2525 H 0.51461 0.38932 0.02854 0.0
H2526 H 0.55768 0.37142 0.06059 0.0
C2527 C 0.52682 0.33721 0.10653 0.0
C2528 C 0.50822 0.36187 0.07295 0.0
C2529 C 0.52246 0.32366 0.11723 0.0
C2530 C 0.53243 0.41395 0.02591 0.0
C2531 C 0.52714 0.39844 0.03385 0.0
C2532 C 0.54385 0.36897 0.064 0.0
C2533 C 0.51529 0.33812 0.09116 0.0
C2534 C 0.52063 0.35187 0.07923 0.0
C2535 C 0.53779 0.39495 0.04871 0.0
C2536 C 0.5316 0.37939 0.05823 0.0
H2537 H 0.48215 0.30218 0.09416 0.0
H2538 H 0.48982 0.32597 0.07536 0.0
H2539 H 0.54819 0.34759 0.07867 0.0
H2540 H 0.57178 0.43168 0.05263 0.0
H2541 H 0.56251 0.40474 0.06661 0.0
C2542 C 0.02723 0.28609 0.33686 0.0
C2543 C 0.03953 0.30122 0.34649 0.0
C2544 C 0.01515 0.28822 0.32259 0.0
C2545 C 0.99173 0.32291 0.30928 0.0
H2546 H 0.97631 0.28813 0.26402 0.0
C2547 C 0.93066 0.33048 0.26508 0.0
C2548 C 0.91774 0.31435 0.26 0.0
C2549 C 0.94843 0.32972 0.27051 0.0
C2550 C 0.98045 0.29796 0.27661 0.0
H2551 H 0.04951 0.33023 0.34818 0.0
H2552 H 0.02843 0.33392 0.32335 0.0
H2553 H 1.00209 0.28476 0.284 0.0
H2554 H 0.91405 0.28476 0.25436 0.0
H2555 H 0.94468 0.28345 0.26491 0.0
H2556 H 0.96973 0.33557 0.30273 0.0
C2557 C 0.02799 0.32047 0.32692 0.0
C2558 C 0.99521 0.29602 0.28801 0.0
C2559 C 0.04005 0.31834 0.34112 0.0
C2560 C 0.92348 0.29747 0.25876 0.0
C2561 C 0.94119 0.29672 0.26456 0.0
C2562 C 0.97695 0.32475 0.29804 0.0
C2563 C 0.01517 0.30552 0.31777 0.0
C2564 C 1.00079 0.30834 0.3046 0.0
C2565 C 0.95364 0.31286 0.27137 0.0
C2566 C 0.97091 0.31214 0.2817 0.0
H2567 H 0.0266 0.27272 0.34067 0.0
H2568 H 1.0053 0.27649 0.31589 0.0
H2569 H 0.99551 0.33244 0.32214 0.0
H2570 H 0.92689 0.34377 0.26622 0.0
H2571 H 0.95782 0.34243 0.27511 0.0
C2572 C 0.01106 0.71186 0.63303 0.0
C2573 C 1.00491 0.72376 0.6223 0.0
C2574 C 0.01359 0.69467 0.62473 0.0
C2575 C 1.00051 0.65967 0.58326 0.0
H2576 H 0.04512 0.64439 0.59669 0.0
C2577 C 0.02304 0.59773 0.54156 0.0
C2578 C 0.03135 0.58638 0.55133 0.0
C2579 C 0.01929 0.6141 0.55071 0.0
C2580 C 0.03249 0.64833 0.593 0.0
H2581 H 0.99629 0.72697 0.59456 0.0
H2582 H 1.00072 0.6968 0.57998 0.0
H2583 H 0.03929 0.67373 0.61173 0.0
H2584 H 0.04208 0.58321 0.57841 0.0
H2585 H 0.03525 0.61175 0.59447 0.0
H2586 H 0.99366 0.63427 0.56456 0.0
C2587 C 1.00349 0.70079 0.59483 0.0
C2588 C 0.02917 0.66514 0.60157 0.0
C2589 C 1.00104 0.71805 0.60314 0.0
C2590 C 0.03576 0.59171 0.57048 0.0
C2591 C 0.03191 0.60809 0.57966 0.0
C2592 C 1.00378 0.64281 0.57475 0.0
C2593 C 0.00994 0.68901 0.60554 0.0
C2594 C 0.01321 0.67101 0.59671 0.0
C2595 C 0.02366 0.61946 0.56985 0.0
C2596 C 0.01986 0.63702 0.57943 0.0
H2597 H 0.0141 0.71589 0.64786 0.0
H2598 H 0.01836 0.68576 0.63333 0.0
H2599 H 0.98799 0.66377 0.57945 0.0
H2600 H 0.01956 0.59408 0.52677 0.0
H2601 H 0.01321 0.62271 0.5427 0.0
C2602 C 0.61302 0.78331 0.84617 0.0
C2603 C 0.61162 0.79496 0.86272 0.0
C2604 C 0.62872 0.78566 0.83709 0.0
C2605 C 0.67683 0.80569 0.84477 0.0
H2606 H 0.67356 0.80212 0.79139 0.0
C2607 C 0.74039 0.81813 0.80693 0.0
C2608 C 0.74134 0.80466 0.79164 0.0
C2609 C 0.72402 0.81928 0.81436 0.0
C2610 C 0.67467 0.80309 0.80629 0.0
H2611 H 0.62552 0.81805 0.88287 0.0
H2612 H 0.65294 0.82216 0.86701 0.0
H2613 H 0.64609 0.79876 0.80736 0.0
H2614 H 0.72569 0.78266 0.77137 0.0
H2615 H 0.69718 0.78452 0.78451 0.0
H2616 H 0.70532 0.80965 0.84376 0.0
C2617 C 0.64197 0.81114 0.86112 0.0
C2618 C 0.65897 0.80111 0.81542 0.0
C2619 C 0.62627 0.80881 0.87018 0.0
C2620 C 0.72541 0.79317 0.78318 0.0
C2621 C 0.70904 0.79428 0.79068 0.0
C2622 C 0.6925 0.80763 0.83567 0.0
C2623 C 0.6433 0.79967 0.84442 0.0
C2624 C 0.65991 0.80226 0.83473 0.0
C2625 C 0.7083 0.80695 0.80671 0.0
C2626 C 0.6916 0.80623 0.81632 0.0
H2627 H 0.60191 0.77252 0.84011 0.0
H2628 H 0.62948 0.77644 0.82439 0.0
H2629 H 0.67797 0.80638 0.85964 0.0
H2630 H 0.75239 0.82736 0.81362 0.0
H2631 H 0.72378 0.82947 0.82648 0.0
C2632 C 0.43547 0.55064 0.70737 0.0
C2633 C 0.44504 0.55744 0.72494 0.0
C2634 C 0.44423 0.549 0.69062 0.0
C2635 C 0.49001 0.56255 0.67032 0.0
H2636 H 0.46668 0.52889 0.62696 0.0
C2637 C 0.52265 0.55956 0.59794 0.0
C2638 C 0.51839 0.54384 0.58394 0.0
C2639 C 0.51402 0.56108 0.61477 0.0
C2640 C 0.47374 0.53834 0.63879 0.0
H2641 H 0.47209 0.56775 0.7377 0.0
H2642 H 0.48721 0.56476 0.70915 0.0
H2643 H 0.45202 0.53138 0.65556 0.0
H2644 H 0.50098 0.51729 0.57779 0.0
H2645 H 0.48642 0.51966 0.60667 0.0
H2646 H 0.51194 0.56917 0.6537 0.0
C2647 C 0.47272 0.56085 0.70801 0.0
C2648 C 0.465 0.54 0.65556 0.0
C2649 C 0.46393 0.56252 0.72475 0.0
C2650 C 0.50497 0.5297 0.58786 0.0
C2651 C 0.49634 0.53119 0.60471 0.0
C2652 C 0.49876 0.56088 0.65356 0.0
C2653 C 0.46319 0.55403 0.69031 0.0
C2654 C 0.4728 0.55218 0.67195 0.0
C2655 C 0.50051 0.54697 0.61877 0.0
C2656 C 0.49095 0.54873 0.63717 0.0
H2657 H 0.42098 0.54654 0.70647 0.0
H2658 H 0.43586 0.54394 0.6778 0.0
H2659 H 0.49689 0.57233 0.68202 0.0
H2660 H 0.53267 0.57099 0.59586 0.0
H2661 H 0.51787 0.5737 0.62452 0.0
C2662 C 0.80339 0.15688 0.98129 0.0
C2663 C 0.80293 0.16412 1.00005 0.0
C2664 C 0.7996 0.16688 0.9675 0.0
C2665 C 0.79683 0.21378 0.95977 0.0
H2666 H 0.76519 0.18888 0.91654 0.0
C2667 C 0.76446 0.25319 0.90974 0.0
C2668 C 0.76309 0.24631 0.89067 0.0
C2669 C 0.76998 0.24306 0.92266 0.0
C2670 C 0.77424 0.19602 0.92839 0.0
H2671 H 0.79845 0.18764 0.01909 0.0
H2672 H 0.79183 0.20503 0.99512 0.0
H2673 H 0.77416 0.17151 0.93967 0.0
H2674 H 0.7663 0.22317 0.87032 0.0
H2675 H 0.77626 0.20567 0.89284 0.0
H2676 H 0.79688 0.23829 0.94857 0.0
C2677 C 0.79525 0.19171 0.991 0.0
C2678 C 0.77939 0.18605 0.94166 0.0
C2679 C 0.79896 0.18169 1.00475 0.0
C2680 C 0.76736 0.22899 0.88488 0.0
C2681 C 0.77289 0.21885 0.89781 0.0
C2682 C 0.79172 0.22374 0.9465 0.0
C2683 C 0.79537 0.18438 0.97219 0.0
C2684 C 0.79062 0.19483 0.9576 0.0
C2685 C 0.77431 0.22577 0.91688 0.0
C2686 C 0.78022 0.21503 0.93071 0.0
H2687 H 0.80641 0.14337 0.97723 0.0
H2688 H 0.80001 0.16092 0.95316 0.0
H2689 H 0.80574 0.22093 0.97173 0.0
H2690 H 0.7615 0.26656 0.91471 0.0
H2691 H 0.7707 0.24874 0.93723 0.0
C2692 C 0.16636 0.55305 0.20262 0.0
C2693 C 0.16306 0.54716 0.21948 0.0
C2694 C 0.15219 0.552 0.18929 0.0
C2695 C 0.10627 0.52891 0.17292 0.0
H2696 H 0.1063 0.57114 0.1489 0.0
C2697 C 0.05288 0.53139 0.11373 0.0
C2698 C 0.06043 0.53744 0.09826 0.0
C2699 C 0.06351 0.53335 0.1304 0.0
C2700 C 0.10611 0.55925 0.15549 0.0
H2701 H 0.14249 0.53503 0.23546 0.0
H2702 H 0.11764 0.53304 0.21194 0.0
H2703 H 0.12879 0.57245 0.17439 0.0
H2704 H 0.08494 0.55056 0.08826 0.0
H2705 H 0.1033 0.55389 0.11712 0.0
H2706 H 0.08385 0.51554 0.15357 0.0
C2707 C 0.1312 0.53851 0.20913 0.0
C2708 C 0.11899 0.55999 0.17003 0.0
C2709 C 0.14539 0.53967 0.22256 0.0
C2710 C 0.07866 0.54573 0.09988 0.0
C2711 C 0.08919 0.54779 0.11649 0.0
C2712 C 0.09336 0.52815 0.15828 0.0
C2713 C 0.13446 0.54497 0.19252 0.0
C2714 C 0.11952 0.54467 0.17853 0.0
C2715 C 0.08178 0.54157 0.1319 0.0
C2716 C 0.09351 0.54316 0.14911 0.0
H2717 H 0.17984 0.55884 0.19985 0.0
H2718 H 0.15512 0.55676 0.17645 0.0
H2719 H 0.1064 0.51691 0.17925 0.0
H2720 H 0.03886 0.52492 0.11288 0.0
H2721 H 0.05747 0.52849 0.14212 0.0
C2722 C 0.81176 0.85332 0.48631 0.0
C2723 C 0.79698 0.85978 0.49386 0.0
C2724 C 0.81042 0.8447 0.46781 0.0
C2725 C 0.78386 0.84184 0.42323 0.0
H2726 H 0.80816 0.80172 0.40697 0.0
C2727 C 0.77767 0.8071 0.34657 0.0
C2728 C 0.79374 0.80367 0.33927 0.0
C2729 C 0.77708 0.81225 0.36566 0.0
C2730 C 0.80139 0.813 0.41128 0.0
H2731 H 0.76902 0.86161 0.48816 0.0
H2732 H 0.76658 0.84631 0.45608 0.0
H2733 H 0.80894 0.81361 0.43995 0.0
H2734 H 0.82167 0.80252 0.34649 0.0
H2735 H 0.82063 0.81158 0.37962 0.0
H2736 H 0.77647 0.84138 0.39459 0.0
C2737 C 0.77933 0.84822 0.46428 0.0
C2738 C 0.80185 0.81983 0.43019 0.0
C2739 C 0.78068 0.85688 0.48273 0.0
C2740 C 0.80905 0.80507 0.35157 0.0
C2741 C 0.80844 0.81016 0.37063 0.0
C2742 C 0.78337 0.835 0.40434 0.0
C2743 C 0.79426 0.84231 0.45647 0.0
C2744 C 0.79319 0.83443 0.43641 0.0
C2745 C 0.79251 0.81403 0.37791 0.0
C2746 C 0.79225 0.82059 0.3981 0.0
H2747 H 0.82452 0.85541 0.49452 0.0
H2748 H 0.82225 0.84048 0.46224 0.0
H2749 H 0.77731 0.8533 0.42745 0.0
H2750 H 0.76559 0.80611 0.33755 0.0
H2751 H 0.76452 0.8149 0.37082 0.0
C2752 C 0.4359 0.55828 0.84692 0.0
C2753 C 0.44557 0.56173 0.83155 0.0
C2754 C 0.44463 0.55697 0.86426 0.0
C2755 C 0.49028 0.55237 0.88789 0.0
H2756 H 0.46684 0.56216 0.93281 0.0
C2757 C 0.52197 0.53976 0.95999 0.0
C2758 C 0.51813 0.54946 0.97699 0.0
C2759 C 0.51342 0.54132 0.94263 0.0
C2760 C 0.47391 0.55947 0.9206 0.0
H2761 H 0.47271 0.56649 0.82331 0.0
H2762 H 0.4878 0.56453 0.85311 0.0
H2763 H 0.45231 0.56513 0.90336 0.0
H2764 H 0.50172 0.56873 0.98804 0.0
H2765 H 0.48725 0.57166 0.95837 0.0
H2766 H 0.51207 0.54712 0.90521 0.0
C2767 C 0.47327 0.56253 0.85187 0.0
C2768 C 0.46526 0.56096 0.90327 0.0
C2769 C 0.46451 0.56384 0.83452 0.0
C2770 C 0.50527 0.56086 0.9756 0.0
C2771 C 0.49672 0.56245 0.95825 0.0
C2772 C 0.49893 0.55087 0.90523 0.0
C2773 C 0.46362 0.55902 0.86735 0.0
C2774 C 0.47314 0.55746 0.8863 0.0
C2775 C 0.50047 0.55271 0.94115 0.0
C2776 C 0.49104 0.55436 0.92219 0.0
H2777 H 0.42136 0.5564 0.84553 0.0
H2778 H 0.43623 0.55397 0.8752 0.0
H2779 H 0.49715 0.54925 0.87562 0.0
H2780 H 0.53161 0.53072 0.96003 0.0
H2781 H 0.51687 0.53322 0.93032 0.0
C2782 C 0.81502 0.18464 0.09569 0.0
C2783 C 0.80609 0.16633 0.09238 0.0
C2784 C 0.81249 0.19659 0.11155 0.0
C2785 C 0.78059 0.20401 0.14687 0.0
H2786 H 0.82168 0.23711 0.17446 0.0
C2787 C 0.77596 0.25003 0.2176 0.0
C2788 C 0.78797 0.26684 0.22212 0.0
C2789 C 0.77703 0.23795 0.20122 0.0
C2790 C 0.80996 0.22823 0.16678 0.0
H2791 H 0.7875 0.14622 0.10322 0.0
H2792 H 0.78301 0.16714 0.13093 0.0
H2793 H 0.82614 0.21561 0.14755 0.0
H2794 H 0.80963 0.28465 0.21234 0.0
H2795 H 0.81097 0.26413 0.18362 0.0
H2796 H 0.76435 0.21681 0.16595 0.0
C2797 C 0.79195 0.17224 0.1212 0.0
C2798 C 0.81257 0.21579 0.15136 0.0
C2799 C 0.79464 0.16022 0.1054 0.0
C2800 C 0.80027 0.27175 0.20937 0.0
C2801 C 0.80118 0.25983 0.19296 0.0
C2802 C 0.77793 0.2166 0.16224 0.0
C2803 C 0.80082 0.1906 0.12445 0.0
C2804 C 0.79794 0.20354 0.14115 0.0
C2805 C 0.79001 0.24248 0.1889 0.0
C2806 C 0.79259 0.22898 0.1724 0.0
H2807 H 0.82386 0.18982 0.0859 0.0
H2808 H 0.81941 0.21066 0.11352 0.0
H2809 H 0.76899 0.19489 0.13921 0.0
H2810 H 0.76644 0.24575 0.2272 0.0
H2811 H 0.76823 0.22472 0.19871 0.0
C2812 C 0.17028 0.59312 0.30734 0.0
C2813 C 0.18151 0.58026 0.30839 0.0
C2814 C 0.16012 0.59787 0.32202 0.0
C2815 C 0.15395 0.59345 0.37118 0.0
H2816 H 0.1037 0.59178 0.35619 0.0
C2817 C 0.10081 0.59259 0.42411 0.0
C2818 C 0.085 0.57955 0.41864 0.0
C2819 C 0.1129 0.59711 0.4112 0.0
C2820 C 0.11769 0.5923 0.36061 0.0
H2821 H 0.19164 0.56301 0.32588 0.0
H2822 H 0.17375 0.57097 0.35124 0.0
H2823 H 0.1254 0.5919 0.33308 0.0
H2824 H 0.06934 0.56118 0.39537 0.0
H2825 H 0.09051 0.56877 0.37292 0.0
H2826 H 0.14605 0.5926 0.3985 0.0
C2827 C 0.17291 0.57763 0.33929 0.0
C2828 C 0.1302 0.59263 0.34739 0.0
C2829 C 0.18308 0.57294 0.32468 0.0
C2830 C 0.0813 0.57144 0.39994 0.0
C2831 C 0.09342 0.57587 0.38707 0.0
C2832 C 0.14143 0.593 0.38437 0.0
C2833 C 0.16099 0.58983 0.33797 0.0
C2834 C 0.14839 0.59265 0.35244 0.0
C2835 C 0.10947 0.58859 0.39257 0.0
C2836 C 0.12307 0.59186 0.37913 0.0
H2837 H 0.16891 0.59907 0.29497 0.0
H2838 H 0.15126 0.60751 0.32069 0.0
H2839 H 0.16792 0.59377 0.37556 0.0
H2840 H 0.10385 0.59926 0.4384 0.0
H2841 H 0.12501 0.60715 0.41584 0.0
C2842 C 0.80035 0.88267 0.61175 0.0
C2843 C 0.79991 0.871 0.59474 0.0
C2844 C 0.79917 0.87565 0.62822 0.0
C2845 C 0.80567 0.83553 0.649 0.0
H2846 H 0.77659 0.85494 0.68624 0.0
C2847 C 0.79096 0.80231 0.71326 0.0
C2848 C 0.79137 0.81388 0.73034 0.0
C2849 C 0.7918 0.80936 0.69681 0.0
C2850 C 0.78494 0.84952 0.67609 0.0
H2851 H 0.79787 0.84281 0.58165 0.0
H2852 H 0.7957 0.8305 0.61045 0.0
H2853 H 0.77836 0.86683 0.65729 0.0
H2854 H 0.79284 0.84201 0.74344 0.0
H2855 H 0.79449 0.85437 0.71468 0.0
H2856 H 0.81231 0.81825 0.66779 0.0
C2857 C 0.79714 0.84512 0.61107 0.0
C2858 C 0.78594 0.85632 0.65947 0.0
C2859 C 0.79829 0.85215 0.59455 0.0
C2860 C 0.79247 0.8327 0.73054 0.0
C2861 C 0.79332 0.83978 0.71403 0.0
C2862 C 0.80469 0.82874 0.66562 0.0
C2863 C 0.79753 0.85679 0.6281 0.0
C2864 C 0.79632 0.84941 0.64571 0.0
C2865 C 0.7931 0.82819 0.69696 0.0
C2866 C 0.79429 0.83562 0.67937 0.0
H2867 H 0.80164 0.89728 0.61238 0.0
H2868 H 0.79978 0.88507 0.6411 0.0
H2869 H 0.81402 0.8301 0.63884 0.0
H2870 H 0.79002 0.78772 0.71253 0.0
H2871 H 0.79128 0.79999 0.68391 0.0
C2872 C 0.72758 0.49524 0.52563 0.0
C2873 C 0.728 0.47843 0.51436 0.0
C2874 C 0.71115 0.50113 0.52853 0.0
C2875 C 0.66269 0.49216 0.50955 0.0
H2876 H 0.65528 0.51746 0.55786 0.0
C2877 C 0.59193 0.50417 0.52777 0.0
C2878 C 0.59044 0.52144 0.53747 0.0
C2879 C 0.60879 0.49913 0.52581 0.0
C2880 C 0.65714 0.51055 0.54423 0.0
H2881 H 0.71135 0.45471 0.49726 0.0
H2882 H 0.68295 0.46472 0.50241 0.0
H2883 H 0.68438 0.50884 0.55233 0.0
H2884 H 0.60583 0.54667 0.55327 0.0
H2885 H 0.63518 0.53781 0.54998 0.0
H2886 H 0.63545 0.49372 0.50149 0.0
C2887 C 0.69524 0.47363 0.50882 0.0
C2888 C 0.67392 0.50563 0.54101 0.0
C2889 C 0.71161 0.4678 0.5059 0.0
C2890 C 0.60634 0.53322 0.54579 0.0
C2891 C 0.62324 0.52812 0.5439 0.0
C2892 C 0.64594 0.49699 0.51279 0.0
C2893 C 0.69468 0.49035 0.52026 0.0
C2894 C 0.67696 0.49625 0.52363 0.0
C2895 C 0.62476 0.51115 0.53353 0.0
C2896 C 0.64283 0.50616 0.53021 0.0
H2897 H 0.73993 0.50377 0.53241 0.0
H2898 H 0.71141 0.51418 0.53722 0.0
H2899 H 0.66448 0.48535 0.49586 0.0
H2900 H 0.58008 0.49467 0.52114 0.0
H2901 H 0.6093 0.48581 0.51805 0.0
C2902 C 0.21323 0.17124 0.51382 0.0
C2903 C 0.22814 0.16247 0.51274 0.0
C2904 C 0.19582 0.16107 0.513 0.0
C2905 C 0.16918 0.1144 0.49847 0.0
H2906 H 0.13661 0.13109 0.53334 0.0
C2907 C 0.10547 0.06748 0.51418 0.0
C2908 C 0.08992 0.07492 0.51736 0.0
C2909 C 0.12164 0.07864 0.51189 0.0
C2910 C 0.14541 0.12637 0.52331 0.0
H2911 H 0.23654 0.1362 0.50981 0.0
H2912 H 0.20622 0.11847 0.50852 0.0
H2913 H 0.16618 0.14972 0.53268 0.0
H2914 H 0.07911 0.09994 0.52013 0.0
H2915 H 0.10735 0.11941 0.51597 0.0
H2916 H 0.1485 0.09094 0.48926 0.0
C2917 C 0.20791 0.13318 0.50978 0.0
C2918 C 0.16238 0.13705 0.52294 0.0
C2919 C 0.2253 0.14334 0.51064 0.0
C2920 C 0.09084 0.09375 0.51776 0.0
C2921 C 0.10705 0.10494 0.51549 0.0
C2922 C 0.15221 0.10373 0.49883 0.0
C2923 C 0.19297 0.14192 0.51102 0.0
C2924 C 0.17455 0.13108 0.51067 0.0
C2925 C 0.12268 0.09754 0.51272 0.0
C2926 C 0.14021 0.10948 0.51141 0.0
H2927 H 0.215 0.18597 0.51538 0.0
H2928 H 0.18458 0.16821 0.51379 0.0
H2929 H 0.1781 0.10957 0.48863 0.0
H2930 H 0.10528 0.05304 0.5138 0.0
H2931 H 0.13346 0.07252 0.51002 0.0
C2932 C 0.1881 0.9574 0.77386 0.0
C2933 C 0.19749 0.97545 0.78072 0.0
C2934 C 0.19648 0.94162 0.77313 0.0
C2935 C 0.24317 0.92621 0.77898 0.0
H2936 H 0.2139 0.87821 0.77517 0.0
C2937 C 0.27713 0.85889 0.7706 0.0
C2938 C 0.26829 0.84209 0.77503 0.0
C2939 C 0.26876 0.87467 0.77117 0.0
C2940 C 0.22265 0.89135 0.77637 0.0
H2941 H 0.22395 0.98987 0.79227 0.0
H2942 H 0.23828 0.96307 0.7912 0.0
H2943 H 0.19977 0.90493 0.77672 0.0
H2944 H 0.24278 0.83001 0.78368 0.0
H2945 H 0.22852 0.85679 0.78474 0.0
H2946 H 0.26607 0.91265 0.77895 0.0
C2947 C 0.22428 0.96082 0.78605 0.0
C2948 C 0.21428 0.90713 0.77706 0.0
C2949 C 0.21587 0.9766 0.78679 0.0
C2950 C 0.25044 0.84223 0.78 0.0
C2951 C 0.24205 0.85798 0.78053 0.0
C2952 C 0.25154 0.91042 0.77825 0.0
C2953 C 0.21493 0.94265 0.7792 0.0
C2954 C 0.22418 0.92525 0.77841 0.0
C2955 C 0.25086 0.8749 0.77619 0.0
C2956 C 0.24164 0.89231 0.77693 0.0
H2957 H 0.17403 0.95536 0.76892 0.0
H2958 H 0.18827 0.92848 0.76747 0.0
H2959 H 0.2519 0.93932 0.77981 0.0
H2960 H 0.29078 0.85996 0.7667 0.0
H2961 H 0.27652 0.88676 0.7674 0.0
C2962 C 0.33879 0.99276 1.00491 0.0
C2963 C 0.3316 0.97977 0.01557 0.0
C2964 C 0.35754 0.99831 1.00504 0.0
C2965 C 0.40075 0.98318 0.01649 0.0
H2966 H 0.42252 0.03307 0.01413 0.0
C2967 C 0.47812 0.00836 0.02768 0.0
C2968 C 0.48611 0.02061 0.01662 0.0
C2969 C 0.45933 1.00366 0.02739 0.0
C2970 C 0.41668 0.01902 0.01459 0.0
H2971 H 0.33857 0.96285 0.03511 0.0
H2972 H 0.37093 0.97268 0.03563 0.0
H2973 H 0.38988 0.02472 0.01398 0.0
H2974 H 0.48026 0.03751 0.99657 0.0
H2975 H 0.44764 0.02924 0.99599 0.0
H2976 H 0.42749 0.97746 0.01714 0.0
C2977 C 0.36224 0.97835 0.02681 0.0
C2978 C 0.39789 0.01421 0.0145 0.0
C2979 C 0.34359 0.97281 0.02664 0.0
C2980 C 0.4747 0.02804 1.0053 0.0
C2981 C 0.45591 0.02338 1.00505 0.0
C2982 C 0.4195 0.98799 0.01662 0.0
C2983 C 0.36957 0.99101 0.01584 0.0
C2984 C 0.38962 0.99622 0.01555 0.0
C2985 C 0.44791 0.0111 0.01608 0.0
C2986 C 0.4278 1.00599 0.01575 0.0
H2987 H 0.32996 0.99834 0.99615 0.0
H2988 H 0.36259 0.00797 0.99629 0.0
H2989 H 0.39497 0.9691 0.0169 0.0
H2990 H 0.48639 1.00241 0.03665 0.0
H2991 H 0.45376 0.99437 0.03628 0.0
C2992 C 0.88213 0.5858 0.78335 0.0
C2993 C 0.87817 0.57799 0.7991 0.0
C2994 C 0.872 0.59805 0.77769 0.0
C2995 C 0.82721 0.60994 0.78113 0.0
H2996 H 0.84821 0.65246 0.76099 0.0
C2997 C 0.78819 0.66591 0.76592 0.0
C2998 C 0.79198 0.67392 0.75024 0.0
C2999 C 0.79794 0.65307 0.7709 0.0
C3000 C 0.84213 0.64048 0.76633 0.0
H3001 H 0.86118 0.57752 0.82182 0.0
H3002 H 0.84367 0.59919 0.81211 0.0
H3003 H 0.86772 0.63363 0.77291 0.0
H3004 H 0.80809 0.67388 0.7268 0.0
H3005 H 0.82512 0.65139 0.7355 0.0
H3006 H 0.80162 0.61687 0.77465 0.0
C3007 C 0.85435 0.59556 0.80393 0.0
C3008 C 0.85331 0.62975 0.77322 0.0
C3009 C 0.86448 0.5833 0.80958 0.0
C3010 C 0.80506 0.66813 0.73911 0.0
C3011 C 0.81483 0.65531 0.74411 0.0
C3012 C 0.81603 0.62069 0.77426 0.0
C3013 C 0.85775 0.60273 0.78769 0.0
C3014 C 0.84597 0.61439 0.78073 0.0
C3015 C 0.81168 0.64802 0.76031 0.0
C3016 C 0.82339 0.63608 0.76682 0.0
H3017 H 0.89259 0.58192 0.77498 0.0
H3018 H 0.87487 0.60325 0.76506 0.0
H3019 H 0.82112 0.59798 0.7865 0.0
H3020 H 0.77839 0.67028 0.77494 0.0
H3021 H 0.79531 0.64781 0.78355 0.0
C3022 C 0.8415 0.67575 0.02446 0.0
C3023 C 0.82494 0.66634 0.01529 0.0
C3024 C 0.85543 0.66637 0.02765 0.0
C3025 C 0.87246 0.62411 0.01268 0.0
H3026 H 0.89426 0.63242 0.06309 0.0
C3027 C 0.91744 0.57672 0.03753 0.0
C3028 C 0.93209 0.58448 0.05063 0.0
C3029 C 0.90499 0.5872 0.03262 0.0
C3030 C 0.88858 0.63012 0.04887 0.0
H3031 H 0.81018 0.6399 1.00166 0.0
H3032 H 0.83465 0.62354 1.00702 0.0
H3033 H 0.87191 0.65012 0.05496 0.0
H3034 H 0.94543 0.60938 0.06856 0.0
H3035 H 0.92399 0.62783 0.05971 0.0
H3036 H 0.88923 0.60428 1.00648 0.0
C3037 C 0.83682 0.63815 0.01178 0.0
C3038 C 0.87572 0.64026 0.04423 0.0
C3039 C 0.82281 0.6475 0.00877 0.0
C3040 C 0.93412 0.60298 0.05862 0.0
C3041 C 0.92179 0.61352 0.05356 0.0
C3042 C 0.88548 0.6141 0.01726 0.0
C3043 C 0.85315 0.64744 0.02155 0.0
C3044 C 0.86743 0.63726 0.02614 0.0
C3045 C 0.90701 0.60576 0.04055 0.0
C3046 C 0.8936 0.61686 0.03546 0.0
H3047 H 0.84353 0.69028 0.02966 0.0
H3048 H 0.86795 0.6739 0.03506 0.0
H3049 H 0.86641 0.62165 0.99858 0.0
H3050 H 0.91543 0.56244 0.03131 0.0
H3051 H 0.89362 0.58062 0.02284 0.0
C3052 C 0.21786 0.08608 0.78275 0.0
C3053 C 0.19973 0.08151 0.7867 0.0
C3054 C 0.22634 0.10448 0.78251 0.0
C3055 C 0.21628 0.15282 0.78139 0.0
H3056 H 0.26771 0.16799 0.79271 0.0
C3057 C 0.25125 0.23085 0.78687 0.0
C3058 C 0.26957 0.23567 0.78363 0.0
C3059 C 0.24295 0.21245 0.78732 0.0
C3060 C 0.25334 0.16423 0.78922 0.0
H3061 H 0.17665 0.09378 0.79353 0.0
H3062 H 0.19112 0.12529 0.79329 0.0
H3063 H 0.25356 0.13656 0.79324 0.0
H3064 H 0.29314 0.2237 0.77823 0.0
H3065 H 0.27895 0.1922 0.77873 0.0
H3066 H 0.21603 0.1804 0.77727 0.0
C3067 C 0.19898 0.11471 0.7901 0.0
C3068 C 0.24505 0.1458 0.78955 0.0
C3069 C 0.19056 0.09634 0.79041 0.0
C3070 C 0.2791 0.22102 0.78087 0.0
C3071 C 0.27081 0.20263 0.78129 0.0
C3072 C 0.22457 0.17122 0.78102 0.0
C3073 C 0.21714 0.1194 0.7861 0.0
C3074 C 0.22624 0.13948 0.78567 0.0
C3075 C 0.25244 0.1977 0.78453 0.0
C3076 C 0.24339 0.17757 0.78494 0.0
H3077 H 0.22559 0.07534 0.77969 0.0
H3078 H 0.24015 0.10689 0.77911 0.0
H3079 H 0.20191 0.14903 0.77792 0.0
H3080 H 0.24318 0.24139 0.78914 0.0
H3081 H 0.22897 0.20994 0.79016 0.0
C3082 C 0.34394 0.99411 0.32038 0.0
C3083 C 0.36087 0.99009 0.31635 0.0
C3084 C 0.32982 0.98016 0.32246 0.0
C3085 C 0.32027 0.93331 0.33215 0.0
H3086 H 0.27592 0.92766 0.30087 0.0
C3087 C 0.26694 0.87005 0.29179 0.0
C3088 C 0.26523 0.85912 0.30562 0.0
C3089 C 0.27411 0.88868 0.29637 0.0
C3090 C 0.28814 0.92918 0.30984 0.0
H3091 H 0.3765 0.96855 0.3118 0.0
H3092 H 0.35197 0.94427 0.31562 0.0
H3093 H 0.2987 0.95541 0.30324 0.0
H3094 H 0.26771 0.85952 0.33527 0.0
H3095 H 0.28009 0.89206 0.34323 0.0
H3096 H 0.31032 0.90679 0.338 0.0
C3097 C 0.34958 0.95816 0.3172 0.0
C3098 C 0.3011 0.94509 0.31129 0.0
C3099 C 0.36359 0.97202 0.31489 0.0
C3100 C 0.26914 0.86751 0.32425 0.0
C3101 C 0.27627 0.88614 0.32883 0.0
C3102 C 0.30731 0.91751 0.33081 0.0
C3103 C 0.33253 0.96206 0.32084 0.0
C3104 C 0.31754 0.94696 0.32193 0.0
C3105 C 0.27964 0.89672 0.31487 0.0
C3106 C 0.29137 0.915 0.31914 0.0
H3107 H 0.3415 0.00795 0.32155 0.0
H3108 H 0.3168 0.98349 0.32529 0.0
H3109 H 0.33276 0.93454 0.3406 0.0
H3110 H 0.26394 0.86404 0.27731 0.0
H3111 H 0.2766 0.89642 0.28528 0.0
C3112 C 0.53788 0.31037 0.55664 0.0
C3113 C 0.55422 0.31645 0.56773 0.0
C3114 C 0.5345 0.31791 0.54095 0.0
C3115 C 0.55506 0.34635 0.50837 0.0
H3116 H 0.5109 0.36558 0.51049 0.0
C3117 C 0.54667 0.41274 0.48477 0.0
C3118 C 0.52936 0.41706 0.48335 0.0
C3119 C 0.54889 0.39531 0.48737 0.0
C3120 C 0.52302 0.3599 0.50908 0.0
H3121 H 0.58016 0.33453 0.57067 0.0
H3122 H 0.57412 0.34794 0.54329 0.0
H3123 H 0.51675 0.34466 0.53069 0.0
H3124 H 0.5008 0.4053 0.47991 0.0
H3125 H 0.50475 0.37475 0.4828 0.0
H3126 H 0.56153 0.36201 0.487 0.0
C3127 C 0.56403 0.33721 0.54667 0.0
C3128 C 0.52642 0.34793 0.52086 0.0
C3129 C 0.5674 0.32971 0.56244 0.0
C3130 C 0.51439 0.40274 0.48131 0.0
C3131 C 0.51664 0.38517 0.4833 0.0
C3132 C 0.55154 0.35817 0.49631 0.0
C3133 C 0.5474 0.33163 0.53599 0.0
C3134 C 0.54274 0.34158 0.52113 0.0
C3135 C 0.53382 0.38167 0.488 0.0
C3136 C 0.53579 0.36571 0.49706 0.0
H3137 H 0.52755 0.30002 0.56027 0.0
H3138 H 0.52162 0.31328 0.53289 0.0
H3139 H 0.56765 0.3414 0.50813 0.0
H3140 H 0.55856 0.4232 0.48548 0.0
H3141 H 0.56241 0.3932 0.4906 0.0
C3142 C 0.44156 0.78066 0.36844 0.0
C3143 C 0.45719 0.79256 0.36568 0.0
C3144 C 0.42505 0.78144 0.35947 0.0
C3145 C 0.40224 0.81387 0.33977 0.0
H3146 H 0.36501 0.77116 0.32315 0.0
C3147 C 0.33177 0.81724 0.30713 0.0
C3148 C 0.31719 0.80649 0.31358 0.0
C3149 C 0.34939 0.81558 0.31213 0.0
C3150 C 0.37528 0.7832 0.32783 0.0
H3151 H 0.46811 0.81391 0.35067 0.0
H3152 H 0.43926 0.8151 0.33477 0.0
H3153 H 0.39523 0.7673 0.33299 0.0
H3154 H 0.30966 0.78584 0.33065 0.0
H3155 H 0.34039 0.7831 0.33944 0.0
H3156 H 0.38221 0.82976 0.3348 0.0
C3157 C 0.43971 0.80541 0.34413 0.0
C3158 C 0.39255 0.781 0.33343 0.0
C3159 C 0.45621 0.80466 0.35314 0.0
C3160 C 0.32059 0.79435 0.32545 0.0
C3161 C 0.33817 0.79263 0.33035 0.0
C3162 C 0.38498 0.81607 0.3341 0.0
C3163 C 0.42391 0.79409 0.34753 0.0
C3164 C 0.40612 0.79632 0.33976 0.0
C3165 C 0.35271 0.80306 0.32356 0.0
C3166 C 0.37128 0.80076 0.3284 0.0
H3167 H 0.44194 0.7712 0.37805 0.0
H3168 H 0.41309 0.77267 0.36253 0.0
H3169 H 0.41235 0.82595 0.34483 0.0
H3170 H 0.32959 0.82671 0.29795 0.0
H3171 H 0.36038 0.82374 0.30668 0.0
C3172 C 0.04709 0.72168 0.07925 0.0
C3173 C 0.06303 0.7347 0.08323 0.0
C3174 C 0.04717 0.70446 0.06919 0.0
C3175 C 0.0762 0.67128 0.05903 0.0
H3176 H 0.03435 0.64586 0.02632 0.0
C3177 C 0.06136 0.59279 0.03496 0.0
C3178 C 0.04484 0.58534 0.04095 0.0
C3179 C 0.06576 0.61156 0.03481 0.0
C3180 C 0.04626 0.65286 0.03519 0.0
H3181 H 0.09156 0.74008 0.07963 0.0
H3182 H 0.09172 0.70966 0.06204 0.0
H3183 H 0.03858 0.6789 0.03595 0.0
H3184 H 0.01962 0.59127 0.05052 0.0
H3185 H 0.02713 0.62385 0.04993 0.0
H3186 H 0.08339 0.64501 0.05887 0.0
C3187 C 0.07918 0.71288 0.06675 0.0
C3188 C 0.04864 0.67171 0.04077 0.0
C3189 C 0.07908 0.73024 0.0768 0.0
C3190 C 0.0325 0.59671 0.04599 0.0
C3191 C 0.03673 0.61531 0.04547 0.0
C3192 C 0.07388 0.65239 0.05331 0.0
C3193 C 0.0632 0.69983 0.06287 0.0
C3194 C 0.06314 0.68095 0.0535 0.0
C3195 C 0.05348 0.62294 0.04018 0.0
C3196 C 0.05842 0.64297 0.04208 0.0
H3197 H 0.03451 0.72473 0.08402 0.0
H3198 H 0.03471 0.69457 0.06681 0.0
H3199 H 0.08748 0.67802 0.06887 0.0
H3200 H 0.07109 0.58425 0.03104 0.0
H3201 H 0.07879 0.61721 0.03076 0.0
C3202 C 0.05229 0.28879 0.86445 0.0
C3203 C 0.04708 0.30476 0.87319 0.0
C3204 C 0.06754 0.28983 0.85465 0.0
C3205 C 0.11024 0.32044 0.85181 0.0
H3206 H 0.11233 0.28617 0.80704 0.0
C3207 C 0.17244 0.32397 0.8099 0.0
C3208 C 0.17802 0.30732 0.8041 0.0
C3209 C 0.15604 0.32424 0.81754 0.0
C3210 C 0.11195 0.29574 0.81959 0.0
H3211 H 0.05331 0.33435 0.87806 0.0
H3212 H 0.07986 0.3362 0.86062 0.0
H3213 H 0.08394 0.28594 0.82114 0.0
H3214 H 0.17078 0.2779 0.80159 0.0
H3215 H 0.14213 0.27837 0.8151 0.0
H3216 H 0.13828 0.33017 0.85027 0.0
C3217 C 0.07233 0.32287 0.86163 0.0
C3218 C 0.09572 0.29563 0.82767 0.0
C3219 C 0.05708 0.32182 0.87151 0.0
C3220 C 0.16688 0.29093 0.80608 0.0
C3221 C 0.15042 0.29119 0.81362 0.0
C3222 C 0.12644 0.32061 0.84368 0.0
C3223 C 0.07785 0.30687 0.85331 0.0
C3224 C 0.09473 0.30784 0.84398 0.0
C3225 C 0.14485 0.30785 0.81942 0.0
C3226 C 0.1275 0.30813 0.82761 0.0
H3227 H 0.04486 0.27545 0.86557 0.0
H3228 H 0.07155 0.27725 0.84862 0.0
H3229 H 0.11 0.32982 0.86453 0.0
H3230 H 0.18085 0.33682 0.80869 0.0
H3231 H 0.15203 0.33726 0.82179 0.0
C3232 C 0.53602 0.74716 0.92494 0.0
C3233 C 0.5534 0.75653 0.92329 0.0
C3234 C 0.53308 0.73603 0.93838 0.0
C3235 C 0.5572 0.71138 0.96844 0.0
H3236 H 0.51425 0.70933 0.99488 0.0
C3237 C 0.54842 0.67135 0.02811 0.0
C3238 C 0.53219 0.65877 0.02672 0.0
C3239 C 0.55038 0.68499 0.01721 0.0
C3240 C 0.52627 0.70975 0.98755 0.0
H3241 H 0.58128 0.76184 0.9345 0.0
H3242 H 0.57614 0.74277 0.95813 0.0
H3243 H 0.51905 0.7295 0.97196 0.0
H3244 H 0.50492 0.6513 0.01362 0.0
H3245 H 0.50831 0.67531 0.99469 0.0
H3246 H 0.56446 0.69171 0.98402 0.0
C3247 C 0.56481 0.74364 0.94884 0.0
C3248 C 0.52899 0.72122 0.97437 0.0
C3249 C 0.56775 0.75464 0.93534 0.0
C3250 C 0.51756 0.66087 0.0151 0.0
C3251 C 0.5195 0.67459 1.00423 0.0
C3252 C 0.55455 0.70006 0.98167 0.0
C3253 C 0.54745 0.73414 0.95049 0.0
C3254 C 0.54449 0.72213 0.96463 0.0
C3255 C 0.53611 0.6864 1.00477 0.0
C3256 C 0.53906 0.6991 0.99134 0.0
H3257 H 0.5247 0.74838 0.91582 0.0
H3258 H 0.51959 0.72871 0.9391 0.0
H3259 H 0.56909 0.71143 0.96094 0.0
H3260 H 0.55982 0.67029 0.03721 0.0
H3261 H 0.56323 0.69415 0.01817 0.0
C3262 C 0.04468 0.78881 0.70403 0.0
C3263 C 0.04609 0.78821 0.68497 0.0
C3264 C 0.06007 0.79025 0.71604 0.0
C3265 C 0.1097 0.8023 0.71951 0.0
H3266 H 0.10828 0.76562 0.75117 0.0
C3267 C 0.17283 0.77761 0.74269 0.0
C3268 C 0.17546 0.77512 0.76112 0.0
C3269 C 0.15657 0.78133 0.73593 0.0
C3270 C 0.10881 0.77616 0.74268 0.0
H3271 H 0.06461 0.78937 0.66361 0.0
H3272 H 0.09137 0.79191 0.68448 0.0
H3273 H 0.08044 0.76945 0.73499 0.0
H3274 H 0.16295 0.77418 0.78683 0.0
H3275 H 0.13422 0.78045 0.77483 0.0
H3276 H 0.13811 0.80859 0.72666 0.0
C3277 C 0.07847 0.79137 0.69022 0.0
C3278 C 0.09289 0.77837 0.73344 0.0
C3279 C 0.06314 0.78979 0.67823 0.0
C3280 C 0.16126 0.77593 0.77253 0.0
C3281 C 0.14488 0.77958 0.76571 0.0
C3282 C 0.12557 0.80008 0.72871 0.0
C3283 C 0.07708 0.79131 0.70919 0.0
C3284 C 0.09329 0.79108 0.72133 0.0
C3285 C 0.14249 0.78255 0.7474 0.0
C3286 C 0.12536 0.7866 0.73991 0.0
H3287 H 0.03167 0.78761 0.70957 0.0
H3288 H 0.05865 0.79028 0.73063 0.0
H3289 H 0.11035 0.81242 0.71053 0.0
H3290 H 0.18336 0.77665 0.73342 0.0
H3291 H 0.15495 0.78307 0.72161 0.0
C3292 C 0.08499 0.36312 0.42159 0.0
C3293 C 0.07306 0.34771 0.42482 0.0
C3294 C 0.08393 0.38051 0.4308 0.0
C3295 C 0.06744 0.40498 0.47153 0.0
H3296 H 0.06442 0.4423 0.44134 0.0
C3297 C 0.04327 0.47111 0.49943 0.0
C3298 C 0.0516 0.48746 0.49425 0.0
C3299 C 0.04705 0.45442 0.49116 0.0
C3300 C 0.06555 0.43215 0.45003 0.0
H3301 H 0.05109 0.33825 0.44059 0.0
H3302 H 0.04936 0.36868 0.45686 0.0
H3303 H 0.06957 0.4124 0.42707 0.0
H3304 H 0.07043 0.49917 0.47633 0.0
H3305 H 0.07734 0.46997 0.46209 0.0
H3306 H 0.06355 0.42466 0.49452 0.0
C3307 C 0.0595 0.36729 0.44719 0.0
C3308 C 0.06846 0.41503 0.44184 0.0
C3309 C 0.06043 0.34991 0.43783 0.0
C3310 C 0.06372 0.48677 0.48052 0.0
C3311 C 0.06763 0.47004 0.47233 0.0
C3312 C 0.06471 0.42214 0.47976 0.0
C3313 C 0.07107 0.38275 0.44355 0.0
C3314 C 0.06919 0.40122 0.45248 0.0
C3315 C 0.05939 0.45368 0.47763 0.0
C3316 C 0.06345 0.43584 0.46906 0.0
H3317 H 0.09488 0.36181 0.41164 0.0
H3318 H 0.0931 0.39221 0.42789 0.0
H3319 H 0.0682 0.39462 0.48007 0.0
H3320 H 0.03375 0.47116 0.50987 0.0
H3321 H 0.04014 0.44207 0.49527 0.0
C3322 C 0.4507 0.24181 0.17721 0.0
C3323 C 0.45917 0.25932 0.17493 0.0
C3324 C 0.43801 0.23975 0.19011 0.0
C3325 C 0.4236 0.26291 0.23258 0.0
H3326 H 0.37572 0.23592 0.21504 0.0
C3327 C 0.36114 0.27922 0.26558 0.0
C3328 C 0.34568 0.26568 0.26458 0.0
C3329 C 0.37656 0.27505 0.25786 0.0
C3330 C 0.38911 0.24309 0.22037 0.0
H3331 H 0.46124 0.28837 0.18437 0.0
H3332 H 0.43918 0.28475 0.2071 0.0
H3333 H 0.39993 0.23516 0.19468 0.0
H3334 H 0.33472 0.23682 0.25588 0.0
H3335 H 0.36187 0.22947 0.24252 0.0
H3336 H 0.41283 0.27111 0.25815 0.0
C3337 C 0.44238 0.27266 0.19891 0.0
C3338 C 0.40294 0.24273 0.20865 0.0
C3339 C 0.45485 0.27473 0.18582 0.0
C3340 C 0.34637 0.24759 0.25674 0.0
C3341 C 0.36188 0.2434 0.24901 0.0
C3342 C 0.40986 0.26308 0.24438 0.0
C3343 C 0.43385 0.25516 0.20113 0.0
C3344 C 0.4201 0.25318 0.21444 0.0
C3345 C 0.37697 0.25721 0.24902 0.0
C3346 C 0.39229 0.25378 0.23815 0.0
H3347 H 0.45382 0.2297 0.16897 0.0
H3348 H 0.43156 0.22613 0.19159 0.0
H3349 H 0.43685 0.27082 0.23742 0.0
H3350 H 0.36113 0.29327 0.27165 0.0
H3351 H 0.38779 0.2861 0.25792 0.0
C3352 C 0.65031 0.52596 0.35293 0.0
C3353 C 0.64254 0.52883 0.33585 0.0
C3354 C 0.6411 0.52715 0.36943 0.0
C3355 C 0.60231 0.54609 0.39247 0.0
H3356 H 0.6079 0.51362 0.42736 0.0
C3357 C 0.57293 0.55535 0.46707 0.0
C3358 C 0.56588 0.53969 0.47463 0.0
C3359 C 0.58186 0.55417 0.45036 0.0
C3360 C 0.606 0.5229 0.41791 0.0
H3361 H 0.61831 0.53553 0.32381 0.0
H3362 H 0.60268 0.53808 0.35223 0.0
H3363 H 0.62362 0.5114 0.3991 0.0
H3364 H 0.56359 0.51028 0.46953 0.0
H3365 H 0.57927 0.50829 0.44124 0.0
H3366 H 0.58492 0.55779 0.41145 0.0
C3367 C 0.616 0.53472 0.35294 0.0
C3368 C 0.6153 0.52169 0.40147 0.0
C3369 C 0.62506 0.53315 0.33635 0.0
C3370 C 0.56851 0.52282 0.46454 0.0
C3371 C 0.57778 0.52167 0.4481 0.0
C3372 C 0.59333 0.54757 0.40912 0.0
C3373 C 0.62367 0.53167 0.37003 0.0
C3374 C 0.61368 0.53317 0.38812 0.0
C3375 C 0.58472 0.53729 0.44039 0.0
C3376 C 0.59477 0.53594 0.42235 0.0
H3377 H 0.66364 0.52263 0.35357 0.0
H3378 H 0.64791 0.52477 0.38193 0.0
H3379 H 0.60049 0.55543 0.38305 0.0
H3380 H 0.57149 0.56871 0.47406 0.0
H3381 H 0.58689 0.56671 0.44545 0.0
C3382 C 0.26604 0.91171 0.05499 0.0
C3383 C 0.27071 0.93083 0.05744 0.0
C3384 C 0.26517 0.90276 0.07024 0.0
C3385 C 0.26165 0.90963 0.12081 0.0
H3386 H 0.28183 0.8655 0.1174 0.0
C3387 C 0.27425 0.87422 0.18373 0.0
C3388 C 0.27093 0.85501 0.18063 0.0
C3389 C 0.2731 0.88371 0.16895 0.0
C3390 C 0.27591 0.87766 0.11851 0.0
H3391 H 0.27787 0.95561 0.0778 0.0
H3392 H 0.27655 0.93994 0.10452 0.0
H3393 H 0.28208 0.88166 0.09128 0.0
H3394 H 0.26289 0.83075 0.15969 0.0
H3395 H 0.26083 0.84728 0.13397 0.0
H3396 H 0.25562 0.90562 0.14817 0.0
C3397 C 0.27337 0.93188 0.09079 0.0
C3398 C 0.27607 0.88694 0.10352 0.0
C3399 C 0.27421 0.94086 0.07549 0.0
C3400 C 0.26587 0.84554 0.16251 0.0
C3401 C 0.26471 0.85502 0.14776 0.0
C3402 C 0.26151 0.90032 0.13585 0.0
C3403 C 0.26901 0.91271 0.08832 0.0
C3404 C 0.26888 0.903 0.10444 0.0
C3405 C 0.2686 0.87421 0.15075 0.0
C3406 C 0.26859 0.88418 0.13484 0.0
H3407 H 0.26316 0.9036 0.04126 0.0
H3408 H 0.26147 0.88801 0.06785 0.0
H3409 H 0.25584 0.92186 0.1219 0.0
H3410 H 0.27837 0.88192 0.1975 0.0
H3411 H 0.27634 0.89849 0.17171 0.0
C3412 C 0.93283 0.5492 0.87089 0.0
C3413 C 0.93321 0.53595 0.85526 0.0
C3414 C 0.94278 0.54895 0.88743 0.0
C3415 C 0.96358 0.51743 0.91166 0.0
H3416 H 0.98592 0.56191 0.94485 0.0
C3417 C 0.00804 0.51793 0.97843 0.0
C3418 C 1.00439 0.52923 0.99434 0.0
C3419 C 1.00006 0.51887 0.96107 0.0
C3420 C 0.97965 0.5494 0.93573 0.0
H3421 H 0.94482 0.51257 0.84434 0.0
H3422 H 0.96254 0.51243 0.87301 0.0
H3423 H 0.97134 0.56379 0.91489 0.0
H3424 H 0.98946 0.55032 1.00454 0.0
H3425 H 0.97562 0.55193 0.97426 0.0
H3426 H 0.972 0.50307 0.93251 0.0
C3427 C 0.95422 0.5227 0.8727 0.0
C3428 C 0.97127 0.55046 0.91861 0.0
C3429 C 0.94416 0.52286 0.85624 0.0
C3430 C 0.99256 0.54141 0.99257 0.0
C3431 C 0.98472 0.54245 0.97521 0.0
C3432 C 0.97207 0.51638 0.92871 0.0
C3433 C 0.9534 0.53554 0.88858 0.0
C3434 C 0.96302 0.53449 0.90644 0.0
C3435 C 0.98843 0.53123 0.95931 0.0
C3436 C 0.98004 0.53235 0.94096 0.0
H3437 H 0.92445 0.55942 0.87051 0.0
H3438 H 0.94169 0.55892 0.89945 0.0
H3439 H 0.95707 0.50487 0.90277 0.0
H3440 H 0.0171 0.50841 0.97933 0.0
H3441 H 1.00321 0.51014 0.94899 0.0
C3442 C 0.30557 0.23305 0.57704 0.0
C3443 C 0.28866 0.22913 0.56685 0.0
C3444 C 0.30749 0.24162 0.59557 0.0
C3445 C 0.28037 0.24691 0.63526 0.0
H3446 H 0.32182 0.28251 0.65878 0.0
C3447 C 0.28226 0.28069 0.71091 0.0
C3448 C 0.29824 0.28239 0.72228 0.0
C3449 C 0.2819 0.27589 0.69176 0.0
C3450 C 0.31024 0.27246 0.65242 0.0
H3451 H 0.26075 0.23204 0.56772 0.0
H3452 H 0.26413 0.24722 0.5999 0.0
H3453 H 0.31965 0.27162 0.62538 0.0
H3454 H 0.32658 0.28092 0.72232 0.0
H3455 H 0.32589 0.27223 0.68871 0.0
H3456 H 0.27101 0.24745 0.66214 0.0
C3457 C 0.27584 0.24335 0.59373 0.0
C3458 C 0.30898 0.26625 0.6333 0.0
C3459 C 0.27392 0.23477 0.57525 0.0
C3460 C 0.31404 0.2797 0.71395 0.0
C3461 C 0.31366 0.2748 0.69469 0.0
C3462 C 0.28163 0.25307 0.65429 0.0
C3463 C 0.29253 0.24643 0.60427 0.0
C3464 C 0.29397 0.25346 0.62449 0.0
C3465 C 0.29749 0.27253 0.68341 0.0
C3466 C 0.29651 0.26598 0.66312 0.0
H3467 H 0.31718 0.22884 0.57094 0.0
H3468 H 0.32051 0.2437 0.60331 0.0
H3469 H 0.26885 0.23671 0.62903 0.0
H3470 H 0.26988 0.2829 0.71679 0.0
H3471 H 0.26931 0.27468 0.68347 0.0
C3472 C 0.62485 0.51661 0.22455 0.0
C3473 C 0.64311 0.52479 0.22967 0.0
C3474 C 0.61588 0.51774 0.20721 0.0
C3475 C 0.61923 0.54442 0.16664 0.0
H3476 H 0.58165 0.50514 0.14176 0.0
C3477 C 0.57524 0.5523 0.09943 0.0
C3478 C 0.56873 0.537 0.08538 0.0
C3479 C 0.5841 0.55068 0.11661 0.0
C3480 C 0.59215 0.51634 0.14829 0.0
H3481 H 0.66584 0.54079 0.21957 0.0
H3482 H 0.65049 0.54288 0.18996 0.0
H3483 H 0.59692 0.50259 0.17125 0.0
H3484 H 0.56688 0.50766 0.07945 0.0
H3485 H 0.58189 0.5048 0.10906 0.0
H3486 H 0.61449 0.55818 0.14373 0.0
C3487 C 0.64287 0.53552 0.19932 0.0
C3488 C 0.60093 0.51493 0.1656 0.0
C3489 C 0.65187 0.5342 0.21652 0.0
C3490 C 0.57149 0.51992 0.08959 0.0
C3491 C 0.58015 0.51827 0.10688 0.0
C3492 C 0.61029 0.54593 0.14947 0.0
C3493 C 0.62458 0.52734 0.19408 0.0
C3494 C 0.61482 0.52889 0.17531 0.0
C3495 C 0.58682 0.53362 0.12092 0.0
C3496 C 0.59649 0.53193 0.13969 0.0
H3497 H 0.61735 0.50927 0.23401 0.0
H3498 H 0.60187 0.51128 0.20429 0.0
H3499 H 0.62955 0.55573 0.17327 0.0
H3500 H 0.5736 0.56577 0.09716 0.0
H3501 H 0.5886 0.56299 0.12669 0.0
C3502 C 0.28734 0.92543 0.94756 0.0
C3503 C 0.2777 0.91978 0.96204 0.0
C3504 C 0.28996 0.91264 0.93239 0.0
C3505 C 0.27223 0.86628 0.9065 0.0
H3506 H 0.32016 0.86952 0.88999 0.0
C3507 C 0.28874 0.81278 0.84703 0.0
C3508 C 0.29988 0.81973 0.83417 0.0
C3509 C 0.28669 0.82391 0.86372 0.0
C3510 C 0.30663 0.86848 0.89424 0.0
H3511 H 0.26286 0.89634 0.97172 0.0
H3512 H 0.26719 0.87411 0.94512 0.0
H3513 H 0.31457 0.89152 0.91604 0.0
H3514 H 0.3181 0.84371 0.82919 0.0
H3515 H 0.31431 0.86295 0.85775 0.0
H3516 H 0.26414 0.84355 0.88442 0.0
C3517 C 0.27277 0.8884 0.94551 0.0
C3518 C 0.30344 0.88113 0.90922 0.0
C3519 C 0.27034 0.90114 0.96078 0.0
C3520 C 0.30941 0.83781 0.83872 0.0
C3521 C 0.30732 0.84889 0.85527 0.0
C3522 C 0.27537 0.85372 0.89137 0.0
C3523 C 0.28283 0.89395 0.93125 0.0
C3524 C 0.28618 0.88028 0.91545 0.0
C3525 C 0.29572 0.84224 0.86791 0.0
C3526 C 0.29259 0.85474 0.8849 0.0
H3527 H 0.29322 0.93967 0.94815 0.0
H3528 H 0.2976 0.9174 0.92153 0.0
H3529 H 0.25875 0.86531 0.91089 0.0
H3530 H 0.28116 0.79895 0.84398 0.0
H3531 H 0.27786 0.81819 0.87322 0.0
C3532 C 0.94602 0.52776 0.76269 0.0
C3533 C 0.92867 0.51791 0.76354 0.0
C3534 C 0.95537 0.52409 0.74715 0.0
C3535 C 0.94755 0.50678 0.69769 0.0
H3536 H 0.99884 0.50681 0.70131 0.0
C3537 C 0.00817 0.49721 0.64706 0.0
C3538 C 1.00524 0.50948 0.63515 0.0
C3539 C 0.99832 0.49596 0.66243 0.0
C3540 C 0.98448 0.50656 0.70007 0.0
H3541 H 0.90763 0.49618 0.74908 0.0
H3542 H 0.92398 0.48983 0.72178 0.0
H3543 H 0.98282 0.50814 0.72926 0.0
H3544 H 0.98969 0.53009 0.63012 0.0
H3545 H 0.97238 0.52772 0.65681 0.0
H3546 H 0.94927 0.50551 0.66856 0.0
C3547 C 0.93029 0.50043 0.73313 0.0
C3548 C 0.97536 0.50747 0.71606 0.0
C3549 C 0.92098 0.50401 0.74876 0.0
C3550 C 0.99207 0.52028 0.63882 0.0
C3551 C 0.98216 0.51894 0.65411 0.0
C3552 C 0.9567 0.50599 0.68173 0.0
C3553 C 0.94749 0.51057 0.73211 0.0
C3554 C 0.95686 0.50786 0.71505 0.0
C3555 C 0.98526 0.50685 0.66613 0.0
C3556 C 0.9753 0.50615 0.6828 0.0
H3557 H 0.95228 0.53853 0.77391 0.0
H3558 H 0.96853 0.53225 0.74665 0.0
H3559 H 0.93332 0.5072 0.69652 0.0
H3560 H 0.018 0.48848 0.64444 0.0
H3561 H 1.00085 0.48639 0.67138 0.0
C3562 C 0.27571 0.20363 0.45088 0.0
C3563 C 0.28546 0.21365 0.46721 0.0
C3564 C 0.27718 0.21015 0.43418 0.0
C3565 C 0.3071 0.24015 0.40992 0.0
H3566 H 0.26394 0.23808 0.378 0.0
C3567 C 0.30862 0.27108 0.34263 0.0
C3568 C 0.29674 0.26173 0.32738 0.0
C3569 C 0.30753 0.26559 0.3599 0.0
C3570 C 0.27616 0.23853 0.3866 0.0
H3571 H 0.30445 0.23833 0.47888 0.0
H3572 H 0.30718 0.2497 0.44954 0.0
H3573 H 0.26145 0.22801 0.40779 0.0
H3574 H 0.27468 0.23897 0.31822 0.0
H3575 H 0.27309 0.22909 0.34813 0.0
H3576 H 0.32187 0.2503 0.38861 0.0
C3577 C 0.2984 0.23678 0.44972 0.0
C3578 C 0.27471 0.23283 0.40372 0.0
C3579 C 0.29677 0.23033 0.4665 0.0
C3580 C 0.28396 0.24656 0.3297 0.0
C3581 C 0.28297 0.24098 0.34692 0.0
C3582 C 0.30858 0.24571 0.39271 0.0
C3583 C 0.28856 0.22677 0.4334 0.0
C3584 C 0.29016 0.23349 0.41553 0.0
C3585 C 0.29461 0.25053 0.3623 0.0
C3586 C 0.29312 0.24488 0.38077 0.0
H3587 H 0.26689 0.19071 0.45098 0.0
H3588 H 0.2696 0.20204 0.4218 0.0
H3589 H 0.31925 0.24063 0.41866 0.0
H3590 H 0.31856 0.28291 0.34135 0.0
H3591 H 0.31657 0.27342 0.37145 0.0
C3592 C 0.35659 0.59244 0.52988 0.0
C3593 C 0.35612 0.61061 0.53771 0.0
C3594 C 0.37309 0.58658 0.52736 0.0
C3595 C 0.42217 0.60435 0.52455 0.0
H3596 H 0.42767 0.55585 0.53198 0.0
C3597 C 0.49208 0.58139 0.52624 0.0
C3598 C 0.49277 0.563 0.51945 0.0
C3599 C 0.4755 0.58734 0.52753 0.0
C3600 C 0.42638 0.56937 0.52956 0.0
H3601 H 0.37286 0.63678 0.54915 0.0
H3602 H 0.40142 0.62661 0.545 0.0
H3603 H 0.39895 0.56558 0.53626 0.0
H3604 H 0.4762 0.53668 0.50807 0.0
H3605 H 0.44758 0.54706 0.50994 0.0
H3606 H 0.44963 0.60815 0.51789 0.0
C3607 C 0.38909 0.61686 0.54051 0.0
C3608 C 0.4098 0.57499 0.53205 0.0
C3609 C 0.37263 0.62269 0.54305 0.0
C3610 C 0.47635 0.55093 0.51342 0.0
C3611 C 0.45982 0.55687 0.51469 0.0
C3612 C 0.43876 0.59873 0.52204 0.0
C3613 C 0.38965 0.59872 0.53254 0.0
C3614 C 0.40738 0.5926 0.52964 0.0
C3615 C 0.45904 0.57511 0.52208 0.0
C3616 C 0.44119 0.58114 0.52452 0.0
H3617 H 0.34418 0.58276 0.52551 0.0
H3618 H 0.37282 0.57257 0.52099 0.0
H3619 H 0.42089 0.6179 0.52221 0.0
H3620 H 0.50433 0.59111 0.53117 0.0
H3621 H 0.4756 0.60145 0.53344 0.0
C3622 C 0.85601 0.93997 0.53569 0.0
C3623 C 0.85312 0.9271 0.54758 0.0
C3624 C 0.87301 0.95075 0.53576 0.0
C3625 C 0.91664 0.96771 0.56374 0.0
H3626 H 0.93462 0.97364 0.51633 0.0
C3627 C 0.9831 0.01651 0.5554 0.0
C3628 C 0.99388 0.00989 0.54191 0.0
C3629 C 0.96601 1.00658 0.55708 0.0
C3630 C 0.92984 0.97204 0.52969 0.0
H3631 H 0.86571 0.91562 0.56908 0.0
H3632 H 0.89541 0.93439 0.56916 0.0
H3633 H 0.90457 0.95621 0.51736 0.0
H3634 H 0.99531 0.98729 0.52003 0.0
H3635 H 0.96576 0.97008 0.52308 0.0
H3636 H 0.94211 0.98336 0.57602 0.0
C3637 C 0.88451 0.93626 0.55988 0.0
C3638 C 0.91253 0.96223 0.53028 0.0
C3639 C 0.86752 0.92542 0.55975 0.0
C3640 C 0.98738 0.99291 0.53051 0.0
C3641 C 0.97035 0.98306 0.53216 0.0
C3642 C 0.93396 0.97764 0.56314 0.0
C3643 C 0.88749 0.94895 0.54778 0.0
C3644 C 0.90575 0.95986 0.5473 0.0
C3645 C 0.95934 0.98989 0.54525 0.0
C3646 C 0.9408 0.97978 0.54609 0.0
H3647 H 0.84516 0.94162 0.5262 0.0
H3648 H 0.87481 0.96055 0.52643 0.0
H3649 H 0.91174 0.96626 0.57708 0.0
H3650 H 0.98768 0.02954 0.5644 0.0
H3651 H 0.95781 0.01224 0.56726 0.0
C3652 C 0.90154 0.12929 0.28544 0.0
C3653 C 0.8921 0.11137 0.2781 0.0
C3654 C 0.89347 0.14524 0.28589 0.0
C3655 C 0.84746 0.16137 0.27717 0.0
H3656 H 0.87741 0.20936 0.28501 0.0
C3657 C 0.81378 0.22862 0.2838 0.0
C3658 C 0.82342 0.24598 0.28168 0.0
C3659 C 0.82199 0.21279 0.28346 0.0
C3660 C 0.86848 0.19624 0.28265 0.0
H3661 H 0.86591 0.09738 0.26533 0.0
H3662 H 0.85215 0.12445 0.2658 0.0
H3663 H 0.89109 0.18242 0.28389 0.0
H3664 H 0.85025 0.25904 0.27735 0.0
H3665 H 0.86431 0.2321 0.27658 0.0
H3666 H 0.82487 0.17513 0.27551 0.0
C3667 C 0.86593 0.12649 0.27162 0.0
C3668 C 0.87657 0.18029 0.2822 0.0
C3669 C 0.874 0.11054 0.27122 0.0
C3670 C 0.84195 0.24636 0.2792 0.0
C3671 C 0.8502 0.2305 0.27883 0.0
C3672 C 0.83937 0.1773 0.2776 0.0
C3673 C 0.87531 0.14454 0.27898 0.0
C3674 C 0.86641 0.16215 0.27946 0.0
C3675 C 0.84055 0.21301 0.2809 0.0
C3676 C 0.84952 0.19544 0.28038 0.0
H3677 H 0.9154 0.13108 0.29101 0.0
H3678 H 0.90171 0.15824 0.29198 0.0
H3679 H 0.83849 0.14828 0.27518 0.0
H3680 H 0.79958 0.22712 0.28574 0.0
H3681 H 0.81351 0.2003 0.28544 0.0
C3682 C 0.74683 0.09616 0.0485 0.0
C3683 C 0.75548 0.10224 0.03359 0.0
C3684 C 0.7282 0.08944 0.04675 0.0
C3685 C 0.68621 0.09052 0.01782 0.0
H3686 H 0.6652 0.05165 0.04301 0.0
C3687 C 0.61002 0.05818 1.00605 0.0
C3688 C 0.60118 0.05394 0.02158 0.0
C3689 C 0.62881 0.06366 1.00729 0.0
C3690 C 0.67079 0.06265 0.03601 0.0
H3691 H 0.7513 0.10548 1.00498 0.0
H3692 H 0.71908 0.09342 1.00178 0.0
H3693 H 0.69779 0.0614 0.04546 0.0
H3694 H 0.60547 0.05221 0.05065 0.0
H3695 H 0.63804 0.06177 0.05279 0.0
H3696 H 0.65921 0.09173 0.00834 0.0
C3697 C 0.72653 0.09418 0.015 0.0
C3698 C 0.68957 0.06828 0.03743 0.0
C3699 C 0.7451 0.10095 0.01677 0.0
C3700 C 0.61171 0.05532 0.03836 0.0
C3701 C 0.63049 0.0607 0.03957 0.0
C3702 C 0.66746 0.08485 0.01635 0.0
C3703 C 0.71769 0.08858 0.03004 0.0
C3704 C 0.6976 0.08233 0.02838 0.0
C3705 C 0.63935 0.06497 0.02407 0.0
C3706 C 0.65943 0.07085 0.02545 0.0
H3707 H 0.75437 0.09708 0.0617 0.0
H3708 H 0.72196 0.08546 0.05874 0.0
H3709 H 0.69174 0.10163 0.01093 0.0
H3710 H 0.60243 0.05728 0.99288 0.0
H3711 H 0.6351 0.06663 0.99499 0.0
C3712 C 0.24034 0.50804 0.25547 0.0
C3713 C 0.22457 0.51073 0.26377 0.0
C3714 C 0.24903 0.49397 0.2592 0.0
C3715 C 0.24277 0.45116 0.27852 0.0
H3716 H 0.29453 0.46367 0.28992 0.0
C3717 C 0.28146 0.40481 0.31299 0.0
C3718 C 0.29683 0.40075 0.30464 0.0
C3719 C 0.27333 0.41888 0.3083 0.0
C3720 C 0.2801 0.45996 0.28664 0.0
H3721 H 0.20511 0.50048 0.28189 0.0
H3722 H 0.22033 0.47608 0.28854 0.0
H3723 H 0.27831 0.48606 0.27958 0.0
H3724 H 0.31618 0.40871 0.28545 0.0
H3725 H 0.30206 0.43346 0.27741 0.0
H3726 H 0.24453 0.42516 0.28578 0.0
C3727 C 0.22593 0.48467 0.27902 0.0
C3728 C 0.27083 0.47272 0.28063 0.0
C3729 C 0.21724 0.4987 0.27527 0.0
C3730 C 0.30447 0.41167 0.29227 0.0
C3731 C 0.29636 0.42578 0.28761 0.0
C3732 C 0.25202 0.43846 0.28459 0.0
C3733 C 0.24209 0.48237 0.2713 0.0
C3734 C 0.25205 0.46848 0.27662 0.0
C3735 C 0.28045 0.42919 0.29522 0.0
C3736 C 0.27076 0.44278 0.28883 0.0
H3737 H 0.24624 0.5171 0.2465 0.0
H3738 H 0.26131 0.49233 0.25282 0.0
H3739 H 0.22834 0.4474 0.27527 0.0
H3740 H 0.27545 0.3968 0.3228 0.0
H3741 H 0.26128 0.42148 0.31465 0.0
C3742 C 0.24399 0.40488 0.04799 0.0
C3743 C 0.2614 0.41548 0.05131 0.0
C3744 C 0.22894 0.41321 0.04728 0.0
C3745 C 0.21306 0.45645 0.06106 0.0
H3746 H 0.17652 0.4368 0.02031 0.0
C3747 C 0.15514 0.49368 0.04363 0.0
C3748 C 0.13822 0.48293 0.03714 0.0
C3749 C 0.17009 0.4855 0.04631 0.0
C3750 C 0.18643 0.44231 0.03195 0.0
H3751 H 0.27669 0.44313 0.05694 0.0
H3752 H 0.25032 0.45772 0.05576 0.0
H3753 H 0.20268 0.42247 0.02349 0.0
H3754 H 0.12353 0.45519 0.02907 0.0
H3755 H 0.14947 0.44089 0.03404 0.0
H3756 H 0.19675 0.47624 0.0696 0.0
C3757 C 0.24834 0.44296 0.05376 0.0
C3758 C 0.20146 0.43411 0.03374 0.0
C3759 C 0.26343 0.43461 0.05435 0.0
C3760 C 0.13646 0.46383 0.0338 0.0
C3761 C 0.15136 0.45565 0.0366 0.0
C3762 C 0.19794 0.46461 0.05935 0.0
C3763 C 0.23095 0.43233 0.04998 0.0
C3764 C 0.21495 0.44108 0.0483 0.0
C3765 C 0.16842 0.46638 0.04268 0.0
C3766 C 0.18444 0.45764 0.04475 0.0
H3767 H 0.24199 0.3901 0.04564 0.0
H3768 H 0.21571 0.40466 0.0446 0.0
H3769 H 0.22315 0.46202 0.07254 0.0
H3770 H 0.15694 0.50844 0.04614 0.0
H3771 H 0.18304 0.4942 0.05076 0.0
C3772 C 0.87209 0.99976 0.27784 0.0
C3773 C 0.89033 1.00474 0.27444 0.0
C3774 C 0.86401 0.98128 0.27824 0.0
C3775 C 0.87132 0.93146 0.26585 0.0
H3776 H 0.83141 0.92099 0.29538 0.0
C3777 C 0.84171 0.85509 0.27493 0.0
C3778 C 0.82352 0.85009 0.27854 0.0
C3779 C 0.84973 0.87356 0.27438 0.0
C3780 C 0.84238 0.92337 0.28677 0.0
H3781 H 0.91407 0.99315 0.26887 0.0
H3782 H 0.90037 0.96156 0.26969 0.0
H3783 H 0.84485 0.95252 0.29443 0.0
H3784 H 0.79983 0.86173 0.2843 0.0
H3785 H 0.8134 0.89325 0.28316 0.0
H3786 H 0.86885 0.90231 0.25818 0.0
C3787 C 0.89197 0.9718 0.2718 0.0
C3788 C 0.85026 0.94185 0.28622 0.0
C3789 C 0.90002 0.99024 0.27143 0.0
C3790 C 0.81382 0.86459 0.28154 0.0
C3791 C 0.82181 0.88302 0.281 0.0
C3792 C 0.86344 0.91298 0.26639 0.0
C3793 C 0.8737 0.96668 0.27524 0.0
C3794 C 0.865 0.94652 0.27575 0.0
C3795 C 0.84003 0.88814 0.27742 0.0
C3796 C 0.8487 0.90831 0.27687 0.0
H3797 H 0.86395 0.01022 0.28025 0.0
H3798 H 0.84995 0.97849 0.28071 0.0
H3799 H 0.88231 0.93384 0.25725 0.0
H3800 H 0.84991 0.84468 0.27257 0.0
H3801 H 0.86377 0.87635 0.2718 0.0
C3802 C 0.71962 0.11461 0.74221 0.0
C3803 C 0.72532 0.10147 0.75153 0.0
C3804 C 0.73145 0.1307 0.74115 0.0
C3805 C 0.75949 0.16362 0.73855 0.0
H3806 H 0.77995 0.18526 0.78836 0.0
C3807 C 0.78153 0.24148 0.76104 0.0
C3808 C 0.77262 0.24782 0.77633 0.0
C3809 C 0.78206 0.2229 0.75637 0.0
C3810 C 0.77458 0.17934 0.7743 0.0
H3811 H 0.74822 0.09396 0.7655 0.0
H3812 H 0.76894 0.12212 0.7636 0.0
H3813 H 0.76913 0.15248 0.78079 0.0
H3814 H 0.7582 0.23997 0.79931 0.0
H3815 H 0.75911 0.20768 0.7912 0.0
H3816 H 0.76365 0.19081 0.73258 0.0
C3817 C 0.75527 0.1201 0.75737 0.0
C3818 C 0.76853 0.16054 0.76988 0.0
C3819 C 0.74342 0.104 0.75845 0.0
C3820 C 0.76499 0.23545 0.78734 0.0
C3821 C 0.76572 0.21698 0.78282 0.0
C3822 C 0.76556 0.18247 0.74298 0.0
C3823 C 0.7492 0.13392 0.74936 0.0
C3824 C 0.76006 0.15261 0.75223 0.0
C3825 C 0.77396 0.21047 0.76712 0.0
C3826 C 0.77227 0.19056 0.76117 0.0
H3827 H 0.70577 0.11294 0.73663 0.0
H3828 H 0.72626 0.14113 0.73506 0.0
H3829 H 0.75328 0.15783 0.72475 0.0
H3830 H 0.78756 0.25075 0.75234 0.0
H3831 H 0.78849 0.21819 0.74421 0.0
loop_
_geom_bond_atom_site_label_1
_geom_bond_atom_site_label_2
_geom_bond_distance
_geom_bond_site_symmetry_2
_ccdc_geom_bond_type
In0 O1 2.294 . S
In0 O2 2.326 . S
In0 O6 2.266 . S
In0 O7 2.326 . S
In0 O8 2.266 . S
In0 O9 2.326 . S
In0 O11 2.294 . S
In0 O12 2.326 . S
O1 In0 2.294 . S
O1 C10 1.240 . S
O2 In0 2.326 . S
O2 C10 1.252 . S
C3 O6 1.252 . S
C3 O7 1.260 . S
C4 O11 1.240 . S
C4 O12 1.252 . S
C5 O8 1.252 . S
C5 O9 1.260 . S
O6 In0 2.266 . S
O6 C3 1.252 . S
O7 In0 2.326 . S
O7 C3 1.260 . S
O8 In0 2.266 . S
O8 C5 1.252 . S
O9 In0 2.326 . S
O9 C5 1.260 . S
C10 O1 1.240 . S
C10 O2 1.252 . S
O11 In0 2.294 . S
O11 C4 1.240 . S
O12 In0 2.326 . S
O12 C4 1.252 . S
In13 O14 2.294 . S
In13 O15 2.326 . S
In13 O19 2.266 1_455 S
In13 O20 2.326 1_455 S
In13 O21 2.264 1_455 S
In13 O22 2.322 1_455 S
In13 O24 2.296 . S
In13 O25 2.330 . S
O14 In13 2.294 . S
O14 C23 1.240 . S
O15 In13 2.326 . S
O15 C23 1.252 . S
C16 O19 1.252 . S
C16 O20 1.260 . S
C17 O24 1.240 . S
C17 O25 1.252 . S
C18 O21 1.252 . S
C18 O22 1.260 . S
O19 In13 2.266 1_655 S
O19 C16 1.252 . S
O20 In13 2.326 1_655 S
O20 C16 1.260 . S
O21 In13 2.264 1_655 S
O21 C18 1.252 . S
O22 In13 2.322 1_655 S
O22 C18 1.260 . S
C23 O14 1.240 . S
C23 O15 1.252 . S
O24 In13 2.296 . S
O24 C17 1.240 . S
O25 In13 2.330 . S
O25 C17 1.252 . S
In26 O27 2.294 . S
In26 O28 2.326 . S
In26 O32 2.266 . S
In26 O33 2.326 . S
In26 O34 2.266 . S
In26 O35 2.326 . S
In26 O37 2.294 . S
In26 O38 2.326 . S
O27 In26 2.294 . S
O27 C36 1.240 . S
O28 In26 2.326 . S
O28 C36 1.252 . S
C29 O32 1.252 . S
C29 O33 1.260 . S
C30 O37 1.240 . S
C30 O38 1.252 . S
C31 O34 1.252 . S
C31 O35 1.260 . S
O32 In26 2.266 . S
O32 C29 1.252 . S
O33 In26 2.326 . S
O33 C29 1.260 . S
O34 In26 2.266 . S
O34 C31 1.252 . S
O35 In26 2.326 . S
O35 C31 1.260 . S
C36 O27 1.240 . S
C36 O28 1.252 . S
O37 In26 2.294 . S
O37 C30 1.240 . S
O38 In26 2.326 . S
O38 C30 1.252 . S
In39 O40 2.294 . S
In39 O41 2.326 . S
In39 O45 2.266 . S
In39 O46 2.326 . S
In39 O47 2.266 . S
In39 O48 2.326 . S
In39 O50 2.294 . S
In39 O51 2.326 . S
O40 In39 2.294 . S
O40 C49 1.240 . S
O41 In39 2.326 . S
O41 C49 1.252 . S
C42 O45 1.252 . S
C42 O46 1.260 . S
C43 O50 1.240 . S
C43 O51 1.252 . S
C44 O47 1.252 . S
C44 O48 1.260 . S
O45 In39 2.266 . S
O45 C42 1.252 . S
O46 In39 2.326 . S
O46 C42 1.260 . S
O47 In39 2.266 . S
O47 C44 1.252 . S
O48 In39 2.326 . S
O48 C44 1.260 . S
C49 O40 1.240 . S
C49 O41 1.252 . S
O50 In39 2.294 . S
O50 C43 1.240 . S
O51 In39 2.326 . S
O51 C43 1.252 . S
In52 O53 2.294 . S
In52 O54 2.326 . S
In52 O58 2.266 . S
In52 O59 2.326 . S
In52 O60 2.266 . S
In52 O61 2.326 . S
In52 O63 2.294 . S
In52 O64 2.326 . S
O53 In52 2.294 . S
O53 C62 1.240 . S
O54 In52 2.326 . S
O54 C62 1.252 . S
C55 O58 1.252 . S
C55 O59 1.260 . S
C56 O63 1.240 . S
C56 O64 1.252 . S
C57 O60 1.252 . S
C57 O61 1.260 . S
O58 In52 2.266 . S
O58 C55 1.252 . S
O59 In52 2.326 . S
O59 C55 1.260 . S
O60 In52 2.266 . S
O60 C57 1.252 . S
O61 In52 2.326 . S
O61 C57 1.260 . S
C62 O53 1.240 . S
C62 O54 1.252 . S
O63 In52 2.294 . S
O63 C56 1.240 . S
O64 In52 2.326 . S
O64 C56 1.252 . S
In65 O66 2.294 . S
In65 O67 2.326 . S
In65 O71 2.266 . S
In65 O72 2.326 . S
In65 O73 2.266 . S
In65 O74 2.326 . S
In65 O76 2.294 . S
In65 O77 2.326 . S
O66 In65 2.294 . S
O66 C75 1.240 . S
O67 In65 2.326 . S
O67 C75 1.252 . S
C68 O71 1.252 . S
C68 O72 1.260 . S
C69 O76 1.240 . S
C69 O77 1.252 . S
C70 O73 1.252 . S
C70 O74 1.260 . S
O71 In65 2.266 . S
O71 C68 1.252 . S
O72 In65 2.326 . S
O72 C68 1.260 . S
O73 In65 2.266 . S
O73 C70 1.252 . S
O74 In65 2.326 . S
O74 C70 1.260 . S
C75 O66 1.240 . S
C75 O67 1.252 . S
O76 In65 2.294 . S
O76 C69 1.240 . S
O77 In65 2.326 . S
O77 C69 1.252 . S
In78 O79 2.294 . S
In78 O80 2.326 . S
In78 O84 2.266 . S
In78 O85 2.326 . S
In78 O86 2.266 . S
In78 O87 2.326 . S
In78 O89 2.294 . S
In78 O90 2.326 . S
O79 In78 2.294 . S
O79 C88 1.240 . S
O80 In78 2.326 . S
O80 C88 1.252 . S
C81 O84 1.252 . S
C81 O85 1.260 . S
C82 O89 1.240 . S
C82 O90 1.252 . S
C83 O86 1.252 . S
C83 O87 1.260 . S
O84 In78 2.266 . S
O84 C81 1.252 . S
O85 In78 2.326 . S
O85 C81 1.260 . S
O86 In78 2.266 . S
O86 C83 1.252 . S
O87 In78 2.326 . S
O87 C83 1.260 . S
C88 O79 1.240 . S
C88 O80 1.252 . S
O89 In78 2.294 . S
O89 C82 1.240 . S
O90 In78 2.326 . S
O90 C82 1.252 . S
In91 O92 2.294 . S
In91 O93 2.326 . S
In91 O97 2.266 . S
In91 O98 2.326 . S
In91 O99 2.266 1_455 S
In91 O100 2.326 1_455 S
In91 O102 2.294 . S
In91 O103 2.326 . S
O92 In91 2.294 . S
O92 C101 1.240 . S
O93 In91 2.326 . S
O93 C101 1.252 . S
C94 O97 1.252 . S
C94 O98 1.260 . S
C95 O102 1.240 . S
C95 O103 1.252 . S
C96 O99 1.252 . S
C96 O100 1.260 . S
O97 In91 2.266 . S
O97 C94 1.252 . S
O98 In91 2.326 . S
O98 C94 1.260 . S
O99 In91 2.266 1_655 S
O99 C96 1.252 . S
O100 In91 2.326 1_655 S
O100 C96 1.260 . S
C101 O92 1.240 . S
C101 O93 1.252 . S
O102 In91 2.294 . S
O102 C95 1.240 . S
O103 In91 2.326 . S
O103 C95 1.252 . S
In104 O105 2.294 . S
In104 O106 2.326 . S
In104 O110 2.266 . S
In104 O111 2.326 . S
In104 O112 2.266 1_545 S
In104 O113 2.326 1_545 S
In104 O115 2.294 . S
In104 O116 2.326 . S
O105 In104 2.294 . S
O105 C114 1.240 . S
O106 In104 2.326 . S
O106 C114 1.252 . S
C107 O110 1.252 . S
C107 O111 1.260 . S
C108 O115 1.240 . S
C108 O116 1.252 . S
C109 O112 1.252 . S
C109 O113 1.260 . S
O110 In104 2.266 . S
O110 C107 1.252 . S
O111 In104 2.326 . S
O111 C107 1.260 . S
O112 In104 2.266 1_565 S
O112 C109 1.252 . S
O113 In104 2.326 1_565 S
O113 C109 1.260 . S
C114 O105 1.240 . S
C114 O106 1.252 . S
O115 In104 2.294 . S
O115 C108 1.240 . S
O116 In104 2.326 . S
O116 C108 1.252 . S
In117 O118 2.294 . S
In117 O119 2.326 . S
In117 O123 2.266 . S
In117 O124 2.326 . S
In117 O125 2.266 . S
In117 O126 2.326 . S
In117 O128 2.294 . S
In117 O129 2.326 . S
O118 In117 2.294 . S
O118 C127 1.240 . S
O119 In117 2.326 . S
O119 C127 1.252 . S
C120 O123 1.252 . S
C120 O124 1.260 . S
C121 O128 1.240 . S
C121 O129 1.252 . S
C122 O125 1.252 . S
C122 O126 1.260 . S
O123 In117 2.266 . S
O123 C120 1.252 . S
O124 In117 2.326 . S
O124 C120 1.260 . S
O125 In117 2.266 . S
O125 C122 1.252 . S
O126 In117 2.326 . S
O126 C122 1.260 . S
C127 O118 1.240 . S
C127 O119 1.252 . S
O128 In117 2.294 . S
O128 C121 1.240 . S
O129 In117 2.326 . S
O129 C121 1.252 . S
In130 O131 2.294 . S
In130 O132 2.326 . S
In130 O136 2.266 . S
In130 O137 2.326 . S
In130 O138 2.266 . S
In130 O139 2.326 . S
In130 O141 2.294 1_545 S
In130 O142 2.326 1_545 S
O131 In130 2.294 . S
O131 C140 1.240 . S
O132 In130 2.326 . S
O132 C140 1.252 . S
C133 O136 1.252 . S
C133 O137 1.260 . S
C134 O141 1.240 . S
C134 O142 1.252 . S
C135 O138 1.252 . S
C135 O139 1.260 . S
O136 In130 2.266 . S
O136 C133 1.252 . S
O137 In130 2.326 . S
O137 C133 1.260 . S
O138 In130 2.266 . S
O138 C135 1.252 . S
O139 In130 2.326 . S
O139 C135 1.260 . S
C140 O131 1.240 . S
C140 O132 1.252 . S
O141 In130 2.294 1_565 S
O141 C134 1.240 . S
O142 In130 2.326 1_565 S
O142 C134 1.252 . S
In143 O144 2.294 . S
In143 O145 2.326 . S
In143 O149 2.266 1_554 S
In143 O150 2.326 1_554 S
In143 O151 2.266 . S
In143 O152 2.326 . S
In143 O154 2.294 . S
In143 O155 2.326 . S
O144 In143 2.294 . S
O144 C153 1.240 . S
O145 In143 2.326 . S
O145 C153 1.252 . S
C146 O149 1.252 . S
C146 O150 1.260 . S
C147 O154 1.240 . S
C147 O155 1.252 . S
C148 O151 1.252 . S
C148 O152 1.260 . S
O149 In143 2.266 1_556 S
O149 C146 1.252 . S
O150 In143 2.326 1_556 S
O150 C146 1.260 . S
O151 In143 2.266 . S
O151 C148 1.252 . S
O152 In143 2.326 . S
O152 C148 1.260 . S
C153 O144 1.240 . S
C153 O145 1.252 . S
O154 In143 2.294 . S
O154 C147 1.240 . S
O155 In143 2.326 . S
O155 C147 1.252 . S
In156 O157 2.294 . S
In156 O158 2.326 . S
In156 O162 2.242 1_554 S
In156 O163 2.326 1_554 S
In156 O164 2.266 . S
In156 O165 2.326 . S
In156 O167 2.294 . S
In156 O168 2.326 . S
O157 In156 2.294 . S
O157 C166 1.240 . S
O158 In156 2.326 . S
O158 C166 1.252 . S
C159 O162 1.285 . S
C159 O163 1.260 . S
C160 O167 1.240 . S
C160 O168 1.252 . S
C161 O164 1.252 . S
C161 O165 1.260 . S
O162 In156 2.242 1_556 S
O162 C159 1.285 . S
O163 In156 2.326 1_556 S
O163 C159 1.260 . S
O164 In156 2.266 . S
O164 C161 1.252 . S
O165 In156 2.326 . S
O165 C161 1.260 . S
C166 O157 1.240 . S
C166 O158 1.252 . S
O167 In156 2.294 . S
O167 C160 1.240 . S
O168 In156 2.326 . S
O168 C160 1.252 . S
In169 O170 2.294 . S
In169 O171 2.326 . S
In169 O175 2.266 . S
In169 O176 2.326 . S
In169 O177 2.266 . S
In169 O178 2.326 1_554 S
In169 O180 2.294 . S
In169 O181 2.326 . S
O170 In169 2.294 . S
O170 C179 1.240 . S
O171 In169 2.326 . S
O171 C179 1.252 . S
C172 O175 1.252 . S
C172 O176 1.260 . S
C173 O180 1.240 . S
C173 O181 1.252 . S
C174 O177 1.252 1_556 S
C174 O178 1.260 . S
O175 In169 2.266 . S
O175 C172 1.252 . S
O176 In169 2.326 . S
O176 C172 1.260 . S
O177 In169 2.266 . S
O177 C174 1.252 1_554 S
O178 In169 2.326 1_556 S
O178 C174 1.260 . S
C179 O170 1.240 . S
C179 O171 1.252 . S
O180 In169 2.294 . S
O180 C173 1.240 . S
O181 In169 2.326 . S
O181 C173 1.252 . S
In182 O183 2.294 . S
In182 O184 2.326 . S
In182 O188 2.266 . S
In182 O189 2.326 . S
In182 O190 2.266 . S
In182 O191 2.326 . S
In182 O193 2.294 . S
In182 O194 2.326 . S
O183 In182 2.294 . S
O183 C192 1.240 . S
O184 In182 2.326 . S
O184 C192 1.252 . S
C185 O188 1.252 . S
C185 O189 1.260 . S
C186 O193 1.240 . S
C186 O194 1.252 . S
C187 O190 1.252 . S
C187 O191 1.260 . S
O188 In182 2.266 . S
O188 C185 1.252 . S
O189 In182 2.326 . S
O189 C185 1.260 . S
O190 In182 2.266 . S
O190 C187 1.252 . S
O191 In182 2.326 . S
O191 C187 1.260 . S
C192 O183 1.240 . S
C192 O184 1.252 . S
O193 In182 2.294 . S
O193 C186 1.240 . S
O194 In182 2.326 . S
O194 C186 1.252 . S
In195 O196 2.294 . S
In195 O197 2.326 . S
In195 O201 2.266 . S
In195 O202 2.326 . S
In195 O203 2.266 . S
In195 O204 2.326 . S
In195 O206 2.294 . S
In195 O207 2.326 . S
O196 In195 2.294 . S
O196 C205 1.240 . S
O197 In195 2.326 . S
O197 C205 1.252 . S
C198 O201 1.252 . S
C198 O202 1.260 . S
C199 O206 1.240 . S
C199 O207 1.252 . S
C200 O203 1.252 . S
C200 O204 1.260 . S
O201 In195 2.266 . S
O201 C198 1.252 . S
O202 In195 2.326 . S
O202 C198 1.260 . S
O203 In195 2.266 . S
O203 C200 1.252 . S
O204 In195 2.326 . S
O204 C200 1.260 . S
C205 O196 1.240 . S
C205 O197 1.252 . S
O206 In195 2.294 . S
O206 C199 1.240 . S
O207 In195 2.326 . S
O207 C199 1.252 . S
In208 O209 2.294 . S
In208 O210 2.326 . S
In208 O214 2.266 . S
In208 O215 2.326 . S
In208 O216 2.266 . S
In208 O217 2.326 . S
In208 O219 2.294 . S
In208 O220 2.326 . S
O209 In208 2.294 . S
O209 C218 1.240 . S
O210 In208 2.326 . S
O210 C218 1.252 . S
C211 O214 1.252 . S
C211 O215 1.260 . S
C212 O219 1.240 . S
C212 O220 1.252 . S
C213 O216 1.252 . S
C213 O217 1.260 . S
O214 In208 2.266 . S
O214 C211 1.252 . S
O215 In208 2.326 . S
O215 C211 1.260 . S
O216 In208 2.266 . S
O216 C213 1.252 . S
O217 In208 2.326 . S
O217 C213 1.260 . S
C218 O209 1.240 . S
C218 O210 1.252 . S
O219 In208 2.294 . S
O219 C212 1.240 . S
O220 In208 2.326 . S
O220 C212 1.252 . S
In221 O222 2.294 . S
In221 O223 2.326 . S
In221 O227 2.266 . S
In221 O228 2.326 . S
In221 O229 2.266 . S
In221 O230 2.326 . S
In221 O232 2.294 . S
In221 O233 2.326 . S
O222 In221 2.294 . S
O222 C231 1.240 . S
O223 In221 2.326 . S
O223 C231 1.252 . S
C224 O227 1.252 . S
C224 O228 1.260 . S
C225 O232 1.240 . S
C225 O233 1.252 . S
C226 O229 1.252 . S
C226 O230 1.260 . S
O227 In221 2.266 . S
O227 C224 1.252 . S
O228 In221 2.326 . S
O228 C224 1.260 . S
O229 In221 2.266 . S
O229 C226 1.252 . S
O230 In221 2.326 . S
O230 C226 1.260 . S
C231 O222 1.240 . S
C231 O223 1.252 . S
O232 In221 2.294 . S
O232 C225 1.240 . S
O233 In221 2.326 . S
O233 C225 1.252 . S
In234 O235 2.294 . S
In234 O236 2.326 . S
In234 O240 2.266 . S
In234 O241 2.326 . S
In234 O242 2.266 . S
In234 O243 2.326 . S
In234 O245 2.294 . S
In234 O246 2.326 . S
O235 In234 2.294 . S
O235 C244 1.240 . S
O236 In234 2.326 . S
O236 C244 1.252 . S
C237 O240 1.252 . S
C237 O241 1.260 . S
C238 O245 1.240 . S
C238 O246 1.252 . S
C239 O242 1.252 . S
C239 O243 1.260 . S
O240 In234 2.266 . S
O240 C237 1.252 . S
O241 In234 2.326 . S
O241 C237 1.260 . S
O242 In234 2.266 . S
O242 C239 1.252 . S
O243 In234 2.326 . S
O243 C239 1.260 . S
C244 O235 1.240 . S
C244 O236 1.252 . S
O245 In234 2.294 . S
O245 C238 1.240 . S
O246 In234 2.326 . S
O246 C238 1.252 . S
In247 O248 2.294 . S
In247 O249 2.326 . S
In247 O253 2.266 . S
In247 O254 2.326 . S
In247 O255 2.266 . S
In247 O256 2.326 . S
In247 O258 2.294 . S
In247 O259 2.326 . S
O248 In247 2.294 . S
O248 C257 1.240 . S
O249 In247 2.326 . S
O249 C257 1.252 . S
C250 O253 1.252 . S
C250 O254 1.260 . S
C251 O258 1.240 . S
C251 O259 1.252 . S
C252 O255 1.252 . S
C252 O256 1.260 . S
O253 In247 2.266 . S
O253 C250 1.252 . S
O254 In247 2.326 . S
O254 C250 1.260 . S
O255 In247 2.266 . S
O255 C252 1.252 . S
O256 In247 2.326 . S
O256 C252 1.260 . S
C257 O248 1.240 . S
C257 O249 1.252 . S
O258 In247 2.294 . S
O258 C251 1.240 . S
O259 In247 2.326 . S
O259 C251 1.252 . S
In260 O261 2.294 . S
In260 O262 2.326 . S
In260 O266 2.266 . S
In260 O267 2.326 . S
In260 O268 2.266 1_554 S
In260 O269 2.326 1_554 S
In260 O271 2.294 . S
In260 O272 2.326 . S
O261 In260 2.294 . S
O261 C270 1.240 . S
O262 In260 2.326 . S
O262 C270 1.252 . S
C263 O266 1.252 . S
C263 O267 1.260 . S
C264 O271 1.240 . S
C264 O272 1.252 . S
C265 O268 1.252 . S
C265 O269 1.260 . S
O266 In260 2.266 . S
O266 C263 1.252 . S
O267 In260 2.326 . S
O267 C263 1.260 . S
O268 In260 2.266 1_556 S
O268 C265 1.252 . S
O269 In260 2.326 1_556 S
O269 C265 1.260 . S
C270 O261 1.240 . S
C270 O262 1.252 . S
O271 In260 2.294 . S
O271 C264 1.240 . S
O272 In260 2.326 . S
O272 C264 1.252 . S
In273 O274 2.294 . S
In273 O275 2.326 . S
In273 O279 2.266 . S
In273 O280 2.326 . S
In273 O281 2.266 . S
In273 O282 2.326 . S
In273 O284 2.294 . S
In273 O285 2.326 . S
O274 In273 2.294 . S
O274 C283 1.240 . S
O275 In273 2.326 . S
O275 C283 1.252 . S
C276 O279 1.252 . S
C276 O280 1.260 . S
C277 O284 1.240 . S
C277 O285 1.252 . S
C278 O281 1.252 . S
C278 O282 1.260 . S
O279 In273 2.266 . S
O279 C276 1.252 . S
O280 In273 2.326 . S
O280 C276 1.260 . S
O281 In273 2.266 . S
O281 C278 1.252 . S
O282 In273 2.326 . S
O282 C278 1.260 . S
C283 O274 1.240 . S
C283 O275 1.252 . S
O284 In273 2.294 . S
O284 C277 1.240 . S
O285 In273 2.326 . S
O285 C277 1.252 . S
In286 O287 2.294 . S
In286 O288 2.326 . S
In286 O292 2.266 . S
In286 O293 2.326 . S
In286 O294 2.266 . S
In286 O295 2.326 . S
In286 O297 2.294 . S
In286 O298 2.326 . S
O287 In286 2.294 . S
O287 C296 1.240 . S
O288 In286 2.326 . S
O288 C296 1.252 . S
C289 O292 1.252 . S
C289 O293 1.260 . S
C290 O297 1.240 . S
C290 O298 1.252 . S
C291 O294 1.252 . S
C291 O295 1.260 . S
O292 In286 2.266 . S
O292 C289 1.252 . S
O293 In286 2.326 . S
O293 C289 1.260 . S
O294 In286 2.266 . S
O294 C291 1.252 . S
O295 In286 2.326 . S
O295 C291 1.260 . S
C296 O287 1.240 . S
C296 O288 1.252 . S
O297 In286 2.294 . S
O297 C290 1.240 . S
O298 In286 2.326 . S
O298 C290 1.252 . S
In299 O300 2.294 . S
In299 O301 2.326 . S
In299 O305 2.266 . S
In299 O306 2.326 . S
In299 O307 2.266 . S
In299 O308 2.326 . S
In299 O310 2.294 . S
In299 O311 2.326 . S
O300 In299 2.294 . S
O300 C309 1.240 . S
O301 In299 2.326 . S
O301 C309 1.252 . S
C302 O305 1.252 . S
C302 O306 1.260 . S
C303 O310 1.240 . S
C303 O311 1.252 . S
C304 O307 1.252 . S
C304 O308 1.260 . S
O305 In299 2.266 . S
O305 C302 1.252 . S
O306 In299 2.326 . S
O306 C302 1.260 . S
O307 In299 2.266 . S
O307 C304 1.252 . S
O308 In299 2.326 . S
O308 C304 1.260 . S
C309 O300 1.240 . S
C309 O301 1.252 . S
O310 In299 2.294 . S
O310 C303 1.240 . S
O311 In299 2.326 . S
O311 C303 1.252 . S
Eu312 C321 2.828 . S
Eu312 O323 2.392 . S
Eu312 O325 2.418 . S
Eu312 O330 2.373 . S
Eu312 O333 2.488 . S
Eu312 O334 2.471 . S
Eu312 O335 2.349 . S
Eu313 O322 2.373 . S
Eu313 O326 2.488 1_545 S
Eu313 O327 2.471 1_545 S
Eu313 O328 2.349 . S
Eu313 O331 2.392 . S
Eu313 O332 2.418 1_554 S
Eu313 C342 2.828 1_545 S
C314 O332 1.244 . S
C314 O335 1.265 1_556 S
C315 C316 1.379 1_554 S
C315 C319 1.373 . S
C315 C321 1.505 . S
C316 C315 1.379 1_556 S
C316 C318 1.369 . S
C316 H344 0.930 . S
C317 C319 1.383 . S
C317 C320 1.382 . S
C317 H345 0.930 . S
C318 C316 1.369 . S
C318 C320 1.392 1_556 S
C318 H346 0.930 . S
C319 C315 1.373 . S
C319 C317 1.383 . S
C319 H347 0.931 . S
C320 C317 1.382 . S
C320 C318 1.392 1_554 S
C321 Eu312 2.828 . S
C321 C315 1.505 . S
C321 O333 1.249 . S
C321 O334 1.244 . S
O322 Eu313 2.373 . S
O322 C324 1.258 . S
O323 Eu312 2.392 . S
O323 C324 1.242 . S
C324 O322 1.258 . S
C324 O323 1.242 . S
O325 Eu312 2.418 . S
O325 C329 1.244 . S
O326 Eu313 2.488 1_565 S
O326 C342 1.249 . S
O327 Eu313 2.471 1_565 S
O327 C342 1.244 . S
O328 Eu313 2.349 . S
O328 C329 1.265 . S
C329 O325 1.244 . S
C329 O328 1.265 . S
O330 Eu312 2.373 . S
O330 C343 1.258 . S
O331 Eu313 2.392 . S
O331 C343 1.242 . S
O332 Eu313 2.418 1_556 S
O332 C314 1.244 . S
O333 Eu312 2.488 . S
O333 C321 1.249 . S
O334 Eu312 2.471 . S
O334 C321 1.244 . S
O335 Eu312 2.349 . S
O335 C314 1.265 1_554 S
C336 C337 1.379 . S
C336 C340 1.373 . S
C336 C342 1.505 . S
C337 C336 1.379 . S
C337 C339 1.369 . S
C337 H348 0.930 . S
C338 C340 1.383 . S
C338 C341 1.382 . S
C338 H349 0.930 . S
C339 C337 1.369 . S
C339 C341 1.392 . S
C339 H350 0.930 . S
C340 C336 1.373 . S
C340 C338 1.383 . S
C340 H351 0.931 . S
C341 C338 1.382 . S
C341 C339 1.392 . S
C342 Eu313 2.828 1_565 S
C342 O326 1.249 . S
C342 O327 1.244 . S
C342 C336 1.505 . S
C343 O330 1.258 . S
C343 O331 1.242 . S
H344 C316 0.930 . S
H345 C317 0.930 . S
H346 C318 0.930 . S
H347 C319 0.931 . S
H348 C337 0.930 . S
H349 C338 0.930 . S
H350 C339 0.930 . S
H351 C340 0.931 . S
Eu352 C361 2.828 . S
Eu352 O363 2.392 . S
Eu352 O365 2.418 . S
Eu352 O370 2.373 . S
Eu352 O373 2.488 . S
Eu352 O374 2.471 . S
Eu352 O375 2.349 . S
Eu353 O362 2.373 . S
Eu353 O366 2.488 . S
Eu353 O367 2.471 . S
Eu353 O368 2.349 . S
Eu353 O371 2.392 . S
Eu353 O372 2.418 . S
Eu353 C382 2.828 . S
C354 O372 1.244 . S
C354 O375 1.265 . S
C355 C356 1.379 . S
C355 C359 1.373 . S
C355 C361 1.505 . S
C356 C355 1.379 . S
C356 C358 1.369 . S
C356 H384 0.930 . S
C357 C359 1.383 . S
C357 C360 1.382 . S
C357 H385 0.930 . S
C358 C356 1.369 . S
C358 C360 1.392 . S
C358 H386 0.930 . S
C359 C355 1.373 . S
C359 C357 1.383 . S
C359 H387 0.931 . S
C360 C357 1.382 . S
C360 C358 1.392 . S
C361 Eu352 2.828 . S
C361 C355 1.505 . S
C361 O373 1.249 . S
C361 O374 1.244 . S
O362 Eu353 2.373 . S
O362 C364 1.258 . S
O363 Eu352 2.392 . S
O363 C364 1.242 . S
C364 O362 1.258 . S
C364 O363 1.242 . S
O365 Eu352 2.418 . S
O365 C369 1.244 . S
O366 Eu353 2.488 . S
O366 C382 1.249 . S
O367 Eu353 2.471 . S
O367 C382 1.244 . S
O368 Eu353 2.349 . S
O368 C369 1.265 . S
C369 O365 1.244 . S
C369 O368 1.265 . S
O370 Eu352 2.373 . S
O370 C383 1.258 . S
O371 Eu353 2.392 . S
O371 C383 1.242 . S
O372 Eu353 2.418 . S
O372 C354 1.244 . S
O373 Eu352 2.488 . S
O373 C361 1.249 . S
O374 Eu352 2.471 . S
O374 C361 1.244 . S
O375 Eu352 2.349 . S
O375 C354 1.265 . S
C376 C377 1.379 . S
C376 C380 1.373 . S
C376 C382 1.505 . S
C377 C376 1.379 . S
C377 C379 1.369 . S
C377 H388 0.930 . S
C378 C380 1.383 . S
C378 C381 1.382 . S
C378 H389 0.930 . S
C379 C377 1.369 . S
C379 C381 1.392 . S
C379 H390 0.930 . S
C380 C376 1.373 . S
C380 C378 1.383 . S
C380 H391 0.931 . S
C381 C378 1.382 . S
C381 C379 1.392 . S
C382 Eu353 2.828 . S
C382 O366 1.249 . S
C382 O367 1.244 . S
C382 C376 1.505 . S
C383 O370 1.258 . S
C383 O371 1.242 . S
H384 C356 0.930 . S
H385 C357 0.930 . S
H386 C358 0.930 . S
H387 C359 0.931 . S
H388 C377 0.930 . S
H389 C378 0.930 . S
H390 C379 0.930 . S
H391 C380 0.931 . S
Eu392 C401 2.828 . S
Eu392 O403 2.392 . S
Eu392 O405 2.418 . S
Eu392 O410 2.373 1_545 S
Eu392 O413 2.488 . S
Eu392 O414 2.471 . S
Eu392 O415 2.349 . S
Eu393 O402 2.373 . S
Eu393 O406 2.488 . S
Eu393 O407 2.471 . S
Eu393 O408 2.349 . S
Eu393 O411 2.392 1_545 S
Eu393 O412 2.418 . S
Eu393 C422 2.828 . S
C394 O412 1.244 . S
C394 O415 1.265 . S
C395 C396 1.379 . S
C395 C399 1.373 . S
C395 C401 1.505 1_565 S
C396 C395 1.379 . S
C396 C398 1.369 . S
C396 H424 0.930 . S
C397 C399 1.383 . S
C397 C400 1.382 . S
C397 H425 0.930 . S
C398 C396 1.369 . S
C398 C400 1.392 . S
C398 H426 0.930 . S
C399 C395 1.373 . S
C399 C397 1.383 . S
C399 H427 0.931 . S
C400 C397 1.382 . S
C400 C398 1.392 . S
C401 Eu392 2.828 . S
C401 C395 1.505 1_545 S
C401 O413 1.249 . S
C401 O414 1.244 . S
O402 Eu393 2.373 . S
O402 C404 1.258 . S
O403 Eu392 2.392 . S
O403 C404 1.242 . S
C404 O402 1.258 . S
C404 O403 1.242 . S
O405 Eu392 2.418 . S
O405 C409 1.244 . S
O406 Eu393 2.488 . S
O406 C422 1.249 . S
O407 Eu393 2.471 . S
O407 C422 1.244 . S
O408 Eu393 2.349 . S
O408 C409 1.265 . S
C409 O405 1.244 . S
C409 O408 1.265 . S
O410 Eu392 2.373 1_565 S
O410 C423 1.258 . S
O411 Eu393 2.392 1_565 S
O411 C423 1.242 . S
O412 Eu393 2.418 . S
O412 C394 1.244 . S
O413 Eu392 2.488 . S
O413 C401 1.249 . S
O414 Eu392 2.471 . S
O414 C401 1.244 . S
O415 Eu392 2.349 . S
O415 C394 1.265 . S
C416 C417 1.379 . S
C416 C420 1.373 . S
C416 C422 1.505 . S
C417 C416 1.379 . S
C417 C419 1.369 . S
C417 H428 0.930 . S
C418 C420 1.383 . S
C418 C421 1.382 . S
C418 H429 0.930 . S
C419 C417 1.369 . S
C419 C421 1.392 . S
C419 H430 0.930 . S
C420 C416 1.373 . S
C420 C418 1.383 . S
C420 H431 0.931 . S
C421 C418 1.382 . S
C421 C419 1.392 . S
C422 Eu393 2.828 . S
C422 O406 1.249 . S
C422 O407 1.244 . S
C422 C416 1.505 . S
C423 O410 1.258 . S
C423 O411 1.242 . S
H424 C396 0.930 . S
H425 C397 0.930 . S
H426 C398 0.930 . S
H427 C399 0.931 . S
H428 C417 0.930 . S
H429 C418 0.930 . S
H430 C419 0.930 . S
H431 C420 0.931 . S
Eu432 C441 2.828 . S
Eu432 O443 2.392 . S
Eu432 O445 2.418 . S
Eu432 O450 2.373 . S
Eu432 O453 2.488 . S
Eu432 O454 2.471 . S
Eu432 O455 2.349 . S
Eu433 O442 2.373 . S
Eu433 O446 2.488 . S
Eu433 O447 2.471 . S
Eu433 O448 2.349 . S
Eu433 O451 2.392 . S
Eu433 O452 2.418 . S
Eu433 C462 2.828 . S
C434 O452 1.244 . S
C434 O455 1.265 . S
C435 C436 1.379 . S
C435 C439 1.373 . S
C435 C441 1.505 . S
C436 C435 1.379 . S
C436 C438 1.369 . S
C436 H464 0.930 . S
C437 C439 1.383 . S
C437 C440 1.382 . S
C437 H465 0.930 . S
C438 C436 1.369 . S
C438 C440 1.392 . S
C438 H466 0.930 . S
C439 C435 1.373 . S
C439 C437 1.383 . S
C439 H467 0.931 . S
C440 C437 1.382 . S
C440 C438 1.392 . S
C441 Eu432 2.828 . S
C441 C435 1.505 . S
C441 O453 1.249 . S
C441 O454 1.244 . S
O442 Eu433 2.373 . S
O442 C444 1.258 . S
O443 Eu432 2.392 . S
O443 C444 1.242 . S
C444 O442 1.258 . S
C444 O443 1.242 . S
O445 Eu432 2.418 . S
O445 C449 1.244 . S
O446 Eu433 2.488 . S
O446 C462 1.249 . S
O447 Eu433 2.471 . S
O447 C462 1.244 . S
O448 Eu433 2.349 . S
O448 C449 1.265 . S
C449 O445 1.244 . S
C449 O448 1.265 . S
O450 Eu432 2.373 . S
O450 C463 1.258 . S
O451 Eu433 2.392 . S
O451 C463 1.242 . S
O452 Eu433 2.418 . S
O452 C434 1.244 . S
O453 Eu432 2.488 . S
O453 C441 1.249 . S
O454 Eu432 2.471 . S
O454 C441 1.244 . S
O455 Eu432 2.349 . S
O455 C434 1.265 . S
C456 C457 1.379 . S
C456 C460 1.373 . S
C456 C462 1.505 . S
C457 C456 1.379 . S
C457 C459 1.369 . S
C457 H468 0.930 . S
C458 C460 1.383 . S
C458 C461 1.382 . S
C458 H469 0.930 . S
C459 C457 1.369 . S
C459 C461 1.392 . S
C459 H470 0.930 . S
C460 C456 1.373 . S
C460 C458 1.383 . S
C460 H471 0.931 . S
C461 C458 1.382 . S
C461 C459 1.392 . S
C462 Eu433 2.828 . S
C462 O446 1.249 . S
C462 O447 1.244 . S
C462 C456 1.505 . S
C463 O450 1.258 . S
C463 O451 1.242 . S
H464 C436 0.930 . S
H465 C437 0.930 . S
H466 C438 0.930 . S
H467 C439 0.931 . S
H468 C457 0.930 . S
H469 C458 0.930 . S
H470 C459 0.930 . S
H471 C460 0.931 . S
Eu472 C481 2.828 . S
Eu472 O483 2.392 . S
Eu472 O485 2.418 . S
Eu472 O490 2.373 . S
Eu472 O493 2.488 . S
Eu472 O494 2.471 . S
Eu472 O495 2.349 . S
Eu473 O482 2.374 1_565 S
Eu473 O486 2.482 . S
Eu473 O487 2.465 . S
Eu473 O488 2.352 1_565 S
Eu473 O491 2.397 1_565 S
Eu473 O492 2.421 1_565 S
Eu473 C502 2.821 . S
C474 O492 1.244 . S
C474 O495 1.265 . S
C475 C476 1.379 . S
C475 C479 1.373 . S
C475 C481 1.505 . S
C476 C475 1.379 . S
C476 C478 1.369 . S
C476 H504 0.930 . S
C477 C479 1.383 . S
C477 C480 1.382 . S
C477 H505 0.930 . S
C478 C476 1.369 . S
C478 C480 1.392 . S
C478 H506 0.930 . S
C479 C475 1.373 . S
C479 C477 1.383 . S
C479 H507 0.931 . S
C480 C477 1.382 . S
C480 C478 1.392 . S
C481 Eu472 2.828 . S
C481 C475 1.505 . S
C481 O493 1.249 . S
C481 O494 1.244 . S
O482 Eu473 2.374 1_545 S
O482 C484 1.258 . S
O483 Eu472 2.392 . S
O483 C484 1.242 . S
C484 O482 1.258 . S
C484 O483 1.242 . S
O485 Eu472 2.418 . S
O485 C489 1.244 . S
O486 Eu473 2.482 . S
O486 C502 1.249 . S
O487 Eu473 2.465 . S
O487 C502 1.244 . S
O488 Eu473 2.352 1_545 S
O488 C489 1.265 . S
C489 O485 1.244 . S
C489 O488 1.265 . S
O490 Eu472 2.373 . S
O490 C503 1.258 . S
O491 Eu473 2.397 1_545 S
O491 C503 1.242 . S
O492 Eu473 2.421 1_545 S
O492 C474 1.244 . S
O493 Eu472 2.488 . S
O493 C481 1.249 . S
O494 Eu472 2.471 . S
O494 C481 1.244 . S
O495 Eu472 2.349 . S
O495 C474 1.265 . S
C496 C497 1.379 . S
C496 C500 1.373 . S
C496 C502 1.505 . S
C497 C496 1.379 . S
C497 C499 1.369 . S
C497 H508 0.930 . S
C498 C500 1.383 . S
C498 C501 1.382 . S
C498 H509 0.930 . S
C499 C497 1.369 . S
C499 C501 1.392 . S
C499 H510 0.930 . S
C500 C496 1.373 . S
C500 C498 1.383 . S
C500 H511 0.931 . S
C501 C498 1.382 . S
C501 C499 1.392 . S
C502 Eu473 2.821 . S
C502 O486 1.249 . S
C502 O487 1.244 . S
C502 C496 1.505 . S
C503 O490 1.258 . S
C503 O491 1.242 . S
H504 C476 0.930 . S
H505 C477 0.930 . S
H506 C478 0.930 . S
H507 C479 0.931 . S
H508 C497 0.930 . S
H509 C498 0.930 . S
H510 C499 0.930 . S
H511 C500 0.931 . S
Eu512 C521 2.828 . S
Eu512 O523 2.392 . S
Eu512 O525 2.418 . S
Eu512 O530 2.373 . S
Eu512 O533 2.488 . S
Eu512 O534 2.471 . S
Eu512 O535 2.349 . S
Eu513 O522 2.373 . S
Eu513 O526 2.488 . S
Eu513 O527 2.471 . S
Eu513 O528 2.349 . S
Eu513 O531 2.392 . S
Eu513 O532 2.418 . S
Eu513 C542 2.828 . S
C514 O532 1.244 . S
C514 O535 1.265 . S
C515 C516 1.379 . S
C515 C519 1.373 . S
C515 C521 1.505 . S
C516 C515 1.379 . S
C516 C518 1.369 . S
C516 H544 0.930 . S
C517 C519 1.383 . S
C517 C520 1.382 . S
C517 H545 0.930 . S
C518 C516 1.369 . S
C518 C520 1.392 . S
C518 H546 0.930 . S
C519 C515 1.373 . S
C519 C517 1.383 . S
C519 H547 0.931 . S
C520 C517 1.382 . S
C520 C518 1.392 . S
C521 Eu512 2.828 . S
C521 C515 1.505 . S
C521 O533 1.249 . S
C521 O534 1.244 . S
O522 Eu513 2.373 . S
O522 C524 1.258 . S
O523 Eu512 2.392 . S
O523 C524 1.242 . S
C524 O522 1.258 . S
C524 O523 1.242 . S
O525 Eu512 2.418 . S
O525 C529 1.244 . S
O526 Eu513 2.488 . S
O526 C542 1.249 . S
O527 Eu513 2.471 . S
O527 C542 1.244 . S
O528 Eu513 2.349 . S
O528 C529 1.265 . S
C529 O525 1.244 . S
C529 O528 1.265 . S
O530 Eu512 2.373 . S
O530 C543 1.258 . S
O531 Eu513 2.392 . S
O531 C543 1.242 . S
O532 Eu513 2.418 . S
O532 C514 1.244 . S
O533 Eu512 2.488 . S
O533 C521 1.249 . S
O534 Eu512 2.471 . S
O534 C521 1.244 . S
O535 Eu512 2.349 . S
O535 C514 1.265 . S
C536 C537 1.379 . S
C536 C540 1.373 . S
C536 C542 1.505 . S
C537 C536 1.379 . S
C537 C539 1.369 . S
C537 H548 0.930 . S
C538 C540 1.383 . S
C538 C541 1.382 . S
C538 H549 0.930 . S
C539 C537 1.369 . S
C539 C541 1.392 . S
C539 H550 0.930 . S
C540 C536 1.373 . S
C540 C538 1.383 . S
C540 H551 0.931 . S
C541 C538 1.382 . S
C541 C539 1.392 . S
C542 Eu513 2.828 . S
C542 O526 1.249 . S
C542 O527 1.244 . S
C542 C536 1.505 . S
C543 O530 1.258 . S
C543 O531 1.242 . S
H544 C516 0.930 . S
H545 C517 0.930 . S
H546 C518 0.930 . S
H547 C519 0.931 . S
H548 C537 0.930 . S
H549 C538 0.930 . S
H550 C539 0.930 . S
H551 C540 0.931 . S
Eu552 C561 2.828 . S
Eu552 O563 2.392 . S
Eu552 O565 2.418 . S
Eu552 O570 2.373 . S
Eu552 O573 2.488 . S
Eu552 O574 2.471 . S
Eu552 O575 2.349 . S
Eu553 O562 2.373 . S
Eu553 O566 2.488 . S
Eu553 O567 2.471 . S
Eu553 O568 2.349 . S
Eu553 O571 2.392 . S
Eu553 O572 2.418 1_556 S
Eu553 C582 2.828 . S
C554 O572 1.244 . S
C554 O575 1.265 . S
C555 C556 1.379 . S
C555 C559 1.373 . S
C555 C561 1.505 . S
C556 C555 1.379 . S
C556 C558 1.369 . S
C556 H584 0.930 . S
C557 C559 1.383 . S
C557 C560 1.382 . S
C557 H585 0.930 1_545 S
C558 C556 1.369 . S
C558 C560 1.392 . S
C558 H586 0.930 . S
C559 C555 1.373 . S
C559 C557 1.383 . S
C559 H587 0.931 . S
C560 C557 1.382 . S
C560 C558 1.392 . S
C561 Eu552 2.828 . S
C561 C555 1.505 . S
C561 O573 1.249 . S
C561 O574 1.244 . S
O562 Eu553 2.373 . S
O562 C564 1.258 1_556 S
O563 Eu552 2.392 . S
O563 C564 1.242 . S
C564 O562 1.258 1_554 S
C564 O563 1.242 . S
O565 Eu552 2.418 . S
O565 C569 1.260 . S
O566 Eu553 2.488 . S
O566 C582 1.249 . S
O567 Eu553 2.471 . S
O567 C582 1.244 . S
O568 Eu553 2.349 . S
O568 C569 1.259 1_556 S
C569 O565 1.260 . S
C569 O568 1.259 1_554 S
O570 Eu552 2.373 . S
O570 C583 1.258 . S
O571 Eu553 2.392 . S
O571 C583 1.242 1_556 S
O572 Eu553 2.418 1_554 S
O572 C554 1.244 . S
O573 Eu552 2.488 . S
O573 C561 1.249 . S
O574 Eu552 2.471 . S
O574 C561 1.244 . S
O575 Eu552 2.349 . S
O575 C554 1.265 . S
C576 C577 1.379 . S
C576 C580 1.373 . S
C576 C582 1.505 . S
C577 C576 1.379 . S
C577 C579 1.369 . S
C577 H588 0.930 . S
C578 C580 1.383 . S
C578 C581 1.382 . S
C578 H589 0.930 . S
C579 C577 1.369 . S
C579 C581 1.392 . S
C579 H590 0.930 . S
C580 C576 1.373 . S
C580 C578 1.383 . S
C580 H591 0.931 . S
C581 C578 1.382 . S
C581 C579 1.392 . S
C582 Eu553 2.828 . S
C582 O566 1.249 . S
C582 O567 1.244 . S
C582 C576 1.505 . S
C583 O570 1.258 . S
C583 O571 1.242 1_554 S
H584 C556 0.930 . S
H585 C557 0.930 1_565 S
H586 C558 0.930 . S
H587 C559 0.931 . S
H588 C577 0.930 . S
H589 C578 0.930 . S
H590 C579 0.930 . S
H591 C580 0.931 . S
Eu592 C601 2.828 . S
Eu592 O603 2.392 . S
Eu592 O605 2.418 . S
Eu592 O610 2.373 . S
Eu592 O613 2.488 . S
Eu592 O614 2.471 . S
Eu592 O615 2.349 . S
Eu593 O602 2.373 . S
Eu593 O606 2.488 . S
Eu593 O607 2.471 . S
Eu593 O608 2.349 . S
Eu593 O611 2.392 . S
Eu593 O612 2.418 . S
Eu593 C622 2.828 . S
C594 O612 1.244 . S
C594 O615 1.265 . S
C595 C596 1.379 . S
C595 C599 1.373 . S
C595 C601 1.505 . S
C596 C595 1.379 . S
C596 C598 1.369 . S
C596 H624 0.930 . S
C597 C599 1.383 . S
C597 C600 1.382 . S
C597 H625 0.930 . S
C598 C596 1.369 . S
C598 C600 1.392 . S
C598 H626 0.930 . S
C599 C595 1.373 . S
C599 C597 1.383 . S
C599 H627 0.931 . S
C600 C597 1.382 . S
C600 C598 1.392 . S
C601 Eu592 2.828 . S
C601 C595 1.505 . S
C601 O613 1.249 . S
C601 O614 1.244 . S
O602 Eu593 2.373 . S
O602 C604 1.258 . S
O603 Eu592 2.392 . S
O603 C604 1.242 . S
C604 O602 1.258 . S
C604 O603 1.242 . S
O605 Eu592 2.418 . S
O605 C609 1.244 . S
O606 Eu593 2.488 . S
O606 C622 1.249 . S
O607 Eu593 2.471 . S
O607 C622 1.244 . S
O608 Eu593 2.349 . S
O608 C609 1.265 . S
C609 O605 1.244 . S
C609 O608 1.265 . S
O610 Eu592 2.373 . S
O610 C623 1.258 . S
O611 Eu593 2.392 . S
O611 C623 1.242 . S
O612 Eu593 2.418 . S
O612 C594 1.244 . S
O613 Eu592 2.488 . S
O613 C601 1.249 . S
O614 Eu592 2.471 . S
O614 C601 1.244 . S
O615 Eu592 2.349 . S
O615 C594 1.265 . S
C616 C617 1.379 . S
C616 C620 1.373 . S
C616 C622 1.505 . S
C617 C616 1.379 . S
C617 C619 1.369 . S
C617 H628 0.930 . S
C618 C620 1.383 . S
C618 C621 1.382 . S
C618 H629 0.930 . S
C619 C617 1.369 . S
C619 C621 1.392 . S
C619 H630 0.930 . S
C620 C616 1.373 . S
C620 C618 1.383 . S
C620 H631 0.931 . S
C621 C618 1.382 . S
C621 C619 1.392 . S
C622 Eu593 2.828 . S
C622 O606 1.249 . S
C622 O607 1.244 . S
C622 C616 1.505 . S
C623 O610 1.258 . S
C623 O611 1.242 . S
H624 C596 0.930 . S
H625 C597 0.930 . S
H626 C598 0.930 . S
H627 C599 0.931 . S
H628 C617 0.930 . S
H629 C618 0.930 . S
H630 C619 0.930 . S
H631 C620 0.931 . S
Eu632 C641 2.832 1_554 S
Eu632 O643 2.392 . S
Eu632 O645 2.418 . S
Eu632 O650 2.373 1_554 S
Eu632 O653 2.488 . S
Eu632 O654 2.471 . S
Eu632 O655 2.349 . S
Eu633 O642 2.373 1_556 S
Eu633 O646 2.488 1_556 S
Eu633 O647 2.471 1_556 S
Eu633 O648 2.349 1_556 S
Eu633 O651 2.392 . S
Eu633 O652 2.420 1_556 S
Eu633 C662 2.828 1_556 S
C634 O652 1.244 . S
C634 O655 1.265 . S
C635 C636 1.379 . S
C635 C639 1.373 . S
C635 C641 1.501 . S
C636 C635 1.379 . S
C636 C638 1.369 . S
C636 H664 0.930 . S
C637 C639 1.383 . S
C637 C640 1.382 . S
C637 H665 0.930 . S
C638 C636 1.369 . S
C638 C640 1.392 . S
C638 H666 0.930 . S
C639 C635 1.373 . S
C639 C637 1.383 . S
C639 H667 0.935 1_556 S
C640 C637 1.382 . S
C640 C638 1.392 . S
C641 Eu632 2.832 1_556 S
C641 C635 1.501 . S
C641 O653 1.253 1_556 S
C641 O654 1.245 1_556 S
O642 Eu633 2.373 1_554 S
O642 C644 1.258 . S
O643 Eu632 2.392 . S
O643 C644 1.242 . S
C644 O642 1.258 . S
C644 O643 1.242 . S
O645 Eu632 2.418 . S
O645 C649 1.244 . S
O646 Eu633 2.488 1_554 S
O646 C662 1.249 . S
O647 Eu633 2.471 1_554 S
O647 C662 1.244 . S
O648 Eu633 2.349 1_554 S
O648 C649 1.265 . S
C649 O645 1.244 . S
C649 O648 1.265 . S
O650 Eu632 2.373 1_556 S
O650 C663 1.258 . S
O651 Eu633 2.392 . S
O651 C663 1.242 . S
O652 Eu633 2.420 1_554 S
O652 C634 1.244 . S
O653 Eu632 2.488 . S
O653 C641 1.253 1_554 S
O654 Eu632 2.471 . S
O654 C641 1.245 1_554 S
O655 Eu632 2.349 . S
O655 C634 1.265 . S
C656 C657 1.379 . S
C656 C660 1.373 . S
C656 C662 1.505 . S
C657 C656 1.379 . S
C657 C659 1.369 . S
C657 H668 0.930 . S
C658 C660 1.383 . S
C658 C661 1.382 . S
C658 H669 0.930 . S
C659 C657 1.369 . S
C659 C661 1.392 . S
C659 H670 0.930 . S
C660 C656 1.373 . S
C660 C658 1.383 . S
C660 H671 0.931 . S
C661 C658 1.382 . S
C661 C659 1.392 . S
C662 Eu633 2.828 1_554 S
C662 O646 1.249 . S
C662 O647 1.244 . S
C662 C656 1.505 . S
C663 O650 1.258 . S
C663 O651 1.242 . S
H664 C636 0.930 . S
H665 C637 0.930 . S
H666 C638 0.930 . S
H667 C639 0.935 1_554 S
H668 C657 0.930 . S
H669 C658 0.930 . S
H670 C659 0.930 . S
H671 C660 0.931 . S
Eu672 C681 2.828 . S
Eu672 O683 2.392 . S
Eu672 O685 2.418 . S
Eu672 O690 2.373 . S
Eu672 O693 2.488 . S
Eu672 O694 2.471 . S
Eu672 O695 2.349 . S
Eu673 O682 2.373 . S
Eu673 O686 2.488 . S
Eu673 O687 2.471 . S
Eu673 O688 2.349 . S
Eu673 O691 2.392 . S
Eu673 O692 2.418 . S
Eu673 C702 2.828 . S
C674 O692 1.244 . S
C674 O695 1.265 . S
C675 C676 1.379 . S
C675 C679 1.373 . S
C675 C681 1.505 . S
C676 C675 1.379 . S
C676 C678 1.369 . S
C676 H704 0.930 . S
C677 C679 1.383 . S
C677 C680 1.382 . S
C677 H705 0.930 . S
C678 C676 1.369 . S
C678 C680 1.392 . S
C678 H706 0.930 . S
C679 C675 1.373 . S
C679 C677 1.383 . S
C679 H707 0.931 . S
C680 C677 1.382 . S
C680 C678 1.392 . S
C681 Eu672 2.828 . S
C681 C675 1.505 . S
C681 O693 1.249 . S
C681 O694 1.244 . S
O682 Eu673 2.373 . S
O682 C684 1.258 . S
O683 Eu672 2.392 . S
O683 C684 1.242 . S
C684 O682 1.258 . S
C684 O683 1.242 . S
O685 Eu672 2.418 . S
O685 C689 1.244 . S
O686 Eu673 2.488 . S
O686 C702 1.249 . S
O687 Eu673 2.471 . S
O687 C702 1.244 . S
O688 Eu673 2.349 . S
O688 C689 1.265 . S
C689 O685 1.244 . S
C689 O688 1.265 . S
O690 Eu672 2.373 . S
O690 C703 1.258 . S
O691 Eu673 2.392 . S
O691 C703 1.242 . S
O692 Eu673 2.418 . S
O692 C674 1.244 . S
O693 Eu672 2.488 . S
O693 C681 1.249 . S
O694 Eu672 2.471 . S
O694 C681 1.244 . S
O695 Eu672 2.349 . S
O695 C674 1.265 . S
C696 C697 1.379 . S
C696 C700 1.373 . S
C696 C702 1.505 . S
C697 C696 1.379 . S
C697 C699 1.369 . S
C697 H708 0.930 . S
C698 C700 1.383 . S
C698 C701 1.382 . S
C698 H709 0.930 . S
C699 C697 1.369 . S
C699 C701 1.392 . S
C699 H710 0.930 . S
C700 C696 1.373 . S
C700 C698 1.383 . S
C700 H711 0.931 . S
C701 C698 1.382 . S
C701 C699 1.392 . S
C702 Eu673 2.828 . S
C702 O686 1.249 . S
C702 O687 1.244 . S
C702 C696 1.505 . S
C703 O690 1.258 . S
C703 O691 1.242 . S
H704 C676 0.930 . S
H705 C677 0.930 . S
H706 C678 0.930 . S
H707 C679 0.931 . S
H708 C697 0.930 . S
H709 C698 0.930 . S
H710 C699 0.930 . S
H711 C700 0.931 . S
Eu712 C721 2.828 . S
Eu712 O723 2.392 . S
Eu712 O725 2.418 . S
Eu712 O730 2.341 1_455 S
Eu712 O733 2.488 . S
Eu712 O734 2.471 . S
Eu712 O735 2.349 . S
Eu713 O722 2.373 . S
Eu713 O726 2.488 . S
Eu713 O727 2.471 . S
Eu713 O728 2.349 . S
Eu713 O731 2.392 1_455 S
Eu713 O732 2.418 . S
Eu713 C742 2.828 . S
C714 O732 1.244 . S
C714 O735 1.265 . S
C715 C716 1.379 . S
C715 C719 1.373 . S
C715 C721 1.505 1_655 S
C716 C715 1.379 . S
C716 C718 1.369 . S
C716 H744 0.930 . S
C717 C719 1.383 . S
C717 C720 1.382 . S
C717 H745 0.930 . S
C718 C716 1.369 . S
C718 C720 1.392 . S
C718 H746 0.930 . S
C719 C715 1.373 . S
C719 C717 1.383 . S
C719 H747 0.931 1_655 S
C720 C717 1.382 . S
C720 C718 1.392 . S
C721 Eu712 2.828 . S
C721 C715 1.505 1_455 S
C721 O733 1.249 . S
C721 O734 1.244 . S
O722 Eu713 2.373 . S
O722 C724 1.258 . S
O723 Eu712 2.392 . S
O723 C724 1.242 . S
C724 O722 1.258 . S
C724 O723 1.242 . S
O725 Eu712 2.418 . S
O725 C729 1.244 . S
O726 Eu713 2.488 . S
O726 C742 1.249 . S
O727 Eu713 2.471 . S
O727 C742 1.244 . S
O728 Eu713 2.349 . S
O728 C729 1.265 . S
C729 O725 1.244 . S
C729 O728 1.265 . S
O730 Eu712 2.341 1_655 S
O730 C743 1.282 . S
O731 Eu713 2.392 1_655 S
O731 C743 1.242 . S
O732 Eu713 2.418 . S
O732 C714 1.244 . S
O733 Eu712 2.488 . S
O733 C721 1.249 . S
O734 Eu712 2.471 . S
O734 C721 1.244 . S
O735 Eu712 2.349 . S
O735 C714 1.265 . S
C736 C737 1.379 . S
C736 C740 1.373 . S
C736 C742 1.505 . S
C737 C736 1.379 . S
C737 C739 1.369 . S
C737 H748 0.930 . S
C738 C740 1.383 . S
C738 C741 1.382 . S
C738 H749 0.930 . S
C739 C737 1.369 . S
C739 C741 1.392 . S
C739 H750 0.930 . S
C740 C736 1.373 . S
C740 C738 1.383 . S
C740 H751 0.931 . S
C741 C738 1.382 . S
C741 C739 1.392 . S
C742 Eu713 2.828 . S
C742 O726 1.249 . S
C742 O727 1.244 . S
C742 C736 1.505 . S
C743 O730 1.282 . S
C743 O731 1.242 . S
H744 C716 0.930 . S
H745 C717 0.930 . S
H746 C718 0.930 . S
H747 C719 0.931 1_455 S
H748 C737 0.930 . S
H749 C738 0.930 . S
H750 C739 0.930 . S
H751 C740 0.931 . S
Eu752 C761 2.828 . S
Eu752 O763 2.392 . S
Eu752 O765 2.418 . S
Eu752 O770 2.373 . S
Eu752 O773 2.488 . S
Eu752 O774 2.471 . S
Eu752 O775 2.349 . S
Eu753 O762 2.373 . S
Eu753 O766 2.488 . S
Eu753 O767 2.471 . S
Eu753 O768 2.349 . S
Eu753 O771 2.392 . S
Eu753 O772 2.418 . S
Eu753 C782 2.828 . S
C754 O772 1.244 . S
C754 O775 1.265 . S
C755 C756 1.379 . S
C755 C759 1.373 . S
C755 C761 1.505 . S
C756 C755 1.379 . S
C756 C758 1.369 . S
C756 H784 0.930 . S
C757 C759 1.383 . S
C757 C760 1.382 . S
C757 H785 0.930 . S
C758 C756 1.369 . S
C758 C760 1.392 . S
C758 H786 0.930 . S
C759 C755 1.373 . S
C759 C757 1.383 . S
C759 H787 0.931 . S
C760 C757 1.382 . S
C760 C758 1.392 . S
C761 Eu752 2.828 . S
C761 C755 1.505 . S
C761 O773 1.249 . S
C761 O774 1.244 . S
O762 Eu753 2.373 . S
O762 C764 1.258 . S
O763 Eu752 2.392 . S
O763 C764 1.242 . S
C764 O762 1.258 . S
C764 O763 1.242 . S
O765 Eu752 2.418 . S
O765 C769 1.244 . S
O766 Eu753 2.488 . S
O766 C782 1.249 . S
O767 Eu753 2.471 . S
O767 C782 1.244 . S
O768 Eu753 2.349 . S
O768 C769 1.265 . S
C769 O765 1.244 . S
C769 O768 1.265 . S
O770 Eu752 2.373 . S
O770 C783 1.258 . S
O771 Eu753 2.392 . S
O771 C783 1.242 . S
O772 Eu753 2.418 . S
O772 C754 1.244 . S
O773 Eu752 2.488 . S
O773 C761 1.249 . S
O774 Eu752 2.471 . S
O774 C761 1.244 . S
O775 Eu752 2.349 . S
O775 C754 1.265 . S
C776 C777 1.379 . S
C776 C780 1.373 . S
C776 C782 1.505 . S
C777 C776 1.379 . S
C777 C779 1.369 . S
C777 H788 0.930 . S
C778 C780 1.383 . S
C778 C781 1.382 . S
C778 H789 0.930 . S
C779 C777 1.369 . S
C779 C781 1.392 . S
C779 H790 0.930 . S
C780 C776 1.373 . S
C780 C778 1.383 . S
C780 H791 0.931 . S
C781 C778 1.382 . S
C781 C779 1.392 . S
C782 Eu753 2.828 . S
C782 O766 1.249 . S
C782 O767 1.244 . S
C782 C776 1.505 . S
C783 O770 1.258 . S
C783 O771 1.242 . S
H784 C756 0.930 . S
H785 C757 0.930 . S
H786 C758 0.930 . S
H787 C759 0.931 . S
H788 C777 0.930 . S
H789 C778 0.930 . S
H790 C779 0.930 . S
H791 C780 0.931 . S
Eu792 C801 2.828 . S
Eu792 O803 2.392 . S
Eu792 O805 2.418 . S
Eu792 O810 2.373 . S
Eu792 O813 2.488 . S
Eu792 O814 2.471 . S
Eu792 O815 2.349 . S
Eu793 O802 2.373 . S
Eu793 O806 2.488 . S
Eu793 O807 2.471 . S
Eu793 O808 2.349 . S
Eu793 O811 2.392 . S
Eu793 O812 2.418 . S
Eu793 C822 2.828 . S
C794 O812 1.244 . S
C794 O815 1.265 . S
C795 C796 1.379 . S
C795 C799 1.373 . S
C795 C801 1.505 . S
C796 C795 1.379 . S
C796 C798 1.369 . S
C796 H824 0.930 . S
C797 C799 1.383 . S
C797 C800 1.382 . S
C797 H825 0.930 . S
C798 C796 1.369 . S
C798 C800 1.392 . S
C798 H826 0.930 . S
C799 C795 1.373 . S
C799 C797 1.383 . S
C799 H827 0.931 . S
C800 C797 1.382 . S
C800 C798 1.392 . S
C801 Eu792 2.828 . S
C801 C795 1.505 . S
C801 O813 1.249 . S
C801 O814 1.244 . S
O802 Eu793 2.373 . S
O802 C804 1.258 . S
O803 Eu792 2.392 . S
O803 C804 1.242 . S
C804 O802 1.258 . S
C804 O803 1.242 . S
O805 Eu792 2.418 . S
O805 C809 1.244 . S
O806 Eu793 2.488 . S
O806 C822 1.249 . S
O807 Eu793 2.471 . S
O807 C822 1.244 . S
O808 Eu793 2.349 . S
O808 C809 1.265 . S
C809 O805 1.244 . S
C809 O808 1.265 . S
O810 Eu792 2.373 . S
O810 C823 1.258 . S
O811 Eu793 2.392 . S
O811 C823 1.242 . S
O812 Eu793 2.418 . S
O812 C794 1.244 . S
O813 Eu792 2.488 . S
O813 C801 1.249 . S
O814 Eu792 2.471 . S
O814 C801 1.244 . S
O815 Eu792 2.349 . S
O815 C794 1.265 . S
C816 C817 1.379 . S
C816 C820 1.373 . S
C816 C822 1.505 . S
C817 C816 1.379 . S
C817 C819 1.369 . S
C817 H828 0.930 . S
C818 C820 1.383 . S
C818 C821 1.382 . S
C818 H829 0.930 . S
C819 C817 1.369 . S
C819 C821 1.392 . S
C819 H830 0.930 . S
C820 C816 1.373 . S
C820 C818 1.383 . S
C820 H831 0.931 . S
C821 C818 1.382 . S
C821 C819 1.392 . S
C822 Eu793 2.828 . S
C822 O806 1.249 . S
C822 O807 1.244 . S
C822 C816 1.505 . S
C823 O810 1.258 . S
C823 O811 1.242 . S
H824 C796 0.930 . S
H825 C797 0.930 . S
H826 C798 0.930 . S
H827 C799 0.931 . S
H828 C817 0.930 . S
H829 C818 0.930 . S
H830 C819 0.930 . S
H831 C820 0.931 . S
Eu832 C841 2.828 . S
Eu832 O843 2.392 . S
Eu832 O845 2.418 . S
Eu832 O850 2.373 . S
Eu832 O853 2.488 . S
Eu832 O854 2.471 . S
Eu832 O855 2.349 . S
Eu833 O842 2.373 . S
Eu833 O846 2.488 . S
Eu833 O847 2.471 . S
Eu833 O848 2.349 . S
Eu833 O851 2.392 . S
Eu833 O852 2.418 . S
Eu833 C862 2.828 . S
C834 O852 1.244 . S
C834 O855 1.265 . S
C835 C836 1.379 . S
C835 C839 1.373 . S
C835 C841 1.505 . S
C836 C835 1.379 . S
C836 C838 1.369 . S
C836 H864 0.930 . S
C837 C839 1.383 . S
C837 C840 1.382 . S
C837 H865 0.930 . S
C838 C836 1.369 . S
C838 C840 1.392 . S
C838 H866 0.930 . S
C839 C835 1.373 . S
C839 C837 1.383 . S
C839 H867 0.931 . S
C840 C837 1.382 . S
C840 C838 1.392 . S
C841 Eu832 2.828 . S
C841 C835 1.505 . S
C841 O853 1.249 . S
C841 O854 1.244 . S
O842 Eu833 2.373 . S
O842 C844 1.258 . S
O843 Eu832 2.392 . S
O843 C844 1.242 . S
C844 O842 1.258 . S
C844 O843 1.242 . S
O845 Eu832 2.418 . S
O845 C849 1.244 . S
O846 Eu833 2.488 . S
O846 C862 1.249 . S
O847 Eu833 2.471 . S
O847 C862 1.244 . S
O848 Eu833 2.349 . S
O848 C849 1.265 . S
C849 O845 1.244 . S
C849 O848 1.265 . S
O850 Eu832 2.373 . S
O850 C863 1.258 . S
O851 Eu833 2.392 . S
O851 C863 1.242 . S
O852 Eu833 2.418 . S
O852 C834 1.244 . S
O853 Eu832 2.488 . S
O853 C841 1.249 . S
O854 Eu832 2.471 . S
O854 C841 1.244 . S
O855 Eu832 2.349 . S
O855 C834 1.265 . S
C856 C857 1.379 . S
C856 C860 1.373 . S
C856 C862 1.505 . S
C857 C856 1.379 . S
C857 C859 1.369 . S
C857 H868 0.930 . S
C858 C860 1.383 . S
C858 C861 1.382 . S
C858 H869 0.930 . S
C859 C857 1.369 . S
C859 C861 1.392 . S
C859 H870 0.930 . S
C860 C856 1.373 . S
C860 C858 1.383 . S
C860 H871 0.931 . S
C861 C858 1.382 . S
C861 C859 1.392 . S
C862 Eu833 2.828 . S
C862 O846 1.249 . S
C862 O847 1.244 . S
C862 C856 1.505 . S
C863 O850 1.258 . S
C863 O851 1.242 . S
H864 C836 0.930 . S
H865 C837 0.930 . S
H866 C838 0.930 . S
H867 C839 0.931 . S
H868 C857 0.930 . S
H869 C858 0.930 . S
H870 C859 0.930 . S
H871 C860 0.931 . S
Eu872 C881 2.828 . S
Eu872 O883 2.392 . S
Eu872 O885 2.418 . S
Eu872 O890 2.373 . S
Eu872 O893 2.488 . S
Eu872 O894 2.471 . S
Eu872 O895 2.349 . S
Eu873 O882 2.373 . S
Eu873 O886 2.488 . S
Eu873 O887 2.471 . S
Eu873 O888 2.349 . S
Eu873 O891 2.392 . S
Eu873 O892 2.418 . S
Eu873 C902 2.828 . S
C874 O892 1.244 . S
C874 O895 1.265 . S
C875 C876 1.379 . S
C875 C879 1.373 . S
C875 C881 1.505 . S
C876 C875 1.379 . S
C876 C878 1.369 . S
C876 H904 0.930 . S
C877 C879 1.383 . S
C877 C880 1.382 . S
C877 H905 0.930 . S
C878 C876 1.369 . S
C878 C880 1.392 . S
C878 H906 0.930 . S
C879 C875 1.373 . S
C879 C877 1.383 . S
C879 H907 0.931 . S
C880 C877 1.382 . S
C880 C878 1.392 . S
C881 Eu872 2.828 . S
C881 C875 1.505 . S
C881 O893 1.249 . S
C881 O894 1.244 . S
O882 Eu873 2.373 . S
O882 C884 1.258 . S
O883 Eu872 2.392 . S
O883 C884 1.242 . S
C884 O882 1.258 . S
C884 O883 1.242 . S
O885 Eu872 2.418 . S
O885 C889 1.244 . S
O886 Eu873 2.488 . S
O886 C902 1.249 . S
O887 Eu873 2.471 . S
O887 C902 1.244 . S
O888 Eu873 2.349 . S
O888 C889 1.265 . S
C889 O885 1.244 . S
C889 O888 1.265 . S
O890 Eu872 2.373 . S
O890 C903 1.258 . S
O891 Eu873 2.392 . S
O891 C903 1.242 . S
O892 Eu873 2.418 . S
O892 C874 1.244 . S
O893 Eu872 2.488 . S
O893 C881 1.249 . S
O894 Eu872 2.471 . S
O894 C881 1.244 . S
O895 Eu872 2.349 . S
O895 C874 1.265 . S
C896 C897 1.379 . S
C896 C900 1.373 . S
C896 C902 1.505 . S
C897 C896 1.379 . S
C897 C899 1.369 . S
C897 H908 0.930 . S
C898 C900 1.383 . S
C898 C901 1.382 . S
C898 H909 0.930 . S
C899 C897 1.369 . S
C899 C901 1.392 . S
C899 H910 0.930 . S
C900 C896 1.373 . S
C900 C898 1.383 . S
C900 H911 0.931 . S
C901 C898 1.382 . S
C901 C899 1.392 . S
C902 Eu873 2.828 . S
C902 O886 1.249 . S
C902 O887 1.244 . S
C902 C896 1.505 . S
C903 O890 1.258 . S
C903 O891 1.242 . S
H904 C876 0.930 . S
H905 C877 0.930 . S
H906 C878 0.930 . S
H907 C879 0.931 . S
H908 C897 0.930 . S
H909 C898 0.930 . S
H910 C899 0.930 . S
H911 C900 0.931 . S
Eu912 C921 2.828 . S
Eu912 O923 2.392 . S
Eu912 O925 2.418 1_554 S
Eu912 O930 2.373 . S
Eu912 O933 2.488 . S
Eu912 O934 2.471 . S
Eu912 O935 2.349 . S
Eu913 O922 2.373 1_655 S
Eu913 O926 2.488 . S
Eu913 O927 2.471 . S
Eu913 O928 2.349 1_655 S
Eu913 O931 2.392 1_655 S
Eu913 O932 2.418 1_655 S
Eu913 C942 2.828 . S
C914 O932 1.244 . S
C914 O935 1.265 . S
C915 C916 1.379 . S
C915 C919 1.373 1_554 S
C915 C921 1.505 . S
C916 C915 1.379 . S
C916 C918 1.369 . S
C916 H944 0.930 . S
C917 C919 1.383 . S
C917 C920 1.382 1_556 S
C917 H945 0.930 . S
C918 C916 1.369 . S
C918 C920 1.392 . S
C918 H946 0.930 . S
C919 C915 1.373 1_556 S
C919 C917 1.383 . S
C919 H947 0.931 . S
C920 C917 1.382 1_554 S
C920 C918 1.392 . S
C921 Eu912 2.828 . S
C921 C915 1.505 . S
C921 O933 1.249 . S
C921 O934 1.244 . S
O922 Eu913 2.373 1_455 S
O922 C924 1.258 . S
O923 Eu912 2.392 . S
O923 C924 1.242 . S
C924 O922 1.258 . S
C924 O923 1.242 . S
O925 Eu912 2.418 1_556 S
O925 C929 1.244 . S
O926 Eu913 2.488 . S
O926 C942 1.249 . S
O927 Eu913 2.471 . S
O927 C942 1.244 . S
O928 Eu913 2.349 1_455 S
O928 C929 1.265 1_554 S
C929 O925 1.244 . S
C929 O928 1.265 1_556 S
O930 Eu912 2.373 . S
O930 C943 1.258 . S
O931 Eu913 2.392 1_455 S
O931 C943 1.242 . S
O932 Eu913 2.418 1_455 S
O932 C914 1.244 . S
O933 Eu912 2.488 . S
O933 C921 1.249 . S
O934 Eu912 2.471 . S
O934 C921 1.244 . S
O935 Eu912 2.349 . S
O935 C914 1.265 . S
C936 C937 1.379 . S
C936 C940 1.373 . S
C936 C942 1.505 . S
C937 C936 1.379 . S
C937 C939 1.369 . S
C937 H948 0.930 . S
C938 C940 1.383 . S
C938 C941 1.382 . S
C938 H949 0.930 . S
C939 C937 1.369 . S
C939 C941 1.392 . S
C939 H950 0.930 . S
C940 C936 1.373 . S
C940 C938 1.383 . S
C940 H951 0.931 . S
C941 C938 1.382 . S
C941 C939 1.392 . S
C942 Eu913 2.828 . S
C942 O926 1.249 . S
C942 O927 1.244 . S
C942 C936 1.505 . S
C943 O930 1.258 . S
C943 O931 1.242 . S
H944 C916 0.930 . S
H945 C917 0.930 . S
H946 C918 0.930 . S
H947 C919 0.931 . S
H948 C937 0.930 . S
H949 C938 0.930 . S
H950 C939 0.930 . S
H951 C940 0.931 . S
C952 C953 1.349 . S
C952 C954 1.327 . S
C952 H977 0.950 . S
C953 C952 1.349 . S
C953 C969 1.349 1_455 S
C954 C952 1.327 . S
C954 C973 1.429 . S
C954 H978 0.950 . S
C955 C972 1.574 . S
C955 C974 1.368 . S
C955 H979 0.949 1_455 S
H956 C960 0.949 . S
C957 C958 1.349 . S
C957 C959 1.324 1_554 S
C957 H980 0.953 . S
C958 C957 1.349 . S
C958 C970 1.332 1_554 S
C959 C957 1.324 1_556 S
C959 C975 1.429 . S
C959 H981 0.950 . S
C960 H956 0.949 . S
C960 C968 1.574 . S
C960 C976 1.368 . S
H961 C969 0.950 . S
H962 C967 0.999 . S
H963 C968 0.949 . S
H964 C970 0.950 . S
H965 C971 0.950 . S
H966 C972 0.951 . S
C967 H962 0.999 . S
C967 C969 1.347 . S
C967 C973 1.364 1_655 S
C968 C960 1.574 . S
C968 H963 0.949 . S
C968 C974 1.368 . S
C969 C953 1.349 1_655 S
C969 H961 0.950 . S
C969 C967 1.347 . S
C970 C958 1.332 1_556 S
C970 H964 0.950 . S
C970 C971 1.327 . S
C971 H965 0.950 . S
C971 C970 1.327 . S
C971 C975 1.429 . S
C972 C955 1.574 . S
C972 H966 0.951 . S
C972 C976 1.368 . S
C973 C954 1.429 . S
C973 C967 1.364 1_455 S
C973 C974 1.523 . S
C974 C955 1.368 . S
C974 C968 1.368 . S
C974 C973 1.523 . S
C975 C959 1.429 . S
C975 C971 1.429 . S
C975 C976 1.523 . S
C976 C960 1.368 . S
C976 C972 1.368 . S
C976 C975 1.523 . S
H977 C952 0.950 . S
H978 C954 0.950 . S
H979 C955 0.949 1_655 S
H980 C957 0.953 . S
H981 C959 0.950 . S
C982 C983 1.349 . S
C982 C984 1.327 . S
C982 H1007 0.950 . S
C983 C982 1.349 . S
C983 C999 1.349 . S
C984 C982 1.327 . S
C984 C1003 1.429 . S
C984 H1008 0.950 . S
C985 C1002 1.574 . S
C985 C1004 1.368 . S
C985 H1009 0.949 . S
H986 C990 0.949 . S
C987 C988 1.349 . S
C987 C989 1.327 . S
C987 H1010 0.950 . S
C988 C987 1.349 . S
C988 C1000 1.349 . S
C989 C987 1.327 . S
C989 C1005 1.429 . S
C989 H1011 0.950 . S
C990 H986 0.949 . S
C990 C998 1.574 . S
C990 C1006 1.368 . S
H991 C999 0.950 . S
H992 C997 0.950 . S
H993 C998 0.949 . S
H994 C1000 0.950 . S
H995 C1001 0.950 . S
H996 C1002 0.949 . S
C997 H992 0.950 . S
C997 C999 1.327 . S
C997 C1003 1.429 . S
C998 C990 1.574 . S
C998 H993 0.949 . S
C998 C1004 1.368 . S
C999 C983 1.349 . S
C999 H991 0.950 . S
C999 C997 1.327 . S
C1000 C988 1.349 . S
C1000 H994 0.950 . S
C1000 C1001 1.327 . S
C1001 H995 0.950 . S
C1001 C1000 1.327 . S
C1001 C1005 1.429 . S
C1002 C985 1.574 . S
C1002 H996 0.949 . S
C1002 C1006 1.368 . S
C1003 C984 1.429 . S
C1003 C997 1.429 . S
C1003 C1004 1.523 . S
C1004 C985 1.368 . S
C1004 C998 1.368 . S
C1004 C1003 1.523 . S
C1005 C989 1.429 . S
C1005 C1001 1.429 . S
C1005 C1006 1.523 . S
C1006 C990 1.368 . S
C1006 C1002 1.368 . S
C1006 C1005 1.523 . S
H1007 C982 0.950 . S
H1008 C984 0.950 . S
H1009 C985 0.949 . S
H1010 C987 0.950 . S
H1011 C989 0.950 . S
C1012 C1013 1.349 . S
C1012 C1014 1.327 . S
C1012 H1037 0.950 . S
C1013 C1012 1.349 . S
C1013 C1029 1.349 . S
C1014 C1012 1.327 . S
C1014 C1033 1.429 . S
C1014 H1038 0.950 . S
C1015 C1032 1.574 . S
C1015 C1034 1.368 . S
C1015 H1039 0.949 . S
H1016 C1020 0.949 . S
C1017 C1018 1.349 . S
C1017 C1019 1.327 . S
C1017 H1040 0.950 . S
C1018 C1017 1.349 . S
C1018 C1030 1.349 . S
C1019 C1017 1.327 . S
C1019 C1035 1.429 . S
C1019 H1041 0.950 . S
C1020 H1016 0.949 . S
C1020 C1028 1.574 . S
C1020 C1036 1.368 . S
H1021 C1029 0.950 . S
H1022 C1027 0.950 . S
H1023 C1028 0.949 . S
H1024 C1030 0.950 . S
H1025 C1031 0.950 . S
H1026 C1032 0.949 . S
C1027 H1022 0.950 . S
C1027 C1029 1.327 . S
C1027 C1033 1.429 . S
C1028 C1020 1.574 . S
C1028 H1023 0.949 . S
C1028 C1034 1.368 . S
C1029 C1013 1.349 . S
C1029 H1021 0.950 . S
C1029 C1027 1.327 . S
C1030 C1018 1.349 . S
C1030 H1024 0.950 . S
C1030 C1031 1.327 . S
C1031 H1025 0.950 . S
C1031 C1030 1.327 . S
C1031 C1035 1.429 . S
C1032 C1015 1.574 . S
C1032 H1026 0.949 . S
C1032 C1036 1.368 . S
C1033 C1014 1.429 . S
C1033 C1027 1.429 . S
C1033 C1034 1.523 . S
C1034 C1015 1.368 . S
C1034 C1028 1.368 . S
C1034 C1033 1.523 . S
C1035 C1019 1.429 . S
C1035 C1031 1.429 . S
C1035 C1036 1.523 . S
C1036 C1020 1.368 . S
C1036 C1032 1.368 . S
C1036 C1035 1.523 . S
H1037 C1012 0.950 . S
H1038 C1014 0.950 . S
H1039 C1015 0.949 . S
H1040 C1017 0.950 . S
H1041 C1019 0.950 . S
C1042 C1043 1.349 . S
C1042 C1044 1.327 . S
C1042 H1067 0.950 . S
C1043 C1042 1.349 . S
C1043 C1059 1.349 . S
C1044 C1042 1.327 . S
C1044 C1063 1.429 . S
C1044 H1068 0.950 . S
C1045 C1062 1.574 . S
C1045 C1064 1.368 . S
C1045 H1069 0.949 . S
H1046 C1050 0.949 . S
C1047 C1048 1.349 . S
C1047 C1049 1.327 . S
C1047 H1070 0.950 . S
C1048 C1047 1.349 . S
C1048 C1060 1.349 . S
C1049 C1047 1.327 . S
C1049 C1065 1.429 . S
C1049 H1071 0.950 . S
C1050 H1046 0.949 . S
C1050 C1058 1.574 . S
C1050 C1066 1.368 . S
H1051 C1059 0.950 . S
H1052 C1057 0.950 . S
H1053 C1058 0.949 . S
H1054 C1060 0.950 . S
H1055 C1061 0.950 . S
H1056 C1062 0.949 . S
C1057 H1052 0.950 . S
C1057 C1059 1.327 . S
C1057 C1063 1.429 . S
C1058 C1050 1.574 . S
C1058 H1053 0.949 . S
C1058 C1064 1.368 . S
C1059 C1043 1.349 . S
C1059 H1051 0.950 . S
C1059 C1057 1.327 . S
C1060 C1048 1.349 . S
C1060 H1054 0.950 . S
C1060 C1061 1.327 . S
C1061 H1055 0.950 . S
C1061 C1060 1.327 . S
C1061 C1065 1.429 . S
C1062 C1045 1.574 . S
C1062 H1056 0.949 . S
C1062 C1066 1.368 . S
C1063 C1044 1.429 . S
C1063 C1057 1.429 . S
C1063 C1064 1.523 . S
C1064 C1045 1.368 . S
C1064 C1058 1.368 . S
C1064 C1063 1.523 . S
C1065 C1049 1.429 . S
C1065 C1061 1.429 . S
C1065 C1066 1.523 . S
C1066 C1050 1.368 . S
C1066 C1062 1.368 . S
C1066 C1065 1.523 . S
H1067 C1042 0.950 . S
H1068 C1044 0.950 . S
H1069 C1045 0.949 . S
H1070 C1047 0.950 . S
H1071 C1049 0.950 . S
C1072 C1073 1.349 . S
C1072 C1074 1.327 . S
C1072 H1097 0.950 . S
C1073 C1072 1.349 . S
C1073 C1089 1.349 1_455 S
C1074 C1072 1.327 . S
C1074 C1093 1.429 . S
C1074 H1098 0.950 . S
C1075 C1092 1.574 . S
C1075 C1094 1.368 . S
C1075 H1099 0.949 . S
H1076 C1080 0.949 . S
C1077 C1078 1.349 . S
C1077 C1079 1.327 . S
C1077 H1100 0.950 . S
C1078 C1077 1.349 . S
C1078 C1090 1.349 . S
C1079 C1077 1.327 . S
C1079 C1095 1.429 . S
C1079 H1101 0.950 . S
C1080 H1076 0.949 . S
C1080 C1088 1.574 . S
C1080 C1096 1.368 . S
H1081 C1089 0.950 . S
H1082 C1087 0.950 1_655 S
H1083 C1088 0.949 . S
H1084 C1090 0.950 . S
H1085 C1091 0.950 . S
H1086 C1092 0.949 . S
C1087 H1082 0.950 1_455 S
C1087 C1089 1.327 1_455 S
C1087 C1093 1.429 . S
C1088 C1080 1.574 . S
C1088 H1083 0.949 . S
C1088 C1094 1.368 . S
C1089 C1073 1.349 1_655 S
C1089 H1081 0.950 . S
C1089 C1087 1.327 1_655 S
C1090 C1078 1.349 . S
C1090 H1084 0.950 . S
C1090 C1091 1.327 . S
C1091 H1085 0.950 . S
C1091 C1090 1.327 . S
C1091 C1095 1.429 . S
C1092 C1075 1.574 . S
C1092 H1086 0.949 . S
C1092 C1096 1.368 . S
C1093 C1074 1.429 . S
C1093 C1087 1.429 . S
C1093 C1094 1.523 . S
C1094 C1075 1.368 . S
C1094 C1088 1.368 . S
C1094 C1093 1.523 . S
C1095 C1079 1.429 . S
C1095 C1091 1.429 . S
C1095 C1096 1.523 . S
C1096 C1080 1.368 . S
C1096 C1092 1.368 . S
C1096 C1095 1.523 . S
H1097 C1072 0.950 . S
H1098 C1074 0.950 . S
H1099 C1075 0.949 . S
H1100 C1077 0.950 . S
H1101 C1079 0.950 . S
C1102 C1103 1.349 . S
C1102 C1104 1.327 . S
C1102 H1127 0.950 . S
C1103 C1102 1.349 . S
C1103 C1119 1.349 . S
C1104 C1102 1.327 . S
C1104 C1123 1.429 . S
C1104 H1128 0.950 . S
C1105 C1122 1.574 . S
C1105 C1124 1.368 . S
C1105 H1129 0.949 . S
H1106 C1110 0.949 . S
C1107 C1108 1.349 . S
C1107 C1109 1.327 . S
C1107 H1130 0.950 . S
C1108 C1107 1.349 . S
C1108 C1120 1.349 . S
C1109 C1107 1.327 . S
C1109 C1125 1.429 . S
C1109 H1131 0.950 . S
C1110 H1106 0.949 . S
C1110 C1118 1.574 . S
C1110 C1126 1.368 . S
H1111 C1119 0.950 . S
H1112 C1117 0.950 . S
H1113 C1118 0.949 . S
H1114 C1120 0.950 . S
H1115 C1121 0.950 . S
H1116 C1122 0.949 . S
C1117 H1112 0.950 . S
C1117 C1119 1.327 . S
C1117 C1123 1.429 . S
C1118 C1110 1.574 . S
C1118 H1113 0.949 . S
C1118 C1124 1.368 . S
C1119 C1103 1.349 . S
C1119 H1111 0.950 . S
C1119 C1117 1.327 . S
C1120 C1108 1.349 . S
C1120 H1114 0.950 . S
C1120 C1121 1.327 . S
C1121 H1115 0.950 . S
C1121 C1120 1.327 . S
C1121 C1125 1.429 . S
C1122 C1105 1.574 . S
C1122 H1116 0.949 . S
C1122 C1126 1.368 . S
C1123 C1104 1.429 . S
C1123 C1117 1.429 . S
C1123 C1124 1.523 . S
C1124 C1105 1.368 . S
C1124 C1118 1.368 . S
C1124 C1123 1.523 . S
C1125 C1109 1.429 . S
C1125 C1121 1.429 . S
C1125 C1126 1.523 . S
C1126 C1110 1.368 . S
C1126 C1122 1.368 . S
C1126 C1125 1.523 . S
H1127 C1102 0.950 . S
H1128 C1104 0.950 . S
H1129 C1105 0.949 . S
H1130 C1107 0.950 . S
H1131 C1109 0.950 . S
C1132 C1133 1.349 . S
C1132 C1134 1.327 . S
C1132 H1157 0.950 . S
C1133 C1132 1.349 . S
C1133 C1149 1.349 . S
C1134 C1132 1.327 . S
C1134 C1153 1.429 . S
C1134 H1158 0.950 . S
C1135 C1152 1.574 . S
C1135 C1154 1.368 . S
C1135 H1159 0.949 . S
H1136 C1140 0.949 . S
C1137 C1138 1.349 . S
C1137 C1139 1.327 . S
C1137 H1160 0.950 . S
C1138 C1137 1.349 . S
C1138 C1150 1.349 . S
C1139 C1137 1.327 . S
C1139 C1155 1.429 . S
C1139 H1161 0.950 . S
C1140 H1136 0.949 . S
C1140 C1148 1.574 . S
C1140 C1156 1.368 . S
H1141 C1149 0.950 . S
H1142 C1147 0.950 . S
H1143 C1148 0.949 . S
H1144 C1150 0.950 . S
H1145 C1151 0.950 . S
H1146 C1152 0.949 . S
C1147 H1142 0.950 . S
C1147 C1149 1.327 . S
C1147 C1153 1.429 . S
C1148 C1140 1.574 . S
C1148 H1143 0.949 . S
C1148 C1154 1.368 . S
C1149 C1133 1.349 . S
C1149 H1141 0.950 . S
C1149 C1147 1.327 . S
C1150 C1138 1.349 . S
C1150 H1144 0.950 . S
C1150 C1151 1.327 . S
C1151 H1145 0.950 . S
C1151 C1150 1.327 . S
C1151 C1155 1.429 . S
C1152 C1135 1.574 . S
C1152 H1146 0.949 . S
C1152 C1156 1.368 . S
C1153 C1134 1.429 . S
C1153 C1147 1.429 . S
C1153 C1154 1.523 . S
C1154 C1135 1.368 . S
C1154 C1148 1.368 . S
C1154 C1153 1.523 . S
C1155 C1139 1.429 . S
C1155 C1151 1.429 . S
C1155 C1156 1.523 . S
C1156 C1140 1.368 . S
C1156 C1152 1.368 . S
C1156 C1155 1.523 . S
H1157 C1132 0.950 . S
H1158 C1134 0.950 . S
H1159 C1135 0.949 . S
H1160 C1137 0.950 . S
H1161 C1139 0.950 . S
C1162 C1163 1.349 . S
C1162 C1164 1.327 . S
C1162 H1187 0.950 . S
C1163 C1162 1.349 . S
C1163 C1179 1.349 . S
C1164 C1162 1.327 . S
C1164 C1183 1.429 . S
C1164 H1188 0.950 . S
C1165 C1182 1.574 . S
C1165 C1184 1.368 . S
C1165 H1189 0.949 . S
H1166 C1170 0.949 . S
C1167 C1168 1.349 . S
C1167 C1169 1.327 . S
C1167 H1190 0.950 . S
C1168 C1167 1.349 . S
C1168 C1180 1.349 . S
C1169 C1167 1.327 . S
C1169 C1185 1.429 . S
C1169 H1191 0.950 . S
C1170 H1166 0.949 . S
C1170 C1178 1.574 . S
C1170 C1186 1.368 . S
H1171 C1179 0.950 . S
H1172 C1177 0.950 . S
H1173 C1178 0.949 . S
H1174 C1180 0.950 . S
H1175 C1181 0.950 . S
H1176 C1182 0.949 . S
C1177 H1172 0.950 . S
C1177 C1179 1.327 . S
C1177 C1183 1.429 . S
C1178 C1170 1.574 . S
C1178 H1173 0.949 . S
C1178 C1184 1.368 . S
C1179 C1163 1.349 . S
C1179 H1171 0.950 . S
C1179 C1177 1.327 . S
C1180 C1168 1.349 . S
C1180 H1174 0.950 . S
C1180 C1181 1.327 . S
C1181 H1175 0.950 . S
C1181 C1180 1.327 . S
C1181 C1185 1.429 . S
C1182 C1165 1.574 . S
C1182 H1176 0.949 . S
C1182 C1186 1.368 . S
C1183 C1164 1.429 . S
C1183 C1177 1.429 . S
C1183 C1184 1.523 . S
C1184 C1165 1.368 . S
C1184 C1178 1.368 . S
C1184 C1183 1.523 . S
C1185 C1169 1.429 . S
C1185 C1181 1.429 . S
C1185 C1186 1.523 . S
C1186 C1170 1.368 . S
C1186 C1182 1.368 . S
C1186 C1185 1.523 . S
H1187 C1162 0.950 . S
H1188 C1164 0.950 . S
H1189 C1165 0.949 . S
H1190 C1167 0.950 . S
H1191 C1169 0.950 . S
C1192 C1193 1.349 . S
C1192 C1194 1.327 . S
C1192 H1217 0.950 . S
C1193 C1192 1.349 . S
C1193 C1209 1.349 . S
C1194 C1192 1.327 . S
C1194 C1213 1.429 . S
C1194 H1218 0.950 . S
C1195 C1212 1.574 1_655 S
C1195 C1214 1.368 . S
C1195 H1219 0.949 . S
H1196 C1200 0.949 . S
C1197 C1198 1.349 . S
C1197 C1199 1.327 . S
C1197 H1220 0.950 . S
C1198 C1197 1.349 . S
C1198 C1210 1.349 . S
C1199 C1197 1.327 . S
C1199 C1215 1.429 . S
C1199 H1221 0.950 . S
C1200 H1196 0.949 . S
C1200 C1208 1.574 . S
C1200 C1216 1.368 . S
H1201 C1209 0.950 . S
H1202 C1207 0.950 . S
H1203 C1208 0.949 . S
H1204 C1210 0.950 . S
H1205 C1211 0.950 1_655 S
H1206 C1212 0.949 . S
C1207 H1202 0.950 . S
C1207 C1209 1.327 . S
C1207 C1213 1.429 . S
C1208 C1200 1.574 . S
C1208 H1203 0.949 . S
C1208 C1214 1.368 . S
C1209 C1193 1.349 . S
C1209 H1201 0.950 . S
C1209 C1207 1.327 . S
C1210 C1198 1.349 . S
C1210 H1204 0.950 . S
C1210 C1211 1.327 . S
C1211 H1205 0.950 1_455 S
C1211 C1210 1.327 . S
C1211 C1215 1.429 . S
C1212 C1195 1.574 1_455 S
C1212 H1206 0.949 . S
C1212 C1216 1.368 1_455 S
C1213 C1194 1.429 . S
C1213 C1207 1.429 . S
C1213 C1214 1.523 . S
C1214 C1195 1.368 . S
C1214 C1208 1.368 . S
C1214 C1213 1.523 . S
C1215 C1199 1.429 . S
C1215 C1211 1.429 . S
C1215 C1216 1.523 1_455 S
C1216 C1200 1.368 . S
C1216 C1212 1.368 1_655 S
C1216 C1215 1.523 1_655 S
H1217 C1192 0.950 . S
H1218 C1194 0.950 . S
H1219 C1195 0.949 . S
H1220 C1197 0.950 . S
H1221 C1199 0.950 . S
C1222 C1223 1.349 . S
C1222 C1224 1.327 . S
C1222 H1247 0.950 . S
C1223 C1222 1.349 . S
C1223 C1239 1.349 . S
C1224 C1222 1.327 . S
C1224 C1243 1.429 . S
C1224 H1248 0.950 . S
C1225 C1242 1.574 . S
C1225 C1244 1.368 . S
C1225 H1249 0.949 . S
H1226 C1230 0.949 . S
C1227 C1228 1.349 . S
C1227 C1229 1.327 . S
C1227 H1250 0.950 . S
C1228 C1227 1.349 . S
C1228 C1240 1.349 . S
C1229 C1227 1.327 . S
C1229 C1245 1.429 . S
C1229 H1251 0.950 . S
C1230 H1226 0.949 . S
C1230 C1238 1.574 . S
C1230 C1246 1.368 . S
H1231 C1239 0.950 . S
H1232 C1237 0.950 . S
H1233 C1238 0.949 . S
H1234 C1240 0.950 . S
H1235 C1241 0.950 . S
H1236 C1242 0.949 . S
C1237 H1232 0.950 . S
C1237 C1239 1.327 . S
C1237 C1243 1.429 . S
C1238 C1230 1.574 . S
C1238 H1233 0.949 . S
C1238 C1244 1.368 . S
C1239 C1223 1.349 . S
C1239 H1231 0.950 . S
C1239 C1237 1.327 . S
C1240 C1228 1.349 . S
C1240 H1234 0.950 . S
C1240 C1241 1.327 . S
C1241 H1235 0.950 . S
C1241 C1240 1.327 . S
C1241 C1245 1.429 . S
C1242 C1225 1.574 . S
C1242 H1236 0.949 . S
C1242 C1246 1.368 . S
C1243 C1224 1.429 . S
C1243 C1237 1.429 . S
C1243 C1244 1.523 . S
C1244 C1225 1.368 . S
C1244 C1238 1.368 . S
C1244 C1243 1.523 . S
C1245 C1229 1.429 . S
C1245 C1241 1.429 . S
C1245 C1246 1.523 . S
C1246 C1230 1.368 . S
C1246 C1242 1.368 . S
C1246 C1245 1.523 . S
H1247 C1222 0.950 . S
H1248 C1224 0.950 . S
H1249 C1225 0.949 . S
H1250 C1227 0.950 . S
H1251 C1229 0.950 . S
C1252 C1253 1.349 . S
C1252 C1254 1.327 . S
C1252 H1277 0.950 . S
C1253 C1252 1.349 . S
C1253 C1269 1.349 . S
C1254 C1252 1.327 . S
C1254 C1273 1.429 . S
C1254 H1278 0.950 . S
C1255 C1272 1.574 . S
C1255 C1274 1.368 . S
C1255 H1279 0.949 . S
H1256 C1260 0.949 . S
C1257 C1258 1.349 . S
C1257 C1259 1.327 . S
C1257 H1280 0.950 . S
C1258 C1257 1.349 . S
C1258 C1270 1.349 . S
C1259 C1257 1.327 . S
C1259 C1275 1.429 . S
C1259 H1281 0.950 . S
C1260 H1256 0.949 . S
C1260 C1268 1.574 . S
C1260 C1276 1.368 . S
H1261 C1269 0.950 . S
H1262 C1267 0.950 . S
H1263 C1268 0.949 . S
H1264 C1270 0.936 1_565 S
H1265 C1271 0.950 . S
H1266 C1272 0.949 . S
C1267 H1262 0.950 . S
C1267 C1269 1.327 . S
C1267 C1273 1.429 . S
C1268 C1260 1.574 . S
C1268 H1263 0.949 . S
C1268 C1274 1.368 . S
C1269 C1253 1.349 . S
C1269 H1261 0.950 . S
C1269 C1267 1.327 . S
C1270 C1258 1.349 . S
C1270 H1264 0.936 1_545 S
C1270 C1271 1.327 . S
C1271 H1265 0.950 . S
C1271 C1270 1.327 . S
C1271 C1275 1.429 . S
C1272 C1255 1.574 . S
C1272 H1266 0.949 . S
C1272 C1276 1.368 . S
C1273 C1254 1.429 . S
C1273 C1267 1.429 . S
C1273 C1274 1.523 . S
C1274 C1255 1.368 . S
C1274 C1268 1.368 . S
C1274 C1273 1.523 . S
C1275 C1259 1.429 . S
C1275 C1271 1.429 . S
C1275 C1276 1.523 . S
C1276 C1260 1.368 . S
C1276 C1272 1.368 . S
C1276 C1275 1.523 . S
H1277 C1252 0.950 . S
H1278 C1254 0.950 . S
H1279 C1255 0.949 . S
H1280 C1257 0.950 . S
H1281 C1259 0.950 . S
C1282 C1283 1.349 . S
C1282 C1284 1.327 . S
C1282 H1307 0.950 . S
C1283 C1282 1.349 . S
C1283 C1299 1.349 . S
C1284 C1282 1.327 . S
C1284 C1303 1.429 . S
C1284 H1308 0.950 . S
C1285 C1302 1.574 . S
C1285 C1304 1.368 . S
C1285 H1309 0.949 . S
H1286 C1290 0.949 . S
C1287 C1288 1.349 . S
C1287 C1289 1.327 . S
C1287 H1310 0.950 . S
C1288 C1287 1.349 . S
C1288 C1300 1.349 . S
C1289 C1287 1.327 . S
C1289 C1305 1.429 . S
C1289 H1311 0.950 . S
C1290 H1286 0.949 . S
C1290 C1298 1.574 . S
C1290 C1306 1.368 . S
H1291 C1299 0.950 . S
H1292 C1297 0.950 . S
H1293 C1298 0.949 . S
H1294 C1300 0.950 . S
H1295 C1301 0.950 . S
H1296 C1302 0.949 . S
C1297 H1292 0.950 . S
C1297 C1299 1.327 . S
C1297 C1303 1.429 . S
C1298 C1290 1.574 . S
C1298 H1293 0.949 . S
C1298 C1304 1.368 . S
C1299 C1283 1.349 . S
C1299 H1291 0.950 . S
C1299 C1297 1.327 . S
C1300 C1288 1.349 . S
C1300 H1294 0.950 . S
C1300 C1301 1.327 . S
C1301 H1295 0.950 . S
C1301 C1300 1.327 . S
C1301 C1305 1.429 . S
C1302 C1285 1.574 . S
C1302 H1296 0.949 . S
C1302 C1306 1.368 . S
C1303 C1284 1.429 . S
C1303 C1297 1.429 . S
C1303 C1304 1.523 . S
C1304 C1285 1.368 . S
C1304 C1298 1.368 . S
C1304 C1303 1.523 . S
C1305 C1289 1.429 . S
C1305 C1301 1.429 . S
C1305 C1306 1.523 . S
C1306 C1290 1.368 . S
C1306 C1302 1.368 . S
C1306 C1305 1.523 . S
H1307 C1282 0.950 . S
H1308 C1284 0.950 . S
H1309 C1285 0.949 . S
H1310 C1287 0.950 . S
H1311 C1289 0.950 . S
C1312 C1313 1.349 . S
C1312 C1314 1.327 . S
C1312 H1337 0.950 . S
C1313 C1312 1.349 . S
C1313 C1329 1.349 . S
C1314 C1312 1.327 . S
C1314 C1333 1.429 . S
C1314 H1338 0.950 . S
C1315 C1332 1.574 . S
C1315 C1334 1.368 . S
C1315 H1339 0.949 . S
H1316 C1320 0.949 . S
C1317 C1318 1.349 . S
C1317 C1319 1.327 . S
C1317 H1340 0.950 . S
C1318 C1317 1.349 . S
C1318 C1330 1.349 . S
C1319 C1317 1.327 . S
C1319 C1335 1.429 . S
C1319 H1341 0.950 . S
C1320 H1316 0.949 . S
C1320 C1328 1.574 . S
C1320 C1336 1.368 . S
H1321 C1329 0.950 . S
H1322 C1327 0.950 . S
H1323 C1328 0.949 . S
H1324 C1330 0.950 . S
H1325 C1331 0.950 . S
H1326 C1332 0.933 1_455 S
C1327 H1322 0.950 . S
C1327 C1329 1.327 . S
C1327 C1333 1.429 . S
C1328 C1320 1.574 . S
C1328 H1323 0.949 . S
C1328 C1334 1.368 . S
C1329 C1313 1.349 . S
C1329 H1321 0.950 . S
C1329 C1327 1.327 . S
C1330 C1318 1.349 . S
C1330 H1324 0.950 . S
C1330 C1331 1.327 . S
C1331 H1325 0.950 . S
C1331 C1330 1.327 . S
C1331 C1335 1.429 . S
C1332 C1315 1.574 . S
C1332 H1326 0.933 1_655 S
C1332 C1336 1.368 . S
C1333 C1314 1.429 . S
C1333 C1327 1.429 . S
C1333 C1334 1.523 . S
C1334 C1315 1.368 . S
C1334 C1328 1.368 . S
C1334 C1333 1.523 . S
C1335 C1319 1.429 . S
C1335 C1331 1.429 . S
C1335 C1336 1.523 1_455 S
C1336 C1320 1.368 . S
C1336 C1332 1.368 . S
C1336 C1335 1.523 1_655 S
H1337 C1312 0.950 . S
H1338 C1314 0.950 . S
H1339 C1315 0.949 . S
H1340 C1317 0.950 . S
H1341 C1319 0.950 . S
C1342 C1343 1.349 . S
C1342 C1344 1.327 . S
C1342 H1367 0.950 . S
C1343 C1342 1.349 . S
C1343 C1359 1.349 . S
C1344 C1342 1.327 . S
C1344 C1363 1.429 . S
C1344 H1368 0.950 . S
C1345 C1362 1.574 . S
C1345 C1364 1.368 . S
C1345 H1369 0.949 . S
H1346 C1350 0.949 . S
C1347 C1348 1.349 . S
C1347 C1349 1.327 . S
C1347 H1370 0.950 . S
C1348 C1347 1.349 . S
C1348 C1360 1.349 . S
C1349 C1347 1.327 . S
C1349 C1365 1.429 . S
C1349 H1371 0.950 . S
C1350 H1346 0.949 . S
C1350 C1358 1.574 . S
C1350 C1366 1.368 . S
H1351 C1359 0.950 . S
H1352 C1357 0.950 . S
H1353 C1358 0.949 . S
H1354 C1360 0.950 . S
H1355 C1361 0.950 . S
H1356 C1362 0.949 . S
C1357 H1352 0.950 . S
C1357 C1359 1.327 . S
C1357 C1363 1.429 . S
C1358 C1350 1.574 . S
C1358 H1353 0.949 . S
C1358 C1364 1.368 . S
C1359 C1343 1.349 . S
C1359 H1351 0.950 . S
C1359 C1357 1.327 . S
C1360 C1348 1.349 . S
C1360 H1354 0.950 . S
C1360 C1361 1.327 . S
C1361 H1355 0.950 . S
C1361 C1360 1.327 . S
C1361 C1365 1.429 . S
C1362 C1345 1.574 . S
C1362 H1356 0.949 . S
C1362 C1366 1.368 . S
C1363 C1344 1.429 . S
C1363 C1357 1.429 . S
C1363 C1364 1.523 . S
C1364 C1345 1.368 . S
C1364 C1358 1.368 . S
C1364 C1363 1.523 . S
C1365 C1349 1.429 . S
C1365 C1361 1.429 . S
C1365 C1366 1.523 . S
C1366 C1350 1.368 . S
C1366 C1362 1.368 . S
C1366 C1365 1.523 . S
H1367 C1342 0.950 . S
H1368 C1344 0.950 . S
H1369 C1345 0.949 . S
H1370 C1347 0.950 . S
H1371 C1349 0.950 . S
C1372 C1373 1.349 . S
C1372 C1374 1.327 . S
C1372 H1397 0.950 . S
C1373 C1372 1.349 . S
C1373 C1389 1.349 . S
C1374 C1372 1.327 . S
C1374 C1393 1.429 . S
C1374 H1398 0.950 . S
C1375 C1392 1.574 . S
C1375 C1394 1.368 . S
C1375 H1399 0.949 . S
H1376 C1380 0.949 . S
C1377 C1378 1.349 . S
C1377 C1379 1.327 . S
C1377 H1400 0.950 . S
C1378 C1377 1.349 . S
C1378 C1390 1.349 . S
C1379 C1377 1.327 . S
C1379 C1395 1.429 . S
C1379 H1401 0.950 . S
C1380 H1376 0.949 . S
C1380 C1388 1.574 . S
C1380 C1396 1.368 . S
H1381 C1389 0.950 . S
H1382 C1387 0.950 . S
H1383 C1388 0.949 . S
H1384 C1390 0.950 . S
H1385 C1391 0.950 . S
H1386 C1392 0.949 . S
C1387 H1382 0.950 . S
C1387 C1389 1.327 . S
C1387 C1393 1.429 . S
C1388 C1380 1.574 . S
C1388 H1383 0.949 . S
C1388 C1394 1.368 . S
C1389 C1373 1.349 . S
C1389 H1381 0.950 . S
C1389 C1387 1.327 . S
C1390 C1378 1.349 . S
C1390 H1384 0.950 . S
C1390 C1391 1.327 . S
C1391 H1385 0.950 . S
C1391 C1390 1.327 . S
C1391 C1395 1.429 . S
C1392 C1375 1.574 . S
C1392 H1386 0.949 . S
C1392 C1396 1.368 . S
C1393 C1374 1.429 . S
C1393 C1387 1.429 . S
C1393 C1394 1.523 . S
C1394 C1375 1.368 . S
C1394 C1388 1.368 . S
C1394 C1393 1.523 . S
C1395 C1379 1.429 . S
C1395 C1391 1.429 . S
C1395 C1396 1.523 . S
C1396 C1380 1.368 . S
C1396 C1392 1.368 . S
C1396 C1395 1.523 . S
H1397 C1372 0.950 . S
H1398 C1374 0.950 . S
H1399 C1375 0.949 . S
H1400 C1377 0.950 . S
H1401 C1379 0.950 . S
C1402 C1403 1.349 . S
C1402 C1404 1.327 . S
C1402 H1427 0.950 . S
C1403 C1402 1.349 . S
C1403 C1419 1.349 . S
C1404 C1402 1.327 . S
C1404 C1423 1.429 . S
C1404 H1428 0.950 . S
C1405 C1422 1.574 . S
C1405 C1424 1.368 . S
C1405 H1429 0.949 . S
H1406 C1410 0.949 . S
C1407 C1408 1.349 . S
C1407 C1409 1.327 . S
C1407 H1430 0.950 . S
C1408 C1407 1.349 . S
C1408 C1420 1.349 . S
C1409 C1407 1.327 . S
C1409 C1425 1.429 . S
C1409 H1431 0.950 . S
C1410 H1406 0.949 . S
C1410 C1418 1.574 . S
C1410 C1426 1.368 . S
H1411 C1419 0.950 . S
H1412 C1417 0.950 . S
H1413 C1418 0.949 . S
H1414 C1420 0.950 . S
H1415 C1421 0.950 . S
H1416 C1422 0.949 . S
C1417 H1412 0.950 . S
C1417 C1419 1.327 . S
C1417 C1423 1.429 . S
C1418 C1410 1.574 . S
C1418 H1413 0.949 . S
C1418 C1424 1.368 . S
C1419 C1403 1.349 . S
C1419 H1411 0.950 . S
C1419 C1417 1.327 . S
C1420 C1408 1.349 . S
C1420 H1414 0.950 . S
C1420 C1421 1.327 . S
C1421 H1415 0.950 . S
C1421 C1420 1.327 . S
C1421 C1425 1.429 . S
C1422 C1405 1.574 . S
C1422 H1416 0.949 . S
C1422 C1426 1.368 . S
C1423 C1404 1.429 . S
C1423 C1417 1.429 . S
C1423 C1424 1.523 . S
C1424 C1405 1.368 . S
C1424 C1418 1.368 . S
C1424 C1423 1.523 . S
C1425 C1409 1.429 . S
C1425 C1421 1.429 . S
C1425 C1426 1.523 . S
C1426 C1410 1.368 . S
C1426 C1422 1.368 . S
C1426 C1425 1.523 . S
H1427 C1402 0.950 . S
H1428 C1404 0.950 . S
H1429 C1405 0.949 . S
H1430 C1407 0.950 . S
H1431 C1409 0.950 . S
C1432 C1433 1.349 . S
C1432 C1434 1.327 . S
C1432 H1457 0.950 1_554 S
C1433 C1432 1.349 . S
C1433 C1449 1.349 . S
C1434 C1432 1.327 . S
C1434 C1453 1.429 . S
C1434 H1458 0.971 . S
C1435 C1452 1.574 1_565 S
C1435 C1454 1.368 . S
C1435 H1459 0.949 . S
H1436 C1440 0.949 . S
C1437 C1438 1.349 . S
C1437 C1439 1.327 . S
C1437 H1460 0.950 . S
C1438 C1437 1.349 . S
C1438 C1450 1.349 . S
C1439 C1437 1.327 . S
C1439 C1455 1.429 . S
C1439 H1461 0.950 . S
C1440 H1436 0.949 . S
C1440 C1448 1.574 . S
C1440 C1456 1.368 . S
H1441 C1449 0.950 . S
H1442 C1447 0.950 . S
H1443 C1448 0.949 . S
H1444 C1450 0.950 . S
H1445 C1451 0.950 1_565 S
H1446 C1452 0.949 . S
C1447 H1442 0.950 . S
C1447 C1449 1.327 . S
C1447 C1453 1.429 . S
C1448 C1440 1.574 . S
C1448 H1443 0.949 . S
C1448 C1454 1.368 . S
C1449 C1433 1.349 . S
C1449 H1441 0.950 . S
C1449 C1447 1.327 . S
C1450 C1438 1.349 . S
C1450 H1444 0.950 . S
C1450 C1451 1.327 . S
C1451 H1445 0.950 1_545 S
C1451 C1450 1.327 . S
C1451 C1455 1.429 . S
C1452 C1435 1.574 1_545 S
C1452 H1446 0.949 . S
C1452 C1456 1.368 1_545 S
C1453 C1434 1.429 . S
C1453 C1447 1.429 . S
C1453 C1454 1.523 . S
C1454 C1435 1.368 . S
C1454 C1448 1.368 . S
C1454 C1453 1.523 . S
C1455 C1439 1.429 . S
C1455 C1451 1.429 . S
C1455 C1456 1.523 1_545 S
C1456 C1440 1.368 . S
C1456 C1452 1.368 1_565 S
C1456 C1455 1.523 1_565 S
H1457 C1432 0.950 1_556 S
H1458 C1434 0.971 . S
H1459 C1435 0.949 . S
H1460 C1437 0.950 . S
H1461 C1439 0.950 . S
C1462 C1463 1.349 1_556 S
C1462 C1464 1.327 . S
C1462 H1487 0.950 . S
C1463 C1462 1.349 1_554 S
C1463 C1479 1.349 . S
C1464 C1462 1.327 . S
C1464 C1483 1.429 1_556 S
C1464 H1488 0.950 . S
C1465 C1482 1.574 . S
C1465 C1484 1.368 . S
C1465 H1489 0.949 . S
H1466 C1470 0.949 . S
C1467 C1468 1.349 . S
C1467 C1469 1.327 . S
C1467 H1490 0.950 . S
C1468 C1467 1.349 . S
C1468 C1480 1.349 1_554 S
C1469 C1467 1.327 . S
C1469 C1485 1.429 . S
C1469 H1491 0.950 . S
C1470 H1466 0.949 . S
C1470 C1478 1.574 . S
C1470 C1486 1.368 1_556 S
H1471 C1479 0.950 . S
H1472 C1477 0.950 . S
H1473 C1478 0.949 . S
H1474 C1480 0.950 . S
H1475 C1481 0.950 . S
H1476 C1482 0.949 . S
C1477 H1472 0.950 . S
C1477 C1479 1.327 . S
C1477 C1483 1.429 . S
C1478 C1470 1.574 . S
C1478 H1473 0.949 . S
C1478 C1484 1.368 1_556 S
C1479 C1463 1.349 . S
C1479 H1471 0.950 . S
C1479 C1477 1.327 . S
C1480 C1468 1.349 1_556 S
C1480 H1474 0.950 . S
C1480 C1481 1.327 . S
C1481 H1475 0.950 . S
C1481 C1480 1.327 . S
C1481 C1485 1.429 1_556 S
C1482 C1465 1.574 . S
C1482 H1476 0.949 . S
C1482 C1486 1.368 . S
C1483 C1464 1.429 1_554 S
C1483 C1477 1.429 . S
C1483 C1484 1.523 . S
C1484 C1465 1.368 . S
C1484 C1478 1.368 1_554 S
C1484 C1483 1.523 . S
C1485 C1469 1.429 . S
C1485 C1481 1.429 1_554 S
C1485 C1486 1.523 . S
C1486 C1470 1.368 1_554 S
C1486 C1482 1.368 . S
C1486 C1485 1.523 . S
H1487 C1462 0.950 . S
H1488 C1464 0.950 . S
H1489 C1465 0.949 . S
H1490 C1467 0.950 . S
H1491 C1469 0.950 . S
C1492 C1493 1.349 . S
C1492 C1494 1.327 . S
C1492 H1517 0.950 . S
C1493 C1492 1.349 . S
C1493 C1509 1.349 . S
C1494 C1492 1.327 . S
C1494 C1513 1.429 . S
C1494 H1518 0.950 . S
C1495 C1512 1.574 . S
C1495 C1514 1.368 . S
C1495 H1519 0.949 . S
H1496 C1500 0.949 . S
C1497 C1498 1.349 . S
C1497 C1499 1.327 . S
C1497 H1520 0.950 . S
C1498 C1497 1.349 . S
C1498 C1510 1.349 . S
C1499 C1497 1.327 . S
C1499 C1515 1.429 . S
C1499 H1521 0.950 . S
C1500 H1496 0.949 . S
C1500 C1508 1.574 . S
C1500 C1516 1.368 . S
H1501 C1509 0.950 . S
H1502 C1507 0.950 . S
H1503 C1508 0.949 . S
H1504 C1510 0.950 . S
H1505 C1511 0.950 . S
H1506 C1512 0.949 . S
C1507 H1502 0.950 . S
C1507 C1509 1.327 . S
C1507 C1513 1.429 . S
C1508 C1500 1.574 . S
C1508 H1503 0.949 . S
C1508 C1514 1.368 . S
C1509 C1493 1.349 . S
C1509 H1501 0.950 . S
C1509 C1507 1.327 . S
C1510 C1498 1.349 . S
C1510 H1504 0.950 . S
C1510 C1511 1.327 . S
C1511 H1505 0.950 . S
C1511 C1510 1.327 . S
C1511 C1515 1.429 . S
C1512 C1495 1.574 . S
C1512 H1506 0.949 . S
C1512 C1516 1.368 . S
C1513 C1494 1.429 . S
C1513 C1507 1.429 . S
C1513 C1514 1.523 . S
C1514 C1495 1.368 . S
C1514 C1508 1.368 . S
C1514 C1513 1.523 . S
C1515 C1499 1.429 . S
C1515 C1511 1.429 . S
C1515 C1516 1.523 . S
C1516 C1500 1.368 . S
C1516 C1512 1.368 . S
C1516 C1515 1.523 . S
H1517 C1492 0.950 . S
H1518 C1494 0.950 . S
H1519 C1495 0.949 . S
H1520 C1497 0.950 . S
H1521 C1499 0.950 . S
C1522 C1523 1.349 . S
C1522 C1524 1.327 . S
C1522 H1547 0.950 . S
C1523 C1522 1.349 . S
C1523 C1539 1.349 . S
C1524 C1522 1.327 . S
C1524 C1543 1.429 . S
C1524 H1548 0.950 . S
C1525 C1542 1.574 . S
C1525 C1544 1.368 . S
C1525 H1549 0.949 . S
H1526 C1530 0.949 . S
C1527 C1528 1.349 . S
C1527 C1529 1.327 . S
C1527 H1550 0.950 . S
C1528 C1527 1.349 . S
C1528 C1540 1.349 . S
C1529 C1527 1.327 . S
C1529 C1545 1.429 . S
C1529 H1551 0.950 . S
C1530 H1526 0.949 . S
C1530 C1538 1.574 . S
C1530 C1546 1.368 . S
H1531 C1539 0.950 . S
H1532 C1537 0.950 . S
H1533 C1538 0.949 . S
H1534 C1540 0.950 . S
H1535 C1541 0.950 . S
H1536 C1542 0.949 . S
C1537 H1532 0.950 . S
C1537 C1539 1.327 . S
C1537 C1543 1.429 . S
C1538 C1530 1.574 . S
C1538 H1533 0.949 . S
C1538 C1544 1.368 . S
C1539 C1523 1.349 . S
C1539 H1531 0.950 . S
C1539 C1537 1.327 . S
C1540 C1528 1.349 . S
C1540 H1534 0.950 . S
C1540 C1541 1.327 . S
C1541 H1535 0.950 . S
C1541 C1540 1.327 . S
C1541 C1545 1.429 . S
C1542 C1525 1.574 . S
C1542 H1536 0.949 . S
C1542 C1546 1.368 . S
C1543 C1524 1.429 . S
C1543 C1537 1.429 . S
C1543 C1544 1.523 . S
C1544 C1525 1.368 . S
C1544 C1538 1.368 . S
C1544 C1543 1.523 . S
C1545 C1529 1.429 . S
C1545 C1541 1.429 . S
C1545 C1546 1.523 . S
C1546 C1530 1.368 . S
C1546 C1542 1.368 . S
C1546 C1545 1.523 . S
H1547 C1522 0.950 . S
H1548 C1524 0.950 . S
H1549 C1525 0.949 . S
H1550 C1527 0.950 . S
H1551 C1529 0.950 . S
C1552 C1553 1.349 . S
C1552 C1554 1.327 . S
C1552 H1577 0.950 . S
C1553 C1552 1.349 . S
C1553 C1569 1.349 . S
C1554 C1552 1.327 . S
C1554 C1573 1.429 . S
C1554 H1578 0.950 . S
C1555 C1572 1.574 . S
C1555 C1574 1.368 . S
C1555 H1579 0.949 . S
H1556 C1560 0.949 . S
C1557 C1558 1.349 . S
C1557 C1559 1.327 . S
C1557 H1580 0.950 . S
C1558 C1557 1.349 . S
C1558 C1570 1.349 . S
C1559 C1557 1.327 . S
C1559 C1575 1.429 . S
C1559 H1581 0.950 . S
C1560 H1556 0.949 . S
C1560 C1568 1.574 . S
C1560 C1576 1.368 . S
H1561 C1569 0.950 . S
H1562 C1567 0.950 . S
H1563 C1568 0.949 . S
H1564 C1570 0.950 . S
H1565 C1571 0.950 . S
H1566 C1572 0.949 . S
C1567 H1562 0.950 . S
C1567 C1569 1.327 . S
C1567 C1573 1.429 . S
C1568 C1560 1.574 . S
C1568 H1563 0.949 . S
C1568 C1574 1.368 . S
C1569 C1553 1.349 . S
C1569 H1561 0.950 . S
C1569 C1567 1.327 . S
C1570 C1558 1.349 . S
C1570 H1564 0.950 . S
C1570 C1571 1.327 . S
C1571 H1565 0.950 . S
C1571 C1570 1.327 . S
C1571 C1575 1.429 . S
C1572 C1555 1.574 . S
C1572 H1566 0.949 . S
C1572 C1576 1.368 . S
C1573 C1554 1.429 . S
C1573 C1567 1.429 . S
C1573 C1574 1.523 . S
C1574 C1555 1.368 . S
C1574 C1568 1.368 . S
C1574 C1573 1.523 . S
C1575 C1559 1.429 . S
C1575 C1571 1.429 . S
C1575 C1576 1.523 . S
C1576 C1560 1.368 . S
C1576 C1572 1.368 . S
C1576 C1575 1.523 . S
H1577 C1552 0.950 . S
H1578 C1554 0.950 . S
H1579 C1555 0.949 . S
H1580 C1557 0.950 . S
H1581 C1559 0.950 . S
C1582 C1583 1.349 . S
C1582 C1584 1.327 . S
C1582 H1607 0.950 . S
C1583 C1582 1.349 . S
C1583 C1599 1.349 . S
C1584 C1582 1.327 . S
C1584 C1603 1.429 . S
C1584 H1608 0.950 . S
C1585 C1602 1.574 . S
C1585 C1604 1.368 . S
C1585 H1609 0.949 . S
H1586 C1590 0.949 . S
C1587 C1588 1.349 . S
C1587 C1589 1.327 . S
C1587 H1610 0.950 . S
C1588 C1587 1.349 . S
C1588 C1600 1.349 . S
C1589 C1587 1.327 . S
C1589 C1605 1.429 . S
C1589 H1611 0.950 . S
C1590 H1586 0.949 . S
C1590 C1598 1.574 . S
C1590 C1606 1.368 . S
H1591 C1599 0.950 . S
H1592 C1597 0.950 . S
H1593 C1598 0.949 . S
H1594 C1600 0.950 . S
H1595 C1601 0.950 . S
H1596 C1602 0.949 . S
C1597 H1592 0.950 . S
C1597 C1599 1.327 . S
C1597 C1603 1.429 . S
C1598 C1590 1.574 . S
C1598 H1593 0.949 . S
C1598 C1604 1.368 . S
C1599 C1583 1.349 . S
C1599 H1591 0.950 . S
C1599 C1597 1.327 . S
C1600 C1588 1.349 . S
C1600 H1594 0.950 . S
C1600 C1601 1.327 . S
C1601 H1595 0.950 . S
C1601 C1600 1.327 . S
C1601 C1605 1.429 . S
C1602 C1585 1.574 . S
C1602 H1596 0.949 . S
C1602 C1606 1.368 . S
C1603 C1584 1.429 . S
C1603 C1597 1.429 . S
C1603 C1604 1.523 . S
C1604 C1585 1.368 . S
C1604 C1598 1.368 . S
C1604 C1603 1.523 . S
C1605 C1589 1.429 . S
C1605 C1601 1.429 . S
C1605 C1606 1.523 . S
C1606 C1590 1.368 . S
C1606 C1602 1.368 . S
C1606 C1605 1.523 . S
H1607 C1582 0.950 . S
H1608 C1584 0.950 . S
H1609 C1585 0.949 . S
H1610 C1587 0.950 . S
H1611 C1589 0.950 . S
C1612 C1613 1.349 . S
C1612 C1614 1.327 . S
C1612 H1637 0.950 . S
C1613 C1612 1.349 . S
C1613 C1629 1.349 . S
C1614 C1612 1.327 . S
C1614 C1633 1.429 . S
C1614 H1638 0.950 . S
C1615 C1632 1.574 . S
C1615 C1634 1.368 . S
C1615 H1639 0.949 . S
H1616 C1620 0.949 . S
C1617 C1618 1.349 . S
C1617 C1619 1.327 . S
C1617 H1640 0.950 . S
C1618 C1617 1.349 . S
C1618 C1630 1.349 . S
C1619 C1617 1.327 . S
C1619 C1635 1.429 . S
C1619 H1641 0.950 . S
C1620 H1616 0.949 . S
C1620 C1628 1.574 . S
C1620 C1636 1.368 . S
H1621 C1629 0.950 . S
H1622 C1627 0.950 . S
H1623 C1628 0.949 . S
H1624 C1630 0.950 . S
H1625 C1631 0.950 . S
H1626 C1632 0.949 . S
C1627 H1622 0.950 . S
C1627 C1629 1.327 . S
C1627 C1633 1.429 . S
C1628 C1620 1.574 . S
C1628 H1623 0.949 . S
C1628 C1634 1.368 . S
C1629 C1613 1.349 . S
C1629 H1621 0.950 . S
C1629 C1627 1.327 . S
C1630 C1618 1.349 . S
C1630 H1624 0.950 . S
C1630 C1631 1.327 . S
C1631 H1625 0.950 . S
C1631 C1630 1.327 . S
C1631 C1635 1.429 . S
C1632 C1615 1.574 . S
C1632 H1626 0.949 . S
C1632 C1636 1.368 . S
C1633 C1614 1.429 . S
C1633 C1627 1.429 . S
C1633 C1634 1.523 . S
C1634 C1615 1.368 . S
C1634 C1628 1.368 . S
C1634 C1633 1.523 . S
C1635 C1619 1.429 . S
C1635 C1631 1.429 . S
C1635 C1636 1.523 . S
C1636 C1620 1.368 . S
C1636 C1632 1.368 . S
C1636 C1635 1.523 . S
H1637 C1612 0.950 . S
H1638 C1614 0.950 . S
H1639 C1615 0.949 . S
H1640 C1617 0.950 . S
H1641 C1619 0.950 . S
C1642 C1643 1.349 . S
C1642 C1644 1.327 . S
C1642 H1667 0.950 . S
C1643 C1642 1.349 . S
C1643 C1659 1.349 . S
C1644 C1642 1.327 . S
C1644 C1663 1.429 . S
C1644 H1668 0.950 . S
C1645 C1662 1.574 . S
C1645 C1664 1.368 . S
C1645 H1669 0.949 . S
H1646 C1650 0.949 . S
C1647 C1648 1.349 . S
C1647 C1649 1.327 . S
C1647 H1670 0.950 . S
C1648 C1647 1.349 . S
C1648 C1660 1.349 . S
C1649 C1647 1.327 . S
C1649 C1665 1.429 . S
C1649 H1671 0.950 . S
C1650 H1646 0.949 . S
C1650 C1658 1.574 . S
C1650 C1666 1.368 . S
H1651 C1659 0.950 . S
H1652 C1657 0.950 . S
H1653 C1658 0.949 . S
H1654 C1660 0.950 . S
H1655 C1661 0.950 . S
H1656 C1662 0.949 . S
C1657 H1652 0.950 . S
C1657 C1659 1.327 . S
C1657 C1663 1.429 . S
C1658 C1650 1.574 . S
C1658 H1653 0.949 . S
C1658 C1664 1.368 . S
C1659 C1643 1.349 . S
C1659 H1651 0.950 . S
C1659 C1657 1.327 . S
C1660 C1648 1.349 . S
C1660 H1654 0.950 . S
C1660 C1661 1.327 . S
C1661 H1655 0.950 . S
C1661 C1660 1.327 . S
C1661 C1665 1.429 . S
C1662 C1645 1.574 . S
C1662 H1656 0.949 . S
C1662 C1666 1.368 . S
C1663 C1644 1.429 . S
C1663 C1657 1.429 . S
C1663 C1664 1.523 . S
C1664 C1645 1.368 . S
C1664 C1658 1.368 . S
C1664 C1663 1.523 . S
C1665 C1649 1.429 . S
C1665 C1661 1.429 . S
C1665 C1666 1.523 . S
C1666 C1650 1.368 . S
C1666 C1662 1.368 . S
C1666 C1665 1.523 . S
H1667 C1642 0.950 . S
H1668 C1644 0.950 . S
H1669 C1645 0.949 . S
H1670 C1647 0.950 . S
H1671 C1649 0.950 . S
C1672 C1673 1.349 . S
C1672 C1674 1.327 . S
C1672 H1697 0.950 . S
C1673 C1672 1.349 . S
C1673 C1689 1.349 . S
C1674 C1672 1.327 . S
C1674 C1693 1.429 . S
C1674 H1698 0.950 . S
C1675 C1692 1.574 . S
C1675 C1694 1.368 . S
C1675 H1699 0.949 . S
H1676 C1680 0.949 . S
C1677 C1678 1.349 . S
C1677 C1679 1.327 . S
C1677 H1700 0.950 . S
C1678 C1677 1.349 . S
C1678 C1690 1.349 . S
C1679 C1677 1.327 . S
C1679 C1695 1.429 . S
C1679 H1701 0.950 . S
C1680 H1676 0.949 . S
C1680 C1688 1.574 . S
C1680 C1696 1.368 . S
H1681 C1689 0.950 . S
H1682 C1687 0.950 . S
H1683 C1688 0.949 . S
H1684 C1690 0.950 . S
H1685 C1691 0.950 . S
H1686 C1692 0.949 . S
C1687 H1682 0.950 . S
C1687 C1689 1.327 . S
C1687 C1693 1.429 . S
C1688 C1680 1.574 . S
C1688 H1683 0.949 . S
C1688 C1694 1.368 . S
C1689 C1673 1.349 . S
C1689 H1681 0.950 . S
C1689 C1687 1.327 . S
C1690 C1678 1.349 . S
C1690 H1684 0.950 . S
C1690 C1691 1.327 . S
C1691 H1685 0.950 . S
C1691 C1690 1.327 . S
C1691 C1695 1.429 . S
C1692 C1675 1.574 . S
C1692 H1686 0.949 . S
C1692 C1696 1.368 . S
C1693 C1674 1.429 . S
C1693 C1687 1.429 . S
C1693 C1694 1.523 . S
C1694 C1675 1.368 . S
C1694 C1688 1.368 . S
C1694 C1693 1.523 . S
C1695 C1679 1.429 . S
C1695 C1691 1.429 . S
C1695 C1696 1.523 . S
C1696 C1680 1.368 . S
C1696 C1692 1.368 . S
C1696 C1695 1.523 . S
H1697 C1672 0.950 . S
H1698 C1674 0.950 . S
H1699 C1675 0.949 . S
H1700 C1677 0.950 . S
H1701 C1679 0.950 . S
C1702 C1703 1.349 . S
C1702 C1704 1.327 . S
C1702 H1727 0.950 . S
C1703 C1702 1.349 . S
C1703 C1719 1.349 . S
C1704 C1702 1.327 . S
C1704 C1723 1.429 . S
C1704 H1728 0.950 . S
C1705 C1722 1.574 . S
C1705 C1724 1.368 . S
C1705 H1729 0.949 . S
H1706 C1710 0.949 . S
C1707 C1708 1.349 . S
C1707 C1709 1.327 . S
C1707 H1730 0.950 . S
C1708 C1707 1.349 . S
C1708 C1720 1.349 . S
C1709 C1707 1.327 . S
C1709 C1725 1.429 . S
C1709 H1731 0.950 . S
C1710 H1706 0.949 . S
C1710 C1718 1.574 . S
C1710 C1726 1.368 . S
H1711 C1719 0.950 . S
H1712 C1717 0.950 . S
H1713 C1718 0.949 . S
H1714 C1720 0.950 . S
H1715 C1721 0.950 . S
H1716 C1722 0.949 . S
C1717 H1712 0.950 . S
C1717 C1719 1.327 . S
C1717 C1723 1.429 . S
C1718 C1710 1.574 . S
C1718 H1713 0.949 . S
C1718 C1724 1.368 . S
C1719 C1703 1.349 . S
C1719 H1711 0.950 . S
C1719 C1717 1.327 . S
C1720 C1708 1.349 . S
C1720 H1714 0.950 . S
C1720 C1721 1.327 . S
C1721 H1715 0.950 . S
C1721 C1720 1.327 . S
C1721 C1725 1.429 . S
C1722 C1705 1.574 . S
C1722 H1716 0.949 . S
C1722 C1726 1.368 . S
C1723 C1704 1.429 . S
C1723 C1717 1.429 . S
C1723 C1724 1.523 . S
C1724 C1705 1.368 . S
C1724 C1718 1.368 . S
C1724 C1723 1.523 . S
C1725 C1709 1.429 . S
C1725 C1721 1.429 . S
C1725 C1726 1.523 . S
C1726 C1710 1.368 . S
C1726 C1722 1.368 . S
C1726 C1725 1.523 . S
H1727 C1702 0.950 . S
H1728 C1704 0.950 . S
H1729 C1705 0.949 . S
H1730 C1707 0.950 . S
H1731 C1709 0.950 . S
C1732 C1733 1.349 . S
C1732 C1734 1.327 . S
C1732 H1757 0.950 . S
C1733 C1732 1.349 . S
C1733 C1749 1.349 . S
C1734 C1732 1.327 . S
C1734 C1753 1.429 . S
C1734 H1758 0.950 . S
C1735 C1752 1.574 . S
C1735 C1754 1.368 . S
C1735 H1759 0.949 . S
H1736 C1740 0.949 . S
C1737 C1738 1.349 . S
C1737 C1739 1.327 . S
C1737 H1760 0.950 . S
C1738 C1737 1.349 . S
C1738 C1750 1.349 . S
C1739 C1737 1.327 . S
C1739 C1755 1.429 . S
C1739 H1761 0.950 . S
C1740 H1736 0.949 . S
C1740 C1748 1.574 . S
C1740 C1756 1.368 . S
H1741 C1749 0.950 . S
H1742 C1747 0.950 . S
H1743 C1748 0.949 . S
H1744 C1750 0.950 . S
H1745 C1751 0.950 . S
H1746 C1752 0.949 . S
C1747 H1742 0.950 . S
C1747 C1749 1.327 . S
C1747 C1753 1.429 . S
C1748 C1740 1.574 . S
C1748 H1743 0.949 . S
C1748 C1754 1.368 . S
C1749 C1733 1.349 . S
C1749 H1741 0.950 . S
C1749 C1747 1.327 . S
C1750 C1738 1.349 . S
C1750 H1744 0.950 . S
C1750 C1751 1.327 . S
C1751 H1745 0.950 . S
C1751 C1750 1.327 . S
C1751 C1755 1.429 . S
C1752 C1735 1.574 . S
C1752 H1746 0.949 . S
C1752 C1756 1.368 . S
C1753 C1734 1.429 . S
C1753 C1747 1.429 . S
C1753 C1754 1.523 . S
C1754 C1735 1.368 . S
C1754 C1748 1.368 . S
C1754 C1753 1.523 . S
C1755 C1739 1.429 . S
C1755 C1751 1.429 . S
C1755 C1756 1.523 . S
C1756 C1740 1.368 . S
C1756 C1752 1.368 . S
C1756 C1755 1.523 . S
H1757 C1732 0.950 . S
H1758 C1734 0.950 . S
H1759 C1735 0.949 . S
H1760 C1737 0.950 . S
H1761 C1739 0.950 . S
C1762 C1763 1.349 . S
C1762 C1764 1.327 . S
C1762 H1787 0.950 . S
C1763 C1762 1.349 . S
C1763 C1779 1.349 . S
C1764 C1762 1.327 . S
C1764 C1783 1.429 . S
C1764 H1788 0.950 . S
C1765 C1782 1.574 . S
C1765 C1784 1.368 . S
C1765 H1789 0.949 . S
H1766 C1770 0.949 . S
C1767 C1768 1.349 . S
C1767 C1769 1.327 . S
C1767 H1790 0.950 . S
C1768 C1767 1.349 . S
C1768 C1780 1.349 . S
C1769 C1767 1.327 . S
C1769 C1785 1.429 . S
C1769 H1791 0.950 . S
C1770 H1766 0.949 . S
C1770 C1778 1.574 . S
C1770 C1786 1.368 . S
H1771 C1779 0.950 . S
H1772 C1777 0.950 . S
H1773 C1778 0.949 . S
H1774 C1780 0.950 . S
H1775 C1781 0.950 . S
H1776 C1782 0.949 . S
C1777 H1772 0.950 . S
C1777 C1779 1.327 . S
C1777 C1783 1.429 . S
C1778 C1770 1.574 . S
C1778 H1773 0.949 . S
C1778 C1784 1.368 . S
C1779 C1763 1.349 . S
C1779 H1771 0.950 . S
C1779 C1777 1.327 . S
C1780 C1768 1.349 . S
C1780 H1774 0.950 . S
C1780 C1781 1.327 . S
C1781 H1775 0.950 . S
C1781 C1780 1.327 . S
C1781 C1785 1.429 . S
C1782 C1765 1.574 . S
C1782 H1776 0.949 . S
C1782 C1786 1.368 . S
C1783 C1764 1.429 . S
C1783 C1777 1.429 . S
C1783 C1784 1.523 . S
C1784 C1765 1.368 . S
C1784 C1778 1.368 . S
C1784 C1783 1.523 . S
C1785 C1769 1.429 . S
C1785 C1781 1.429 . S
C1785 C1786 1.523 . S
C1786 C1770 1.368 . S
C1786 C1782 1.368 . S
C1786 C1785 1.523 . S
H1787 C1762 0.950 . S
H1788 C1764 0.950 . S
H1789 C1765 0.949 . S
H1790 C1767 0.950 . S
H1791 C1769 0.950 . S
C1792 C1793 1.349 . S
C1792 C1794 1.327 . S
C1792 H1817 0.950 . S
C1793 C1792 1.349 . S
C1793 C1809 1.349 . S
C1794 C1792 1.327 . S
C1794 C1813 1.429 . S
C1794 H1818 0.950 . S
C1795 C1812 1.574 . S
C1795 C1814 1.368 . S
C1795 H1819 0.949 . S
H1796 C1800 0.949 . S
C1797 C1798 1.349 . S
C1797 C1799 1.327 . S
C1797 H1820 0.950 . S
C1798 C1797 1.349 . S
C1798 C1810 1.349 . S
C1799 C1797 1.327 . S
C1799 C1815 1.429 . S
C1799 H1821 0.950 . S
C1800 H1796 0.949 . S
C1800 C1808 1.574 . S
C1800 C1816 1.368 . S
H1801 C1809 0.950 . S
H1802 C1807 0.950 . S
H1803 C1808 0.949 . S
H1804 C1810 0.950 . S
H1805 C1811 0.950 . S
H1806 C1812 0.949 . S
C1807 H1802 0.950 . S
C1807 C1809 1.327 . S
C1807 C1813 1.429 . S
C1808 C1800 1.574 . S
C1808 H1803 0.949 . S
C1808 C1814 1.368 . S
C1809 C1793 1.349 . S
C1809 H1801 0.950 . S
C1809 C1807 1.327 . S
C1810 C1798 1.349 . S
C1810 H1804 0.950 . S
C1810 C1811 1.327 . S
C1811 H1805 0.950 . S
C1811 C1810 1.327 . S
C1811 C1815 1.429 . S
C1812 C1795 1.574 . S
C1812 H1806 0.949 . S
C1812 C1816 1.368 . S
C1813 C1794 1.429 . S
C1813 C1807 1.429 . S
C1813 C1814 1.523 . S
C1814 C1795 1.368 . S
C1814 C1808 1.368 . S
C1814 C1813 1.523 . S
C1815 C1799 1.429 . S
C1815 C1811 1.429 . S
C1815 C1816 1.523 . S
C1816 C1800 1.368 . S
C1816 C1812 1.368 . S
C1816 C1815 1.523 . S
H1817 C1792 0.950 . S
H1818 C1794 0.950 . S
H1819 C1795 0.949 . S
H1820 C1797 0.950 . S
H1821 C1799 0.950 . S
C1822 C1823 1.349 . S
C1822 C1824 1.327 . S
C1822 H1847 0.950 . S
C1823 C1822 1.349 . S
C1823 C1839 1.349 . S
C1824 C1822 1.327 . S
C1824 C1843 1.429 . S
C1824 H1848 0.950 . S
C1825 C1842 1.574 . S
C1825 C1844 1.368 . S
C1825 H1849 0.949 . S
H1826 C1830 0.949 . S
C1827 C1828 1.349 . S
C1827 C1829 1.327 . S
C1827 H1850 0.950 . S
C1828 C1827 1.349 . S
C1828 C1840 1.349 . S
C1829 C1827 1.327 . S
C1829 C1845 1.429 . S
C1829 H1851 0.950 . S
C1830 H1826 0.949 . S
C1830 C1838 1.574 . S
C1830 C1846 1.368 . S
H1831 C1839 0.950 . S
H1832 C1837 0.950 . S
H1833 C1838 0.949 . S
H1834 C1840 0.950 . S
H1835 C1841 0.950 . S
H1836 C1842 0.949 . S
C1837 H1832 0.950 . S
C1837 C1839 1.327 . S
C1837 C1843 1.429 . S
C1838 C1830 1.574 . S
C1838 H1833 0.949 . S
C1838 C1844 1.368 . S
C1839 C1823 1.349 . S
C1839 H1831 0.950 . S
C1839 C1837 1.327 . S
C1840 C1828 1.349 . S
C1840 H1834 0.950 . S
C1840 C1841 1.327 . S
C1841 H1835 0.950 . S
C1841 C1840 1.327 . S
C1841 C1845 1.429 . S
C1842 C1825 1.574 . S
C1842 H1836 0.949 . S
C1842 C1846 1.368 . S
C1843 C1824 1.429 . S
C1843 C1837 1.429 . S
C1843 C1844 1.523 . S
C1844 C1825 1.368 . S
C1844 C1838 1.368 . S
C1844 C1843 1.523 . S
C1845 C1829 1.429 . S
C1845 C1841 1.429 . S
C1845 C1846 1.523 . S
C1846 C1830 1.368 . S
C1846 C1842 1.368 . S
C1846 C1845 1.523 . S
H1847 C1822 0.950 . S
H1848 C1824 0.950 . S
H1849 C1825 0.949 . S
H1850 C1827 0.950 . S
H1851 C1829 0.950 . S
C1852 C1853 1.349 . S
C1852 C1854 1.327 . S
C1852 H1877 0.950 . S
C1853 C1852 1.349 . S
C1853 C1869 1.349 . S
C1854 C1852 1.327 . S
C1854 C1873 1.429 . S
C1854 H1878 0.950 . S
C1855 C1872 1.574 . S
C1855 C1874 1.368 . S
C1855 H1879 0.949 . S
H1856 C1860 0.949 . S
C1857 C1858 1.349 . S
C1857 C1859 1.327 . S
C1857 H1880 0.950 1_565 S
C1858 C1857 1.349 . S
C1858 C1870 1.349 . S
C1859 C1857 1.327 . S
C1859 C1875 1.429 . S
C1859 H1881 0.950 . S
C1860 H1856 0.949 . S
C1860 C1868 1.574 . S
C1860 C1876 1.368 . S
H1861 C1869 0.950 . S
H1862 C1867 0.950 . S
H1863 C1868 0.949 . S
H1864 C1870 0.950 1_554 S
H1865 C1871 0.950 . S
H1866 C1872 0.949 . S
C1867 H1862 0.950 . S
C1867 C1869 1.327 . S
C1867 C1873 1.429 . S
C1868 C1860 1.574 . S
C1868 H1863 0.949 . S
C1868 C1874 1.368 . S
C1869 C1853 1.349 . S
C1869 H1861 0.950 . S
C1869 C1867 1.327 . S
C1870 C1858 1.349 . S
C1870 H1864 0.950 1_556 S
C1870 C1871 1.327 . S
C1871 H1865 0.950 . S
C1871 C1870 1.327 . S
C1871 C1875 1.429 . S
C1872 C1855 1.574 . S
C1872 H1866 0.949 . S
C1872 C1876 1.368 . S
C1873 C1854 1.429 . S
C1873 C1867 1.429 . S
C1873 C1874 1.523 . S
C1874 C1855 1.368 . S
C1874 C1868 1.368 . S
C1874 C1873 1.523 . S
C1875 C1859 1.429 . S
C1875 C1871 1.429 . S
C1875 C1876 1.523 . S
C1876 C1860 1.368 . S
C1876 C1872 1.368 . S
C1876 C1875 1.523 . S
H1877 C1852 0.950 . S
H1878 C1854 0.950 . S
H1879 C1855 0.949 . S
H1880 C1857 0.950 1_545 S
H1881 C1859 0.950 . S
C1882 C1883 1.349 . S
C1882 C1884 1.327 . S
C1882 H1907 0.950 . S
C1883 C1882 1.349 . S
C1883 C1899 1.349 . S
C1884 C1882 1.327 . S
C1884 C1903 1.429 . S
C1884 H1908 0.950 . S
C1885 C1902 1.574 . S
C1885 C1904 1.368 . S
C1885 H1909 0.949 . S
H1886 C1890 0.949 . S
C1887 C1888 1.349 . S
C1887 C1889 1.327 . S
C1887 H1910 0.950 . S
C1888 C1887 1.349 . S
C1888 C1900 1.349 . S
C1889 C1887 1.327 . S
C1889 C1905 1.429 . S
C1889 H1911 0.950 . S
C1890 H1886 0.949 . S
C1890 C1898 1.574 . S
C1890 C1906 1.368 . S
H1891 C1899 0.950 . S
H1892 C1897 0.950 . S
H1893 C1898 0.949 . S
H1894 C1900 0.950 . S
H1895 C1901 0.950 . S
H1896 C1902 0.949 . S
C1897 H1892 0.950 . S
C1897 C1899 1.327 . S
C1897 C1903 1.429 . S
C1898 C1890 1.574 . S
C1898 H1893 0.949 . S
C1898 C1904 1.368 . S
C1899 C1883 1.349 . S
C1899 H1891 0.950 . S
C1899 C1897 1.327 . S
C1900 C1888 1.349 . S
C1900 H1894 0.950 . S
C1900 C1901 1.327 . S
C1901 H1895 0.950 . S
C1901 C1900 1.327 . S
C1901 C1905 1.429 . S
C1902 C1885 1.574 . S
C1902 H1896 0.949 . S
C1902 C1906 1.368 . S
C1903 C1884 1.429 . S
C1903 C1897 1.429 . S
C1903 C1904 1.523 . S
C1904 C1885 1.368 . S
C1904 C1898 1.368 . S
C1904 C1903 1.523 . S
C1905 C1889 1.429 . S
C1905 C1901 1.429 . S
C1905 C1906 1.523 . S
C1906 C1890 1.368 . S
C1906 C1902 1.368 . S
C1906 C1905 1.523 . S
H1907 C1882 0.950 . S
H1908 C1884 0.950 . S
H1909 C1885 0.949 . S
H1910 C1887 0.950 . S
H1911 C1889 0.950 . S
C1912 C1913 1.349 . S
C1912 C1914 1.327 . S
C1912 H1937 0.950 . S
C1913 C1912 1.349 . S
C1913 C1929 1.349 . S
C1914 C1912 1.327 . S
C1914 C1933 1.429 . S
C1914 H1938 0.950 . S
C1915 C1932 1.574 . S
C1915 C1934 1.368 . S
C1915 H1939 1.005 . S
H1916 C1920 0.949 . S
C1917 C1918 1.349 . S
C1917 C1919 1.327 . S
C1917 H1940 0.950 . S
C1918 C1917 1.349 . S
C1918 C1930 1.349 . S
C1919 C1917 1.327 . S
C1919 C1935 1.429 . S
C1919 H1941 0.950 . S
C1920 H1916 0.949 . S
C1920 C1928 1.574 . S
C1920 C1936 1.368 . S
H1921 C1929 0.950 1_565 S
H1922 C1927 0.950 1_565 S
H1923 C1928 0.949 . S
H1924 C1930 0.950 . S
H1925 C1931 0.950 . S
H1926 C1932 0.949 . S
C1927 H1922 0.950 1_545 S
C1927 C1929 1.327 . S
C1927 C1933 1.429 . S
C1928 C1920 1.574 . S
C1928 H1923 0.949 . S
C1928 C1934 1.368 . S
C1929 C1913 1.349 . S
C1929 H1921 0.950 1_545 S
C1929 C1927 1.327 . S
C1930 C1918 1.349 . S
C1930 H1924 0.950 . S
C1930 C1931 1.327 . S
C1931 H1925 0.950 . S
C1931 C1930 1.327 . S
C1931 C1935 1.429 . S
C1932 C1915 1.574 . S
C1932 H1926 0.949 . S
C1932 C1936 1.368 . S
C1933 C1914 1.429 . S
C1933 C1927 1.429 . S
C1933 C1934 1.523 . S
C1934 C1915 1.368 . S
C1934 C1928 1.368 . S
C1934 C1933 1.523 . S
C1935 C1919 1.429 . S
C1935 C1931 1.429 . S
C1935 C1936 1.523 . S
C1936 C1920 1.368 . S
C1936 C1932 1.368 . S
C1936 C1935 1.523 . S
H1937 C1912 0.950 . S
H1938 C1914 0.950 . S
H1939 C1915 1.005 . S
H1940 C1917 0.950 . S
H1941 C1919 0.950 . S
C1942 C1943 1.349 . S
C1942 C1944 1.327 . S
C1942 H1967 0.950 . S
C1943 C1942 1.349 . S
C1943 C1959 1.349 . S
C1944 C1942 1.327 . S
C1944 C1963 1.429 . S
C1944 H1968 0.950 . S
C1945 C1962 1.574 . S
C1945 C1964 1.368 . S
C1945 H1969 0.949 . S
H1946 C1950 0.949 . S
C1947 C1948 1.349 . S
C1947 C1949 1.327 . S
C1947 H1970 0.950 . S
C1948 C1947 1.349 . S
C1948 C1960 1.349 . S
C1949 C1947 1.327 . S
C1949 C1965 1.429 . S
C1949 H1971 0.950 . S
C1950 H1946 0.949 . S
C1950 C1958 1.574 . S
C1950 C1966 1.368 . S
H1951 C1959 0.950 . S
H1952 C1957 0.950 . S
H1953 C1958 0.949 . S
H1954 C1960 0.950 . S
H1955 C1961 0.950 . S
H1956 C1962 0.949 . S
C1957 H1952 0.950 . S
C1957 C1959 1.327 . S
C1957 C1963 1.429 . S
C1958 C1950 1.574 . S
C1958 H1953 0.949 . S
C1958 C1964 1.368 . S
C1959 C1943 1.349 . S
C1959 H1951 0.950 . S
C1959 C1957 1.327 . S
C1960 C1948 1.349 . S
C1960 H1954 0.950 . S
C1960 C1961 1.327 . S
C1961 H1955 0.950 . S
C1961 C1960 1.327 . S
C1961 C1965 1.429 . S
C1962 C1945 1.574 . S
C1962 H1956 0.949 . S
C1962 C1966 1.368 . S
C1963 C1944 1.429 . S
C1963 C1957 1.429 . S
C1963 C1964 1.523 . S
C1964 C1945 1.368 . S
C1964 C1958 1.368 . S
C1964 C1963 1.523 . S
C1965 C1949 1.429 . S
C1965 C1961 1.429 . S
C1965 C1966 1.523 . S
C1966 C1950 1.368 . S
C1966 C1962 1.368 . S
C1966 C1965 1.523 . S
H1967 C1942 0.950 . S
H1968 C1944 0.950 . S
H1969 C1945 0.949 . S
H1970 C1947 0.950 . S
H1971 C1949 0.950 . S
C1972 C1973 1.349 . S
C1972 C1974 1.327 . S
C1972 H1997 0.950 . S
C1973 C1972 1.349 . S
C1973 C1989 1.308 1_545 S
C1974 C1972 1.327 . S
C1974 C1993 1.429 . S
C1974 H1998 0.950 . S
C1975 C1992 1.574 . S
C1975 C1994 1.368 . S
C1975 H1999 0.949 1_545 S
H1976 C1980 0.949 . S
C1977 C1978 1.349 . S
C1977 C1979 1.327 . S
C1977 H2000 0.947 1_545 S
C1978 C1977 1.349 . S
C1978 C1990 1.349 . S
C1979 C1977 1.327 . S
C1979 C1995 1.429 . S
C1979 H2001 0.950 1_545 S
C1980 H1976 0.949 . S
C1980 C1988 1.574 . S
C1980 C1996 1.368 . S
H1981 C1989 0.982 . S
H1982 C1987 0.950 1_565 S
H1983 C1988 0.949 . S
H1984 C1990 0.950 . S
H1985 C1991 0.950 . S
H1986 C1992 0.949 1_565 S
C1987 H1982 0.950 1_545 S
C1987 C1989 1.338 1_545 S
C1987 C1993 1.428 . S
C1988 C1980 1.574 . S
C1988 H1983 0.949 . S
C1988 C1994 1.368 . S
C1989 C1973 1.308 1_565 S
C1989 H1981 0.982 . S
C1989 C1987 1.338 1_565 S
C1990 C1978 1.349 . S
C1990 H1984 0.950 . S
C1990 C1991 1.327 . S
C1991 H1985 0.950 . S
C1991 C1990 1.327 . S
C1991 C1995 1.429 . S
C1992 C1975 1.574 . S
C1992 H1986 0.949 1_545 S
C1992 C1996 1.368 . S
C1993 C1974 1.429 . S
C1993 C1987 1.428 . S
C1993 C1994 1.523 . S
C1994 C1975 1.368 . S
C1994 C1988 1.368 . S
C1994 C1993 1.523 . S
C1995 C1979 1.429 . S
C1995 C1991 1.429 . S
C1995 C1996 1.523 . S
C1996 C1980 1.368 . S
C1996 C1992 1.368 . S
C1996 C1995 1.523 . S
H1997 C1972 0.950 . S
H1998 C1974 0.950 . S
H1999 C1975 0.949 1_565 S
H2000 C1977 0.947 1_565 S
H2001 C1979 0.950 1_565 S
C2002 C2003 1.349 . S
C2002 C2004 1.327 . S
C2002 H2027 0.950 . S
C2003 C2002 1.349 . S
C2003 C2019 1.349 . S
C2004 C2002 1.327 . S
C2004 C2023 1.429 . S
C2004 H2028 0.950 . S
C2005 C2022 1.574 . S
C2005 C2024 1.368 . S
C2005 H2029 0.949 . S
H2006 C2010 0.949 . S
C2007 C2008 1.349 . S
C2007 C2009 1.327 . S
C2007 H2030 0.950 . S
C2008 C2007 1.349 . S
C2008 C2020 1.349 . S
C2009 C2007 1.327 . S
C2009 C2025 1.429 . S
C2009 H2031 0.950 . S
C2010 H2006 0.949 . S
C2010 C2018 1.574 . S
C2010 C2026 1.368 . S
H2011 C2019 0.950 . S
H2012 C2017 0.950 . S
H2013 C2018 0.949 . S
H2014 C2020 0.950 . S
H2015 C2021 0.950 . S
H2016 C2022 0.949 . S
C2017 H2012 0.950 . S
C2017 C2019 1.327 . S
C2017 C2023 1.429 . S
C2018 C2010 1.574 . S
C2018 H2013 0.949 . S
C2018 C2024 1.368 . S
C2019 C2003 1.349 . S
C2019 H2011 0.950 . S
C2019 C2017 1.327 . S
C2020 C2008 1.349 . S
C2020 H2014 0.950 . S
C2020 C2021 1.327 . S
C2021 H2015 0.950 . S
C2021 C2020 1.327 . S
C2021 C2025 1.429 . S
C2022 C2005 1.574 . S
C2022 H2016 0.949 . S
C2022 C2026 1.368 . S
C2023 C2004 1.429 . S
C2023 C2017 1.429 . S
C2023 C2024 1.523 . S
C2024 C2005 1.368 . S
C2024 C2018 1.368 . S
C2024 C2023 1.523 . S
C2025 C2009 1.429 . S
C2025 C2021 1.429 . S
C2025 C2026 1.523 . S
C2026 C2010 1.368 . S
C2026 C2022 1.368 . S
C2026 C2025 1.523 . S
H2027 C2002 0.950 . S
H2028 C2004 0.950 . S
H2029 C2005 0.949 . S
H2030 C2007 0.950 . S
H2031 C2009 0.950 . S
C2032 C2033 1.349 1_565 S
C2032 C2034 1.327 . S
C2032 H2057 0.950 . S
C2033 C2032 1.349 1_545 S
C2033 C2049 1.349 . S
C2034 C2032 1.327 . S
C2034 C2053 1.429 1_565 S
C2034 H2058 0.950 . S
C2035 C2052 1.574 . S
C2035 C2054 1.368 . S
C2035 H2059 0.949 . S
H2036 C2040 0.949 . S
C2037 C2038 1.349 . S
C2037 C2039 1.327 . S
C2037 H2060 0.950 . S
C2038 C2037 1.349 . S
C2038 C2050 1.349 . S
C2039 C2037 1.327 . S
C2039 C2055 1.429 . S
C2039 H2061 0.950 . S
C2040 H2036 0.949 . S
C2040 C2048 1.574 . S
C2040 C2056 1.368 1_565 S
H2041 C2049 0.950 . S
H2042 C2047 0.950 . S
H2043 C2048 0.949 . S
H2044 C2050 0.950 1_565 S
H2045 C2051 0.950 1_565 S
H2046 C2052 0.949 . S
C2047 H2042 0.950 . S
C2047 C2049 1.327 . S
C2047 C2053 1.429 . S
C2048 C2040 1.574 . S
C2048 H2043 0.949 . S
C2048 C2054 1.368 1_565 S
C2049 C2033 1.349 . S
C2049 H2041 0.950 . S
C2049 C2047 1.327 . S
C2050 C2038 1.349 . S
C2050 H2044 0.950 1_545 S
C2050 C2051 1.327 . S
C2051 H2045 0.950 1_545 S
C2051 C2050 1.327 . S
C2051 C2055 1.429 . S
C2052 C2035 1.574 . S
C2052 H2046 0.949 . S
C2052 C2056 1.368 . S
C2053 C2034 1.429 1_545 S
C2053 C2047 1.429 . S
C2053 C2054 1.523 . S
C2054 C2035 1.368 . S
C2054 C2048 1.368 1_545 S
C2054 C2053 1.523 . S
C2055 C2039 1.429 . S
C2055 C2051 1.429 . S
C2055 C2056 1.523 . S
C2056 C2040 1.368 1_545 S
C2056 C2052 1.368 . S
C2056 C2055 1.523 . S
H2057 C2032 0.950 . S
H2058 C2034 0.950 . S
H2059 C2035 0.949 . S
H2060 C2037 0.950 . S
H2061 C2039 0.950 . S
C2062 C2063 1.349 . S
C2062 C2064 1.327 . S
C2062 H2087 0.950 . S
C2063 C2062 1.349 . S
C2063 C2079 1.349 . S
C2064 C2062 1.327 . S
C2064 C2083 1.429 . S
C2064 H2088 0.950 . S
C2065 C2082 1.574 . S
C2065 C2084 1.368 . S
C2065 H2089 0.949 . S
H2066 C2070 0.949 . S
C2067 C2068 1.349 . S
C2067 C2069 1.327 . S
C2067 H2090 0.950 . S
C2068 C2067 1.349 . S
C2068 C2080 1.349 . S
C2069 C2067 1.327 . S
C2069 C2085 1.429 . S
C2069 H2091 0.950 . S
C2070 H2066 0.949 . S
C2070 C2078 1.574 . S
C2070 C2086 1.368 . S
H2071 C2079 0.950 . S
H2072 C2077 0.950 . S
H2073 C2078 0.949 . S
H2074 C2080 0.950 . S
H2075 C2081 0.950 . S
H2076 C2082 0.949 . S
C2077 H2072 0.950 . S
C2077 C2079 1.327 . S
C2077 C2083 1.429 . S
C2078 C2070 1.574 . S
C2078 H2073 0.949 . S
C2078 C2084 1.368 . S
C2079 C2063 1.349 . S
C2079 H2071 0.950 . S
C2079 C2077 1.327 . S
C2080 C2068 1.349 . S
C2080 H2074 0.950 . S
C2080 C2081 1.327 . S
C2081 H2075 0.950 . S
C2081 C2080 1.327 . S
C2081 C2085 1.429 . S
C2082 C2065 1.574 . S
C2082 H2076 0.949 . S
C2082 C2086 1.368 . S
C2083 C2064 1.429 . S
C2083 C2077 1.429 . S
C2083 C2084 1.523 . S
C2084 C2065 1.368 . S
C2084 C2078 1.368 . S
C2084 C2083 1.523 . S
C2085 C2069 1.429 . S
C2085 C2081 1.429 . S
C2085 C2086 1.523 . S
C2086 C2070 1.368 . S
C2086 C2082 1.368 . S
C2086 C2085 1.523 . S
H2087 C2062 0.950 . S
H2088 C2064 0.950 . S
H2089 C2065 0.949 . S
H2090 C2067 0.950 . S
H2091 C2069 0.950 . S
C2092 C2093 1.349 . S
C2092 C2094 1.327 . S
C2092 H2117 0.950 . S
C2093 C2092 1.349 . S
C2093 C2109 1.349 1_545 S
C2094 C2092 1.327 . S
C2094 C2113 1.429 . S
C2094 H2118 0.950 . S
C2095 C2112 1.574 . S
C2095 C2114 1.368 1_565 S
C2095 H2119 0.949 . S
H2096 C2100 0.949 . S
C2097 C2098 1.392 . S
C2097 C2099 1.320 . S
C2097 H2120 0.916 1_545 S
C2098 C2097 1.392 . S
C2098 C2110 1.349 . S
C2099 C2097 1.320 . S
C2099 C2115 1.427 . S
C2099 H2121 0.952 1_545 S
C2100 H2096 0.949 . S
C2100 C2108 1.574 . S
C2100 C2116 1.368 . S
H2101 C2109 0.950 . S
H2102 C2107 0.950 . S
H2103 C2108 0.949 . S
H2104 C2110 0.950 . S
H2105 C2111 0.950 . S
H2106 C2112 0.949 . S
C2107 H2102 0.950 . S
C2107 C2109 1.327 . S
C2107 C2113 1.429 1_565 S
C2108 C2100 1.574 . S
C2108 H2103 0.949 . S
C2108 C2114 1.368 . S
C2109 C2093 1.349 1_565 S
C2109 H2101 0.950 . S
C2109 C2107 1.327 . S
C2110 C2098 1.349 . S
C2110 H2104 0.950 . S
C2110 C2111 1.327 . S
C2111 H2105 0.950 . S
C2111 C2110 1.327 . S
C2111 C2115 1.429 . S
C2112 C2095 1.574 . S
C2112 H2106 0.949 . S
C2112 C2116 1.368 1_565 S
C2113 C2094 1.429 . S
C2113 C2107 1.429 1_545 S
C2113 C2114 1.523 . S
C2114 C2095 1.368 1_545 S
C2114 C2108 1.368 . S
C2114 C2113 1.523 . S
C2115 C2099 1.427 . S
C2115 C2111 1.429 . S
C2115 C2116 1.523 . S
C2116 C2100 1.368 . S
C2116 C2112 1.368 1_545 S
C2116 C2115 1.523 . S
H2117 C2092 0.950 . S
H2118 C2094 0.950 . S
H2119 C2095 0.949 . S
H2120 C2097 0.916 1_565 S
H2121 C2099 0.952 1_565 S
C2122 C2123 1.349 . S
C2122 C2124 1.327 . S
C2122 H2147 0.950 . S
C2123 C2122 1.349 . S
C2123 C2139 1.349 . S
C2124 C2122 1.327 . S
C2124 C2143 1.429 . S
C2124 H2148 0.950 . S
C2125 C2142 1.574 . S
C2125 C2144 1.368 . S
C2125 H2149 0.949 . S
H2126 C2130 0.949 . S
C2127 C2128 1.349 . S
C2127 C2129 1.327 . S
C2127 H2150 0.950 . S
C2128 C2127 1.349 . S
C2128 C2140 1.349 . S
C2129 C2127 1.327 . S
C2129 C2145 1.429 . S
C2129 H2151 0.950 . S
C2130 H2126 0.949 . S
C2130 C2138 1.574 . S
C2130 C2146 1.368 . S
H2131 C2139 0.950 . S
H2132 C2137 0.950 . S
H2133 C2138 0.949 . S
H2134 C2140 0.950 . S
H2135 C2141 0.950 . S
H2136 C2142 0.949 . S
C2137 H2132 0.950 . S
C2137 C2139 1.327 . S
C2137 C2143 1.429 . S
C2138 C2130 1.574 . S
C2138 H2133 0.949 . S
C2138 C2144 1.368 . S
C2139 C2123 1.349 . S
C2139 H2131 0.950 . S
C2139 C2137 1.327 . S
C2140 C2128 1.349 . S
C2140 H2134 0.950 . S
C2140 C2141 1.327 . S
C2141 H2135 0.950 . S
C2141 C2140 1.327 . S
C2141 C2145 1.429 . S
C2142 C2125 1.574 . S
C2142 H2136 0.949 . S
C2142 C2146 1.368 . S
C2143 C2124 1.429 . S
C2143 C2137 1.429 . S
C2143 C2144 1.523 . S
C2144 C2125 1.368 . S
C2144 C2138 1.368 . S
C2144 C2143 1.523 . S
C2145 C2129 1.429 . S
C2145 C2141 1.429 . S
C2145 C2146 1.523 . S
C2146 C2130 1.368 . S
C2146 C2142 1.368 . S
C2146 C2145 1.523 . S
H2147 C2122 0.950 . S
H2148 C2124 0.950 . S
H2149 C2125 0.949 . S
H2150 C2127 0.950 . S
H2151 C2129 0.950 . S
C2152 C2153 1.349 . S
C2152 C2154 1.327 . S
C2152 H2177 0.950 . S
C2153 C2152 1.349 . S
C2153 C2169 1.349 . S
C2154 C2152 1.327 . S
C2154 C2173 1.429 . S
C2154 H2178 0.901 1_554 S
C2155 C2172 1.574 . S
C2155 C2174 1.368 . S
C2155 H2179 0.949 . S
H2156 C2160 0.949 1_556 S
C2157 C2158 1.349 . S
C2157 C2159 1.327 . S
C2157 H2180 0.950 . S
C2158 C2157 1.349 . S
C2158 C2170 1.349 . S
C2159 C2157 1.327 . S
C2159 C2175 1.429 . S
C2159 H2181 0.950 . S
C2160 H2156 0.949 1_554 S
C2160 C2168 1.574 . S
C2160 C2176 1.368 . S
H2161 C2169 0.950 . S
H2162 C2167 0.950 . S
H2163 C2168 0.949 1_556 S
H2164 C2170 0.950 1_556 S
H2165 C2171 0.950 1_556 S
H2166 C2172 0.949 . S
C2167 H2162 0.950 . S
C2167 C2169 1.327 . S
C2167 C2173 1.429 . S
C2168 C2160 1.574 . S
C2168 H2163 0.949 1_554 S
C2168 C2174 1.368 . S
C2169 C2153 1.349 . S
C2169 H2161 0.950 . S
C2169 C2167 1.327 . S
C2170 C2158 1.349 . S
C2170 H2164 0.950 1_554 S
C2170 C2171 1.327 . S
C2171 H2165 0.950 1_554 S
C2171 C2170 1.327 . S
C2171 C2175 1.429 . S
C2172 C2155 1.574 . S
C2172 H2166 0.949 . S
C2172 C2176 1.368 . S
C2173 C2154 1.429 . S
C2173 C2167 1.429 . S
C2173 C2174 1.523 . S
C2174 C2155 1.368 . S
C2174 C2168 1.368 . S
C2174 C2173 1.523 . S
C2175 C2159 1.429 . S
C2175 C2171 1.429 . S
C2175 C2176 1.523 . S
C2176 C2160 1.368 . S
C2176 C2172 1.368 . S
C2176 C2175 1.523 . S
H2177 C2152 0.950 . S
H2178 C2154 0.901 1_556 S
H2179 C2155 0.949 . S
H2180 C2157 0.950 . S
H2181 C2159 0.950 . S
C2182 C2183 1.349 . S
C2182 C2184 1.327 . S
C2182 H2207 0.950 . S
C2183 C2182 1.349 . S
C2183 C2199 1.349 . S
C2184 C2182 1.327 . S
C2184 C2203 1.429 . S
C2184 H2208 0.950 . S
C2185 C2202 1.575 . S
C2185 C2204 1.364 1_556 S
C2185 H2209 0.952 . S
H2186 C2190 0.949 . S
C2187 C2188 1.349 1_556 S
C2187 C2189 1.327 . S
C2187 H2210 0.950 . S
C2188 C2187 1.349 1_554 S
C2188 C2200 1.349 . S
C2189 C2187 1.327 . S
C2189 C2205 1.429 1_556 S
C2189 H2211 0.950 . S
C2190 H2186 0.949 . S
C2190 C2198 1.574 . S
C2190 C2206 1.368 . S
H2191 C2199 0.950 1_556 S
H2192 C2197 0.950 1_556 S
H2193 C2198 0.949 . S
H2194 C2200 0.950 . S
H2195 C2201 0.950 . S
H2196 C2202 0.949 . S
C2197 H2192 0.950 1_554 S
C2197 C2199 1.327 . S
C2197 C2203 1.429 . S
C2198 C2190 1.574 . S
C2198 H2193 0.949 . S
C2198 C2204 1.368 . S
C2199 C2183 1.349 . S
C2199 H2191 0.950 1_554 S
C2199 C2197 1.327 . S
C2200 C2188 1.349 . S
C2200 H2194 0.950 . S
C2200 C2201 1.327 . S
C2201 H2195 0.950 . S
C2201 C2200 1.327 . S
C2201 C2205 1.429 . S
C2202 C2185 1.575 . S
C2202 H2196 0.949 . S
C2202 C2206 1.368 1_556 S
C2203 C2184 1.429 . S
C2203 C2197 1.429 . S
C2203 C2204 1.523 . S
C2204 C2185 1.364 1_554 S
C2204 C2198 1.368 . S
C2204 C2203 1.523 . S
C2205 C2189 1.429 1_554 S
C2205 C2201 1.429 . S
C2205 C2206 1.523 . S
C2206 C2190 1.368 . S
C2206 C2202 1.368 1_554 S
C2206 C2205 1.523 . S
H2207 C2182 0.950 . S
H2208 C2184 0.950 . S
H2209 C2185 0.952 . S
H2210 C2187 0.950 . S
H2211 C2189 0.950 . S
C2212 C2213 1.349 . S
C2212 C2214 1.327 . S
C2212 H2237 0.950 . S
C2213 C2212 1.349 . S
C2213 C2229 1.349 . S
C2214 C2212 1.327 . S
C2214 C2233 1.429 . S
C2214 H2238 0.950 . S
C2215 C2232 1.574 . S
C2215 C2234 1.368 . S
C2215 H2239 0.949 . S
H2216 C2220 0.949 . S
C2217 C2218 1.349 . S
C2217 C2219 1.327 . S
C2217 H2240 0.950 . S
C2218 C2217 1.349 . S
C2218 C2230 1.349 . S
C2219 C2217 1.327 . S
C2219 C2235 1.429 . S
C2219 H2241 0.950 . S
C2220 H2216 0.949 . S
C2220 C2228 1.574 . S
C2220 C2236 1.368 . S
H2221 C2229 0.950 . S
H2222 C2227 0.950 . S
H2223 C2228 0.949 . S
H2224 C2230 0.950 . S
H2225 C2231 0.950 . S
H2226 C2232 0.949 . S
C2227 H2222 0.950 . S
C2227 C2229 1.327 . S
C2227 C2233 1.429 . S
C2228 C2220 1.574 . S
C2228 H2223 0.949 . S
C2228 C2234 1.368 . S
C2229 C2213 1.349 . S
C2229 H2221 0.950 . S
C2229 C2227 1.327 . S
C2230 C2218 1.349 . S
C2230 H2224 0.950 . S
C2230 C2231 1.327 . S
C2231 H2225 0.950 . S
C2231 C2230 1.327 . S
C2231 C2235 1.429 . S
C2232 C2215 1.574 . S
C2232 H2226 0.949 . S
C2232 C2236 1.368 . S
C2233 C2214 1.429 . S
C2233 C2227 1.429 . S
C2233 C2234 1.523 . S
C2234 C2215 1.368 . S
C2234 C2228 1.368 . S
C2234 C2233 1.523 . S
C2235 C2219 1.429 . S
C2235 C2231 1.429 . S
C2235 C2236 1.523 . S
C2236 C2220 1.368 . S
C2236 C2232 1.368 . S
C2236 C2235 1.523 . S
H2237 C2212 0.950 . S
H2238 C2214 0.950 . S
H2239 C2215 0.949 . S
H2240 C2217 0.950 . S
H2241 C2219 0.950 . S
C2242 C2243 1.349 . S
C2242 C2244 1.327 . S
C2242 H2267 0.950 . S
C2243 C2242 1.349 . S
C2243 C2259 1.349 . S
C2244 C2242 1.327 . S
C2244 C2263 1.429 . S
C2244 H2268 0.950 . S
C2245 C2262 1.574 . S
C2245 C2264 1.368 . S
C2245 H2269 0.949 . S
H2246 C2250 0.949 . S
C2247 C2248 1.349 . S
C2247 C2249 1.327 . S
C2247 H2270 0.950 . S
C2248 C2247 1.349 . S
C2248 C2260 1.349 . S
C2249 C2247 1.327 . S
C2249 C2265 1.429 . S
C2249 H2271 0.950 . S
C2250 H2246 0.949 . S
C2250 C2258 1.574 . S
C2250 C2266 1.368 . S
H2251 C2259 0.950 . S
H2252 C2257 0.950 . S
H2253 C2258 0.949 . S
H2254 C2260 0.950 . S
H2255 C2261 0.950 . S
H2256 C2262 0.949 . S
C2257 H2252 0.950 . S
C2257 C2259 1.327 . S
C2257 C2263 1.429 . S
C2258 C2250 1.574 . S
C2258 H2253 0.949 . S
C2258 C2264 1.368 . S
C2259 C2243 1.349 . S
C2259 H2251 0.950 . S
C2259 C2257 1.327 . S
C2260 C2248 1.349 . S
C2260 H2254 0.950 . S
C2260 C2261 1.327 . S
C2261 H2255 0.950 . S
C2261 C2260 1.327 . S
C2261 C2265 1.429 . S
C2262 C2245 1.574 . S
C2262 H2256 0.949 . S
C2262 C2266 1.368 . S
C2263 C2244 1.429 . S
C2263 C2257 1.429 . S
C2263 C2264 1.523 . S
C2264 C2245 1.368 . S
C2264 C2258 1.368 . S
C2264 C2263 1.523 . S
C2265 C2249 1.429 . S
C2265 C2261 1.429 . S
C2265 C2266 1.523 . S
C2266 C2250 1.368 . S
C2266 C2262 1.368 . S
C2266 C2265 1.523 . S
H2267 C2242 0.950 . S
H2268 C2244 0.950 . S
H2269 C2245 0.949 . S
H2270 C2247 0.950 . S
H2271 C2249 0.950 . S
C2272 C2273 1.349 . S
C2272 C2274 1.327 1_545 S
C2272 H2297 0.950 . S
C2273 C2272 1.349 . S
C2273 C2289 1.349 1_545 S
C2274 C2272 1.327 1_565 S
C2274 C2293 1.429 . S
C2274 H2298 0.950 . S
C2275 C2292 1.574 . S
C2275 C2294 1.368 . S
C2275 H2299 0.949 . S
H2276 C2280 0.949 . S
C2277 C2278 1.349 . S
C2277 C2279 1.327 . S
C2277 H2300 0.950 . S
C2278 C2277 1.349 . S
C2278 C2290 1.349 . S
C2279 C2277 1.327 . S
C2279 C2295 1.429 . S
C2279 H2301 0.950 . S
C2280 H2276 0.949 . S
C2280 C2288 1.574 . S
C2280 C2296 1.368 . S
H2281 C2289 0.950 1_545 S
H2282 C2287 0.950 . S
H2283 C2288 0.949 . S
H2284 C2290 0.950 . S
H2285 C2291 0.950 . S
H2286 C2292 0.949 . S
C2287 H2282 0.950 . S
C2287 C2289 1.326 . S
C2287 C2293 1.429 . S
C2288 C2280 1.574 . S
C2288 H2283 0.949 . S
C2288 C2294 1.368 . S
C2289 C2273 1.349 1_565 S
C2289 H2281 0.950 1_565 S
C2289 C2287 1.326 . S
C2290 C2278 1.349 . S
C2290 H2284 0.950 . S
C2290 C2291 1.327 . S
C2291 H2285 0.950 . S
C2291 C2290 1.327 . S
C2291 C2295 1.429 . S
C2292 C2275 1.574 . S
C2292 H2286 0.949 . S
C2292 C2296 1.368 . S
C2293 C2274 1.429 . S
C2293 C2287 1.429 . S
C2293 C2294 1.523 . S
C2294 C2275 1.368 . S
C2294 C2288 1.368 . S
C2294 C2293 1.523 . S
C2295 C2279 1.429 . S
C2295 C2291 1.429 . S
C2295 C2296 1.523 . S
C2296 C2280 1.368 . S
C2296 C2292 1.368 . S
C2296 C2295 1.523 . S
H2297 C2272 0.950 . S
H2298 C2274 0.950 . S
H2299 C2275 0.949 . S
H2300 C2277 0.950 . S
H2301 C2279 0.950 . S
C2302 C2303 1.349 . S
C2302 C2304 1.327 . S
C2302 H2327 0.950 . S
C2303 C2302 1.349 . S
C2303 C2319 1.349 . S
C2304 C2302 1.327 . S
C2304 C2323 1.429 . S
C2304 H2328 0.950 . S
C2305 C2322 1.574 . S
C2305 C2324 1.368 . S
C2305 H2329 0.949 . S
H2306 C2310 0.949 . S
C2307 C2308 1.349 . S
C2307 C2309 1.327 . S
C2307 H2330 0.950 . S
C2308 C2307 1.349 . S
C2308 C2320 1.349 . S
C2309 C2307 1.327 . S
C2309 C2325 1.429 . S
C2309 H2331 0.950 . S
C2310 H2306 0.949 . S
C2310 C2318 1.574 . S
C2310 C2326 1.368 . S
H2311 C2319 0.950 . S
H2312 C2317 0.950 . S
H2313 C2318 0.949 . S
H2314 C2320 0.950 . S
H2315 C2321 0.950 . S
H2316 C2322 0.949 . S
C2317 H2312 0.950 . S
C2317 C2319 1.327 . S
C2317 C2323 1.429 . S
C2318 C2310 1.574 . S
C2318 H2313 0.949 . S
C2318 C2324 1.368 . S
C2319 C2303 1.349 . S
C2319 H2311 0.950 . S
C2319 C2317 1.327 . S
C2320 C2308 1.349 . S
C2320 H2314 0.950 . S
C2320 C2321 1.327 . S
C2321 H2315 0.950 . S
C2321 C2320 1.327 . S
C2321 C2325 1.429 . S
C2322 C2305 1.574 . S
C2322 H2316 0.949 . S
C2322 C2326 1.368 . S
C2323 C2304 1.429 . S
C2323 C2317 1.429 . S
C2323 C2324 1.523 . S
C2324 C2305 1.368 . S
C2324 C2318 1.368 . S
C2324 C2323 1.523 . S
C2325 C2309 1.429 . S
C2325 C2321 1.429 . S
C2325 C2326 1.523 . S
C2326 C2310 1.368 . S
C2326 C2322 1.368 . S
C2326 C2325 1.523 . S
H2327 C2302 0.950 . S
H2328 C2304 0.950 . S
H2329 C2305 0.949 . S
H2330 C2307 0.950 . S
H2331 C2309 0.950 . S
C2332 C2333 1.349 . S
C2332 C2334 1.327 . S
C2332 H2357 0.950 . S
C2333 C2332 1.349 . S
C2333 C2349 1.349 . S
C2334 C2332 1.327 . S
C2334 C2353 1.429 . S
C2334 H2358 0.950 . S
C2335 C2352 1.574 . S
C2335 C2354 1.368 . S
C2335 H2359 0.949 . S
H2336 C2340 0.949 . S
C2337 C2338 1.349 . S
C2337 C2339 1.327 . S
C2337 H2360 0.950 . S
C2338 C2337 1.349 . S
C2338 C2350 1.349 . S
C2339 C2337 1.327 . S
C2339 C2355 1.429 . S
C2339 H2361 0.950 . S
C2340 H2336 0.949 . S
C2340 C2348 1.574 . S
C2340 C2356 1.368 . S
H2341 C2349 0.950 . S
H2342 C2347 0.950 . S
H2343 C2348 0.949 . S
H2344 C2350 0.950 . S
H2345 C2351 0.950 . S
H2346 C2352 0.949 . S
C2347 H2342 0.950 . S
C2347 C2349 1.327 . S
C2347 C2353 1.429 . S
C2348 C2340 1.574 . S
C2348 H2343 0.949 . S
C2348 C2354 1.368 . S
C2349 C2333 1.349 . S
C2349 H2341 0.950 . S
C2349 C2347 1.327 . S
C2350 C2338 1.349 . S
C2350 H2344 0.950 . S
C2350 C2351 1.327 . S
C2351 H2345 0.950 . S
C2351 C2350 1.327 . S
C2351 C2355 1.429 . S
C2352 C2335 1.574 . S
C2352 H2346 0.949 . S
C2352 C2356 1.368 . S
C2353 C2334 1.429 . S
C2353 C2347 1.429 . S
C2353 C2354 1.523 . S
C2354 C2335 1.368 . S
C2354 C2348 1.368 . S
C2354 C2353 1.523 . S
C2355 C2339 1.429 . S
C2355 C2351 1.429 . S
C2355 C2356 1.523 . S
C2356 C2340 1.368 . S
C2356 C2352 1.368 . S
C2356 C2355 1.523 . S
H2357 C2332 0.950 . S
H2358 C2334 0.950 . S
H2359 C2335 0.949 . S
H2360 C2337 0.950 . S
H2361 C2339 0.950 . S
C2362 C2363 1.349 . S
C2362 C2364 1.327 . S
C2362 H2387 0.950 . S
C2363 C2362 1.349 . S
C2363 C2379 1.349 . S
C2364 C2362 1.327 . S
C2364 C2383 1.429 . S
C2364 H2388 0.950 . S
C2365 C2382 1.574 . S
C2365 C2384 1.368 . S
C2365 H2389 0.949 . S
H2366 C2370 0.949 . S
C2367 C2368 1.349 . S
C2367 C2369 1.327 . S
C2367 H2390 0.950 . S
C2368 C2367 1.349 . S
C2368 C2380 1.349 . S
C2369 C2367 1.327 . S
C2369 C2385 1.429 . S
C2369 H2391 0.950 . S
C2370 H2366 0.949 . S
C2370 C2378 1.574 . S
C2370 C2386 1.368 . S
H2371 C2379 0.950 . S
H2372 C2377 0.950 . S
H2373 C2378 0.949 . S
H2374 C2380 0.950 . S
H2375 C2381 0.950 . S
H2376 C2382 0.949 . S
C2377 H2372 0.950 . S
C2377 C2379 1.327 . S
C2377 C2383 1.429 . S
C2378 C2370 1.574 . S
C2378 H2373 0.949 . S
C2378 C2384 1.368 . S
C2379 C2363 1.349 . S
C2379 H2371 0.950 . S
C2379 C2377 1.327 . S
C2380 C2368 1.349 . S
C2380 H2374 0.950 . S
C2380 C2381 1.327 . S
C2381 H2375 0.950 . S
C2381 C2380 1.327 . S
C2381 C2385 1.429 . S
C2382 C2365 1.574 . S
C2382 H2376 0.949 . S
C2382 C2386 1.368 . S
C2383 C2364 1.429 . S
C2383 C2377 1.429 . S
C2383 C2384 1.523 . S
C2384 C2365 1.368 . S
C2384 C2378 1.368 . S
C2384 C2383 1.523 . S
C2385 C2369 1.429 . S
C2385 C2381 1.429 . S
C2385 C2386 1.523 . S
C2386 C2370 1.368 . S
C2386 C2382 1.368 . S
C2386 C2385 1.523 . S
H2387 C2362 0.950 . S
H2388 C2364 0.950 . S
H2389 C2365 0.949 . S
H2390 C2367 0.950 . S
H2391 C2369 0.950 . S
C2392 C2393 1.349 . S
C2392 C2394 1.327 . S
C2392 H2417 0.950 . S
C2393 C2392 1.349 . S
C2393 C2409 1.349 . S
C2394 C2392 1.327 . S
C2394 C2413 1.429 . S
C2394 H2418 0.950 . S
C2395 C2412 1.574 . S
C2395 C2414 1.368 . S
C2395 H2419 0.949 . S
H2396 C2400 0.949 . S
C2397 C2398 1.349 . S
C2397 C2399 1.327 . S
C2397 H2420 0.950 . S
C2398 C2397 1.349 . S
C2398 C2410 1.349 . S
C2399 C2397 1.327 . S
C2399 C2415 1.429 . S
C2399 H2421 0.950 . S
C2400 H2396 0.949 . S
C2400 C2408 1.574 . S
C2400 C2416 1.368 . S
H2401 C2409 0.950 . S
H2402 C2407 0.950 . S
H2403 C2408 0.949 . S
H2404 C2410 0.950 . S
H2405 C2411 0.950 . S
H2406 C2412 0.949 . S
C2407 H2402 0.950 . S
C2407 C2409 1.327 . S
C2407 C2413 1.429 . S
C2408 C2400 1.574 . S
C2408 H2403 0.949 . S
C2408 C2414 1.368 . S
C2409 C2393 1.349 . S
C2409 H2401 0.950 . S
C2409 C2407 1.327 . S
C2410 C2398 1.349 . S
C2410 H2404 0.950 . S
C2410 C2411 1.327 . S
C2411 H2405 0.950 . S
C2411 C2410 1.327 . S
C2411 C2415 1.429 . S
C2412 C2395 1.574 . S
C2412 H2406 0.949 . S
C2412 C2416 1.368 . S
C2413 C2394 1.429 . S
C2413 C2407 1.429 . S
C2413 C2414 1.523 . S
C2414 C2395 1.368 . S
C2414 C2408 1.368 . S
C2414 C2413 1.523 . S
C2415 C2399 1.429 . S
C2415 C2411 1.429 . S
C2415 C2416 1.523 . S
C2416 C2400 1.368 . S
C2416 C2412 1.368 . S
C2416 C2415 1.523 . S
H2417 C2392 0.950 . S
H2418 C2394 0.950 . S
H2419 C2395 0.949 . S
H2420 C2397 0.950 . S
H2421 C2399 0.950 . S
C2422 C2423 1.349 . S
C2422 C2424 1.327 . S
C2422 H2447 0.950 . S
C2423 C2422 1.349 . S
C2423 C2439 1.349 . S
C2424 C2422 1.327 . S
C2424 C2443 1.429 . S
C2424 H2448 0.950 . S
C2425 C2442 1.574 . S
C2425 C2444 1.368 . S
C2425 H2449 0.949 . S
H2426 C2430 0.949 . S
C2427 C2428 1.349 . S
C2427 C2429 1.327 . S
C2427 H2450 0.950 . S
C2428 C2427 1.349 . S
C2428 C2440 1.349 . S
C2429 C2427 1.327 . S
C2429 C2445 1.429 . S
C2429 H2451 0.950 . S
C2430 H2426 0.949 . S
C2430 C2438 1.574 . S
C2430 C2446 1.368 . S
H2431 C2439 0.950 . S
H2432 C2437 0.950 . S
H2433 C2438 0.949 . S
H2434 C2440 0.950 . S
H2435 C2441 0.950 . S
H2436 C2442 0.949 . S
C2437 H2432 0.950 . S
C2437 C2439 1.327 . S
C2437 C2443 1.429 . S
C2438 C2430 1.574 . S
C2438 H2433 0.949 . S
C2438 C2444 1.368 . S
C2439 C2423 1.349 . S
C2439 H2431 0.950 . S
C2439 C2437 1.327 . S
C2440 C2428 1.349 . S
C2440 H2434 0.950 . S
C2440 C2441 1.327 . S
C2441 H2435 0.950 . S
C2441 C2440 1.327 . S
C2441 C2445 1.429 . S
C2442 C2425 1.574 . S
C2442 H2436 0.949 . S
C2442 C2446 1.368 . S
C2443 C2424 1.429 . S
C2443 C2437 1.429 . S
C2443 C2444 1.523 . S
C2444 C2425 1.368 . S
C2444 C2438 1.368 . S
C2444 C2443 1.523 . S
C2445 C2429 1.429 . S
C2445 C2441 1.429 . S
C2445 C2446 1.523 . S
C2446 C2430 1.368 . S
C2446 C2442 1.368 . S
C2446 C2445 1.523 . S
H2447 C2422 0.950 . S
H2448 C2424 0.950 . S
H2449 C2425 0.949 . S
H2450 C2427 0.950 . S
H2451 C2429 0.950 . S
C2452 C2453 1.349 . S
C2452 C2454 1.327 . S
C2452 H2477 0.950 . S
C2453 C2452 1.349 . S
C2453 C2469 1.349 1_455 S
C2454 C2452 1.327 . S
C2454 C2473 1.429 . S
C2454 H2478 0.950 . S
C2455 C2472 1.574 . S
C2455 C2474 1.368 . S
C2455 H2479 0.949 1_455 S
H2456 C2460 0.949 1_554 S
C2457 C2458 1.349 . S
C2457 C2459 1.327 1_554 S
C2457 H2480 0.950 . S
C2458 C2457 1.349 . S
C2458 C2470 1.349 . S
C2459 C2457 1.327 1_556 S
C2459 C2475 1.429 . S
C2459 H2481 0.934 1_455 S
C2460 H2456 0.949 1_556 S
C2460 C2468 1.574 . S
C2460 C2476 1.368 . S
H2461 C2469 0.950 . S
H2462 C2467 0.958 . S
H2463 C2468 0.949 . S
H2464 C2470 0.950 . S
H2465 C2471 0.950 . S
H2466 C2472 0.949 1_655 S
C2467 H2462 0.958 . S
C2467 C2469 1.325 . S
C2467 C2473 1.422 1_655 S
C2468 C2460 1.574 . S
C2468 H2463 0.949 . S
C2468 C2474 1.368 . S
C2469 C2453 1.349 1_655 S
C2469 H2461 0.950 . S
C2469 C2467 1.325 . S
C2470 C2458 1.349 . S
C2470 H2464 0.950 . S
C2470 C2471 1.327 . S
C2471 H2465 0.950 . S
C2471 C2470 1.327 . S
C2471 C2475 1.429 1_554 S
C2472 C2455 1.574 . S
C2472 H2466 0.949 1_455 S
C2472 C2476 1.368 . S
C2473 C2454 1.429 . S
C2473 C2467 1.422 1_455 S
C2473 C2474 1.523 . S
C2474 C2455 1.368 . S
C2474 C2468 1.368 . S
C2474 C2473 1.523 . S
C2475 C2459 1.429 . S
C2475 C2471 1.429 1_556 S
C2475 C2476 1.523 . S
C2476 C2460 1.368 . S
C2476 C2472 1.368 . S
C2476 C2475 1.523 . S
H2477 C2452 0.950 . S
H2478 C2454 0.950 . S
H2479 C2455 0.949 1_655 S
H2480 C2457 0.950 . S
H2481 C2459 0.934 1_655 S
C2482 C2483 1.349 . S
C2482 C2484 1.327 1_455 S
C2482 H2507 0.950 . S
C2483 C2482 1.349 . S
C2483 C2499 1.349 . S
C2484 C2482 1.327 1_655 S
C2484 C2503 1.429 . S
C2484 H2508 0.950 . S
C2485 C2502 1.574 . S
C2485 C2504 1.368 . S
C2485 H2509 0.949 . S
H2486 C2490 0.949 . S
C2487 C2488 1.349 . S
C2487 C2489 1.327 . S
C2487 H2510 0.950 . S
C2488 C2487 1.349 . S
C2488 C2500 1.349 . S
C2489 C2487 1.327 . S
C2489 C2505 1.429 . S
C2489 H2511 0.950 . S
C2490 H2486 0.949 . S
C2490 C2498 1.574 . S
C2490 C2506 1.368 . S
H2491 C2499 0.950 . S
H2492 C2497 0.950 . S
H2493 C2498 0.949 . S
H2494 C2500 0.950 . S
H2495 C2501 0.950 . S
H2496 C2502 0.949 . S
C2497 H2492 0.950 . S
C2497 C2499 1.327 1_655 S
C2497 C2503 1.429 . S
C2498 C2490 1.574 . S
C2498 H2493 0.949 . S
C2498 C2504 1.368 . S
C2499 C2483 1.349 . S
C2499 H2491 0.950 . S
C2499 C2497 1.327 1_455 S
C2500 C2488 1.349 . S
C2500 H2494 0.950 . S
C2500 C2501 1.327 . S
C2501 H2495 0.950 . S
C2501 C2500 1.327 . S
C2501 C2505 1.429 . S
C2502 C2485 1.574 . S
C2502 H2496 0.949 . S
C2502 C2506 1.368 . S
C2503 C2484 1.429 . S
C2503 C2497 1.429 . S
C2503 C2504 1.523 . S
C2504 C2485 1.368 . S
C2504 C2498 1.368 . S
C2504 C2503 1.523 . S
C2505 C2489 1.429 . S
C2505 C2501 1.429 . S
C2505 C2506 1.523 . S
C2506 C2490 1.368 . S
C2506 C2502 1.368 . S
C2506 C2505 1.523 . S
H2507 C2482 0.950 . S
H2508 C2484 0.950 . S
H2509 C2485 0.949 . S
H2510 C2487 0.950 . S
H2511 C2489 0.950 . S
C2512 C2513 1.349 . S
C2512 C2514 1.327 . S
C2512 H2537 0.950 . S
C2513 C2512 1.349 . S
C2513 C2529 1.349 . S
C2514 C2512 1.327 . S
C2514 C2533 1.429 . S
C2514 H2538 0.950 . S
C2515 C2532 1.574 . S
C2515 C2534 1.368 . S
C2515 H2539 0.949 . S
H2516 C2520 0.949 . S
C2517 C2518 1.349 . S
C2517 C2519 1.327 . S
C2517 H2540 0.950 . S
C2518 C2517 1.349 . S
C2518 C2530 1.349 . S
C2519 C2517 1.327 . S
C2519 C2535 1.429 . S
C2519 H2541 0.950 . S
C2520 H2516 0.949 . S
C2520 C2528 1.574 . S
C2520 C2536 1.368 . S
H2521 C2529 0.950 . S
H2522 C2527 0.950 . S
H2523 C2528 0.949 . S
H2524 C2530 0.950 . S
H2525 C2531 0.950 . S
H2526 C2532 0.949 . S
C2527 H2522 0.950 . S
C2527 C2529 1.327 . S
C2527 C2533 1.429 . S
C2528 C2520 1.574 . S
C2528 H2523 0.949 . S
C2528 C2534 1.368 . S
C2529 C2513 1.349 . S
C2529 H2521 0.950 . S
C2529 C2527 1.327 . S
C2530 C2518 1.349 . S
C2530 H2524 0.950 . S
C2530 C2531 1.327 . S
C2531 H2525 0.950 . S
C2531 C2530 1.327 . S
C2531 C2535 1.429 . S
C2532 C2515 1.574 . S
C2532 H2526 0.949 . S
C2532 C2536 1.368 . S
C2533 C2514 1.429 . S
C2533 C2527 1.429 . S
C2533 C2534 1.523 . S
C2534 C2515 1.368 . S
C2534 C2528 1.368 . S
C2534 C2533 1.523 . S
C2535 C2519 1.429 . S
C2535 C2531 1.429 . S
C2535 C2536 1.523 . S
C2536 C2520 1.368 . S
C2536 C2532 1.368 . S
C2536 C2535 1.523 . S
H2537 C2512 0.950 . S
H2538 C2514 0.950 . S
H2539 C2515 0.949 . S
H2540 C2517 0.950 . S
H2541 C2519 0.950 . S
C2542 C2543 1.349 . S
C2542 C2544 1.327 . S
C2542 H2567 0.950 . S
C2543 C2542 1.349 . S
C2543 C2559 1.349 . S
C2544 C2542 1.327 . S
C2544 C2563 1.429 . S
C2544 H2568 0.950 . S
C2545 C2562 1.574 . S
C2545 C2564 1.368 . S
C2545 H2569 0.949 . S
H2546 C2550 0.949 . S
C2547 C2548 1.349 . S
C2547 C2549 1.327 . S
C2547 H2570 0.950 . S
C2548 C2547 1.349 . S
C2548 C2560 1.349 . S
C2549 C2547 1.327 . S
C2549 C2565 1.429 . S
C2549 H2571 0.950 . S
C2550 H2546 0.949 . S
C2550 C2558 1.574 . S
C2550 C2566 1.368 . S
H2551 C2559 0.950 . S
H2552 C2557 0.950 . S
H2553 C2558 0.949 . S
H2554 C2560 0.950 . S
H2555 C2561 0.950 . S
H2556 C2562 0.949 . S
C2557 H2552 0.950 . S
C2557 C2559 1.327 . S
C2557 C2563 1.429 . S
C2558 C2550 1.574 . S
C2558 H2553 0.949 . S
C2558 C2564 1.368 . S
C2559 C2543 1.349 . S
C2559 H2551 0.950 . S
C2559 C2557 1.327 . S
C2560 C2548 1.349 . S
C2560 H2554 0.950 . S
C2560 C2561 1.327 . S
C2561 H2555 0.950 . S
C2561 C2560 1.327 . S
C2561 C2565 1.429 . S
C2562 C2545 1.574 . S
C2562 H2556 0.949 . S
C2562 C2566 1.368 . S
C2563 C2544 1.429 . S
C2563 C2557 1.429 . S
C2563 C2564 1.523 1_455 S
C2564 C2545 1.368 . S
C2564 C2558 1.368 . S
C2564 C2563 1.523 1_655 S
C2565 C2549 1.429 . S
C2565 C2561 1.429 . S
C2565 C2566 1.523 . S
C2566 C2550 1.368 . S
C2566 C2562 1.368 . S
C2566 C2565 1.523 . S
H2567 C2542 0.950 . S
H2568 C2544 0.950 . S
H2569 C2545 0.949 . S
H2570 C2547 0.950 . S
H2571 C2549 0.950 . S
C2572 C2573 1.349 1_455 S
C2572 C2574 1.327 . S
C2572 H2597 0.950 . S
C2573 C2572 1.349 1_655 S
C2573 C2589 1.349 . S
C2574 C2572 1.327 . S
C2574 C2593 1.429 1_455 S
C2574 H2598 0.950 . S
C2575 C2592 1.574 . S
C2575 C2594 1.368 1_655 S
C2575 H2599 0.949 . S
H2576 C2580 0.949 . S
C2577 C2578 1.349 . S
C2577 C2579 1.305 1_455 S
C2577 H2600 0.950 1_455 S
C2578 C2577 1.349 . S
C2578 C2590 1.349 . S
C2579 C2577 1.305 1_655 S
C2579 C2595 1.399 1_655 S
C2579 H2601 1.004 . S
C2580 H2576 0.949 . S
C2580 C2588 1.574 . S
C2580 C2596 1.368 . S
H2581 C2589 0.950 . S
H2582 C2587 0.950 . S
H2583 C2588 0.949 . S
H2584 C2590 0.950 . S
H2585 C2591 0.950 . S
H2586 C2592 0.949 . S
C2587 H2582 0.950 . S
C2587 C2589 1.327 . S
C2587 C2593 1.429 . S
C2588 C2580 1.574 . S
C2588 H2583 0.949 . S
C2588 C2594 1.368 . S
C2589 C2573 1.349 . S
C2589 H2581 0.950 . S
C2589 C2587 1.327 . S
C2590 C2578 1.349 . S
C2590 H2584 0.950 . S
C2590 C2591 1.327 . S
C2591 H2585 0.950 . S
C2591 C2590 1.327 . S
C2591 C2595 1.429 . S
C2592 C2575 1.574 . S
C2592 H2586 0.949 . S
C2592 C2596 1.368 1_655 S
C2593 C2574 1.429 1_655 S
C2593 C2587 1.429 . S
C2593 C2594 1.523 1_655 S
C2594 C2575 1.368 1_455 S
C2594 C2588 1.368 . S
C2594 C2593 1.523 1_455 S
C2595 C2579 1.399 1_455 S
C2595 C2591 1.429 . S
C2595 C2596 1.523 . S
C2596 C2580 1.368 . S
C2596 C2592 1.368 1_455 S
C2596 C2595 1.523 . S
H2597 C2572 0.950 . S
H2598 C2574 0.950 . S
H2599 C2575 0.949 . S
H2600 C2577 0.950 1_655 S
H2601 C2579 1.004 . S
C2602 C2603 1.349 . S
C2602 C2604 1.327 . S
C2602 H2627 0.950 . S
C2603 C2602 1.349 . S
C2603 C2619 1.349 . S
C2604 C2602 1.327 . S
C2604 C2623 1.429 . S
C2604 H2628 0.950 . S
C2605 C2622 1.574 . S
C2605 C2624 1.368 . S
C2605 H2629 0.949 . S
H2606 C2610 0.949 . S
C2607 C2608 1.349 . S
C2607 C2609 1.327 . S
C2607 H2630 0.950 . S
C2608 C2607 1.349 . S
C2608 C2620 1.349 . S
C2609 C2607 1.327 . S
C2609 C2625 1.429 . S
C2609 H2631 0.950 . S
C2610 H2606 0.949 . S
C2610 C2618 1.574 . S
C2610 C2626 1.368 . S
H2611 C2619 0.950 . S
H2612 C2617 0.950 . S
H2613 C2618 0.949 . S
H2614 C2620 0.950 . S
H2615 C2621 0.950 . S
H2616 C2622 0.949 . S
C2617 H2612 0.950 . S
C2617 C2619 1.327 . S
C2617 C2623 1.429 . S
C2618 C2610 1.574 . S
C2618 H2613 0.949 . S
C2618 C2624 1.368 . S
C2619 C2603 1.349 . S
C2619 H2611 0.950 . S
C2619 C2617 1.327 . S
C2620 C2608 1.349 . S
C2620 H2614 0.950 . S
C2620 C2621 1.327 . S
C2621 H2615 0.950 . S
C2621 C2620 1.327 . S
C2621 C2625 1.429 . S
C2622 C2605 1.574 . S
C2622 H2616 0.949 . S
C2622 C2626 1.368 . S
C2623 C2604 1.429 . S
C2623 C2617 1.429 . S
C2623 C2624 1.523 . S
C2624 C2605 1.368 . S
C2624 C2618 1.368 . S
C2624 C2623 1.523 . S
C2625 C2609 1.429 . S
C2625 C2621 1.429 . S
C2625 C2626 1.523 . S
C2626 C2610 1.368 . S
C2626 C2622 1.368 . S
C2626 C2625 1.523 . S
H2627 C2602 0.950 . S
H2628 C2604 0.950 . S
H2629 C2605 0.949 . S
H2630 C2607 0.950 . S
H2631 C2609 0.950 . S
C2632 C2633 1.349 . S
C2632 C2634 1.327 . S
C2632 H2657 0.950 . S
C2633 C2632 1.349 . S
C2633 C2649 1.349 . S
C2634 C2632 1.327 . S
C2634 C2653 1.429 . S
C2634 H2658 0.950 . S
C2635 C2652 1.574 . S
C2635 C2654 1.368 . S
C2635 H2659 0.949 . S
H2636 C2640 0.949 . S
C2637 C2638 1.349 . S
C2637 C2639 1.327 . S
C2637 H2660 0.950 . S
C2638 C2637 1.349 . S
C2638 C2650 1.349 . S
C2639 C2637 1.327 . S
C2639 C2655 1.429 . S
C2639 H2661 0.950 . S
C2640 H2636 0.949 . S
C2640 C2648 1.574 . S
C2640 C2656 1.368 . S
H2641 C2649 0.950 . S
H2642 C2647 0.950 . S
H2643 C2648 0.949 . S
H2644 C2650 0.950 . S
H2645 C2651 0.950 . S
H2646 C2652 0.949 . S
C2647 H2642 0.950 . S
C2647 C2649 1.327 . S
C2647 C2653 1.429 . S
C2648 C2640 1.574 . S
C2648 H2643 0.949 . S
C2648 C2654 1.368 . S
C2649 C2633 1.349 . S
C2649 H2641 0.950 . S
C2649 C2647 1.327 . S
C2650 C2638 1.349 . S
C2650 H2644 0.950 . S
C2650 C2651 1.327 . S
C2651 H2645 0.950 . S
C2651 C2650 1.327 . S
C2651 C2655 1.429 . S
C2652 C2635 1.574 . S
C2652 H2646 0.949 . S
C2652 C2656 1.368 . S
C2653 C2634 1.429 . S
C2653 C2647 1.429 . S
C2653 C2654 1.523 . S
C2654 C2635 1.368 . S
C2654 C2648 1.368 . S
C2654 C2653 1.523 . S
C2655 C2639 1.429 . S
C2655 C2651 1.429 . S
C2655 C2656 1.523 . S
C2656 C2640 1.368 . S
C2656 C2652 1.368 . S
C2656 C2655 1.523 . S
H2657 C2632 0.950 . S
H2658 C2634 0.950 . S
H2659 C2635 0.949 . S
H2660 C2637 0.950 . S
H2661 C2639 0.950 . S
C2662 C2663 1.349 . S
C2662 C2664 1.327 . S
C2662 H2687 0.950 . S
C2663 C2662 1.349 . S
C2663 C2679 1.349 . S
C2664 C2662 1.327 . S
C2664 C2683 1.429 . S
C2664 H2688 0.950 . S
C2665 C2682 1.574 . S
C2665 C2684 1.368 . S
C2665 H2689 0.949 . S
H2666 C2670 0.949 . S
C2667 C2668 1.349 . S
C2667 C2669 1.327 . S
C2667 H2690 0.950 . S
C2668 C2667 1.349 . S
C2668 C2680 1.349 . S
C2669 C2667 1.327 . S
C2669 C2685 1.429 . S
C2669 H2691 0.950 . S
C2670 H2666 0.949 . S
C2670 C2678 1.574 . S
C2670 C2686 1.368 . S
H2671 C2679 0.950 . S
H2672 C2677 0.950 . S
H2673 C2678 0.949 . S
H2674 C2680 0.950 . S
H2675 C2681 0.950 . S
H2676 C2682 0.949 . S
C2677 H2672 0.950 . S
C2677 C2679 1.327 . S
C2677 C2683 1.429 . S
C2678 C2670 1.574 . S
C2678 H2673 0.949 . S
C2678 C2684 1.368 . S
C2679 C2663 1.349 . S
C2679 H2671 0.950 . S
C2679 C2677 1.327 . S
C2680 C2668 1.349 . S
C2680 H2674 0.950 . S
C2680 C2681 1.327 . S
C2681 H2675 0.950 . S
C2681 C2680 1.327 . S
C2681 C2685 1.429 . S
C2682 C2665 1.574 . S
C2682 H2676 0.949 . S
C2682 C2686 1.368 . S
C2683 C2664 1.429 . S
C2683 C2677 1.429 . S
C2683 C2684 1.523 . S
C2684 C2665 1.368 . S
C2684 C2678 1.368 . S
C2684 C2683 1.523 . S
C2685 C2669 1.429 . S
C2685 C2681 1.429 . S
C2685 C2686 1.523 . S
C2686 C2670 1.368 . S
C2686 C2682 1.368 . S
C2686 C2685 1.523 . S
H2687 C2662 0.950 . S
H2688 C2664 0.950 . S
H2689 C2665 0.949 . S
H2690 C2667 0.950 . S
H2691 C2669 0.950 . S
C2692 C2693 1.349 . S
C2692 C2694 1.327 . S
C2692 H2717 0.950 . S
C2693 C2692 1.349 . S
C2693 C2709 1.349 . S
C2694 C2692 1.327 . S
C2694 C2713 1.429 . S
C2694 H2718 0.950 . S
C2695 C2712 1.574 . S
C2695 C2714 1.368 . S
C2695 H2719 0.949 . S
H2696 C2700 0.949 . S
C2697 C2698 1.349 . S
C2697 C2699 1.327 . S
C2697 H2720 0.950 . S
C2698 C2697 1.349 . S
C2698 C2710 1.349 . S
C2699 C2697 1.327 . S
C2699 C2715 1.429 . S
C2699 H2721 0.950 . S
C2700 H2696 0.949 . S
C2700 C2708 1.574 . S
C2700 C2716 1.368 . S
H2701 C2709 0.950 . S
H2702 C2707 0.950 . S
H2703 C2708 0.949 . S
H2704 C2710 0.950 . S
H2705 C2711 0.950 . S
H2706 C2712 0.949 . S
C2707 H2702 0.950 . S
C2707 C2709 1.327 . S
C2707 C2713 1.429 . S
C2708 C2700 1.574 . S
C2708 H2703 0.949 . S
C2708 C2714 1.368 . S
C2709 C2693 1.349 . S
C2709 H2701 0.950 . S
C2709 C2707 1.327 . S
C2710 C2698 1.349 . S
C2710 H2704 0.950 . S
C2710 C2711 1.327 . S
C2711 H2705 0.950 . S
C2711 C2710 1.327 . S
C2711 C2715 1.429 . S
C2712 C2695 1.574 . S
C2712 H2706 0.949 . S
C2712 C2716 1.368 . S
C2713 C2694 1.429 . S
C2713 C2707 1.429 . S
C2713 C2714 1.523 . S
C2714 C2695 1.368 . S
C2714 C2708 1.368 . S
C2714 C2713 1.523 . S
C2715 C2699 1.429 . S
C2715 C2711 1.429 . S
C2715 C2716 1.523 . S
C2716 C2700 1.368 . S
C2716 C2712 1.368 . S
C2716 C2715 1.523 . S
H2717 C2692 0.950 . S
H2718 C2694 0.950 . S
H2719 C2695 0.949 . S
H2720 C2697 0.950 . S
H2721 C2699 0.950 . S
C2722 C2723 1.349 . S
C2722 C2724 1.327 . S
C2722 H2747 0.950 . S
C2723 C2722 1.349 . S
C2723 C2739 1.349 . S
C2724 C2722 1.327 . S
C2724 C2743 1.429 . S
C2724 H2748 0.950 . S
C2725 C2742 1.574 . S
C2725 C2744 1.368 . S
C2725 H2749 0.949 . S
H2726 C2730 0.949 . S
C2727 C2728 1.349 . S
C2727 C2729 1.327 . S
C2727 H2750 0.950 . S
C2728 C2727 1.349 . S
C2728 C2740 1.349 . S
C2729 C2727 1.327 . S
C2729 C2745 1.429 . S
C2729 H2751 0.950 . S
C2730 H2726 0.949 . S
C2730 C2738 1.574 . S
C2730 C2746 1.368 . S
H2731 C2739 0.950 . S
H2732 C2737 0.950 . S
H2733 C2738 0.949 . S
H2734 C2740 0.950 . S
H2735 C2741 0.950 . S
H2736 C2742 0.949 . S
C2737 H2732 0.950 . S
C2737 C2739 1.327 . S
C2737 C2743 1.429 . S
C2738 C2730 1.574 . S
C2738 H2733 0.949 . S
C2738 C2744 1.368 . S
C2739 C2723 1.349 . S
C2739 H2731 0.950 . S
C2739 C2737 1.327 . S
C2740 C2728 1.349 . S
C2740 H2734 0.950 . S
C2740 C2741 1.327 . S
C2741 H2735 0.950 . S
C2741 C2740 1.327 . S
C2741 C2745 1.429 . S
C2742 C2725 1.574 . S
C2742 H2736 0.949 . S
C2742 C2746 1.368 . S
C2743 C2724 1.429 . S
C2743 C2737 1.429 . S
C2743 C2744 1.523 . S
C2744 C2725 1.368 . S
C2744 C2738 1.368 . S
C2744 C2743 1.523 . S
C2745 C2729 1.429 . S
C2745 C2741 1.429 . S
C2745 C2746 1.523 . S
C2746 C2730 1.368 . S
C2746 C2742 1.368 . S
C2746 C2745 1.523 . S
H2747 C2722 0.950 . S
H2748 C2724 0.950 . S
H2749 C2725 0.949 . S
H2750 C2727 0.950 . S
H2751 C2729 0.950 . S
C2752 C2753 1.349 . S
C2752 C2754 1.327 . S
C2752 H2777 0.950 . S
C2753 C2752 1.349 . S
C2753 C2769 1.349 . S
C2754 C2752 1.327 . S
C2754 C2773 1.429 . S
C2754 H2778 0.950 . S
C2755 C2772 1.574 . S
C2755 C2774 1.368 . S
C2755 H2779 0.949 . S
H2756 C2760 0.949 . S
C2757 C2758 1.349 . S
C2757 C2759 1.327 . S
C2757 H2780 0.950 . S
C2758 C2757 1.349 . S
C2758 C2770 1.349 . S
C2759 C2757 1.327 . S
C2759 C2775 1.429 . S
C2759 H2781 0.950 . S
C2760 H2756 0.949 . S
C2760 C2768 1.574 . S
C2760 C2776 1.368 . S
H2761 C2769 0.950 . S
H2762 C2767 0.950 . S
H2763 C2768 0.949 . S
H2764 C2770 0.950 . S
H2765 C2771 0.950 . S
H2766 C2772 0.949 . S
C2767 H2762 0.950 . S
C2767 C2769 1.327 . S
C2767 C2773 1.429 . S
C2768 C2760 1.574 . S
C2768 H2763 0.949 . S
C2768 C2774 1.368 . S
C2769 C2753 1.349 . S
C2769 H2761 0.950 . S
C2769 C2767 1.327 . S
C2770 C2758 1.349 . S
C2770 H2764 0.950 . S
C2770 C2771 1.327 . S
C2771 H2765 0.950 . S
C2771 C2770 1.327 . S
C2771 C2775 1.429 . S
C2772 C2755 1.574 . S
C2772 H2766 0.949 . S
C2772 C2776 1.368 . S
C2773 C2754 1.429 . S
C2773 C2767 1.429 . S
C2773 C2774 1.523 . S
C2774 C2755 1.368 . S
C2774 C2768 1.368 . S
C2774 C2773 1.523 . S
C2775 C2759 1.429 . S
C2775 C2771 1.429 . S
C2775 C2776 1.523 . S
C2776 C2760 1.368 . S
C2776 C2772 1.368 . S
C2776 C2775 1.523 . S
H2777 C2752 0.950 . S
H2778 C2754 0.950 . S
H2779 C2755 0.949 . S
H2780 C2757 0.950 . S
H2781 C2759 0.950 . S
C2782 C2783 1.349 . S
C2782 C2784 1.327 . S
C2782 H2807 0.950 . S
C2783 C2782 1.349 . S
C2783 C2799 1.349 . S
C2784 C2782 1.327 . S
C2784 C2803 1.429 . S
C2784 H2808 0.950 . S
C2785 C2802 1.574 . S
C2785 C2804 1.368 . S
C2785 H2809 0.949 . S
H2786 C2790 0.949 . S
C2787 C2788 1.349 . S
C2787 C2789 1.327 . S
C2787 H2810 0.950 . S
C2788 C2787 1.349 . S
C2788 C2800 1.349 . S
C2789 C2787 1.327 . S
C2789 C2805 1.429 . S
C2789 H2811 0.950 . S
C2790 H2786 0.949 . S
C2790 C2798 1.574 . S
C2790 C2806 1.368 . S
H2791 C2799 0.950 . S
H2792 C2797 0.950 . S
H2793 C2798 0.949 . S
H2794 C2800 0.950 . S
H2795 C2801 0.950 . S
H2796 C2802 0.949 . S
C2797 H2792 0.950 . S
C2797 C2799 1.327 . S
C2797 C2803 1.429 . S
C2798 C2790 1.574 . S
C2798 H2793 0.949 . S
C2798 C2804 1.368 . S
C2799 C2783 1.349 . S
C2799 H2791 0.950 . S
C2799 C2797 1.327 . S
C2800 C2788 1.349 . S
C2800 H2794 0.950 . S
C2800 C2801 1.327 . S
C2801 H2795 0.950 . S
C2801 C2800 1.327 . S
C2801 C2805 1.429 . S
C2802 C2785 1.574 . S
C2802 H2796 0.949 . S
C2802 C2806 1.368 . S
C2803 C2784 1.429 . S
C2803 C2797 1.429 . S
C2803 C2804 1.523 . S
C2804 C2785 1.368 . S
C2804 C2798 1.368 . S
C2804 C2803 1.523 . S
C2805 C2789 1.429 . S
C2805 C2801 1.429 . S
C2805 C2806 1.523 . S
C2806 C2790 1.368 . S
C2806 C2802 1.368 . S
C2806 C2805 1.523 . S
H2807 C2782 0.950 . S
H2808 C2784 0.950 . S
H2809 C2785 0.949 . S
H2810 C2787 0.950 . S
H2811 C2789 0.950 . S
C2812 C2813 1.349 . S
C2812 C2814 1.327 . S
C2812 H2837 0.950 . S
C2813 C2812 1.349 . S
C2813 C2829 1.349 . S
C2814 C2812 1.327 . S
C2814 C2833 1.429 . S
C2814 H2838 0.950 . S
C2815 C2832 1.574 . S
C2815 C2834 1.368 . S
C2815 H2839 0.949 . S
H2816 C2820 0.949 . S
C2817 C2818 1.349 . S
C2817 C2819 1.327 . S
C2817 H2840 0.950 . S
C2818 C2817 1.349 . S
C2818 C2830 1.349 . S
C2819 C2817 1.327 . S
C2819 C2835 1.429 . S
C2819 H2841 0.950 . S
C2820 H2816 0.949 . S
C2820 C2828 1.574 . S
C2820 C2836 1.368 . S
H2821 C2829 0.950 . S
H2822 C2827 0.950 . S
H2823 C2828 0.949 . S
H2824 C2830 0.950 . S
H2825 C2831 0.950 . S
H2826 C2832 0.949 . S
C2827 H2822 0.950 . S
C2827 C2829 1.327 . S
C2827 C2833 1.429 . S
C2828 C2820 1.574 . S
C2828 H2823 0.949 . S
C2828 C2834 1.368 . S
C2829 C2813 1.349 . S
C2829 H2821 0.950 . S
C2829 C2827 1.327 . S
C2830 C2818 1.349 . S
C2830 H2824 0.950 . S
C2830 C2831 1.327 . S
C2831 H2825 0.950 . S
C2831 C2830 1.327 . S
C2831 C2835 1.429 . S
C2832 C2815 1.574 . S
C2832 H2826 0.949 . S
C2832 C2836 1.368 . S
C2833 C2814 1.429 . S
C2833 C2827 1.429 . S
C2833 C2834 1.523 . S
C2834 C2815 1.368 . S
C2834 C2828 1.368 . S
C2834 C2833 1.523 . S
C2835 C2819 1.429 . S
C2835 C2831 1.429 . S
C2835 C2836 1.523 . S
C2836 C2820 1.368 . S
C2836 C2832 1.368 . S
C2836 C2835 1.523 . S
H2837 C2812 0.950 . S
H2838 C2814 0.950 . S
H2839 C2815 0.949 . S
H2840 C2817 0.950 . S
H2841 C2819 0.950 . S
C2842 C2843 1.349 . S
C2842 C2844 1.327 . S
C2842 H2867 0.950 . S
C2843 C2842 1.349 . S
C2843 C2859 1.349 . S
C2844 C2842 1.327 . S
C2844 C2863 1.429 . S
C2844 H2868 0.950 . S
C2845 C2862 1.574 . S
C2845 C2864 1.368 . S
C2845 H2869 0.949 . S
H2846 C2850 0.949 . S
C2847 C2848 1.349 . S
C2847 C2849 1.327 . S
C2847 H2870 0.950 . S
C2848 C2847 1.349 . S
C2848 C2860 1.349 . S
C2849 C2847 1.327 . S
C2849 C2865 1.429 . S
C2849 H2871 0.950 . S
C2850 H2846 0.949 . S
C2850 C2858 1.574 . S
C2850 C2866 1.368 . S
H2851 C2859 0.950 . S
H2852 C2857 0.950 . S
H2853 C2858 0.949 . S
H2854 C2860 0.950 . S
H2855 C2861 0.950 . S
H2856 C2862 0.949 . S
C2857 H2852 0.950 . S
C2857 C2859 1.327 . S
C2857 C2863 1.429 . S
C2858 C2850 1.574 . S
C2858 H2853 0.949 . S
C2858 C2864 1.368 . S
C2859 C2843 1.349 . S
C2859 H2851 0.950 . S
C2859 C2857 1.327 . S
C2860 C2848 1.349 . S
C2860 H2854 0.950 . S
C2860 C2861 1.327 . S
C2861 H2855 0.950 . S
C2861 C2860 1.327 . S
C2861 C2865 1.429 . S
C2862 C2845 1.574 . S
C2862 H2856 0.949 . S
C2862 C2866 1.368 . S
C2863 C2844 1.429 . S
C2863 C2857 1.429 . S
C2863 C2864 1.523 . S
C2864 C2845 1.368 . S
C2864 C2858 1.368 . S
C2864 C2863 1.523 . S
C2865 C2849 1.429 . S
C2865 C2861 1.429 . S
C2865 C2866 1.523 . S
C2866 C2850 1.368 . S
C2866 C2862 1.368 . S
C2866 C2865 1.523 . S
H2867 C2842 0.950 . S
H2868 C2844 0.950 . S
H2869 C2845 0.949 . S
H2870 C2847 0.950 . S
H2871 C2849 0.950 . S
C2872 C2873 1.349 . S
C2872 C2874 1.327 . S
C2872 H2897 0.950 . S
C2873 C2872 1.349 . S
C2873 C2889 1.349 . S
C2874 C2872 1.327 . S
C2874 C2893 1.429 . S
C2874 H2898 0.950 . S
C2875 C2892 1.574 . S
C2875 C2894 1.368 . S
C2875 H2899 0.949 . S
H2876 C2880 0.949 . S
C2877 C2878 1.349 . S
C2877 C2879 1.327 . S
C2877 H2900 0.950 . S
C2878 C2877 1.349 . S
C2878 C2890 1.349 . S
C2879 C2877 1.327 . S
C2879 C2895 1.429 . S
C2879 H2901 0.950 . S
C2880 H2876 0.949 . S
C2880 C2888 1.574 . S
C2880 C2896 1.368 . S
H2881 C2889 0.950 . S
H2882 C2887 0.950 . S
H2883 C2888 0.949 . S
H2884 C2890 0.950 . S
H2885 C2891 0.950 . S
H2886 C2892 0.949 . S
C2887 H2882 0.950 . S
C2887 C2889 1.327 . S
C2887 C2893 1.429 . S
C2888 C2880 1.574 . S
C2888 H2883 0.949 . S
C2888 C2894 1.368 . S
C2889 C2873 1.349 . S
C2889 H2881 0.950 . S
C2889 C2887 1.327 . S
C2890 C2878 1.349 . S
C2890 H2884 0.950 . S
C2890 C2891 1.327 . S
C2891 H2885 0.950 . S
C2891 C2890 1.327 . S
C2891 C2895 1.429 . S
C2892 C2875 1.574 . S
C2892 H2886 0.949 . S
C2892 C2896 1.368 . S
C2893 C2874 1.429 . S
C2893 C2887 1.429 . S
C2893 C2894 1.523 . S
C2894 C2875 1.368 . S
C2894 C2888 1.368 . S
C2894 C2893 1.523 . S
C2895 C2879 1.429 . S
C2895 C2891 1.429 . S
C2895 C2896 1.523 . S
C2896 C2880 1.368 . S
C2896 C2892 1.368 . S
C2896 C2895 1.523 . S
H2897 C2872 0.950 . S
H2898 C2874 0.950 . S
H2899 C2875 0.949 . S
H2900 C2877 0.950 . S
H2901 C2879 0.950 . S
C2902 C2903 1.349 . S
C2902 C2904 1.327 . S
C2902 H2927 0.950 . S
C2903 C2902 1.349 . S
C2903 C2919 1.349 . S
C2904 C2902 1.327 . S
C2904 C2923 1.429 . S
C2904 H2928 0.950 . S
C2905 C2922 1.574 . S
C2905 C2924 1.368 . S
C2905 H2929 0.949 . S
H2906 C2910 0.949 . S
C2907 C2908 1.349 . S
C2907 C2909 1.327 . S
C2907 H2930 0.950 . S
C2908 C2907 1.349 . S
C2908 C2920 1.349 . S
C2909 C2907 1.327 . S
C2909 C2925 1.429 . S
C2909 H2931 0.950 . S
C2910 H2906 0.949 . S
C2910 C2918 1.574 . S
C2910 C2926 1.368 . S
H2911 C2919 0.950 . S
H2912 C2917 0.950 . S
H2913 C2918 0.949 . S
H2914 C2920 0.950 . S
H2915 C2921 0.950 . S
H2916 C2922 0.949 . S
C2917 H2912 0.950 . S
C2917 C2919 1.327 . S
C2917 C2923 1.429 . S
C2918 C2910 1.574 . S
C2918 H2913 0.949 . S
C2918 C2924 1.368 . S
C2919 C2903 1.349 . S
C2919 H2911 0.950 . S
C2919 C2917 1.327 . S
C2920 C2908 1.349 . S
C2920 H2914 0.950 . S
C2920 C2921 1.327 . S
C2921 H2915 0.950 . S
C2921 C2920 1.327 . S
C2921 C2925 1.429 . S
C2922 C2905 1.574 . S
C2922 H2916 0.949 . S
C2922 C2926 1.368 . S
C2923 C2904 1.429 . S
C2923 C2917 1.429 . S
C2923 C2924 1.523 . S
C2924 C2905 1.368 . S
C2924 C2918 1.368 . S
C2924 C2923 1.523 . S
C2925 C2909 1.429 . S
C2925 C2921 1.429 . S
C2925 C2926 1.523 . S
C2926 C2910 1.368 . S
C2926 C2922 1.368 . S
C2926 C2925 1.523 . S
H2927 C2902 0.950 . S
H2928 C2904 0.950 . S
H2929 C2905 0.949 . S
H2930 C2907 0.950 . S
H2931 C2909 0.950 . S
C2932 C2933 1.349 . S
C2932 C2934 1.327 . S
C2932 H2957 0.950 . S
C2933 C2932 1.349 . S
C2933 C2949 1.349 . S
C2934 C2932 1.327 . S
C2934 C2953 1.429 . S
C2934 H2958 0.950 . S
C2935 C2952 1.574 . S
C2935 C2954 1.368 . S
C2935 H2959 0.949 . S
H2936 C2940 0.949 . S
C2937 C2938 1.349 . S
C2937 C2939 1.327 . S
C2937 H2960 0.950 . S
C2938 C2937 1.349 . S
C2938 C2950 1.349 . S
C2939 C2937 1.327 . S
C2939 C2955 1.429 . S
C2939 H2961 0.950 . S
C2940 H2936 0.949 . S
C2940 C2948 1.574 . S
C2940 C2956 1.368 . S
H2941 C2949 0.950 . S
H2942 C2947 0.950 . S
H2943 C2948 0.949 . S
H2944 C2950 0.950 . S
H2945 C2951 0.950 . S
H2946 C2952 0.949 . S
C2947 H2942 0.950 . S
C2947 C2949 1.327 . S
C2947 C2953 1.429 . S
C2948 C2940 1.574 . S
C2948 H2943 0.949 . S
C2948 C2954 1.368 . S
C2949 C2933 1.349 . S
C2949 H2941 0.950 . S
C2949 C2947 1.327 . S
C2950 C2938 1.349 . S
C2950 H2944 0.950 . S
C2950 C2951 1.327 . S
C2951 H2945 0.950 . S
C2951 C2950 1.327 . S
C2951 C2955 1.429 . S
C2952 C2935 1.574 . S
C2952 H2946 0.949 . S
C2952 C2956 1.368 . S
C2953 C2934 1.429 . S
C2953 C2947 1.429 . S
C2953 C2954 1.523 . S
C2954 C2935 1.368 . S
C2954 C2948 1.368 . S
C2954 C2953 1.523 . S
C2955 C2939 1.429 . S
C2955 C2951 1.429 . S
C2955 C2956 1.523 . S
C2956 C2940 1.368 . S
C2956 C2952 1.368 . S
C2956 C2955 1.523 . S
H2957 C2932 0.950 . S
H2958 C2934 0.950 . S
H2959 C2935 0.949 . S
H2960 C2937 0.950 . S
H2961 C2939 0.950 . S
C2962 C2963 1.349 . S
C2962 C2964 1.327 . S
C2962 H2987 0.950 . S
C2963 C2962 1.349 . S
C2963 C2979 1.349 . S
C2964 C2962 1.327 . S
C2964 C2983 1.429 . S
C2964 H2988 0.950 . S
C2965 C2982 1.574 . S
C2965 C2984 1.368 . S
C2965 H2989 0.949 . S
H2966 C2970 0.949 . S
C2967 C2968 1.349 . S
C2967 C2969 1.327 1_545 S
C2967 H2990 0.950 1_545 S
C2968 C2967 1.349 . S
C2968 C2980 1.349 . S
C2969 C2967 1.327 1_565 S
C2969 C2985 1.429 1_565 S
C2969 H2991 0.950 . S
C2970 H2966 0.949 . S
C2970 C2978 1.573 . S
C2970 C2986 1.368 1_545 S
H2971 C2979 0.950 . S
H2972 C2977 0.950 . S
H2973 C2978 0.948 . S
H2974 C2980 0.950 . S
H2975 C2981 0.950 . S
H2976 C2982 0.949 . S
C2977 H2972 0.950 . S
C2977 C2979 1.327 . S
C2977 C2983 1.429 . S
C2978 C2970 1.573 . S
C2978 H2973 0.948 . S
C2978 C2984 1.370 1_545 S
C2979 C2963 1.349 . S
C2979 H2971 0.950 . S
C2979 C2977 1.327 . S
C2980 C2968 1.349 . S
C2980 H2974 0.950 . S
C2980 C2981 1.327 . S
C2981 H2975 0.950 . S
C2981 C2980 1.327 . S
C2981 C2985 1.429 . S
C2982 C2965 1.574 . S
C2982 H2976 0.949 . S
C2982 C2986 1.368 . S
C2983 C2964 1.429 . S
C2983 C2977 1.429 . S
C2983 C2984 1.523 . S
C2984 C2965 1.368 . S
C2984 C2978 1.370 1_565 S
C2984 C2983 1.523 . S
C2985 C2969 1.429 1_545 S
C2985 C2981 1.429 . S
C2985 C2986 1.523 1_545 S
C2986 C2970 1.368 1_565 S
C2986 C2982 1.368 . S
C2986 C2985 1.523 1_565 S
H2987 C2962 0.950 . S
H2988 C2964 0.950 . S
H2989 C2965 0.949 . S
H2990 C2967 0.950 1_565 S
H2991 C2969 0.950 . S
C2992 C2993 1.349 . S
C2992 C2994 1.327 . S
C2992 H3017 0.950 . S
C2993 C2992 1.349 . S
C2993 C3009 1.349 . S
C2994 C2992 1.327 . S
C2994 C3013 1.429 . S
C2994 H3018 0.950 . S
C2995 C3012 1.574 . S
C2995 C3014 1.368 . S
C2995 H3019 0.949 . S
H2996 C3000 0.949 . S
C2997 C2998 1.349 . S
C2997 C2999 1.327 . S
C2997 H3020 0.950 . S
C2998 C2997 1.349 . S
C2998 C3010 1.349 . S
C2999 C2997 1.327 . S
C2999 C3015 1.429 . S
C2999 H3021 0.950 . S
C3000 H2996 0.949 . S
C3000 C3008 1.574 . S
C3000 C3016 1.368 . S
H3001 C3009 0.950 . S
H3002 C3007 0.950 . S
H3003 C3008 0.949 . S
H3004 C3010 0.950 . S
H3005 C3011 0.950 . S
H3006 C3012 0.949 . S
C3007 H3002 0.950 . S
C3007 C3009 1.327 . S
C3007 C3013 1.429 . S
C3008 C3000 1.574 . S
C3008 H3003 0.949 . S
C3008 C3014 1.368 . S
C3009 C2993 1.349 . S
C3009 H3001 0.950 . S
C3009 C3007 1.327 . S
C3010 C2998 1.349 . S
C3010 H3004 0.950 . S
C3010 C3011 1.327 . S
C3011 H3005 0.950 . S
C3011 C3010 1.327 . S
C3011 C3015 1.429 . S
C3012 C2995 1.574 . S
C3012 H3006 0.949 . S
C3012 C3016 1.368 . S
C3013 C2994 1.429 . S
C3013 C3007 1.429 . S
C3013 C3014 1.523 . S
C3014 C2995 1.368 . S
C3014 C3008 1.368 . S
C3014 C3013 1.523 . S
C3015 C2999 1.429 . S
C3015 C3011 1.429 . S
C3015 C3016 1.523 . S
C3016 C3000 1.368 . S
C3016 C3012 1.368 . S
C3016 C3015 1.523 . S
H3017 C2992 0.950 . S
H3018 C2994 0.950 . S
H3019 C2995 0.949 . S
H3020 C2997 0.950 . S
H3021 C2999 0.950 . S
C3022 C3023 1.349 . S
C3022 C3024 1.327 . S
C3022 H3047 0.950 . S
C3023 C3022 1.349 . S
C3023 C3039 1.349 . S
C3024 C3022 1.327 . S
C3024 C3043 1.429 . S
C3024 H3048 0.950 . S
C3025 C3042 1.574 . S
C3025 C3044 1.368 . S
C3025 H3049 0.949 . S
H3026 C3030 0.949 . S
C3027 C3028 1.349 . S
C3027 C3029 1.327 . S
C3027 H3050 0.950 . S
C3028 C3027 1.349 . S
C3028 C3040 1.349 . S
C3029 C3027 1.327 . S
C3029 C3045 1.429 . S
C3029 H3051 0.950 . S
C3030 H3026 0.949 . S
C3030 C3038 1.574 . S
C3030 C3046 1.368 . S
H3031 C3039 0.950 1_556 S
H3032 C3037 0.963 . S
H3033 C3038 0.949 . S
H3034 C3040 0.950 . S
H3035 C3041 0.950 . S
H3036 C3042 0.949 . S
C3037 H3032 0.963 . S
C3037 C3039 1.327 . S
C3037 C3043 1.429 . S
C3038 C3030 1.574 . S
C3038 H3033 0.949 . S
C3038 C3044 1.368 . S
C3039 C3023 1.349 . S
C3039 H3031 0.950 1_554 S
C3039 C3037 1.327 . S
C3040 C3028 1.349 . S
C3040 H3034 0.950 . S
C3040 C3041 1.327 . S
C3041 H3035 0.950 . S
C3041 C3040 1.327 . S
C3041 C3045 1.429 . S
C3042 C3025 1.574 . S
C3042 H3036 0.949 . S
C3042 C3046 1.368 . S
C3043 C3024 1.429 . S
C3043 C3037 1.429 . S
C3043 C3044 1.523 . S
C3044 C3025 1.368 . S
C3044 C3038 1.368 . S
C3044 C3043 1.523 . S
C3045 C3029 1.429 . S
C3045 C3041 1.429 . S
C3045 C3046 1.523 . S
C3046 C3030 1.368 . S
C3046 C3042 1.368 . S
C3046 C3045 1.523 . S
H3047 C3022 0.950 . S
H3048 C3024 0.950 . S
H3049 C3025 0.949 . S
H3050 C3027 0.950 . S
H3051 C3029 0.950 . S
C3052 C3053 1.349 . S
C3052 C3054 1.327 . S
C3052 H3077 0.950 . S
C3053 C3052 1.349 . S
C3053 C3069 1.349 . S
C3054 C3052 1.327 . S
C3054 C3073 1.429 . S
C3054 H3078 0.950 . S
C3055 C3072 1.574 . S
C3055 C3074 1.368 . S
C3055 H3079 0.949 . S
H3056 C3060 0.949 . S
C3057 C3058 1.349 . S
C3057 C3059 1.327 . S
C3057 H3080 0.950 . S
C3058 C3057 1.349 . S
C3058 C3070 1.349 . S
C3059 C3057 1.327 . S
C3059 C3075 1.429 . S
C3059 H3081 0.950 . S
C3060 H3056 0.949 . S
C3060 C3068 1.574 . S
C3060 C3076 1.368 . S
H3061 C3069 0.950 . S
H3062 C3067 0.950 . S
H3063 C3068 0.949 . S
H3064 C3070 0.950 . S
H3065 C3071 0.950 . S
H3066 C3072 0.949 . S
C3067 H3062 0.950 . S
C3067 C3069 1.327 . S
C3067 C3073 1.429 . S
C3068 C3060 1.574 . S
C3068 H3063 0.949 . S
C3068 C3074 1.368 . S
C3069 C3053 1.349 . S
C3069 H3061 0.950 . S
C3069 C3067 1.327 . S
C3070 C3058 1.349 . S
C3070 H3064 0.950 . S
C3070 C3071 1.327 . S
C3071 H3065 0.950 . S
C3071 C3070 1.327 . S
C3071 C3075 1.429 . S
C3072 C3055 1.574 . S
C3072 H3066 0.949 . S
C3072 C3076 1.368 . S
C3073 C3054 1.429 . S
C3073 C3067 1.429 . S
C3073 C3074 1.523 . S
C3074 C3055 1.368 . S
C3074 C3068 1.368 . S
C3074 C3073 1.523 . S
C3075 C3059 1.429 . S
C3075 C3071 1.429 . S
C3075 C3076 1.523 . S
C3076 C3060 1.368 . S
C3076 C3072 1.368 . S
C3076 C3075 1.523 . S
H3077 C3052 0.950 . S
H3078 C3054 0.950 . S
H3079 C3055 0.949 . S
H3080 C3057 0.950 . S
H3081 C3059 0.950 . S
C3082 C3083 1.349 . S
C3082 C3084 1.327 . S
C3082 H3107 0.950 . S
C3083 C3082 1.349 . S
C3083 C3099 1.349 . S
C3084 C3082 1.327 . S
C3084 C3103 1.429 . S
C3084 H3108 0.950 . S
C3085 C3102 1.574 . S
C3085 C3104 1.368 . S
C3085 H3109 0.949 . S
H3086 C3090 0.949 . S
C3087 C3088 1.349 . S
C3087 C3089 1.327 . S
C3087 H3110 0.950 . S
C3088 C3087 1.349 . S
C3088 C3100 1.349 . S
C3089 C3087 1.327 . S
C3089 C3105 1.429 . S
C3089 H3111 0.950 . S
C3090 H3086 0.949 . S
C3090 C3098 1.574 . S
C3090 C3106 1.368 . S
H3091 C3099 0.950 . S
H3092 C3097 0.950 . S
H3093 C3098 0.949 . S
H3094 C3100 0.950 . S
H3095 C3101 0.950 . S
H3096 C3102 0.949 . S
C3097 H3092 0.950 . S
C3097 C3099 1.327 . S
C3097 C3103 1.429 . S
C3098 C3090 1.574 . S
C3098 H3093 0.949 . S
C3098 C3104 1.368 . S
C3099 C3083 1.349 . S
C3099 H3091 0.950 . S
C3099 C3097 1.327 . S
C3100 C3088 1.349 . S
C3100 H3094 0.950 . S
C3100 C3101 1.327 . S
C3101 H3095 0.950 . S
C3101 C3100 1.327 . S
C3101 C3105 1.429 . S
C3102 C3085 1.574 . S
C3102 H3096 0.949 . S
C3102 C3106 1.368 . S
C3103 C3084 1.429 . S
C3103 C3097 1.429 . S
C3103 C3104 1.523 . S
C3104 C3085 1.368 . S
C3104 C3098 1.368 . S
C3104 C3103 1.523 . S
C3105 C3089 1.429 . S
C3105 C3101 1.429 . S
C3105 C3106 1.523 . S
C3106 C3090 1.368 . S
C3106 C3102 1.368 . S
C3106 C3105 1.523 . S
H3107 C3082 0.950 . S
H3108 C3084 0.950 . S
H3109 C3085 0.949 . S
H3110 C3087 0.950 . S
H3111 C3089 0.950 . S
C3112 C3113 1.349 . S
C3112 C3114 1.327 . S
C3112 H3137 0.950 . S
C3113 C3112 1.349 . S
C3113 C3129 1.349 . S
C3114 C3112 1.327 . S
C3114 C3133 1.429 . S
C3114 H3138 0.950 . S
C3115 C3132 1.574 . S
C3115 C3134 1.368 . S
C3115 H3139 0.949 . S
H3116 C3120 0.949 . S
C3117 C3118 1.349 . S
C3117 C3119 1.327 . S
C3117 H3140 0.950 . S
C3118 C3117 1.349 . S
C3118 C3130 1.349 . S
C3119 C3117 1.327 . S
C3119 C3135 1.429 . S
C3119 H3141 0.950 . S
C3120 H3116 0.949 . S
C3120 C3128 1.574 . S
C3120 C3136 1.368 . S
H3121 C3129 0.950 . S
H3122 C3127 0.950 . S
H3123 C3128 0.949 . S
H3124 C3130 0.950 . S
H3125 C3131 0.950 . S
H3126 C3132 0.949 . S
C3127 H3122 0.950 . S
C3127 C3129 1.327 . S
C3127 C3133 1.429 . S
C3128 C3120 1.574 . S
C3128 H3123 0.949 . S
C3128 C3134 1.368 . S
C3129 C3113 1.349 . S
C3129 H3121 0.950 . S
C3129 C3127 1.327 . S
C3130 C3118 1.349 . S
C3130 H3124 0.950 . S
C3130 C3131 1.327 . S
C3131 H3125 0.950 . S
C3131 C3130 1.327 . S
C3131 C3135 1.429 . S
C3132 C3115 1.574 . S
C3132 H3126 0.949 . S
C3132 C3136 1.368 . S
C3133 C3114 1.429 . S
C3133 C3127 1.429 . S
C3133 C3134 1.523 . S
C3134 C3115 1.368 . S
C3134 C3128 1.368 . S
C3134 C3133 1.523 . S
C3135 C3119 1.429 . S
C3135 C3131 1.429 . S
C3135 C3136 1.523 . S
C3136 C3120 1.368 . S
C3136 C3132 1.368 . S
C3136 C3135 1.523 . S
H3137 C3112 0.950 . S
H3138 C3114 0.950 . S
H3139 C3115 0.949 . S
H3140 C3117 0.950 . S
H3141 C3119 0.950 . S
C3142 C3143 1.349 . S
C3142 C3144 1.327 . S
C3142 H3167 0.950 . S
C3143 C3142 1.349 . S
C3143 C3159 1.349 . S
C3144 C3142 1.327 . S
C3144 C3163 1.429 . S
C3144 H3168 0.950 . S
C3145 C3162 1.574 . S
C3145 C3164 1.368 . S
C3145 H3169 0.949 . S
H3146 C3150 0.949 . S
C3147 C3148 1.349 . S
C3147 C3149 1.327 . S
C3147 H3170 0.950 . S
C3148 C3147 1.349 . S
C3148 C3160 1.349 . S
C3149 C3147 1.327 . S
C3149 C3165 1.429 . S
C3149 H3171 0.950 . S
C3150 H3146 0.949 . S
C3150 C3158 1.574 . S
C3150 C3166 1.368 . S
H3151 C3159 0.950 . S
H3152 C3157 0.950 . S
H3153 C3158 0.949 . S
H3154 C3160 0.950 . S
H3155 C3161 0.950 . S
H3156 C3162 0.949 . S
C3157 H3152 0.950 . S
C3157 C3159 1.327 . S
C3157 C3163 1.429 . S
C3158 C3150 1.574 . S
C3158 H3153 0.949 . S
C3158 C3164 1.368 . S
C3159 C3143 1.349 . S
C3159 H3151 0.950 . S
C3159 C3157 1.327 . S
C3160 C3148 1.349 . S
C3160 H3154 0.950 . S
C3160 C3161 1.327 . S
C3161 H3155 0.950 . S
C3161 C3160 1.327 . S
C3161 C3165 1.429 . S
C3162 C3145 1.574 . S
C3162 H3156 0.949 . S
C3162 C3166 1.368 . S
C3163 C3144 1.429 . S
C3163 C3157 1.429 . S
C3163 C3164 1.523 . S
C3164 C3145 1.368 . S
C3164 C3158 1.368 . S
C3164 C3163 1.523 . S
C3165 C3149 1.429 . S
C3165 C3161 1.429 . S
C3165 C3166 1.523 . S
C3166 C3150 1.368 . S
C3166 C3162 1.368 . S
C3166 C3165 1.523 . S
H3167 C3142 0.950 . S
H3168 C3144 0.950 . S
H3169 C3145 0.949 . S
H3170 C3147 0.950 . S
H3171 C3149 0.950 . S
C3172 C3173 1.349 . S
C3172 C3174 1.327 . S
C3172 H3197 0.950 . S
C3173 C3172 1.349 . S
C3173 C3189 1.349 . S
C3174 C3172 1.327 . S
C3174 C3193 1.429 . S
C3174 H3198 0.950 . S
C3175 C3192 1.574 . S
C3175 C3194 1.368 . S
C3175 H3199 0.949 . S
H3176 C3180 0.949 . S
C3177 C3178 1.349 . S
C3177 C3179 1.327 . S
C3177 H3200 0.950 . S
C3178 C3177 1.349 . S
C3178 C3190 1.349 . S
C3179 C3177 1.327 . S
C3179 C3195 1.429 . S
C3179 H3201 0.950 . S
C3180 H3176 0.949 . S
C3180 C3188 1.574 . S
C3180 C3196 1.368 . S
H3181 C3189 0.950 . S
H3182 C3187 0.950 . S
H3183 C3188 0.949 . S
H3184 C3190 0.950 . S
H3185 C3191 0.950 . S
H3186 C3192 0.949 . S
C3187 H3182 0.950 . S
C3187 C3189 1.327 . S
C3187 C3193 1.429 . S
C3188 C3180 1.574 . S
C3188 H3183 0.949 . S
C3188 C3194 1.368 . S
C3189 C3173 1.349 . S
C3189 H3181 0.950 . S
C3189 C3187 1.327 . S
C3190 C3178 1.349 . S
C3190 H3184 0.950 . S
C3190 C3191 1.327 . S
C3191 H3185 0.950 . S
C3191 C3190 1.327 . S
C3191 C3195 1.429 . S
C3192 C3175 1.574 . S
C3192 H3186 0.949 . S
C3192 C3196 1.368 . S
C3193 C3174 1.429 . S
C3193 C3187 1.429 . S
C3193 C3194 1.523 . S
C3194 C3175 1.368 . S
C3194 C3188 1.368 . S
C3194 C3193 1.523 . S
C3195 C3179 1.429 . S
C3195 C3191 1.429 . S
C3195 C3196 1.523 . S
C3196 C3180 1.368 . S
C3196 C3192 1.368 . S
C3196 C3195 1.523 . S
H3197 C3172 0.950 . S
H3198 C3174 0.950 . S
H3199 C3175 0.949 . S
H3200 C3177 0.950 . S
H3201 C3179 0.950 . S
C3202 C3203 1.349 . S
C3202 C3204 1.327 . S
C3202 H3227 0.950 . S
C3203 C3202 1.349 . S
C3203 C3219 1.349 . S
C3204 C3202 1.327 . S
C3204 C3223 1.429 . S
C3204 H3228 0.950 . S
C3205 C3222 1.574 . S
C3205 C3224 1.368 . S
C3205 H3229 0.949 . S
H3206 C3210 0.949 . S
C3207 C3208 1.349 . S
C3207 C3209 1.327 . S
C3207 H3230 0.950 . S
C3208 C3207 1.349 . S
C3208 C3220 1.349 . S
C3209 C3207 1.327 . S
C3209 C3225 1.429 . S
C3209 H3231 0.950 . S
C3210 H3206 0.949 . S
C3210 C3218 1.574 . S
C3210 C3226 1.368 . S
H3211 C3219 0.950 . S
H3212 C3217 0.950 . S
H3213 C3218 0.949 . S
H3214 C3220 0.950 . S
H3215 C3221 0.950 . S
H3216 C3222 0.949 . S
C3217 H3212 0.950 . S
C3217 C3219 1.327 . S
C3217 C3223 1.429 . S
C3218 C3210 1.574 . S
C3218 H3213 0.949 . S
C3218 C3224 1.368 . S
C3219 C3203 1.349 . S
C3219 H3211 0.950 . S
C3219 C3217 1.327 . S
C3220 C3208 1.349 . S
C3220 H3214 0.950 . S
C3220 C3221 1.327 . S
C3221 H3215 0.950 . S
C3221 C3220 1.327 . S
C3221 C3225 1.429 . S
C3222 C3205 1.574 . S
C3222 H3216 0.949 . S
C3222 C3226 1.368 . S
C3223 C3204 1.429 . S
C3223 C3217 1.429 . S
C3223 C3224 1.523 . S
C3224 C3205 1.368 . S
C3224 C3218 1.368 . S
C3224 C3223 1.523 . S
C3225 C3209 1.429 . S
C3225 C3221 1.429 . S
C3225 C3226 1.523 . S
C3226 C3210 1.368 . S
C3226 C3222 1.368 . S
C3226 C3225 1.523 . S
H3227 C3202 0.950 . S
H3228 C3204 0.950 . S
H3229 C3205 0.949 . S
H3230 C3207 0.950 . S
H3231 C3209 0.950 . S
C3232 C3233 1.349 . S
C3232 C3234 1.327 . S
C3232 H3257 0.950 . S
C3233 C3232 1.349 . S
C3233 C3249 1.349 . S
C3234 C3232 1.327 . S
C3234 C3253 1.429 . S
C3234 H3258 0.950 . S
C3235 C3252 1.574 . S
C3235 C3254 1.368 . S
C3235 H3259 0.949 . S
H3236 C3240 0.949 . S
C3237 C3238 1.349 . S
C3237 C3239 1.327 . S
C3237 H3260 0.950 . S
C3238 C3237 1.349 . S
C3238 C3250 1.349 . S
C3239 C3237 1.327 . S
C3239 C3255 1.429 . S
C3239 H3261 0.950 . S
C3240 H3236 0.949 . S
C3240 C3248 1.574 . S
C3240 C3256 1.368 . S
H3241 C3249 0.950 . S
H3242 C3247 0.950 . S
H3243 C3248 0.949 . S
H3244 C3250 0.950 . S
H3245 C3251 0.950 . S
H3246 C3252 0.949 . S
C3247 H3242 0.950 . S
C3247 C3249 1.327 . S
C3247 C3253 1.429 . S
C3248 C3240 1.574 . S
C3248 H3243 0.949 . S
C3248 C3254 1.368 . S
C3249 C3233 1.349 . S
C3249 H3241 0.950 . S
C3249 C3247 1.327 . S
C3250 C3238 1.349 . S
C3250 H3244 0.950 . S
C3250 C3251 1.327 . S
C3251 H3245 0.950 . S
C3251 C3250 1.327 . S
C3251 C3255 1.429 . S
C3252 C3235 1.574 . S
C3252 H3246 0.949 . S
C3252 C3256 1.368 . S
C3253 C3234 1.429 . S
C3253 C3247 1.429 . S
C3253 C3254 1.523 . S
C3254 C3235 1.368 . S
C3254 C3248 1.368 . S
C3254 C3253 1.523 . S
C3255 C3239 1.429 . S
C3255 C3251 1.429 . S
C3255 C3256 1.523 . S
C3256 C3240 1.368 . S
C3256 C3252 1.368 . S
C3256 C3255 1.523 . S
H3257 C3232 0.950 . S
H3258 C3234 0.950 . S
H3259 C3235 0.949 . S
H3260 C3237 0.950 . S
H3261 C3239 0.950 . S
C3262 C3263 1.349 . S
C3262 C3264 1.327 . S
C3262 H3287 0.950 . S
C3263 C3262 1.349 . S
C3263 C3279 1.349 . S
C3264 C3262 1.327 . S
C3264 C3283 1.429 . S
C3264 H3288 0.950 . S
C3265 C3282 1.574 . S
C3265 C3284 1.368 . S
C3265 H3289 0.949 . S
H3266 C3270 0.949 . S
C3267 C3268 1.349 . S
C3267 C3269 1.327 . S
C3267 H3290 0.950 . S
C3268 C3267 1.349 . S
C3268 C3280 1.349 . S
C3269 C3267 1.327 . S
C3269 C3285 1.429 . S
C3269 H3291 0.950 . S
C3270 H3266 0.949 . S
C3270 C3278 1.574 . S
C3270 C3286 1.368 . S
H3271 C3279 0.950 . S
H3272 C3277 0.950 . S
H3273 C3278 0.949 . S
H3274 C3280 0.950 . S
H3275 C3281 0.950 . S
H3276 C3282 0.949 . S
C3277 H3272 0.950 . S
C3277 C3279 1.327 . S
C3277 C3283 1.429 . S
C3278 C3270 1.574 . S
C3278 H3273 0.949 . S
C3278 C3284 1.368 . S
C3279 C3263 1.349 . S
C3279 H3271 0.950 . S
C3279 C3277 1.327 . S
C3280 C3268 1.349 . S
C3280 H3274 0.950 . S
C3280 C3281 1.327 . S
C3281 H3275 0.950 . S
C3281 C3280 1.327 . S
C3281 C3285 1.429 . S
C3282 C3265 1.574 . S
C3282 H3276 0.949 . S
C3282 C3286 1.368 . S
C3283 C3264 1.429 . S
C3283 C3277 1.429 . S
C3283 C3284 1.523 . S
C3284 C3265 1.368 . S
C3284 C3278 1.368 . S
C3284 C3283 1.523 . S
C3285 C3269 1.429 . S
C3285 C3281 1.429 . S
C3285 C3286 1.523 . S
C3286 C3270 1.368 . S
C3286 C3282 1.368 . S
C3286 C3285 1.523 . S
H3287 C3262 0.950 . S
H3288 C3264 0.950 . S
H3289 C3265 0.949 . S
H3290 C3267 0.950 . S
H3291 C3269 0.950 . S
C3292 C3293 1.349 . S
C3292 C3294 1.327 . S
C3292 H3317 0.950 . S
C3293 C3292 1.349 . S
C3293 C3309 1.349 . S
C3294 C3292 1.327 . S
C3294 C3313 1.429 . S
C3294 H3318 0.950 . S
C3295 C3312 1.574 . S
C3295 C3314 1.368 . S
C3295 H3319 0.949 . S
H3296 C3300 0.949 . S
C3297 C3298 1.349 . S
C3297 C3299 1.327 . S
C3297 H3320 0.950 . S
C3298 C3297 1.349 . S
C3298 C3310 1.349 . S
C3299 C3297 1.327 . S
C3299 C3315 1.429 . S
C3299 H3321 0.950 . S
C3300 H3296 0.949 . S
C3300 C3308 1.574 . S
C3300 C3316 1.368 . S
H3301 C3309 0.950 . S
H3302 C3307 0.950 . S
H3303 C3308 0.949 . S
H3304 C3310 0.950 . S
H3305 C3311 0.950 . S
H3306 C3312 0.949 . S
C3307 H3302 0.950 . S
C3307 C3309 1.327 . S
C3307 C3313 1.429 . S
C3308 C3300 1.574 . S
C3308 H3303 0.949 . S
C3308 C3314 1.368 . S
C3309 C3293 1.349 . S
C3309 H3301 0.950 . S
C3309 C3307 1.327 . S
C3310 C3298 1.349 . S
C3310 H3304 0.950 . S
C3310 C3311 1.327 . S
C3311 H3305 0.950 . S
C3311 C3310 1.327 . S
C3311 C3315 1.429 . S
C3312 C3295 1.574 . S
C3312 H3306 0.949 . S
C3312 C3316 1.368 . S
C3313 C3294 1.429 . S
C3313 C3307 1.429 . S
C3313 C3314 1.523 . S
C3314 C3295 1.368 . S
C3314 C3308 1.368 . S
C3314 C3313 1.523 . S
C3315 C3299 1.429 . S
C3315 C3311 1.429 . S
C3315 C3316 1.523 . S
C3316 C3300 1.368 . S
C3316 C3312 1.368 . S
C3316 C3315 1.523 . S
H3317 C3292 0.950 . S
H3318 C3294 0.950 . S
H3319 C3295 0.949 . S
H3320 C3297 0.950 . S
H3321 C3299 0.950 . S
C3322 C3323 1.349 . S
C3322 C3324 1.327 . S
C3322 H3347 0.950 . S
C3323 C3322 1.349 . S
C3323 C3339 1.349 . S
C3324 C3322 1.327 . S
C3324 C3343 1.429 . S
C3324 H3348 0.950 . S
C3325 C3342 1.574 . S
C3325 C3344 1.368 . S
C3325 H3349 0.949 . S
H3326 C3330 0.949 . S
C3327 C3328 1.349 . S
C3327 C3329 1.327 . S
C3327 H3350 0.950 . S
C3328 C3327 1.349 . S
C3328 C3340 1.349 . S
C3329 C3327 1.327 . S
C3329 C3345 1.429 . S
C3329 H3351 0.950 . S
C3330 H3326 0.949 . S
C3330 C3338 1.574 . S
C3330 C3346 1.368 . S
H3331 C3339 0.950 . S
H3332 C3337 0.950 . S
H3333 C3338 0.949 . S
H3334 C3340 0.950 . S
H3335 C3341 0.950 . S
H3336 C3342 0.949 . S
C3337 H3332 0.950 . S
C3337 C3339 1.327 . S
C3337 C3343 1.429 . S
C3338 C3330 1.574 . S
C3338 H3333 0.949 . S
C3338 C3344 1.368 . S
C3339 C3323 1.349 . S
C3339 H3331 0.950 . S
C3339 C3337 1.327 . S
C3340 C3328 1.349 . S
C3340 H3334 0.950 . S
C3340 C3341 1.327 . S
C3341 H3335 0.950 . S
C3341 C3340 1.327 . S
C3341 C3345 1.429 . S
C3342 C3325 1.574 . S
C3342 H3336 0.949 . S
C3342 C3346 1.368 . S
C3343 C3324 1.429 . S
C3343 C3337 1.429 . S
C3343 C3344 1.523 . S
C3344 C3325 1.368 . S
C3344 C3338 1.368 . S
C3344 C3343 1.523 . S
C3345 C3329 1.429 . S
C3345 C3341 1.429 . S
C3345 C3346 1.523 . S
C3346 C3330 1.368 . S
C3346 C3342 1.368 . S
C3346 C3345 1.523 . S
H3347 C3322 0.950 . S
H3348 C3324 0.950 . S
H3349 C3325 0.949 . S
H3350 C3327 0.950 . S
H3351 C3329 0.950 . S
C3352 C3353 1.349 . S
C3352 C3354 1.327 . S
C3352 H3377 0.950 . S
C3353 C3352 1.349 . S
C3353 C3369 1.349 . S
C3354 C3352 1.327 . S
C3354 C3373 1.429 . S
C3354 H3378 0.950 . S
C3355 C3372 1.574 . S
C3355 C3374 1.368 . S
C3355 H3379 0.949 . S
H3356 C3360 0.949 . S
C3357 C3358 1.349 . S
C3357 C3359 1.327 . S
C3357 H3380 0.950 . S
C3358 C3357 1.349 . S
C3358 C3370 1.349 . S
C3359 C3357 1.327 . S
C3359 C3375 1.429 . S
C3359 H3381 0.950 . S
C3360 H3356 0.949 . S
C3360 C3368 1.574 . S
C3360 C3376 1.368 . S
H3361 C3369 0.950 . S
H3362 C3367 0.950 . S
H3363 C3368 0.949 . S
H3364 C3370 0.950 . S
H3365 C3371 0.950 . S
H3366 C3372 0.949 . S
C3367 H3362 0.950 . S
C3367 C3369 1.327 . S
C3367 C3373 1.429 . S
C3368 C3360 1.574 . S
C3368 H3363 0.949 . S
C3368 C3374 1.368 . S
C3369 C3353 1.349 . S
C3369 H3361 0.950 . S
C3369 C3367 1.327 . S
C3370 C3358 1.349 . S
C3370 H3364 0.950 . S
C3370 C3371 1.327 . S
C3371 H3365 0.950 . S
C3371 C3370 1.327 . S
C3371 C3375 1.429 . S
C3372 C3355 1.574 . S
C3372 H3366 0.949 . S
C3372 C3376 1.368 . S
C3373 C3354 1.429 . S
C3373 C3367 1.429 . S
C3373 C3374 1.523 . S
C3374 C3355 1.368 . S
C3374 C3368 1.368 . S
C3374 C3373 1.523 . S
C3375 C3359 1.429 . S
C3375 C3371 1.429 . S
C3375 C3376 1.523 . S
C3376 C3360 1.368 . S
C3376 C3372 1.368 . S
C3376 C3375 1.523 . S
H3377 C3352 0.950 . S
H3378 C3354 0.950 . S
H3379 C3355 0.949 . S
H3380 C3357 0.950 . S
H3381 C3359 0.950 . S
C3382 C3383 1.349 . S
C3382 C3384 1.327 . S
C3382 H3407 0.950 . S
C3383 C3382 1.349 . S
C3383 C3399 1.349 . S
C3384 C3382 1.327 . S
C3384 C3403 1.429 . S
C3384 H3408 0.950 . S
C3385 C3402 1.574 . S
C3385 C3404 1.368 . S
C3385 H3409 0.949 . S
H3386 C3390 0.949 . S
C3387 C3388 1.349 . S
C3387 C3389 1.327 . S
C3387 H3410 0.950 . S
C3388 C3387 1.349 . S
C3388 C3400 1.349 . S
C3389 C3387 1.327 . S
C3389 C3405 1.429 . S
C3389 H3411 0.950 . S
C3390 H3386 0.949 . S
C3390 C3398 1.574 . S
C3390 C3406 1.368 . S
H3391 C3399 0.950 . S
H3392 C3397 0.950 . S
H3393 C3398 0.949 . S
H3394 C3400 0.950 . S
H3395 C3401 0.950 . S
H3396 C3402 0.949 . S
C3397 H3392 0.950 . S
C3397 C3399 1.327 . S
C3397 C3403 1.429 . S
C3398 C3390 1.574 . S
C3398 H3393 0.949 . S
C3398 C3404 1.368 . S
C3399 C3383 1.349 . S
C3399 H3391 0.950 . S
C3399 C3397 1.327 . S
C3400 C3388 1.349 . S
C3400 H3394 0.950 . S
C3400 C3401 1.327 . S
C3401 H3395 0.950 . S
C3401 C3400 1.327 . S
C3401 C3405 1.429 . S
C3402 C3385 1.574 . S
C3402 H3396 0.949 . S
C3402 C3406 1.368 . S
C3403 C3384 1.429 . S
C3403 C3397 1.429 . S
C3403 C3404 1.523 . S
C3404 C3385 1.368 . S
C3404 C3398 1.368 . S
C3404 C3403 1.523 . S
C3405 C3389 1.429 . S
C3405 C3401 1.429 . S
C3405 C3406 1.523 . S
C3406 C3390 1.368 . S
C3406 C3402 1.368 . S
C3406 C3405 1.523 . S
H3407 C3382 0.950 . S
H3408 C3384 0.950 . S
H3409 C3385 0.949 . S
H3410 C3387 0.950 . S
H3411 C3389 0.950 . S
C3412 C3413 1.349 . S
C3412 C3414 1.327 . S
C3412 H3437 0.950 . S
C3413 C3412 1.349 . S
C3413 C3429 1.349 . S
C3414 C3412 1.327 . S
C3414 C3433 1.429 . S
C3414 H3438 0.950 . S
C3415 C3432 1.574 . S
C3415 C3434 1.368 . S
C3415 H3439 0.949 . S
H3416 C3420 0.949 . S
C3417 C3418 1.368 . S
C3417 C3419 1.327 1_455 S
C3417 H3440 0.950 . S
C3418 C3417 1.368 . S
C3418 C3430 1.307 1_455 S
C3419 C3417 1.327 1_655 S
C3419 C3435 1.429 . S
C3419 H3441 0.950 . S
C3420 H3416 0.949 . S
C3420 C3428 1.574 . S
C3420 C3436 1.368 . S
H3421 C3429 0.950 . S
H3422 C3427 0.950 . S
H3423 C3428 0.949 . S
H3424 C3430 0.950 . S
H3425 C3431 0.950 . S
H3426 C3432 0.949 . S
C3427 H3422 0.950 . S
C3427 C3429 1.327 . S
C3427 C3433 1.429 . S
C3428 C3420 1.574 . S
C3428 H3423 0.949 . S
C3428 C3434 1.368 . S
C3429 C3413 1.349 . S
C3429 H3421 0.950 . S
C3429 C3427 1.327 . S
C3430 C3418 1.307 1_655 S
C3430 H3424 0.950 . S
C3430 C3431 1.327 . S
C3431 H3425 0.950 . S
C3431 C3430 1.327 . S
C3431 C3435 1.429 . S
C3432 C3415 1.574 . S
C3432 H3426 0.949 . S
C3432 C3436 1.368 . S
C3433 C3414 1.429 . S
C3433 C3427 1.429 . S
C3433 C3434 1.523 . S
C3434 C3415 1.368 . S
C3434 C3428 1.368 . S
C3434 C3433 1.523 . S
C3435 C3419 1.429 . S
C3435 C3431 1.429 . S
C3435 C3436 1.523 . S
C3436 C3420 1.368 . S
C3436 C3432 1.368 . S
C3436 C3435 1.523 . S
H3437 C3412 0.950 . S
H3438 C3414 0.950 . S
H3439 C3415 0.949 . S
H3440 C3417 0.950 . S
H3441 C3419 0.950 . S
C3442 C3443 1.349 . S
C3442 C3444 1.327 . S
C3442 H3467 0.950 . S
C3443 C3442 1.349 . S
C3443 C3459 1.349 . S
C3444 C3442 1.327 . S
C3444 C3463 1.429 . S
C3444 H3468 0.950 . S
C3445 C3462 1.574 . S
C3445 C3464 1.368 . S
C3445 H3469 0.949 . S
H3446 C3450 0.949 . S
C3447 C3448 1.349 . S
C3447 C3449 1.327 . S
C3447 H3470 0.950 . S
C3448 C3447 1.349 . S
C3448 C3460 1.349 . S
C3449 C3447 1.327 . S
C3449 C3465 1.429 . S
C3449 H3471 0.950 . S
C3450 H3446 0.949 . S
C3450 C3458 1.574 . S
C3450 C3466 1.368 . S
H3451 C3459 0.950 . S
H3452 C3457 0.950 . S
H3453 C3458 0.949 . S
H3454 C3460 0.950 . S
H3455 C3461 0.950 . S
H3456 C3462 0.949 . S
C3457 H3452 0.950 . S
C3457 C3459 1.327 . S
C3457 C3463 1.429 . S
C3458 C3450 1.574 . S
C3458 H3453 0.949 . S
C3458 C3464 1.368 . S
C3459 C3443 1.349 . S
C3459 H3451 0.950 . S
C3459 C3457 1.327 . S
C3460 C3448 1.349 . S
C3460 H3454 0.950 . S
C3460 C3461 1.327 . S
C3461 H3455 0.950 . S
C3461 C3460 1.327 . S
C3461 C3465 1.429 . S
C3462 C3445 1.574 . S
C3462 H3456 0.949 . S
C3462 C3466 1.368 . S
C3463 C3444 1.429 . S
C3463 C3457 1.429 . S
C3463 C3464 1.523 . S
C3464 C3445 1.368 . S
C3464 C3458 1.368 . S
C3464 C3463 1.523 . S
C3465 C3449 1.429 . S
C3465 C3461 1.429 . S
C3465 C3466 1.523 . S
C3466 C3450 1.368 . S
C3466 C3462 1.368 . S
C3466 C3465 1.523 . S
H3467 C3442 0.950 . S
H3468 C3444 0.950 . S
H3469 C3445 0.949 . S
H3470 C3447 0.950 . S
H3471 C3449 0.950 . S
C3472 C3473 1.349 . S
C3472 C3474 1.327 . S
C3472 H3497 0.950 . S
C3473 C3472 1.349 . S
C3473 C3489 1.349 . S
C3474 C3472 1.327 . S
C3474 C3493 1.429 . S
C3474 H3498 0.950 . S
C3475 C3492 1.574 . S
C3475 C3494 1.368 . S
C3475 H3499 0.949 . S
H3476 C3480 0.949 . S
C3477 C3478 1.349 . S
C3477 C3479 1.327 . S
C3477 H3500 0.950 . S
C3478 C3477 1.349 . S
C3478 C3490 1.349 . S
C3479 C3477 1.327 . S
C3479 C3495 1.429 . S
C3479 H3501 0.950 . S
C3480 H3476 0.949 . S
C3480 C3488 1.574 . S
C3480 C3496 1.368 . S
H3481 C3489 0.950 . S
H3482 C3487 0.950 . S
H3483 C3488 0.949 . S
H3484 C3490 0.950 . S
H3485 C3491 0.950 . S
H3486 C3492 0.949 . S
C3487 H3482 0.950 . S
C3487 C3489 1.327 . S
C3487 C3493 1.429 . S
C3488 C3480 1.574 . S
C3488 H3483 0.949 . S
C3488 C3494 1.368 . S
C3489 C3473 1.349 . S
C3489 H3481 0.950 . S
C3489 C3487 1.327 . S
C3490 C3478 1.349 . S
C3490 H3484 0.950 . S
C3490 C3491 1.327 . S
C3491 H3485 0.950 . S
C3491 C3490 1.327 . S
C3491 C3495 1.429 . S
C3492 C3475 1.574 . S
C3492 H3486 0.949 . S
C3492 C3496 1.368 . S
C3493 C3474 1.429 . S
C3493 C3487 1.429 . S
C3493 C3494 1.523 . S
C3494 C3475 1.368 . S
C3494 C3488 1.368 . S
C3494 C3493 1.523 . S
C3495 C3479 1.429 . S
C3495 C3491 1.429 . S
C3495 C3496 1.523 . S
C3496 C3480 1.368 . S
C3496 C3492 1.368 . S
C3496 C3495 1.523 . S
H3497 C3472 0.950 . S
H3498 C3474 0.950 . S
H3499 C3475 0.949 . S
H3500 C3477 0.950 . S
H3501 C3479 0.950 . S
C3502 C3503 1.349 . S
C3502 C3504 1.327 . S
C3502 H3527 0.950 . S
C3503 C3502 1.349 . S
C3503 C3519 1.349 . S
C3504 C3502 1.327 . S
C3504 C3523 1.429 . S
C3504 H3528 0.950 . S
C3505 C3522 1.574 . S
C3505 C3524 1.368 . S
C3505 H3529 0.949 . S
H3506 C3510 0.949 . S
C3507 C3508 1.349 . S
C3507 C3509 1.327 . S
C3507 H3530 0.950 . S
C3508 C3507 1.349 . S
C3508 C3520 1.349 . S
C3509 C3507 1.327 . S
C3509 C3525 1.429 . S
C3509 H3531 0.950 . S
C3510 H3506 0.949 . S
C3510 C3518 1.574 . S
C3510 C3526 1.368 . S
H3511 C3519 0.950 . S
H3512 C3517 0.950 . S
H3513 C3518 0.949 . S
H3514 C3520 0.950 . S
H3515 C3521 0.950 . S
H3516 C3522 0.949 . S
C3517 H3512 0.950 . S
C3517 C3519 1.327 . S
C3517 C3523 1.429 . S
C3518 C3510 1.574 . S
C3518 H3513 0.949 . S
C3518 C3524 1.368 . S
C3519 C3503 1.349 . S
C3519 H3511 0.950 . S
C3519 C3517 1.327 . S
C3520 C3508 1.349 . S
C3520 H3514 0.950 . S
C3520 C3521 1.327 . S
C3521 H3515 0.950 . S
C3521 C3520 1.327 . S
C3521 C3525 1.429 . S
C3522 C3505 1.574 . S
C3522 H3516 0.949 . S
C3522 C3526 1.368 . S
C3523 C3504 1.429 . S
C3523 C3517 1.429 . S
C3523 C3524 1.523 . S
C3524 C3505 1.368 . S
C3524 C3518 1.368 . S
C3524 C3523 1.523 . S
C3525 C3509 1.429 . S
C3525 C3521 1.429 . S
C3525 C3526 1.523 . S
C3526 C3510 1.368 . S
C3526 C3522 1.368 . S
C3526 C3525 1.523 . S
H3527 C3502 0.950 . S
H3528 C3504 0.950 . S
H3529 C3505 0.949 . S
H3530 C3507 0.950 . S
H3531 C3509 0.950 . S
C3532 C3533 1.349 . S
C3532 C3534 1.327 . S
C3532 H3557 0.950 . S
C3533 C3532 1.349 . S
C3533 C3549 1.349 . S
C3534 C3532 1.327 . S
C3534 C3553 1.429 . S
C3534 H3558 0.950 . S
C3535 C3552 1.574 . S
C3535 C3554 1.368 . S
C3535 H3559 0.949 . S
H3536 C3540 0.949 . S
C3537 C3538 1.349 . S
C3537 C3539 1.327 . S
C3537 H3560 0.950 . S
C3538 C3537 1.349 . S
C3538 C3550 1.349 . S
C3539 C3537 1.327 . S
C3539 C3555 1.429 . S
C3539 H3561 0.950 . S
C3540 H3536 0.949 . S
C3540 C3548 1.574 . S
C3540 C3556 1.368 . S
H3541 C3549 0.950 . S
H3542 C3547 0.950 . S
H3543 C3548 0.949 . S
H3544 C3550 0.950 . S
H3545 C3551 0.950 . S
H3546 C3552 0.949 . S
C3547 H3542 0.950 . S
C3547 C3549 1.327 . S
C3547 C3553 1.429 . S
C3548 C3540 1.574 . S
C3548 H3543 0.949 . S
C3548 C3554 1.368 . S
C3549 C3533 1.349 . S
C3549 H3541 0.950 . S
C3549 C3547 1.327 . S
C3550 C3538 1.349 . S
C3550 H3544 0.950 . S
C3550 C3551 1.327 . S
C3551 H3545 0.950 . S
C3551 C3550 1.327 . S
C3551 C3555 1.429 . S
C3552 C3535 1.574 . S
C3552 H3546 0.949 . S
C3552 C3556 1.368 . S
C3553 C3534 1.429 . S
C3553 C3547 1.429 . S
C3553 C3554 1.523 . S
C3554 C3535 1.368 . S
C3554 C3548 1.368 . S
C3554 C3553 1.523 . S
C3555 C3539 1.429 . S
C3555 C3551 1.429 . S
C3555 C3556 1.523 . S
C3556 C3540 1.368 . S
C3556 C3552 1.368 . S
C3556 C3555 1.523 . S
H3557 C3532 0.950 . S
H3558 C3534 0.950 . S
H3559 C3535 0.949 . S
H3560 C3537 0.950 . S
H3561 C3539 0.950 . S
C3562 C3563 1.349 . S
C3562 C3564 1.327 . S
C3562 H3587 0.950 . S
C3563 C3562 1.349 . S
C3563 C3579 1.349 . S
C3564 C3562 1.327 . S
C3564 C3583 1.429 . S
C3564 H3588 0.950 . S
C3565 C3582 1.574 . S
C3565 C3584 1.368 . S
C3565 H3589 0.949 . S
H3566 C3570 0.949 . S
C3567 C3568 1.349 . S
C3567 C3569 1.327 . S
C3567 H3590 0.950 . S
C3568 C3567 1.349 . S
C3568 C3580 1.349 . S
C3569 C3567 1.327 . S
C3569 C3585 1.429 . S
C3569 H3591 0.950 . S
C3570 H3566 0.949 . S
C3570 C3578 1.574 . S
C3570 C3586 1.368 . S
H3571 C3579 0.950 . S
H3572 C3577 0.950 . S
H3573 C3578 0.949 . S
H3574 C3580 0.950 . S
H3575 C3581 0.950 . S
H3576 C3582 0.949 . S
C3577 H3572 0.950 . S
C3577 C3579 1.327 . S
C3577 C3583 1.429 . S
C3578 C3570 1.574 . S
C3578 H3573 0.949 . S
C3578 C3584 1.368 . S
C3579 C3563 1.349 . S
C3579 H3571 0.950 . S
C3579 C3577 1.327 . S
C3580 C3568 1.349 . S
C3580 H3574 0.950 . S
C3580 C3581 1.327 . S
C3581 H3575 0.950 . S
C3581 C3580 1.327 . S
C3581 C3585 1.429 . S
C3582 C3565 1.574 . S
C3582 H3576 0.949 . S
C3582 C3586 1.368 . S
C3583 C3564 1.429 . S
C3583 C3577 1.429 . S
C3583 C3584 1.523 . S
C3584 C3565 1.368 . S
C3584 C3578 1.368 . S
C3584 C3583 1.523 . S
C3585 C3569 1.429 . S
C3585 C3581 1.429 . S
C3585 C3586 1.523 . S
C3586 C3570 1.368 . S
C3586 C3582 1.368 . S
C3586 C3585 1.523 . S
H3587 C3562 0.950 . S
H3588 C3564 0.950 . S
H3589 C3565 0.949 . S
H3590 C3567 0.950 . S
H3591 C3569 0.950 . S
C3592 C3593 1.349 . S
C3592 C3594 1.327 . S
C3592 H3617 0.950 . S
C3593 C3592 1.349 . S
C3593 C3609 1.349 . S
C3594 C3592 1.327 . S
C3594 C3613 1.429 . S
C3594 H3618 0.950 . S
C3595 C3612 1.574 . S
C3595 C3614 1.368 . S
C3595 H3619 0.949 . S
H3596 C3600 0.949 . S
C3597 C3598 1.349 . S
C3597 C3599 1.327 . S
C3597 H3620 0.950 . S
C3598 C3597 1.349 . S
C3598 C3610 1.349 . S
C3599 C3597 1.327 . S
C3599 C3615 1.429 . S
C3599 H3621 0.950 . S
C3600 H3596 0.949 . S
C3600 C3608 1.574 . S
C3600 C3616 1.368 . S
H3601 C3609 0.950 . S
H3602 C3607 0.950 . S
H3603 C3608 0.949 . S
H3604 C3610 0.950 . S
H3605 C3611 0.950 . S
H3606 C3612 0.949 . S
C3607 H3602 0.950 . S
C3607 C3609 1.327 . S
C3607 C3613 1.429 . S
C3608 C3600 1.574 . S
C3608 H3603 0.949 . S
C3608 C3614 1.368 . S
C3609 C3593 1.349 . S
C3609 H3601 0.950 . S
C3609 C3607 1.327 . S
C3610 C3598 1.349 . S
C3610 H3604 0.950 . S
C3610 C3611 1.327 . S
C3611 H3605 0.950 . S
C3611 C3610 1.327 . S
C3611 C3615 1.429 . S
C3612 C3595 1.574 . S
C3612 H3606 0.949 . S
C3612 C3616 1.368 . S
C3613 C3594 1.429 . S
C3613 C3607 1.429 . S
C3613 C3614 1.523 . S
C3614 C3595 1.368 . S
C3614 C3608 1.368 . S
C3614 C3613 1.523 . S
C3615 C3599 1.429 . S
C3615 C3611 1.429 . S
C3615 C3616 1.523 . S
C3616 C3600 1.368 . S
C3616 C3612 1.368 . S
C3616 C3615 1.523 . S
H3617 C3592 0.950 . S
H3618 C3594 0.950 . S
H3619 C3595 0.949 . S
H3620 C3597 0.950 . S
H3621 C3599 0.950 . S
C3622 C3623 1.349 . S
C3622 C3624 1.327 . S
C3622 H3647 0.950 . S
C3623 C3622 1.349 . S
C3623 C3639 1.349 . S
C3624 C3622 1.327 . S
C3624 C3643 1.429 . S
C3624 H3648 0.950 . S
C3625 C3642 1.574 . S
C3625 C3644 1.368 . S
C3625 H3649 0.949 . S
H3626 C3630 0.949 . S
C3627 C3628 1.349 . S
C3627 C3629 1.327 . S
C3627 H3650 0.950 . S
C3628 C3627 1.349 . S
C3628 C3640 1.349 . S
C3629 C3627 1.327 . S
C3629 C3645 1.429 . S
C3629 H3651 0.950 . S
C3630 H3626 0.949 . S
C3630 C3638 1.574 . S
C3630 C3646 1.368 . S
H3631 C3639 0.950 . S
H3632 C3637 0.950 . S
H3633 C3638 0.949 . S
H3634 C3640 0.950 . S
H3635 C3641 0.950 . S
H3636 C3642 0.949 . S
C3637 H3632 0.950 . S
C3637 C3639 1.327 . S
C3637 C3643 1.429 . S
C3638 C3630 1.574 . S
C3638 H3633 0.949 . S
C3638 C3644 1.368 . S
C3639 C3623 1.349 . S
C3639 H3631 0.950 . S
C3639 C3637 1.327 . S
C3640 C3628 1.349 . S
C3640 H3634 0.950 . S
C3640 C3641 1.327 . S
C3641 H3635 0.950 . S
C3641 C3640 1.327 . S
C3641 C3645 1.429 . S
C3642 C3625 1.574 . S
C3642 H3636 0.949 . S
C3642 C3646 1.368 . S
C3643 C3624 1.429 . S
C3643 C3637 1.429 . S
C3643 C3644 1.523 . S
C3644 C3625 1.368 . S
C3644 C3638 1.368 . S
C3644 C3643 1.523 . S
C3645 C3629 1.429 . S
C3645 C3641 1.429 . S
C3645 C3646 1.523 . S
C3646 C3630 1.368 . S
C3646 C3642 1.368 . S
C3646 C3645 1.523 . S
H3647 C3622 0.950 . S
H3648 C3624 0.950 . S
H3649 C3625 0.949 . S
H3650 C3627 0.950 . S
H3651 C3629 0.950 . S
C3652 C3653 1.349 . S
C3652 C3654 1.327 . S
C3652 H3677 0.950 . S
C3653 C3652 1.349 . S
C3653 C3669 1.349 . S
C3654 C3652 1.327 . S
C3654 C3673 1.429 . S
C3654 H3678 0.950 . S
C3655 C3672 1.574 . S
C3655 C3674 1.368 . S
C3655 H3679 0.949 . S
H3656 C3660 0.949 . S
C3657 C3658 1.349 . S
C3657 C3659 1.327 . S
C3657 H3680 0.950 . S
C3658 C3657 1.349 . S
C3658 C3670 1.349 . S
C3659 C3657 1.327 . S
C3659 C3675 1.429 . S
C3659 H3681 0.950 . S
C3660 H3656 0.949 . S
C3660 C3668 1.574 . S
C3660 C3676 1.368 . S
H3661 C3669 0.950 . S
H3662 C3667 0.950 . S
H3663 C3668 0.949 . S
H3664 C3670 0.950 . S
H3665 C3671 0.950 . S
H3666 C3672 0.949 . S
C3667 H3662 0.950 . S
C3667 C3669 1.327 . S
C3667 C3673 1.429 . S
C3668 C3660 1.574 . S
C3668 H3663 0.949 . S
C3668 C3674 1.368 . S
C3669 C3653 1.349 . S
C3669 H3661 0.950 . S
C3669 C3667 1.327 . S
C3670 C3658 1.349 . S
C3670 H3664 0.950 . S
C3670 C3671 1.327 . S
C3671 H3665 0.950 . S
C3671 C3670 1.327 . S
C3671 C3675 1.429 . S
C3672 C3655 1.574 . S
C3672 H3666 0.949 . S
C3672 C3676 1.368 . S
C3673 C3654 1.429 . S
C3673 C3667 1.429 . S
C3673 C3674 1.523 . S
C3674 C3655 1.368 . S
C3674 C3668 1.368 . S
C3674 C3673 1.523 . S
C3675 C3659 1.429 . S
C3675 C3671 1.429 . S
C3675 C3676 1.523 . S
C3676 C3660 1.368 . S
C3676 C3672 1.368 . S
C3676 C3675 1.523 . S
H3677 C3652 0.950 . S
H3678 C3654 0.950 . S
H3679 C3655 0.949 . S
H3680 C3657 0.950 . S
H3681 C3659 0.950 . S
C3682 C3683 1.349 . S
C3682 C3684 1.327 . S
C3682 H3707 0.950 . S
C3683 C3682 1.349 . S
C3683 C3699 1.349 . S
C3684 C3682 1.327 . S
C3684 C3703 1.429 . S
C3684 H3708 0.950 . S
C3685 C3702 1.574 . S
C3685 C3704 1.368 . S
C3685 H3709 0.949 1_554 S
H3686 C3690 0.949 . S
C3687 C3688 1.349 . S
C3687 C3689 1.327 . S
C3687 H3710 0.950 1_554 S
C3688 C3687 1.349 . S
C3688 C3700 1.349 . S
C3689 C3687 1.327 . S
C3689 C3705 1.429 . S
C3689 H3711 0.950 1_554 S
C3690 H3686 0.949 . S
C3690 C3698 1.574 . S
C3690 C3706 1.368 . S
H3691 C3699 0.950 1_556 S
H3692 C3697 0.950 1_556 S
H3693 C3698 0.949 . S
H3694 C3700 0.950 . S
H3695 C3701 0.950 . S
H3696 C3702 0.949 1_556 S
C3697 H3692 0.950 1_554 S
C3697 C3699 1.327 . S
C3697 C3703 1.429 . S
C3698 C3690 1.574 . S
C3698 H3693 0.949 . S
C3698 C3704 1.368 . S
C3699 C3683 1.349 . S
C3699 H3691 0.950 1_554 S
C3699 C3697 1.327 . S
C3700 C3688 1.349 . S
C3700 H3694 0.950 . S
C3700 C3701 1.327 . S
C3701 H3695 0.950 . S
C3701 C3700 1.327 . S
C3701 C3705 1.429 . S
C3702 C3685 1.574 . S
C3702 H3696 0.949 1_554 S
C3702 C3706 1.368 . S
C3703 C3684 1.429 . S
C3703 C3697 1.429 . S
C3703 C3704 1.523 . S
C3704 C3685 1.368 . S
C3704 C3698 1.368 . S
C3704 C3703 1.523 . S
C3705 C3689 1.429 . S
C3705 C3701 1.429 . S
C3705 C3706 1.523 . S
C3706 C3690 1.368 . S
C3706 C3702 1.368 . S
C3706 C3705 1.523 . S
H3707 C3682 0.950 . S
H3708 C3684 0.950 . S
H3709 C3685 0.949 1_556 S
H3710 C3687 0.950 1_556 S
H3711 C3689 0.950 1_556 S
C3712 C3713 1.349 . S
C3712 C3714 1.327 . S
C3712 H3737 0.950 . S
C3713 C3712 1.349 . S
C3713 C3729 1.349 . S
C3714 C3712 1.327 . S
C3714 C3733 1.429 . S
C3714 H3738 0.950 . S
C3715 C3732 1.574 . S
C3715 C3734 1.368 . S
C3715 H3739 0.949 . S
H3716 C3720 0.949 . S
C3717 C3718 1.349 . S
C3717 C3719 1.327 . S
C3717 H3740 0.950 . S
C3718 C3717 1.349 . S
C3718 C3730 1.349 . S
C3719 C3717 1.327 . S
C3719 C3735 1.429 . S
C3719 H3741 0.950 . S
C3720 H3716 0.949 . S
C3720 C3728 1.574 . S
C3720 C3736 1.368 . S
H3721 C3729 0.950 . S
H3722 C3727 0.950 . S
H3723 C3728 0.949 . S
H3724 C3730 0.950 . S
H3725 C3731 0.950 . S
H3726 C3732 0.949 . S
C3727 H3722 0.950 . S
C3727 C3729 1.327 . S
C3727 C3733 1.429 . S
C3728 C3720 1.574 . S
C3728 H3723 0.949 . S
C3728 C3734 1.368 . S
C3729 C3713 1.349 . S
C3729 H3721 0.950 . S
C3729 C3727 1.327 . S
C3730 C3718 1.349 . S
C3730 H3724 0.950 . S
C3730 C3731 1.327 . S
C3731 H3725 0.950 . S
C3731 C3730 1.327 . S
C3731 C3735 1.429 . S
C3732 C3715 1.574 . S
C3732 H3726 0.949 . S
C3732 C3736 1.368 . S
C3733 C3714 1.429 . S
C3733 C3727 1.429 . S
C3733 C3734 1.523 . S
C3734 C3715 1.368 . S
C3734 C3728 1.368 . S
C3734 C3733 1.523 . S
C3735 C3719 1.429 . S
C3735 C3731 1.429 . S
C3735 C3736 1.523 . S
C3736 C3720 1.368 . S
C3736 C3732 1.368 . S
C3736 C3735 1.523 . S
H3737 C3712 0.950 . S
H3738 C3714 0.950 . S
H3739 C3715 0.949 . S
H3740 C3717 0.950 . S
H3741 C3719 0.950 . S
C3742 C3743 1.349 . S
C3742 C3744 1.327 . S
C3742 H3767 0.950 . S
C3743 C3742 1.349 . S
C3743 C3759 1.349 . S
C3744 C3742 1.327 . S
C3744 C3763 1.429 . S
C3744 H3768 0.968 . S
C3745 C3762 1.574 . S
C3745 C3764 1.368 . S
C3745 H3769 0.949 . S
H3746 C3750 0.949 1_556 S
C3747 C3748 1.349 . S
C3747 C3749 1.327 . S
C3747 H3770 0.950 . S
C3748 C3747 1.349 . S
C3748 C3760 1.349 1_554 S
C3749 C3747 1.327 . S
C3749 C3765 1.429 . S
C3749 H3771 0.950 . S
C3750 H3746 0.949 1_554 S
C3750 C3758 1.574 . S
C3750 C3766 1.368 . S
H3751 C3759 0.950 . S
H3752 C3757 0.950 . S
H3753 C3758 0.949 1_556 S
H3754 C3760 0.950 . S
H3755 C3761 0.950 . S
H3756 C3762 0.949 . S
C3757 H3752 0.950 . S
C3757 C3759 1.327 . S
C3757 C3763 1.429 . S
C3758 C3750 1.574 . S
C3758 H3753 0.949 1_554 S
C3758 C3764 1.368 . S
C3759 C3743 1.349 . S
C3759 H3751 0.950 . S
C3759 C3757 1.327 . S
C3760 C3748 1.349 1_556 S
C3760 H3754 0.950 . S
C3760 C3761 1.327 . S
C3761 H3755 0.950 . S
C3761 C3760 1.327 . S
C3761 C3765 1.429 1_556 S
C3762 C3745 1.574 . S
C3762 H3756 0.949 . S
C3762 C3766 1.368 . S
C3763 C3744 1.429 . S
C3763 C3757 1.429 . S
C3763 C3764 1.523 . S
C3764 C3745 1.368 . S
C3764 C3758 1.368 . S
C3764 C3763 1.523 . S
C3765 C3749 1.429 . S
C3765 C3761 1.429 1_554 S
C3765 C3766 1.523 . S
C3766 C3750 1.368 . S
C3766 C3762 1.368 . S
C3766 C3765 1.523 . S
H3767 C3742 0.950 . S
H3768 C3744 0.968 . S
H3769 C3745 0.949 . S
H3770 C3747 0.950 . S
H3771 C3749 0.950 . S
C3772 C3773 1.349 . S
C3772 C3774 1.327 . S
C3772 H3797 0.950 . S
C3773 C3772 1.349 . S
C3773 C3789 1.349 . S
C3774 C3772 1.327 . S
C3774 C3793 1.429 . S
C3774 H3798 0.950 . S
C3775 C3792 1.574 . S
C3775 C3794 1.368 . S
C3775 H3799 0.949 . S
H3776 C3780 0.949 . S
C3777 C3778 1.349 . S
C3777 C3779 1.327 . S
C3777 H3800 0.950 . S
C3778 C3777 1.349 . S
C3778 C3790 1.349 . S
C3779 C3777 1.327 . S
C3779 C3795 1.429 . S
C3779 H3801 0.950 . S
C3780 H3776 0.949 . S
C3780 C3788 1.574 . S
C3780 C3796 1.368 . S
H3781 C3789 0.950 . S
H3782 C3787 0.950 . S
H3783 C3788 0.949 . S
H3784 C3790 0.950 . S
H3785 C3791 0.950 . S
H3786 C3792 0.949 . S
C3787 H3782 0.950 . S
C3787 C3789 1.327 . S
C3787 C3793 1.429 . S
C3788 C3780 1.574 . S
C3788 H3783 0.949 . S
C3788 C3794 1.368 . S
C3789 C3773 1.349 . S
C3789 H3781 0.950 . S
C3789 C3787 1.327 . S
C3790 C3778 1.349 . S
C3790 H3784 0.950 . S
C3790 C3791 1.327 . S
C3791 H3785 0.950 . S
C3791 C3790 1.327 . S
C3791 C3795 1.429 . S
C3792 C3775 1.574 . S
C3792 H3786 0.949 . S
C3792 C3796 1.368 . S
C3793 C3774 1.429 . S
C3793 C3787 1.429 . S
C3793 C3794 1.523 . S
C3794 C3775 1.368 . S
C3794 C3788 1.368 . S
C3794 C3793 1.523 . S
C3795 C3779 1.429 . S
C3795 C3791 1.429 . S
C3795 C3796 1.523 . S
C3796 C3780 1.368 . S
C3796 C3792 1.368 . S
C3796 C3795 1.523 . S
H3797 C3772 0.950 . S
H3798 C3774 0.950 . S
H3799 C3775 0.949 . S
H3800 C3777 0.950 . S
H3801 C3779 0.950 . S
C3802 C3803 1.349 . S
C3802 C3804 1.327 . S
C3802 H3827 0.950 . S
C3803 C3802 1.349 . S
C3803 C3819 1.349 . S
C3804 C3802 1.327 . S
C3804 C3823 1.429 . S
C3804 H3828 0.950 . S
C3805 C3822 1.574 . S
C3805 C3824 1.368 . S
C3805 H3829 0.949 . S
H3806 C3810 0.949 . S
C3807 C3808 1.349 . S
C3807 C3809 1.327 . S
C3807 H3830 0.950 . S
C3808 C3807 1.349 . S
C3808 C3820 1.349 . S
C3809 C3807 1.327 . S
C3809 C3825 1.429 . S
C3809 H3831 0.950 . S
C3810 H3806 0.949 . S
C3810 C3818 1.574 . S
C3810 C3826 1.368 . S
H3811 C3819 0.950 . S
H3812 C3817 0.950 . S
H3813 C3818 0.949 . S
H3814 C3820 0.950 . S
H3815 C3821 0.950 . S
H3816 C3822 0.949 . S
C3817 H3812 0.950 . S
C3817 C3819 1.327 . S
C3817 C3823 1.429 . S
C3818 C3810 1.574 . S
C3818 H3813 0.949 . S
C3818 C3824 1.368 . S
C3819 C3803 1.349 . S
C3819 H3811 0.950 . S
C3819 C3817 1.327 . S
C3820 C3808 1.349 . S
C3820 H3814 0.950 . S
C3820 C3821 1.327 . S
C3821 H3815 0.950 . S
C3821 C3820 1.327 . S
C3821 C3825 1.429 . S
C3822 C3805 1.574 . S
C3822 H3816 0.949 . S
C3822 C3826 1.368 . S
C3823 C3804 1.429 . S
C3823 C3817 1.429 . S
C3823 C3824 1.523 . S
C3824 C3805 1.368 . S
C3824 C3818 1.368 . S
C3824 C3823 1.523 . S
C3825 C3809 1.429 . S
C3825 C3821 1.429 . S
C3825 C3826 1.523 . S
C3826 C3810 1.368 . S
C3826 C3822 1.368 . S
C3826 C3825 1.523 . S
H3827 C3802 0.950 . S
H3828 C3804 0.950 . S
H3829 C3805 0.949 . S
H3830 C3807 0.950 . S
H3831 C3809 0.950 . S
C953 C101 0.986 . S
C958 C320 1.000 . S
C983 C57 1.352 . S
C988 C354 1.363 . S
C1013 C70 0.323 . S
C1018 C423 0.390 . S
C1048 C461 0.806 . S
C1043 C82 0.806 . S
C1073 C23 1.354 . S
C1078 C501 1.337 . S
C1108 C520 0.169 . S
C1103 C29 0.132 . S
C1138 C554 0.962 . S
C1133 C49 0.951 . S
C1163 C10 1.614 . S
C1168 C623 1.592 . S
C1198 C329 2.377 . S
C1193 C218 2.406 . S
C1223 C226 0.915 . S
C1228 C381 0.909 . S
C1258 C394 1.370 . S
C1253 C251 1.365 . S
C1288 C463 1.063 . S
C1283 C159 1.066 . S
C1313 C211 1.731 . S
C1318 C503 1.727 . S
C1348 C529 1.825 . S
C1343 C225 1.838 . S
C1378 C581 0.204 . S
C1373 C252 0.104 . S
C1408 C594 2.083 . S
C1403 C166 2.094 . S
C1438 C324 2.353 . S
C1433 C147 2.381 . S
C1463 C263 1.879 . S
C1468 C634 1.909 . S
C1498 C684 2.614 . S
C1493 C309 2.625 . S
C1528 C743 1.219 . S
C1523 C291 1.220 . S
C1553 C108 1.391 . S
C1558 C621 1.378 . S
C1583 C121 1.404 . S
C1588 C421 1.403 . S
C1613 C302 2.352 . S
C1618 C754 2.340 . S
C1648 C823 0.667 . S
C1643 C276 0.659 . S
C1678 C341 1.159 . S
C1673 C55 1.158 . S
C1708 C809 1.612 . S
C1703 C96 1.624 . S
C1733 C88 0.760 . S
C1738 C404 0.760 . S
C1763 C75 1.136 . S
C1768 C760 1.128 . S
C1798 C480 1.416 . S
C1793 C4 1.432 . S
C1823 C44 0.378 . S
C1828 C701 0.387 . S
C1858 C569 1.477 1_566 S
C1853 C31 1.494 . S
C1888 C844 1.753 . S
C1883 C18 1.769 . S
C1918 C314 2.556 . S
C1913 C133 2.596 . S
C1948 C800 0.978 . S
C1943 C296 0.983 . S
C1973 C107 1.687 . S
C1978 C409 1.670 . S
C2003 C264 1.503 . S
C2008 C764 1.506 . S
C2033 C140 2.022 . S
C2038 C484 2.036 . S
C2068 C674 2.032 . S
C2063 C289 2.073 . S
C2093 C114 0.387 . S
C2098 C560 0.419 . S
C2123 C265 2.374 . S
C2128 C849 2.354 . S
C2153 C179 2.730 . S
C2158 C343 2.706 1_655 S
C2183 C161 2.243 . S
C2188 C649 2.242 . S
C2213 C244 2.999 . S
C2218 C543 2.985 . S
C2243 C224 1.802 . S
C2248 C724 1.808 . S
C2278 C840 1.436 . S
C2273 C257 1.447 . S
C2303 C199 1.549 . S
C2308 C400 1.540 . S
C2338 C449 2.763 . S
C2333 C237 2.798 . S
C2368 C364 1.067 . S
C2363 C185 1.072 . S
C2393 C69 0.986 . S
C2398 C880 0.987 . S
C2428 C794 1.363 . S
C2423 C83 1.351 . S
C2453 C94 0.325 . S
C2458 C943 0.391 . S
C2483 C56 0.806 . S
C2488 C781 0.806 . S
C2513 C42 1.371 . S
C2518 C661 1.349 . S
C2548 C680 0.171 . S
C2543 C3 0.133 . S
C2578 C714 0.973 . S
C2573 C16 0.959 . S
C2608 C863 1.592 . S
C2603 C36 1.614 . S
C2638 C889 2.378 . S
C2633 C238 2.406 . S
C2663 C174 0.913 . S
C2668 C821 0.907 . S
C2698 C914 1.370 . S
C2693 C186 1.365 . S
C2728 C783 1.062 . S
C2723 C198 1.065 . S
C2758 C663 1.729 . S
C2753 C239 1.734 . S
C2783 C173 1.837 . S
C2788 C689 1.824 . S
C2818 C741 0.205 . S
C2813 C187 0.104 . S
C2843 C205 2.095 . S
C2848 C834 2.084 . S
C2878 C884 2.352 . S
C2873 C290 2.379 . S
C2903 C122 1.881 . S
C2908 C474 1.911 . S
C2938 C524 2.621 . S
C2933 C134 2.632 . S
C2968 C583 1.219 . S
C2963 C148 1.220 . S
C2998 C861 1.375 . S
C2993 C283 1.388 . S
C3023 C270 1.402 . S
C3028 C941 1.401 . S
C3058 C434 2.339 . S
C3053 C135 2.351 . S
C3088 C383 0.666 . S
C3083 C109 0.658 . S
C3113 C81 1.158 . S
C3118 C901 1.160 . S
C3148 C369 1.610 . S
C3143 C68 1.622 . S
C3173 C62 0.761 . S
C3178 C924 0.761 . S
C3203 C95 1.136 . S
C3208 C440 1.128 . S
C3233 C30 1.431 . S
C3238 C640 1.415 . S
C3268 C541 0.374 . S
C3263 C17 0.356 . S
C3293 C5 1.495 . S
C3298 C729 1.486 . S
C3323 C43 1.753 . S
C3328 C604 1.741 . S
C3358 C874 2.556 . S
C3353 C304 2.595 . S
C3383 C153 0.981 . S
C3388 C360 0.976 . S
C3418 C929 1.704 . S
C3413 C278 1.689 . S
C3443 C127 1.502 . S
C3448 C444 1.505 . S
C3473 C303 2.015 . S
C3478 C644 2.029 . S
C3508 C514 2.029 . S
C3503 C146 2.070 . S
C3533 C277 0.384 . S
C3538 C720 0.417 . S
C3568 C609 2.352 . S
C3563 C120 2.372 . S
C3598 C903 2.705 . S
C3593 C231 2.729 . S
C3628 C489 2.242 1_665 S
C3623 C200 2.243 . S
C3653 C212 3.003 . S
C3658 C703 2.989 . S
C3688 C564 1.807 . S
C3683 C172 1.801 . S
C3713 C192 1.445 . S
C3718 C600 1.434 . S
C3743 C160 1.550 . S
C3748 C920 1.540 . S
C3778 C769 2.765 . S
C3773 C213 2.801 1_565 S
C3808 C804 1.068 . S
C3803 C250 1.074 . S
