# Generated by pormake.
# Topology eea, (3,6)-cn, num edge types: 1
# Building blocks:
#     Node 0, Type 0, BuildingBlock: WUSLED_clean_sbu_0, # of connection points: 3
#     Node 1, Type 0, BuildingBlock: WUSLED_clean_sbu_0, # of connection points: 3
#     Node 2, Type 0, BuildingBlock: WUSLED_clean_sbu_0, # of connection points: 3
#     Node 3, Type 0, BuildingBlock: WUSLED_clean_sbu_0, # of connection points: 3
#     Node 4, Type 0, BuildingBlock: WUSLED_clean_sbu_0, # of connection points: 3
#     Node 5, Type 0, BuildingBlock: WUSLED_clean_sbu_0, # of connection points: 3
#     Node 6, Type 0, BuildingBlock: WUSLED_clean_sbu_0, # of connection points: 3
#     Node 7, Type 0, BuildingBlock: WUSLED_clean_sbu_0, # of connection points: 3
#     Node 8, Type 0, BuildingBlock: WUSLED_clean_sbu_0, # of connection points: 3
#     Node 9, Type 0, BuildingBlock: WUSLED_clean_sbu_0, # of connection points: 3
#     Node 10, Type 0, BuildingBlock: WUSLED_clean_sbu_0, # of connection points: 3
#     Node 11, Type 0, BuildingBlock: WUSLED_clean_sbu_0, # of connection points: 3
#     Node 12, Type 0, BuildingBlock: WUSLED_clean_sbu_0, # of connection points: 3
#     Node 13, Type 0, BuildingBlock: WUSLED_clean_sbu_0, # of connection points: 3
#     Node 14, Type 0, BuildingBlock: WUSLED_clean_sbu_0, # of connection points: 3
#     Node 15, Type 0, BuildingBlock: WUSLED_clean_sbu_0, # of connection points: 3
#     Node 16, Type 0, BuildingBlock: WUSLED_clean_sbu_0, # of connection points: 3
#     Node 17, Type 0, BuildingBlock: WUSLED_clean_sbu_0, # of connection points: 3
#     Node 18, Type 1, BuildingBlock: KUMJIN_clean_sbu_0, # of connection points: 6
#     Node 19, Type 1, BuildingBlock: KUMJIN_clean_sbu_0, # of connection points: 6
#     Node 20, Type 1, BuildingBlock: KUMJIN_clean_sbu_0, # of connection points: 6
#     Node 21, Type 1, BuildingBlock: KUMJIN_clean_sbu_0, # of connection points: 6
#     Node 22, Type 1, BuildingBlock: KUMJIN_clean_sbu_0, # of connection points: 6
#     Node 23, Type 1, BuildingBlock: KUMJIN_clean_sbu_0, # of connection points: 6
#     Node 24, Type 1, BuildingBlock: KUMJIN_clean_sbu_0, # of connection points: 6
#     Node 25, Type 1, BuildingBlock: KUMJIN_clean_sbu_0, # of connection points: 6
#     Node 26, Type 1, BuildingBlock: KUMJIN_clean_sbu_0, # of connection points: 6
#     Edge 27, Type (0, 1), BuildingBlock: AJUNOK_clean_linker_0, # of connection points: 2
#     Edge 28, Type (0, 1), BuildingBlock: AJUNOK_clean_linker_0, # of connection points: 2
#     Edge 29, Type (0, 1), BuildingBlock: AJUNOK_clean_linker_0, # of connection points: 2
#     Edge 30, Type (0, 1), BuildingBlock: AJUNOK_clean_linker_0, # of connection points: 2
#     Edge 31, Type (0, 1), BuildingBlock: AJUNOK_clean_linker_0, # of connection points: 2
#     Edge 32, Type (0, 1), BuildingBlock: AJUNOK_clean_linker_0, # of connection points: 2
#     Edge 33, Type (0, 1), BuildingBlock: AJUNOK_clean_linker_0, # of connection points: 2
#     Edge 34, Type (0, 1), BuildingBlock: AJUNOK_clean_linker_0, # of connection points: 2
#     Edge 35, Type (0, 1), BuildingBlock: AJUNOK_clean_linker_0, # of connection points: 2
#     Edge 36, Type (0, 1), BuildingBlock: AJUNOK_clean_linker_0, # of connection points: 2
#     Edge 37, Type (0, 1), BuildingBlock: AJUNOK_clean_linker_0, # of connection points: 2
#     Edge 38, Type (0, 1), BuildingBlock: AJUNOK_clean_linker_0, # of connection points: 2
#     Edge 39, Type (0, 1), BuildingBlock: AJUNOK_clean_linker_0, # of connection points: 2
#     Edge 40, Type (0, 1), BuildingBlock: AJUNOK_clean_linker_0, # of connection points: 2
#     Edge 41, Type (0, 1), BuildingBlock: AJUNOK_clean_linker_0, # of connection points: 2
#     Edge 42, Type (0, 1), BuildingBlock: AJUNOK_clean_linker_0, # of connection points: 2
#     Edge 43, Type (0, 1), BuildingBlock: AJUNOK_clean_linker_0, # of connection points: 2
#     Edge 44, Type (0, 1), BuildingBlock: AJUNOK_clean_linker_0, # of connection points: 2
#     Edge 45, Type (0, 1), BuildingBlock: AJUNOK_clean_linker_0, # of connection points: 2
#     Edge 46, Type (0, 1), BuildingBlock: AJUNOK_clean_linker_0, # of connection points: 2
#     Edge 47, Type (0, 1), BuildingBlock: AJUNOK_clean_linker_0, # of connection points: 2
#     Edge 48, Type (0, 1), BuildingBlock: AJUNOK_clean_linker_0, # of connection points: 2
#     Edge 49, Type (0, 1), BuildingBlock: AJUNOK_clean_linker_0, # of connection points: 2
#     Edge 50, Type (0, 1), BuildingBlock: AJUNOK_clean_linker_0, # of connection points: 2
#     Edge 51, Type (0, 1), BuildingBlock: AJUNOK_clean_linker_0, # of connection points: 2
#     Edge 52, Type (0, 1), BuildingBlock: AJUNOK_clean_linker_0, # of connection points: 2
#     Edge 53, Type (0, 1), BuildingBlock: AJUNOK_clean_linker_0, # of connection points: 2
#     Edge 54, Type (0, 1), BuildingBlock: AJUNOK_clean_linker_0, # of connection points: 2
#     Edge 55, Type (0, 1), BuildingBlock: AJUNOK_clean_linker_0, # of connection points: 2
#     Edge 56, Type (0, 1), BuildingBlock: AJUNOK_clean_linker_0, # of connection points: 2
#     Edge 57, Type (0, 1), BuildingBlock: AJUNOK_clean_linker_0, # of connection points: 2
#     Edge 58, Type (0, 1), BuildingBlock: AJUNOK_clean_linker_0, # of connection points: 2
#     Edge 59, Type (0, 1), BuildingBlock: AJUNOK_clean_linker_0, # of connection points: 2
#     Edge 60, Type (0, 1), BuildingBlock: AJUNOK_clean_linker_0, # of connection points: 2
#     Edge 61, Type (0, 1), BuildingBlock: AJUNOK_clean_linker_0, # of connection points: 2
#     Edge 62, Type (0, 1), BuildingBlock: AJUNOK_clean_linker_0, # of connection points: 2
#     Edge 63, Type (0, 1), BuildingBlock: AJUNOK_clean_linker_0, # of connection points: 2
#     Edge 64, Type (0, 1), BuildingBlock: AJUNOK_clean_linker_0, # of connection points: 2
#     Edge 65, Type (0, 1), BuildingBlock: AJUNOK_clean_linker_0, # of connection points: 2
#     Edge 66, Type (0, 1), BuildingBlock: AJUNOK_clean_linker_0, # of connection points: 2
#     Edge 67, Type (0, 1), BuildingBlock: AJUNOK_clean_linker_0, # of connection points: 2
#     Edge 68, Type (0, 1), BuildingBlock: AJUNOK_clean_linker_0, # of connection points: 2
#     Edge 69, Type (0, 1), BuildingBlock: AJUNOK_clean_linker_0, # of connection points: 2
#     Edge 70, Type (0, 1), BuildingBlock: AJUNOK_clean_linker_0, # of connection points: 2
#     Edge 71, Type (0, 1), BuildingBlock: AJUNOK_clean_linker_0, # of connection points: 2
#     Edge 72, Type (0, 1), BuildingBlock: AJUNOK_clean_linker_0, # of connection points: 2
#     Edge 73, Type (0, 1), BuildingBlock: AJUNOK_clean_linker_0, # of connection points: 2
#     Edge 74, Type (0, 1), BuildingBlock: AJUNOK_clean_linker_0, # of connection points: 2
#     Edge 75, Type (0, 1), BuildingBlock: AJUNOK_clean_linker_0, # of connection points: 2
#     Edge 76, Type (0, 1), BuildingBlock: AJUNOK_clean_linker_0, # of connection points: 2
#     Edge 77, Type (0, 1), BuildingBlock: AJUNOK_clean_linker_0, # of connection points: 2
#     Edge 78, Type (0, 1), BuildingBlock: AJUNOK_clean_linker_0, # of connection points: 2
#     Edge 79, Type (0, 1), BuildingBlock: AJUNOK_clean_linker_0, # of connection points: 2
#     Edge 80, Type (0, 1), BuildingBlock: AJUNOK_clean_linker_0, # of connection points: 2
# Relax obj value: 0.008
# Max RMSD: 0.089
# Mean RMSD: 0.069
data_MOF--net-eea--node1-WUSLED_clean_sbu_0--node2-KUMJIN_clean_sbu_0--edge1-AJUNOK_clean_linker_0
_symmetry_space_group_name_H-M    P1
_symmetry_Int_Tables_number       1
_symmetry_cell_setting            triclinic
loop_
_symmetry_equiv_pos_as_xyz
'x, y, z'
_cell_length_a     53.272516
_cell_length_b     54.698856
_cell_length_c     75.833195
_cell_angle_alpha  89.751129
_cell_angle_beta   90.141824
_cell_angle_gamma 120.1389
loop_
_atom_site_label
_atom_site_type_symbol
_atom_site_fract_x
_atom_site_fract_y
_atom_site_fract_z
_atom_type_partial_charge
C0 C 0.23698 0.17531 0.39907 0.0
C1 C 0.22942 0.18983 0.41131 0.0
C2 C 0.22654 0.2189 0.3876 0.0
C3 C 0.22443 0.21161 0.40561 0.0
C4 C 0.23518 0.20503 0.37562 0.0
C5 C 0.2404 0.18361 0.3813 0.0
U6 U 0.25221 0.12588 0.42969 0.0
O7 O 0.22898 0.0793 0.43015 0.0
O8 O 0.27472 0.10278 0.42214 0.0
C9 C 0.25151 0.07784 0.42453 0.0
C10 C 0.23955 0.15026 0.4038 0.0
C11 C 0.24589 0.05502 0.41184 0.0
C12 C 0.22587 0.02867 0.38447 0.0
C13 C 0.23355 0.05266 0.39503 0.0
C14 C 0.24374 0.01001 0.40712 0.0
C15 C 0.23019 1.00674 0.39069 0.0
C16 C 0.25147 0.03379 0.41752 0.0
C17 C 0.2754 0.14947 0.47919 0.0
C18 C 0.27804 0.12514 0.50564 0.0
C19 C 0.29851 0.17588 0.50588 0.0
C20 C 0.29011 0.1751 0.48834 0.0
C21 C 0.2924 0.15098 0.51485 0.0
C22 C 0.26938 0.12434 0.48795 0.0
C23 C 0.2661 0.1504 0.46087 0.0
O24 O 0.26579 0.15451 0.40663 0.0
O25 O 0.22003 0.13151 0.4146 0.0
O26 O 0.2394 0.13178 0.45629 0.0
O27 O 0.28511 0.15604 0.44824 0.0
H28 H 0.22674 0.18392 0.42512 0.0
H29 H 0.21793 0.22206 0.41516 0.0
H30 H 0.23744 0.21049 0.36174 0.0
H31 H 0.24637 0.1729 0.37163 0.0
H32 H 0.21542 0.02667 0.37187 0.0
H33 H 0.22909 0.06882 0.39033 0.0
H34 H 0.24745 0.99355 0.41223 0.0
H35 H 0.261 0.03512 0.43038 0.0
H36 H 0.27333 0.10563 0.51216 0.0
H37 H 0.31027 0.1962 0.51237 0.0
H38 H 0.29509 0.19474 0.48188 0.0
H39 H 0.25803 0.10425 0.48117 0.0
C40 C 0.96274 0.18141 0.39661 0.0
C41 C 0.9802 0.20485 0.40735 0.0
C42 C 0.0178 0.22483 0.38443 0.0
C43 C 1.00746 0.22647 0.40126 0.0
C44 C 0.99973 0.20179 0.37362 0.0
C45 C 0.97263 0.18043 0.37963 0.0
U46 U 0.89906 0.13405 0.42961 0.0
O47 O 0.85241 0.1076 0.4231 0.0
O48 O 0.87706 0.08769 0.43218 0.0
C49 C 0.85187 0.08383 0.42681 0.0
C50 C 0.93475 0.15695 0.40258 0.0
C51 C 0.83392 0.05874 0.41563 0.0
C52 C 0.82434 0.03044 0.38893 0.0
C53 C 0.84137 0.05585 0.39828 0.0
C54 C 0.79222 0.01102 0.41401 0.0
C55 C 0.79973 0.00749 0.39683 0.0
C56 C 0.80902 0.03622 0.42323 0.0
C57 C 0.89914 0.15653 0.47856 0.0
C58 C 0.85962 0.13666 0.50003 0.0
C59 C 0.90777 0.17245 0.50912 0.0
C60 C 0.91797 0.1735 0.49196 0.0
C61 C 0.87836 0.15447 0.51334 0.0
C62 C 0.86991 0.13768 0.48279 0.0
C63 C 0.91063 0.16011 0.46032 0.0
O64 O 0.93622 0.13939 0.41385 0.0
O65 O 0.91304 0.16126 0.40582 0.0
O66 O 0.89583 0.1638 0.44772 0.0
O67 O 0.92072 0.14359 0.45559 0.0
H68 H 0.97306 0.20616 0.42049 0.0
H69 H 0.02089 0.24395 0.40992 0.0
H70 H 1.0068 0.20007 0.36053 0.0
H71 H 0.95954 0.1627 0.37106 0.0
H72 H 0.83093 0.02844 0.37577 0.0
H73 H 0.86053 0.07292 0.39213 0.0
H74 H 0.7733 0.99408 0.42045 0.0
H75 H 0.80279 0.03791 0.43656 0.0
H76 H 0.83691 0.12228 0.50288 0.0
H77 H 0.92275 0.18663 0.51895 0.0
H78 H 0.94059 0.18821 0.48905 0.0
H79 H 0.85496 0.1242 0.47271 0.0
C80 C 0.84968 0.79751 0.40061 0.0
C81 C 0.82605 0.78936 0.41211 0.0
C82 C 0.80219 0.80467 0.3906 0.0
C83 C 0.80243 0.79278 0.4071 0.0
C84 C 0.82586 0.81282 0.37923 0.0
C85 C 0.8492 0.80919 0.38415 0.0
U86 U 0.89921 0.7801 0.43073 0.0
O87 O 0.92366 0.759 0.42291 0.0
O88 O 0.94716 0.80298 0.43184 0.0
C89 C 0.94912 0.78141 0.426 0.0
C90 C 0.87511 0.79421 0.40504 0.0
C91 C 0.97361 0.78741 0.4139 0.0
C92 C 0.99977 0.80285 0.38584 0.0
C93 C 0.97551 0.79691 0.39641 0.0
C94 C 0.02014 0.78943 0.40996 0.0
C95 C 0.02247 0.7992 0.39252 0.0
C96 C 0.99617 0.78373 0.42047 0.0
C97 C 0.87496 0.75535 0.47987 0.0
C98 C 0.89274 0.73409 0.50129 0.0
C99 C 0.8553 0.7444 0.50979 0.0
C100 C 0.85609 0.75518 0.49286 0.0
C101 C 0.87333 0.73342 0.51413 0.0
C102 C 0.89366 0.74508 0.4843 0.0
C103 C 0.8731 0.76484 0.46175 0.0
O104 O 0.8943 0.81249 0.41612 0.0
O105 O 0.87028 0.76839 0.40753 0.0
O106 O 0.86811 0.74708 0.44879 0.0
O107 O 0.89173 0.79117 0.45747 0.0
H108 H 0.82583 0.78032 0.42489 0.0
H109 H 0.78442 0.78629 0.41612 0.0
H110 H 0.82615 0.82178 0.36641 0.0
H111 H 0.86702 0.81552 0.37499 0.0
H112 H 1.00076 0.81019 0.37244 0.0
H113 H 0.9584 0.79989 0.39099 0.0
H114 H 0.03727 0.78675 0.41566 0.0
H115 H 0.99539 0.77659 0.43391 0.0
H116 H 0.90672 0.72554 0.50429 0.0
H117 H 0.83987 0.74374 0.51934 0.0
H118 H 0.84132 0.76278 0.48975 0.0
H119 H 0.90841 0.74495 0.47455 0.0
C120 C 0.05968 0.21863 0.63917 0.0
C121 C 0.05221 0.23939 0.63543 0.0
C122 C 1.00392 0.21034 0.64894 0.0
C123 C 0.02493 0.23544 0.64042 0.0
C124 C 1.01168 0.18969 0.65259 0.0
C125 C 0.03909 0.19387 0.64788 0.0
U126 U 0.1281 0.2371 0.60995 0.0
O127 O 0.17448 0.25803 0.6177 0.0
O128 O 0.15211 0.21404 0.60863 0.0
C129 C 0.1765 0.23549 0.6144 0.0
C130 C 0.0891 0.22265 0.63536 0.0
C131 C 0.19523 0.22925 0.62599 0.0
C132 C 0.2029 0.20292 0.64955 0.0
C133 C 0.1845 0.21015 0.64026 0.0
C134 C 0.2428 0.23382 0.63052 0.0
C135 C 0.23216 0.21426 0.64451 0.0
C136 C 0.22464 0.24125 0.62145 0.0
C137 C 0.12853 0.26108 0.56066 0.0
C138 C 0.16669 0.27981 0.53827 0.0
C139 C 0.11868 0.27104 0.53089 0.0
C140 C 0.1094 0.26146 0.54808 0.0
C141 C 0.14744 0.28045 0.52568 0.0
C142 C 0.15729 0.27011 0.55561 0.0
C143 C 0.11752 0.25214 0.5789 0.0
O144 O 0.09017 0.20439 0.62463 0.0
O145 O 0.11085 0.24856 0.63301 0.0
O146 O 0.13124 0.27011 0.59172 0.0
O147 O 0.10877 0.22582 0.58333 0.0
H148 H 0.0676 0.25891 0.62894 0.0
H149 H 0.02075 0.25255 0.6379 0.0
H150 H 0.99653 0.17005 0.65903 0.0
H151 H 0.04431 0.17765 0.6512 0.0
H152 H 0.1941 0.18786 0.66031 0.0
H153 H 0.16186 0.20045 0.64399 0.0
H154 H 0.26527 0.24322 0.62645 0.0
H155 H 0.23349 0.25595 0.61049 0.0
H156 H 0.18905 0.28708 0.53474 0.0
H157 H 0.10348 0.27206 0.52183 0.0
H158 H 0.08721 0.25487 0.55168 0.0
H159 H 0.17251 0.27007 0.56509 0.0
C160 C 0.7812 0.83701 0.64433 0.0
C161 C 0.78651 0.82182 0.63137 0.0
C162 C 0.79561 0.79556 0.65421 0.0
C163 C 0.79354 0.80117 0.63628 0.0
C164 C 0.78847 0.80958 0.66703 0.0
C165 C 0.78142 0.8301 0.66213 0.0
U166 U 0.76509 0.88395 0.61306 0.0
O167 O 0.74765 0.91189 0.61969 0.0
O168 O 0.79155 0.92984 0.6087 0.0
C169 C 0.77185 0.93496 0.61524 0.0
C170 C 0.77862 0.86204 0.63989 0.0
C171 C 0.78275 0.96026 0.62666 0.0
C172 C 0.78643 0.98406 0.65461 0.0
C173 C 0.7774 0.95899 0.64493 0.0
C174 C 0.80698 0.01155 0.62803 0.0
C175 C 0.80071 0.01057 0.64609 0.0
C176 C 0.79802 0.98679 0.61847 0.0
C177 C 0.7404 0.85738 0.56475 0.0
C178 C 0.7321 0.88144 0.54019 0.0
C179 C 0.72878 0.83614 0.53559 0.0
C180 C 0.73528 0.83525 0.55336 0.0
C181 C 0.72731 0.85929 0.5287 0.0
C182 C 0.7388 0.88058 0.55809 0.0
C183 C 0.74809 0.85553 0.58327 0.0
O184 O 0.79765 0.8798 0.62851 0.0
O185 O 0.75236 0.85801 0.63742 0.0
O186 O 0.72995 0.85373 0.59563 0.0
O187 O 0.77543 0.87195 0.58761 0.0
H188 H 0.78633 0.8267 0.61753 0.0
H189 H 0.79867 0.79054 0.6261 0.0
H190 H 0.78912 0.8052 0.68091 0.0
H191 H 0.77722 0.84139 0.67234 0.0
H192 H 0.78127 0.98267 0.66851 0.0
H193 H 0.76574 0.93876 0.6516 0.0
H194 H 0.81815 0.03163 0.62113 0.0
H195 H 0.80243 0.98837 0.60444 0.0
H196 H 0.7308 0.89941 0.53531 0.0
H197 H 0.7243 0.81833 0.52729 0.0
H198 H 0.73626 0.8171 0.55823 0.0
H199 H 0.74271 0.89793 0.56667 0.0
C200 C 0.05694 0.84072 0.64104 0.0
C201 C 0.03987 0.81907 0.62904 0.0
C202 C 1.00364 0.79317 0.65201 0.0
C203 C 1.01348 0.79542 0.63451 0.0
C204 C 0.02067 0.81495 0.66387 0.0
C205 C 0.04701 0.83832 0.65846 0.0
U206 U 0.1233 0.88915 0.61025 0.0
O207 O 0.14768 0.93578 0.60875 0.0
O208 O 0.16956 0.91324 0.61802 0.0
C209 C 0.17187 0.93791 0.61475 0.0
C210 C 0.08523 0.86591 0.63618 0.0
C211 C 0.18996 0.96179 0.62683 0.0
C212 C 0.19905 0.98811 0.65442 0.0
C213 C 0.18149 0.96394 0.64408 0.0
C214 C 0.23369 0.00781 0.63054 0.0
C215 C 0.22515 0.0105 0.64759 0.0
C216 C 0.21641 0.98379 0.62036 0.0
C217 C 0.1235 0.8633 0.56147 0.0
C218 C 0.15313 0.88683 0.53546 0.0
C219 C 0.11949 0.83646 0.53497 0.0
C220 C 0.11124 0.83763 0.5523 0.0
C221 C 0.14034 0.86099 0.5262 0.0
C222 C 0.14461 0.88803 0.55292 0.0
C223 C 0.11271 0.86293 0.57961 0.0
O224 O 0.10734 0.8619 0.63391 0.0
O225 O 0.08481 0.88377 0.62468 0.0
O226 O 0.10466 0.8814 0.58343 0.0
O227 O 0.1259 0.85828 0.59276 0.0
H228 H 0.04695 0.82042 0.61551 0.0
H229 H 1.00065 0.779 0.62507 0.0
H230 H 1.01366 0.81375 0.6774 0.0
H231 H 0.05976 0.85463 0.66799 0.0
H232 H 0.19183 0.98971 0.66747 0.0
H233 H 0.16117 0.94727 0.64939 0.0
H234 H 0.25361 0.02468 0.62493 0.0
H235 H 0.2235 0.98269 0.60715 0.0
H236 H 0.16945 0.90608 0.52913 0.0
H237 H 0.10977 0.81612 0.52847 0.0
H238 H 0.09502 0.81825 0.55859 0.0
H239 H 0.15442 0.90814 0.55968 0.0
C240 C 0.89886 0.50491 0.73267 0.0
C241 C 0.89812 0.52343 0.74521 0.0
C242 C 0.88612 0.54747 0.72216 0.0
C243 C 0.89196 0.54464 0.73997 0.0
C244 C 0.88787 0.52944 0.70968 0.0
C245 C 0.89412 0.50847 0.71488 0.0
U246 U 0.91787 0.45957 0.76425 0.0
O247 O 0.89558 0.41319 0.76659 0.0
O248 O 0.94077 0.43649 0.75756 0.0
C249 C 0.918 0.41161 0.76092 0.0
C250 C 0.90308 0.4809 0.73756 0.0
C251 C 0.91177 0.38801 0.74879 0.0
C252 C 0.89202 0.36126 0.72159 0.0
C253 C 0.89991 0.38552 0.73185 0.0
C254 C 0.90817 0.34214 0.74496 0.0
C255 C 0.89557 0.33909 0.72825 0.0
C256 C 0.91629 0.36635 0.75505 0.0
C257 C 0.94082 0.48451 0.81307 0.0
C258 C 0.94945 0.46027 0.83742 0.0
C259 C 0.95816 0.50777 0.84142 0.0
C260 C 0.94949 0.50798 0.82403 0.0
C261 C 0.95846 0.48404 0.84839 0.0
C262 C 0.94071 0.46051 0.81989 0.0
C263 C 0.93177 0.48608 0.7948 0.0
O264 O 0.92983 0.4866 0.74045 0.0
O265 O 0.88432 0.46226 0.74872 0.0
O266 O 0.90506 0.46738 0.79031 0.0
O267 O 0.95071 0.49118 0.7822 0.0
H268 H 0.90181 0.52118 0.75903 0.0
H269 H 0.89097 0.5583 0.7499 0.0
H270 H 0.88421 0.53144 0.69582 0.0
H271 H 0.89478 0.49461 0.70495 0.0
H272 H 0.88223 0.35935 0.70876 0.0
H273 H 0.89615 0.40195 0.72676 0.0
H274 H 0.91126 0.32547 0.75037 0.0
H275 H 0.92544 0.36779 0.76804 0.0
H276 H 0.94904 0.44149 0.84239 0.0
H277 H 0.96528 0.52656 0.84933 0.0
H278 H 0.94972 0.5267 0.81908 0.0
H279 H 0.93393 0.44206 0.81169 0.0
C280 C 0.63533 0.51679 0.73163 0.0
C281 C 0.64821 0.5426 0.7408 0.0
C282 C 0.68929 0.56315 0.7201 0.0
C283 C 0.67493 0.56554 0.73508 0.0
C284 C 0.67644 0.53713 0.71124 0.0
C285 C 0.64986 0.51438 0.71689 0.0
U286 U 0.56777 0.46709 0.76179 0.0
O287 O 0.52198 0.4417 0.75308 0.0
O288 O 0.54504 0.4205 0.76283 0.0
C289 C 0.52063 0.4175 0.75659 0.0
C290 C 0.60656 0.4921 0.73641 0.0
C291 C 0.5026 0.39256 0.74523 0.0
C292 C 0.48928 0.36641 0.71738 0.0
C293 C 0.50675 0.39157 0.72695 0.0
C294 C 0.46329 0.34355 0.74411 0.0
C295 C 0.46756 0.3419 0.72597 0.0
C296 C 0.4805 0.36839 0.75353 0.0
C297 C 0.56714 0.48866 0.81183 0.0
C298 C 0.52973 0.47646 0.83434 0.0
C299 C 0.58038 0.50517 0.84213 0.0
C300 C 0.58825 0.50328 0.8248 0.0
C301 C 0.55104 0.49253 0.84706 0.0
C302 C 0.53768 0.47468 0.81682 0.0
C303 C 0.57721 0.49079 0.79326 0.0
O304 O 0.60643 0.47324 0.74725 0.0
O305 O 0.58479 0.49653 0.73912 0.0
O306 O 0.56279 0.49506 0.78067 0.0
O307 O 0.58708 0.47413 0.78844 0.0
H308 H 0.6376 0.54506 0.75226 0.0
H309 H 0.68444 0.58512 0.74243 0.0
H310 H 0.68671 0.53452 0.69965 0.0
H311 H 0.6404 0.49479 0.70954 0.0
H312 H 0.4933 0.3659 0.70343 0.0
H313 H 0.52363 0.40995 0.72018 0.0
H314 H 0.44659 0.32538 0.75115 0.0
H315 H 0.47669 0.36859 0.76755 0.0
H316 H 0.50693 0.46636 0.83773 0.0
H317 H 0.59735 0.51729 0.85162 0.0
H318 H 0.61108 0.51416 0.82137 0.0
H319 H 0.52089 0.46313 0.80713 0.0
C320 C 0.51472 0.12703 0.73228 0.0
C321 C 0.49343 0.1245 0.7443 0.0
C322 C 0.46856 0.13553 0.72091 0.0
C323 C 0.47048 0.12858 0.73864 0.0
C324 C 0.48956 0.13734 0.70896 0.0
C325 C 0.51217 0.13302 0.71455 0.0
U326 U 0.56527 0.11244 0.76369 0.0
O327 O 0.5926 0.09428 0.75622 0.0
O328 O 0.61311 0.13791 0.7658 0.0
C329 C 0.61703 0.11747 0.75999 0.0
C330 C 0.54072 0.12523 0.73761 0.0
C331 C 0.6429 0.12515 0.74878 0.0
C332 C 0.66873 0.13586 0.72057 0.0
C333 C 0.6439 0.13017 0.73049 0.0
C334 C 0.69166 0.13168 0.74706 0.0
C335 C 0.69276 0.13627 0.72875 0.0
C336 C 0.6672 0.12635 0.7569 0.0
C337 C 0.5405 0.08475 0.8122 0.0
C338 C 0.56789 0.08553 0.83837 0.0
C339 C 0.51547 0.05787 0.83854 0.0
C340 C 0.51479 0.06645 0.82122 0.0
C341 C 0.54195 0.06732 0.84747 0.0
C342 C 0.56717 0.09418 0.8209 0.0
C343 C 0.53816 0.09448 0.79423 0.0
O344 O 0.55836 0.14367 0.74922 0.0
O345 O 0.53748 0.09996 0.73988 0.0
O346 O 0.53454 0.07758 0.781 0.0
O347 O 0.55544 0.12131 0.79035 0.0
H348 H 0.49486 0.11996 0.75806 0.0
H349 H 0.45485 0.1273 0.74825 0.0
H350 H 0.4887 0.14248 0.69524 0.0
H351 H 0.52819 0.13503 0.705 0.0
H352 H 0.66883 0.13908 0.70646 0.0
H353 H 0.62542 0.12929 0.72387 0.0
H354 H 0.70976 0.13191 0.75378 0.0
H355 H 0.66708 0.1226 0.77095 0.0
H356 H 0.58869 0.09355 0.84483 0.0
H357 H 0.49509 0.04356 0.84495 0.0
H358 H 0.49395 0.05893 0.81487 0.0
H359 H 0.58736 0.10843 0.81429 0.0
C360 C 0.72651 0.55284 0.97537 0.0
C361 C 0.71339 0.56555 0.96577 0.0
C362 C 0.67269 0.54718 0.9868 0.0
C363 C 0.68682 0.56281 0.97146 0.0
C364 C 0.68612 0.53474 0.99632 0.0
C365 C 0.71251 0.5375 0.99068 0.0
U366 U 0.79428 0.56869 0.94534 0.0
O367 O 0.84006 0.58777 0.95396 0.0
O368 O 0.81669 0.54386 0.94475 0.0
C369 C 0.84129 0.5648 0.9507 0.0
C370 C 0.75498 0.5555 0.97048 0.0
C371 C 0.86029 0.55823 0.96189 0.0
C372 C 0.87331 0.54254 0.98904 0.0
C373 C 0.85377 0.54791 0.97934 0.0
C374 C 0.90575 0.55762 0.96402 0.0
C375 C 0.89975 0.54764 0.98149 0.0
C376 C 0.88635 0.56273 0.95441 0.0
C377 C 0.79657 0.59541 0.89591 0.0
C378 C 0.82907 0.60472 0.8708 0.0
C379 C 0.78898 0.61338 0.86806 0.0
C380 C 0.78096 0.60451 0.88552 0.0
C381 C 0.81295 0.6134 0.86031 0.0
C382 C 0.82084 0.59562 0.88842 0.0
C383 C 0.78605 0.58567 0.91422 0.0
O384 O 0.75466 0.53705 0.9593 0.0
O385 O 0.77741 0.58101 0.96821 0.0
O386 O 0.7998 0.60299 0.92731 0.0
O387 O 0.77664 0.55906 0.91823 0.0
H388 H 0.72366 0.5776 0.95394 0.0
H389 H 0.67716 0.5727 0.96376 0.0
H390 H 0.67643 0.52315 1.00838 0.0
H391 H 0.72221 0.52773 0.99846 0.0
H392 H 0.86807 0.53502 1.0025 0.0
H393 H 0.83381 0.54421 0.98546 0.0
H394 H 0.92567 0.56154 0.95771 0.0
H395 H 0.89191 0.57047 0.94099 0.0
H396 H 0.84785 0.60476 0.86533 0.0
H397 H 0.77661 0.62075 0.86069 0.0
H398 H 0.76232 0.6048 0.89097 0.0
H399 H 0.83336 0.58878 0.89613 0.0
C400 C 0.44003 0.15768 0.97519 0.0
C401 C 0.44194 0.13904 0.96339 0.0
C402 C 0.4542 0.11765 0.9878 0.0
C403 C 0.44888 0.11899 0.9697 0.0
C404 C 0.45155 0.13606 0.99948 0.0
C405 C 0.44431 0.15568 0.99324 0.0
U406 U 0.43091 0.21535 0.94759 0.0
O407 O 0.41627 0.24162 0.96117 0.0
O408 O 0.46217 0.26041 0.95228 0.0
C409 C 0.44254 0.26384 0.96054 0.0
C410 C 0.43793 0.18213 0.96939 0.0
C411 C 0.44912 0.29119 0.96781 0.0
C412 C 0.45006 0.31965 0.99261 0.0
C413 C 0.44114 0.29315 0.98516 0.0
C414 C 0.4746 0.34218 0.96533 0.0
C415 C 0.46668 0.34436 0.98266 0.0
C416 C 0.46593 0.31582 0.95798 0.0
C417 C 0.40848 0.19842 0.8957 0.0
C418 C 0.37922 0.19928 0.87129 0.0
C419 C 0.41352 0.1832 0.86646 0.0
C420 C 0.42185 0.18836 0.88421 0.0
C421 C 0.39184 0.18829 0.85986 0.0
C422 C 0.38734 0.20413 0.88906 0.0
C423 C 0.41729 0.20396 0.91438 0.0
O424 O 0.45883 0.20098 0.95938 0.0
O425 O 0.41241 0.17975 0.96665 0.0
O426 O 0.39777 0.19782 0.92681 0.0
O427 O 0.44434 0.21557 0.9198 0.0
H428 H 0.43904 0.14059 0.94937 0.0
H429 H 0.45077 0.10502 0.9604 0.0
H430 H 0.45638 0.13623 1.01338 0.0
H431 H 0.44349 0.17034 1.00247 0.0
H432 H 0.44374 0.32086 1.006 0.0
H433 H 0.42863 0.27427 0.99305 0.0
H434 H 0.4877 0.36095 0.95747 0.0
H435 H 0.47253 0.31467 0.94465 0.0
H436 H 0.36245 0.20337 0.86659 0.0
H437 H 0.4239 0.17511 0.85791 0.0
H438 H 0.43848 0.18414 0.88902 0.0
H439 H 0.3771 0.21239 0.89761 0.0
C440 C 0.72333 0.17366 0.97399 0.0
C441 C 0.70809 0.14958 0.96336 0.0
C442 C 0.67056 0.12659 0.98611 0.0
C443 C 0.68198 0.12624 0.96938 0.0
C444 C 0.68567 0.15095 0.9965 0.0
C445 C 0.71176 0.17408 0.99054 0.0
U446 U 0.78799 0.22166 0.94195 0.0
O447 O 0.8108 0.26816 0.9397 0.0
O448 O 0.83438 0.24731 0.94909 0.0
C449 C 0.83552 0.27141 0.94555 0.0
C450 C 0.75143 0.19854 0.96859 0.0
C451 C 0.85315 0.296 0.95721 0.0
C452 C 0.86984 0.31893 0.9859 0.0
C453 C 0.85177 0.29471 0.97575 0.0
C454 C 0.89055 0.34566 0.95912 0.0
C455 C 0.88962 0.34476 0.97766 0.0
C456 C 0.87265 0.32171 0.9491 0.0
C457 C 0.78729 0.19843 0.89267 0.0
C458 C 0.82589 0.2123 0.87081 0.0
C459 C 0.77579 0.18235 0.8622 0.0
C460 C 0.76691 0.18351 0.87939 0.0
C461 C 0.8054 0.1962 0.8577 0.0
C462 C 0.81693 0.21334 0.88816 0.0
C463 C 0.77662 0.19595 0.91109 0.0
O464 O 0.77327 0.19432 0.96562 0.0
O465 O 0.75037 0.21632 0.95732 0.0
O466 O 0.76697 0.21285 0.91575 0.0
O467 O 0.79123 0.19202 0.92371 0.0
H468 H 0.71643 0.14875 0.9505 0.0
H469 H 0.67066 0.10791 0.96096 0.0
H470 H 0.67761 0.15186 1.00944 0.0
H471 H 0.72311 0.19236 0.99901 0.0
H472 H 0.86876 0.31729 1.00014 0.0
H473 H 0.83697 0.27507 0.98235 0.0
H474 H 0.90517 0.3651 0.95226 0.0
H475 H 0.8742 0.32328 0.93485 0.0
H476 H 0.84888 0.223 0.86788 0.0
H477 H 0.75943 0.16991 0.85246 0.0
H478 H 0.74394 0.17188 0.88248 0.0
H479 H 0.83315 0.22504 0.89812 0.0
C480 C 0.56633 0.83701 0.06698 0.0
C481 C 0.56459 0.85519 0.07934 0.0
C482 C 0.55426 0.87955 0.05572 0.0
C483 C 0.55876 0.87642 0.07374 0.0
C484 C 0.55696 0.86184 0.04346 0.0
C485 C 0.5629 0.84086 0.04903 0.0
U486 U 0.58459 0.79144 0.09887 0.0
O487 O 0.56208 0.74505 0.10076 0.0
O488 O 0.60754 0.76843 0.09219 0.0
C489 C 0.58447 0.74351 0.09496 0.0
C490 C 0.57026 0.81299 0.07214 0.0
C491 C 0.57833 0.72094 0.08203 0.0
C492 C 0.55216 0.69172 0.0567 0.0
C493 C 0.55993 0.71544 0.06741 0.0
C494 C 0.58207 0.67962 0.07459 0.0
C495 C 0.56296 0.67343 0.06033 0.0
C496 C 0.58958 0.70304 0.08532 0.0
C497 C 0.60792 0.81673 0.14773 0.0
C498 C 0.61502 0.79279 0.17288 0.0
C499 C 0.62731 0.84165 0.17538 0.0
C500 C 0.61863 0.84126 0.15794 0.0
C501 C 0.62547 0.81745 0.18317 0.0
C502 C 0.60612 0.79237 0.1553 0.0
C503 C 0.59862 0.81779 0.12945 0.0
O504 O 0.59693 0.81855 0.07512 0.0
O505 O 0.55134 0.79458 0.08333 0.0
O506 O 0.57189 0.79897 0.12504 0.0
O507 O 0.61751 0.82295 0.11682 0.0
H508 H 0.56727 0.85269 0.09328 0.0
H509 H 0.55703 0.88991 0.08349 0.0
H510 H 0.55437 0.86416 0.02948 0.0
H511 H 0.56437 0.82724 0.03925 0.0
H512 H 0.53747 0.68745 0.04573 0.0
H513 H 0.55103 0.72901 0.06457 0.0
H514 H 0.5904 0.66571 0.07784 0.0
H515 H 0.60359 0.70671 0.09658 0.0
H516 H 0.61364 0.77389 0.17845 0.0
H517 H 0.6361 0.86123 0.18268 0.0
H518 H 0.62039 0.86034 0.15236 0.0
H519 H 0.59796 0.77318 0.14765 0.0
C520 C 0.29765 0.84871 0.06282 0.0
C521 C 0.31543 0.8707 0.07442 0.0
C522 C 0.35303 0.89283 0.05164 0.0
C523 C 0.34286 0.89263 0.06885 0.0
C524 C 0.33473 0.87115 0.04003 0.0
C525 C 0.30741 0.84949 0.04554 0.0
U526 U 0.23438 0.80002 0.0954 0.0
O527 O 0.18793 0.77231 0.08891 0.0
O528 O 0.21383 0.75376 0.09812 0.0
C529 C 0.18836 0.74902 0.09267 0.0
C530 C 0.26982 0.82367 0.06836 0.0
C531 C 0.1711 0.72368 0.08154 0.0
C532 C 0.15887 0.69732 0.05383 0.0
C533 C 0.17598 0.72251 0.0634 0.0
C534 C 0.13225 0.67454 0.08042 0.0
C535 C 0.1367 0.67293 0.06227 0.0
C536 C 0.1491 0.69947 0.08983 0.0
C537 C 0.2361 0.82362 0.14466 0.0
C538 C 0.19856 0.81032 0.16716 0.0
C539 C 0.24915 0.83915 0.17511 0.0
C540 C 0.25717 0.83795 0.1577 0.0
C541 C 0.21977 0.82591 0.18003 0.0
C542 C 0.20664 0.80925 0.1496 0.0
C543 C 0.24596 0.82625 0.12605 0.0
O544 O 0.27167 0.80618 0.0795 0.0
O545 O 0.24768 0.82731 0.07163 0.0
O546 O 0.2301 0.82897 0.11372 0.0
O547 O 0.25672 0.81036 0.12118 0.0
H548 H 0.30845 0.87055 0.08784 0.0
H549 H 0.35653 0.90882 0.0782 0.0
H550 H 0.34177 0.87073 0.0267 0.0
H551 H 0.29412 0.83281 0.03635 0.0
H552 H 0.16269 0.69708 0.03983 0.0
H553 H 0.19286 0.74096 0.05668 0.0
H554 H 0.11574 0.65629 0.08748 0.0
H555 H 0.14495 0.69976 0.1038 0.0
H556 H 0.17572 0.80013 0.17046 0.0
H557 H 0.26602 0.85121 0.18467 0.0
H558 H 0.28 0.84917 0.15428 0.0
H559 H 0.1899 0.79801 0.13983 0.0
C560 C 0.1817 0.46522 0.0668 0.0
C561 C 0.15534 0.45185 0.07618 0.0
C562 C 0.13317 0.46988 0.0551 0.0
C563 C 0.13134 0.45412 0.07037 0.0
C564 C 0.1597 0.48338 0.04595 0.0
C565 C 0.18348 0.48097 0.05167 0.0
U566 U 0.23252 0.44863 0.09705 0.0
O567 O 0.25951 0.43062 0.08841 0.0
O568 O 0.28041 0.47368 0.099 0.0
C569 C 0.28405 0.45335 0.09268 0.0
C570 C 0.2076 0.46285 0.07183 0.0
C571 C 0.31057 0.46116 0.08203 0.0
C572 C 0.33799 0.4721 0.05443 0.0
C573 C 0.31243 0.46591 0.0637 0.0
C574 C 0.36009 0.46928 0.08166 0.0
C575 C 0.3622 0.47395 0.06335 0.0
C576 C 0.33469 0.46295 0.09082 0.0
C577 C 0.20889 0.41916 0.14545 0.0
C578 C 0.2367 0.41807 0.17092 0.0
C579 C 0.18427 0.39199 0.17181 0.0
C580 C 0.18331 0.40126 0.15471 0.0
C581 C 0.21089 0.40029 0.18028 0.0
C582 C 0.23571 0.42745 0.15368 0.0
C583 C 0.20623 0.42964 0.12775 0.0
O584 O 0.22562 0.48076 0.08353 0.0
O585 O 0.20409 0.43739 0.07361 0.0
O586 O 0.2021 0.41322 0.11415 0.0
O587 O 0.22354 0.45657 0.12418 0.0
H588 H 0.15326 0.4396 0.08791 0.0
H589 H 0.11139 0.44373 0.07791 0.0
H590 H 0.16192 0.49548 0.03412 0.0
H591 H 0.20341 0.49134 0.0441 0.0
H592 H 0.33888 0.47548 0.04031 0.0
H593 H 0.29417 0.46462 0.05657 0.0
H594 H 0.37797 0.46991 0.08889 0.0
H595 H 0.33377 0.45907 0.10489 0.0
H596 H 0.25763 0.42517 0.17702 0.0
H597 H 0.16396 0.37805 0.17841 0.0
H598 H 0.16236 0.39458 0.14874 0.0
H599 H 0.25582 0.44137 0.14688 0.0
C600 C 0.39586 0.8925 0.30876 0.0
C601 C 0.37694 0.89495 0.29682 0.0
C602 C 0.3411 0.88388 0.32037 0.0
C603 C 0.34985 0.89082 0.30261 0.0
C604 C 0.36051 0.88223 0.33223 0.0
C605 C 0.38748 0.88662 0.32652 0.0
U606 U 0.4608 0.90403 0.27753 0.0
O607 O 0.5072 0.92312 0.28477 0.0
O608 O 0.48209 0.87823 0.2777 0.0
C609 C 0.5073 0.89929 0.28282 0.0
C610 C 0.42361 0.89412 0.30342 0.0
C611 C 0.52593 0.89335 0.29485 0.0
C612 C 0.53465 0.86185 0.31385 0.0
C613 C 0.51531 0.86861 0.30521 0.0
C614 C 0.57522 0.90493 0.3026 0.0
C615 C 0.56497 0.87946 0.3121 0.0
C616 C 0.55608 0.9116 0.29405 0.0
C617 C 0.46288 0.92679 0.22771 0.0
C618 C 0.50222 0.94944 0.20619 0.0
C619 C 0.45284 0.93375 0.19726 0.0
C620 C 0.44323 0.92374 0.21437 0.0
C621 C 0.48248 0.94705 0.19292 0.0
C622 C 0.49252 0.93936 0.22343 0.0
C623 C 0.45161 0.91883 0.24601 0.0
O624 O 0.42191 0.87448 0.29276 0.0
O625 O 0.44623 0.91916 0.3002 0.0
O626 O 0.46603 0.93699 0.25861 0.0
O627 O 0.44126 0.89241 0.25091 0.0
H628 H 0.38278 0.8994 0.28303 0.0
H629 H 0.3353 0.89199 0.29308 0.0
H630 H 0.35457 0.87706 0.34596 0.0
H631 H 0.40161 0.88466 0.33601 0.0
H632 H 0.5259 0.84224 0.3212 0.0
H633 H 0.49217 0.85405 0.30614 0.0
H634 H 0.5983 0.91952 0.30134 0.0
H635 H 0.56502 0.93071 0.28615 0.0
H636 H 0.52522 0.95966 0.20333 0.0
H637 H 0.43707 0.93226 0.18764 0.0
H638 H 0.42034 0.91448 0.21735 0.0
H639 H 0.50819 0.94206 0.23347 0.0
C640 C 0.11332 0.50425 0.31313 0.0
C641 C 0.1142 0.48585 0.30061 0.0
C642 C 0.12585 0.46178 0.32375 0.0
C643 C 0.12039 0.46476 0.30588 0.0
C644 C 0.12381 0.47959 0.33625 0.0
C645 C 0.11771 0.50062 0.33097 0.0
U646 U 0.09719 0.55037 0.28075 0.0
O647 O 0.07521 0.57459 0.28667 0.0
O648 O 0.12091 0.59672 0.27853 0.0
C649 C 0.0989 0.59911 0.28409 0.0
C650 C 0.1098 0.5285 0.30806 0.0
C651 C 0.10556 0.62185 0.29702 0.0
C652 C 0.13463 0.65297 0.32104 0.0
C653 C 0.12571 0.6285 0.31082 0.0
C654 C 0.10234 0.66344 0.30439 0.0
C655 C 0.12365 0.67112 0.31752 0.0
C656 C 0.09342 0.63912 0.29428 0.0
C657 C 0.07701 0.52666 0.23162 0.0
C658 C 0.06391 0.54894 0.20819 0.0
C659 C 0.06865 0.50815 0.20172 0.0
C660 C 0.07573 0.50698 0.21935 0.0
C661 C 0.06276 0.52918 0.19584 0.0
C662 C 0.07113 0.54778 0.22594 0.0
C663 C 0.08434 0.52411 0.25013 0.0
O664 O 0.12937 0.54699 0.2972 0.0
O665 O 0.08336 0.52315 0.30449 0.0
O666 O 0.06482 0.51968 0.26221 0.0
O667 O 0.11099 0.54189 0.25523 0.0
H668 H 0.11073 0.48817 0.28676 0.0
H669 H 0.12127 0.451 0.29598 0.0
H670 H 0.12797 0.47792 0.35006 0.0
H671 H 0.11719 0.51462 0.34084 0.0
H672 H 0.15121 0.6585 0.33101 0.0
H673 H 0.13538 0.61547 0.3132 0.0
H674 H 0.09353 0.67704 0.30139 0.0
H675 H 0.07791 0.63449 0.28374 0.0
H676 H 0.0592 0.56521 0.20412 0.0
H677 H 0.06702 0.49204 0.19277 0.0
H678 H 0.07992 0.49036 0.22347 0.0
H679 H 0.07193 0.56317 0.2352 0.0
C680 C 0.39204 0.50542 0.30806 0.0
C681 C 0.3725 0.48512 0.29612 0.0
C682 C 0.33807 0.4601 0.3201 0.0
C683 C 0.34577 0.46257 0.30211 0.0
C684 C 0.358 0.48017 0.33195 0.0
C685 C 0.38465 0.50241 0.32601 0.0
U686 U 0.45492 0.55496 0.27545 0.0
O687 O 0.47588 0.60135 0.27312 0.0
O688 O 0.50129 0.58217 0.28216 0.0
C689 C 0.50111 0.60569 0.27877 0.0
C690 C 0.41946 0.53083 0.30241 0.0
C691 C 0.51818 0.63053 0.29036 0.0
C692 C 0.53887 0.65314 0.31868 0.0
C693 C 0.52035 0.62875 0.30879 0.0
C694 C 0.55239 0.68111 0.29193 0.0
C695 C 0.55565 0.67952 0.31023 0.0
C696 C 0.53409 0.65701 0.28217 0.0
C697 C 0.45414 0.53182 0.22621 0.0
C698 C 0.49268 0.54689 0.20422 0.0
C699 C 0.4429 0.51435 0.19603 0.0
C700 C 0.43391 0.51563 0.21316 0.0
C701 C 0.47245 0.52939 0.1914 0.0
C702 C 0.48363 0.54802 0.22151 0.0
C703 C 0.4437 0.52911 0.24468 0.0
O704 O 0.44191 0.52767 0.29918 0.0
O705 O 0.41722 0.54808 0.29124 0.0
O706 O 0.43323 0.54531 0.24944 0.0
O707 O 0.45908 0.52598 0.25714 0.0
H708 H 0.37762 0.48702 0.28219 0.0
H709 H 0.33073 0.44763 0.29262 0.0
H710 H 0.35278 0.47881 0.34585 0.0
H711 H 0.39933 0.51775 0.33547 0.0
H712 H 0.54081 0.65124 0.33277 0.0
H713 H 0.50823 0.60855 0.31546 0.0
H714 H 0.56449 0.7011 0.28503 0.0
H715 H 0.53283 0.65901 0.26802 0.0
H716 H 0.51563 0.55856 0.20114 0.0
H717 H 0.42676 0.50083 0.18648 0.0
H718 H 0.41106 0.50301 0.21641 0.0
H719 H 0.4997 0.56074 0.23131 0.0
Eu720 Eu 0.50666 0.99404 0.99895 0.0
C721 C 0.56948 0.08793 0.05087 0.0
C722 C 0.61827 0.09516 0.05006 0.0
C723 C 0.61129 0.13496 0.05553 0.0
C724 C 0.58784 0.07702 0.04881 0.0
C725 C 0.58113 0.11694 0.05474 0.0
C726 C 0.62982 0.12412 0.05312 0.0
C727 C 0.5324 0.10803 0.05876 0.0
N728 N 0.54031 0.07007 0.0502 0.0
C729 C 0.52188 0.07954 0.05503 0.0
C730 C 0.56215 0.12692 0.05836 0.0
Eu731 Eu 0.52416 0.02161 0.04393 0.0
N732 N 0.57614 0.04875 0.04619 0.0
C733 C 0.59406 0.03751 0.04541 0.0
C734 C 0.63638 0.08367 0.04854 0.0
C735 C 0.62418 0.0547 0.04633 0.0
H736 H 0.49879 0.06509 0.05612 0.0
H737 H 0.63799 0.04553 0.04521 0.0
H738 H 0.65307 0.13822 0.05405 0.0
H739 H 0.51754 0.1153 0.0622 0.0
H740 H 0.58592 0.0155 0.0433 0.0
H741 H 0.39668 0.97781 1.00139 0.0
H742 H 0.65977 0.09692 0.0493 0.0
H743 H 0.52906 0.95092 0.98377 0.0
H744 H 0.44991 1.00501 1.0027 0.0
H745 H 0.50785 0.90118 0.97405 0.0
H746 H 0.62052 0.15724 0.0584 0.0
H747 H 0.37151 0.9267 0.99466 0.0
H748 H 0.37483 0.88393 0.98668 0.0
H749 H 0.57029 0.14897 0.06146 0.0
H750 H 0.40502 0.86303 0.97939 0.0
N751 N 0.45529 0.96979 0.99734 0.0
C752 C 0.43942 0.98283 0.99984 0.0
C753 C 0.395 0.9386 0.99526 0.0
C754 C 0.4114 0.9256 0.99196 0.0
C755 C 0.40911 0.96743 0.99905 0.0
C756 C 0.44195 0.942 0.99305 0.0
H757 H 0.45456 0.8694 0.97436 0.0
N758 N 0.48822 0.94667 0.99007 0.0
C759 C 0.49385 0.90897 0.97846 0.0
C760 C 0.45891 0.93009 0.98931 0.0
C761 C 0.50578 0.93698 0.98402 0.0
C762 C 0.46376 0.89109 0.97866 0.0
C763 C 0.44585 0.90167 0.98389 0.0
O764 O 0.53398 1.00633 0.97536 0.0
O765 O 0.54028 0.02859 1.01588 0.0
O766 O 0.4994 0.04032 0.03016 0.0
O767 O 0.50567 0.03475 1.00047 0.0
O768 O 0.55367 1.00619 1.00006 0.0
O769 O 0.49306 1.0049 0.97402 0.0
O770 O 0.49592 0.01813 0.06572 0.0
O771 O 0.48751 0.99438 0.02526 0.0
O772 O 0.51432 0.96283 1.01525 0.0
O773 O 0.53713 0.98815 0.04085 0.0
O774 O 0.48907 0.97663 0.04907 0.0
O775 O 0.5339 0.01423 0.07102 0.0
C776 C 0.56239 0.02793 1.01021 0.0
C777 C 0.51332 1.00027 0.94697 0.0
C778 C 0.52356 0.01078 0.91539 0.0
C779 C 0.52363 0.01991 0.93283 0.0
C780 C 0.51287 0.98188 0.91237 0.0
C781 C 0.5021 0.97151 0.94342 0.0
C782 C 0.50204 0.96244 0.92625 0.0
C783 C 0.4993 0.04679 1.01333 0.0
C784 C 0.51638 0.01018 0.96542 0.0
C785 C 0.41544 0.885 0.98332 0.0
C786 C 0.39825 0.89692 0.98742 0.0
C787 C 0.47422 0.97248 0.03493 0.0
C788 C 0.51073 0.02211 0.09591 0.0
C789 C 0.50981 1.00472 0.11006 0.0
C790 C 0.50694 0.01142 0.12765 0.0
C791 C 0.50522 0.03587 0.13078 0.0
C792 C 0.50881 0.04624 0.09951 0.0
C793 C 0.50616 0.05307 0.11684 0.0
C794 C 0.52864 0.96613 0.03028 0.0
C795 C 0.51064 0.01308 0.07753 0.0
H796 H 0.53213 0.04218 0.9354 0.0
H797 H 0.51234 0.97425 0.89913 0.0
H798 H 0.49364 0.95608 0.95392 0.0
H799 H 0.49357 0.9402 0.92368 0.0
H800 H 0.51095 0.98587 0.10733 0.0
H801 H 0.50246 0.0414 0.14405 0.0
H802 H 0.5088 0.05956 0.08896 0.0
H803 H 0.50437 0.07157 0.11948 0.0
Eu804 Eu 0.03211 0.51481 0.99956 0.0
C805 C 0.93056 0.48092 0.0537 0.0
C806 C 0.92451 0.52194 0.05204 0.0
C807 C 0.88401 0.4766 0.061 0.0
C808 C 0.942 0.50942 0.05023 0.0
C809 C 0.90163 0.46437 0.05957 0.0
C810 C 0.89538 0.50529 0.05715 0.0
C811 C 0.91009 0.42523 0.06332 0.0
N812 N 0.94797 0.46956 0.05201 0.0
C813 C 0.93843 0.44231 0.05713 0.0
C814 C 0.89145 0.43618 0.06428 0.0
Eu815 Eu 0.99651 0.50028 0.04302 0.0
N816 N 0.97032 0.52504 0.04546 0.0
C817 C 0.98266 0.55364 0.04315 0.0
C818 C 0.93688 0.55095 0.04896 0.0
C819 C 0.96616 0.56689 0.04464 0.0
H820 H 0.95291 0.43385 0.05647 0.0
H821 H 0.97604 0.58938 0.04225 0.0
H822 H 0.88165 0.51454 0.05851 0.0
H823 H 0.9026 0.40361 0.06725 0.0
H824 H 1.00481 0.56645 0.03911 0.0
H825 H 0.05307 0.42622 0.99719 0.0
H826 H 0.92413 0.56128 0.0501 0.0
H827 H 0.07532 0.58149 0.98618 0.0
H828 H 0.02355 0.44853 1.00012 0.0
H829 H 0.12662 0.61309 0.97755 0.0
H830 H 0.86167 0.46416 0.06534 0.0
H831 H 0.10591 0.45544 0.99227 0.0
H832 H 0.14916 0.50323 0.98677 0.0
H833 H 0.86945 0.42287 0.06899 0.0
H834 H 0.16923 0.55406 0.9814 0.0
N835 N 0.05879 0.49068 0.99674 0.0
C836 C 0.0463 0.46189 0.99757 0.0
C837 C 0.09293 0.46552 0.9934 0.0
C838 C 0.10548 0.49482 0.99172 0.0
C839 C 0.06312 0.44897 0.99608 0.0
C840 C 0.0876 0.50694 0.99334 0.0
H841 H 0.16087 0.595 0.97754 0.0
N842 N 0.08092 0.54631 0.99137 0.0
C843 C 0.11919 0.5914 0.9813 0.0
C844 C 0.09898 0.53559 0.99052 0.0
C845 C 0.09025 0.57354 0.9862 0.0
C846 C 0.13846 0.58113 0.98134 0.0
C847 C 0.12839 0.55282 0.98573 0.0
O848 O 0.02233 0.53189 0.97615 0.0
O849 O 0.99427 0.51132 1.01471 0.0
O850 O 0.96538 0.46248 0.02607 0.0
O851 O 0.99447 0.46909 1.00144 0.0
O852 O 0.01777 0.54727 0.99941 0.0
O853 O 0.01922 0.49116 0.97455 0.0
O854 O 1.00924 0.48487 0.066 0.0
O855 O 0.03382 0.50328 0.02767 0.0
O856 O 0.06352 0.55174 0.0169 0.0
O857 O 0.03391 0.54611 0.04102 0.0
O858 O 1.01053 0.46741 0.04302 0.0
O859 O 1.0076 0.52314 0.0684 0.0
C860 C 0.99468 0.53334 1.0089 0.0
C861 C 0.02707 0.51724 0.9477 0.0
C862 C 0.01747 0.51176 0.9159 0.0
C863 C 1.00784 0.50394 0.93344 0.0
C864 C 0.04617 0.53338 0.91285 0.0
C865 C 0.05571 0.5385 0.9442 0.0
C866 C 0.06508 0.54664 0.9269 0.0
C867 C 0.97068 0.4536 1.01098 0.0
C868 C 0.01648 0.51049 0.96608 0.0
C869 C 0.14652 0.54109 0.98487 0.0
C870 C 0.1351 0.51215 0.98791 0.0
C871 C 0.03321 0.48102 0.03314 0.0
C872 C 1.00191 0.49638 0.09481 0.0
C873 C 0.01911 0.5116 0.10947 0.0
C874 C 1.00961 0.50173 0.12684 0.0
C875 C 0.98302 0.47661 0.12927 0.0
C876 C 0.97563 0.47126 0.09782 0.0
C877 C 0.96627 0.4615 0.11487 0.0
C878 C 0.05796 0.56113 0.03165 0.0
C879 C 1.0127 0.50501 0.07651 0.0
H880 H 0.98555 0.48773 0.93597 0.0
H881 H 0.05388 0.5402 0.89952 0.0
H882 H 0.07074 0.54915 0.95482 0.0
H883 H 0.08708 0.56341 0.92437 0.0
H884 H 0.03981 0.53067 0.10738 0.0
H885 H 0.97551 0.46824 0.1424 0.0
H886 H 0.96259 0.45868 0.08702 0.0
H887 H 0.94611 0.44186 0.11693 0.0
Eu888 Eu 0.52425 0.50256 0.04233 0.0
C889 C 0.45793 0.53579 0.98735 0.0
C890 C 0.41112 0.49304 0.98464 0.0
C891 C 0.41559 0.53851 0.97807 0.0
C892 C 0.44097 0.50673 0.98896 0.0
C893 C 0.44548 0.55193 0.98158 0.0
C894 C 0.39847 0.50911 0.97953 0.0
C895 C 0.49355 0.59305 0.98108 0.0
N896 N 0.48693 0.54812 0.99022 0.0
C897 C 0.50495 0.57611 0.98643 0.0
C898 C 0.46363 0.58097 0.97882 0.0
Eu899 Eu 0.50511 0.51811 0.99843 0.0
N900 N 0.45383 0.4917 0.99384 0.0
C901 C 0.4379 0.46279 0.99425 0.0
C902 C 0.39499 0.46353 0.98499 0.0
C903 C 0.40856 0.44835 0.98959 0.0
H904 H 0.52818 0.5854 0.98791 0.0
H905 H 0.39629 0.42548 0.99 0.0
H906 H 0.37559 0.49894 0.97629 0.0
H907 H 0.50785 0.61535 0.97852 0.0
H908 H 0.44696 0.45029 0.99879 0.0
H909 H 0.63715 0.58973 0.04588 0.0
H910 H 0.37215 0.45227 0.98157 0.0
H911 H 0.49856 0.43637 0.05709 0.0
H912 H 0.58448 0.56827 0.0452 0.0
H913 H 0.51667 0.40365 0.06416 0.0
H914 H 0.40566 0.55058 0.97371 0.0
H915 H 0.6594 0.55954 0.04759 0.0
H916 H 0.6527 0.51101 0.05117 0.0
H917 H 0.45487 0.59405 0.97442 0.0
H918 H 0.61983 0.46019 0.05635 0.0
N919 N 0.57583 0.52574 0.04533 0.0
C920 C 0.59334 0.55451 0.04558 0.0
C921 C 0.63599 0.54986 0.0471 0.0
C922 C 0.61802 0.52054 0.04827 0.0
C923 C 0.62353 0.56694 0.04615 0.0
C924 C 0.58764 0.509 0.04752 0.0
H925 H 0.56911 0.4201 0.0617 0.0
N926 N 0.54025 0.47055 0.05036 0.0
C927 C 0.53168 0.42515 0.06011 0.0
C928 C 0.56923 0.48047 0.05019 0.0
C929 C 0.52152 0.4437 0.05617 0.0
C930 C 0.56128 0.43448 0.05864 0.0
C931 C 0.58056 0.46262 0.054 0.0
O932 O 0.49787 0.48531 0.06612 0.0
O933 O 0.49053 0.506 0.02648 0.0
O934 O 0.50838 0.55243 1.01647 0.0
O935 O 0.53557 0.54889 0.03948 0.0
O936 O 0.47593 0.47071 0.04201 0.0
O937 O 0.53473 0.52735 0.06678 0.0
O938 O 0.53082 0.53872 0.97476 0.0
O939 O 0.53882 0.51471 1.01428 0.0
O940 O 0.51525 0.46458 0.0255 0.0
O941 O 0.49678 0.47335 0.99987 0.0
O942 O 0.5532 0.55066 0.99906 0.0
O943 O 0.49854 0.49453 0.97393 0.0
C944 C 0.46757 0.48429 0.03187 0.0
C945 C 0.51938 0.50213 0.09403 0.0
C946 C 0.51251 0.50352 0.12595 0.0
C947 C 0.50906 0.51073 0.10854 0.0
C948 C 0.52651 0.48781 0.12856 0.0
C949 C 0.53365 0.48685 0.0971 0.0
C950 C 0.53713 0.47972 0.11426 0.0
C951 C 0.52529 0.5628 0.03042 0.0
C952 C 0.51341 0.50747 0.07578 0.0
C953 C 0.61073 0.47365 0.05374 0.0
C954 C 0.62944 0.50258 0.05081 0.0
C955 C 0.5615 0.53669 1.0089 0.0
C956 C 0.51042 0.51967 0.94675 0.0
C957 C 0.52112 0.51169 0.93207 0.0
C958 C 0.5148 0.51646 0.91468 0.0
C959 C 0.49748 0.52888 0.91226 0.0
C960 C 0.49304 0.53183 0.94383 0.0
C961 C 0.48663 0.53636 0.92671 0.0
C962 C 0.50258 0.45693 1.00983 0.0
C963 C 0.51807 0.51611 0.965 0.0
H964 H 0.49768 0.52223 0.10627 0.0
H965 H 0.52934 0.48186 0.14175 0.0
H966 H 0.5418 0.48012 0.08623 0.0
H967 H 0.5479 0.46766 0.11649 0.0
H968 H 0.53478 0.50249 0.93416 0.0
H969 H 0.49243 0.53289 0.89909 0.0
H970 H 0.4846 0.53806 0.95478 0.0
H971 H 0.47335 0.54595 0.92463 0.0
Eu972 Eu 0.16915 0.32893 0.33092 0.0
C973 C 0.23601 0.41982 0.38531 0.0
C974 C 0.28394 0.42505 0.3833 0.0
C975 C 0.27908 0.465 0.39217 0.0
C976 C 0.25338 0.40814 0.38189 0.0
C977 C 0.24881 0.44832 0.39076 0.0
C978 C 0.2966 0.45342 0.38841 0.0
C979 C 0.20082 0.44159 0.39442 0.0
N980 N 0.20672 0.40335 0.38378 0.0
C981 C 0.18912 0.41352 0.38914 0.0
C982 C 0.23081 0.45918 0.39505 0.0
Eu983 Eu 0.18865 0.35509 0.37604 0.0
N984 N 0.24066 0.3806 0.37685 0.0
C985 C 0.25768 0.3692 0.37268 0.0
C986 C 0.30109 0.41314 0.37932 0.0
C987 C 0.28788 0.38515 0.3739 0.0
H988 H 0.16579 0.39987 0.38945 0.0
H989 H 0.30098 0.3759 0.37037 0.0
H990 H 0.31996 0.46659 0.38953 0.0
H991 H 0.18666 0.4495 0.39827 0.0
H992 H 0.24871 0.34826 0.36751 0.0
H993 H 0.05649 0.30763 0.33408 0.0
H994 H 0.32455 0.4255 0.38015 0.0
H995 H 0.19325 0.28676 0.31551 0.0
H996 H 0.10888 0.33679 0.33547 0.0
H997 H 0.17314 0.23766 0.30531 0.0
H998 H 0.28918 0.48687 0.39629 0.0
H999 H 0.03354 0.25667 0.32774 0.0
H1000 H 0.03895 0.21528 0.32021 0.0
H1001 H 0.23984 0.48088 0.39931 0.0
H1002 H 0.07048 0.19617 0.31256 0.0
N1003 N 0.11734 0.30326 0.32967 0.0
C1004 C 0.10007 0.3149 0.33232 0.0
C1005 C 0.05699 0.26951 0.32815 0.0
C1006 C 0.0745 0.25773 0.32493 0.0
C1007 C 0.06986 0.29826 0.33167 0.0
C1008 C 0.10503 0.2753 0.32573 0.0
H1009 H 0.12023 0.20449 0.30645 0.0
N1010 N 0.15211 0.28139 0.32269 0.0
C1011 C 0.15877 0.24471 0.31021 0.0
C1012 C 0.12284 0.26418 0.32203 0.0
C1013 C 0.17006 0.27245 0.31611 0.0
C1014 C 0.12891 0.22607 0.31087 0.0
C1015 C 0.11052 0.23575 0.31661 0.0
O1016 O 0.19755 0.33473 0.30846 0.0
O1017 O 0.20692 0.35536 0.34931 0.0
O1018 O 0.16973 0.37972 0.36188 0.0
O1019 O 0.15846 0.36362 0.33282 0.0
O1020 O 0.20439 0.37362 0.32596 0.0
O1021 O 0.15767 0.33553 0.30424 0.0
O1022 O 0.16071 0.3504 0.39839 0.0
O1023 O 0.15087 0.32887 0.35758 0.0
O1024 O 0.18545 0.30201 0.34591 0.0
O1025 O 0.20016 0.32108 0.37418 0.0
O1026 O 0.15313 0.31039 0.38098 0.0
O1027 O 0.19959 0.34778 0.40279 0.0
C1028 C 0.21957 0.37762 0.33987 0.0
C1029 C 0.18027 0.32936 0.27866 0.0
C1030 C 0.19188 0.34097 0.24726 0.0
C1031 C 0.19186 0.34955 0.26483 0.0
C1032 C 0.18018 0.31204 0.2438 0.0
C1033 C 0.16783 0.30062 0.27463 0.0
C1034 C 0.1681 0.29208 0.25735 0.0
C1035 C 0.16073 0.38072 0.34569 0.0
C1036 C 0.18145 0.33875 0.2971 0.0
C1037 C 0.08025 0.21813 0.31641 0.0
C1038 C 0.0623 0.22905 0.32068 0.0
C1039 C 0.13802 0.3067 0.36706 0.0
C1040 C 0.17712 0.35459 0.42832 0.0
C1041 C 0.17506 0.33639 0.44228 0.0
C1042 C 0.17409 0.34375 0.46002 0.0
C1043 C 0.17527 0.36953 0.4635 0.0
C1044 C 0.17795 0.37999 0.43229 0.0
C1045 C 0.17712 0.3874 0.44976 0.0
C1046 C 0.19613 0.30235 0.36197 0.0
C1047 C 0.17623 0.34567 0.40981 0.0
H1048 H 0.20087 0.3718 0.26773 0.0
H1049 H 0.17956 0.30477 0.23045 0.0
H1050 H 0.15768 0.28472 0.28474 0.0
H1051 H 0.15858 0.26982 0.2544 0.0
H1052 H 0.17401 0.31653 0.43932 0.0
H1053 H 0.17409 0.37561 0.47692 0.0
H1054 H 0.17884 0.39397 0.42194 0.0
H1055 H 0.17755 0.40697 0.45266 0.0
Eu1056 Eu 0.70126 0.84993 0.33326 0.0
C1057 C 0.60112 0.81628 0.3896 0.0
C1058 C 0.59907 0.85941 0.39206 0.0
C1059 C 0.55742 0.81459 0.4007 0.0
C1060 C 0.61439 0.84535 0.38776 0.0
C1061 C 0.57254 0.80062 0.39622 0.0
C1062 C 0.57065 0.84392 0.39863 0.0
C1063 C 0.57615 0.75845 0.39411 0.0
N1064 N 0.61604 0.80325 0.38491 0.0
C1065 C 0.60444 0.77487 0.38773 0.0
C1066 C 0.56003 0.77136 0.39825 0.0
Eu1067 Eu 0.66479 0.83274 0.37588 0.0
N1068 N 0.64144 0.85963 0.38063 0.0
C1069 C 0.65432 0.88813 0.3776 0.0
C1070 C 0.6124 0.88855 0.38917 0.0
C1071 C 0.64009 0.90291 0.38183 0.0
H1072 H 0.6172 0.76492 0.38511 0.0
H1073 H 0.65045 0.9254 0.37929 0.0
H1074 H 0.5586 0.85438 0.40196 0.0
H1075 H 0.56693 0.73593 0.39602 0.0
H1076 H 0.67533 0.89987 0.37154 0.0
H1077 H 0.71953 0.75941 0.33149 0.0
H1078 H 0.60133 0.90006 0.39226 0.0
H1079 H 0.74732 0.91679 0.32083 0.0
H1080 H 0.69179 0.78309 0.33576 0.0
H1081 H 0.79917 0.94754 0.31364 0.0
H1082 H 0.53544 0.8029 0.40574 0.0
H1083 H 0.77221 0.78727 0.32581 0.0
H1084 H 0.81637 0.83436 0.3207 0.0
H1085 H 0.53814 0.75862 0.40327 0.0
H1086 H 0.83822 0.88558 0.3163 0.0
N1087 N 0.7273 0.82477 0.33123 0.0
C1088 C 0.71422 0.79592 0.3323 0.0
C1089 C 0.75988 0.79797 0.32726 0.0
C1090 C 0.77327 0.82736 0.32591 0.0
C1091 C 0.73016 0.78219 0.33031 0.0
C1092 C 0.75619 0.84032 0.32785 0.0
H1093 H 0.83202 0.92786 0.31361 0.0
N1094 N 0.75116 0.88063 0.32633 0.0
C1095 C 0.79094 0.9256 0.31712 0.0
C1096 C 0.7685 0.86912 0.32544 0.0
C1097 C 0.76166 0.90818 0.32135 0.0
C1098 C 0.80939 0.91443 0.31713 0.0
C1099 C 0.79816 0.88576 0.32093 0.0
O1100 O 0.70049 0.87111 0.30925 0.0
O1101 O 0.66079 0.8433 0.34738 0.0
O1102 O 0.63436 0.79605 0.35782 0.0
O1103 O 0.66374 0.80427 0.33327 0.0
O1104 O 0.68391 0.88014 0.33342 0.0
O1105 O 0.68617 0.82666 0.30807 0.0
O1106 O 0.66985 0.81098 0.39862 0.0
O1107 O 0.70403 0.83868 0.36139 0.0
O1108 O 0.7285 0.88898 0.34988 0.0
O1109 O 0.70286 0.87825 0.37638 0.0
O1110 O 0.67995 0.80091 0.37504 0.0
O1111 O 0.68012 0.85427 0.40145 0.0
C1112 C 0.65954 0.86452 0.3414 0.0
C1113 C 0.69992 0.85311 0.28085 0.0
C1114 C 0.68832 0.8463 0.2493 0.0
C1115 C 0.67964 0.83982 0.26708 0.0
C1116 C 0.71734 0.86641 0.24552 0.0
C1117 C 0.72879 0.87304 0.27667 0.0
C1118 C 0.73734 0.87969 0.2591 0.0
C1119 C 0.64008 0.78788 0.34261 0.0
C1120 C 0.68987 0.84879 0.29934 0.0
C1121 C 0.81541 0.87312 0.31967 0.0
C1122 C 0.80298 0.84396 0.32215 0.0
C1123 C 0.70382 0.81646 0.36659 0.0
C1124 C 0.66699 0.82573 0.42758 0.0
C1125 C 0.68512 0.84 0.44213 0.0
C1126 C 0.67455 0.83238 0.45956 0.0
C1127 C 0.64592 0.81029 0.46217 0.0
C1128 C 0.63852 0.80379 0.43072 0.0
C1129 C 0.62813 0.79613 0.44787 0.0
C1130 C 0.72435 0.89573 0.36589 0.0
C1131 C 0.67851 0.83228 0.40934 0.0
H1132 H 0.65714 0.82489 0.27019 0.0
H1133 H 0.72441 0.87222 0.23199 0.0
H1134 H 0.74458 0.88396 0.28697 0.0
H1135 H 0.75952 0.89548 0.25599 0.0
H1136 H 0.70729 0.85672 0.4399 0.0
H1137 H 0.63743 0.8036 0.47538 0.0
H1138 H 0.62436 0.79215 0.41997 0.0
H1139 H 0.60625 0.7789 0.4501 0.0
Eu1140 Eu 0.189 0.83603 0.37588 0.0
C1141 C 0.12369 0.86425 0.3221 0.0
C1142 C 0.07538 0.82301 0.32387 0.0
C1143 C 0.08111 0.86854 0.31595 0.0
C1144 C 0.10588 0.83546 0.32525 0.0
C1145 C 0.11136 0.88086 0.31703 0.0
C1146 C 0.06318 0.83973 0.31942 0.0
C1147 C 0.1597 0.92032 0.31268 0.0
N1148 N 0.15297 0.87583 0.32321 0.0
C1149 C 0.17094 0.90305 0.31751 0.0
C1150 C 0.12978 0.90929 0.31267 0.0
Eu1151 Eu 0.16989 0.84426 0.33078 0.0
N1152 N 0.11814 0.81954 0.32942 0.0
C1153 C 0.10089 0.79097 0.33203 0.0
C1154 C 0.05788 0.794 0.32687 0.0
C1155 C 0.07071 0.77793 0.33089 0.0
H1156 H 0.19416 0.9116 0.31687 0.0
H1157 H 0.05734 0.75544 0.33325 0.0
H1158 H 0.03986 0.83048 0.31837 0.0
H1159 H 0.17413 0.942 0.30871 0.0
H1160 H 0.10969 0.77775 0.33552 0.0
H1161 H 0.30005 0.9276 0.37243 0.0
H1162 H 0.03444 0.78378 0.32601 0.0
H1163 H 0.16778 0.76943 0.38996 0.0
H1164 H 0.24754 0.90369 0.37108 0.0
H1165 H 0.18977 0.74048 0.39749 0.0
H1166 H 0.07136 0.88104 0.31218 0.0
H1167 H 0.32489 0.9008 0.37891 0.0
H1168 H 0.32164 0.85483 0.38602 0.0
H1169 H 0.1211 0.92264 0.30873 0.0
H1170 H 0.29189 0.80406 0.39224 0.0
N1171 N 0.24086 0.86249 0.377 0.0
C1172 C 0.25718 0.89111 0.37426 0.0
C1173 C 0.30139 0.88988 0.37851 0.0
C1174 C 0.28487 0.86081 0.38162 0.0
C1175 C 0.28745 0.90507 0.37489 0.0
C1176 C 0.25423 0.84743 0.38079 0.0
H1177 H 0.24302 0.76144 0.39649 0.0
N1178 N 0.20802 0.80608 0.38326 0.0
C1179 C 0.20343 0.76227 0.39345 0.0
C1180 C 0.23742 0.81855 0.3839 0.0
C1181 C 0.19107 0.77874 0.389 0.0
C1182 C 0.23346 0.77419 0.3929 0.0
C1183 C 0.25089 0.80274 0.38845 0.0
O1184 O 0.16219 0.81275 0.3987 0.0
O1185 O 0.15113 0.82532 0.35726 0.0
O1186 O 0.1874 0.88692 0.34522 0.0
O1187 O 0.19785 0.88063 0.37426 0.0
O1188 O 0.15233 0.84412 0.38105 0.0
O1189 O 0.19992 0.85442 0.40235 0.0
O1190 O 0.19672 0.86615 0.30772 0.0
O1191 O 0.20766 0.8549 0.34933 0.0
O1192 O 0.17224 0.79333 0.36132 0.0
O1193 O 0.15917 0.79936 0.33294 0.0
O1194 O 0.20631 0.83575 0.32568 0.0
O1195 O 0.15794 0.82521 0.30455 0.0
C1196 C 0.13774 0.83413 0.36687 0.0
C1197 C 0.17968 0.82638 0.42839 0.0
C1198 C 0.17443 0.8327 0.46 0.0
C1199 C 0.172 0.83884 0.44215 0.0
C1200 C 0.18421 0.81373 0.46381 0.0
C1201 C 0.18935 0.80753 0.43265 0.0
C1202 C 0.19143 0.80116 0.45025 0.0
C1203 C 0.19537 0.89591 0.36162 0.0
C1204 C 0.17729 0.8333 0.40977 0.0
C1205 C 0.28127 0.81595 0.38893 0.0
C1206 C 0.2982 0.84488 0.38547 0.0
C1207 C 0.22109 0.84608 0.33976 0.0
C1208 C 0.17683 0.85351 0.27867 0.0
C1209 C 0.18677 0.84461 0.2641 0.0
C1210 C 0.18444 0.8529 0.24678 0.0
C1211 C 0.17205 0.87007 0.24431 0.0
C1212 C 0.16382 0.86994 0.2757 0.0
C1213 C 0.16166 0.87832 0.25864 0.0
C1214 C 0.16293 0.78418 0.34506 0.0
C1215 C 0.18059 0.84579 0.29679 0.0
H1216 H 0.16437 0.85335 0.439 0.0
H1217 H 0.1859 0.80833 0.47736 0.0
H1218 H 0.19537 0.79777 0.42242 0.0
H1219 H 0.19872 0.78642 0.45342 0.0
H1220 H 0.19674 0.83177 0.26626 0.0
H1221 H 0.17011 0.87688 0.23119 0.0
H1222 H 0.15529 0.87629 0.28651 0.0
H1223 H 0.15187 0.8913 0.2565 0.0
Eu1224 Eu 0.83779 0.65953 0.66478 0.0
C1225 C 0.90321 0.75695 0.71952 0.0
C1226 C 0.95176 0.76391 0.71768 0.0
C1227 C 0.94497 0.80281 0.7265 0.0
C1228 C 0.92139 0.74644 0.71589 0.0
C1229 C 0.91475 0.78502 0.72539 0.0
C1230 C 0.96345 0.7923 0.72258 0.0
C1231 C 0.86568 0.77506 0.73029 0.0
N1232 N 0.87413 0.7392 0.71845 0.0
C1233 C 0.85529 0.74752 0.72417 0.0
C1234 C 0.89555 0.79404 0.73063 0.0
Eu1235 Eu 0.85774 0.69238 0.70904 0.0
N1236 N 0.90934 0.71871 0.71168 0.0
C1237 C 0.92653 0.70683 0.71013 0.0
C1238 C 0.96943 0.75209 0.71514 0.0
C1239 C 0.9567 0.72333 0.71158 0.0
H1240 H 0.83217 0.73283 0.72389 0.0
H1241 H 0.97011 0.71382 0.70987 0.0
H1242 H 0.9867 0.80604 0.72392 0.0
H1243 H 0.85067 0.78167 0.73461 0.0
H1244 H 0.91746 0.68482 0.70709 0.0
H1245 H 0.72468 0.63548 0.66147 0.0
H1246 H 0.99282 0.7648 0.71635 0.0
H1247 H 0.86565 0.61877 0.65281 0.0
H1248 H 0.77709 0.66574 0.66462 0.0
H1249 H 0.84807 0.56927 0.64388 0.0
H1250 H 0.95424 0.82451 0.73083 0.0
H1251 H 0.70342 0.58426 0.65646 0.0
H1252 H 0.71097 0.5434 0.65091 0.0
H1253 H 0.90356 0.81538 0.73533 0.0
H1254 H 0.74441 0.5255 0.64585 0.0
N1255 N 0.78651 0.63241 0.66162 0.0
C1256 C 0.76868 0.64368 0.66218 0.0
C1257 C 0.72673 0.59755 0.65777 0.0
C1258 C 0.7451 0.5863 0.6562 0.0
C1259 C 0.73864 0.62644 0.66051 0.0
C1260 C 0.77535 0.6045 0.6581 0.0
H1261 H 0.79536 0.53513 0.64266 0.0
N1262 N 0.82329 0.61243 0.65673 0.0
C1263 C 0.83271 0.576 0.64717 0.0
C1264 C 0.79423 0.5943 0.65544 0.0
C1265 C 0.84258 0.60394 0.65219 0.0
C1266 C 0.80294 0.55679 0.64653 0.0
C1267 C 0.78329 0.56583 0.65056 0.0
O1268 O 0.86795 0.67921 0.64279 0.0
O1269 O 0.8717 0.69496 0.68085 0.0
O1270 O 0.85024 0.72279 0.69213 0.0
O1271 O 0.82723 0.69516 0.66727 0.0
O1272 O 0.88555 0.67292 0.66529 0.0
O1273 O 0.82284 0.66348 0.63814 0.0
O1274 O 0.82944 0.68031 0.73216 0.0
O1275 O 0.82336 0.65773 0.69274 0.0
O1276 O 0.84274 0.6282 0.68234 0.0
O1277 O 0.86694 0.65582 0.70687 0.0
O1278 O 0.81039 0.67994 0.70874 0.0
O1279 O 0.86856 0.67827 0.7338 0.0
C1280 C 0.89415 0.69487 0.67531 0.0
C1281 C 0.85263 0.6666 0.61338 0.0
C1282 C 0.86027 0.67455 0.5813 0.0
C1283 C 0.85328 0.68158 0.59789 0.0
C1284 C 0.8672 0.6529 0.58068 0.0
C1285 C 0.85924 0.64489 0.61202 0.0
C1286 C 0.86641 0.6381 0.59585 0.0
C1287 C 0.83553 0.71802 0.67711 0.0
C1288 C 0.84863 0.67568 0.63112 0.0
C1289 C 0.75318 0.54748 0.64938 0.0
C1290 C 0.73413 0.55767 0.65226 0.0
C1291 C 0.80136 0.65868 0.69818 0.0
C1292 C 0.84836 0.68332 0.7609 0.0
C1293 C 0.84188 0.6637 0.77489 0.0
C1294 C 0.84305 0.67217 0.79267 0.0
C1295 C 0.85008 0.70011 0.79612 0.0
C1296 C 0.85556 0.71108 0.76493 0.0
C1297 C 0.85616 0.7193 0.78237 0.0
C1298 C 0.85722 0.63248 0.69735 0.0
C1299 C 0.84547 0.67432 0.74217 0.0
H1300 H 0.84866 0.69869 0.59877 0.0
H1301 H 0.87377 0.64764 0.56843 0.0
H1302 H 0.85993 0.6338 0.62358 0.0
H1303 H 0.87196 0.62161 0.59513 0.0
H1304 H 0.83596 0.64208 0.77198 0.0
H1305 H 0.85056 0.70704 0.80954 0.0
H1306 H 0.86041 0.72641 0.7546 0.0
H1307 H 0.86129 0.74069 0.78526 0.0
Eu1308 Eu 0.36226 0.18125 0.66546 0.0
C1309 C 0.26754 0.15124 0.71983 0.0
C1310 C 0.267 0.19445 0.72611 0.0
C1311 C 0.22311 0.14925 0.73009 0.0
C1312 C 0.28199 0.1806 0.72034 0.0
C1313 C 0.23797 0.13539 0.72492 0.0
C1314 C 0.2376 0.17867 0.73074 0.0
C1315 C 0.24022 0.09282 0.72171 0.0
N1316 N 0.28254 0.13807 0.71547 0.0
C1317 C 0.26949 0.10921 0.71725 0.0
C1318 C 0.22429 0.10593 0.7254 0.0
Eu1319 Eu 0.33328 0.1679 0.70983 0.0
N1320 N 0.31061 0.19564 0.71575 0.0
C1321 C 0.3251 0.22468 0.71699 0.0
C1322 C 0.28197 0.22386 0.72732 0.0
C1323 C 0.31111 0.23899 0.72276 0.0
H1324 H 0.28162 0.09836 0.71606 0.0
H1325 H 0.32286 0.26184 0.7235 0.0
H1326 H 0.22594 0.18906 0.73508 0.0
H1327 H 0.23024 0.07009 0.72287 0.0
H1328 H 0.3474 0.23793 0.71345 0.0
H1329 H 0.37453 0.0877 0.66819 0.0
H1330 H 0.2712 0.23511 0.7317 0.0
H1331 H 0.41098 0.24722 0.6518 0.0
H1332 H 0.34827 0.11386 0.66872 0.0
H1333 H 0.46322 0.27541 0.64475 0.0
H1334 H 0.20052 0.13736 0.73403 0.0
H1335 H 0.42748 0.11308 0.66298 0.0
H1336 H 0.4731 0.15862 0.65651 0.0
H1337 H 0.20174 0.09318 0.72928 0.0
H1338 H 0.4973 0.20968 0.65055 0.0
N1339 N 0.38583 0.15411 0.66461 0.0
C1340 C 0.3713 0.12539 0.66663 0.0
C1341 C 0.41601 0.12476 0.66329 0.0
C1342 C 0.43064 0.15398 0.66047 0.0
C1343 C 0.38615 0.11038 0.66624 0.0
C1344 C 0.41475 0.16829 0.66117 0.0
H1345 H 0.49385 0.25332 0.64617 0.0
N1346 N 0.41247 0.21012 0.65855 0.0
C1347 C 0.45384 0.25352 0.64871 0.0
C1348 C 0.42848 0.19713 0.65815 0.0
C1349 C 0.42433 0.23754 0.65284 0.0
C1350 C 0.47103 0.24096 0.64951 0.0
C1351 C 0.45832 0.21231 0.6539 0.0
O1352 O 0.35957 0.20058 0.64094 0.0
O1353 O 0.32469 0.17689 0.68194 0.0
O1354 O 0.31433 0.1258 0.69466 0.0
O1355 O 0.31898 0.14029 0.66557 0.0
O1356 O 0.34628 0.21259 0.66677 0.0
O1357 O 0.34988 0.15732 0.64051 0.0
O1358 O 0.32922 0.13795 0.73057 0.0
O1359 O 0.36283 0.16134 0.69144 0.0
O1360 O 0.39125 0.22157 0.68077 0.0
O1361 O 0.3696 0.21362 0.70847 0.0
O1362 O 0.37966 0.18024 0.71541 0.0
O1363 O 0.34482 0.18189 0.73694 0.0
C1364 C 0.32344 0.19832 0.67644 0.0
C1365 C 0.36329 0.18312 0.61319 0.0
C1366 C 0.35365 0.17789 0.58147 0.0
C1367 C 0.34381 0.17091 0.59898 0.0
C1368 C 0.3831 0.19723 0.57833 0.0
C1369 C 0.39266 0.20226 0.60974 0.0
C1370 C 0.40245 0.20932 0.59238 0.0
C1371 C 0.3061 0.12082 0.67792 0.0
C1372 C 0.35182 0.17833 0.63132 0.0
C1373 C 0.47434 0.1983 0.65363 0.0
C1374 C 0.46054 0.16922 0.65695 0.0
C1375 C 0.38514 0.17085 0.70137 0.0
C1376 C 0.32591 0.1497 0.76062 0.0
C1377 C 0.3444 0.16006 0.77538 0.0
C1378 C 0.33291 0.15359 0.79252 0.0
C1379 C 0.30277 0.1369 0.79481 0.0
C1380 C 0.29583 0.13331 0.76313 0.0
C1381 C 0.28437 0.12695 0.78018 0.0
C1382 C 0.38937 0.22991 0.69676 0.0
C1383 C 0.33881 0.15718 0.7429 0.0
H1384 H 0.32098 0.15647 0.60153 0.0
H1385 H 0.39102 0.20336 0.56496 0.0
H1386 H 0.4079 0.2122 0.6204 0.0
H1387 H 0.42503 0.22451 0.58981 0.0
H1388 H 0.36768 0.17294 0.77355 0.0
H1389 H 0.29352 0.13167 0.80793 0.0
H1390 H 0.28121 0.12552 0.75202 0.0
H1391 H 0.26113 0.11424 0.78206 0.0
Eu1392 Eu 0.85719 0.16886 0.70789 0.0
C1393 C 0.78872 0.19991 0.65254 0.0
C1394 C 0.74124 0.15753 0.65262 0.0
C1395 C 0.74628 0.20196 0.64259 0.0
C1396 C 0.77147 0.17121 0.65578 0.0
C1397 C 0.77628 0.21552 0.64575 0.0
C1398 C 0.7288 0.17306 0.64605 0.0
C1399 C 0.82425 0.25667 0.64475 0.0
N1400 N 0.81768 0.21252 0.65566 0.0
C1401 C 0.83561 0.24033 0.65133 0.0
C1402 C 0.79442 0.24425 0.64202 0.0
Eu1403 Eu 0.83591 0.18277 0.66469 0.0
N1404 N 0.78414 0.15663 0.66196 0.0
C1405 C 0.76747 0.12817 0.6651 0.0
C1406 C 0.72432 0.12857 0.65602 0.0
C1407 C 0.73752 0.11387 0.66233 0.0
H1408 H 0.85885 0.24981 0.65284 0.0
H1409 H 0.72463 0.09147 0.66515 0.0
H1410 H 0.70569 0.16285 0.6435 0.0
H1411 H 0.83856 0.27873 0.64154 0.0
H1412 H 0.77661 0.11617 0.67051 0.0
H1413 H 0.96735 0.2614 0.70949 0.0
H1414 H 0.70108 0.11739 0.65382 0.0
H1415 H 0.83466 0.10217 0.71968 0.0
H1416 H 0.91558 0.23581 0.7029 0.0
H1417 H 0.855 0.07348 0.73137 0.0
H1418 H 0.73641 0.2136 0.63735 0.0
H1419 H 0.99098 0.23628 0.72205 0.0
H1420 H 0.9868 0.19094 0.73251 0.0
H1421 H 0.78568 0.25688 0.63675 0.0
H1422 H 0.95661 0.13983 0.73785 0.0
N1423 N 0.90859 0.19567 0.71178 0.0
C1424 C 0.92492 0.22413 0.70857 0.0
C1425 C 0.96791 0.22472 0.71929 0.0
C1426 C 0.95128 0.1957 0.72261 0.0
C1427 C 0.95465 0.23895 0.7122 0.0
C1428 C 0.92127 0.18159 0.71878 0.0
H1429 H 0.90769 0.09586 0.73718 0.0
N1430 N 0.87571 0.13981 0.71763 0.0
C1431 C 0.8692 0.09569 0.72851 0.0
C1432 C 0.90442 0.15275 0.72149 0.0
C1433 C 0.85782 0.11192 0.72174 0.0
C1434 C 0.89893 0.10841 0.7318 0.0
C1435 C 0.91688 0.13735 0.72855 0.0
O1436 O 0.83138 0.14946 0.73164 0.0
O1437 O 0.82248 0.17228 0.69307 0.0
O1438 O 0.84419 0.22052 0.68132 0.0
O1439 O 0.86561 0.21414 0.70655 0.0
O1440 O 0.80977 0.13602 0.70796 0.0
O1441 O 0.86494 0.19321 0.73236 0.0
O1442 O 0.86369 0.20067 0.64196 0.0
O1443 O 0.8706 0.17845 0.67928 0.0
O1444 O 0.84891 0.13088 0.69078 0.0
O1445 O 0.82654 0.1375 0.66627 0.0
O1446 O 0.88376 0.21503 0.66497 0.0
O1447 O 0.8244 0.16106 0.63865 0.0
C1448 C 0.80054 0.15001 0.69895 0.0
C1449 C 0.85108 0.16804 0.75979 0.0
C1450 C 0.84445 0.17093 0.79165 0.0
C1451 C 0.84088 0.17737 0.77405 0.0
C1452 C 0.85858 0.15547 0.79474 0.0
C1453 C 0.86539 0.15294 0.7634 0.0
C1454 C 0.86911 0.14675 0.78073 0.0
C1455 C 0.85819 0.22934 0.69647 0.0
C1456 C 0.84473 0.17209 0.74129 0.0
C1457 C 0.94667 0.15132 0.73244 0.0
C1458 C 0.96383 0.18043 0.72947 0.0
C1459 C 0.89296 0.2003 0.67322 0.0
C1460 C 0.8469 0.18998 0.61271 0.0
C1461 C 0.84814 0.17473 0.59798 0.0
C1462 C 0.85155 0.18601 0.58072 0.0
C1463 C 0.85446 0.21285 0.57854 0.0
C1464 C 0.84937 0.2165 0.60986 0.0
C1465 C 0.8532 0.22782 0.59296 0.0
C1466 C 0.83385 0.12178 0.67586 0.0
C1467 C 0.84788 0.18064 0.63101 0.0
H1468 H 0.82942 0.18871 0.77145 0.0
H1469 H 0.86142 0.15007 0.80807 0.0
H1470 H 0.87326 0.14546 0.75284 0.0
H1471 H 0.87989 0.13479 0.78332 0.0
H1472 H 0.84702 0.15457 0.59997 0.0
H1473 H 0.85823 0.22257 0.56561 0.0
H1474 H 0.84962 0.22916 0.62075 0.0
H1475 H 0.85581 0.2486 0.59106 0.0
C1476 C 0.40142 0.90495 0.03861 0.0
C1477 C 0.38329 0.91414 0.046 0.0
C1478 C 0.43048 0.92414 0.03414 0.0
C1479 C 0.44231 0.95343 0.03609 0.0
H1480 H 0.39341 0.88258 0.03691 0.0
H1481 H 0.44399 0.91595 0.02942 0.0
S1482 S 0.40451 0.98873 0.05484 0.0
N1483 N 0.3797 0.95479 0.05517 0.0
N1484 N 0.43399 0.99076 0.04628 0.0
C1485 C 0.4244 0.96301 0.04318 0.0
C1486 C 0.39499 0.94344 0.04816 0.0
C1487 C 0.11094 0.49901 0.04446 0.0
C1488 C 0.10773 0.47235 0.04859 0.0
C1489 C 0.08723 0.50182 0.03868 0.0
C1490 C 0.0593 0.47805 0.03667 0.0
H1491 H 0.13184 0.51799 0.04613 0.0
H1492 H 0.09065 0.52282 0.03629 0.0
S1493 S 0.03991 0.40333 0.04334 0.0
N1494 N 0.0747 0.42161 0.04852 0.0
N1495 N 0.03042 0.42687 0.03796 0.0
C1496 C 0.05605 0.45129 0.04018 0.0
C1497 C 0.08011 0.44843 0.04601 0.0
C1498 C 0.52351 0.62589 0.04983 0.0
C1499 C 0.55313 0.64682 0.05022 0.0
C1500 C 0.51432 0.59892 0.04273 0.0
C1501 C 0.53448 0.59202 0.03589 0.0
H1502 H 0.50751 0.62998 0.05575 0.0
H1503 H 0.4915 0.58309 0.0432 0.0
S1504 S 0.61358 0.64062 0.03087 0.0
N1505 N 0.60198 0.65966 0.04116 0.0
N1506 N 0.5846 0.60925 0.02769 0.0
C1507 C 0.56379 0.61324 0.03516 0.0
C1508 C 0.57316 0.64057 0.04238 0.0
C1509 C 0.93913 0.3871 0.98248 0.0
C1510 C 0.90997 0.37088 0.98785 0.0
C1511 C 0.95821 0.4133 0.99018 0.0
C1512 C 0.94942 0.42476 1.00387 0.0
H1513 H 0.94729 0.37969 0.97194 0.0
H1514 H 0.98005 0.42478 0.985 0.0
S1515 S 0.87505 0.39085 0.0228 0.0
N1516 N 0.87308 0.36812 1.00783 0.0
N1517 N 0.90886 0.41739 0.02227 0.0
C1518 C 0.92037 0.40848 1.00964 0.0
C1519 C 0.90079 0.38159 1.00172 0.0
C1520 C 0.64048 0.56764 0.99427 0.0
C1521 C 0.64429 0.54399 0.99306 0.0
C1522 C 0.61413 0.56507 1.00016 0.0
C1523 C 0.59021 0.53875 1.0051 0.0
H1524 H 0.65809 0.58841 0.99068 0.0
H1525 H 0.61232 0.58393 1.00062 0.0
S1526 S 0.58797 0.46985 1.00332 0.0
N1527 N 0.62121 0.49306 0.99687 0.0
N1528 N 0.57188 0.48829 1.00748 0.0
C1529 C 0.59364 0.5149 1.00386 0.0
C1530 C 0.62055 0.51752 0.99801 0.0
C1531 C 0.48757 0.09801 0.98572 0.0
C1532 C 0.46478 0.09884 0.99447 0.0
C1533 C 0.49913 0.08177 0.99229 0.0
C1534 C 0.48856 0.06593 1.00795 0.0
H1535 H 0.49685 0.11031 0.97382 0.0
H1536 H 0.51652 0.0816 0.98501 0.0
S1537 S 0.42797 0.05962 0.03527 0.0
N1538 N 0.43109 0.08133 0.01914 0.0
N1539 N 0.45337 0.05135 0.0317 0.0
C1540 C 0.46583 0.06659 0.01685 0.0
C1541 C 0.45378 0.08286 1.01004 0.0
C1542 C 0.62015 0.10437 0.99938 0.0
C1543 C 0.64342 0.10151 0.993 0.0
C1544 C 0.5943 0.08083 1.00562 0.0
C1545 C 0.59097 0.05359 1.0061 0.0
H1546 H 0.62164 0.12486 0.99912 0.0
H1547 H 0.57659 0.08389 1.00967 0.0
S1548 S 0.64633 0.03518 0.99255 0.0
N1549 N 0.66185 0.06945 0.98857 0.0
N1550 N 0.61387 0.02559 1.00055 0.0
C1551 C 0.61445 0.05072 1.00031 0.0
C1552 C 0.64048 0.07451 0.99374 0.0
C1553 C 0.95105 0.56635 0.99185 0.0
C1554 C 0.92211 0.54393 0.99148 0.0
C1555 C 0.97368 0.56276 0.99845 0.0
C1556 C 0.96874 0.5365 1.00492 0.0
H1557 H 0.95643 0.58678 0.98646 0.0
H1558 H 0.99558 0.58067 0.99792 0.0
S1559 S 0.89666 0.47107 1.0077 0.0
N1560 N 0.88945 0.49472 0.99916 0.0
N1561 N 0.93212 0.48766 1.01092 0.0
C1562 C 0.93973 0.51404 1.00524 0.0
C1563 C 0.91645 0.51786 0.99874 0.0
C1564 C 0.4903 0.38198 1.00584 0.0
C1565 C 0.47494 0.37251 0.98988 0.0
C1566 C 0.49955 0.40939 1.01211 0.0
C1567 C 0.49365 0.42824 1.00272 0.0
H1568 H 0.49566 0.36832 1.01334 0.0
H1569 H 0.51161 0.4158 0.02431 0.0
S1570 S 0.45337 0.41257 0.96006 0.0
N1571 N 0.45327 0.3832 0.9651 0.0
N1572 N 0.47156 0.43475 0.97609 0.0
C1573 C 0.47832 0.41868 0.98659 0.0
C1574 C 0.46866 0.39081 0.98042 0.0
C1575 C 0.08743 0.63095 0.05639 0.0
C1576 C 0.11736 0.64579 0.05265 0.0
C1577 C 0.06887 0.60396 0.04954 0.0
C1578 C 0.07892 0.59039 0.03816 0.0
H1579 H 0.07818 0.64009 0.06503 0.0
H1580 H 0.04639 0.59364 0.0535 0.0
S1581 S 0.15562 0.61969 0.02428 0.0
N1582 N 0.15642 0.64465 0.03687 0.0
N1583 N 0.12138 0.59402 0.02373 0.0
C1584 C 0.10877 0.60517 0.03395 0.0
C1585 C 0.12791 0.63279 0.04115 0.0
C1586 C 0.38768 0.46046 0.04063 0.0
C1587 C 0.38917 0.47932 0.05373 0.0
C1588 C 0.41302 0.46253 0.03331 0.0
C1589 C 0.44095 0.4849 0.03755 0.0
H1590 H 0.3668 0.44279 0.03689 0.0
H1591 H 0.4106 0.44553 0.025 0.0
S1592 S 0.4571 0.53797 0.07259 0.0
N1593 N 0.42128 0.5194 0.07201 0.0
N1594 N 0.46843 0.52464 0.0571 0.0
C1595 C 0.44271 0.50395 0.05061 0.0
C1596 C 0.41702 0.50098 0.05881 0.0
C1597 C 0.5636 0.92947 0.05472 0.0
C1598 C 0.54676 0.90109 0.04954 0.0
C1599 C 0.55764 0.9502 0.04836 0.0
C1600 C 0.53469 0.94358 0.03643 0.0
H1601 H 0.58183 0.93582 0.06357 0.0
H1602 H 0.57132 0.9716 0.05289 0.0
S1603 S 0.4812 0.87143 0.02113 0.0
N1604 N 0.50427 0.86685 0.03329 0.0
N1605 N 0.49301 0.9057 0.02145 0.0
C1606 C 0.51703 0.91504 0.03169 0.0
C1607 C 0.52309 0.8939 0.03819 0.0
C1608 C 0.05818 0.27517 0.37858 0.0
C1609 C 0.04795 0.24586 0.37847 0.0
C1610 C 0.08689 0.29495 0.37346 0.0
C1611 C 0.10639 0.28616 0.36802 0.0
H1612 H 0.04402 0.28287 0.38285 0.0
H1613 H 0.09422 0.31731 0.37441 0.0
S1614 S 0.09119 0.2123 0.36644 0.0
N1615 N 0.06019 0.20938 0.37284 0.0
N1616 N 0.11393 0.24647 0.3638 0.0
C1617 C 0.0965 0.25707 0.36802 0.0
C1618 C 0.06733 0.23697 0.37297 0.0
C1619 C 0.75106 0.78477 0.3793 0.0
C1620 C 0.77728 0.80822 0.38487 0.0
C1621 C 0.72784 0.78789 0.37308 0.0
C1622 C 0.7301 0.81466 0.37163 0.0
H1623 H 0.74851 0.76384 0.3797 0.0
H1624 H 0.7079 0.76911 0.36924 0.0
S1625 S 0.79287 0.88229 0.3867 0.0
N1626 N 0.80321 0.85877 0.3901 0.0
N1627 N 0.76002 0.86472 0.37803 0.0
C1628 C 0.75606 0.83821 0.3775 0.0
C1629 C 0.77952 0.83496 0.38414 0.0
C1630 C 0.22866 0.9762 0.36499 0.0
C1631 C 0.21802 0.97896 0.38146 0.0
C1632 C 0.22011 0.94922 0.35785 0.0
C1633 C 0.20083 0.9243 0.36704 0.0
H1634 H 0.24463 0.99489 0.35802 0.0
H1635 H 0.22977 0.94787 0.34561 0.0
S1636 S 0.1638 0.92028 0.40924 0.0
N1637 N 0.18489 0.95448 0.40561 0.0
N1638 N 0.16915 0.90437 0.39244 0.0
C1639 C 0.18888 0.92702 0.38292 0.0
C1640 C 0.19739 0.95417 0.39006 0.0
C1641 C 0.57062 0.7161 0.33465 0.0
C1642 C 0.57782 0.70539 0.31982 0.0
C1643 C 0.59081 0.74246 0.34215 0.0
C1644 C 0.61899 0.75926 0.33508 0.0
H1645 H 0.54894 0.7045 0.34013 0.0
H1646 H 0.58393 0.75001 0.35325 0.0
S1647 S 0.64923 0.73887 0.29727 0.0
N1648 N 0.61586 0.71215 0.29951 0.0
N1649 N 0.6529 0.7617 0.31259 0.0
C1650 C 0.62647 0.74809 0.32051 0.0
C1651 C 0.60621 0.7212 0.31321 0.0
C1652 C 0.2936 0.84955 0.33475 0.0
C1653 C 0.31114 0.87596 0.32651 0.0
C1654 C 0.26494 0.84069 0.34004 0.0
C1655 C 0.25304 0.85842 0.33825 0.0
H1656 H 0.30171 0.83509 0.33651 0.0
H1657 H 0.25174 0.81947 0.34522 0.0
S1658 S 0.28924 0.92937 0.31733 0.0
N1659 N 0.3139 0.9195 0.31644 0.0
N1660 N 0.2606 0.90328 0.32716 0.0
C1661 C 0.27039 0.88503 0.3303 0.0
C1662 C 0.29929 0.89374 0.32434 0.0
C1663 C 0.12172 0.423 0.34393 0.0
C1664 C 0.13504 0.44122 0.3294 0.0
C1665 C 0.13071 0.40404 0.34969 0.0
C1666 C 0.15328 0.40265 0.34108 0.0
H1667 H 0.10395 0.42313 0.35074 0.0
H1668 H 0.11943 0.38988 0.36059 0.0
S1669 S 0.19718 0.44746 0.30367 0.0
N1670 N 0.17345 0.45784 0.30749 0.0
N1671 N 0.18986 0.42204 0.31809 0.0
C1672 C 0.16712 0.42106 0.32684 0.0
C1673 C 0.15813 0.44037 0.32104 0.0
C1674 C 0.29118 0.44615 0.3358 0.0
C1675 C 0.3087 0.43801 0.32651 0.0
C1676 C 0.26278 0.4262 0.34108 0.0
C1677 C 0.25129 0.39714 0.3382 0.0
H1678 H 0.29903 0.4683 0.33833 0.0
H1679 H 0.24943 0.43366 0.34707 0.0
S1680 S 0.28781 0.36454 0.31443 0.0
N1681 N 0.31202 0.39868 0.31438 0.0
N1682 N 0.25926 0.3612 0.32511 0.0
C1683 C 0.26871 0.38861 0.32926 0.0
C1684 C 0.29728 0.40899 0.32332 0.0
C1685 C 0.585 0.8609 0.33627 0.0
C1686 C 0.58636 0.87123 0.31901 0.0
C1687 C 0.60723 0.85635 0.34302 0.0
C1688 C 0.6326 0.86335 0.33335 0.0
H1689 H 0.56702 0.85688 0.34477 0.0
H1690 H 0.6044 0.84765 0.35593 0.0
S1691 S 0.64167 0.8822 0.28549 0.0
N1692 N 0.61104 0.88078 0.29088 0.0
N1693 N 0.65352 0.8753 0.30387 0.0
C1694 C 0.63248 0.87117 0.3155 0.0
C1695 C 0.60938 0.87448 0.30837 0.0
C1696 C 0.13455 0.70424 0.34355 0.0
C1697 C 0.13688 0.69991 0.32544 0.0
C1698 C 0.14421 0.73169 0.3503 0.0
C1699 C 0.15651 0.75557 0.3391 0.0
H1700 H 0.12418 0.68626 0.3524 0.0
H1701 H 0.14085 0.73402 0.36412 0.0
S1702 S 0.17159 0.75556 0.29118 0.0
N1703 N 0.15517 0.72192 0.29696 0.0
N1704 N 0.17365 0.77293 0.30936 0.0
C1705 C 0.16058 0.75138 0.3212 0.0
C1706 C 0.15067 0.72373 0.31444 0.0
C1707 C 0.77422 0.95426 0.39738 0.0
C1708 C 0.78226 0.97938 0.38787 0.0
C1709 C 0.75586 0.92745 0.39009 0.0
C1710 C 0.74507 0.92442 0.37282 0.0
H1711 H 0.78197 0.95532 0.41073 0.0
H1712 H 0.75003 0.90888 0.39808 0.0
S1713 S 0.75814 0.98299 0.34244 0.0
N1714 N 0.777 0.99916 0.36027 0.0
N1715 N 0.74295 0.94877 0.34652 0.0
C1716 C 0.75314 0.9492 0.36301 0.0
C1717 C 0.77165 0.97662 0.37051 0.0
C1718 C 0.05991 0.78745 0.38134 0.0
C1719 C 0.04926 0.80644 0.38197 0.0
C1720 C 0.0876 0.79556 0.37444 0.0
C1721 C 0.10593 0.82305 0.36791 0.0
H1722 H 0.04726 0.7665 0.38701 0.0
H1723 H 0.09554 0.78083 0.37537 0.0
S1724 S 0.08856 0.88068 0.366 0.0
N1725 N 0.05908 0.85368 0.3745 0.0
N1726 N 0.1114 0.86915 0.36242 0.0
C1727 C 0.09522 0.84189 0.36791 0.0
C1728 C 0.0668 0.83349 0.37457 0.0
C1729 C 0.23259 0.26775 0.38727 0.0
C1730 C 0.21856 0.23989 0.38095 0.0
C1731 C 0.22568 0.28775 0.38064 0.0
C1732 C 0.20434 0.28084 0.36742 0.0
H1733 H 0.24922 0.27421 0.39731 0.0
H1734 H 0.23712 0.30882 0.38614 0.0
S1735 S 0.15827 0.20927 0.34862 0.0
N1736 N 0.18079 0.20564 0.36187 0.0
N1737 N 0.16709 0.24278 0.34998 0.0
C1738 C 0.18958 0.25272 0.36146 0.0
C1739 C 0.19685 0.23243 0.36808 0.0
C1740 C 0.74109 0.58368 0.70933 0.0
C1741 C 0.71743 0.58749 0.71353 0.0
C1742 C 0.76785 0.60634 0.70342 0.0
C1743 C 0.77197 0.6337 0.70135 0.0
H1744 H 0.73917 0.56315 0.71109 0.0
H1745 H 0.78568 0.60259 0.70105 0.0
S1746 S 0.71624 0.6544 0.70827 0.0
N1747 N 0.69949 0.62049 0.71353 0.0
N1748 N 0.74959 0.66285 0.70267 0.0
C1749 C 0.74826 0.63756 0.70488 0.0
C1750 C 0.7211 0.61458 0.71087 0.0
C1751 C 0.45517 0.16896 0.70633 0.0
C1752 C 0.44623 0.14291 0.7149 0.0
C1753 C 0.43511 0.17726 0.70116 0.0
C1754 C 0.40504 0.15924 0.70331 0.0
H1755 H 0.47806 0.18359 0.7042 0.0
H1756 H 0.44326 0.19825 0.69571 0.0
S1757 S 0.37002 0.08928 0.72557 0.0
N1758 N 0.40499 0.09963 0.72598 0.0
N1759 N 0.36736 0.11463 0.71536 0.0
C1760 C 0.39572 0.13304 0.71171 0.0
C1761 C 0.41622 0.12497 0.7176 0.0
C1762 C 0.86259 0.28666 0.72647 0.0
C1763 C 0.88444 0.31179 0.71867 0.0
C1764 C 0.8535 0.26012 0.71884 0.0
C1765 C 0.86578 0.25769 0.70304 0.0
H1766 H 0.85285 0.28751 0.73881 0.0
H1767 H 0.83709 0.2413 0.72551 0.0
S1768 S 0.92462 0.31659 0.67773 0.0
N1769 N 0.91863 0.33233 0.69442 0.0
N1770 N 0.90141 0.28241 0.68006 0.0
C1771 C 0.88736 0.28256 0.69495 0.0
C1772 C 0.89671 0.30964 0.70275 0.0
C1773 C 0.25956 0.04028 0.67211 0.0
C1774 C 0.24259 0.03789 0.65718 0.0
C1775 C 0.27922 0.06701 0.67944 0.0
C1776 C 0.28268 0.09223 0.67202 0.0
H1777 H 0.2585 0.02152 0.67768 0.0
H1778 H 0.29269 0.068 0.69045 0.0
S1779 S 0.24041 0.09689 0.63442 0.0
N1780 N 0.22865 0.06275 0.63642 0.0
N1781 N 0.26503 0.11244 0.65002 0.0
C1782 C 0.26463 0.08976 0.6577 0.0
C1783 C 0.24479 0.06278 0.65034 0.0
C1784 C 0.96 0.19063 0.66969 0.0
C1785 C 0.97443 0.20592 0.65429 0.0
C1786 C 0.93291 0.18712 0.675 0.0
C1787 C 0.92014 0.20097 0.66634 0.0
H1788 H 0.96956 0.18114 0.67783 0.0
H1789 H 0.92193 0.17328 0.6859 0.0
S1790 S 0.94392 0.23574 0.62225 0.0
N1791 N 0.96885 0.22767 0.62771 0.0
N1792 N 0.92155 0.22579 0.63919 0.0
C1793 C 0.93345 0.21479 0.65026 0.0
C1794 C 0.95971 0.21635 0.64405 0.0
C1795 C 0.79491 0.74913 0.65257 0.0
C1796 C 0.80669 0.77641 0.65967 0.0
C1797 C 0.80474 0.73075 0.65806 0.0
C1798 C 0.8267 0.73875 0.67095 0.0
H1799 H 0.77763 0.74174 0.64291 0.0
H1800 H 0.7947 0.71 0.65216 0.0
S1801 S 0.8682 0.81004 0.6911 0.0
N1802 N 0.84382 0.81184 0.67857 0.0
N1803 N 0.8623 0.77757 0.68883 0.0
C1804 C 0.83953 0.76654 0.67748 0.0
C1805 C 0.82952 0.78523 0.67188 0.0
C1806 C 0.97306 0.74181 0.66077 0.0
C1807 C 0.97563 0.76844 0.65809 0.0
C1808 C 0.94697 0.71856 0.66697 0.0
C1809 C 0.92245 0.72099 0.67096 0.0
H1810 H 0.99136 0.73893 0.65805 0.0
H1811 H 0.94591 0.69837 0.66855 0.0
S1812 S 0.91758 0.78589 0.66476 0.0
N1813 N 0.95123 0.79568 0.65907 0.0
N1814 N 0.90243 0.75232 0.67064 0.0
C1815 C 0.92485 0.7476 0.66821 0.0
C1816 C 0.95136 0.77119 0.66183 0.0
C1817 C 0.25881 0.21102 0.67132 0.0
C1818 C 0.2518 0.20567 0.65334 0.0
C1819 C 0.28081 0.2072 0.679 0.0
C1820 C 0.29585 0.19648 0.66947 0.0
H1821 H 0.24857 0.21999 0.67926 0.0
H1822 H 0.28702 0.21438 0.69215 0.0
S1823 S 0.28331 0.17655 0.62205 0.0
N1824 N 0.26079 0.18824 0.62617 0.0
N1825 N 0.29974 0.17862 0.64094 0.0
C1826 C 0.28743 0.18937 0.65167 0.0
C1827 C 0.26603 0.19443 0.6436 0.0
C1828 C 0.8253 0.04796 0.66987 0.0
C1829 C 0.80683 0.03728 0.6551 0.0
C1830 C 0.83376 0.07506 0.67674 0.0
C1831 C 0.82417 0.09253 0.66904 0.0
H1832 H 0.834 0.03571 0.67578 0.0
H1833 H 0.84845 0.08257 0.68787 0.0
S1834 S 0.77309 0.07251 0.63093 0.0
N1835 N 0.77716 0.04487 0.63404 0.0
N1836 N 0.79371 0.0956 0.64596 0.0
C1837 C 0.80494 0.08135 0.6545 0.0
C1838 C 0.79608 0.05382 0.64783 0.0
C1839 C 0.44612 0.28914 0.72499 0.0
C1840 C 0.44991 0.314 0.71678 0.0
C1841 C 0.4271 0.26219 0.71814 0.0
C1842 C 0.41139 0.25879 0.70256 0.0
H1843 H 0.45755 0.29049 0.7371 0.0
H1844 H 0.42441 0.24379 0.72523 0.0
S1845 S 0.41293 0.31629 0.67573 0.0
N1846 N 0.43587 0.33301 0.69202 0.0
N1847 N 0.40076 0.28226 0.67895 0.0
C1848 C 0.41551 0.28325 0.69381 0.0
C1849 C 0.43465 0.31085 0.70093 0.0
C1850 C 0.72548 0.11799 0.71963 0.0
C1851 C 0.71833 0.13944 0.71853 0.0
C1852 C 0.75117 0.12133 0.71224 0.0
C1853 C 0.77153 0.14658 0.70372 0.0
H1854 H 0.71132 0.09858 0.72667 0.0
H1855 H 0.75562 0.10418 0.71387 0.0
S1856 S 0.76282 0.20917 0.69681 0.0
N1857 N 0.73291 0.18638 0.70735 0.0
N1858 N 0.78217 0.19343 0.69445 0.0
C1859 C 0.76435 0.16805 0.70212 0.0
C1860 C 0.73758 0.16428 0.70927 0.0
C1861 C 0.8944 0.59728 0.72132 0.0
C1862 C 0.8777 0.56868 0.71644 0.0
C1863 C 0.88748 0.61759 0.71525 0.0
C1864 C 0.86357 0.61025 0.70398 0.0
H1865 H 0.91335 0.60414 0.72962 0.0
H1866 H 0.90132 0.6393 0.71927 0.0
S1867 S 0.81006 0.53734 0.68986 0.0
N1868 N 0.83436 0.53359 0.70126 0.0
N1869 N 0.82121 0.57147 0.69008 0.0
C1870 C 0.846 0.58149 0.69966 0.0
C1871 C 0.85309 0.56085 0.70581 0.0
C1872 C 0.51466 0.98962 0.17426 0.0
C1873 C 0.49256 0.96108 0.17525 0.0
C1874 C 0.52039 1.00519 0.1585 0.0
C1875 C 0.50443 0.99291 0.14298 0.0
H1876 H 0.52644 1.00058 0.18602 0.0
H1877 H 0.53666 0.02744 0.15868 0.0
S1878 S 0.44756 0.91763 0.13771 0.0
N1879 N 0.45731 0.92017 0.15862 0.0
N1880 N 0.46769 0.94952 0.12916 0.0
C1881 C 0.48388 0.96382 0.14339 0.0
C1882 C 0.47802 0.94794 0.15947 0.0
C1883 C 0.02714 0.5286 0.17381 0.0
C1884 C 0.05314 0.52865 0.17722 0.0
C1885 C 0.01439 0.5222 0.15697 0.0
C1886 C 0.02727 0.51589 0.14281 0.0
H1887 H 0.01549 0.53163 0.18448 0.0
H1888 H 0.99341 0.52056 0.15524 0.0
S1889 S 0.09767 0.51758 0.14409 0.0
N1890 N 0.09316 0.52534 0.16444 0.0
N1891 N 0.069 0.51303 0.13289 0.0
C1892 C 0.05442 0.51817 0.14566 0.0
C1893 C 0.06736 0.52456 0.16284 0.0
C1894 C 0.47225 0.49585 0.16888 0.0
C1895 C 0.48196 0.52395 0.17399 0.0
C1896 C 0.48161 0.48956 0.15313 0.0
C1897 C 0.50076 0.51104 0.14159 0.0
H1898 H 0.45785 0.47848 0.1774 0.0
H1899 H 0.47405 0.46761 0.15006 0.0
S1900 S 0.53156 0.58803 0.14812 0.0
N1901 N 0.51121 0.57352 0.16579 0.0
N1902 N 0.52847 0.56158 0.13604 0.0
C1903 C 0.51003 0.53921 0.14619 0.0
C1904 C 0.50081 0.54569 0.16243 0.0
C1905 C 0.96108 0.49704 0.88052 0.0
C1906 C 0.9695 0.48531 0.86677 0.0
C1907 C 0.97508 0.50349 0.89704 0.0
C1908 C 0.9981 0.49854 0.90042 0.0
H1909 H 0.94433 0.5024 0.87825 0.0
H1910 H 0.96904 0.514 0.90682 0.0
S1911 S 0.02635 0.46518 0.87 0.0
N1912 N 1.0008 0.46673 0.8585 0.0
N1913 N 0.02682 0.47876 0.88948 0.0
C1914 C 1.00537 0.48507 0.88731 0.0
C1915 C 0.99111 0.4784 0.87054 0.0
C1916 C 0.52391 0.47637 0.87626 0.0
C1917 C 0.54312 0.49838 0.86493 0.0
C1918 C 0.5161 0.48213 0.89291 0.0
C1919 C 0.52692 0.51011 0.89871 0.0
H1920 H 0.51475 0.45457 0.8722 0.0
H1921 H 0.5007 0.46465 0.901 0.0
S1922 S 0.57759 0.5752 0.87418 0.0
N1923 N 0.5727 0.54925 0.86098 0.0
N1924 N 0.55794 0.55985 0.89193 0.0
C1925 C 0.54637 0.53215 0.88764 0.0
C1926 C 0.55447 0.52636 0.87087 0.0
C1927 C 0.52124 0.05658 0.87833 0.0
C1928 C 0.54169 0.05755 0.86609 0.0
C1929 C 0.51707 0.04338 0.8949 0.0
C1930 C 0.53307 0.03045 0.89994 0.0
H1931 H 0.50754 0.06524 0.87481 0.0
H1932 H 0.50001 0.04183 0.9034 0.0
S1933 S 0.59195 0.03015 0.87412 0.0
N1934 N 0.58016 0.04666 0.8612 0.0
N1935 N 0.57224 0.02197 0.89228 0.0
C1936 C 0.55492 0.0329 0.88843 0.0
C1937 C 0.55932 0.04648 0.87157 0.0
C1938 C 0.18226 0.32037 0.50603 0.0
C1939 C 0.15746 0.29337 0.50773 0.0
C1940 C 0.18859 0.33571 0.49014 0.0
C1941 C 0.17057 0.32466 0.4752 0.0
H1942 H 0.19588 0.33053 0.51739 0.0
H1943 H 0.20702 0.35701 0.48979 0.0
S1944 S 0.10576 0.25303 0.47177 0.0
N1945 N 0.117 0.25473 0.49228 0.0
N1946 N 0.12866 0.28373 0.46259 0.0
C1947 C 0.1471 0.2968 0.47625 0.0
C1948 C 0.1406 0.28117 0.49246 0.0
C1949 C 0.69488 0.86241 0.50578 0.0
C1950 C 0.71858 0.85878 0.50989 0.0
C1951 C 0.68218 0.85597 0.48892 0.0
C1952 C 0.69283 0.84594 0.47545 0.0
H1953 H 0.68481 0.8684 0.51597 0.0
H1954 H 0.66283 0.85734 0.48669 0.0
S1955 S 0.75744 0.83734 0.47857 0.0
N1956 N 0.75457 0.84809 0.4984 0.0
N1957 N 0.73051 0.83578 0.46682 0.0
C1958 C 0.71802 0.84457 0.47892 0.0
C1959 C 0.73088 0.85099 0.49612 0.0
C1960 C 0.17868 0.86832 0.5039 0.0
C1961 C 0.14932 0.85869 0.50782 0.0
C1962 C 0.18688 0.86132 0.48788 0.0
C1963 C 0.16616 0.84493 0.47497 0.0
H1964 H 0.19524 0.87985 0.51372 0.0
H1965 H 0.20949 0.86775 0.48587 0.0
S1966 S 0.08702 0.81774 0.47768 0.0
N1967 N 0.09986 0.83425 0.49661 0.0
N1968 N 0.11538 0.82141 0.46658 0.0
C1969 C 0.13707 0.83695 0.47817 0.0
C1970 C 0.12865 0.84375 0.49455 0.0
C1971 C 0.65793 0.81184 0.20497 0.0
C1972 C 0.63656 0.81919 0.20154 0.0
C1973 C 0.6733 0.81905 0.22101 0.0
C1974 C 0.66758 0.83344 0.23434 0.0
H1975 H 0.66418 0.80215 0.19477 0.0
H1976 H 0.69076 0.81452 0.22268 0.0
S1977 S 0.61087 0.85375 0.23301 0.0
N1978 N 0.60822 0.83879 0.21368 0.0
N1979 N 0.63716 0.85232 0.24372 0.0
C1980 C 0.64477 0.83892 0.23165 0.0
C1981 C 0.62926 0.8318 0.21528 0.0
C1982 C 0.224 0.85952 0.2038 0.0
C1983 C 0.2117 0.83141 0.1979 0.0
C1984 C 0.21588 0.86604 0.21992 0.0
C1985 C 0.1954 0.84476 0.23105 0.0
H1986 H 0.23942 0.8768 0.19559 0.0
H1987 H 0.2253 0.88806 0.22356 0.0
S1988 S 0.15819 0.76766 0.22261 0.0
N1989 N 0.17888 0.78192 0.20503 0.0
N1990 N 0.16393 0.79427 0.2355 0.0
C1991 C 0.1837 0.81648 0.22573 0.0
C1992 C 0.19167 0.8098 0.20911 0.0
C1993 C 0.19136 0.38955 0.21142 0.0
C1994 C 0.21084 0.38982 0.19869 0.0
C1995 C 0.18705 0.37565 0.22776 0.0
C1996 C 0.20189 0.36124 0.23207 0.0
H1997 H 0.17847 0.39931 0.20845 0.0
H1998 H 0.17068 0.37473 0.23663 0.0
S1999 S 0.25823 0.35867 0.2048 0.0
N2000 N 0.24738 0.37675 0.1926 0.0
N2001 N 0.23916 0.35068 0.22322 0.0
C2002 C 0.22288 0.36298 0.22008 0.0
C2003 C 0.22745 0.37731 0.20347 0.0
C2004 C 0.85014 0.64555 0.8379 0.0
C2005 C 0.82156 0.62409 0.84172 0.0
C2006 C 0.85737 0.65966 0.82148 0.0
C2007 C 0.83649 0.65261 0.80805 0.0
H2008 H 0.86669 0.65274 0.84803 0.0
H2009 H 0.87921 0.67718 0.81956 0.0
S2010 S 0.75953 0.59552 0.81038 0.0
N2011 N 0.77296 0.59455 0.82986 0.0
N2012 N 0.78663 0.62111 0.79919 0.0
C2013 C 0.80839 0.62991 0.81122 0.0
C2014 C 0.80093 0.61568 0.82797 0.0
C2015 C 0.37738 0.19971 0.8307 0.0
C2016 C 0.38083 0.18053 0.84149 0.0
C2017 C 0.36331 0.1914 0.81428 0.0
C2018 C 0.352 0.16357 0.80821 0.0
H2019 H 0.38492 0.22106 0.83522 0.0
H2020 H 0.36013 0.20642 0.80665 0.0
S2021 S 0.35685 0.10587 0.83066 0.0
N2022 N 0.37305 0.1329 0.8443 0.0
N2023 N 0.34656 0.11745 0.81353 0.0
C2024 C 0.35641 0.14464 0.81843 0.0
C2025 C 0.37089 0.15309 0.83504 0.0
C2026 C 0.80275 0.16313 0.83393 0.0
C2027 C 0.81449 0.1911 0.84 0.0
C2028 C 0.81171 0.15703 0.81795 0.0
C2029 C 0.83249 0.17862 0.80711 0.0
H2030 H 0.78712 0.14562 0.84191 0.0
H2031 H 0.80275 0.13511 0.81421 0.0
S2032 S 0.86881 0.25549 0.81612 0.0
N2033 N 0.84733 0.24078 0.83334 0.0
N2034 N 0.86386 0.22919 0.80318 0.0
C2035 C 0.84375 0.20674 0.81262 0.0
C2036 C 0.83491 0.213 0.82909 0.0
C2037 C 0.32119 0.14215 0.53778 0.0
C2038 C 0.30289 0.15293 0.53337 0.0
C2039 C 0.3364 0.14905 0.55387 0.0
C2040 C 0.33341 0.16649 0.56627 0.0
H2041 H 0.32523 0.1298 0.52827 0.0
H2042 H 0.35153 0.14167 0.55634 0.0
S2043 S 0.28534 0.19699 0.56224 0.0
N2044 N 0.28045 0.17958 0.54362 0.0
N2045 N 0.30896 0.19235 0.5738 0.0
C2046 C 0.31365 0.1757 0.56262 0.0
C2047 C 0.29839 0.16894 0.5462 0.0
C2048 C 0.88237 0.15714 0.54665 0.0
C2049 C 0.86735 0.15656 0.53113 0.0
C2050 C 0.87556 0.16427 0.56312 0.0
C2051 C 0.85364 0.17134 0.56466 0.0
H2052 H 0.90033 0.1532 0.54592 0.0
H2053 H 0.88879 0.16606 0.57446 0.0
S2054 S 0.80606 0.1705 0.52858 0.0
N2055 N 0.82815 0.16182 0.51883 0.0
N2056 N 0.81521 0.17471 0.54962 0.0
C2057 C 0.83724 0.16896 0.5495 0.0
C2058 C 0.8441 0.16171 0.53281 0.0
C2059 C 0.88079 0.73372 0.54716 0.0
C2060 C 0.86954 0.71863 0.53135 0.0
C2061 C 0.87688 0.71952 0.56344 0.0
C2062 C 0.86137 0.68973 0.56449 0.0
H2063 H 0.89303 0.75661 0.5469 0.0
H2064 H 0.88678 0.73193 0.57517 0.0
S2065 S 0.82483 0.64086 0.52702 0.0
N2066 N 0.84077 0.67261 0.51792 0.0
N2067 N 0.83258 0.64598 0.54826 0.0
C2068 C 0.84908 0.67463 0.54877 0.0
C2069 C 0.85339 0.68905 0.5323 0.0
loop_
_geom_bond_atom_site_label_1
_geom_bond_atom_site_label_2
_geom_bond_distance
_geom_bond_site_symmetry_2
_ccdc_geom_bond_type
C0 C1 1.264 . S
C0 C5 1.479 . S
C0 C10 1.465 . S
C1 C0 1.264 . S
C1 C3 1.339 . S
C1 H28 0.931 . S
C2 C3 1.395 . S
C2 C4 1.320 . S
C3 C1 1.339 . S
C3 C2 1.395 . S
C3 H29 0.929 . S
C4 C2 1.320 . S
C4 C5 1.405 . S
C4 H30 0.930 . S
C5 C0 1.479 . S
C5 C4 1.405 . S
C5 H31 0.931 . S
U6 O7 2.454 . S
U6 O8 2.458 . S
U6 C9 2.984 . S
U6 C10 2.847 . S
U6 C23 2.882 . S
U6 O24 2.441 . S
U6 O25 2.420 . S
U6 O26 2.455 . S
U6 O27 2.449 . S
O7 U6 2.454 . S
O7 C9 1.353 . S
O8 U6 2.458 . S
O8 C9 1.286 . S
C9 U6 2.984 . S
C9 O7 1.353 . S
C9 O8 1.286 . S
C9 C11 1.363 . S
C10 C0 1.465 . S
C10 U6 2.847 . S
C10 O24 1.249 . S
C10 O25 1.202 . S
C11 C9 1.363 . S
C11 C13 1.408 . S
C11 C16 1.342 . S
C12 C13 1.310 . S
C12 C15 1.461 . S
C12 H32 0.932 . S
C13 C11 1.408 . S
C13 C12 1.310 . S
C13 H33 0.930 . S
C14 C15 1.474 . S
C14 C16 1.285 . S
C14 H34 0.929 1_545 S
C15 C12 1.461 . S
C15 C14 1.474 . S
C16 C11 1.342 . S
C16 C14 1.285 . S
C16 H35 0.930 . S
C17 C20 1.424 . S
C17 C22 1.245 . S
C17 C23 1.428 . S
C18 C21 1.260 . S
C18 C22 1.477 . S
C18 H36 0.932 . S
C19 C20 1.384 . S
C19 C21 1.479 . S
C19 H37 0.929 . S
C20 C17 1.424 . S
C20 C19 1.384 . S
C20 H38 0.928 . S
C21 C18 1.260 . S
C21 C19 1.479 . S
C22 C17 1.245 . S
C22 C18 1.477 . S
C22 H39 0.932 . S
C23 U6 2.882 . S
C23 C17 1.428 . S
C23 O26 1.301 . S
C23 O27 1.282 . S
O24 U6 2.441 . S
O24 C10 1.249 . S
O25 U6 2.420 . S
O25 C10 1.202 . S
O26 U6 2.455 . S
O26 C23 1.301 . S
O27 U6 2.449 . S
O27 C23 1.282 . S
H28 C1 0.931 . S
H29 C3 0.929 . S
H30 C4 0.930 . S
H31 C5 0.931 . S
H32 C12 0.932 . S
H33 C13 0.930 . S
H34 C14 0.929 1_565 S
H35 C16 0.930 . S
H36 C18 0.932 . S
H37 C19 0.929 . S
H38 C20 0.928 . S
H39 C22 0.932 . S
C40 C41 1.264 . S
C40 C45 1.479 . S
C40 C50 1.465 . S
C41 C40 1.264 . S
C41 C43 1.339 . S
C41 H68 0.931 . S
C42 C43 1.395 1_455 S
C42 C44 1.320 1_455 S
C43 C41 1.339 . S
C43 C42 1.395 1_655 S
C43 H69 0.929 1_655 S
C44 C42 1.320 1_655 S
C44 C45 1.405 . S
C44 H70 0.930 . S
C45 C40 1.479 . S
C45 C44 1.405 . S
C45 H71 0.931 . S
U46 O47 2.454 . S
U46 O48 2.458 . S
U46 C49 2.984 . S
U46 C50 2.847 . S
U46 C63 2.882 . S
U46 O64 2.441 . S
U46 O65 2.420 . S
U46 O66 2.455 . S
U46 O67 2.449 . S
O47 U46 2.454 . S
O47 C49 1.353 . S
O48 U46 2.458 . S
O48 C49 1.286 . S
C49 U46 2.984 . S
C49 O47 1.353 . S
C49 O48 1.286 . S
C49 C51 1.363 . S
C50 C40 1.465 . S
C50 U46 2.847 . S
C50 O64 1.249 . S
C50 O65 1.202 . S
C51 C49 1.363 . S
C51 C53 1.408 . S
C51 C56 1.342 . S
C52 C53 1.310 . S
C52 C55 1.461 1_545 S
C52 H72 0.932 . S
C53 C51 1.408 . S
C53 C52 1.310 . S
C53 H73 0.930 . S
C54 C55 1.474 1_545 S
C54 C56 1.285 . S
C54 H74 0.929 1_545 S
C55 C52 1.461 1_565 S
C55 C54 1.474 1_565 S
C56 C51 1.342 . S
C56 C54 1.285 . S
C56 H75 0.930 . S
C57 C60 1.424 . S
C57 C62 1.245 . S
C57 C63 1.428 . S
C58 C61 1.260 . S
C58 C62 1.477 . S
C58 H76 0.932 . S
C59 C60 1.384 . S
C59 C61 1.479 . S
C59 H77 0.929 . S
C60 C57 1.424 . S
C60 C59 1.384 . S
C60 H78 0.928 . S
C61 C58 1.260 . S
C61 C59 1.479 . S
C62 C57 1.245 . S
C62 C58 1.477 . S
C62 H79 0.932 . S
C63 U46 2.882 . S
C63 C57 1.428 . S
C63 O66 1.301 . S
C63 O67 1.282 . S
O64 U46 2.441 . S
O64 C50 1.249 . S
O65 U46 2.420 . S
O65 C50 1.202 . S
O66 U46 2.455 . S
O66 C63 1.301 . S
O67 U46 2.449 . S
O67 C63 1.282 . S
H68 C41 0.931 . S
H69 C43 0.929 1_455 S
H70 C44 0.930 . S
H71 C45 0.931 . S
H72 C52 0.932 . S
H73 C53 0.930 . S
H74 C54 0.929 1_565 S
H75 C56 0.930 . S
H76 C58 0.932 . S
H77 C59 0.929 . S
H78 C60 0.928 . S
H79 C62 0.932 . S
C80 C81 1.264 . S
C80 C85 1.479 . S
C80 C90 1.465 . S
C81 C80 1.264 . S
C81 C83 1.339 . S
C81 H108 0.931 . S
C82 C83 1.395 . S
C82 C84 1.320 . S
C83 C81 1.339 . S
C83 C82 1.395 . S
C83 H109 0.929 . S
C84 C82 1.320 . S
C84 C85 1.405 . S
C84 H110 0.930 . S
C85 C80 1.479 . S
C85 C84 1.405 . S
C85 H111 0.931 . S
U86 O87 2.454 . S
U86 O88 2.458 . S
U86 C89 2.984 . S
U86 C90 2.847 . S
U86 C103 2.882 . S
U86 O104 2.441 . S
U86 O105 2.420 . S
U86 O106 2.455 . S
U86 O107 2.449 . S
O87 U86 2.454 . S
O87 C89 1.353 . S
O88 U86 2.458 . S
O88 C89 1.286 . S
C89 U86 2.984 . S
C89 O87 1.353 . S
C89 O88 1.286 . S
C89 C91 1.363 . S
C90 C80 1.465 . S
C90 U86 2.847 . S
C90 O104 1.249 . S
C90 O105 1.202 . S
C91 C89 1.363 . S
C91 C93 1.408 . S
C91 C96 1.342 . S
C92 C93 1.310 . S
C92 C95 1.461 1_655 S
C92 H112 0.932 . S
C93 C91 1.408 . S
C93 C92 1.310 . S
C93 H113 0.930 . S
C94 C95 1.474 . S
C94 C96 1.285 1_455 S
C94 H114 0.929 . S
C95 C92 1.461 1_455 S
C95 C94 1.474 . S
C96 C91 1.342 . S
C96 C94 1.285 1_655 S
C96 H115 0.930 . S
C97 C100 1.424 . S
C97 C102 1.245 . S
C97 C103 1.428 . S
C98 C101 1.260 . S
C98 C102 1.477 . S
C98 H116 0.932 . S
C99 C100 1.384 . S
C99 C101 1.479 . S
C99 H117 0.929 . S
C100 C97 1.424 . S
C100 C99 1.384 . S
C100 H118 0.928 . S
C101 C98 1.260 . S
C101 C99 1.479 . S
C102 C97 1.245 . S
C102 C98 1.477 . S
C102 H119 0.932 . S
C103 U86 2.882 . S
C103 C97 1.428 . S
C103 O106 1.301 . S
C103 O107 1.282 . S
O104 U86 2.441 . S
O104 C90 1.249 . S
O105 U86 2.420 . S
O105 C90 1.202 . S
O106 U86 2.455 . S
O106 C103 1.301 . S
O107 U86 2.449 . S
O107 C103 1.282 . S
H108 C81 0.931 . S
H109 C83 0.929 . S
H110 C84 0.930 . S
H111 C85 0.931 . S
H112 C92 0.932 . S
H113 C93 0.930 . S
H114 C94 0.929 . S
H115 C96 0.930 . S
H116 C98 0.932 . S
H117 C99 0.929 . S
H118 C100 0.928 . S
H119 C102 0.932 . S
C120 C121 1.264 . S
C120 C125 1.479 . S
C120 C130 1.465 . S
C121 C120 1.264 . S
C121 C123 1.375 . S
C121 H148 0.931 . S
C122 C123 1.391 1_655 S
C122 C124 1.320 1_655 S
C123 C121 1.375 . S
C123 C122 1.391 1_455 S
C123 H149 0.895 1_455 S
C124 C122 1.320 1_455 S
C124 C125 1.405 . S
C124 H150 0.930 . S
C125 C120 1.479 . S
C125 C124 1.405 . S
C125 H151 0.931 . S
U126 O127 2.454 . S
U126 O128 2.458 . S
U126 C129 2.984 . S
U126 C130 2.847 . S
U126 C143 2.882 . S
U126 O144 2.441 . S
U126 O145 2.420 . S
U126 O146 2.455 . S
U126 O147 2.449 . S
O127 U126 2.454 . S
O127 C129 1.353 . S
O128 U126 2.458 . S
O128 C129 1.286 . S
C129 U126 2.984 . S
C129 O127 1.353 . S
C129 O128 1.286 . S
C129 C131 1.363 . S
C130 C120 1.465 . S
C130 U126 2.847 . S
C130 O144 1.249 . S
C130 O145 1.202 . S
C131 C129 1.363 . S
C131 C133 1.408 . S
C131 C136 1.342 . S
C132 C133 1.310 . S
C132 C135 1.461 . S
C132 H152 0.932 . S
C133 C131 1.408 . S
C133 C132 1.310 . S
C133 H153 0.930 . S
C134 C135 1.474 . S
C134 C136 1.285 . S
C134 H154 0.929 . S
C135 C132 1.461 . S
C135 C134 1.474 . S
C136 C131 1.342 . S
C136 C134 1.285 . S
C136 H155 0.930 . S
C137 C140 1.424 . S
C137 C142 1.245 . S
C137 C143 1.428 . S
C138 C141 1.260 . S
C138 C142 1.477 . S
C138 H156 0.932 . S
C139 C140 1.384 . S
C139 C141 1.479 . S
C139 H157 0.929 . S
C140 C137 1.424 . S
C140 C139 1.384 . S
C140 H158 0.928 . S
C141 C138 1.260 . S
C141 C139 1.479 . S
C142 C137 1.245 . S
C142 C138 1.477 . S
C142 H159 0.932 . S
C143 U126 2.882 . S
C143 C137 1.428 . S
C143 O146 1.301 . S
C143 O147 1.282 . S
O144 U126 2.441 . S
O144 C130 1.249 . S
O145 U126 2.420 . S
O145 C130 1.202 . S
O146 U126 2.455 . S
O146 C143 1.301 . S
O147 U126 2.449 . S
O147 C143 1.282 . S
H148 C121 0.931 . S
H149 C123 0.895 1_655 S
H150 C124 0.930 . S
H151 C125 0.931 . S
H152 C132 0.932 . S
H153 C133 0.930 . S
H154 C134 0.929 . S
H155 C136 0.930 . S
H156 C138 0.932 . S
H157 C139 0.929 . S
H158 C140 0.928 . S
H159 C142 0.932 . S
C160 C161 1.264 . S
C160 C165 1.479 . S
C160 C170 1.465 . S
C161 C160 1.264 . S
C161 C163 1.339 . S
C161 H188 0.931 . S
C162 C163 1.395 . S
C162 C164 1.320 . S
C163 C161 1.339 . S
C163 C162 1.395 . S
C163 H189 0.929 . S
C164 C162 1.320 . S
C164 C165 1.405 . S
C164 H190 0.930 . S
C165 C160 1.479 . S
C165 C164 1.405 . S
C165 H191 0.931 . S
U166 O167 2.454 . S
U166 O168 2.458 . S
U166 C169 2.984 . S
U166 C170 2.847 . S
U166 C183 2.882 . S
U166 O184 2.441 . S
U166 O185 2.420 . S
U166 O186 2.455 . S
U166 O187 2.449 . S
O167 U166 2.454 . S
O167 C169 1.353 . S
O168 U166 2.458 . S
O168 C169 1.286 . S
C169 U166 2.984 . S
C169 O167 1.353 . S
C169 O168 1.286 . S
C169 C171 1.363 . S
C170 C160 1.465 . S
C170 U166 2.847 . S
C170 O184 1.249 . S
C170 O185 1.202 . S
C171 C169 1.363 . S
C171 C173 1.408 . S
C171 C176 1.342 . S
C172 C173 1.310 . S
C172 C175 1.446 1_565 S
C172 H192 0.932 . S
C173 C171 1.408 . S
C173 C172 1.310 . S
C173 H193 0.930 . S
C174 C175 1.472 1_565 S
C174 C176 1.285 . S
C174 H194 0.929 1_565 S
C175 C172 1.446 1_545 S
C175 C174 1.472 1_545 S
C176 C171 1.342 . S
C176 C174 1.285 . S
C176 H195 0.930 . S
C177 C180 1.424 . S
C177 C182 1.245 . S
C177 C183 1.428 . S
C178 C181 1.260 . S
C178 C182 1.477 . S
C178 H196 0.932 . S
C179 C180 1.384 . S
C179 C181 1.479 . S
C179 H197 0.929 . S
C180 C177 1.424 . S
C180 C179 1.384 . S
C180 H198 0.928 . S
C181 C178 1.260 . S
C181 C179 1.479 . S
C182 C177 1.245 . S
C182 C178 1.477 . S
C182 H199 0.932 . S
C183 U166 2.882 . S
C183 C177 1.428 . S
C183 O186 1.301 . S
C183 O187 1.282 . S
O184 U166 2.441 . S
O184 C170 1.249 . S
O185 U166 2.420 . S
O185 C170 1.202 . S
O186 U166 2.455 . S
O186 C183 1.301 . S
O187 U166 2.449 . S
O187 C183 1.282 . S
H188 C161 0.931 . S
H189 C163 0.929 . S
H190 C164 0.930 . S
H191 C165 0.931 . S
H192 C172 0.932 . S
H193 C173 0.930 . S
H194 C174 0.929 1_545 S
H195 C176 0.930 . S
H196 C178 0.932 . S
H197 C179 0.929 . S
H198 C180 0.928 . S
H199 C182 0.932 . S
C200 C201 1.264 . S
C200 C205 1.479 . S
C200 C210 1.465 . S
C201 C200 1.264 . S
C201 C203 1.339 1_455 S
C201 H228 0.931 . S
C202 C203 1.395 . S
C202 C204 1.320 1_655 S
C203 C201 1.339 1_655 S
C203 C202 1.395 . S
C203 H229 0.929 . S
C204 C202 1.320 1_455 S
C204 C205 1.405 . S
C204 H230 0.930 . S
C205 C200 1.479 . S
C205 C204 1.405 . S
C205 H231 0.931 . S
U206 O207 2.454 . S
U206 O208 2.458 . S
U206 C209 2.984 . S
U206 C210 2.847 . S
U206 C223 2.882 . S
U206 O224 2.441 . S
U206 O225 2.420 . S
U206 O226 2.455 . S
U206 O227 2.449 . S
O207 U206 2.454 . S
O207 C209 1.353 . S
O208 U206 2.458 . S
O208 C209 1.286 . S
C209 U206 2.984 . S
C209 O207 1.353 . S
C209 O208 1.286 . S
C209 C211 1.363 . S
C210 C200 1.465 . S
C210 U206 2.847 . S
C210 O224 1.249 . S
C210 O225 1.202 . S
C211 C209 1.363 . S
C211 C213 1.408 . S
C211 C216 1.342 . S
C212 C213 1.310 . S
C212 C215 1.461 1_565 S
C212 H232 0.932 . S
C213 C211 1.408 . S
C213 C212 1.310 . S
C213 H233 0.930 . S
C214 C215 1.474 1_565 S
C214 C216 1.285 . S
C214 H234 0.929 1_565 S
C215 C212 1.461 1_545 S
C215 C214 1.474 1_545 S
C216 C211 1.342 . S
C216 C214 1.285 . S
C216 H235 0.930 . S
C217 C220 1.424 . S
C217 C222 1.245 . S
C217 C223 1.428 . S
C218 C221 1.260 . S
C218 C222 1.477 . S
C218 H236 0.932 . S
C219 C220 1.384 . S
C219 C221 1.479 . S
C219 H237 0.929 . S
C220 C217 1.424 . S
C220 C219 1.384 . S
C220 H238 0.928 . S
C221 C218 1.260 . S
C221 C219 1.479 . S
C222 C217 1.245 . S
C222 C218 1.477 . S
C222 H239 0.932 . S
C223 U206 2.882 . S
C223 C217 1.428 . S
C223 O226 1.301 . S
C223 O227 1.282 . S
O224 U206 2.441 . S
O224 C210 1.249 . S
O225 U206 2.420 . S
O225 C210 1.202 . S
O226 U206 2.455 . S
O226 C223 1.301 . S
O227 U206 2.449 . S
O227 C223 1.282 . S
H228 C201 0.931 . S
H229 C203 0.929 . S
H230 C204 0.930 . S
H231 C205 0.931 . S
H232 C212 0.932 . S
H233 C213 0.930 . S
H234 C214 0.929 1_545 S
H235 C216 0.930 . S
H236 C218 0.932 . S
H237 C219 0.929 . S
H238 C220 0.928 . S
H239 C222 0.932 . S
C240 C241 1.264 . S
C240 C245 1.479 . S
C240 C250 1.465 . S
C241 C240 1.264 . S
C241 C243 1.339 . S
C241 H268 0.931 . S
C242 C243 1.395 . S
C242 C244 1.320 . S
C243 C241 1.339 . S
C243 C242 1.395 . S
C243 H269 0.929 . S
C244 C242 1.320 . S
C244 C245 1.405 . S
C244 H270 0.930 . S
C245 C240 1.479 . S
C245 C244 1.405 . S
C245 H271 0.931 . S
U246 O247 2.454 . S
U246 O248 2.458 . S
U246 C249 2.984 . S
U246 C250 2.847 . S
U246 C263 2.882 . S
U246 O264 2.441 . S
U246 O265 2.420 . S
U246 O266 2.455 . S
U246 O267 2.449 . S
O247 U246 2.454 . S
O247 C249 1.353 . S
O248 U246 2.458 . S
O248 C249 1.286 . S
C249 U246 2.984 . S
C249 O247 1.353 . S
C249 O248 1.286 . S
C249 C251 1.363 . S
C250 C240 1.465 . S
C250 U246 2.847 . S
C250 O264 1.249 . S
C250 O265 1.202 . S
C251 C249 1.363 . S
C251 C253 1.408 . S
C251 C256 1.342 . S
C252 C253 1.310 . S
C252 C255 1.461 . S
C252 H272 0.932 . S
C253 C251 1.408 . S
C253 C252 1.310 . S
C253 H273 0.930 . S
C254 C255 1.474 . S
C254 C256 1.285 . S
C254 H274 0.929 . S
C255 C252 1.461 . S
C255 C254 1.474 . S
C256 C251 1.342 . S
C256 C254 1.285 . S
C256 H275 0.930 . S
C257 C260 1.424 . S
C257 C262 1.245 . S
C257 C263 1.428 . S
C258 C261 1.260 . S
C258 C262 1.477 . S
C258 H276 0.932 . S
C259 C260 1.384 . S
C259 C261 1.479 . S
C259 H277 0.929 . S
C260 C257 1.424 . S
C260 C259 1.384 . S
C260 H278 0.928 . S
C261 C258 1.260 . S
C261 C259 1.479 . S
C262 C257 1.245 . S
C262 C258 1.477 . S
C262 H279 0.932 . S
C263 U246 2.882 . S
C263 C257 1.428 . S
C263 O266 1.301 . S
C263 O267 1.282 . S
O264 U246 2.441 . S
O264 C250 1.249 . S
O265 U246 2.420 . S
O265 C250 1.202 . S
O266 U246 2.455 . S
O266 C263 1.301 . S
O267 U246 2.449 . S
O267 C263 1.282 . S
H268 C241 0.931 . S
H269 C243 0.929 . S
H270 C244 0.930 . S
H271 C245 0.931 . S
H272 C252 0.932 . S
H273 C253 0.930 . S
H274 C254 0.929 . S
H275 C256 0.930 . S
H276 C258 0.932 . S
H277 C259 0.929 . S
H278 C260 0.928 . S
H279 C262 0.932 . S
C280 C281 1.264 . S
C280 C285 1.479 . S
C280 C290 1.465 . S
C281 C280 1.264 . S
C281 C283 1.339 . S
C281 H308 0.931 . S
C282 C283 1.395 . S
C282 C284 1.320 . S
C283 C281 1.339 . S
C283 C282 1.395 . S
C283 H309 0.929 . S
C284 C282 1.320 . S
C284 C285 1.405 . S
C284 H310 0.930 . S
C285 C280 1.479 . S
C285 C284 1.405 . S
C285 H311 0.931 . S
U286 O287 2.454 . S
U286 O288 2.458 . S
U286 C289 2.984 . S
U286 C290 2.847 . S
U286 C303 2.882 . S
U286 O304 2.441 . S
U286 O305 2.420 . S
U286 O306 2.455 . S
U286 O307 2.449 . S
O287 U286 2.454 . S
O287 C289 1.353 . S
O288 U286 2.458 . S
O288 C289 1.286 . S
C289 U286 2.984 . S
C289 O287 1.353 . S
C289 O288 1.286 . S
C289 C291 1.363 . S
C290 C280 1.465 . S
C290 U286 2.847 . S
C290 O304 1.249 . S
C290 O305 1.202 . S
C291 C289 1.363 . S
C291 C293 1.408 . S
C291 C296 1.342 . S
C292 C293 1.310 . S
C292 C295 1.461 . S
C292 H312 0.932 . S
C293 C291 1.408 . S
C293 C292 1.310 . S
C293 H313 0.930 . S
C294 C295 1.474 . S
C294 C296 1.285 . S
C294 H314 0.929 . S
C295 C292 1.461 . S
C295 C294 1.474 . S
C296 C291 1.342 . S
C296 C294 1.285 . S
C296 H315 0.930 . S
C297 C300 1.424 . S
C297 C302 1.245 . S
C297 C303 1.428 . S
C298 C301 1.260 . S
C298 C302 1.477 . S
C298 H316 0.932 . S
C299 C300 1.384 . S
C299 C301 1.479 . S
C299 H317 0.929 . S
C300 C297 1.424 . S
C300 C299 1.384 . S
C300 H318 0.928 . S
C301 C298 1.260 . S
C301 C299 1.479 . S
C302 C297 1.245 . S
C302 C298 1.477 . S
C302 H319 0.932 . S
C303 U286 2.882 . S
C303 C297 1.428 . S
C303 O306 1.301 . S
C303 O307 1.282 . S
O304 U286 2.441 . S
O304 C290 1.249 . S
O305 U286 2.420 . S
O305 C290 1.202 . S
O306 U286 2.455 . S
O306 C303 1.301 . S
O307 U286 2.449 . S
O307 C303 1.282 . S
H308 C281 0.931 . S
H309 C283 0.929 . S
H310 C284 0.930 . S
H311 C285 0.931 . S
H312 C292 0.932 . S
H313 C293 0.930 . S
H314 C294 0.929 . S
H315 C296 0.930 . S
H316 C298 0.932 . S
H317 C299 0.929 . S
H318 C300 0.928 . S
H319 C302 0.932 . S
C320 C321 1.264 . S
C320 C325 1.479 . S
C320 C330 1.465 . S
C321 C320 1.264 . S
C321 C323 1.339 . S
C321 H348 0.931 . S
C322 C323 1.395 . S
C322 C324 1.320 . S
C323 C321 1.339 . S
C323 C322 1.395 . S
C323 H349 0.929 . S
C324 C322 1.320 . S
C324 C325 1.405 . S
C324 H350 0.930 . S
C325 C320 1.479 . S
C325 C324 1.405 . S
C325 H351 0.931 . S
U326 O327 2.454 . S
U326 O328 2.458 . S
U326 C329 2.984 . S
U326 C330 2.847 . S
U326 C343 2.882 . S
U326 O344 2.441 . S
U326 O345 2.420 . S
U326 O346 2.455 . S
U326 O347 2.449 . S
O327 U326 2.454 . S
O327 C329 1.353 . S
O328 U326 2.458 . S
O328 C329 1.286 . S
C329 U326 2.984 . S
C329 O327 1.353 . S
C329 O328 1.286 . S
C329 C331 1.363 . S
C330 C320 1.465 . S
C330 U326 2.847 . S
C330 O344 1.249 . S
C330 O345 1.202 . S
C331 C329 1.363 . S
C331 C333 1.408 . S
C331 C336 1.342 . S
C332 C333 1.310 . S
C332 C335 1.461 . S
C332 H352 0.932 . S
C333 C331 1.408 . S
C333 C332 1.310 . S
C333 H353 0.930 . S
C334 C335 1.474 . S
C334 C336 1.285 . S
C334 H354 0.929 . S
C335 C332 1.461 . S
C335 C334 1.474 . S
C336 C331 1.342 . S
C336 C334 1.285 . S
C336 H355 0.930 . S
C337 C340 1.424 . S
C337 C342 1.245 . S
C337 C343 1.428 . S
C338 C341 1.260 . S
C338 C342 1.477 . S
C338 H356 0.932 . S
C339 C340 1.384 . S
C339 C341 1.479 . S
C339 H357 0.929 . S
C340 C337 1.424 . S
C340 C339 1.384 . S
C340 H358 0.928 . S
C341 C338 1.260 . S
C341 C339 1.479 . S
C342 C337 1.245 . S
C342 C338 1.477 . S
C342 H359 0.932 . S
C343 U326 2.882 . S
C343 C337 1.428 . S
C343 O346 1.301 . S
C343 O347 1.282 . S
O344 U326 2.441 . S
O344 C330 1.249 . S
O345 U326 2.420 . S
O345 C330 1.202 . S
O346 U326 2.455 . S
O346 C343 1.301 . S
O347 U326 2.449 . S
O347 C343 1.282 . S
H348 C321 0.931 . S
H349 C323 0.929 . S
H350 C324 0.930 . S
H351 C325 0.931 . S
H352 C332 0.932 . S
H353 C333 0.930 . S
H354 C334 0.929 . S
H355 C336 0.930 . S
H356 C338 0.932 . S
H357 C339 0.929 . S
H358 C340 0.928 . S
H359 C342 0.932 . S
C360 C361 1.264 . S
C360 C365 1.479 . S
C360 C370 1.465 . S
C361 C360 1.264 . S
C361 C363 1.339 . S
C361 H388 0.931 . S
C362 C363 1.395 . S
C362 C364 1.320 . S
C363 C361 1.339 . S
C363 C362 1.395 . S
C363 H389 0.929 . S
C364 C362 1.320 . S
C364 C365 1.405 . S
C364 H390 0.930 . S
C365 C360 1.479 . S
C365 C364 1.405 . S
C365 H391 0.931 . S
U366 O367 2.454 . S
U366 O368 2.458 . S
U366 C369 2.984 . S
U366 C370 2.847 . S
U366 C383 2.882 . S
U366 O384 2.441 . S
U366 O385 2.420 . S
U366 O386 2.455 . S
U366 O387 2.449 . S
O367 U366 2.454 . S
O367 C369 1.353 . S
O368 U366 2.458 . S
O368 C369 1.286 . S
C369 U366 2.984 . S
C369 O367 1.353 . S
C369 O368 1.286 . S
C369 C371 1.363 . S
C370 C360 1.465 . S
C370 U366 2.847 . S
C370 O384 1.249 . S
C370 O385 1.202 . S
C371 C369 1.363 . S
C371 C373 1.408 . S
C371 C376 1.342 . S
C372 C373 1.310 . S
C372 C375 1.461 . S
C372 H392 0.932 . S
C373 C371 1.408 . S
C373 C372 1.310 . S
C373 H393 0.930 . S
C374 C375 1.474 . S
C374 C376 1.285 . S
C374 H394 0.929 . S
C375 C372 1.461 . S
C375 C374 1.474 . S
C376 C371 1.342 . S
C376 C374 1.285 . S
C376 H395 0.930 . S
C377 C380 1.424 . S
C377 C382 1.245 . S
C377 C383 1.428 . S
C378 C381 1.260 . S
C378 C382 1.477 . S
C378 H396 0.932 . S
C379 C380 1.384 . S
C379 C381 1.479 . S
C379 H397 0.929 . S
C380 C377 1.424 . S
C380 C379 1.384 . S
C380 H398 0.928 . S
C381 C378 1.260 . S
C381 C379 1.479 . S
C382 C377 1.245 . S
C382 C378 1.477 . S
C382 H399 0.932 . S
C383 U366 2.882 . S
C383 C377 1.428 . S
C383 O386 1.301 . S
C383 O387 1.282 . S
O384 U366 2.441 . S
O384 C370 1.249 . S
O385 U366 2.420 . S
O385 C370 1.202 . S
O386 U366 2.455 . S
O386 C383 1.301 . S
O387 U366 2.449 . S
O387 C383 1.282 . S
H388 C361 0.931 . S
H389 C363 0.929 . S
H390 C364 0.930 . S
H391 C365 0.931 . S
H392 C372 0.932 . S
H393 C373 0.930 . S
H394 C374 0.929 . S
H395 C376 0.930 . S
H396 C378 0.932 . S
H397 C379 0.929 . S
H398 C380 0.928 . S
H399 C382 0.932 . S
C400 C401 1.264 . S
C400 C405 1.479 . S
C400 C410 1.465 . S
C401 C400 1.264 . S
C401 C403 1.339 . S
C401 H428 0.931 . S
C402 C403 1.395 . S
C402 C404 1.320 . S
C403 C401 1.339 . S
C403 C402 1.395 . S
C403 H429 0.929 . S
C404 C402 1.320 . S
C404 C405 1.405 . S
C404 H430 0.930 . S
C405 C400 1.479 . S
C405 C404 1.405 . S
C405 H431 0.931 . S
U406 O407 2.454 . S
U406 O408 2.458 . S
U406 C409 2.984 . S
U406 C410 2.847 . S
U406 C423 2.882 . S
U406 O424 2.441 . S
U406 O425 2.420 . S
U406 O426 2.455 . S
U406 O427 2.449 . S
O407 U406 2.454 . S
O407 C409 1.353 . S
O408 U406 2.458 . S
O408 C409 1.286 . S
C409 U406 2.984 . S
C409 O407 1.353 . S
C409 O408 1.286 . S
C409 C411 1.363 . S
C410 C400 1.465 . S
C410 U406 2.847 . S
C410 O424 1.249 . S
C410 O425 1.202 . S
C411 C409 1.363 . S
C411 C413 1.408 . S
C411 C416 1.342 . S
C412 C413 1.310 . S
C412 C415 1.461 . S
C412 H432 0.932 . S
C413 C411 1.408 . S
C413 C412 1.310 . S
C413 H433 0.930 . S
C414 C415 1.474 . S
C414 C416 1.285 . S
C414 H434 0.929 . S
C415 C412 1.461 . S
C415 C414 1.474 . S
C416 C411 1.342 . S
C416 C414 1.285 . S
C416 H435 0.930 . S
C417 C420 1.424 . S
C417 C422 1.245 . S
C417 C423 1.428 . S
C418 C421 1.260 . S
C418 C422 1.477 . S
C418 H436 0.932 . S
C419 C420 1.384 . S
C419 C421 1.479 . S
C419 H437 0.929 . S
C420 C417 1.424 . S
C420 C419 1.384 . S
C420 H438 0.928 . S
C421 C418 1.260 . S
C421 C419 1.479 . S
C422 C417 1.245 . S
C422 C418 1.477 . S
C422 H439 0.932 . S
C423 U406 2.882 . S
C423 C417 1.428 . S
C423 O426 1.301 . S
C423 O427 1.282 . S
O424 U406 2.441 . S
O424 C410 1.249 . S
O425 U406 2.420 . S
O425 C410 1.202 . S
O426 U406 2.455 . S
O426 C423 1.301 . S
O427 U406 2.449 . S
O427 C423 1.282 . S
H428 C401 0.931 . S
H429 C403 0.929 . S
H430 C404 0.930 . S
H431 C405 0.931 . S
H432 C412 0.932 . S
H433 C413 0.930 . S
H434 C414 0.929 . S
H435 C416 0.930 . S
H436 C418 0.932 . S
H437 C419 0.929 . S
H438 C420 0.928 . S
H439 C422 0.932 . S
C440 C441 1.264 . S
C440 C445 1.479 . S
C440 C450 1.465 . S
C441 C440 1.264 . S
C441 C443 1.339 . S
C441 H468 0.931 . S
C442 C443 1.395 . S
C442 C444 1.320 . S
C443 C441 1.339 . S
C443 C442 1.395 . S
C443 H469 0.929 . S
C444 C442 1.320 . S
C444 C445 1.405 . S
C444 H470 0.930 . S
C445 C440 1.479 . S
C445 C444 1.405 . S
C445 H471 0.931 . S
U446 O447 2.454 . S
U446 O448 2.458 . S
U446 C449 2.984 . S
U446 C450 2.847 . S
U446 C463 2.882 . S
U446 O464 2.441 . S
U446 O465 2.420 . S
U446 O466 2.455 . S
U446 O467 2.449 . S
O447 U446 2.454 . S
O447 C449 1.353 . S
O448 U446 2.458 . S
O448 C449 1.286 . S
C449 U446 2.984 . S
C449 O447 1.353 . S
C449 O448 1.286 . S
C449 C451 1.363 . S
C450 C440 1.465 . S
C450 U446 2.847 . S
C450 O464 1.249 . S
C450 O465 1.202 . S
C451 C449 1.363 . S
C451 C453 1.408 . S
C451 C456 1.342 . S
C452 C453 1.310 . S
C452 C455 1.461 . S
C452 H472 0.932 . S
C453 C451 1.408 . S
C453 C452 1.310 . S
C453 H473 0.930 . S
C454 C455 1.474 . S
C454 C456 1.285 . S
C454 H474 0.929 . S
C455 C452 1.461 . S
C455 C454 1.474 . S
C456 C451 1.342 . S
C456 C454 1.285 . S
C456 H475 0.930 . S
C457 C460 1.424 . S
C457 C462 1.245 . S
C457 C463 1.428 . S
C458 C461 1.260 . S
C458 C462 1.477 . S
C458 H476 0.932 . S
C459 C460 1.384 . S
C459 C461 1.479 . S
C459 H477 0.929 . S
C460 C457 1.424 . S
C460 C459 1.384 . S
C460 H478 0.928 . S
C461 C458 1.260 . S
C461 C459 1.479 . S
C462 C457 1.245 . S
C462 C458 1.477 . S
C462 H479 0.932 . S
C463 U446 2.882 . S
C463 C457 1.428 . S
C463 O466 1.301 . S
C463 O467 1.282 . S
O464 U446 2.441 . S
O464 C450 1.249 . S
O465 U446 2.420 . S
O465 C450 1.202 . S
O466 U446 2.455 . S
O466 C463 1.301 . S
O467 U446 2.449 . S
O467 C463 1.282 . S
H468 C441 0.931 . S
H469 C443 0.929 . S
H470 C444 0.930 . S
H471 C445 0.931 . S
H472 C452 0.932 . S
H473 C453 0.930 . S
H474 C454 0.929 . S
H475 C456 0.930 . S
H476 C458 0.932 . S
H477 C459 0.929 . S
H478 C460 0.928 . S
H479 C462 0.932 . S
C480 C481 1.264 . S
C480 C485 1.479 . S
C480 C490 1.465 . S
C481 C480 1.264 . S
C481 C483 1.339 . S
C481 H508 0.931 . S
C482 C483 1.395 . S
C482 C484 1.320 . S
C483 C481 1.339 . S
C483 C482 1.395 . S
C483 H509 0.929 . S
C484 C482 1.320 . S
C484 C485 1.405 . S
C484 H510 0.930 . S
C485 C480 1.479 . S
C485 C484 1.405 . S
C485 H511 0.931 . S
U486 O487 2.454 . S
U486 O488 2.458 . S
U486 C489 2.984 . S
U486 C490 2.847 . S
U486 C503 2.882 . S
U486 O504 2.441 . S
U486 O505 2.420 . S
U486 O506 2.455 . S
U486 O507 2.449 . S
O487 U486 2.454 . S
O487 C489 1.353 . S
O488 U486 2.458 . S
O488 C489 1.286 . S
C489 U486 2.984 . S
C489 O487 1.353 . S
C489 O488 1.286 . S
C489 C491 1.363 . S
C490 C480 1.465 . S
C490 U486 2.847 . S
C490 O504 1.249 . S
C490 O505 1.202 . S
C491 C489 1.363 . S
C491 C493 1.408 . S
C491 C496 1.342 . S
C492 C493 1.310 . S
C492 C495 1.461 . S
C492 H512 0.932 . S
C493 C491 1.408 . S
C493 C492 1.310 . S
C493 H513 0.930 . S
C494 C495 1.474 . S
C494 C496 1.285 . S
C494 H514 0.929 . S
C495 C492 1.461 . S
C495 C494 1.474 . S
C496 C491 1.342 . S
C496 C494 1.285 . S
C496 H515 0.930 . S
C497 C500 1.424 . S
C497 C502 1.245 . S
C497 C503 1.428 . S
C498 C501 1.260 . S
C498 C502 1.477 . S
C498 H516 0.932 . S
C499 C500 1.384 . S
C499 C501 1.479 . S
C499 H517 0.929 . S
C500 C497 1.424 . S
C500 C499 1.384 . S
C500 H518 0.928 . S
C501 C498 1.260 . S
C501 C499 1.479 . S
C502 C497 1.245 . S
C502 C498 1.477 . S
C502 H519 0.932 . S
C503 U486 2.882 . S
C503 C497 1.428 . S
C503 O506 1.301 . S
C503 O507 1.282 . S
O504 U486 2.441 . S
O504 C490 1.249 . S
O505 U486 2.420 . S
O505 C490 1.202 . S
O506 U486 2.455 . S
O506 C503 1.301 . S
O507 U486 2.449 . S
O507 C503 1.282 . S
H508 C481 0.931 . S
H509 C483 0.929 . S
H510 C484 0.930 . S
H511 C485 0.931 . S
H512 C492 0.932 . S
H513 C493 0.930 . S
H514 C494 0.929 . S
H515 C496 0.930 . S
H516 C498 0.932 . S
H517 C499 0.929 . S
H518 C500 0.928 . S
H519 C502 0.932 . S
C520 C521 1.264 . S
C520 C525 1.479 . S
C520 C530 1.465 . S
C521 C520 1.264 . S
C521 C523 1.339 . S
C521 H548 0.931 . S
C522 C523 1.395 . S
C522 C524 1.320 . S
C523 C521 1.339 . S
C523 C522 1.395 . S
C523 H549 0.929 . S
C524 C522 1.320 . S
C524 C525 1.405 . S
C524 H550 0.930 . S
C525 C520 1.479 . S
C525 C524 1.405 . S
C525 H551 0.931 . S
U526 O527 2.454 . S
U526 O528 2.458 . S
U526 C529 2.984 . S
U526 C530 2.847 . S
U526 C543 2.882 . S
U526 O544 2.441 . S
U526 O545 2.420 . S
U526 O546 2.455 . S
U526 O547 2.449 . S
O527 U526 2.454 . S
O527 C529 1.353 . S
O528 U526 2.458 . S
O528 C529 1.286 . S
C529 U526 2.984 . S
C529 O527 1.353 . S
C529 O528 1.286 . S
C529 C531 1.363 . S
C530 C520 1.465 . S
C530 U526 2.847 . S
C530 O544 1.249 . S
C530 O545 1.202 . S
C531 C529 1.363 . S
C531 C533 1.408 . S
C531 C536 1.342 . S
C532 C533 1.310 . S
C532 C535 1.461 . S
C532 H552 0.932 . S
C533 C531 1.408 . S
C533 C532 1.310 . S
C533 H553 0.930 . S
C534 C535 1.474 . S
C534 C536 1.285 . S
C534 H554 0.929 . S
C535 C532 1.461 . S
C535 C534 1.474 . S
C536 C531 1.342 . S
C536 C534 1.285 . S
C536 H555 0.930 . S
C537 C540 1.424 . S
C537 C542 1.245 . S
C537 C543 1.428 . S
C538 C541 1.260 . S
C538 C542 1.477 . S
C538 H556 0.932 . S
C539 C540 1.384 . S
C539 C541 1.479 . S
C539 H557 0.929 . S
C540 C537 1.424 . S
C540 C539 1.384 . S
C540 H558 0.928 . S
C541 C538 1.260 . S
C541 C539 1.479 . S
C542 C537 1.245 . S
C542 C538 1.477 . S
C542 H559 0.932 . S
C543 U526 2.882 . S
C543 C537 1.428 . S
C543 O546 1.301 . S
C543 O547 1.282 . S
O544 U526 2.441 . S
O544 C530 1.249 . S
O545 U526 2.420 . S
O545 C530 1.202 . S
O546 U526 2.455 . S
O546 C543 1.301 . S
O547 U526 2.449 . S
O547 C543 1.282 . S
H548 C521 0.931 . S
H549 C523 0.929 . S
H550 C524 0.930 . S
H551 C525 0.931 . S
H552 C532 0.932 . S
H553 C533 0.930 . S
H554 C534 0.929 . S
H555 C536 0.930 . S
H556 C538 0.932 . S
H557 C539 0.929 . S
H558 C540 0.928 . S
H559 C542 0.932 . S
C560 C561 1.264 . S
C560 C565 1.479 . S
C560 C570 1.465 . S
C561 C560 1.264 . S
C561 C563 1.339 . S
C561 H588 0.931 . S
C562 C563 1.395 . S
C562 C564 1.320 . S
C563 C561 1.339 . S
C563 C562 1.395 . S
C563 H589 0.929 . S
C564 C562 1.320 . S
C564 C565 1.405 . S
C564 H590 0.930 . S
C565 C560 1.479 . S
C565 C564 1.405 . S
C565 H591 0.931 . S
U566 O567 2.454 . S
U566 O568 2.458 . S
U566 C569 2.984 . S
U566 C570 2.847 . S
U566 C583 2.882 . S
U566 O584 2.441 . S
U566 O585 2.420 . S
U566 O586 2.455 . S
U566 O587 2.449 . S
O567 U566 2.454 . S
O567 C569 1.353 . S
O568 U566 2.458 . S
O568 C569 1.286 . S
C569 U566 2.984 . S
C569 O567 1.353 . S
C569 O568 1.286 . S
C569 C571 1.363 . S
C570 C560 1.465 . S
C570 U566 2.847 . S
C570 O584 1.249 . S
C570 O585 1.202 . S
C571 C569 1.363 . S
C571 C573 1.408 . S
C571 C576 1.342 . S
C572 C573 1.310 . S
C572 C575 1.461 . S
C572 H592 0.932 . S
C573 C571 1.408 . S
C573 C572 1.310 . S
C573 H593 0.930 . S
C574 C575 1.474 . S
C574 C576 1.285 . S
C574 H594 0.929 . S
C575 C572 1.461 . S
C575 C574 1.474 . S
C576 C571 1.342 . S
C576 C574 1.285 . S
C576 H595 0.930 . S
C577 C580 1.424 . S
C577 C582 1.245 . S
C577 C583 1.428 . S
C578 C581 1.260 . S
C578 C582 1.477 . S
C578 H596 0.932 . S
C579 C580 1.384 . S
C579 C581 1.479 . S
C579 H597 0.929 . S
C580 C577 1.424 . S
C580 C579 1.384 . S
C580 H598 0.928 . S
C581 C578 1.260 . S
C581 C579 1.479 . S
C582 C577 1.245 . S
C582 C578 1.477 . S
C582 H599 0.932 . S
C583 U566 2.882 . S
C583 C577 1.428 . S
C583 O586 1.301 . S
C583 O587 1.282 . S
O584 U566 2.441 . S
O584 C570 1.249 . S
O585 U566 2.420 . S
O585 C570 1.202 . S
O586 U566 2.455 . S
O586 C583 1.301 . S
O587 U566 2.449 . S
O587 C583 1.282 . S
H588 C561 0.931 . S
H589 C563 0.929 . S
H590 C564 0.930 . S
H591 C565 0.931 . S
H592 C572 0.932 . S
H593 C573 0.930 . S
H594 C574 0.929 . S
H595 C576 0.930 . S
H596 C578 0.932 . S
H597 C579 0.929 . S
H598 C580 0.928 . S
H599 C582 0.932 . S
C600 C601 1.264 . S
C600 C605 1.479 . S
C600 C610 1.465 . S
C601 C600 1.264 . S
C601 C603 1.339 . S
C601 H628 0.931 . S
C602 C603 1.395 . S
C602 C604 1.320 . S
C603 C601 1.339 . S
C603 C602 1.395 . S
C603 H629 0.929 . S
C604 C602 1.320 . S
C604 C605 1.405 . S
C604 H630 0.930 . S
C605 C600 1.479 . S
C605 C604 1.405 . S
C605 H631 0.931 . S
U606 O607 2.454 . S
U606 O608 2.458 . S
U606 C609 2.984 . S
U606 C610 2.847 . S
U606 C623 2.882 . S
U606 O624 2.441 . S
U606 O625 2.420 . S
U606 O626 2.455 . S
U606 O627 2.449 . S
O607 U606 2.454 . S
O607 C609 1.353 . S
O608 U606 2.458 . S
O608 C609 1.286 . S
C609 U606 2.984 . S
C609 O607 1.353 . S
C609 O608 1.286 . S
C609 C611 1.363 . S
C610 C600 1.465 . S
C610 U606 2.847 . S
C610 O624 1.249 . S
C610 O625 1.202 . S
C611 C609 1.363 . S
C611 C613 1.408 . S
C611 C616 1.342 . S
C612 C613 1.310 . S
C612 C615 1.461 . S
C612 H632 0.932 . S
C613 C611 1.408 . S
C613 C612 1.310 . S
C613 H633 0.930 . S
C614 C615 1.474 . S
C614 C616 1.285 . S
C614 H634 0.929 . S
C615 C612 1.461 . S
C615 C614 1.474 . S
C616 C611 1.342 . S
C616 C614 1.285 . S
C616 H635 0.930 . S
C617 C620 1.424 . S
C617 C622 1.245 . S
C617 C623 1.428 . S
C618 C621 1.260 . S
C618 C622 1.477 . S
C618 H636 0.932 . S
C619 C620 1.384 . S
C619 C621 1.479 . S
C619 H637 0.929 . S
C620 C617 1.424 . S
C620 C619 1.384 . S
C620 H638 0.928 . S
C621 C618 1.260 . S
C621 C619 1.479 . S
C622 C617 1.245 . S
C622 C618 1.477 . S
C622 H639 0.932 . S
C623 U606 2.882 . S
C623 C617 1.428 . S
C623 O626 1.301 . S
C623 O627 1.282 . S
O624 U606 2.441 . S
O624 C610 1.249 . S
O625 U606 2.420 . S
O625 C610 1.202 . S
O626 U606 2.455 . S
O626 C623 1.301 . S
O627 U606 2.449 . S
O627 C623 1.282 . S
H628 C601 0.931 . S
H629 C603 0.929 . S
H630 C604 0.930 . S
H631 C605 0.931 . S
H632 C612 0.932 . S
H633 C613 0.930 . S
H634 C614 0.929 . S
H635 C616 0.930 . S
H636 C618 0.932 . S
H637 C619 0.929 . S
H638 C620 0.928 . S
H639 C622 0.932 . S
C640 C641 1.264 . S
C640 C645 1.479 . S
C640 C650 1.465 . S
C641 C640 1.264 . S
C641 C643 1.339 . S
C641 H668 0.931 . S
C642 C643 1.395 . S
C642 C644 1.320 . S
C643 C641 1.339 . S
C643 C642 1.395 . S
C643 H669 0.929 . S
C644 C642 1.320 . S
C644 C645 1.405 . S
C644 H670 0.930 . S
C645 C640 1.479 . S
C645 C644 1.405 . S
C645 H671 0.931 . S
U646 O647 2.454 . S
U646 O648 2.458 . S
U646 C649 2.984 . S
U646 C650 2.847 . S
U646 C663 2.882 . S
U646 O664 2.441 . S
U646 O665 2.420 . S
U646 O666 2.455 . S
U646 O667 2.449 . S
O647 U646 2.454 . S
O647 C649 1.353 . S
O648 U646 2.458 . S
O648 C649 1.286 . S
C649 U646 2.984 . S
C649 O647 1.353 . S
C649 O648 1.286 . S
C649 C651 1.363 . S
C650 C640 1.465 . S
C650 U646 2.847 . S
C650 O664 1.249 . S
C650 O665 1.202 . S
C651 C649 1.363 . S
C651 C653 1.408 . S
C651 C656 1.342 . S
C652 C653 1.310 . S
C652 C655 1.461 . S
C652 H672 0.932 . S
C653 C651 1.408 . S
C653 C652 1.310 . S
C653 H673 0.930 . S
C654 C655 1.474 . S
C654 C656 1.285 . S
C654 H674 0.929 . S
C655 C652 1.461 . S
C655 C654 1.474 . S
C656 C651 1.342 . S
C656 C654 1.285 . S
C656 H675 0.930 . S
C657 C660 1.424 . S
C657 C662 1.245 . S
C657 C663 1.428 . S
C658 C661 1.260 . S
C658 C662 1.477 . S
C658 H676 0.932 . S
C659 C660 1.384 . S
C659 C661 1.479 . S
C659 H677 0.929 . S
C660 C657 1.424 . S
C660 C659 1.384 . S
C660 H678 0.928 . S
C661 C658 1.260 . S
C661 C659 1.479 . S
C662 C657 1.245 . S
C662 C658 1.477 . S
C662 H679 0.932 . S
C663 U646 2.882 . S
C663 C657 1.428 . S
C663 O666 1.301 . S
C663 O667 1.282 . S
O664 U646 2.441 . S
O664 C650 1.249 . S
O665 U646 2.420 . S
O665 C650 1.202 . S
O666 U646 2.455 . S
O666 C663 1.301 . S
O667 U646 2.449 . S
O667 C663 1.282 . S
H668 C641 0.931 . S
H669 C643 0.929 . S
H670 C644 0.930 . S
H671 C645 0.931 . S
H672 C652 0.932 . S
H673 C653 0.930 . S
H674 C654 0.929 . S
H675 C656 0.930 . S
H676 C658 0.932 . S
H677 C659 0.929 . S
H678 C660 0.928 . S
H679 C662 0.932 . S
C680 C681 1.264 . S
C680 C685 1.479 . S
C680 C690 1.465 . S
C681 C680 1.264 . S
C681 C683 1.339 . S
C681 H708 0.931 . S
C682 C683 1.395 . S
C682 C684 1.320 . S
C683 C681 1.339 . S
C683 C682 1.395 . S
C683 H709 0.929 . S
C684 C682 1.320 . S
C684 C685 1.405 . S
C684 H710 0.930 . S
C685 C680 1.479 . S
C685 C684 1.405 . S
C685 H711 0.931 . S
U686 O687 2.454 . S
U686 O688 2.458 . S
U686 C689 2.984 . S
U686 C690 2.847 . S
U686 C703 2.882 . S
U686 O704 2.441 . S
U686 O705 2.420 . S
U686 O706 2.455 . S
U686 O707 2.449 . S
O687 U686 2.454 . S
O687 C689 1.353 . S
O688 U686 2.458 . S
O688 C689 1.286 . S
C689 U686 2.984 . S
C689 O687 1.353 . S
C689 O688 1.286 . S
C689 C691 1.363 . S
C690 C680 1.465 . S
C690 U686 2.847 . S
C690 O704 1.249 . S
C690 O705 1.202 . S
C691 C689 1.363 . S
C691 C693 1.408 . S
C691 C696 1.342 . S
C692 C693 1.310 . S
C692 C695 1.461 . S
C692 H712 0.932 . S
C693 C691 1.408 . S
C693 C692 1.310 . S
C693 H713 0.930 . S
C694 C695 1.474 . S
C694 C696 1.285 . S
C694 H714 0.929 . S
C695 C692 1.461 . S
C695 C694 1.474 . S
C696 C691 1.342 . S
C696 C694 1.285 . S
C696 H715 0.930 . S
C697 C700 1.424 . S
C697 C702 1.245 . S
C697 C703 1.428 . S
C698 C701 1.260 . S
C698 C702 1.477 . S
C698 H716 0.932 . S
C699 C700 1.384 . S
C699 C701 1.479 . S
C699 H717 0.929 . S
C700 C697 1.424 . S
C700 C699 1.384 . S
C700 H718 0.928 . S
C701 C698 1.260 . S
C701 C699 1.479 . S
C702 C697 1.245 . S
C702 C698 1.477 . S
C702 H719 0.932 . S
C703 U686 2.882 . S
C703 C697 1.428 . S
C703 O706 1.301 . S
C703 O707 1.282 . S
O704 U686 2.441 . S
O704 C690 1.249 . S
O705 U686 2.420 . S
O705 C690 1.202 . S
O706 U686 2.455 . S
O706 C703 1.301 . S
O707 U686 2.449 . S
O707 C703 1.282 . S
H708 C681 0.931 . S
H709 C683 0.929 . S
H710 C684 0.930 . S
H711 C685 0.931 . S
H712 C692 0.932 . S
H713 C693 0.930 . S
H714 C694 0.929 . S
H715 C696 0.930 . S
H716 C698 0.932 . S
H717 C699 0.929 . S
H718 C700 0.928 . S
H719 C702 0.932 . S
Eu720 N751 2.657 . S
Eu720 N758 2.609 . S
Eu720 O764 2.558 . S
Eu720 O765 2.642 1_565 S
Eu720 O767 2.339 1_565 S
Eu720 O768 2.563 1_565 S
Eu720 O769 2.419 . S
Eu720 O771 2.380 1_556 S
Eu720 O772 2.432 . S
Eu720 C784 2.848 . S
C721 C724 1.429 . S
C721 C725 1.411 . S
C721 N728 1.377 . S
C722 C724 1.420 . S
C722 C726 1.423 . S
C722 C734 1.392 . S
C723 C725 1.420 . S
C723 C726 1.351 . S
C723 H746 0.931 . S
C724 C721 1.429 . S
C724 C722 1.420 . S
C724 N732 1.362 . S
C725 C721 1.411 . S
C725 C723 1.420 . S
C725 C730 1.395 . S
C726 C722 1.423 . S
C726 C723 1.351 . S
C726 H738 0.930 . S
C727 C729 1.400 . S
C727 C730 1.386 . S
C727 H739 0.930 . S
N728 C721 1.377 . S
N728 C729 1.321 . S
N728 Eu731 2.609 . S
C729 C727 1.400 . S
C729 N728 1.321 . S
C729 H736 0.930 . S
C730 C725 1.395 . S
C730 C727 1.386 . S
C730 H749 0.930 . S
Eu731 N728 2.609 . S
Eu731 N732 2.657 . S
Eu731 O765 2.332 1_554 S
Eu731 O766 2.432 . S
Eu731 O770 2.558 . S
Eu731 O771 2.612 1_545 S
Eu731 O773 2.339 1_545 S
Eu731 O774 2.563 1_545 S
Eu731 O775 2.419 . S
Eu731 C795 2.848 . S
N732 C724 1.362 . S
N732 Eu731 2.657 . S
N732 C733 1.334 . S
C733 N732 1.334 . S
C733 C735 1.413 . S
C733 H740 0.929 . S
C734 C722 1.392 . S
C734 C735 1.367 . S
C734 H742 0.930 . S
C735 C733 1.413 . S
C735 C734 1.367 . S
C735 H737 0.930 . S
H736 C729 0.930 . S
H737 C735 0.930 . S
H738 C726 0.930 . S
H739 C727 0.930 . S
H740 C733 0.929 . S
H741 C755 0.930 . S
H742 C734 0.930 . S
H743 C761 0.930 . S
H744 C752 0.929 . S
H745 C759 0.930 . S
H746 C723 0.931 . S
H747 C753 0.930 . S
H748 C786 0.930 . S
H749 C730 0.930 . S
H750 C785 0.931 . S
N751 Eu720 2.657 . S
N751 C752 1.334 . S
N751 C756 1.362 . S
C752 H744 0.929 . S
C752 N751 1.334 . S
C752 C755 1.413 . S
C753 H747 0.930 . S
C753 C754 1.392 . S
C753 C755 1.367 . S
C754 C753 1.392 . S
C754 C756 1.420 . S
C754 C786 1.423 . S
C755 H741 0.930 . S
C755 C752 1.413 . S
C755 C753 1.367 . S
C756 N751 1.362 . S
C756 C754 1.420 . S
C756 C760 1.429 . S
H757 C762 0.930 . S
N758 Eu720 2.609 . S
N758 C760 1.377 . S
N758 C761 1.321 . S
C759 H745 0.930 . S
C759 C761 1.400 . S
C759 C762 1.386 . S
C760 C756 1.429 . S
C760 N758 1.377 . S
C760 C763 1.411 . S
C761 H743 0.930 . S
C761 N758 1.321 . S
C761 C759 1.400 . S
C762 H757 0.930 . S
C762 C759 1.386 . S
C762 C763 1.395 . S
C763 C760 1.411 . S
C763 C762 1.395 . S
C763 C785 1.420 . S
O764 Eu720 2.558 . S
O764 C784 1.257 . S
O765 Eu720 2.642 1_545 S
O765 Eu731 2.332 1_556 S
O765 C776 1.315 . S
O766 Eu731 2.432 . S
O766 C783 1.264 1_554 S
O767 Eu720 2.339 1_545 S
O767 C783 1.254 . S
O768 Eu720 2.563 1_545 S
O768 C776 1.235 . S
O769 Eu720 2.419 . S
O769 C784 1.249 . S
O770 Eu731 2.558 . S
O770 C795 1.257 . S
O771 Eu720 2.380 1_554 S
O771 Eu731 2.612 1_565 S
O771 C787 1.276 . S
O772 Eu720 2.432 . S
O772 C794 1.264 1_556 S
O773 Eu731 2.339 1_565 S
O773 C794 1.254 . S
O774 Eu731 2.563 1_565 S
O774 C787 1.235 . S
O775 Eu731 2.419 . S
O775 C795 1.249 . S
C776 O765 1.315 . S
C776 O768 1.235 . S
C777 C779 1.393 1_565 S
C777 C781 1.395 . S
C777 C784 1.492 . S
C778 C779 1.392 . S
C778 C780 1.386 1_545 S
C779 C777 1.393 1_545 S
C779 C778 1.392 . S
C779 H796 0.930 . S
C780 C778 1.386 1_565 S
C780 C782 1.395 . S
C780 H797 0.930 . S
C781 C777 1.395 . S
C781 C782 1.379 . S
C781 H798 0.930 . S
C782 C780 1.395 . S
C782 C781 1.379 . S
C782 H799 0.930 . S
C783 O766 1.264 1_556 S
C783 O767 1.254 . S
C784 Eu720 2.848 . S
C784 O764 1.257 . S
C784 O769 1.249 . S
C784 C777 1.492 . S
C785 H750 0.931 . S
C785 C763 1.420 . S
C785 C786 1.351 . S
C786 H748 0.930 . S
C786 C754 1.423 . S
C786 C785 1.351 . S
C787 O771 1.276 . S
C787 O774 1.235 . S
C788 C789 1.393 1_545 S
C788 C792 1.395 . S
C788 C795 1.492 . S
C789 C788 1.393 1_565 S
C789 C790 1.392 . S
C789 H800 0.930 . S
C790 C789 1.392 . S
C790 C791 1.386 1_565 S
C791 C790 1.386 1_545 S
C791 C793 1.395 . S
C791 H801 0.930 . S
C792 C788 1.395 . S
C792 C793 1.379 . S
C792 H802 0.930 . S
C793 C791 1.395 . S
C793 C792 1.379 . S
C793 H803 0.930 . S
C794 O772 1.264 1_554 S
C794 O773 1.254 . S
C795 Eu731 2.848 . S
C795 O770 1.257 . S
C795 O775 1.249 . S
C795 C788 1.492 . S
H796 C779 0.930 . S
H797 C780 0.930 . S
H798 C781 0.930 . S
H799 C782 0.930 . S
H800 C789 0.930 . S
H801 C791 0.930 . S
H802 C792 0.930 . S
H803 C793 0.930 . S
Eu804 N835 2.657 . S
Eu804 N842 2.609 . S
Eu804 O848 2.558 . S
Eu804 O849 2.651 1_455 S
Eu804 O851 2.339 1_455 S
Eu804 O852 2.563 1_455 S
Eu804 O853 2.419 . S
Eu804 O855 2.380 1_556 S
Eu804 O856 2.432 . S
Eu804 C868 2.848 . S
C805 C808 1.429 . S
C805 C809 1.411 . S
C805 N812 1.377 . S
C806 C808 1.420 . S
C806 C810 1.423 . S
C806 C818 1.392 . S
C807 C809 1.420 . S
C807 C810 1.351 . S
C807 H830 0.931 . S
C808 C805 1.429 . S
C808 C806 1.420 . S
C808 N816 1.362 . S
C809 C805 1.411 . S
C809 C807 1.420 . S
C809 C814 1.395 . S
C810 C806 1.423 . S
C810 C807 1.351 . S
C810 H822 0.930 . S
C811 C813 1.400 . S
C811 C814 1.386 . S
C811 H823 0.930 . S
N812 C805 1.377 . S
N812 C813 1.321 . S
N812 Eu815 2.609 . S
C813 C811 1.400 . S
C813 N812 1.321 . S
C813 H820 0.930 . S
C814 C809 1.395 . S
C814 C811 1.386 . S
C814 H833 0.930 . S
Eu815 N812 2.609 . S
Eu815 N816 2.657 . S
Eu815 O849 2.316 1_554 S
Eu815 O850 2.432 . S
Eu815 O854 2.558 . S
Eu815 O855 2.612 1_655 S
Eu815 O857 2.339 1_655 S
Eu815 O858 2.563 1_655 S
Eu815 O859 2.419 . S
Eu815 C879 2.848 . S
N816 C808 1.362 . S
N816 Eu815 2.657 . S
N816 C817 1.334 . S
C817 N816 1.334 . S
C817 C819 1.413 . S
C817 H824 0.929 . S
C818 C806 1.392 . S
C818 C819 1.367 . S
C818 H826 0.930 . S
C819 C817 1.413 . S
C819 C818 1.367 . S
C819 H821 0.930 . S
H820 C813 0.930 . S
H821 C819 0.930 . S
H822 C810 0.930 . S
H823 C811 0.930 . S
H824 C817 0.929 . S
H825 C839 0.930 . S
H826 C818 0.930 . S
H827 C845 0.930 . S
H828 C836 0.929 . S
H829 C843 0.930 . S
H830 C807 0.931 . S
H831 C837 0.930 . S
H832 C870 0.930 . S
H833 C814 0.930 . S
H834 C869 0.931 . S
N835 Eu804 2.657 . S
N835 C836 1.334 . S
N835 C840 1.362 . S
C836 H828 0.929 . S
C836 N835 1.334 . S
C836 C839 1.413 . S
C837 H831 0.930 . S
C837 C838 1.392 . S
C837 C839 1.367 . S
C838 C837 1.392 . S
C838 C840 1.420 . S
C838 C870 1.423 . S
C839 H825 0.930 . S
C839 C836 1.413 . S
C839 C837 1.367 . S
C840 N835 1.362 . S
C840 C838 1.420 . S
C840 C844 1.429 . S
H841 C846 0.930 . S
N842 Eu804 2.609 . S
N842 C844 1.377 . S
N842 C845 1.321 . S
C843 H829 0.930 . S
C843 C845 1.400 . S
C843 C846 1.386 . S
C844 C840 1.429 . S
C844 N842 1.377 . S
C844 C847 1.411 . S
C845 H827 0.930 . S
C845 N842 1.321 . S
C845 C843 1.400 . S
C846 H841 0.930 . S
C846 C843 1.386 . S
C846 C847 1.395 . S
C847 C844 1.411 . S
C847 C846 1.395 . S
C847 C869 1.420 . S
O848 Eu804 2.558 . S
O848 C868 1.257 . S
O849 Eu804 2.651 1_655 S
O849 Eu815 2.316 1_556 S
O849 C860 1.329 . S
O850 Eu815 2.432 . S
O850 C867 1.264 1_554 S
O851 Eu804 2.339 1_655 S
O851 C867 1.254 . S
O852 Eu804 2.563 1_655 S
O852 C860 1.235 . S
O853 Eu804 2.419 . S
O853 C868 1.249 . S
O854 Eu815 2.558 . S
O854 C879 1.257 . S
O855 Eu804 2.380 1_554 S
O855 Eu815 2.612 1_455 S
O855 C871 1.276 . S
O856 Eu804 2.432 . S
O856 C878 1.264 1_556 S
O857 Eu815 2.339 1_455 S
O857 C878 1.254 . S
O858 Eu815 2.563 1_455 S
O858 C871 1.235 . S
O859 Eu815 2.419 . S
O859 C879 1.249 . S
C860 O849 1.329 . S
C860 O852 1.235 . S
C861 C863 1.393 1_455 S
C861 C865 1.395 . S
C861 C868 1.492 . S
C862 C863 1.392 . S
C862 C864 1.386 1_655 S
C863 C861 1.393 1_655 S
C863 C862 1.392 . S
C863 H880 0.930 . S
C864 C862 1.386 1_455 S
C864 C866 1.395 . S
C864 H881 0.930 . S
C865 C861 1.395 . S
C865 C866 1.379 . S
C865 H882 0.930 . S
C866 C864 1.395 . S
C866 C865 1.379 . S
C866 H883 0.930 . S
C867 O850 1.264 1_556 S
C867 O851 1.254 . S
C868 Eu804 2.848 . S
C868 O848 1.257 . S
C868 O853 1.249 . S
C868 C861 1.492 . S
C869 H834 0.931 . S
C869 C847 1.420 . S
C869 C870 1.351 . S
C870 H832 0.930 . S
C870 C838 1.423 . S
C870 C869 1.351 . S
C871 O855 1.276 . S
C871 O858 1.235 . S
C872 C873 1.393 1_655 S
C872 C876 1.395 . S
C872 C879 1.492 . S
C873 C872 1.393 1_455 S
C873 C874 1.392 . S
C873 H884 0.930 . S
C874 C873 1.392 . S
C874 C875 1.386 1_455 S
C875 C874 1.386 1_655 S
C875 C877 1.395 . S
C875 H885 0.930 . S
C876 C872 1.395 . S
C876 C877 1.379 . S
C876 H886 0.930 . S
C877 C875 1.395 . S
C877 C876 1.379 . S
C877 H887 0.930 . S
C878 O856 1.264 1_554 S
C878 O857 1.254 . S
C879 Eu815 2.848 . S
C879 O854 1.257 . S
C879 O859 1.249 . S
C879 C872 1.492 . S
H880 C863 0.930 . S
H881 C864 0.930 . S
H882 C865 0.930 . S
H883 C866 0.930 . S
H884 C873 0.930 . S
H885 C875 0.930 . S
H886 C876 0.930 . S
H887 C877 0.930 . S
Eu888 N919 2.657 . S
Eu888 N926 2.609 . S
Eu888 O932 2.558 . S
Eu888 O933 2.612 . S
Eu888 O935 2.339 . S
Eu888 O936 2.563 . S
Eu888 O937 2.419 . S
Eu888 O939 2.380 1_554 S
Eu888 O940 2.432 . S
Eu888 C952 2.848 . S
C889 C892 1.429 . S
C889 C893 1.411 . S
C889 N896 1.377 . S
C890 C892 1.420 . S
C890 C894 1.423 . S
C890 C902 1.392 . S
C891 C893 1.420 . S
C891 C894 1.351 . S
C891 H914 0.931 . S
C892 C889 1.429 . S
C892 C890 1.420 . S
C892 N900 1.362 . S
C893 C889 1.411 . S
C893 C891 1.420 . S
C893 C898 1.395 . S
C894 C890 1.423 . S
C894 C891 1.351 . S
C894 H906 0.930 . S
C895 C897 1.400 . S
C895 C898 1.386 . S
C895 H907 0.930 . S
N896 C889 1.377 . S
N896 C897 1.321 . S
N896 Eu899 2.609 . S
C897 C895 1.400 . S
C897 N896 1.321 . S
C897 H904 0.930 . S
C898 C893 1.395 . S
C898 C895 1.386 . S
C898 H917 0.930 . S
Eu899 N896 2.609 . S
Eu899 N900 2.657 . S
Eu899 O933 2.380 1_556 S
Eu899 O934 2.432 . S
Eu899 O938 2.558 . S
Eu899 O939 2.612 . S
Eu899 O941 2.339 . S
Eu899 O942 2.563 . S
Eu899 O943 2.419 . S
Eu899 C963 2.848 . S
N900 C892 1.362 . S
N900 Eu899 2.657 . S
N900 C901 1.334 . S
C901 N900 1.334 . S
C901 C903 1.413 . S
C901 H908 0.929 . S
C902 C890 1.392 . S
C902 C903 1.367 . S
C902 H910 0.930 . S
C903 C901 1.413 . S
C903 C902 1.367 . S
C903 H905 0.930 . S
H904 C897 0.930 . S
H905 C903 0.930 . S
H906 C894 0.930 . S
H907 C895 0.930 . S
H908 C901 0.929 . S
H909 C923 0.930 . S
H910 C902 0.930 . S
H911 C929 0.930 . S
H912 C920 0.929 . S
H913 C927 0.930 . S
H914 C891 0.931 . S
H915 C921 0.930 . S
H916 C954 0.930 . S
H917 C898 0.930 . S
H918 C953 0.931 . S
N919 Eu888 2.657 . S
N919 C920 1.334 . S
N919 C924 1.362 . S
C920 H912 0.929 . S
C920 N919 1.334 . S
C920 C923 1.413 . S
C921 H915 0.930 . S
C921 C922 1.392 . S
C921 C923 1.367 . S
C922 C921 1.392 . S
C922 C924 1.420 . S
C922 C954 1.423 . S
C923 H909 0.930 . S
C923 C920 1.413 . S
C923 C921 1.367 . S
C924 N919 1.362 . S
C924 C922 1.420 . S
C924 C928 1.429 . S
H925 C930 0.930 . S
N926 Eu888 2.609 . S
N926 C928 1.377 . S
N926 C929 1.321 . S
C927 H913 0.930 . S
C927 C929 1.400 . S
C927 C930 1.386 . S
C928 C924 1.429 . S
C928 N926 1.377 . S
C928 C931 1.411 . S
C929 H911 0.930 . S
C929 N926 1.321 . S
C929 C927 1.400 . S
C930 H925 0.930 . S
C930 C927 1.386 . S
C930 C931 1.395 . S
C931 C928 1.411 . S
C931 C930 1.395 . S
C931 C953 1.420 . S
O932 Eu888 2.558 . S
O932 C952 1.257 . S
O933 Eu888 2.612 . S
O933 Eu899 2.380 1_554 S
O933 C944 1.276 . S
O934 Eu899 2.432 . S
O934 C951 1.264 1_556 S
O935 Eu888 2.339 . S
O935 C951 1.254 . S
O936 Eu888 2.563 . S
O936 C944 1.235 . S
O937 Eu888 2.419 . S
O937 C952 1.249 . S
O938 Eu899 2.558 . S
O938 C963 1.257 . S
O939 Eu888 2.380 1_556 S
O939 Eu899 2.612 . S
O939 C955 1.276 . S
O940 Eu888 2.432 . S
O940 C962 1.264 1_554 S
O941 Eu899 2.339 . S
O941 C962 1.254 . S
O942 Eu899 2.563 . S
O942 C955 1.235 . S
O943 Eu899 2.419 . S
O943 C963 1.249 . S
C944 O933 1.276 . S
C944 O936 1.235 . S
C945 C947 1.393 . S
C945 C949 1.395 . S
C945 C952 1.492 . S
C946 C947 1.392 . S
C946 C948 1.386 . S
C947 C945 1.393 . S
C947 C946 1.392 . S
C947 H964 0.930 . S
C948 C946 1.386 . S
C948 C950 1.395 . S
C948 H965 0.930 . S
C949 C945 1.395 . S
C949 C950 1.379 . S
C949 H966 0.930 . S
C950 C948 1.395 . S
C950 C949 1.379 . S
C950 H967 0.930 . S
C951 O934 1.264 1_554 S
C951 O935 1.254 . S
C952 Eu888 2.848 . S
C952 O932 1.257 . S
C952 O937 1.249 . S
C952 C945 1.492 . S
C953 H918 0.931 . S
C953 C931 1.420 . S
C953 C954 1.351 . S
C954 H916 0.930 . S
C954 C922 1.423 . S
C954 C953 1.351 . S
C955 O939 1.276 . S
C955 O942 1.235 . S
C956 C957 1.393 . S
C956 C960 1.395 . S
C956 C963 1.492 . S
C957 C956 1.393 . S
C957 C958 1.392 . S
C957 H968 0.930 . S
C958 C957 1.392 . S
C958 C959 1.386 . S
C959 C958 1.386 . S
C959 C961 1.395 . S
C959 H969 0.930 . S
C960 C956 1.395 . S
C960 C961 1.379 . S
C960 H970 0.930 . S
C961 C959 1.395 . S
C961 C960 1.379 . S
C961 H971 0.930 . S
C962 O940 1.264 1_556 S
C962 O941 1.254 . S
C963 Eu899 2.848 . S
C963 O938 1.257 . S
C963 O943 1.249 . S
C963 C956 1.492 . S
H964 C947 0.930 . S
H965 C948 0.930 . S
H966 C949 0.930 . S
H967 C950 0.930 . S
H968 C957 0.930 . S
H969 C959 0.930 . S
H970 C960 0.930 . S
H971 C961 0.930 . S
Eu972 N1003 2.657 . S
Eu972 N1010 2.609 . S
Eu972 O1016 2.558 . S
Eu972 O1017 2.612 . S
Eu972 O1019 2.339 . S
Eu972 O1020 2.563 . S
Eu972 O1021 2.419 . S
Eu972 O1023 2.380 . S
Eu972 O1024 2.432 . S
Eu972 C1036 2.848 . S
C973 C976 1.429 . S
C973 C977 1.411 . S
C973 N980 1.377 . S
C974 C976 1.420 . S
C974 C978 1.423 . S
C974 C986 1.392 . S
C975 C977 1.420 . S
C975 C978 1.351 . S
C975 H998 0.931 . S
C976 C973 1.429 . S
C976 C974 1.420 . S
C976 N984 1.362 . S
C977 C973 1.411 . S
C977 C975 1.420 . S
C977 C982 1.395 . S
C978 C974 1.423 . S
C978 C975 1.351 . S
C978 H990 0.930 . S
C979 C981 1.400 . S
C979 C982 1.386 . S
C979 H991 0.930 . S
N980 C973 1.377 . S
N980 C981 1.321 . S
N980 Eu983 2.609 . S
C981 C979 1.400 . S
C981 N980 1.321 . S
C981 H988 0.930 . S
C982 C977 1.395 . S
C982 C979 1.386 . S
C982 H1001 0.930 . S
Eu983 N980 2.609 . S
Eu983 N984 2.657 . S
Eu983 O1017 2.380 . S
Eu983 O1018 2.432 . S
Eu983 O1022 2.558 . S
Eu983 O1023 2.612 . S
Eu983 O1025 2.339 . S
Eu983 O1026 2.563 . S
Eu983 O1027 2.419 . S
Eu983 C1047 2.848 . S
N984 C976 1.362 . S
N984 Eu983 2.657 . S
N984 C985 1.334 . S
C985 N984 1.334 . S
C985 C987 1.413 . S
C985 H992 0.929 . S
C986 C974 1.392 . S
C986 C987 1.367 . S
C986 H994 0.930 . S
C987 C985 1.413 . S
C987 C986 1.367 . S
C987 H989 0.930 . S
H988 C981 0.930 . S
H989 C987 0.930 . S
H990 C978 0.930 . S
H991 C979 0.930 . S
H992 C985 0.929 . S
H993 C1007 0.930 . S
H994 C986 0.930 . S
H995 C1013 0.930 . S
H996 C1004 0.929 . S
H997 C1011 0.930 . S
H998 C975 0.931 . S
H999 C1005 0.930 . S
H1000 C1038 0.930 . S
H1001 C982 0.930 . S
H1002 C1037 0.931 . S
N1003 Eu972 2.657 . S
N1003 C1004 1.334 . S
N1003 C1008 1.362 . S
C1004 H996 0.929 . S
C1004 N1003 1.334 . S
C1004 C1007 1.413 . S
C1005 H999 0.930 . S
C1005 C1006 1.392 . S
C1005 C1007 1.367 . S
C1006 C1005 1.392 . S
C1006 C1008 1.420 . S
C1006 C1038 1.423 . S
C1007 H993 0.930 . S
C1007 C1004 1.413 . S
C1007 C1005 1.367 . S
C1008 N1003 1.362 . S
C1008 C1006 1.420 . S
C1008 C1012 1.429 . S
H1009 C1014 0.930 . S
N1010 Eu972 2.609 . S
N1010 C1012 1.377 . S
N1010 C1013 1.321 . S
C1011 H997 0.930 . S
C1011 C1013 1.400 . S
C1011 C1014 1.386 . S
C1012 C1008 1.429 . S
C1012 N1010 1.377 . S
C1012 C1015 1.411 . S
C1013 H995 0.930 . S
C1013 N1010 1.321 . S
C1013 C1011 1.400 . S
C1014 H1009 0.930 . S
C1014 C1011 1.386 . S
C1014 C1015 1.395 . S
C1015 C1012 1.411 . S
C1015 C1014 1.395 . S
C1015 C1037 1.420 . S
O1016 Eu972 2.558 . S
O1016 C1036 1.257 . S
O1017 Eu972 2.612 . S
O1017 Eu983 2.380 . S
O1017 C1028 1.276 . S
O1018 Eu983 2.432 . S
O1018 C1035 1.264 . S
O1019 Eu972 2.339 . S
O1019 C1035 1.254 . S
O1020 Eu972 2.563 . S
O1020 C1028 1.235 . S
O1021 Eu972 2.419 . S
O1021 C1036 1.249 . S
O1022 Eu983 2.558 . S
O1022 C1047 1.257 . S
O1023 Eu972 2.380 . S
O1023 Eu983 2.612 . S
O1023 C1039 1.276 . S
O1024 Eu972 2.432 . S
O1024 C1046 1.264 . S
O1025 Eu983 2.339 . S
O1025 C1046 1.254 . S
O1026 Eu983 2.563 . S
O1026 C1039 1.235 . S
O1027 Eu983 2.419 . S
O1027 C1047 1.249 . S
C1028 O1017 1.276 . S
C1028 O1020 1.235 . S
C1029 C1031 1.393 . S
C1029 C1033 1.395 . S
C1029 C1036 1.492 . S
C1030 C1031 1.392 . S
C1030 C1032 1.386 . S
C1031 C1029 1.393 . S
C1031 C1030 1.392 . S
C1031 H1048 0.930 . S
C1032 C1030 1.386 . S
C1032 C1034 1.395 . S
C1032 H1049 0.930 . S
C1033 C1029 1.395 . S
C1033 C1034 1.379 . S
C1033 H1050 0.930 . S
C1034 C1032 1.395 . S
C1034 C1033 1.379 . S
C1034 H1051 0.930 . S
C1035 O1018 1.264 . S
C1035 O1019 1.254 . S
C1036 Eu972 2.848 . S
C1036 O1016 1.257 . S
C1036 O1021 1.249 . S
C1036 C1029 1.492 . S
C1037 H1002 0.931 . S
C1037 C1015 1.420 . S
C1037 C1038 1.351 . S
C1038 H1000 0.930 . S
C1038 C1006 1.423 . S
C1038 C1037 1.351 . S
C1039 O1023 1.276 . S
C1039 O1026 1.235 . S
C1040 C1041 1.393 . S
C1040 C1044 1.395 . S
C1040 C1047 1.492 . S
C1041 C1040 1.393 . S
C1041 C1042 1.392 . S
C1041 H1052 0.930 . S
C1042 C1041 1.392 . S
C1042 C1043 1.386 . S
C1043 C1042 1.386 . S
C1043 C1045 1.395 . S
C1043 H1053 0.930 . S
C1044 C1040 1.395 . S
C1044 C1045 1.379 . S
C1044 H1054 0.930 . S
C1045 C1043 1.395 . S
C1045 C1044 1.379 . S
C1045 H1055 0.930 . S
C1046 O1024 1.264 . S
C1046 O1025 1.254 . S
C1047 Eu983 2.848 . S
C1047 O1022 1.257 . S
C1047 O1027 1.249 . S
C1047 C1040 1.492 . S
H1048 C1031 0.930 . S
H1049 C1032 0.930 . S
H1050 C1033 0.930 . S
H1051 C1034 0.930 . S
H1052 C1041 0.930 . S
H1053 C1043 0.930 . S
H1054 C1044 0.930 . S
H1055 C1045 0.930 . S
Eu1056 N1087 2.657 . S
Eu1056 N1094 2.609 . S
Eu1056 O1100 2.558 . S
Eu1056 O1101 2.612 . S
Eu1056 O1103 2.339 . S
Eu1056 O1104 2.563 . S
Eu1056 O1105 2.419 . S
Eu1056 O1107 2.380 . S
Eu1056 O1108 2.432 . S
Eu1056 C1120 2.848 . S
C1057 C1060 1.429 . S
C1057 C1061 1.411 . S
C1057 N1064 1.377 . S
C1058 C1060 1.420 . S
C1058 C1062 1.423 . S
C1058 C1070 1.392 . S
C1059 C1061 1.420 . S
C1059 C1062 1.351 . S
C1059 H1082 0.931 . S
C1060 C1057 1.429 . S
C1060 C1058 1.420 . S
C1060 N1068 1.362 . S
C1061 C1057 1.411 . S
C1061 C1059 1.420 . S
C1061 C1066 1.395 . S
C1062 C1058 1.423 . S
C1062 C1059 1.351 . S
C1062 H1074 0.930 . S
C1063 C1065 1.400 . S
C1063 C1066 1.386 . S
C1063 H1075 0.930 . S
N1064 C1057 1.377 . S
N1064 C1065 1.321 . S
N1064 Eu1067 2.609 . S
C1065 C1063 1.400 . S
C1065 N1064 1.321 . S
C1065 H1072 0.930 . S
C1066 C1061 1.395 . S
C1066 C1063 1.386 . S
C1066 H1085 0.930 . S
Eu1067 N1064 2.609 . S
Eu1067 N1068 2.657 . S
Eu1067 O1101 2.380 . S
Eu1067 O1102 2.432 . S
Eu1067 O1106 2.558 . S
Eu1067 O1107 2.612 . S
Eu1067 O1109 2.339 . S
Eu1067 O1110 2.563 . S
Eu1067 O1111 2.419 . S
Eu1067 C1131 2.848 . S
N1068 C1060 1.362 . S
N1068 Eu1067 2.657 . S
N1068 C1069 1.334 . S
C1069 N1068 1.334 . S
C1069 C1071 1.413 . S
C1069 H1076 0.929 . S
C1070 C1058 1.392 . S
C1070 C1071 1.367 . S
C1070 H1078 0.930 . S
C1071 C1069 1.413 . S
C1071 C1070 1.367 . S
C1071 H1073 0.930 . S
H1072 C1065 0.930 . S
H1073 C1071 0.930 . S
H1074 C1062 0.930 . S
H1075 C1063 0.930 . S
H1076 C1069 0.929 . S
H1077 C1091 0.930 . S
H1078 C1070 0.930 . S
H1079 C1097 0.930 . S
H1080 C1088 0.929 . S
H1081 C1095 0.930 . S
H1082 C1059 0.931 . S
H1083 C1089 0.930 . S
H1084 C1122 0.930 . S
H1085 C1066 0.930 . S
H1086 C1121 0.931 . S
N1087 Eu1056 2.657 . S
N1087 C1088 1.334 . S
N1087 C1092 1.362 . S
C1088 H1080 0.929 . S
C1088 N1087 1.334 . S
C1088 C1091 1.413 . S
C1089 H1083 0.930 . S
C1089 C1090 1.392 . S
C1089 C1091 1.367 . S
C1090 C1089 1.392 . S
C1090 C1092 1.420 . S
C1090 C1122 1.423 . S
C1091 H1077 0.930 . S
C1091 C1088 1.413 . S
C1091 C1089 1.367 . S
C1092 N1087 1.362 . S
C1092 C1090 1.420 . S
C1092 C1096 1.429 . S
H1093 C1098 0.930 . S
N1094 Eu1056 2.609 . S
N1094 C1096 1.377 . S
N1094 C1097 1.321 . S
C1095 H1081 0.930 . S
C1095 C1097 1.400 . S
C1095 C1098 1.386 . S
C1096 C1092 1.429 . S
C1096 N1094 1.377 . S
C1096 C1099 1.411 . S
C1097 H1079 0.930 . S
C1097 N1094 1.321 . S
C1097 C1095 1.400 . S
C1098 H1093 0.930 . S
C1098 C1095 1.386 . S
C1098 C1099 1.395 . S
C1099 C1096 1.411 . S
C1099 C1098 1.395 . S
C1099 C1121 1.420 . S
O1100 Eu1056 2.558 . S
O1100 C1120 1.257 . S
O1101 Eu1056 2.612 . S
O1101 Eu1067 2.380 . S
O1101 C1112 1.276 . S
O1102 Eu1067 2.432 . S
O1102 C1119 1.264 . S
O1103 Eu1056 2.339 . S
O1103 C1119 1.254 . S
O1104 Eu1056 2.563 . S
O1104 C1112 1.235 . S
O1105 Eu1056 2.419 . S
O1105 C1120 1.249 . S
O1106 Eu1067 2.558 . S
O1106 C1131 1.257 . S
O1107 Eu1056 2.380 . S
O1107 Eu1067 2.612 . S
O1107 C1123 1.276 . S
O1108 Eu1056 2.432 . S
O1108 C1130 1.264 . S
O1109 Eu1067 2.339 . S
O1109 C1130 1.254 . S
O1110 Eu1067 2.563 . S
O1110 C1123 1.235 . S
O1111 Eu1067 2.419 . S
O1111 C1131 1.249 . S
C1112 O1101 1.276 . S
C1112 O1104 1.235 . S
C1113 C1115 1.393 . S
C1113 C1117 1.395 . S
C1113 C1120 1.492 . S
C1114 C1115 1.392 . S
C1114 C1116 1.386 . S
C1115 C1113 1.393 . S
C1115 C1114 1.392 . S
C1115 H1132 0.930 . S
C1116 C1114 1.386 . S
C1116 C1118 1.395 . S
C1116 H1133 0.930 . S
C1117 C1113 1.395 . S
C1117 C1118 1.379 . S
C1117 H1134 0.930 . S
C1118 C1116 1.395 . S
C1118 C1117 1.379 . S
C1118 H1135 0.930 . S
C1119 O1102 1.264 . S
C1119 O1103 1.254 . S
C1120 Eu1056 2.848 . S
C1120 O1100 1.257 . S
C1120 O1105 1.249 . S
C1120 C1113 1.492 . S
C1121 H1086 0.931 . S
C1121 C1099 1.420 . S
C1121 C1122 1.351 . S
C1122 H1084 0.930 . S
C1122 C1090 1.423 . S
C1122 C1121 1.351 . S
C1123 O1107 1.276 . S
C1123 O1110 1.235 . S
C1124 C1125 1.393 . S
C1124 C1128 1.395 . S
C1124 C1131 1.492 . S
C1125 C1124 1.393 . S
C1125 C1126 1.392 . S
C1125 H1136 0.930 . S
C1126 C1125 1.392 . S
C1126 C1127 1.386 . S
C1127 C1126 1.386 . S
C1127 C1129 1.395 . S
C1127 H1137 0.930 . S
C1128 C1124 1.395 . S
C1128 C1129 1.379 . S
C1128 H1138 0.930 . S
C1129 C1127 1.395 . S
C1129 C1128 1.379 . S
C1129 H1139 0.930 . S
C1130 O1108 1.264 . S
C1130 O1109 1.254 . S
C1131 Eu1067 2.848 . S
C1131 O1106 1.257 . S
C1131 O1111 1.249 . S
C1131 C1124 1.492 . S
H1132 C1115 0.930 . S
H1133 C1116 0.930 . S
H1134 C1117 0.930 . S
H1135 C1118 0.930 . S
H1136 C1125 0.930 . S
H1137 C1127 0.930 . S
H1138 C1128 0.930 . S
H1139 C1129 0.930 . S
Eu1140 N1171 2.657 . S
Eu1140 N1178 2.609 . S
Eu1140 O1184 2.558 . S
Eu1140 O1185 2.612 . S
Eu1140 O1187 2.339 . S
Eu1140 O1188 2.563 . S
Eu1140 O1189 2.419 . S
Eu1140 O1191 2.380 . S
Eu1140 O1192 2.432 . S
Eu1140 C1204 2.848 . S
C1141 C1144 1.429 . S
C1141 C1145 1.411 . S
C1141 N1148 1.377 . S
C1142 C1144 1.420 . S
C1142 C1146 1.423 . S
C1142 C1154 1.392 . S
C1143 C1145 1.420 . S
C1143 C1146 1.351 . S
C1143 H1166 0.931 . S
C1144 C1141 1.429 . S
C1144 C1142 1.420 . S
C1144 N1152 1.362 . S
C1145 C1141 1.411 . S
C1145 C1143 1.420 . S
C1145 C1150 1.395 . S
C1146 C1142 1.423 . S
C1146 C1143 1.351 . S
C1146 H1158 0.930 . S
C1147 C1149 1.400 . S
C1147 C1150 1.386 . S
C1147 H1159 0.930 . S
N1148 C1141 1.377 . S
N1148 C1149 1.321 . S
N1148 Eu1151 2.609 . S
C1149 C1147 1.400 . S
C1149 N1148 1.321 . S
C1149 H1156 0.930 . S
C1150 C1145 1.395 . S
C1150 C1147 1.386 . S
C1150 H1169 0.930 . S
Eu1151 N1148 2.609 . S
Eu1151 N1152 2.657 . S
Eu1151 O1185 2.380 . S
Eu1151 O1186 2.432 . S
Eu1151 O1190 2.558 . S
Eu1151 O1191 2.612 . S
Eu1151 O1193 2.339 . S
Eu1151 O1194 2.563 . S
Eu1151 O1195 2.419 . S
Eu1151 C1215 2.848 . S
N1152 C1144 1.362 . S
N1152 Eu1151 2.657 . S
N1152 C1153 1.334 . S
C1153 N1152 1.334 . S
C1153 C1155 1.413 . S
C1153 H1160 0.929 . S
C1154 C1142 1.392 . S
C1154 C1155 1.367 . S
C1154 H1162 0.930 . S
C1155 C1153 1.413 . S
C1155 C1154 1.367 . S
C1155 H1157 0.930 . S
H1156 C1149 0.930 . S
H1157 C1155 0.930 . S
H1158 C1146 0.930 . S
H1159 C1147 0.930 . S
H1160 C1153 0.929 . S
H1161 C1175 0.930 . S
H1162 C1154 0.930 . S
H1163 C1181 0.930 . S
H1164 C1172 0.929 . S
H1165 C1179 0.930 . S
H1166 C1143 0.931 . S
H1167 C1173 0.930 . S
H1168 C1206 0.930 . S
H1169 C1150 0.930 . S
H1170 C1205 0.931 . S
N1171 Eu1140 2.657 . S
N1171 C1172 1.334 . S
N1171 C1176 1.362 . S
C1172 H1164 0.929 . S
C1172 N1171 1.334 . S
C1172 C1175 1.413 . S
C1173 H1167 0.930 . S
C1173 C1174 1.392 . S
C1173 C1175 1.367 . S
C1174 C1173 1.392 . S
C1174 C1176 1.420 . S
C1174 C1206 1.423 . S
C1175 H1161 0.930 . S
C1175 C1172 1.413 . S
C1175 C1173 1.367 . S
C1176 N1171 1.362 . S
C1176 C1174 1.420 . S
C1176 C1180 1.429 . S
H1177 C1182 0.930 . S
N1178 Eu1140 2.609 . S
N1178 C1180 1.377 . S
N1178 C1181 1.321 . S
C1179 H1165 0.930 . S
C1179 C1181 1.400 . S
C1179 C1182 1.386 . S
C1180 C1176 1.429 . S
C1180 N1178 1.377 . S
C1180 C1183 1.411 . S
C1181 H1163 0.930 . S
C1181 N1178 1.321 . S
C1181 C1179 1.400 . S
C1182 H1177 0.930 . S
C1182 C1179 1.386 . S
C1182 C1183 1.395 . S
C1183 C1180 1.411 . S
C1183 C1182 1.395 . S
C1183 C1205 1.420 . S
O1184 Eu1140 2.558 . S
O1184 C1204 1.257 . S
O1185 Eu1140 2.612 . S
O1185 Eu1151 2.380 . S
O1185 C1196 1.276 . S
O1186 Eu1151 2.432 . S
O1186 C1203 1.264 . S
O1187 Eu1140 2.339 . S
O1187 C1203 1.254 . S
O1188 Eu1140 2.563 . S
O1188 C1196 1.235 . S
O1189 Eu1140 2.419 . S
O1189 C1204 1.249 . S
O1190 Eu1151 2.558 . S
O1190 C1215 1.257 . S
O1191 Eu1140 2.380 . S
O1191 Eu1151 2.612 . S
O1191 C1207 1.276 . S
O1192 Eu1140 2.432 . S
O1192 C1214 1.264 . S
O1193 Eu1151 2.339 . S
O1193 C1214 1.254 . S
O1194 Eu1151 2.563 . S
O1194 C1207 1.235 . S
O1195 Eu1151 2.419 . S
O1195 C1215 1.249 . S
C1196 O1185 1.276 . S
C1196 O1188 1.235 . S
C1197 C1199 1.393 . S
C1197 C1201 1.395 . S
C1197 C1204 1.492 . S
C1198 C1199 1.392 . S
C1198 C1200 1.386 . S
C1199 C1197 1.393 . S
C1199 C1198 1.392 . S
C1199 H1216 0.930 . S
C1200 C1198 1.386 . S
C1200 C1202 1.395 . S
C1200 H1217 0.930 . S
C1201 C1197 1.395 . S
C1201 C1202 1.379 . S
C1201 H1218 0.930 . S
C1202 C1200 1.395 . S
C1202 C1201 1.379 . S
C1202 H1219 0.930 . S
C1203 O1186 1.264 . S
C1203 O1187 1.254 . S
C1204 Eu1140 2.848 . S
C1204 O1184 1.257 . S
C1204 O1189 1.249 . S
C1204 C1197 1.492 . S
C1205 H1170 0.931 . S
C1205 C1183 1.420 . S
C1205 C1206 1.351 . S
C1206 H1168 0.930 . S
C1206 C1174 1.423 . S
C1206 C1205 1.351 . S
C1207 O1191 1.276 . S
C1207 O1194 1.235 . S
C1208 C1209 1.393 . S
C1208 C1212 1.395 . S
C1208 C1215 1.492 . S
C1209 C1208 1.393 . S
C1209 C1210 1.392 . S
C1209 H1220 0.930 . S
C1210 C1209 1.392 . S
C1210 C1211 1.386 . S
C1211 C1210 1.386 . S
C1211 C1213 1.395 . S
C1211 H1221 0.930 . S
C1212 C1208 1.395 . S
C1212 C1213 1.379 . S
C1212 H1222 0.930 . S
C1213 C1211 1.395 . S
C1213 C1212 1.379 . S
C1213 H1223 0.930 . S
C1214 O1192 1.264 . S
C1214 O1193 1.254 . S
C1215 Eu1151 2.848 . S
C1215 O1190 1.257 . S
C1215 O1195 1.249 . S
C1215 C1208 1.492 . S
H1216 C1199 0.930 . S
H1217 C1200 0.930 . S
H1218 C1201 0.930 . S
H1219 C1202 0.930 . S
H1220 C1209 0.930 . S
H1221 C1211 0.930 . S
H1222 C1212 0.930 . S
H1223 C1213 0.930 . S
Eu1224 N1255 2.657 . S
Eu1224 N1262 2.609 . S
Eu1224 O1268 2.558 . S
Eu1224 O1269 2.612 . S
Eu1224 O1271 2.339 . S
Eu1224 O1272 2.563 . S
Eu1224 O1273 2.419 . S
Eu1224 O1275 2.380 . S
Eu1224 O1276 2.432 . S
Eu1224 C1288 2.848 . S
C1225 C1228 1.429 . S
C1225 C1229 1.411 . S
C1225 N1232 1.377 . S
C1226 C1228 1.420 . S
C1226 C1230 1.423 . S
C1226 C1238 1.392 . S
C1227 C1229 1.420 . S
C1227 C1230 1.351 . S
C1227 H1250 0.931 . S
C1228 C1225 1.429 . S
C1228 C1226 1.420 . S
C1228 N1236 1.362 . S
C1229 C1225 1.411 . S
C1229 C1227 1.420 . S
C1229 C1234 1.395 . S
C1230 C1226 1.423 . S
C1230 C1227 1.351 . S
C1230 H1242 0.930 . S
C1231 C1233 1.400 . S
C1231 C1234 1.386 . S
C1231 H1243 0.930 . S
N1232 C1225 1.377 . S
N1232 C1233 1.321 . S
N1232 Eu1235 2.609 . S
C1233 C1231 1.400 . S
C1233 N1232 1.321 . S
C1233 H1240 0.930 . S
C1234 C1229 1.395 . S
C1234 C1231 1.386 . S
C1234 H1253 0.930 . S
Eu1235 N1232 2.609 . S
Eu1235 N1236 2.657 . S
Eu1235 O1269 2.380 . S
Eu1235 O1270 2.432 . S
Eu1235 O1274 2.558 . S
Eu1235 O1275 2.612 . S
Eu1235 O1277 2.339 . S
Eu1235 O1278 2.563 . S
Eu1235 O1279 2.419 . S
Eu1235 C1299 2.848 . S
N1236 C1228 1.362 . S
N1236 Eu1235 2.657 . S
N1236 C1237 1.334 . S
C1237 N1236 1.334 . S
C1237 C1239 1.413 . S
C1237 H1244 0.929 . S
C1238 C1226 1.392 . S
C1238 C1239 1.367 . S
C1238 H1246 0.930 . S
C1239 C1237 1.413 . S
C1239 C1238 1.367 . S
C1239 H1241 0.930 . S
H1240 C1233 0.930 . S
H1241 C1239 0.930 . S
H1242 C1230 0.930 . S
H1243 C1231 0.930 . S
H1244 C1237 0.929 . S
H1245 C1259 0.930 . S
H1246 C1238 0.930 . S
H1247 C1265 0.930 . S
H1248 C1256 0.929 . S
H1249 C1263 0.930 . S
H1250 C1227 0.931 . S
H1251 C1257 0.930 . S
H1252 C1290 0.930 . S
H1253 C1234 0.930 . S
H1254 C1289 0.931 . S
N1255 Eu1224 2.657 . S
N1255 C1256 1.334 . S
N1255 C1260 1.362 . S
C1256 H1248 0.929 . S
C1256 N1255 1.334 . S
C1256 C1259 1.413 . S
C1257 H1251 0.930 . S
C1257 C1258 1.392 . S
C1257 C1259 1.367 . S
C1258 C1257 1.392 . S
C1258 C1260 1.420 . S
C1258 C1290 1.423 . S
C1259 H1245 0.930 . S
C1259 C1256 1.413 . S
C1259 C1257 1.367 . S
C1260 N1255 1.362 . S
C1260 C1258 1.420 . S
C1260 C1264 1.429 . S
H1261 C1266 0.930 . S
N1262 Eu1224 2.609 . S
N1262 C1264 1.377 . S
N1262 C1265 1.321 . S
C1263 H1249 0.930 . S
C1263 C1265 1.400 . S
C1263 C1266 1.386 . S
C1264 C1260 1.429 . S
C1264 N1262 1.377 . S
C1264 C1267 1.411 . S
C1265 H1247 0.930 . S
C1265 N1262 1.321 . S
C1265 C1263 1.400 . S
C1266 H1261 0.930 . S
C1266 C1263 1.386 . S
C1266 C1267 1.395 . S
C1267 C1264 1.411 . S
C1267 C1266 1.395 . S
C1267 C1289 1.420 . S
O1268 Eu1224 2.558 . S
O1268 C1288 1.257 . S
O1269 Eu1224 2.612 . S
O1269 Eu1235 2.380 . S
O1269 C1280 1.276 . S
O1270 Eu1235 2.432 . S
O1270 C1287 1.264 . S
O1271 Eu1224 2.339 . S
O1271 C1287 1.254 . S
O1272 Eu1224 2.563 . S
O1272 C1280 1.235 . S
O1273 Eu1224 2.419 . S
O1273 C1288 1.249 . S
O1274 Eu1235 2.558 . S
O1274 C1299 1.257 . S
O1275 Eu1224 2.380 . S
O1275 Eu1235 2.612 . S
O1275 C1291 1.276 . S
O1276 Eu1224 2.432 . S
O1276 C1298 1.264 . S
O1277 Eu1235 2.339 . S
O1277 C1298 1.254 . S
O1278 Eu1235 2.563 . S
O1278 C1291 1.235 . S
O1279 Eu1235 2.419 . S
O1279 C1299 1.249 . S
C1280 O1269 1.276 . S
C1280 O1272 1.235 . S
C1281 C1283 1.393 . S
C1281 C1285 1.395 . S
C1281 C1288 1.492 . S
C1282 C1283 1.392 . S
C1282 C1284 1.386 . S
C1283 C1281 1.393 . S
C1283 C1282 1.392 . S
C1283 H1300 0.930 . S
C1284 C1282 1.386 . S
C1284 C1286 1.395 . S
C1284 H1301 0.930 . S
C1285 C1281 1.395 . S
C1285 C1286 1.379 . S
C1285 H1302 0.930 . S
C1286 C1284 1.395 . S
C1286 C1285 1.379 . S
C1286 H1303 0.930 . S
C1287 O1270 1.264 . S
C1287 O1271 1.254 . S
C1288 Eu1224 2.848 . S
C1288 O1268 1.257 . S
C1288 O1273 1.249 . S
C1288 C1281 1.492 . S
C1289 H1254 0.931 . S
C1289 C1267 1.420 . S
C1289 C1290 1.351 . S
C1290 H1252 0.930 . S
C1290 C1258 1.423 . S
C1290 C1289 1.351 . S
C1291 O1275 1.276 . S
C1291 O1278 1.235 . S
C1292 C1293 1.393 . S
C1292 C1296 1.395 . S
C1292 C1299 1.492 . S
C1293 C1292 1.393 . S
C1293 C1294 1.392 . S
C1293 H1304 0.930 . S
C1294 C1293 1.392 . S
C1294 C1295 1.386 . S
C1295 C1294 1.386 . S
C1295 C1297 1.395 . S
C1295 H1305 0.930 . S
C1296 C1292 1.395 . S
C1296 C1297 1.379 . S
C1296 H1306 0.930 . S
C1297 C1295 1.395 . S
C1297 C1296 1.379 . S
C1297 H1307 0.930 . S
C1298 O1276 1.264 . S
C1298 O1277 1.254 . S
C1299 Eu1235 2.848 . S
C1299 O1274 1.257 . S
C1299 O1279 1.249 . S
C1299 C1292 1.492 . S
H1300 C1283 0.930 . S
H1301 C1284 0.930 . S
H1302 C1285 0.930 . S
H1303 C1286 0.930 . S
H1304 C1293 0.930 . S
H1305 C1295 0.930 . S
H1306 C1296 0.930 . S
H1307 C1297 0.930 . S
Eu1308 N1339 2.657 . S
Eu1308 N1346 2.609 . S
Eu1308 O1352 2.558 . S
Eu1308 O1353 2.612 . S
Eu1308 O1355 2.339 . S
Eu1308 O1356 2.563 . S
Eu1308 O1357 2.419 . S
Eu1308 O1359 2.380 . S
Eu1308 O1360 2.432 . S
Eu1308 C1372 2.848 . S
C1309 C1312 1.429 . S
C1309 C1313 1.411 . S
C1309 N1316 1.377 . S
C1310 C1312 1.420 . S
C1310 C1314 1.423 . S
C1310 C1322 1.392 . S
C1311 C1313 1.420 . S
C1311 C1314 1.351 . S
C1311 H1334 0.931 . S
C1312 C1309 1.429 . S
C1312 C1310 1.420 . S
C1312 N1320 1.362 . S
C1313 C1309 1.411 . S
C1313 C1311 1.420 . S
C1313 C1318 1.395 . S
C1314 C1310 1.423 . S
C1314 C1311 1.351 . S
C1314 H1326 0.930 . S
C1315 C1317 1.400 . S
C1315 C1318 1.386 . S
C1315 H1327 0.930 . S
N1316 C1309 1.377 . S
N1316 C1317 1.321 . S
N1316 Eu1319 2.609 . S
C1317 C1315 1.400 . S
C1317 N1316 1.321 . S
C1317 H1324 0.930 . S
C1318 C1313 1.395 . S
C1318 C1315 1.386 . S
C1318 H1337 0.930 . S
Eu1319 N1316 2.609 . S
Eu1319 N1320 2.657 . S
Eu1319 O1353 2.380 . S
Eu1319 O1354 2.432 . S
Eu1319 O1358 2.558 . S
Eu1319 O1359 2.612 . S
Eu1319 O1361 2.339 . S
Eu1319 O1362 2.563 . S
Eu1319 O1363 2.419 . S
Eu1319 C1383 2.848 . S
N1320 C1312 1.362 . S
N1320 Eu1319 2.657 . S
N1320 C1321 1.334 . S
C1321 N1320 1.334 . S
C1321 C1323 1.413 . S
C1321 H1328 0.929 . S
C1322 C1310 1.392 . S
C1322 C1323 1.367 . S
C1322 H1330 0.930 . S
C1323 C1321 1.413 . S
C1323 C1322 1.367 . S
C1323 H1325 0.930 . S
H1324 C1317 0.930 . S
H1325 C1323 0.930 . S
H1326 C1314 0.930 . S
H1327 C1315 0.930 . S
H1328 C1321 0.929 . S
H1329 C1343 0.930 . S
H1330 C1322 0.930 . S
H1331 C1349 0.930 . S
H1332 C1340 0.929 . S
H1333 C1347 0.930 . S
H1334 C1311 0.931 . S
H1335 C1341 0.930 . S
H1336 C1374 0.930 . S
H1337 C1318 0.930 . S
H1338 C1373 0.931 . S
N1339 Eu1308 2.657 . S
N1339 C1340 1.334 . S
N1339 C1344 1.362 . S
C1340 H1332 0.929 . S
C1340 N1339 1.334 . S
C1340 C1343 1.413 . S
C1341 H1335 0.930 . S
C1341 C1342 1.392 . S
C1341 C1343 1.367 . S
C1342 C1341 1.392 . S
C1342 C1344 1.420 . S
C1342 C1374 1.423 . S
C1343 H1329 0.930 . S
C1343 C1340 1.413 . S
C1343 C1341 1.367 . S
C1344 N1339 1.362 . S
C1344 C1342 1.420 . S
C1344 C1348 1.429 . S
H1345 C1350 0.930 . S
N1346 Eu1308 2.609 . S
N1346 C1348 1.377 . S
N1346 C1349 1.321 . S
C1347 H1333 0.930 . S
C1347 C1349 1.400 . S
C1347 C1350 1.386 . S
C1348 C1344 1.429 . S
C1348 N1346 1.377 . S
C1348 C1351 1.411 . S
C1349 H1331 0.930 . S
C1349 N1346 1.321 . S
C1349 C1347 1.400 . S
C1350 H1345 0.930 . S
C1350 C1347 1.386 . S
C1350 C1351 1.395 . S
C1351 C1348 1.411 . S
C1351 C1350 1.395 . S
C1351 C1373 1.420 . S
O1352 Eu1308 2.558 . S
O1352 C1372 1.257 . S
O1353 Eu1308 2.612 . S
O1353 Eu1319 2.380 . S
O1353 C1364 1.276 . S
O1354 Eu1319 2.432 . S
O1354 C1371 1.264 . S
O1355 Eu1308 2.339 . S
O1355 C1371 1.254 . S
O1356 Eu1308 2.563 . S
O1356 C1364 1.235 . S
O1357 Eu1308 2.419 . S
O1357 C1372 1.249 . S
O1358 Eu1319 2.558 . S
O1358 C1383 1.257 . S
O1359 Eu1308 2.380 . S
O1359 Eu1319 2.612 . S
O1359 C1375 1.276 . S
O1360 Eu1308 2.432 . S
O1360 C1382 1.264 . S
O1361 Eu1319 2.339 . S
O1361 C1382 1.254 . S
O1362 Eu1319 2.563 . S
O1362 C1375 1.235 . S
O1363 Eu1319 2.419 . S
O1363 C1383 1.249 . S
C1364 O1353 1.276 . S
C1364 O1356 1.235 . S
C1365 C1367 1.393 . S
C1365 C1369 1.395 . S
C1365 C1372 1.492 . S
C1366 C1367 1.392 . S
C1366 C1368 1.386 . S
C1367 C1365 1.393 . S
C1367 C1366 1.392 . S
C1367 H1384 0.930 . S
C1368 C1366 1.386 . S
C1368 C1370 1.395 . S
C1368 H1385 0.930 . S
C1369 C1365 1.395 . S
C1369 C1370 1.379 . S
C1369 H1386 0.930 . S
C1370 C1368 1.395 . S
C1370 C1369 1.379 . S
C1370 H1387 0.930 . S
C1371 O1354 1.264 . S
C1371 O1355 1.254 . S
C1372 Eu1308 2.848 . S
C1372 O1352 1.257 . S
C1372 O1357 1.249 . S
C1372 C1365 1.492 . S
C1373 H1338 0.931 . S
C1373 C1351 1.420 . S
C1373 C1374 1.351 . S
C1374 H1336 0.930 . S
C1374 C1342 1.423 . S
C1374 C1373 1.351 . S
C1375 O1359 1.276 . S
C1375 O1362 1.235 . S
C1376 C1377 1.393 . S
C1376 C1380 1.395 . S
C1376 C1383 1.492 . S
C1377 C1376 1.393 . S
C1377 C1378 1.392 . S
C1377 H1388 0.930 . S
C1378 C1377 1.392 . S
C1378 C1379 1.386 . S
C1379 C1378 1.386 . S
C1379 C1381 1.395 . S
C1379 H1389 0.930 . S
C1380 C1376 1.395 . S
C1380 C1381 1.379 . S
C1380 H1390 0.930 . S
C1381 C1379 1.395 . S
C1381 C1380 1.379 . S
C1381 H1391 0.930 . S
C1382 O1360 1.264 . S
C1382 O1361 1.254 . S
C1383 Eu1319 2.848 . S
C1383 O1358 1.257 . S
C1383 O1363 1.249 . S
C1383 C1376 1.492 . S
H1384 C1367 0.930 . S
H1385 C1368 0.930 . S
H1386 C1369 0.930 . S
H1387 C1370 0.930 . S
H1388 C1377 0.930 . S
H1389 C1379 0.930 . S
H1390 C1380 0.930 . S
H1391 C1381 0.930 . S
Eu1392 N1423 2.657 . S
Eu1392 N1430 2.609 . S
Eu1392 O1436 2.558 . S
Eu1392 O1437 2.612 . S
Eu1392 O1439 2.339 . S
Eu1392 O1440 2.563 . S
Eu1392 O1441 2.419 . S
Eu1392 O1443 2.380 . S
Eu1392 O1444 2.432 . S
Eu1392 C1456 2.848 . S
C1393 C1396 1.429 . S
C1393 C1397 1.411 . S
C1393 N1400 1.377 . S
C1394 C1396 1.420 . S
C1394 C1398 1.423 . S
C1394 C1406 1.392 . S
C1395 C1397 1.420 . S
C1395 C1398 1.351 . S
C1395 H1418 0.931 . S
C1396 C1393 1.429 . S
C1396 C1394 1.420 . S
C1396 N1404 1.362 . S
C1397 C1393 1.411 . S
C1397 C1395 1.420 . S
C1397 C1402 1.395 . S
C1398 C1394 1.423 . S
C1398 C1395 1.351 . S
C1398 H1410 0.930 . S
C1399 C1401 1.400 . S
C1399 C1402 1.386 . S
C1399 H1411 0.930 . S
N1400 C1393 1.377 . S
N1400 C1401 1.321 . S
N1400 Eu1403 2.609 . S
C1401 C1399 1.400 . S
C1401 N1400 1.321 . S
C1401 H1408 0.930 . S
C1402 C1397 1.395 . S
C1402 C1399 1.386 . S
C1402 H1421 0.930 . S
Eu1403 N1400 2.609 . S
Eu1403 N1404 2.657 . S
Eu1403 O1437 2.380 . S
Eu1403 O1438 2.432 . S
Eu1403 O1442 2.558 . S
Eu1403 O1443 2.612 . S
Eu1403 O1445 2.339 . S
Eu1403 O1446 2.563 . S
Eu1403 O1447 2.419 . S
Eu1403 C1467 2.848 . S
N1404 C1396 1.362 . S
N1404 Eu1403 2.657 . S
N1404 C1405 1.334 . S
C1405 N1404 1.334 . S
C1405 C1407 1.413 . S
C1405 H1412 0.929 . S
C1406 C1394 1.392 . S
C1406 C1407 1.367 . S
C1406 H1414 0.930 . S
C1407 C1405 1.413 . S
C1407 C1406 1.367 . S
C1407 H1409 0.930 . S
H1408 C1401 0.930 . S
H1409 C1407 0.930 . S
H1410 C1398 0.930 . S
H1411 C1399 0.930 . S
H1412 C1405 0.929 . S
H1413 C1427 0.930 . S
H1414 C1406 0.930 . S
H1415 C1433 0.930 . S
H1416 C1424 0.929 . S
H1417 C1431 0.930 . S
H1418 C1395 0.931 . S
H1419 C1425 0.930 . S
H1420 C1458 0.930 . S
H1421 C1402 0.930 . S
H1422 C1457 0.931 . S
N1423 Eu1392 2.657 . S
N1423 C1424 1.334 . S
N1423 C1428 1.362 . S
C1424 H1416 0.929 . S
C1424 N1423 1.334 . S
C1424 C1427 1.413 . S
C1425 H1419 0.930 . S
C1425 C1426 1.392 . S
C1425 C1427 1.367 . S
C1426 C1425 1.392 . S
C1426 C1428 1.420 . S
C1426 C1458 1.423 . S
C1427 H1413 0.930 . S
C1427 C1424 1.413 . S
C1427 C1425 1.367 . S
C1428 N1423 1.362 . S
C1428 C1426 1.420 . S
C1428 C1432 1.429 . S
H1429 C1434 0.930 . S
N1430 Eu1392 2.609 . S
N1430 C1432 1.377 . S
N1430 C1433 1.321 . S
C1431 H1417 0.930 . S
C1431 C1433 1.400 . S
C1431 C1434 1.386 . S
C1432 C1428 1.429 . S
C1432 N1430 1.377 . S
C1432 C1435 1.411 . S
C1433 H1415 0.930 . S
C1433 N1430 1.321 . S
C1433 C1431 1.400 . S
C1434 H1429 0.930 . S
C1434 C1431 1.386 . S
C1434 C1435 1.395 . S
C1435 C1432 1.411 . S
C1435 C1434 1.395 . S
C1435 C1457 1.420 . S
O1436 Eu1392 2.558 . S
O1436 C1456 1.257 . S
O1437 Eu1392 2.612 . S
O1437 Eu1403 2.380 . S
O1437 C1448 1.276 . S
O1438 Eu1403 2.432 . S
O1438 C1455 1.264 . S
O1439 Eu1392 2.339 . S
O1439 C1455 1.254 . S
O1440 Eu1392 2.563 . S
O1440 C1448 1.235 . S
O1441 Eu1392 2.419 . S
O1441 C1456 1.249 . S
O1442 Eu1403 2.558 . S
O1442 C1467 1.257 . S
O1443 Eu1392 2.380 . S
O1443 Eu1403 2.612 . S
O1443 C1459 1.276 . S
O1444 Eu1392 2.432 . S
O1444 C1466 1.264 . S
O1445 Eu1403 2.339 . S
O1445 C1466 1.254 . S
O1446 Eu1403 2.563 . S
O1446 C1459 1.235 . S
O1447 Eu1403 2.419 . S
O1447 C1467 1.249 . S
C1448 O1437 1.276 . S
C1448 O1440 1.235 . S
C1449 C1451 1.393 . S
C1449 C1453 1.395 . S
C1449 C1456 1.492 . S
C1450 C1451 1.392 . S
C1450 C1452 1.386 . S
C1451 C1449 1.393 . S
C1451 C1450 1.392 . S
C1451 H1468 0.930 . S
C1452 C1450 1.386 . S
C1452 C1454 1.395 . S
C1452 H1469 0.930 . S
C1453 C1449 1.395 . S
C1453 C1454 1.379 . S
C1453 H1470 0.930 . S
C1454 C1452 1.395 . S
C1454 C1453 1.379 . S
C1454 H1471 0.930 . S
C1455 O1438 1.264 . S
C1455 O1439 1.254 . S
C1456 Eu1392 2.848 . S
C1456 O1436 1.257 . S
C1456 O1441 1.249 . S
C1456 C1449 1.492 . S
C1457 H1422 0.931 . S
C1457 C1435 1.420 . S
C1457 C1458 1.351 . S
C1458 H1420 0.930 . S
C1458 C1426 1.423 . S
C1458 C1457 1.351 . S
C1459 O1443 1.276 . S
C1459 O1446 1.235 . S
C1460 C1461 1.393 . S
C1460 C1464 1.395 . S
C1460 C1467 1.492 . S
C1461 C1460 1.393 . S
C1461 C1462 1.392 . S
C1461 H1472 0.930 . S
C1462 C1461 1.392 . S
C1462 C1463 1.386 . S
C1463 C1462 1.386 . S
C1463 C1465 1.395 . S
C1463 H1473 0.930 . S
C1464 C1460 1.395 . S
C1464 C1465 1.379 . S
C1464 H1474 0.930 . S
C1465 C1463 1.395 . S
C1465 C1464 1.379 . S
C1465 H1475 0.930 . S
C1466 O1444 1.264 . S
C1466 O1445 1.254 . S
C1467 Eu1403 2.848 . S
C1467 O1442 1.257 . S
C1467 O1447 1.249 . S
C1467 C1460 1.492 . S
H1468 C1451 0.930 . S
H1469 C1452 0.930 . S
H1470 C1453 0.930 . S
H1471 C1454 0.930 . S
H1472 C1461 0.930 . S
H1473 C1463 0.930 . S
H1474 C1464 0.930 . S
H1475 C1465 0.930 . S
C1476 C1477 1.369 . S
C1476 C1478 1.419 . S
C1476 H1480 0.930 . S
C1477 C1476 1.369 . S
C1477 C1486 1.429 . S
C1478 C1476 1.419 . S
C1478 C1479 1.363 . S
C1478 H1481 0.929 . S
C1479 C1478 1.363 . S
C1479 C1485 1.428 . S
H1480 C1476 0.930 . S
H1481 C1478 0.929 . S
S1482 N1483 1.613 . S
S1482 N1484 1.610 . S
N1483 S1482 1.613 . S
N1483 C1486 1.350 . S
N1484 S1482 1.610 . S
N1484 C1485 1.351 . S
C1485 C1479 1.428 . S
C1485 N1484 1.351 . S
C1485 C1486 1.434 . S
C1486 C1477 1.429 . S
C1486 N1483 1.350 . S
C1486 C1485 1.434 . S
C1487 C1488 1.369 . S
C1487 C1489 1.419 . S
C1487 H1491 0.930 . S
C1488 C1487 1.369 . S
C1488 C1497 1.429 . S
C1489 C1487 1.419 . S
C1489 C1490 1.363 . S
C1489 H1492 0.929 . S
C1490 C1489 1.363 . S
C1490 C1496 1.428 . S
H1491 C1487 0.930 . S
H1492 C1489 0.929 . S
S1493 N1494 1.613 . S
S1493 N1495 1.610 . S
N1494 S1493 1.613 . S
N1494 C1497 1.350 . S
N1495 S1493 1.610 . S
N1495 C1496 1.351 . S
C1496 C1490 1.428 . S
C1496 N1495 1.351 . S
C1496 C1497 1.434 . S
C1497 C1488 1.429 . S
C1497 N1494 1.350 . S
C1497 C1496 1.434 . S
C1498 C1499 1.369 . S
C1498 C1500 1.419 . S
C1498 H1502 0.930 . S
C1499 C1498 1.369 . S
C1499 C1508 1.429 . S
C1500 C1498 1.419 . S
C1500 C1501 1.363 . S
C1500 H1503 0.929 . S
C1501 C1500 1.363 . S
C1501 C1507 1.428 . S
H1502 C1498 0.930 . S
H1503 C1500 0.929 . S
S1504 N1505 1.613 . S
S1504 N1506 1.610 . S
N1505 S1504 1.613 . S
N1505 C1508 1.350 . S
N1506 S1504 1.610 . S
N1506 C1507 1.351 . S
C1507 C1501 1.428 . S
C1507 N1506 1.351 . S
C1507 C1508 1.434 . S
C1508 C1499 1.429 . S
C1508 N1505 1.350 . S
C1508 C1507 1.434 . S
C1509 C1510 1.369 . S
C1509 C1511 1.419 . S
C1509 H1513 0.930 . S
C1510 C1509 1.369 . S
C1510 C1519 1.429 . S
C1511 C1509 1.419 . S
C1511 C1512 1.363 . S
C1511 H1514 0.929 . S
C1512 C1511 1.363 . S
C1512 C1518 1.428 . S
H1513 C1509 0.930 . S
H1514 C1511 0.929 . S
S1515 N1516 1.613 . S
S1515 N1517 1.610 . S
N1516 S1515 1.613 . S
N1516 C1519 1.350 1_554 S
N1517 S1515 1.610 . S
N1517 C1518 1.351 1_554 S
C1518 C1512 1.428 . S
C1518 N1517 1.351 1_556 S
C1518 C1519 1.434 . S
C1519 C1510 1.429 . S
C1519 N1516 1.350 1_556 S
C1519 C1518 1.434 . S
C1520 C1521 1.369 . S
C1520 C1522 1.419 . S
C1520 H1524 0.930 . S
C1521 C1520 1.369 . S
C1521 C1530 1.429 . S
C1522 C1520 1.419 . S
C1522 C1523 1.363 . S
C1522 H1525 0.929 . S
C1523 C1522 1.363 . S
C1523 C1529 1.428 . S
H1524 C1520 0.930 . S
H1525 C1522 0.929 . S
S1526 N1527 1.613 . S
S1526 N1528 1.610 . S
N1527 S1526 1.613 . S
N1527 C1530 1.350 . S
N1528 S1526 1.610 . S
N1528 C1529 1.351 . S
C1529 C1523 1.428 . S
C1529 N1528 1.351 . S
C1529 C1530 1.434 . S
C1530 C1521 1.429 . S
C1530 N1527 1.350 . S
C1530 C1529 1.434 . S
C1531 C1532 1.369 . S
C1531 C1533 1.419 . S
C1531 H1535 0.930 . S
C1532 C1531 1.369 . S
C1532 C1541 1.429 . S
C1533 C1531 1.419 . S
C1533 C1534 1.363 . S
C1533 H1536 0.929 . S
C1534 C1533 1.363 . S
C1534 C1540 1.428 . S
H1535 C1531 0.930 . S
H1536 C1533 0.929 . S
S1537 N1538 1.613 1_554 S
S1537 N1539 1.610 . S
N1538 S1537 1.613 1_556 S
N1538 C1541 1.350 . S
N1539 S1537 1.610 . S
N1539 C1540 1.351 1_554 S
C1540 C1534 1.428 . S
C1540 N1539 1.351 1_556 S
C1540 C1541 1.434 . S
C1541 C1532 1.429 . S
C1541 N1538 1.350 . S
C1541 C1540 1.434 . S
C1542 C1543 1.369 . S
C1542 C1544 1.419 . S
C1542 H1546 0.930 . S
C1543 C1542 1.369 . S
C1543 C1552 1.429 . S
C1544 C1542 1.419 . S
C1544 C1545 1.363 . S
C1544 H1547 0.929 . S
C1545 C1544 1.363 . S
C1545 C1551 1.428 . S
H1546 C1542 0.930 . S
H1547 C1544 0.929 . S
S1548 N1549 1.613 . S
S1548 N1550 1.610 . S
N1549 S1548 1.613 . S
N1549 C1552 1.350 . S
N1550 S1548 1.610 . S
N1550 C1551 1.351 . S
C1551 C1545 1.428 . S
C1551 N1550 1.351 . S
C1551 C1552 1.434 . S
C1552 C1543 1.429 . S
C1552 N1549 1.350 . S
C1552 C1551 1.434 . S
C1553 C1554 1.369 . S
C1553 C1555 1.419 . S
C1553 H1557 0.930 . S
C1554 C1553 1.369 . S
C1554 C1563 1.429 . S
C1555 C1553 1.419 . S
C1555 C1556 1.363 . S
C1555 H1558 0.929 . S
C1556 C1555 1.363 . S
C1556 C1562 1.428 . S
H1557 C1553 0.930 . S
H1558 C1555 0.929 . S
S1559 N1560 1.613 1_554 S
S1559 N1561 1.610 . S
N1560 S1559 1.613 1_556 S
N1560 C1563 1.350 . S
N1561 S1559 1.610 . S
N1561 C1562 1.354 1_554 S
C1562 C1556 1.428 . S
C1562 N1561 1.354 1_556 S
C1562 C1563 1.434 . S
C1563 C1554 1.429 . S
C1563 N1560 1.350 . S
C1563 C1562 1.434 . S
C1564 C1565 1.369 . S
C1564 C1566 1.419 . S
C1564 H1568 0.930 . S
C1565 C1564 1.369 . S
C1565 C1574 1.429 . S
C1566 C1564 1.419 . S
C1566 C1567 1.363 . S
C1566 H1569 0.929 1_556 S
C1567 C1566 1.363 . S
C1567 C1573 1.428 . S
H1568 C1564 0.930 . S
H1569 C1566 0.929 1_554 S
S1570 N1571 1.613 . S
S1570 N1572 1.610 . S
N1571 S1570 1.613 . S
N1571 C1574 1.350 . S
N1572 S1570 1.610 . S
N1572 C1573 1.351 . S
C1573 C1567 1.428 . S
C1573 N1572 1.351 . S
C1573 C1574 1.434 . S
C1574 C1565 1.429 . S
C1574 N1571 1.350 . S
C1574 C1573 1.434 . S
C1575 C1576 1.369 . S
C1575 C1577 1.419 . S
C1575 H1579 0.930 . S
C1576 C1575 1.369 . S
C1576 C1585 1.429 . S
C1577 C1575 1.419 . S
C1577 C1578 1.363 . S
C1577 H1580 0.929 . S
C1578 C1577 1.363 . S
C1578 C1584 1.428 . S
H1579 C1575 0.930 . S
H1580 C1577 0.929 . S
S1581 N1582 1.613 . S
S1581 N1583 1.610 . S
N1582 S1581 1.613 . S
N1582 C1585 1.350 . S
N1583 S1581 1.610 . S
N1583 C1584 1.351 . S
C1584 C1578 1.428 . S
C1584 N1583 1.351 . S
C1584 C1585 1.434 . S
C1585 C1576 1.429 . S
C1585 N1582 1.350 . S
C1585 C1584 1.434 . S
C1586 C1587 1.369 . S
C1586 C1588 1.419 . S
C1586 H1590 0.930 . S
C1587 C1586 1.369 . S
C1587 C1596 1.429 . S
C1588 C1586 1.419 . S
C1588 C1589 1.363 . S
C1588 H1591 0.994 . S
C1589 C1588 1.363 . S
C1589 C1595 1.428 . S
H1590 C1586 0.930 . S
H1591 C1588 0.994 . S
S1592 N1593 1.613 . S
S1592 N1594 1.610 . S
N1593 S1592 1.613 . S
N1593 C1596 1.350 . S
N1594 S1592 1.610 . S
N1594 C1595 1.351 . S
C1595 C1589 1.428 . S
C1595 N1594 1.351 . S
C1595 C1596 1.434 . S
C1596 C1587 1.429 . S
C1596 N1593 1.350 . S
C1596 C1595 1.434 . S
C1597 C1598 1.369 . S
C1597 C1599 1.419 . S
C1597 H1601 0.930 . S
C1598 C1597 1.369 . S
C1598 C1607 1.429 . S
C1599 C1597 1.419 . S
C1599 C1600 1.363 . S
C1599 H1602 0.929 . S
C1600 C1599 1.363 . S
C1600 C1606 1.428 . S
H1601 C1597 0.930 . S
H1602 C1599 0.929 . S
S1603 N1604 1.613 . S
S1603 N1605 1.610 . S
N1604 S1603 1.613 . S
N1604 C1607 1.350 . S
N1605 S1603 1.610 . S
N1605 C1606 1.351 . S
C1606 C1600 1.428 . S
C1606 N1605 1.351 . S
C1606 C1607 1.434 . S
C1607 C1598 1.429 . S
C1607 N1604 1.350 . S
C1607 C1606 1.434 . S
C1608 C1609 1.369 . S
C1608 C1610 1.419 . S
C1608 H1612 0.930 . S
C1609 C1608 1.369 . S
C1609 C1618 1.429 . S
C1610 C1608 1.419 . S
C1610 C1611 1.363 . S
C1610 H1613 0.929 . S
C1611 C1610 1.363 . S
C1611 C1617 1.428 . S
H1612 C1608 0.930 . S
H1613 C1610 0.929 . S
S1614 N1615 1.613 . S
S1614 N1616 1.610 . S
N1615 S1614 1.613 . S
N1615 C1618 1.350 . S
N1616 S1614 1.610 . S
N1616 C1617 1.351 . S
C1617 C1611 1.428 . S
C1617 N1616 1.351 . S
C1617 C1618 1.434 . S
C1618 C1609 1.429 . S
C1618 N1615 1.350 . S
C1618 C1617 1.434 . S
C1619 C1620 1.369 . S
C1619 C1621 1.419 . S
C1619 H1623 0.930 . S
C1620 C1619 1.369 . S
C1620 C1629 1.429 . S
C1621 C1619 1.419 . S
C1621 C1622 1.363 . S
C1621 H1624 0.929 . S
C1622 C1621 1.363 . S
C1622 C1628 1.428 . S
H1623 C1619 0.930 . S
H1624 C1621 0.929 . S
S1625 N1626 1.613 . S
S1625 N1627 1.610 . S
N1626 S1625 1.613 . S
N1626 C1629 1.350 . S
N1627 S1625 1.610 . S
N1627 C1628 1.351 . S
C1628 C1622 1.428 . S
C1628 N1627 1.351 . S
C1628 C1629 1.434 . S
C1629 C1620 1.429 . S
C1629 N1626 1.350 . S
C1629 C1628 1.434 . S
C1630 C1631 1.369 . S
C1630 C1632 1.419 . S
C1630 H1634 0.930 . S
C1631 C1630 1.369 . S
C1631 C1640 1.429 . S
C1632 C1630 1.419 . S
C1632 C1633 1.363 . S
C1632 H1635 0.929 . S
C1633 C1632 1.363 . S
C1633 C1639 1.428 . S
H1634 C1630 0.930 . S
H1635 C1632 0.929 . S
S1636 N1637 1.613 . S
S1636 N1638 1.610 . S
N1637 S1636 1.613 . S
N1637 C1640 1.350 . S
N1638 S1636 1.610 . S
N1638 C1639 1.351 . S
C1639 C1633 1.428 . S
C1639 N1638 1.351 . S
C1639 C1640 1.434 . S
C1640 C1631 1.429 . S
C1640 N1637 1.350 . S
C1640 C1639 1.434 . S
C1641 C1642 1.369 . S
C1641 C1643 1.419 . S
C1641 H1645 0.930 . S
C1642 C1641 1.369 . S
C1642 C1651 1.429 . S
C1643 C1641 1.419 . S
C1643 C1644 1.363 . S
C1643 H1646 0.929 . S
C1644 C1643 1.363 . S
C1644 C1650 1.428 . S
H1645 C1641 0.930 . S
H1646 C1643 0.929 . S
S1647 N1648 1.613 . S
S1647 N1649 1.610 . S
N1648 S1647 1.613 . S
N1648 C1651 1.350 . S
N1649 S1647 1.610 . S
N1649 C1650 1.351 . S
C1650 C1644 1.428 . S
C1650 N1649 1.351 . S
C1650 C1651 1.434 . S
C1651 C1642 1.429 . S
C1651 N1648 1.350 . S
C1651 C1650 1.434 . S
C1652 C1653 1.369 . S
C1652 C1654 1.419 . S
C1652 H1656 0.930 . S
C1653 C1652 1.369 . S
C1653 C1662 1.429 . S
C1654 C1652 1.419 . S
C1654 C1655 1.363 . S
C1654 H1657 0.929 . S
C1655 C1654 1.363 . S
C1655 C1661 1.428 . S
H1656 C1652 0.930 . S
H1657 C1654 0.929 . S
S1658 N1659 1.613 . S
S1658 N1660 1.610 . S
N1659 S1658 1.613 . S
N1659 C1662 1.350 . S
N1660 S1658 1.610 . S
N1660 C1661 1.351 . S
C1661 C1655 1.428 . S
C1661 N1660 1.351 . S
C1661 C1662 1.434 . S
C1662 C1653 1.429 . S
C1662 N1659 1.350 . S
C1662 C1661 1.434 . S
C1663 C1664 1.369 . S
C1663 C1665 1.419 . S
C1663 H1667 0.930 . S
C1664 C1663 1.369 . S
C1664 C1673 1.429 . S
C1665 C1663 1.419 . S
C1665 C1666 1.363 . S
C1665 H1668 0.929 . S
C1666 C1665 1.363 . S
C1666 C1672 1.428 . S
H1667 C1663 0.930 . S
H1668 C1665 0.929 . S
S1669 N1670 1.613 . S
S1669 N1671 1.610 . S
N1670 S1669 1.613 . S
N1670 C1673 1.350 . S
N1671 S1669 1.610 . S
N1671 C1672 1.351 . S
C1672 C1666 1.428 . S
C1672 N1671 1.351 . S
C1672 C1673 1.434 . S
C1673 C1664 1.429 . S
C1673 N1670 1.350 . S
C1673 C1672 1.434 . S
C1674 C1675 1.369 . S
C1674 C1676 1.419 . S
C1674 H1678 0.930 . S
C1675 C1674 1.369 . S
C1675 C1684 1.429 . S
C1676 C1674 1.419 . S
C1676 C1677 1.363 . S
C1676 H1679 0.929 . S
C1677 C1676 1.363 . S
C1677 C1683 1.428 . S
H1678 C1674 0.930 . S
H1679 C1676 0.929 . S
S1680 N1681 1.613 . S
S1680 N1682 1.610 . S
N1681 S1680 1.613 . S
N1681 C1684 1.350 . S
N1682 S1680 1.610 . S
N1682 C1683 1.351 . S
C1683 C1677 1.428 . S
C1683 N1682 1.351 . S
C1683 C1684 1.434 . S
C1684 C1675 1.429 . S
C1684 N1681 1.350 . S
C1684 C1683 1.434 . S
C1685 C1686 1.369 . S
C1685 C1687 1.419 . S
C1685 H1689 0.930 . S
C1686 C1685 1.369 . S
C1686 C1695 1.429 . S
C1687 C1685 1.419 . S
C1687 C1688 1.363 . S
C1687 H1690 0.929 . S
C1688 C1687 1.363 . S
C1688 C1694 1.428 . S
H1689 C1685 0.930 . S
H1690 C1687 0.929 . S
S1691 N1692 1.613 . S
S1691 N1693 1.610 . S
N1692 S1691 1.613 . S
N1692 C1695 1.350 . S
N1693 S1691 1.610 . S
N1693 C1694 1.351 . S
C1694 C1688 1.428 . S
C1694 N1693 1.351 . S
C1694 C1695 1.434 . S
C1695 C1686 1.429 . S
C1695 N1692 1.350 . S
C1695 C1694 1.434 . S
C1696 C1697 1.369 . S
C1696 C1698 1.419 . S
C1696 H1700 0.930 . S
C1697 C1696 1.369 . S
C1697 C1706 1.429 . S
C1698 C1696 1.419 . S
C1698 C1699 1.363 . S
C1698 H1701 0.929 . S
C1699 C1698 1.363 . S
C1699 C1705 1.428 . S
H1700 C1696 0.930 . S
H1701 C1698 0.929 . S
S1702 N1703 1.613 . S
S1702 N1704 1.610 . S
N1703 S1702 1.613 . S
N1703 C1706 1.350 . S
N1704 S1702 1.610 . S
N1704 C1705 1.351 . S
C1705 C1699 1.428 . S
C1705 N1704 1.351 . S
C1705 C1706 1.434 . S
C1706 C1697 1.429 . S
C1706 N1703 1.350 . S
C1706 C1705 1.434 . S
C1707 C1708 1.369 . S
C1707 C1709 1.419 . S
C1707 H1711 0.930 . S
C1708 C1707 1.369 . S
C1708 C1717 1.429 . S
C1709 C1707 1.419 . S
C1709 C1710 1.363 . S
C1709 H1712 0.929 . S
C1710 C1709 1.363 . S
C1710 C1716 1.428 . S
H1711 C1707 0.930 . S
H1712 C1709 0.929 . S
S1713 N1714 1.613 . S
S1713 N1715 1.610 . S
N1714 S1713 1.613 . S
N1714 C1717 1.350 . S
N1715 S1713 1.610 . S
N1715 C1716 1.351 . S
C1716 C1710 1.428 . S
C1716 N1715 1.351 . S
C1716 C1717 1.434 . S
C1717 C1708 1.429 . S
C1717 N1714 1.350 . S
C1717 C1716 1.434 . S
C1718 C1719 1.369 . S
C1718 C1720 1.419 . S
C1718 H1722 0.930 . S
C1719 C1718 1.369 . S
C1719 C1728 1.429 . S
C1720 C1718 1.419 . S
C1720 C1721 1.363 . S
C1720 H1723 0.929 . S
C1721 C1720 1.363 . S
C1721 C1727 1.428 . S
H1722 C1718 0.930 . S
H1723 C1720 0.929 . S
S1724 N1725 1.613 . S
S1724 N1726 1.610 . S
N1725 S1724 1.613 . S
N1725 C1728 1.350 . S
N1726 S1724 1.610 . S
N1726 C1727 1.351 . S
C1727 C1721 1.428 . S
C1727 N1726 1.351 . S
C1727 C1728 1.434 . S
C1728 C1719 1.429 . S
C1728 N1725 1.350 . S
C1728 C1727 1.434 . S
C1729 C1730 1.369 . S
C1729 C1731 1.419 . S
C1729 H1733 0.930 . S
C1730 C1729 1.369 . S
C1730 C1739 1.429 . S
C1731 C1729 1.419 . S
C1731 C1732 1.363 . S
C1731 H1734 0.929 . S
C1732 C1731 1.363 . S
C1732 C1738 1.428 . S
H1733 C1729 0.930 . S
H1734 C1731 0.929 . S
S1735 N1736 1.613 . S
S1735 N1737 1.610 . S
N1736 S1735 1.613 . S
N1736 C1739 1.350 . S
N1737 S1735 1.610 . S
N1737 C1738 1.351 . S
C1738 C1732 1.428 . S
C1738 N1737 1.351 . S
C1738 C1739 1.434 . S
C1739 C1730 1.429 . S
C1739 N1736 1.350 . S
C1739 C1738 1.434 . S
C1740 C1741 1.369 . S
C1740 C1742 1.419 . S
C1740 H1744 0.930 . S
C1741 C1740 1.369 . S
C1741 C1750 1.429 . S
C1742 C1740 1.419 . S
C1742 C1743 1.363 . S
C1742 H1745 0.929 . S
C1743 C1742 1.363 . S
C1743 C1749 1.428 . S
H1744 C1740 0.930 . S
H1745 C1742 0.929 . S
S1746 N1747 1.613 . S
S1746 N1748 1.610 . S
N1747 S1746 1.613 . S
N1747 C1750 1.350 . S
N1748 S1746 1.610 . S
N1748 C1749 1.351 . S
C1749 C1743 1.428 . S
C1749 N1748 1.351 . S
C1749 C1750 1.434 . S
C1750 C1741 1.429 . S
C1750 N1747 1.350 . S
C1750 C1749 1.434 . S
C1751 C1752 1.369 . S
C1751 C1753 1.419 . S
C1751 H1755 0.930 . S
C1752 C1751 1.369 . S
C1752 C1761 1.429 . S
C1753 C1751 1.419 . S
C1753 C1754 1.363 . S
C1753 H1756 0.929 . S
C1754 C1753 1.363 . S
C1754 C1760 1.428 . S
H1755 C1751 0.930 . S
H1756 C1753 0.929 . S
S1757 N1758 1.613 . S
S1757 N1759 1.610 . S
N1758 S1757 1.613 . S
N1758 C1761 1.350 . S
N1759 S1757 1.610 . S
N1759 C1760 1.351 . S
C1760 C1754 1.428 . S
C1760 N1759 1.351 . S
C1760 C1761 1.434 . S
C1761 C1752 1.429 . S
C1761 N1758 1.350 . S
C1761 C1760 1.434 . S
C1762 C1763 1.369 . S
C1762 C1764 1.419 . S
C1762 H1766 0.930 . S
C1763 C1762 1.369 . S
C1763 C1772 1.429 . S
C1764 C1762 1.419 . S
C1764 C1765 1.363 . S
C1764 H1767 0.929 . S
C1765 C1764 1.363 . S
C1765 C1771 1.428 . S
H1766 C1762 0.930 . S
H1767 C1764 0.929 . S
S1768 N1769 1.613 . S
S1768 N1770 1.610 . S
N1769 S1768 1.613 . S
N1769 C1772 1.350 . S
N1770 S1768 1.610 . S
N1770 C1771 1.351 . S
C1771 C1765 1.428 . S
C1771 N1770 1.351 . S
C1771 C1772 1.434 . S
C1772 C1763 1.429 . S
C1772 N1769 1.350 . S
C1772 C1771 1.434 . S
C1773 C1774 1.369 . S
C1773 C1775 1.419 . S
C1773 H1777 0.930 . S
C1774 C1773 1.369 . S
C1774 C1783 1.429 . S
C1775 C1773 1.419 . S
C1775 C1776 1.363 . S
C1775 H1778 0.929 . S
C1776 C1775 1.363 . S
C1776 C1782 1.428 . S
H1777 C1773 0.930 . S
H1778 C1775 0.929 . S
S1779 N1780 1.613 . S
S1779 N1781 1.610 . S
N1780 S1779 1.613 . S
N1780 C1783 1.350 . S
N1781 S1779 1.610 . S
N1781 C1782 1.351 . S
C1782 C1776 1.428 . S
C1782 N1781 1.351 . S
C1782 C1783 1.434 . S
C1783 C1774 1.429 . S
C1783 N1780 1.350 . S
C1783 C1782 1.434 . S
C1784 C1785 1.369 . S
C1784 C1786 1.419 . S
C1784 H1788 0.930 . S
C1785 C1784 1.369 . S
C1785 C1794 1.429 . S
C1786 C1784 1.419 . S
C1786 C1787 1.363 . S
C1786 H1789 0.929 . S
C1787 C1786 1.363 . S
C1787 C1793 1.428 . S
H1788 C1784 0.930 . S
H1789 C1786 0.929 . S
S1790 N1791 1.613 . S
S1790 N1792 1.610 . S
N1791 S1790 1.613 . S
N1791 C1794 1.350 . S
N1792 S1790 1.610 . S
N1792 C1793 1.351 . S
C1793 C1787 1.428 . S
C1793 N1792 1.351 . S
C1793 C1794 1.434 . S
C1794 C1785 1.429 . S
C1794 N1791 1.350 . S
C1794 C1793 1.434 . S
C1795 C1796 1.369 . S
C1795 C1797 1.419 . S
C1795 H1799 0.930 . S
C1796 C1795 1.369 . S
C1796 C1805 1.429 . S
C1797 C1795 1.419 . S
C1797 C1798 1.363 . S
C1797 H1800 0.929 . S
C1798 C1797 1.363 . S
C1798 C1804 1.428 . S
H1799 C1795 0.930 . S
H1800 C1797 0.929 . S
S1801 N1802 1.613 . S
S1801 N1803 1.610 . S
N1802 S1801 1.613 . S
N1802 C1805 1.350 . S
N1803 S1801 1.610 . S
N1803 C1804 1.351 . S
C1804 C1798 1.428 . S
C1804 N1803 1.351 . S
C1804 C1805 1.434 . S
C1805 C1796 1.429 . S
C1805 N1802 1.350 . S
C1805 C1804 1.434 . S
C1806 C1807 1.369 . S
C1806 C1808 1.419 . S
C1806 H1810 0.930 . S
C1807 C1806 1.369 . S
C1807 C1816 1.429 . S
C1808 C1806 1.419 . S
C1808 C1809 1.363 . S
C1808 H1811 0.929 . S
C1809 C1808 1.363 . S
C1809 C1815 1.428 . S
H1810 C1806 0.930 . S
H1811 C1808 0.929 . S
S1812 N1813 1.613 . S
S1812 N1814 1.610 . S
N1813 S1812 1.613 . S
N1813 C1816 1.350 . S
N1814 S1812 1.610 . S
N1814 C1815 1.351 . S
C1815 C1809 1.428 . S
C1815 N1814 1.351 . S
C1815 C1816 1.434 . S
C1816 C1807 1.429 . S
C1816 N1813 1.350 . S
C1816 C1815 1.434 . S
C1817 C1818 1.369 . S
C1817 C1819 1.419 . S
C1817 H1821 0.930 . S
C1818 C1817 1.369 . S
C1818 C1827 1.429 . S
C1819 C1817 1.419 . S
C1819 C1820 1.363 . S
C1819 H1822 0.929 . S
C1820 C1819 1.363 . S
C1820 C1826 1.428 . S
H1821 C1817 0.930 . S
H1822 C1819 0.929 . S
S1823 N1824 1.613 . S
S1823 N1825 1.610 . S
N1824 S1823 1.613 . S
N1824 C1827 1.350 . S
N1825 S1823 1.610 . S
N1825 C1826 1.351 . S
C1826 C1820 1.428 . S
C1826 N1825 1.351 . S
C1826 C1827 1.434 . S
C1827 C1818 1.429 . S
C1827 N1824 1.350 . S
C1827 C1826 1.434 . S
C1828 C1829 1.369 . S
C1828 C1830 1.419 . S
C1828 H1832 0.930 . S
C1829 C1828 1.369 . S
C1829 C1838 1.429 . S
C1830 C1828 1.419 . S
C1830 C1831 1.363 . S
C1830 H1833 0.929 . S
C1831 C1830 1.363 . S
C1831 C1837 1.428 . S
H1832 C1828 0.930 . S
H1833 C1830 0.929 . S
S1834 N1835 1.613 . S
S1834 N1836 1.610 . S
N1835 S1834 1.613 . S
N1835 C1838 1.350 . S
N1836 S1834 1.610 . S
N1836 C1837 1.351 . S
C1837 C1831 1.428 . S
C1837 N1836 1.351 . S
C1837 C1838 1.434 . S
C1838 C1829 1.429 . S
C1838 N1835 1.350 . S
C1838 C1837 1.434 . S
C1839 C1840 1.369 . S
C1839 C1841 1.419 . S
C1839 H1843 0.930 . S
C1840 C1839 1.369 . S
C1840 C1849 1.429 . S
C1841 C1839 1.419 . S
C1841 C1842 1.363 . S
C1841 H1844 0.929 . S
C1842 C1841 1.363 . S
C1842 C1848 1.428 . S
H1843 C1839 0.930 . S
H1844 C1841 0.929 . S
S1845 N1846 1.613 . S
S1845 N1847 1.610 . S
N1846 S1845 1.613 . S
N1846 C1849 1.350 . S
N1847 S1845 1.610 . S
N1847 C1848 1.351 . S
C1848 C1842 1.428 . S
C1848 N1847 1.351 . S
C1848 C1849 1.434 . S
C1849 C1840 1.429 . S
C1849 N1846 1.350 . S
C1849 C1848 1.434 . S
C1850 C1851 1.369 . S
C1850 C1852 1.419 . S
C1850 H1854 0.930 . S
C1851 C1850 1.369 . S
C1851 C1860 1.429 . S
C1852 C1850 1.419 . S
C1852 C1853 1.363 . S
C1852 H1855 0.929 . S
C1853 C1852 1.363 . S
C1853 C1859 1.428 . S
H1854 C1850 0.930 . S
H1855 C1852 0.929 . S
S1856 N1857 1.613 . S
S1856 N1858 1.610 . S
N1857 S1856 1.613 . S
N1857 C1860 1.350 . S
N1858 S1856 1.610 . S
N1858 C1859 1.351 . S
C1859 C1853 1.428 . S
C1859 N1858 1.351 . S
C1859 C1860 1.434 . S
C1860 C1851 1.429 . S
C1860 N1857 1.350 . S
C1860 C1859 1.434 . S
C1861 C1862 1.369 . S
C1861 C1863 1.419 . S
C1861 H1865 0.930 . S
C1862 C1861 1.369 . S
C1862 C1871 1.429 . S
C1863 C1861 1.419 . S
C1863 C1864 1.363 . S
C1863 H1866 0.929 . S
C1864 C1863 1.363 . S
C1864 C1870 1.428 . S
H1865 C1861 0.930 . S
H1866 C1863 0.929 . S
S1867 N1868 1.613 . S
S1867 N1869 1.610 . S
N1868 S1867 1.613 . S
N1868 C1871 1.350 . S
N1869 S1867 1.610 . S
N1869 C1870 1.351 . S
C1870 C1864 1.428 . S
C1870 N1869 1.351 . S
C1870 C1871 1.434 . S
C1871 C1862 1.429 . S
C1871 N1868 1.350 . S
C1871 C1870 1.434 . S
C1872 C1873 1.369 . S
C1872 C1874 1.419 . S
C1872 H1876 0.930 . S
C1873 C1872 1.369 . S
C1873 C1882 1.429 . S
C1874 C1872 1.419 . S
C1874 C1875 1.363 . S
C1874 H1877 0.929 1_565 S
C1875 C1874 1.363 . S
C1875 C1881 1.428 . S
H1876 C1872 0.930 . S
H1877 C1874 0.929 1_545 S
S1878 N1879 1.613 . S
S1878 N1880 1.610 . S
N1879 S1878 1.613 . S
N1879 C1882 1.350 . S
N1880 S1878 1.610 . S
N1880 C1881 1.351 . S
C1881 C1875 1.428 . S
C1881 N1880 1.351 . S
C1881 C1882 1.434 . S
C1882 C1873 1.429 . S
C1882 N1879 1.350 . S
C1882 C1881 1.434 . S
C1883 C1884 1.369 . S
C1883 C1885 1.419 . S
C1883 H1887 0.934 . S
C1884 C1883 1.369 . S
C1884 C1893 1.429 . S
C1885 C1883 1.419 . S
C1885 C1886 1.363 . S
C1885 H1888 0.929 1_455 S
C1886 C1885 1.363 . S
C1886 C1892 1.428 . S
H1887 C1883 0.934 . S
H1888 C1885 0.929 1_655 S
S1889 N1890 1.613 . S
S1889 N1891 1.610 . S
N1890 S1889 1.613 . S
N1890 C1893 1.350 . S
N1891 S1889 1.610 . S
N1891 C1892 1.351 . S
C1892 C1886 1.428 . S
C1892 N1891 1.351 . S
C1892 C1893 1.434 . S
C1893 C1884 1.429 . S
C1893 N1890 1.350 . S
C1893 C1892 1.434 . S
C1894 C1895 1.369 . S
C1894 C1896 1.419 . S
C1894 H1898 0.930 . S
C1895 C1894 1.369 . S
C1895 C1904 1.429 . S
C1896 C1894 1.419 . S
C1896 C1897 1.363 . S
C1896 H1899 0.929 . S
C1897 C1896 1.363 . S
C1897 C1903 1.428 . S
H1898 C1894 0.930 . S
H1899 C1896 0.929 . S
S1900 N1901 1.613 . S
S1900 N1902 1.610 . S
N1901 S1900 1.613 . S
N1901 C1904 1.350 . S
N1902 S1900 1.610 . S
N1902 C1903 1.351 . S
C1903 C1897 1.428 . S
C1903 N1902 1.351 . S
C1903 C1904 1.434 . S
C1904 C1895 1.429 . S
C1904 N1901 1.350 . S
C1904 C1903 1.434 . S
C1905 C1906 1.369 . S
C1905 C1907 1.419 . S
C1905 H1909 0.930 . S
C1906 C1905 1.369 . S
C1906 C1915 1.429 . S
C1907 C1905 1.419 . S
C1907 C1908 1.363 . S
C1907 H1910 0.929 . S
C1908 C1907 1.363 . S
C1908 C1914 1.428 . S
H1909 C1905 0.930 . S
H1910 C1907 0.929 . S
S1911 N1912 1.613 1_455 S
S1911 N1913 1.610 . S
N1912 S1911 1.613 1_655 S
N1912 C1915 1.350 . S
N1913 S1911 1.610 . S
N1913 C1914 1.351 1_455 S
C1914 C1908 1.428 . S
C1914 N1913 1.351 1_655 S
C1914 C1915 1.434 . S
C1915 C1906 1.429 . S
C1915 N1912 1.350 . S
C1915 C1914 1.434 . S
C1916 C1917 1.369 . S
C1916 C1918 1.419 . S
C1916 H1920 0.930 . S
C1917 C1916 1.369 . S
C1917 C1926 1.429 . S
C1918 C1916 1.419 . S
C1918 C1919 1.363 . S
C1918 H1921 0.929 . S
C1919 C1918 1.363 . S
C1919 C1925 1.428 . S
H1920 C1916 0.930 . S
H1921 C1918 0.929 . S
S1922 N1923 1.613 . S
S1922 N1924 1.610 . S
N1923 S1922 1.613 . S
N1923 C1926 1.350 . S
N1924 S1922 1.610 . S
N1924 C1925 1.351 . S
C1925 C1919 1.428 . S
C1925 N1924 1.351 . S
C1925 C1926 1.434 . S
C1926 C1917 1.429 . S
C1926 N1923 1.350 . S
C1926 C1925 1.434 . S
C1927 C1928 1.369 . S
C1927 C1929 1.419 . S
C1927 H1931 0.930 . S
C1928 C1927 1.369 . S
C1928 C1937 1.429 . S
C1929 C1927 1.419 . S
C1929 C1930 1.363 . S
C1929 H1932 0.929 . S
C1930 C1929 1.363 . S
C1930 C1936 1.428 . S
H1931 C1927 0.930 . S
H1932 C1929 0.929 . S
S1933 N1934 1.613 . S
S1933 N1935 1.610 . S
N1934 S1933 1.613 . S
N1934 C1937 1.350 . S
N1935 S1933 1.610 . S
N1935 C1936 1.351 . S
C1936 C1930 1.428 . S
C1936 N1935 1.351 . S
C1936 C1937 1.434 . S
C1937 C1928 1.429 . S
C1937 N1934 1.350 . S
C1937 C1936 1.434 . S
C1938 C1939 1.369 . S
C1938 C1940 1.419 . S
C1938 H1942 0.930 . S
C1939 C1938 1.369 . S
C1939 C1948 1.429 . S
C1940 C1938 1.419 . S
C1940 C1941 1.363 . S
C1940 H1943 0.929 . S
C1941 C1940 1.363 . S
C1941 C1947 1.428 . S
H1942 C1938 0.930 . S
H1943 C1940 0.929 . S
S1944 N1945 1.613 . S
S1944 N1946 1.610 . S
N1945 S1944 1.613 . S
N1945 C1948 1.350 . S
N1946 S1944 1.610 . S
N1946 C1947 1.351 . S
C1947 C1941 1.428 . S
C1947 N1946 1.351 . S
C1947 C1948 1.434 . S
C1948 C1939 1.429 . S
C1948 N1945 1.350 . S
C1948 C1947 1.434 . S
C1949 C1950 1.369 . S
C1949 C1951 1.419 . S
C1949 H1953 0.930 . S
C1950 C1949 1.369 . S
C1950 C1959 1.429 . S
C1951 C1949 1.419 . S
C1951 C1952 1.363 . S
C1951 H1954 0.929 . S
C1952 C1951 1.363 . S
C1952 C1958 1.428 . S
H1953 C1949 0.930 . S
H1954 C1951 0.929 . S
S1955 N1956 1.613 . S
S1955 N1957 1.610 . S
N1956 S1955 1.613 . S
N1956 C1959 1.350 . S
N1957 S1955 1.610 . S
N1957 C1958 1.351 . S
C1958 C1952 1.428 . S
C1958 N1957 1.351 . S
C1958 C1959 1.434 . S
C1959 C1950 1.429 . S
C1959 N1956 1.350 . S
C1959 C1958 1.434 . S
C1960 C1961 1.369 . S
C1960 C1962 1.419 . S
C1960 H1964 0.930 . S
C1961 C1960 1.369 . S
C1961 C1970 1.429 . S
C1962 C1960 1.419 . S
C1962 C1963 1.363 . S
C1962 H1965 0.929 . S
C1963 C1962 1.363 . S
C1963 C1969 1.428 . S
H1964 C1960 0.930 . S
H1965 C1962 0.929 . S
S1966 N1967 1.613 . S
S1966 N1968 1.610 . S
N1967 S1966 1.613 . S
N1967 C1970 1.350 . S
N1968 S1966 1.610 . S
N1968 C1969 1.351 . S
C1969 C1963 1.428 . S
C1969 N1968 1.351 . S
C1969 C1970 1.434 . S
C1970 C1961 1.429 . S
C1970 N1967 1.350 . S
C1970 C1969 1.434 . S
C1971 C1972 1.369 . S
C1971 C1973 1.419 . S
C1971 H1975 0.930 . S
C1972 C1971 1.369 . S
C1972 C1981 1.429 . S
C1973 C1971 1.419 . S
C1973 C1974 1.363 . S
C1973 H1976 0.929 . S
C1974 C1973 1.363 . S
C1974 C1980 1.428 . S
H1975 C1971 0.930 . S
H1976 C1973 0.929 . S
S1977 N1978 1.613 . S
S1977 N1979 1.610 . S
N1978 S1977 1.613 . S
N1978 C1981 1.350 . S
N1979 S1977 1.610 . S
N1979 C1980 1.351 . S
C1980 C1974 1.428 . S
C1980 N1979 1.351 . S
C1980 C1981 1.434 . S
C1981 C1972 1.429 . S
C1981 N1978 1.350 . S
C1981 C1980 1.434 . S
C1982 C1983 1.369 . S
C1982 C1984 1.419 . S
C1982 H1986 0.930 . S
C1983 C1982 1.369 . S
C1983 C1992 1.429 . S
C1984 C1982 1.419 . S
C1984 C1985 1.363 . S
C1984 H1987 0.929 . S
C1985 C1984 1.363 . S
C1985 C1991 1.428 . S
H1986 C1982 0.930 . S
H1987 C1984 0.929 . S
S1988 N1989 1.613 . S
S1988 N1990 1.610 . S
N1989 S1988 1.613 . S
N1989 C1992 1.350 . S
N1990 S1988 1.610 . S
N1990 C1991 1.351 . S
C1991 C1985 1.428 . S
C1991 N1990 1.351 . S
C1991 C1992 1.434 . S
C1992 C1983 1.429 . S
C1992 N1989 1.350 . S
C1992 C1991 1.434 . S
C1993 C1994 1.369 . S
C1993 C1995 1.419 . S
C1993 H1997 0.930 . S
C1994 C1993 1.369 . S
C1994 C2003 1.429 . S
C1995 C1993 1.419 . S
C1995 C1996 1.363 . S
C1995 H1998 0.929 . S
C1996 C1995 1.363 . S
C1996 C2002 1.428 . S
H1997 C1993 0.930 . S
H1998 C1995 0.929 . S
S1999 N2000 1.613 . S
S1999 N2001 1.610 . S
N2000 S1999 1.613 . S
N2000 C2003 1.350 . S
N2001 S1999 1.610 . S
N2001 C2002 1.351 . S
C2002 C1996 1.428 . S
C2002 N2001 1.351 . S
C2002 C2003 1.434 . S
C2003 C1994 1.429 . S
C2003 N2000 1.350 . S
C2003 C2002 1.434 . S
C2004 C2005 1.369 . S
C2004 C2006 1.419 . S
C2004 H2008 0.930 . S
C2005 C2004 1.369 . S
C2005 C2014 1.429 . S
C2006 C2004 1.419 . S
C2006 C2007 1.363 . S
C2006 H2009 0.929 . S
C2007 C2006 1.363 . S
C2007 C2013 1.428 . S
H2008 C2004 0.930 . S
H2009 C2006 0.929 . S
S2010 N2011 1.613 . S
S2010 N2012 1.610 . S
N2011 S2010 1.613 . S
N2011 C2014 1.350 . S
N2012 S2010 1.610 . S
N2012 C2013 1.351 . S
C2013 C2007 1.428 . S
C2013 N2012 1.351 . S
C2013 C2014 1.434 . S
C2014 C2005 1.429 . S
C2014 N2011 1.350 . S
C2014 C2013 1.434 . S
C2015 C2016 1.369 . S
C2015 C2017 1.419 . S
C2015 H2019 0.930 . S
C2016 C2015 1.369 . S
C2016 C2025 1.429 . S
C2017 C2015 1.419 . S
C2017 C2018 1.363 . S
C2017 H2020 0.929 . S
C2018 C2017 1.363 . S
C2018 C2024 1.428 . S
H2019 C2015 0.930 . S
H2020 C2017 0.929 . S
S2021 N2022 1.613 . S
S2021 N2023 1.610 . S
N2022 S2021 1.613 . S
N2022 C2025 1.350 . S
N2023 S2021 1.610 . S
N2023 C2024 1.351 . S
C2024 C2018 1.428 . S
C2024 N2023 1.351 . S
C2024 C2025 1.434 . S
C2025 C2016 1.429 . S
C2025 N2022 1.350 . S
C2025 C2024 1.434 . S
C2026 C2027 1.369 . S
C2026 C2028 1.419 . S
C2026 H2030 0.930 . S
C2027 C2026 1.369 . S
C2027 C2036 1.429 . S
C2028 C2026 1.419 . S
C2028 C2029 1.363 . S
C2028 H2031 0.929 . S
C2029 C2028 1.363 . S
C2029 C2035 1.428 . S
H2030 C2026 0.930 . S
H2031 C2028 0.929 . S
S2032 N2033 1.613 . S
S2032 N2034 1.610 . S
N2033 S2032 1.613 . S
N2033 C2036 1.350 . S
N2034 S2032 1.610 . S
N2034 C2035 1.351 . S
C2035 C2029 1.428 . S
C2035 N2034 1.351 . S
C2035 C2036 1.434 . S
C2036 C2027 1.429 . S
C2036 N2033 1.350 . S
C2036 C2035 1.434 . S
C2037 C2038 1.369 . S
C2037 C2039 1.419 . S
C2037 H2041 0.930 . S
C2038 C2037 1.369 . S
C2038 C2047 1.429 . S
C2039 C2037 1.419 . S
C2039 C2040 1.363 . S
C2039 H2042 0.929 . S
C2040 C2039 1.363 . S
C2040 C2046 1.428 . S
H2041 C2037 0.930 . S
H2042 C2039 0.929 . S
S2043 N2044 1.613 . S
S2043 N2045 1.610 . S
N2044 S2043 1.613 . S
N2044 C2047 1.350 . S
N2045 S2043 1.610 . S
N2045 C2046 1.351 . S
C2046 C2040 1.428 . S
C2046 N2045 1.351 . S
C2046 C2047 1.434 . S
C2047 C2038 1.429 . S
C2047 N2044 1.350 . S
C2047 C2046 1.434 . S
C2048 C2049 1.369 . S
C2048 C2050 1.419 . S
C2048 H2052 0.930 . S
C2049 C2048 1.369 . S
C2049 C2058 1.429 . S
C2050 C2048 1.419 . S
C2050 C2051 1.363 . S
C2050 H2053 0.929 . S
C2051 C2050 1.363 . S
C2051 C2057 1.428 . S
H2052 C2048 0.930 . S
H2053 C2050 0.929 . S
S2054 N2055 1.613 . S
S2054 N2056 1.610 . S
N2055 S2054 1.613 . S
N2055 C2058 1.350 . S
N2056 S2054 1.610 . S
N2056 C2057 1.351 . S
C2057 C2051 1.428 . S
C2057 N2056 1.351 . S
C2057 C2058 1.434 . S
C2058 C2049 1.429 . S
C2058 N2055 1.350 . S
C2058 C2057 1.434 . S
C2059 C2060 1.369 . S
C2059 C2061 1.419 . S
C2059 H2063 0.930 . S
C2060 C2059 1.369 . S
C2060 C2069 1.429 . S
C2061 C2059 1.419 . S
C2061 C2062 1.363 . S
C2061 H2064 0.929 . S
C2062 C2061 1.363 . S
C2062 C2068 1.428 . S
H2063 C2059 0.930 . S
H2064 C2061 0.929 . S
S2065 N2066 1.613 . S
S2065 N2067 1.610 . S
N2066 S2065 1.613 . S
N2066 C2069 1.350 . S
N2067 S2065 1.610 . S
N2067 C2068 1.351 . S
C2068 C2062 1.428 . S
C2068 N2067 1.351 . S
C2068 C2069 1.434 . S
C2069 C2060 1.429 . S
C2069 N2066 1.350 . S
C2069 C2068 1.434 . S
C1477 C522 1.503 . S
C1479 C787 1.412 . S
C1488 C562 1.486 . S
C1490 C871 1.415 . S
C1499 C495 1.527 . S
C1501 C951 1.465 . S
C1510 C455 1.472 . S
C1512 C867 1.425 . S
C1523 C955 1.354 . S
C1521 C362 1.429 . S
C1532 C402 1.495 . S
C1534 C783 1.410 . S
C1545 C776 1.436 . S
C1543 C442 1.480 . S
C1556 C860 1.402 . S
C1554 C375 1.461 . S
C1565 C415 1.529 . S
C1567 C962 1.469 . S
C1576 C535 1.477 . S
C1578 C878 1.423 . S
C1587 C575 1.403 . S
C1589 C944 1.334 . S
C1600 C794 1.440 . S
C1598 C482 1.454 . S
C1611 C1039 1.419 . S
C1609 C42 1.501 . S
C1620 C82 1.487 . S
C1622 C1123 1.413 . S
C1631 C15 1.520 1_565 S
C1633 C1203 1.472 . S
C1642 C695 1.474 . S
C1644 C1119 1.421 . S
C1653 C602 1.429 . S
C1655 C1207 1.347 . S
C1664 C642 1.493 . S
C1666 C1035 1.417 . S
C1675 C682 1.477 . S
C1677 C1028 1.435 . S
C1686 C615 1.460 . S
C1688 C1112 1.396 . S
C1699 C1214 1.471 . S
C1697 C655 1.527 . S
C1708 C55 1.479 . S
C1710 C1130 1.418 . S
C1721 C1196 1.340 . S
C1719 C95 1.405 . S
C1730 C2 1.457 . S
C1732 C1046 1.437 . S
C1743 C1291 1.416 . S
C1741 C282 1.503 . S
C1752 C322 1.487 . S
C1754 C1375 1.411 . S
C1765 C1455 1.466 . S
C1763 C255 1.526 . S
C1776 C1371 1.427 . S
C1774 C215 1.470 . S
C1787 C1459 1.347 . S
C1785 C122 1.430 . S
C1796 C162 1.493 . S
C1798 C1287 1.416 . S
C1807 C202 1.472 . S
C1809 C1280 1.443 . S
C1818 C135 1.459 . S
C1820 C1364 1.396 . S
C1831 C1466 1.469 . S
C1829 C175 1.544 . S
C1840 C295 1.479 . S
C1842 C1382 1.418 . S
C1851 C335 1.405 . S
C1853 C1448 1.338 . S
C1862 C242 1.454 . S
C1864 C1298 1.440 . S
C1873 C621 1.442 . S
C1875 C790 1.356 . S
C1886 C874 1.366 . S
C1884 C661 1.516 . S
C1895 C701 1.489 . S
C1897 C946 1.370 . S
C1906 C261 1.512 . S
C1908 C862 1.374 . S
C1917 C301 1.478 . S
C1919 C958 1.347 . S
C1930 C778 1.349 . S
C1928 C341 1.439 . S
C1939 C141 1.442 . S
C1941 C1042 1.355 . S
C1950 C181 1.516 . S
C1952 C1126 1.365 . S
C1961 C221 1.491 . S
C1963 C1198 1.362 . S
C1972 C501 1.510 . S
C1974 C1114 1.374 . S
C1985 C1210 1.355 . S
C1983 C541 1.479 . S
C1994 C581 1.438 . S
C1996 C1030 1.348 . S
C2005 C381 1.442 . S
C2007 C1294 1.353 . S
C2016 C421 1.515 . S
C2018 C1378 1.359 . S
C2029 C1450 1.370 . S
C2027 C461 1.489 . S
C2038 C21 1.511 . S
C2040 C1366 1.372 . S
C2049 C61 1.477 . S
C2051 C1462 1.346 . S
C2060 C101 1.437 . S
C2062 C1282 1.348 . S
