# Generated by pormake.
# Topology ocu, (6,8)-cn, num edge types: 1
# Building blocks:
#     Node 0, Type 0, BuildingBlock: KUMJIN_clean_sbu_1, # of connection points: 6
#     Node 1, Type 0, BuildingBlock: KUMJIN_clean_sbu_1, # of connection points: 6
#     Node 2, Type 0, BuildingBlock: KUMJIN_clean_sbu_1, # of connection points: 6
#     Node 3, Type 0, BuildingBlock: KUMJIN_clean_sbu_1, # of connection points: 6
#     Node 4, Type 0, BuildingBlock: KUMJIN_clean_sbu_1, # of connection points: 6
#     Node 5, Type 0, BuildingBlock: KUMJIN_clean_sbu_1, # of connection points: 6
#     Node 6, Type 0, BuildingBlock: KUMJIN_clean_sbu_1, # of connection points: 6
#     Node 7, Type 0, BuildingBlock: KUMJIN_clean_sbu_1, # of connection points: 6
#     Node 8, Type 1, BuildingBlock: TAGTUT_clean_sbu_1, # of connection points: 8
#     Node 9, Type 1, BuildingBlock: TAGTUT_clean_sbu_1, # of connection points: 8
#     Node 10, Type 1, BuildingBlock: TAGTUT_clean_sbu_1, # of connection points: 8
#     Node 11, Type 1, BuildingBlock: TAGTUT_clean_sbu_1, # of connection points: 8
#     Node 12, Type 1, BuildingBlock: TAGTUT_clean_sbu_1, # of connection points: 8
#     Node 13, Type 1, BuildingBlock: TAGTUT_clean_sbu_1, # of connection points: 8
#     Edge 14, Type (0, 1), BuildingBlock: UVAHIK_clean_linker_0, # of connection points: 2
#     Edge 15, Type (0, 1), BuildingBlock: UVAHIK_clean_linker_0, # of connection points: 2
#     Edge 16, Type (0, 1), BuildingBlock: UVAHIK_clean_linker_0, # of connection points: 2
#     Edge 17, Type (0, 1), BuildingBlock: UVAHIK_clean_linker_0, # of connection points: 2
#     Edge 18, Type (0, 1), BuildingBlock: UVAHIK_clean_linker_0, # of connection points: 2
#     Edge 19, Type (0, 1), BuildingBlock: UVAHIK_clean_linker_0, # of connection points: 2
#     Edge 20, Type (0, 1), BuildingBlock: UVAHIK_clean_linker_0, # of connection points: 2
#     Edge 21, Type (0, 1), BuildingBlock: UVAHIK_clean_linker_0, # of connection points: 2
#     Edge 22, Type (0, 1), BuildingBlock: UVAHIK_clean_linker_0, # of connection points: 2
#     Edge 23, Type (0, 1), BuildingBlock: UVAHIK_clean_linker_0, # of connection points: 2
#     Edge 24, Type (0, 1), BuildingBlock: UVAHIK_clean_linker_0, # of connection points: 2
#     Edge 25, Type (0, 1), BuildingBlock: UVAHIK_clean_linker_0, # of connection points: 2
#     Edge 26, Type (0, 1), BuildingBlock: UVAHIK_clean_linker_0, # of connection points: 2
#     Edge 27, Type (0, 1), BuildingBlock: UVAHIK_clean_linker_0, # of connection points: 2
#     Edge 28, Type (0, 1), BuildingBlock: UVAHIK_clean_linker_0, # of connection points: 2
#     Edge 29, Type (0, 1), BuildingBlock: UVAHIK_clean_linker_0, # of connection points: 2
#     Edge 30, Type (0, 1), BuildingBlock: UVAHIK_clean_linker_0, # of connection points: 2
#     Edge 31, Type (0, 1), BuildingBlock: UVAHIK_clean_linker_0, # of connection points: 2
#     Edge 32, Type (0, 1), BuildingBlock: UVAHIK_clean_linker_0, # of connection points: 2
#     Edge 33, Type (0, 1), BuildingBlock: UVAHIK_clean_linker_0, # of connection points: 2
#     Edge 34, Type (0, 1), BuildingBlock: UVAHIK_clean_linker_0, # of connection points: 2
#     Edge 35, Type (0, 1), BuildingBlock: UVAHIK_clean_linker_0, # of connection points: 2
#     Edge 36, Type (0, 1), BuildingBlock: UVAHIK_clean_linker_0, # of connection points: 2
#     Edge 37, Type (0, 1), BuildingBlock: UVAHIK_clean_linker_0, # of connection points: 2
#     Edge 38, Type (0, 1), BuildingBlock: UVAHIK_clean_linker_0, # of connection points: 2
#     Edge 39, Type (0, 1), BuildingBlock: UVAHIK_clean_linker_0, # of connection points: 2
#     Edge 40, Type (0, 1), BuildingBlock: UVAHIK_clean_linker_0, # of connection points: 2
#     Edge 41, Type (0, 1), BuildingBlock: UVAHIK_clean_linker_0, # of connection points: 2
#     Edge 42, Type (0, 1), BuildingBlock: UVAHIK_clean_linker_0, # of connection points: 2
#     Edge 43, Type (0, 1), BuildingBlock: UVAHIK_clean_linker_0, # of connection points: 2
#     Edge 44, Type (0, 1), BuildingBlock: UVAHIK_clean_linker_0, # of connection points: 2
#     Edge 45, Type (0, 1), BuildingBlock: UVAHIK_clean_linker_0, # of connection points: 2
#     Edge 46, Type (0, 1), BuildingBlock: UVAHIK_clean_linker_0, # of connection points: 2
#     Edge 47, Type (0, 1), BuildingBlock: UVAHIK_clean_linker_0, # of connection points: 2
#     Edge 48, Type (0, 1), BuildingBlock: UVAHIK_clean_linker_0, # of connection points: 2
#     Edge 49, Type (0, 1), BuildingBlock: UVAHIK_clean_linker_0, # of connection points: 2
#     Edge 50, Type (0, 1), BuildingBlock: UVAHIK_clean_linker_0, # of connection points: 2
#     Edge 51, Type (0, 1), BuildingBlock: UVAHIK_clean_linker_0, # of connection points: 2
#     Edge 52, Type (0, 1), BuildingBlock: UVAHIK_clean_linker_0, # of connection points: 2
#     Edge 53, Type (0, 1), BuildingBlock: UVAHIK_clean_linker_0, # of connection points: 2
#     Edge 54, Type (0, 1), BuildingBlock: UVAHIK_clean_linker_0, # of connection points: 2
#     Edge 55, Type (0, 1), BuildingBlock: UVAHIK_clean_linker_0, # of connection points: 2
#     Edge 56, Type (0, 1), BuildingBlock: UVAHIK_clean_linker_0, # of connection points: 2
#     Edge 57, Type (0, 1), BuildingBlock: UVAHIK_clean_linker_0, # of connection points: 2
#     Edge 58, Type (0, 1), BuildingBlock: UVAHIK_clean_linker_0, # of connection points: 2
#     Edge 59, Type (0, 1), BuildingBlock: UVAHIK_clean_linker_0, # of connection points: 2
#     Edge 60, Type (0, 1), BuildingBlock: UVAHIK_clean_linker_0, # of connection points: 2
#     Edge 61, Type (0, 1), BuildingBlock: UVAHIK_clean_linker_0, # of connection points: 2
# Relax obj value: 0.057
# Max RMSD: 0.172
# Mean RMSD: 0.096
data_MOF--net-ocu--node1-KUMJIN_clean_sbu_1--node2-TAGTUT_clean_sbu_1--edge1-UVAHIK_clean_linker_0
_symmetry_space_group_name_H-M    P1
_symmetry_Int_Tables_number       1
_symmetry_cell_setting            triclinic
loop_
_symmetry_equiv_pos_as_xyz
'x, y, z'
_cell_length_a     50.334854
_cell_length_b     48.364329
_cell_length_c     53.624752
_cell_angle_alpha  98.843641
_cell_angle_beta   84.019831
_cell_angle_gamma 110.31094
loop_
_atom_site_label
_atom_site_type_symbol
_atom_site_fract_x
_atom_site_fract_y
_atom_site_fract_z
_atom_type_partial_charge
Eu0 Eu 0.23964 0.25034 0.22603 0.0
C1 C 0.28701 0.30366 0.33019 0.0
N2 N 0.30012 0.30544 0.30674 0.0
C3 C 0.32217 0.35805 0.31669 0.0
C4 C 0.29 0.32945 0.34753 0.0
C5 C 0.31836 0.33187 0.30005 0.0
C6 C 0.30768 0.3569 0.34043 0.0
C7 C 0.25745 0.2732 0.36125 0.0
C8 C 0.27101 0.27585 0.33692 0.0
C9 C 0.2593 0.29893 0.37822 0.0
C10 C 0.27562 0.32699 0.37141 0.0
Eu11 Eu 0.29343 0.2603 0.28013 0.0
N12 N 0.27012 0.25135 0.32028 0.0
C13 C 0.2433 0.24472 0.36811 0.0
C14 C 0.25862 0.22372 0.32774 0.0
C15 C 0.24432 0.21988 0.35143 0.0
H16 H 0.3296 0.33265 0.28172 0.0
H17 H 0.2346 0.19781 0.35697 0.0
H18 H 0.18312 0.18955 0.23922 0.0
H19 H 0.29822 0.27097 0.13587 0.0
H20 H 0.26106 0.20467 0.31571 0.0
H21 H 0.23256 0.24172 0.3866 0.0
H22 H 0.28121 0.28398 0.17968 0.0
H23 H 0.33625 0.37909 0.31121 0.0
H24 H 0.24882 0.29733 0.39691 0.0
H25 H 0.27738 0.34658 0.3849 0.0
H26 H 0.16279 0.13701 0.22196 0.0
H27 H 0.3106 0.37723 0.35325 0.0
H28 H 0.28226 0.2185 0.1162 0.0
N29 N 0.21643 0.19973 0.21047 0.0
C30 C 0.22621 0.1902 0.1873 0.0
C31 C 0.18094 0.15159 0.21222 0.0
C32 C 0.21432 0.16052 0.17614 0.0
C33 C 0.19303 0.18135 0.22227 0.0
C34 C 0.19194 0.14097 0.18927 0.0
N35 N 0.25715 0.23932 0.18471 0.0
C36 C 0.27453 0.26108 0.17118 0.0
C37 C 0.25579 0.2022 0.14898 0.0
C38 C 0.24676 0.2107 0.17383 0.0
C39 C 0.2749 0.22412 0.13538 0.0
C40 C 0.28398 0.25377 0.14641 0.0
H41 H 0.18225 0.11801 0.18135 0.0
H42 H 0.21557 0.1288 0.14313 0.0
H43 H 0.25183 0.16534 0.11932 0.0
O44 O 0.23168 0.28875 0.21591 0.0
O45 O 0.28033 0.23938 0.21502 0.0
O46 O 0.28634 0.2204 0.24974 0.0
O47 O 0.2011 0.24492 0.20772 0.0
O48 O 0.27556 0.29461 0.23252 0.0
O49 O 0.31268 0.28408 0.24599 0.0
O50 O 0.31901 0.24702 0.30411 0.0
O51 O 0.26799 0.29199 0.28154 0.0
O52 O 0.22537 0.26177 0.26658 0.0
O53 O 0.33919 0.27339 0.27332 0.0
O54 O 0.25907 0.21493 0.2727 0.0
O55 O 0.22164 0.22597 0.26049 0.0
C56 C 0.29018 0.22217 0.22533 0.0
C57 C 0.18372 0.28477 0.21667 0.0
C58 C 0.15138 0.30983 0.20887 0.0
C59 C 0.13914 0.30624 0.23353 0.0
C60 C 0.17123 0.28138 0.24111 0.0
C61 C 0.14912 0.29221 0.24952 0.0
C62 C 0.1739 0.29907 0.20067 0.0
C63 C 0.30281 0.29886 0.23285 0.0
C64 C 0.2068 0.27324 0.20756 0.0
C65 C 0.22431 0.15157 0.15188 0.0
C66 C 0.24493 0.17238 0.1383 0.0
C67 C 0.24016 0.28412 0.28225 0.0
C68 C 0.3709 0.2617 0.29778 0.0
C69 C 0.40168 0.24504 0.31986 0.0
C70 C 0.42546 0.26518 0.30839 0.0
C71 C 0.39507 0.28168 0.28675 0.0
C72 C 0.37428 0.24335 0.31438 0.0
C73 C 0.42212 0.28336 0.29205 0.0
C74 C 0.23165 0.20929 0.27142 0.0
C75 C 0.34251 0.26056 0.29182 0.0
H76 H 0.12151 0.3138 0.24037 0.0
H77 H 0.17846 0.27017 0.25355 0.0
H78 H 0.13949 0.28948 0.2684 0.0
H79 H 0.18398 0.30193 0.18192 0.0
H80 H 0.44678 0.26664 0.31178 0.0
H81 H 0.39312 0.29615 0.27403 0.0
H82 H 0.35575 0.22805 0.32313 0.0
H83 H 0.4406 0.29876 0.28338 0.0
Eu84 Eu 0.73476 0.26445 0.24424 0.0
C85 C 0.82239 0.19318 0.20974 0.0
N86 N 0.80103 0.18876 0.22784 0.0
C87 C 0.78471 0.13652 0.21361 0.0
C88 C 0.82506 0.16949 0.19195 0.0
C89 C 0.78316 0.16079 0.23092 0.0
C90 C 0.80537 0.141 0.19367 0.0
C91 C 0.86735 0.22574 0.19397 0.0
C92 C 0.84313 0.22083 0.21072 0.0
C93 C 0.8692 0.20287 0.17497 0.0
C94 C 0.84805 0.17477 0.17395 0.0
Eu95 Eu 0.79776 0.23094 0.25479 0.0
N96 N 0.84086 0.24206 0.22965 0.0
C97 C 0.88952 0.25294 0.19763 0.0
C98 C 0.86336 0.26759 0.23464 0.0
C99 C 0.88774 0.27372 0.21839 0.0
H100 H 0.76713 0.15745 0.24632 0.0
H101 H 0.90513 0.29442 0.22188 0.0
H102 H 0.71699 0.29899 0.29806 0.0
H103 H 0.66686 0.16494 0.1876 0.0
H104 H 0.86201 0.28362 0.25075 0.0
H105 H 0.90849 0.25763 0.18517 0.0
H106 H 0.70451 0.21362 0.19425 0.0
H107 H 0.76992 0.11445 0.2156 0.0
H108 H 0.88743 0.20633 0.16165 0.0
H109 H 0.8503 0.15697 0.15986 0.0
H110 H 0.67991 0.2889 0.33303 0.0
H111 H 0.80664 0.12217 0.18036 0.0
H112 H 0.63372 0.14553 0.22327 0.0
N113 N 0.69934 0.25649 0.27724 0.0
C114 C 0.67766 0.23025 0.27522 0.0
C115 C 0.67909 0.27215 0.31694 0.0
C116 C 0.65621 0.22335 0.29468 0.0
C117 C 0.70001 0.27781 0.29723 0.0
C118 C 0.65726 0.24465 0.31581 0.0
N119 N 0.69632 0.21948 0.23416 0.0
C120 C 0.69165 0.20451 0.21036 0.0
C121 C 0.65352 0.18383 0.25008 0.0
C122 C 0.67647 0.21081 0.25324 0.0
C123 C 0.65099 0.16643 0.22649 0.0
C124 C 0.66969 0.17725 0.20634 0.0
H125 H 0.6412 0.2402 0.33118 0.0
H126 H 0.61805 0.18965 0.30728 0.0
H127 H 0.61561 0.15502 0.26813 0.0
O128 O 0.70287 0.27585 0.22724 0.0
O129 O 0.74064 0.24912 0.28063 0.0
O130 O 0.7517 0.20801 0.26505 0.0
O131 O 0.73888 0.31077 0.24316 0.0
O132 O 0.75039 0.23783 0.21102 0.0
O133 O 0.75912 0.20517 0.23251 0.0
O134 O 0.79718 0.23281 0.29584 0.0
O135 O 0.81184 0.27257 0.23539 0.0
O136 O 0.77326 0.27585 0.21665 0.0
O137 O 0.825 0.21331 0.27203 0.0
O138 O 0.80496 0.27854 0.27286 0.0
O139 O 0.76535 0.29399 0.27321 0.0
C140 C 0.73806 0.22147 0.2818 0.0
C141 C 0.72013 0.31938 0.20764 0.0
C142 C 0.7013 0.34292 0.1799 0.0
C143 C 0.72606 0.34676 0.16398 0.0
C144 C 0.74434 0.32291 0.19121 0.0
C145 C 0.74737 0.3368 0.16964 0.0
C146 C 0.69864 0.32938 0.20193 0.0
C147 C 0.75553 0.21302 0.21117 0.0
C148 C 0.71659 0.30424 0.23018 0.0
C149 C 0.63438 0.19567 0.2923 0.0
C150 C 0.63309 0.17589 0.27006 0.0
C151 C 0.80068 0.28259 0.21913 0.0
C152 C 0.80645 0.1929 0.30989 0.0
C153 C 0.82045 0.15897 0.3307 0.0
C154 C 0.79207 0.14594 0.33924 0.0
C155 C 0.77815 0.17936 0.31838 0.0
C156 C 0.82747 0.1824 0.31592 0.0
C157 C 0.77106 0.156 0.33296 0.0
C158 C 0.79083 0.29725 0.28012 0.0
C159 C 0.81454 0.21796 0.29485 0.0
H160 H 0.72899 0.35756 0.14714 0.0
H161 H 0.76079 0.31479 0.19497 0.0
H162 H 0.76623 0.33968 0.15718 0.0
H163 H 0.67962 0.32596 0.2143 0.0
H164 H 0.78611 0.12777 0.35056 0.0
H165 H 0.76155 0.18684 0.31385 0.0
H166 H 0.84936 0.19284 0.30948 0.0
H167 H 0.74922 0.14572 0.33947 0.0
Eu168 Eu 0.76727 0.72574 0.2747 0.0
C169 C 0.836 0.79015 0.19076 0.0
N170 N 0.82683 0.80108 0.21379 0.0
C171 C 0.87479 0.83168 0.22243 0.0
C172 C 0.86522 0.79847 0.18349 0.0
C173 C 0.84568 0.82315 0.22872 0.0
C174 C 0.88466 0.81885 0.19999 0.0
C175 C 0.8251 0.76106 0.14946 0.0
C176 C 0.81616 0.77169 0.17371 0.0
C177 C 0.85418 0.76846 0.14272 0.0
C178 C 0.87416 0.78706 0.15968 0.0
Eu179 Eu 0.77669 0.78366 0.22177 0.0
N180 N 0.78806 0.76387 0.18089 0.0
C181 C 0.80449 0.74338 0.13263 0.0
C182 C 0.76787 0.74778 0.16425 0.0
C183 C 0.77575 0.737 0.13997 0.0
H184 H 0.8387 0.83518 0.24517 0.0
H185 H 0.75968 0.72379 0.12695 0.0
H186 H 0.69969 0.68262 0.25917 0.0
H187 H 0.80741 0.77827 0.36695 0.0
H188 H 0.74575 0.74326 0.16983 0.0
H189 H 0.81055 0.73484 0.11384 0.0
H190 H 0.81066 0.76159 0.32112 0.0
H191 H 0.88958 0.84868 0.23467 0.0
H192 H 0.86144 0.76026 0.12428 0.0
H193 H 0.89652 0.79305 0.15396 0.0
H194 H 0.65206 0.66786 0.27969 0.0
H195 H 0.90724 0.8258 0.19506 0.0
H196 H 0.76058 0.76596 0.39021 0.0
N197 N 0.71983 0.70948 0.29193 0.0
C198 C 0.71654 0.71715 0.31735 0.0
C199 C 0.66995 0.68212 0.29041 0.0
C200 C 0.68945 0.70853 0.32997 0.0
C201 C 0.69716 0.69116 0.27866 0.0
C202 C 0.66601 0.69111 0.31609 0.0
N203 N 0.76628 0.74233 0.31829 0.0
C204 C 0.79018 0.75747 0.33097 0.0
C205 C 0.7375 0.7424 0.35709 0.0
C206 C 0.74037 0.7339 0.33085 0.0
C207 C 0.7619 0.75905 0.37005 0.0
C208 C 0.78838 0.76632 0.35696 0.0
H209 H 0.64488 0.68399 0.32512 0.0
H210 H 0.66587 0.71093 0.36596 0.0
H211 H 0.70788 0.74061 0.38966 0.0
O212 O 0.79028 0.70677 0.29598 0.0
O213 O 0.74577 0.76075 0.28702 0.0
O214 O 0.74918 0.79193 0.25645 0.0
O215 O 0.75919 0.67777 0.26922 0.0
O216 O 0.80694 0.76545 0.26999 0.0
O217 O 0.79496 0.80384 0.25973 0.0
O218 O 0.74808 0.79419 0.19878 0.0
O219 O 0.78497 0.73983 0.21035 0.0
O220 O 0.80456 0.73601 0.24559 0.0
O221 O 0.78768 0.82802 0.21148 0.0
O222 O 0.73468 0.74832 0.23024 0.0
O223 O 0.74382 0.70749 0.23877 0.0
C224 C 0.74012 0.78236 0.27867 0.0
C225 C 0.78269 0.65366 0.29218 0.0
C226 C 0.80837 0.63185 0.31518 0.0
C227 C 0.79002 0.60342 0.30651 0.0
C228 C 0.76484 0.62496 0.28352 0.0
C229 C 0.76855 0.60004 0.29065 0.0
C230 C 0.80476 0.657 0.30784 0.0
C231 C 0.80714 0.79297 0.27443 0.0
C232 C 0.77715 0.6798 0.28587 0.0
C233 C 0.68655 0.71727 0.35603 0.0
C234 C 0.71048 0.73415 0.36954 0.0
C235 C 0.80141 0.72975 0.22114 0.0
C236 C 0.76065 0.84394 0.18548 0.0
C237 C 0.73115 0.86041 0.1619 0.0
C238 C 0.75441 0.88608 0.15808 0.0
C239 C 0.78353 0.86993 0.18154 0.0
C240 C 0.73426 0.83935 0.1758 0.0
C241 C 0.78036 0.89084 0.16797 0.0
C242 C 0.73035 0.71968 0.22645 0.0
C243 C 0.76531 0.82143 0.19859 0.0
H244 H 0.79248 0.58377 0.31188 0.0
H245 H 0.74768 0.62173 0.27155 0.0
H246 H 0.75457 0.57802 0.284 0.0
H247 H 0.81867 0.67899 0.31476 0.0
H248 H 0.75239 0.90262 0.14758 0.0
H249 H 0.8041 0.87397 0.18863 0.0
H250 H 0.71645 0.81938 0.17859 0.0
H251 H 0.79814 0.91071 0.16495 0.0
Eu252 Eu 0.23442 0.76684 0.23766 0.0
C253 C 0.27706 0.73737 0.32854 0.0
N254 N 0.29358 0.75479 0.31141 0.0
C255 C 0.31605 0.79181 0.34502 0.0
C256 C 0.27824 0.74725 0.35469 0.0
C257 C 0.31424 0.78081 0.31932 0.0
C258 C 0.29745 0.7753 0.36277 0.0
C259 C 0.24545 0.68872 0.33722 0.0
C260 C 0.26102 0.70855 0.32 0.0
C261 C 0.24508 0.69896 0.36319 0.0
C262 C 0.26141 0.72822 0.37191 0.0
Eu263 Eu 0.28746 0.73576 0.26806 0.0
N264 N 0.26211 0.69937 0.29484 0.0
C265 C 0.23164 0.65897 0.32787 0.0
C266 C 0.25036 0.66999 0.28577 0.0
C267 C 0.23454 0.64946 0.30208 0.0
H268 H 0.3293 0.79321 0.30576 0.0
H269 H 0.22447 0.62638 0.29474 0.0
H270 H 0.22433 0.72892 0.18027 0.0
H271 H 0.27193 0.8878 0.26448 0.0
H272 H 0.2523 0.66281 0.26574 0.0
H273 H 0.21939 0.64304 0.34048 0.0
H274 H 0.24594 0.83583 0.27092 0.0
H275 H 0.33196 0.81287 0.35112 0.0
H276 H 0.23314 0.68415 0.37674 0.0
H277 H 0.26178 0.73551 0.39206 0.0
H278 H 0.23752 0.73775 0.13557 0.0
H279 H 0.29905 0.78374 0.38268 0.0
H280 H 0.29357 0.90017 0.22228 0.0
N281 N 0.24583 0.7737 0.19486 0.0
C282 C 0.25996 0.8019 0.18978 0.0
C283 C 0.24417 0.75593 0.15063 0.0
C284 C 0.26808 0.80801 0.1647 0.0
C285 C 0.2368 0.75095 0.17584 0.0
C286 C 0.26024 0.78452 0.14505 0.0
N287 N 0.25553 0.81822 0.23345 0.0
C288 C 0.25641 0.84058 0.25268 0.0
C289 C 0.27963 0.85436 0.20496 0.0
C290 C 0.26551 0.82474 0.20971 0.0
C291 C 0.28282 0.87714 0.22514 0.0
C292 C 0.27067 0.87024 0.24899 0.0
H293 H 0.26606 0.78831 0.12552 0.0
H294 H 0.29012 0.84239 0.14094 0.0
H295 H 0.30036 0.88299 0.1762 0.0
O296 O 0.2011 0.78481 0.23366 0.0
O297 O 0.273 0.76089 0.21421 0.0
O298 O 0.30672 0.77256 0.24322 0.0
O299 O 0.19121 0.7374 0.23028 0.0
O300 O 0.25168 0.7903 0.27585 0.0
O301 O 0.2959 0.78568 0.27195 0.0
O302 O 0.30626 0.70233 0.2521 0.0
O303 O 0.23965 0.71717 0.2748 0.0
O304 O 0.22596 0.7579 0.27858 0.0
O305 O 0.33085 0.74062 0.27611 0.0
O306 O 0.27059 0.71094 0.22986 0.0
O307 O 0.22704 0.71742 0.23033 0.0
C308 C 0.29948 0.77261 0.22043 0.0
C309 C 0.1578 0.75681 0.25191 0.0
C310 C 0.14313 0.76706 0.2961 0.0
C311 C 0.1146 0.75308 0.2899 0.0
C312 C 0.12944 0.74288 0.24592 0.0
C313 C 0.1079 0.74091 0.26497 0.0
C314 C 0.16444 0.76816 0.27692 0.0
C315 C 0.27833 0.79967 0.28185 0.0
C316 C 0.18103 0.75901 0.23269 0.0
C317 C 0.28331 0.83729 0.16005 0.0
C318 C 0.28918 0.8604 0.18014 0.0
C319 C 0.22317 0.73207 0.28523 0.0
C320 C 0.35431 0.72388 0.23977 0.0
C321 C 0.36875 0.71986 0.19489 0.0
C322 C 0.39733 0.73056 0.20126 0.0
C323 C 0.38279 0.73443 0.24585 0.0
C324 C 0.34763 0.71826 0.21432 0.0
C325 C 0.40423 0.73829 0.2266 0.0
C326 C 0.24496 0.70348 0.22141 0.0
C327 C 0.33138 0.7181 0.25968 0.0
H328 H 0.09745 0.75218 0.30406 0.0
H329 H 0.12403 0.73361 0.22667 0.0
H330 H 0.08593 0.73029 0.26036 0.0
H331 H 0.18647 0.77823 0.2813 0.0
H332 H 0.41433 0.73185 0.18688 0.0
H333 H 0.38839 0.73941 0.26541 0.0
H334 H 0.32569 0.71146 0.20958 0.0
H335 H 0.42623 0.74628 0.23133 0.0
Eu336 Eu 0.23815 0.77574 0.7502 0.0
C337 C 0.34127 0.74393 0.70536 0.0
N338 N 0.31598 0.72499 0.71351 0.0
C339 C 0.3139 0.69259 0.67456 0.0
C340 C 0.35311 0.73867 0.68084 0.0
C341 C 0.30333 0.69857 0.69919 0.0
C342 C 0.33859 0.71305 0.66512 0.0
C343 C 0.38337 0.7867 0.715 0.0
C344 C 0.35623 0.76768 0.72215 0.0
C345 C 0.39463 0.78238 0.69021 0.0
C346 C 0.37948 0.75848 0.67313 0.0
Eu347 Eu 0.2985 0.73892 0.7546 0.0
N348 N 0.34438 0.77191 0.7457 0.0
C349 C 0.39837 0.80942 0.73305 0.0
C350 C 0.3593 0.7931 0.76375 0.0
C351 C 0.38642 0.81238 0.75763 0.0
H352 H 0.28527 0.6818 0.70679 0.0
H353 H 0.39801 0.82957 0.77181 0.0
H354 H 0.23364 0.81193 0.80753 0.0
H355 H 0.15452 0.68762 0.69775 0.0
H356 H 0.34994 0.79538 0.7827 0.0
H357 H 0.41928 0.82452 0.7283 0.0
H358 H 0.1993 0.72963 0.70246 0.0
H359 H 0.30325 0.67198 0.66303 0.0
H360 H 0.41522 0.7971 0.68419 0.0
H361 H 0.38871 0.75501 0.65424 0.0
H362 H 0.20021 0.8073 0.84526 0.0
H363 H 0.34692 0.70822 0.64613 0.0
H364 H 0.12165 0.67429 0.73505 0.0
N365 N 0.20726 0.77298 0.78651 0.0
C366 C 0.18178 0.7508 0.78531 0.0
C367 C 0.19485 0.79117 0.82859 0.0
C368 C 0.16215 0.74716 0.80634 0.0
C369 C 0.21373 0.79371 0.80731 0.0
C370 C 0.16908 0.76758 0.82822 0.0
N371 N 0.19402 0.73738 0.74252 0.0
C372 C 0.1861 0.7229 0.71912 0.0
C373 C 0.14873 0.70905 0.76088 0.0
C374 C 0.17524 0.73203 0.76284 0.0
C375 C 0.14178 0.69216 0.73735 0.0
C376 C 0.16031 0.69954 0.71627 0.0
H377 H 0.15457 0.76554 0.84478 0.0
H378 H 0.12111 0.72 0.82088 0.0
H379 H 0.10933 0.68663 0.78105 0.0
O380 O 0.20912 0.79237 0.73446 0.0
O381 O 0.23821 0.75141 0.78307 0.0
O382 O 0.25271 0.71281 0.76486 0.0
O383 O 0.24723 0.82337 0.75097 0.0
O384 O 0.247 0.74525 0.71602 0.0
O385 O 0.25959 0.71059 0.73276 0.0
O386 O 0.31145 0.73224 0.79012 0.0
O387 O 0.30892 0.78462 0.74216 0.0
O388 O 0.27187 0.77879 0.71857 0.0
O389 O 0.31797 0.70515 0.7558 0.0
O390 O 0.29264 0.77083 0.7887 0.0
O391 O 0.2745 0.804 0.77511 0.0
C392 C 0.23634 0.7235 0.7812 0.0
C393 C 0.23085 0.83656 0.71632 0.0
C394 C 0.21489 0.86358 0.68978 0.0
C395 C 0.24052 0.86876 0.6751 0.0
C396 C 0.25624 0.84149 0.70127 0.0
C397 C 0.26099 0.85751 0.68073 0.0
C398 C 0.21006 0.84729 0.71029 0.0
C399 C 0.24863 0.71846 0.71488 0.0
C400 C 0.22547 0.81996 0.73813 0.0
C401 C 0.1363 0.72346 0.8048 0.0
C402 C 0.12964 0.70439 0.78214 0.0
C403 C 0.2991 0.78906 0.72203 0.0
C404 C 0.30971 0.68381 0.79371 0.0
C405 C 0.3208 0.64858 0.81516 0.0
C406 C 0.29173 0.63526 0.82137 0.0
C407 C 0.28076 0.67015 0.79985 0.0
C408 C 0.32962 0.67283 0.80117 0.0
C409 C 0.27184 0.64593 0.8136 0.0
C410 C 0.288 0.79644 0.79139 0.0
C411 C 0.31962 0.71003 0.7802 0.0
H412 H 0.24455 0.88126 0.65917 0.0
H413 H 0.27239 0.83308 0.70543 0.0
H414 H 0.2806 0.86132 0.66921 0.0
H415 H 0.19035 0.84337 0.72175 0.0
H416 H 0.2844 0.61648 0.83207 0.0
H417 H 0.26517 0.67838 0.7942 0.0
H418 H 0.35202 0.68362 0.79662 0.0
H419 H 0.24948 0.63552 0.81838 0.0
Eu420 Eu 0.26131 0.21903 0.78044 0.0
C421 C 0.32035 0.30511 0.68933 0.0
N422 N 0.30537 0.31201 0.71051 0.0
C423 C 0.34029 0.36076 0.71695 0.0
C424 C 0.34674 0.32542 0.68189 0.0
C425 C 0.31403 0.34013 0.72329 0.0
C426 C 0.35704 0.35313 0.69651 0.0
C427 C 0.3213 0.27294 0.64996 0.0
C428 C 0.30791 0.27904 0.67358 0.0
C429 C 0.3485 0.29201 0.64343 0.0
C430 C 0.36124 0.31816 0.65941 0.0
Eu431 Eu 0.26256 0.27388 0.7206 0.0
N432 N 0.28153 0.26107 0.68024 0.0
C433 C 0.30626 0.24884 0.63302 0.0
C434 C 0.26583 0.23932 0.66299 0.0
C435 C 0.27808 0.23253 0.63927 0.0
H436 H 0.30082 0.3466 0.73867 0.0
H437 H 0.26585 0.21461 0.62593 0.0
H438 H 0.21772 0.14706 0.76459 0.0
H439 H 0.26332 0.28834 0.87114 0.0
H440 H 0.24412 0.22676 0.66786 0.0
H441 H 0.31574 0.24353 0.61465 0.0
H442 H 0.28261 0.27209 0.82947 0.0
H443 H 0.34745 0.38265 0.72765 0.0
H444 H 0.35933 0.28742 0.62556 0.0
H445 H 0.38171 0.3333 0.65361 0.0
H446 H 0.17097 0.11425 0.77866 0.0
H447 H 0.37721 0.36932 0.69142 0.0
H448 H 0.21485 0.2597 0.88631 0.0
N449 N 0.21723 0.1838 0.79226 0.0
C450 C 0.20462 0.19241 0.8144 0.0
C451 C 0.17992 0.13638 0.78859 0.0
C452 C 0.17824 0.17365 0.82365 0.0
C453 C 0.20623 0.15539 0.78038 0.0
C454 C 0.16556 0.14578 0.81 0.0
N455 N 0.24485 0.23643 0.82035 0.0
C456 C 0.26128 0.26011 0.83565 0.0
C457 C 0.20728 0.22707 0.85294 0.0
C458 C 0.219 0.21898 0.829 0.0
C459 C 0.22316 0.25276 0.86788 0.0
C460 C 0.25048 0.26906 0.85936 0.0
H461 H 0.14534 0.13081 0.81651 0.0
H462 H 0.14551 0.16857 0.85395 0.0
H463 H 0.17092 0.21529 0.87953 0.0
O464 O 0.29942 0.22711 0.80071 0.0
O465 O 0.24031 0.25546 0.78954 0.0
O466 O 0.24568 0.28875 0.75958 0.0
O467 O 0.26871 0.18298 0.79512 0.0
O468 O 0.2927 0.2562 0.76096 0.0
O469 O 0.28891 0.29878 0.75378 0.0
O470 O 0.22279 0.26192 0.7023 0.0
O471 O 0.28225 0.23683 0.70962 0.0
O472 O 0.28397 0.2094 0.7423 0.0
O473 O 0.2498 0.30759 0.70699 0.0
O474 O 0.23453 0.23562 0.74063 0.0
O475 O 0.23601 0.19243 0.74734 0.0
C476 C 0.23657 0.27872 0.78176 0.0
C477 C 0.31626 0.18659 0.79571 0.0
C478 C 0.35499 0.17254 0.80736 0.0
C479 C 0.35772 0.15971 0.78223 0.0
C480 C 0.31889 0.17301 0.77097 0.0
C481 C 0.33981 0.16006 0.76419 0.0
C482 C 0.33438 0.18644 0.81383 0.0
C483 C 0.2983 0.28462 0.76769 0.0
C484 C 0.29355 0.19922 0.80312 0.0
C485 C 0.16589 0.18259 0.84677 0.0
C486 C 0.18039 0.20916 0.86139 0.0
C487 C 0.28973 0.21671 0.71885 0.0
C488 C 0.20062 0.2981 0.70859 0.0
C489 C 0.16459 0.31795 0.69973 0.0
C490 C 0.15478 0.31762 0.72531 0.0
C491 C 0.19 0.29722 0.73378 0.0
C492 C 0.18773 0.30812 0.69157 0.0
C493 C 0.16731 0.30713 0.74211 0.0
C494 C 0.22766 0.20711 0.73326 0.0
C495 C 0.22535 0.28902 0.69993 0.0
H496 H 0.37297 0.14838 0.77667 0.0
H497 H 0.30441 0.17194 0.75701 0.0
H498 H 0.34169 0.1496 0.74505 0.0
H499 H 0.33202 0.19665 0.83301 0.0
H500 H 0.13759 0.32575 0.7325 0.0
H501 H 0.19919 0.28893 0.74701 0.0
H502 H 0.19563 0.30793 0.67198 0.0
H503 H 0.15949 0.3068 0.76169 0.0
Eu504 Eu 0.73454 0.27246 0.74196 0.0
C505 C 0.77767 0.22502 0.82211 0.0
N506 N 0.79282 0.24726 0.80831 0.0
C507 C 0.81181 0.27834 0.84612 0.0
C508 C 0.77778 0.22918 0.84871 0.0
C509 C 0.81123 0.2729 0.81976 0.0
C510 C 0.79449 0.25663 0.86072 0.0
C511 C 0.74944 0.17305 0.8229 0.0
C512 C 0.76383 0.19733 0.80945 0.0
C513 C 0.74813 0.17744 0.84945 0.0
C514 C 0.76224 0.20548 0.86234 0.0
Eu515 Eu 0.78836 0.23701 0.76392 0.0
N516 N 0.7653 0.19393 0.78383 0.0
C517 C 0.73734 0.14501 0.80922 0.0
C518 C 0.75477 0.16649 0.77032 0.0
C519 C 0.74038 0.14165 0.78281 0.0
H520 H 0.82579 0.28906 0.80856 0.0
H521 H 0.73148 0.12 0.77208 0.0
H522 H 0.72069 0.23936 0.68333 0.0
H523 H 0.77744 0.3919 0.77522 0.0
H524 H 0.75689 0.16405 0.7499 0.0
H525 H 0.72607 0.12578 0.81885 0.0
H526 H 0.7496 0.33965 0.77913 0.0
H527 H 0.82589 0.29908 0.85513 0.0
H528 H 0.73691 0.15915 0.86016 0.0
H529 H 0.76179 0.20834 0.8828 0.0
H530 H 0.73265 0.25165 0.63938 0.0
H531 H 0.79519 0.26075 0.88112 0.0
H532 H 0.79819 0.40698 0.7335 0.0
N533 N 0.74426 0.28272 0.69979 0.0
C534 C 0.75934 0.31122 0.69611 0.0
C535 C 0.74046 0.26854 0.65515 0.0
C536 C 0.76691 0.3192 0.6715 0.0
C537 C 0.73373 0.26163 0.67993 0.0
C538 C 0.75749 0.29735 0.6509 0.0
N539 N 0.75727 0.3243 0.74048 0.0
C540 C 0.75965 0.34548 0.76098 0.0
C541 C 0.78177 0.36241 0.71383 0.0
C542 C 0.76659 0.33249 0.71708 0.0
C543 C 0.78659 0.38378 0.73518 0.0
C544 C 0.77496 0.37535 0.75877 0.0
H545 H 0.76285 0.30261 0.63168 0.0
H546 H 0.78971 0.35515 0.6495 0.0
H547 H 0.80275 0.39302 0.68657 0.0
O548 O 0.70231 0.29303 0.74158 0.0
O549 O 0.77133 0.26661 0.71555 0.0
O550 O 0.80574 0.27756 0.74324 0.0
O551 O 0.69033 0.24533 0.73592 0.0
O552 O 0.75335 0.29228 0.7804 0.0
O553 O 0.79716 0.28688 0.77286 0.0
O554 O 0.81133 0.21228 0.73886 0.0
O555 O 0.74097 0.21757 0.77272 0.0
O556 O 0.72758 0.2586 0.78143 0.0
O557 O 0.83019 0.23821 0.773 0.0
O558 O 0.76788 0.21399 0.72655 0.0
O559 O 0.72522 0.22319 0.73012 0.0
C560 C 0.79811 0.27794 0.72077 0.0
C561 C 0.65977 0.26576 0.76131 0.0
C562 C 0.649 0.27488 0.80653 0.0
C563 C 0.61984 0.26266 0.8021 0.0
C564 C 0.63082 0.25358 0.75707 0.0
C565 C 0.6109 0.25186 0.77751 0.0
C566 C 0.66863 0.27554 0.78595 0.0
C567 C 0.78029 0.30045 0.78525 0.0
C568 C 0.68138 0.26787 0.74059 0.0
C569 C 0.78326 0.34867 0.66826 0.0
C570 C 0.79075 0.37021 0.68938 0.0
C571 C 0.72499 0.23175 0.78558 0.0
C572 C 0.85903 0.24151 0.73498 0.0
C573 C 0.88103 0.24507 0.6925 0.0
C574 C 0.89624 0.2752 0.69935 0.0
C575 C 0.87471 0.27167 0.74191 0.0
C576 C 0.86305 0.22833 0.71051 0.0
C577 C 0.89349 0.28826 0.72418 0.0
C578 C 0.74174 0.20809 0.71977 0.0
C579 C 0.83465 0.22501 0.75074 0.0
H580 H 0.60392 0.26218 0.81739 0.0
H581 H 0.62369 0.24549 0.73809 0.0
H582 H 0.58847 0.24261 0.77427 0.0
H583 H 0.69109 0.28416 0.78893 0.0
H584 H 0.91011 0.2885 0.68557 0.0
H585 H 0.87167 0.28274 0.76058 0.0
H586 H 0.85047 0.2053 0.70492 0.0
H587 H 0.90515 0.31155 0.72947 0.0
Eu588 Eu 0.73902 0.75053 0.72441 0.0
C589 C 0.81654 0.81955 0.8181 0.0
N590 N 0.82464 0.80755 0.79521 0.0
C591 C 0.86809 0.84883 0.79444 0.0
C592 C 0.83392 0.84711 0.8299 0.0
C593 C 0.85026 0.82136 0.78356 0.0
C594 C 0.85982 0.86187 0.81764 0.0
C595 C 0.78224 0.8156 0.85396 0.0
C596 C 0.79095 0.80401 0.83001 0.0
C597 C 0.79937 0.8432 0.86561 0.0
C598 C 0.8251 0.85892 0.8536 0.0
Eu599 Eu 0.79288 0.76124 0.7786 0.0
N600 N 0.77439 0.7777 0.81803 0.0
C601 C 0.75658 0.79904 0.86553 0.0
C602 C 0.75003 0.76087 0.82964 0.0
C603 C 0.74054 0.77144 0.85339 0.0
H604 H 0.85727 0.81097 0.76608 0.0
H605 H 0.72093 0.75824 0.86237 0.0
H606 H 0.67619 0.69792 0.73701 0.0
H607 H 0.81145 0.75708 0.64073 0.0
H608 H 0.73788 0.73941 0.82054 0.0
H609 H 0.74915 0.8072 0.88392 0.0
H610 H 0.79368 0.77466 0.68265 0.0
H611 H 0.88832 0.8598 0.78507 0.0
H612 H 0.79297 0.85252 0.88396 0.0
H613 H 0.83816 0.8801 0.8629 0.0
H614 H 0.64682 0.64853 0.71769 0.0
H615 H 0.87376 0.88309 0.82608 0.0
H616 H 0.78464 0.7078 0.61877 0.0
N617 N 0.7088 0.70334 0.70766 0.0
C618 C 0.71727 0.69215 0.68457 0.0
C619 C 0.6667 0.66046 0.70829 0.0
C620 C 0.70079 0.66423 0.67261 0.0
C621 C 0.68362 0.68829 0.71936 0.0
C622 C 0.67538 0.64828 0.68488 0.0
N623 N 0.75823 0.73533 0.68489 0.0
C624 C 0.78223 0.75301 0.67344 0.0
C625 C 0.75158 0.6979 0.64864 0.0
C626 C 0.74241 0.70878 0.67269 0.0
C627 C 0.77688 0.71539 0.63722 0.0
C628 C 0.79214 0.74317 0.6496 0.0
H629 H 0.66214 0.62676 0.67631 0.0
H630 H 0.69766 0.63177 0.63934 0.0
H631 H 0.74208 0.66123 0.61838 0.0
O632 O 0.7393 0.78692 0.70478 0.0
O633 O 0.76666 0.72065 0.71866 0.0
O634 O 0.80801 0.74612 0.73929 0.0
O635 O 0.70002 0.75102 0.71021 0.0
O636 O 0.77575 0.79404 0.73251 0.0
O637 O 0.81354 0.78359 0.74404 0.0
O638 O 0.79052 0.72511 0.79941 0.0
O639 O 0.76567 0.79159 0.78413 0.0
O640 O 0.72422 0.76586 0.76378 0.0
O641 O 0.83127 0.75802 0.79184 0.0
O642 O 0.75655 0.718 0.76909 0.0
O643 O 0.71838 0.72848 0.75918 0.0
C644 C 0.79362 0.72558 0.72195 0.0
C645 C 0.69733 0.7986 0.71019 0.0
C646 C 0.6699 0.82771 0.69979 0.0
C647 C 0.6704 0.84083 0.72514 0.0
C648 C 0.69788 0.81222 0.73524 0.0
C649 C 0.68428 0.83305 0.74272 0.0
C650 C 0.68325 0.80627 0.69249 0.0
C651 C 0.8031 0.79838 0.73142 0.0
C652 C 0.71196 0.77691 0.70236 0.0
C653 C 0.71002 0.65321 0.64877 0.0
C654 C 0.73532 0.67 0.63681 0.0
C655 C 0.73865 0.78653 0.78101 0.0
C656 C 0.82979 0.70889 0.79216 0.0
C657 C 0.85579 0.67753 0.80082 0.0
C658 C 0.85099 0.66224 0.77627 0.0
C659 C 0.82486 0.69302 0.76795 0.0
C660 C 0.84535 0.7012 0.80857 0.0
C661 C 0.83565 0.67002 0.75997 0.0
C662 C 0.72931 0.71392 0.77153 0.0
C663 C 0.81794 0.73279 0.8005 0.0
H664 H 0.65999 0.85708 0.73139 0.0
H665 H 0.70901 0.80691 0.74893 0.0
H666 H 0.68468 0.84335 0.76215 0.0
H667 H 0.68332 0.79613 0.673 0.0
H668 H 0.85914 0.64425 0.76966 0.0
H669 H 0.81238 0.69821 0.75535 0.0
H670 H 0.84865 0.71308 0.82748 0.0
H671 H 0.8319 0.65802 0.74117 0.0
C672 C 0.95522 0.07252 0.51318 0.0
C673 C 0.99078 0.0466 0.44492 0.0
C674 C 0.97283 0.94245 0.48005 0.0
Mg675 Mg 1.01503 0.06982 0.49723 0.0
O676 O 0.99812 0.03268 0.50852 0.0
Mg677 Mg 0.9619 0.00588 0.49326 0.0
Mg678 Mg 0.02009 0.00502 0.50234 0.0
O679 O 0.04194 0.97723 0.49608 0.0
Mg680 Mg 0.02532 0.9397 0.507 0.0
Mg681 Mg 0.07817 0.00412 0.51111 0.0
C682 C 0.06778 0.06772 0.52392 0.0
C683 C 0.07134 0.02821 0.45943 0.0
O684 O 0.94428 0.04423 0.50728 0.0
O685 O 0.98202 0.08641 0.51212 0.0
O686 O 0.97267 0.02486 0.45502 0.0
O687 O 1.0111 0.06556 0.45728 0.0
O688 O 0.0557 0.08318 0.51483 0.0
O689 O 0.05642 0.03939 0.5235 0.0
C690 C 0.96851 0.98125 0.54489 0.0
O691 O 0.99487 0.98554 0.5384 0.0
O692 O 0.9526 0.98771 0.53119 0.0
O693 O 0.09588 0.96612 0.49656 0.0
O694 O 0.05873 0.92342 0.49182 0.0
O695 O 0.06679 0.98523 0.54931 0.0
C696 C 0.08543 0.93787 0.49037 0.0
O697 O 0.02847 0.94428 0.54716 0.0
O698 O 0.98489 0.92678 0.48891 0.0
C699 C 0.0485 0.96371 0.55955 0.0
O700 O 0.98398 0.97083 0.48111 0.0
O701 O 0.04512 0.02432 0.46621 0.0
O702 O 0.0874 0.02193 0.47307 0.0
C703 C 0.45534 0.0682 0.05973 0.0
C704 C 0.48438 0.0692 0.98099 0.0
C705 C 0.46482 0.95267 0.97748 0.0
Mg706 Mg 0.51295 0.07189 0.02978 0.0
O707 O 0.49719 0.03023 0.02779 0.0
Mg708 Mg 0.45825 0.01076 0.01445 0.0
Mg709 Mg 0.51694 0.00457 0.00627 0.0
O710 O 0.53654 0.97851 0.98501 0.0
Mg711 Mg 0.52082 0.937 0.98411 0.0
Mg712 Mg 0.57556 0.99793 0.99792 0.0
C713 C 0.56917 0.05618 0.03516 0.0
C714 C 0.56227 0.04266 0.96518 0.0
O715 O 0.44348 0.04346 0.04582 0.0
O716 O 0.48215 0.08226 0.0577 0.0
O717 O 0.46653 0.04441 0.98636 0.0
O718 O 0.50549 0.08368 0.99449 0.0
O719 O 0.55635 0.07545 0.03758 0.0
O720 O 0.55697 0.02871 0.0268 0.0
C721 C 0.47087 0.96477 0.04585 0.0
O722 O 0.49627 0.97144 0.03571 0.0
O723 O 0.45327 0.97683 0.04105 0.0
O724 O 0.59003 0.96481 0.96692 0.0
O725 O 0.55114 0.92575 0.9562 0.0
O726 O 0.56826 0.96499 0.02669 0.0
C727 C 0.57791 0.93975 0.95357 0.0
O728 O 0.5288 0.926 0.01966 0.0
O729 O 0.47764 0.93348 0.97587 0.0
C730 C 0.55044 0.94039 0.03256 0.0
O731 O 0.47694 0.9803 0.98547 0.0
O732 O 0.53756 0.03772 0.9766 0.0
O733 O 0.57945 0.03002 0.9699 0.0
C734 C 0.96128 0.57476 0.04939 0.0
C735 C 0.9862 0.56714 0.9697 0.0
C736 C 0.96579 0.45124 0.97477 0.0
Mg737 Mg 0.01721 0.57445 0.01833 0.0
O738 O 1.00078 0.53339 0.01974 0.0
Mg739 Mg 0.96122 0.51329 0.00818 0.0
Mg740 Mg 0.01924 0.50507 0.00093 0.0
O741 O 0.03783 0.4769 0.98202 0.0
Mg742 Mg 0.02159 0.43592 0.98344 0.0
Mg743 Mg 0.07744 0.49716 0.99341 0.0
C744 C 0.07306 0.55905 0.02632 0.0
C745 C 0.0631 0.53706 0.95662 0.0
O746 O 0.94852 0.54903 0.03733 0.0
O747 O 0.98803 0.58825 0.04584 0.0
O748 O 0.96825 0.54325 0.97686 0.0
O749 O 1.00811 0.58226 0.98205 0.0
O750 O 0.06056 0.57829 0.0265 0.0
O751 O 0.06043 0.53103 0.02014 0.0
C752 C 0.975 0.47315 0.04507 0.0
O753 O 0.99942 0.4765 0.03354 0.0
O754 O 0.9578 0.48481 0.03876 0.0
O755 O 0.09043 0.46144 0.96471 0.0
O756 O 0.05094 0.42231 0.95591 0.0
O757 O 0.07056 0.46742 0.02485 0.0
C758 C 0.07773 0.43576 0.95259 0.0
O759 O 0.03037 0.42875 0.02013 0.0
O760 O 0.97852 0.43219 0.97464 0.0
C761 C 0.05245 0.44381 0.03231 0.0
O762 O 0.97813 0.47922 0.98148 0.0
O763 O 0.03888 0.53352 0.96851 0.0
O764 O 0.08065 0.52552 0.96247 0.0
C765 C 0.44185 0.55644 0.00957 0.0
C766 C 0.48544 0.5403 0.94164 0.0
C767 C 0.47286 0.43463 0.97102 0.0
Mg768 Mg 0.50445 0.56118 0.99568 0.0
O769 O 0.48975 0.52251 0.00425 0.0
Mg770 Mg 0.45583 0.49411 0.98642 0.0
Mg771 Mg 0.51493 0.4982 0.99786 0.0
O772 O 0.53984 0.47348 0.99179 0.0
Mg773 Mg 0.52407 0.4353 0.00175 0.0
Mg774 Mg 0.57318 0.50183 0.01042 0.0
C775 C 0.55671 0.56175 0.02462 0.0
C776 C 0.56836 0.52871 0.95939 0.0
O777 O 0.43353 0.52833 0.00213 0.0
O778 O 0.46807 0.5728 0.00963 0.0
O779 O 0.46766 0.51713 0.95008 0.0
O780 O 0.5042 0.55941 0.95553 0.0
O781 O 0.54378 0.57655 0.01573 0.0
O782 O 0.54734 0.53322 0.02234 0.0
C783 C 0.46222 0.4666 0.03638 0.0
O784 O 0.48916 0.47469 0.0315 0.0
O785 O 0.4457 0.47175 0.02242 0.0
O786 O 0.59522 0.46728 0.99634 0.0
O787 O 0.56059 0.42274 0.98973 0.0
O788 O 0.56012 0.47957 0.04712 0.0
C789 C 0.58687 0.43902 0.98985 0.0
O790 O 0.52242 0.43833 0.04238 0.0
O791 O 0.48547 0.41987 0.98043 0.0
C792 C 0.54156 0.45721 0.05607 0.0
O793 O 0.48217 0.46318 0.97338 0.0
O794 O 0.54142 0.52196 0.96421 0.0
O795 O 0.58409 0.52292 0.97377 0.0
C796 C 0.95196 0.56735 0.55227 0.0
C797 C 0.97953 0.56737 0.47351 0.0
C798 C 0.96331 0.45206 0.47053 0.0
Mg799 Mg 1.00939 0.57116 0.52203 0.0
O800 O 0.99402 0.52964 0.52126 0.0
Mg801 Mg 0.95517 0.50945 0.50781 0.0
Mg802 Mg 1.01445 0.50383 0.50097 0.0
O803 O 0.03452 0.47777 0.48049 0.0
Mg804 Mg 0.01854 0.43623 0.47924 0.0
Mg805 Mg 0.07308 0.49736 0.49422 0.0
C806 C 0.06565 0.55628 0.53005 0.0
C807 C 0.06093 0.54181 0.46049 0.0
O808 O 0.93994 0.54229 0.53881 0.0
O809 O 0.97871 0.58148 0.54977 0.0
O810 O 0.9624 0.54237 0.47913 0.0
O811 O 1.00073 0.58246 0.48676 0.0
O812 O 0.05265 0.57523 0.53091 0.0
O813 O 0.0539 0.52849 0.52233 0.0
C814 C 0.96772 0.4643 0.54051 0.0
O815 O 0.99329 0.47102 0.53078 0.0
O816 O 0.95024 0.47611 0.53502 0.0
O817 O 0.08838 0.464 0.46381 0.0
O818 O 0.0498 0.42483 0.45257 0.0
O819 O 0.06439 0.46457 0.52332 0.0
C820 C 0.07662 0.43879 0.45048 0.0
O821 O 0.02506 0.42557 0.51533 0.0
O822 O 0.97591 0.4327 0.46913 0.0
C823 C 0.04614 0.44005 0.52889 0.0
O824 O 0.9751 0.47938 0.4795 0.0
O825 O 0.03583 0.53654 0.47118 0.0
O826 O 0.07799 0.52942 0.46596 0.0
C827 C 0.45334 0.06608 0.54713 0.0
C828 C 0.48225 0.06711 0.46902 0.0
C829 C 0.46265 0.94972 0.46582 0.0
Mg830 Mg 0.51079 0.06873 0.51747 0.0
O831 O 0.49454 0.02737 0.5163 0.0
Mg832 Mg 0.45578 0.00824 0.50245 0.0
Mg833 Mg 0.51452 1.00139 0.49593 0.0
O834 O 0.53416 0.97497 0.47557 0.0
Mg835 Mg 0.51779 0.93354 0.47498 0.0
Mg836 Mg 0.57297 0.99437 0.48887 0.0
C837 C 0.56663 0.0536 0.52513 0.0
C838 C 0.56016 0.03824 0.45514 0.0
O839 O 0.44114 0.04103 0.53376 0.0
O840 O 0.48013 0.07997 0.54465 0.0
O841 O 0.46387 0.04248 0.47427 0.0
O842 O 0.50391 0.08038 0.48214 0.0
O843 O 0.55373 0.07263 0.52634 0.0
O844 O 0.55464 0.02586 0.51729 0.0
C845 C 0.4677 0.96245 0.53481 0.0
O846 O 0.49335 0.96903 0.52543 0.0
O847 O 0.45038 0.97441 0.5292 0.0
O848 O 0.58732 0.96058 0.45865 0.0
O849 O 0.54836 0.92161 0.44794 0.0
O850 O 0.56458 0.96197 0.51819 0.0
C851 C 0.57519 0.93536 0.44554 0.0
O852 O 0.52492 0.92313 0.51114 0.0
O853 O 0.47519 0.93039 0.46505 0.0
C854 C 0.54639 0.93766 0.52425 0.0
O855 O 0.47473 0.97732 0.4741 0.0
O856 O 0.5355 0.03356 0.46643 0.0
O857 O 0.57742 0.02584 0.4601 0.0
C858 C 0.2194 0.16179 0.29017 0.0
C859 C 0.21153 0.18545 0.28513 0.0
C860 C 0.20209 0.14156 0.30606 0.0
C861 C 0.1301 0.1114 0.33527 0.0
H862 H 0.16946 0.10154 0.38989 0.0
C863 C 0.0712 0.05656 0.42369 0.0
C864 C 0.08422 0.0413 0.43585 0.0
C865 C 0.08514 0.07167 0.40321 0.0
C866 C 0.15809 0.10345 0.37453 0.0
H867 H 0.17839 0.20524 0.29128 0.0
H868 H 0.14787 0.1695 0.31871 0.0
H869 H 0.19616 0.13144 0.35727 0.0
H870 H 0.12138 0.028 0.43457 0.0
H871 H 0.14505 0.05305 0.39843 0.0
H872 H 0.09199 0.08317 0.35242 0.0
C873 C 0.16758 0.16682 0.31057 0.0
C874 C 0.17346 0.12074 0.35586 0.0
C875 C 0.18506 0.18727 0.29487 0.0
C876 C 0.11085 0.04003 0.42605 0.0
C877 C 0.12458 0.05464 0.40536 0.0
C878 C 0.11468 0.09373 0.35384 0.0
C879 C 0.17631 0.14427 0.31689 0.0
C880 C 0.15967 0.12496 0.33606 0.0
C881 C 0.11233 0.07142 0.39409 0.0
C882 C 0.12849 0.08954 0.37377 0.0
H883 H 0.23945 0.15954 0.28256 0.0
H884 H 0.20913 0.1241 0.31029 0.0
H885 H 0.11895 0.11423 0.32015 0.0
H886 H 0.05069 0.05772 0.43044 0.0
H887 H 0.07497 0.08439 0.39518 0.0
C888 C 0.84468 0.14542 0.36296 0.0
C889 C 0.8427 0.1484 0.33765 0.0
C890 C 0.86539 0.13521 0.36966 0.0
C891 C 0.92242 0.13079 0.37907 0.0
H892 H 0.92762 0.05563 0.34562 0.0
C893 C 0.99805 0.0824 0.41362 0.0
C894 C 0.98372 0.05409 0.42114 0.0
C895 C 0.98578 0.09377 0.39721 0.0
C896 C 0.9266 0.07679 0.35494 0.0
H897 H 0.86062 0.14289 0.29946 0.0
H898 H 0.89666 0.12433 0.31118 0.0
H899 H 0.89569 0.07705 0.33031 0.0
H900 H 0.9472 0.01401 0.41443 0.0
H901 H 0.92607 0.03377 0.38567 0.0
H902 H 0.95256 0.13033 0.40413 0.0
C903 C 0.88228 0.13017 0.32579 0.0
C904 C 0.90845 0.08908 0.34614 0.0
C905 C 0.86182 0.14091 0.31912 0.0
C906 C 0.95872 0.03603 0.40929 0.0
C907 C 0.94656 0.04735 0.39275 0.0
C908 C 0.9408 0.11877 0.38763 0.0
C909 C 0.8843 0.12733 0.35115 0.0
C910 C 0.90572 0.11585 0.35851 0.0
C911 C 0.95916 0.07693 0.38771 0.0
C912 C 0.94271 0.09135 0.376 0.0
H913 H 0.83031 0.15121 0.37761 0.0
H914 H 0.86633 0.133 0.38932 0.0
H915 H 0.92085 0.15155 0.38885 0.0
H916 H 0.01751 0.09685 0.42208 0.0
H917 H 0.99627 0.11644 0.39322 0.0
C918 C 0.8464 0.80883 0.30371 0.0
C919 C 0.82245 0.81275 0.29572 0.0
C920 C 0.8582 0.82444 0.32624 0.0
C921 C 0.87078 0.89014 0.36954 0.0
H922 H 0.8693 0.84108 0.42087 0.0
C923 C 0.93045 0.94262 0.45929 0.0
C924 C 0.94683 0.92693 0.46615 0.0
C925 C 0.90886 0.92873 0.44259 0.0
C926 C 0.87007 0.85514 0.40674 0.0
H927 H 0.79343 0.83769 0.30347 0.0
H928 H 0.81498 0.86602 0.34263 0.0
H929 H 0.847 0.81804 0.38125 0.0
H930 H 0.95215 0.88378 0.46208 0.0
H931 H 0.91576 0.86007 0.43221 0.0
H932 H 0.89603 0.92701 0.39379 0.0
C933 C 0.82399 0.85027 0.33176 0.0
C934 C 0.85707 0.84192 0.38418 0.0
C935 C 0.81186 0.83425 0.3094 0.0
C936 C 0.93997 0.89658 0.45722 0.0
C937 C 0.91882 0.88286 0.44014 0.0
C938 C 0.8845 0.90335 0.39185 0.0
C939 C 0.84666 0.84475 0.34063 0.0
C940 C 0.85784 0.85926 0.36528 0.0
C941 C 0.90361 0.89903 0.43197 0.0
C942 C 0.88495 0.88587 0.41045 0.0
H943 H 0.85513 0.79266 0.29318 0.0
H944 H 0.87599 0.82029 0.3327 0.0
H945 H 0.87158 0.90381 0.35506 0.0
H946 H 0.93483 0.96587 0.46599 0.0
H947 H 0.89706 0.94165 0.43727 0.0
C948 C 0.17471 0.80834 0.32518 0.0
C949 C 0.15097 0.78216 0.32192 0.0
C950 C 0.18078 0.82419 0.34901 0.0
C951 C 0.15678 0.82537 0.41731 0.0
H952 H 0.16485 0.90656 0.41034 0.0
C953 C 0.09423 0.89015 0.47671 0.0
C954 C 0.10466 0.92134 0.48032 0.0
C955 C 0.11105 0.87431 0.46413 0.0
C956 C 0.16352 0.88433 0.41293 0.0
H957 H 0.11655 0.75092 0.34177 0.0
H958 H 0.12567 0.78002 0.3831 0.0
H959 H 0.17452 0.87471 0.37406 0.0
H960 H 0.14172 0.9604 0.47561 0.0
H961 H 0.17115 0.93255 0.45333 0.0
H962 H 0.14346 0.83477 0.45597 0.0
C963 C 0.14011 0.78779 0.36724 0.0
C964 C 0.16906 0.86591 0.392 0.0
C965 C 0.13443 0.77144 0.34341 0.0
C966 C 0.133 0.93635 0.47284 0.0
C967 C 0.14986 0.92045 0.46016 0.0
C968 C 0.15115 0.84386 0.43831 0.0
C969 C 0.16273 0.81494 0.3701 0.0
C970 C 0.16432 0.8358 0.39364 0.0
C971 C 0.13865 0.88935 0.45487 0.0
C972 C 0.153 0.87301 0.4359 0.0
H973 H 0.18796 0.81769 0.30924 0.0
H974 H 0.19871 0.84469 0.35065 0.0
H975 H 0.15355 0.80245 0.41926 0.0
H976 H 0.0726 0.8779 0.48261 0.0
H977 H 0.10161 0.8504 0.46005 0.0
C978 C 0.16681 0.85655 0.67596 0.0
C979 C 0.19344 0.87565 0.68385 0.0
C980 C 0.14733 0.86813 0.66863 0.0
C981 C 0.14609 0.93541 0.64501 0.0
H982 H 0.06447 0.89879 0.65363 0.0
C983 C 0.0753 0.97975 0.59894 0.0
C984 C 0.05469 0.95779 0.58423 0.0
C985 C 0.08788 0.97206 0.6176 0.0
C986 C 0.08722 0.90929 0.6511 0.0
H987 H 0.22026 0.9215 0.69173 0.0
H988 H 0.18599 0.94194 0.6799 0.0
H989 H 0.09557 0.88039 0.67347 0.0
H990 H 0.02887 0.91109 0.57954 0.0
H991 H 0.05123 0.8976 0.61159 0.0
H992 H 0.13808 0.96365 0.62211 0.0
C993 C 0.18034 0.91804 0.67847 0.0
C994 C 0.10505 0.89868 0.66239 0.0
C995 C 0.19993 0.90643 0.68535 0.0
C996 C 0.04475 0.92858 0.59047 0.0
C997 C 0.05761 0.92081 0.60893 0.0
C998 C 0.12836 0.94599 0.63381 0.0
C999 C 0.15405 0.89904 0.66942 0.0
C1000 C 0.13474 0.91141 0.65921 0.0
C1001 C 0.08039 0.9422 0.62174 0.0
C1002 C 0.0987 0.93289 0.63641 0.0
H1003 H 0.1615 0.83268 0.67464 0.0
H1004 H 0.12749 0.85281 0.66148 0.0
H1005 H 0.1688 0.94537 0.64161 0.0
H1006 H 0.08316 1.00255 0.59485 0.0
H1007 H 0.10474 0.98927 0.6277 0.0
C1008 C 0.22673 0.17085 0.69477 0.0
C1009 C 0.21686 0.1929 0.70842 0.0
C1010 C 0.21695 0.15766 0.67094 0.0
C1011 C 0.17279 0.12108 0.63154 0.0
H1012 H 0.17392 0.17021 0.5804 0.0
C1013 C 0.10149 0.11401 0.5456 0.0
C1014 C 0.09429 0.0835 0.53709 0.0
C1015 C 0.12345 0.12811 0.56188 0.0
C1016 C 0.17334 0.15617 0.59448 0.0
H1017 H 0.18554 0.21457 0.71013 0.0
H1018 H 0.1693 0.19262 0.66773 0.0
H1019 H 0.19732 0.19322 0.61981 0.0
H1020 H 0.10655 0.0447 0.53701 0.0
H1021 H 0.14561 0.0695 0.56429 0.0
H1022 H 0.14711 0.08434 0.60758 0.0
C1023 C 0.18573 0.18681 0.67494 0.0
C1024 C 0.18683 0.16935 0.61691 0.0
C1025 C 0.19526 0.19965 0.69892 0.0
C1026 C 0.11112 0.06803 0.54345 0.0
C1027 C 0.13349 0.08228 0.55931 0.0
C1028 C 0.15883 0.10795 0.60938 0.0
C1029 C 0.19684 0.16606 0.66068 0.0
C1030 C 0.186 0.15194 0.63579 0.0
C1031 C 0.13907 0.11214 0.56967 0.0
C1032 C 0.15823 0.12543 0.59086 0.0
H1033 H 0.24229 0.16407 0.70235 0.0
H1034 H 0.22523 0.14113 0.66045 0.0
H1035 H 0.17186 0.10733 0.64599 0.0
H1036 H 0.08903 0.12667 0.54105 0.0
H1037 H 0.12682 0.15103 0.56959 0.0
C1038 C 0.88593 0.20282 0.66239 0.0
C1039 C 0.88209 0.23052 0.66644 0.0
C1040 C 0.88215 0.18609 0.6388 0.0
C1041 C 0.88691 0.19117 0.57245 0.0
H1042 H 0.85841 0.1057 0.57261 0.0
C1043 C 0.90681 0.07696 0.52157 0.0
C1044 C 0.93648 0.09024 0.52074 0.0
C1045 C 0.88953 0.09415 0.52984 0.0
C1046 C 0.86556 0.12937 0.5716 0.0
H1047 H 0.87215 0.26311 0.64909 0.0
H1048 H 0.86627 0.23381 0.60699 0.0
H1049 H 0.8462 0.13738 0.60806 0.0
H1050 H 0.97126 0.13219 0.52635 0.0
H1051 H 0.94165 0.16152 0.54158 0.0
H1052 H 0.90728 0.18319 0.53643 0.0
C1053 C 0.87178 0.22503 0.62235 0.0
C1054 C 0.85883 0.14758 0.59214 0.0
C1055 C 0.8755 0.24187 0.64621 0.0
C1056 C 0.94848 0.12111 0.52702 0.0
C1057 C 0.93135 0.13814 0.53532 0.0
C1058 C 0.89317 0.17291 0.55161 0.0
C1059 C 0.87444 0.19668 0.61867 0.0
C1060 C 0.87165 0.17858 0.59369 0.0
C1061 C 0.9017 0.12482 0.53747 0.0
C1062 C 0.88484 0.14205 0.55221 0.0
H1063 H 0.89119 0.19377 0.67774 0.0
H1064 H 0.88544 0.16483 0.6363 0.0
H1065 H 0.89667 0.21503 0.57299 0.0
H1066 H 0.89694 0.05326 0.51642 0.0
H1067 H 0.86675 0.08328 0.53119 0.0
C1068 C 0.81292 0.8393 0.70437 0.0
C1069 C 0.82283 0.82088 0.716 0.0
C1070 C 0.83109 0.85908 0.68849 0.0
C1071 C 0.89863 0.87237 0.64934 0.0
H1072 H 0.89027 0.94852 0.64645 0.0
C1073 C 0.97013 0.95615 0.58252 0.0
C1074 C 0.9552 0.96712 0.568 0.0
C1075 C 0.95638 0.94047 0.6028 0.0
C1076 C 0.89283 0.9273 0.647 0.0
H1077 H 0.85984 0.809 0.72 0.0
H1078 H 0.89166 0.84408 0.69301 0.0
H1079 H 0.86181 0.91715 0.67775 0.0
H1080 H 0.91419 0.97134 0.56446 0.0
H1081 H 0.89059 0.94462 0.59977 0.0
H1082 H 0.92962 0.88262 0.61845 0.0
C1083 C 0.86972 0.84296 0.69585 0.0
C1084 C 0.87643 0.90922 0.66489 0.0
C1085 C 0.8515 0.82307 0.71163 0.0
C1086 C 0.92649 0.96314 0.57502 0.0
C1087 C 0.91289 0.94789 0.59541 0.0
C1088 C 0.9152 0.89057 0.63156 0.0
C1089 C 0.85972 0.86107 0.68387 0.0
C1090 C 0.87872 0.88127 0.66603 0.0
C1091 C 0.92751 0.93597 0.60933 0.0
C1092 C 0.91212 0.91801 0.62989 0.0
H1093 H 0.79095 0.83812 0.70716 0.0
H1094 H 0.82245 0.87227 0.67931 0.0
H1095 H 0.90078 0.85087 0.64939 0.0
H1096 H 0.99229 0.95928 0.57807 0.0
H1097 H 0.96833 0.93185 0.61336 0.0
C1098 C 0.31433 0.18347 0.21834 0.0
C1099 C 0.3068 0.20529 0.2091 0.0
C1100 C 0.32981 0.16759 0.2028 0.0
C1101 C 0.34819 0.14618 0.13534 0.0
H1102 H 0.40977 0.13099 0.16204 0.0
C1103 C 0.40772 0.07148 0.0772 0.0
C1104 C 0.43746 0.08171 0.07813 0.0
C1105 C 0.39123 0.08545 0.0936 0.0
C1106 C 0.3927 0.1351 0.15422 0.0
H1107 H 0.31112 0.22834 0.17655 0.0
H1108 H 0.33704 0.20021 0.14936 0.0
H1109 H 0.38242 0.15769 0.18954 0.0
H1110 H 0.47296 0.11449 0.09761 0.0
H1111 H 0.4443 0.13858 0.12612 0.0
H1112 H 0.35873 0.124 0.09993 0.0
C1113 C 0.33063 0.19495 0.16847 0.0
C1114 C 0.37681 0.15018 0.1701 0.0
C1115 C 0.31554 0.21104 0.18408 0.0
C1116 C 0.45015 0.10593 0.09625 0.0
C1117 C 0.43366 0.1197 0.11277 0.0
C1118 C 0.36395 0.13092 0.11951 0.0
C1119 C 0.33799 0.17297 0.17757 0.0
C1120 C 0.35443 0.15609 0.16085 0.0
C1121 C 0.40397 0.10984 0.11156 0.0
C1122 C 0.38655 0.1253 0.12868 0.0
H1123 H 0.30815 0.17851 0.23755 0.0
H1124 H 0.335 0.15075 0.21046 0.0
H1125 H 0.33096 0.15009 0.12759 0.0
H1126 H 0.39715 0.05298 0.0635 0.0
H1127 H 0.36842 0.07702 0.09227 0.0
C1128 C 0.82082 0.3306 0.20148 0.0
C1129 C 0.82041 0.30157 0.20168 0.0
C1130 C 0.84007 0.34887 0.1852 0.0
C1131 C 0.90764 0.35888 0.1473 0.0
H1132 H 0.88038 0.4076 0.11259 0.0
C1133 C 0.96937 0.42808 0.06574 0.0
C1134 C 0.96559 0.45563 0.06645 0.0
C1135 C 0.95487 0.40911 0.08376 0.0
C1136 C 0.88842 0.39437 0.12235 0.0
H1137 H 0.83885 0.26831 0.185 0.0
H1138 H 0.87289 0.3003 0.1566 0.0
H1139 H 0.8478 0.37434 0.14039 0.0
H1140 H 0.94633 0.48636 0.08767 0.0
H1141 H 0.92171 0.4538 0.1192 0.0
H1142 H 0.94838 0.37906 0.12887 0.0
C1143 C 0.85873 0.30919 0.16921 0.0
C1144 C 0.86973 0.37533 0.13829 0.0
C1145 C 0.83936 0.29092 0.18544 0.0
C1146 C 0.94919 0.46498 0.08649 0.0
C1147 C 0.935 0.44631 0.10446 0.0
C1148 C 0.92643 0.37802 0.13122 0.0
C1149 C 0.85922 0.33835 0.16886 0.0
C1150 C 0.87917 0.35767 0.15122 0.0
C1151 C 0.9366 0.41767 0.10263 0.0
C1152 C 0.91705 0.39628 0.11893 0.0
H1153 H 0.80659 0.3393 0.21419 0.0
H1154 H 0.84019 0.37138 0.18563 0.0
H1155 H 0.91552 0.34558 0.1571 0.0
H1156 H 0.98183 0.42038 0.05036 0.0
H1157 H 0.95655 0.38716 0.082 0.0
C1158 C 0.70331 0.85741 0.12523 0.0
C1159 C 0.70397 0.85633 0.15114 0.0
C1160 C 0.67932 0.85897 0.11543 0.0
C1161 C 0.62228 0.88877 0.13457 0.0
H1162 H 0.59749 0.85321 0.06738 0.0
C1163 C 0.57802 0.94453 0.06992 0.0
C1164 C 0.55744 0.92692 0.0529 0.0
C1165 C 0.58899 0.9314 0.08588 0.0
C1166 C 0.60371 0.86295 0.08637 0.0
H1167 H 0.67983 0.85469 0.18704 0.0
H1168 H 0.63764 0.8577 0.16992 0.0
H1169 H 0.62928 0.83574 0.08706 0.0
H1170 H 0.53094 0.8818 0.04045 0.0
H1171 H 0.55022 0.85883 0.06839 0.0
H1172 H 0.59756 0.91674 0.13349 0.0
C1173 C 0.65571 0.85727 0.15719 0.0
C1174 C 0.62213 0.85311 0.09754 0.0
C1175 C 0.67968 0.85531 0.16695 0.0
C1176 C 0.54675 0.896 0.05336 0.0
C1177 C 0.55795 0.88281 0.06921 0.0
C1178 C 0.60399 0.89873 0.12333 0.0
C1179 C 0.65556 0.85983 0.13141 0.0
C1180 C 0.63225 0.86647 0.12146 0.0
C1181 C 0.57978 0.90034 0.08511 0.0
C1182 C 0.59512 0.8865 0.09882 0.0
H1183 H 0.72186 0.85829 0.11271 0.0
H1184 H 0.68005 0.86123 0.09556 0.0
H1185 H 0.62987 0.8997 0.15293 0.0
H1186 H 0.58665 0.96843 0.07011 0.0
H1187 H 0.60593 0.94556 0.09772 0.0
C1188 C 0.20698 0.66465 0.19731 0.0
C1189 C 0.23602 0.68064 0.19942 0.0
C1190 C 0.19675 0.6486 0.1744 0.0
C1191 C 0.18705 0.65109 0.11917 0.0
H1192 H 0.18849 0.57525 0.08409 0.0
C1193 C 0.11928 0.5994 0.03495 0.0
C1194 C 0.10183 0.56976 0.03608 0.0
C1195 C 0.14331 0.6119 0.04915 0.0
C1196 C 0.18806 0.59655 0.09357 0.0
H1197 H 0.27744 0.69087 0.1797 0.0
H1198 H 0.2593 0.66219 0.1392 0.0
H1199 H 0.21631 0.59785 0.12164 0.0
H1200 H 0.09721 0.5292 0.05121 0.0
H1201 H 0.13861 0.55125 0.07674 0.0
H1202 H 0.15784 0.64958 0.09259 0.0
C1203 C 0.24466 0.66216 0.15551 0.0
C1204 C 0.20415 0.60951 0.11488 0.0
C1205 C 0.25501 0.67836 0.17864 0.0
C1206 C 0.11026 0.55213 0.04997 0.0
C1207 C 0.1341 0.5648 0.06457 0.0
C1208 C 0.17115 0.63832 0.098 0.0
C1209 C 0.21532 0.6481 0.1531 0.0
C1210 C 0.20308 0.6365 0.12817 0.0
C1211 C 0.15012 0.59525 0.06527 0.0
C1212 C 0.17081 0.6105 0.08523 0.0
H1213 H 0.19189 0.66597 0.21302 0.0
H1214 H 0.17406 0.63786 0.17293 0.0
H1215 H 0.18585 0.67188 0.12925 0.0
H1216 H 0.11357 0.6134 0.02405 0.0
H1217 H 0.15564 0.63515 0.04857 0.0
C1218 C 0.29914 0.84693 0.817 0.0
C1219 C 0.29745 0.81701 0.81469 0.0
C1220 C 0.30909 0.86623 0.83892 0.0
C1221 C 0.32384 0.86728 0.90562 0.0
H1222 H 0.3873 0.93852 0.89457 0.0
C1223 C 0.41999 0.91211 0.96523 0.0
C1224 C 0.43599 0.94254 0.96808 0.0
C1225 C 0.39543 0.90146 0.95179 0.0
C1226 C 0.36913 0.9192 0.8982 0.0
H1227 H 0.3039 0.78369 0.83399 0.0
H1228 H 0.32123 0.81712 0.87179 0.0
H1229 H 0.35791 0.91065 0.85965 0.0
H1230 H 0.43752 0.98602 0.96091 0.0
H1231 H 0.3945 0.96728 0.93718 0.0
H1232 H 0.33605 0.87492 0.94382 0.0
C1233 C 0.31473 0.82575 0.85686 0.0
C1234 C 0.3523 0.90318 0.87813 0.0
C1235 C 0.3051 0.80663 0.83499 0.0
C1236 C 0.42569 0.96242 0.95894 0.0
C1237 C 0.40116 0.95169 0.94523 0.0
C1238 C 0.34063 0.88329 0.92567 0.0
C1239 C 0.31713 0.85582 0.85902 0.0
C1240 C 0.33034 0.8763 0.88136 0.0
C1241 C 0.38636 0.92098 0.94076 0.0
C1242 C 0.36428 0.90864 0.92187 0.0
H1243 H 0.29331 0.85557 0.80172 0.0
H1244 H 0.31073 0.88931 0.84007 0.0
H1245 H 0.30665 0.84696 0.90877 0.0
H1246 H 0.42722 0.89628 0.9723 0.0
H1247 H 0.38472 0.87766 0.94856 0.0
C1248 C 0.22556 0.32552 0.79777 0.0
C1249 C 0.22121 0.29554 0.79956 0.0
C1250 C 0.21045 0.34106 0.8141 0.0
C1251 C 0.14657 0.3287 0.85954 0.0
H1252 H 0.18045 0.4135 0.87875 0.0
C1253 C 0.08092 0.39623 0.91711 0.0
C1254 C 0.09456 0.42089 0.9344 0.0
C1255 C 0.09657 0.3817 0.9004 0.0
C1256 C 0.17068 0.38975 0.87395 0.0
H1257 H 0.19606 0.25811 0.81882 0.0
H1258 H 0.17181 0.2854 0.84875 0.0
H1259 H 0.20758 0.38679 0.85164 0.0
H1260 H 0.1356 0.44954 0.94754 0.0
H1261 H 0.16279 0.42364 0.91923 0.0
H1262 H 0.11035 0.33126 0.88301 0.0
C1263 C 0.18649 0.29709 0.83455 0.0
C1264 C 0.18617 0.3744 0.85789 0.0
C1265 C 0.20113 0.28148 0.81784 0.0
C1266 C 0.12435 0.43072 0.93442 0.0
C1267 C 0.14 0.41589 0.91796 0.0
C1268 C 0.13131 0.34392 0.87596 0.0
C1269 C 0.19073 0.32714 0.83288 0.0
C1270 C 0.17434 0.34361 0.85031 0.0
C1271 C 0.12637 0.39104 0.90071 0.0
C1272 C 0.14299 0.37476 0.88334 0.0
H1273 H 0.24058 0.33702 0.78364 0.0
H1274 H 0.21398 0.36387 0.81163 0.0
H1275 H 0.13629 0.30518 0.85394 0.0
H1276 H 0.05804 0.38816 0.91634 0.0
H1277 H 0.08515 0.36323 0.88708 0.0
C1278 C 0.69251 0.18499 0.80075 0.0
C1279 C 0.70288 0.21617 0.80386 0.0
C1280 C 0.67444 0.16957 0.81925 0.0
C1281 C 0.62182 0.16728 0.86964 0.0
H1282 H 0.65484 0.11724 0.89641 0.0
C1283 C 0.56689 0.09034 0.94863 0.0
C1284 C 0.57198 0.06319 0.94574 0.0
C1285 C 0.58054 0.11145 0.93197 0.0
C1286 C 0.6451 0.13082 0.88901 0.0
H1287 H 0.70088 0.25577 0.82797 0.0
H1288 H 0.66816 0.22841 0.86039 0.0
H1289 H 0.68254 0.15039 0.86625 0.0
H1290 H 0.5932 0.03575 0.92211 0.0
H1291 H 0.61592 0.07166 0.8928 0.0
H1292 H 0.5838 0.1466 0.89171 0.0
C1293 C 0.67459 0.21613 0.84364 0.0
C1294 C 0.66113 0.15 0.87192 0.0
C1295 C 0.69319 0.2317 0.82513 0.0
C1296 C 0.58928 0.05672 0.92506 0.0
C1297 C 0.6025 0.07745 0.90837 0.0
C1298 C 0.60551 0.14768 0.88667 0.0
C1299 C 0.66576 0.18494 0.84109 0.0
C1300 C 0.64949 0.16793 0.86166 0.0
C1301 C 0.59927 0.10555 0.91213 0.0
C1302 C 0.61677 0.12862 0.89601 0.0
H1303 H 0.69891 0.17241 0.78421 0.0
H1304 H 0.66767 0.14551 0.81676 0.0
H1305 H 0.61244 0.18092 0.86187 0.0
H1306 H 0.55374 0.09592 0.96449 0.0
H1307 H 0.57748 0.13283 0.93533 0.0
C1308 C 0.89264 0.68909 0.83279 0.0
C1309 C 0.87113 0.66814 0.81828 0.0
C1310 C 0.90797 0.67976 0.84812 0.0
C1311 C 0.92546 0.61313 0.85616 0.0
H1312 H 0.94701 0.65495 0.9226 0.0
C1313 C 0.95756 0.56105 0.93255 0.0
C1314 C 0.97942 0.57903 0.94822 0.0
C1315 C 0.94794 0.57319 0.91482 0.0
C1316 C 0.94152 0.6433 0.90392 0.0
H1317 H 0.84781 0.62116 0.80949 0.0
H1318 H 0.87404 0.60494 0.83642 0.0
H1319 H 0.9222 0.67399 0.89629 0.0
H1320 H 1.00919 0.62368 0.95671 0.0
H1321 H 0.99225 0.64491 0.92567 0.0
H1322 H 0.94406 0.58201 0.8641 0.0
C1323 C 0.87983 0.62851 0.8354 0.0
C1324 C 0.92728 0.65419 0.88883 0.0
C1325 C 0.86469 0.6378 0.82002 0.0
C1326 C 0.99233 0.60919 0.94492 0.0
C1327 C 0.98248 0.62143 0.92732 0.0
C1328 C 0.9395 0.60217 0.87128 0.0
C1329 C 0.90197 0.6493 0.84935 0.0
C1330 C 0.91867 0.63896 0.86492 0.0
C1331 C 0.95981 0.60365 0.91243 0.0
C1332 C 0.94735 0.61689 0.89546 0.0
H1333 H 0.89813 0.71262 0.83175 0.0
H1334 H 0.92497 0.69639 0.8585 0.0
H1335 H 0.9198 0.60122 0.8376 0.0
H1336 H 0.94717 0.53771 0.93454 0.0
H1337 H 0.93032 0.55894 0.90375 0.0
C1338 C 0.13162 0.34879 0.20124 0.0
C1339 C 0.14046 0.32444 0.19173 0.0
C1340 C 0.12062 0.362 0.18535 0.0
C1341 C 0.08946 0.3482 0.12279 0.0
H1342 H 0.10651 0.43356 0.13323 0.0
C1343 C 0.04058 0.40564 0.06252 0.0
C1344 C 0.05893 0.4323 0.05422 0.0
C1345 C 0.04859 0.39312 0.0811 0.0
C1346 C 0.10165 0.40971 0.12991 0.0
H1347 H 0.14469 0.29502 0.15781 0.0
H1348 H 0.12664 0.3188 0.12994 0.0
H1349 H 0.12577 0.41055 0.16071 0.0
H1350 H 0.09969 0.46724 0.05976 0.0
H1351 H 0.11378 0.44524 0.09149 0.0
H1352 H 0.06646 0.34756 0.09123 0.0
C1353 C 0.12759 0.32729 0.14985 0.0
C1354 C 0.11242 0.39642 0.14592 0.0
C1355 C 0.13838 0.31391 0.16579 0.0
C1356 C 0.08495 0.44669 0.06565 0.0
C1357 C 0.09301 0.43411 0.08404 0.0
C1358 C 0.07889 0.36153 0.10663 0.0
C1359 C 0.11839 0.35141 0.15944 0.0
C1360 C 0.10659 0.3655 0.14253 0.0
C1361 C 0.07518 0.4069 0.09173 0.0
C1362 C 0.08498 0.39249 0.10988 0.0
H1363 H 0.1333 0.35781 0.22101 0.0
H1364 H 0.11351 0.38032 0.19351 0.0
H1365 H 0.08414 0.32428 0.11981 0.0
H1366 H 0.02032 0.39401 0.05423 0.0
H1367 H 0.03407 0.37244 0.0869 0.0
C1368 C 0.20704 0.71718 0.82157 0.0
C1369 C 0.21613 0.70435 0.79852 0.0
C1370 C 0.18616 0.69979 0.83725 0.0
C1371 C 0.13124 0.62445 0.83816 0.0
H1372 H 0.13597 0.64575 0.91071 0.0
C1373 C 0.08611 0.54534 0.91397 0.0
C1374 C 0.07163 0.5549 0.93547 0.0
C1375 C 0.098 0.56378 0.89525 0.0
C1376 C 0.13409 0.63987 0.89048 0.0
H1377 H 0.2118 0.66301 0.77434 0.0
H1378 H 0.17665 0.63206 0.80256 0.0
H1379 H 0.17018 0.67721 0.88259 0.0
H1380 H 0.05723 0.59059 0.95403 0.0
H1381 H 0.07902 0.62356 0.92146 0.0
H1382 H 0.09625 0.58577 0.84653 0.0
C1383 C 0.18449 0.65587 0.80797 0.0
C1384 C 0.15368 0.6579 0.87428 0.0
C1385 C 0.20497 0.67349 0.79196 0.0
C1386 C 0.06809 0.5827 0.93748 0.0
C1387 C 0.08061 0.60152 0.91899 0.0
C1388 C 0.11201 0.60607 0.85443 0.0
C1389 C 0.17455 0.66886 0.83071 0.0
C1390 C 0.15275 0.65028 0.84787 0.0
C1391 C 0.09614 0.59237 0.89801 0.0
C1392 C 0.11349 0.61354 0.8807 0.0
H1393 H 0.21583 0.74085 0.8274 0.0
H1394 H 0.17893 0.7108 0.85435 0.0
H1395 H 0.12938 0.61818 0.81798 0.0
H1396 H 0.08899 0.5239 0.91203 0.0
H1397 H 0.11009 0.55638 0.87937 0.0
C1398 C 0.35952 0.16218 0.85088 0.0
C1399 C 0.37212 0.16926 0.82698 0.0
C1400 C 0.37447 0.15541 0.86822 0.0
C1401 C 0.44606 0.15729 0.88232 0.0
H1402 H 0.40197 0.0888 0.91584 0.0
C1403 C 0.48877 0.11313 0.95927 0.0
C1404 C 0.47842 0.08225 0.95995 0.0
C1405 C 0.47857 0.12564 0.94211 0.0
C1406 C 0.41471 0.10777 0.90644 0.0
H1407 H 0.41099 0.17671 0.80328 0.0
H1408 H 0.43673 0.16391 0.8332 0.0
H1409 H 0.37875 0.10842 0.88905 0.0
H1410 H 0.45133 0.04008 0.94171 0.0
H1411 H 0.4343 0.06172 0.91146 0.0
H1412 H 0.48225 0.15583 0.89923 0.0
C1413 C 0.41538 0.16385 0.83865 0.0
C1414 C 0.40125 0.11938 0.89141 0.0
C1415 C 0.40049 0.17083 0.82135 0.0
C1416 C 0.45938 0.06401 0.94194 0.0
C1417 C 0.44943 0.07643 0.92472 0.0
C1418 C 0.45959 0.14556 0.89737 0.0
C1419 C 0.40229 0.15532 0.86204 0.0
C1420 C 0.41673 0.14421 0.87907 0.0
C1421 C 0.45804 0.10743 0.92523 0.0
C1422 C 0.44408 0.12046 0.90939 0.0
H1423 H 0.33766 0.16055 0.85583 0.0
H1424 H 0.36393 0.1495 0.88627 0.0
H1425 H 0.45856 0.1766 0.87325 0.0
H1426 H 0.50346 0.12774 0.97293 0.0
H1427 H 0.48565 0.1496 0.94299 0.0
C1428 C 0.77755 0.32847 0.82842 0.0
C1429 C 0.79254 0.3252 0.80516 0.0
C1430 C 0.79186 0.34697 0.84921 0.0
C1431 C 0.86109 0.36735 0.87283 0.0
H1432 H 0.84417 0.42801 0.92145 0.0
C1433 C 0.92777 0.45895 0.95243 0.0
C1434 C 0.93742 0.44027 0.96406 0.0
C1435 C 0.90477 0.44679 0.93673 0.0
C1436 C 0.84898 0.41101 0.90802 0.0
H1437 H 0.83309 0.34102 0.78445 0.0
H1438 H 0.8579 0.37313 0.82051 0.0
H1439 H 0.81418 0.40498 0.88508 0.0
H1440 H 0.92846 0.39469 0.97071 0.0
H1441 H 0.88861 0.37374 0.94354 0.0
H1442 H 0.89553 0.37286 0.89538 0.0
C1443 C 0.83537 0.36116 0.82292 0.0
C1444 C 0.83185 0.39785 0.88734 0.0
C1445 C 0.82117 0.34285 0.80229 0.0
C1446 C 0.9219 0.40967 0.96171 0.0
C1447 C 0.89906 0.39762 0.94612 0.0
C1448 C 0.87772 0.37998 0.89355 0.0
C1449 C 0.82121 0.36238 0.84683 0.0
C1450 C 0.83807 0.37616 0.8694 0.0
C1451 C 0.89114 0.41584 0.93249 0.0
C1452 C 0.87202 0.40203 0.91133 0.0
H1453 H 0.75544 0.31504 0.83107 0.0
H1454 H 0.78049 0.34754 0.86747 0.0
H1455 H 0.86625 0.35054 0.85941 0.0
H1456 H 0.93927 0.48261 0.95387 0.0
H1457 H 0.89909 0.46135 0.92645 0.0
C1458 C 0.69332 0.79296 0.80084 0.0
C1459 C 0.72316 0.80332 0.7988 0.0
C1460 C 0.67851 0.80857 0.81738 0.0
C1461 C 0.68681 0.86637 0.87362 0.0
H1462 H 0.61646 0.86929 0.8528 0.0
C1463 C 0.62518 0.93845 0.93307 0.0
C1464 C 0.59538 0.9259 0.93499 0.0
C1465 C 0.64143 0.92456 0.91626 0.0
C1466 C 0.63591 0.8685 0.85909 0.0
H1467 H 0.76073 0.83858 0.81257 0.0
H1468 H 0.73497 0.8658 0.84148 0.0
H1469 H 0.64337 0.84324 0.82434 0.0
H1470 H 0.5595 0.88882 0.92029 0.0
H1471 H 0.58765 0.86474 0.89136 0.0
H1472 H 0.67927 0.89175 0.90839 0.0
C1473 C 0.72295 0.84534 0.8305 0.0
C1474 C 0.6514 0.85345 0.84271 0.0
C1475 C 0.73778 0.82971 0.81386 0.0
C1476 C 0.58235 0.89928 0.91941 0.0
C1477 C 0.59855 0.88549 0.90261 0.0
C1478 C 0.67132 0.88152 0.89 0.0
C1479 C 0.69305 0.83509 0.83241 0.0
C1480 C 0.67698 0.85193 0.84977 0.0
C1481 C 0.62835 0.89782 0.90082 0.0
C1482 C 0.64552 0.88261 0.88305 0.0
H1483 H 0.68127 0.7726 0.78971 0.0
H1484 H 0.65556 0.79957 0.81858 0.0
H1485 H 0.70619 0.86543 0.87993 0.0
H1486 H 0.63604 0.95889 0.94472 0.0
H1487 H 0.66428 0.93495 0.91524 0.0
C1488 C 0.80894 0.69983 0.18024 0.0
C1489 C 0.81703 0.71191 0.20497 0.0
C1490 C 0.82441 0.68464 0.16414 0.0
C1491 C 0.8941 0.67144 0.15673 0.0
H1492 H 0.85561 0.60945 0.10483 0.0
C1493 C 0.95685 0.61952 0.07807 0.0
C1494 C 0.94462 0.58959 0.06789 0.0
C1495 C 0.94123 0.63377 0.09513 0.0
C1496 C 0.86678 0.62637 0.11939 0.0
H1497 H 0.8471 0.71609 0.2326 0.0
H1498 H 0.87331 0.68818 0.20505 0.0
H1499 H 0.82856 0.63396 0.13439 0.0
H1500 H 0.90627 0.5511 0.06823 0.0
H1501 H 0.87938 0.5755 0.09855 0.0
H1502 H 0.9321 0.66276 0.14252 0.0
C1503 C 0.85565 0.69155 0.19759 0.0
C1504 C 0.85123 0.64095 0.1362 0.0
C1505 C 0.8404 0.70729 0.21359 0.0
C1506 C 0.91638 0.57421 0.0755 0.0
C1507 C 0.90084 0.58837 0.09284 0.0
C1508 C 0.90959 0.65652 0.14017 0.0
C1509 C 0.84806 0.68019 0.17249 0.0
C1510 C 0.86464 0.66392 0.15504 0.0
C1511 C 0.91297 0.61845 0.10287 0.0
C1512 C 0.89624 0.63388 0.12107 0.0
H1513 H 0.79062 0.70224 0.17316 0.0
H1514 H 0.81792 0.67681 0.14497 0.0
H1515 H 0.90545 0.6892 0.17063 0.0
H1516 H 0.97848 0.63221 0.0726 0.0
H1517 H 0.95132 0.65703 0.10188 0.0
C1518 C 0.34543 0.81178 0.21001 0.0
C1519 C 0.32129 0.78802 0.20189 0.0
C1520 C 0.36465 0.82819 0.19245 0.0
C1521 C 0.36641 0.84929 0.12969 0.0
H1522 H 0.44829 0.8761 0.13239 0.0
C1523 C 0.43638 0.91595 0.05384 0.0
C1524 C 0.45996 0.94046 0.06161 0.0
C1525 C 0.42233 0.89484 0.07006 0.0
C1526 C 0.42547 0.86904 0.13152 0.0
H1527 H 0.29955 0.76119 0.16911 0.0
H1528 H 0.33267 0.79021 0.13846 0.0
H1529 H 0.41825 0.84386 0.16276 0.0
H1530 H 0.48824 0.96188 0.09187 0.0
H1531 H 0.46304 0.92538 0.12091 0.0
H1532 H 0.37314 0.875 0.09926 0.0
C1533 C 0.33653 0.7965 0.15837 0.0
C1534 C 0.4083 0.85051 0.14886 0.0
C1535 C 0.31751 0.77998 0.17589 0.0
C1536 C 0.47017 0.94294 0.08549 0.0
C1537 C 0.45572 0.922 0.10203 0.0
C1538 C 0.38346 0.86796 0.11259 0.0
C1539 C 0.36002 0.82114 0.16649 0.0
C1540 C 0.37858 0.84035 0.14802 0.0
C1541 C 0.43106 0.89816 0.09475 0.0
C1542 C 0.41325 0.87798 0.11311 0.0
H1543 H 0.34893 0.8184 0.22996 0.0
H1544 H 0.38249 0.84712 0.19926 0.0
H1545 H 0.34357 0.84235 0.1289 0.0
H1546 H 0.42831 0.91359 0.03537 0.0
H1547 H 0.40405 0.87634 0.06342 0.0
C1548 C 0.73696 0.16048 0.19051 0.0
C1549 C 0.74895 0.19094 0.18842 0.0
C1550 C 0.72647 0.14012 0.16943 0.0
C1551 C 0.68396 0.10718 0.13083 0.0
H1552 H 0.70355 0.12419 0.06161 0.0
C1553 C 0.61522 0.09597 0.04564 0.0
C1554 C 0.59828 0.06582 0.04376 0.0
C1555 C 0.64064 0.106 0.05786 0.0
C1556 C 0.69814 0.11892 0.08082 0.0
H1557 H 0.76045 0.22396 0.16253 0.0
H1558 H 0.74042 0.18903 0.12621 0.0
H1559 H 0.73698 0.15061 0.09432 0.0
H1560 H 0.59553 0.02221 0.05164 0.0
H1561 H 0.63962 0.04002 0.07375 0.0
H1562 H 0.64509 0.07568 0.11724 0.0
C1563 C 0.74008 0.18033 0.1437 0.0
C1564 C 0.71708 0.13423 0.09964 0.0
C1565 C 0.75133 0.20054 0.16464 0.0
C1566 C 0.60816 0.04557 0.0528 0.0
C1567 C 0.63333 0.05571 0.06546 0.0
C1568 C 0.66543 0.09144 0.11194 0.0
C1569 C 0.72665 0.14991 0.14597 0.0
C1570 C 0.7097 0.12949 0.12512 0.0
C1571 C 0.64929 0.08614 0.06876 0.0
C1572 C 0.67186 0.09797 0.08699 0.0
H1573 H 0.73397 0.15249 0.20871 0.0
H1574 H 0.71695 0.11686 0.17191 0.0
H1575 H 0.67702 0.10309 0.15011 0.0
H1576 H 0.60823 0.11202 0.03864 0.0
H1577 H 0.65246 0.12962 0.06037 0.0
C1578 C 0.72141 0.67398 0.79902 0.0
C1579 C 0.7105 0.69186 0.78773 0.0
C1580 C 0.70448 0.65508 0.81608 0.0
C1581 C 0.63076 0.61633 0.83786 0.0
H1582 H 0.66513 0.61919 0.90004 0.0
C1583 C 0.56774 0.55608 0.92299 0.0
C1584 C 0.58237 0.54456 0.93732 0.0
C1585 C 0.58203 0.57323 0.90371 0.0
C1586 C 0.65526 0.61768 0.88265 0.0
H1587 H 0.67291 0.70328 0.78512 0.0
H1588 H 0.64323 0.66986 0.81468 0.0
H1589 H 0.69236 0.64988 0.86808 0.0
H1590 H 0.62332 0.54051 0.94131 0.0
H1591 H 0.64777 0.56918 0.90744 0.0
H1592 H 0.59371 0.58375 0.85235 0.0
C1593 C 0.66491 0.67051 0.81025 0.0
C1594 C 0.6709 0.6354 0.86434 0.0
C1595 C 0.68194 0.68965 0.7933 0.0
C1596 C 0.61133 0.54941 0.93106 0.0
C1597 C 0.6255 0.56614 0.91168 0.0
C1598 C 0.61511 0.59831 0.85615 0.0
C1599 C 0.67616 0.65342 0.82216 0.0
C1600 C 0.65897 0.63479 0.84165 0.0
C1601 C 0.61127 0.5789 0.8981 0.0
C1602 C 0.62727 0.59855 0.87871 0.0
H1603 H 0.7432 0.67487 0.79504 0.0
H1604 H 0.71364 0.64185 0.82466 0.0
H1605 H 0.62102 0.61532 0.8205 0.0
H1606 H 0.54541 0.55242 0.92695 0.0
H1607 H 0.57032 0.58267 0.89371 0.0
C1608 C 0.34115 0.63335 0.84921 0.0
C1609 C 0.34199 0.63774 0.82383 0.0
C1610 C 0.36139 0.62371 0.85761 0.0
C1611 C 0.41788 0.62208 0.87191 0.0
H1612 H 0.43018 0.55027 0.83809 0.0
C1613 C 0.49342 0.57762 0.91161 0.0
C1614 C 0.47971 0.54856 0.91772 0.0
C1615 C 0.48193 0.58883 0.89447 0.0
C1616 C 0.42716 0.57051 0.84755 0.0
H1617 H 0.36437 0.6352 0.78723 0.0
H1618 H 0.39961 0.61769 0.80191 0.0
H1619 H 0.39846 0.57009 0.82043 0.0
H1620 H 0.44538 0.50728 0.90797 0.0
H1621 H 0.42562 0.52681 0.87797 0.0
H1622 H 0.44581 0.62226 0.89937 0.0
C1623 C 0.38336 0.62195 0.81526 0.0
C1624 C 0.40913 0.58188 0.83742 0.0
C1625 C 0.36335 0.63208 0.80693 0.0
C1626 C 0.45636 0.52987 0.90394 0.0
C1627 C 0.445 0.54105 0.88667 0.0
C1628 C 0.43614 0.611 0.88181 0.0
C1629 C 0.38266 0.61786 0.84072 0.0
C1630 C 0.40385 0.60739 0.84985 0.0
C1631 C 0.45676 0.5711 0.88285 0.0
C1632 C 0.44059 0.58478 0.87003 0.0
H1633 H 0.32505 0.63779 0.86266 0.0
H1634 H 0.36025 0.62049 0.8773 0.0
H1635 H 0.41431 0.64191 0.88175 0.0
H1636 H 0.51163 0.59258 0.92159 0.0
H1637 H 0.49175 0.61193 0.89148 0.0
C1638 C 0.33282 0.29103 0.7999 0.0
C1639 C 0.3123 0.30005 0.79101 0.0
C1640 C 0.34535 0.305 0.82258 0.0
C1641 C 0.36672 0.37494 0.86194 0.0
H1642 H 0.36883 0.32953 0.91492 0.0
C1643 C 0.43111 0.43296 0.94825 0.0
C1644 C 0.44765 0.41811 0.95621 0.0
C1645 C 0.40935 0.41792 0.93194 0.0
C1646 C 0.36862 0.34252 0.90025 0.0
H1647 H 0.29017 0.33204 0.79761 0.0
H1648 H 0.31279 0.35712 0.83706 0.0
H1649 H 0.3417 0.30445 0.87778 0.0
H1650 H 0.45343 0.37534 0.95396 0.0
H1651 H 0.41659 0.34951 0.92458 0.0
H1652 H 0.3949 0.41262 0.88318 0.0
C1653 C 0.31843 0.33862 0.82687 0.0
C1654 C 0.35299 0.32816 0.87911 0.0
C1655 C 0.30561 0.32436 0.80435 0.0
C1656 C 0.44113 0.38753 0.94825 0.0
C1657 C 0.41974 0.3726 0.93151 0.0
C1658 C 0.38274 0.38921 0.8828 0.0
C1659 C 0.33812 0.32879 0.83627 0.0
C1660 C 0.35232 0.34422 0.85966 0.0
C1661 C 0.40405 0.3878 0.92264 0.0
C1662 C 0.3843 0.37311 0.90205 0.0
H1663 H 0.33934 0.27334 0.78922 0.0
H1664 H 0.3611 0.29764 0.82918 0.0
H1665 H 0.36665 0.38768 0.84701 0.0
H1666 H 0.43533 0.45639 0.95395 0.0
H1667 H 0.39725 0.43019 0.92605 0.0
C1668 C 0.64376 0.27866 0.85402 0.0
C1669 C 0.65923 0.28902 0.83199 0.0
C1670 C 0.65118 0.29485 0.87765 0.0
C1671 C 0.68163 0.37296 0.90062 0.0
H1672 H 0.65459 0.3432 0.96493 0.0
C1673 C 0.59992 0.39337 0.97906 0.0
C1674 C 0.60819 0.42449 0.98189 0.0
C1675 C 0.619 0.37917 0.96879 0.0
C1676 C 0.66278 0.35198 0.94722 0.0
H1677 H 0.69657 0.32329 0.81808 0.0
H1678 H 0.71022 0.34998 0.85907 0.0
H1679 H 0.66634 0.31058 0.92936 0.0
H1680 H 0.64361 0.46529 0.97832 0.0
H1681 H 0.67705 0.44028 0.95998 0.0
H1682 H 0.67588 0.41337 0.91759 0.0
C1683 C 0.69177 0.32994 0.85804 0.0
C1684 C 0.66939 0.3333 0.92686 0.0
C1685 C 0.68397 0.31428 0.83443 0.0
C1686 C 0.63655 0.44124 0.97604 0.0
C1687 C 0.65571 0.42696 0.96566 0.0
C1688 C 0.67507 0.39155 0.92091 0.0
C1689 C 0.67451 0.32147 0.87973 0.0
C1690 C 0.67702 0.34303 0.90293 0.0
C1691 C 0.64678 0.39578 0.96108 0.0
C1692 C 0.66367 0.38055 0.94385 0.0
H1693 H 0.62521 0.25875 0.85299 0.0
H1694 H 0.63732 0.28762 0.89397 0.0
H1695 H 0.68732 0.3813 0.88249 0.0
H1696 H 0.57833 0.37984 0.9838 0.0
H1697 H 0.61125 0.35513 0.96517 0.0
C1698 C 0.67052 0.34726 0.14791 0.0
C1699 C 0.67826 0.35257 0.17309 0.0
C1700 C 0.64986 0.35739 0.14101 0.0
C1701 C 0.59641 0.36874 0.13259 0.0
H1702 H 0.6011 0.44987 0.15727 0.0
C1703 C 0.5306 0.4218 0.08844 0.0
C1704 C 0.54676 0.44942 0.08044 0.0
C1705 C 0.54071 0.41024 0.10638 0.0
C1706 C 0.5994 0.42713 0.15026 0.0
H1707 H 0.66991 0.37224 0.2109 0.0
H1708 H 0.63347 0.38977 0.19885 0.0
H1709 H 0.63088 0.42775 0.17453 0.0
H1710 H 0.58452 0.48809 0.08747 0.0
H1711 H 0.60217 0.46791 0.11821 0.0
H1712 H 0.56634 0.36853 0.10725 0.0
C1713 C 0.64364 0.37795 0.18442 0.0
C1714 C 0.61629 0.41434 0.16035 0.0
C1715 C 0.66433 0.3677 0.19136 0.0
C1716 C 0.57157 0.46661 0.09293 0.0
C1717 C 0.58173 0.45501 0.11073 0.0
C1718 C 0.57962 0.38151 0.12247 0.0
C1719 C 0.6363 0.37307 0.1591 0.0
C1720 C 0.61559 0.38528 0.15109 0.0
C1721 C 0.56718 0.42604 0.1167 0.0
C1722 C 0.58141 0.41115 0.13067 0.0
H1723 H 0.68054 0.33533 0.13343 0.0
H1724 H 0.64506 0.35356 0.12129 0.0
H1725 H 0.59498 0.34613 0.12534 0.0
H1726 H 0.51119 0.40808 0.07951 0.0
H1727 H 0.52853 0.3882 0.11108 0.0
C1728 C 0.69656 0.71256 0.1932 0.0
C1729 C 0.71397 0.70171 0.20489 0.0
C1730 C 0.68371 0.69711 0.17102 0.0
C1731 C 0.65757 0.62385 0.13616 0.0
H1732 H 0.66381 0.6656 0.07839 0.0
C1733 C 0.5973 0.56296 0.04867 0.0
C1734 C 0.58224 0.5782 0.03899 0.0
C1735 C 0.61886 0.57812 0.06513 0.0
C1736 C 0.66177 0.65367 0.09439 0.0
H1737 H 0.7307 0.66561 0.20315 0.0
H1738 H 0.70745 0.63821 0.16477 0.0
H1739 H 0.68935 0.69192 0.11611 0.0
H1740 H 0.5793 0.62173 0.03785 0.0
H1741 H 0.61592 0.64789 0.06736 0.0
H1742 H 0.62895 0.5861 0.11536 0.0
C1743 C 0.70417 0.65888 0.17262 0.0
C1744 C 0.67639 0.66872 0.1159 0.0
C1745 C 0.7173 0.67448 0.19463 0.0
C1746 C 0.59034 0.60922 0.04503 0.0
C1747 C 0.61159 0.62431 0.06183 0.0
C1748 C 0.64268 0.60892 0.11485 0.0
C1749 C 0.68765 0.67031 0.16046 0.0
C1750 C 0.674 0.65401 0.13706 0.0
C1751 C 0.62546 0.60876 0.0727 0.0
C1752 C 0.64421 0.62377 0.09386 0.0
H1753 H 0.6935 0.7334 0.20079 0.0
H1754 H 0.67063 0.70604 0.16213 0.0
H1755 H 0.6553 0.61215 0.15237 0.0
H1756 H 0.59181 0.53917 0.04447 0.0
H1757 H 0.6296 0.56557 0.07267 0.0
C1758 C 0.37815 0.71725 0.14765 0.0
C1759 C 0.36056 0.70667 0.16869 0.0
C1760 C 0.37324 0.70097 0.1237 0.0
C1761 C 0.35899 0.66228 0.0736 0.0
H1762 H 0.35316 0.58276 0.08408 0.0
C1763 C 0.39251 0.5542 0.02504 0.0
C1764 C 0.42067 0.5709 0.01851 0.0
C1765 C 0.37362 0.56858 0.03604 0.0
C1766 C 0.35386 0.60442 0.08043 0.0
H1767 H 0.32222 0.67191 0.1803 0.0
H1768 H 0.31303 0.64494 0.13865 0.0
H1769 H 0.33978 0.61471 0.11834 0.0
H1770 H 0.45045 0.61555 0.01626 0.0
H1771 H 0.41805 0.64035 0.0359 0.0
H1772 H 0.37517 0.65236 0.03605 0.0
C1773 C 0.33108 0.66531 0.14077 0.0
C1774 C 0.3462 0.6229 0.10019 0.0
C1775 C 0.33629 0.68114 0.16472 0.0
C1776 C 0.42902 0.60203 0.02149 0.0
C1777 C 0.41022 0.6163 0.03236 0.0
C1778 C 0.36657 0.64368 0.05373 0.0
C1779 C 0.35042 0.67404 0.12032 0.0
C1780 C 0.35025 0.65258 0.09743 0.0
C1781 C 0.38261 0.59979 0.04051 0.0
C1782 C 0.36574 0.61526 0.05753 0.0
H1783 H 0.39656 0.73723 0.14985 0.0
H1784 H 0.38862 0.70833 0.10831 0.0
H1785 H 0.36181 0.68486 0.07081 0.0
H1786 H 0.38544 0.53015 0.02271 0.0
H1787 H 0.35239 0.55531 0.04206 0.0
C1788 C 0.34751 0.31265 0.2055 0.0
C1789 C 0.32291 0.31863 0.21574 0.0
C1790 C 0.36542 0.32952 0.18758 0.0
C1791 C 0.38915 0.40097 0.16366 0.0
H1792 H 0.40091 0.35794 0.09855 0.0
C1793 C 0.46477 0.45284 0.0793 0.0
C1794 C 0.44937 0.44982 0.05801 0.0
C1795 C 0.45186 0.4372 0.0998 0.0
C1796 C 0.39804 0.37014 0.11675 0.0
H1797 H 0.29814 0.3474 0.21578 0.0
H1798 H 0.33014 0.37766 0.18493 0.0
H1799 H 0.37355 0.33049 0.13293 0.0
H1800 H 0.40879 0.42737 0.04118 0.0
H1801 H 0.38672 0.39957 0.07657 0.0
H1802 H 0.41372 0.44064 0.14735 0.0
C1803 C 0.3353 0.35971 0.19071 0.0
C1804 C 0.38247 0.35451 0.13636 0.0
C1805 C 0.317 0.34238 0.20824 0.0
C1806 C 0.42114 0.4304 0.0574 0.0
C1807 C 0.40852 0.41436 0.07755 0.0
C1808 C 0.4053 0.41659 0.14418 0.0
C1809 C 0.35943 0.35312 0.17995 0.0
C1810 C 0.3775 0.3698 0.15985 0.0
C1811 C 0.42365 0.41779 0.09899 0.0
C1812 C 0.40946 0.4013 0.12046 0.0
H1813 H 0.35244 0.29425 0.21069 0.0
H1814 H 0.38389 0.32402 0.17954 0.0
H1815 H 0.38564 0.41319 0.18166 0.0
H1816 H 0.48655 0.46766 0.0803 0.0
H1817 H 0.46392 0.44007 0.11618 0.0
C1818 C 0.83873 0.71761 0.70327 0.0
C1819 C 0.80891 0.70826 0.70456 0.0
C1820 C 0.85328 0.70161 0.68685 0.0
C1821 C 0.84415 0.62772 0.64933 0.0
H1822 H 0.91424 0.67132 0.6147 0.0
C1823 C 0.90466 0.56976 0.5719 0.0
C1824 C 0.93451 0.58136 0.57069 0.0
C1825 C 0.88861 0.58437 0.58821 0.0
C1826 C 0.89491 0.65867 0.62443 0.0
H1827 H 0.77109 0.67405 0.68997 0.0
H1828 H 0.79644 0.64674 0.66072 0.0
H1829 H 0.88792 0.69828 0.64279 0.0
H1830 H 0.97071 0.61712 0.58655 0.0
H1831 H 0.943 0.64193 0.61507 0.0
H1832 H 0.85127 0.58807 0.63099 0.0
C1833 C 0.80862 0.66632 0.67261 0.0
C1834 C 0.87974 0.67422 0.64059 0.0
C1835 C 0.79405 0.68226 0.68917 0.0
C1836 C 0.9478 0.60753 0.58669 0.0
C1837 C 0.93182 0.622 0.603 0.0
C1838 C 0.85939 0.61212 0.63317 0.0
C1839 C 0.83848 0.67581 0.67116 0.0
C1840 C 0.85422 0.65901 0.65343 0.0
C1841 C 0.90198 0.61093 0.6038 0.0
C1842 C 0.88514 0.62736 0.62061 0.0
H1843 H 0.85095 0.73741 0.71493 0.0
H1844 H 0.87623 0.70936 0.68668 0.0
H1845 H 0.82477 0.61518 0.65907 0.0
H1846 H 0.89364 0.54972 0.55986 0.0
H1847 H 0.8657 0.57521 0.5881 0.0
C1848 C 0.31182 0.79752 0.6771 0.0
C1849 C 0.31879 0.80475 0.70249 0.0
C1850 C 0.33043 0.81214 0.65842 0.0
C1851 C 0.40444 0.85626 0.64332 0.0
H1852 H 0.37088 0.88683 0.59676 0.0
C1853 C 0.469 0.94094 0.57407 0.0
C1854 C 0.4565 0.93909 0.55141 0.0
C1855 C 0.45461 0.92167 0.59189 0.0
C1856 C 0.38062 0.87798 0.60923 0.0
H1857 H 0.35013 0.83323 0.72846 0.0
H1858 H 0.38304 0.85867 0.69562 0.0
H1859 H 0.34092 0.85888 0.62912 0.0
H1860 H 0.42108 0.91438 0.52822 0.0
H1861 H 0.39676 0.87989 0.55846 0.0
H1862 H 0.44426 0.87543 0.62322 0.0
C1863 C 0.36337 0.84141 0.69019 0.0
C1864 C 0.3634 0.86207 0.62787 0.0
C1865 C 0.34459 0.82693 0.70892 0.0
C1866 C 0.43083 0.91639 0.54582 0.0
C1867 C 0.41683 0.89686 0.56324 0.0
C1868 C 0.42177 0.87206 0.62442 0.0
C1869 C 0.35633 0.83429 0.66478 0.0
C1870 C 0.37506 0.85098 0.64505 0.0
C1871 C 0.42781 0.90014 0.58699 0.0
C1872 C 0.40998 0.88296 0.60706 0.0
H1873 H 0.29208 0.78039 0.67165 0.0
H1874 H 0.32457 0.80611 0.63894 0.0
H1875 H 0.4139 0.84781 0.65635 0.0
H1876 H 0.48885 0.95841 0.57866 0.0
H1877 H 0.46369 0.92478 0.60998 0.0
C1878 C 0.16687 0.34474 0.66234 0.0
C1879 C 0.1508 0.32872 0.68179 0.0
C1880 C 0.15394 0.35549 0.64602 0.0
C1881 C 0.08305 0.34864 0.62523 0.0
H1882 H 0.12564 0.42457 0.60209 0.0
C1883 C 0.06912 0.44514 0.56916 0.0
C1884 C 0.05182 0.42687 0.54997 0.0
C1885 C 0.07875 0.43272 0.58667 0.0
C1886 C 0.11317 0.40357 0.60868 0.0
H1887 H 0.10818 0.3107 0.6986 0.0
H1888 H 0.08607 0.33089 0.6713 0.0
H1889 H 0.14733 0.40396 0.62934 0.0
H1890 H 0.03004 0.38126 0.53466 0.0
H1891 H 0.04754 0.35949 0.56463 0.0
H1892 H 0.04839 0.34902 0.60554 0.0
C1893 C 0.10858 0.33462 0.6682 0.0
C1894 C 0.1259 0.3914 0.62396 0.0
C1895 C 0.12141 0.32346 0.68423 0.0
C1896 C 0.04317 0.39589 0.54938 0.0
C1897 C 0.05324 0.38343 0.56664 0.0
C1898 C 0.07014 0.36107 0.61026 0.0
C1899 C 0.12466 0.35094 0.64894 0.0
C1900 C 0.11107 0.36371 0.63239 0.0
C1901 C 0.07178 0.40171 0.58511 0.0
C1902 C 0.08504 0.3887 0.60174 0.0
H1903 H 0.18958 0.34953 0.65995 0.0
H1904 H 0.167 0.36742 0.63113 0.0
H1905 H 0.07103 0.32707 0.63099 0.0
H1906 H 0.07591 0.46913 0.57022 0.0
H1907 H 0.09222 0.44754 0.60108 0.0
C1908 C 0.70045 0.17215 0.69726 0.0
C1909 C 0.73005 0.18468 0.69866 0.0
C1910 C 0.68852 0.15475 0.67538 0.0
C1911 C 0.67514 0.1482 0.6206 0.0
H1912 H 0.68122 0.07368 0.58659 0.0
C1913 C 0.61256 0.09392 0.53405 0.0
C1914 C 0.59514 0.06431 0.53533 0.0
C1915 C 0.63583 0.10697 0.54908 0.0
C1916 C 0.6795 0.09458 0.59581 0.0
H1917 H 0.77039 0.18701 0.6788 0.0
H1918 H 0.74919 0.15594 0.64016 0.0
H1919 H 0.70851 0.09865 0.62413 0.0
H1920 H 0.5899 0.02427 0.55153 0.0
H1921 H 0.63024 0.04733 0.57846 0.0
H1922 H 0.64567 0.1442 0.59339 0.0
C1923 C 0.73543 0.15986 0.65621 0.0
C1924 C 0.69522 0.10889 0.61714 0.0
C1925 C 0.74751 0.17752 0.67829 0.0
C1926 C 0.60301 0.04715 0.55016 0.0
C1927 C 0.62616 0.06039 0.56558 0.0
C1928 C 0.65978 0.1342 0.59934 0.0
C1929 C 0.70583 0.14929 0.65434 0.0
C1930 C 0.69255 0.13546 0.63003 0.0
C1931 C 0.64191 0.09089 0.56614 0.0
C1932 C 0.6613 0.10695 0.58687 0.0
H1933 H 0.68638 0.1769 0.71273 0.0
H1934 H 0.66563 0.14654 0.67451 0.0
H1935 H 0.67282 0.16875 0.63014 0.0
H1936 H 0.60722 0.10754 0.52248 0.0
H1937 H 0.64801 0.13027 0.54849 0.0
C1938 C 0.78722 0.33552 0.31616 0.0
C1939 C 0.80411 0.32298 0.29879 0.0
C1940 C 0.79944 0.35681 0.33622 0.0
C1941 C 0.86667 0.40946 0.3602 0.0
H1942 H 0.8372 0.38295 0.42544 0.0
C1943 C 0.92791 0.46413 0.44882 0.0
C1944 C 0.93579 0.44309 0.45888 0.0
C1945 C 0.90556 0.45488 0.43266 0.0
C1946 C 0.84532 0.39094 0.40741 0.0
H1947 H 0.8472 0.32435 0.28774 0.0
H1948 H 0.86856 0.36186 0.32251 0.0
H1949 H 0.811 0.35808 0.3877 0.0
H1950 H 0.92471 0.39624 0.46211 0.0
H1951 H 0.88541 0.38013 0.43424 0.0
H1952 H 0.90169 0.44133 0.37966 0.0
C1953 C 0.84587 0.35509 0.32071 0.0
C1954 C 0.83032 0.37684 0.38588 0.0
C1955 C 0.83363 0.33347 0.30093 0.0
C1956 C 0.91925 0.41291 0.45445 0.0
C1957 C 0.89663 0.40372 0.43863 0.0
C1958 C 0.88145 0.42384 0.38177 0.0
C1959 C 0.8288 0.36631 0.33892 0.0
C1960 C 0.84145 0.38525 0.36198 0.0
C1961 C 0.89041 0.4245 0.42672 0.0
C1962 C 0.87145 0.41394 0.40541 0.0
H1963 H 0.7644 0.32781 0.31506 0.0
H1964 H 0.78589 0.36521 0.35003 0.0
H1965 H 0.87559 0.41638 0.34197 0.0
H1966 H 0.9403 0.48754 0.45186 0.0
H1967 H 0.90105 0.47132 0.4238 0.0
C1968 C 0.72226 0.79863 0.32215 0.0
C1969 C 0.72332 0.79818 0.2958 0.0
C1970 C 0.70666 0.81386 0.3382 0.0
C1971 C 0.64908 0.8458 0.33807 0.0
H1972 H 0.67702 0.8873 0.40295 0.0
C1973 C 0.57971 0.89394 0.41254 0.0
C1974 C 0.5927 0.92103 0.42755 0.0
C1975 C 0.59596 0.87966 0.39636 0.0
C1976 C 0.669 0.8761 0.3848 0.0
H1977 H 0.70917 0.81407 0.26572 0.0
H1978 H 0.68252 0.84104 0.29355 0.0
H1979 H 0.70483 0.86155 0.37511 0.0
H1980 H 0.6333 0.95438 0.4369 0.0
H1981 H 0.66163 0.92968 0.40841 0.0
H1982 H 0.61365 0.86094 0.3474 0.0
C1983 C 0.69318 0.82904 0.30192 0.0
C1984 C 0.6848 0.86092 0.36893 0.0
C1985 C 0.70871 0.81374 0.28591 0.0
C1986 C 0.62249 0.93357 0.42568 0.0
C1987 C 0.63879 0.91924 0.40945 0.0
C1988 C 0.63335 0.86103 0.35387 0.0
C1989 C 0.69183 0.82926 0.32831 0.0
C1990 C 0.67505 0.8455 0.34533 0.0
C1991 C 0.62576 0.892 0.39461 0.0
C1992 C 0.643 0.87634 0.37752 0.0
H1993 H 0.73395 0.78777 0.33049 0.0
H1994 H 0.70607 0.81331 0.35836 0.0
H1995 H 0.64063 0.83393 0.32023 0.0
H1996 H 0.55686 0.88347 0.41342 0.0
H1997 H 0.58509 0.85855 0.38558 0.0
C1998 C 0.19167 0.73439 0.32437 0.0
C1999 C 0.19967 0.71787 0.30286 0.0
C2000 C 0.17219 0.71978 0.34278 0.0
C2001 C 0.15802 0.66254 0.37623 0.0
H2002 H 0.07571 0.6348 0.37926 0.0
C2003 C 0.09452 0.5618 0.42493 0.0
C2004 C 0.07147 0.56318 0.44167 0.0
C2005 C 0.10719 0.58356 0.40904 0.0
C2006 C 0.09867 0.64279 0.37891 0.0
H2007 H 0.19226 0.6737 0.28268 0.0
H2008 H 0.15843 0.64833 0.31481 0.0
H2009 H 0.10278 0.66999 0.34951 0.0
H2010 H 0.0428 0.58783 0.45386 0.0
H2011 H 0.06517 0.62627 0.42589 0.0
H2012 H 0.15441 0.6348 0.40467 0.0
C2013 C 0.16719 0.67239 0.31746 0.0
C2014 C 0.11405 0.66286 0.36197 0.0
C2015 C 0.18668 0.68688 0.29926 0.0
C2016 C 0.06049 0.58615 0.44121 0.0
C2017 C 0.07332 0.60816 0.42523 0.0
C2018 C 0.14279 0.64252 0.39299 0.0
C2019 C 0.16028 0.68864 0.33955 0.0
C2020 C 0.14381 0.67234 0.36026 0.0
C2021 C 0.09732 0.60746 0.40949 0.0
C2022 C 0.11295 0.63171 0.394 0.0
H2023 H 0.20155 0.75832 0.32755 0.0
H2024 H 0.1673 0.7326 0.35992 0.0
H2025 H 0.18096 0.6694 0.37495 0.0
H2026 H 0.1032 0.54411 0.42439 0.0
H2027 H 0.1251 0.58188 0.39658 0.0
C2028 C 0.42778 0.23756 0.35417 0.0
C2029 C 0.40601 0.22581 0.33712 0.0
C2030 C 0.43428 0.21919 0.36845 0.0
C2031 C 0.4272 0.1405 0.36903 0.0
H2032 H 0.4549 0.17006 0.43618 0.0
C2033 C 0.4519 0.06884 0.43536 0.0
C2034 C 0.4761 0.08252 0.44959 0.0
C2035 C 0.44328 0.08506 0.42032 0.0
C2036 C 0.44749 0.1616 0.41734 0.0
H2037 H 0.37313 0.1856 0.32257 0.0
H2038 H 0.38392 0.1535 0.34816 0.0
H2039 H 0.43742 0.20038 0.41444 0.0
H2040 H 0.51116 0.12359 0.45784 0.0
H2041 H 0.49608 0.15176 0.43161 0.0
H2042 H 0.43699 0.10146 0.37229 0.0
C2043 C 0.39643 0.17691 0.35 0.0
C2044 C 0.43742 0.17897 0.40484 0.0
C2045 C 0.38999 0.19537 0.33557 0.0
C2046 C 0.49234 0.11234 0.44728 0.0
C2047 C 0.48358 0.12858 0.43241 0.0
C2048 C 0.43705 0.12298 0.38167 0.0
C2049 C 0.41901 0.18853 0.36631 0.0
C2050 C 0.42752 0.16888 0.38037 0.0
C2051 C 0.45855 0.11535 0.41931 0.0
C2052 C 0.44767 0.13353 0.40582 0.0
H2053 H 0.44025 0.261 0.35614 0.0
H2054 H 0.45196 0.22898 0.38057 0.0
H2055 H 0.42009 0.13212 0.35009 0.0
H2056 H 0.43892 0.04589 0.43661 0.0
H2057 H 0.4239 0.07424 0.41045 0.0
C2058 C 0.66071 0.86749 0.68091 0.0
C2059 C 0.65615 0.83717 0.68106 0.0
C2060 C 0.64742 0.87671 0.66383 0.0
C2061 C 0.58599 0.85182 0.62431 0.0
H2062 H 0.62946 0.9209 0.59128 0.0
C2063 C 0.54288 0.89414 0.54622 0.0
C2064 C 0.55254 0.92501 0.54551 0.0
C2065 C 0.55341 0.88209 0.56353 0.0
C2066 C 0.61684 0.90184 0.60061 0.0
H2067 H 0.63416 0.79269 0.66327 0.0
H2068 H 0.61087 0.80889 0.63319 0.0
H2069 H 0.65275 0.90205 0.61881 0.0
H2070 H 0.57889 0.96755 0.56371 0.0
H2071 H 0.5964 0.94674 0.59428 0.0
H2072 H 0.54996 0.85187 0.60621 0.0
C2073 C 0.62464 0.82546 0.64648 0.0
C2074 C 0.63027 0.89096 0.61632 0.0
C2075 C 0.63816 0.81622 0.66352 0.0
C2076 C 0.57131 0.94365 0.56356 0.0
C2077 C 0.58157 0.93167 0.58094 0.0
C2078 C 0.57245 0.86283 0.60862 0.0
C2079 C 0.62915 0.85584 0.64648 0.0
C2080 C 0.61497 0.86606 0.62859 0.0
C2081 C 0.5736 0.90072 0.58055 0.0
C2082 C 0.58767 0.88824 0.59685 0.0
H2083 H 0.67472 0.88419 0.69397 0.0
H2084 H 0.65115 0.90025 0.66447 0.0
H2085 H 0.57359 0.83269 0.63366 0.0
H2086 H 0.52852 0.87921 0.53247 0.0
H2087 H 0.54682 0.85816 0.56269 0.0
C2088 C 0.70384 0.174 0.2945 0.0
C2089 C 0.71748 0.20468 0.30024 0.0
C2090 C 0.68274 0.15841 0.31111 0.0
C2091 C 0.65409 0.16301 0.37753 0.0
H2092 H 0.59149 0.09603 0.34973 0.0
C2093 C 0.56703 0.08664 0.43982 0.0
C2094 C 0.56933 0.05817 0.43552 0.0
C2095 C 0.57991 0.10696 0.42251 0.0
C2096 C 0.60866 0.11496 0.35769 0.0
H2097 H 0.72106 0.24297 0.32824 0.0
H2098 H 0.68362 0.21599 0.35706 0.0
H2099 H 0.62555 0.12785 0.32137 0.0
H2100 H 0.58497 0.02771 0.40943 0.0
H2101 H 0.60654 0.06278 0.37879 0.0
H2102 H 0.637 0.14985 0.41386 0.0
C2103 C 0.68921 0.20381 0.33985 0.0
C2104 C 0.62837 0.13294 0.34151 0.0
C2105 C 0.71048 0.21935 0.32327 0.0
C2106 C 0.58303 0.04962 0.41308 0.0
C2107 C 0.59519 0.06956 0.39555 0.0
C2108 C 0.63405 0.14533 0.39372 0.0
C2109 C 0.67478 0.17321 0.33379 0.0
C2110 C 0.65191 0.15653 0.35117 0.0
C2111 C 0.59444 0.09862 0.40046 0.0
C2112 C 0.61171 0.12066 0.38386 0.0
H2113 H 0.70903 0.16215 0.27689 0.0
H2114 H 0.67272 0.13471 0.30614 0.0
H2115 H 0.67202 0.18079 0.38567 0.0
H2116 H 0.55675 0.09369 0.45715 0.0
H2117 H 0.57923 0.12935 0.42664 0.0
C2118 C 0.85973 0.64701 0.32426 0.0
C2119 C 0.83098 0.63468 0.33199 0.0
C2120 C 0.88093 0.64574 0.33863 0.0
C2121 C 0.91294 0.61272 0.36326 0.0
H2122 H 0.91626 0.63797 0.43546 0.0
C2123 C 0.95547 0.56099 0.43353 0.0
C2124 C 0.97226 0.58003 0.45278 0.0
C2125 C 0.94387 0.57233 0.4166 0.0
C2126 C 0.91587 0.63118 0.41525 0.0
H2127 H 0.80178 0.61272 0.36117 0.0
H2128 H 0.83884 0.61148 0.38675 0.0
H2129 H 0.88424 0.6504 0.41115 0.0
H2130 H 0.99108 0.62603 0.46868 0.0
H2131 H 0.97018 0.64585 0.43927 0.0
H2132 H 0.94327 0.59193 0.3676 0.0
C2133 C 0.84498 0.62178 0.3695 0.0
C2134 C 0.89747 0.63815 0.40141 0.0
C2135 C 0.82382 0.62242 0.35488 0.0
C2136 C 0.97839 0.61084 0.45394 0.0
C2137 C 0.96627 0.62216 0.43727 0.0
C2138 C 0.9309 0.60521 0.37719 0.0
C2139 C 0.87368 0.6328 0.36124 0.0
C2140 C 0.89556 0.62864 0.37535 0.0
C2141 C 0.94839 0.60292 0.41879 0.0
C2142 C 0.93226 0.61402 0.40339 0.0
H2143 H 0.8657 0.6564 0.30658 0.0
H2144 H 0.90293 0.65441 0.3319 0.0
H2145 H 0.91164 0.60489 0.34323 0.0
H2146 H 0.95037 0.53714 0.43215 0.0
H2147 H 0.93003 0.55695 0.40267 0.0
C2148 C 0.27186 0.82793 0.32384 0.0
C2149 C 0.28861 0.8251 0.30161 0.0
C2150 C 0.28393 0.84794 0.34477 0.0
C2151 C 0.34884 0.91051 0.36581 0.0
H2152 H 0.33695 0.87101 0.42574 0.0
C2153 C 0.41949 0.90927 0.44921 0.0
C2154 C 0.43435 0.93979 0.45505 0.0
C2155 C 0.39543 0.89947 0.43507 0.0
C2156 C 0.34038 0.88249 0.40925 0.0
H2157 H 0.33002 0.84258 0.28278 0.0
H2158 H 0.35103 0.87758 0.31898 0.0
H2159 H 0.30653 0.84788 0.39046 0.0
H2160 H 0.43426 0.98398 0.4521 0.0
H2161 H 0.39202 0.96682 0.42745 0.0
H2162 H 0.38391 0.94411 0.38386 0.0
C2163 C 0.32871 0.86448 0.32054 0.0
C2164 C 0.3227 0.86939 0.38911 0.0
C2165 C 0.31676 0.84432 0.2998 0.0
C2166 C 0.4234 0.96031 0.44786 0.0
C2167 C 0.3993 0.95047 0.43357 0.0
C2168 C 0.36651 0.92362 0.38595 0.0
C2169 C 0.31278 0.86575 0.34359 0.0
C2170 C 0.32741 0.8827 0.36677 0.0
C2171 C 0.38554 0.91992 0.42635 0.0
C2172 C 0.3632 0.9092 0.40752 0.0
H2173 H 0.25007 0.81328 0.32566 0.0
H2174 H 0.27104 0.8486 0.36218 0.0
H2175 H 0.3528 0.92151 0.34899 0.0
H2176 H 0.42716 0.8928 0.45459 0.0
H2177 H 0.38563 0.8758 0.42972 0.0
C2178 C 0.19573 0.28774 0.30638 0.0
C2179 C 0.22481 0.30099 0.30014 0.0
C2180 C 0.1807 0.30355 0.32246 0.0
C2181 C 0.18948 0.36934 0.37127 0.0
H2182 H 0.11324 0.35926 0.35479 0.0
C2183 C 0.12394 0.4389 0.42875 0.0
C2184 C 0.09449 0.42466 0.43255 0.0
C2185 C 0.1405 0.42495 0.41235 0.0
C2186 C 0.13434 0.36213 0.35999 0.0
H2187 H 0.26074 0.34155 0.30584 0.0
H2188 H 0.23478 0.36903 0.33446 0.0
H2189 H 0.1406 0.33281 0.32747 0.0
H2190 H 0.05964 0.38424 0.42184 0.0
H2191 H 0.08829 0.35995 0.39399 0.0
H2192 H 0.18307 0.39842 0.40397 0.0
C2193 C 0.22357 0.34624 0.32702 0.0
C2194 C 0.15012 0.3469 0.3442 0.0
C2195 C 0.23855 0.33044 0.31068 0.0
C2196 C 0.08217 0.39613 0.4194 0.0
C2197 C 0.09869 0.38218 0.40317 0.0
C2198 C 0.1736 0.3845 0.38718 0.0
C2199 C 0.19432 0.3331 0.33295 0.0
C2200 C 0.17787 0.35008 0.34965 0.0
C2201 C 0.12815 0.3963 0.39931 0.0
C2202 C 0.14566 0.38098 0.38191 0.0
H2203 H 0.18446 0.26499 0.29885 0.0
H2204 H 0.15837 0.29243 0.32685 0.0
H2205 H 0.21064 0.37217 0.37627 0.0
H2206 H 0.13426 0.46087 0.43846 0.0
H2207 H 0.163 0.43683 0.40972 0.0
C2208 C 0.32971 0.19635 0.70991 0.0
C2209 C 0.30629 0.20095 0.70147 0.0
C2210 C 0.34512 0.18098 0.6938 0.0
C2211 C 0.34147 0.13182 0.63169 0.0
H2212 H 0.42154 0.15126 0.64064 0.0
C2213 C 0.40735 0.06489 0.57182 0.0
C2214 C 0.43603 0.08021 0.56553 0.0
C2215 C 0.3913 0.07879 0.58886 0.0
C2216 C 0.39928 0.1457 0.63751 0.0
H2217 H 0.28078 0.19295 0.66947 0.0
H2218 H 0.30857 0.1684 0.64074 0.0
H2219 H 0.3949 0.17805 0.66806 0.0
H2220 H 0.47006 0.12247 0.57217 0.0
H2221 H 0.44217 0.14678 0.60077 0.0
H2222 H 0.34632 0.10071 0.60012 0.0
C2223 C 0.31469 0.17558 0.66006 0.0
C2224 C 0.38374 0.16081 0.65371 0.0
C2225 C 0.29901 0.1904 0.67639 0.0
C2226 C 0.44814 0.10977 0.57666 0.0
C2227 C 0.43206 0.12374 0.59335 0.0
C2228 C 0.35715 0.11709 0.61517 0.0
C2229 C 0.33792 0.17037 0.66853 0.0
C2230 C 0.35454 0.15413 0.65113 0.0
C2231 C 0.40339 0.10851 0.59985 0.0
C2232 C 0.38635 0.12378 0.61779 0.0
H2233 H 0.33637 0.20499 0.72893 0.0
H2234 H 0.36252 0.17727 0.70137 0.0
H2235 H 0.31898 0.12547 0.62919 0.0
H2236 H 0.3973 0.04209 0.5637 0.0
H2237 H 0.36948 0.06602 0.59356 0.0
C2238 C 0.84456 0.31585 0.70919 0.0
C2239 C 0.81945 0.29304 0.70174 0.0
C2240 C 0.86365 0.33166 0.6912 0.0
C2241 C 0.86382 0.35428 0.62945 0.0
H2242 H 0.94568 0.37561 0.62755 0.0
C2243 C 0.9313 0.41731 0.55068 0.0
C2244 C 0.95653 0.44048 0.55689 0.0
C2245 C 0.91739 0.3969 0.56752 0.0
C2246 C 0.92289 0.37011 0.62798 0.0
H2247 H 0.79563 0.2675 0.66958 0.0
H2248 H 0.82841 0.29564 0.63826 0.0
H2249 H 0.91605 0.34442 0.65889 0.0
H2250 H 0.98787 0.45991 0.585 0.0
H2251 H 0.96293 0.42473 0.61524 0.0
H2252 H 0.87016 0.38049 0.59944 0.0
C2253 C 0.83324 0.30152 0.658 0.0
C2254 C 0.90594 0.35218 0.64587 0.0
C2255 C 0.81441 0.28551 0.67592 0.0
C2256 C 0.96845 0.4421 0.57982 0.0
C2257 C 0.95414 0.4219 0.59706 0.0
C2258 C 0.88064 0.37237 0.61185 0.0
C2259 C 0.85782 0.32511 0.66547 0.0
C2260 C 0.87621 0.34392 0.64663 0.0
C2261 C 0.92791 0.39958 0.59141 0.0
C2262 C 0.91042 0.38035 0.61062 0.0
H2263 H 0.84904 0.32208 0.72899 0.0
H2264 H 0.88238 0.34977 0.69753 0.0
H2265 H 0.84101 0.34886 0.62993 0.0
H2266 H 0.9219 0.41545 0.53294 0.0
H2267 H 0.89788 0.37946 0.56202 0.0
C2268 C 0.22854 0.66613 0.69358 0.0
C2269 C 0.23802 0.69687 0.69242 0.0
C2270 C 0.21681 0.64606 0.67262 0.0
C2271 C 0.20658 0.64132 0.6036 0.0
H2272 H 0.13688 0.57803 0.61844 0.0
C2273 C 0.1104 0.59704 0.54241 0.0
C2274 C 0.09396 0.56674 0.54055 0.0
C2275 C 0.13435 0.6082 0.55671 0.0
C2276 C 0.15664 0.59515 0.6139 0.0
H2277 H 0.24373 0.7307 0.66818 0.0
H2278 H 0.22245 0.69608 0.63215 0.0
H2279 H 0.16689 0.60671 0.65263 0.0
H2280 H 0.09081 0.52397 0.55076 0.0
H2281 H 0.1325 0.54369 0.57627 0.0
H2282 H 0.19501 0.63092 0.56502 0.0
C2283 C 0.22451 0.68717 0.64889 0.0
C2284 C 0.17392 0.61163 0.63353 0.0
C2285 C 0.23639 0.70712 0.66971 0.0
C2286 C 0.10308 0.54744 0.55183 0.0
C2287 C 0.12682 0.55871 0.56653 0.0
C2288 C 0.18908 0.62507 0.58402 0.0
C2289 C 0.21417 0.65637 0.65013 0.0
C2290 C 0.19863 0.63561 0.62877 0.0
C2291 C 0.14214 0.58934 0.56974 0.0
C2292 C 0.16351 0.60243 0.58912 0.0
H2293 H 0.22958 0.65762 0.71087 0.0
H2294 H 0.20941 0.6225 0.67417 0.0
H2295 H 0.22582 0.6591 0.59911 0.0
H2296 H 0.10399 0.61241 0.53377 0.0
H2297 H 0.14562 0.63193 0.55898 0.0
loop_
_geom_bond_atom_site_label_1
_geom_bond_atom_site_label_2
_geom_bond_distance
_geom_bond_site_symmetry_2
_ccdc_geom_bond_type
Eu0 N29 2.600 . S
Eu0 N35 2.562 . S
Eu0 O44 2.462 . S
Eu0 O45 2.373 . S
Eu0 O47 2.432 . S
Eu0 O48 2.291 . S
Eu0 O52 2.335 . S
Eu0 O55 2.372 . S
Eu0 C64 2.787 . S
C1 N2 1.365 . S
C1 C4 1.405 . S
C1 C8 1.448 . S
N2 C1 1.365 . S
N2 C5 1.319 . S
N2 Eu11 2.600 . S
C3 C5 1.397 . S
C3 C6 1.367 . S
C3 H23 0.931 . S
C4 C1 1.405 . S
C4 C6 1.403 . S
C4 C10 1.439 . S
C5 N2 1.319 . S
C5 C3 1.397 . S
C5 H16 0.930 . S
C6 C3 1.367 . S
C6 C4 1.403 . S
C6 H27 0.929 . S
C7 C8 1.430 . S
C7 C9 1.387 . S
C7 C13 1.404 . S
C8 C1 1.448 . S
C8 C7 1.430 . S
C8 N12 1.351 . S
C9 C7 1.387 . S
C9 C10 1.374 . S
C9 H24 0.931 . S
C10 C4 1.439 . S
C10 C9 1.374 . S
C10 H25 0.931 . S
Eu11 N2 2.600 . S
Eu11 N12 2.562 . S
Eu11 O46 2.335 . S
Eu11 O49 2.372 . S
Eu11 O50 2.462 . S
Eu11 O51 2.373 . S
Eu11 O53 2.432 . S
Eu11 O54 2.291 . S
Eu11 C75 2.787 . S
N12 C8 1.351 . S
N12 Eu11 2.562 . S
N12 C14 1.325 . S
C13 C7 1.404 . S
C13 C15 1.366 . S
C13 H21 0.930 . S
C14 N12 1.325 . S
C14 C15 1.416 . S
C14 H20 0.929 . S
C15 C13 1.366 . S
C15 C14 1.416 . S
C15 H17 0.930 . S
H16 C5 0.930 . S
H17 C15 0.930 . S
H18 C33 0.930 . S
H19 C40 0.930 . S
H20 C14 0.929 . S
H21 C13 0.930 . S
H22 C36 0.929 . S
H23 C3 0.931 . S
H24 C9 0.931 . S
H25 C10 0.931 . S
H26 C31 0.931 . S
H27 C6 0.929 . S
H28 C39 0.930 . S
N29 Eu0 2.600 . S
N29 C30 1.365 . S
N29 C33 1.319 . S
C30 N29 1.365 . S
C30 C32 1.405 . S
C30 C38 1.448 . S
C31 H26 0.931 . S
C31 C33 1.397 . S
C31 C34 1.367 . S
C32 C30 1.405 . S
C32 C34 1.403 . S
C32 C65 1.439 . S
C33 H18 0.930 . S
C33 N29 1.319 . S
C33 C31 1.397 . S
C34 C31 1.367 . S
C34 C32 1.403 . S
C34 H41 0.929 . S
N35 Eu0 2.562 . S
N35 C36 1.325 . S
N35 C38 1.351 . S
C36 H22 0.929 . S
C36 N35 1.325 . S
C36 C40 1.416 . S
C37 C38 1.430 . S
C37 C39 1.404 . S
C37 C66 1.387 . S
C38 C30 1.448 . S
C38 N35 1.351 . S
C38 C37 1.430 . S
C39 H28 0.930 . S
C39 C37 1.404 . S
C39 C40 1.366 . S
C40 H19 0.930 . S
C40 C36 1.416 . S
C40 C39 1.366 . S
H41 C34 0.929 . S
H42 C65 0.931 . S
H43 C66 0.931 . S
O44 Eu0 2.462 . S
O44 C64 1.252 . S
O45 Eu0 2.373 . S
O45 C56 1.249 . S
O46 Eu11 2.335 . S
O46 C56 1.264 . S
O47 Eu0 2.432 . S
O47 C64 1.268 . S
O48 Eu0 2.291 . S
O48 C63 1.255 . S
O49 Eu11 2.372 . S
O49 C63 1.257 . S
O50 Eu11 2.462 . S
O50 C75 1.252 . S
O51 Eu11 2.373 . S
O51 C67 1.249 . S
O52 Eu0 2.335 . S
O52 C67 1.264 . S
O53 Eu11 2.432 . S
O53 C75 1.268 . S
O54 Eu11 2.291 . S
O54 C74 1.255 . S
O55 Eu0 2.372 . S
O55 C74 1.257 . S
C56 O45 1.249 . S
C56 O46 1.264 . S
C57 C60 1.382 . S
C57 C62 1.390 . S
C57 C64 1.506 . S
C58 C59 1.398 . S
C58 C62 1.392 . S
C59 C58 1.398 . S
C59 C61 1.372 . S
C59 H76 0.931 . S
C60 C57 1.382 . S
C60 C61 1.390 . S
C60 H77 0.931 . S
C61 C59 1.372 . S
C61 C60 1.390 . S
C61 H78 0.929 . S
C62 C57 1.390 . S
C62 C58 1.392 . S
C62 H79 0.930 . S
C63 O48 1.255 . S
C63 O49 1.257 . S
C64 Eu0 2.787 . S
C64 O44 1.252 . S
C64 O47 1.268 . S
C64 C57 1.506 . S
C65 C32 1.439 . S
C65 H42 0.931 . S
C65 C66 1.374 . S
C66 C37 1.387 . S
C66 H43 0.931 . S
C66 C65 1.374 . S
C67 O51 1.249 . S
C67 O52 1.264 . S
C68 C71 1.382 . S
C68 C72 1.390 . S
C68 C75 1.506 . S
C69 C70 1.398 . S
C69 C72 1.392 . S
C70 C69 1.398 . S
C70 C73 1.372 . S
C70 H80 0.931 . S
C71 C68 1.382 . S
C71 C73 1.390 . S
C71 H81 0.931 . S
C72 C68 1.390 . S
C72 C69 1.392 . S
C72 H82 0.930 . S
C73 C70 1.372 . S
C73 C71 1.390 . S
C73 H83 0.929 . S
C74 O54 1.255 . S
C74 O55 1.257 . S
C75 Eu11 2.787 . S
C75 O50 1.252 . S
C75 O53 1.268 . S
C75 C68 1.506 . S
H76 C59 0.931 . S
H77 C60 0.931 . S
H78 C61 0.929 . S
H79 C62 0.930 . S
H80 C70 0.931 . S
H81 C71 0.931 . S
H82 C72 0.930 . S
H83 C73 0.929 . S
Eu84 N113 2.600 . S
Eu84 N119 2.562 . S
Eu84 O128 2.462 . S
Eu84 O129 2.373 . S
Eu84 O131 2.432 . S
Eu84 O132 2.291 . S
Eu84 O136 2.335 . S
Eu84 O139 2.372 . S
Eu84 C148 2.787 . S
C85 N86 1.365 . S
C85 C88 1.405 . S
C85 C92 1.448 . S
N86 C85 1.365 . S
N86 C89 1.319 . S
N86 Eu95 2.600 . S
C87 C89 1.397 . S
C87 C90 1.367 . S
C87 H107 0.931 . S
C88 C85 1.405 . S
C88 C90 1.403 . S
C88 C94 1.439 . S
C89 N86 1.319 . S
C89 C87 1.397 . S
C89 H100 0.930 . S
C90 C87 1.367 . S
C90 C88 1.403 . S
C90 H111 0.929 . S
C91 C92 1.430 . S
C91 C93 1.387 . S
C91 C97 1.404 . S
C92 C85 1.448 . S
C92 C91 1.430 . S
C92 N96 1.351 . S
C93 C91 1.387 . S
C93 C94 1.374 . S
C93 H108 0.931 . S
C94 C88 1.439 . S
C94 C93 1.374 . S
C94 H109 0.931 . S
Eu95 N86 2.600 . S
Eu95 N96 2.562 . S
Eu95 O130 2.335 . S
Eu95 O133 2.372 . S
Eu95 O134 2.462 . S
Eu95 O135 2.373 . S
Eu95 O137 2.432 . S
Eu95 O138 2.291 . S
Eu95 C159 2.787 . S
N96 C92 1.351 . S
N96 Eu95 2.562 . S
N96 C98 1.325 . S
C97 C91 1.404 . S
C97 C99 1.366 . S
C97 H105 0.930 . S
C98 N96 1.325 . S
C98 C99 1.416 . S
C98 H104 0.929 . S
C99 C97 1.366 . S
C99 C98 1.416 . S
C99 H101 0.930 . S
H100 C89 0.930 . S
H101 C99 0.930 . S
H102 C117 0.930 . S
H103 C124 0.930 . S
H104 C98 0.929 . S
H105 C97 0.930 . S
H106 C120 0.929 . S
H107 C87 0.931 . S
H108 C93 0.931 . S
H109 C94 0.931 . S
H110 C115 0.931 . S
H111 C90 0.929 . S
H112 C123 0.930 . S
N113 Eu84 2.600 . S
N113 C114 1.365 . S
N113 C117 1.319 . S
C114 N113 1.365 . S
C114 C116 1.405 . S
C114 C122 1.448 . S
C115 H110 0.931 . S
C115 C117 1.397 . S
C115 C118 1.367 . S
C116 C114 1.405 . S
C116 C118 1.403 . S
C116 C149 1.439 . S
C117 H102 0.930 . S
C117 N113 1.319 . S
C117 C115 1.397 . S
C118 C115 1.367 . S
C118 C116 1.403 . S
C118 H125 0.929 . S
N119 Eu84 2.562 . S
N119 C120 1.325 . S
N119 C122 1.351 . S
C120 H106 0.929 . S
C120 N119 1.325 . S
C120 C124 1.416 . S
C121 C122 1.430 . S
C121 C123 1.404 . S
C121 C150 1.387 . S
C122 C114 1.448 . S
C122 N119 1.351 . S
C122 C121 1.430 . S
C123 H112 0.930 . S
C123 C121 1.404 . S
C123 C124 1.366 . S
C124 H103 0.930 . S
C124 C120 1.416 . S
C124 C123 1.366 . S
H125 C118 0.929 . S
H126 C149 0.931 . S
H127 C150 0.931 . S
O128 Eu84 2.462 . S
O128 C148 1.252 . S
O129 Eu84 2.373 . S
O129 C140 1.249 . S
O130 Eu95 2.335 . S
O130 C140 1.264 . S
O131 Eu84 2.432 . S
O131 C148 1.268 . S
O132 Eu84 2.291 . S
O132 C147 1.255 . S
O133 Eu95 2.372 . S
O133 C147 1.257 . S
O134 Eu95 2.462 . S
O134 C159 1.252 . S
O135 Eu95 2.373 . S
O135 C151 1.249 . S
O136 Eu84 2.335 . S
O136 C151 1.264 . S
O137 Eu95 2.432 . S
O137 C159 1.268 . S
O138 Eu95 2.291 . S
O138 C158 1.255 . S
O139 Eu84 2.372 . S
O139 C158 1.257 . S
C140 O129 1.249 . S
C140 O130 1.264 . S
C141 C144 1.382 . S
C141 C146 1.390 . S
C141 C148 1.506 . S
C142 C143 1.398 . S
C142 C146 1.392 . S
C143 C142 1.398 . S
C143 C145 1.372 . S
C143 H160 0.931 . S
C144 C141 1.382 . S
C144 C145 1.390 . S
C144 H161 0.931 . S
C145 C143 1.372 . S
C145 C144 1.390 . S
C145 H162 0.929 . S
C146 C141 1.390 . S
C146 C142 1.392 . S
C146 H163 0.930 . S
C147 O132 1.255 . S
C147 O133 1.257 . S
C148 Eu84 2.787 . S
C148 O128 1.252 . S
C148 O131 1.268 . S
C148 C141 1.506 . S
C149 C116 1.439 . S
C149 H126 0.931 . S
C149 C150 1.374 . S
C150 C121 1.387 . S
C150 H127 0.931 . S
C150 C149 1.374 . S
C151 O135 1.249 . S
C151 O136 1.264 . S
C152 C155 1.382 . S
C152 C156 1.390 . S
C152 C159 1.506 . S
C153 C154 1.398 . S
C153 C156 1.392 . S
C154 C153 1.398 . S
C154 C157 1.372 . S
C154 H164 0.931 . S
C155 C152 1.382 . S
C155 C157 1.390 . S
C155 H165 0.931 . S
C156 C152 1.390 . S
C156 C153 1.392 . S
C156 H166 0.930 . S
C157 C154 1.372 . S
C157 C155 1.390 . S
C157 H167 0.929 . S
C158 O138 1.255 . S
C158 O139 1.257 . S
C159 Eu95 2.787 . S
C159 O134 1.252 . S
C159 O137 1.268 . S
C159 C152 1.506 . S
H160 C143 0.931 . S
H161 C144 0.931 . S
H162 C145 0.929 . S
H163 C146 0.930 . S
H164 C154 0.931 . S
H165 C155 0.931 . S
H166 C156 0.930 . S
H167 C157 0.929 . S
Eu168 N197 2.600 . S
Eu168 N203 2.562 . S
Eu168 O212 2.462 . S
Eu168 O213 2.373 . S
Eu168 O215 2.432 . S
Eu168 O216 2.291 . S
Eu168 O220 2.335 . S
Eu168 O223 2.372 . S
Eu168 C232 2.787 . S
C169 N170 1.365 . S
C169 C172 1.405 . S
C169 C176 1.448 . S
N170 C169 1.365 . S
N170 C173 1.319 . S
N170 Eu179 2.600 . S
C171 C173 1.397 . S
C171 C174 1.367 . S
C171 H191 0.931 . S
C172 C169 1.405 . S
C172 C174 1.403 . S
C172 C178 1.439 . S
C173 N170 1.319 . S
C173 C171 1.397 . S
C173 H184 0.930 . S
C174 C171 1.367 . S
C174 C172 1.403 . S
C174 H195 0.929 . S
C175 C176 1.430 . S
C175 C177 1.387 . S
C175 C181 1.404 . S
C176 C169 1.448 . S
C176 C175 1.430 . S
C176 N180 1.351 . S
C177 C175 1.387 . S
C177 C178 1.374 . S
C177 H192 0.931 . S
C178 C172 1.439 . S
C178 C177 1.374 . S
C178 H193 0.931 . S
Eu179 N170 2.600 . S
Eu179 N180 2.562 . S
Eu179 O214 2.335 . S
Eu179 O217 2.372 . S
Eu179 O218 2.462 . S
Eu179 O219 2.373 . S
Eu179 O221 2.432 . S
Eu179 O222 2.291 . S
Eu179 C243 2.787 . S
N180 C176 1.351 . S
N180 Eu179 2.562 . S
N180 C182 1.325 . S
C181 C175 1.404 . S
C181 C183 1.366 . S
C181 H189 0.930 . S
C182 N180 1.325 . S
C182 C183 1.416 . S
C182 H188 0.929 . S
C183 C181 1.366 . S
C183 C182 1.416 . S
C183 H185 0.930 . S
H184 C173 0.930 . S
H185 C183 0.930 . S
H186 C201 0.930 . S
H187 C208 0.930 . S
H188 C182 0.929 . S
H189 C181 0.930 . S
H190 C204 0.929 . S
H191 C171 0.931 . S
H192 C177 0.931 . S
H193 C178 0.931 . S
H194 C199 0.931 . S
H195 C174 0.929 . S
H196 C207 0.930 . S
N197 Eu168 2.600 . S
N197 C198 1.365 . S
N197 C201 1.319 . S
C198 N197 1.365 . S
C198 C200 1.405 . S
C198 C206 1.448 . S
C199 H194 0.931 . S
C199 C201 1.397 . S
C199 C202 1.367 . S
C200 C198 1.405 . S
C200 C202 1.403 . S
C200 C233 1.439 . S
C201 H186 0.930 . S
C201 N197 1.319 . S
C201 C199 1.397 . S
C202 C199 1.367 . S
C202 C200 1.403 . S
C202 H209 0.929 . S
N203 Eu168 2.562 . S
N203 C204 1.325 . S
N203 C206 1.351 . S
C204 H190 0.929 . S
C204 N203 1.325 . S
C204 C208 1.416 . S
C205 C206 1.430 . S
C205 C207 1.404 . S
C205 C234 1.387 . S
C206 C198 1.448 . S
C206 N203 1.351 . S
C206 C205 1.430 . S
C207 H196 0.930 . S
C207 C205 1.404 . S
C207 C208 1.366 . S
C208 H187 0.930 . S
C208 C204 1.416 . S
C208 C207 1.366 . S
H209 C202 0.929 . S
H210 C233 0.931 . S
H211 C234 0.931 . S
O212 Eu168 2.462 . S
O212 C232 1.252 . S
O213 Eu168 2.373 . S
O213 C224 1.249 . S
O214 Eu179 2.335 . S
O214 C224 1.264 . S
O215 Eu168 2.432 . S
O215 C232 1.268 . S
O216 Eu168 2.291 . S
O216 C231 1.255 . S
O217 Eu179 2.372 . S
O217 C231 1.257 . S
O218 Eu179 2.462 . S
O218 C243 1.252 . S
O219 Eu179 2.373 . S
O219 C235 1.249 . S
O220 Eu168 2.335 . S
O220 C235 1.264 . S
O221 Eu179 2.432 . S
O221 C243 1.268 . S
O222 Eu179 2.291 . S
O222 C242 1.255 . S
O223 Eu168 2.372 . S
O223 C242 1.257 . S
C224 O213 1.249 . S
C224 O214 1.264 . S
C225 C228 1.382 . S
C225 C230 1.390 . S
C225 C232 1.506 . S
C226 C227 1.398 . S
C226 C230 1.392 . S
C227 C226 1.398 . S
C227 C229 1.372 . S
C227 H244 0.931 . S
C228 C225 1.382 . S
C228 C229 1.390 . S
C228 H245 0.931 . S
C229 C227 1.372 . S
C229 C228 1.390 . S
C229 H246 0.929 . S
C230 C225 1.390 . S
C230 C226 1.392 . S
C230 H247 0.930 . S
C231 O216 1.255 . S
C231 O217 1.257 . S
C232 Eu168 2.787 . S
C232 O212 1.252 . S
C232 O215 1.268 . S
C232 C225 1.506 . S
C233 C200 1.439 . S
C233 H210 0.931 . S
C233 C234 1.374 . S
C234 C205 1.387 . S
C234 H211 0.931 . S
C234 C233 1.374 . S
C235 O219 1.249 . S
C235 O220 1.264 . S
C236 C239 1.382 . S
C236 C240 1.390 . S
C236 C243 1.506 . S
C237 C238 1.398 . S
C237 C240 1.392 . S
C238 C237 1.398 . S
C238 C241 1.372 . S
C238 H248 0.931 . S
C239 C236 1.382 . S
C239 C241 1.390 . S
C239 H249 0.931 . S
C240 C236 1.390 . S
C240 C237 1.392 . S
C240 H250 0.930 . S
C241 C238 1.372 . S
C241 C239 1.390 . S
C241 H251 0.929 . S
C242 O222 1.255 . S
C242 O223 1.257 . S
C243 Eu179 2.787 . S
C243 O218 1.252 . S
C243 O221 1.268 . S
C243 C236 1.506 . S
H244 C227 0.931 . S
H245 C228 0.931 . S
H246 C229 0.929 . S
H247 C230 0.930 . S
H248 C238 0.931 . S
H249 C239 0.931 . S
H250 C240 0.930 . S
H251 C241 0.929 . S
Eu252 N281 2.600 . S
Eu252 N287 2.562 . S
Eu252 O296 2.462 . S
Eu252 O297 2.373 . S
Eu252 O299 2.432 . S
Eu252 O300 2.291 . S
Eu252 O304 2.335 . S
Eu252 O307 2.372 . S
Eu252 C316 2.787 . S
C253 N254 1.365 . S
C253 C256 1.405 . S
C253 C260 1.448 . S
N254 C253 1.365 . S
N254 C257 1.319 . S
N254 Eu263 2.600 . S
C255 C257 1.397 . S
C255 C258 1.367 . S
C255 H275 0.931 . S
C256 C253 1.405 . S
C256 C258 1.403 . S
C256 C262 1.439 . S
C257 N254 1.319 . S
C257 C255 1.397 . S
C257 H268 0.930 . S
C258 C255 1.367 . S
C258 C256 1.403 . S
C258 H279 0.929 . S
C259 C260 1.430 . S
C259 C261 1.387 . S
C259 C265 1.404 . S
C260 C253 1.448 . S
C260 C259 1.430 . S
C260 N264 1.351 . S
C261 C259 1.387 . S
C261 C262 1.374 . S
C261 H276 0.931 . S
C262 C256 1.439 . S
C262 C261 1.374 . S
C262 H277 0.931 . S
Eu263 N254 2.600 . S
Eu263 N264 2.562 . S
Eu263 O298 2.335 . S
Eu263 O301 2.372 . S
Eu263 O302 2.462 . S
Eu263 O303 2.373 . S
Eu263 O305 2.432 . S
Eu263 O306 2.291 . S
Eu263 C327 2.787 . S
N264 C260 1.351 . S
N264 Eu263 2.562 . S
N264 C266 1.325 . S
C265 C259 1.404 . S
C265 C267 1.366 . S
C265 H273 0.930 . S
C266 N264 1.325 . S
C266 C267 1.416 . S
C266 H272 0.929 . S
C267 C265 1.366 . S
C267 C266 1.416 . S
C267 H269 0.930 . S
H268 C257 0.930 . S
H269 C267 0.930 . S
H270 C285 0.930 . S
H271 C292 0.930 . S
H272 C266 0.929 . S
H273 C265 0.930 . S
H274 C288 0.929 . S
H275 C255 0.931 . S
H276 C261 0.931 . S
H277 C262 0.931 . S
H278 C283 0.931 . S
H279 C258 0.929 . S
H280 C291 0.930 . S
N281 Eu252 2.600 . S
N281 C282 1.365 . S
N281 C285 1.319 . S
C282 N281 1.365 . S
C282 C284 1.405 . S
C282 C290 1.448 . S
C283 H278 0.931 . S
C283 C285 1.397 . S
C283 C286 1.367 . S
C284 C282 1.405 . S
C284 C286 1.403 . S
C284 C317 1.439 . S
C285 H270 0.930 . S
C285 N281 1.319 . S
C285 C283 1.397 . S
C286 C283 1.367 . S
C286 C284 1.403 . S
C286 H293 0.929 . S
N287 Eu252 2.562 . S
N287 C288 1.325 . S
N287 C290 1.351 . S
C288 H274 0.929 . S
C288 N287 1.325 . S
C288 C292 1.416 . S
C289 C290 1.430 . S
C289 C291 1.404 . S
C289 C318 1.387 . S
C290 C282 1.448 . S
C290 N287 1.351 . S
C290 C289 1.430 . S
C291 H280 0.930 . S
C291 C289 1.404 . S
C291 C292 1.366 . S
C292 H271 0.930 . S
C292 C288 1.416 . S
C292 C291 1.366 . S
H293 C286 0.929 . S
H294 C317 0.931 . S
H295 C318 0.931 . S
O296 Eu252 2.462 . S
O296 C316 1.252 . S
O297 Eu252 2.373 . S
O297 C308 1.249 . S
O298 Eu263 2.335 . S
O298 C308 1.264 . S
O299 Eu252 2.432 . S
O299 C316 1.268 . S
O300 Eu252 2.291 . S
O300 C315 1.255 . S
O301 Eu263 2.372 . S
O301 C315 1.257 . S
O302 Eu263 2.462 . S
O302 C327 1.252 . S
O303 Eu263 2.373 . S
O303 C319 1.249 . S
O304 Eu252 2.335 . S
O304 C319 1.264 . S
O305 Eu263 2.432 . S
O305 C327 1.268 . S
O306 Eu263 2.291 . S
O306 C326 1.255 . S
O307 Eu252 2.372 . S
O307 C326 1.257 . S
C308 O297 1.249 . S
C308 O298 1.264 . S
C309 C312 1.382 . S
C309 C314 1.390 . S
C309 C316 1.506 . S
C310 C311 1.398 . S
C310 C314 1.392 . S
C311 C310 1.398 . S
C311 C313 1.372 . S
C311 H328 0.931 . S
C312 C309 1.382 . S
C312 C313 1.390 . S
C312 H329 0.931 . S
C313 C311 1.372 . S
C313 C312 1.390 . S
C313 H330 0.929 . S
C314 C309 1.390 . S
C314 C310 1.392 . S
C314 H331 0.930 . S
C315 O300 1.255 . S
C315 O301 1.257 . S
C316 Eu252 2.787 . S
C316 O296 1.252 . S
C316 O299 1.268 . S
C316 C309 1.506 . S
C317 C284 1.439 . S
C317 H294 0.931 . S
C317 C318 1.374 . S
C318 C289 1.387 . S
C318 H295 0.931 . S
C318 C317 1.374 . S
C319 O303 1.249 . S
C319 O304 1.264 . S
C320 C323 1.382 . S
C320 C324 1.390 . S
C320 C327 1.506 . S
C321 C322 1.398 . S
C321 C324 1.392 . S
C322 C321 1.398 . S
C322 C325 1.372 . S
C322 H332 0.931 . S
C323 C320 1.382 . S
C323 C325 1.390 . S
C323 H333 0.931 . S
C324 C320 1.390 . S
C324 C321 1.392 . S
C324 H334 0.930 . S
C325 C322 1.372 . S
C325 C323 1.390 . S
C325 H335 0.929 . S
C326 O306 1.255 . S
C326 O307 1.257 . S
C327 Eu263 2.787 . S
C327 O302 1.252 . S
C327 O305 1.268 . S
C327 C320 1.506 . S
H328 C311 0.931 . S
H329 C312 0.931 . S
H330 C313 0.929 . S
H331 C314 0.930 . S
H332 C322 0.931 . S
H333 C323 0.931 . S
H334 C324 0.930 . S
H335 C325 0.929 . S
Eu336 N365 2.600 . S
Eu336 N371 2.562 . S
Eu336 O380 2.462 . S
Eu336 O381 2.373 . S
Eu336 O383 2.432 . S
Eu336 O384 2.291 . S
Eu336 O388 2.335 . S
Eu336 O391 2.372 . S
Eu336 C400 2.787 . S
C337 N338 1.365 . S
C337 C340 1.405 . S
C337 C344 1.448 . S
N338 C337 1.365 . S
N338 C341 1.319 . S
N338 Eu347 2.600 . S
C339 C341 1.397 . S
C339 C342 1.367 . S
C339 H359 0.931 . S
C340 C337 1.405 . S
C340 C342 1.403 . S
C340 C346 1.439 . S
C341 N338 1.319 . S
C341 C339 1.397 . S
C341 H352 0.930 . S
C342 C339 1.367 . S
C342 C340 1.403 . S
C342 H363 0.929 . S
C343 C344 1.430 . S
C343 C345 1.387 . S
C343 C349 1.404 . S
C344 C337 1.448 . S
C344 C343 1.430 . S
C344 N348 1.351 . S
C345 C343 1.387 . S
C345 C346 1.374 . S
C345 H360 0.931 . S
C346 C340 1.439 . S
C346 C345 1.374 . S
C346 H361 0.931 . S
Eu347 N338 2.600 . S
Eu347 N348 2.562 . S
Eu347 O382 2.335 . S
Eu347 O385 2.372 . S
Eu347 O386 2.462 . S
Eu347 O387 2.373 . S
Eu347 O389 2.432 . S
Eu347 O390 2.291 . S
Eu347 C411 2.787 . S
N348 C344 1.351 . S
N348 Eu347 2.562 . S
N348 C350 1.325 . S
C349 C343 1.404 . S
C349 C351 1.366 . S
C349 H357 0.930 . S
C350 N348 1.325 . S
C350 C351 1.416 . S
C350 H356 0.929 . S
C351 C349 1.366 . S
C351 C350 1.416 . S
C351 H353 0.930 . S
H352 C341 0.930 . S
H353 C351 0.930 . S
H354 C369 0.930 . S
H355 C376 0.930 . S
H356 C350 0.929 . S
H357 C349 0.930 . S
H358 C372 0.929 . S
H359 C339 0.931 . S
H360 C345 0.931 . S
H361 C346 0.931 . S
H362 C367 0.931 . S
H363 C342 0.929 . S
H364 C375 0.930 . S
N365 Eu336 2.600 . S
N365 C366 1.365 . S
N365 C369 1.319 . S
C366 N365 1.365 . S
C366 C368 1.405 . S
C366 C374 1.448 . S
C367 H362 0.931 . S
C367 C369 1.397 . S
C367 C370 1.367 . S
C368 C366 1.405 . S
C368 C370 1.403 . S
C368 C401 1.439 . S
C369 H354 0.930 . S
C369 N365 1.319 . S
C369 C367 1.397 . S
C370 C367 1.367 . S
C370 C368 1.403 . S
C370 H377 0.929 . S
N371 Eu336 2.562 . S
N371 C372 1.325 . S
N371 C374 1.351 . S
C372 H358 0.929 . S
C372 N371 1.325 . S
C372 C376 1.416 . S
C373 C374 1.430 . S
C373 C375 1.404 . S
C373 C402 1.387 . S
C374 C366 1.448 . S
C374 N371 1.351 . S
C374 C373 1.430 . S
C375 H364 0.930 . S
C375 C373 1.404 . S
C375 C376 1.366 . S
C376 H355 0.930 . S
C376 C372 1.416 . S
C376 C375 1.366 . S
H377 C370 0.929 . S
H378 C401 0.931 . S
H379 C402 0.931 . S
O380 Eu336 2.462 . S
O380 C400 1.252 . S
O381 Eu336 2.373 . S
O381 C392 1.249 . S
O382 Eu347 2.335 . S
O382 C392 1.264 . S
O383 Eu336 2.432 . S
O383 C400 1.268 . S
O384 Eu336 2.291 . S
O384 C399 1.255 . S
O385 Eu347 2.372 . S
O385 C399 1.257 . S
O386 Eu347 2.462 . S
O386 C411 1.252 . S
O387 Eu347 2.373 . S
O387 C403 1.249 . S
O388 Eu336 2.335 . S
O388 C403 1.264 . S
O389 Eu347 2.432 . S
O389 C411 1.268 . S
O390 Eu347 2.291 . S
O390 C410 1.255 . S
O391 Eu336 2.372 . S
O391 C410 1.257 . S
C392 O381 1.249 . S
C392 O382 1.264 . S
C393 C396 1.382 . S
C393 C398 1.390 . S
C393 C400 1.506 . S
C394 C395 1.398 . S
C394 C398 1.392 . S
C395 C394 1.398 . S
C395 C397 1.372 . S
C395 H412 0.931 . S
C396 C393 1.382 . S
C396 C397 1.390 . S
C396 H413 0.931 . S
C397 C395 1.372 . S
C397 C396 1.390 . S
C397 H414 0.929 . S
C398 C393 1.390 . S
C398 C394 1.392 . S
C398 H415 0.930 . S
C399 O384 1.255 . S
C399 O385 1.257 . S
C400 Eu336 2.787 . S
C400 O380 1.252 . S
C400 O383 1.268 . S
C400 C393 1.506 . S
C401 C368 1.439 . S
C401 H378 0.931 . S
C401 C402 1.374 . S
C402 C373 1.387 . S
C402 H379 0.931 . S
C402 C401 1.374 . S
C403 O387 1.249 . S
C403 O388 1.264 . S
C404 C407 1.382 . S
C404 C408 1.390 . S
C404 C411 1.506 . S
C405 C406 1.398 . S
C405 C408 1.392 . S
C406 C405 1.398 . S
C406 C409 1.372 . S
C406 H416 0.931 . S
C407 C404 1.382 . S
C407 C409 1.390 . S
C407 H417 0.931 . S
C408 C404 1.390 . S
C408 C405 1.392 . S
C408 H418 0.930 . S
C409 C406 1.372 . S
C409 C407 1.390 . S
C409 H419 0.929 . S
C410 O390 1.255 . S
C410 O391 1.257 . S
C411 Eu347 2.787 . S
C411 O386 1.252 . S
C411 O389 1.268 . S
C411 C404 1.506 . S
H412 C395 0.931 . S
H413 C396 0.931 . S
H414 C397 0.929 . S
H415 C398 0.930 . S
H416 C406 0.931 . S
H417 C407 0.931 . S
H418 C408 0.930 . S
H419 C409 0.929 . S
Eu420 N449 2.600 . S
Eu420 N455 2.562 . S
Eu420 O464 2.462 . S
Eu420 O465 2.373 . S
Eu420 O467 2.432 . S
Eu420 O468 2.291 . S
Eu420 O472 2.335 . S
Eu420 O475 2.372 . S
Eu420 C484 2.787 . S
C421 N422 1.365 . S
C421 C424 1.405 . S
C421 C428 1.448 . S
N422 C421 1.365 . S
N422 C425 1.319 . S
N422 Eu431 2.600 . S
C423 C425 1.397 . S
C423 C426 1.367 . S
C423 H443 0.931 . S
C424 C421 1.405 . S
C424 C426 1.403 . S
C424 C430 1.439 . S
C425 N422 1.319 . S
C425 C423 1.397 . S
C425 H436 0.930 . S
C426 C423 1.367 . S
C426 C424 1.403 . S
C426 H447 0.929 . S
C427 C428 1.430 . S
C427 C429 1.387 . S
C427 C433 1.404 . S
C428 C421 1.448 . S
C428 C427 1.430 . S
C428 N432 1.351 . S
C429 C427 1.387 . S
C429 C430 1.374 . S
C429 H444 0.931 . S
C430 C424 1.439 . S
C430 C429 1.374 . S
C430 H445 0.931 . S
Eu431 N422 2.600 . S
Eu431 N432 2.562 . S
Eu431 O466 2.335 . S
Eu431 O469 2.372 . S
Eu431 O470 2.462 . S
Eu431 O471 2.373 . S
Eu431 O473 2.432 . S
Eu431 O474 2.291 . S
Eu431 C495 2.787 . S
N432 C428 1.351 . S
N432 Eu431 2.562 . S
N432 C434 1.325 . S
C433 C427 1.404 . S
C433 C435 1.366 . S
C433 H441 0.930 . S
C434 N432 1.325 . S
C434 C435 1.416 . S
C434 H440 0.929 . S
C435 C433 1.366 . S
C435 C434 1.416 . S
C435 H437 0.930 . S
H436 C425 0.930 . S
H437 C435 0.930 . S
H438 C453 0.930 . S
H439 C460 0.930 . S
H440 C434 0.929 . S
H441 C433 0.930 . S
H442 C456 0.929 . S
H443 C423 0.931 . S
H444 C429 0.931 . S
H445 C430 0.931 . S
H446 C451 0.931 . S
H447 C426 0.929 . S
H448 C459 0.930 . S
N449 Eu420 2.600 . S
N449 C450 1.365 . S
N449 C453 1.319 . S
C450 N449 1.365 . S
C450 C452 1.405 . S
C450 C458 1.448 . S
C451 H446 0.931 . S
C451 C453 1.397 . S
C451 C454 1.367 . S
C452 C450 1.405 . S
C452 C454 1.403 . S
C452 C485 1.439 . S
C453 H438 0.930 . S
C453 N449 1.319 . S
C453 C451 1.397 . S
C454 C451 1.367 . S
C454 C452 1.403 . S
C454 H461 0.929 . S
N455 Eu420 2.562 . S
N455 C456 1.325 . S
N455 C458 1.351 . S
C456 H442 0.929 . S
C456 N455 1.325 . S
C456 C460 1.416 . S
C457 C458 1.430 . S
C457 C459 1.404 . S
C457 C486 1.387 . S
C458 C450 1.448 . S
C458 N455 1.351 . S
C458 C457 1.430 . S
C459 H448 0.930 . S
C459 C457 1.404 . S
C459 C460 1.366 . S
C460 H439 0.930 . S
C460 C456 1.416 . S
C460 C459 1.366 . S
H461 C454 0.929 . S
H462 C485 0.931 . S
H463 C486 0.931 . S
O464 Eu420 2.462 . S
O464 C484 1.252 . S
O465 Eu420 2.373 . S
O465 C476 1.249 . S
O466 Eu431 2.335 . S
O466 C476 1.264 . S
O467 Eu420 2.432 . S
O467 C484 1.268 . S
O468 Eu420 2.291 . S
O468 C483 1.255 . S
O469 Eu431 2.372 . S
O469 C483 1.257 . S
O470 Eu431 2.462 . S
O470 C495 1.252 . S
O471 Eu431 2.373 . S
O471 C487 1.249 . S
O472 Eu420 2.335 . S
O472 C487 1.264 . S
O473 Eu431 2.432 . S
O473 C495 1.268 . S
O474 Eu431 2.291 . S
O474 C494 1.255 . S
O475 Eu420 2.372 . S
O475 C494 1.257 . S
C476 O465 1.249 . S
C476 O466 1.264 . S
C477 C480 1.382 . S
C477 C482 1.390 . S
C477 C484 1.506 . S
C478 C479 1.398 . S
C478 C482 1.392 . S
C479 C478 1.398 . S
C479 C481 1.372 . S
C479 H496 0.931 . S
C480 C477 1.382 . S
C480 C481 1.390 . S
C480 H497 0.931 . S
C481 C479 1.372 . S
C481 C480 1.390 . S
C481 H498 0.929 . S
C482 C477 1.390 . S
C482 C478 1.392 . S
C482 H499 0.930 . S
C483 O468 1.255 . S
C483 O469 1.257 . S
C484 Eu420 2.787 . S
C484 O464 1.252 . S
C484 O467 1.268 . S
C484 C477 1.506 . S
C485 C452 1.439 . S
C485 H462 0.931 . S
C485 C486 1.374 . S
C486 C457 1.387 . S
C486 H463 0.931 . S
C486 C485 1.374 . S
C487 O471 1.249 . S
C487 O472 1.264 . S
C488 C491 1.382 . S
C488 C492 1.390 . S
C488 C495 1.506 . S
C489 C490 1.398 . S
C489 C492 1.392 . S
C490 C489 1.398 . S
C490 C493 1.372 . S
C490 H500 0.931 . S
C491 C488 1.382 . S
C491 C493 1.390 . S
C491 H501 0.931 . S
C492 C488 1.390 . S
C492 C489 1.392 . S
C492 H502 0.930 . S
C493 C490 1.372 . S
C493 C491 1.390 . S
C493 H503 0.929 . S
C494 O474 1.255 . S
C494 O475 1.257 . S
C495 Eu431 2.787 . S
C495 O470 1.252 . S
C495 O473 1.268 . S
C495 C488 1.506 . S
H496 C479 0.931 . S
H497 C480 0.931 . S
H498 C481 0.929 . S
H499 C482 0.930 . S
H500 C490 0.931 . S
H501 C491 0.931 . S
H502 C492 0.930 . S
H503 C493 0.929 . S
Eu504 N533 2.600 . S
Eu504 N539 2.562 . S
Eu504 O548 2.462 . S
Eu504 O549 2.373 . S
Eu504 O551 2.432 . S
Eu504 O552 2.291 . S
Eu504 O556 2.335 . S
Eu504 O559 2.372 . S
Eu504 C568 2.787 . S
C505 N506 1.365 . S
C505 C508 1.405 . S
C505 C512 1.448 . S
N506 C505 1.365 . S
N506 C509 1.319 . S
N506 Eu515 2.600 . S
C507 C509 1.397 . S
C507 C510 1.367 . S
C507 H527 0.931 . S
C508 C505 1.405 . S
C508 C510 1.403 . S
C508 C514 1.439 . S
C509 N506 1.319 . S
C509 C507 1.397 . S
C509 H520 0.930 . S
C510 C507 1.367 . S
C510 C508 1.403 . S
C510 H531 0.929 . S
C511 C512 1.430 . S
C511 C513 1.387 . S
C511 C517 1.404 . S
C512 C505 1.448 . S
C512 C511 1.430 . S
C512 N516 1.351 . S
C513 C511 1.387 . S
C513 C514 1.374 . S
C513 H528 0.931 . S
C514 C508 1.439 . S
C514 C513 1.374 . S
C514 H529 0.931 . S
Eu515 N506 2.600 . S
Eu515 N516 2.562 . S
Eu515 O550 2.335 . S
Eu515 O553 2.372 . S
Eu515 O554 2.462 . S
Eu515 O555 2.373 . S
Eu515 O557 2.432 . S
Eu515 O558 2.291 . S
Eu515 C579 2.787 . S
N516 C512 1.351 . S
N516 Eu515 2.562 . S
N516 C518 1.325 . S
C517 C511 1.404 . S
C517 C519 1.366 . S
C517 H525 0.930 . S
C518 N516 1.325 . S
C518 C519 1.416 . S
C518 H524 0.929 . S
C519 C517 1.366 . S
C519 C518 1.416 . S
C519 H521 0.930 . S
H520 C509 0.930 . S
H521 C519 0.930 . S
H522 C537 0.930 . S
H523 C544 0.930 . S
H524 C518 0.929 . S
H525 C517 0.930 . S
H526 C540 0.929 . S
H527 C507 0.931 . S
H528 C513 0.931 . S
H529 C514 0.931 . S
H530 C535 0.931 . S
H531 C510 0.929 . S
H532 C543 0.930 . S
N533 Eu504 2.600 . S
N533 C534 1.365 . S
N533 C537 1.319 . S
C534 N533 1.365 . S
C534 C536 1.405 . S
C534 C542 1.448 . S
C535 H530 0.931 . S
C535 C537 1.397 . S
C535 C538 1.367 . S
C536 C534 1.405 . S
C536 C538 1.403 . S
C536 C569 1.439 . S
C537 H522 0.930 . S
C537 N533 1.319 . S
C537 C535 1.397 . S
C538 C535 1.367 . S
C538 C536 1.403 . S
C538 H545 0.929 . S
N539 Eu504 2.562 . S
N539 C540 1.325 . S
N539 C542 1.351 . S
C540 H526 0.929 . S
C540 N539 1.325 . S
C540 C544 1.416 . S
C541 C542 1.430 . S
C541 C543 1.404 . S
C541 C570 1.387 . S
C542 C534 1.448 . S
C542 N539 1.351 . S
C542 C541 1.430 . S
C543 H532 0.930 . S
C543 C541 1.404 . S
C543 C544 1.366 . S
C544 H523 0.930 . S
C544 C540 1.416 . S
C544 C543 1.366 . S
H545 C538 0.929 . S
H546 C569 0.931 . S
H547 C570 0.931 . S
O548 Eu504 2.462 . S
O548 C568 1.252 . S
O549 Eu504 2.373 . S
O549 C560 1.249 . S
O550 Eu515 2.335 . S
O550 C560 1.264 . S
O551 Eu504 2.432 . S
O551 C568 1.268 . S
O552 Eu504 2.291 . S
O552 C567 1.255 . S
O553 Eu515 2.372 . S
O553 C567 1.257 . S
O554 Eu515 2.462 . S
O554 C579 1.252 . S
O555 Eu515 2.373 . S
O555 C571 1.249 . S
O556 Eu504 2.335 . S
O556 C571 1.264 . S
O557 Eu515 2.432 . S
O557 C579 1.268 . S
O558 Eu515 2.291 . S
O558 C578 1.255 . S
O559 Eu504 2.372 . S
O559 C578 1.257 . S
C560 O549 1.249 . S
C560 O550 1.264 . S
C561 C564 1.382 . S
C561 C566 1.390 . S
C561 C568 1.506 . S
C562 C563 1.398 . S
C562 C566 1.392 . S
C563 C562 1.398 . S
C563 C565 1.372 . S
C563 H580 0.931 . S
C564 C561 1.382 . S
C564 C565 1.390 . S
C564 H581 0.931 . S
C565 C563 1.372 . S
C565 C564 1.390 . S
C565 H582 0.929 . S
C566 C561 1.390 . S
C566 C562 1.392 . S
C566 H583 0.930 . S
C567 O552 1.255 . S
C567 O553 1.257 . S
C568 Eu504 2.787 . S
C568 O548 1.252 . S
C568 O551 1.268 . S
C568 C561 1.506 . S
C569 C536 1.439 . S
C569 H546 0.931 . S
C569 C570 1.374 . S
C570 C541 1.387 . S
C570 H547 0.931 . S
C570 C569 1.374 . S
C571 O555 1.249 . S
C571 O556 1.264 . S
C572 C575 1.382 . S
C572 C576 1.390 . S
C572 C579 1.506 . S
C573 C574 1.398 . S
C573 C576 1.392 . S
C574 C573 1.398 . S
C574 C577 1.372 . S
C574 H584 0.931 . S
C575 C572 1.382 . S
C575 C577 1.390 . S
C575 H585 0.931 . S
C576 C572 1.390 . S
C576 C573 1.392 . S
C576 H586 0.930 . S
C577 C574 1.372 . S
C577 C575 1.390 . S
C577 H587 0.929 . S
C578 O558 1.255 . S
C578 O559 1.257 . S
C579 Eu515 2.787 . S
C579 O554 1.252 . S
C579 O557 1.268 . S
C579 C572 1.506 . S
H580 C563 0.931 . S
H581 C564 0.931 . S
H582 C565 0.929 . S
H583 C566 0.930 . S
H584 C574 0.931 . S
H585 C575 0.931 . S
H586 C576 0.930 . S
H587 C577 0.929 . S
Eu588 N617 2.600 . S
Eu588 N623 2.562 . S
Eu588 O632 2.462 . S
Eu588 O633 2.373 . S
Eu588 O635 2.432 . S
Eu588 O636 2.291 . S
Eu588 O640 2.335 . S
Eu588 O643 2.372 . S
Eu588 C652 2.787 . S
C589 N590 1.365 . S
C589 C592 1.405 . S
C589 C596 1.448 . S
N590 C589 1.365 . S
N590 C593 1.319 . S
N590 Eu599 2.600 . S
C591 C593 1.397 . S
C591 C594 1.367 . S
C591 H611 0.931 . S
C592 C589 1.405 . S
C592 C594 1.403 . S
C592 C598 1.439 . S
C593 N590 1.319 . S
C593 C591 1.397 . S
C593 H604 0.930 . S
C594 C591 1.367 . S
C594 C592 1.403 . S
C594 H615 0.929 . S
C595 C596 1.430 . S
C595 C597 1.387 . S
C595 C601 1.404 . S
C596 C589 1.448 . S
C596 C595 1.430 . S
C596 N600 1.351 . S
C597 C595 1.387 . S
C597 C598 1.374 . S
C597 H612 0.931 . S
C598 C592 1.439 . S
C598 C597 1.374 . S
C598 H613 0.931 . S
Eu599 N590 2.600 . S
Eu599 N600 2.562 . S
Eu599 O634 2.335 . S
Eu599 O637 2.372 . S
Eu599 O638 2.462 . S
Eu599 O639 2.373 . S
Eu599 O641 2.432 . S
Eu599 O642 2.291 . S
Eu599 C663 2.787 . S
N600 C596 1.351 . S
N600 Eu599 2.562 . S
N600 C602 1.325 . S
C601 C595 1.404 . S
C601 C603 1.366 . S
C601 H609 0.930 . S
C602 N600 1.325 . S
C602 C603 1.416 . S
C602 H608 0.929 . S
C603 C601 1.366 . S
C603 C602 1.416 . S
C603 H605 0.930 . S
H604 C593 0.930 . S
H605 C603 0.930 . S
H606 C621 0.930 . S
H607 C628 0.930 . S
H608 C602 0.929 . S
H609 C601 0.930 . S
H610 C624 0.929 . S
H611 C591 0.931 . S
H612 C597 0.931 . S
H613 C598 0.931 . S
H614 C619 0.931 . S
H615 C594 0.929 . S
H616 C627 0.930 . S
N617 Eu588 2.600 . S
N617 C618 1.365 . S
N617 C621 1.319 . S
C618 N617 1.365 . S
C618 C620 1.405 . S
C618 C626 1.448 . S
C619 H614 0.931 . S
C619 C621 1.397 . S
C619 C622 1.367 . S
C620 C618 1.405 . S
C620 C622 1.403 . S
C620 C653 1.439 . S
C621 H606 0.930 . S
C621 N617 1.319 . S
C621 C619 1.397 . S
C622 C619 1.367 . S
C622 C620 1.403 . S
C622 H629 0.929 . S
N623 Eu588 2.562 . S
N623 C624 1.325 . S
N623 C626 1.351 . S
C624 H610 0.929 . S
C624 N623 1.325 . S
C624 C628 1.416 . S
C625 C626 1.430 . S
C625 C627 1.404 . S
C625 C654 1.387 . S
C626 C618 1.448 . S
C626 N623 1.351 . S
C626 C625 1.430 . S
C627 H616 0.930 . S
C627 C625 1.404 . S
C627 C628 1.366 . S
C628 H607 0.930 . S
C628 C624 1.416 . S
C628 C627 1.366 . S
H629 C622 0.929 . S
H630 C653 0.931 . S
H631 C654 0.931 . S
O632 Eu588 2.462 . S
O632 C652 1.252 . S
O633 Eu588 2.373 . S
O633 C644 1.249 . S
O634 Eu599 2.335 . S
O634 C644 1.264 . S
O635 Eu588 2.432 . S
O635 C652 1.268 . S
O636 Eu588 2.291 . S
O636 C651 1.255 . S
O637 Eu599 2.372 . S
O637 C651 1.257 . S
O638 Eu599 2.462 . S
O638 C663 1.252 . S
O639 Eu599 2.373 . S
O639 C655 1.249 . S
O640 Eu588 2.335 . S
O640 C655 1.264 . S
O641 Eu599 2.432 . S
O641 C663 1.268 . S
O642 Eu599 2.291 . S
O642 C662 1.255 . S
O643 Eu588 2.372 . S
O643 C662 1.257 . S
C644 O633 1.249 . S
C644 O634 1.264 . S
C645 C648 1.382 . S
C645 C650 1.390 . S
C645 C652 1.506 . S
C646 C647 1.398 . S
C646 C650 1.392 . S
C647 C646 1.398 . S
C647 C649 1.372 . S
C647 H664 0.931 . S
C648 C645 1.382 . S
C648 C649 1.390 . S
C648 H665 0.931 . S
C649 C647 1.372 . S
C649 C648 1.390 . S
C649 H666 0.929 . S
C650 C645 1.390 . S
C650 C646 1.392 . S
C650 H667 0.930 . S
C651 O636 1.255 . S
C651 O637 1.257 . S
C652 Eu588 2.787 . S
C652 O632 1.252 . S
C652 O635 1.268 . S
C652 C645 1.506 . S
C653 C620 1.439 . S
C653 H630 0.931 . S
C653 C654 1.374 . S
C654 C625 1.387 . S
C654 H631 0.931 . S
C654 C653 1.374 . S
C655 O639 1.249 . S
C655 O640 1.264 . S
C656 C659 1.382 . S
C656 C660 1.390 . S
C656 C663 1.506 . S
C657 C658 1.398 . S
C657 C660 1.392 . S
C658 C657 1.398 . S
C658 C661 1.372 . S
C658 H668 0.931 . S
C659 C656 1.382 . S
C659 C661 1.390 . S
C659 H669 0.931 . S
C660 C656 1.390 . S
C660 C657 1.392 . S
C660 H670 0.930 . S
C661 C658 1.372 . S
C661 C659 1.390 . S
C661 H671 0.929 . S
C662 O642 1.255 . S
C662 O643 1.257 . S
C663 Eu599 2.787 . S
C663 O638 1.252 . S
C663 O641 1.268 . S
C663 C656 1.506 . S
H664 C647 0.931 . S
H665 C648 0.931 . S
H666 C649 0.929 . S
H667 C650 0.930 . S
H668 C658 0.931 . S
H669 C659 0.931 . S
H670 C660 0.930 . S
H671 C661 0.929 . S
C672 O684 1.241 . S
C672 O685 1.280 . S
C673 O686 1.277 . S
C673 O687 1.245 . S
C674 O698 1.247 . S
C674 O700 1.289 . S
Mg675 O676 1.926 . S
Mg675 O685 1.984 . S
Mg675 O687 1.988 . S
Mg675 O688 2.061 1_655 S
O676 Mg675 1.926 . S
O676 Mg677 1.986 1_545 S
O676 Mg678 1.912 1_655 S
Mg677 O676 1.986 1_565 S
Mg677 O684 2.041 1_565 S
Mg677 O686 2.039 1_565 S
Mg677 O692 2.040 . S
Mg677 O700 2.239 . S
Mg678 O676 1.912 1_455 S
Mg678 O679 1.922 1_545 S
Mg678 O689 2.111 . S
Mg678 O691 2.078 1_445 S
Mg678 O700 2.102 1_445 S
Mg678 O701 2.080 . S
O679 Mg678 1.922 1_565 S
O679 Mg680 1.926 . S
O679 Mg681 1.984 1_565 S
Mg680 O679 1.926 . S
Mg680 O694 1.984 . S
Mg680 O697 1.988 . S
Mg680 O698 2.061 1_455 S
Mg681 O679 1.984 1_545 S
Mg681 O689 2.246 . S
Mg681 O693 2.035 1_545 S
Mg681 O695 2.033 1_545 S
Mg681 O702 2.047 . S
C682 O688 1.247 . S
C682 O689 1.289 . S
C683 O701 1.245 . S
C683 O702 1.274 . S
O684 C672 1.241 . S
O684 Mg677 2.041 1_545 S
O685 C672 1.280 . S
O685 Mg675 1.984 . S
O686 C673 1.277 . S
O686 Mg677 2.039 1_545 S
O687 C673 1.245 . S
O687 Mg675 1.988 . S
O688 Mg675 2.061 1_455 S
O688 C682 1.247 . S
O689 Mg678 2.111 . S
O689 Mg681 2.246 . S
O689 C682 1.289 . S
C690 O691 1.245 . S
C690 O692 1.274 . S
O691 Mg678 2.078 1_665 S
O691 C690 1.245 . S
O692 Mg677 2.040 . S
O692 C690 1.274 . S
O693 Mg681 2.035 1_565 S
O693 C696 1.241 . S
O694 Mg680 1.984 . S
O694 C696 1.280 . S
O695 Mg681 2.033 1_565 S
O695 C699 1.277 . S
C696 O693 1.241 . S
C696 O694 1.280 . S
O697 Mg680 1.988 . S
O697 C699 1.245 . S
O698 C674 1.247 . S
O698 Mg680 2.061 1_655 S
C699 O695 1.277 . S
C699 O697 1.245 . S
O700 C674 1.289 . S
O700 Mg677 2.239 . S
O700 Mg678 2.102 1_665 S
O701 Mg678 2.080 . S
O701 C683 1.245 . S
O702 Mg681 2.047 . S
O702 C683 1.274 . S
C703 O715 1.241 . S
C703 O716 1.280 . S
C704 O717 1.277 . S
C704 O718 1.245 . S
C705 O729 1.247 . S
C705 O731 1.289 . S
Mg706 O707 1.926 . S
Mg706 O716 1.984 . S
Mg706 O718 1.988 1_554 S
Mg706 O719 2.061 . S
O707 Mg706 1.926 . S
O707 Mg708 1.986 1_545 S
O707 Mg709 1.918 . S
Mg708 O707 1.986 1_565 S
Mg708 O715 2.041 1_565 S
Mg708 O717 2.039 1_564 S
Mg708 O723 2.040 . S
Mg708 O731 2.239 1_554 S
Mg709 O707 1.918 . S
Mg709 O710 1.916 1_544 S
Mg709 O720 2.108 . S
Mg709 O722 2.082 1_545 S
Mg709 O731 2.105 1_544 S
Mg709 O732 2.076 1_554 S
O710 Mg709 1.916 1_566 S
O710 Mg711 1.926 . S
O710 Mg712 1.984 1_565 S
Mg711 O710 1.926 . S
Mg711 O725 1.984 . S
Mg711 O728 1.988 1_556 S
Mg711 O729 2.061 . S
Mg712 O710 1.984 1_545 S
Mg712 O720 2.246 1_556 S
Mg712 O724 2.035 1_545 S
Mg712 O726 2.033 1_546 S
Mg712 O733 2.047 . S
C713 O719 1.247 . S
C713 O720 1.289 . S
C714 O732 1.245 . S
C714 O733 1.274 . S
O715 C703 1.241 . S
O715 Mg708 2.041 1_545 S
O716 C703 1.280 . S
O716 Mg706 1.984 . S
O717 C704 1.277 . S
O717 Mg708 2.039 1_546 S
O718 C704 1.245 . S
O718 Mg706 1.988 1_556 S
O719 Mg706 2.061 . S
O719 C713 1.247 . S
O720 Mg709 2.108 . S
O720 Mg712 2.246 1_554 S
O720 C713 1.289 . S
C721 O722 1.245 . S
C721 O723 1.274 . S
O722 Mg709 2.082 1_565 S
O722 C721 1.245 . S
O723 Mg708 2.040 . S
O723 C721 1.274 . S
O724 Mg712 2.035 1_565 S
O724 C727 1.241 . S
O725 Mg711 1.984 . S
O725 C727 1.280 . S
O726 Mg712 2.033 1_564 S
O726 C730 1.277 . S
C727 O724 1.241 . S
C727 O725 1.280 . S
O728 Mg711 1.988 1_554 S
O728 C730 1.245 . S
O729 C705 1.247 . S
O729 Mg711 2.061 . S
C730 O726 1.277 . S
C730 O728 1.245 . S
O731 C705 1.289 . S
O731 Mg708 2.239 1_556 S
O731 Mg709 2.105 1_566 S
O732 Mg709 2.076 1_556 S
O732 C714 1.245 . S
O733 Mg712 2.047 . S
O733 C714 1.274 . S
C734 O746 1.241 . S
C734 O747 1.280 . S
C735 O748 1.277 . S
C735 O749 1.245 . S
C736 O760 1.247 . S
C736 O762 1.289 . S
Mg737 O738 1.926 . S
Mg737 O747 1.984 . S
Mg737 O749 1.988 1_554 S
Mg737 O750 2.061 1_655 S
O738 Mg737 1.926 . S
O738 Mg739 1.986 . S
O738 Mg740 1.912 1_655 S
Mg739 O738 1.986 . S
Mg739 O746 2.042 . S
Mg739 O748 2.041 1_554 S
Mg739 O754 2.038 . S
Mg739 O762 2.238 1_554 S
Mg740 O738 1.912 1_455 S
Mg740 O741 1.921 1_554 S
Mg740 O751 2.113 . S
Mg740 O753 2.081 1_455 S
Mg740 O762 2.100 1_454 S
Mg740 O763 2.077 1_554 S
O741 Mg740 1.921 1_556 S
O741 Mg742 1.926 . S
O741 Mg743 1.986 . S
Mg742 O741 1.926 . S
Mg742 O756 1.984 . S
Mg742 O759 1.988 1_556 S
Mg742 O760 2.061 1_455 S
Mg743 O741 1.986 . S
Mg743 O751 2.238 1_556 S
Mg743 O755 2.042 . S
Mg743 O757 2.041 1_556 S
Mg743 O764 2.038 . S
C744 O750 1.247 . S
C744 O751 1.289 . S
C745 O763 1.245 . S
C745 O764 1.274 . S
O746 C734 1.241 . S
O746 Mg739 2.042 . S
O747 C734 1.280 . S
O747 Mg737 1.984 . S
O748 C735 1.277 . S
O748 Mg739 2.041 1_556 S
O749 C735 1.245 . S
O749 Mg737 1.988 1_556 S
O750 Mg737 2.061 1_455 S
O750 C744 1.247 . S
O751 Mg740 2.113 . S
O751 Mg743 2.238 1_554 S
O751 C744 1.289 . S
C752 O753 1.245 . S
C752 O754 1.274 . S
O753 Mg740 2.081 1_655 S
O753 C752 1.245 . S
O754 Mg739 2.038 . S
O754 C752 1.274 . S
O755 Mg743 2.042 . S
O755 C758 1.241 . S
O756 Mg742 1.984 . S
O756 C758 1.280 . S
O757 Mg743 2.041 1_554 S
O757 C761 1.277 . S
C758 O755 1.241 . S
C758 O756 1.280 . S
O759 Mg742 1.988 1_554 S
O759 C761 1.245 . S
O760 C736 1.247 . S
O760 Mg742 2.061 1_655 S
C761 O757 1.277 . S
C761 O759 1.245 . S
O762 C736 1.289 . S
O762 Mg739 2.238 1_556 S
O762 Mg740 2.100 1_656 S
O763 Mg740 2.077 1_556 S
O763 C745 1.245 . S
O764 Mg743 2.038 . S
O764 C745 1.274 . S
C765 O777 1.241 . S
C765 O778 1.280 . S
C766 O779 1.277 . S
C766 O780 1.245 . S
C767 O791 1.247 . S
C767 O793 1.289 . S
Mg768 O769 1.926 . S
Mg768 O778 1.984 . S
Mg768 O780 1.988 1_554 S
Mg768 O781 2.061 . S
O769 Mg768 1.926 . S
O769 Mg770 1.986 . S
O769 Mg771 1.918 . S
Mg770 O769 1.986 . S
Mg770 O777 2.042 . S
Mg770 O779 2.041 1_554 S
Mg770 O785 2.038 . S
Mg770 O793 2.238 1_554 S
Mg771 O769 1.918 . S
Mg771 O772 1.916 1_554 S
Mg771 O782 2.108 . S
Mg771 O784 2.081 . S
Mg771 O793 2.105 1_554 S
Mg771 O794 2.076 1_554 S
O772 Mg771 1.916 1_556 S
O772 Mg773 1.926 . S
O772 Mg774 1.986 . S
Mg773 O772 1.926 . S
Mg773 O787 1.984 . S
Mg773 O790 1.988 1_556 S
Mg773 O791 2.061 . S
Mg774 O772 1.986 . S
Mg774 O782 2.238 1_556 S
Mg774 O786 2.042 . S
Mg774 O788 2.041 1_556 S
Mg774 O795 2.038 . S
C775 O781 1.247 . S
C775 O782 1.289 . S
C776 O794 1.245 . S
C776 O795 1.274 . S
O777 C765 1.241 . S
O777 Mg770 2.042 . S
O778 C765 1.280 . S
O778 Mg768 1.984 . S
O779 C766 1.277 . S
O779 Mg770 2.041 1_556 S
O780 C766 1.245 . S
O780 Mg768 1.988 1_556 S
O781 Mg768 2.061 . S
O781 C775 1.247 . S
O782 Mg771 2.108 . S
O782 Mg774 2.238 1_554 S
O782 C775 1.289 . S
C783 O784 1.245 . S
C783 O785 1.274 . S
O784 Mg771 2.081 . S
O784 C783 1.245 . S
O785 Mg770 2.038 . S
O785 C783 1.274 . S
O786 Mg774 2.042 . S
O786 C789 1.241 . S
O787 Mg773 1.984 . S
O787 C789 1.280 . S
O788 Mg774 2.041 1_554 S
O788 C792 1.277 . S
C789 O786 1.241 . S
C789 O787 1.280 . S
O790 Mg773 1.988 1_554 S
O790 C792 1.245 . S
O791 C767 1.247 . S
O791 Mg773 2.061 . S
C792 O788 1.277 . S
C792 O790 1.245 . S
O793 C767 1.289 . S
O793 Mg770 2.238 1_556 S
O793 Mg771 2.105 1_556 S
O794 Mg771 2.076 1_556 S
O794 C776 1.245 . S
O795 Mg774 2.038 . S
O795 C776 1.274 . S
C796 O808 1.241 . S
C796 O809 1.280 . S
C797 O810 1.277 . S
C797 O811 1.245 . S
C798 O822 1.247 . S
C798 O824 1.289 . S
Mg799 O800 1.926 . S
Mg799 O809 1.984 . S
Mg799 O811 1.988 . S
Mg799 O812 2.061 1_655 S
O800 Mg799 1.926 . S
O800 Mg801 1.986 . S
O800 Mg802 1.912 1_655 S
Mg801 O800 1.986 . S
Mg801 O808 2.042 . S
Mg801 O810 2.041 . S
Mg801 O816 2.038 . S
Mg801 O824 2.238 . S
Mg802 O800 1.912 1_455 S
Mg802 O803 1.922 . S
Mg802 O813 2.111 . S
Mg802 O815 2.078 1_455 S
Mg802 O824 2.102 1_455 S
Mg802 O825 2.080 . S
O803 Mg802 1.922 . S
O803 Mg804 1.926 . S
O803 Mg805 1.986 . S
Mg804 O803 1.926 . S
Mg804 O818 1.984 . S
Mg804 O821 1.988 . S
Mg804 O822 2.061 1_455 S
Mg805 O803 1.986 . S
Mg805 O813 2.238 . S
Mg805 O817 2.042 . S
Mg805 O819 2.041 . S
Mg805 O826 2.038 . S
C806 O812 1.247 . S
C806 O813 1.289 . S
C807 O825 1.245 . S
C807 O826 1.274 . S
O808 C796 1.241 . S
O808 Mg801 2.042 . S
O809 C796 1.280 . S
O809 Mg799 1.984 . S
O810 C797 1.277 . S
O810 Mg801 2.041 . S
O811 C797 1.245 . S
O811 Mg799 1.988 . S
O812 Mg799 2.061 1_455 S
O812 C806 1.247 . S
O813 Mg802 2.111 . S
O813 Mg805 2.238 . S
O813 C806 1.289 . S
C814 O815 1.245 . S
C814 O816 1.274 . S
O815 Mg802 2.078 1_655 S
O815 C814 1.245 . S
O816 Mg801 2.038 . S
O816 C814 1.274 . S
O817 Mg805 2.042 . S
O817 C820 1.241 . S
O818 Mg804 1.984 . S
O818 C820 1.280 . S
O819 Mg805 2.041 . S
O819 C823 1.277 . S
C820 O817 1.241 . S
C820 O818 1.280 . S
O821 Mg804 1.988 . S
O821 C823 1.245 . S
O822 C798 1.247 . S
O822 Mg804 2.061 1_655 S
C823 O819 1.277 . S
C823 O821 1.245 . S
O824 C798 1.289 . S
O824 Mg801 2.238 . S
O824 Mg802 2.102 1_655 S
O825 Mg802 2.080 . S
O825 C807 1.245 . S
O826 Mg805 2.038 . S
O826 C807 1.274 . S
C827 O839 1.241 . S
C827 O840 1.280 . S
C828 O841 1.277 . S
C828 O842 1.245 . S
C829 O853 1.247 . S
C829 O855 1.289 . S
Mg830 O831 1.926 . S
Mg830 O840 1.984 . S
Mg830 O842 1.988 . S
Mg830 O843 2.061 . S
O831 Mg830 1.926 . S
O831 Mg832 1.986 1_545 S
O831 Mg833 1.917 . S
Mg832 O831 1.986 1_565 S
Mg832 O839 2.041 1_565 S
Mg832 O841 2.039 1_565 S
Mg832 O847 2.040 . S
Mg832 O855 2.239 . S
Mg833 O831 1.917 . S
Mg833 O834 1.917 1_545 S
Mg833 O844 2.106 . S
Mg833 O846 2.079 1_545 S
Mg833 O855 2.106 1_545 S
Mg833 O856 2.079 . S
O834 Mg833 1.917 1_565 S
O834 Mg835 1.926 . S
O834 Mg836 1.984 1_565 S
Mg835 O834 1.926 . S
Mg835 O849 1.984 . S
Mg835 O852 1.988 . S
Mg835 O853 2.061 . S
Mg836 O834 1.984 1_545 S
Mg836 O844 2.246 . S
Mg836 O848 2.035 1_545 S
Mg836 O850 2.033 1_545 S
Mg836 O857 2.047 . S
C837 O843 1.247 . S
C837 O844 1.289 . S
C838 O856 1.245 . S
C838 O857 1.274 . S
O839 C827 1.241 . S
O839 Mg832 2.041 1_545 S
O840 C827 1.280 . S
O840 Mg830 1.984 . S
O841 C828 1.277 . S
O841 Mg832 2.039 1_545 S
O842 C828 1.245 . S
O842 Mg830 1.988 . S
O843 Mg830 2.061 . S
O843 C837 1.247 . S
O844 Mg833 2.106 . S
O844 Mg836 2.246 . S
O844 C837 1.289 . S
C845 O846 1.245 . S
C845 O847 1.274 . S
O846 Mg833 2.079 1_565 S
O846 C845 1.245 . S
O847 Mg832 2.040 . S
O847 C845 1.274 . S
O848 Mg836 2.035 1_565 S
O848 C851 1.241 . S
O849 Mg835 1.984 . S
O849 C851 1.280 . S
O850 Mg836 2.033 1_565 S
O850 C854 1.277 . S
C851 O848 1.241 . S
C851 O849 1.280 . S
O852 Mg835 1.988 . S
O852 C854 1.245 . S
O853 C829 1.247 . S
O853 Mg835 2.061 . S
C854 O850 1.277 . S
C854 O852 1.245 . S
O855 C829 1.289 . S
O855 Mg832 2.239 . S
O855 Mg833 2.106 1_565 S
O856 Mg833 2.079 . S
O856 C838 1.245 . S
O857 Mg836 2.047 . S
O857 C838 1.274 . S
C858 C859 1.349 . S
C858 C860 1.327 . S
C858 H883 0.950 . S
C859 C858 1.349 . S
C859 C875 1.349 . S
C860 C858 1.327 . S
C860 C879 1.429 . S
C860 H884 0.950 . S
C861 C878 1.574 . S
C861 C880 1.368 . S
C861 H885 0.949 . S
H862 C866 0.949 . S
C863 C864 1.349 . S
C863 C865 1.327 . S
C863 H886 0.950 . S
C864 C863 1.349 . S
C864 C876 1.349 . S
C865 C863 1.327 . S
C865 C881 1.429 . S
C865 H887 0.950 . S
C866 H862 0.949 . S
C866 C874 1.574 . S
C866 C882 1.368 . S
H867 C875 0.950 . S
H868 C873 0.950 . S
H869 C874 0.949 . S
H870 C876 0.950 . S
H871 C877 0.950 . S
H872 C878 0.949 . S
C873 H868 0.950 . S
C873 C875 1.327 . S
C873 C879 1.429 . S
C874 C866 1.574 . S
C874 H869 0.949 . S
C874 C880 1.368 . S
C875 C859 1.349 . S
C875 H867 0.950 . S
C875 C873 1.327 . S
C876 C864 1.349 . S
C876 H870 0.950 . S
C876 C877 1.327 . S
C877 H871 0.950 . S
C877 C876 1.327 . S
C877 C881 1.429 . S
C878 C861 1.574 . S
C878 H872 0.949 . S
C878 C882 1.368 . S
C879 C860 1.429 . S
C879 C873 1.429 . S
C879 C880 1.523 . S
C880 C861 1.368 . S
C880 C874 1.368 . S
C880 C879 1.523 . S
C881 C865 1.429 . S
C881 C877 1.429 . S
C881 C882 1.523 . S
C882 C866 1.368 . S
C882 C878 1.368 . S
C882 C881 1.523 . S
H883 C858 0.950 . S
H884 C860 0.950 . S
H885 C861 0.949 . S
H886 C863 0.950 . S
H887 C865 0.950 . S
C888 C889 1.349 . S
C888 C890 1.327 . S
C888 H913 0.950 . S
C889 C888 1.349 . S
C889 C905 1.349 . S
C890 C888 1.327 . S
C890 C909 1.429 . S
C890 H914 0.950 . S
C891 C908 1.574 . S
C891 C910 1.368 . S
C891 H915 0.949 . S
H892 C896 0.949 . S
C893 C894 1.349 . S
C893 C895 1.327 . S
C893 H916 0.950 . S
C894 C893 1.349 . S
C894 C906 1.349 . S
C895 C893 1.327 . S
C895 C911 1.429 . S
C895 H917 0.950 . S
C896 H892 0.949 . S
C896 C904 1.574 . S
C896 C912 1.368 . S
H897 C905 0.950 . S
H898 C903 0.950 . S
H899 C904 0.949 . S
H900 C906 0.950 . S
H901 C907 0.950 . S
H902 C908 0.949 . S
C903 H898 0.950 . S
C903 C905 1.327 . S
C903 C909 1.429 . S
C904 C896 1.574 . S
C904 H899 0.949 . S
C904 C910 1.368 . S
C905 C889 1.349 . S
C905 H897 0.950 . S
C905 C903 1.327 . S
C906 C894 1.349 . S
C906 H900 0.950 . S
C906 C907 1.327 . S
C907 H901 0.950 . S
C907 C906 1.327 . S
C907 C911 1.429 . S
C908 C891 1.574 . S
C908 H902 0.949 . S
C908 C912 1.368 . S
C909 C890 1.429 . S
C909 C903 1.429 . S
C909 C910 1.523 . S
C910 C891 1.368 . S
C910 C904 1.368 . S
C910 C909 1.523 . S
C911 C895 1.429 . S
C911 C907 1.429 . S
C911 C912 1.523 . S
C912 C896 1.368 . S
C912 C908 1.368 . S
C912 C911 1.523 . S
H913 C888 0.950 . S
H914 C890 0.950 . S
H915 C891 0.949 . S
H916 C893 0.950 . S
H917 C895 0.950 . S
C918 C919 1.349 . S
C918 C920 1.327 . S
C918 H943 0.950 . S
C919 C918 1.349 . S
C919 C935 1.349 . S
C920 C918 1.327 . S
C920 C939 1.429 . S
C920 H944 0.950 . S
C921 C938 1.574 . S
C921 C940 1.368 . S
C921 H945 0.949 . S
H922 C926 0.949 . S
C923 C924 1.349 . S
C923 C925 1.327 . S
C923 H946 0.950 . S
C924 C923 1.349 . S
C924 C936 1.349 . S
C925 C923 1.327 . S
C925 C941 1.429 . S
C925 H947 0.950 . S
C926 H922 0.949 . S
C926 C934 1.574 . S
C926 C942 1.368 . S
H927 C935 0.950 . S
H928 C933 0.950 . S
H929 C934 0.949 . S
H930 C936 0.950 . S
H931 C937 0.950 . S
H932 C938 0.949 . S
C933 H928 0.950 . S
C933 C935 1.327 . S
C933 C939 1.429 . S
C934 C926 1.574 . S
C934 H929 0.949 . S
C934 C940 1.368 . S
C935 C919 1.349 . S
C935 H927 0.950 . S
C935 C933 1.327 . S
C936 C924 1.349 . S
C936 H930 0.950 . S
C936 C937 1.327 . S
C937 H931 0.950 . S
C937 C936 1.327 . S
C937 C941 1.429 . S
C938 C921 1.574 . S
C938 H932 0.949 . S
C938 C942 1.368 . S
C939 C920 1.429 . S
C939 C933 1.429 . S
C939 C940 1.523 . S
C940 C921 1.368 . S
C940 C934 1.368 . S
C940 C939 1.523 . S
C941 C925 1.429 . S
C941 C937 1.429 . S
C941 C942 1.523 . S
C942 C926 1.368 . S
C942 C938 1.368 . S
C942 C941 1.523 . S
H943 C918 0.950 . S
H944 C920 0.950 . S
H945 C921 0.949 . S
H946 C923 0.950 . S
H947 C925 0.950 . S
C948 C949 1.349 . S
C948 C950 1.327 . S
C948 H973 0.950 . S
C949 C948 1.349 . S
C949 C965 1.349 . S
C950 C948 1.327 . S
C950 C969 1.429 . S
C950 H974 0.950 . S
C951 C968 1.574 . S
C951 C970 1.368 . S
C951 H975 0.949 . S
H952 C956 0.949 . S
C953 C954 1.349 . S
C953 C955 1.327 . S
C953 H976 0.950 . S
C954 C953 1.349 . S
C954 C966 1.349 . S
C955 C953 1.327 . S
C955 C971 1.429 . S
C955 H977 0.950 . S
C956 H952 0.949 . S
C956 C964 1.574 . S
C956 C972 1.368 . S
H957 C965 0.950 . S
H958 C963 0.950 . S
H959 C964 0.949 . S
H960 C966 0.950 . S
H961 C967 0.950 . S
H962 C968 0.949 . S
C963 H958 0.950 . S
C963 C965 1.327 . S
C963 C969 1.429 . S
C964 C956 1.574 . S
C964 H959 0.949 . S
C964 C970 1.368 . S
C965 C949 1.349 . S
C965 H957 0.950 . S
C965 C963 1.327 . S
C966 C954 1.349 . S
C966 H960 0.950 . S
C966 C967 1.327 . S
C967 H961 0.950 . S
C967 C966 1.327 . S
C967 C971 1.429 . S
C968 C951 1.574 . S
C968 H962 0.949 . S
C968 C972 1.368 . S
C969 C950 1.429 . S
C969 C963 1.429 . S
C969 C970 1.523 . S
C970 C951 1.368 . S
C970 C964 1.368 . S
C970 C969 1.523 . S
C971 C955 1.429 . S
C971 C967 1.429 . S
C971 C972 1.523 . S
C972 C956 1.368 . S
C972 C968 1.368 . S
C972 C971 1.523 . S
H973 C948 0.950 . S
H974 C950 0.950 . S
H975 C951 0.949 . S
H976 C953 0.950 . S
H977 C955 0.950 . S
C978 C979 1.349 . S
C978 C980 1.327 . S
C978 H1003 0.950 . S
C979 C978 1.349 . S
C979 C995 1.349 . S
C980 C978 1.327 . S
C980 C999 1.429 . S
C980 H1004 0.950 . S
C981 C998 1.574 . S
C981 C1000 1.368 . S
C981 H1005 0.949 . S
H982 C986 0.949 . S
C983 C984 1.349 . S
C983 C985 1.327 . S
C983 H1006 0.950 . S
C984 C983 1.349 . S
C984 C996 1.349 . S
C985 C983 1.327 . S
C985 C1001 1.429 . S
C985 H1007 0.950 . S
C986 H982 0.949 . S
C986 C994 1.574 . S
C986 C1002 1.368 . S
H987 C995 0.950 . S
H988 C993 0.950 . S
H989 C994 0.949 . S
H990 C996 0.950 . S
H991 C997 0.950 . S
H992 C998 0.949 . S
C993 H988 0.950 . S
C993 C995 1.327 . S
C993 C999 1.429 . S
C994 C986 1.574 . S
C994 H989 0.949 . S
C994 C1000 1.368 . S
C995 C979 1.349 . S
C995 H987 0.950 . S
C995 C993 1.327 . S
C996 C984 1.349 . S
C996 H990 0.950 . S
C996 C997 1.327 . S
C997 H991 0.950 . S
C997 C996 1.327 . S
C997 C1001 1.429 . S
C998 C981 1.574 . S
C998 H992 0.949 . S
C998 C1002 1.368 . S
C999 C980 1.429 . S
C999 C993 1.429 . S
C999 C1000 1.523 . S
C1000 C981 1.368 . S
C1000 C994 1.368 . S
C1000 C999 1.523 . S
C1001 C985 1.429 . S
C1001 C997 1.429 . S
C1001 C1002 1.523 . S
C1002 C986 1.368 . S
C1002 C998 1.368 . S
C1002 C1001 1.523 . S
H1003 C978 0.950 . S
H1004 C980 0.950 . S
H1005 C981 0.949 . S
H1006 C983 0.950 . S
H1007 C985 0.950 . S
C1008 C1009 1.349 . S
C1008 C1010 1.327 . S
C1008 H1033 0.950 . S
C1009 C1008 1.349 . S
C1009 C1025 1.349 . S
C1010 C1008 1.327 . S
C1010 C1029 1.429 . S
C1010 H1034 0.950 . S
C1011 C1028 1.574 . S
C1011 C1030 1.368 . S
C1011 H1035 0.949 . S
H1012 C1016 0.949 . S
C1013 C1014 1.349 . S
C1013 C1015 1.327 . S
C1013 H1036 0.950 . S
C1014 C1013 1.349 . S
C1014 C1026 1.349 . S
C1015 C1013 1.327 . S
C1015 C1031 1.429 . S
C1015 H1037 0.950 . S
C1016 H1012 0.949 . S
C1016 C1024 1.574 . S
C1016 C1032 1.368 . S
H1017 C1025 0.950 . S
H1018 C1023 0.950 . S
H1019 C1024 0.949 . S
H1020 C1026 0.950 . S
H1021 C1027 0.950 . S
H1022 C1028 0.949 . S
C1023 H1018 0.950 . S
C1023 C1025 1.327 . S
C1023 C1029 1.429 . S
C1024 C1016 1.574 . S
C1024 H1019 0.949 . S
C1024 C1030 1.368 . S
C1025 C1009 1.349 . S
C1025 H1017 0.950 . S
C1025 C1023 1.327 . S
C1026 C1014 1.349 . S
C1026 H1020 0.950 . S
C1026 C1027 1.327 . S
C1027 H1021 0.950 . S
C1027 C1026 1.327 . S
C1027 C1031 1.429 . S
C1028 C1011 1.574 . S
C1028 H1022 0.949 . S
C1028 C1032 1.368 . S
C1029 C1010 1.429 . S
C1029 C1023 1.429 . S
C1029 C1030 1.523 . S
C1030 C1011 1.368 . S
C1030 C1024 1.368 . S
C1030 C1029 1.523 . S
C1031 C1015 1.429 . S
C1031 C1027 1.429 . S
C1031 C1032 1.523 . S
C1032 C1016 1.368 . S
C1032 C1028 1.368 . S
C1032 C1031 1.523 . S
H1033 C1008 0.950 . S
H1034 C1010 0.950 . S
H1035 C1011 0.949 . S
H1036 C1013 0.950 . S
H1037 C1015 0.950 . S
C1038 C1039 1.349 . S
C1038 C1040 1.327 . S
C1038 H1063 0.950 . S
C1039 C1038 1.349 . S
C1039 C1055 1.349 . S
C1040 C1038 1.327 . S
C1040 C1059 1.429 . S
C1040 H1064 0.950 . S
C1041 C1058 1.574 . S
C1041 C1060 1.368 . S
C1041 H1065 0.949 . S
H1042 C1046 0.949 . S
C1043 C1044 1.349 . S
C1043 C1045 1.327 . S
C1043 H1066 0.950 . S
C1044 C1043 1.349 . S
C1044 C1056 1.349 . S
C1045 C1043 1.327 . S
C1045 C1061 1.429 . S
C1045 H1067 0.950 . S
C1046 H1042 0.949 . S
C1046 C1054 1.574 . S
C1046 C1062 1.368 . S
H1047 C1055 0.950 . S
H1048 C1053 0.950 . S
H1049 C1054 0.949 . S
H1050 C1056 0.950 . S
H1051 C1057 0.950 . S
H1052 C1058 0.949 . S
C1053 H1048 0.950 . S
C1053 C1055 1.327 . S
C1053 C1059 1.429 . S
C1054 C1046 1.574 . S
C1054 H1049 0.949 . S
C1054 C1060 1.368 . S
C1055 C1039 1.349 . S
C1055 H1047 0.950 . S
C1055 C1053 1.327 . S
C1056 C1044 1.349 . S
C1056 H1050 0.950 . S
C1056 C1057 1.327 . S
C1057 H1051 0.950 . S
C1057 C1056 1.327 . S
C1057 C1061 1.429 . S
C1058 C1041 1.574 . S
C1058 H1052 0.949 . S
C1058 C1062 1.368 . S
C1059 C1040 1.429 . S
C1059 C1053 1.429 . S
C1059 C1060 1.523 . S
C1060 C1041 1.368 . S
C1060 C1054 1.368 . S
C1060 C1059 1.523 . S
C1061 C1045 1.429 . S
C1061 C1057 1.429 . S
C1061 C1062 1.523 . S
C1062 C1046 1.368 . S
C1062 C1058 1.368 . S
C1062 C1061 1.523 . S
H1063 C1038 0.950 . S
H1064 C1040 0.950 . S
H1065 C1041 0.949 . S
H1066 C1043 0.950 . S
H1067 C1045 0.950 . S
C1068 C1069 1.349 . S
C1068 C1070 1.327 . S
C1068 H1093 0.950 . S
C1069 C1068 1.349 . S
C1069 C1085 1.349 . S
C1070 C1068 1.327 . S
C1070 C1089 1.429 . S
C1070 H1094 0.950 . S
C1071 C1088 1.574 . S
C1071 C1090 1.368 . S
C1071 H1095 0.949 . S
H1072 C1076 0.949 . S
C1073 C1074 1.349 . S
C1073 C1075 1.327 . S
C1073 H1096 0.950 . S
C1074 C1073 1.349 . S
C1074 C1086 1.349 . S
C1075 C1073 1.327 . S
C1075 C1091 1.429 . S
C1075 H1097 0.950 . S
C1076 H1072 0.949 . S
C1076 C1084 1.574 . S
C1076 C1092 1.368 . S
H1077 C1085 0.950 . S
H1078 C1083 0.950 . S
H1079 C1084 0.949 . S
H1080 C1086 0.950 . S
H1081 C1087 0.950 . S
H1082 C1088 0.949 . S
C1083 H1078 0.950 . S
C1083 C1085 1.327 . S
C1083 C1089 1.429 . S
C1084 C1076 1.574 . S
C1084 H1079 0.949 . S
C1084 C1090 1.368 . S
C1085 C1069 1.349 . S
C1085 H1077 0.950 . S
C1085 C1083 1.327 . S
C1086 C1074 1.349 . S
C1086 H1080 0.950 . S
C1086 C1087 1.327 . S
C1087 H1081 0.950 . S
C1087 C1086 1.327 . S
C1087 C1091 1.429 . S
C1088 C1071 1.574 . S
C1088 H1082 0.949 . S
C1088 C1092 1.368 . S
C1089 C1070 1.429 . S
C1089 C1083 1.429 . S
C1089 C1090 1.523 . S
C1090 C1071 1.368 . S
C1090 C1084 1.368 . S
C1090 C1089 1.523 . S
C1091 C1075 1.429 . S
C1091 C1087 1.429 . S
C1091 C1092 1.523 . S
C1092 C1076 1.368 . S
C1092 C1088 1.368 . S
C1092 C1091 1.523 . S
H1093 C1068 0.950 . S
H1094 C1070 0.950 . S
H1095 C1071 0.949 . S
H1096 C1073 0.950 . S
H1097 C1075 0.950 . S
C1098 C1099 1.349 . S
C1098 C1100 1.327 . S
C1098 H1123 0.950 . S
C1099 C1098 1.349 . S
C1099 C1115 1.349 . S
C1100 C1098 1.327 . S
C1100 C1119 1.429 . S
C1100 H1124 0.950 . S
C1101 C1118 1.574 . S
C1101 C1120 1.368 . S
C1101 H1125 0.949 . S
H1102 C1106 0.949 . S
C1103 C1104 1.349 . S
C1103 C1105 1.327 . S
C1103 H1126 0.950 . S
C1104 C1103 1.349 . S
C1104 C1116 1.349 . S
C1105 C1103 1.327 . S
C1105 C1121 1.429 . S
C1105 H1127 0.950 . S
C1106 H1102 0.949 . S
C1106 C1114 1.574 . S
C1106 C1122 1.368 . S
H1107 C1115 0.950 . S
H1108 C1113 0.950 . S
H1109 C1114 0.949 . S
H1110 C1116 0.950 . S
H1111 C1117 0.950 . S
H1112 C1118 0.949 . S
C1113 H1108 0.950 . S
C1113 C1115 1.327 . S
C1113 C1119 1.429 . S
C1114 C1106 1.574 . S
C1114 H1109 0.949 . S
C1114 C1120 1.368 . S
C1115 C1099 1.349 . S
C1115 H1107 0.950 . S
C1115 C1113 1.327 . S
C1116 C1104 1.349 . S
C1116 H1110 0.950 . S
C1116 C1117 1.327 . S
C1117 H1111 0.950 . S
C1117 C1116 1.327 . S
C1117 C1121 1.429 . S
C1118 C1101 1.574 . S
C1118 H1112 0.949 . S
C1118 C1122 1.368 . S
C1119 C1100 1.429 . S
C1119 C1113 1.429 . S
C1119 C1120 1.523 . S
C1120 C1101 1.368 . S
C1120 C1114 1.368 . S
C1120 C1119 1.523 . S
C1121 C1105 1.429 . S
C1121 C1117 1.429 . S
C1121 C1122 1.523 . S
C1122 C1106 1.368 . S
C1122 C1118 1.368 . S
C1122 C1121 1.523 . S
H1123 C1098 0.950 . S
H1124 C1100 0.950 . S
H1125 C1101 0.949 . S
H1126 C1103 0.950 . S
H1127 C1105 0.950 . S
C1128 C1129 1.349 . S
C1128 C1130 1.327 . S
C1128 H1153 0.950 . S
C1129 C1128 1.349 . S
C1129 C1145 1.349 . S
C1130 C1128 1.327 . S
C1130 C1149 1.429 . S
C1130 H1154 0.950 . S
C1131 C1148 1.574 . S
C1131 C1150 1.368 . S
C1131 H1155 0.949 . S
H1132 C1136 0.949 . S
C1133 C1134 1.349 . S
C1133 C1135 1.327 . S
C1133 H1156 0.950 . S
C1134 C1133 1.349 . S
C1134 C1146 1.349 . S
C1135 C1133 1.327 . S
C1135 C1151 1.429 . S
C1135 H1157 0.950 . S
C1136 H1132 0.949 . S
C1136 C1144 1.574 . S
C1136 C1152 1.368 . S
H1137 C1145 0.950 . S
H1138 C1143 0.950 . S
H1139 C1144 0.949 . S
H1140 C1146 0.950 . S
H1141 C1147 0.950 . S
H1142 C1148 0.949 . S
C1143 H1138 0.950 . S
C1143 C1145 1.327 . S
C1143 C1149 1.429 . S
C1144 C1136 1.574 . S
C1144 H1139 0.949 . S
C1144 C1150 1.368 . S
C1145 C1129 1.349 . S
C1145 H1137 0.950 . S
C1145 C1143 1.327 . S
C1146 C1134 1.349 . S
C1146 H1140 0.950 . S
C1146 C1147 1.327 . S
C1147 H1141 0.950 . S
C1147 C1146 1.327 . S
C1147 C1151 1.429 . S
C1148 C1131 1.574 . S
C1148 H1142 0.949 . S
C1148 C1152 1.368 . S
C1149 C1130 1.429 . S
C1149 C1143 1.429 . S
C1149 C1150 1.523 . S
C1150 C1131 1.368 . S
C1150 C1144 1.368 . S
C1150 C1149 1.523 . S
C1151 C1135 1.429 . S
C1151 C1147 1.429 . S
C1151 C1152 1.523 . S
C1152 C1136 1.368 . S
C1152 C1148 1.368 . S
C1152 C1151 1.523 . S
H1153 C1128 0.950 . S
H1154 C1130 0.950 . S
H1155 C1131 0.949 . S
H1156 C1133 0.950 . S
H1157 C1135 0.950 . S
C1158 C1159 1.349 . S
C1158 C1160 1.327 . S
C1158 H1183 0.950 . S
C1159 C1158 1.349 . S
C1159 C1175 1.349 . S
C1160 C1158 1.327 . S
C1160 C1179 1.429 . S
C1160 H1184 0.950 . S
C1161 C1178 1.574 . S
C1161 C1180 1.368 . S
C1161 H1185 0.949 . S
H1162 C1166 0.949 . S
C1163 C1164 1.349 . S
C1163 C1165 1.327 . S
C1163 H1186 0.950 . S
C1164 C1163 1.349 . S
C1164 C1176 1.349 . S
C1165 C1163 1.327 . S
C1165 C1181 1.429 . S
C1165 H1187 0.950 . S
C1166 H1162 0.949 . S
C1166 C1174 1.574 . S
C1166 C1182 1.368 . S
H1167 C1175 0.950 . S
H1168 C1173 0.950 . S
H1169 C1174 0.949 . S
H1170 C1176 0.950 . S
H1171 C1177 0.950 . S
H1172 C1178 0.949 . S
C1173 H1168 0.950 . S
C1173 C1175 1.327 . S
C1173 C1179 1.429 . S
C1174 C1166 1.574 . S
C1174 H1169 0.949 . S
C1174 C1180 1.368 . S
C1175 C1159 1.349 . S
C1175 H1167 0.950 . S
C1175 C1173 1.327 . S
C1176 C1164 1.349 . S
C1176 H1170 0.950 . S
C1176 C1177 1.327 . S
C1177 H1171 0.950 . S
C1177 C1176 1.327 . S
C1177 C1181 1.429 . S
C1178 C1161 1.574 . S
C1178 H1172 0.949 . S
C1178 C1182 1.368 . S
C1179 C1160 1.429 . S
C1179 C1173 1.429 . S
C1179 C1180 1.523 . S
C1180 C1161 1.368 . S
C1180 C1174 1.368 . S
C1180 C1179 1.523 . S
C1181 C1165 1.429 . S
C1181 C1177 1.429 . S
C1181 C1182 1.523 . S
C1182 C1166 1.368 . S
C1182 C1178 1.368 . S
C1182 C1181 1.523 . S
H1183 C1158 0.950 . S
H1184 C1160 0.950 . S
H1185 C1161 0.949 . S
H1186 C1163 0.950 . S
H1187 C1165 0.950 . S
C1188 C1189 1.349 . S
C1188 C1190 1.327 . S
C1188 H1213 0.950 . S
C1189 C1188 1.349 . S
C1189 C1205 1.349 . S
C1190 C1188 1.327 . S
C1190 C1209 1.429 . S
C1190 H1214 0.950 . S
C1191 C1208 1.574 . S
C1191 C1210 1.368 . S
C1191 H1215 0.949 . S
H1192 C1196 0.949 . S
C1193 C1194 1.349 . S
C1193 C1195 1.327 . S
C1193 H1216 0.950 . S
C1194 C1193 1.349 . S
C1194 C1206 1.349 . S
C1195 C1193 1.327 . S
C1195 C1211 1.429 . S
C1195 H1217 0.950 . S
C1196 H1192 0.949 . S
C1196 C1204 1.574 . S
C1196 C1212 1.368 . S
H1197 C1205 0.950 . S
H1198 C1203 0.950 . S
H1199 C1204 0.949 . S
H1200 C1206 0.950 . S
H1201 C1207 0.950 . S
H1202 C1208 0.949 . S
C1203 H1198 0.950 . S
C1203 C1205 1.327 . S
C1203 C1209 1.429 . S
C1204 C1196 1.574 . S
C1204 H1199 0.949 . S
C1204 C1210 1.368 . S
C1205 C1189 1.349 . S
C1205 H1197 0.950 . S
C1205 C1203 1.327 . S
C1206 C1194 1.349 . S
C1206 H1200 0.950 . S
C1206 C1207 1.327 . S
C1207 H1201 0.950 . S
C1207 C1206 1.327 . S
C1207 C1211 1.429 . S
C1208 C1191 1.574 . S
C1208 H1202 0.949 . S
C1208 C1212 1.368 . S
C1209 C1190 1.429 . S
C1209 C1203 1.429 . S
C1209 C1210 1.523 . S
C1210 C1191 1.368 . S
C1210 C1204 1.368 . S
C1210 C1209 1.523 . S
C1211 C1195 1.429 . S
C1211 C1207 1.429 . S
C1211 C1212 1.523 . S
C1212 C1196 1.368 . S
C1212 C1208 1.368 . S
C1212 C1211 1.523 . S
H1213 C1188 0.950 . S
H1214 C1190 0.950 . S
H1215 C1191 0.949 . S
H1216 C1193 0.950 . S
H1217 C1195 0.950 . S
C1218 C1219 1.349 . S
C1218 C1220 1.327 . S
C1218 H1243 0.950 . S
C1219 C1218 1.349 . S
C1219 C1235 1.349 . S
C1220 C1218 1.327 . S
C1220 C1239 1.429 . S
C1220 H1244 0.950 . S
C1221 C1238 1.574 . S
C1221 C1240 1.368 . S
C1221 H1245 0.949 . S
H1222 C1226 0.949 . S
C1223 C1224 1.349 . S
C1223 C1225 1.327 . S
C1223 H1246 0.950 . S
C1224 C1223 1.349 . S
C1224 C1236 1.349 . S
C1225 C1223 1.327 . S
C1225 C1241 1.429 . S
C1225 H1247 0.950 . S
C1226 H1222 0.949 . S
C1226 C1234 1.574 . S
C1226 C1242 1.368 . S
H1227 C1235 0.950 . S
H1228 C1233 0.950 . S
H1229 C1234 0.949 . S
H1230 C1236 0.950 . S
H1231 C1237 0.950 . S
H1232 C1238 0.949 . S
C1233 H1228 0.950 . S
C1233 C1235 1.327 . S
C1233 C1239 1.429 . S
C1234 C1226 1.574 . S
C1234 H1229 0.949 . S
C1234 C1240 1.368 . S
C1235 C1219 1.349 . S
C1235 H1227 0.950 . S
C1235 C1233 1.327 . S
C1236 C1224 1.349 . S
C1236 H1230 0.950 . S
C1236 C1237 1.327 . S
C1237 H1231 0.950 . S
C1237 C1236 1.327 . S
C1237 C1241 1.429 . S
C1238 C1221 1.574 . S
C1238 H1232 0.949 . S
C1238 C1242 1.368 . S
C1239 C1220 1.429 . S
C1239 C1233 1.429 . S
C1239 C1240 1.523 . S
C1240 C1221 1.368 . S
C1240 C1234 1.368 . S
C1240 C1239 1.523 . S
C1241 C1225 1.429 . S
C1241 C1237 1.429 . S
C1241 C1242 1.523 . S
C1242 C1226 1.368 . S
C1242 C1238 1.368 . S
C1242 C1241 1.523 . S
H1243 C1218 0.950 . S
H1244 C1220 0.950 . S
H1245 C1221 0.949 . S
H1246 C1223 0.950 . S
H1247 C1225 0.950 . S
C1248 C1249 1.349 . S
C1248 C1250 1.327 . S
C1248 H1273 0.950 . S
C1249 C1248 1.349 . S
C1249 C1265 1.349 . S
C1250 C1248 1.327 . S
C1250 C1269 1.429 . S
C1250 H1274 0.950 . S
C1251 C1268 1.574 . S
C1251 C1270 1.368 . S
C1251 H1275 0.949 . S
H1252 C1256 0.949 . S
C1253 C1254 1.349 . S
C1253 C1255 1.327 . S
C1253 H1276 0.950 . S
C1254 C1253 1.349 . S
C1254 C1266 1.349 . S
C1255 C1253 1.327 . S
C1255 C1271 1.429 . S
C1255 H1277 0.950 . S
C1256 H1252 0.949 . S
C1256 C1264 1.574 . S
C1256 C1272 1.368 . S
H1257 C1265 0.950 . S
H1258 C1263 0.950 . S
H1259 C1264 0.949 . S
H1260 C1266 0.950 . S
H1261 C1267 0.950 . S
H1262 C1268 0.949 . S
C1263 H1258 0.950 . S
C1263 C1265 1.327 . S
C1263 C1269 1.429 . S
C1264 C1256 1.574 . S
C1264 H1259 0.949 . S
C1264 C1270 1.368 . S
C1265 C1249 1.349 . S
C1265 H1257 0.950 . S
C1265 C1263 1.327 . S
C1266 C1254 1.349 . S
C1266 H1260 0.950 . S
C1266 C1267 1.327 . S
C1267 H1261 0.950 . S
C1267 C1266 1.327 . S
C1267 C1271 1.429 . S
C1268 C1251 1.574 . S
C1268 H1262 0.949 . S
C1268 C1272 1.368 . S
C1269 C1250 1.429 . S
C1269 C1263 1.429 . S
C1269 C1270 1.523 . S
C1270 C1251 1.368 . S
C1270 C1264 1.368 . S
C1270 C1269 1.523 . S
C1271 C1255 1.429 . S
C1271 C1267 1.429 . S
C1271 C1272 1.523 . S
C1272 C1256 1.368 . S
C1272 C1268 1.368 . S
C1272 C1271 1.523 . S
H1273 C1248 0.950 . S
H1274 C1250 0.950 . S
H1275 C1251 0.949 . S
H1276 C1253 0.950 . S
H1277 C1255 0.950 . S
C1278 C1279 1.349 . S
C1278 C1280 1.327 . S
C1278 H1303 0.950 . S
C1279 C1278 1.349 . S
C1279 C1295 1.349 . S
C1280 C1278 1.327 . S
C1280 C1299 1.429 . S
C1280 H1304 0.950 . S
C1281 C1298 1.574 . S
C1281 C1300 1.368 . S
C1281 H1305 0.949 . S
H1282 C1286 0.949 . S
C1283 C1284 1.349 . S
C1283 C1285 1.327 . S
C1283 H1306 0.950 . S
C1284 C1283 1.349 . S
C1284 C1296 1.349 . S
C1285 C1283 1.327 . S
C1285 C1301 1.429 . S
C1285 H1307 0.950 . S
C1286 H1282 0.949 . S
C1286 C1294 1.574 . S
C1286 C1302 1.368 . S
H1287 C1295 0.950 . S
H1288 C1293 0.950 . S
H1289 C1294 0.949 . S
H1290 C1296 0.950 . S
H1291 C1297 0.950 . S
H1292 C1298 0.949 . S
C1293 H1288 0.950 . S
C1293 C1295 1.327 . S
C1293 C1299 1.429 . S
C1294 C1286 1.574 . S
C1294 H1289 0.949 . S
C1294 C1300 1.368 . S
C1295 C1279 1.349 . S
C1295 H1287 0.950 . S
C1295 C1293 1.327 . S
C1296 C1284 1.349 . S
C1296 H1290 0.950 . S
C1296 C1297 1.327 . S
C1297 H1291 0.950 . S
C1297 C1296 1.327 . S
C1297 C1301 1.429 . S
C1298 C1281 1.574 . S
C1298 H1292 0.949 . S
C1298 C1302 1.368 . S
C1299 C1280 1.429 . S
C1299 C1293 1.429 . S
C1299 C1300 1.523 . S
C1300 C1281 1.368 . S
C1300 C1294 1.368 . S
C1300 C1299 1.523 . S
C1301 C1285 1.429 . S
C1301 C1297 1.429 . S
C1301 C1302 1.523 . S
C1302 C1286 1.368 . S
C1302 C1298 1.368 . S
C1302 C1301 1.523 . S
H1303 C1278 0.950 . S
H1304 C1280 0.950 . S
H1305 C1281 0.949 . S
H1306 C1283 0.950 . S
H1307 C1285 0.950 . S
C1308 C1309 1.349 . S
C1308 C1310 1.327 . S
C1308 H1333 0.950 . S
C1309 C1308 1.349 . S
C1309 C1325 1.349 . S
C1310 C1308 1.327 . S
C1310 C1329 1.429 . S
C1310 H1334 0.950 . S
C1311 C1328 1.574 . S
C1311 C1330 1.368 . S
C1311 H1335 0.949 . S
H1312 C1316 0.949 . S
C1313 C1314 1.349 . S
C1313 C1315 1.327 . S
C1313 H1336 0.950 . S
C1314 C1313 1.349 . S
C1314 C1326 1.349 . S
C1315 C1313 1.327 . S
C1315 C1331 1.429 . S
C1315 H1337 0.950 . S
C1316 H1312 0.949 . S
C1316 C1324 1.574 . S
C1316 C1332 1.368 . S
H1317 C1325 0.950 . S
H1318 C1323 0.950 . S
H1319 C1324 0.949 . S
H1320 C1326 0.950 . S
H1321 C1327 0.950 . S
H1322 C1328 0.949 . S
C1323 H1318 0.950 . S
C1323 C1325 1.327 . S
C1323 C1329 1.429 . S
C1324 C1316 1.574 . S
C1324 H1319 0.949 . S
C1324 C1330 1.368 . S
C1325 C1309 1.349 . S
C1325 H1317 0.950 . S
C1325 C1323 1.327 . S
C1326 C1314 1.349 . S
C1326 H1320 0.950 . S
C1326 C1327 1.327 . S
C1327 H1321 0.950 . S
C1327 C1326 1.327 . S
C1327 C1331 1.429 . S
C1328 C1311 1.574 . S
C1328 H1322 0.949 . S
C1328 C1332 1.368 . S
C1329 C1310 1.429 . S
C1329 C1323 1.429 . S
C1329 C1330 1.523 . S
C1330 C1311 1.368 . S
C1330 C1324 1.368 . S
C1330 C1329 1.523 . S
C1331 C1315 1.429 . S
C1331 C1327 1.429 . S
C1331 C1332 1.523 . S
C1332 C1316 1.368 . S
C1332 C1328 1.368 . S
C1332 C1331 1.523 . S
H1333 C1308 0.950 . S
H1334 C1310 0.950 . S
H1335 C1311 0.949 . S
H1336 C1313 0.950 . S
H1337 C1315 0.950 . S
C1338 C1339 1.349 . S
C1338 C1340 1.327 . S
C1338 H1363 0.950 . S
C1339 C1338 1.349 . S
C1339 C1355 1.349 . S
C1340 C1338 1.327 . S
C1340 C1359 1.429 . S
C1340 H1364 0.950 . S
C1341 C1358 1.574 . S
C1341 C1360 1.368 . S
C1341 H1365 0.949 . S
H1342 C1346 0.949 . S
C1343 C1344 1.349 . S
C1343 C1345 1.327 . S
C1343 H1366 0.950 . S
C1344 C1343 1.349 . S
C1344 C1356 1.349 . S
C1345 C1343 1.327 . S
C1345 C1361 1.429 . S
C1345 H1367 0.950 . S
C1346 H1342 0.949 . S
C1346 C1354 1.574 . S
C1346 C1362 1.368 . S
H1347 C1355 0.950 . S
H1348 C1353 0.950 . S
H1349 C1354 0.949 . S
H1350 C1356 0.950 . S
H1351 C1357 0.950 . S
H1352 C1358 0.949 . S
C1353 H1348 0.950 . S
C1353 C1355 1.327 . S
C1353 C1359 1.429 . S
C1354 C1346 1.574 . S
C1354 H1349 0.949 . S
C1354 C1360 1.368 . S
C1355 C1339 1.349 . S
C1355 H1347 0.950 . S
C1355 C1353 1.327 . S
C1356 C1344 1.349 . S
C1356 H1350 0.950 . S
C1356 C1357 1.327 . S
C1357 H1351 0.950 . S
C1357 C1356 1.327 . S
C1357 C1361 1.429 . S
C1358 C1341 1.574 . S
C1358 H1352 0.949 . S
C1358 C1362 1.368 . S
C1359 C1340 1.429 . S
C1359 C1353 1.429 . S
C1359 C1360 1.523 . S
C1360 C1341 1.368 . S
C1360 C1354 1.368 . S
C1360 C1359 1.523 . S
C1361 C1345 1.429 . S
C1361 C1357 1.429 . S
C1361 C1362 1.523 . S
C1362 C1346 1.368 . S
C1362 C1358 1.368 . S
C1362 C1361 1.523 . S
H1363 C1338 0.950 . S
H1364 C1340 0.950 . S
H1365 C1341 0.949 . S
H1366 C1343 0.950 . S
H1367 C1345 0.950 . S
C1368 C1369 1.349 . S
C1368 C1370 1.327 . S
C1368 H1393 0.950 . S
C1369 C1368 1.349 . S
C1369 C1385 1.349 . S
C1370 C1368 1.327 . S
C1370 C1389 1.429 . S
C1370 H1394 0.950 . S
C1371 C1388 1.574 . S
C1371 C1390 1.368 . S
C1371 H1395 0.949 . S
H1372 C1376 0.949 . S
C1373 C1374 1.349 . S
C1373 C1375 1.327 . S
C1373 H1396 0.950 . S
C1374 C1373 1.349 . S
C1374 C1386 1.349 . S
C1375 C1373 1.327 . S
C1375 C1391 1.429 . S
C1375 H1397 0.950 . S
C1376 H1372 0.949 . S
C1376 C1384 1.574 . S
C1376 C1392 1.368 . S
H1377 C1385 0.950 . S
H1378 C1383 0.950 . S
H1379 C1384 0.949 . S
H1380 C1386 0.950 . S
H1381 C1387 0.950 . S
H1382 C1388 0.949 . S
C1383 H1378 0.950 . S
C1383 C1385 1.327 . S
C1383 C1389 1.429 . S
C1384 C1376 1.574 . S
C1384 H1379 0.949 . S
C1384 C1390 1.368 . S
C1385 C1369 1.349 . S
C1385 H1377 0.950 . S
C1385 C1383 1.327 . S
C1386 C1374 1.349 . S
C1386 H1380 0.950 . S
C1386 C1387 1.327 . S
C1387 H1381 0.950 . S
C1387 C1386 1.327 . S
C1387 C1391 1.429 . S
C1388 C1371 1.574 . S
C1388 H1382 0.949 . S
C1388 C1392 1.368 . S
C1389 C1370 1.429 . S
C1389 C1383 1.429 . S
C1389 C1390 1.523 . S
C1390 C1371 1.368 . S
C1390 C1384 1.368 . S
C1390 C1389 1.523 . S
C1391 C1375 1.429 . S
C1391 C1387 1.429 . S
C1391 C1392 1.523 . S
C1392 C1376 1.368 . S
C1392 C1388 1.368 . S
C1392 C1391 1.523 . S
H1393 C1368 0.950 . S
H1394 C1370 0.950 . S
H1395 C1371 0.949 . S
H1396 C1373 0.950 . S
H1397 C1375 0.950 . S
C1398 C1399 1.349 . S
C1398 C1400 1.327 . S
C1398 H1423 0.950 . S
C1399 C1398 1.349 . S
C1399 C1415 1.349 . S
C1400 C1398 1.327 . S
C1400 C1419 1.429 . S
C1400 H1424 0.950 . S
C1401 C1418 1.574 . S
C1401 C1420 1.368 . S
C1401 H1425 0.949 . S
H1402 C1406 0.949 . S
C1403 C1404 1.349 . S
C1403 C1405 1.327 . S
C1403 H1426 0.950 . S
C1404 C1403 1.349 . S
C1404 C1416 1.349 . S
C1405 C1403 1.327 . S
C1405 C1421 1.429 . S
C1405 H1427 0.950 . S
C1406 H1402 0.949 . S
C1406 C1414 1.574 . S
C1406 C1422 1.368 . S
H1407 C1415 0.950 . S
H1408 C1413 0.950 . S
H1409 C1414 0.949 . S
H1410 C1416 0.950 . S
H1411 C1417 0.950 . S
H1412 C1418 0.949 . S
C1413 H1408 0.950 . S
C1413 C1415 1.327 . S
C1413 C1419 1.429 . S
C1414 C1406 1.574 . S
C1414 H1409 0.949 . S
C1414 C1420 1.368 . S
C1415 C1399 1.349 . S
C1415 H1407 0.950 . S
C1415 C1413 1.327 . S
C1416 C1404 1.349 . S
C1416 H1410 0.950 . S
C1416 C1417 1.327 . S
C1417 H1411 0.950 . S
C1417 C1416 1.327 . S
C1417 C1421 1.429 . S
C1418 C1401 1.574 . S
C1418 H1412 0.949 . S
C1418 C1422 1.368 . S
C1419 C1400 1.429 . S
C1419 C1413 1.429 . S
C1419 C1420 1.523 . S
C1420 C1401 1.368 . S
C1420 C1414 1.368 . S
C1420 C1419 1.523 . S
C1421 C1405 1.429 . S
C1421 C1417 1.429 . S
C1421 C1422 1.523 . S
C1422 C1406 1.368 . S
C1422 C1418 1.368 . S
C1422 C1421 1.523 . S
H1423 C1398 0.950 . S
H1424 C1400 0.950 . S
H1425 C1401 0.949 . S
H1426 C1403 0.950 . S
H1427 C1405 0.950 . S
C1428 C1429 1.349 . S
C1428 C1430 1.327 . S
C1428 H1453 0.950 . S
C1429 C1428 1.349 . S
C1429 C1445 1.349 . S
C1430 C1428 1.327 . S
C1430 C1449 1.429 . S
C1430 H1454 0.950 . S
C1431 C1448 1.574 . S
C1431 C1450 1.368 . S
C1431 H1455 0.949 . S
H1432 C1436 0.949 . S
C1433 C1434 1.349 . S
C1433 C1435 1.327 . S
C1433 H1456 0.950 . S
C1434 C1433 1.349 . S
C1434 C1446 1.349 . S
C1435 C1433 1.327 . S
C1435 C1451 1.429 . S
C1435 H1457 0.950 . S
C1436 H1432 0.949 . S
C1436 C1444 1.574 . S
C1436 C1452 1.368 . S
H1437 C1445 0.950 . S
H1438 C1443 0.950 . S
H1439 C1444 0.949 . S
H1440 C1446 0.950 . S
H1441 C1447 0.950 . S
H1442 C1448 0.949 . S
C1443 H1438 0.950 . S
C1443 C1445 1.327 . S
C1443 C1449 1.429 . S
C1444 C1436 1.574 . S
C1444 H1439 0.949 . S
C1444 C1450 1.368 . S
C1445 C1429 1.349 . S
C1445 H1437 0.950 . S
C1445 C1443 1.327 . S
C1446 C1434 1.349 . S
C1446 H1440 0.950 . S
C1446 C1447 1.327 . S
C1447 H1441 0.950 . S
C1447 C1446 1.327 . S
C1447 C1451 1.429 . S
C1448 C1431 1.574 . S
C1448 H1442 0.949 . S
C1448 C1452 1.368 . S
C1449 C1430 1.429 . S
C1449 C1443 1.429 . S
C1449 C1450 1.523 . S
C1450 C1431 1.368 . S
C1450 C1444 1.368 . S
C1450 C1449 1.523 . S
C1451 C1435 1.429 . S
C1451 C1447 1.429 . S
C1451 C1452 1.523 . S
C1452 C1436 1.368 . S
C1452 C1448 1.368 . S
C1452 C1451 1.523 . S
H1453 C1428 0.950 . S
H1454 C1430 0.950 . S
H1455 C1431 0.949 . S
H1456 C1433 0.950 . S
H1457 C1435 0.950 . S
C1458 C1459 1.349 . S
C1458 C1460 1.327 . S
C1458 H1483 0.950 . S
C1459 C1458 1.349 . S
C1459 C1475 1.349 . S
C1460 C1458 1.327 . S
C1460 C1479 1.429 . S
C1460 H1484 0.950 . S
C1461 C1478 1.574 . S
C1461 C1480 1.368 . S
C1461 H1485 0.949 . S
H1462 C1466 0.949 . S
C1463 C1464 1.349 . S
C1463 C1465 1.327 . S
C1463 H1486 0.950 . S
C1464 C1463 1.349 . S
C1464 C1476 1.349 . S
C1465 C1463 1.327 . S
C1465 C1481 1.429 . S
C1465 H1487 0.950 . S
C1466 H1462 0.949 . S
C1466 C1474 1.574 . S
C1466 C1482 1.368 . S
H1467 C1475 0.950 . S
H1468 C1473 0.950 . S
H1469 C1474 0.949 . S
H1470 C1476 0.950 . S
H1471 C1477 0.950 . S
H1472 C1478 0.949 . S
C1473 H1468 0.950 . S
C1473 C1475 1.327 . S
C1473 C1479 1.429 . S
C1474 C1466 1.574 . S
C1474 H1469 0.949 . S
C1474 C1480 1.368 . S
C1475 C1459 1.349 . S
C1475 H1467 0.950 . S
C1475 C1473 1.327 . S
C1476 C1464 1.349 . S
C1476 H1470 0.950 . S
C1476 C1477 1.327 . S
C1477 H1471 0.950 . S
C1477 C1476 1.327 . S
C1477 C1481 1.429 . S
C1478 C1461 1.574 . S
C1478 H1472 0.949 . S
C1478 C1482 1.368 . S
C1479 C1460 1.429 . S
C1479 C1473 1.429 . S
C1479 C1480 1.523 . S
C1480 C1461 1.368 . S
C1480 C1474 1.368 . S
C1480 C1479 1.523 . S
C1481 C1465 1.429 . S
C1481 C1477 1.429 . S
C1481 C1482 1.523 . S
C1482 C1466 1.368 . S
C1482 C1478 1.368 . S
C1482 C1481 1.523 . S
H1483 C1458 0.950 . S
H1484 C1460 0.950 . S
H1485 C1461 0.949 . S
H1486 C1463 0.950 . S
H1487 C1465 0.950 . S
C1488 C1489 1.349 . S
C1488 C1490 1.327 . S
C1488 H1513 0.950 . S
C1489 C1488 1.349 . S
C1489 C1505 1.349 . S
C1490 C1488 1.327 . S
C1490 C1509 1.429 . S
C1490 H1514 0.950 . S
C1491 C1508 1.574 . S
C1491 C1510 1.368 . S
C1491 H1515 0.949 . S
H1492 C1496 0.949 . S
C1493 C1494 1.349 . S
C1493 C1495 1.327 . S
C1493 H1516 0.950 . S
C1494 C1493 1.349 . S
C1494 C1506 1.349 . S
C1495 C1493 1.327 . S
C1495 C1511 1.429 . S
C1495 H1517 0.950 . S
C1496 H1492 0.949 . S
C1496 C1504 1.574 . S
C1496 C1512 1.368 . S
H1497 C1505 0.950 . S
H1498 C1503 0.950 . S
H1499 C1504 0.949 . S
H1500 C1506 0.950 . S
H1501 C1507 0.950 . S
H1502 C1508 0.949 . S
C1503 H1498 0.950 . S
C1503 C1505 1.327 . S
C1503 C1509 1.429 . S
C1504 C1496 1.574 . S
C1504 H1499 0.949 . S
C1504 C1510 1.368 . S
C1505 C1489 1.349 . S
C1505 H1497 0.950 . S
C1505 C1503 1.327 . S
C1506 C1494 1.349 . S
C1506 H1500 0.950 . S
C1506 C1507 1.327 . S
C1507 H1501 0.950 . S
C1507 C1506 1.327 . S
C1507 C1511 1.429 . S
C1508 C1491 1.574 . S
C1508 H1502 0.949 . S
C1508 C1512 1.368 . S
C1509 C1490 1.429 . S
C1509 C1503 1.429 . S
C1509 C1510 1.523 . S
C1510 C1491 1.368 . S
C1510 C1504 1.368 . S
C1510 C1509 1.523 . S
C1511 C1495 1.429 . S
C1511 C1507 1.429 . S
C1511 C1512 1.523 . S
C1512 C1496 1.368 . S
C1512 C1508 1.368 . S
C1512 C1511 1.523 . S
H1513 C1488 0.950 . S
H1514 C1490 0.950 . S
H1515 C1491 0.949 . S
H1516 C1493 0.950 . S
H1517 C1495 0.950 . S
C1518 C1519 1.349 . S
C1518 C1520 1.327 . S
C1518 H1543 0.950 . S
C1519 C1518 1.349 . S
C1519 C1535 1.349 . S
C1520 C1518 1.327 . S
C1520 C1539 1.429 . S
C1520 H1544 0.950 . S
C1521 C1538 1.574 . S
C1521 C1540 1.368 . S
C1521 H1545 0.949 . S
H1522 C1526 0.949 . S
C1523 C1524 1.349 . S
C1523 C1525 1.327 . S
C1523 H1546 0.950 . S
C1524 C1523 1.349 . S
C1524 C1536 1.349 . S
C1525 C1523 1.327 . S
C1525 C1541 1.429 . S
C1525 H1547 0.950 . S
C1526 H1522 0.949 . S
C1526 C1534 1.574 . S
C1526 C1542 1.368 . S
H1527 C1535 0.950 . S
H1528 C1533 0.950 . S
H1529 C1534 0.949 . S
H1530 C1536 0.950 . S
H1531 C1537 0.950 . S
H1532 C1538 0.949 . S
C1533 H1528 0.950 . S
C1533 C1535 1.327 . S
C1533 C1539 1.429 . S
C1534 C1526 1.574 . S
C1534 H1529 0.949 . S
C1534 C1540 1.368 . S
C1535 C1519 1.349 . S
C1535 H1527 0.950 . S
C1535 C1533 1.327 . S
C1536 C1524 1.349 . S
C1536 H1530 0.950 . S
C1536 C1537 1.327 . S
C1537 H1531 0.950 . S
C1537 C1536 1.327 . S
C1537 C1541 1.429 . S
C1538 C1521 1.574 . S
C1538 H1532 0.949 . S
C1538 C1542 1.368 . S
C1539 C1520 1.429 . S
C1539 C1533 1.429 . S
C1539 C1540 1.523 . S
C1540 C1521 1.368 . S
C1540 C1534 1.368 . S
C1540 C1539 1.523 . S
C1541 C1525 1.429 . S
C1541 C1537 1.429 . S
C1541 C1542 1.523 . S
C1542 C1526 1.368 . S
C1542 C1538 1.368 . S
C1542 C1541 1.523 . S
H1543 C1518 0.950 . S
H1544 C1520 0.950 . S
H1545 C1521 0.949 . S
H1546 C1523 0.950 . S
H1547 C1525 0.950 . S
C1548 C1549 1.349 . S
C1548 C1550 1.327 . S
C1548 H1573 0.950 . S
C1549 C1548 1.349 . S
C1549 C1565 1.349 . S
C1550 C1548 1.327 . S
C1550 C1569 1.429 . S
C1550 H1574 0.950 . S
C1551 C1568 1.574 . S
C1551 C1570 1.368 . S
C1551 H1575 0.949 . S
H1552 C1556 0.949 . S
C1553 C1554 1.349 . S
C1553 C1555 1.327 . S
C1553 H1576 0.950 . S
C1554 C1553 1.349 . S
C1554 C1566 1.349 . S
C1555 C1553 1.327 . S
C1555 C1571 1.429 . S
C1555 H1577 0.950 . S
C1556 H1552 0.949 . S
C1556 C1564 1.574 . S
C1556 C1572 1.368 . S
H1557 C1565 0.950 . S
H1558 C1563 0.950 . S
H1559 C1564 0.949 . S
H1560 C1566 0.950 . S
H1561 C1567 0.950 . S
H1562 C1568 0.949 . S
C1563 H1558 0.950 . S
C1563 C1565 1.327 . S
C1563 C1569 1.429 . S
C1564 C1556 1.574 . S
C1564 H1559 0.949 . S
C1564 C1570 1.368 . S
C1565 C1549 1.349 . S
C1565 H1557 0.950 . S
C1565 C1563 1.327 . S
C1566 C1554 1.349 . S
C1566 H1560 0.950 . S
C1566 C1567 1.327 . S
C1567 H1561 0.950 . S
C1567 C1566 1.327 . S
C1567 C1571 1.429 . S
C1568 C1551 1.574 . S
C1568 H1562 0.949 . S
C1568 C1572 1.368 . S
C1569 C1550 1.429 . S
C1569 C1563 1.429 . S
C1569 C1570 1.523 . S
C1570 C1551 1.368 . S
C1570 C1564 1.368 . S
C1570 C1569 1.523 . S
C1571 C1555 1.429 . S
C1571 C1567 1.429 . S
C1571 C1572 1.523 . S
C1572 C1556 1.368 . S
C1572 C1568 1.368 . S
C1572 C1571 1.523 . S
H1573 C1548 0.950 . S
H1574 C1550 0.950 . S
H1575 C1551 0.949 . S
H1576 C1553 0.950 . S
H1577 C1555 0.950 . S
C1578 C1579 1.349 . S
C1578 C1580 1.327 . S
C1578 H1603 0.950 . S
C1579 C1578 1.349 . S
C1579 C1595 1.349 . S
C1580 C1578 1.327 . S
C1580 C1599 1.429 . S
C1580 H1604 0.950 . S
C1581 C1598 1.574 . S
C1581 C1600 1.368 . S
C1581 H1605 0.949 . S
H1582 C1586 0.949 . S
C1583 C1584 1.349 . S
C1583 C1585 1.327 . S
C1583 H1606 0.950 . S
C1584 C1583 1.349 . S
C1584 C1596 1.349 . S
C1585 C1583 1.327 . S
C1585 C1601 1.429 . S
C1585 H1607 0.950 . S
C1586 H1582 0.949 . S
C1586 C1594 1.574 . S
C1586 C1602 1.368 . S
H1587 C1595 0.950 . S
H1588 C1593 0.950 . S
H1589 C1594 0.949 . S
H1590 C1596 0.950 . S
H1591 C1597 0.950 . S
H1592 C1598 0.949 . S
C1593 H1588 0.950 . S
C1593 C1595 1.327 . S
C1593 C1599 1.429 . S
C1594 C1586 1.574 . S
C1594 H1589 0.949 . S
C1594 C1600 1.368 . S
C1595 C1579 1.349 . S
C1595 H1587 0.950 . S
C1595 C1593 1.327 . S
C1596 C1584 1.349 . S
C1596 H1590 0.950 . S
C1596 C1597 1.327 . S
C1597 H1591 0.950 . S
C1597 C1596 1.327 . S
C1597 C1601 1.429 . S
C1598 C1581 1.574 . S
C1598 H1592 0.949 . S
C1598 C1602 1.368 . S
C1599 C1580 1.429 . S
C1599 C1593 1.429 . S
C1599 C1600 1.523 . S
C1600 C1581 1.368 . S
C1600 C1594 1.368 . S
C1600 C1599 1.523 . S
C1601 C1585 1.429 . S
C1601 C1597 1.429 . S
C1601 C1602 1.523 . S
C1602 C1586 1.368 . S
C1602 C1598 1.368 . S
C1602 C1601 1.523 . S
H1603 C1578 0.950 . S
H1604 C1580 0.950 . S
H1605 C1581 0.949 . S
H1606 C1583 0.950 . S
H1607 C1585 0.950 . S
C1608 C1609 1.349 . S
C1608 C1610 1.327 . S
C1608 H1633 0.950 . S
C1609 C1608 1.349 . S
C1609 C1625 1.349 . S
C1610 C1608 1.327 . S
C1610 C1629 1.429 . S
C1610 H1634 0.950 . S
C1611 C1628 1.574 . S
C1611 C1630 1.368 . S
C1611 H1635 0.949 . S
H1612 C1616 0.949 . S
C1613 C1614 1.349 . S
C1613 C1615 1.327 . S
C1613 H1636 0.950 . S
C1614 C1613 1.349 . S
C1614 C1626 1.349 . S
C1615 C1613 1.327 . S
C1615 C1631 1.429 . S
C1615 H1637 0.950 . S
C1616 H1612 0.949 . S
C1616 C1624 1.574 . S
C1616 C1632 1.368 . S
H1617 C1625 0.950 . S
H1618 C1623 0.950 . S
H1619 C1624 0.949 . S
H1620 C1626 0.950 . S
H1621 C1627 0.950 . S
H1622 C1628 0.949 . S
C1623 H1618 0.950 . S
C1623 C1625 1.327 . S
C1623 C1629 1.429 . S
C1624 C1616 1.574 . S
C1624 H1619 0.949 . S
C1624 C1630 1.368 . S
C1625 C1609 1.349 . S
C1625 H1617 0.950 . S
C1625 C1623 1.327 . S
C1626 C1614 1.349 . S
C1626 H1620 0.950 . S
C1626 C1627 1.327 . S
C1627 H1621 0.950 . S
C1627 C1626 1.327 . S
C1627 C1631 1.429 . S
C1628 C1611 1.574 . S
C1628 H1622 0.949 . S
C1628 C1632 1.368 . S
C1629 C1610 1.429 . S
C1629 C1623 1.429 . S
C1629 C1630 1.523 . S
C1630 C1611 1.368 . S
C1630 C1624 1.368 . S
C1630 C1629 1.523 . S
C1631 C1615 1.429 . S
C1631 C1627 1.429 . S
C1631 C1632 1.523 . S
C1632 C1616 1.368 . S
C1632 C1628 1.368 . S
C1632 C1631 1.523 . S
H1633 C1608 0.950 . S
H1634 C1610 0.950 . S
H1635 C1611 0.949 . S
H1636 C1613 0.950 . S
H1637 C1615 0.950 . S
C1638 C1639 1.349 . S
C1638 C1640 1.327 . S
C1638 H1663 0.950 . S
C1639 C1638 1.349 . S
C1639 C1655 1.349 . S
C1640 C1638 1.327 . S
C1640 C1659 1.429 . S
C1640 H1664 0.950 . S
C1641 C1658 1.574 . S
C1641 C1660 1.368 . S
C1641 H1665 0.949 . S
H1642 C1646 0.949 . S
C1643 C1644 1.349 . S
C1643 C1645 1.327 . S
C1643 H1666 0.950 . S
C1644 C1643 1.349 . S
C1644 C1656 1.349 . S
C1645 C1643 1.327 . S
C1645 C1661 1.429 . S
C1645 H1667 0.950 . S
C1646 H1642 0.949 . S
C1646 C1654 1.574 . S
C1646 C1662 1.368 . S
H1647 C1655 0.950 . S
H1648 C1653 0.950 . S
H1649 C1654 0.949 . S
H1650 C1656 0.950 . S
H1651 C1657 0.950 . S
H1652 C1658 0.949 . S
C1653 H1648 0.950 . S
C1653 C1655 1.327 . S
C1653 C1659 1.429 . S
C1654 C1646 1.574 . S
C1654 H1649 0.949 . S
C1654 C1660 1.368 . S
C1655 C1639 1.349 . S
C1655 H1647 0.950 . S
C1655 C1653 1.327 . S
C1656 C1644 1.349 . S
C1656 H1650 0.950 . S
C1656 C1657 1.327 . S
C1657 H1651 0.950 . S
C1657 C1656 1.327 . S
C1657 C1661 1.429 . S
C1658 C1641 1.574 . S
C1658 H1652 0.949 . S
C1658 C1662 1.368 . S
C1659 C1640 1.429 . S
C1659 C1653 1.429 . S
C1659 C1660 1.523 . S
C1660 C1641 1.368 . S
C1660 C1654 1.368 . S
C1660 C1659 1.523 . S
C1661 C1645 1.429 . S
C1661 C1657 1.429 . S
C1661 C1662 1.523 . S
C1662 C1646 1.368 . S
C1662 C1658 1.368 . S
C1662 C1661 1.523 . S
H1663 C1638 0.950 . S
H1664 C1640 0.950 . S
H1665 C1641 0.949 . S
H1666 C1643 0.950 . S
H1667 C1645 0.950 . S
C1668 C1669 1.349 . S
C1668 C1670 1.327 . S
C1668 H1693 0.950 . S
C1669 C1668 1.349 . S
C1669 C1685 1.349 . S
C1670 C1668 1.327 . S
C1670 C1689 1.429 . S
C1670 H1694 0.950 . S
C1671 C1688 1.574 . S
C1671 C1690 1.368 . S
C1671 H1695 0.949 . S
H1672 C1676 0.949 . S
C1673 C1674 1.349 . S
C1673 C1675 1.327 . S
C1673 H1696 0.950 . S
C1674 C1673 1.349 . S
C1674 C1686 1.349 . S
C1675 C1673 1.327 . S
C1675 C1691 1.429 . S
C1675 H1697 0.950 . S
C1676 H1672 0.949 . S
C1676 C1684 1.574 . S
C1676 C1692 1.368 . S
H1677 C1685 0.950 . S
H1678 C1683 0.950 . S
H1679 C1684 0.949 . S
H1680 C1686 0.950 . S
H1681 C1687 0.950 . S
H1682 C1688 0.949 . S
C1683 H1678 0.950 . S
C1683 C1685 1.327 . S
C1683 C1689 1.429 . S
C1684 C1676 1.574 . S
C1684 H1679 0.949 . S
C1684 C1690 1.368 . S
C1685 C1669 1.349 . S
C1685 H1677 0.950 . S
C1685 C1683 1.327 . S
C1686 C1674 1.349 . S
C1686 H1680 0.950 . S
C1686 C1687 1.327 . S
C1687 H1681 0.950 . S
C1687 C1686 1.327 . S
C1687 C1691 1.429 . S
C1688 C1671 1.574 . S
C1688 H1682 0.949 . S
C1688 C1692 1.368 . S
C1689 C1670 1.429 . S
C1689 C1683 1.429 . S
C1689 C1690 1.523 . S
C1690 C1671 1.368 . S
C1690 C1684 1.368 . S
C1690 C1689 1.523 . S
C1691 C1675 1.429 . S
C1691 C1687 1.429 . S
C1691 C1692 1.523 . S
C1692 C1676 1.368 . S
C1692 C1688 1.368 . S
C1692 C1691 1.523 . S
H1693 C1668 0.950 . S
H1694 C1670 0.950 . S
H1695 C1671 0.949 . S
H1696 C1673 0.950 . S
H1697 C1675 0.950 . S
C1698 C1699 1.349 . S
C1698 C1700 1.327 . S
C1698 H1723 0.950 . S
C1699 C1698 1.349 . S
C1699 C1715 1.349 . S
C1700 C1698 1.327 . S
C1700 C1719 1.429 . S
C1700 H1724 0.950 . S
C1701 C1718 1.574 . S
C1701 C1720 1.368 . S
C1701 H1725 0.949 . S
H1702 C1706 0.949 . S
C1703 C1704 1.349 . S
C1703 C1705 1.327 . S
C1703 H1726 0.950 . S
C1704 C1703 1.349 . S
C1704 C1716 1.349 . S
C1705 C1703 1.327 . S
C1705 C1721 1.429 . S
C1705 H1727 0.950 . S
C1706 H1702 0.949 . S
C1706 C1714 1.574 . S
C1706 C1722 1.368 . S
H1707 C1715 0.950 . S
H1708 C1713 0.950 . S
H1709 C1714 0.949 . S
H1710 C1716 0.950 . S
H1711 C1717 0.950 . S
H1712 C1718 0.949 . S
C1713 H1708 0.950 . S
C1713 C1715 1.327 . S
C1713 C1719 1.429 . S
C1714 C1706 1.574 . S
C1714 H1709 0.949 . S
C1714 C1720 1.368 . S
C1715 C1699 1.349 . S
C1715 H1707 0.950 . S
C1715 C1713 1.327 . S
C1716 C1704 1.349 . S
C1716 H1710 0.950 . S
C1716 C1717 1.327 . S
C1717 H1711 0.950 . S
C1717 C1716 1.327 . S
C1717 C1721 1.429 . S
C1718 C1701 1.574 . S
C1718 H1712 0.949 . S
C1718 C1722 1.368 . S
C1719 C1700 1.429 . S
C1719 C1713 1.429 . S
C1719 C1720 1.523 . S
C1720 C1701 1.368 . S
C1720 C1714 1.368 . S
C1720 C1719 1.523 . S
C1721 C1705 1.429 . S
C1721 C1717 1.429 . S
C1721 C1722 1.523 . S
C1722 C1706 1.368 . S
C1722 C1718 1.368 . S
C1722 C1721 1.523 . S
H1723 C1698 0.950 . S
H1724 C1700 0.950 . S
H1725 C1701 0.949 . S
H1726 C1703 0.950 . S
H1727 C1705 0.950 . S
C1728 C1729 1.349 . S
C1728 C1730 1.327 . S
C1728 H1753 0.950 . S
C1729 C1728 1.349 . S
C1729 C1745 1.349 . S
C1730 C1728 1.327 . S
C1730 C1749 1.429 . S
C1730 H1754 0.950 . S
C1731 C1748 1.574 . S
C1731 C1750 1.368 . S
C1731 H1755 0.949 . S
H1732 C1736 0.949 . S
C1733 C1734 1.349 . S
C1733 C1735 1.327 . S
C1733 H1756 0.950 . S
C1734 C1733 1.349 . S
C1734 C1746 1.349 . S
C1735 C1733 1.327 . S
C1735 C1751 1.429 . S
C1735 H1757 0.950 . S
C1736 H1732 0.949 . S
C1736 C1744 1.574 . S
C1736 C1752 1.368 . S
H1737 C1745 0.950 . S
H1738 C1743 0.950 . S
H1739 C1744 0.949 . S
H1740 C1746 0.950 . S
H1741 C1747 0.950 . S
H1742 C1748 0.949 . S
C1743 H1738 0.950 . S
C1743 C1745 1.327 . S
C1743 C1749 1.429 . S
C1744 C1736 1.574 . S
C1744 H1739 0.949 . S
C1744 C1750 1.368 . S
C1745 C1729 1.349 . S
C1745 H1737 0.950 . S
C1745 C1743 1.327 . S
C1746 C1734 1.349 . S
C1746 H1740 0.950 . S
C1746 C1747 1.327 . S
C1747 H1741 0.950 . S
C1747 C1746 1.327 . S
C1747 C1751 1.429 . S
C1748 C1731 1.574 . S
C1748 H1742 0.949 . S
C1748 C1752 1.368 . S
C1749 C1730 1.429 . S
C1749 C1743 1.429 . S
C1749 C1750 1.523 . S
C1750 C1731 1.368 . S
C1750 C1744 1.368 . S
C1750 C1749 1.523 . S
C1751 C1735 1.429 . S
C1751 C1747 1.429 . S
C1751 C1752 1.523 . S
C1752 C1736 1.368 . S
C1752 C1748 1.368 . S
C1752 C1751 1.523 . S
H1753 C1728 0.950 . S
H1754 C1730 0.950 . S
H1755 C1731 0.949 . S
H1756 C1733 0.950 . S
H1757 C1735 0.950 . S
C1758 C1759 1.349 . S
C1758 C1760 1.327 . S
C1758 H1783 0.950 . S
C1759 C1758 1.349 . S
C1759 C1775 1.349 . S
C1760 C1758 1.327 . S
C1760 C1779 1.429 . S
C1760 H1784 0.950 . S
C1761 C1778 1.574 . S
C1761 C1780 1.368 . S
C1761 H1785 0.949 . S
H1762 C1766 0.949 . S
C1763 C1764 1.349 . S
C1763 C1765 1.327 . S
C1763 H1786 0.950 . S
C1764 C1763 1.349 . S
C1764 C1776 1.349 . S
C1765 C1763 1.327 . S
C1765 C1781 1.429 . S
C1765 H1787 0.950 . S
C1766 H1762 0.949 . S
C1766 C1774 1.574 . S
C1766 C1782 1.368 . S
H1767 C1775 0.950 . S
H1768 C1773 0.950 . S
H1769 C1774 0.949 . S
H1770 C1776 0.950 . S
H1771 C1777 0.950 . S
H1772 C1778 0.949 . S
C1773 H1768 0.950 . S
C1773 C1775 1.327 . S
C1773 C1779 1.429 . S
C1774 C1766 1.574 . S
C1774 H1769 0.949 . S
C1774 C1780 1.368 . S
C1775 C1759 1.349 . S
C1775 H1767 0.950 . S
C1775 C1773 1.327 . S
C1776 C1764 1.349 . S
C1776 H1770 0.950 . S
C1776 C1777 1.327 . S
C1777 H1771 0.950 . S
C1777 C1776 1.327 . S
C1777 C1781 1.429 . S
C1778 C1761 1.574 . S
C1778 H1772 0.949 . S
C1778 C1782 1.368 . S
C1779 C1760 1.429 . S
C1779 C1773 1.429 . S
C1779 C1780 1.523 . S
C1780 C1761 1.368 . S
C1780 C1774 1.368 . S
C1780 C1779 1.523 . S
C1781 C1765 1.429 . S
C1781 C1777 1.429 . S
C1781 C1782 1.523 . S
C1782 C1766 1.368 . S
C1782 C1778 1.368 . S
C1782 C1781 1.523 . S
H1783 C1758 0.950 . S
H1784 C1760 0.950 . S
H1785 C1761 0.949 . S
H1786 C1763 0.950 . S
H1787 C1765 0.950 . S
C1788 C1789 1.349 . S
C1788 C1790 1.327 . S
C1788 H1813 0.950 . S
C1789 C1788 1.349 . S
C1789 C1805 1.349 . S
C1790 C1788 1.327 . S
C1790 C1809 1.429 . S
C1790 H1814 0.950 . S
C1791 C1808 1.574 . S
C1791 C1810 1.368 . S
C1791 H1815 0.949 . S
H1792 C1796 0.949 . S
C1793 C1794 1.349 . S
C1793 C1795 1.327 . S
C1793 H1816 0.950 . S
C1794 C1793 1.349 . S
C1794 C1806 1.349 . S
C1795 C1793 1.327 . S
C1795 C1811 1.429 . S
C1795 H1817 0.950 . S
C1796 H1792 0.949 . S
C1796 C1804 1.574 . S
C1796 C1812 1.368 . S
H1797 C1805 0.950 . S
H1798 C1803 0.950 . S
H1799 C1804 0.949 . S
H1800 C1806 0.950 . S
H1801 C1807 0.950 . S
H1802 C1808 0.949 . S
C1803 H1798 0.950 . S
C1803 C1805 1.327 . S
C1803 C1809 1.429 . S
C1804 C1796 1.574 . S
C1804 H1799 0.949 . S
C1804 C1810 1.368 . S
C1805 C1789 1.349 . S
C1805 H1797 0.950 . S
C1805 C1803 1.327 . S
C1806 C1794 1.349 . S
C1806 H1800 0.950 . S
C1806 C1807 1.327 . S
C1807 H1801 0.950 . S
C1807 C1806 1.327 . S
C1807 C1811 1.429 . S
C1808 C1791 1.574 . S
C1808 H1802 0.949 . S
C1808 C1812 1.368 . S
C1809 C1790 1.429 . S
C1809 C1803 1.429 . S
C1809 C1810 1.523 . S
C1810 C1791 1.368 . S
C1810 C1804 1.368 . S
C1810 C1809 1.523 . S
C1811 C1795 1.429 . S
C1811 C1807 1.429 . S
C1811 C1812 1.523 . S
C1812 C1796 1.368 . S
C1812 C1808 1.368 . S
C1812 C1811 1.523 . S
H1813 C1788 0.950 . S
H1814 C1790 0.950 . S
H1815 C1791 0.949 . S
H1816 C1793 0.950 . S
H1817 C1795 0.950 . S
C1818 C1819 1.349 . S
C1818 C1820 1.327 . S
C1818 H1843 0.950 . S
C1819 C1818 1.349 . S
C1819 C1835 1.349 . S
C1820 C1818 1.327 . S
C1820 C1839 1.429 . S
C1820 H1844 0.950 . S
C1821 C1838 1.574 . S
C1821 C1840 1.368 . S
C1821 H1845 0.949 . S
H1822 C1826 0.949 . S
C1823 C1824 1.349 . S
C1823 C1825 1.327 . S
C1823 H1846 0.950 . S
C1824 C1823 1.349 . S
C1824 C1836 1.349 . S
C1825 C1823 1.327 . S
C1825 C1841 1.429 . S
C1825 H1847 0.950 . S
C1826 H1822 0.949 . S
C1826 C1834 1.574 . S
C1826 C1842 1.368 . S
H1827 C1835 0.950 . S
H1828 C1833 0.950 . S
H1829 C1834 0.949 . S
H1830 C1836 0.950 . S
H1831 C1837 0.950 . S
H1832 C1838 0.949 . S
C1833 H1828 0.950 . S
C1833 C1835 1.327 . S
C1833 C1839 1.429 . S
C1834 C1826 1.574 . S
C1834 H1829 0.949 . S
C1834 C1840 1.368 . S
C1835 C1819 1.349 . S
C1835 H1827 0.950 . S
C1835 C1833 1.327 . S
C1836 C1824 1.349 . S
C1836 H1830 0.950 . S
C1836 C1837 1.327 . S
C1837 H1831 0.950 . S
C1837 C1836 1.327 . S
C1837 C1841 1.429 . S
C1838 C1821 1.574 . S
C1838 H1832 0.949 . S
C1838 C1842 1.368 . S
C1839 C1820 1.429 . S
C1839 C1833 1.429 . S
C1839 C1840 1.523 . S
C1840 C1821 1.368 . S
C1840 C1834 1.368 . S
C1840 C1839 1.523 . S
C1841 C1825 1.429 . S
C1841 C1837 1.429 . S
C1841 C1842 1.523 . S
C1842 C1826 1.368 . S
C1842 C1838 1.368 . S
C1842 C1841 1.523 . S
H1843 C1818 0.950 . S
H1844 C1820 0.950 . S
H1845 C1821 0.949 . S
H1846 C1823 0.950 . S
H1847 C1825 0.950 . S
C1848 C1849 1.349 . S
C1848 C1850 1.327 . S
C1848 H1873 0.950 . S
C1849 C1848 1.349 . S
C1849 C1865 1.349 . S
C1850 C1848 1.327 . S
C1850 C1869 1.429 . S
C1850 H1874 0.950 . S
C1851 C1868 1.574 . S
C1851 C1870 1.368 . S
C1851 H1875 0.949 . S
H1852 C1856 0.949 . S
C1853 C1854 1.349 . S
C1853 C1855 1.327 . S
C1853 H1876 0.950 . S
C1854 C1853 1.349 . S
C1854 C1866 1.349 . S
C1855 C1853 1.327 . S
C1855 C1871 1.429 . S
C1855 H1877 0.950 . S
C1856 H1852 0.949 . S
C1856 C1864 1.574 . S
C1856 C1872 1.368 . S
H1857 C1865 0.950 . S
H1858 C1863 0.950 . S
H1859 C1864 0.949 . S
H1860 C1866 0.950 . S
H1861 C1867 0.950 . S
H1862 C1868 0.949 . S
C1863 H1858 0.950 . S
C1863 C1865 1.327 . S
C1863 C1869 1.429 . S
C1864 C1856 1.574 . S
C1864 H1859 0.949 . S
C1864 C1870 1.368 . S
C1865 C1849 1.349 . S
C1865 H1857 0.950 . S
C1865 C1863 1.327 . S
C1866 C1854 1.349 . S
C1866 H1860 0.950 . S
C1866 C1867 1.327 . S
C1867 H1861 0.950 . S
C1867 C1866 1.327 . S
C1867 C1871 1.429 . S
C1868 C1851 1.574 . S
C1868 H1862 0.949 . S
C1868 C1872 1.368 . S
C1869 C1850 1.429 . S
C1869 C1863 1.429 . S
C1869 C1870 1.523 . S
C1870 C1851 1.368 . S
C1870 C1864 1.368 . S
C1870 C1869 1.523 . S
C1871 C1855 1.429 . S
C1871 C1867 1.429 . S
C1871 C1872 1.523 . S
C1872 C1856 1.368 . S
C1872 C1868 1.368 . S
C1872 C1871 1.523 . S
H1873 C1848 0.950 . S
H1874 C1850 0.950 . S
H1875 C1851 0.949 . S
H1876 C1853 0.950 . S
H1877 C1855 0.950 . S
C1878 C1879 1.349 . S
C1878 C1880 1.327 . S
C1878 H1903 0.950 . S
C1879 C1878 1.349 . S
C1879 C1895 1.349 . S
C1880 C1878 1.327 . S
C1880 C1899 1.429 . S
C1880 H1904 0.950 . S
C1881 C1898 1.574 . S
C1881 C1900 1.368 . S
C1881 H1905 0.949 . S
H1882 C1886 0.949 . S
C1883 C1884 1.349 . S
C1883 C1885 1.327 . S
C1883 H1906 0.950 . S
C1884 C1883 1.349 . S
C1884 C1896 1.349 . S
C1885 C1883 1.327 . S
C1885 C1901 1.429 . S
C1885 H1907 0.950 . S
C1886 H1882 0.949 . S
C1886 C1894 1.574 . S
C1886 C1902 1.368 . S
H1887 C1895 0.950 . S
H1888 C1893 0.950 . S
H1889 C1894 0.949 . S
H1890 C1896 0.950 . S
H1891 C1897 0.950 . S
H1892 C1898 0.949 . S
C1893 H1888 0.950 . S
C1893 C1895 1.327 . S
C1893 C1899 1.429 . S
C1894 C1886 1.574 . S
C1894 H1889 0.949 . S
C1894 C1900 1.368 . S
C1895 C1879 1.349 . S
C1895 H1887 0.950 . S
C1895 C1893 1.327 . S
C1896 C1884 1.349 . S
C1896 H1890 0.950 . S
C1896 C1897 1.327 . S
C1897 H1891 0.950 . S
C1897 C1896 1.327 . S
C1897 C1901 1.429 . S
C1898 C1881 1.574 . S
C1898 H1892 0.949 . S
C1898 C1902 1.368 . S
C1899 C1880 1.429 . S
C1899 C1893 1.429 . S
C1899 C1900 1.523 . S
C1900 C1881 1.368 . S
C1900 C1894 1.368 . S
C1900 C1899 1.523 . S
C1901 C1885 1.429 . S
C1901 C1897 1.429 . S
C1901 C1902 1.523 . S
C1902 C1886 1.368 . S
C1902 C1898 1.368 . S
C1902 C1901 1.523 . S
H1903 C1878 0.950 . S
H1904 C1880 0.950 . S
H1905 C1881 0.949 . S
H1906 C1883 0.950 . S
H1907 C1885 0.950 . S
C1908 C1909 1.349 . S
C1908 C1910 1.327 . S
C1908 H1933 0.950 . S
C1909 C1908 1.349 . S
C1909 C1925 1.349 . S
C1910 C1908 1.327 . S
C1910 C1929 1.429 . S
C1910 H1934 0.950 . S
C1911 C1928 1.574 . S
C1911 C1930 1.368 . S
C1911 H1935 0.949 . S
H1912 C1916 0.949 . S
C1913 C1914 1.349 . S
C1913 C1915 1.327 . S
C1913 H1936 0.950 . S
C1914 C1913 1.349 . S
C1914 C1926 1.349 . S
C1915 C1913 1.327 . S
C1915 C1931 1.429 . S
C1915 H1937 0.950 . S
C1916 H1912 0.949 . S
C1916 C1924 1.574 . S
C1916 C1932 1.368 . S
H1917 C1925 0.950 . S
H1918 C1923 0.950 . S
H1919 C1924 0.949 . S
H1920 C1926 0.950 . S
H1921 C1927 0.950 . S
H1922 C1928 0.949 . S
C1923 H1918 0.950 . S
C1923 C1925 1.327 . S
C1923 C1929 1.429 . S
C1924 C1916 1.574 . S
C1924 H1919 0.949 . S
C1924 C1930 1.368 . S
C1925 C1909 1.349 . S
C1925 H1917 0.950 . S
C1925 C1923 1.327 . S
C1926 C1914 1.349 . S
C1926 H1920 0.950 . S
C1926 C1927 1.327 . S
C1927 H1921 0.950 . S
C1927 C1926 1.327 . S
C1927 C1931 1.429 . S
C1928 C1911 1.574 . S
C1928 H1922 0.949 . S
C1928 C1932 1.368 . S
C1929 C1910 1.429 . S
C1929 C1923 1.429 . S
C1929 C1930 1.523 . S
C1930 C1911 1.368 . S
C1930 C1924 1.368 . S
C1930 C1929 1.523 . S
C1931 C1915 1.429 . S
C1931 C1927 1.429 . S
C1931 C1932 1.523 . S
C1932 C1916 1.368 . S
C1932 C1928 1.368 . S
C1932 C1931 1.523 . S
H1933 C1908 0.950 . S
H1934 C1910 0.950 . S
H1935 C1911 0.949 . S
H1936 C1913 0.950 . S
H1937 C1915 0.950 . S
C1938 C1939 1.349 . S
C1938 C1940 1.327 . S
C1938 H1963 0.950 . S
C1939 C1938 1.349 . S
C1939 C1955 1.349 . S
C1940 C1938 1.327 . S
C1940 C1959 1.429 . S
C1940 H1964 0.950 . S
C1941 C1958 1.574 . S
C1941 C1960 1.368 . S
C1941 H1965 0.949 . S
H1942 C1946 0.949 . S
C1943 C1944 1.349 . S
C1943 C1945 1.327 . S
C1943 H1966 0.950 . S
C1944 C1943 1.349 . S
C1944 C1956 1.349 . S
C1945 C1943 1.327 . S
C1945 C1961 1.429 . S
C1945 H1967 0.950 . S
C1946 H1942 0.949 . S
C1946 C1954 1.574 . S
C1946 C1962 1.368 . S
H1947 C1955 0.950 . S
H1948 C1953 0.950 . S
H1949 C1954 0.949 . S
H1950 C1956 0.950 . S
H1951 C1957 0.950 . S
H1952 C1958 0.949 . S
C1953 H1948 0.950 . S
C1953 C1955 1.327 . S
C1953 C1959 1.429 . S
C1954 C1946 1.574 . S
C1954 H1949 0.949 . S
C1954 C1960 1.368 . S
C1955 C1939 1.349 . S
C1955 H1947 0.950 . S
C1955 C1953 1.327 . S
C1956 C1944 1.349 . S
C1956 H1950 0.950 . S
C1956 C1957 1.327 . S
C1957 H1951 0.950 . S
C1957 C1956 1.327 . S
C1957 C1961 1.429 . S
C1958 C1941 1.574 . S
C1958 H1952 0.949 . S
C1958 C1962 1.368 . S
C1959 C1940 1.429 . S
C1959 C1953 1.429 . S
C1959 C1960 1.523 . S
C1960 C1941 1.368 . S
C1960 C1954 1.368 . S
C1960 C1959 1.523 . S
C1961 C1945 1.429 . S
C1961 C1957 1.429 . S
C1961 C1962 1.523 . S
C1962 C1946 1.368 . S
C1962 C1958 1.368 . S
C1962 C1961 1.523 . S
H1963 C1938 0.950 . S
H1964 C1940 0.950 . S
H1965 C1941 0.949 . S
H1966 C1943 0.950 . S
H1967 C1945 0.950 . S
C1968 C1969 1.349 . S
C1968 C1970 1.327 . S
C1968 H1993 0.950 . S
C1969 C1968 1.349 . S
C1969 C1985 1.349 . S
C1970 C1968 1.327 . S
C1970 C1989 1.429 . S
C1970 H1994 0.950 . S
C1971 C1988 1.574 . S
C1971 C1990 1.368 . S
C1971 H1995 0.949 . S
H1972 C1976 0.949 . S
C1973 C1974 1.349 . S
C1973 C1975 1.327 . S
C1973 H1996 0.950 . S
C1974 C1973 1.349 . S
C1974 C1986 1.349 . S
C1975 C1973 1.327 . S
C1975 C1991 1.429 . S
C1975 H1997 0.950 . S
C1976 H1972 0.949 . S
C1976 C1984 1.574 . S
C1976 C1992 1.368 . S
H1977 C1985 0.950 . S
H1978 C1983 0.950 . S
H1979 C1984 0.949 . S
H1980 C1986 0.950 . S
H1981 C1987 0.950 . S
H1982 C1988 0.949 . S
C1983 H1978 0.950 . S
C1983 C1985 1.327 . S
C1983 C1989 1.429 . S
C1984 C1976 1.574 . S
C1984 H1979 0.949 . S
C1984 C1990 1.368 . S
C1985 C1969 1.349 . S
C1985 H1977 0.950 . S
C1985 C1983 1.327 . S
C1986 C1974 1.349 . S
C1986 H1980 0.950 . S
C1986 C1987 1.327 . S
C1987 H1981 0.950 . S
C1987 C1986 1.327 . S
C1987 C1991 1.429 . S
C1988 C1971 1.574 . S
C1988 H1982 0.949 . S
C1988 C1992 1.368 . S
C1989 C1970 1.429 . S
C1989 C1983 1.429 . S
C1989 C1990 1.523 . S
C1990 C1971 1.368 . S
C1990 C1984 1.368 . S
C1990 C1989 1.523 . S
C1991 C1975 1.429 . S
C1991 C1987 1.429 . S
C1991 C1992 1.523 . S
C1992 C1976 1.368 . S
C1992 C1988 1.368 . S
C1992 C1991 1.523 . S
H1993 C1968 0.950 . S
H1994 C1970 0.950 . S
H1995 C1971 0.949 . S
H1996 C1973 0.950 . S
H1997 C1975 0.950 . S
C1998 C1999 1.349 . S
C1998 C2000 1.327 . S
C1998 H2023 0.950 . S
C1999 C1998 1.349 . S
C1999 C2015 1.349 . S
C2000 C1998 1.327 . S
C2000 C2019 1.429 . S
C2000 H2024 0.950 . S
C2001 C2018 1.574 . S
C2001 C2020 1.368 . S
C2001 H2025 0.949 . S
H2002 C2006 0.949 . S
C2003 C2004 1.349 . S
C2003 C2005 1.327 . S
C2003 H2026 0.950 . S
C2004 C2003 1.349 . S
C2004 C2016 1.349 . S
C2005 C2003 1.327 . S
C2005 C2021 1.429 . S
C2005 H2027 0.950 . S
C2006 H2002 0.949 . S
C2006 C2014 1.574 . S
C2006 C2022 1.368 . S
H2007 C2015 0.950 . S
H2008 C2013 0.950 . S
H2009 C2014 0.949 . S
H2010 C2016 0.950 . S
H2011 C2017 0.950 . S
H2012 C2018 0.949 . S
C2013 H2008 0.950 . S
C2013 C2015 1.327 . S
C2013 C2019 1.429 . S
C2014 C2006 1.574 . S
C2014 H2009 0.949 . S
C2014 C2020 1.368 . S
C2015 C1999 1.349 . S
C2015 H2007 0.950 . S
C2015 C2013 1.327 . S
C2016 C2004 1.349 . S
C2016 H2010 0.950 . S
C2016 C2017 1.327 . S
C2017 H2011 0.950 . S
C2017 C2016 1.327 . S
C2017 C2021 1.429 . S
C2018 C2001 1.574 . S
C2018 H2012 0.949 . S
C2018 C2022 1.368 . S
C2019 C2000 1.429 . S
C2019 C2013 1.429 . S
C2019 C2020 1.523 . S
C2020 C2001 1.368 . S
C2020 C2014 1.368 . S
C2020 C2019 1.523 . S
C2021 C2005 1.429 . S
C2021 C2017 1.429 . S
C2021 C2022 1.523 . S
C2022 C2006 1.368 . S
C2022 C2018 1.368 . S
C2022 C2021 1.523 . S
H2023 C1998 0.950 . S
H2024 C2000 0.950 . S
H2025 C2001 0.949 . S
H2026 C2003 0.950 . S
H2027 C2005 0.950 . S
C2028 C2029 1.349 . S
C2028 C2030 1.327 . S
C2028 H2053 0.950 . S
C2029 C2028 1.349 . S
C2029 C2045 1.349 . S
C2030 C2028 1.327 . S
C2030 C2049 1.429 . S
C2030 H2054 0.950 . S
C2031 C2048 1.574 . S
C2031 C2050 1.368 . S
C2031 H2055 0.949 . S
H2032 C2036 0.949 . S
C2033 C2034 1.349 . S
C2033 C2035 1.327 . S
C2033 H2056 0.950 . S
C2034 C2033 1.349 . S
C2034 C2046 1.349 . S
C2035 C2033 1.327 . S
C2035 C2051 1.429 . S
C2035 H2057 0.950 . S
C2036 H2032 0.949 . S
C2036 C2044 1.574 . S
C2036 C2052 1.368 . S
H2037 C2045 0.950 . S
H2038 C2043 0.950 . S
H2039 C2044 0.949 . S
H2040 C2046 0.950 . S
H2041 C2047 0.950 . S
H2042 C2048 0.949 . S
C2043 H2038 0.950 . S
C2043 C2045 1.327 . S
C2043 C2049 1.429 . S
C2044 C2036 1.574 . S
C2044 H2039 0.949 . S
C2044 C2050 1.368 . S
C2045 C2029 1.349 . S
C2045 H2037 0.950 . S
C2045 C2043 1.327 . S
C2046 C2034 1.349 . S
C2046 H2040 0.950 . S
C2046 C2047 1.327 . S
C2047 H2041 0.950 . S
C2047 C2046 1.327 . S
C2047 C2051 1.429 . S
C2048 C2031 1.574 . S
C2048 H2042 0.949 . S
C2048 C2052 1.368 . S
C2049 C2030 1.429 . S
C2049 C2043 1.429 . S
C2049 C2050 1.523 . S
C2050 C2031 1.368 . S
C2050 C2044 1.368 . S
C2050 C2049 1.523 . S
C2051 C2035 1.429 . S
C2051 C2047 1.429 . S
C2051 C2052 1.523 . S
C2052 C2036 1.368 . S
C2052 C2048 1.368 . S
C2052 C2051 1.523 . S
H2053 C2028 0.950 . S
H2054 C2030 0.950 . S
H2055 C2031 0.949 . S
H2056 C2033 0.950 . S
H2057 C2035 0.950 . S
C2058 C2059 1.349 . S
C2058 C2060 1.327 . S
C2058 H2083 0.950 . S
C2059 C2058 1.349 . S
C2059 C2075 1.349 . S
C2060 C2058 1.327 . S
C2060 C2079 1.429 . S
C2060 H2084 0.950 . S
C2061 C2078 1.574 . S
C2061 C2080 1.368 . S
C2061 H2085 0.949 . S
H2062 C2066 0.949 . S
C2063 C2064 1.349 . S
C2063 C2065 1.327 . S
C2063 H2086 0.950 . S
C2064 C2063 1.349 . S
C2064 C2076 1.349 . S
C2065 C2063 1.327 . S
C2065 C2081 1.429 . S
C2065 H2087 0.950 . S
C2066 H2062 0.949 . S
C2066 C2074 1.574 . S
C2066 C2082 1.368 . S
H2067 C2075 0.950 . S
H2068 C2073 0.950 . S
H2069 C2074 0.949 . S
H2070 C2076 0.950 . S
H2071 C2077 0.950 . S
H2072 C2078 0.949 . S
C2073 H2068 0.950 . S
C2073 C2075 1.327 . S
C2073 C2079 1.429 . S
C2074 C2066 1.574 . S
C2074 H2069 0.949 . S
C2074 C2080 1.368 . S
C2075 C2059 1.349 . S
C2075 H2067 0.950 . S
C2075 C2073 1.327 . S
C2076 C2064 1.349 . S
C2076 H2070 0.950 . S
C2076 C2077 1.327 . S
C2077 H2071 0.950 . S
C2077 C2076 1.327 . S
C2077 C2081 1.429 . S
C2078 C2061 1.574 . S
C2078 H2072 0.949 . S
C2078 C2082 1.368 . S
C2079 C2060 1.429 . S
C2079 C2073 1.429 . S
C2079 C2080 1.523 . S
C2080 C2061 1.368 . S
C2080 C2074 1.368 . S
C2080 C2079 1.523 . S
C2081 C2065 1.429 . S
C2081 C2077 1.429 . S
C2081 C2082 1.523 . S
C2082 C2066 1.368 . S
C2082 C2078 1.368 . S
C2082 C2081 1.523 . S
H2083 C2058 0.950 . S
H2084 C2060 0.950 . S
H2085 C2061 0.949 . S
H2086 C2063 0.950 . S
H2087 C2065 0.950 . S
C2088 C2089 1.349 . S
C2088 C2090 1.327 . S
C2088 H2113 0.950 . S
C2089 C2088 1.349 . S
C2089 C2105 1.349 . S
C2090 C2088 1.327 . S
C2090 C2109 1.429 . S
C2090 H2114 0.950 . S
C2091 C2108 1.574 . S
C2091 C2110 1.368 . S
C2091 H2115 0.949 . S
H2092 C2096 0.949 . S
C2093 C2094 1.349 . S
C2093 C2095 1.327 . S
C2093 H2116 0.950 . S
C2094 C2093 1.349 . S
C2094 C2106 1.349 . S
C2095 C2093 1.327 . S
C2095 C2111 1.429 . S
C2095 H2117 0.950 . S
C2096 H2092 0.949 . S
C2096 C2104 1.574 . S
C2096 C2112 1.368 . S
H2097 C2105 0.950 . S
H2098 C2103 0.950 . S
H2099 C2104 0.949 . S
H2100 C2106 0.950 . S
H2101 C2107 0.950 . S
H2102 C2108 0.949 . S
C2103 H2098 0.950 . S
C2103 C2105 1.327 . S
C2103 C2109 1.429 . S
C2104 C2096 1.574 . S
C2104 H2099 0.949 . S
C2104 C2110 1.368 . S
C2105 C2089 1.349 . S
C2105 H2097 0.950 . S
C2105 C2103 1.327 . S
C2106 C2094 1.349 . S
C2106 H2100 0.950 . S
C2106 C2107 1.327 . S
C2107 H2101 0.950 . S
C2107 C2106 1.327 . S
C2107 C2111 1.429 . S
C2108 C2091 1.574 . S
C2108 H2102 0.949 . S
C2108 C2112 1.368 . S
C2109 C2090 1.429 . S
C2109 C2103 1.429 . S
C2109 C2110 1.523 . S
C2110 C2091 1.368 . S
C2110 C2104 1.368 . S
C2110 C2109 1.523 . S
C2111 C2095 1.429 . S
C2111 C2107 1.429 . S
C2111 C2112 1.523 . S
C2112 C2096 1.368 . S
C2112 C2108 1.368 . S
C2112 C2111 1.523 . S
H2113 C2088 0.950 . S
H2114 C2090 0.950 . S
H2115 C2091 0.949 . S
H2116 C2093 0.950 . S
H2117 C2095 0.950 . S
C2118 C2119 1.349 . S
C2118 C2120 1.327 . S
C2118 H2143 0.950 . S
C2119 C2118 1.349 . S
C2119 C2135 1.349 . S
C2120 C2118 1.327 . S
C2120 C2139 1.429 . S
C2120 H2144 0.950 . S
C2121 C2138 1.574 . S
C2121 C2140 1.368 . S
C2121 H2145 0.949 . S
H2122 C2126 0.949 . S
C2123 C2124 1.349 . S
C2123 C2125 1.327 . S
C2123 H2146 0.950 . S
C2124 C2123 1.349 . S
C2124 C2136 1.349 . S
C2125 C2123 1.327 . S
C2125 C2141 1.429 . S
C2125 H2147 0.950 . S
C2126 H2122 0.949 . S
C2126 C2134 1.574 . S
C2126 C2142 1.368 . S
H2127 C2135 0.950 . S
H2128 C2133 0.950 . S
H2129 C2134 0.949 . S
H2130 C2136 0.950 . S
H2131 C2137 0.950 . S
H2132 C2138 0.949 . S
C2133 H2128 0.950 . S
C2133 C2135 1.327 . S
C2133 C2139 1.429 . S
C2134 C2126 1.574 . S
C2134 H2129 0.949 . S
C2134 C2140 1.368 . S
C2135 C2119 1.349 . S
C2135 H2127 0.950 . S
C2135 C2133 1.327 . S
C2136 C2124 1.349 . S
C2136 H2130 0.950 . S
C2136 C2137 1.327 . S
C2137 H2131 0.950 . S
C2137 C2136 1.327 . S
C2137 C2141 1.429 . S
C2138 C2121 1.574 . S
C2138 H2132 0.949 . S
C2138 C2142 1.368 . S
C2139 C2120 1.429 . S
C2139 C2133 1.429 . S
C2139 C2140 1.523 . S
C2140 C2121 1.368 . S
C2140 C2134 1.368 . S
C2140 C2139 1.523 . S
C2141 C2125 1.429 . S
C2141 C2137 1.429 . S
C2141 C2142 1.523 . S
C2142 C2126 1.368 . S
C2142 C2138 1.368 . S
C2142 C2141 1.523 . S
H2143 C2118 0.950 . S
H2144 C2120 0.950 . S
H2145 C2121 0.949 . S
H2146 C2123 0.950 . S
H2147 C2125 0.950 . S
C2148 C2149 1.349 . S
C2148 C2150 1.327 . S
C2148 H2173 0.950 . S
C2149 C2148 1.349 . S
C2149 C2165 1.349 . S
C2150 C2148 1.327 . S
C2150 C2169 1.429 . S
C2150 H2174 0.950 . S
C2151 C2168 1.574 . S
C2151 C2170 1.368 . S
C2151 H2175 0.949 . S
H2152 C2156 0.949 . S
C2153 C2154 1.349 . S
C2153 C2155 1.327 . S
C2153 H2176 0.950 . S
C2154 C2153 1.349 . S
C2154 C2166 1.349 . S
C2155 C2153 1.327 . S
C2155 C2171 1.429 . S
C2155 H2177 0.950 . S
C2156 H2152 0.949 . S
C2156 C2164 1.574 . S
C2156 C2172 1.368 . S
H2157 C2165 0.950 . S
H2158 C2163 0.950 . S
H2159 C2164 0.949 . S
H2160 C2166 0.950 . S
H2161 C2167 0.950 . S
H2162 C2168 0.949 . S
C2163 H2158 0.950 . S
C2163 C2165 1.327 . S
C2163 C2169 1.429 . S
C2164 C2156 1.574 . S
C2164 H2159 0.949 . S
C2164 C2170 1.368 . S
C2165 C2149 1.349 . S
C2165 H2157 0.950 . S
C2165 C2163 1.327 . S
C2166 C2154 1.349 . S
C2166 H2160 0.950 . S
C2166 C2167 1.327 . S
C2167 H2161 0.950 . S
C2167 C2166 1.327 . S
C2167 C2171 1.429 . S
C2168 C2151 1.574 . S
C2168 H2162 0.949 . S
C2168 C2172 1.368 . S
C2169 C2150 1.429 . S
C2169 C2163 1.429 . S
C2169 C2170 1.523 . S
C2170 C2151 1.368 . S
C2170 C2164 1.368 . S
C2170 C2169 1.523 . S
C2171 C2155 1.429 . S
C2171 C2167 1.429 . S
C2171 C2172 1.523 . S
C2172 C2156 1.368 . S
C2172 C2168 1.368 . S
C2172 C2171 1.523 . S
H2173 C2148 0.950 . S
H2174 C2150 0.950 . S
H2175 C2151 0.949 . S
H2176 C2153 0.950 . S
H2177 C2155 0.950 . S
C2178 C2179 1.349 . S
C2178 C2180 1.327 . S
C2178 H2203 0.950 . S
C2179 C2178 1.349 . S
C2179 C2195 1.349 . S
C2180 C2178 1.327 . S
C2180 C2199 1.429 . S
C2180 H2204 0.950 . S
C2181 C2198 1.574 . S
C2181 C2200 1.368 . S
C2181 H2205 0.949 . S
H2182 C2186 0.949 . S
C2183 C2184 1.349 . S
C2183 C2185 1.327 . S
C2183 H2206 0.950 . S
C2184 C2183 1.349 . S
C2184 C2196 1.349 . S
C2185 C2183 1.327 . S
C2185 C2201 1.429 . S
C2185 H2207 0.950 . S
C2186 H2182 0.949 . S
C2186 C2194 1.574 . S
C2186 C2202 1.368 . S
H2187 C2195 0.950 . S
H2188 C2193 0.950 . S
H2189 C2194 0.949 . S
H2190 C2196 0.950 . S
H2191 C2197 0.950 . S
H2192 C2198 0.949 . S
C2193 H2188 0.950 . S
C2193 C2195 1.327 . S
C2193 C2199 1.429 . S
C2194 C2186 1.574 . S
C2194 H2189 0.949 . S
C2194 C2200 1.368 . S
C2195 C2179 1.349 . S
C2195 H2187 0.950 . S
C2195 C2193 1.327 . S
C2196 C2184 1.349 . S
C2196 H2190 0.950 . S
C2196 C2197 1.327 . S
C2197 H2191 0.950 . S
C2197 C2196 1.327 . S
C2197 C2201 1.429 . S
C2198 C2181 1.574 . S
C2198 H2192 0.949 . S
C2198 C2202 1.368 . S
C2199 C2180 1.429 . S
C2199 C2193 1.429 . S
C2199 C2200 1.523 . S
C2200 C2181 1.368 . S
C2200 C2194 1.368 . S
C2200 C2199 1.523 . S
C2201 C2185 1.429 . S
C2201 C2197 1.429 . S
C2201 C2202 1.523 . S
C2202 C2186 1.368 . S
C2202 C2198 1.368 . S
C2202 C2201 1.523 . S
H2203 C2178 0.950 . S
H2204 C2180 0.950 . S
H2205 C2181 0.949 . S
H2206 C2183 0.950 . S
H2207 C2185 0.950 . S
C2208 C2209 1.349 . S
C2208 C2210 1.327 . S
C2208 H2233 0.950 . S
C2209 C2208 1.349 . S
C2209 C2225 1.349 . S
C2210 C2208 1.327 . S
C2210 C2229 1.429 . S
C2210 H2234 0.950 . S
C2211 C2228 1.574 . S
C2211 C2230 1.368 . S
C2211 H2235 0.949 . S
H2212 C2216 0.949 . S
C2213 C2214 1.349 . S
C2213 C2215 1.327 . S
C2213 H2236 0.950 . S
C2214 C2213 1.349 . S
C2214 C2226 1.349 . S
C2215 C2213 1.327 . S
C2215 C2231 1.429 . S
C2215 H2237 0.950 . S
C2216 H2212 0.949 . S
C2216 C2224 1.574 . S
C2216 C2232 1.368 . S
H2217 C2225 0.950 . S
H2218 C2223 0.950 . S
H2219 C2224 0.949 . S
H2220 C2226 0.950 . S
H2221 C2227 0.950 . S
H2222 C2228 0.949 . S
C2223 H2218 0.950 . S
C2223 C2225 1.327 . S
C2223 C2229 1.429 . S
C2224 C2216 1.574 . S
C2224 H2219 0.949 . S
C2224 C2230 1.368 . S
C2225 C2209 1.349 . S
C2225 H2217 0.950 . S
C2225 C2223 1.327 . S
C2226 C2214 1.349 . S
C2226 H2220 0.950 . S
C2226 C2227 1.327 . S
C2227 H2221 0.950 . S
C2227 C2226 1.327 . S
C2227 C2231 1.429 . S
C2228 C2211 1.574 . S
C2228 H2222 0.949 . S
C2228 C2232 1.368 . S
C2229 C2210 1.429 . S
C2229 C2223 1.429 . S
C2229 C2230 1.523 . S
C2230 C2211 1.368 . S
C2230 C2224 1.368 . S
C2230 C2229 1.523 . S
C2231 C2215 1.429 . S
C2231 C2227 1.429 . S
C2231 C2232 1.523 . S
C2232 C2216 1.368 . S
C2232 C2228 1.368 . S
C2232 C2231 1.523 . S
H2233 C2208 0.950 . S
H2234 C2210 0.950 . S
H2235 C2211 0.949 . S
H2236 C2213 0.950 . S
H2237 C2215 0.950 . S
C2238 C2239 1.349 . S
C2238 C2240 1.327 . S
C2238 H2263 0.950 . S
C2239 C2238 1.349 . S
C2239 C2255 1.349 . S
C2240 C2238 1.327 . S
C2240 C2259 1.429 . S
C2240 H2264 0.950 . S
C2241 C2258 1.574 . S
C2241 C2260 1.368 . S
C2241 H2265 0.949 . S
H2242 C2246 0.949 . S
C2243 C2244 1.349 . S
C2243 C2245 1.327 . S
C2243 H2266 0.950 . S
C2244 C2243 1.349 . S
C2244 C2256 1.349 . S
C2245 C2243 1.327 . S
C2245 C2261 1.429 . S
C2245 H2267 0.950 . S
C2246 H2242 0.949 . S
C2246 C2254 1.574 . S
C2246 C2262 1.368 . S
H2247 C2255 0.950 . S
H2248 C2253 0.950 . S
H2249 C2254 0.949 . S
H2250 C2256 0.950 . S
H2251 C2257 0.950 . S
H2252 C2258 0.949 . S
C2253 H2248 0.950 . S
C2253 C2255 1.327 . S
C2253 C2259 1.429 . S
C2254 C2246 1.574 . S
C2254 H2249 0.949 . S
C2254 C2260 1.368 . S
C2255 C2239 1.349 . S
C2255 H2247 0.950 . S
C2255 C2253 1.327 . S
C2256 C2244 1.349 . S
C2256 H2250 0.950 . S
C2256 C2257 1.327 . S
C2257 H2251 0.950 . S
C2257 C2256 1.327 . S
C2257 C2261 1.429 . S
C2258 C2241 1.574 . S
C2258 H2252 0.949 . S
C2258 C2262 1.368 . S
C2259 C2240 1.429 . S
C2259 C2253 1.429 . S
C2259 C2260 1.523 . S
C2260 C2241 1.368 . S
C2260 C2254 1.368 . S
C2260 C2259 1.523 . S
C2261 C2245 1.429 . S
C2261 C2257 1.429 . S
C2261 C2262 1.523 . S
C2262 C2246 1.368 . S
C2262 C2258 1.368 . S
C2262 C2261 1.523 . S
H2263 C2238 0.950 . S
H2264 C2240 0.950 . S
H2265 C2241 0.949 . S
H2266 C2243 0.950 . S
H2267 C2245 0.950 . S
C2268 C2269 1.349 . S
C2268 C2270 1.327 . S
C2268 H2293 0.950 . S
C2269 C2268 1.349 . S
C2269 C2285 1.349 . S
C2270 C2268 1.327 . S
C2270 C2289 1.429 . S
C2270 H2294 0.950 . S
C2271 C2288 1.574 . S
C2271 C2290 1.368 . S
C2271 H2295 0.949 . S
H2272 C2276 0.949 . S
C2273 C2274 1.349 . S
C2273 C2275 1.327 . S
C2273 H2296 0.950 . S
C2274 C2273 1.349 . S
C2274 C2286 1.349 . S
C2275 C2273 1.327 . S
C2275 C2291 1.429 . S
C2275 H2297 0.950 . S
C2276 H2272 0.949 . S
C2276 C2284 1.574 . S
C2276 C2292 1.368 . S
H2277 C2285 0.950 . S
H2278 C2283 0.950 . S
H2279 C2284 0.949 . S
H2280 C2286 0.950 . S
H2281 C2287 0.950 . S
H2282 C2288 0.949 . S
C2283 H2278 0.950 . S
C2283 C2285 1.327 . S
C2283 C2289 1.429 . S
C2284 C2276 1.574 . S
C2284 H2279 0.949 . S
C2284 C2290 1.368 . S
C2285 C2269 1.349 . S
C2285 H2277 0.950 . S
C2285 C2283 1.327 . S
C2286 C2274 1.349 . S
C2286 H2280 0.950 . S
C2286 C2287 1.327 . S
C2287 H2281 0.950 . S
C2287 C2286 1.327 . S
C2287 C2291 1.429 . S
C2288 C2271 1.574 . S
C2288 H2282 0.949 . S
C2288 C2292 1.368 . S
C2289 C2270 1.429 . S
C2289 C2283 1.429 . S
C2289 C2290 1.523 . S
C2290 C2271 1.368 . S
C2290 C2284 1.368 . S
C2290 C2289 1.523 . S
C2291 C2275 1.429 . S
C2291 C2287 1.429 . S
C2291 C2292 1.523 . S
C2292 C2276 1.368 . S
C2292 C2288 1.368 . S
C2292 C2291 1.523 . S
H2293 C2268 0.950 . S
H2294 C2270 0.950 . S
H2295 C2271 0.949 . S
H2296 C2273 0.950 . S
H2297 C2275 0.950 . S
C864 C683 1.578 . S
C859 C74 1.575 . S
C894 C673 1.489 . S
C889 C153 1.405 . S
C924 C674 1.088 . S
C919 C231 1.089 . S
C949 C310 0.724 . S
C954 C696 0.489 . S
C979 C394 1.406 . S
C984 C699 1.491 . S
C1014 C682 1.088 . S
C1009 C494 1.089 . S
C1039 C573 0.724 . S
C1044 C672 0.491 . S
C1069 C651 1.576 . S
C1074 C690 1.579 . S
C1104 C703 2.488 . S
C1099 C56 2.567 . S
C1129 C151 1.538 . S
C1134 C752 1.494 . S
C1164 C730 1.505 . S
C1159 C237 1.446 . S
C1194 C744 1.072 . S
C1189 C326 1.074 . S
C1219 C410 1.076 . S
C1224 C705 1.064 . S
C1254 C758 2.482 . S
C1249 C476 2.571 . S
C1279 C571 1.539 . S
C1284 C714 1.497 . S
C1309 C657 1.413 . S
C1314 C735 1.492 . S
C1339 C58 1.413 . S
C1344 C761 1.492 . S
C1369 C392 1.538 . S
C1374 C745 1.494 . S
C1404 C704 1.505 . S
C1399 C478 1.444 . S
C1434 C736 1.073 . S
C1429 C567 1.074 . S
C1459 C655 2.568 . S
C1464 C727 2.489 . S
C1489 C235 2.571 . S
C1494 C734 2.482 . S
C1524 C721 1.498 . S
C1519 C308 1.540 . S
C1549 C147 1.076 . S
C1554 C713 1.065 . S
C1579 C662 1.576 . S
C1584 C776 1.578 . S
C1609 C405 1.406 . S
C1614 C766 1.489 . S
C1644 C767 1.088 . S
C1639 C483 1.089 . S
C1674 C789 0.490 . S
C1669 C562 0.724 . S
C1699 C142 1.406 . S
C1704 C792 1.490 . S
C1734 C775 1.088 . S
C1729 C242 1.089 . S
C1759 C321 0.724 . S
C1764 C765 0.490 . S
C1789 C63 1.576 . S
C1794 C783 1.578 . S
C1819 C644 2.568 . S
C1824 C796 2.488 . S
C1854 C845 1.494 . S
C1849 C403 1.539 . S
C1879 C489 1.445 . S
C1884 C823 1.505 . S
C1909 C578 1.075 . S
C1914 C837 1.073 . S
C1944 C798 1.064 . S
C1939 C158 1.076 . S
C1969 C224 2.571 . S
C1974 C851 2.483 . S
C2004 C807 1.498 . S
C1999 C319 1.539 . S
C2034 C828 1.492 . S
C2029 C69 1.411 . S
C2064 C854 1.492 . S
C2059 C646 1.415 . S
C2089 C140 1.538 . S
C2094 C838 1.493 . S
C2119 C226 1.445 . S
C2124 C797 1.505 . S
C2154 C829 1.072 . S
C2149 C315 1.075 . S
C2179 C67 2.568 . S
C2184 C820 2.488 . S
C2209 C487 2.571 . S
C2214 C827 2.481 . S
C2244 C814 1.498 . S
C2239 C560 1.539 . S
C2274 C806 1.064 . S
C2269 C399 1.076 . S
