# Generated by pormake.
# Topology zzz, (3,6)-cn, num edge types: 1
# Building blocks:
#     Node 0, Type 0, BuildingBlock: WUSLED_clean_sbu_0, # of connection points: 3
#     Node 1, Type 0, BuildingBlock: WUSLED_clean_sbu_0, # of connection points: 3
#     Node 2, Type 0, BuildingBlock: WUSLED_clean_sbu_0, # of connection points: 3
#     Node 3, Type 0, BuildingBlock: WUSLED_clean_sbu_0, # of connection points: 3
#     Node 4, Type 0, BuildingBlock: WUSLED_clean_sbu_0, # of connection points: 3
#     Node 5, Type 0, BuildingBlock: WUSLED_clean_sbu_0, # of connection points: 3
#     Node 6, Type 0, BuildingBlock: WUSLED_clean_sbu_0, # of connection points: 3
#     Node 7, Type 0, BuildingBlock: WUSLED_clean_sbu_0, # of connection points: 3
#     Node 8, Type 1, BuildingBlock: LEVNOQ01_clean_sbu_1, # of connection points: 6
#     Node 9, Type 1, BuildingBlock: LEVNOQ01_clean_sbu_1, # of connection points: 6
#     Node 10, Type 1, BuildingBlock: LEVNOQ01_clean_sbu_1, # of connection points: 6
#     Node 11, Type 1, BuildingBlock: LEVNOQ01_clean_sbu_1, # of connection points: 6
#     Edge 12, Type (0, 1), BuildingBlock: XIVTED_clean_linker_0, # of connection points: 2
#     Edge 13, Type (0, 1), BuildingBlock: XIVTED_clean_linker_0, # of connection points: 2
#     Edge 14, Type (0, 1), BuildingBlock: XIVTED_clean_linker_0, # of connection points: 2
#     Edge 15, Type (0, 1), BuildingBlock: XIVTED_clean_linker_0, # of connection points: 2
#     Edge 16, Type (0, 1), BuildingBlock: XIVTED_clean_linker_0, # of connection points: 2
#     Edge 17, Type (0, 1), BuildingBlock: XIVTED_clean_linker_0, # of connection points: 2
#     Edge 18, Type (0, 1), BuildingBlock: XIVTED_clean_linker_0, # of connection points: 2
#     Edge 19, Type (0, 1), BuildingBlock: XIVTED_clean_linker_0, # of connection points: 2
#     Edge 20, Type (0, 1), BuildingBlock: XIVTED_clean_linker_0, # of connection points: 2
#     Edge 21, Type (0, 1), BuildingBlock: XIVTED_clean_linker_0, # of connection points: 2
#     Edge 22, Type (0, 1), BuildingBlock: XIVTED_clean_linker_0, # of connection points: 2
#     Edge 23, Type (0, 1), BuildingBlock: XIVTED_clean_linker_0, # of connection points: 2
#     Edge 24, Type (0, 1), BuildingBlock: XIVTED_clean_linker_0, # of connection points: 2
#     Edge 25, Type (0, 1), BuildingBlock: XIVTED_clean_linker_0, # of connection points: 2
#     Edge 26, Type (0, 1), BuildingBlock: XIVTED_clean_linker_0, # of connection points: 2
#     Edge 27, Type (0, 1), BuildingBlock: XIVTED_clean_linker_0, # of connection points: 2
#     Edge 28, Type (0, 1), BuildingBlock: XIVTED_clean_linker_0, # of connection points: 2
#     Edge 29, Type (0, 1), BuildingBlock: XIVTED_clean_linker_0, # of connection points: 2
#     Edge 30, Type (0, 1), BuildingBlock: XIVTED_clean_linker_0, # of connection points: 2
#     Edge 31, Type (0, 1), BuildingBlock: XIVTED_clean_linker_0, # of connection points: 2
#     Edge 32, Type (0, 1), BuildingBlock: XIVTED_clean_linker_0, # of connection points: 2
#     Edge 33, Type (0, 1), BuildingBlock: XIVTED_clean_linker_0, # of connection points: 2
#     Edge 34, Type (0, 1), BuildingBlock: XIVTED_clean_linker_0, # of connection points: 2
#     Edge 35, Type (0, 1), BuildingBlock: XIVTED_clean_linker_0, # of connection points: 2
# Relax obj value: 0.289
# Max RMSD: 0.214
# Mean RMSD: 0.200
data_MOF--net-zzz--node1-WUSLED_clean_sbu_0--node2-LEVNOQ01_clean_sbu_1--edge1-XIVTED_clean_linker_0
_symmetry_space_group_name_H-M    P1
_symmetry_Int_Tables_number       1
_symmetry_cell_setting            triclinic
loop_
_symmetry_equiv_pos_as_xyz
'x, y, z'
_cell_length_a     59.018185
_cell_length_b     62.403528
_cell_length_c     22.552479
_cell_angle_alpha  89.963333
_cell_angle_beta   90.211331
_cell_angle_gamma 88.314874
loop_
_atom_site_label
_atom_site_type_symbol
_atom_site_fract_x
_atom_site_fract_y
_atom_site_fract_z
_atom_type_partial_charge
C0 C 0.79532 0.59001 0.31494 0.0
C1 C 0.81766 0.59268 0.29527 0.0
C2 C 0.83271 0.58061 0.39093 0.0
C3 C 0.83617 0.58808 0.33287 0.0
C4 C 0.81024 0.57894 0.4112 0.0
C5 C 0.79177 0.58354 0.37355 0.0
U6 U 0.7765 0.60245 0.1602 0.0
O7 O 0.75529 0.58561 0.09605 0.0
O8 O 0.74724 0.6194 0.11784 0.0
C9 C 0.74226 0.60264 0.08546 0.0
C10 C 0.77606 0.59237 0.27295 0.0
C11 C 0.71841 0.59922 0.06949 0.0
C12 C 0.68228 0.58222 0.08344 0.0
C13 C 0.70379 0.58747 0.10498 0.0
C14 C 0.68974 0.60092 0.99179 0.0
C15 C 0.6752 0.58839 0.0258 0.0
C16 C 0.71101 0.60628 0.0135 0.0
C17 C 0.82654 0.61566 0.05968 0.0
C18 C 0.82694 0.61041 0.95318 0.0
C19 C 0.86166 0.61799 0.00589 0.0
C20 C 0.84964 0.61979 0.05865 0.0
C21 C 0.85072 0.6119 0.95316 0.0
C22 C 0.81491 0.61205 0.00641 0.0
C23 C 0.81623 0.61143 0.11712 0.0
O24 O 0.77151 0.61194 0.25361 0.0
O25 O 0.77613 0.57798 0.23039 0.0
O26 O 0.80921 0.5918 0.12376 0.0
O27 O 0.8021 0.62618 0.13807 0.0
H28 H 0.82082 0.59763 0.25007 0.0
H29 H 0.85316 0.58938 0.31552 0.0
H30 H 0.80692 0.57358 0.45592 0.0
H31 H 0.77472 0.58144 0.38974 0.0
H32 H 0.67145 0.57286 0.11141 0.0
H33 H 0.70922 0.58185 0.14834 0.0
H34 H 0.68527 0.60568 0.94698 0.0
H35 H 0.72216 0.61521 0.98521 0.0
H36 H 0.81793 0.60613 0.91318 0.0
H37 H 0.87991 0.61908 0.0083 0.0
H38 H 0.85881 0.62255 0.09955 0.0
H39 H 0.79695 0.60892 0.00664 0.0
C40 C 0.00705 0.78923 0.34163 0.0
C41 C 0.00857 0.80977 0.31672 0.0
C42 C 0.00493 0.82622 0.41422 0.0
C43 C 0.00751 0.82804 0.35249 0.0
C44 C 1.00382 0.80555 0.43925 0.0
C45 C 0.00478 0.78721 0.40318 0.0
U46 U 0.00576 0.77131 0.18625 0.0
O47 O 0.021 0.74501 0.1333 0.0
O48 O 0.98374 0.75006 0.13539 0.0
C49 C 1.00112 0.73911 0.11344 0.0
C50 C 0.00643 0.77043 0.30208 0.0
C51 C 0.99806 0.71678 0.09475 0.0
C52 C 0.01104 0.67948 0.0876 0.0
C53 C 0.0117 0.69954 0.11577 0.0
C54 C 0.98256 0.69363 0.01927 0.0
C55 C 0.99688 0.67666 0.03811 0.0
C56 C 0.98309 0.71345 0.04745 0.0
C57 C 0.00558 0.81786 0.07684 0.0
C58 C 0.01778 0.81921 0.97414 0.0
C59 C 0.99139 0.84623 0.01271 0.0
C60 C 0.9918 0.83614 0.06759 0.0
C61 C 0.00502 0.83837 0.96605 0.0
C62 C 0.01795 0.8089 0.02927 0.0
C63 C 0.00717 0.80915 0.13709 0.0
O64 O 0.98762 0.7693 0.27098 0.0
O65 O 0.02477 0.76699 0.26997 0.0
O66 O 0.02551 0.79762 0.15032 0.0
O67 O 0.98842 0.80111 0.15733 0.0
H68 H 0.01032 0.8117 0.26926 0.0
H69 H 0.00885 0.8436 0.33172 0.0
H70 H 1.00171 0.80356 0.48658 0.0
H71 H 1.00342 0.77152 0.42321 0.0
H72 H 0.02247 0.66662 0.10213 0.0
H73 H 0.02356 0.70183 0.15182 0.0
H74 H 0.97183 0.69187 0.98056 0.0
H75 H 0.97271 0.72662 0.02985 0.0
H76 H 0.02847 0.8129 0.93893 0.0
H77 H 0.98176 0.8612 0.00856 0.0
H78 H 0.98207 0.84319 0.10369 0.0
H79 H 0.02841 0.79451 0.03531 0.0
C80 C 0.70135 0.91827 0.29765 0.0
C81 C 0.68181 0.92703 0.2701 0.0
C82 C 0.66212 0.92856 0.36561 0.0
C83 C 0.66236 0.93203 0.30372 0.0
C84 C 0.68147 0.9189 0.3922 0.0
C85 C 0.70078 0.91382 0.3586 0.0
U86 U 0.74646 0.91034 0.16844 0.0
O87 O 0.77655 0.93008 0.16507 0.0
O88 O 0.78067 0.89529 0.17643 0.0
C89 C 0.79074 0.9135 0.16715 0.0
C90 C 0.72347 0.91643 0.26714 0.0
C91 C 0.80852 0.91358 0.12152 0.0
C92 C 0.847 0.92247 0.09546 0.0
C93 C 0.8306 0.91858 0.13839 0.0
C94 C 0.81984 0.91502 0.01788 0.0
C95 C 0.84164 0.92118 0.03488 0.0
C96 C 0.8033 0.91135 0.06099 0.0
C97 C 0.70405 0.90132 0.04008 0.0
C98 C 0.68173 0.89782 0.95045 0.0
C99 C 0.66378 0.90964 0.04182 0.0
C100 C 0.68452 0.90752 0.07144 0.0
C101 C 0.66238 0.90565 0.98047 0.0
C102 C 0.70245 0.89575 0.9801 0.0
C103 C 0.72652 0.90302 0.06662 0.0
O104 O 0.73094 0.89738 0.24975 0.0
O105 O 0.72854 0.93193 0.23043 0.0
O106 O 0.73304 0.88763 0.10326 0.0
O107 O 0.73155 0.92227 0.0852 0.0
H108 H 0.68184 0.9307 0.22316 0.0
H109 H 0.64769 0.93909 0.28136 0.0
H110 H 0.6822 0.91622 0.43961 0.0
H111 H 0.71575 0.90733 0.38098 0.0
H112 H 0.86364 0.92737 0.10952 0.0
H113 H 0.83487 0.92051 0.18481 0.0
H114 H 0.81526 0.91427 0.97139 0.0
H115 H 0.78623 0.90776 0.0471 0.0
H116 H 0.68112 0.89448 0.90334 0.0
H117 H 0.64928 0.91601 0.06605 0.0
H118 H 0.68558 0.91192 0.11781 0.0
H119 H 0.71747 0.89091 0.9554 0.0
C120 C 0.49194 0.72352 0.34969 0.0
C121 C 0.49092 0.70322 0.32327 0.0
C122 C 0.4956 0.6861 0.41959 0.0
C123 C 0.49275 0.68469 0.35783 0.0
C124 C 0.49626 0.70656 0.44598 0.0
C125 C 0.49449 0.72514 0.4112 0.0
U126 U 0.49156 0.74461 0.19623 0.0
O127 O 0.47526 0.77282 0.15305 0.0
O128 O 0.51292 0.76806 0.15139 0.0
C129 C 0.49501 0.7799 0.13631 0.0
C130 C 0.49189 0.74268 0.31197 0.0
C131 C 0.49695 0.7998 0.10262 0.0
C132 C 0.49137 0.83843 0.0944 0.0
C133 C 0.48943 0.81944 0.12688 0.0
C134 C 0.50809 0.81807 0.0132 0.0
C135 C 0.50043 0.83782 0.03689 0.0
C136 C 0.50649 0.79924 0.04596 0.0
C137 C 0.49099 0.70072 0.07723 0.0
C138 C 0.47463 0.69716 0.97882 0.0
C139 C 0.50755 0.67539 0.0076 0.0
C140 C 0.50769 0.68527 0.06275 0.0
C141 C 0.49044 0.68054 0.96597 0.0
C142 C 0.47492 0.70725 0.03418 0.0
C143 C 0.48991 0.70833 0.13877 0.0
O144 O 0.51038 0.74442 0.28034 0.0
O145 O 0.4732 0.74623 0.28104 0.0
O146 O 0.47163 0.71939 0.15482 0.0
O147 O 0.50882 0.71598 0.15976 0.0
H148 H 0.489 0.7017 0.27567 0.0
H149 H 0.49177 0.66925 0.33619 0.0
H150 H 0.49861 0.70821 0.49338 0.0
H151 H 0.49549 0.7407 0.43217 0.0
H152 H 0.48525 0.85344 0.11341 0.0
H153 H 0.4821 0.82005 0.17085 0.0
H154 H 0.51523 0.81722 0.96905 0.0
H155 H 0.51238 0.78419 0.02667 0.0
H156 H 0.46126 0.70141 0.94754 0.0
H157 H 0.51971 0.66236 -0.00012 0.0
H158 H 0.5202 0.67998 0.09532 0.0
H159 H 0.46196 0.71935 0.04413 0.0
C160 C 0.20708 0.4137 0.1341 0.0
C161 C 0.18578 0.41474 0.16166 0.0
C162 C 0.16759 0.42394 0.06729 0.0
C163 C 0.16622 0.41984 0.12859 0.0
C164 C 0.18889 0.42193 0.03959 0.0
C165 C 0.20844 0.41692 0.07276 0.0
U166 U 0.23745 0.40292 0.28118 0.0
O167 O 0.27155 0.38894 0.30203 0.0
O168 O 0.26312 0.42293 0.32221 0.0
C169 C 0.27869 0.40744 0.32165 0.0
C170 C 0.22805 0.41164 0.16957 0.0
C171 C 0.29748 0.40828 0.3647 0.0
C172 C 0.33774 0.4139 0.37764 0.0
C173 C 0.31945 0.40874 0.34158 0.0
C174 C 0.31269 0.41661 0.46231 0.0
C175 C 0.3345 0.41846 0.43798 0.0
C176 C 0.29417 0.41177 0.42567 0.0
C177 C 0.19312 0.389 0.40562 0.0
C178 C 0.18902 0.40093 0.5073 0.0
C179 C 0.15708 0.38615 0.45542 0.0
C180 C 0.17083 0.38197 0.40649 0.0
C181 C 0.16554 0.39737 0.50449 0.0
C182 C 0.20268 0.39717 0.45755 0.0
C183 C 0.20295 0.39291 0.34725 0.0
O184 O 0.22997 0.42631 0.21075 0.0
O185 O 0.23401 0.3923 0.18814 0.0
O186 O 0.21647 0.37827 0.32314 0.0
O187 O 0.20871 0.41272 0.3365 0.0
H188 H 0.18439 0.41234 0.20909 0.0
H189 H 0.15007 0.42096 0.15122 0.0
H190 H 0.19065 0.42519 0.9927 0.0
H191 H 0.22474 0.41635 0.0508 0.0
H192 H 0.35433 0.4152 0.35777 0.0
H193 H 0.32232 0.4063 0.29458 0.0
H194 H 0.30976 0.4202 0.50868 0.0
H195 H 0.27728 0.41168 0.44428 0.0
H196 H 0.19633 0.40874 0.54539 0.0
H197 H 0.13923 0.38295 0.45108 0.0
H198 H 0.1632 0.37558 0.36668 0.0
H199 H 0.21998 0.40252 0.45779 0.0
C200 C 0.01557 0.22437 0.10343 0.0
C201 C 0.01957 0.20445 0.13096 0.0
C202 C 0.01555 0.18596 0.03681 0.0
C203 C 0.01959 0.18554 0.09823 0.0
C204 C 0.01225 0.206 0.00861 0.0
C205 C 0.01213 0.2251 0.04184 0.0
U206 U 0.01562 0.24305 0.2569 0.0
O207 O 0.03167 0.26846 0.30768 0.0
O208 O 0.99438 0.26533 0.31114 0.0
C209 C 0.01231 0.27515 0.33097 0.0
C210 C 0.014 0.2437 0.14113 0.0
C211 C 0.01036 0.29713 0.35403 0.0
C212 C 0.02132 0.33441 0.35455 0.0
C213 C 0.02012 0.31458 0.32544 0.0
C214 C 1.00261 0.31947 0.43996 0.0
C215 C 0.01323 0.33675 0.41286 0.0
C216 C 1.00112 0.2999 0.41072 0.0
C217 C 0.02243 0.19621 0.36417 0.0
C218 C 0.01762 0.19961 0.47073 0.0
C219 C 0.02591 0.16486 0.4261 0.0
C220 C 0.02644 0.1742 0.37035 0.0
C221 C 0.02118 0.17739 0.47655 0.0
C222 C 0.01848 0.20907 0.41449 0.0
C223 C 0.02107 0.20503 0.30444 0.0
O224 O 0.99568 0.24489 0.17419 0.0
O225 O 0.03259 0.24767 0.17113 0.0
O226 O 0.03812 0.21673 0.2884 0.0
O227 O 1.00116 0.21329 0.28932 0.0
H228 H 0.02235 0.20347 0.17831 0.0
H229 H 0.02262 0.17048 0.12131 0.0
H230 H 0.00905 0.20685 0.96135 0.0
H231 H 0.00897 0.24032 0.01974 0.0
H232 H 0.02952 0.34755 0.33273 0.0
H233 H 0.02749 0.31267 0.28179 0.0
H234 H 0.99595 0.32094 0.48454 0.0
H235 H 0.99367 0.28658 0.43368 0.0
H236 H 0.01353 0.2094 0.50908 0.0
H237 H 0.02793 0.14757 0.42939 0.0
H238 H 0.02923 0.1641 0.33182 0.0
H239 H 0.0153 0.22618 0.40992 0.0
C240 C 0.30099 0.10297 0.12959 0.0
C241 C 0.32213 0.10147 0.15833 0.0
C242 C 0.34077 0.09318 0.06429 0.0
C243 C 0.34185 0.09659 0.12598 0.0
C244 C 0.31963 0.09562 0.03558 0.0
C245 C 0.29995 0.10041 0.06797 0.0
U246 U 0.26902 0.11206 0.27501 0.0
O247 O 0.23462 0.12555 0.29349 0.0
O248 O 0.243 0.09144 0.31135 0.0
C249 C 0.22739 0.10689 0.3115 0.0
C250 C 0.27977 0.10469 0.16373 0.0
C251 C 0.2094 0.10607 0.35664 0.0
C252 C 0.16891 0.10357 0.37324 0.0
C253 C 0.18699 0.10869 0.33668 0.0
C254 C 0.19525 0.09465 0.45267 0.0
C255 C 0.17282 0.09588 0.431 0.0
C256 C 0.2135 0.09952 0.41547 0.0
C257 C 0.31166 0.12431 0.40602 0.0
C258 C 0.32405 0.10574 0.49524 0.0
C259 C 0.34586 0.13488 0.45671 0.0
C260 C 0.32971 0.13827 0.41206 0.0
C261 C 0.34417 0.11735 0.49543 0.0
C262 C 0.30786 0.10922 0.45075 0.0
C263 C 0.30244 0.12128 0.34617 0.0
O264 O 0.27747 0.08954 0.20341 0.0
O265 O 0.27362 0.12381 0.18344 0.0
O266 O 0.28927 0.13627 0.32199 0.0
O267 O 0.29716 0.10163 0.33177 0.0
H268 H 0.32327 0.10334 0.206 0.0
H269 H 0.35787 0.09511 0.14941 0.0
H270 H 0.31808 0.09285 0.98837 0.0
H271 H 0.28377 0.1013 0.04511 0.0
H272 H 0.15184 0.10489 0.35549 0.0
H273 H 0.18346 0.11356 0.29135 0.0
H274 H 0.19875 0.08873 0.49702 0.0
H275 H 0.2307 0.09722 0.43167 0.0
H276 H 0.322 0.0922 0.52458 0.0
H277 H 0.36084 0.1445 0.45683 0.0
H278 H 0.33284 0.15013 0.37817 0.0
H279 H 0.29391 0.09838 0.4473 0.0
C280 C 0.5026 0.28892 0.10766 0.0
C281 C 0.50106 0.3096 0.13217 0.0
C282 C 0.50185 0.32563 0.03364 0.0
C283 C 0.50066 0.32774 0.09566 0.0
C284 C 0.50318 0.30481 0.00923 0.0
C285 C 0.50357 0.28663 0.04595 0.0
U286 U 0.5064 0.27022 0.26305 0.0
O287 O 0.49002 0.24571 0.31629 0.0
O288 O 0.52748 0.24581 0.31093 0.0
C289 C 0.5095 0.23726 0.33449 0.0
C290 C 0.50392 0.2701 0.14731 0.0
C291 C 0.51029 0.21491 0.35521 0.0
C292 C 0.49649 0.17854 0.35373 0.0
C293 C 0.49886 0.19853 0.32599 0.0
C294 C 0.51752 0.19114 0.4387 0.0
C295 C 0.50512 0.17503 0.41126 0.0
C296 C 0.52017 0.21083 0.4108 0.0
C297 C 0.50826 0.31508 0.3766 0.0
C298 C 0.49251 0.32113 0.47489 0.0
C299 C 0.52841 0.33627 0.44805 0.0
C300 C 0.52707 0.327 0.39228 0.0
C301 C 0.51074 0.33415 0.48909 0.0
C302 C 0.49132 0.31152 0.419 0.0
C303 C 0.50636 0.30758 0.31505 0.0
O304 O 0.52322 0.26771 0.17627 0.0
O305 O 0.4861 0.26774 0.18138 0.0
O306 O 0.48764 0.29794 0.30046 0.0
O307 O 0.52478 0.29826 0.29336 0.0
H308 H 0.50046 0.31174 0.1798 0.0
H309 H 0.50001 0.34342 0.11621 0.0
H310 H 0.50389 0.30254 0.96167 0.0
H311 H 0.50479 0.27082 0.02619 0.0
H312 H 0.48692 0.1663 0.33174 0.0
H313 H 0.49101 0.20147 0.28316 0.0
H314 H 0.52451 0.18874 0.48279 0.0
H315 H 0.52892 0.22332 0.43423 0.0
H316 H 0.47861 0.31942 0.50563 0.0
H317 H 0.54242 0.34665 0.45692 0.0
H318 H 0.5403 0.32999 0.36038 0.0
H319 H 0.4767 0.30216 0.40826 0.0
O320 O 0.04983 0.98788 0.81485 0.0
Mg321 Mg 0.04585 0.9902 0.72216 0.0
O322 O 0.01383 0.98643 0.79544 0.0
Mg323 Mg 1.00202 0.00773 0.71841 0.0
O324 O 0.03762 0.01848 0.67891 0.0
O325 O 0.0726 0.00288 0.68174 0.0
O326 O 0.9885 0.02882 0.64203 0.0
O327 O 0.00834 0.03928 0.77879 0.0
Mg328 Mg 0.97053 0.02584 0.76669 0.0
O329 O 0.9652 0.99439 0.75386 0.0
O330 O 0.96824 0.04945 0.70089 0.0
O331 O 0.98373 0.03503 0.84876 0.0
O332 O 0.93859 0.01889 0.78172 0.0
C333 C 0.01484 0.96122 0.65456 0.0
C334 C 0.03054 0.98127 0.82847 0.0
C335 C 0.05912 0.01837 0.66498 0.0
C336 C 0.97704 0.04606 0.65083 0.0
C337 C 1.00062 0.04466 0.82963 0.0
C338 C 0.94468 -0.0008 0.77264 0.0
O339 O 0.03395 0.96239 0.68004 0.0
O340 O 1.00044 0.97696 0.6572 0.0
O341 O 0.44548 0.00547 0.78677 0.0
Mg342 Mg 0.45607 0.98226 0.72174 0.0
O343 O 0.47773 0.02312 0.79664 0.0
Mg344 Mg 0.5028 0.00789 0.7265 0.0
O345 O 0.48862 0.975 0.74395 0.0
O346 O 0.46221 0.9505 0.74549 0.0
O347 O 0.52845 0.99303 0.65649 0.0
O348 O 0.52866 0.99788 0.79874 0.0
Mg349 Mg 0.54939 0.03495 0.73369 0.0
O350 O 0.51689 0.04063 0.70977 0.0
O351 O 0.56005 0.01168 0.66852 0.0
O352 O 0.55045 0.0246 0.82294 0.0
O353 O 0.54151 0.06651 0.70726 0.0
C354 C 0.46084 0.0107 0.62289 0.0
C355 C 0.45705 0.02006 0.81076 0.0
C356 C 0.48272 0.95579 0.75688 0.0
C357 C 0.54916 0.99676 0.64359 0.0
C358 C 0.54393 0.00568 0.83151 0.0
C359 C 0.52155 0.05995 0.69489 0.0
O360 O 0.45378 0.99206 0.63253 0.0
O361 O 0.47677 0.0181 0.65431 0.0
O362 O 0.53525 0.45986 0.75755 0.0
Mg363 Mg 0.54609 0.48818 0.71531 0.0
O364 O 0.5042 0.47618 0.79032 0.0
Mg365 Mg 0.50536 0.50573 0.72569 0.0
O366 O 0.54191 0.51612 0.76313 0.0
O367 O 0.5749 0.49738 0.75304 0.0
O368 O 0.50626 0.53539 0.66104 0.0
O369 O 0.49697 0.52896 0.80179 0.0
Mg370 Mg 0.46438 0.52281 0.73794 0.0
O371 O 0.46865 0.49497 0.69016 0.0
O372 O 0.47484 0.55086 0.69477 0.0
O373 O 0.46237 0.52508 0.83107 0.0
O374 O 0.43538 0.51317 0.70195 0.0
C375 C 0.52999 0.47882 0.61257 0.0
C376 C 0.51757 0.45969 0.78923 0.0
C377 C 0.56354 0.51348 0.77473 0.0
C378 C 0.49245 0.55155 0.66296 0.0
C379 C 0.48125 0.53372 0.83804 0.0
C380 C 0.44685 0.49714 0.68022 0.0
O381 O 0.54901 0.48683 0.62237 0.0
O382 O 0.51397 0.48299 0.64845 0.0
O383 O 0.95877 0.48689 0.82226 0.0
Mg384 Mg 0.96045 0.4764 0.73342 0.0
O385 O 0.97808 0.51457 0.79315 0.0
Mg386 Mg 0.00472 0.50596 0.72284 0.0
O387 O 0.99274 0.47222 0.70669 0.0
O388 O 0.96934 0.44521 0.70704 0.0
O389 O 0.03147 0.49667 0.65218 0.0
O390 O 0.03017 0.49172 0.79403 0.0
Mg391 Mg 0.04931 0.53257 0.7183 0.0
O392 O 0.01682 0.54015 0.74163 0.0
O393 O 0.05327 0.52331 0.62927 0.0
O394 O 0.06171 0.51027 0.7839 0.0
O395 O 0.04387 0.5643 0.73959 0.0
C396 C 0.95738 0.51437 0.64136 0.0
C397 C 0.96346 0.50648 0.82715 0.0
C398 C 0.9887 0.45265 0.69269 0.0
C399 C 0.04725 0.50427 0.62086 0.0
C400 C 0.05075 0.49537 0.8082 0.0
C401 C 0.02339 0.55943 0.75252 0.0
O402 O 0.94817 0.49909 0.66915 0.0
O403 O 0.97801 0.51952 0.65164 0.0
H404 H 0.16077 0.10382 0.54736 0.0
H405 H 0.06552 0.01539 0.54698 0.0
H406 H 0.14142 0.06793 0.3929 0.0
H407 H 0.07669 0.05678 0.69614 0.0
H408 H 0.09134 0.03657 0.4879 0.0
H409 H 0.12906 0.08842 0.60196 0.0
C410 C 0.14984 0.09273 0.52502 0.0
C411 C 0.15367 0.08721 0.46548 0.0
C412 C 0.08778 0.04145 0.53306 0.0
C413 C 0.1175 0.06949 0.52744 0.0
C414 C 0.07279 0.0295 0.56649 0.0
C415 C 0.06864 0.0347 0.62591 0.0
C416 C 0.09909 0.05852 0.55963 0.0
C417 C 0.07916 0.05259 0.64999 0.0
C418 C 0.13168 0.08405 0.55599 0.0
C419 C 0.13893 0.07285 0.43851 0.0
N420 N 0.09411 0.06376 0.61696 0.0
N421 N 0.12167 0.06442 0.46969 0.0
H422 H 0.51465 0.13274 0.38385 0.0
H423 H 0.49911 0.09769 0.71677 0.0
H424 H 0.48386 0.17339 0.51721 0.0
H425 H 0.5146 0.05208 0.57863 0.0
H426 H 0.48789 0.12417 0.64145 0.0
H427 H 0.51048 0.10173 0.45009 0.0
C428 C 0.50659 0.135 0.42655 0.0
C429 C 0.49987 0.15558 0.44566 0.0
C430 C 0.49312 0.1082 0.62733 0.0
C431 C 0.49506 0.12047 0.52142 0.0
C432 C 0.49926 0.09305 0.67048 0.0
C433 C 0.50742 0.07272 0.65364 0.0
C434 C 0.49605 0.10319 0.56693 0.0
C435 C 0.50801 0.06759 0.59312 0.0
C436 C 0.5042 0.11736 0.46434 0.0
C437 C 0.4896 0.15778 0.50137 0.0
N438 N 0.5029 0.08289 0.55174 0.0
N439 N 0.48774 0.14052 0.53747 0.0
H440 H 0.35295 0.40508 0.54517 0.0
H441 H 0.42347 0.51013 0.58416 0.0
H442 H 0.35866 0.4531 0.40903 0.0
H443 H 0.44218 0.45305 0.68244 0.0
H444 H 0.39816 0.48935 0.52288 0.0
H445 H 0.3839 0.42202 0.60051 0.0
C446 C 0.36074 0.41913 0.52703 0.0
C447 C 0.35329 0.42775 0.47257 0.0
C448 C 0.40799 0.48118 0.55715 0.0
C449 C 0.38827 0.44718 0.53533 0.0
C450 C 0.42249 0.49305 0.59206 0.0
C451 C 0.43497 0.48324 0.63807 0.0
C452 C 0.40543 0.4593 0.569 0.0
C453 C 0.43295 0.46111 0.64692 0.0
C454 C 0.37845 0.42867 0.55827 0.0
C455 C 0.36398 0.44588 0.45068 0.0
N456 N 0.41812 0.44986 0.61317 0.0
N457 N 0.3807 0.45507 0.48231 0.0
H458 H 1.00216 0.37842 0.38219 0.0
H459 H 0.01613 0.41778 0.71488 0.0
H460 H 0.03217 0.33997 0.5223 0.0
H461 H 0.99061 0.45869 0.57456 0.0
H462 H 0.02895 0.39149 0.64078 0.0
H463 H 1.00369 0.41003 0.4469 0.0
C464 C 0.00943 0.37676 0.42618 0.0
C465 C 0.01669 0.35657 0.44746 0.0
C466 C 0.02109 0.40644 0.62586 0.0
C467 C 0.01851 0.39244 0.52158 0.0
C468 C 0.01403 0.4215 0.66821 0.0
C469 C 1.00271 0.44042 0.65042 0.0
C470 C 0.01607 0.41009 0.56554 0.0
C471 C 0.99964 0.44432 0.58965 0.0
C472 C 0.01029 0.39474 0.46314 0.0
C473 C 0.02596 0.3552 0.50474 0.0
N474 N 0.00596 0.42913 0.54931 0.0
N475 N 0.0264 0.37281 0.53994 0.0
H476 H 0.8639 0.89941 0.94459 0.0
H477 H 0.89942 0.00468 0.78568 0.0
H478 H 0.85526 0.96185 0.02428 0.0
H479 H 0.95324 0.95698 0.8084 0.0
H480 H 0.87472 0.98305 0.84562 0.0
H481 H 0.88974 0.91495 0.87057 0.0
C482 C 0.86751 0.91632 0.94644 0.0
C483 C 0.8576 0.92945 0.99043 0.0
C484 C 0.89176 0.97707 0.83626 0.0
C485 C 0.88627 0.94712 0.90618 0.0
C486 C 0.90591 0.98933 0.80181 0.0
C487 C 0.92862 0.98282 0.79259 0.0
C488 C 0.90005 0.95783 0.86094 0.0
C489 C 0.93588 0.96262 0.81441 0.0
C490 C 0.88222 0.92507 0.90463 0.0
C491 C 0.86266 0.95122 0.99119 0.0
N492 N 0.92164 0.95084 0.84839 0.0
N493 N 0.87639 0.95942 0.94929 0.0
H494 H 0.51779 0.87741 0.06267 0.0
H495 H 0.49675 0.91561 0.72881 0.0
H496 H 0.48365 0.84226 0.92598 0.0
H497 H 0.49769 0.96224 0.86931 0.0
H498 H 0.50564 0.88736 0.80085 0.0
H499 H 0.5206 0.90803 0.9935 0.0
C500 C 0.51081 0.87623 0.01835 0.0
C501 C 0.5008 0.85724 0.99937 0.0
C502 C 0.50452 0.90385 0.81585 0.0
C503 C 0.50438 0.89156 0.92076 0.0
C504 C 0.49984 0.91995 0.77459 0.0
C505 C 0.49676 0.94116 0.79333 0.0
C506 C 0.50559 0.90895 0.87641 0.0
C507 C 0.50039 0.946 0.85336 0.0
C508 C 0.51255 0.89355 0.97904 0.0
C509 C 0.49198 0.85641 0.94179 0.0
N510 N 0.5042 0.9299 0.89337 0.0
N511 N 0.49408 0.87324 0.90457 0.0
H512 H 0.64558 0.60832 0.94575 0.0
H513 H 0.58879 0.49829 0.86497 0.0
H514 H 0.65653 0.54908 0.04223 0.0
H515 H 0.56476 0.55786 0.78717 0.0
H516 H 0.61208 0.51798 0.93362 0.0
H517 H 0.61479 0.59177 0.89059 0.0
C518 C 0.64144 0.59194 0.95591 0.0
C519 C 0.65404 0.58005 0.99855 0.0
C520 C 0.60162 0.52693 0.90214 0.0
C521 C 0.61855 0.56114 0.93572 0.0
C522 C 0.58832 0.51565 0.86276 0.0
C523 C 0.57501 0.52645 0.82005 0.0
C524 C 0.60213 0.54936 0.89845 0.0
C525 C 0.57485 0.54896 0.8195 0.0
C526 C 0.62372 0.58258 0.92456 0.0
C527 C 0.64741 0.55906 0.01039 0.0
N528 N 0.58857 0.55973 0.85759 0.0
N529 N 0.63038 0.55029 0.97882 0.0
H530 H 0.01871 0.67506 0.93413 0.0
H531 H 0.00647 0.55258 0.86242 0.0
H532 H 0.98055 0.63599 0.05295 0.0
H533 H 0.01357 0.60114 0.72882 0.0
H534 H 0.99691 0.58073 0.93543 0.0
H535 H 0.01989 0.64582 0.86238 0.0
C536 C 0.01071 0.66016 0.94505 0.0
C537 C 0.99958 0.65778 0.99917 0.0
C538 C 0.9998 0.58515 0.88969 0.0
C539 C 1.0004 0.62436 0.91695 0.0
C540 C 0.0048 0.5691 0.84787 0.0
C541 C 0.0102 0.57461 0.7894 0.0
C542 C 1.00091 0.60675 0.87278 0.0
C543 C 0.00917 0.59627 0.77331 0.0
C544 C 0.01114 0.64357 0.90396 0.0
C545 C 0.98944 0.63823 0.0116 0.0
N546 N 0.00498 0.61155 0.81492 0.0
N547 N 0.99011 0.62212 0.97065 0.0
H548 H 0.98085 0.17617 0.53314 0.0
H549 H 0.01406 0.05456 0.58505 0.0
H550 H 0.04967 0.15137 0.54084 0.0
H551 H 0.94862 0.08082 0.63694 0.0
H552 H 0.02604 0.09057 0.56167 0.0
H553 H 0.96809 0.14308 0.57854 0.0
C554 C 0.9934 0.16421 0.54739 0.0
C555 C 0.0162 0.16598 0.5316 0.0
C556 C 0.00896 0.08845 0.57761 0.0
C557 C 1.0018 0.12807 0.58015 0.0
C558 C 1.00189 0.06782 0.58926 0.0
C559 C 0.98038 0.06482 0.61335 0.0
C560 C 0.99425 0.10605 0.58922 0.0
C561 C 0.96541 0.0826 0.61866 0.0
C562 C 0.98607 0.14514 0.572 0.0
C563 C 0.03184 0.15022 0.55124 0.0
N564 N 0.97271 0.10259 0.60731 0.0
N565 N 0.02427 0.13147 0.57262 0.0
H566 H 0.38722 0.11468 0.45071 0.0
H567 H 0.41612 0.01299 0.64356 0.0
H568 H 0.34806 0.09721 0.60391 0.0
H569 H 0.46908 0.04513 0.55059 0.0
H570 H 0.39013 0.04287 0.62175 0.0
H571 H 0.41762 0.09021 0.48337 0.0
C572 C 0.38524 0.1063 0.49234 0.0
C573 C 0.36478 0.10782 0.52419 0.0
C574 C 0.40737 0.04338 0.60558 0.0
C575 C 0.39929 0.07915 0.56017 0.0
C576 C 0.42208 0.02611 0.61683 0.0
C577 C 0.44463 0.02645 0.59756 0.0
C578 C 0.41506 0.06103 0.57384 0.0
C579 C 0.45172 0.04425 0.56541 0.0
C580 C 0.40258 0.09212 0.51047 0.0
C581 C 0.36325 0.0962 0.57721 0.0
N582 N 0.43687 0.06085 0.55394 0.0
N583 N 0.38008 0.08201 0.59289 0.0
H584 H 0.47468 0.36024 0.51676 0.0
H585 H 0.56275 0.44742 0.61172 0.0
H586 H 0.54345 0.34464 0.56995 0.0
H587 H 0.4939 0.46198 0.5568 0.0
H588 H 0.55525 0.4093 0.60528 0.0
H589 H 0.47906 0.39653 0.55313 0.0
C590 C 0.49041 0.36415 0.53862 0.0
C591 C 0.50914 0.34981 0.53789 0.0
C592 C 0.54187 0.42082 0.59372 0.0
C593 C 0.51459 0.39142 0.57664 0.0
C594 C 0.54635 0.44259 0.59563 0.0
C595 C 0.52895 0.45783 0.58402 0.0
C596 C 0.51995 0.41433 0.5794 0.0
C597 C 0.50781 0.45067 0.56534 0.0
C598 C 0.49307 0.38507 0.55816 0.0
C599 C 0.52892 0.35562 0.56774 0.0
N600 N 0.50383 0.42939 0.56408 0.0
N601 N 0.53147 0.37631 0.58403 0.0
H602 H 0.1225 0.38708 0.54296 0.0
H603 H 0.09165 0.51094 0.59547 0.0
H604 H 0.17114 0.43752 0.55031 0.0
H605 H 0.04134 0.46217 0.59234 0.0
H606 H 0.12102 0.48342 0.5819 0.0
H607 H 0.09277 0.4132 0.5712 0.0
C608 C 0.1271 0.40347 0.55157 0.0
C609 C 0.14938 0.41012 0.54201 0.0
C610 C 0.10353 0.47868 0.58345 0.0
C611 C 0.11544 0.44 0.57426 0.0
C612 C 0.08664 0.49449 0.5901 0.0
C613 C 0.06387 0.48887 0.59491 0.0
C614 C 0.09768 0.45705 0.58074 0.0
C615 C 0.05862 0.46718 0.58873 0.0
C616 C 0.11006 0.41837 0.56748 0.0
C617 C 0.15434 0.43141 0.55624 0.0
N618 N 0.07541 0.452 0.58221 0.0
N619 N 0.13746 0.44561 0.57053 0.0
H620 H 0.04615 0.849 0.92224 0.0
H621 H 0.99246 0.96459 0.8742 0.0
H622 H 0.97449 0.86192 0.89882 0.0
H623 H 0.06383 0.95061 0.84829 0.0
H624 H 0.98624 0.92643 0.88518 0.0
H625 H 0.05369 0.8845 0.88346 0.0
C626 C 0.03201 0.85893 0.90649 0.0
C627 C 0.00959 0.853 0.91634 0.0
C628 C 1.00331 0.93169 0.87756 0.0
C629 C 0.01805 0.89377 0.87481 0.0
C630 C 0.00696 0.95352 0.87287 0.0
C631 C 0.02867 0.96078 0.85992 0.0
C632 C 0.02157 0.91702 0.8705 0.0
C633 C 0.04682 0.94574 0.85844 0.0
C634 C 0.03633 0.87939 0.8854 0.0
C635 C 0.992 0.86633 0.89408 0.0
N636 N 0.04282 0.92448 0.86303 0.0
N637 N 0.99654 0.8865 0.8763 0.0
H638 H 0.61728 0.90243 0.00887 0.0
H639 H 0.5887 0.00436 0.81272 0.0
H640 H 0.66183 0.92773 0.87626 0.0
H641 H 0.53607 0.97113 0.90381 0.0
H642 H 0.61534 0.97536 0.83675 0.0
H643 H 0.58615 0.92485 0.96809 0.0
C644 C 0.62037 0.91232 0.97042 0.0
C645 C 0.64228 0.91362 0.94688 0.0
C646 C 0.59803 0.97434 0.85203 0.0
C647 C 0.60709 0.93937 0.90095 0.0
C648 C 0.58292 0.99116 0.83944 0.0
C649 C 0.56032 0.9903 0.85766 0.0
C650 C 0.59066 0.95661 0.88412 0.0
C651 C 0.55347 0.97238 0.88971 0.0
C652 C 0.60264 0.92509 0.94726 0.0
C653 C 0.64529 0.92627 0.89624 0.0
N654 N 0.5687 0.95623 0.90261 0.0
N655 N 0.628 0.93897 0.87576 0.0
H656 H 0.45016 0.66355 0.93429 0.0
H657 H 0.51877 0.55697 0.85758 0.0
H658 H 0.52126 0.66138 0.89021 0.0
H659 H 0.44578 0.56028 0.87217 0.0
H660 H 0.51941 0.59579 0.86479 0.0
H661 H 0.44679 0.6275 0.89529 0.0
C662 C 0.4649 0.65587 0.91411 0.0
C663 C 0.48628 0.66505 0.91792 0.0
C664 C 0.50324 0.58805 0.86682 0.0
C665 C 0.48272 0.62351 0.87594 0.0
C666 C 0.50289 0.56582 0.86408 0.0
C667 C 0.48216 0.5553 0.86415 0.0
C668 C 0.48276 0.59992 0.87099 0.0
C669 C 0.46216 0.56765 0.87229 0.0
C670 C 0.46304 0.63506 0.89282 0.0
C671 C 0.50465 0.65444 0.89021 0.0
N672 N 0.46295 0.58936 0.87507 0.0
N673 N 0.50265 0.63386 0.87217 0.0
H674 H 0.89245 0.62361 0.91055 0.0
H675 H 0.91825 0.50276 0.81289 0.0
H676 H 0.84106 0.57641 0.88725 0.0
H677 H 0.96839 0.54491 0.88231 0.0
H678 H 0.88985 0.5318 0.8195 0.0
H679 H 0.92057 0.59794 0.87093 0.0
C680 C 0.88691 0.60812 0.89555 0.0
C681 C 0.86458 0.60178 0.90539 0.0
C682 C 0.90704 0.53468 0.83379 0.0
C683 C 0.89649 0.57255 0.86011 0.0
C684 C 0.92313 0.51797 0.83143 0.0
C685 C 0.94565 0.52145 0.84807 0.0
C686 C 0.91348 0.55497 0.85318 0.0
C687 C 0.95123 0.54171 0.86921 0.0
C688 C 0.903 0.59346 0.87335 0.0
C689 C 0.85815 0.58193 0.88233 0.0
N690 N 0.93524 0.55778 0.87121 0.0
N691 N 0.87418 0.56778 0.8622 0.0
H692 H 0.99368 0.1502 0.07122 0.0
H693 H 0.02326 0.0792 0.7846 0.0
H694 H 0.03349 0.17462 0.92749 0.0
H695 H 0.993 0.05544 0.94464 0.0
H696 H 0.02791 0.11409 0.83351 0.0
H697 H 0.99282 0.11566 0.02188 0.0
C698 C 1.00239 0.14826 0.02927 0.0
C699 C 0.01394 0.16532 0.00393 0.0
C700 C 0.02053 0.10112 0.85802 0.0
C701 C 0.01291 0.12547 0.94639 0.0
C702 C 0.01806 0.08115 0.83035 0.0
C703 C 0.00767 0.06437 0.86058 0.0
C704 C 0.01251 0.10424 0.91615 0.0
C705 C 1.00097 0.06791 0.91947 0.0
C706 C 1.00187 0.12846 0.00096 0.0
C707 C 0.02436 0.16192 0.94859 0.0
N708 N 1.00336 0.0874 0.94498 0.0
N709 N 0.02367 0.14235 0.92169 0.0
H710 H 0.35417 0.10519 0.95258 0.0
H711 H 0.44977 0.0123 0.92769 0.0
H712 H 0.3738 0.06372 0.09829 0.0
H713 H 0.43634 0.05879 0.78994 0.0
H714 H 0.42396 0.03253 0.99354 0.0
H715 H 0.38557 0.08989 0.89439 0.0
C716 C 0.36515 0.09295 0.97252 0.0
C717 C 0.36119 0.08568 0.03044 0.0
C718 C 0.42694 0.03857 0.94932 0.0
C719 C 0.39732 0.06807 0.9639 0.0
C720 C 0.44178 0.0271 0.912 0.0
C721 C 0.44539 0.03417 0.85396 0.0
C722 C 0.41527 0.057 0.92789 0.0
C723 C 0.43424 0.05309 0.8349 0.0
C724 C 0.38317 0.08429 0.93932 0.0
C725 C 0.37624 0.06999 0.0541 0.0
N726 N 0.41951 0.06376 0.87157 0.0
N727 N 0.39345 0.06159 0.02061 0.0
H728 H 0.52764 0.33165 0.93439 0.0
H729 H 0.48609 0.45381 0.87824 0.0
H730 H 0.47796 0.36416 0.04487 0.0
H731 H 0.53884 0.42055 0.77951 0.0
H732 H 0.4808 0.42098 0.93657 0.0
H733 H 0.52976 0.36379 0.87358 0.0
C734 C 0.51697 0.34546 0.94559 0.0
C735 C 0.50257 0.34506 0.99496 0.0
C736 C 0.49348 0.42093 0.90201 0.0
C737 C 0.50519 0.38235 0.92556 0.0
C738 C 0.49647 0.43965 0.86866 0.0
C739 C 0.51305 0.44006 0.82418 0.0
C740 C 0.50708 0.40249 0.89045 0.0
C741 C 0.526 0.42117 0.81367 0.0
C742 C 0.51832 0.36394 0.91101 0.0
C743 C 0.48951 0.36374 0.00769 0.0
N744 N 0.52275 0.40329 0.84646 0.0
N745 N 0.49114 0.38161 0.97331 0.0
H746 H 0.13434 0.45282 0.10234 0.0
H747 H 0.07114 0.45659 0.78676 0.0
H748 H 0.15462 0.41321 0.95383 0.0
H749 H 0.05963 0.50333 0.92454 0.0
H750 H 0.09761 0.43677 0.85259 0.0
H751 H 0.10286 0.46764 0.04324 0.0
C752 C 0.13201 0.44698 0.05759 0.0
C753 C 0.14727 0.43174 0.03309 0.0
C754 C 0.08902 0.45115 0.86886 0.0
C755 C 0.11126 0.44896 0.96467 0.0
C756 C 0.07379 0.46232 0.83153 0.0
C757 C 0.06305 0.48138 0.85084 0.0
C758 C 0.09351 0.45915 0.92587 0.0
C759 C 0.06741 0.48853 0.9085 0.0
C760 C 0.11409 0.4556 0.02367 0.0
C761 C 0.1435 0.42511 0.97439 0.0
N762 N 0.08235 0.47744 0.94398 0.0
N763 N 0.12595 0.4338 0.94218 0.0
H764 H 0.98233 0.86468 0.39175 0.0
H765 H 0.03267 0.9217 0.67885 0.0
H766 H 0.02469 0.83272 0.52289 0.0
H767 H 0.98603 0.95434 0.55924 0.0
H768 H 0.02814 0.88871 0.62357 0.0
H769 H 0.98211 0.89724 0.4525 0.0
C770 C 0.9916 0.86448 0.43329 0.0
C771 C 1.00365 0.84586 0.45201 0.0
C772 C 0.01876 0.90299 0.60927 0.0
C773 C 1.0033 0.88314 0.52201 0.0
C774 C 0.02137 0.92192 0.64084 0.0
C775 C 0.00991 0.94094 0.62327 0.0
C776 C 0.00473 0.90289 0.55895 0.0
C777 C 0.99522 0.94007 0.57425 0.0
C778 C 0.99132 0.88306 0.46811 0.0
C779 C 0.01499 0.84652 0.50676 0.0
N780 N 0.99324 0.92139 0.54331 0.0
N781 N 0.01464 0.86483 0.53947 0.0
H782 H 0.64413 0.91007 0.46614 0.0
H783 H 0.56337 0.01192 0.53855 0.0
H784 H 0.63574 0.96528 0.35184 0.0
H785 H 0.56366 0.95446 0.64432 0.0
H786 H 0.58882 0.99401 0.46781 0.0
H787 H 0.61438 0.92505 0.53079 0.0
C788 C 0.63602 0.92527 0.4543 0.0
C789 C 0.64262 0.93636 0.40304 0.0
C790 C 0.58314 0.98511 0.50592 0.0
C791 C 0.60827 0.95355 0.47707 0.0
C792 C 0.56849 0.99532 0.54607 0.0
C793 C 0.56113 0.98451 0.59656 0.0
C794 C 0.591 0.96398 0.51683 0.0
C795 C 0.56862 0.96317 0.60513 0.0
C796 C 0.6189 0.93375 0.4912 0.0
C797 C 0.63115 0.95588 0.39006 0.0
N798 N 0.58334 0.95363 0.56593 0.0
N799 N 0.61474 0.96384 0.42685 0.0
H800 H 0.51922 0.64839 0.39531 0.0
H801 H 0.47494 0.59099 0.68815 0.0
H802 H 0.47631 0.67861 0.52741 0.0
H803 H 0.51841 0.55802 0.56222 0.0
H804 H 0.47758 0.62361 0.63086 0.0
H805 H 0.52091 0.61564 0.45564 0.0
C806 C 0.51014 0.64815 0.43694 0.0
C807 C 0.49756 0.66631 0.45629 0.0
C808 C 0.48666 0.60935 0.6155 0.0
C809 C 0.49962 0.62897 0.52562 0.0
C810 C 0.48513 0.5906 0.64828 0.0
C811 C 0.49626 0.5716 0.62962 0.0
C812 C 0.4993 0.60932 0.56299 0.0
C813 C 0.50951 0.5723 0.57809 0.0
C814 C 0.51124 0.62949 0.47146 0.0
C815 C 0.48644 0.66516 0.51096 0.0
N816 N 0.51051 0.59085 0.54613 0.0
N817 N 0.48768 0.64684 0.54342 0.0
H818 H 0.8349 0.54454 0.45902 0.0
H819 H 0.95704 0.5572 0.60399 0.0
H820 H 0.8752 0.59796 0.4071 0.0
H821 H 0.92403 0.4972 0.57677 0.0
H822 H 0.92754 0.57509 0.5411 0.0
H823 H 0.86676 0.5301 0.51612 0.0
C824 C 0.85038 0.55342 0.46013 0.0
C825 C 0.85221 0.57258 0.4282 0.0
C826 C 0.92707 0.55797 0.54856 0.0
C827 C 0.88934 0.55572 0.49333 0.0
C828 C 0.94394 0.54774 0.58405 0.0
C829 C 0.94289 0.52567 0.59627 0.0
C830 C 0.90912 0.54597 0.52593 0.0
C831 C 0.9254 0.51427 0.5696 0.0
C832 C 0.86874 0.54501 0.49233 0.0
C833 C 0.87306 0.58305 0.43072 0.0
N834 N 0.90925 0.52452 0.53652 0.0
N835 N 0.89085 0.57454 0.46291 0.0
loop_
_geom_bond_atom_site_label_1
_geom_bond_atom_site_label_2
_geom_bond_distance
_geom_bond_site_symmetry_2
_ccdc_geom_bond_type
C0 C1 1.264 . S
C0 C5 1.479 . S
C0 C10 1.465 . S
C1 C0 1.264 . S
C1 C3 1.339 . S
C1 H28 0.931 . S
C2 C3 1.395 . S
C2 C4 1.320 . S
C3 C1 1.339 . S
C3 C2 1.395 . S
C3 H29 0.929 . S
C4 C2 1.320 . S
C4 C5 1.405 . S
C4 H30 0.930 . S
C5 C0 1.479 . S
C5 C4 1.405 . S
C5 H31 0.931 . S
U6 O7 2.454 . S
U6 O8 2.458 . S
U6 C9 2.984 . S
U6 C10 2.847 . S
U6 C23 2.882 . S
U6 O24 2.441 . S
U6 O25 2.420 . S
U6 O26 2.455 . S
U6 O27 2.449 . S
O7 U6 2.454 . S
O7 C9 1.353 . S
O8 U6 2.458 . S
O8 C9 1.286 . S
C9 U6 2.984 . S
C9 O7 1.353 . S
C9 O8 1.286 . S
C9 C11 1.363 . S
C10 C0 1.465 . S
C10 U6 2.847 . S
C10 O24 1.249 . S
C10 O25 1.202 . S
C11 C9 1.363 . S
C11 C13 1.408 . S
C11 C16 1.342 . S
C12 C13 1.310 . S
C12 C15 1.461 . S
C12 H32 0.932 . S
C13 C11 1.408 . S
C13 C12 1.310 . S
C13 H33 0.930 . S
C14 C15 1.474 1_556 S
C14 C16 1.285 1_556 S
C14 H34 0.929 . S
C15 C12 1.461 . S
C15 C14 1.474 1_554 S
C16 C11 1.342 . S
C16 C14 1.285 1_554 S
C16 H35 0.930 1_554 S
C17 C20 1.424 . S
C17 C22 1.245 . S
C17 C23 1.428 1_556 S
C18 C21 1.260 . S
C18 C22 1.477 . S
C18 H36 0.932 . S
C19 C20 1.384 . S
C19 C21 1.479 . S
C19 H37 0.929 . S
C20 C17 1.424 . S
C20 C19 1.384 . S
C20 H38 0.928 1_556 S
C21 C18 1.260 . S
C21 C19 1.479 . S
C22 C17 1.245 . S
C22 C18 1.477 . S
C22 H39 0.932 . S
C23 U6 2.882 . S
C23 C17 1.428 1_554 S
C23 O26 1.301 . S
C23 O27 1.282 . S
O24 U6 2.441 . S
O24 C10 1.249 . S
O25 U6 2.420 . S
O25 C10 1.202 . S
O26 U6 2.455 . S
O26 C23 1.301 . S
O27 U6 2.449 . S
O27 C23 1.282 . S
H28 C1 0.931 . S
H29 C3 0.929 . S
H30 C4 0.930 . S
H31 C5 0.931 . S
H32 C12 0.932 . S
H33 C13 0.930 . S
H34 C14 0.929 . S
H35 C16 0.930 1_556 S
H36 C18 0.932 . S
H37 C19 0.929 . S
H38 C20 0.928 1_554 S
H39 C22 0.932 . S
C40 C41 1.264 . S
C40 C45 1.479 . S
C40 C50 1.465 . S
C41 C40 1.264 . S
C41 C43 1.339 . S
C41 H68 0.931 . S
C42 C43 1.395 . S
C42 C44 1.320 . S
C43 C41 1.339 . S
C43 C42 1.395 . S
C43 H69 0.929 . S
C44 C42 1.320 . S
C44 C45 1.405 . S
C44 H70 0.920 1_455 S
C45 C40 1.479 . S
C45 C44 1.405 . S
C45 H71 0.931 . S
U46 O47 2.454 . S
U46 O48 2.458 . S
U46 C49 2.984 . S
U46 C50 2.847 . S
U46 C63 2.882 . S
U46 O64 2.441 . S
U46 O65 2.420 . S
U46 O66 2.455 . S
U46 O67 2.449 . S
O47 U46 2.454 . S
O47 C49 1.353 . S
O48 U46 2.458 . S
O48 C49 1.286 . S
C49 U46 2.984 . S
C49 O47 1.353 . S
C49 O48 1.286 . S
C49 C51 1.363 . S
C50 C40 1.465 . S
C50 U46 2.847 . S
C50 O64 1.249 . S
C50 O65 1.202 . S
C51 C49 1.363 . S
C51 C53 1.408 . S
C51 C56 1.342 . S
C52 C53 1.310 . S
C52 C55 1.461 . S
C52 H72 0.932 . S
C53 C51 1.408 . S
C53 C52 1.310 . S
C53 H73 0.930 . S
C54 C55 1.474 1_655 S
C54 C56 1.285 1_655 S
C54 H74 0.930 1_554 S
C55 C52 1.461 . S
C55 C54 1.474 1_455 S
C56 C51 1.342 . S
C56 C54 1.285 1_455 S
C56 H75 0.932 1_554 S
C57 C60 1.424 1_556 S
C57 C62 1.245 . S
C57 C63 1.428 1_556 S
C58 C61 1.260 . S
C58 C62 1.477 . S
C58 H76 0.932 . S
C59 C60 1.384 1_556 S
C59 C61 1.479 . S
C59 H77 0.929 . S
C60 C57 1.424 1_554 S
C60 C59 1.384 1_554 S
C60 H78 0.928 . S
C61 C58 1.260 . S
C61 C59 1.479 . S
C62 C57 1.245 . S
C62 C58 1.477 . S
C62 H79 0.932 . S
C63 U46 2.882 . S
C63 C57 1.428 1_554 S
C63 O66 1.301 . S
C63 O67 1.282 . S
O64 U46 2.441 . S
O64 C50 1.249 . S
O65 U46 2.420 . S
O65 C50 1.202 . S
O66 U46 2.455 . S
O66 C63 1.301 . S
O67 U46 2.449 . S
O67 C63 1.282 . S
H68 C41 0.931 . S
H69 C43 0.929 . S
H70 C44 0.920 1_655 S
H71 C45 0.931 . S
H72 C52 0.932 . S
H73 C53 0.930 . S
H74 C54 0.930 1_556 S
H75 C56 0.932 1_556 S
H76 C58 0.932 . S
H77 C59 0.929 . S
H78 C60 0.928 . S
H79 C62 0.932 . S
C80 C81 1.264 . S
C80 C85 1.479 . S
C80 C90 1.465 . S
C81 C80 1.264 . S
C81 C83 1.339 . S
C81 H108 0.931 . S
C82 C83 1.395 . S
C82 C84 1.320 . S
C83 C81 1.339 . S
C83 C82 1.395 . S
C83 H109 0.929 . S
C84 C82 1.320 . S
C84 C85 1.405 . S
C84 H110 0.930 . S
C85 C80 1.479 . S
C85 C84 1.405 . S
C85 H111 0.931 . S
U86 O87 2.454 . S
U86 O88 2.458 . S
U86 C89 2.984 . S
U86 C90 2.847 . S
U86 C103 2.882 . S
U86 O104 2.441 . S
U86 O105 2.420 . S
U86 O106 2.455 . S
U86 O107 2.449 . S
O87 U86 2.454 . S
O87 C89 1.353 . S
O88 U86 2.458 . S
O88 C89 1.286 . S
C89 U86 2.984 . S
C89 O87 1.353 . S
C89 O88 1.286 . S
C89 C91 1.363 . S
C90 C80 1.465 . S
C90 U86 2.847 . S
C90 O104 1.249 . S
C90 O105 1.202 . S
C91 C89 1.363 . S
C91 C93 1.408 . S
C91 C96 1.342 . S
C92 C93 1.310 . S
C92 C95 1.461 . S
C92 H112 0.932 . S
C93 C91 1.408 . S
C93 C92 1.310 . S
C93 H113 0.930 . S
C94 C95 1.474 1_556 S
C94 C96 1.285 1_556 S
C94 H114 0.929 . S
C95 C92 1.461 . S
C95 C94 1.474 1_554 S
C96 C91 1.342 . S
C96 C94 1.285 1_554 S
C96 H115 0.930 1_554 S
C97 C100 1.424 . S
C97 C102 1.245 . S
C97 C103 1.428 1_556 S
C98 C101 1.260 . S
C98 C102 1.477 . S
C98 H116 0.932 . S
C99 C100 1.384 . S
C99 C101 1.479 . S
C99 H117 0.929 . S
C100 C97 1.424 . S
C100 C99 1.384 . S
C100 H118 0.928 1_556 S
C101 C98 1.260 . S
C101 C99 1.479 . S
C102 C97 1.245 . S
C102 C98 1.477 . S
C102 H119 0.932 . S
C103 U86 2.882 . S
C103 C97 1.428 1_554 S
C103 O106 1.301 . S
C103 O107 1.282 . S
O104 U86 2.441 . S
O104 C90 1.249 . S
O105 U86 2.420 . S
O105 C90 1.202 . S
O106 U86 2.455 . S
O106 C103 1.301 . S
O107 U86 2.449 . S
O107 C103 1.282 . S
H108 C81 0.931 . S
H109 C83 0.929 . S
H110 C84 0.930 . S
H111 C85 0.931 . S
H112 C92 0.932 . S
H113 C93 0.930 . S
H114 C94 0.929 . S
H115 C96 0.930 1_556 S
H116 C98 0.932 . S
H117 C99 0.929 . S
H118 C100 0.928 1_554 S
H119 C102 0.932 . S
C120 C121 1.264 . S
C120 C125 1.479 . S
C120 C130 1.465 . S
C121 C120 1.264 . S
C121 C123 1.339 . S
C121 H148 0.931 . S
C122 C123 1.395 . S
C122 C124 1.320 . S
C123 C121 1.339 . S
C123 C122 1.395 . S
C123 H149 0.929 . S
C124 C122 1.320 . S
C124 C125 1.405 . S
C124 H150 0.930 . S
C125 C120 1.479 . S
C125 C124 1.405 . S
C125 H151 0.931 . S
U126 O127 2.454 . S
U126 O128 2.458 . S
U126 C129 2.984 . S
U126 C130 2.847 . S
U126 C143 2.882 . S
U126 O144 2.441 . S
U126 O145 2.420 . S
U126 O146 2.455 . S
U126 O147 2.449 . S
O127 U126 2.454 . S
O127 C129 1.353 . S
O128 U126 2.458 . S
O128 C129 1.286 . S
C129 U126 2.984 . S
C129 O127 1.353 . S
C129 O128 1.286 . S
C129 C131 1.363 . S
C130 C120 1.465 . S
C130 U126 2.847 . S
C130 O144 1.249 . S
C130 O145 1.202 . S
C131 C129 1.363 . S
C131 C133 1.408 . S
C131 C136 1.342 . S
C132 C133 1.310 . S
C132 C135 1.461 . S
C132 H152 0.932 . S
C133 C131 1.408 . S
C133 C132 1.310 . S
C133 H153 0.930 . S
C134 C135 1.474 . S
C134 C136 1.285 . S
C134 H154 0.929 1_554 S
C135 C132 1.461 . S
C135 C134 1.474 . S
C136 C131 1.342 . S
C136 C134 1.285 . S
C136 H155 0.930 1_554 S
C137 C140 1.424 1_556 S
C137 C142 1.245 . S
C137 C143 1.428 1_556 S
C138 C141 1.260 . S
C138 C142 1.477 . S
C138 H156 0.932 . S
C139 C140 1.384 1_556 S
C139 C141 1.479 . S
C139 H157 0.929 . S
C140 C137 1.424 1_554 S
C140 C139 1.384 1_554 S
C140 H158 0.928 . S
C141 C138 1.260 . S
C141 C139 1.479 . S
C142 C137 1.245 . S
C142 C138 1.477 . S
C142 H159 0.932 . S
C143 U126 2.882 . S
C143 C137 1.428 1_554 S
C143 O146 1.301 . S
C143 O147 1.282 . S
O144 U126 2.441 . S
O144 C130 1.249 . S
O145 U126 2.420 . S
O145 C130 1.202 . S
O146 U126 2.455 . S
O146 C143 1.301 . S
O147 U126 2.449 . S
O147 C143 1.282 . S
H148 C121 0.931 . S
H149 C123 0.929 . S
H150 C124 0.930 . S
H151 C125 0.931 . S
H152 C132 0.932 . S
H153 C133 0.930 . S
H154 C134 0.929 1_556 S
H155 C136 0.930 1_556 S
H156 C138 0.932 . S
H157 C139 0.929 . S
H158 C140 0.928 . S
H159 C142 0.932 . S
C160 C161 1.264 . S
C160 C165 1.479 . S
C160 C170 1.465 . S
C161 C160 1.264 . S
C161 C163 1.339 . S
C161 H188 0.931 . S
C162 C163 1.395 . S
C162 C164 1.320 . S
C163 C161 1.339 . S
C163 C162 1.395 . S
C163 H189 0.929 . S
C164 C162 1.320 . S
C164 C165 1.405 . S
C164 H190 0.930 . S
C165 C160 1.479 . S
C165 C164 1.405 . S
C165 H191 0.931 . S
U166 O167 2.454 . S
U166 O168 2.458 . S
U166 C169 2.984 . S
U166 C170 2.847 . S
U166 C183 2.882 . S
U166 O184 2.441 . S
U166 O185 2.420 . S
U166 O186 2.455 . S
U166 O187 2.449 . S
O167 U166 2.454 . S
O167 C169 1.353 . S
O168 U166 2.458 . S
O168 C169 1.286 . S
C169 U166 2.984 . S
C169 O167 1.353 . S
C169 O168 1.286 . S
C169 C171 1.363 . S
C170 C160 1.465 . S
C170 U166 2.847 . S
C170 O184 1.249 . S
C170 O185 1.202 . S
C171 C169 1.363 . S
C171 C173 1.408 . S
C171 C176 1.342 . S
C172 C173 1.310 . S
C172 C175 1.461 . S
C172 H192 0.932 . S
C173 C171 1.408 . S
C173 C172 1.310 . S
C173 H193 0.930 . S
C174 C175 1.474 . S
C174 C176 1.285 . S
C174 H194 0.929 . S
C175 C172 1.461 . S
C175 C174 1.474 . S
C176 C171 1.342 . S
C176 C174 1.285 . S
C176 H195 0.930 . S
C177 C180 1.424 . S
C177 C182 1.245 . S
C177 C183 1.428 . S
C178 C181 1.260 . S
C178 C182 1.477 . S
C178 H196 0.932 . S
C179 C180 1.384 . S
C179 C181 1.479 . S
C179 H197 0.929 . S
C180 C177 1.424 . S
C180 C179 1.384 . S
C180 H198 0.928 . S
C181 C178 1.260 . S
C181 C179 1.479 . S
C182 C177 1.245 . S
C182 C178 1.477 . S
C182 H199 0.932 . S
C183 U166 2.882 . S
C183 C177 1.428 . S
C183 O186 1.301 . S
C183 O187 1.282 . S
O184 U166 2.441 . S
O184 C170 1.249 . S
O185 U166 2.420 . S
O185 C170 1.202 . S
O186 U166 2.455 . S
O186 C183 1.301 . S
O187 U166 2.449 . S
O187 C183 1.282 . S
H188 C161 0.931 . S
H189 C163 0.929 . S
H190 C164 0.930 . S
H191 C165 0.931 . S
H192 C172 0.932 . S
H193 C173 0.930 . S
H194 C174 0.929 . S
H195 C176 0.930 . S
H196 C178 0.932 . S
H197 C179 0.929 . S
H198 C180 0.928 . S
H199 C182 0.932 . S
C200 C201 1.264 . S
C200 C205 1.479 . S
C200 C210 1.465 . S
C201 C200 1.264 . S
C201 C203 1.339 . S
C201 H228 0.931 . S
C202 C203 1.395 . S
C202 C204 1.320 . S
C203 C201 1.339 . S
C203 C202 1.395 . S
C203 H229 0.929 . S
C204 C202 1.320 . S
C204 C205 1.405 . S
C204 H230 0.924 1_455 S
C205 C200 1.479 . S
C205 C204 1.405 . S
C205 H231 0.931 . S
U206 O207 2.454 . S
U206 O208 2.458 . S
U206 C209 2.984 . S
U206 C210 2.847 . S
U206 C223 2.882 . S
U206 O224 2.441 . S
U206 O225 2.420 . S
U206 O226 2.455 . S
U206 O227 2.449 . S
O207 U206 2.454 . S
O207 C209 1.353 . S
O208 U206 2.458 . S
O208 C209 1.286 . S
C209 U206 2.984 . S
C209 O207 1.353 . S
C209 O208 1.286 . S
C209 C211 1.363 . S
C210 C200 1.465 . S
C210 U206 2.847 . S
C210 O224 1.249 . S
C210 O225 1.202 . S
C211 C209 1.363 . S
C211 C213 1.408 . S
C211 C216 1.342 . S
C212 C213 1.310 . S
C212 C215 1.462 . S
C212 H232 0.932 . S
C213 C211 1.408 . S
C213 C212 1.310 . S
C213 H233 0.930 . S
C214 C215 1.474 1_655 S
C214 C216 1.286 1_655 S
C214 H234 0.929 . S
C215 C212 1.462 . S
C215 C214 1.474 1_455 S
C216 C211 1.342 . S
C216 C214 1.286 1_455 S
C216 H235 0.935 . S
C217 C220 1.424 . S
C217 C222 1.245 . S
C217 C223 1.428 . S
C218 C221 1.260 . S
C218 C222 1.477 . S
C218 H236 0.932 . S
C219 C220 1.384 . S
C219 C221 1.479 . S
C219 H237 0.929 . S
C220 C217 1.424 . S
C220 C219 1.384 . S
C220 H238 0.928 . S
C221 C218 1.260 . S
C221 C219 1.479 . S
C222 C217 1.245 . S
C222 C218 1.477 . S
C222 H239 0.932 . S
C223 U206 2.882 . S
C223 C217 1.428 . S
C223 O226 1.301 . S
C223 O227 1.282 . S
O224 U206 2.441 . S
O224 C210 1.249 . S
O225 U206 2.420 . S
O225 C210 1.202 . S
O226 U206 2.455 . S
O226 C223 1.301 . S
O227 U206 2.449 . S
O227 C223 1.282 . S
H228 C201 0.931 . S
H229 C203 0.929 . S
H230 C204 0.924 1_655 S
H231 C205 0.931 . S
H232 C212 0.932 . S
H233 C213 0.930 . S
H234 C214 0.929 . S
H235 C216 0.935 . S
H236 C218 0.932 . S
H237 C219 0.929 . S
H238 C220 0.928 . S
H239 C222 0.932 . S
C240 C241 1.264 . S
C240 C245 1.479 . S
C240 C250 1.465 . S
C241 C240 1.264 . S
C241 C243 1.339 . S
C241 H268 0.931 . S
C242 C243 1.395 . S
C242 C244 1.320 . S
C243 C241 1.339 . S
C243 C242 1.395 . S
C243 H269 0.929 . S
C244 C242 1.320 . S
C244 C245 1.405 . S
C244 H270 0.930 . S
C245 C240 1.479 . S
C245 C244 1.405 . S
C245 H271 0.931 . S
U246 O247 2.454 . S
U246 O248 2.458 . S
U246 C249 2.984 . S
U246 C250 2.847 . S
U246 C263 2.882 . S
U246 O264 2.441 . S
U246 O265 2.420 . S
U246 O266 2.455 . S
U246 O267 2.449 . S
O247 U246 2.454 . S
O247 C249 1.353 . S
O248 U246 2.458 . S
O248 C249 1.286 . S
C249 U246 2.984 . S
C249 O247 1.353 . S
C249 O248 1.286 . S
C249 C251 1.363 . S
C250 C240 1.465 . S
C250 U246 2.847 . S
C250 O264 1.249 . S
C250 O265 1.202 . S
C251 C249 1.363 . S
C251 C253 1.408 . S
C251 C256 1.342 . S
C252 C253 1.310 . S
C252 C255 1.461 . S
C252 H272 0.932 . S
C253 C251 1.408 . S
C253 C252 1.310 . S
C253 H273 0.930 . S
C254 C255 1.474 . S
C254 C256 1.285 . S
C254 H274 0.929 . S
C255 C252 1.461 . S
C255 C254 1.474 . S
C256 C251 1.342 . S
C256 C254 1.285 . S
C256 H275 0.930 . S
C257 C260 1.424 . S
C257 C262 1.245 . S
C257 C263 1.428 . S
C258 C261 1.260 . S
C258 C262 1.477 . S
C258 H276 0.932 . S
C259 C260 1.384 . S
C259 C261 1.479 . S
C259 H277 0.929 . S
C260 C257 1.424 . S
C260 C259 1.384 . S
C260 H278 0.928 . S
C261 C258 1.260 . S
C261 C259 1.479 . S
C262 C257 1.245 . S
C262 C258 1.477 . S
C262 H279 0.932 . S
C263 U246 2.882 . S
C263 C257 1.428 . S
C263 O266 1.301 . S
C263 O267 1.282 . S
O264 U246 2.441 . S
O264 C250 1.249 . S
O265 U246 2.420 . S
O265 C250 1.202 . S
O266 U246 2.455 . S
O266 C263 1.301 . S
O267 U246 2.449 . S
O267 C263 1.282 . S
H268 C241 0.931 . S
H269 C243 0.929 . S
H270 C244 0.930 . S
H271 C245 0.931 . S
H272 C252 0.932 . S
H273 C253 0.930 . S
H274 C254 0.929 . S
H275 C256 0.930 . S
H276 C258 0.932 . S
H277 C259 0.929 . S
H278 C260 0.928 . S
H279 C262 0.932 . S
C280 C281 1.264 . S
C280 C285 1.479 . S
C280 C290 1.465 . S
C281 C280 1.264 . S
C281 C283 1.339 . S
C281 H308 0.931 . S
C282 C283 1.395 . S
C282 C284 1.320 . S
C283 C281 1.339 . S
C283 C282 1.395 . S
C283 H309 0.929 . S
C284 C282 1.320 . S
C284 C285 1.405 . S
C284 H310 0.930 . S
C285 C280 1.479 . S
C285 C284 1.405 . S
C285 H311 0.931 . S
U286 O287 2.454 . S
U286 O288 2.458 . S
U286 C289 2.984 . S
U286 C290 2.847 . S
U286 C303 2.882 . S
U286 O304 2.441 . S
U286 O305 2.420 . S
U286 O306 2.455 . S
U286 O307 2.449 . S
O287 U286 2.454 . S
O287 C289 1.353 . S
O288 U286 2.458 . S
O288 C289 1.286 . S
C289 U286 2.984 . S
C289 O287 1.353 . S
C289 O288 1.286 . S
C289 C291 1.363 . S
C290 C280 1.465 . S
C290 U286 2.847 . S
C290 O304 1.249 . S
C290 O305 1.202 . S
C291 C289 1.363 . S
C291 C293 1.408 . S
C291 C296 1.342 . S
C292 C293 1.310 . S
C292 C295 1.461 . S
C292 H312 0.932 . S
C293 C291 1.408 . S
C293 C292 1.310 . S
C293 H313 0.930 . S
C294 C295 1.474 . S
C294 C296 1.285 . S
C294 H314 0.929 . S
C295 C292 1.461 . S
C295 C294 1.474 . S
C296 C291 1.342 . S
C296 C294 1.285 . S
C296 H315 0.930 . S
C297 C300 1.424 . S
C297 C302 1.245 . S
C297 C303 1.428 . S
C298 C301 1.260 . S
C298 C302 1.477 . S
C298 H316 0.932 . S
C299 C300 1.384 . S
C299 C301 1.479 . S
C299 H317 0.929 . S
C300 C297 1.424 . S
C300 C299 1.384 . S
C300 H318 0.928 . S
C301 C298 1.260 . S
C301 C299 1.479 . S
C302 C297 1.245 . S
C302 C298 1.477 . S
C302 H319 0.932 . S
C303 U286 2.882 . S
C303 C297 1.428 . S
C303 O306 1.301 . S
C303 O307 1.282 . S
O304 U286 2.441 . S
O304 C290 1.249 . S
O305 U286 2.420 . S
O305 C290 1.202 . S
O306 U286 2.455 . S
O306 C303 1.301 . S
O307 U286 2.449 . S
O307 C303 1.282 . S
H308 C281 0.931 . S
H309 C283 0.929 . S
H310 C284 0.930 . S
H311 C285 0.931 . S
H312 C292 0.932 . S
H313 C293 0.930 . S
H314 C294 0.929 . S
H315 C296 0.930 . S
H316 C298 0.932 . S
H317 C299 0.929 . S
H318 C300 0.928 . S
H319 C302 0.932 . S
O320 Mg321 1.990 . S
O320 C334 1.253 . S
Mg321 O320 1.990 . S
Mg321 O324 2.180 1_565 S
Mg321 O325 2.117 . S
Mg321 O339 2.030 . S
O322 Mg323 2.072 1_465 S
O322 C334 1.260 . S
Mg323 O322 2.072 1_645 S
Mg323 O324 2.099 1_655 S
Mg323 O326 2.079 . S
Mg323 O327 2.072 1_655 S
Mg323 O329 2.099 . S
Mg323 O340 2.079 1_545 S
O324 Mg321 2.180 1_545 S
O324 Mg323 2.099 1_455 S
O324 C335 1.279 . S
O325 Mg321 2.117 . S
O325 C335 1.250 1_565 S
O326 Mg323 2.079 . S
O326 C336 1.264 . S
O327 Mg323 2.072 1_455 S
O327 C337 1.260 . S
Mg328 O329 2.180 . S
Mg328 O330 2.030 . S
Mg328 O331 1.990 . S
Mg328 O332 2.117 . S
O329 Mg323 2.099 . S
O329 Mg328 2.180 . S
O329 C338 1.279 . S
O330 Mg328 2.030 . S
O330 C336 1.248 . S
O331 Mg328 1.990 . S
O331 C337 1.253 1_655 S
O332 Mg328 2.117 . S
O332 C338 1.250 . S
C333 O339 1.203 1_655 S
C333 O340 1.281 . S
C334 O320 1.253 . S
C334 O322 1.260 . S
C335 O324 1.279 . S
C335 O325 1.250 1_545 S
C336 O326 1.264 . S
C336 O330 1.248 . S
C337 O327 1.260 . S
C337 O331 1.253 1_455 S
C338 O329 1.279 . S
C338 O332 1.250 . S
O339 Mg321 2.030 . S
O339 C333 1.203 1_455 S
O340 Mg323 2.079 1_565 S
O340 C333 1.281 . S
O341 Mg342 1.990 1_545 S
O341 C355 1.253 . S
Mg342 O341 1.990 1_565 S
Mg342 O345 2.180 . S
Mg342 O346 2.117 . S
Mg342 O360 2.030 1_565 S
O343 Mg344 2.072 . S
O343 C355 1.260 . S
Mg344 O343 2.072 . S
Mg344 O345 2.099 1_545 S
Mg344 O347 2.079 1_545 S
Mg344 O348 2.069 1_545 S
Mg344 O350 2.099 . S
Mg344 O361 2.079 . S
O345 Mg342 2.180 . S
O345 Mg344 2.099 1_565 S
O345 C356 1.279 . S
O346 Mg342 2.117 . S
O346 C356 1.250 . S
O347 Mg344 2.079 1_565 S
O347 C357 1.264 . S
O348 Mg344 2.069 1_565 S
O348 C358 1.255 1_565 S
Mg349 O350 2.180 . S
Mg349 O351 2.030 . S
Mg349 O352 1.990 . S
Mg349 O353 2.117 . S
O350 Mg344 2.099 . S
O350 Mg349 2.180 . S
O350 C359 1.279 . S
O351 Mg349 2.030 . S
O351 C357 1.248 1_545 S
O352 Mg349 1.990 . S
O352 C358 1.253 . S
O353 Mg349 2.117 . S
O353 C359 1.250 . S
C354 O360 1.248 . S
C354 O361 1.264 . S
C355 O341 1.253 . S
C355 O343 1.260 . S
C356 O345 1.279 . S
C356 O346 1.250 . S
C357 O347 1.264 . S
C357 O351 1.248 1_565 S
C358 O348 1.255 1_545 S
C358 O352 1.253 . S
C359 O350 1.279 . S
C359 O353 1.250 . S
O360 Mg342 2.030 1_545 S
O360 C354 1.248 . S
O361 Mg344 2.079 . S
O361 C354 1.264 . S
O362 Mg363 1.990 . S
O362 C376 1.253 . S
Mg363 O362 1.990 . S
Mg363 O366 2.180 . S
Mg363 O367 2.117 . S
Mg363 O381 2.030 . S
O364 Mg365 2.072 . S
O364 C376 1.260 . S
Mg365 O364 2.072 . S
Mg365 O366 2.099 . S
Mg365 O368 2.079 . S
Mg365 O369 2.072 . S
Mg365 O371 2.099 . S
Mg365 O382 2.079 . S
O366 Mg363 2.180 . S
O366 Mg365 2.099 . S
O366 C377 1.279 . S
O367 Mg363 2.117 . S
O367 C377 1.250 . S
O368 Mg365 2.079 . S
O368 C378 1.264 . S
O369 Mg365 2.072 . S
O369 C379 1.260 . S
Mg370 O371 2.180 . S
Mg370 O372 2.030 . S
Mg370 O373 1.990 . S
Mg370 O374 2.117 . S
O371 Mg365 2.099 . S
O371 Mg370 2.180 . S
O371 C380 1.279 . S
O372 Mg370 2.030 . S
O372 C378 1.248 . S
O373 Mg370 1.990 . S
O373 C379 1.253 . S
O374 Mg370 2.117 . S
O374 C380 1.250 . S
C375 O381 1.248 . S
C375 O382 1.264 . S
C376 O362 1.253 . S
C376 O364 1.260 . S
C377 O366 1.279 . S
C377 O367 1.250 . S
C378 O368 1.264 . S
C378 O372 1.248 . S
C379 O369 1.260 . S
C379 O373 1.253 . S
C380 O371 1.279 . S
C380 O374 1.250 . S
O381 Mg363 2.030 . S
O381 C375 1.248 . S
O382 Mg365 2.079 . S
O382 C375 1.264 . S
O383 Mg384 1.990 . S
O383 C397 1.253 . S
Mg384 O383 1.990 . S
Mg384 O387 2.180 . S
Mg384 O388 2.117 . S
Mg384 O402 2.030 . S
O385 Mg386 2.072 1_655 S
O385 C397 1.260 . S
Mg386 O385 2.072 1_455 S
Mg386 O387 2.099 1_455 S
Mg386 O389 2.079 . S
Mg386 O390 2.072 . S
Mg386 O392 2.099 . S
Mg386 O403 2.079 1_455 S
O387 Mg384 2.180 . S
O387 Mg386 2.099 1_655 S
O387 C398 1.279 . S
O388 Mg384 2.117 . S
O388 C398 1.250 . S
O389 Mg386 2.079 . S
O389 C399 1.264 . S
O390 Mg386 2.072 . S
O390 C400 1.260 . S
Mg391 O392 2.180 . S
Mg391 O393 2.030 . S
Mg391 O394 1.990 . S
Mg391 O395 2.117 . S
O392 Mg386 2.099 . S
O392 Mg391 2.180 . S
O392 C401 1.279 . S
O393 Mg391 2.030 . S
O393 C399 1.248 . S
O394 Mg391 1.990 . S
O394 C400 1.253 . S
O395 Mg391 2.117 . S
O395 C401 1.250 . S
C396 O402 1.248 . S
C396 O403 1.264 . S
C397 O383 1.253 . S
C397 O385 1.260 . S
C398 O387 1.279 . S
C398 O388 1.250 . S
C399 O389 1.264 . S
C399 O393 1.248 . S
C400 O390 1.260 . S
C400 O394 1.253 . S
C401 O392 1.279 . S
C401 O395 1.250 . S
O402 Mg384 2.030 . S
O402 C396 1.248 . S
O403 Mg386 2.079 1_655 S
O403 C396 1.264 . S
H404 C410 0.930 . S
H405 C414 0.930 . S
H406 C419 0.929 . S
H407 C417 0.929 . S
H408 C412 0.929 . S
H409 C418 0.929 . S
C410 H404 0.930 . S
C410 C411 1.367 . S
C410 C418 1.378 . S
C411 C410 1.367 . S
C411 C419 1.433 . S
C412 H408 0.929 . S
C412 C414 1.378 . S
C412 C416 1.350 . S
C413 C416 1.463 . S
C413 C418 1.350 . S
C413 N421 1.427 . S
C414 H405 0.930 . S
C414 C412 1.378 . S
C414 C415 1.367 . S
C415 C414 1.367 . S
C415 C417 1.433 . S
C416 C412 1.350 . S
C416 C413 1.463 . S
C416 N420 1.427 . S
C417 H407 0.929 . S
C417 C415 1.433 . S
C417 N420 1.384 . S
C418 H409 0.929 . S
C418 C410 1.378 . S
C418 C413 1.350 . S
C419 H406 0.929 . S
C419 C411 1.433 . S
C419 N421 1.384 . S
N420 C416 1.427 . S
N420 C417 1.384 . S
N421 C413 1.427 . S
N421 C419 1.384 . S
H422 C428 0.930 . S
H423 C432 0.930 . S
H424 C437 0.929 . S
H425 C435 0.929 . S
H426 C430 0.929 . S
H427 C436 0.929 . S
C428 H422 0.930 . S
C428 C429 1.367 . S
C428 C436 1.378 . S
C429 C428 1.367 . S
C429 C437 1.433 . S
C430 H426 0.929 . S
C430 C432 1.378 . S
C430 C434 1.350 . S
C431 C434 1.463 . S
C431 C436 1.350 . S
C431 N439 1.427 . S
C432 H423 0.930 . S
C432 C430 1.378 . S
C432 C433 1.367 . S
C433 C432 1.367 . S
C433 C435 1.433 . S
C434 C430 1.350 . S
C434 C431 1.463 . S
C434 N438 1.427 . S
C435 H425 0.929 . S
C435 C433 1.433 . S
C435 N438 1.384 . S
C436 H427 0.929 . S
C436 C428 1.378 . S
C436 C431 1.350 . S
C437 H424 0.929 . S
C437 C429 1.433 . S
C437 N439 1.384 . S
N438 C434 1.427 . S
N438 C435 1.384 . S
N439 C431 1.427 . S
N439 C437 1.384 . S
H440 C446 0.930 . S
H441 C450 0.930 . S
H442 C455 0.929 . S
H443 C453 0.929 . S
H444 C448 0.929 . S
H445 C454 0.929 . S
C446 H440 0.930 . S
C446 C447 1.367 . S
C446 C454 1.378 . S
C447 C446 1.367 . S
C447 C455 1.433 . S
C448 H444 0.929 . S
C448 C450 1.378 . S
C448 C452 1.350 . S
C449 C452 1.463 . S
C449 C454 1.350 . S
C449 N457 1.427 . S
C450 H441 0.930 . S
C450 C448 1.378 . S
C450 C451 1.367 . S
C451 C450 1.367 . S
C451 C453 1.433 . S
C452 C448 1.350 . S
C452 C449 1.463 . S
C452 N456 1.427 . S
C453 H443 0.929 . S
C453 C451 1.433 . S
C453 N456 1.384 . S
C454 H445 0.929 . S
C454 C446 1.378 . S
C454 C449 1.350 . S
C455 H442 0.929 . S
C455 C447 1.433 . S
C455 N457 1.384 . S
N456 C452 1.427 . S
N456 C453 1.384 . S
N457 C449 1.427 . S
N457 C455 1.384 . S
H458 C464 0.930 . S
H459 C468 0.930 . S
H460 C473 0.929 . S
H461 C471 0.929 . S
H462 C466 0.929 . S
H463 C472 0.929 . S
C464 H458 0.930 . S
C464 C465 1.382 . S
C464 C472 1.378 . S
C465 C464 1.382 . S
C465 C473 1.419 1_655 S
C466 H462 0.929 . S
C466 C468 1.378 . S
C466 C470 1.350 1_455 S
C467 C470 1.463 . S
C467 C472 1.350 . S
C467 N475 1.427 1_655 S
C468 H459 0.930 . S
C468 C466 1.378 . S
C468 C469 1.367 1_455 S
C469 C468 1.367 1_655 S
C469 C471 1.433 . S
C470 C466 1.350 1_655 S
C470 C467 1.463 . S
C470 N474 1.427 . S
C471 H461 0.929 . S
C471 C469 1.433 . S
C471 N474 1.384 . S
C472 H463 0.929 . S
C472 C464 1.378 . S
C472 C467 1.350 . S
C473 H460 0.929 . S
C473 C465 1.419 1_455 S
C473 N475 1.384 . S
N474 C470 1.427 . S
N474 C471 1.384 . S
N475 C467 1.427 1_455 S
N475 C473 1.384 . S
H476 C482 0.930 . S
H477 C486 0.930 1_545 S
H478 C491 0.929 1_554 S
H479 C489 0.929 . S
H480 C484 0.929 . S
H481 C490 0.929 . S
C482 H476 0.930 . S
C482 C483 1.367 . S
C482 C490 1.378 . S
C483 C482 1.367 . S
C483 C491 1.433 . S
C484 H480 0.929 . S
C484 C486 1.378 . S
C484 C488 1.350 . S
C485 C488 1.463 . S
C485 C490 1.350 . S
C485 N493 1.427 . S
C486 H477 0.930 1_565 S
C486 C484 1.378 . S
C486 C487 1.367 . S
C487 C486 1.367 . S
C487 C489 1.433 . S
C488 C484 1.350 . S
C488 C485 1.463 . S
C488 N492 1.427 . S
C489 H479 0.929 . S
C489 C487 1.433 . S
C489 N492 1.384 . S
C490 H481 0.929 . S
C490 C482 1.378 . S
C490 C485 1.350 . S
C491 H478 0.929 1_556 S
C491 C483 1.433 . S
C491 N493 1.384 . S
N492 C488 1.427 . S
N492 C489 1.384 . S
N493 C485 1.427 . S
N493 C491 1.384 . S
H494 C500 0.930 . S
H495 C504 0.930 . S
H496 C509 0.929 . S
H497 C507 0.929 . S
H498 C502 0.929 . S
H499 C508 0.929 . S
C500 H494 0.930 . S
C500 C501 1.367 . S
C500 C508 1.378 1_554 S
C501 C500 1.367 . S
C501 C509 1.433 1_554 S
C502 H498 0.929 . S
C502 C504 1.378 . S
C502 C506 1.350 . S
C503 C506 1.463 . S
C503 C508 1.350 . S
C503 N511 1.427 . S
C504 H495 0.930 . S
C504 C502 1.378 . S
C504 C505 1.367 . S
C505 C504 1.367 . S
C505 C507 1.433 . S
C506 C502 1.350 . S
C506 C503 1.463 . S
C506 N510 1.427 . S
C507 H497 0.929 . S
C507 C505 1.433 . S
C507 N510 1.384 . S
C508 H499 0.929 . S
C508 C500 1.378 1_556 S
C508 C503 1.350 . S
C509 H496 0.929 . S
C509 C501 1.433 1_556 S
C509 N511 1.384 . S
N510 C506 1.427 . S
N510 C507 1.384 . S
N511 C503 1.427 . S
N511 C509 1.384 . S
H512 C518 0.930 . S
H513 C522 0.930 . S
H514 C527 0.929 1_554 S
H515 C525 0.929 . S
H516 C520 0.929 . S
H517 C526 0.929 . S
C518 H512 0.930 . S
C518 C519 1.367 . S
C518 C526 1.378 . S
C519 C518 1.367 . S
C519 C527 1.433 . S
C520 H516 0.929 . S
C520 C522 1.378 . S
C520 C524 1.350 . S
C521 C524 1.463 . S
C521 C526 1.350 . S
C521 N529 1.427 . S
C522 H513 0.930 . S
C522 C520 1.378 . S
C522 C523 1.367 . S
C523 C522 1.367 . S
C523 C525 1.433 . S
C524 C520 1.350 . S
C524 C521 1.463 . S
C524 N528 1.427 . S
C525 H515 0.929 . S
C525 C523 1.433 . S
C525 N528 1.384 . S
C526 H517 0.929 . S
C526 C518 1.378 . S
C526 C521 1.350 . S
C527 H514 0.929 1_556 S
C527 C519 1.433 . S
C527 N529 1.384 . S
N528 C524 1.427 . S
N528 C525 1.384 . S
N529 C521 1.427 . S
N529 C527 1.384 . S
H530 C536 0.930 . S
H531 C540 0.930 . S
H532 C545 0.929 . S
H533 C543 0.929 . S
H534 C538 0.929 . S
H535 C544 0.929 . S
C536 H530 0.930 . S
C536 C537 1.377 1_556 S
C536 C544 1.378 . S
C537 C536 1.377 1_554 S
C537 C545 1.424 1_455 S
C538 H534 0.929 . S
C538 C540 1.378 . S
C538 C542 1.350 1_655 S
C539 C542 1.463 . S
C539 C544 1.350 . S
C539 N547 1.427 1_455 S
C540 H531 0.930 . S
C540 C538 1.378 . S
C540 C541 1.367 1_655 S
C541 C540 1.367 1_455 S
C541 C543 1.433 . S
C542 C538 1.350 1_455 S
C542 C539 1.463 . S
C542 N546 1.427 . S
C543 H533 0.929 . S
C543 C541 1.433 . S
C543 N546 1.384 . S
C544 H535 0.929 . S
C544 C536 1.378 . S
C544 C539 1.350 . S
C545 H532 0.929 . S
C545 C537 1.424 1_655 S
C545 N547 1.384 1_554 S
N546 C542 1.427 . S
N546 C543 1.384 . S
N547 C539 1.427 1_655 S
N547 C545 1.384 1_556 S
H548 C554 0.930 . S
H549 C558 0.930 . S
H550 C563 0.929 . S
H551 C561 0.929 . S
H552 C556 0.929 . S
H553 C562 0.929 . S
C554 H548 0.930 . S
C554 C555 1.323 1_655 S
C554 C562 1.378 . S
C555 C554 1.323 1_455 S
C555 C563 1.469 . S
C556 H552 0.929 . S
C556 C558 1.378 . S
C556 C560 1.350 1_455 S
C557 C560 1.463 . S
C557 C562 1.350 . S
C557 N565 1.427 1_655 S
C558 H549 0.930 . S
C558 C556 1.378 . S
C558 C559 1.367 1_455 S
C559 C558 1.367 1_655 S
C559 C561 1.433 . S
C560 C556 1.350 1_655 S
C560 C557 1.463 . S
C560 N564 1.427 . S
C561 H551 0.929 . S
C561 C559 1.433 . S
C561 N564 1.384 . S
C562 H553 0.929 . S
C562 C554 1.378 . S
C562 C557 1.350 . S
C563 H550 0.929 . S
C563 C555 1.469 . S
C563 N565 1.384 . S
N564 C560 1.427 . S
N564 C561 1.384 . S
N565 C557 1.427 1_455 S
N565 C563 1.384 . S
H566 C572 0.930 . S
H567 C576 0.930 . S
H568 C581 0.929 . S
H569 C579 0.929 . S
H570 C574 0.929 . S
H571 C580 0.929 . S
C572 H566 0.930 . S
C572 C573 1.367 . S
C572 C580 1.378 . S
C573 C572 1.367 . S
C573 C581 1.433 . S
C574 H570 0.929 . S
C574 C576 1.378 . S
C574 C578 1.350 . S
C575 C578 1.463 . S
C575 C580 1.350 . S
C575 N583 1.427 . S
C576 H567 0.930 . S
C576 C574 1.378 . S
C576 C577 1.367 . S
C577 C576 1.367 . S
C577 C579 1.433 . S
C578 C574 1.350 . S
C578 C575 1.463 . S
C578 N582 1.427 . S
C579 H569 0.929 . S
C579 C577 1.433 . S
C579 N582 1.384 . S
C580 H571 0.929 . S
C580 C572 1.378 . S
C580 C575 1.350 . S
C581 H568 0.929 . S
C581 C573 1.433 . S
C581 N583 1.384 . S
N582 C578 1.427 . S
N582 C579 1.384 . S
N583 C575 1.427 . S
N583 C581 1.384 . S
H584 C590 0.930 . S
H585 C594 0.930 . S
H586 C599 0.929 . S
H587 C597 0.929 . S
H588 C592 0.929 . S
H589 C598 0.929 . S
C590 H584 0.930 . S
C590 C591 1.367 . S
C590 C598 1.378 . S
C591 C590 1.367 . S
C591 C599 1.433 . S
C592 H588 0.929 . S
C592 C594 1.378 . S
C592 C596 1.350 . S
C593 C596 1.463 . S
C593 C598 1.350 . S
C593 N601 1.427 . S
C594 H585 0.930 . S
C594 C592 1.378 . S
C594 C595 1.367 . S
C595 C594 1.367 . S
C595 C597 1.433 . S
C596 C592 1.350 . S
C596 C593 1.463 . S
C596 N600 1.427 . S
C597 H587 0.929 . S
C597 C595 1.433 . S
C597 N600 1.384 . S
C598 H589 0.929 . S
C598 C590 1.378 . S
C598 C593 1.350 . S
C599 H586 0.929 . S
C599 C591 1.433 . S
C599 N601 1.384 . S
N600 C596 1.427 . S
N600 C597 1.384 . S
N601 C593 1.427 . S
N601 C599 1.384 . S
H602 C608 0.930 . S
H603 C612 0.930 . S
H604 C617 0.929 . S
H605 C615 0.929 . S
H606 C610 0.929 . S
H607 C616 0.929 . S
C608 H602 0.930 . S
C608 C609 1.367 . S
C608 C616 1.378 . S
C609 C608 1.367 . S
C609 C617 1.433 . S
C610 H606 0.929 . S
C610 C612 1.378 . S
C610 C614 1.350 . S
C611 C614 1.463 . S
C611 C616 1.350 . S
C611 N619 1.427 . S
C612 H603 0.930 . S
C612 C610 1.378 . S
C612 C613 1.367 . S
C613 C612 1.367 . S
C613 C615 1.433 . S
C614 C610 1.350 . S
C614 C611 1.463 . S
C614 N618 1.427 . S
C615 H605 0.929 . S
C615 C613 1.433 . S
C615 N618 1.384 . S
C616 H607 0.929 . S
C616 C608 1.378 . S
C616 C611 1.350 . S
C617 H604 0.929 . S
C617 C609 1.433 . S
C617 N619 1.384 . S
N618 C614 1.427 . S
N618 C615 1.384 . S
N619 C611 1.427 . S
N619 C617 1.384 . S
H620 C626 0.930 . S
H621 C630 0.930 . S
H622 C635 0.929 . S
H623 C633 0.929 . S
H624 C628 0.929 . S
H625 C634 0.929 . S
C626 H620 0.930 . S
C626 C627 1.345 1_455 S
C626 C634 1.378 . S
C627 C626 1.345 1_655 S
C627 C635 1.453 . S
C628 H624 0.929 . S
C628 C630 1.378 . S
C628 C632 1.350 1_655 S
C629 C632 1.463 . S
C629 C634 1.350 . S
C629 N637 1.427 1_455 S
C630 H621 0.930 . S
C630 C628 1.378 . S
C630 C631 1.367 1_655 S
C631 C630 1.367 1_455 S
C631 C633 1.433 . S
C632 C628 1.350 1_455 S
C632 C629 1.463 . S
C632 N636 1.427 . S
C633 H623 0.929 . S
C633 C631 1.433 . S
C633 N636 1.384 . S
C634 H625 0.929 . S
C634 C626 1.378 . S
C634 C629 1.350 . S
C635 H622 0.929 . S
C635 C627 1.453 . S
C635 N637 1.384 . S
N636 C632 1.427 . S
N636 C633 1.384 . S
N637 C629 1.427 1_655 S
N637 C635 1.384 . S
H638 C644 0.930 . S
H639 C648 0.930 . S
H640 C653 0.929 . S
H641 C651 0.929 . S
H642 C646 0.929 . S
H643 C652 0.929 . S
C644 H638 0.930 . S
C644 C645 1.367 . S
C644 C652 1.378 . S
C645 C644 1.367 . S
C645 C653 1.433 . S
C646 H642 0.929 . S
C646 C648 1.378 . S
C646 C650 1.350 . S
C647 C650 1.463 . S
C647 C652 1.350 . S
C647 N655 1.427 . S
C648 H639 0.930 . S
C648 C646 1.378 . S
C648 C649 1.367 . S
C649 C648 1.367 . S
C649 C651 1.433 . S
C650 C646 1.350 . S
C650 C647 1.463 . S
C650 N654 1.427 . S
C651 H641 0.929 . S
C651 C649 1.433 . S
C651 N654 1.384 . S
C652 H643 0.929 . S
C652 C644 1.378 . S
C652 C647 1.350 . S
C653 H640 0.929 . S
C653 C645 1.433 . S
C653 N655 1.384 . S
N654 C650 1.427 . S
N654 C651 1.384 . S
N655 C647 1.427 . S
N655 C653 1.384 . S
H656 C662 0.930 . S
H657 C666 0.930 . S
H658 C671 0.929 . S
H659 C669 0.929 . S
H660 C664 0.929 . S
H661 C670 0.929 . S
C662 H656 0.930 . S
C662 C663 1.367 . S
C662 C670 1.378 . S
C663 C662 1.367 . S
C663 C671 1.433 . S
C664 H660 0.929 . S
C664 C666 1.378 . S
C664 C668 1.350 . S
C665 C668 1.463 . S
C665 C670 1.350 . S
C665 N673 1.427 . S
C666 H657 0.930 . S
C666 C664 1.378 . S
C666 C667 1.367 . S
C667 C666 1.367 . S
C667 C669 1.433 . S
C668 C664 1.350 . S
C668 C665 1.463 . S
C668 N672 1.427 . S
C669 H659 0.929 . S
C669 C667 1.433 . S
C669 N672 1.384 . S
C670 H661 0.929 . S
C670 C662 1.378 . S
C670 C665 1.350 . S
C671 H658 0.929 . S
C671 C663 1.433 . S
C671 N673 1.384 . S
N672 C668 1.427 . S
N672 C669 1.384 . S
N673 C665 1.427 . S
N673 C671 1.384 . S
H674 C680 0.930 . S
H675 C684 0.930 . S
H676 C689 0.929 . S
H677 C687 0.929 . S
H678 C682 0.929 . S
H679 C688 0.929 . S
C680 H674 0.930 . S
C680 C681 1.367 . S
C680 C688 1.378 . S
C681 C680 1.367 . S
C681 C689 1.433 . S
C682 H678 0.929 . S
C682 C684 1.378 . S
C682 C686 1.350 . S
C683 C686 1.463 . S
C683 C688 1.350 . S
C683 N691 1.427 . S
C684 H675 0.930 . S
C684 C682 1.378 . S
C684 C685 1.367 . S
C685 C684 1.367 . S
C685 C687 1.433 . S
C686 C682 1.350 . S
C686 C683 1.463 . S
C686 N690 1.427 . S
C687 H677 0.929 . S
C687 C685 1.433 . S
C687 N690 1.384 . S
C688 H679 0.929 . S
C688 C680 1.378 . S
C688 C683 1.350 . S
C689 H676 0.929 . S
C689 C681 1.433 . S
C689 N691 1.384 . S
N690 C686 1.427 . S
N690 C687 1.384 . S
N691 C683 1.427 . S
N691 C689 1.384 . S
H692 C698 0.930 . S
H693 C702 0.930 . S
H694 C707 0.929 . S
H695 C705 0.929 . S
H696 C700 0.929 . S
H697 C706 0.929 1_554 S
C698 H692 0.930 . S
C698 C699 1.367 1_654 S
C698 C706 1.378 1_554 S
C699 C698 1.367 1_456 S
C699 C707 1.433 . S
C700 H696 0.929 . S
C700 C702 1.378 . S
C700 C704 1.350 . S
C701 C704 1.463 . S
C701 C706 1.350 1_455 S
C701 N709 1.427 . S
C702 H693 0.930 . S
C702 C700 1.378 . S
C702 C703 1.367 . S
C703 C702 1.367 . S
C703 C705 1.433 1_455 S
C704 C700 1.350 . S
C704 C701 1.463 . S
C704 N708 1.427 1_455 S
C705 H695 0.929 . S
C705 C703 1.433 1_655 S
C705 N708 1.384 . S
C706 H697 0.929 1_556 S
C706 C698 1.378 1_556 S
C706 C701 1.350 1_655 S
C707 H694 0.929 . S
C707 C699 1.433 . S
C707 N709 1.384 . S
N708 C704 1.427 1_655 S
N708 C705 1.384 . S
N709 C701 1.427 . S
N709 C707 1.384 . S
H710 C716 0.930 . S
H711 C720 0.930 . S
H712 C725 0.929 . S
H713 C723 0.929 . S
H714 C718 0.929 . S
H715 C724 0.929 . S
C716 H710 0.930 . S
C716 C717 1.367 . S
C716 C724 1.378 . S
C717 C716 1.367 . S
C717 C725 1.433 1_556 S
C718 H714 0.929 . S
C718 C720 1.378 . S
C718 C722 1.350 . S
C719 C722 1.463 . S
C719 C724 1.350 . S
C719 N727 1.427 . S
C720 H711 0.930 . S
C720 C718 1.378 . S
C720 C721 1.367 . S
C721 C720 1.367 . S
C721 C723 1.433 . S
C722 C718 1.350 . S
C722 C719 1.463 . S
C722 N726 1.427 . S
C723 H713 0.929 . S
C723 C721 1.433 . S
C723 N726 1.384 . S
C724 H715 0.929 . S
C724 C716 1.378 . S
C724 C719 1.350 . S
C725 H712 0.929 . S
C725 C717 1.433 1_554 S
C725 N727 1.384 1_554 S
N726 C722 1.427 . S
N726 C723 1.384 . S
N727 C719 1.427 . S
N727 C725 1.384 1_556 S
H728 C734 0.930 . S
H729 C738 0.930 . S
H730 C743 0.929 . S
H731 C741 0.929 . S
H732 C736 0.929 . S
H733 C742 0.929 . S
C734 H728 0.930 . S
C734 C735 1.367 . S
C734 C742 1.378 . S
C735 C734 1.367 . S
C735 C743 1.433 1_556 S
C736 H732 0.929 . S
C736 C738 1.378 . S
C736 C740 1.350 . S
C737 C740 1.463 . S
C737 C742 1.350 . S
C737 N745 1.427 . S
C738 H729 0.930 . S
C738 C736 1.378 . S
C738 C739 1.367 . S
C739 C738 1.367 . S
C739 C741 1.433 . S
C740 C736 1.350 . S
C740 C737 1.463 . S
C740 N744 1.427 . S
C741 H731 0.929 . S
C741 C739 1.433 . S
C741 N744 1.384 . S
C742 H733 0.929 . S
C742 C734 1.378 . S
C742 C737 1.350 . S
C743 H730 0.929 . S
C743 C735 1.433 1_554 S
C743 N745 1.384 1_554 S
N744 C740 1.427 . S
N744 C741 1.384 . S
N745 C737 1.427 . S
N745 C743 1.384 1_556 S
H746 C752 0.930 . S
H747 C756 0.930 . S
H748 C761 0.929 . S
H749 C759 0.929 . S
H750 C754 0.929 . S
H751 C760 0.929 1_554 S
C752 H746 0.930 . S
C752 C753 1.367 1_554 S
C752 C760 1.378 1_554 S
C753 C752 1.367 1_556 S
C753 C761 1.433 . S
C754 H750 0.929 . S
C754 C756 1.378 . S
C754 C758 1.350 . S
C755 C758 1.463 . S
C755 C760 1.350 . S
C755 N763 1.427 . S
C756 H747 0.930 . S
C756 C754 1.378 . S
C756 C757 1.367 . S
C757 C756 1.367 . S
C757 C759 1.433 . S
C758 C754 1.350 . S
C758 C755 1.463 . S
C758 N762 1.427 . S
C759 H749 0.929 . S
C759 C757 1.433 . S
C759 N762 1.384 . S
C760 H751 0.929 1_556 S
C760 C752 1.378 1_556 S
C760 C755 1.350 . S
C761 H748 0.929 . S
C761 C753 1.433 . S
C761 N763 1.384 . S
N762 C758 1.427 . S
N762 C759 1.384 . S
N763 C755 1.427 . S
N763 C761 1.384 . S
H764 C770 0.930 . S
H765 C774 0.930 . S
H766 C779 0.929 . S
H767 C777 0.929 . S
H768 C772 0.929 . S
H769 C778 0.929 . S
C770 H764 0.930 . S
C770 C771 1.367 . S
C770 C778 1.378 . S
C771 C770 1.367 . S
C771 C779 1.433 1_655 S
C772 H768 0.929 . S
C772 C774 1.378 . S
C772 C776 1.350 1_455 S
C773 C776 1.463 . S
C773 C778 1.350 . S
C773 N781 1.427 1_655 S
C774 H765 0.930 . S
C774 C772 1.378 . S
C774 C775 1.367 1_455 S
C775 C774 1.367 1_655 S
C775 C777 1.433 . S
C776 C772 1.350 1_655 S
C776 C773 1.463 . S
C776 N780 1.427 . S
C777 H767 0.929 . S
C777 C775 1.433 . S
C777 N780 1.384 . S
C778 H769 0.929 . S
C778 C770 1.378 . S
C778 C773 1.350 . S
C779 H766 0.929 . S
C779 C771 1.433 1_455 S
C779 N781 1.384 . S
N780 C776 1.427 . S
N780 C777 1.384 . S
N781 C773 1.427 1_455 S
N781 C779 1.384 . S
H782 C788 0.930 . S
H783 C792 0.930 . S
H784 C797 0.929 . S
H785 C795 0.929 . S
H786 C790 0.929 . S
H787 C796 0.929 . S
C788 H782 0.930 . S
C788 C789 1.367 . S
C788 C796 1.378 . S
C789 C788 1.367 . S
C789 C797 1.433 . S
C790 H786 0.929 . S
C790 C792 1.378 . S
C790 C794 1.350 . S
C791 C794 1.463 . S
C791 C796 1.350 . S
C791 N799 1.427 . S
C792 H783 0.930 . S
C792 C790 1.378 . S
C792 C793 1.367 . S
C793 C792 1.367 . S
C793 C795 1.433 . S
C794 C790 1.350 . S
C794 C791 1.463 . S
C794 N798 1.427 . S
C795 H785 0.929 . S
C795 C793 1.433 . S
C795 N798 1.384 . S
C796 H787 0.929 . S
C796 C788 1.378 . S
C796 C791 1.350 . S
C797 H784 0.929 . S
C797 C789 1.433 . S
C797 N799 1.384 . S
N798 C794 1.427 . S
N798 C795 1.384 . S
N799 C791 1.427 . S
N799 C797 1.384 . S
H800 C806 0.930 . S
H801 C810 0.930 . S
H802 C815 0.929 . S
H803 C813 0.929 . S
H804 C808 0.929 . S
H805 C814 0.929 . S
C806 H800 0.930 . S
C806 C807 1.367 . S
C806 C814 1.378 . S
C807 C806 1.367 . S
C807 C815 1.433 . S
C808 H804 0.929 . S
C808 C810 1.378 . S
C808 C812 1.350 . S
C809 C812 1.463 . S
C809 C814 1.350 . S
C809 N817 1.427 . S
C810 H801 0.930 . S
C810 C808 1.378 . S
C810 C811 1.367 . S
C811 C810 1.367 . S
C811 C813 1.433 . S
C812 C808 1.350 . S
C812 C809 1.463 . S
C812 N816 1.427 . S
C813 H803 0.929 . S
C813 C811 1.433 . S
C813 N816 1.384 . S
C814 H805 0.929 . S
C814 C806 1.378 . S
C814 C809 1.350 . S
C815 H802 0.929 . S
C815 C807 1.433 . S
C815 N817 1.384 . S
N816 C812 1.427 . S
N816 C813 1.384 . S
N817 C809 1.427 . S
N817 C815 1.384 . S
H818 C824 0.930 . S
H819 C828 0.930 . S
H820 C833 0.929 . S
H821 C831 0.929 . S
H822 C826 0.929 . S
H823 C832 0.929 . S
C824 H818 0.930 . S
C824 C825 1.367 . S
C824 C832 1.378 . S
C825 C824 1.367 . S
C825 C833 1.433 . S
C826 H822 0.929 . S
C826 C828 1.378 . S
C826 C830 1.350 . S
C827 C830 1.463 . S
C827 C832 1.350 . S
C827 N835 1.427 . S
C828 H819 0.930 . S
C828 C826 1.378 . S
C828 C829 1.367 . S
C829 C828 1.367 . S
C829 C831 1.433 . S
C830 C826 1.350 . S
C830 C827 1.463 . S
C830 N834 1.427 . S
C831 H821 0.929 . S
C831 C829 1.433 . S
C831 N834 1.384 . S
C832 H823 0.929 . S
C832 C824 1.378 . S
C832 C827 1.350 . S
C833 H820 0.929 . S
C833 C825 1.433 . S
C833 N835 1.384 . S
N834 C830 1.427 . S
N834 C831 1.384 . S
N835 C827 1.427 . S
N835 C833 1.384 . S
C411 C255 2.066 . S
C415 C335 2.021 . S
C433 C359 1.427 . S
C429 C295 1.619 . S
C451 C380 1.991 . S
C447 C175 2.045 . S
C469 C398 1.456 . S
C465 C215 1.631 1_655 S
C487 C338 1.914 1_565 S
C483 C95 1.953 1_556 S
C501 C135 1.505 . S
C505 C356 1.311 . S
C519 C15 1.928 1_556 S
C523 C377 1.885 . S
C537 C55 1.501 . S
C541 C401 1.338 . S
C559 C336 0.504 . S
C555 C221 0.474 . S
C577 C354 0.799 . S
C573 C261 0.802 . S
C595 C375 0.465 . S
C591 C301 0.423 . S
C609 C181 0.813 . S
C613 C399 0.809 . S
C627 C61 0.462 1_655 S
C631 C334 0.446 . S
C649 C358 0.869 1_565 S
C645 C101 0.808 . S
C667 C379 0.445 . S
C663 C141 0.453 . S
C681 C21 0.806 . S
C685 C397 0.865 . S
C699 C202 2.042 1_556 S
C703 C337 2.041 . S
C717 C242 2.356 1_556 S
C721 C355 2.334 . S
C739 C376 2.019 . S
C735 C282 2.027 1_556 S
C757 C400 2.357 . S
C753 C162 2.364 1_556 S
C771 C42 1.929 1_655 S
C775 C333 1.903 . S
C793 C357 2.183 . S
C789 C82 2.127 . S
C811 C378 1.861 . S
C807 C122 1.916 . S
C825 C2 2.130 . S
C829 C396 2.209 . S
