# Generated by pormake.
# Topology gar, (4,6)-cn, num edge types: 1
# Building blocks:
#     Node 0, Type 0, BuildingBlock: AZAVOO_clean_sbu_0, # of connection points: 4
#     Node 1, Type 0, BuildingBlock: AZAVOO_clean_sbu_0, # of connection points: 4
#     Node 2, Type 0, BuildingBlock: AZAVOO_clean_sbu_0, # of connection points: 4
#     Node 3, Type 0, BuildingBlock: AZAVOO_clean_sbu_0, # of connection points: 4
#     Node 4, Type 0, BuildingBlock: AZAVOO_clean_sbu_0, # of connection points: 4
#     Node 5, Type 0, BuildingBlock: AZAVOO_clean_sbu_0, # of connection points: 4
#     Node 6, Type 0, BuildingBlock: AZAVOO_clean_sbu_0, # of connection points: 4
#     Node 7, Type 0, BuildingBlock: AZAVOO_clean_sbu_0, # of connection points: 4
#     Node 8, Type 0, BuildingBlock: AZAVOO_clean_sbu_0, # of connection points: 4
#     Node 9, Type 0, BuildingBlock: AZAVOO_clean_sbu_0, # of connection points: 4
#     Node 10, Type 0, BuildingBlock: AZAVOO_clean_sbu_0, # of connection points: 4
#     Node 11, Type 0, BuildingBlock: AZAVOO_clean_sbu_0, # of connection points: 4
#     Node 12, Type 0, BuildingBlock: AZAVOO_clean_sbu_0, # of connection points: 4
#     Node 13, Type 0, BuildingBlock: AZAVOO_clean_sbu_0, # of connection points: 4
#     Node 14, Type 0, BuildingBlock: AZAVOO_clean_sbu_0, # of connection points: 4
#     Node 15, Type 0, BuildingBlock: AZAVOO_clean_sbu_0, # of connection points: 4
#     Node 16, Type 0, BuildingBlock: AZAVOO_clean_sbu_0, # of connection points: 4
#     Node 17, Type 0, BuildingBlock: AZAVOO_clean_sbu_0, # of connection points: 4
#     Node 18, Type 0, BuildingBlock: AZAVOO_clean_sbu_0, # of connection points: 4
#     Node 19, Type 0, BuildingBlock: AZAVOO_clean_sbu_0, # of connection points: 4
#     Node 20, Type 0, BuildingBlock: AZAVOO_clean_sbu_0, # of connection points: 4
#     Node 21, Type 0, BuildingBlock: AZAVOO_clean_sbu_0, # of connection points: 4
#     Node 22, Type 0, BuildingBlock: AZAVOO_clean_sbu_0, # of connection points: 4
#     Node 23, Type 0, BuildingBlock: AZAVOO_clean_sbu_0, # of connection points: 4
#     Node 24, Type 1, BuildingBlock: GEDQOX_clean_sbu_0, # of connection points: 6
#     Node 25, Type 1, BuildingBlock: GEDQOX_clean_sbu_0, # of connection points: 6
#     Node 26, Type 1, BuildingBlock: GEDQOX_clean_sbu_0, # of connection points: 6
#     Node 27, Type 1, BuildingBlock: GEDQOX_clean_sbu_0, # of connection points: 6
#     Node 28, Type 1, BuildingBlock: GEDQOX_clean_sbu_0, # of connection points: 6
#     Node 29, Type 1, BuildingBlock: GEDQOX_clean_sbu_0, # of connection points: 6
#     Node 30, Type 1, BuildingBlock: GEDQOX_clean_sbu_0, # of connection points: 6
#     Node 31, Type 1, BuildingBlock: GEDQOX_clean_sbu_0, # of connection points: 6
#     Node 32, Type 1, BuildingBlock: GEDQOX_clean_sbu_0, # of connection points: 6
#     Node 33, Type 1, BuildingBlock: GEDQOX_clean_sbu_0, # of connection points: 6
#     Node 34, Type 1, BuildingBlock: GEDQOX_clean_sbu_0, # of connection points: 6
#     Node 35, Type 1, BuildingBlock: GEDQOX_clean_sbu_0, # of connection points: 6
#     Node 36, Type 1, BuildingBlock: GEDQOX_clean_sbu_0, # of connection points: 6
#     Node 37, Type 1, BuildingBlock: GEDQOX_clean_sbu_0, # of connection points: 6
#     Node 38, Type 1, BuildingBlock: GEDQOX_clean_sbu_0, # of connection points: 6
#     Node 39, Type 1, BuildingBlock: GEDQOX_clean_sbu_0, # of connection points: 6
#     Edge 40, Type (0, 1), BuildingBlock: UVAHIK_clean_linker_0, # of connection points: 2
#     Edge 41, Type (0, 1), BuildingBlock: UVAHIK_clean_linker_0, # of connection points: 2
#     Edge 42, Type (0, 1), BuildingBlock: UVAHIK_clean_linker_0, # of connection points: 2
#     Edge 43, Type (0, 1), BuildingBlock: UVAHIK_clean_linker_0, # of connection points: 2
#     Edge 44, Type (0, 1), BuildingBlock: UVAHIK_clean_linker_0, # of connection points: 2
#     Edge 45, Type (0, 1), BuildingBlock: UVAHIK_clean_linker_0, # of connection points: 2
#     Edge 46, Type (0, 1), BuildingBlock: UVAHIK_clean_linker_0, # of connection points: 2
#     Edge 47, Type (0, 1), BuildingBlock: UVAHIK_clean_linker_0, # of connection points: 2
#     Edge 48, Type (0, 1), BuildingBlock: UVAHIK_clean_linker_0, # of connection points: 2
#     Edge 49, Type (0, 1), BuildingBlock: UVAHIK_clean_linker_0, # of connection points: 2
#     Edge 50, Type (0, 1), BuildingBlock: UVAHIK_clean_linker_0, # of connection points: 2
#     Edge 51, Type (0, 1), BuildingBlock: UVAHIK_clean_linker_0, # of connection points: 2
#     Edge 52, Type (0, 1), BuildingBlock: UVAHIK_clean_linker_0, # of connection points: 2
#     Edge 53, Type (0, 1), BuildingBlock: UVAHIK_clean_linker_0, # of connection points: 2
#     Edge 54, Type (0, 1), BuildingBlock: UVAHIK_clean_linker_0, # of connection points: 2
#     Edge 55, Type (0, 1), BuildingBlock: UVAHIK_clean_linker_0, # of connection points: 2
#     Edge 56, Type (0, 1), BuildingBlock: UVAHIK_clean_linker_0, # of connection points: 2
#     Edge 57, Type (0, 1), BuildingBlock: UVAHIK_clean_linker_0, # of connection points: 2
#     Edge 58, Type (0, 1), BuildingBlock: UVAHIK_clean_linker_0, # of connection points: 2
#     Edge 59, Type (0, 1), BuildingBlock: UVAHIK_clean_linker_0, # of connection points: 2
#     Edge 60, Type (0, 1), BuildingBlock: UVAHIK_clean_linker_0, # of connection points: 2
#     Edge 61, Type (0, 1), BuildingBlock: UVAHIK_clean_linker_0, # of connection points: 2
#     Edge 62, Type (0, 1), BuildingBlock: UVAHIK_clean_linker_0, # of connection points: 2
#     Edge 63, Type (0, 1), BuildingBlock: UVAHIK_clean_linker_0, # of connection points: 2
#     Edge 64, Type (0, 1), BuildingBlock: UVAHIK_clean_linker_0, # of connection points: 2
#     Edge 65, Type (0, 1), BuildingBlock: UVAHIK_clean_linker_0, # of connection points: 2
#     Edge 66, Type (0, 1), BuildingBlock: UVAHIK_clean_linker_0, # of connection points: 2
#     Edge 67, Type (0, 1), BuildingBlock: UVAHIK_clean_linker_0, # of connection points: 2
#     Edge 68, Type (0, 1), BuildingBlock: UVAHIK_clean_linker_0, # of connection points: 2
#     Edge 69, Type (0, 1), BuildingBlock: UVAHIK_clean_linker_0, # of connection points: 2
#     Edge 70, Type (0, 1), BuildingBlock: UVAHIK_clean_linker_0, # of connection points: 2
#     Edge 71, Type (0, 1), BuildingBlock: UVAHIK_clean_linker_0, # of connection points: 2
#     Edge 72, Type (0, 1), BuildingBlock: UVAHIK_clean_linker_0, # of connection points: 2
#     Edge 73, Type (0, 1), BuildingBlock: UVAHIK_clean_linker_0, # of connection points: 2
#     Edge 74, Type (0, 1), BuildingBlock: UVAHIK_clean_linker_0, # of connection points: 2
#     Edge 75, Type (0, 1), BuildingBlock: UVAHIK_clean_linker_0, # of connection points: 2
#     Edge 76, Type (0, 1), BuildingBlock: UVAHIK_clean_linker_0, # of connection points: 2
#     Edge 77, Type (0, 1), BuildingBlock: UVAHIK_clean_linker_0, # of connection points: 2
#     Edge 78, Type (0, 1), BuildingBlock: UVAHIK_clean_linker_0, # of connection points: 2
#     Edge 79, Type (0, 1), BuildingBlock: UVAHIK_clean_linker_0, # of connection points: 2
#     Edge 80, Type (0, 1), BuildingBlock: UVAHIK_clean_linker_0, # of connection points: 2
#     Edge 81, Type (0, 1), BuildingBlock: UVAHIK_clean_linker_0, # of connection points: 2
#     Edge 82, Type (0, 1), BuildingBlock: UVAHIK_clean_linker_0, # of connection points: 2
#     Edge 83, Type (0, 1), BuildingBlock: UVAHIK_clean_linker_0, # of connection points: 2
#     Edge 84, Type (0, 1), BuildingBlock: UVAHIK_clean_linker_0, # of connection points: 2
#     Edge 85, Type (0, 1), BuildingBlock: UVAHIK_clean_linker_0, # of connection points: 2
#     Edge 86, Type (0, 1), BuildingBlock: UVAHIK_clean_linker_0, # of connection points: 2
#     Edge 87, Type (0, 1), BuildingBlock: UVAHIK_clean_linker_0, # of connection points: 2
#     Edge 88, Type (0, 1), BuildingBlock: UVAHIK_clean_linker_0, # of connection points: 2
#     Edge 89, Type (0, 1), BuildingBlock: UVAHIK_clean_linker_0, # of connection points: 2
#     Edge 90, Type (0, 1), BuildingBlock: UVAHIK_clean_linker_0, # of connection points: 2
#     Edge 91, Type (0, 1), BuildingBlock: UVAHIK_clean_linker_0, # of connection points: 2
#     Edge 92, Type (0, 1), BuildingBlock: UVAHIK_clean_linker_0, # of connection points: 2
#     Edge 93, Type (0, 1), BuildingBlock: UVAHIK_clean_linker_0, # of connection points: 2
#     Edge 94, Type (0, 1), BuildingBlock: UVAHIK_clean_linker_0, # of connection points: 2
#     Edge 95, Type (0, 1), BuildingBlock: UVAHIK_clean_linker_0, # of connection points: 2
#     Edge 96, Type (0, 1), BuildingBlock: UVAHIK_clean_linker_0, # of connection points: 2
#     Edge 97, Type (0, 1), BuildingBlock: UVAHIK_clean_linker_0, # of connection points: 2
#     Edge 98, Type (0, 1), BuildingBlock: UVAHIK_clean_linker_0, # of connection points: 2
#     Edge 99, Type (0, 1), BuildingBlock: UVAHIK_clean_linker_0, # of connection points: 2
#     Edge 100, Type (0, 1), BuildingBlock: UVAHIK_clean_linker_0, # of connection points: 2
#     Edge 101, Type (0, 1), BuildingBlock: UVAHIK_clean_linker_0, # of connection points: 2
#     Edge 102, Type (0, 1), BuildingBlock: UVAHIK_clean_linker_0, # of connection points: 2
#     Edge 103, Type (0, 1), BuildingBlock: UVAHIK_clean_linker_0, # of connection points: 2
#     Edge 104, Type (0, 1), BuildingBlock: UVAHIK_clean_linker_0, # of connection points: 2
#     Edge 105, Type (0, 1), BuildingBlock: UVAHIK_clean_linker_0, # of connection points: 2
#     Edge 106, Type (0, 1), BuildingBlock: UVAHIK_clean_linker_0, # of connection points: 2
#     Edge 107, Type (0, 1), BuildingBlock: UVAHIK_clean_linker_0, # of connection points: 2
#     Edge 108, Type (0, 1), BuildingBlock: UVAHIK_clean_linker_0, # of connection points: 2
#     Edge 109, Type (0, 1), BuildingBlock: UVAHIK_clean_linker_0, # of connection points: 2
#     Edge 110, Type (0, 1), BuildingBlock: UVAHIK_clean_linker_0, # of connection points: 2
#     Edge 111, Type (0, 1), BuildingBlock: UVAHIK_clean_linker_0, # of connection points: 2
#     Edge 112, Type (0, 1), BuildingBlock: UVAHIK_clean_linker_0, # of connection points: 2
#     Edge 113, Type (0, 1), BuildingBlock: UVAHIK_clean_linker_0, # of connection points: 2
#     Edge 114, Type (0, 1), BuildingBlock: UVAHIK_clean_linker_0, # of connection points: 2
#     Edge 115, Type (0, 1), BuildingBlock: UVAHIK_clean_linker_0, # of connection points: 2
#     Edge 116, Type (0, 1), BuildingBlock: UVAHIK_clean_linker_0, # of connection points: 2
#     Edge 117, Type (0, 1), BuildingBlock: UVAHIK_clean_linker_0, # of connection points: 2
#     Edge 118, Type (0, 1), BuildingBlock: UVAHIK_clean_linker_0, # of connection points: 2
#     Edge 119, Type (0, 1), BuildingBlock: UVAHIK_clean_linker_0, # of connection points: 2
#     Edge 120, Type (0, 1), BuildingBlock: UVAHIK_clean_linker_0, # of connection points: 2
#     Edge 121, Type (0, 1), BuildingBlock: UVAHIK_clean_linker_0, # of connection points: 2
#     Edge 122, Type (0, 1), BuildingBlock: UVAHIK_clean_linker_0, # of connection points: 2
#     Edge 123, Type (0, 1), BuildingBlock: UVAHIK_clean_linker_0, # of connection points: 2
#     Edge 124, Type (0, 1), BuildingBlock: UVAHIK_clean_linker_0, # of connection points: 2
#     Edge 125, Type (0, 1), BuildingBlock: UVAHIK_clean_linker_0, # of connection points: 2
#     Edge 126, Type (0, 1), BuildingBlock: UVAHIK_clean_linker_0, # of connection points: 2
#     Edge 127, Type (0, 1), BuildingBlock: UVAHIK_clean_linker_0, # of connection points: 2
#     Edge 128, Type (0, 1), BuildingBlock: UVAHIK_clean_linker_0, # of connection points: 2
#     Edge 129, Type (0, 1), BuildingBlock: UVAHIK_clean_linker_0, # of connection points: 2
#     Edge 130, Type (0, 1), BuildingBlock: UVAHIK_clean_linker_0, # of connection points: 2
#     Edge 131, Type (0, 1), BuildingBlock: UVAHIK_clean_linker_0, # of connection points: 2
#     Edge 132, Type (0, 1), BuildingBlock: UVAHIK_clean_linker_0, # of connection points: 2
#     Edge 133, Type (0, 1), BuildingBlock: UVAHIK_clean_linker_0, # of connection points: 2
#     Edge 134, Type (0, 1), BuildingBlock: UVAHIK_clean_linker_0, # of connection points: 2
#     Edge 135, Type (0, 1), BuildingBlock: UVAHIK_clean_linker_0, # of connection points: 2
# Relax obj value: 0.250
# Max RMSD: 0.385
# Mean RMSD: 0.202
data_MOF--net-gar--node1-AZAVOO_clean_sbu_0--node2-GEDQOX_clean_sbu_0--edge1-UVAHIK_clean_linker_0
_symmetry_space_group_name_H-M    P1
_symmetry_Int_Tables_number       1
_symmetry_cell_setting            triclinic
loop_
_symmetry_equiv_pos_as_xyz
'x, y, z'
_cell_length_a     77.876134
_cell_length_b     73.062162
_cell_length_c     69.025656
_cell_angle_alpha  99.378242
_cell_angle_beta   96.670632
_cell_angle_gamma 101.34446
loop_
_atom_site_label
_atom_site_type_symbol
_atom_site_fract_x
_atom_site_fract_y
_atom_site_fract_z
_atom_type_partial_charge
Mg0 Mg 0.07414 0.33215 0.44345 0.0
O1 O 0.07798 0.36244 0.46224 0.0
O2 O 0.05231 0.36217 0.47411 0.0
Mg3 Mg 0.0324 0.33432 0.46233 0.0
C4 C 0.06808 0.37041 0.47285 0.0
C5 C 0.10603 0.31906 0.43313 0.0
O6 O 0.09407 0.30384 0.43384 0.0
O7 O 0.0769 0.3196 0.47165 0.0
O8 O 0.05045 0.32052 0.48101 0.0
O9 O 0.0635 0.34178 0.41651 0.0
O10 O 0.04709 0.33009 0.43752 0.0
C11 C 0.06563 0.31635 0.48342 0.0
C12 C 0.04808 0.33753 0.42191 0.0
O13 O 0.10312 0.33522 0.43996 0.0
Mg14 Mg 0.99797 0.82012 0.67762 0.0
O15 O 1.00032 0.78955 0.66637 0.0
O16 O 0.97266 0.77185 0.6584 0.0
Mg17 Mg 0.95299 0.79041 0.6662 0.0
C18 C 0.98943 0.77366 0.65943 0.0
C19 C 0.04112 0.82954 0.67448 0.0
O20 O 0.0536 0.83844 0.66594 0.0
O21 O 0.98762 0.82121 0.64621 0.0
O22 O 0.95942 0.80491 0.63959 0.0
O23 O 0.99934 0.81618 0.7093 0.0
O24 O 0.97466 0.80993 0.68792 0.0
C25 C 0.97292 0.81507 0.63466 0.0
C26 C 0.98232 0.80991 0.70547 0.0
O27 O 0.02553 0.83225 0.67085 0.0
Mg28 Mg 0.57018 0.82513 0.92899 0.0
O29 O 0.56363 0.85308 0.94734 0.0
O30 O 0.53492 0.84715 0.95156 0.0
Mg31 Mg 0.52247 0.81724 0.93567 0.0
C32 C 0.55027 0.85817 0.95442 0.0
C33 C 0.59591 0.86608 0.93587 0.0
O34 O 0.60331 0.88348 0.94519 0.0
O35 O 0.56972 0.81446 0.95841 0.0
O36 O 0.54055 0.80877 0.95954 0.0
O37 O 0.56151 0.83259 0.89854 0.0
O38 O 0.54322 0.82208 0.91739 0.0
C39 C 0.55638 0.80863 0.96672 0.0
C40 C 0.54544 0.82814 0.90146 0.0
O41 O 0.58235 0.85681 0.94169 0.0
Mg42 Mg 0.50208 0.27895 0.17709 0.0
O43 O 0.48015 0.25787 0.15307 0.0
O44 O 0.4538 0.26573 0.14678 0.0
Mg45 Mg 0.45883 0.29394 0.16871 0.0
C46 C 0.4643 0.2546 0.14357 0.0
C47 C 0.50406 0.23604 0.15768 0.0
O48 O 0.4976 0.21928 0.14625 0.0
O49 O 0.50509 0.29595 0.15259 0.0
O50 O 0.48006 0.3067 0.15079 0.0
O51 O 0.49215 0.26592 0.20295 0.0
O52 O 0.4783 0.28333 0.18726 0.0
C53 C 0.49527 0.30619 0.14567 0.0
C54 C 0.47898 0.27396 0.20125 0.0
O55 O 0.49509 0.24892 0.15743 0.0
Mg56 Mg 0.01743 0.80446 0.23214 0.0
O57 O 0.01281 0.77496 0.21134 0.0
O58 O 0.98839 0.77148 0.18938 0.0
Mg59 Mg 0.97557 0.79684 0.19706 0.0
C60 C 1.00179 0.7655 0.19614 0.0
C61 C 0.06028 0.81654 0.24727 0.0
O62 O 0.05749 0.83348 0.2459 0.0
O63 O 0.02533 0.82017 0.20641 0.0
O64 O 0.99889 0.81546 0.18736 0.0
O65 O 0.99898 0.79288 0.25363 0.0
O66 O 0.98961 0.80383 0.22781 0.0
C67 C 0.01552 0.82264 0.19118 0.0
C68 C 0.98584 0.79672 0.24297 0.0
O69 O 0.04701 0.80233 0.24285 0.0
Mg70 Mg 0.52568 0.80636 0.37321 0.0
O71 O 0.52668 0.83338 0.39709 0.0
O72 O 0.50196 0.82691 0.41067 0.0
Mg73 Mg 0.48525 0.7973 0.39693 0.0
C74 C 0.51647 0.83809 0.40944 0.0
C75 C 0.56152 0.81285 0.35335 0.0
O76 O 0.54956 0.80634 0.33737 0.0
O77 O 0.53296 0.79008 0.39829 0.0
O78 O 0.50748 0.78479 0.4105 0.0
O79 O 0.50797 0.81743 0.3503 0.0
O80 O 0.49744 0.79931 0.37026 0.0
C81 C 0.52347 0.78305 0.41041 0.0
C82 C 0.49425 0.80885 0.35679 0.0
O83 O 0.55615 0.8155 0.37022 0.0
Mg84 Mg 0.51693 0.30278 0.73294 0.0
O85 O 0.51247 0.27352 0.71172 0.0
O86 O 0.48801 0.27017 0.68985 0.0
Mg87 Mg 0.47504 0.29534 0.69797 0.0
C88 C 0.50147 0.2642 0.69644 0.0
C89 C 0.55972 0.31513 0.74823 0.0
O90 O 0.55672 0.33206 0.74728 0.0
O91 O 0.52476 0.3189 0.7075 0.0
O92 O 0.49831 0.31426 0.68848 0.0
O93 O 0.49857 0.29067 0.75423 0.0
O94 O 0.48907 0.30197 0.7287 0.0
C95 C 0.51493 0.32149 0.69235 0.0
C96 C 0.48536 0.29455 0.74371 0.0
O97 O 0.54658 0.30079 0.7435 0.0
Mg98 Mg 0.02564 0.30757 0.87283 0.0
O99 O 0.02679 0.33465 0.89678 0.0
O100 O 1.00195 0.32841 0.91019 0.0
Mg101 Mg 0.98515 0.29888 0.89652 0.0
C102 C 0.01655 0.33947 0.90906 0.0
C103 C 0.06155 0.31291 0.85311 0.0
O104 O 0.04965 0.30559 0.83721 0.0
O105 O 0.03276 0.29116 0.89782 0.0
O106 O 1.00736 0.28651 0.91032 0.0
O107 O 1.00806 0.31882 0.84997 0.0
O108 O 0.99742 0.3007 0.86989 0.0
C109 C 0.02328 0.28454 0.91016 0.0
C110 C 0.99431 0.31029 0.85645 0.0
O111 O 0.05612 0.31647 0.86985 0.0
Mg112 Mg 0.44931 0.12891 0.31725 0.0
O113 O 0.42594 0.10449 0.31889 0.0
O114 O 0.41686 0.11218 0.34815 0.0
Mg115 Mg 0.43354 0.1409 0.36474 0.0
C116 C 0.41567 0.10085 0.33163 0.0
C117 C 0.4487 0.10069 0.27678 0.0
O118 O 0.44682 0.08805 0.28834 0.0
O119 O 0.42964 0.14771 0.31043 0.0
O120 O 0.42157 0.1547 0.34027 0.0
O121 O 0.4679 0.11416 0.33267 0.0
O122 O 0.45499 0.13512 0.34844 0.0
C123 C 0.42075 0.15617 0.322 0.0
C124 C 0.46464 0.12276 0.34933 0.0
O125 O 0.44919 0.118 0.28404 0.0
Mg126 Mg 0.26744 0.11867 0.47198 0.0
O127 O 0.27483 0.13992 0.50153 0.0
O128 O 0.30387 0.15273 0.50613 0.0
Mg129 Mg 0.31482 0.14017 0.4789 0.0
C130 C 0.28873 0.1511 0.51188 0.0
C131 C 0.2288 0.10063 0.47339 0.0
O132 O 0.23614 0.08587 0.47072 0.0
O133 O 0.26897 0.14342 0.45577 0.0
O134 O 0.2981 0.15555 0.45979 0.0
O135 O 0.27364 0.09605 0.48751 0.0
O136 O 0.29334 0.11451 0.47444 0.0
C137 C 0.28214 0.15559 0.4529 0.0
C138 C 0.28994 0.10166 0.48511 0.0
O139 O 0.23823 0.11706 0.47394 0.0
Mg140 Mg 0.1567 0.03339 0.81974 0.0
O141 O 0.1761 0.0631 0.82198 0.0
O142 O 0.19497 0.06854 0.84999 0.0
Mg143 Mg 0.18607 0.0433 0.86636 0.0
C144 C 0.18935 0.07375 0.83407 0.0
C145 C 0.13398 0.02281 0.77613 0.0
O146 O 0.12447 0.01065 0.78492 0.0
O147 O 0.17762 0.01406 0.81354 0.0
O148 O 0.19293 0.01891 0.84397 0.0
O149 O 0.13766 0.04788 0.83609 0.0
O150 O 0.15759 0.03593 0.85175 0.0
C151 C 0.18924 0.00986 0.82592 0.0
C152 C 0.14454 0.0444 0.85271 0.0
O153 O 0.14825 0.03364 0.78606 0.0
Mg154 Mg 0.22737 0.91462 0.05886 0.0
O155 O 0.22377 0.89256 0.02864 0.0
O156 O 0.24879 0.88164 0.03066 0.0
Mg157 Mg 0.26797 0.89592 0.05891 0.0
C158 C 0.23371 0.8819 0.02136 0.0
C159 C 0.20029 0.93731 0.06438 0.0
O160 O 0.21633 0.94736 0.07172 0.0
O161 O 0.22317 0.89146 0.07847 0.0
O162 O 0.24909 0.8826 0.07835 0.0
O163 O 0.24036 0.93737 0.04387 0.0
O164 O 0.25475 0.91968 0.05962 0.0
C165 C 0.23406 0.88164 0.08426 0.0
C166 C 0.25514 0.93269 0.04908 0.0
O167 O 0.19868 0.9198 0.05665 0.0
Mg168 Mg 0.3172 0.50288 0.14278 0.0
O169 O 0.31715 0.48248 0.11366 0.0
O170 O 0.34332 0.47413 0.11472 0.0
Mg171 Mg 0.35898 0.48688 0.14552 0.0
C172 C 0.3279 0.47356 0.10569 0.0
C173 C 0.28394 0.51801 0.13782 0.0
O174 O 0.29602 0.53236 0.1485 0.0
O175 O 0.31138 0.47722 0.15789 0.0
O176 O 0.33721 0.46813 0.15778 0.0
O177 O 0.33051 0.52667 0.1297 0.0
O178 O 0.34478 0.51 0.14732 0.0
C179 C 0.32132 0.4658 0.16151 0.0
C180 C 0.34527 0.52249 0.1361 0.0
O181 O 0.28808 0.50204 0.13336 0.0
Mg182 Mg 0.838 0.19278 0.0419 0.0
O183 O 0.83702 0.2121 0.07152 0.0
O184 O 0.86064 0.23593 0.07846 0.0
Mg185 Mg 0.87687 0.23022 0.05276 0.0
C186 C 0.84607 0.22735 0.08276 0.0
C187 C 0.79809 0.17184 0.02656 0.0
O188 O 0.80328 0.17138 0.00908 0.0
O189 O 0.83084 0.21432 0.02361 0.0
O190 O 0.85584 0.23663 0.02897 0.0
O191 O 0.8523 0.1749 0.05753 0.0
O192 O 0.8663 0.19833 0.0447 0.0
C193 C 0.83991 0.22968 0.02017 0.0
C194 C 0.86709 0.18421 0.05376 0.0
O195 O 0.80909 0.17985 0.04211 0.0
Mg196 Mg 0.1189 0.49137 0.31697 0.0
O197 O 0.14041 0.51839 0.31962 0.0
O198 O 0.15594 0.52564 0.35017 0.0
Mg199 Mg 0.14422 0.50325 0.36748 0.0
C200 C 0.15287 0.52902 0.33268 0.0
C201 C 0.09772 0.49109 0.27624 0.0
O202 O 0.08581 0.49078 0.28826 0.0
O203 O 0.14001 0.47287 0.31503 0.0
O204 O 0.15325 0.48049 0.34668 0.0
O205 O 0.10039 0.50894 0.32915 0.0
O206 O 0.11866 0.49718 0.34783 0.0
C207 C 0.15146 0.47093 0.32906 0.0
C208 C 0.10702 0.50741 0.34673 0.0
O209 O 0.11341 0.49033 0.28316 0.0
Mg210 Mg 0.81609 0.99972 0.64577 0.0
O211 O 0.81426 0.97718 0.61779 0.0
O212 O 0.83902 0.966 0.61963 0.0
Mg213 Mg 0.85583 0.98001 0.64958 0.0
C214 C 0.82391 0.96638 0.61049 0.0
C215 C 0.78419 0.01723 0.63975 0.0
O216 O 0.79701 0.03153 0.64916 0.0
O217 O 0.80889 0.976 0.66316 0.0
O218 O 0.83364 0.96472 0.66424 0.0
O219 O 0.83049 0.02123 0.63071 0.0
O220 O 0.84365 1.00462 0.64953 0.0
C221 C 0.81793 0.96423 0.66817 0.0
C222 C 0.84478 0.01624 0.63732 0.0
O223 O 0.78736 1.00068 0.6366 0.0
Mg224 Mg 0.89925 0.07774 0.29097 0.0
O225 O 0.87834 0.04796 0.28824 0.0
O226 O 0.8656 0.05155 0.31566 0.0
Mg227 Mg 0.87839 0.08041 0.33642 0.0
C228 C 0.86732 0.04139 0.29937 0.0
C229 C 0.91838 0.08451 0.25325 0.0
O230 O 0.92464 0.10049 0.26611 0.0
O231 O 0.87825 0.09763 0.28595 0.0
O232 O 0.86944 0.09982 0.31571 0.0
O233 O 0.9201 0.06564 0.30755 0.0
O234 O 0.90254 0.08096 0.32273 0.0
C235 C 0.86971 0.10515 0.29896 0.0
C236 C 0.91503 0.07185 0.32406 0.0
O237 O 0.90625 0.07204 0.25788 0.0
Mg238 Mg 0.33629 0.68906 0.53866 0.0
O239 O 0.3351 0.7079 0.56856 0.0
O240 O 0.35892 0.73156 0.57611 0.0
Mg241 Mg 0.37552 0.72634 0.55072 0.0
C242 C 0.34421 0.72298 0.58009 0.0
C243 C 0.29556 0.68516 0.54178 0.0
O244 O 0.30025 0.70377 0.54686 0.0
O245 O 0.32974 0.7112 0.52101 0.0
O246 O 0.35484 0.73342 0.52703 0.0
O247 O 0.3501 0.67061 0.55397 0.0
O248 O 0.36453 0.69461 0.5423 0.0
C249 C 0.33894 0.72668 0.51803 0.0
C250 C 0.36507 0.68021 0.55097 0.0
O251 O 0.3071 0.67575 0.53729 0.0
Mg252 Mg 0.39824 0.57434 0.79117 0.0
O253 O 0.3776 0.54437 0.78841 0.0
O254 O 0.36486 0.54778 0.81585 0.0
Mg255 Mg 0.37744 0.57664 0.83667 0.0
C256 C 0.36662 0.53769 0.79953 0.0
C257 C 0.41736 0.58161 0.75354 0.0
O258 O 0.42328 0.59764 0.76639 0.0
O259 O 0.37681 0.59377 0.78612 0.0
O260 O 0.36812 0.59582 0.81594 0.0
O261 O 0.41937 0.56259 0.80778 0.0
O262 O 0.40156 0.57756 0.82292 0.0
C263 C 0.36821 0.60112 0.79917 0.0
C264 C 0.41423 0.5687 0.82428 0.0
O265 O 0.40541 0.56889 0.75811 0.0
Mg266 Mg 0.61862 0.99254 0.81478 0.0
O267 O 0.6394 0.01997 0.81639 0.0
O268 O 0.65433 0.02934 0.8472 0.0
Mg269 Mg 0.64316 0.00784 0.86564 0.0
C270 C 0.65138 0.03157 0.82925 0.0
C271 C 0.59754 0.98917 0.77339 0.0
O272 O 0.58545 0.98818 0.78518 0.0
O273 O 0.64054 0.97509 0.81493 0.0
O274 O 0.65367 0.98513 0.84656 0.0
O275 O 0.59916 0.00962 0.82511 0.0
O276 O 0.61781 0.99975 0.84535 0.0
C277 C 0.65228 0.97472 0.82945 0.0
C278 C 0.60568 0.00924 0.8431 0.0
O279 O 0.61348 0.9898 0.78073 0.0
Mg280 Mg 0.76936 0.61435 0.97772 0.0
O281 O 0.77653 0.63484 0.00777 0.0
O282 O 0.80566 0.64734 0.01308 0.0
Mg283 Mg 0.81691 0.63532 0.98586 0.0
C284 C 0.79039 0.64572 0.01852 0.0
C285 C 0.7304 0.59693 0.97898 0.0
O286 O 0.73747 0.58194 0.97712 0.0
O287 O 0.77161 0.63985 0.96269 0.0
O288 O 0.80082 0.65178 0.96744 0.0
O289 O 0.77493 0.59103 0.99249 0.0
O290 O 0.79511 0.60987 0.98037 0.0
C291 C 0.78496 0.65218 0.96052 0.0
C292 C 0.79136 0.59667 0.99055 0.0
O293 O 0.74014 0.61311 0.97914 0.0
Mg294 Mg 0.94508 0.63141 0.8221 0.0
O295 O 0.92104 0.60749 0.8228 0.0
O296 O 0.91129 0.61498 0.85168 0.0
Mg297 Mg 0.92831 0.64322 0.86911 0.0
C298 C 0.9103 0.60386 0.83507 0.0
C299 C 0.96008 0.615 0.78582 0.0
O300 O 0.97263 0.61722 0.80101 0.0
O301 O 0.92633 0.65123 0.81489 0.0
O302 O 0.91808 0.65808 0.84466 0.0
O303 O 0.96255 0.61581 0.83804 0.0
O304 O 0.95012 0.63728 0.85356 0.0
C305 C 0.91771 0.66004 0.82656 0.0
C306 C 0.9593 0.62451 0.85459 0.0
O307 O 0.94568 0.61989 0.78901 0.0
Mg308 Mg 0.73362 0.4216 0.56153 0.0
O309 O 0.73065 0.39976 0.53127 0.0
O310 O 0.75593 0.38936 0.5336 0.0
Mg311 Mg 0.77473 0.40384 0.56213 0.0
C312 C 0.74083 0.38934 0.52413 0.0
C313 C 0.70578 0.44355 0.56643 0.0
O314 O 0.72162 0.45404 0.57393 0.0
O315 O 0.72952 0.39813 0.58086 0.0
O316 O 0.75571 0.38979 0.58102 0.0
O317 O 0.74675 0.44494 0.54718 0.0
O318 O 0.76111 0.42729 0.56296 0.0
C319 C 0.74053 0.38844 0.58666 0.0
C320 C 0.76161 0.44064 0.55288 0.0
O321 O 0.70467 0.42611 0.5588 0.0
Mg322 Mg 0.65915 0.5371 0.32225 0.0
O323 O 0.67802 0.56703 0.3239 0.0
O324 O 0.69711 0.57289 0.35183 0.0
Mg325 Mg 0.68887 0.54795 0.36875 0.0
C326 C 0.69128 0.57787 0.33584 0.0
C327 C 0.64 0.54722 0.28376 0.0
O328 O 0.63602 0.55907 0.29813 0.0
O329 O 0.6805 0.51843 0.3161 0.0
O330 O 0.69602 0.5237 0.34647 0.0
O331 O 0.63986 0.55114 0.33859 0.0
O332 O 0.66037 0.54002 0.35431 0.0
C333 C 0.69235 0.51457 0.32847 0.0
C334 C 0.64703 0.54804 0.35524 0.0
O335 O 0.64995 0.53616 0.28844 0.0
Nd336 Nd 0.04466 0.07886 0.06128 0.0
Nd337 Nd 0.01935 0.03827 0.04703 0.0
C338 C 0.05861 0.11472 0.07745 0.0
C339 C 0.0588 0.13188 0.06837 0.0
C340 C 0.04287 0.13718 0.06236 0.0
C341 C 0.04272 0.1517 0.05147 0.0
C342 C 0.05847 0.1614 0.04626 0.0
C343 C 0.07449 0.1565 0.05276 0.0
C344 C 0.07464 0.14194 0.06373 0.0
C345 C 0.04803 0.06609 0.02181 0.0
C346 C 1.00324 0.0752 0.04022 0.0
C347 C 1.00646 1.00212 0.03124 0.0
C348 C 1.006 0.98562 0.0414 0.0
C349 C 0.01344 0.97042 0.03383 0.0
C350 C 0.0159 0.95648 0.04508 0.0
C351 C 0.01117 0.95762 0.06425 0.0
C352 C 1.00313 0.97244 0.07146 0.0
C353 C 1.00051 0.9862 0.06017 0.0
C354 C 0.01551 0.05078 0.08629 0.0
C355 C 0.06049 0.04203 0.06894 0.0
O356 O 0.04317 0.10574 0.08053 0.0
O357 O 0.06813 0.10304 0.0703 0.0
O358 O 0.05576 0.08258 0.03224 0.0
O359 O 0.03796 0.05724 0.03212 0.0
O360 O 0.01832 0.08597 0.05014 0.0
O361 O 1.00071 0.05642 0.03523 0.0
O362 O 0.02233 0.01106 0.02947 0.0
O363 O 0.99631 0.01384 0.03651 0.0
O364 O 1.00798 0.03439 0.07555 0.0
O365 O 0.0258 0.05998 0.07637 0.0
O366 O 0.04555 0.03141 0.05862 0.0
O367 O 0.06305 0.0608 0.07382 0.0
H368 H 0.03035 0.12971 0.06548 0.0
H369 H 0.03009 0.15484 0.04652 0.0
H370 H 0.0869 0.16381 0.04923 0.0
H371 H 0.08711 0.13817 0.0681 0.0
H372 H 0.01799 0.96972 0.01954 0.0
H373 H 0.02218 0.94529 0.03912 0.0
H374 H 0.99906 0.97356 0.08601 0.0
H375 H 0.99472 0.99764 0.06652 0.0
Nd376 Nd 0.2777 0.8313 0.31767 0.0
Nd377 Nd 0.27458 0.7876 0.29524 0.0
C378 C 0.27231 0.865 0.33217 0.0
C379 C 0.28065 0.88432 0.32985 0.0
C380 C 0.28425 0.88795 0.31118 0.0
C381 C 0.29349 0.90585 0.30933 0.0
C382 C 0.29955 0.92047 0.32613 0.0
C383 C 0.29564 0.91687 0.34475 0.0
C384 C 0.28626 0.89897 0.34657 0.0
C385 C 0.31105 0.82508 0.31105 0.0
C386 C 0.27195 0.82068 0.26868 0.0
C387 C 0.28087 0.75438 0.28045 0.0
C388 C 0.27196 0.73461 0.28044 0.0
C389 C 0.28204 0.72157 0.28515 0.0
C390 C 0.27369 0.70335 0.28724 0.0
C391 C 0.25508 0.69787 0.28455 0.0
C392 C 0.24503 0.71082 0.27932 0.0
C393 C 0.25338 0.72904 0.27738 0.0
C394 C 0.24101 0.79395 0.30033 0.0
C395 C 0.27912 0.79796 0.34437 0.0
O396 O 0.26255 0.8538 0.31629 0.0
O397 O 0.2825 0.85637 0.34218 0.0
O398 O 0.3082 0.84142 0.31874 0.0
O399 O 0.29623 0.81353 0.30624 0.0
O400 O 0.27056 0.83249 0.28483 0.0
O401 O 0.27621 0.80403 0.26932 0.0
O402 O 0.28873 0.76438 0.29784 0.0
O403 O 0.27218 0.76396 0.26985 0.0
O404 O 0.24397 0.77769 0.29246 0.0
O405 O 0.25585 0.80542 0.30603 0.0
O406 O 0.27985 0.78574 0.32822 0.0
O407 O 0.27642 0.81527 0.34389 0.0
H408 H 0.2802 0.87687 0.29802 0.0
H409 H 0.29599 0.90817 0.29472 0.0
H410 H 0.30028 0.9277 0.35805 0.0
H411 H 0.28378 0.89642 0.36113 0.0
H412 H 0.29639 0.72563 0.2877 0.0
H413 H 0.28177 0.69363 0.29113 0.0
H414 H 0.23069 0.70713 0.27744 0.0
H415 H 0.24527 0.73891 0.27401 0.0
Nd416 Nd 0.54897 0.06534 0.55542 0.0
Nd417 Nd 0.5133 0.04458 0.56677 0.0
C418 C 0.57702 0.07828 0.53949 0.0
C419 C 0.5939 0.07219 0.53966 0.0
C420 C 0.60947 0.08503 0.53841 0.0
C421 C 0.62591 0.08015 0.54188 0.0
C422 C 0.62697 0.06238 0.54675 0.0
C423 C 0.6112 0.04927 0.54709 0.0
C424 C 0.59484 0.05416 0.54364 0.0
C425 C 0.55207 0.05245 0.59083 0.0
C426 C 0.53357 0.01911 0.53779 0.0
C427 C 0.48795 0.02949 0.58516 0.0
C428 C 0.47054 0.03408 0.58672 0.0
C429 C 0.4554 0.01945 0.58446 0.0
C430 C 0.43851 0.02344 0.58189 0.0
C431 C 0.43656 0.04213 0.58154 0.0
C432 C 0.45181 0.05687 0.5849 0.0
C433 C 0.46863 0.05287 0.58737 0.0
C434 C 0.506 0.0615 0.53426 0.0
C435 C 0.5276 0.09039 0.58139 0.0
O436 O 0.56305 0.06602 0.52932 0.0
O437 O 0.5742 0.08613 0.55691 0.0
O438 O 0.56164 0.06806 0.58786 0.0
O439 O 0.54201 0.04365 0.57505 0.0
O440 O 0.54479 0.035 0.53678 0.0
O441 O 0.52139 0.01887 0.54965 0.0
O442 O 0.50182 0.04258 0.59444 0.0
O443 O 0.48988 0.02197 0.56719 0.0
O444 O 0.49386 0.05164 0.54203 0.0
O445 O 0.52074 0.06177 0.54381 0.0
O446 O 0.52057 0.07435 0.58678 0.0
O447 O 0.53639 0.09037 0.56611 0.0
H448 H 0.60898 0.09907 0.53552 0.0
H449 H 0.63781 0.09048 0.54133 0.0
H450 H 0.61152 0.03561 0.55111 0.0
H451 H 0.58297 0.04415 0.545 0.0
H452 H 0.45661 1.00484 0.58372 0.0
H453 H 0.42699 0.01182 0.57949 0.0
H454 H 0.45081 0.07136 0.58439 0.0
H455 H 0.48011 0.06438 0.58872 0.0
Nd456 Nd 0.2832 0.30594 0.82511 0.0
Nd457 Nd 0.26831 0.30097 0.78684 0.0
C458 C 0.29101 0.30827 0.86398 0.0
C459 C 0.28989 0.3214 0.88225 0.0
C460 C 0.27785 0.31552 0.89483 0.0
C461 C 0.27684 0.32769 0.91232 0.0
C462 C 0.28795 0.34596 0.91764 0.0
C463 C 0.29994 0.35184 0.90495 0.0
C464 C 0.30089 0.33973 0.88745 0.0
C465 C 0.29288 0.33966 0.8108 0.0
C466 C 0.24258 0.31259 0.81637 0.0
C467 C 0.26062 0.29985 0.74812 0.0
C468 C 0.26411 0.28915 0.72967 0.0
C469 C 0.25384 0.28918 0.71164 0.0
C470 C 0.25654 0.27852 0.694 0.0
C471 C 0.26959 0.26766 0.69413 0.0
C472 C 0.28002 0.26787 0.71227 0.0
C473 C 0.27725 0.27849 0.72993 0.0
C474 C 0.25856 0.26718 0.80104 0.0
C475 C 0.30853 0.29356 0.79544 0.0
O476 O 0.27606 0.29841 0.85351 0.0
O477 O 0.30249 0.31446 0.8529 0.0
O478 O 0.3036 0.33185 0.82064 0.0
O479 O 0.27725 0.32949 0.80822 0.0
O480 O 0.25397 0.30725 0.82876 0.0
O481 O 0.24661 0.31467 0.79879 0.0
O482 O 0.27424 0.31153 0.75947 0.0
O483 O 0.25028 0.29014 0.75816 0.0
O484 O 0.24798 0.27483 0.79076 0.0
O485 O 0.27417 0.27746 0.80394 0.0
O486 O 0.2974 0.29941 0.78325 0.0
O487 O 0.30432 0.29123 0.81291 0.0
H488 H 0.26924 0.30146 0.89117 0.0
H489 H 0.26735 0.32278 0.92167 0.0
H490 H 0.30893 0.36568 0.90876 0.0
H491 H 0.31038 0.34471 0.87813 0.0
H492 H 0.24365 0.29735 0.71123 0.0
H493 H 0.24846 0.27882 0.68023 0.0
H494 H 0.29004 0.2595 0.71287 0.0
H495 H 0.28521 0.27823 0.74379 0.0
Nd496 Nd 0.02964 0.06843 0.55889 0.0
Nd497 Nd 0.03546 0.03288 0.53576 0.0
C498 C 0.01835 0.09793 0.5761 0.0
C499 C 0.01924 0.11737 0.57269 0.0
C500 C 0.02332 0.1325 0.58901 0.0
C501 C 0.02695 0.15126 0.58609 0.0
C502 C 0.02645 0.15513 0.56678 0.0
C503 C 0.02167 0.13993 0.55043 0.0
C504 C 0.0182 0.12118 0.55336 0.0
C505 C 0.06117 0.07317 0.54394 0.0
C506 C 0.0146 0.05709 0.51085 0.0
C507 C 0.04636 1.00311 0.51845 0.0
C508 C 0.04553 0.98377 0.52216 0.0
C509 C 0.04258 0.96855 0.50603 0.0
C510 C 0.03862 0.94982 0.50905 0.0
C511 C 0.0376 0.94607 0.52828 0.0
C512 C 0.0414 0.96141 0.54449 0.0
C513 C 0.04524 0.9801 0.54145 0.0
C514 C 1.00396 0.02873 0.55077 0.0
C515 C 0.05005 0.0439 0.58404 0.0
O516 O 1.00819 0.08409 0.56269 0.0
O517 O 0.03363 0.09428 0.58203 0.0
O518 O 0.05934 0.08184 0.5612 0.0
O519 O 0.04657 0.06337 0.53471 0.0
O520 O 0.01172 0.06523 0.52842 0.0
O521 O 0.02653 0.04655 0.50981 0.0
O522 O 0.05676 0.01705 0.53152 0.0
O523 O 0.03098 0.00674 0.5129 0.0
O524 O 1.00542 0.02029 0.53325 0.0
O525 O 0.01874 0.03801 0.55989 0.0
O526 O 0.05284 0.03547 0.56653 0.0
O527 O 0.03849 0.05488 0.58492 0.0
H528 H 0.02432 0.12979 0.60403 0.0
H529 H 0.03046 0.16274 0.59892 0.0
H530 H 0.0214 0.1425 0.53539 0.0
H531 H 0.01537 0.1097 0.54055 0.0
H532 H 0.04259 0.97116 0.49102 0.0
H533 H 0.03587 0.93828 0.49632 0.0
H534 H 0.04046 0.959 0.55944 0.0
H535 H 0.04718 0.99166 0.55407 0.0
Nd536 Nd 0.29208 0.81515 0.79591 0.0
Nd537 Nd 0.25726 0.78972 0.79312 0.0
C538 C 0.3246 0.83249 0.79295 0.0
C539 C 0.34238 0.82869 0.79238 0.0
C540 C 0.35411 0.83932 0.78234 0.0
C541 C 0.37182 0.83788 0.78389 0.0
C542 C 0.37813 0.82587 0.79566 0.0
C543 C 0.36603 0.81441 0.80477 0.0
C544 C 0.34829 0.81577 0.80309 0.0
C545 C 0.27744 0.82003 0.83036 0.0
C546 C 0.29054 0.76968 0.7998 0.0
C547 C 0.22436 0.77269 0.79511 0.0
C548 C 0.20692 0.77753 0.79537 0.0
C549 C 0.19361 0.76599 0.80273 0.0
C550 C 0.17631 0.76891 0.80064 0.0
C551 C 0.17203 0.78335 0.79098 0.0
C552 C 0.18571 0.79544 0.78449 0.0
C553 C 0.20299 0.79261 0.78675 0.0
C554 C 0.27217 0.7845 0.75889 0.0
C555 C 0.25901 0.83546 0.79034 0.0
O556 O 0.31251 0.82465 0.77748 0.0
O557 O 0.31855 0.8322 0.8098 0.0
O558 O 0.28577 0.83378 0.82298 0.0
O559 O 0.27745 0.80402 0.81999 0.0
O560 O 0.29998 0.7858 0.79654 0.0
O561 O 0.27363 0.76824 0.80176 0.0
O562 O 0.23633 0.77983 0.81086 0.0
O563 O 0.2308 0.77322 0.77852 0.0
O564 O 0.26372 0.77091 0.76638 0.0
O565 O 0.27203 0.80061 0.76901 0.0
O566 O 0.24982 0.81948 0.79418 0.0
O567 O 0.2756 0.83655 0.78723 0.0
H568 H 0.34972 0.84926 0.77389 0.0
H569 H 0.3807 0.84663 0.77638 0.0
H570 H 0.37043 0.80512 0.81408 0.0
H571 H 0.33939 0.80734 0.81087 0.0
H572 H 0.19645 0.75434 0.80952 0.0
H573 H 0.16622 0.75956 0.80615 0.0
H574 H 0.18296 0.80654 0.77676 0.0
H575 H 0.21311 0.8017 0.78098 0.0
Nd576 Nd 0.50757 0.06955 0.04254 0.0
Nd577 Nd 0.54279 0.06904 0.06672 0.0
C578 C 0.47593 0.07489 0.02994 0.0
C579 C 0.45804 0.06412 0.03028 0.0
C580 C 0.44339 0.07235 0.02745 0.0
C581 C 0.42635 0.06185 0.02768 0.0
C582 C 0.42378 0.04296 0.03071 0.0
C583 C 0.43863 0.03487 0.03359 0.0
C584 C 0.45559 0.04539 0.0335 0.0
C585 C 0.51689 0.03509 0.03586 0.0
C586 C 0.50911 0.06104 0.08868 0.0
C587 C 0.57514 0.06546 0.07936 0.0
C588 C 0.59225 0.07137 0.07274 0.0
C589 C 0.60739 0.06614 0.08111 0.0
C590 C 0.62378 0.07246 0.07521 0.0
C591 C 0.62523 0.08407 0.06079 0.0
C592 C 0.60987 0.08892 0.05221 0.0
C593 C 0.59358 0.08274 0.05823 0.0
C594 C 0.53191 0.10287 0.07293 0.0
C595 C 0.54129 0.07656 0.02067 0.0
O596 O 0.48506 0.08341 0.04727 0.0
O597 O 0.48519 0.0661 0.01847 0.0
O598 O 0.50792 0.04153 0.02255 0.0
O599 O 0.5191 0.04579 0.05268 0.0
O600 O 0.50063 0.06681 0.07385 0.0
O601 O 0.52511 0.05766 0.08811 0.0
O602 O 0.5635 0.05205 0.06697 0.0
O603 O 0.56826 0.07936 0.08707 0.0
O604 O 0.53954 0.09599 0.08692 0.0
O605 O 0.53119 0.09243 0.05631 0.0
O606 O 0.54906 0.06976 0.03508 0.0
O607 O 0.52593 0.0814 0.02179 0.0
H608 H 0.44512 0.08686 0.02508 0.0
H609 H 0.41523 0.06859 0.02569 0.0
H610 H 0.43715 0.02029 0.03563 0.0
H611 H 0.46682 0.03885 0.03578 0.0
H612 H 0.60658 0.05743 0.0924 0.0
H613 H 0.63538 0.06865 0.08229 0.0
H614 H 0.61041 0.09756 0.04085 0.0
H615 H 0.58204 0.08704 0.05173 0.0
Nd616 Nd 0.27027 0.29479 0.28141 0.0
Nd617 Nd 0.29272 0.31482 0.32034 0.0
C618 C 0.24634 0.28656 0.2494 0.0
C619 C 0.22716 0.28542 0.24992 0.0
C620 C 0.21987 0.30121 0.24756 0.0
C621 C 0.20449 0.30354 0.25543 0.0
C622 C 0.19619 0.29018 0.26592 0.0
C623 C 0.20219 0.27322 0.26582 0.0
C624 C 0.21739 0.2708 0.25776 0.0
C625 C 0.2647 0.2759 0.3121 0.0
C626 C 0.2572 0.32867 0.31129 0.0
C627 C 0.31653 0.32256 0.35259 0.0
C628 C 0.33373 0.3167 0.35447 0.0
C629 C 0.33421 0.29731 0.35209 0.0
C630 C 0.34926 0.29121 0.34694 0.0
C631 C 0.36411 0.30433 0.34404 0.0
C632 C 0.3644 0.32386 0.34883 0.0
C633 C 0.34936 0.32998 0.35408 0.0
C634 C 0.29694 0.33378 0.28956 0.0
C635 C 0.30525 0.2807 0.29088 0.0
O636 O 0.25656 0.30355 0.25553 0.0
O637 O 0.253 0.27354 0.25663 0.0
O638 O 0.26433 0.26757 0.29397 0.0
O639 O 0.26675 0.29366 0.31348 0.0
O640 O 0.25662 0.31883 0.29326 0.0
O641 O 0.26888 0.32758 0.32631 0.0
O642 O 0.30219 0.30903 0.34991 0.0
O643 O 0.3152 0.33463 0.34074 0.0
O644 O 0.29648 0.34199 0.30755 0.0
O645 O 0.296 0.31616 0.2883 0.0
O646 O 0.30476 0.2894 0.30907 0.0
O647 O 0.29493 0.2834 0.27552 0.0
H648 H 0.22694 0.31261 0.24132 0.0
H649 H 0.1999 0.31649 0.25456 0.0
H650 H 0.19627 0.2625 0.27363 0.0
H651 H 0.2224 0.25826 0.25958 0.0
H652 H 0.3225 0.28667 0.35256 0.0
H653 H 0.34882 0.27608 0.34387 0.0
H654 H 0.37562 0.33437 0.3468 0.0
H655 H 0.34944 0.34502 0.356 0.0
Nd656 Nd 0.5297 0.57217 0.06039 0.0
Nd657 Nd 0.53688 0.53598 0.03903 0.0
C658 C 0.51706 0.60131 0.07604 0.0
C659 C 0.51665 0.62019 0.07163 0.0
C660 C 0.51847 0.63559 0.08733 0.0
C661 C 0.52061 0.6541 0.08366 0.0
C662 C 0.5209 0.65742 0.0642 0.0
C663 C 0.51846 0.64185 0.04843 0.0
C664 C 0.51645 0.62339 0.05213 0.0
C665 C 0.56113 0.57689 0.04538 0.0
C666 C 0.51465 0.55784 0.01221 0.0
C667 C 0.55005 0.50675 0.02478 0.0
C668 C 0.55373 0.49031 0.03283 0.0
C669 C 0.55578 0.47411 0.02013 0.0
C670 C 0.55704 0.45759 0.02749 0.0
C671 C 0.55624 0.45707 0.04766 0.0
C672 C 0.55482 0.47363 0.06043 0.0
C673 C 0.55353 0.49006 0.05306 0.0
C674 C 0.5053 0.53197 0.05372 0.0
C675 C 0.55092 0.54965 0.08743 0.0
O676 O 0.50734 0.58663 0.0633 0.0
O677 O 0.53285 0.59891 0.08203 0.0
O678 O 0.55913 0.58639 0.06217 0.0
O679 O 0.5467 0.56633 0.03657 0.0
O680 O 0.51209 0.5672 0.0294 0.0
O681 O 0.52642 0.54703 0.01173 0.0
O682 O 0.55994 0.52334 0.03355 0.0
O683 O 0.53327 0.50703 0.02124 0.0
O684 O 0.50697 0.52283 0.03657 0.0
O685 O 0.51994 0.54189 0.06264 0.0
O686 O 0.55391 0.54051 0.07037 0.0
O687 O 0.5391 0.56034 0.0875 0.0
H688 H 0.51881 0.63336 0.1025 0.0
H689 H 0.52233 0.66582 0.09606 0.0
H690 H 0.51887 0.644 0.03332 0.0
H691 H 0.51535 0.6117 0.03984 0.0
H692 H 0.55586 0.47406 0.00443 0.0
H693 H 0.55824 0.44511 0.01732 0.0
H694 H 0.55381 0.47366 0.07595 0.0
H695 H 0.55169 0.50235 0.06304 0.0
Nd696 Nd 0.79858 0.32287 0.29997 0.0
Nd697 Nd 0.76133 0.29586 0.29504 0.0
C698 C 0.831 0.34169 0.29912 0.0
C699 C 0.84873 0.33836 0.29761 0.0
C700 C 0.85225 0.32036 0.29824 0.0
C701 C 0.86975 0.31835 0.3017 0.0
C702 C 0.88387 0.33433 0.30463 0.0
C703 C 0.88022 0.35198 0.30221 0.0
C704 C 0.86273 0.35397 0.29878 0.0
C705 C 0.78175 0.32559 0.33287 0.0
C706 C 0.79607 0.27652 0.30032 0.0
C707 C 0.73034 0.27789 0.30173 0.0
C708 C 0.71209 0.27439 0.29161 0.0
C709 C 0.69834 0.26319 0.29866 0.0
C710 C 0.6809 0.26003 0.28909 0.0
C711 C 0.677 0.26808 0.27237 0.0
C712 C 0.69091 0.27927 0.26537 0.0
C713 C 0.70832 0.2824 0.27492 0.0
C714 C 0.77189 0.29555 0.25773 0.0
C715 C 0.76415 0.34184 0.29292 0.0
O716 O 0.81897 0.33579 0.28322 0.0
O717 O 0.82501 0.33835 0.31544 0.0
O718 O 0.79095 0.33996 0.32716 0.0
O719 O 0.78209 0.31009 0.32168 0.0
O720 O 0.80612 0.29323 0.29931 0.0
O721 O 0.77888 0.27457 0.30114 0.0
O722 O 0.73756 0.29565 0.30976 0.0
O723 O 0.74098 0.26931 0.29217 0.0
O724 O 0.75655 0.28648 0.26048 0.0
O725 O 0.77991 0.30505 0.27425 0.0
O726 O 0.7545 0.32574 0.29605 0.0
O727 O 0.78101 0.34319 0.29051 0.0
H728 H 0.84153 0.30816 0.29734 0.0
H729 H 0.8722 0.30453 0.30324 0.0
H730 H 0.89078 0.36458 0.30456 0.0
H731 H 0.86017 0.36797 0.2984 0.0
H732 H 0.70109 0.25698 0.31158 0.0
H733 H 0.67044 0.2515 0.29494 0.0
H734 H 0.68838 0.28543 0.25237 0.0
H735 H 0.71886 0.29106 0.26929 0.0
Nd736 Nd 0.01449 0.57373 0.5503 0.0
Nd737 Nd 0.04723 0.56644 0.57386 0.0
C738 C 0.98446 0.58297 0.53816 0.0
C739 C 0.9662 0.57363 0.5392 0.0
C740 C 0.95205 0.5823 0.53498 0.0
C741 C 0.9347 0.57299 0.53593 0.0
C742 C 0.93134 0.55487 0.54109 0.0
C743 C 0.94568 0.54633 0.54526 0.0
C744 C 0.96292 0.55565 0.54443 0.0
C745 C 0.01908 0.53701 0.54208 0.0
C746 C 0.01308 0.56374 0.59539 0.0
C747 C 0.07677 0.55601 0.58544 0.0
C748 C 0.09525 0.56195 0.582 0.0
C749 C 0.09979 0.55898 0.56277 0.0
C750 C 0.11664 0.56734 0.55937 0.0
C751 C 0.12921 0.57882 0.5751 0.0
C752 C 0.12497 0.58088 0.59446 0.0
C753 C 0.10818 0.57245 0.59788 0.0
C754 C 0.04325 0.60321 0.58226 0.0
C755 C 0.04855 0.57647 0.52877 0.0
O756 O 0.99431 0.59096 0.55526 0.0
O757 O 0.99263 0.57294 0.52643 0.0
O758 O 0.0122 0.54544 0.52905 0.0
O759 O 0.02155 0.54733 0.55908 0.0
O760 O 1.00681 0.57217 0.58144 0.0
O761 O 0.02743 0.55681 0.5941 0.0
O762 O 0.06512 0.54637 0.57018 0.0
O763 O 0.07073 0.56898 0.59631 0.0
O764 O 0.04962 0.59443 0.59528 0.0
O765 O 0.04038 0.59317 0.56501 0.0
O766 O 0.05483 0.56813 0.54281 0.0
O767 O 0.03431 0.58359 0.53011 0.0
H768 H 0.9544 0.59622 0.53099 0.0
H769 H 0.92399 0.58005 0.53285 0.0
H770 H 0.9436 0.53227 0.5489 0.0
H771 H 0.97373 0.54875 0.54774 0.0
H772 H 0.09016 0.55085 0.55023 0.0
H773 H 0.11954 0.56555 0.54428 0.0
H774 H 0.13452 0.5894 0.6069 0.0
H775 H 0.10506 0.57481 0.61286 0.0
Nd776 Nd 0.78411 0.80973 0.32542 0.0
Nd777 Nd 0.76903 0.80466 0.28721 0.0
C778 C 0.7924 0.812 0.36425 0.0
C779 C 0.7906 0.82422 0.38287 0.0
C780 C 0.77461 0.82177 0.39075 0.0
C781 C 0.77325 0.83332 0.40853 0.0
C782 C 0.78783 0.84755 0.41869 0.0
C783 C 0.80379 0.84992 0.41082 0.0
C784 C 0.80518 0.83832 0.39317 0.0
C785 C 0.7936 0.84335 0.3109 0.0
C786 C 0.74338 0.81614 0.31689 0.0
C787 C 0.76125 0.80317 0.24844 0.0
C788 C 0.76481 0.79198 0.23032 0.0
C789 C 0.75479 0.79166 0.21202 0.0
C790 C 0.75748 0.78035 0.19476 0.0
C791 C 0.77028 0.76921 0.19557 0.0
C792 C 0.78047 0.7698 0.21397 0.0
C793 C 0.77771 0.78105 0.23123 0.0
C794 C 0.75955 0.7709 0.30148 0.0
C795 C 0.80936 0.79744 0.2956 0.0
O796 O 0.778 0.80099 0.35363 0.0
O797 O 0.80323 0.81973 0.35331 0.0
O798 O 0.80443 0.83549 0.32051 0.0
O799 O 0.77798 0.83321 0.30851 0.0
O800 O 0.7549 0.81098 0.32929 0.0
O801 O 0.74732 0.81822 0.29927 0.0
O802 O 0.77491 0.81493 0.25967 0.0
O803 O 0.75084 0.79381 0.25866 0.0
O804 O 0.74886 0.77849 0.29128 0.0
O805 O 0.77513 0.78123 0.30428 0.0
O806 O 0.79812 0.8032 0.28346 0.0
O807 O 0.80531 0.79521 0.31315 0.0
H808 H 0.76314 0.81093 0.38324 0.0
H809 H 0.76078 0.83122 0.41424 0.0
H810 H 0.81535 0.86053 0.41853 0.0
H811 H 0.81775 0.84037 0.38763 0.0
H812 H 0.74476 0.80001 0.21111 0.0
H813 H 0.74957 0.78034 0.18077 0.0
H814 H 0.79027 0.76121 0.2151 0.0
H815 H 0.78546 0.78103 0.2453 0.0
Nd816 Nd 0.77751 0.33251 0.81847 0.0
Nd817 Nd 0.7752 0.28903 0.79586 0.0
C818 C 0.7712 0.36576 0.83308 0.0
C819 C 0.77882 0.38526 0.83071 0.0
C820 C 0.78203 0.3891 0.812 0.0
C821 C 0.79062 0.40724 0.8101 0.0
C822 C 0.79639 0.42191 0.82689 0.0
C823 C 0.79284 0.4181 0.84556 0.0
C824 C 0.78412 0.39995 0.84743 0.0
C825 C 0.81112 0.32692 0.81223 0.0
C826 C 0.773 0.3225 0.76955 0.0
C827 C 0.78198 0.2562 0.78059 0.0
C828 C 0.77288 0.23627 0.7794 0.0
C829 C 0.78264 0.22308 0.78446 0.0
C830 C 0.77397 0.20466 0.78549 0.0
C831 C 0.75537 0.19912 0.78139 0.0
C832 C 0.74567 0.21222 0.77575 0.0
C833 C 0.75432 0.23064 0.77487 0.0
C834 C 0.74133 0.29469 0.8005 0.0
C835 C 0.77971 0.29912 0.845 0.0
O836 O 0.76155 0.35432 0.81728 0.0
O837 O 0.78193 0.35756 0.84294 0.0
O838 O 0.80804 0.34313 0.81998 0.0
O839 O 0.79642 0.31521 0.80724 0.0
O840 O 0.77116 0.33415 0.78561 0.0
O841 O 0.77725 0.30586 0.77027 0.0
O842 O 0.78905 0.26558 0.79848 0.0
O843 O 0.77388 0.26623 0.76998 0.0
O844 O 0.7446 0.27861 0.79259 0.0
O845 O 0.75603 0.30637 0.80641 0.0
O846 O 0.78076 0.28712 0.82882 0.0
O847 O 0.77653 0.31627 0.84457 0.0
H848 H 0.7782 0.378 0.79883 0.0
H849 H 0.79286 0.40972 0.79546 0.0
H850 H 0.7973 0.42896 0.85885 0.0
H851 H 0.78192 0.39724 0.86202 0.0
H852 H 0.79695 0.22717 0.78812 0.0
H853 H 0.78179 0.19482 0.78974 0.0
H854 H 0.73132 0.20847 0.77278 0.0
H855 H 0.74643 0.24061 0.77118 0.0
Nd856 Nd 0.76723 0.79996 0.79835 0.0
Nd857 Nd 0.79285 0.82033 0.83493 0.0
C858 C 0.74052 0.79254 0.76919 0.0
C859 C 0.7219 0.7925 0.77178 0.0
C860 C 0.71271 0.80442 0.76282 0.0
C861 C 0.69687 0.80785 0.76894 0.0
C862 C 0.68999 0.79948 0.78422 0.0
C863 C 0.69872 0.78668 0.79227 0.0
C864 C 0.71443 0.78325 0.78616 0.0
C865 C 0.76593 0.78068 0.82908 0.0
C866 C 0.75646 0.83314 0.83162 0.0
C867 C 0.81979 0.8286 0.8641 0.0
C868 C 0.83695 0.82279 0.86366 0.0
C869 C 0.83742 0.80343 0.85902 0.0
C870 C 0.85214 0.79798 0.85203 0.0
C871 C 0.86667 0.81176 0.84957 0.0
C872 C 0.86705 0.83106 0.85642 0.0
C873 C 0.85231 0.83652 0.86343 0.0
C874 C 0.79273 0.83938 0.80399 0.0
C875 C 0.80294 0.78626 0.80288 0.0
O876 O 0.75142 0.80921 0.77431 0.0
O877 O 0.7472 0.77915 0.77563 0.0
O878 O 0.76381 0.77258 0.81057 0.0
O879 O 0.76743 0.79846 0.83104 0.0
O880 O 0.75386 0.82284 0.8135 0.0
O881 O 0.77011 0.83309 0.84486 0.0
O882 O 0.80572 0.81517 0.86344 0.0
O883 O 0.81697 0.84025 0.85221 0.0
O884 O 0.79368 0.84743 0.82236 0.0
O885 O 0.79249 0.82185 0.80228 0.0
O886 O 0.80421 0.79521 0.82138 0.0
O887 O 0.79097 0.78846 0.78877 0.0
H888 H 0.71827 0.8119 0.75188 0.0
H889 H 0.69042 0.81763 0.76223 0.0
H890 H 0.69415 0.78024 0.80433 0.0
H891 H 0.72129 0.77425 0.7937 0.0
H892 H 0.82591 0.79244 0.85925 0.0
H893 H 0.8517 0.78299 0.8473 0.0
H894 H 0.87807 0.84201 0.85473 0.0
H895 H 0.85234 0.85153 0.86697 0.0
Nd896 Nd 0.54533 0.57912 0.5623 0.0
Nd897 Nd 0.52081 0.53839 0.54882 0.0
C898 C 0.55977 0.6151 0.57792 0.0
C899 C 0.56294 0.63185 0.56814 0.0
C900 C 0.55699 0.6482 0.57542 0.0
C901 C 0.55738 0.66292 0.56461 0.0
C902 C 0.56364 0.66158 0.54618 0.0
C903 C 0.57024 0.6455 0.53935 0.0
C904 C 0.56992 0.63085 0.55019 0.0
C905 C 0.54894 0.56617 0.52297 0.0
C906 C 0.50373 0.5745 0.54162 0.0
C907 C 0.50799 0.50213 0.53332 0.0
C908 C 0.50734 0.48563 0.54351 0.0
C909 C 0.5146 0.47029 0.53594 0.0
C910 C 0.51683 0.45628 0.54716 0.0
C911 C 0.51204 0.45748 0.56631 0.0
C912 C 0.50417 0.47245 0.57352 0.0
C913 C 0.50179 0.48629 0.56225 0.0
C914 C 0.51676 0.55098 0.58798 0.0
C915 C 0.56203 0.54291 0.5704 0.0
O916 O 0.54309 0.60746 0.57787 0.0
O917 O 0.56919 0.60232 0.57393 0.0
O918 O 0.55635 0.58278 0.53324 0.0
O919 O 0.53903 0.55719 0.53331 0.0
O920 O 0.51856 0.58558 0.55178 0.0
O921 O 0.50172 0.55581 0.53652 0.0
O922 O 0.52393 0.51102 0.53175 0.0
O923 O 0.49783 0.51388 0.53838 0.0
O924 O 0.50967 0.53442 0.57738 0.0
O925 O 0.52689 0.56045 0.5781 0.0
O926 O 0.54727 0.53196 0.56006 0.0
O927 O 0.56408 0.56161 0.57528 0.0
H928 H 0.55148 0.64931 0.58916 0.0
H929 H 0.55249 0.67521 0.57058 0.0
H930 H 0.57499 0.64378 0.52517 0.0
H931 H 0.57457 0.61844 0.54409 0.0
H932 H 0.51918 0.46953 0.52166 0.0
H933 H 0.52298 0.44497 0.5412 0.0
H934 H 0.50006 0.47362 0.58805 0.0
H935 H 0.49611 0.49784 0.56858 0.0
Nd936 Nd 0.04905 0.56575 0.05689 0.0
Nd937 Nd 0.0142 0.54446 0.0695 0.0
C938 C 0.07638 0.57904 0.04005 0.0
C939 C 0.0933 0.5731 0.03952 0.0
C940 C 0.10885 0.5864 0.03918 0.0
C941 C 0.12535 0.58158 0.04231 0.0
C942 C 0.1265 0.5634 0.04591 0.0
C943 C 0.11077 0.54986 0.04523 0.0
C944 C 0.09435 0.55468 0.04215 0.0
C945 C 0.0534 0.55299 0.09227 0.0
C946 C 0.03397 0.5195 0.0393 0.0
C947 C 0.99011 0.52872 0.08907 0.0
C948 C 0.97263 0.53265 0.09163 0.0
C949 C 0.95795 0.51756 0.08985 0.0
C950 C 0.9408 0.52089 0.08807 0.0
C951 C 0.93812 0.53938 0.08804 0.0
C952 C 0.95295 0.55458 0.09102 0.0
C953 C 0.97003 0.55124 0.09269 0.0
C954 C 1.00543 0.56123 0.03734 0.0
C955 C 0.02779 0.59045 0.08349 0.0
O956 O 0.06229 0.56674 0.0302 0.0
O957 O 0.07398 0.58677 0.0577 0.0
O958 O 0.0626 0.56871 0.08908 0.0
O959 O 0.04311 0.54407 0.07672 0.0
O960 O 0.04491 0.53551 0.0381 0.0
O961 O 0.02213 0.51903 0.05158 0.0
O962 O 1.00392 0.54215 0.0978 0.0
O963 O 0.99147 0.52139 0.07082 0.0
O964 O 0.99378 0.5512 0.0456 0.0
O965 O 0.02051 0.56172 0.04624 0.0
O966 O 0.02126 0.57442 0.0892 0.0
O967 O 0.03623 0.59047 0.06792 0.0
H968 H 0.10829 0.60073 0.03735 0.0
H969 H 0.13722 0.59227 0.04255 0.0
H970 H 0.11116 0.53584 0.04826 0.0
H971 H 0.08252 0.54428 0.0428 0.0
H972 H 0.95969 0.5031 0.08881 0.0
H973 H 0.92962 0.50892 0.08595 0.0
H974 H 0.95137 0.56894 0.09074 0.0
H975 H 0.98113 0.5631 0.09369 0.0
C976 C 0.02226 0.27252 0.94191 0.0
C977 C 0.0304 0.2741 0.92492 0.0
C978 C 0.02726 0.26127 0.95509 0.0
C979 C 0.06172 0.23602 0.97121 0.0
H980 H 0.02241 0.2066 0.99048 0.0
C981 C 0.0681 0.17688 0.01792 0.0
C982 C 0.0579 0.17598 0.03345 0.0
C983 C 0.06629 0.18945 0.00483 0.0
C984 C 0.03359 0.21485 0.98545 0.0
H985 H 0.05083 0.26564 0.90899 0.0
H986 H 0.05949 0.24556 0.93207 0.0
H987 H 0.01667 0.22706 0.96723 0.0
H988 H 0.03857 0.1885 0.04799 0.0
H989 H 0.03537 0.21022 0.02524 0.0
H990 H 0.07859 0.22348 0.98948 0.0
C991 C 0.04924 0.25323 0.93516 0.0
C992 C 0.0303 0.22663 0.97208 0.0
C993 C 0.04428 0.26471 0.92192 0.0
C994 C 0.04635 0.18847 0.03597 0.0
C995 C 0.04451 0.20095 0.0229 0.0
C996 C 0.06502 0.2241 0.98462 0.0
C997 C 0.04046 0.25102 0.95167 0.0
C998 C 0.0443 0.23765 0.96501 0.0
C999 C 0.05419 0.20136 0.00692 0.0
C1000 C 0.05098 0.21359 0.99213 0.0
H1001 H 0.01175 0.27982 0.94496 0.0
H1002 H 0.02057 0.26043 0.96793 0.0
H1003 H 0.07282 0.24433 0.96614 0.0
H1004 H 0.077 0.16737 0.01539 0.0
H1005 H 0.07387 0.18931 0.99264 0.0
C1006 C 0.09294 0.8305 0.25907 0.0
C1007 C 0.07878 0.81439 0.2539 0.0
C1008 C 0.11035 0.82888 0.26523 0.0
C1009 C 0.13667 0.79588 0.28444 0.0
H1010 H 0.17611 0.82921 0.26953 0.0
C1011 C 0.20803 0.78255 0.29423 0.0
C1012 C 0.2228 0.79797 0.29891 0.0
C1013 C 0.19074 0.78531 0.29029 0.0
C1014 C 0.16533 0.81995 0.27413 0.0
H1015 H 0.07222 0.78379 0.25127 0.0
H1016 H 0.10254 0.78088 0.26177 0.0
H1017 H 0.14587 0.83199 0.25912 0.0
H1018 H 0.23073 0.82861 0.30328 0.0
H1019 H 0.20042 0.8336 0.29657 0.0
H1020 H 0.15613 0.78374 0.29931 0.0
C1021 C 0.10015 0.79491 0.26133 0.0
C1022 C 0.14784 0.82152 0.2681 0.0
C1023 C 0.08267 0.79655 0.25515 0.0
C1024 C 0.2197 0.81642 0.29996 0.0
C1025 C 0.20228 0.81922 0.29585 0.0
C1026 C 0.15414 0.7943 0.29045 0.0
C1027 C 0.11434 0.81107 0.26646 0.0
C1028 C 0.13315 0.80945 0.27304 0.0
C1029 C 0.18749 0.80366 0.29075 0.0
C1030 C 0.16882 0.80621 0.2853 0.0
H1031 H 0.09061 0.84453 0.25843 0.0
H1032 H 0.12065 0.84174 0.26931 0.0
H1033 H 0.12591 0.78655 0.28899 0.0
H1034 H 0.20986 0.76811 0.29311 0.0
H1035 H 0.17994 0.77289 0.28617 0.0
C1036 C 0.53521 0.87159 0.42054 0.0
C1037 C 0.52128 0.85703 0.42298 0.0
C1038 C 0.53905 0.88949 0.43323 0.0
C1039 C 0.53217 0.91318 0.4827 0.0
H1040 H 0.53884 0.95933 0.46097 0.0
C1041 C 0.52321 0.98376 0.52654 0.0
C1042 C 0.53463 1.00086 0.52525 0.0
C1043 C 0.52375 0.96661 0.51446 0.0
C1044 C 0.53727 0.94661 0.46734 0.0
H1045 H 0.50068 0.84999 0.44094 0.0
H1046 H 0.50734 0.88082 0.46274 0.0
H1047 H 0.53624 0.92864 0.43913 0.0
H1048 H 0.55572 0.01319 0.51017 0.0
H1049 H 0.55667 0.98316 0.4891 0.0
H1050 H 0.53292 0.93097 0.5108 0.0
C1051 C 0.51541 0.87848 0.45119 0.0
C1052 C 0.5358 0.92901 0.45481 0.0
C1053 C 0.5115 0.86077 0.43851 0.0
C1054 C 0.5467 1.00031 0.51158 0.0
C1055 C 0.5472 0.9831 0.49941 0.0
C1056 C 0.53366 0.93071 0.49519 0.0
C1057 C 0.5292 0.89311 0.44875 0.0
C1058 C 0.53282 0.91204 0.46227 0.0
C1059 C 0.53571 0.96602 0.5007 0.0
C1060 C 0.53584 0.94763 0.48763 0.0
H1061 H 0.543 0.86924 0.40873 0.0
H1062 H 0.54982 0.90043 0.431 0.0
H1063 H 0.53028 0.90045 0.48905 0.0
H1064 H 0.51369 0.98357 0.5368 0.0
H1065 H 0.51449 0.95383 0.51566 0.0
C1066 C 0.46275 0.28492 0.7662 0.0
C1067 C 0.46684 0.29139 0.74877 0.0
C1068 C 0.44559 0.28352 0.77142 0.0
C1069 C 0.41109 0.29293 0.78475 0.0
H1070 H 0.37014 0.27708 0.74339 0.0
C1071 C 0.33875 0.28583 0.80313 0.0
C1072 C 0.32615 0.29098 0.78991 0.0
C1073 C 0.35564 0.28458 0.7983 0.0
C1074 C 0.38137 0.28179 0.7552 0.0
H1075 H 0.4557 0.30153 0.72334 0.0
H1076 H 0.42618 0.2989 0.73219 0.0
H1077 H 0.39959 0.2771 0.73486 0.0
H1078 H 0.32173 0.29872 0.76102 0.0
H1079 H 0.35095 0.29681 0.75275 0.0
H1080 H 0.39287 0.29789 0.80506 0.0
C1081 C 0.43607 0.29464 0.74179 0.0
C1082 C 0.39839 0.28176 0.75026 0.0
C1083 C 0.45317 0.29617 0.73668 0.0
C1084 C 0.33094 0.2946 0.77161 0.0
C1085 C 0.3478 0.29339 0.76679 0.0
C1086 C 0.39404 0.29304 0.78969 0.0
C1087 C 0.43194 0.28842 0.75931 0.0
C1088 C 0.41361 0.28749 0.7649 0.0
C1089 C 0.36055 0.28846 0.78007 0.0
C1090 C 0.37884 0.28764 0.77497 0.0
H1091 H 0.47288 0.28123 0.77599 0.0
H1092 H 0.443 0.27852 0.78495 0.0
H1093 H 0.42238 0.29766 0.79648 0.0
H1094 H 0.33563 0.28292 0.81737 0.0
H1095 H 0.36482 0.28046 0.80889 0.0
C1096 C 0.96543 0.83554 0.61113 0.0
C1097 C 0.97212 0.81981 0.61484 0.0
C1098 C 0.96945 0.84371 0.59479 0.0
C1099 C 0.97858 0.85848 0.55788 0.0
H1100 H 0.02901 0.86452 0.55649 0.0
C1101 C 0.01585 0.91468 0.51922 0.0
C1102 C 0.03102 0.92648 0.5314 0.0
C1103 C 1.00799 0.89741 0.52397 0.0
C1104 C 0.01489 0.86289 0.55658 0.0
H1105 H 0.98702 0.79929 0.60403 0.0
H1106 H 0.99352 0.81302 0.57498 0.0
H1107 H 0.01429 0.84143 0.57419 0.0
H1108 H 0.05052 0.92886 0.55729 0.0
H1109 H 0.03673 0.89892 0.56576 0.0
H1110 H 0.97956 0.88101 0.54148 0.0
C1111 C 0.98548 0.81936 0.58478 0.0
C1112 C 1.00635 0.84944 0.56652 0.0
C1113 C 0.98162 0.81136 0.60123 0.0
C1114 C 0.03874 0.92015 0.54775 0.0
C1115 C 0.03092 0.90288 0.55246 0.0
C1116 C 0.98715 0.87199 0.54798 0.0
C1117 C 0.98024 0.83621 0.58195 0.0
C1118 C 0.98822 0.84755 0.56791 0.0
C1119 C 0.01518 0.89156 0.54094 0.0
C1120 C 1.00554 0.87482 0.54789 0.0
H1121 H 0.95835 0.84244 0.62172 0.0
H1122 H 0.96534 0.85678 0.59323 0.0
H1123 H 0.96456 0.85719 0.55843 0.0
H1124 H 0.00952 0.91925 0.50659 0.0
H1125 H 0.99597 0.8889 0.5147 0.0
C1126 C 0.51486 0.83335 0.8949 0.0
C1127 C 0.53042 0.83045 0.8877 0.0
C1128 C 0.5002 0.83457 0.88195 0.0
C1129 C 0.47833 0.81908 0.83079 0.0
H1130 H 0.45094 0.85647 0.84639 0.0
C1131 C 0.4038 0.81035 0.8024 0.0
C1132 C 0.39745 0.82674 0.80016 0.0
C1133 C 0.42167 0.81175 0.80946 0.0
C1134 C 0.45854 0.84611 0.84159 0.0
H1135 H 0.54309 0.82697 0.86143 0.0
H1136 H 0.51715 0.82888 0.83853 0.0
H1137 H 0.47944 0.8581 0.86598 0.0
H1138 H 0.40519 0.85737 0.80273 0.0
H1139 H 0.43631 0.85969 0.81452 0.0
H1140 H 0.45714 0.80684 0.80661 0.0
C1141 C 0.51638 0.83017 0.85425 0.0
C1142 C 0.47479 0.84695 0.85294 0.0
C1143 C 0.53121 0.82919 0.86731 0.0
C1144 C 0.40959 0.84441 0.80408 0.0
C1145 C 0.42742 0.84579 0.81108 0.0
C1146 C 0.46196 0.81817 0.81945 0.0
C1147 C 0.50072 0.83281 0.86148 0.0
C1148 C 0.48467 0.83323 0.84791 0.0
C1149 C 0.43356 0.82957 0.81443 0.0
C1150 C 0.45176 0.8315 0.82494 0.0
H1151 H 0.51398 0.83475 0.91057 0.0
H1152 H 0.48827 0.83647 0.88794 0.0
H1153 H 0.48565 0.80826 0.82665 0.0
H1154 H 0.39485 0.79649 0.79925 0.0
H1155 H 0.42596 0.79898 0.81197 0.0
C1156 C 0.46591 0.23522 0.11137 0.0
C1157 C 0.45857 0.23677 0.12902 0.0
C1158 C 0.4671 0.21742 0.10124 0.0
C1159 C 0.47681 0.17588 0.11675 0.0
H1160 H 0.47536 0.15617 0.06081 0.0
C1161 C 0.51119 0.11531 0.09362 0.0
C1162 C 0.51974 0.11562 0.07685 0.0
C1163 C 0.4995 0.12716 0.09755 0.0
C1164 C 0.47604 0.16159 0.0765 0.0
H1165 H 0.44557 0.22118 0.14927 0.0
H1166 H 0.44752 0.18997 0.13155 0.0
H1167 H 0.46052 0.18199 0.07084 0.0
H1168 H 0.52255 0.12802 0.05071 0.0
H1169 H 0.50317 0.14996 0.05832 0.0
H1170 H 0.49342 0.15701 0.12275 0.0
C1171 C 0.45221 0.20243 0.1254 0.0
C1172 C 0.46734 0.17622 0.0822 0.0
C1173 C 0.45091 0.22023 0.13542 0.0
C1174 C 0.51619 0.12773 0.06384 0.0
C1175 C 0.50489 0.14009 0.06812 0.0
C1176 C 0.48579 0.16165 0.11111 0.0
C1177 C 0.46123 0.201 0.10889 0.0
C1178 C 0.46782 0.18363 0.1024 0.0
C1179 C 0.49654 0.14015 0.0852 0.0
C1180 C 0.48574 0.15439 0.09091 0.0
H1181 H 0.4723 0.24788 0.1065 0.0
H1182 H 0.47426 0.21679 0.08869 0.0
H1183 H 0.47776 0.18157 0.13244 0.0
H1184 H 0.51335 0.10571 0.10361 0.0
H1185 H 0.4929 0.12616 0.11042 0.0
C1186 C 0.12002 0.29934 0.40936 0.0
C1187 C 0.11918 0.31741 0.41943 0.0
C1188 C 0.12895 0.29749 0.393 0.0
C1189 C 0.16151 0.32161 0.366 0.0
H1190 H 0.13232 0.28777 0.31959 0.0
C1191 C 0.18621 0.31376 0.29045 0.0
C1192 C 0.1836 0.29509 0.27965 0.0
C1193 C 0.17726 0.31775 0.30649 0.0
C1194 C 0.14074 0.29712 0.33241 0.0
H1195 H 0.12847 0.34776 0.42131 0.0
H1196 H 0.14441 0.34446 0.39285 0.0
H1197 H 0.12089 0.29179 0.35102 0.0
H1198 H 0.16794 0.26635 0.27614 0.0
H1199 H 0.15288 0.27309 0.30445 0.0
H1200 H 0.18159 0.32655 0.34764 0.0
C1201 C 0.1379 0.33176 0.39753 0.0
C1202 C 0.13418 0.29942 0.35043 0.0
C1203 C 0.12881 0.33363 0.41385 0.0
C1204 C 0.1707 0.28081 0.28438 0.0
C1205 C 0.16186 0.28475 0.30055 0.0
C1206 C 0.16818 0.31914 0.34802 0.0
C1207 C 0.13742 0.31366 0.38649 0.0
C1208 C 0.14454 0.31155 0.36744 0.0
C1209 C 0.16549 0.30314 0.31224 0.0
C1210 C 0.15792 0.30675 0.33101 0.0
H1211 H 0.11292 0.28653 0.41336 0.0
H1212 H 0.1287 0.28337 0.38499 0.0
H1213 H 0.16978 0.33101 0.37891 0.0
H1214 H 0.19592 0.32519 0.28732 0.0
H1215 H 0.18004 0.3322 0.31477 0.0
C1216 C 0.93666 0.09676 0.22818 0.0
C1217 C 0.92684 0.08115 0.23473 0.0
C1218 C 0.9464 0.09419 0.21237 0.0
C1219 C 0.96842 0.05911 0.18528 0.0
H1220 H 0.97123 0.09215 0.14661 0.0
C1221 C 1.00233 0.0426 0.11584 0.0
C1222 C 0.00987 0.05696 0.10603 0.0
C1223 C 0.99341 0.0465 0.13203 0.0
C1224 C 0.97093 0.08294 0.15741 0.0
H1225 H 0.91967 0.0504 0.22918 0.0
H1226 H 0.93678 0.04586 0.20167 0.0
H1227 H 0.95265 0.09637 0.17248 0.0
H1228 H 0.01404 0.08715 0.10624 0.0
H1229 H 0.99893 0.09429 0.13515 0.0
H1230 H 0.98697 0.04597 0.17077 0.0
C1231 C 0.9369 0.06021 0.20886 0.0
C1232 C 0.96009 0.0853 0.1723 0.0
C1233 C 0.92688 0.06279 0.22457 0.0
C1234 C 1.00873 0.07573 0.11356 0.0
C1235 C 0.99972 0.07972 0.13 0.0
C1236 C 0.97941 0.0569 0.17059 0.0
C1237 C 0.94699 0.07589 0.20258 0.0
C1238 C 0.95848 0.07331 0.18643 0.0
C1239 C 0.99161 0.06507 0.13938 0.0
C1240 C 0.98077 0.06858 0.15612 0.0
H1241 H 0.93709 0.11114 0.23556 0.0
H1242 H 0.954 0.10667 0.20827 0.0
H1243 H 0.96798 0.04983 0.19603 0.0
H1244 H 1.00269 0.02791 0.11043 0.0
H1245 H 0.98725 0.0346 0.13817 0.0
C1246 C 0.33944 0.75448 0.5002 0.0
C1247 C 0.33142 0.73601 0.50231 0.0
C1248 C 0.33295 0.76241 0.48436 0.0
C1249 C 0.31034 0.74827 0.43315 0.0
H1250 H 0.29871 0.79787 0.43918 0.0
C1251 C 0.27852 0.7727 0.36506 0.0
C1252 C 0.28258 0.79204 0.36384 0.0
C1253 C 0.28353 0.76666 0.3827 0.0
C1254 C 0.30214 0.78411 0.43709 0.0
H1255 H 0.31003 0.71162 0.48938 0.0
H1256 H 0.29913 0.72524 0.46171 0.0
H1257 H 0.30986 0.78642 0.46852 0.0
H1258 H 0.29492 0.82029 0.38041 0.0
H1259 H 0.30435 0.8098 0.41096 0.0
H1260 H 0.30351 0.74601 0.4019 0.0
C1261 C 0.31035 0.73363 0.47238 0.0
C1262 C 0.30847 0.77753 0.454 0.0
C1263 C 0.31658 0.72587 0.48835 0.0
C1264 C 0.29141 0.80529 0.38091 0.0
C1265 C 0.2968 0.79921 0.3985 0.0
C1266 C 0.30438 0.75495 0.41627 0.0
C1267 C 0.31854 0.7519 0.47005 0.0
C1268 C 0.31244 0.75943 0.45222 0.0
C1269 C 0.29321 0.77973 0.3996 0.0
C1270 C 0.29993 0.77289 0.41789 0.0
H1271 H 0.35087 0.76273 0.51064 0.0
H1272 H 0.33957 0.77651 0.48292 0.0
H1273 H 0.31356 0.73438 0.43125 0.0
H1274 H 0.27158 0.76212 0.35224 0.0
H1275 H 0.27988 0.75163 0.38292 0.0
C1276 C 0.60558 0.99424 0.73994 0.0
C1277 C 0.59281 0.99182 0.75267 0.0
C1278 C 0.60118 0.99849 0.72113 0.0
C1279 C 0.56246 0.99982 0.68392 0.0
H1280 H 0.59705 0.03714 0.66674 0.0
C1281 C 0.54871 0.02513 0.60907 0.0
C1282 C 0.55569 0.04431 0.60878 0.0
C1283 C 0.55326 0.01737 0.62575 0.0
C1284 C 0.58713 0.02683 0.67136 0.0
H1285 H 0.56526 0.99153 0.75529 0.0
H1286 H 0.55777 0.99931 0.72301 0.0
H1287 H 0.6049 0.02579 0.69702 0.0
H1288 H 0.57239 0.07057 0.62589 0.0
H1289 H 0.57985 0.05735 0.65509 0.0
H1290 H 0.54442 1.00157 0.65876 0.0
C1291 C 0.5711 0.99759 0.72723 0.0
C1292 C 0.59176 0.02004 0.68863 0.0
C1293 C 0.57546 0.99323 0.74591 0.0
C1294 C 0.56692 0.05569 0.62562 0.0
C1295 C 0.57134 0.04802 0.64232 0.0
C1296 C 0.55778 0.00672 0.66673 0.0
C1297 C 0.58393 1.00053 0.71463 0.0
C1298 C 0.57943 0.0066 0.69532 0.0
C1299 C 0.56478 0.02869 0.64257 0.0
C1300 C 0.56998 0.02053 0.66033 0.0
H1301 H 0.61906 0.9932 0.74465 0.0
H1302 H 0.61137 1.00033 0.71175 0.0
H1303 H 0.55266 0.98924 0.68835 0.0
H1304 H 0.54005 0.01601 0.59626 0.0
H1305 H 0.54804 1.00241 0.62526 0.0
C1306 C 0.30443 0.45811 0.07627 0.0
C1307 C 0.32206 0.4614 0.08571 0.0
C1308 C 0.29875 0.44556 0.05803 0.0
C1309 C 0.31052 0.40501 0.02724 0.0
H1310 H 0.27966 0.41615 0.98453 0.0
C1311 C 0.28634 0.35117 0.95417 0.0
C1312 C 0.2877 0.3586 0.93673 0.0
C1313 C 0.28787 0.36326 0.97247 0.0
C1314 C 0.2883 0.41286 0.99631 0.0
H1315 H 0.34769 0.45457 0.08296 0.0
H1316 H 0.33785 0.43301 0.05116 0.0
H1317 H 0.28837 0.43876 0.01606 0.0
H1318 H 0.29064 0.38449 0.92469 0.0
H1319 H 0.29386 0.40562 0.95667 0.0
H1320 H 0.31105 0.37953 0.00741 0.0
C1321 C 0.32831 0.43978 0.05804 0.0
C1322 C 0.29315 0.42572 0.01443 0.0
C1323 C 0.33398 0.45226 0.07624 0.0
C1324 C 0.28985 0.37833 0.9379 0.0
C1325 C 0.29145 0.39043 0.95621 0.0
C1326 C 0.3057 0.3922 0.00918 0.0
C1327 C 0.31058 0.43606 0.04887 0.0
C1328 C 0.30454 0.42205 0.02997 0.0
C1329 C 0.29087 0.38307 0.97376 0.0
C1330 C 0.2947 0.39606 0.99342 0.0
H1331 H 0.29489 0.46489 0.08316 0.0
H1332 H 0.28498 0.44292 0.05137 0.0
H1333 H 0.31906 0.40161 0.03904 0.0
H1334 H 0.28479 0.33605 0.95384 0.0
H1335 H 0.28708 0.3571 0.98568 0.0
C1336 C 0.93715 0.05883 0.3444 0.0
C1337 C 0.92362 0.06906 0.34358 0.0
C1338 C 0.94618 0.0573 0.3627 0.0
C1339 C 0.95659 0.08051 0.41633 0.0
H1340 H 0.97162 0.03404 0.42265 0.0
C1341 C 0.99067 0.06963 0.49244 0.0
C1342 C 1.00423 0.05941 0.49208 0.0
C1343 C 0.98048 0.07095 0.47469 0.0
C1344 C 0.96775 0.04725 0.42114 0.0
H1345 H 0.90892 0.08553 0.36163 0.0
H1346 H 0.92446 0.08267 0.3935 0.0
H1347 H 0.9544 0.03566 0.39144 0.0
H1348 H 0.01779 0.04286 0.4725 0.0
H1349 H 1.00035 0.04537 0.44183 0.0
H1350 H 0.97003 0.09211 0.44604 0.0
C1351 C 0.92827 0.07599 0.37996 0.0
C1352 C 0.9578 0.04816 0.40315 0.0
C1353 C 0.91921 0.07748 0.36163 0.0
C1354 C 1.00744 0.05079 0.47347 0.0
C1355 C 0.99728 0.0521 0.45579 0.0
C1356 C 0.96656 0.07959 0.43435 0.0
C1357 C 0.942 0.06599 0.38081 0.0
C1358 C 0.95214 0.06485 0.40036 0.0
C1359 C 0.98352 0.06206 0.45607 0.0
C1360 C 0.97243 0.06299 0.43701 0.0
H1361 H 0.94103 0.05224 0.33086 0.0
H1362 H 0.95678 0.04969 0.36261 0.0
H1363 H 0.95273 0.09371 0.41476 0.0
H1364 H 0.98774 0.07642 0.50645 0.0
H1365 H 0.96994 0.07861 0.47563 0.0
C1366 C 0.34801 0.74508 0.61346 0.0
C1367 C 0.33724 0.73077 0.5983 0.0
C1368 C 0.34135 0.75209 0.63061 0.0
C1369 C 0.3038 0.7397 0.65911 0.0
H1370 H 0.32077 0.79167 0.68762 0.0
C1371 C 0.28452 0.76241 0.73579 0.0
C1372 C 0.28123 0.78065 0.74126 0.0
C1373 C 0.292 0.75758 0.71875 0.0
C1374 C 0.31572 0.77715 0.67977 0.0
H1375 H 0.31074 0.71311 0.5893 0.0
H1376 H 0.29906 0.72564 0.61853 0.0
H1377 H 0.33194 0.78112 0.65703 0.0
H1378 H 0.2838 0.80839 0.7333 0.0
H1379 H 0.29647 0.79981 0.70292 0.0
H1380 H 0.28712 0.73581 0.68121 0.0
C1381 C 0.31285 0.73111 0.61764 0.0
C1382 C 0.32234 0.77098 0.66228 0.0
C1383 C 0.31955 0.72395 0.60067 0.0
C1384 C 0.28611 0.7942 0.72945 0.0
C1385 C 0.29345 0.78925 0.71207 0.0
C1386 C 0.2971 0.74588 0.67639 0.0
C1387 C 0.32366 0.74516 0.63306 0.0
C1388 C 0.31654 0.75209 0.65167 0.0
C1389 C 0.29622 0.77071 0.70626 0.0
C1390 C 0.30306 0.76464 0.68721 0.0
H1391 H 0.3617 0.75069 0.61222 0.0
H1392 H 0.35025 0.76269 0.64212 0.0
H1393 H 0.29909 0.72498 0.65176 0.0
H1394 H 0.28125 0.7517 0.74474 0.0
H1395 H 0.29443 0.74341 0.71539 0.0
C1396 C 0.58574 0.02898 0.85818 0.0
C1397 C 0.59965 0.01944 0.86053 0.0
C1398 C 0.57937 0.03746 0.87481 0.0
C1399 C 0.57869 0.03466 0.92792 0.0
H1400 H 0.56339 0.08238 0.93173 0.0
C1401 C 0.56607 0.07223 1.0018 0.0
C1402 C 0.54914 0.0762 1.00209 0.0
C1403 C 0.57232 0.06787 0.98388 0.0
C1404 C 0.56754 0.06899 0.93076 0.0
H1405 H 0.61796 0.01171 0.8823 0.0
H1406 H 0.60752 0.02702 0.911 0.0
H1407 H 0.57418 0.06946 0.90149 0.0
H1408 H 0.52606 0.08012 0.98377 0.0
H1409 H 0.53718 0.07258 0.95222 0.0
H1410 H 0.57242 0.03431 0.9572 0.0
C1411 C 0.60113 0.02759 0.89638 0.0
C1412 C 0.57366 0.06155 0.91346 0.0
C1413 C 0.60732 0.01899 0.87984 0.0
C1414 C 0.53916 0.07714 0.98406 0.0
C1415 C 0.5455 0.07281 0.96601 0.0
C1416 C 0.5728 0.04216 0.94516 0.0
C1417 C 0.58684 0.03661 0.89413 0.0
C1418 C 0.57955 0.0444 0.91196 0.0
C1419 C 0.56184 0.06741 0.96577 0.0
C1420 C 0.56739 0.05951 0.9469 0.0
H1421 H 0.57949 0.02954 0.84349 0.0
H1422 H 0.56827 0.04416 0.87249 0.0
H1423 H 0.58255 0.02114 0.92712 0.0
H1424 H 0.57422 0.07154 0.01536 0.0
H1425 H 0.58511 0.0641 0.98414 0.0
C1426 C 0.30264 0.44986 0.18385 0.0
C1427 C 0.31447 0.44909 0.17005 0.0
C1428 C 0.29787 0.43453 0.19339 0.0
C1429 C 0.3147 0.393 0.20563 0.0
H1430 H 0.27037 0.38179 0.22624 0.0
C1431 C 0.30026 0.33601 0.25427 0.0
C1432 C 0.2959 0.34358 0.27261 0.0
C1433 C 0.30005 0.3462 0.23875 0.0
C1434 C 0.28276 0.3847 0.22043 0.0
H1435 H 0.32949 0.43127 0.15417 0.0
H1436 H 0.32057 0.40428 0.16999 0.0
H1437 H 0.27428 0.40464 0.20404 0.0
H1438 H 0.287 0.36706 0.28888 0.0
H1439 H 0.2864 0.38461 0.2618 0.0
H1440 H 0.32315 0.37312 0.22214 0.0
C1441 C 0.31556 0.41693 0.17424 0.0
C1442 C 0.28507 0.39789 0.20785 0.0
C1443 C 0.32061 0.43236 0.16507 0.0
C1444 C 0.29061 0.36101 0.27494 0.0
C1445 C 0.29009 0.37097 0.25939 0.0
C1446 C 0.31228 0.37964 0.21795 0.0
C1447 C 0.30458 0.418 0.18899 0.0
C1448 C 0.30124 0.40254 0.20065 0.0
C1449 C 0.29508 0.36384 0.24127 0.0
C1450 C 0.29646 0.3757 0.22583 0.0
H1451 H 0.29775 0.46263 0.18795 0.0
H1452 H 0.28954 0.436 0.2048 0.0
H1453 H 0.32747 0.39641 0.20076 0.0
H1454 H 0.30427 0.32253 0.25213 0.0
H1455 H 0.30393 0.34042 0.22487 0.0
C1456 C 0.18865 0.96692 0.07092 0.0
C1457 C 0.18509 0.94697 0.06522 0.0
C1458 C 0.17497 0.97665 0.07246 0.0
C1459 C 0.12659 0.97208 0.0573 0.0
H1460 H 0.13437 0.01732 0.09829 0.0
C1461 C 0.07078 0.01193 0.07109 0.0
C1462 C 0.07497 0.03191 0.07333 0.0
C1463 C 0.08407 1.00156 0.07164 0.0
C1464 C 0.13202 1.00483 0.08665 0.0
H1465 H 0.16403 0.92167 0.05648 0.0
H1466 H 0.13991 0.93867 0.0595 0.0
H1467 H 0.15706 0.99869 0.09614 0.0
H1468 H 0.09669 0.05662 0.07888 0.0
H1469 H 0.12005 0.03845 0.0801 0.0
H1470 H 0.10145 0.9782 0.04796 0.0
C1471 C 0.15346 0.94682 0.06256 0.0
C1472 C 0.14508 0.99409 0.08536 0.0
C1473 C 0.16728 0.93701 0.06088 0.0
C1474 C 0.09295 0.0413 0.07723 0.0
C1475 C 0.10634 0.03085 0.07785 0.0
C1476 C 0.11348 0.98276 0.05869 0.0
C1477 C 0.15714 0.96682 0.06853 0.0
C1478 C 0.14267 0.97763 0.07053 0.0
C1479 C 0.10204 0.01078 0.07452 0.0
C1480 C 0.11604 0.99935 0.07332 0.0
H1481 H 0.20215 0.97521 0.07418 0.0
H1482 H 0.17847 0.99201 0.07655 0.0
H1483 H 0.12426 0.95974 0.0455 0.0
H1484 H 0.05711 1.00411 0.06827 0.0
H1485 H 0.08022 0.98621 0.06951 0.0
C1486 C 0.70364 0.61066 0.98301 0.0
C1487 C 0.71181 0.5951 0.98243 0.0
C1488 C 0.68642 0.60911 0.98751 0.0
C1489 C 0.64621 0.57368 0.99193 0.0
H1490 H 0.63665 0.61632 0.0271 0.0
C1491 C 0.57776 0.5714 0.01694 0.0
C1492 C 0.57765 0.57965 0.03675 0.0
C1493 C 0.59347 0.57402 0.0088 0.0
C1494 C 0.63913 0.60422 0.01739 0.0
H1495 H 0.70824 0.56564 0.98582 0.0
H1496 H 0.67854 0.5631 0.99416 0.0
H1497 H 0.66519 0.61919 0.01551 0.0
H1498 H 0.59375 0.5969 0.06368 0.0
H1499 H 0.6213 0.601 0.04975 0.0
H1500 H 0.62053 0.55836 0.99466 0.0
C1501 C 0.68519 0.57639 0.99072 0.0
C1502 C 0.65542 0.60597 0.01048 0.0
C1503 C 0.7023 0.57788 0.98605 0.0
C1504 C 0.59348 0.5905 0.04831 0.0
C1505 C 0.60923 0.59296 0.04026 0.0
C1506 C 0.62999 0.57186 0.999 0.0
C1507 C 0.67707 0.59202 0.99168 0.0
C1508 C 0.65925 0.59064 0.99784 0.0
C1509 C 0.60943 0.58476 0.02039 0.0
C1510 C 0.62631 0.58704 0.012 0.0
H1511 H 0.7106 0.62409 0.98017 0.0
H1512 H 0.68048 0.62135 0.9878 0.0
H1513 H 0.64858 0.56167 0.98197 0.0
H1514 H 0.56569 0.56301 0.00769 0.0
H1515 H 0.59307 0.56772 0.99338 0.0
C1516 C 0.71135 0.49168 0.33758 0.0
C1517 C 0.70089 0.4978 0.32284 0.0
C1518 C 0.71806 0.47514 0.33329 0.0
C1519 C 0.72873 0.4405 0.29237 0.0
H1520 H 0.72727 0.4077 0.33127 0.0
C1521 C 0.76488 0.37618 0.28863 0.0
C1522 C 0.75623 0.35933 0.29408 0.0
C1523 C 0.75791 0.39279 0.291 0.0
C1524 C 0.72776 0.41656 0.32012 0.0
H1525 H 0.68982 0.49084 0.29158 0.0
H1526 H 0.70188 0.46223 0.284 0.0
H1527 H 0.71585 0.4366 0.33719 0.0
H1528 H 0.73322 0.34727 0.30648 0.0
H1529 H 0.72133 0.37596 0.31076 0.0
H1530 H 0.74081 0.42043 0.27538 0.0
C1531 C 0.70481 0.47034 0.29905 0.0
C1532 C 0.72131 0.43338 0.32363 0.0
C1533 C 0.69784 0.48684 0.30341 0.0
C1534 C 0.74033 0.35976 0.30192 0.0
C1535 C 0.73353 0.37641 0.30457 0.0
C1536 C 0.73547 0.42378 0.28899 0.0
C1537 C 0.71483 0.46398 0.314 0.0
C1538 C 0.72163 0.44574 0.30986 0.0
C1539 C 0.7422 0.39333 0.29927 0.0
C1540 C 0.73507 0.41141 0.30278 0.0
H1541 H 0.71411 0.49948 0.35275 0.0
H1542 H 0.72589 0.47111 0.34525 0.0
H1543 H 0.72939 0.44953 0.28138 0.0
H1544 H 0.77717 0.37664 0.28265 0.0
H1545 H 0.76517 0.40542 0.28684 0.0
C1546 C 0.77896 0.4642 0.53583 0.0
C1547 C 0.7786 0.45118 0.54878 0.0
C1548 C 0.79505 0.4756 0.53368 0.0
C1549 C 0.83872 0.4974 0.56177 0.0
H1550 H 0.85378 0.50351 0.51117 0.0
C1551 C 0.90991 0.53391 0.55692 0.0
C1552 C 0.91302 0.54473 0.5421 0.0
C1553 C 0.89299 0.52337 0.55729 0.0
C1554 C 0.84965 0.50224 0.52542 0.0
H1555 H 0.79483 0.43953 0.5692 0.0
H1556 H 0.82281 0.45954 0.56558 0.0
H1557 H 0.82515 0.48284 0.51191 0.0
H1558 H 0.90058 0.55324 0.51625 0.0
H1559 H 0.87084 0.53541 0.51736 0.0
H1560 H 0.86286 0.51695 0.57541 0.0
C1561 C 0.81066 0.46092 0.55712 0.0
C1562 C 0.8333 0.49032 0.52581 0.0
C1563 C 0.79465 0.44938 0.55907 0.0
C1564 C 0.89864 0.54517 0.52797 0.0
C1565 C 0.88163 0.53473 0.52844 0.0
C1566 C 0.85491 0.50947 0.56141 0.0
C1567 C 0.81098 0.47435 0.54468 0.0
C1568 C 0.82785 0.48757 0.544 0.0
C1569 C 0.87863 0.52356 0.54301 0.0
C1570 C 0.86074 0.51181 0.54325 0.0
H1571 H 0.76679 0.46588 0.52769 0.0
H1572 H 0.79497 0.48588 0.52401 0.0
H1573 H 0.83465 0.49579 0.576 0.0
H1574 H 0.92059 0.53346 0.56825 0.0
H1575 H 0.8913 0.51476 0.56858 0.0
C1576 C 0.40729 0.17071 0.29457 0.0
C1577 C 0.40861 0.16765 0.31427 0.0
C1578 C 0.39535 0.18122 0.28763 0.0
C1579 C 0.35422 0.1959 0.2989 0.0
H1580 H 0.36796 0.23751 0.27152 0.0
C1581 C 0.31984 0.25754 0.30512 0.0
C1582 C 0.31608 0.26609 0.28877 0.0
C1583 C 0.32989 0.24374 0.30404 0.0
C1584 C 0.36388 0.22583 0.279 0.0
H1585 H 0.3985 0.17364 0.34214 0.0
H1586 H 0.378 0.19169 0.33016 0.0
H1587 H 0.38852 0.21688 0.27787 0.0
H1588 H 0.31995 0.26672 0.2583 0.0
H1589 H 0.33807 0.24248 0.25647 0.0
H1590 H 0.32995 0.20505 0.30072 0.0
C1591 C 0.38596 0.18582 0.31993 0.0
C1592 C 0.37561 0.21396 0.28255 0.0
C1593 C 0.39787 0.17553 0.32685 0.0
C1594 C 0.32265 0.26038 0.27114 0.0
C1595 C 0.33305 0.24659 0.27014 0.0
C1596 C 0.34262 0.20774 0.29547 0.0
C1597 C 0.38437 0.18865 0.30021 0.0
C1598 C 0.37115 0.19933 0.29326 0.0
C1599 C 0.33664 0.23801 0.28659 0.0
C1600 C 0.34759 0.22338 0.28629 0.0
H1601 H 0.41539 0.16492 0.28448 0.0
H1602 H 0.39445 0.18319 0.27236 0.0
H1603 H 0.35014 0.1844 0.30665 0.0
H1604 H 0.31488 0.26141 0.3189 0.0
H1605 H 0.33267 0.2378 0.31715 0.0
C1606 C 0.3002 0.0826 0.50929 0.0
C1607 C 0.30421 0.09479 0.49586 0.0
C1608 C 0.31362 0.07641 0.51989 0.0
C1609 C 0.3618 0.08859 0.53697 0.0
H1610 H 0.35473 0.03603 0.54354 0.0
C1611 C 0.40734 0.03425 0.55916 0.0
C1612 C 0.41895 0.04614 0.57548 0.0
C1613 C 0.39207 0.03951 0.55133 0.0
C1614 C 0.35689 0.05075 0.54182 0.0
H1615 H 0.32542 0.1097 0.48272 0.0
H1616 H 0.34887 0.09884 0.5012 0.0
H1617 H 0.33103 0.04667 0.52517 0.0
H1618 H 0.42302 0.07221 0.59721 0.0
H1619 H 0.39629 0.08136 0.58358 0.0
H1620 H 0.38782 0.09257 0.55311 0.0
C1621 C 0.33536 0.09433 0.50375 0.0
C1622 C 0.34328 0.05688 0.53144 0.0
C1623 C 0.32192 0.1005 0.49311 0.0
C1624 C 0.41447 0.0629 0.58445 0.0
C1625 C 0.3992 0.06816 0.57661 0.0
C1626 C 0.37538 0.08248 0.54738 0.0
C1627 C 0.33136 0.08227 0.51731 0.0
C1628 C 0.34564 0.07583 0.52875 0.0
C1629 C 0.38809 0.05677 0.55965 0.0
C1630 C 0.37314 0.06346 0.5498 0.0
H1631 H 0.28669 0.07796 0.51179 0.0
H1632 H 0.31013 0.06729 0.53038 0.0
H1633 H 0.36394 0.10334 0.53537 0.0
H1634 H 0.41053 0.02139 0.55172 0.0
H1635 H 0.38389 0.03051 0.53814 0.0
C1636 C 0.69137 0.60494 0.3166 0.0
C1637 C 0.69955 0.59715 0.33165 0.0
C1638 C 0.6986 0.62332 0.31339 0.0
C1639 C 0.73249 0.66909 0.33712 0.0
H1640 H 0.72329 0.68119 0.28487 0.0
C1641 C 0.76526 0.74272 0.31729 0.0
C1642 C 0.75421 0.75089 0.30523 0.0
C1643 C 0.75947 0.72401 0.32071 0.0
C1644 C 0.72594 0.67821 0.29965 0.0
H1645 H 0.72224 0.60308 0.35488 0.0
H1646 H 0.73508 0.6345 0.34894 0.0
H1647 H 0.71189 0.64919 0.29006 0.0
H1648 H 0.72827 0.74537 0.28738 0.0
H1649 H 0.71845 0.71321 0.29301 0.0
H1650 H 0.74687 0.69821 0.34649 0.0
C1651 C 0.72274 0.62672 0.33983 0.0
C1652 C 0.71926 0.65966 0.30271 0.0
C1653 C 0.7154 0.60841 0.34317 0.0
C1654 C 0.73729 0.7397 0.29668 0.0
C1655 C 0.73163 0.72105 0.29985 0.0
C1656 C 0.73936 0.68762 0.33399 0.0
C1657 C 0.71447 0.6347 0.32494 0.0
C1658 C 0.72219 0.65466 0.32157 0.0
C1659 C 0.74254 0.71277 0.31193 0.0
C1660 C 0.73606 0.69262 0.31523 0.0
H1661 H 0.67909 0.59696 0.30746 0.0
H1662 H 0.69141 0.62869 0.30201 0.0
H1663 H 0.73499 0.6663 0.35199 0.0
H1664 H 0.77833 0.75082 0.32421 0.0
H1665 H 0.76838 0.71826 0.33004 0.0
C1666 C 0.88306 0.58297 0.84207 0.0
C1667 C 0.89672 0.58579 0.83049 0.0
C1668 C 0.87103 0.56549 0.83894 0.0
C1669 C 0.8675 0.51492 0.82052 0.0
H1670 H 0.81751 0.51095 0.82344 0.0
C1671 C 0.81937 0.44221 0.81209 0.0
C1672 C 0.80667 0.44084 0.82502 0.0
C1673 C 0.82944 0.45989 0.81072 0.0
C1674 C 0.83146 0.51182 0.82277 0.0
H1675 H 0.9081 0.57254 0.80611 0.0
H1676 H 0.88706 0.54189 0.80072 0.0
H1677 H 0.83657 0.54196 0.82422 0.0
H1678 H 0.79441 0.45716 0.84636 0.0
H1679 H 0.81236 0.48795 0.84445 0.0
H1680 H 0.86259 0.48494 0.81966 0.0
C1681 C 0.88578 0.55327 0.81229 0.0
C1682 C 0.84236 0.52957 0.82314 0.0
C1683 C 0.89775 0.57085 0.81531 0.0
C1684 C 0.8042 0.45765 0.83641 0.0
C1685 C 0.81434 0.47534 0.83511 0.0
C1686 C 0.85664 0.49718 0.82026 0.0
C1687 C 0.87242 0.55035 0.82424 0.0
C1688 C 0.86054 0.53134 0.82222 0.0
C1689 C 0.82717 0.47668 0.82234 0.0
C1690 C 0.83851 0.49543 0.82159 0.0
H1691 H 0.88181 0.59418 0.85384 0.0
H1692 H 0.86099 0.56364 0.84852 0.0
H1693 H 0.8815 0.51585 0.82009 0.0
H1694 H 0.82182 0.42957 0.80327 0.0
H1695 H 0.83904 0.46038 0.80055 0.0
C1696 C 0.01618 0.83045 0.15746 0.0
C1697 C 0.02269 0.83531 0.17792 0.0
C1698 C 0.01906 0.84388 0.14521 0.0
C1699 C 0.02428 0.89497 0.148 0.0
H1700 H 0.03224 0.88385 0.09332 0.0
C1701 C 0.02264 0.95049 0.09718 0.0
C1702 C 0.01516 0.94392 0.07709 0.0
C1703 C 0.02612 0.93777 0.10948 0.0
C1704 C 0.02979 0.88717 0.10848 0.0
H1705 H 0.038 0.85788 0.20145 0.0
H1706 H 0.04296 0.88158 0.18 0.0
H1707 H 0.03492 0.86075 0.11473 0.0
H1708 H 1.00556 0.91871 0.05417 0.0
H1709 H 0.01111 0.89641 0.07567 0.0
H1710 H 0.01837 0.92094 0.14168 0.0
C1711 C 0.03567 0.86727 0.17345 0.0
C1712 C 0.03147 0.87394 0.12081 0.0
C1713 C 0.03304 0.85366 0.18569 0.0
C1714 C 0.01144 0.92426 0.06954 0.0
C1715 C 0.01472 0.91147 0.08191 0.0
C1716 C 0.02241 0.9081 0.13563 0.0
C1717 C 0.02827 0.86266 0.15317 0.0
C1718 C 0.02854 0.87758 0.14067 0.0
C1719 C 0.02203 0.91801 0.10213 0.0
C1720 C 0.02494 0.90434 0.11559 0.0
H1721 H 1.00804 0.81645 0.15108 0.0
H1722 H 0.01306 0.83984 0.12974 0.0
H1723 H 0.02162 0.8981 0.1631 0.0
H1724 H 0.02599 0.96558 0.10339 0.0
H1725 H 0.03212 0.94349 0.12476 0.0
C1726 C 0.97195 0.32652 0.84013 0.0
C1727 C 0.9757 0.31179 0.84964 0.0
C1728 C 0.95427 0.32783 0.83449 0.0
C1729 C 0.90774 0.29942 0.82284 0.0
H1730 H 0.89466 0.34777 0.8367 0.0
C1731 C 0.83334 0.30579 0.81435 0.0
C1732 C 0.82937 0.32334 0.81203 0.0
C1733 C 0.85111 0.30389 0.81749 0.0
C1734 C 0.89794 0.33415 0.83222 0.0
H1735 H 0.96357 0.28666 0.86015 0.0
H1736 H 0.93305 0.28872 0.85001 0.0
H1737 H 0.92542 0.3457 0.8441 0.0
H1738 H 0.84094 0.35234 0.81024 0.0
H1739 H 0.87144 0.34886 0.81432 0.0
H1740 H 0.88043 0.28786 0.81054 0.0
C1741 C 0.9437 0.29936 0.84701 0.0
C1742 C 0.91575 0.33299 0.83664 0.0
C1743 C 0.96128 0.29827 0.85297 0.0
C1744 C 0.84351 0.33862 0.81203 0.0
C1745 C 0.86115 0.33665 0.81472 0.0
C1746 C 0.88995 0.30063 0.81808 0.0
C1747 C 0.93987 0.31422 0.83781 0.0
C1748 C 0.92094 0.3156 0.83216 0.0
C1749 C 0.86543 0.31942 0.81809 0.0
C1750 C 0.88462 0.31802 0.82276 0.0
H1751 H 0.98266 0.33719 0.83732 0.0
H1752 H 0.95187 0.33943 0.82736 0.0
H1753 H 0.91121 0.28579 0.81899 0.0
H1754 H 0.82278 0.29381 0.81474 0.0
H1755 H 0.85355 0.29038 0.82019 0.0
C1756 C 0.49881 0.24094 0.66467 0.0
C1757 C 0.5048 0.24639 0.68524 0.0
C1758 C 0.5022 0.22446 0.65379 0.0
C1759 C 0.50757 0.17736 0.6563 0.0
H1760 H 0.53416 0.18028 0.61236 0.0
C1761 C 0.52428 0.10989 0.61349 0.0
C1762 C 0.52594 0.10862 0.5933 0.0
C1763 C 0.52252 0.12689 0.62493 0.0
C1764 C 0.52642 0.17904 0.62431 0.0
H1765 H 0.51888 0.23862 0.71054 0.0
H1766 H 0.52413 0.20924 0.69154 0.0
H1767 H 0.52923 0.20932 0.63174 0.0
H1768 H 0.52686 0.12417 0.56918 0.0
H1769 H 0.52277 0.15355 0.5887 0.0
H1770 H 0.50373 0.1472 0.64846 0.0
C1771 C 0.51708 0.21802 0.68389 0.0
C1772 C 0.52377 0.19577 0.63554 0.0
C1773 C 0.51411 0.23482 0.69472 0.0
C1774 C 0.52575 0.12476 0.58476 0.0
C1775 C 0.52352 0.14169 0.59608 0.0
C1776 C 0.50982 0.16058 0.6448 0.0
C1777 C 0.51126 0.21279 0.6633 0.0
C1778 C 0.5144 0.19509 0.65168 0.0
C1779 C 0.52187 0.14306 0.61641 0.0
C1780 C 0.51936 0.1611 0.62863 0.0
H1781 H 0.49173 0.2496 0.65687 0.0
H1782 H 0.49752 0.22069 0.63795 0.0
H1783 H 0.5001 0.17645 0.66854 0.0
H1784 H 0.5246 0.09776 0.62059 0.0
H1785 H 0.52184 0.12729 0.64056 0.0
C1786 C 0.58608 0.81589 0.33248 0.0
C1787 C 0.58086 0.81568 0.35132 0.0
C1788 C 0.60383 0.817 0.32977 0.0
C1789 C 0.65077 0.82741 0.35686 0.0
H1790 H 0.65911 0.80106 0.30655 0.0
C1791 C 0.72117 0.81657 0.34114 0.0
C1792 C 0.72549 0.81807 0.3221 0.0
C1793 C 0.70398 0.81709 0.34549 0.0
C1794 C 0.65712 0.80871 0.32063 0.0
H1795 H 0.5907 0.8168 0.38224 0.0
H1796 H 0.62164 0.81832 0.37753 0.0
H1797 H 0.62894 0.80026 0.31276 0.0
H1798 H 0.71485 0.82156 0.29282 0.0
H1799 H 0.68513 0.82241 0.30031 0.0
H1800 H 0.67915 0.83544 0.36476 0.0
C1801 C 0.61199 0.81795 0.36477 0.0
C1802 C 0.63966 0.80831 0.32423 0.0
C1803 C 0.59415 0.81703 0.36752 0.0
C1804 C 0.71214 0.82037 0.30765 0.0
C1805 C 0.69496 0.8207 0.31193 0.0
C1806 C 0.6683 0.82766 0.3533 0.0
C1807 C 0.61714 0.81769 0.34575 0.0
C1808 C 0.63607 0.81781 0.34233 0.0
C1809 C 0.69049 0.81889 0.33086 0.0
C1810 C 0.67179 0.81845 0.33504 0.0
H1811 H 0.57636 0.81506 0.31962 0.0
H1812 H 0.60705 0.81732 0.31498 0.0
H1813 H 0.6488 0.8351 0.37091 0.0
H1814 H 0.73101 0.81474 0.35268 0.0
H1815 H 0.70114 0.81553 0.36019 0.0
C1816 C 0.07772 0.29065 0.49624 0.0
C1817 C 0.06912 0.30581 0.49936 0.0
C1818 C 0.07669 0.27752 0.50897 0.0
C1819 C 0.04464 0.25831 0.53906 0.0
H1820 H 0.07769 0.22662 0.55003 0.0
C1821 C 0.04762 0.18687 0.57449 0.0
C1822 C 0.03195 0.17485 0.5636 0.0
C1823 C 0.05362 0.20493 0.57034 0.0
C1824 C 0.0684 0.23552 0.54733 0.0
H1825 H 0.05468 0.32059 0.51939 0.0
H1826 H 0.0534 0.29811 0.54192 0.0
H1827 H 0.08774 0.25574 0.5375 0.0
H1828 H 0.00997 0.17244 0.54031 0.0
H1829 H 0.02041 0.20395 0.53304 0.0
H1830 H 0.02523 0.23797 0.54844 0.0
C1831 C 0.06036 0.2959 0.52933 0.0
C1832 C 0.07412 0.25209 0.54002 0.0
C1833 C 0.06117 0.30882 0.51651 0.0
C1834 C 0.02213 0.18139 0.54886 0.0
C1835 C 0.02804 0.19947 0.54482 0.0
C1836 C 0.03894 0.24179 0.54628 0.0
C1837 C 0.06721 0.27954 0.52508 0.0
C1838 C 0.06219 0.26346 0.53544 0.0
C1839 C 0.04395 0.21133 0.55536 0.0
C1840 C 0.05064 0.22999 0.55005 0.0
H1841 H 0.0839 0.28802 0.48309 0.0
H1842 H 0.08209 0.26505 0.50525 0.0
H1843 H 0.035 0.26656 0.53542 0.0
H1844 H 0.05553 0.18209 0.58581 0.0
H1845 H 0.06586 0.21383 0.57875 0.0
C1846 C 0.53229 0.25769 0.17586 0.0
C1847 C 0.52112 0.23949 0.17085 0.0
C1848 C 0.54867 0.26069 0.18792 0.0
C1849 C 0.58257 0.23536 0.20402 0.0
H1850 H 0.59941 0.28056 0.24509 0.0
C1851 C 0.6473 0.24661 0.25858 0.0
C1852 C 0.65853 0.26478 0.26216 0.0
C1853 C 0.6301 0.2434 0.24837 0.0
C1854 C 0.59493 0.26795 0.23357 0.0
H1855 H 0.51829 0.21013 0.17427 0.0
H1856 H 0.54683 0.21538 0.19545 0.0
H1857 H 0.57011 0.27519 0.22544 0.0
H1858 H 0.66036 0.29395 0.25832 0.0
H1859 H 0.63044 0.28827 0.2402 0.0
H1860 H 0.60742 0.22818 0.21202 0.0
C1861 C 0.54301 0.22732 0.19001 0.0
C1862 C 0.57817 0.26488 0.22232 0.0
C1863 C 0.52665 0.22432 0.17795 0.0
C1864 C 0.65209 0.27974 0.25558 0.0
C1865 C 0.63489 0.27654 0.24541 0.0
C1866 C 0.59932 0.23843 0.21526 0.0
C1867 C 0.55422 0.24553 0.19508 0.0
C1868 C 0.57184 0.24859 0.20737 0.0
C1869 C 0.62375 0.25831 0.24157 0.0
C1870 C 0.60572 0.25479 0.2301 0.0
H1871 H 0.52869 0.26946 0.16993 0.0
H1872 H 0.55718 0.2748 0.19119 0.0
H1873 H 0.57818 0.22283 0.19239 0.0
H1874 H 0.65193 0.23477 0.26333 0.0
H1875 H 0.62175 0.22924 0.24581 0.0
C1876 C 0.54054 0.8803 0.98027 0.0
C1877 C 0.55239 0.87731 0.96678 0.0
C1878 C 0.54142 0.8984 0.99111 0.0
C1879 C 0.55618 0.94867 0.98813 0.0
H1880 H 0.53986 0.95632 0.03924 0.0
C1881 C 0.52186 0.0088 0.01112 0.0
C1882 C 0.52441 0.01818 0.03099 0.0
C1883 C 0.52911 0.9931 0.00576 0.0
C1884 C 0.54476 0.95456 0.02515 0.0
H1885 H 0.57454 0.89113 0.95435 0.0
H1886 H 0.57657 0.92272 0.97378 0.0
H1887 H 0.54669 0.92592 0.02625 0.0
H1888 H 0.53652 0.01851 0.06095 0.0
H1889 H 0.54941 0.99081 0.05154 0.0
H1890 H 0.55425 0.97726 0.987 0.0
C1891 C 0.56646 0.91101 0.97583 0.0
C1892 C 0.54847 0.93704 0.01757 0.0
C1893 C 0.56549 0.89283 0.96486 0.0
C1894 C 0.53438 0.01151 0.04551 0.0
C1895 C 0.5417 0.99567 0.04012 0.0
C1896 C 0.55263 0.96619 0.99578 0.0
C1897 C 0.55422 0.91408 0.98885 0.0
C1898 C 0.55355 0.93363 0.99861 0.0
C1899 C 0.53919 0.98635 0.02012 0.0
C1900 C 0.54617 0.9691 0.01399 0.0
H1901 H 0.5303 0.86865 0.98222 0.0
H1902 H 0.53155 0.90017 1.00067 0.0
H1903 H 0.56001 0.94663 0.97349 0.0
H1904 H 0.51422 0.01358 0.99957 0.0
H1905 H 0.5265 0.98604 0.99032 0.0
C1906 C 0.95433 0.79378 0.71574 0.0
C1907 C 0.97194 0.80413 0.72096 0.0
C1908 C 0.94371 0.79064 0.73035 0.0
C1909 C 0.94401 0.7951 0.78518 0.0
H1910 H 0.89642 0.80231 0.77136 0.0
C1911 C 0.87378 0.79398 0.8186 0.0
C1912 C 0.87979 0.80628 0.83707 0.0
C1913 C 0.88551 0.7906 0.80533 0.0
C1914 C 0.90957 0.79996 0.7754 0.0
H1915 H 0.99251 0.8185 0.74567 0.0
H1916 H 0.97382 0.81359 0.77119 0.0
H1917 H 0.91596 0.80186 0.74649 0.0
H1918 H 0.90294 0.82426 0.85637 0.0
H1919 H 0.92357 0.81851 0.83299 0.0
H1920 H 0.93759 0.79398 0.81445 0.0
C1921 C 0.96826 0.80755 0.75583 0.0
C1922 C 0.9208 0.79963 0.76109 0.0
C1923 C 0.97898 0.81044 0.74118 0.0
C1924 C 0.89796 0.81467 0.84226 0.0
C1925 C 0.90976 0.81127 0.82894 0.0
C1926 C 0.93276 0.79559 0.7996 0.0
C1927 C 0.95033 0.79807 0.75055 0.0
C1928 C 0.9382 0.79726 0.76575 0.0
C1929 C 0.90356 0.79958 0.81013 0.0
C1930 C 0.91543 0.79808 0.79485 0.0
H1931 H 0.94857 0.78846 0.70034 0.0
H1932 H 0.93012 0.7828 0.72574 0.0
H1933 H 0.95726 0.79305 0.78926 0.0
H1934 H 0.85982 0.78761 0.81399 0.0
H1935 H 0.88035 0.78135 0.79105 0.0
C1936 C 0.13883 0.03775 0.88688 0.0
C1937 C 0.13581 0.04739 0.8711 0.0
C1938 C 0.12898 0.03881 0.90287 0.0
C1939 C 0.10086 0.06799 0.92906 0.0
H1940 H 0.08279 0.02252 0.94899 0.0
C1941 C 0.05301 0.07088 0.98766 0.0
C1942 C 0.05304 0.05921 1.00198 0.0
C1943 C 0.06205 0.06818 0.97125 0.0
C1944 C 0.08784 0.03551 0.94393 0.0
H1945 H 0.12003 0.06604 0.86037 0.0
H1946 H 0.10338 0.0683 0.88824 0.0
H1947 H 0.10117 0.02097 0.92264 0.0
H1948 H 0.06299 0.03548 0.01014 0.0
H1949 H 0.07903 0.03082 0.98182 0.0
H1950 H 0.0882 0.08276 0.95054 0.0
C1951 C 0.11331 0.05981 0.8883 0.0
C1952 C 0.09846 0.03458 0.92863 0.0
C1953 C 0.12293 0.0585 0.8722 0.0
C1954 C 0.06211 0.04434 0.99907 0.0
C1955 C 0.07149 0.04181 0.98277 0.0
C1956 C 0.09048 0.06899 0.94449 0.0
C1957 C 0.11595 0.0498 0.90385 0.0
C1958 C 0.10506 0.05078 0.92077 0.0
C1959 C 0.07208 0.05403 0.96875 0.0
C1960 C 0.08351 0.05275 0.95219 0.0
H1961 H 0.14846 0.0289 0.8866 0.0
H1962 H 0.13163 0.03102 0.91453 0.0
H1963 H 0.10585 0.08091 0.92383 0.0
H1964 H 0.0465 0.08272 0.98957 0.0
H1965 H 0.06143 0.07763 0.96077 0.0
C1966 C 0.73065 0.3845 0.61942 0.0
C1967 C 0.73728 0.37715 0.60244 0.0
C1968 C 0.73234 0.3766 0.63663 0.0
C1969 C 0.76064 0.34799 0.66022 0.0
H1970 H 0.72931 0.34969 0.69984 0.0
C1971 C 0.77143 0.31696 0.73215 0.0
C1972 C 0.76909 0.32808 0.74991 0.0
C1973 C 0.76671 0.32186 0.71371 0.0
C1974 C 0.73825 0.34922 0.68896 0.0
H1975 H 0.74949 0.35482 0.58961 0.0
H1976 H 0.75154 0.34044 0.61897 0.0
H1977 H 0.72124 0.35914 0.66827 0.0
H1978 H 0.75998 0.35322 0.76197 0.0
H1979 H 0.75183 0.36161 0.73002 0.0
H1980 H 0.77759 0.338 0.68091 0.0
C1981 C 0.74573 0.35278 0.61949 0.0
C1982 C 0.73364 0.35468 0.67082 0.0
C1983 C 0.7443 0.36084 0.60249 0.0
C1984 C 0.76203 0.34427 0.7487 0.0
C1985 C 0.75718 0.34903 0.7303 0.0
C1986 C 0.76516 0.34238 0.67826 0.0
C1987 C 0.74052 0.36102 0.63714 0.0
C1988 C 0.74481 0.35427 0.65619 0.0
C1989 C 0.75936 0.33786 0.71254 0.0
C1990 C 0.75412 0.34307 0.69295 0.0
H1991 H 0.72544 0.39724 0.61996 0.0
H1992 H 0.7282 0.38346 0.64986 0.0
H1993 H 0.76988 0.34787 0.64966 0.0
H1994 H 0.77675 0.30437 0.73245 0.0
H1995 H 0.7685 0.31287 0.70032 0.0
C1996 C 0.4693 0.12853 0.38666 0.0
C1997 C 0.47043 0.11732 0.36844 0.0
C1998 C 0.47438 0.12313 0.40466 0.0
C1999 C 0.47898 0.08106 0.42575 0.0
H2000 H 0.50711 0.11738 0.4711 0.0
C2001 C 0.48574 0.06457 0.50481 0.0
C2002 C 0.50284 0.06902 0.51583 0.0
C2003 C 0.48259 0.07085 0.48692 0.0
C2004 C 0.49933 0.10707 0.45853 0.0
H2005 H 0.47793 0.09172 0.3549 0.0
H2006 H 0.48657 0.08219 0.38629 0.0
H2007 H 0.50034 0.12767 0.43955 0.0
H2008 H 0.53002 0.08387 0.51703 0.0
H2009 H 0.52444 0.09518 0.48575 0.0
H2010 H 0.47778 0.06051 0.44471 0.0
C2011 C 0.48175 0.09516 0.38663 0.0
C2012 C 0.49534 0.11298 0.44052 0.0
C2013 C 0.47688 0.10067 0.36865 0.0
C2014 C 0.51671 0.08023 0.50881 0.0
C2015 C 0.5135 0.08673 0.49097 0.0
C2016 C 0.48277 0.07522 0.44379 0.0
C2017 C 0.4805 0.10628 0.40485 0.0
C2018 C 0.48509 0.10004 0.42393 0.0
C2019 C 0.49642 0.08192 0.47972 0.0
C2020 C 0.49293 0.08815 0.46041 0.0
H2021 H 0.46447 0.14149 0.38703 0.0
H2022 H 0.47313 0.13193 0.41843 0.0
H2023 H 0.47095 0.07078 0.41331 0.0
H2024 H 0.47478 0.05599 0.50988 0.0
H2025 H 0.46925 0.06711 0.47875 0.0
C2026 C 0.80364 0.66883 0.05024 0.0
C2027 C 0.78859 0.6574 0.03752 0.0
C2028 C 0.80186 0.68058 0.06766 0.0
C2029 C 0.77001 0.70513 0.08993 0.0
H2030 H 0.80088 0.70934 0.1395 0.0
C2031 C 0.75782 0.74561 0.16407 0.0
C2032 C 0.77265 0.75664 0.17739 0.0
C2033 C 0.75997 0.73352 0.1471 0.0
C2034 C 0.7923 0.70851 0.12572 0.0
H2035 H 0.75986 0.64914 0.0334 0.0
H2036 H 0.7568 0.66961 0.06381 0.0
H2037 H 0.80425 0.68786 0.10986 0.0
H2038 H 0.80137 0.76386 0.18322 0.0
H2039 H 0.80515 0.74285 0.15344 0.0
H2040 H 0.75815 0.72585 0.10565 0.0
C2041 C 0.76996 0.66959 0.06017 0.0
C2042 C 0.79421 0.69618 0.10876 0.0
C2043 C 0.77174 0.65777 0.04281 0.0
C2044 C 0.78969 0.75536 0.17334 0.0
C2045 C 0.79185 0.74331 0.15631 0.0
C2046 C 0.76814 0.7175 0.10684 0.0
C2047 C 0.78499 0.68124 0.07269 0.0
C2048 C 0.78303 0.69431 0.09072 0.0
C2049 C 0.777 0.73222 0.14301 0.0
C2050 C 0.77922 0.71929 0.12496 0.0
H2051 H 0.81682 0.6689 0.04665 0.0
H2052 H 0.81367 0.68951 0.07695 0.0
H2053 H 0.7614 0.70424 0.07614 0.0
H2054 H 0.74452 0.74606 0.16697 0.0
H2055 H 0.74825 0.72494 0.13736 0.0
C2056 C 0.11248 0.01115 0.74422 0.0
C2057 C 0.12742 0.02439 0.75532 0.0
C2058 C 0.10555 0.01294 0.7251 0.0
C2059 C 0.10383 0.04843 0.6925 0.0
H2060 H 0.0844 1.00389 0.65121 0.0
C2061 C 0.05786 0.05159 0.62133 0.0
C2062 C 0.05973 0.04108 0.60299 0.0
C2063 C 0.06706 0.04948 0.63924 0.0
C2064 C 0.08988 0.01652 0.66247 0.0
H2065 H 0.14686 0.04986 0.75462 0.0
H2066 H 0.13476 0.05301 0.72124 0.0
H2067 H 0.09913 1.00035 0.68318 0.0
H2068 H 0.07285 0.01989 0.58936 0.0
H2069 H 0.08889 0.01612 0.62067 0.0
H2070 H 0.09458 0.06461 0.67182 0.0
C2071 C 0.12833 0.04125 0.72744 0.0
C2072 C 0.0982 0.01447 0.68095 0.0
C2073 C 0.13537 0.03937 0.74657 0.0
C2074 C 0.07104 0.02823 0.60315 0.0
C2075 C 0.0802 0.02601 0.62115 0.0
C2076 C 0.09541 0.05047 0.67408 0.0
C2077 C 0.11324 0.0281 0.71644 0.0
C2078 C 0.10519 0.03038 0.69632 0.0
C2079 C 0.07842 0.03669 0.63948 0.0
C2080 C 0.08816 0.03453 0.65882 0.0
H2081 H 0.10594 0.99942 0.75039 0.0
H2082 H 0.09382 1.00265 0.71731 0.0
H2083 H 0.10888 0.06102 0.70393 0.0
H2084 H 0.04928 0.06162 0.62193 0.0
H2085 H 0.06507 0.05774 0.65298 0.0
C2086 C 0.73013 0.38661 0.48767 0.0
C2087 C 0.73668 0.37849 0.5033 0.0
C2088 C 0.73088 0.37878 0.46783 0.0
C2089 C 0.73825 0.33637 0.43413 0.0
H2090 H 0.76103 0.37378 0.40606 0.0
C2091 C 0.77023 0.31564 0.36328 0.0
C2092 C 0.77164 0.32807 0.34974 0.0
C2093 C 0.76317 0.32028 0.38089 0.0
C2094 C 0.75429 0.36303 0.41332 0.0
H2095 H 0.74795 0.35506 0.51024 0.0
H2096 H 0.74875 0.34117 0.47583 0.0
H2097 H 0.75242 0.38415 0.43797 0.0
H2098 H 0.76555 0.35428 0.34319 0.0
H2099 H 0.7524 0.36176 0.37287 0.0
H2100 H 0.74009 0.3152 0.40943 0.0
C2101 C 0.74317 0.35362 0.47877 0.0
C2102 C 0.74937 0.36907 0.43179 0.0
C2103 C 0.7427 0.3616 0.49854 0.0
C2104 C 0.76487 0.34453 0.3535 0.0
C2105 C 0.75749 0.34894 0.37074 0.0
C2106 C 0.74297 0.3303 0.41546 0.0
C2107 C 0.73791 0.3625 0.46317 0.0
C2108 C 0.74144 0.35586 0.44258 0.0
C2109 C 0.75708 0.3373 0.38514 0.0
C2110 C 0.75122 0.34353 0.40477 0.0
H2111 H 0.72565 0.39975 0.49082 0.0
H2112 H 0.72654 0.38588 0.45617 0.0
H2113 H 0.73211 0.32578 0.44199 0.0
H2114 H 0.77545 0.30291 0.3608 0.0
H2115 H 0.76323 0.3109 0.39151 0.0
C2116 C 0.45901 0.10927 0.24562 0.0
C2117 C 0.45227 0.09525 0.25618 0.0
C2118 C 0.46405 0.10419 0.22702 0.0
C2119 C 0.45823 0.06533 0.18395 0.0
H2120 H 0.50461 0.0916 0.17633 0.0
C2121 C 0.48353 0.06211 0.10757 0.0
C2122 C 0.50121 0.06053 0.10721 0.0
C2123 C 0.4768 0.06437 0.12555 0.0
C2124 C 0.49168 0.08405 0.17827 0.0
H2125 H 0.44487 0.06484 0.25506 0.0
H2126 H 0.4534 0.05599 0.22239 0.0
H2127 H 0.49388 0.09994 0.20775 0.0
H2128 H 0.52549 0.05944 0.12547 0.0
H2129 H 0.51376 0.06352 0.15681 0.0
H2130 H 0.456 0.04959 0.1543 0.0
C2131 C 0.45488 0.07091 0.22861 0.0
C2132 C 0.48546 0.08896 0.19618 0.0
C2133 C 0.45006 0.076 0.24735 0.0
C2134 C 0.5118 0.06054 0.12516 0.0
C2135 C 0.50513 0.06304 0.14316 0.0
C2136 C 0.46436 0.0606 0.16588 0.0
C2137 C 0.46224 0.08497 0.21841 0.0
C2138 C 0.46867 0.07968 0.19924 0.0
C2139 C 0.48766 0.06534 0.1436 0.0
C2140 C 0.48118 0.06988 0.16287 0.0
H2141 H 0.4609 0.12423 0.25195 0.0
H2142 H 0.46949 0.11533 0.21941 0.0
H2143 H 0.44522 0.05798 0.18586 0.0
H2144 H 0.47501 0.06218 0.09402 0.0
H2145 H 0.46331 0.06618 0.12542 0.0
C2146 C 0.79623 0.67983 0.94464 0.0
C2147 C 0.78195 0.66767 0.95 0.0
C2148 C 0.79331 0.69423 0.93442 0.0
C2149 C 0.75826 0.70658 0.90179 0.0
H2150 H 0.79214 0.75469 0.90886 0.0
C2151 C 0.76947 0.77894 0.8654 0.0
C2152 C 0.76609 0.7699 0.84534 0.0
C2153 C 0.77016 0.76816 0.88042 0.0
C2154 C 0.78242 0.74145 0.90692 0.0
H2155 H 0.75345 0.6616 0.94945 0.0
H2156 H 0.74841 0.68683 0.93192 0.0
H2157 H 0.79582 0.733 0.93175 0.0
H2158 H 0.76075 0.74265 0.82521 0.0
H2159 H 0.76195 0.72404 0.85114 0.0
H2160 H 0.74491 0.71492 0.87697 0.0
C2161 C 0.76184 0.685 0.93524 0.0
C2162 C 0.78464 0.72892 0.91986 0.0
C2163 C 0.76474 0.67053 0.94532 0.0
C2164 C 0.76327 0.75002 0.84055 0.0
C2165 C 0.76385 0.73932 0.85543 0.0
C2166 C 0.75604 0.71908 0.88893 0.0
C2167 C 0.77605 0.69687 0.92943 0.0
C2168 C 0.7728 0.71114 0.91716 0.0
C2169 C 0.76729 0.74821 0.87553 0.0
C2170 C 0.76834 0.73642 0.89102 0.0
H2171 H 0.80967 0.67804 0.94801 0.0
H2172 H 0.80454 0.70291 0.92992 0.0
H2173 H 0.74896 0.69297 0.89913 0.0
H2174 H 0.77172 0.79427 0.86946 0.0
H2175 H 0.77283 0.77538 0.89582 0.0
C2176 C 0.89836 0.18282 0.04746 0.0
C2177 C 0.88299 0.17554 0.0551 0.0
C2178 C 0.91191 0.17263 0.04586 0.0
C2179 C 0.92728 0.1303 0.06135 0.0
H2180 H 0.95288 0.13274 0.0166 0.0
C2181 C 0.97104 0.07668 0.03892 0.0
C2182 C 0.98841 0.08502 0.03674 0.0
C2183 C 0.95802 0.08757 0.04007 0.0
C2184 C 0.94586 0.13191 0.0292 0.0
H2185 H 0.87028 0.15198 0.06763 0.0
H2186 H 0.8932 0.13422 0.06435 0.0
H2187 H 0.93147 0.15267 0.02198 0.0
H2188 H 1.00542 0.11113 0.03305 0.0
H2189 H 0.98264 0.12981 0.0343 0.0
H2190 H 0.94138 0.1091 0.06815 0.0
C2191 C 0.89525 0.14794 0.05995 0.0
C2192 C 0.93364 0.14352 0.03244 0.0
C2193 C 0.8819 0.15819 0.06176 0.0
C2194 C 0.99214 0.1042 0.03461 0.0
C2195 C 0.97908 0.11494 0.03534 0.0
C2196 C 0.93925 0.11848 0.0579 0.0
C2197 C 0.9104 0.15477 0.05168 0.0
C2198 C 0.92408 0.14292 0.04858 0.0
C2199 C 0.96197 0.10695 0.03866 0.0
C2200 C 0.94871 0.1191 0.04178 0.0
H2201 H 0.8997 0.1961 0.04214 0.0
H2202 H 0.92346 0.17871 0.03982 0.0
H2203 H 0.92069 0.12959 0.07426 0.0
H2204 H 0.96777 0.06207 0.04093 0.0
H2205 H 0.94493 0.08092 0.04247 0.0
C2206 C 0.37812 0.52951 0.13861 0.0
C2207 C 0.3615 0.52878 0.1278 0.0
C2208 C 0.39341 0.53292 0.12984 0.0
C2209 C 0.40822 0.52246 0.08345 0.0
H2210 H 0.45065 0.56112 0.10605 0.0
C2211 C 0.47232 0.52673 0.0482 0.0
C2212 C 0.48844 0.53231 0.0612 0.0
C2213 C 0.45643 0.52806 0.05533 0.0
C2214 C 0.43902 0.55006 0.09967 0.0
H2215 H 0.34776 0.53136 0.09954 0.0
H2216 H 0.37458 0.53676 0.08395 0.0
H2217 H 0.42366 0.561 0.12082 0.0
H2218 H 0.50077 0.54329 0.09175 0.0
H2219 H 0.47312 0.54463 0.10443 0.0
H2220 H 0.42362 0.51067 0.0631 0.0
C2221 C 0.37572 0.53503 0.09931 0.0
C2222 C 0.42354 0.55016 0.10803 0.0
C2223 C 0.36045 0.53206 0.10825 0.0
C2224 C 0.48847 0.53897 0.08143 0.0
C2225 C 0.4726 0.53994 0.08863 0.0
C2226 C 0.42379 0.52208 0.07532 0.0
C2227 C 0.39225 0.53522 0.10997 0.0
C2228 C 0.4081 0.53628 0.10008 0.0
C2229 C 0.45636 0.53467 0.07566 0.0
C2230 C 0.43947 0.53575 0.08348 0.0
H2231 H 0.37923 0.52695 0.15369 0.0
H2232 H 0.40604 0.53289 0.13826 0.0
H2233 H 0.39647 0.51147 0.07725 0.0
H2234 H 0.47203 0.52176 0.03247 0.0
H2235 H 0.44427 0.52417 0.04482 0.0
C2236 C 0.35549 0.62874 0.8137 0.0
C2237 C 0.35962 0.6178 0.79668 0.0
C2238 C 0.34847 0.64495 0.81273 0.0
C2239 C 0.32285 0.66913 0.78035 0.0
H2240 H 0.34314 0.71407 0.8209 0.0
C2241 C 0.2881 0.73385 0.7962 0.0
C2242 C 0.29874 0.75244 0.79961 0.0
C2243 C 0.29566 0.71767 0.79473 0.0
C2244 C 0.33728 0.70174 0.80938 0.0
H2245 H 0.35901 0.61593 0.76497 0.0
H2246 H 0.34603 0.64402 0.76314 0.0
H2247 H 0.35584 0.68591 0.81975 0.0
H2248 H 0.32602 0.76812 0.80423 0.0
H2249 H 0.33914 0.74013 0.80239 0.0
H2250 H 0.30395 0.68486 0.77035 0.0
C2251 C 0.34856 0.63991 0.7774 0.0
C2252 C 0.34456 0.68543 0.80877 0.0
C2253 C 0.35604 0.62374 0.77843 0.0
C2254 C 0.31727 0.75419 0.80173 0.0
C2255 C 0.32485 0.73802 0.80068 0.0
C2256 C 0.3153 0.68534 0.78123 0.0
C2257 C 0.34486 0.65097 0.79464 0.0
C2258 C 0.33749 0.66876 0.79429 0.0
C2259 C 0.3142 0.7194 0.797 0.0
C2260 C 0.32236 0.70199 0.79579 0.0
H2261 H 0.35801 0.62503 0.82816 0.0
H2262 H 0.34571 0.65276 0.82633 0.0
H2263 H 0.31689 0.65665 0.76905 0.0
H2264 H 0.2738 0.73172 0.79427 0.0
H2265 H 0.28691 0.70372 0.79206 0.0
C2266 C 0.26582 0.68454 0.55243 0.0
C2267 C 0.2774 0.675 0.54282 0.0
C2268 C 0.24921 0.67453 0.55486 0.0
C2269 C 0.21551 0.63017 0.53611 0.0
H2270 H 0.20295 0.63854 0.58907 0.0
C2271 C 0.15636 0.58108 0.55844 0.0
C2272 C 0.14621 0.58969 0.57118 0.0
C2273 C 0.17217 0.59163 0.5545 0.0
C2274 C 0.2061 0.6362 0.57412 0.0
H2275 H 0.2804 0.64765 0.52758 0.0
H2276 H 0.25138 0.63026 0.53172 0.0
H2277 H 0.23037 0.65724 0.58236 0.0
H2278 H 0.14434 0.61617 0.58936 0.0
H2279 H 0.17169 0.63462 0.5823 0.0
H2280 H 0.19119 0.60924 0.52778 0.0
C2281 C 0.25514 0.64545 0.53738 0.0
C2282 C 0.22183 0.64693 0.57029 0.0
C2283 C 0.2718 0.6554 0.53511 0.0
C2284 C 0.15209 0.60906 0.57979 0.0
C2285 C 0.16778 0.61963 0.57574 0.0
C2286 C 0.1997 0.61954 0.53988 0.0
C2287 C 0.2438 0.65485 0.54755 0.0
C2288 C 0.22673 0.64398 0.55128 0.0
C2289 C 0.17805 0.61105 0.56309 0.0
C2290 C 0.19483 0.62238 0.55896 0.0
H2291 H 0.26975 0.69963 0.55855 0.0
H2292 H 0.24064 0.68217 0.56259 0.0
H2293 H 0.2189 0.62773 0.52126 0.0
H2294 H 0.15218 0.56614 0.55169 0.0
H2295 H 0.17988 0.58451 0.54491 0.0
C2296 C 0.68023 0.96499 0.84053 0.0
C2297 C 0.66415 0.96115 0.82741 0.0
C2298 C 0.6904 0.9513 0.84115 0.0
C2299 C 0.68595 0.89955 0.8311 0.0
H2300 H 0.73733 0.91225 0.83802 0.0
C2301 C 0.72796 0.84294 0.82375 0.0
C2302 C 0.74457 0.84636 0.83575 0.0
C2303 C 0.71791 0.85679 0.82462 0.0
C2304 C 0.72301 0.90853 0.83646 0.0
H2305 H 0.64653 0.94009 0.80409 0.0
H2306 H 0.66442 0.91601 0.80514 0.0
H2307 H 0.72078 0.93678 0.83365 0.0
H2308 H 0.76327 0.86677 0.8587 0.0
H2309 H 0.74546 0.89105 0.86037 0.0
H2310 H 0.68819 0.87135 0.83405 0.0
C2311 C 0.66902 0.92967 0.81506 0.0
C2312 C 0.71351 0.92257 0.8338 0.0
C2313 C 0.65888 0.94352 0.81428 0.0
C2314 C 0.75047 0.86365 0.84939 0.0
C2315 C 0.74037 0.87763 0.85016 0.0
C2316 C 0.69546 0.88555 0.83385 0.0
C2317 C 0.68474 0.9333 0.82878 0.0
C2318 C 0.69486 0.91823 0.83097 0.0
C2319 C 0.72412 0.87448 0.83744 0.0
C2320 C 0.7141 0.8898 0.83638 0.0
H2321 H 0.68472 0.97846 0.8508 0.0
H2322 H 0.70235 0.95457 0.85197 0.0
H2323 H 0.67162 0.89581 0.82941 0.0
H2324 H 0.72302 0.82979 0.81304 0.0
H2325 H 0.70567 0.85404 0.81446 0.0
C2326 C 0.75449 0.00633 0.6181 0.0
C2327 C 0.76715 0.02082 0.63115 0.0
C2328 C 0.73913 0.01031 0.60865 0.0
C2329 C 0.71085 0.04548 0.61168 0.0
H2330 H 0.69637 0.02563 0.55524 0.0
C2331 C 0.65749 0.07201 0.56649 0.0
C2332 C 0.64434 0.05809 0.55339 0.0
C2333 C 0.67285 0.06738 0.57497 0.0
C2334 C 0.70015 0.03114 0.57103 0.0
H2335 H 0.77338 0.05072 0.64491 0.0
H2336 H 0.7467 0.05762 0.62846 0.0
H2337 H 0.72176 0.01702 0.57286 0.0
H2338 H 0.6375 0.02866 0.53805 0.0
H2339 H 0.66422 0.0205 0.55312 0.0
H2340 H 0.68929 0.05956 0.60993 0.0
C2341 C 0.74855 0.04317 0.62559 0.0
C2342 C 0.71466 0.02617 0.58114 0.0
C2343 C 0.7639 0.03922 0.63496 0.0
C2344 C 0.64729 0.03965 0.54828 0.0
C2345 C 0.66267 0.03502 0.55678 0.0
C2346 C 0.69637 0.05043 0.6016 0.0
C2347 C 0.73609 0.02882 0.61215 0.0
C2348 C 0.72023 0.03338 0.60155 0.0
C2349 C 0.67542 0.04872 0.57059 0.0
C2350 C 0.69091 0.04342 0.58114 0.0
H2351 H 0.75661 0.992 0.61483 0.0
H2352 H 0.72966 0.9989 0.59855 0.0
H2353 H 0.71464 0.05102 0.62746 0.0
H2354 H 0.65559 0.0863 0.57091 0.0
H2355 H 0.68258 0.07836 0.58528 0.0
C2356 C 0.34026 0.51178 0.80128 0.0
C2357 C 0.35693 0.51705 0.79526 0.0
C2358 C 0.33226 0.49258 0.80071 0.0
C2359 C 0.33731 0.44143 0.78404 0.0
H2360 H 0.30398 0.43087 0.82048 0.0
C2361 C 0.31652 0.36657 0.80544 0.0
C2362 C 0.29852 0.35939 0.80647 0.0
C2363 C 0.32262 0.38524 0.80248 0.0
C2364 C 0.31312 0.43347 0.81005 0.0
H2365 H 0.37816 0.50567 0.78386 0.0
H2366 H 0.36476 0.47245 0.78351 0.0
H2367 H 0.3166 0.46359 0.8186 0.0
H2368 H 0.27286 0.36669 0.80519 0.0
H2369 H 0.28359 0.39958 0.80063 0.0
H2370 H 0.33435 0.41107 0.77639 0.0
C2371 C 0.35734 0.48301 0.78809 0.0
C2372 C 0.32042 0.45248 0.80881 0.0
C2373 C 0.36516 0.50228 0.78823 0.0
C2374 C 0.28677 0.3716 0.80438 0.0
C2375 C 0.29299 0.39054 0.80188 0.0
C2376 C 0.33028 0.42244 0.78562 0.0
C2377 C 0.34078 0.47768 0.79465 0.0
C2378 C 0.33271 0.45701 0.79574 0.0
C2379 C 0.31106 0.39771 0.80088 0.0
C2380 C 0.31804 0.41808 0.79864 0.0
H2381 H 0.33345 0.52265 0.80684 0.0
H2382 H 0.31935 0.48961 0.80529 0.0
H2383 H 0.34631 0.44373 0.77343 0.0
H2384 H 0.32602 0.35769 0.80699 0.0
H2385 H 0.3366 0.39009 0.80198 0.0
C2386 C 0.15986 0.55121 0.30905 0.0
C2387 C 0.16411 0.54577 0.32733 0.0
C2388 C 0.17039 0.56705 0.30406 0.0
C2389 C 0.20369 0.6113 0.32658 0.0
H2390 H 0.21254 0.61064 0.27235 0.0
C2391 C 0.25223 0.67241 0.30509 0.0
C2392 C 0.24611 0.67912 0.28821 0.0
C2393 C 0.243 0.6555 0.30942 0.0
C2394 C 0.21009 0.61107 0.28753 0.0
H2395 H 0.18297 0.55268 0.3546 0.0
H2396 H 0.20148 0.58006 0.34575 0.0
H2397 H 0.19494 0.5824 0.28089 0.0
H2398 H 0.22587 0.67302 0.26225 0.0
H2399 H 0.20971 0.6435 0.26985 0.0
H2400 H 0.21889 0.63995 0.33321 0.0
C2401 C 0.1898 0.57229 0.33541 0.0
C2402 C 0.19996 0.59491 0.29242 0.0
C2403 C 0.17922 0.55651 0.34045 0.0
C2404 C 0.23083 0.66828 0.27545 0.0
C2405 C 0.22167 0.6513 0.27972 0.0
C2406 C 0.21389 0.6274 0.3217 0.0
C2407 C 0.18549 0.57781 0.31718 0.0
C2408 C 0.19657 0.59485 0.312 0.0
C2409 C 0.22751 0.64487 0.2969 0.0
C2410 C 0.21714 0.6275 0.30211 0.0
H2411 H 0.14828 0.54333 0.29861 0.0
H2412 H 0.16651 0.57105 0.29003 0.0
H2413 H 0.20109 0.6119 0.34172 0.0
H2414 H 0.26386 0.68052 0.3153 0.0
H2415 H 0.24793 0.6508 0.32267 0.0
C2416 C 0.5472 0.76736 0.42456 0.0
C2417 C 0.53076 0.77255 0.42508 0.0
C2418 C 0.55332 0.75692 0.43832 0.0
C2419 C 0.5462 0.74423 0.48742 0.0
H2420 H 0.56537 0.70039 0.46963 0.0
C2421 C 0.54762 0.68473 0.53266 0.0
C2422 C 0.56239 0.6763 0.53361 0.0
C2423 C 0.54589 0.69778 0.52019 0.0
C2424 C 0.56027 0.71275 0.47492 0.0
H2425 H 0.50803 0.7709 0.4408 0.0
H2426 H 0.51853 0.75291 0.46428 0.0
H2427 H 0.55894 0.72104 0.44643 0.0
H2428 H 0.58715 0.67551 0.52228 0.0
H2429 H 0.584 0.69814 0.50037 0.0
H2430 H 0.54713 0.73579 0.51573 0.0
C2431 C 0.52687 0.75699 0.45349 0.0
C2432 C 0.55662 0.72461 0.46162 0.0
C2433 C 0.52076 0.76723 0.43981 0.0
C2434 C 0.57546 0.68146 0.52179 0.0
C2435 C 0.57368 0.69447 0.50921 0.0
C2436 C 0.5498 0.73239 0.50066 0.0
C2437 C 0.5432 0.75165 0.45299 0.0
C2438 C 0.54915 0.74027 0.46758 0.0
C2439 C 0.55883 0.70276 0.50821 0.0
C2440 C 0.55654 0.71626 0.4945 0.0
H2441 H 0.55525 0.77117 0.41344 0.0
H2442 H 0.56601 0.75311 0.43755 0.0
H2443 H 0.54083 0.7564 0.49269 0.0
H2444 H 0.53706 0.68086 0.54114 0.0
H2445 H 0.53412 0.7036 0.51956 0.0
C2446 C 0.59229 0.32937 0.76027 0.0
C2447 C 0.5783 0.31313 0.75474 0.0
C2448 C 0.60977 0.32791 0.76632 0.0
C2449 C 0.63659 0.29486 0.7845 0.0
H2450 H 0.67572 0.32938 0.7705 0.0
C2451 C 0.7084 0.28273 0.79392 0.0
C2452 C 0.72298 0.29836 0.79902 0.0
C2453 C 0.69101 0.28523 0.79003 0.0
C2454 C 0.66503 0.31977 0.77484 0.0
H2455 H 0.5721 0.28244 0.75133 0.0
H2456 H 0.60255 0.27981 0.76163 0.0
H2457 H 0.64535 0.33184 0.76025 0.0
H2458 H 0.73045 0.32906 0.80415 0.0
H2459 H 0.69998 0.33358 0.79752 0.0
H2460 H 0.65626 0.2827 0.79894 0.0
C2461 C 0.59997 0.29383 0.76157 0.0
C2462 C 0.64746 0.32116 0.7689 0.0
C2463 C 0.58242 0.29531 0.7555 0.0
C2464 C 0.71958 0.31671 0.80049 0.0
C2465 C 0.70206 0.31925 0.79644 0.0
C2466 C 0.65414 0.29346 0.79041 0.0
C2467 C 0.614 0.31012 0.76706 0.0
C2468 C 0.63288 0.30867 0.77353 0.0
C2469 C 0.68746 0.3035 0.79095 0.0
C2470 C 0.6687 0.3058 0.78559 0.0
H2471 H 0.58978 0.3434 0.76001 0.0
H2472 H 0.61994 0.34087 0.7707 0.0
H2473 H 0.62592 0.28519 0.78879 0.0
H2474 H 0.71046 0.26836 0.79247 0.0
H2475 H 0.68037 0.27268 0.7856 0.0
C2476 C 0.03533 0.37296 0.92025 0.0
C2477 C 0.02146 0.35835 0.9227 0.0
C2478 C 0.03924 0.39079 0.93307 0.0
C2479 C 0.03277 0.41408 0.98288 0.0
H2480 H 0.03878 0.46047 0.96159 0.0
C2481 C 0.02375 0.48416 0.02776 0.0
C2482 C 0.03499 0.50138 0.02648 0.0
C2483 C 0.02427 0.46713 0.01544 0.0
C2484 C 0.0374 0.44769 0.96784 0.0
H2485 H 1.00103 0.35114 0.94083 0.0
H2486 H 1.00781 0.38184 0.96285 0.0
H2487 H 0.03621 0.42996 0.93944 0.0
H2488 H 0.05572 0.51404 0.01115 0.0
H2489 H 0.05666 0.48423 0.98968 0.0
H2490 H 0.03368 0.43161 0.01117 0.0
C2491 C 0.01578 0.37961 0.95119 0.0
C2492 C 0.03594 0.43019 0.95512 0.0
C2493 C 0.0118 0.36197 0.93838 0.0
C2494 C 0.04685 0.50107 0.01257 0.0
C2495 C 0.04733 0.48398 1.00016 0.0
C2496 C 0.03424 0.4315 0.99555 0.0
C2497 C 0.02951 0.39428 0.94874 0.0
C2498 C 0.03319 0.41313 0.96243 0.0
C2499 C 0.03604 0.46678 1.00145 0.0
C2500 C 0.03618 0.44851 0.98815 0.0
H2501 H 0.04303 0.3707 0.90833 0.0
H2502 H 0.04996 0.40179 0.93083 0.0
H2503 H 0.03104 0.40127 0.98909 0.0
H2504 H 0.01439 0.48378 0.0382 0.0
H2505 H 0.01516 0.45425 0.01665 0.0
C2506 C 0.95378 0.7987 0.23581 0.0
C2507 C 0.96734 0.79398 0.2481 0.0
C2508 C 0.93678 0.79784 0.24105 0.0
C2509 C 0.90624 0.77913 0.27529 0.0
H2510 H 0.88169 0.81736 0.26082 0.0
C2511 C 0.83971 0.78993 0.30312 0.0
C2512 C 0.82696 0.79494 0.28995 0.0
C2513 C 0.85662 0.7889 0.29821 0.0
C2514 C 0.88817 0.80639 0.2648 0.0
H2515 H 0.97325 0.78441 0.2757 0.0
H2516 H 0.94365 0.78311 0.28504 0.0
H2517 H 0.91109 0.81729 0.25234 0.0
H2518 H 0.82219 0.80234 0.26094 0.0
H2519 H 0.85137 0.80045 0.25239 0.0
H2520 H 0.88324 0.76845 0.28801 0.0
C2521 C 0.9461 0.78724 0.27108 0.0
C2522 C 0.90518 0.80631 0.25987 0.0
C2523 C 0.96318 0.78803 0.26574 0.0
C2524 C 0.83158 0.79852 0.27156 0.0
C2525 C 0.84847 0.79756 0.2667 0.0
C2526 C 0.8892 0.77926 0.28031 0.0
C2527 C 0.93264 0.7924 0.25893 0.0
C2528 C 0.91452 0.79259 0.26484 0.0
C2529 C 0.8614 0.79295 0.28 0.0
C2530 C 0.87979 0.79281 0.275 0.0
H2531 H 0.9563 0.80347 0.22217 0.0
H2532 H 0.92687 0.80152 0.23095 0.0
H2533 H 0.91276 0.76819 0.27928 0.0
H2534 H 0.83674 0.78712 0.31744 0.0
H2535 H 0.86613 0.78543 0.30897 0.0
C2536 C 0.49382 0.33358 0.12846 0.0
C2537 C 0.50222 0.31892 0.13238 0.0
C2538 C 0.50137 0.34693 0.11782 0.0
C2539 C 0.53204 0.35685 0.08276 0.0
H2540 H 0.53682 0.40936 0.10836 0.0
C2541 C 0.56339 0.43909 0.07445 0.0
C2542 C 0.55515 0.43902 0.0552 0.0
C2543 C 0.55971 0.42295 0.08296 0.0
C2544 C 0.53578 0.39478 0.10113 0.0
H2545 H 0.52466 0.30622 0.12721 0.0
H2546 H 0.5377 0.32955 0.10831 0.0
H2547 H 0.52385 0.38381 0.12444 0.0
H2548 H 0.53754 0.42151 0.02929 0.0
H2549 H 0.53131 0.39327 0.0441 0.0
H2550 H 0.54366 0.36797 0.05918 0.0
C2551 C 0.52535 0.33068 0.11368 0.0
C2552 C 0.52817 0.38017 0.11023 0.0
C2553 C 0.51791 0.31741 0.12456 0.0
C2554 C 0.54422 0.42201 0.04409 0.0
C2555 C 0.54062 0.40582 0.05258 0.0
C2556 C 0.53947 0.37153 0.07348 0.0
C2557 C 0.51735 0.34582 0.11065 0.0
C2558 C 0.52606 0.36109 0.10106 0.0
C2559 C 0.54781 0.40638 0.07234 0.0
C2560 C 0.54133 0.39064 0.08256 0.0
H2561 H 0.48172 0.33516 0.13419 0.0
H2562 H 0.49483 0.35835 0.11545 0.0
H2563 H 0.53053 0.34222 0.07542 0.0
H2564 H 0.57217 0.45185 0.08324 0.0
H2565 H 0.56566 0.42365 0.09812 0.0
C2566 C 0.01532 0.3339 0.41507 0.0
C2567 C 0.03216 0.34079 0.4104 0.0
C2568 C 1.00013 0.33541 0.40318 0.0
C2569 C 0.98417 0.33951 0.35227 0.0
H2570 H 0.94265 0.3482 0.37522 0.0
C2571 C 0.91705 0.34359 0.30751 0.0
C2572 C 0.90189 0.33342 0.31341 0.0
C2573 C 0.93385 0.34527 0.31825 0.0
C2574 C 0.95414 0.34568 0.36862 0.0
H2575 H 0.04637 0.35522 0.38999 0.0
H2576 H 0.01973 0.35807 0.36929 0.0
H2577 H 0.97052 0.35155 0.39693 0.0
H2578 H 0.89249 0.31656 0.33476 0.0
H2579 H 0.92171 0.3193 0.35322 0.0
H2580 H 0.9676 0.33359 0.3239 0.0
C2581 C 0.01831 0.35126 0.38201 0.0
C2582 C 0.97008 0.34759 0.38103 0.0
C2583 C 0.03354 0.34972 0.39392 0.0
C2584 C 0.90391 0.32427 0.32965 0.0
C2585 C 0.92061 0.32606 0.34041 0.0
C2586 C 0.9682 0.33773 0.33981 0.0
C2587 C 1.00143 0.34389 0.38638 0.0
C2588 C 0.98516 0.34408 0.37304 0.0
C2589 C 0.93566 0.33698 0.33514 0.0
C2590 C 0.95297 0.34035 0.34794 0.0
H2591 H 0.01379 0.32676 0.42753 0.0
H2592 H 0.98733 0.3293 0.40678 0.0
H2593 H 0.99552 0.33655 0.34567 0.0
H2594 H 0.91586 0.35073 0.295 0.0
H2595 H 0.94529 0.35373 0.31388 0.0
C2596 C 0.98487 0.73901 0.64489 0.0
C2597 C 0.99631 0.75703 0.65105 0.0
C2598 C 0.991 0.72356 0.63575 0.0
C2599 C 0.03199 0.70651 0.62937 0.0
H2600 H 1.00064 0.66877 0.58744 0.0
C2601 C 0.04361 0.63158 0.60756 0.0
C2602 C 0.03954 0.62225 0.58761 0.0
C2603 C 0.03954 0.64918 0.61339 0.0
C2604 C 0.00967 0.67932 0.5989 0.0
H2605 H 0.02327 0.77289 0.6525 0.0
H2606 H 0.03388 0.74598 0.6363 0.0
H2607 H 0.99121 0.69743 0.60118 0.0
H2608 H 0.02815 0.624 0.558 0.0
H2609 H 0.02108 0.65513 0.5682 0.0
H2610 H 0.05053 0.68854 0.62695 0.0
C2611 C 0.02021 0.74373 0.63879 0.0
C2612 C 1.00416 0.69562 0.607 0.0
C2613 C 0.01411 0.75918 0.64807 0.0
C2614 C 0.03146 0.63096 0.57347 0.0
C2615 C 0.02735 0.64869 0.57934 0.0
C2616 C 0.03753 0.69029 0.6212 0.0
C2617 C 1.00869 0.72575 0.6324 0.0
C2618 C 0.01511 0.70921 0.62264 0.0
C2619 C 0.03131 0.65795 0.59941 0.0
C2620 C 0.02627 0.67627 0.6062 0.0
H2621 H 0.97111 0.7368 0.64704 0.0
H2622 H 0.98186 0.70984 0.63146 0.0
H2623 H 0.04075 0.7166 0.64144 0.0
H2624 H 0.04974 0.62516 0.61882 0.0
H2625 H 0.04243 0.65565 0.62901 0.0
C2626 C 0.59545 0.85821 0.89938 0.0
C2627 C 0.60318 0.8578 0.91864 0.0
C2628 C 0.60296 0.85154 0.88292 0.0
C2629 C 0.61751 0.82481 0.85214 0.0
H2630 H 0.66691 0.84716 0.85152 0.0
C2631 C 0.66346 0.79296 0.80186 0.0
C2632 C 0.67526 0.8057 0.79369 0.0
C2633 C 0.65233 0.79962 0.81455 0.0
C2634 C 0.65306 0.84092 0.85142 0.0
H2635 H 0.6253 0.85133 0.93616 0.0
H2636 H 0.63886 0.84011 0.90732 0.0
H2637 H 0.65264 0.85781 0.87978 0.0
H2638 H 0.68298 0.83519 0.79072 0.0
H2639 H 0.66375 0.84677 0.8131 0.0
H2640 H 0.61814 0.80744 0.82406 0.0
C2641 C 0.62666 0.84501 0.90492 0.0
C2642 C 0.64498 0.84688 0.86764 0.0
C2643 C 0.6189 0.8513 0.92135 0.0
C2644 C 0.67442 0.825 0.79707 0.0
C2645 C 0.66347 0.83169 0.80996 0.0
C2646 C 0.62572 0.81855 0.83607 0.0
C2647 C 0.61872 0.84504 0.88555 0.0
C2648 C 0.62716 0.83883 0.86819 0.0
C2649 C 0.65281 0.81915 0.81939 0.0
C2650 C 0.64358 0.82654 0.83558 0.0
H2651 H 0.58374 0.86398 0.89709 0.0
H2652 H 0.59676 0.852 0.86817 0.0
H2653 H 0.60375 0.8184 0.85225 0.0
H2654 H 0.66335 0.77791 0.79915 0.0
H2655 H 0.64413 0.78961 0.82149 0.0
C2656 C 0.43545 0.59429 0.72853 0.0
C2657 C 0.42599 0.5785 0.73511 0.0
C2658 C 0.44538 0.59203 0.71284 0.0
C2659 C 0.46868 0.5579 0.68633 0.0
H2660 H 0.47069 0.59067 0.64739 0.0
C2661 C 0.50371 0.54253 0.61753 0.0
C2662 C 0.51086 0.557 0.60762 0.0
C2663 C 0.49454 0.54614 0.63356 0.0
C2664 C 0.47063 0.58155 0.65827 0.0
H2665 H 0.41967 0.54773 0.72974 0.0
H2666 H 0.43712 0.54373 0.70246 0.0
H2667 H 0.45176 0.59428 0.67299 0.0
H2668 H 0.51405 0.58706 0.60751 0.0
H2669 H 0.4985 0.59369 0.63617 0.0
H2670 H 0.48781 0.54547 0.67218 0.0
C2671 C 0.4368 0.55799 0.70952 0.0
C2672 C 0.45958 0.58356 0.67301 0.0
C2673 C 0.42659 0.56026 0.72509 0.0
C2674 C 0.50906 0.57558 0.61492 0.0
C2675 C 0.4998 0.57927 0.6312 0.0
C2676 C 0.47987 0.55604 0.6718 0.0
C2677 C 0.44654 0.57387 0.70322 0.0
C2678 C 0.45825 0.57165 0.68722 0.0
C2679 C 0.49207 0.56449 0.64066 0.0
C2680 C 0.48096 0.56764 0.65724 0.0
H2681 H 0.43546 0.6086 0.73579 0.0
H2682 H 0.45269 0.60466 0.70872 0.0
H2683 H 0.46846 0.54871 0.69716 0.0
H2684 H 0.50457 0.52797 0.61229 0.0
H2685 H 0.4887 0.53413 0.63977 0.0
C2686 C 0.81771 0.22803 0.99002 0.0
C2687 C 0.83224 0.23861 0.00416 0.0
C2688 C 0.81141 0.23547 0.97381 0.0
C2689 C 0.8087 0.27907 0.955 0.0
H2690 H 0.80487 0.24761 0.90309 0.0
C2691 C 0.79166 0.3065 0.88168 0.0
C2692 C 0.7833 0.29318 0.86447 0.0
C2693 C 0.79707 0.3005 0.89932 0.0
C2694 C 0.80542 0.25653 0.91739 0.0
H2695 H 0.85108 0.26574 0.01254 0.0
H2696 H 0.83966 0.27897 0.98445 0.0
H2697 H 0.81484 0.23626 0.93267 0.0
H2698 H 0.77322 0.26314 0.85266 0.0
H2699 H 0.78152 0.25275 0.8834 0.0
H2700 H 0.7987 0.2991 0.93991 0.0
C2701 C 0.83332 0.26477 0.9859 0.0
C2702 C 0.81133 0.25 0.93442 0.0
C2703 C 0.83989 0.25717 1.00197 0.0
C2704 C 0.77978 0.27379 0.86558 0.0
C2705 C 0.7848 0.26782 0.88327 0.0
C2706 C 0.80241 0.28548 0.93796 0.0
C2707 C 0.81922 0.25386 0.97143 0.0
C2708 C 0.81305 0.26116 0.95343 0.0
C2709 C 0.79397 0.281 0.90036 0.0
C2710 C 0.80062 0.2743 0.9188 0.0
H2711 H 0.81148 0.21368 0.99109 0.0
H2712 H 0.80045 0.22676 0.96301 0.0
H2713 H 0.80979 0.28796 0.96947 0.0
H2714 H 0.79476 0.32154 0.88128 0.0
H2715 H 0.80423 0.3112 0.91189 0.0
C2716 C 0.07606 0.49671 0.24925 0.0
C2717 C 0.0931 0.49414 0.25565 0.0
C2718 C 0.07183 0.50109 0.23055 0.0
C2719 C 0.09277 0.52139 0.19089 0.0
H2720 H 0.04497 0.50453 0.16192 0.0
C2721 C 0.06891 0.55652 0.12687 0.0
C2722 C 0.05718 0.54514 0.11039 0.0
C2723 C 0.07325 0.54911 0.14378 0.0
C2724 C 0.05845 0.50922 0.16964 0.0
H2725 H 0.1189 0.49362 0.24701 0.0
H2726 H 0.1114 0.50086 0.21411 0.0
H2727 H 0.05285 0.49265 0.19193 0.0
H2728 H 0.04061 0.51711 0.09873 0.0
H2729 H 0.04843 0.50396 0.12812 0.0
H2730 H 0.0985 0.5376 0.16836 0.0
C2731 C 0.10139 0.49986 0.22377 0.0
C2732 C 0.06293 0.50258 0.18706 0.0
C2733 C 0.10567 0.49556 0.24259 0.0
C2734 C 0.04967 0.52622 0.11125 0.0
C2735 C 0.05412 0.51874 0.12815 0.0
C2736 C 0.08833 0.52793 0.17341 0.0
C2737 C 0.08445 0.50292 0.21758 0.0
C2738 C 0.08008 0.50878 0.19813 0.0
C2739 C 0.06607 0.53005 0.14463 0.0
C2740 C 0.07103 0.52219 0.16268 0.0
H2741 H 0.06602 0.4958 0.25889 0.0
H2742 H 0.05876 0.50364 0.22657 0.0
H2743 H 0.10606 0.52666 0.19902 0.0
H2744 H 0.0748 0.5712 0.1267 0.0
H2745 H 0.08215 0.55844 0.15627 0.0
C2746 C 0.82714 0.94078 0.58316 0.0
C2747 C 0.81731 0.95369 0.5909 0.0
C2748 C 0.82096 0.92869 0.56479 0.0
C2749 C 0.79207 0.92384 0.51762 0.0
H2750 H 0.79796 0.87178 0.51033 0.0
C2751 C 0.79414 0.87924 0.44149 0.0
C2752 C 0.7867 0.85963 0.43775 0.0
C2753 C 0.79459 0.89038 0.46007 0.0
C2754 C 0.79596 0.88618 0.51215 0.0
H2755 H 0.7932 0.96397 0.58533 0.0
H2756 H 0.78245 0.9428 0.55316 0.0
H2757 H 0.80503 0.89159 0.54344 0.0
H2758 H 0.77333 0.83641 0.45027 0.0
H2759 H 0.77401 0.85595 0.48278 0.0
H2760 H 0.78319 0.91847 0.48625 0.0
C2761 C 0.79498 0.94215 0.56135 0.0
C2762 C 0.80021 0.89759 0.53108 0.0
C2763 C 0.80113 0.95422 0.5798 0.0
C2764 C 0.77909 0.85151 0.45271 0.0
C2765 C 0.77961 0.86265 0.47136 0.0
C2766 C 0.78786 0.91243 0.49865 0.0
C2767 C 0.80483 0.92923 0.55368 0.0
C2768 C 0.79866 0.91665 0.53395 0.0
C2769 C 0.78766 0.88214 0.47533 0.0
C2770 C 0.79009 0.89359 0.49567 0.0
H2771 H 0.83966 0.93998 0.59126 0.0
H2772 H 0.82899 0.91911 0.55913 0.0
H2773 H 0.7908 0.93849 0.51935 0.0
H2774 H 0.79991 0.88592 0.43014 0.0
H2775 H 0.80102 0.90531 0.46271 0.0
C2776 C 0.43654 0.55596 0.84473 0.0
C2777 C 0.42296 0.56612 0.84384 0.0
C2778 C 0.4457 0.55469 0.86306 0.0
C2779 C 0.45652 0.57874 0.91636 0.0
H2780 H 0.47139 0.53243 0.92374 0.0
C2781 C 0.49072 0.56975 0.99306 0.0
C2782 C 0.50413 0.55933 0.99316 0.0
C2783 C 0.48051 0.57057 0.97515 0.0
C2784 C 0.46757 0.5456 0.92193 0.0
H2785 H 0.40831 0.58273 0.86181 0.0
H2786 H 0.4241 0.58036 0.89372 0.0
H2787 H 0.45409 0.53352 0.89237 0.0
H2788 H 0.51736 0.54181 0.97416 0.0
H2789 H 0.4999 0.54348 0.94314 0.0
H2790 H 0.47012 0.59087 0.94588 0.0
C2791 C 0.42784 0.57352 0.88021 0.0
C2792 C 0.45757 0.5462 0.90385 0.0
C2793 C 0.41863 0.57473 0.86185 0.0
C2794 C 0.50713 0.54992 0.97479 0.0
C2795 C 0.49696 0.55076 0.95691 0.0
C2796 C 0.46657 0.57815 0.93445 0.0
C2797 C 0.44162 0.5636 0.88112 0.0
C2798 C 0.45193 0.5628 0.90071 0.0
C2799 C 0.4834 0.561 0.95675 0.0
C2800 C 0.47235 0.56159 0.93753 0.0
H2801 H 0.44034 0.54923 0.8312 0.0
H2802 H 0.45632 0.54711 0.86302 0.0
H2803 H 0.45269 0.59189 0.9145 0.0
H2804 H 0.48795 0.57714 0.00687 0.0
H2805 H 0.47011 0.57844 0.97579 0.0
C2806 C 0.82196 0.22757 0.10425 0.0
C2807 C 0.83919 0.23532 0.10101 0.0
C2808 C 0.81527 0.23494 0.12115 0.0
C2809 C 0.82287 0.27737 0.16262 0.0
H2810 H 0.79035 0.24269 0.18544 0.0
C2811 C 0.79772 0.29887 0.23838 0.0
C2812 C 0.7798 0.29139 0.23924 0.0
C2813 C 0.80538 0.29308 0.22154 0.0
C2814 C 0.79928 0.25265 0.17918 0.0
H2815 H 0.86286 0.2571 0.11339 0.0
H2816 H 0.85141 0.26965 0.14309 0.0
H2817 H 0.80305 0.23048 0.1568 0.0
H2818 H 0.75582 0.27226 0.22281 0.0
H2819 H 0.76903 0.26223 0.19365 0.0
H2820 H 0.81923 0.29949 0.18544 0.0
C2821 C 0.84287 0.25805 0.13232 0.0
C2822 C 0.80658 0.24563 0.16261 0.0
C2823 C 0.84953 0.25074 0.11528 0.0
C2824 C 0.76965 0.27834 0.22269 0.0
C2825 C 0.7773 0.27245 0.20599 0.0
C2826 C 0.81566 0.28438 0.17936 0.0
C2827 C 0.82562 0.25025 0.13559 0.0
C2828 C 0.81836 0.25786 0.15385 0.0
C2829 C 0.79534 0.27948 0.20524 0.0
C2830 C 0.80359 0.27214 0.18776 0.0
H2831 H 0.81346 0.21582 0.09358 0.0
H2832 H 0.80181 0.22872 0.1227 0.0
H2833 H 0.8317 0.28737 0.15631 0.0
H2834 H 0.80596 0.30879 0.25092 0.0
H2835 H 0.81932 0.29875 0.22159 0.0
C2836 C 0.0888 0.52816 0.36378 0.0
C2837 C 0.10178 0.51727 0.36494 0.0
C2838 C 0.08327 0.53653 0.38108 0.0
C2839 C 0.08288 0.53186 0.43387 0.0
H2840 H 0.07134 0.58156 0.44048 0.0
C2841 C 0.07229 0.56872 0.50957 0.0
C2842 C 0.05651 0.57527 0.51021 0.0
C2843 C 0.07817 0.56376 0.49151 0.0
C2844 C 0.07443 0.56762 0.43875 0.0
H2845 H 0.11924 0.50691 0.3853 0.0
H2846 H 0.1102 0.52195 0.41519 0.0
H2847 H 0.08083 0.56854 0.40947 0.0
H2848 H 0.03519 0.58295 0.49238 0.0
H2849 H 0.04569 0.57446 0.46068 0.0
H2850 H 0.07674 0.53099 0.46315 0.0
C2851 C 0.10393 0.52373 0.40098 0.0
C2852 C 0.0798 0.56012 0.42099 0.0
C2853 C 0.10931 0.51526 0.38376 0.0
C2854 C 0.04742 0.57801 0.49243 0.0
C2855 C 0.0534 0.57311 0.47427 0.0
C2856 C 0.07769 0.5394 0.4516 0.0
C2857 C 0.09063 0.53423 0.39991 0.0
C2858 C 0.08429 0.5422 0.41841 0.0
C2859 C 0.06851 0.56531 0.47359 0.0
C2860 C 0.07358 0.55744 0.45436 0.0
H2861 H 0.08266 0.52993 0.3495 0.0
H2862 H 0.0729 0.54437 0.37963 0.0
H2863 H 0.08568 0.51779 0.43228 0.0
H2864 H 0.07976 0.56663 0.52295 0.0
H2865 H 0.09006 0.55816 0.49152 0.0
C2866 C 0.79716 0.95215 0.69078 0.0
C2867 C 0.81027 0.94945 0.67891 0.0
C2868 C 0.79127 0.93875 0.70229 0.0
C2869 C 0.7894 0.88936 0.70879 0.0
H2870 H 0.79532 0.9103 0.76506 0.0
C2871 C 0.79589 0.84369 0.76921 0.0
C2872 C 0.79039 0.84944 0.78742 0.0
C2873 C 0.7951 0.85467 0.75442 0.0
C2874 C 0.79314 0.90411 0.74938 0.0
H2875 H 0.82669 0.93012 0.66882 0.0
H2876 H 0.81623 0.90672 0.68864 0.0
H2877 H 0.7987 0.93159 0.74153 0.0
H2878 H 0.77844 0.8701 0.80402 0.0
H2879 H 0.77622 0.88865 0.77804 0.0
H2880 H 0.78386 0.86185 0.71659 0.0
C2881 C 0.81061 0.9192 0.68918 0.0
C2882 C 0.79514 0.91639 0.7359 0.0
C2883 C 0.81671 0.93269 0.67799 0.0
C2884 C 0.78313 0.86561 0.79022 0.0
C2885 C 0.78195 0.8763 0.77534 0.0
C2886 C 0.78713 0.87702 0.72226 0.0
C2887 C 0.79813 0.92228 0.70176 0.0
C2888 C 0.79362 0.90915 0.71553 0.0
C2889 C 0.78844 0.87135 0.75747 0.0
C2890 C 0.78929 0.88425 0.74279 0.0
H2891 H 0.79196 0.96491 0.69175 0.0
H2892 H 0.78159 0.9414 0.71185 0.0
H2893 H 0.78808 0.88344 0.6931 0.0
H2894 H 0.80149 0.83121 0.76676 0.0
H2895 H 0.80036 0.85046 0.74095 0.0
C2896 C 0.6932 0.47256 0.57267 0.0
C2897 C 0.69019 0.45264 0.56707 0.0
C2898 C 0.67915 0.48176 0.57411 0.0
C2899 C 0.63055 0.47562 0.55888 0.0
H2900 H 0.63717 0.52073 0.59979 0.0
C2901 C 0.57326 0.51331 0.57246 0.0
C2902 C 0.5769 0.5333 0.57479 0.0
C2903 C 0.58693 0.50345 0.57302 0.0
C2904 C 0.63514 0.50827 0.58817 0.0
H2905 H 0.66973 0.42681 0.55838 0.0
H2906 H 0.64497 0.44289 0.56121 0.0
H2907 H 0.66056 0.503 0.59771 0.0
H2908 H 0.59805 0.55855 0.58047 0.0
H2909 H 0.62208 0.54127 0.5817 0.0
H2910 H 0.60504 0.48086 0.54949 0.0
C2911 C 0.65837 0.45143 0.56428 0.0
C2912 C 0.6486 0.49805 0.58692 0.0
C2913 C 0.67256 0.44215 0.5627 0.0
C2914 C 0.59473 0.54321 0.57876 0.0
C2915 C 0.6085 0.53326 0.57939 0.0
C2916 C 0.61705 0.48577 0.56022 0.0
C2917 C 0.66148 0.47141 0.57017 0.0
C2918 C 0.64661 0.48165 0.57212 0.0
C2919 C 0.60475 0.51319 0.57599 0.0
C2920 C 0.61917 0.50231 0.57482 0.0
H2921 H 0.70655 0.48124 0.57595 0.0
H2922 H 0.68223 0.49712 0.57815 0.0
H2923 H 0.62853 0.4633 0.5471 0.0
H2924 H 0.55972 0.5051 0.56958 0.0
H2925 H 0.58349 0.48807 0.57084 0.0
C2926 C 0.20113 0.08049 0.48015 0.0
C2927 C 0.21032 0.09822 0.4774 0.0
C2928 C 0.18417 0.07836 0.48537 0.0
C2929 C 0.15453 0.10624 0.50834 0.0
H2930 H 0.11986 0.05867 0.4904 0.0
C2931 C 0.09349 0.08701 0.54684 0.0
C2932 C 0.07755 0.07665 0.53511 0.0
C2933 C 0.10907 0.09027 0.53853 0.0
C2934 C 0.12926 0.07216 0.49537 0.0
H2935 H 0.20867 0.12749 0.4773 0.0
H2936 H 0.17882 0.12366 0.48593 0.0
H2937 H 0.14758 0.06338 0.47701 0.0
H2938 H 0.06524 0.0617 0.50549 0.0
H2939 H 0.09233 0.06779 0.4908 0.0
H2940 H 0.13602 0.1152 0.52634 0.0
C2941 C 0.1849 0.11149 0.4845 0.0
C2942 C 0.14529 0.07476 0.48788 0.0
C2943 C 0.20197 0.11367 0.47942 0.0
C2944 C 0.0774 0.06968 0.51489 0.0
C2945 C 0.09295 0.07308 0.50652 0.0
C2946 C 0.13843 0.10371 0.5157 0.0
C2947 C 0.17588 0.09386 0.48779 0.0
C2948 C 0.15825 0.09171 0.49451 0.0
C2949 C 0.109 0.08336 0.51825 0.0
C2950 C 0.12569 0.08652 0.50954 0.0
H2951 H 0.2072 0.06831 0.4788 0.0
H2952 H 0.17779 0.06465 0.4881 0.0
H2953 H 0.16424 0.11942 0.51394 0.0
H2954 H 0.09396 0.09244 0.56251 0.0
H2955 H 0.12123 0.09792 0.54812 0.0
C2956 C 0.19427 0.98179 0.80088 0.0
C2957 C 0.19744 0.99281 0.8203 0.0
C2958 C 0.20093 0.96506 0.79654 0.0
C2959 C 0.21691 0.92776 0.82122 0.0
H2960 H 0.2359 0.91415 0.77277 0.0
C2961 C 0.2354 0.85363 0.79981 0.0
C2962 C 0.25111 0.85299 0.79161 0.0
C2963 C 0.2287 0.87037 0.80248 0.0
C2964 C 0.2307 0.91767 0.78644 0.0
H2965 H 0.21055 0.99427 0.85021 0.0
H2966 H 0.2218 0.96555 0.84276 0.0
H2967 H 0.22489 0.9435 0.77875 0.0
H2968 H 0.27178 0.87002 0.77955 0.0
H2969 H 0.25997 0.89891 0.78379 0.0
H2970 H 0.22262 0.902 0.82894 0.0
C2971 C 0.21411 0.9697 0.83078 0.0
C2972 C 0.22419 0.93455 0.78981 0.0
C2973 C 0.2077 0.98646 0.83505 0.0
C2974 C 0.25964 0.86972 0.78582 0.0
C2975 C 0.25278 0.8864 0.78823 0.0
C2976 C 0.22314 0.91078 0.81772 0.0
C2977 C 0.21076 0.9585 0.8115 0.0
C2978 C 0.21729 0.94005 0.80737 0.0
C2979 C 0.23727 0.88717 0.79684 0.0
C2980 C 0.23027 0.90538 0.80031 0.0
H2981 H 0.1864 0.98593 0.78904 0.0
H2982 H 0.19792 0.95696 0.7815 0.0
H2983 H 0.21159 0.93115 0.83484 0.0
H2984 H 0.22838 0.84124 0.8046 0.0
H2985 H 0.21665 0.87007 0.80895 0.0
C2986 C 0.28809 0.93924 0.05213 0.0
C2987 C 0.27185 0.94196 0.04331 0.0
C2988 C 0.30403 0.94918 0.04802 0.0
C2989 C 0.32276 0.99291 0.03073 0.0
H2990 H 0.36398 0.97061 0.02959 0.0
C2991 C 0.39123 0.0328 0.01726 0.0
C2992 C 0.40576 0.03158 0.03077 0.0
C2993 C 0.37444 0.02151 0.01692 0.0
C2994 C 0.35257 0.97701 0.02992 0.0
H2995 H 0.25951 0.95673 0.0227 0.0
H2996 H 0.28739 0.97384 0.01514 0.0
H2997 H 0.3353 0.95076 0.03125 0.0
H2998 H 0.41385 0.01798 0.05497 0.0
H2999 H 0.38466 0.99806 0.05405 0.0
H3000 H 0.34016 0.01918 0.0294 0.0
C3001 C 0.28781 0.96429 0.02557 0.0
C3002 C 0.33616 0.96568 0.03091 0.0
C3003 C 0.27184 0.95441 0.0298 0.0
C3004 C 0.40306 0.01899 0.04407 0.0
C3005 C 0.38634 0.00759 0.04359 0.0
C3006 C 0.33916 1.00421 0.02955 0.0
C3007 C 0.3041 0.962 0.03486 0.0
C3008 C 0.32113 0.97357 0.03174 0.0
C3009 C 0.37191 0.00866 0.02995 0.0
C3010 C 0.35427 0.99643 0.02953 0.0
H3011 H 0.28855 0.92989 0.06276 0.0
H3012 H 0.31631 0.9473 0.05571 0.0
H3013 H 0.31151 0.99952 0.03161 0.0
H3014 H 0.3929 0.04217 0.00665 0.0
H3015 H 0.36351 0.02252 0.0062 0.0
C3016 C 0.89874 0.6836 0.83312 0.0
C3017 C 0.907 0.67317 0.81949 0.0
C3018 C 0.88889 0.69626 0.82724 0.0
C3019 C 0.86324 0.70853 0.78525 0.0
H3020 H 0.86856 0.7553 0.82336 0.0
C3021 C 0.82089 0.76799 0.78149 0.0
C3022 C 0.81422 0.77222 0.7994 0.0
C3023 C 0.83313 0.7561 0.78002 0.0
C3024 C 0.86705 0.74247 0.81237 0.0
H3025 H 0.91094 0.66778 0.78865 0.0
H3026 H 0.89345 0.69014 0.77828 0.0
H3027 H 0.88909 0.73474 0.82782 0.0
H3028 H 0.81402 0.76607 0.82911 0.0
H3029 H 0.83509 0.74582 0.82656 0.0
H3030 H 0.84075 0.71635 0.77013 0.0
C3031 C 0.89478 0.68837 0.79362 0.0
C3032 C 0.87875 0.73058 0.81501 0.0
C3033 C 0.90484 0.67563 0.79958 0.0
C3034 C 0.81924 0.76357 0.81527 0.0
C3035 C 0.83131 0.75188 0.81382 0.0
C3036 C 0.85154 0.72064 0.78247 0.0
C3037 C 0.8869 0.69902 0.80751 0.0
C3038 C 0.87655 0.71307 0.80203 0.0
C3039 C 0.83878 0.74838 0.79644 0.0
C3040 C 0.85296 0.73738 0.79648 0.0
H3041 H 0.89992 0.6821 0.84855 0.0
H3042 H 0.88268 0.70387 0.83825 0.0
H3043 H 0.86121 0.69514 0.77498 0.0
H3044 H 0.81719 0.77439 0.769 0.0
H3045 H 0.83866 0.75353 0.7664 0.0
C3046 C 0.80106 0.57732 0.01472 0.0
C3047 C 0.80538 0.58959 1.00145 0.0
C3048 C 0.8143 0.57117 0.02568 0.0
C3049 C 0.86221 0.58392 0.04414 0.0
H3050 H 0.85557 0.53135 0.05059 0.0
C3051 C 0.91526 0.5591 0.09172 0.0
C3052 C 0.92015 0.5427 0.08249 0.0
C3053 C 0.8997 0.56394 0.08411 0.0
C3054 C 0.8576 0.54608 0.04893 0.0
H3055 H 0.82694 0.60459 0.98885 0.0
H3056 H 0.85007 0.59381 0.00794 0.0
H3057 H 0.83193 0.54166 0.0317 0.0
H3058 H 0.9121 0.51803 0.05859 0.0
H3059 H 0.88497 0.52643 0.04538 0.0
H3060 H 0.88805 0.58825 0.06081 0.0
C3061 C 0.83645 0.58922 0.01012 0.0
C3062 C 0.84402 0.55201 0.03824 0.0
C3063 C 0.8232 0.59535 0.99913 0.0
C3064 C 0.90861 0.53064 0.06622 0.0
C3065 C 0.89305 0.53548 0.05861 0.0
C3066 C 0.87575 0.57801 0.05486 0.0
C3067 C 0.83215 0.57716 0.02361 0.0
C3068 C 0.84627 0.57095 0.03554 0.0
C3069 C 0.88871 0.55248 0.0671 0.0
C3070 C 0.87367 0.55898 0.05721 0.0
H3071 H 0.78745 0.57263 0.01687 0.0
H3072 H 0.81058 0.56202 0.03606 0.0
H3073 H 0.86425 0.59867 0.04255 0.0
H3074 H 0.92376 0.56852 0.10446 0.0
H3075 H 0.89651 0.57695 0.0912 0.0
C3076 C 0.21357 0.10429 0.84185 0.0
C3077 C 0.1978 0.09308 0.8301 0.0
C3078 C 0.22103 0.12264 0.83869 0.0
C3079 C 0.21799 0.15584 0.80169 0.0
H3080 H 0.2454 0.19421 0.84574 0.0
C3081 C 0.23622 0.23599 0.79604 0.0
C3082 C 0.25312 0.24715 0.80472 0.0
C3083 C 0.2305 0.21732 0.79913 0.0
C3084 C 0.23794 0.18367 0.83316 0.0
H3085 H 0.17761 0.09307 0.8057 0.0
H3086 H 0.19011 0.12485 0.80055 0.0
H3087 H 0.23341 0.16223 0.85102 0.0
H3088 H 0.27713 0.24699 0.82386 0.0
H3089 H 0.26705 0.21439 0.82954 0.0
H3090 H 0.22218 0.17748 0.784 0.0
C3091 C 0.19717 0.1194 0.81198 0.0
C3092 C 0.23101 0.1651 0.83617 0.0
C3093 C 0.18983 0.10099 0.81501 0.0
C3094 C 0.26408 0.23891 0.81683 0.0
C3095 C 0.25821 0.22019 0.82017 0.0
C3096 C 0.22473 0.17442 0.79876 0.0
C3097 C 0.21295 0.13072 0.82374 0.0
C3098 C 0.22078 0.15073 0.82051 0.0
C3099 C 0.24131 0.20897 0.81125 0.0
C3100 C 0.23477 0.18878 0.81443 0.0
H3101 H 0.22025 0.09887 0.8536 0.0
H3102 H 0.2333 0.13038 0.84797 0.0
H3103 H 0.2107 0.14543 0.78895 0.0
H3104 H 0.22727 0.2417 0.7867 0.0
H3105 H 0.21734 0.2095 0.79218 0.0
C3106 C 0.40316 0.0675 0.31265 0.0
C3107 C 0.40226 0.08268 0.32762 0.0
C3108 C 0.39117 0.04995 0.31004 0.0
C3109 C 0.3477 0.0271 0.32136 0.0
H3110 H 0.36717 0.98198 0.31852 0.0
C3111 C 0.30832 0.95619 0.33555 0.0
C3112 C 0.3104 0.93913 0.32428 0.0
C3113 C 0.31887 0.97363 0.33414 0.0
C3114 C 0.36143 0.99436 0.31896 0.0
H3115 H 0.38762 0.09151 0.35109 0.0
H3116 H 0.3668 0.06108 0.34646 0.0
H3117 H 0.38648 0.01257 0.31846 0.0
H3118 H 0.32534 0.92714 0.30273 0.0
H3119 H 0.34329 0.95753 0.29981 0.0
H3120 H 0.32266 0.00897 0.32195 0.0
C3121 C 0.37673 0.06269 0.33673 0.0
C3122 C 0.37252 0.0119 0.31893 0.0
C3123 C 0.38877 0.08011 0.33947 0.0
C3124 C 0.32319 0.93999 0.31143 0.0
C3125 C 0.33367 0.95743 0.30996 0.0
C3126 C 0.33658 0.00955 0.32127 0.0
C3127 C 0.37792 0.04734 0.32218 0.0
C3128 C 0.36583 0.0285 0.32041 0.0
C3129 C 0.33173 0.97447 0.32138 0.0
C3130 C 0.34334 0.99299 0.32035 0.0
H3131 H 0.41338 0.06899 0.30327 0.0
H3132 H 0.39232 0.0384 0.29859 0.0
H3133 H 0.34211 0.03961 0.32225 0.0
H3134 H 0.2985 0.9561 0.34544 0.0
H3135 H 0.31715 0.98644 0.34335 0.0
C3136 C 0.51557 0.32959 0.65875 0.0
C3137 C 0.5221 0.33429 0.67921 0.0
C3138 C 0.51856 0.34311 0.64662 0.0
C3139 C 0.52421 0.39425 0.64972 0.0
H3140 H 0.53228 0.3833 0.59507 0.0
C3141 C 0.52323 0.45013 0.59922 0.0
C3142 C 0.51578 0.44366 0.57911 0.0
C3143 C 0.52653 0.4373 0.61146 0.0
C3144 C 0.5298 0.38657 0.61022 0.0
H3145 H 0.53755 0.35664 0.70286 0.0
H3146 H 0.5427 0.38051 0.68162 0.0
H3147 H 0.5347 0.36003 0.61633 0.0
H3148 H 0.50603 0.41856 0.5561 0.0
H3149 H 0.51128 0.39608 0.5775 0.0
H3150 H 0.51853 0.42036 0.64354 0.0
C3151 C 0.53531 0.36625 0.67498 0.0
C3152 C 0.53133 0.37325 0.62247 0.0
C3153 C 0.53256 0.35255 0.6871 0.0
C3154 C 0.51189 0.42402 0.57149 0.0
C3155 C 0.51501 0.41113 0.5838 0.0
C3156 C 0.52249 0.40749 0.63744 0.0
C3157 C 0.52792 0.36181 0.6547 0.0
C3158 C 0.52836 0.37682 0.64231 0.0
C3159 C 0.5223 0.41756 0.60403 0.0
C3160 C 0.52505 0.40379 0.61741 0.0
H3161 H 0.50736 0.31566 0.65229 0.0
H3162 H 0.51257 0.3392 0.63115 0.0
H3163 H 0.52152 0.39734 0.66482 0.0
H3164 H 0.52669 0.4652 0.60549 0.0
H3165 H 0.53252 0.44293 0.62677 0.0
C3166 C 0.47179 0.82473 0.34008 0.0
C3167 C 0.4756 0.81024 0.34994 0.0
C3168 C 0.4541 0.82591 0.33432 0.0
C3169 C 0.40755 0.79736 0.32314 0.0
H3170 H 0.39448 0.84591 0.33527 0.0
C3171 C 0.33313 0.80386 0.31383 0.0
C3172 C 0.32921 0.82127 0.31084 0.0
C3173 C 0.35089 0.80193 0.31715 0.0
C3174 C 0.39776 0.83221 0.33127 0.0
H3175 H 0.46353 0.78539 0.36095 0.0
H3176 H 0.43299 0.78725 0.35063 0.0
H3177 H 0.42523 0.84395 0.34304 0.0
H3178 H 0.34087 0.84995 0.30804 0.0
H3179 H 0.37133 0.84637 0.31242 0.0
H3180 H 0.38024 0.7856 0.31098 0.0
C3181 C 0.4436 0.7978 0.34744 0.0
C3182 C 0.41557 0.83112 0.3359 0.0
C3183 C 0.46121 0.79682 0.3535 0.0
C3184 C 0.34339 0.83633 0.31033 0.0
C3185 C 0.36102 0.83433 0.31321 0.0
C3186 C 0.38976 0.79848 0.31818 0.0
C3187 C 0.43972 0.81241 0.33787 0.0
C3188 C 0.42076 0.81367 0.33205 0.0
C3189 C 0.36525 0.81729 0.31729 0.0
C3190 C 0.38444 0.81594 0.32222 0.0
H3191 H 0.48247 0.83531 0.33706 0.0
H3192 H 0.45167 0.83733 0.32689 0.0
H3193 H 0.41102 0.78367 0.31977 0.0
H3194 H 0.32255 0.79206 0.31465 0.0
H3195 H 0.3533 0.78858 0.32038 0.0
C3196 C 0.01429 0.73606 0.19498 0.0
C3197 C 1.00501 0.74749 0.18525 0.0
C3198 C 0.01718 0.71908 0.18443 0.0
C3199 C 0.02362 0.69609 0.13625 0.0
H3200 H 1.00396 0.6479 0.15023 0.0
C3201 C 0.02546 0.62463 0.0864 0.0
C3202 C 0.02592 0.60868 0.09521 0.0
C3203 C 0.02319 0.64162 0.09754 0.0
C3204 C 0.00993 0.66118 0.14627 0.0
H3205 H 0.99187 0.75026 0.15672 0.0
H3206 H 0.9975 0.72104 0.13829 0.0
H3207 H 1.00037 0.67739 0.1699 0.0
H3208 H 0.02491 0.59821 0.12275 0.0
H3209 H 0.02204 0.62788 0.14238 0.0
H3210 H 0.03387 0.68028 0.11319 0.0
C3211 C 1.00223 0.72506 0.15411 0.0
C3212 C 1.00772 0.67809 0.15754 0.0
C3213 C 0.99894 0.74172 0.16471 0.0
C3214 C 0.0244 0.61019 0.11546 0.0
C3215 C 0.02259 0.62727 0.12671 0.0
C3216 C 0.02624 0.67923 0.12525 0.0
C3217 C 0.01129 0.71353 0.16387 0.0
C3218 C 0.0144 0.69568 0.15253 0.0
C3219 C 0.02175 0.64326 0.11793 0.0
C3220 C 0.0193 0.66142 0.12995 0.0
H3221 H 0.01911 0.74011 0.21077 0.0
H3222 H 0.02422 0.71042 0.19227 0.0
H3223 H 0.02899 0.70952 0.13215 0.0
H3224 H 0.02644 0.62385 0.07078 0.0
H3225 H 0.02226 0.65331 0.08996 0.0
C3226 C 0.08622 0.31507 0.83233 0.0
C3227 C 0.08091 0.31568 0.85122 0.0
C3228 C 0.10404 0.31629 0.82988 0.0
C3229 C 0.14679 0.30835 0.85327 0.0
H3230 H 0.16657 0.33699 0.81545 0.0
C3231 C 0.22066 0.31397 0.84084 0.0
C3232 C 0.22483 0.31494 0.82165 0.0
C3233 C 0.20369 0.31519 0.84542 0.0
C3234 C 0.16131 0.32864 0.82587 0.0
H3235 H 0.09063 0.31815 0.88245 0.0
H3236 H 0.1218 0.32013 0.87817 0.0
H3237 H 0.13646 0.33709 0.82166 0.0
H3238 H 0.21403 0.31792 0.79225 0.0
H3239 H 0.18461 0.31958 0.79995 0.0
H3240 H 0.17144 0.29948 0.85715 0.0
C3241 C 0.11204 0.31871 0.86519 0.0
C3242 C 0.14392 0.32878 0.82952 0.0
C3243 C 0.09414 0.31774 0.86768 0.0
C3244 C 0.21149 0.31729 0.80725 0.0
C3245 C 0.1945 0.31835 0.81176 0.0
C3246 C 0.16416 0.30805 0.84949 0.0
C3247 C 0.11728 0.31796 0.8462 0.0
C3248 C 0.13628 0.31854 0.84317 0.0
C3249 C 0.19019 0.31728 0.83093 0.0
C3250 C 0.17175 0.31808 0.83558 0.0
H3251 H 0.07651 0.31345 0.81924 0.0
H3252 H 0.10737 0.31543 0.815 0.0
H3253 H 0.14141 0.3001 0.86372 0.0
H3254 H 0.23053 0.31219 0.85239 0.0
H3255 H 0.20124 0.31461 0.86045 0.0
C3256 C 0.5693 0.78727 0.98618 0.0
C3257 C 0.55866 0.80055 0.98478 0.0
C3258 C 0.56777 0.77604 1.00077 0.0
C3259 C 0.53294 0.7569 0.02811 0.0
H3260 H 0.56831 0.73169 0.04909 0.0
C3261 C 0.53882 0.69094 0.07218 0.0
C3262 C 0.52477 0.67706 0.06035 0.0
C3263 C 0.54363 0.7089 0.0673 0.0
C3264 C 0.55832 0.73882 0.04364 0.0
H3265 H 0.53971 0.81419 0.99869 0.0
H3266 H 0.53761 0.79528 0.02464 0.0
H3267 H 0.57749 0.7594 0.03408 0.0
H3268 H 0.50425 0.67134 0.03474 0.0
H3269 H 0.51269 0.70254 0.02611 0.0
H3270 H 0.51376 0.73623 0.03735 0.0
C3271 C 0.54658 0.79289 0.01409 0.0
C3272 C 0.56357 0.75457 0.03486 0.0
C3273 C 0.54787 0.80382 0.99933 0.0
C3274 C 0.51522 0.68171 0.04402 0.0
C3275 C 0.51995 0.69965 0.03921 0.0
C3276 C 0.52773 0.74124 0.03689 0.0
C3277 C 0.55575 0.77816 0.01431 0.0
C3278 C 0.55087 0.76348 0.02651 0.0
C3279 C 0.53439 0.71334 0.0506 0.0
C3280 C 0.54028 0.73167 0.04419 0.0
H3281 H 0.57766 0.78446 0.97505 0.0
H3282 H 0.575 0.76478 1.00044 0.0
H3283 H 0.52272 0.7632 0.02164 0.0
H3284 H 0.54651 0.68769 0.08477 0.0
H3285 H 0.55472 0.71921 0.07642 0.0
C3286 C 0.05751 0.80546 0.68296 0.0
C3287 C 0.04575 0.81707 0.688 0.0
C3288 C 0.06548 0.79696 0.69719 0.0
C3289 C 0.0801 0.8072 0.75085 0.0
H3290 H 0.09943 0.76264 0.73728 0.0
C3291 C 0.14902 0.8026 0.78563 0.0
C3292 C 0.15327 0.78482 0.78605 0.0
C3293 C 0.13199 0.80379 0.77784 0.0
C3294 C 0.09394 0.77491 0.74166 0.0
H3295 H 0.03266 0.82857 0.71154 0.0
H3296 H 0.04609 0.81315 0.73646 0.0
H3297 H 0.07493 0.76755 0.71512 0.0
H3298 H 0.14239 0.75436 0.77984 0.0
H3299 H 0.11257 0.7565 0.76715 0.0
H3300 H 0.09916 0.8146 0.77736 0.0
C3301 C 0.04921 0.81062 0.72151 0.0
C3302 C 0.07998 0.77785 0.72875 0.0
C3303 C 0.04122 0.81914 0.70718 0.0
C3304 C 0.13967 0.76833 0.77985 0.0
C3305 C 0.12256 0.76953 0.77228 0.0
C3306 C 0.09393 0.80414 0.76389 0.0
C3307 C 0.06197 0.80002 0.71686 0.0
C3308 C 0.07347 0.79449 0.7327 0.0
C3309 C 0.11866 0.78723 0.77048 0.0
C3310 C 0.10159 0.78842 0.75901 0.0
H3311 H 0.06131 0.80381 0.66827 0.0
H3312 H 0.07539 0.78917 0.69304 0.0
H3313 H 0.07549 0.82021 0.75443 0.0
H3314 H 0.15903 0.81563 0.79067 0.0
H3315 H 0.12962 0.8177 0.77662 0.0
C3316 C 0.08102 0.40458 0.47321 0.0
C3317 C 0.07416 0.39029 0.48332 0.0
C3318 C 0.08182 0.42368 0.48121 0.0
C3319 C 0.07618 0.45708 0.52564 0.0
H3320 H 0.04659 0.47541 0.48744 0.0
C3321 C 0.03333 0.51051 0.54937 0.0
C3322 C 0.02933 0.52258 0.5365 0.0
C3323 C 0.0431 0.49688 0.54374 0.0
C3324 C 0.05523 0.47091 0.49828 0.0
H3325 H 0.06451 0.3846 0.5104 0.0
H3326 H 0.06628 0.41781 0.52454 0.0
H3327 H 0.05858 0.44799 0.47657 0.0
H3328 H 0.03329 0.53084 0.50828 0.0
H3329 H 0.05085 0.50779 0.49883 0.0
H3330 H 0.07253 0.47985 0.54747 0.0
C3331 C 0.07094 0.41445 0.51047 0.0
C3332 C 0.06215 0.45513 0.49198 0.0
C3333 C 0.06985 0.39543 0.50235 0.0
C3334 C 0.03579 0.52134 0.51828 0.0
C3335 C 0.04587 0.50809 0.51286 0.0
C3336 C 0.06944 0.47309 0.53193 0.0
C3337 C 0.07605 0.42868 0.49954 0.0
C3338 C 0.07225 0.4477 0.50567 0.0
C3339 C 0.04935 0.49537 0.52529 0.0
C3340 C 0.05842 0.47987 0.51843 0.0
H3341 H 0.0843 0.40091 0.45845 0.0
H3342 H 0.08591 0.43441 0.47254 0.0
H3343 H 0.08399 0.45167 0.5365 0.0
H3344 H 0.02861 0.51136 0.56358 0.0
H3345 H 0.0453 0.48722 0.55363 0.0
C3346 C 0.45446 0.28591 0.21583 0.0
C3347 C 0.46613 0.27348 0.21542 0.0
C3348 C 0.44399 0.28744 0.23086 0.0
C3349 C 0.42471 0.26375 0.26869 0.0
H3350 H 0.42495 0.31518 0.2944 0.0
C3351 C 0.37241 0.28318 0.3161 0.0
C3352 C 0.37776 0.29771 0.33304 0.0
C3353 C 0.38452 0.27863 0.30375 0.0
C3354 C 0.42493 0.30074 0.28757 0.0
H3355 H 0.4754 0.25229 0.22995 0.0
H3356 H 0.45682 0.25478 0.25613 0.0
H3357 H 0.44273 0.31009 0.26799 0.0
H3358 H 0.40026 0.31836 0.35071 0.0
H3359 H 0.42154 0.31037 0.329 0.0
H3360 H 0.4066 0.25444 0.28808 0.0
C3361 C 0.45589 0.26339 0.24483 0.0
C3362 C 0.43492 0.29782 0.27227 0.0
C3363 C 0.46652 0.26199 0.22987 0.0
C3364 C 0.39571 0.30714 0.33773 0.0
C3365 C 0.40786 0.30259 0.32531 0.0
C3366 C 0.41454 0.26667 0.28388 0.0
C3367 C 0.44485 0.27648 0.24574 0.0
C3368 C 0.43475 0.27933 0.26251 0.0
C3369 C 0.40229 0.28851 0.30798 0.0
C3370 C 0.41442 0.28522 0.29334 0.0
H3371 H 0.45388 0.29502 0.20499 0.0
H3372 H 0.43539 0.29744 0.23103 0.0
H3373 H 0.42432 0.24934 0.2614 0.0
H3374 H 0.35863 0.27606 0.31165 0.0
H3375 H 0.37972 0.26815 0.29026 0.0
C3376 C 0.625 0.5614 0.37457 0.0
C3377 C 0.63826 0.55078 0.37361 0.0
C3378 C 0.61526 0.56233 0.39057 0.0
C3379 C 0.60092 0.53662 0.43073 0.0
H3380 H 0.58899 0.58402 0.45227 0.0
C3381 C 0.56382 0.54503 0.50065 0.0
C3382 C 0.55411 0.55937 0.50323 0.0
C3383 C 0.5734 0.54283 0.48448 0.0
C3384 C 0.59175 0.57045 0.44631 0.0
H3385 H 0.65151 0.53279 0.38923 0.0
H3386 H 0.63447 0.53428 0.41702 0.0
H3387 H 0.60702 0.5829 0.42587 0.0
H3388 H 0.54662 0.58225 0.49041 0.0
H3389 H 0.56191 0.57767 0.46183 0.0
H3390 H 0.58538 0.52403 0.4509 0.0
C3391 C 0.63161 0.54197 0.40532 0.0
C3392 C 0.60234 0.56988 0.43108 0.0
C3393 C 0.64157 0.54128 0.38943 0.0
C3394 C 0.55362 0.5708 0.48872 0.0
C3395 C 0.56286 0.56841 0.47245 0.0
C3396 C 0.59011 0.53711 0.44585 0.0
C3397 C 0.61818 0.55243 0.40615 0.0
C3398 C 0.60712 0.55297 0.42291 0.0
C3399 C 0.57354 0.55487 0.4703 0.0
C3400 C 0.58518 0.55405 0.45395 0.0
H3401 H 0.62188 0.56881 0.3627 0.0
H3402 H 0.60501 0.57043 0.3904 0.0
H3403 H 0.60409 0.52323 0.42482 0.0
H3404 H 0.56506 0.53641 0.51189 0.0
H3405 H 0.58143 0.53229 0.48377 0.0
C3406 C 0.23872 0.8552 0.10167 0.0
C3407 C 0.23097 0.87092 0.10053 0.0
C3408 C 0.24024 0.84797 0.11921 0.0
C3409 C 0.24587 0.86499 0.1728 0.0
H3410 H 0.24144 0.81185 0.17613 0.0
C3411 C 0.25981 0.84199 0.24822 0.0
C3412 C 0.26737 0.82609 0.24911 0.0
C3413 C 0.25428 0.84665 0.23 0.0
C3414 C 0.24301 0.82678 0.17547 0.0
H3415 H 0.21785 0.89069 0.11663 0.0
H3416 H 0.22054 0.87807 0.1474 0.0
H3417 H 0.23206 0.82054 0.14449 0.0
H3418 H 0.2752 0.80278 0.23122 0.0
H3419 H 0.26612 0.81129 0.19936 0.0
H3420 H 0.2574 0.87142 0.20342 0.0
C3421 C 0.22547 0.87137 0.13465 0.0
C3422 C 0.23747 0.83174 0.15732 0.0
C3423 C 0.2237 0.87844 0.11695 0.0
C3424 C 0.26946 0.81512 0.23115 0.0
C3425 C 0.26407 0.81992 0.21284 0.0
C3426 C 0.25158 0.86007 0.19086 0.0
C3427 C 0.2343 0.85645 0.13619 0.0
C3428 C 0.23885 0.85092 0.15575 0.0
C3429 C 0.25629 0.83572 0.21198 0.0
C3430 C 0.25026 0.84088 0.19252 0.0
H3431 H 0.24452 0.84914 0.0893 0.0
H3432 H 0.24716 0.83653 0.11984 0.0
H3433 H 0.2475 0.87992 0.17205 0.0
H3434 H 0.25775 0.85072 0.26165 0.0
H3435 H 0.24807 0.85867 0.23011 0.0
C3436 C 0.97103 0.60209 0.87378 0.0
C3437 C 0.96471 0.61884 0.87369 0.0
C3438 C 0.97592 0.59648 0.89168 0.0
C3439 C 0.99034 0.61415 0.94537 0.0
H3440 H 0.97341 0.56151 0.94939 0.0
C3441 C 0.0147 0.58056 0.0118 0.0
C3442 C 1.00138 0.56903 0.01928 0.0
C3443 C 0.01064 0.58739 0.99435 0.0
C3444 C 0.97822 0.57627 0.94852 0.0
H3445 H 0.95891 0.64301 0.89242 0.0
H3446 H 0.96763 0.63326 0.92376 0.0
H3447 H 0.96549 0.57205 0.91842 0.0
H3448 H 0.9734 0.55577 0.01454 0.0
H3449 H 0.96637 0.56745 0.98407 0.0
H3450 H 1.00309 0.61831 0.97555 0.0
C3451 C 0.96875 0.62447 0.90992 0.0
C3452 C 0.97379 0.58227 0.93073 0.0
C3453 C 0.96364 0.62998 0.89197 0.0
C3454 C 0.98395 0.56459 0.0091 0.0
C3455 C 0.97994 0.5712 0.99159 0.0
C3456 C 0.99496 0.60807 0.96313 0.0
C3457 C 0.97483 0.60757 0.90997 0.0
C3458 C 0.97972 0.60129 0.92895 0.0
C3459 C 0.99322 0.5826 0.98393 0.0
C3460 C 0.98885 0.58908 0.96494 0.0
H3461 H 0.97205 0.59318 0.85998 0.0
H3462 H 0.98071 0.58348 0.89121 0.0
H3463 H 0.99522 0.62886 0.94441 0.0
H3464 H 0.02825 0.58422 0.01938 0.0
H3465 H 0.02118 0.59607 0.98876 0.0
C3466 C 0.27043 0.16295 0.53671 0.0
C3467 C 0.28716 0.16283 0.53096 0.0
C3468 C 0.2689 0.17439 0.55443 0.0
C3469 C 0.29384 0.19951 0.60318 0.0
H3470 H 0.25718 0.22855 0.60295 0.0
C3471 C 0.28908 0.25527 0.67101 0.0
C3472 C 0.27202 0.25586 0.67546 0.0
C3473 C 0.29128 0.24414 0.65337 0.0
C3474 C 0.26735 0.22037 0.60333 0.0
H3475 H 0.31542 0.1745 0.53954 0.0
H3476 H 0.31269 0.19446 0.57047 0.0
H3477 H 0.26028 0.20846 0.5723 0.0
H3478 H 0.24391 0.24494 0.66516 0.0
H3479 H 0.24772 0.22543 0.6345 0.0
H3480 H 0.30081 0.21127 0.63425 0.0
C3481 C 0.30079 0.18562 0.56127 0.0
C3482 C 0.26914 0.20887 0.58576 0.0
C3483 C 0.30233 0.17425 0.54349 0.0
C3484 C 0.25722 0.24503 0.66198 0.0
C3485 C 0.25941 0.23387 0.6444 0.0
C3486 C 0.29201 0.21096 0.62079 0.0
C3487 C 0.28405 0.1859 0.56686 0.0
C3488 C 0.28235 0.19826 0.58551 0.0
C3489 C 0.27646 0.23332 0.63985 0.0
C3490 C 0.2787 0.22146 0.62108 0.0
H3491 H 0.25847 0.15432 0.52746 0.0
H3492 H 0.25584 0.17413 0.55848 0.0
H3493 H 0.30402 0.19133 0.60348 0.0
H3494 H 0.30074 0.26364 0.68102 0.0
H3495 H 0.30459 0.24423 0.65018 0.0
C3496 C 0.63572 0.534 0.24663 0.0
C3497 C 0.63236 0.54669 0.26269 0.0
C3498 C 0.62803 0.53364 0.22701 0.0
C3499 C 0.60625 0.56306 0.19633 0.0
H3500 H 0.58806 0.51556 0.15889 0.0
C3501 C 0.5585 0.55909 0.12463 0.0
C3502 C 0.56074 0.548 0.1068 0.0
C3503 C 0.56802 0.55829 0.14287 0.0
C3504 C 0.59324 0.52898 0.16908 0.0
H3505 H 0.61808 0.56885 0.27043 0.0
H3506 H 0.60469 0.56806 0.23674 0.0
H3507 H 0.6034 0.51541 0.1919 0.0
H3508 H 0.57469 0.52701 0.09447 0.0
H3509 H 0.59129 0.52555 0.12644 0.0
H3510 H 0.59595 0.57663 0.17375 0.0
C3511 C 0.6135 0.55859 0.23907 0.0
C3512 C 0.60209 0.52891 0.18805 0.0
C3513 C 0.62114 0.55895 0.25855 0.0
C3514 C 0.57262 0.53579 0.10785 0.0
C3515 C 0.58209 0.53489 0.12622 0.0
C3516 C 0.59739 0.56312 0.17749 0.0
C3517 C 0.61683 0.54601 0.22292 0.0
C3518 C 0.60849 0.54595 0.20211 0.0
C3519 C 0.58007 0.54631 0.14399 0.0
C3520 C 0.59049 0.54608 0.16365 0.0
H3521 H 0.64427 0.52432 0.24922 0.0
H3522 H 0.63105 0.52383 0.21502 0.0
H3523 H 0.61136 0.57655 0.20643 0.0
H3524 H 0.54947 0.56863 0.12454 0.0
H3525 H 0.56581 0.56705 0.1562 0.0
C3526 C 0.22435 0.88053 0.98496 0.0
C3527 C 0.22954 0.87145 1.0004 0.0
C3528 C 0.22573 0.87318 0.96519 0.0
C3529 C 0.23243 0.83103 0.93072 0.0
H3530 H 0.25951 0.86883 0.90622 0.0
C3531 C 0.26569 0.81044 0.86084 0.0
C3532 C 0.26843 0.82348 0.84804 0.0
C3533 C 0.25868 0.81514 0.87847 0.0
C3534 C 0.2516 0.85801 0.91247 0.0
H3535 H 0.23901 0.84687 0.00702 0.0
H3536 H 0.2408 0.83375 0.97263 0.0
H3537 H 0.24972 0.87859 0.93761 0.0
H3538 H 0.26485 0.85104 0.84292 0.0
H3539 H 0.25192 0.85878 0.87267 0.0
H3540 H 0.23419 0.81041 0.90549 0.0
C3541 C 0.23582 0.84659 0.97569 0.0
C3542 C 0.24599 0.86369 0.93063 0.0
C3543 C 0.23474 0.8541 0.99543 0.0
C3544 C 0.26322 0.84082 0.85268 0.0
C3545 C 0.25592 0.84533 0.86995 0.0
C3546 C 0.23781 0.82533 0.91233 0.0
C3547 C 0.23204 0.85643 0.9604 0.0
C3548 C 0.23646 0.8503 0.94012 0.0
C3549 C 0.25395 0.83285 0.88349 0.0
C3550 C 0.24761 0.83873 0.90292 0.0
H3551 H 0.22059 0.89407 0.98831 0.0
H3552 H 0.22255 0.88103 0.95374 0.0
H3553 H 0.22508 0.82032 0.93759 0.0
H3554 H 0.26959 0.79696 0.85764 0.0
H3555 H 0.25754 0.8051 0.88843 0.0
C3556 C 0.97793 0.59894 0.76351 0.0
C3557 C 0.96319 0.60714 0.76561 0.0
C3558 C 0.98177 0.59228 0.74475 0.0
C3559 C 0.96327 0.57842 0.691 0.0
H3560 H 0.01301 0.5885 0.68519 0.0
C3561 C 0.9891 0.57071 0.61494 0.0
C3562 C 1.00479 0.56402 0.61374 0.0
C3563 C 0.98267 0.5738 0.63303 0.0
C3564 C 0.99908 0.58529 0.68659 0.0
H3565 H 0.94065 0.61432 0.74949 0.0
H3566 H 0.94758 0.60298 0.71648 0.0
H3567 H 1.00438 0.59867 0.7172 0.0
H3568 H 0.02546 0.55439 0.6305 0.0
H3569 H 0.01417 0.55967 0.66201 0.0
H3570 H 0.95808 0.56536 0.66009 0.0
C3571 C 0.95605 0.60151 0.72947 0.0
C3572 C 0.9941 0.59115 0.705 0.0
C3573 C 0.95211 0.60809 0.74838 0.0
C3574 C 0.01337 0.55959 0.63086 0.0
C3575 C 1.00698 0.56277 0.64898 0.0
C3576 C 0.96828 0.57262 0.67248 0.0
C3577 C 0.97111 0.59377 0.72744 0.0
C3578 C 0.97614 0.58771 0.70753 0.0
C3579 C 0.9918 0.57037 0.65039 0.0
C3580 C 0.98627 0.57592 0.67009 0.0
H3581 H 0.98664 0.59771 0.77643 0.0
H3582 H 0.99319 0.58598 0.74384 0.0
H3583 H 0.94935 0.57536 0.69242 0.0
H3584 H 0.98209 0.57422 0.60204 0.0
H3585 H 0.97099 0.57972 0.63358 0.0
C3586 C 0.26143 0.17187 0.43504 0.0
C3587 C 0.27883 0.17024 0.44123 0.0
C3588 C 0.25831 0.18535 0.42361 0.0
C3589 C 0.28022 0.22888 0.40696 0.0
H3590 H 0.24277 0.21108 0.36169 0.0
C3591 C 0.26172 0.24577 0.32479 0.0
C3592 C 0.26383 0.2656 0.32875 0.0
C3593 C 0.26176 0.23566 0.34023 0.0
C3594 C 0.25325 0.21629 0.3743 0.0
H3595 H 0.3066 0.18182 0.44056 0.0
H3596 H 0.30112 0.20498 0.42029 0.0
H3597 H 0.24672 0.19074 0.38569 0.0
H3598 H 0.26736 0.29047 0.35194 0.0
H3599 H 0.26755 0.27268 0.37923 0.0
H3600 H 0.28722 0.25411 0.39491 0.0
C3601 C 0.28989 0.19608 0.42455 0.0
C3602 C 0.25541 0.20471 0.38819 0.0
C3603 C 0.29303 0.18266 0.43605 0.0
C3604 C 0.26576 0.27518 0.34851 0.0
C3605 C 0.26592 0.26502 0.36408 0.0
C3606 C 0.27806 0.24049 0.39301 0.0
C3607 C 0.27249 0.19746 0.41803 0.0
C3608 C 0.26915 0.21068 0.40447 0.0
C3609 C 0.26395 0.24513 0.36006 0.0
C3610 C 0.26481 0.2341 0.37628 0.0
H3611 H 0.25018 0.16268 0.43893 0.0
H3612 H 0.24475 0.18621 0.41908 0.0
H3613 H 0.29077 0.23403 0.4195 0.0
H3614 H 0.26029 0.23801 0.30971 0.0
H3615 H 0.26055 0.22042 0.33663 0.0
C3616 C 0.39671 0.67943 0.54592 0.0
C3617 C 0.38109 0.67181 0.55289 0.0
C3618 C 0.41044 0.66946 0.54475 0.0
C3619 C 0.42585 0.62731 0.56047 0.0
H3620 H 0.45235 0.63038 0.51651 0.0
C3621 C 0.47128 0.57507 0.53968 0.0
C3622 C 0.48862 0.58385 0.53783 0.0
C3623 C 0.45792 0.58553 0.5404 0.0
C3624 C 0.44508 0.62938 0.52888 0.0
H3625 H 0.36808 0.64791 0.56476 0.0
H3626 H 0.39138 0.63055 0.56225 0.0
H3627 H 0.43052 0.64987 0.52128 0.0
H3628 H 0.50525 0.61024 0.53429 0.0
H3629 H 0.4819 0.62817 0.53481 0.0
H3630 H 0.44015 0.60641 0.56767 0.0
C3631 C 0.39345 0.64435 0.55802 0.0
C3632 C 0.43262 0.64073 0.53178 0.0
C3633 C 0.3799 0.65437 0.55939 0.0
C3634 C 0.49201 0.60299 0.5356 0.0
C3635 C 0.47861 0.6133 0.53591 0.0
C3636 C 0.43808 0.61576 0.55737 0.0
C3637 C 0.40886 0.65151 0.55036 0.0
C3638 C 0.42275 0.63991 0.54764 0.0
C3639 C 0.46151 0.6049 0.53889 0.0
C3640 C 0.44788 0.61663 0.54155 0.0
H3641 H 0.39812 0.69279 0.54075 0.0
H3642 H 0.42219 0.67578 0.53918 0.0
H3643 H 0.41896 0.62644 0.57315 0.0
H3644 H 0.46829 0.56046 0.54173 0.0
H3645 H 0.44485 0.57857 0.54255 0.0
C3646 C 0.8603 0.02463 0.60925 0.0
C3647 C 0.86112 0.02103 0.62868 0.0
C3648 C 0.87556 0.02704 0.60026 0.0
C3649 C 0.92329 0.0413 0.60932 0.0
H3650 H 0.92297 1.00407 0.56223 0.0
C3651 C 0.98779 0.0334 0.57953 0.0
C3652 C 0.98732 0.02805 0.55899 0.0
C3653 C 0.97211 0.0333 0.58747 0.0
C3654 C 0.92325 0.01485 0.57511 0.0
H3655 H 0.87848 0.01785 0.65423 0.0
H3656 H 0.90532 0.02277 0.6387 0.0
H3657 H 0.896 1.00379 0.57704 0.0
H3658 H 0.97031 0.0187 0.53053 0.0
H3659 H 0.94286 0.0193 0.54422 0.0
H3660 H 0.95026 0.05281 0.60727 0.0
C3661 C 0.89284 0.02347 0.63041 0.0
C3662 C 0.9078 0.01459 0.58362 0.0
C3663 C 0.87753 0.02062 0.63924 0.0
C3664 C 0.97095 0.02269 0.54646 0.0
C3665 C 0.95524 0.02296 0.55436 0.0
C3666 C 0.93863 0.04184 0.6006 0.0
C3667 C 0.89189 0.02633 0.61074 0.0
C3668 C 0.9078 0.02763 0.60093 0.0
C3669 C 0.95561 0.02826 0.57499 0.0
C3670 C 0.93893 0.02841 0.58356 0.0
H3671 H 0.84778 0.02486 0.60073 0.0
H3672 H 0.87459 0.02926 0.58506 0.0
H3673 H 0.92349 0.05158 0.62262 0.0
H3674 H 1.00029 0.0375 0.5895 0.0
H3675 H 0.97298 0.037 0.60344 0.0
C3676 C 0.85655 0.13256 0.31326 0.0
C3677 C 0.86146 0.12207 0.29646 0.0
C3678 C 0.85005 0.1491 0.31236 0.0
C3679 C 0.82742 0.17541 0.27947 0.0
H3680 H 0.84614 0.21872 0.32241 0.0
C3681 C 0.79326 0.24056 0.29459 0.0
C3682 C 0.8041 0.2591 0.29966 0.0
C3683 C 0.80057 0.22422 0.29307 0.0
C3684 C 0.84075 0.20687 0.31021 0.0
H3685 H 0.86274 0.12137 0.26518 0.0
H3686 H 0.85069 0.15005 0.26344 0.0
H3687 H 0.85802 0.19002 0.3213 0.0
H3688 H 0.83149 0.27448 0.30723 0.0
H3689 H 0.84416 0.24614 0.30523 0.0
H3690 H 0.80979 0.19215 0.26871 0.0
C3691 C 0.85219 0.14532 0.27749 0.0
C3692 C 0.84754 0.19024 0.30962 0.0
C3693 C 0.85913 0.1288 0.27847 0.0
C3694 C 0.82259 0.2606 0.30335 0.0
C3695 C 0.82989 0.24423 0.30223 0.0
C3696 C 0.82035 0.19194 0.28029 0.0
C3697 C 0.84777 0.15595 0.29455 0.0
C3698 C 0.841 0.17413 0.29429 0.0
C3699 C 0.81904 0.22568 0.29693 0.0
C3700 C 0.82685 0.20801 0.29572 0.0
H3701 H 0.85807 0.12823 0.32752 0.0
H3702 H 0.84666 0.15654 0.32579 0.0
H3703 H 0.82189 0.16341 0.26747 0.0
H3704 H 0.77899 0.2386 0.29147 0.0
H3705 H 0.79166 0.21035 0.28913 0.0
C3706 C 0.76737 0.15349 0.01147 0.0
C3707 C 0.77992 0.16225 0.02841 0.0
C3708 C 0.75043 0.14391 0.01343 0.0
C3709 C 0.72605 0.12059 0.04866 0.0
H3710 H 0.68429 0.12868 0.01774 0.0
C3711 C 0.65531 0.08032 0.05313 0.0
C3712 C 0.64272 0.09163 0.05515 0.0
C3713 C 0.67188 0.08771 0.04824 0.0
C3714 C 0.69584 0.12629 0.02647 0.0
H3715 H 0.78444 0.16801 0.06068 0.0
H3716 H 0.75498 0.1514 0.06402 0.0
H3717 H 0.71371 0.14422 0.01249 0.0
H3718 H 0.63779 0.11967 0.0538 0.0
H3719 H 0.66654 0.13241 0.0451 0.0
H3720 H 0.70822 0.10305 0.06298 0.0
C3721 C 0.75828 0.15173 0.04925 0.0
C3722 C 0.71267 0.13504 0.02334 0.0
C3723 C 0.77513 0.16137 0.04731 0.0
C3724 C 0.64702 0.11043 0.05199 0.0
C3725 C 0.66352 0.11776 0.04701 0.0
C3726 C 0.70924 0.11176 0.0517 0.0
C3727 C 0.74578 0.1428 0.03235 0.0
C3728 C 0.72794 0.13251 0.03463 0.0
C3729 C 0.67616 0.10652 0.04518 0.0
C3730 C 0.69396 0.11473 0.04084 0.0
H3731 H 0.77066 0.15391 0.9967 0.0
H3732 H 0.74108 0.13708 1.00014 0.0
H3733 H 0.73759 0.1182 0.05741 0.0
H3734 H 0.65234 0.06571 0.05518 0.0
H3735 H 0.68131 0.07866 0.04674 0.0
C3736 C 0.16046 0.44383 0.30755 0.0
C3737 C 0.16274 0.45677 0.32562 0.0
C3738 C 0.17061 0.4299 0.30535 0.0
C3739 C 0.21167 0.41764 0.32857 0.0
H3740 H 0.18945 0.36637 0.30093 0.0
C3741 C 0.24589 0.35426 0.33204 0.0
C3742 C 0.24525 0.34218 0.31377 0.0
C3743 C 0.23547 0.36792 0.33355 0.0
C3744 C 0.19587 0.38066 0.30861 0.0
H3745 H 0.17781 0.46521 0.35543 0.0
H3746 H 0.19498 0.44109 0.35169 0.0
H3747 H 0.17238 0.39114 0.30236 0.0
H3748 H 0.23294 0.33502 0.28281 0.0
H3749 H 0.21503 0.35871 0.28548 0.0
H3750 H 0.23508 0.4071 0.33501 0.0
C3751 C 0.18564 0.44175 0.33906 0.0
C3752 C 0.18611 0.3949 0.30933 0.0
C3753 C 0.1756 0.45559 0.34123 0.0
C3754 C 0.23375 0.34392 0.29719 0.0
C3755 C 0.22338 0.35751 0.2987 0.0
C3756 C 0.22136 0.4034 0.32796 0.0
C3757 C 0.18328 0.42863 0.32115 0.0
C3758 C 0.19385 0.41359 0.3194 0.0
C3759 C 0.22415 0.36975 0.31684 0.0
C3760 C 0.21359 0.38473 0.31801 0.0
H3761 H 0.1507 0.44429 0.29522 0.0
H3762 H 0.16856 0.42015 0.29125 0.0
H3763 H 0.21822 0.43192 0.33614 0.0
H3764 H 0.25464 0.35338 0.34509 0.0
H3765 H 0.23628 0.37709 0.34779 0.0
C3766 C 0.25477 0.50695 0.11511 0.0
C3767 C 0.26667 0.52115 0.12932 0.0
C3768 C 0.23926 0.51073 0.10578 0.0
C3769 C 0.20925 0.54416 0.11055 0.0
H3770 H 0.19681 0.52797 0.05339 0.0
C3771 C 0.1566 0.57252 0.06656 0.0
C3772 C 0.14387 0.55908 0.05247 0.0
C3773 C 0.17187 0.56767 0.07495 0.0
C3774 C 0.20003 0.53244 0.06937 0.0
H3775 H 0.27137 0.55028 0.14526 0.0
H3776 H 0.24448 0.55685 0.12899 0.0
H3777 H 0.22218 0.5191 0.07078 0.0
H3778 H 0.13771 0.53035 0.03529 0.0
H3779 H 0.16432 0.5218 0.05016 0.0
H3780 H 0.1872 0.55754 0.10921 0.0
C3781 C 0.24701 0.54275 0.12513 0.0
C3782 C 0.21451 0.52731 0.07934 0.0
C3783 C 0.26248 0.539 0.13441 0.0
C3784 C 0.14718 0.54095 0.04628 0.0
C3785 C 0.16248 0.5361 0.05468 0.0
C3786 C 0.19481 0.54928 0.10061 0.0
C3787 C 0.23532 0.52875 0.11054 0.0
C3788 C 0.21937 0.53325 0.10003 0.0
C3789 C 0.17478 0.54927 0.06947 0.0
C3790 C 0.19012 0.54363 0.07989 0.0
H3791 H 0.25761 0.49305 0.11086 0.0
H3792 H 0.2304 0.49957 0.09477 0.0
H3793 H 0.21246 0.54868 0.12653 0.0
H3794 H 0.15441 0.58655 0.07182 0.0
H3795 H 0.18126 0.57825 0.08606 0.0
C3796 C 0.8657 0.00594 0.28796 0.0
C3797 C 0.85758 0.02075 0.29516 0.0
C3798 C 0.85787 0.98669 0.28786 0.0
C3799 C 0.82116 0.9562 0.30893 0.0
H3800 H 0.83473 0.91476 0.27616 0.0
C3801 C 0.78746 0.87535 0.30468 0.0
C3802 C 0.79919 0.86308 0.30652 0.0
C3803 C 0.79366 0.8943 0.30217 0.0
C3804 C 0.83077 0.92614 0.28549 0.0
H3805 H 0.83425 0.02642 0.30707 0.0
H3806 H 0.82013 0.9934 0.30559 0.0
H3807 H 0.84668 0.94741 0.27318 0.0
H3808 H 0.82663 0.86128 0.30657 0.0
H3809 H 0.83716 0.89367 0.30153 0.0
H3810 H 0.80483 0.9346 0.32073 0.0
C3811 C 0.83297 0.99633 0.30085 0.0
C3812 C 0.83779 0.94512 0.2839 0.0
C3813 C 0.84099 0.01552 0.30138 0.0
C3814 C 0.81714 0.8702 0.30521 0.0
C3815 C 0.82322 0.88887 0.30224 0.0
C3816 C 0.81387 0.9372 0.31019 0.0
C3817 C 0.8414 0.98139 0.29462 0.0
C3818 C 0.83332 0.96072 0.29573 0.0
C3819 C 0.81168 0.90141 0.3009 0.0
C3820 C 0.81866 0.92178 0.29865 0.0
H3821 H 0.87863 0.00929 0.28343 0.0
H3822 H 0.86522 0.97609 0.28314 0.0
H3823 H 0.81744 0.96733 0.31882 0.0
H3824 H 0.7736 0.87049 0.30571 0.0
H3825 H 0.78429 0.90338 0.30112 0.0
C3826 C 0.67718 0.05957 0.83608 0.0
C3827 C 0.66236 0.04801 0.82311 0.0
C3828 C 0.68765 0.07494 0.83025 0.0
C3829 C 0.68648 0.10822 0.79591 0.0
H3830 H 0.73772 0.11757 0.80763 0.0
C3831 C 0.73131 0.16953 0.77028 0.0
C3832 C 0.74598 0.18018 0.78409 0.0
C3833 C 0.72165 0.15239 0.77366 0.0
C3834 C 0.72343 0.11527 0.80441 0.0
H3835 H 0.64692 0.04363 0.79379 0.0
H3836 H 0.66519 0.07055 0.7837 0.0
H3837 H 0.71962 0.08978 0.81643 0.0
H3838 H 0.7621 0.18115 0.8122 0.0
H3839 H 0.74518 0.15141 0.81823 0.0
H3840 H 0.69019 0.13389 0.78432 0.0
C3841 C 0.66864 0.0677 0.7984 0.0
C3842 C 0.71307 0.09933 0.80943 0.0
C3843 C 0.65823 0.05223 0.80417 0.0
C3844 C 0.75102 0.17312 0.80113 0.0
C3845 C 0.74131 0.15605 0.80458 0.0
C3846 C 0.69682 0.12422 0.791 0.0
C3847 C 0.68348 0.07919 0.81137 0.0
C3848 C 0.69449 0.09571 0.80536 0.0
C3849 C 0.72638 0.14557 0.791 0.0
C3850 C 0.71543 0.12802 0.79532 0.0
H3851 H 0.68077 0.05674 0.85077 0.0
H3852 H 0.69888 0.08368 0.84066 0.0
H3853 H 0.67218 0.10593 0.79281 0.0
H3854 H 0.72725 0.1745 0.75689 0.0
H3855 H 0.71043 0.14451 0.76271 0.0
loop_
_geom_bond_atom_site_label_1
_geom_bond_atom_site_label_2
_geom_bond_distance
_geom_bond_site_symmetry_2
_ccdc_geom_bond_type
Mg0 O1 2.028 . S
Mg0 O7 1.986 . S
Mg0 O9 2.114 . S
Mg0 O10 2.251 . S
Mg0 O13 2.010 . S
O1 Mg0 2.028 . S
O1 C4 1.250 . S
O2 Mg3 2.028 . S
O2 C4 1.248 . S
Mg3 O2 2.028 . S
Mg3 O8 2.032 . S
Mg3 O10 2.079 . S
C4 O1 1.250 . S
C4 O2 1.248 . S
C5 O6 1.264 . S
C5 O13 1.249 . S
O6 C5 1.264 . S
O7 Mg0 1.986 . S
O7 C11 1.246 . S
O8 Mg3 2.032 . S
O8 C11 1.259 . S
O9 Mg0 2.114 . S
O9 C12 1.252 . S
O10 Mg0 2.251 . S
O10 Mg3 2.079 . S
O10 C12 1.273 . S
C11 O7 1.246 . S
C11 O8 1.259 . S
C12 O9 1.252 . S
C12 O10 1.273 . S
O13 Mg0 2.010 . S
O13 C5 1.249 . S
Mg14 O15 2.028 . S
Mg14 O21 1.986 . S
Mg14 O23 2.114 1_455 S
Mg14 O24 2.251 1_455 S
Mg14 O27 2.010 . S
O15 Mg14 2.028 . S
O15 C18 1.250 1_455 S
O16 Mg17 2.028 . S
O16 C18 1.248 . S
Mg17 O16 2.028 . S
Mg17 O22 2.032 . S
Mg17 O24 2.079 . S
C18 O15 1.250 1_655 S
C18 O16 1.248 . S
C19 O20 1.264 . S
C19 O27 1.249 . S
O20 C19 1.264 . S
O21 Mg14 1.986 . S
O21 C25 1.246 1_455 S
O22 Mg17 2.032 . S
O22 C25 1.259 . S
O23 Mg14 2.114 1_655 S
O23 C26 1.252 . S
O24 Mg14 2.251 1_655 S
O24 Mg17 2.079 . S
O24 C26 1.273 . S
C25 O21 1.246 1_655 S
C25 O22 1.259 . S
C26 O23 1.252 . S
C26 O24 1.273 . S
O27 Mg14 2.010 . S
O27 C19 1.249 . S
Mg28 O29 2.028 . S
Mg28 O35 1.986 . S
Mg28 O37 2.114 . S
Mg28 O38 2.251 . S
Mg28 O41 2.010 . S
O29 Mg28 2.028 . S
O29 C32 1.250 . S
O30 Mg31 2.028 . S
O30 C32 1.248 . S
Mg31 O30 2.028 . S
Mg31 O36 2.032 . S
Mg31 O38 2.079 . S
C32 O29 1.250 . S
C32 O30 1.248 . S
C33 O34 1.264 . S
C33 O41 1.249 . S
O34 C33 1.264 . S
O35 Mg28 1.986 . S
O35 C39 1.246 . S
O36 Mg31 2.032 . S
O36 C39 1.259 . S
O37 Mg28 2.114 . S
O37 C40 1.252 . S
O38 Mg28 2.251 . S
O38 Mg31 2.079 . S
O38 C40 1.273 . S
C39 O35 1.246 . S
C39 O36 1.259 . S
C40 O37 1.252 . S
C40 O38 1.273 . S
O41 Mg28 2.010 . S
O41 C33 1.249 . S
Mg42 O43 2.028 . S
Mg42 O49 1.986 . S
Mg42 O51 2.114 . S
Mg42 O52 2.251 . S
Mg42 O55 2.010 . S
O43 Mg42 2.028 . S
O43 C46 1.250 . S
O44 Mg45 2.028 . S
O44 C46 1.248 . S
Mg45 O44 2.028 . S
Mg45 O50 2.032 . S
Mg45 O52 2.079 . S
C46 O43 1.250 . S
C46 O44 1.248 . S
C47 O48 1.264 . S
C47 O55 1.249 . S
O48 C47 1.264 . S
O49 Mg42 1.986 . S
O49 C53 1.246 . S
O50 Mg45 2.032 . S
O50 C53 1.259 . S
O51 Mg42 2.114 . S
O51 C54 1.252 . S
O52 Mg42 2.251 . S
O52 Mg45 2.079 . S
O52 C54 1.273 . S
C53 O49 1.246 . S
C53 O50 1.259 . S
C54 O51 1.252 . S
C54 O52 1.273 . S
O55 Mg42 2.010 . S
O55 C47 1.249 . S
Mg56 O57 2.028 . S
Mg56 O63 1.986 . S
Mg56 O65 2.114 . S
Mg56 O66 2.251 1_455 S
Mg56 O69 2.010 . S
O57 Mg56 2.028 . S
O57 C60 1.250 . S
O58 Mg59 2.028 . S
O58 C60 1.248 1_655 S
Mg59 O58 2.028 . S
Mg59 O64 2.036 1_655 S
Mg59 O66 2.079 . S
C60 O57 1.250 . S
C60 O58 1.248 1_455 S
C61 O62 1.264 . S
C61 O69 1.249 . S
O62 C61 1.264 . S
O63 Mg56 1.986 . S
O63 C67 1.246 . S
O64 Mg59 2.036 1_455 S
O64 C67 1.254 . S
O65 Mg56 2.114 . S
O65 C68 1.252 1_455 S
O66 Mg56 2.251 1_655 S
O66 Mg59 2.079 . S
O66 C68 1.273 . S
C67 O63 1.246 . S
C67 O64 1.254 . S
C68 O65 1.252 1_655 S
C68 O66 1.273 . S
O69 Mg56 2.010 . S
O69 C61 1.249 . S
Mg70 O71 2.028 . S
Mg70 O77 1.986 . S
Mg70 O79 2.114 . S
Mg70 O80 2.251 . S
Mg70 O83 2.010 . S
O71 Mg70 2.028 . S
O71 C74 1.250 . S
O72 Mg73 2.028 . S
O72 C74 1.248 . S
Mg73 O72 2.028 . S
Mg73 O78 2.032 . S
Mg73 O80 2.079 . S
C74 O71 1.250 . S
C74 O72 1.248 . S
C75 O76 1.264 . S
C75 O83 1.249 . S
O76 C75 1.264 . S
O77 Mg70 1.986 . S
O77 C81 1.246 . S
O78 Mg73 2.032 . S
O78 C81 1.259 . S
O79 Mg70 2.114 . S
O79 C82 1.252 . S
O80 Mg70 2.251 . S
O80 Mg73 2.079 . S
O80 C82 1.273 . S
C81 O77 1.246 . S
C81 O78 1.259 . S
C82 O79 1.252 . S
C82 O80 1.273 . S
O83 Mg70 2.010 . S
O83 C75 1.249 . S
Mg84 O85 2.028 . S
Mg84 O91 1.986 . S
Mg84 O93 2.114 . S
Mg84 O94 2.251 . S
Mg84 O97 2.010 . S
O85 Mg84 2.028 . S
O85 C88 1.250 . S
O86 Mg87 2.028 . S
O86 C88 1.248 . S
Mg87 O86 2.028 . S
Mg87 O92 2.032 . S
Mg87 O94 2.079 . S
C88 O85 1.250 . S
C88 O86 1.248 . S
C89 O90 1.264 . S
C89 O97 1.249 . S
O90 C89 1.264 . S
O91 Mg84 1.986 . S
O91 C95 1.246 . S
O92 Mg87 2.032 . S
O92 C95 1.259 . S
O93 Mg84 2.114 . S
O93 C96 1.252 . S
O94 Mg84 2.251 . S
O94 Mg87 2.079 . S
O94 C96 1.273 . S
C95 O91 1.246 . S
C95 O92 1.259 . S
C96 O93 1.252 . S
C96 O94 1.273 . S
O97 Mg84 2.010 . S
O97 C89 1.249 . S
Mg98 O99 2.028 . S
Mg98 O105 1.986 . S
Mg98 O107 2.114 . S
Mg98 O108 2.251 1_455 S
Mg98 O111 2.010 . S
O99 Mg98 2.028 . S
O99 C102 1.250 . S
O100 Mg101 2.028 1_455 S
O100 C102 1.248 . S
Mg101 O100 2.028 1_655 S
Mg101 O106 2.032 1_655 S
Mg101 O108 2.079 . S
C102 O99 1.250 . S
C102 O100 1.248 . S
C103 O104 1.264 . S
C103 O111 1.249 . S
O104 C103 1.264 . S
O105 Mg98 1.986 . S
O105 C109 1.246 . S
O106 Mg101 2.032 1_455 S
O106 C109 1.259 . S
O107 Mg98 2.114 . S
O107 C110 1.252 1_455 S
O108 Mg98 2.251 1_655 S
O108 Mg101 2.079 . S
O108 C110 1.273 . S
C109 O105 1.246 . S
C109 O106 1.259 . S
C110 O107 1.252 1_655 S
C110 O108 1.273 . S
O111 Mg98 2.010 . S
O111 C103 1.249 . S
Mg112 O113 2.028 . S
Mg112 O119 1.986 . S
Mg112 O121 2.114 . S
Mg112 O122 2.251 . S
Mg112 O125 2.010 . S
O113 Mg112 2.028 . S
O113 C116 1.250 . S
O114 Mg115 2.028 . S
O114 C116 1.248 . S
Mg115 O114 2.028 . S
Mg115 O120 2.032 . S
Mg115 O122 2.079 . S
C116 O113 1.250 . S
C116 O114 1.248 . S
C117 O118 1.264 . S
C117 O125 1.249 . S
O118 C117 1.264 . S
O119 Mg112 1.986 . S
O119 C123 1.246 . S
O120 Mg115 2.032 . S
O120 C123 1.259 . S
O121 Mg112 2.114 . S
O121 C124 1.252 . S
O122 Mg112 2.251 . S
O122 Mg115 2.079 . S
O122 C124 1.273 . S
C123 O119 1.246 . S
C123 O120 1.259 . S
C124 O121 1.252 . S
C124 O122 1.273 . S
O125 Mg112 2.010 . S
O125 C117 1.249 . S
Mg126 O127 2.028 . S
Mg126 O133 1.986 . S
Mg126 O135 2.114 . S
Mg126 O136 2.251 . S
Mg126 O139 2.010 . S
O127 Mg126 2.028 . S
O127 C130 1.250 . S
O128 Mg129 2.028 . S
O128 C130 1.248 . S
Mg129 O128 2.028 . S
Mg129 O134 2.032 . S
Mg129 O136 2.079 . S
C130 O127 1.250 . S
C130 O128 1.248 . S
C131 O132 1.264 . S
C131 O139 1.249 . S
O132 C131 1.264 . S
O133 Mg126 1.986 . S
O133 C137 1.246 . S
O134 Mg129 2.032 . S
O134 C137 1.259 . S
O135 Mg126 2.114 . S
O135 C138 1.252 . S
O136 Mg126 2.251 . S
O136 Mg129 2.079 . S
O136 C138 1.273 . S
C137 O133 1.246 . S
C137 O134 1.259 . S
C138 O135 1.252 . S
C138 O136 1.273 . S
O139 Mg126 2.010 . S
O139 C131 1.249 . S
Mg140 O141 2.028 . S
Mg140 O147 1.986 . S
Mg140 O149 2.114 . S
Mg140 O150 2.251 . S
Mg140 O153 2.010 . S
O141 Mg140 2.028 . S
O141 C144 1.250 . S
O142 Mg143 2.028 . S
O142 C144 1.248 . S
Mg143 O142 2.028 . S
Mg143 O148 2.032 . S
Mg143 O150 2.079 . S
C144 O141 1.250 . S
C144 O142 1.248 . S
C145 O146 1.264 . S
C145 O153 1.249 . S
O146 C145 1.264 . S
O147 Mg140 1.986 . S
O147 C151 1.272 . S
O148 Mg143 2.032 . S
O148 C151 1.280 . S
O149 Mg140 2.114 . S
O149 C152 1.252 . S
O150 Mg140 2.251 . S
O150 Mg143 2.079 . S
O150 C152 1.273 . S
C151 O147 1.272 . S
C151 O148 1.280 . S
C152 O149 1.252 . S
C152 O150 1.273 . S
O153 Mg140 2.010 . S
O153 C145 1.249 . S
Mg154 O155 2.028 . S
Mg154 O161 1.986 . S
Mg154 O163 2.114 . S
Mg154 O164 2.251 . S
Mg154 O167 2.010 . S
O155 Mg154 2.028 . S
O155 C158 1.250 . S
O156 Mg157 2.028 . S
O156 C158 1.248 . S
Mg157 O156 2.028 . S
Mg157 O162 2.032 . S
Mg157 O164 2.079 . S
C158 O155 1.250 . S
C158 O156 1.248 . S
C159 O160 1.264 . S
C159 O167 1.249 . S
O160 C159 1.264 . S
O161 Mg154 1.986 . S
O161 C165 1.246 . S
O162 Mg157 2.032 . S
O162 C165 1.259 . S
O163 Mg154 2.114 . S
O163 C166 1.252 . S
O164 Mg154 2.251 . S
O164 Mg157 2.079 . S
O164 C166 1.273 . S
C165 O161 1.246 . S
C165 O162 1.259 . S
C166 O163 1.252 . S
C166 O164 1.273 . S
O167 Mg154 2.010 . S
O167 C159 1.249 . S
Mg168 O169 2.028 . S
Mg168 O175 1.986 . S
Mg168 O177 2.114 . S
Mg168 O178 2.251 . S
Mg168 O181 2.010 . S
O169 Mg168 2.028 . S
O169 C172 1.250 . S
O170 Mg171 2.028 . S
O170 C172 1.248 . S
Mg171 O170 2.028 . S
Mg171 O176 2.032 . S
Mg171 O178 2.079 . S
C172 O169 1.250 . S
C172 O170 1.248 . S
C173 O174 1.264 . S
C173 O181 1.249 . S
O174 C173 1.264 . S
O175 Mg168 1.986 . S
O175 C179 1.246 . S
O176 Mg171 2.032 . S
O176 C179 1.259 . S
O177 Mg168 2.114 . S
O177 C180 1.252 . S
O178 Mg168 2.251 . S
O178 Mg171 2.079 . S
O178 C180 1.273 . S
C179 O175 1.246 . S
C179 O176 1.259 . S
C180 O177 1.252 . S
C180 O178 1.273 . S
O181 Mg168 2.010 . S
O181 C173 1.249 . S
Mg182 O183 2.028 . S
Mg182 O189 1.986 . S
Mg182 O191 2.114 . S
Mg182 O192 2.251 . S
Mg182 O195 2.010 . S
O183 Mg182 2.028 . S
O183 C186 1.250 . S
O184 Mg185 2.028 . S
O184 C186 1.248 . S
Mg185 O184 2.028 . S
Mg185 O190 2.032 . S
Mg185 O192 2.079 . S
C186 O183 1.250 . S
C186 O184 1.248 . S
C187 O188 1.264 . S
C187 O195 1.249 . S
O188 C187 1.264 . S
O189 Mg182 1.986 . S
O189 C193 1.246 . S
O190 Mg185 2.032 . S
O190 C193 1.259 . S
O191 Mg182 2.114 . S
O191 C194 1.252 . S
O192 Mg182 2.251 . S
O192 Mg185 2.079 . S
O192 C194 1.273 . S
C193 O189 1.246 . S
C193 O190 1.259 . S
C194 O191 1.252 . S
C194 O192 1.273 . S
O195 Mg182 2.010 . S
O195 C187 1.249 . S
Mg196 O197 2.028 . S
Mg196 O203 1.986 . S
Mg196 O205 2.114 . S
Mg196 O206 2.251 . S
Mg196 O209 2.010 . S
O197 Mg196 2.028 . S
O197 C200 1.250 . S
O198 Mg199 2.028 . S
O198 C200 1.248 . S
Mg199 O198 2.028 . S
Mg199 O204 2.032 . S
Mg199 O206 2.079 . S
C200 O197 1.250 . S
C200 O198 1.248 . S
C201 O202 1.264 . S
C201 O209 1.249 . S
O202 C201 1.264 . S
O203 Mg196 1.986 . S
O203 C207 1.246 . S
O204 Mg199 2.032 . S
O204 C207 1.259 . S
O205 Mg196 2.114 . S
O205 C208 1.252 . S
O206 Mg196 2.251 . S
O206 Mg199 2.079 . S
O206 C208 1.273 . S
C207 O203 1.246 . S
C207 O204 1.259 . S
C208 O205 1.252 . S
C208 O206 1.273 . S
O209 Mg196 2.010 . S
O209 C201 1.249 . S
Mg210 O211 2.028 . S
Mg210 O217 1.986 . S
Mg210 O219 2.114 . S
Mg210 O220 2.251 . S
Mg210 O223 2.010 . S
O211 Mg210 2.028 . S
O211 C214 1.250 . S
O212 Mg213 2.028 . S
O212 C214 1.248 . S
Mg213 O212 2.028 . S
Mg213 O218 2.032 . S
Mg213 O220 2.079 . S
C214 O211 1.250 . S
C214 O212 1.248 . S
C215 O216 1.264 1_565 S
C215 O223 1.249 . S
O216 C215 1.264 1_545 S
O217 Mg210 1.986 . S
O217 C221 1.246 . S
O218 Mg213 2.032 . S
O218 C221 1.259 . S
O219 Mg210 2.114 . S
O219 C222 1.252 . S
O220 Mg210 2.251 . S
O220 Mg213 2.079 . S
O220 C222 1.273 . S
C221 O217 1.246 . S
C221 O218 1.259 . S
C222 O219 1.252 . S
C222 O220 1.273 . S
O223 Mg210 2.010 . S
O223 C215 1.249 . S
Mg224 O225 2.028 . S
Mg224 O231 1.986 . S
Mg224 O233 2.114 . S
Mg224 O234 2.251 . S
Mg224 O237 2.010 . S
O225 Mg224 2.028 . S
O225 C228 1.250 . S
O226 Mg227 2.028 . S
O226 C228 1.248 . S
Mg227 O226 2.028 . S
Mg227 O232 2.032 . S
Mg227 O234 2.079 . S
C228 O225 1.250 . S
C228 O226 1.248 . S
C229 O230 1.264 . S
C229 O237 1.249 . S
O230 C229 1.264 . S
O231 Mg224 1.986 . S
O231 C235 1.246 . S
O232 Mg227 2.032 . S
O232 C235 1.259 . S
O233 Mg224 2.114 . S
O233 C236 1.252 . S
O234 Mg224 2.251 . S
O234 Mg227 2.079 . S
O234 C236 1.273 . S
C235 O231 1.246 . S
C235 O232 1.259 . S
C236 O233 1.252 . S
C236 O234 1.273 . S
O237 Mg224 2.010 . S
O237 C229 1.249 . S
Mg238 O239 2.028 . S
Mg238 O245 1.986 . S
Mg238 O247 2.114 . S
Mg238 O248 2.251 . S
Mg238 O251 2.010 . S
O239 Mg238 2.028 . S
O239 C242 1.250 . S
O240 Mg241 2.028 . S
O240 C242 1.248 . S
Mg241 O240 2.028 . S
Mg241 O246 2.032 . S
Mg241 O248 2.079 . S
C242 O239 1.250 . S
C242 O240 1.248 . S
C243 O244 1.264 . S
C243 O251 1.249 . S
O244 C243 1.264 . S
O245 Mg238 1.986 . S
O245 C249 1.246 . S
O246 Mg241 2.032 . S
O246 C249 1.259 . S
O247 Mg238 2.114 . S
O247 C250 1.252 . S
O248 Mg238 2.251 . S
O248 Mg241 2.079 . S
O248 C250 1.273 . S
C249 O245 1.246 . S
C249 O246 1.259 . S
C250 O247 1.252 . S
C250 O248 1.273 . S
O251 Mg238 2.010 . S
O251 C243 1.249 . S
Mg252 O253 2.028 . S
Mg252 O259 1.986 . S
Mg252 O261 2.114 . S
Mg252 O262 2.251 . S
Mg252 O265 2.010 . S
O253 Mg252 2.028 . S
O253 C256 1.250 . S
O254 Mg255 2.028 . S
O254 C256 1.248 . S
Mg255 O254 2.028 . S
Mg255 O260 2.032 . S
Mg255 O262 2.079 . S
C256 O253 1.250 . S
C256 O254 1.248 . S
C257 O258 1.264 . S
C257 O265 1.249 . S
O258 C257 1.264 . S
O259 Mg252 1.986 . S
O259 C263 1.246 . S
O260 Mg255 2.032 . S
O260 C263 1.259 . S
O261 Mg252 2.114 . S
O261 C264 1.252 . S
O262 Mg252 2.251 . S
O262 Mg255 2.079 . S
O262 C264 1.273 . S
C263 O259 1.246 . S
C263 O260 1.259 . S
C264 O261 1.252 . S
C264 O262 1.273 . S
O265 Mg252 2.010 . S
O265 C257 1.249 . S
Mg266 O267 2.028 1_565 S
Mg266 O273 1.986 . S
Mg266 O275 2.114 1_565 S
Mg266 O276 2.251 . S
Mg266 O279 2.010 . S
O267 Mg266 2.028 1_545 S
O267 C270 1.250 . S
O268 Mg269 2.028 . S
O268 C270 1.248 . S
Mg269 O268 2.028 . S
Mg269 O274 2.032 1_545 S
Mg269 O276 2.079 1_545 S
C270 O267 1.250 . S
C270 O268 1.248 . S
C271 O272 1.264 . S
C271 O279 1.249 . S
O272 C271 1.264 . S
O273 Mg266 1.986 . S
O273 C277 1.246 . S
O274 Mg269 2.032 1_565 S
O274 C277 1.259 . S
O275 Mg266 2.114 1_545 S
O275 C278 1.252 . S
O276 Mg266 2.251 . S
O276 Mg269 2.079 1_565 S
O276 C278 1.273 1_565 S
C277 O273 1.246 . S
C277 O274 1.259 . S
C278 O275 1.252 . S
C278 O276 1.273 1_545 S
O279 Mg266 2.010 . S
O279 C271 1.249 . S
Mg280 O281 2.028 1_556 S
Mg280 O287 1.986 . S
Mg280 O289 2.114 1_556 S
Mg280 O290 2.251 . S
Mg280 O293 2.010 . S
O281 Mg280 2.028 1_554 S
O281 C284 1.250 . S
O282 Mg283 2.028 . S
O282 C284 1.248 . S
Mg283 O282 2.028 . S
Mg283 O288 2.032 1_554 S
Mg283 O290 2.079 1_554 S
C284 O281 1.250 . S
C284 O282 1.248 . S
C285 O286 1.264 . S
C285 O293 1.249 . S
O286 C285 1.264 . S
O287 Mg280 1.986 . S
O287 C291 1.246 . S
O288 Mg283 2.032 1_556 S
O288 C291 1.259 . S
O289 Mg280 2.114 1_554 S
O289 C292 1.252 . S
O290 Mg280 2.251 . S
O290 Mg283 2.079 1_556 S
O290 C292 1.273 1_556 S
C291 O287 1.246 . S
C291 O288 1.259 . S
C292 O289 1.252 . S
C292 O290 1.273 1_554 S
O293 Mg280 2.010 . S
O293 C285 1.249 . S
Mg294 O295 2.028 . S
Mg294 O301 1.986 . S
Mg294 O303 2.114 . S
Mg294 O304 2.251 . S
Mg294 O307 2.010 . S
O295 Mg294 2.028 . S
O295 C298 1.250 . S
O296 Mg297 2.028 . S
O296 C298 1.248 . S
Mg297 O296 2.028 . S
Mg297 O302 2.032 . S
Mg297 O304 2.079 . S
C298 O295 1.250 . S
C298 O296 1.248 . S
C299 O300 1.264 . S
C299 O307 1.249 . S
O300 C299 1.264 . S
O301 Mg294 1.986 . S
O301 C305 1.246 . S
O302 Mg297 2.032 . S
O302 C305 1.259 . S
O303 Mg294 2.114 . S
O303 C306 1.252 . S
O304 Mg294 2.251 . S
O304 Mg297 2.079 . S
O304 C306 1.273 . S
C305 O301 1.246 . S
C305 O302 1.259 . S
C306 O303 1.252 . S
C306 O304 1.273 . S
O307 Mg294 2.010 . S
O307 C299 1.249 . S
Mg308 O309 2.028 . S
Mg308 O315 1.986 . S
Mg308 O317 2.114 . S
Mg308 O318 2.251 . S
Mg308 O321 2.010 . S
O309 Mg308 2.028 . S
O309 C312 1.250 . S
O310 Mg311 2.028 . S
O310 C312 1.248 . S
Mg311 O310 2.028 . S
Mg311 O316 2.032 . S
Mg311 O318 2.079 . S
C312 O309 1.250 . S
C312 O310 1.248 . S
C313 O314 1.264 . S
C313 O321 1.249 . S
O314 C313 1.264 . S
O315 Mg308 1.986 . S
O315 C319 1.246 . S
O316 Mg311 2.032 . S
O316 C319 1.259 . S
O317 Mg308 2.114 . S
O317 C320 1.252 . S
O318 Mg308 2.251 . S
O318 Mg311 2.079 . S
O318 C320 1.273 . S
C319 O315 1.246 . S
C319 O316 1.259 . S
C320 O317 1.252 . S
C320 O318 1.273 . S
O321 Mg308 2.010 . S
O321 C313 1.249 . S
Mg322 O323 2.028 . S
Mg322 O329 1.986 . S
Mg322 O331 2.114 . S
Mg322 O332 2.251 . S
Mg322 O335 2.010 . S
O323 Mg322 2.028 . S
O323 C326 1.250 . S
O324 Mg325 2.028 . S
O324 C326 1.248 . S
Mg325 O324 2.028 . S
Mg325 O330 2.032 . S
Mg325 O332 2.079 . S
C326 O323 1.250 . S
C326 O324 1.248 . S
C327 O328 1.264 . S
C327 O335 1.249 . S
O328 C327 1.264 . S
O329 Mg322 1.986 . S
O329 C333 1.246 . S
O330 Mg325 2.032 . S
O330 C333 1.259 . S
O331 Mg322 2.114 . S
O331 C334 1.252 . S
O332 Mg322 2.251 . S
O332 Mg325 2.079 . S
O332 C334 1.273 . S
C333 O329 1.246 . S
C333 O330 1.259 . S
C334 O331 1.252 . S
C334 O332 1.273 . S
O335 Mg322 2.010 . S
O335 C327 1.249 . S
Nd336 C338 2.836 . S
Nd336 O356 2.500 . S
Nd336 O357 2.492 . S
Nd336 O358 2.487 . S
Nd336 O359 2.682 . S
Nd336 O360 2.410 . S
Nd336 O365 2.414 . S
Nd336 O367 2.424 . S
Nd337 C347 2.836 1_545 S
Nd337 O359 2.415 . S
Nd337 O361 2.423 1_455 S
Nd337 O362 2.500 1_545 S
Nd337 O363 2.492 1_445 S
Nd337 O364 2.487 1_455 S
Nd337 O365 2.682 . S
Nd337 O366 2.411 . S
C338 Nd336 2.836 . S
C338 C339 1.498 . S
C338 O356 1.258 . S
C338 O357 1.239 . S
C339 C338 1.498 . S
C339 C340 1.366 . S
C339 C344 1.407 . S
C340 C339 1.366 . S
C340 C341 1.392 . S
C340 H368 0.930 . S
C341 C340 1.392 . S
C341 C342 1.398 . S
C341 H369 0.929 . S
C342 C341 1.398 . S
C342 C343 1.352 . S
C343 C342 1.352 . S
C343 C344 1.384 . S
C343 H370 0.930 . S
C344 C339 1.407 . S
C344 C343 1.384 . S
C344 H371 0.929 . S
C345 O358 1.241 . S
C345 O359 1.273 . S
C346 O360 1.251 1_655 S
C346 O361 1.268 . S
C347 Nd337 2.836 1_565 S
C347 C348 1.498 . S
C347 O362 1.258 . S
C347 O363 1.239 1_455 S
C348 C347 1.498 . S
C348 C349 1.366 . S
C348 C353 1.436 . S
C349 C348 1.366 . S
C349 C350 1.392 . S
C349 H372 0.930 . S
C350 C349 1.392 . S
C350 C351 1.398 . S
C350 H373 0.929 . S
C351 C350 1.398 . S
C351 C352 1.352 . S
C352 C351 1.352 . S
C352 C353 1.406 . S
C352 H374 0.930 1_455 S
C353 C348 1.436 . S
C353 C352 1.406 . S
C353 H375 0.882 1_455 S
C354 O364 1.241 1_455 S
C354 O365 1.273 . S
C355 O366 1.251 . S
C355 O367 1.268 . S
O356 Nd336 2.500 . S
O356 C338 1.258 . S
O357 Nd336 2.492 . S
O357 C338 1.239 . S
O358 Nd336 2.487 . S
O358 C345 1.241 . S
O359 Nd336 2.682 . S
O359 Nd337 2.415 . S
O359 C345 1.273 . S
O360 Nd336 2.410 . S
O360 C346 1.251 1_455 S
O361 Nd337 2.423 1_655 S
O361 C346 1.268 . S
O362 Nd337 2.500 1_565 S
O362 C347 1.258 . S
O363 Nd337 2.492 1_665 S
O363 C347 1.239 1_655 S
O364 Nd337 2.487 1_655 S
O364 C354 1.241 1_655 S
O365 Nd336 2.414 . S
O365 Nd337 2.682 . S
O365 C354 1.273 . S
O366 Nd337 2.411 . S
O366 C355 1.251 . S
O367 Nd336 2.424 . S
O367 C355 1.268 . S
H368 C340 0.930 . S
H369 C341 0.929 . S
H370 C343 0.930 . S
H371 C344 0.929 . S
H372 C349 0.930 . S
H373 C350 0.929 . S
H374 C352 0.930 1_655 S
H375 C353 0.882 1_655 S
Nd376 C378 2.836 . S
Nd376 O396 2.500 . S
Nd376 O397 2.492 . S
Nd376 O398 2.487 . S
Nd376 O399 2.682 . S
Nd376 O400 2.410 . S
Nd376 O405 2.414 . S
Nd376 O407 2.424 . S
Nd377 C387 2.836 . S
Nd377 O399 2.414 . S
Nd377 O401 2.424 . S
Nd377 O402 2.500 . S
Nd377 O403 2.492 . S
Nd377 O404 2.487 . S
Nd377 O405 2.682 . S
Nd377 O406 2.410 . S
C378 Nd376 2.836 . S
C378 C379 1.498 . S
C378 O396 1.258 . S
C378 O397 1.239 . S
C379 C378 1.498 . S
C379 C380 1.366 . S
C379 C384 1.407 . S
C380 C379 1.366 . S
C380 C381 1.392 . S
C380 H408 0.930 . S
C381 C380 1.392 . S
C381 C382 1.398 . S
C381 H409 0.929 . S
C382 C381 1.398 . S
C382 C383 1.352 . S
C383 C382 1.352 . S
C383 C384 1.384 . S
C383 H410 0.930 . S
C384 C379 1.407 . S
C384 C383 1.384 . S
C384 H411 0.929 . S
C385 O398 1.241 . S
C385 O399 1.273 . S
C386 O400 1.251 . S
C386 O401 1.268 . S
C387 Nd377 2.836 . S
C387 C388 1.498 . S
C387 O402 1.258 . S
C387 O403 1.239 . S
C388 C387 1.498 . S
C388 C389 1.366 . S
C388 C393 1.407 . S
C389 C388 1.366 . S
C389 C390 1.392 . S
C389 H412 0.930 . S
C390 C389 1.392 . S
C390 C391 1.398 . S
C390 H413 0.929 . S
C391 C390 1.398 . S
C391 C392 1.352 . S
C392 C391 1.352 . S
C392 C393 1.384 . S
C392 H414 0.930 . S
C393 C388 1.407 . S
C393 C392 1.384 . S
C393 H415 0.929 . S
C394 O404 1.241 . S
C394 O405 1.273 . S
C395 O406 1.251 . S
C395 O407 1.268 . S
O396 Nd376 2.500 . S
O396 C378 1.258 . S
O397 Nd376 2.492 . S
O397 C378 1.239 . S
O398 Nd376 2.487 . S
O398 C385 1.241 . S
O399 Nd376 2.682 . S
O399 Nd377 2.414 . S
O399 C385 1.273 . S
O400 Nd376 2.410 . S
O400 C386 1.251 . S
O401 Nd377 2.424 . S
O401 C386 1.268 . S
O402 Nd377 2.500 . S
O402 C387 1.258 . S
O403 Nd377 2.492 . S
O403 C387 1.239 . S
O404 Nd377 2.487 . S
O404 C394 1.241 . S
O405 Nd376 2.414 . S
O405 Nd377 2.682 . S
O405 C394 1.273 . S
O406 Nd377 2.410 . S
O406 C395 1.251 . S
O407 Nd376 2.424 . S
O407 C395 1.268 . S
H408 C380 0.930 . S
H409 C381 0.929 . S
H410 C383 0.930 . S
H411 C384 0.929 . S
H412 C389 0.930 . S
H413 C390 0.929 . S
H414 C392 0.930 . S
H415 C393 0.929 . S
Nd416 C418 2.836 . S
Nd416 O436 2.500 . S
Nd416 O437 2.492 . S
Nd416 O438 2.487 . S
Nd416 O439 2.682 . S
Nd416 O440 2.410 . S
Nd416 O445 2.414 . S
Nd416 O447 2.424 . S
Nd417 C427 2.836 . S
Nd417 O439 2.414 . S
Nd417 O441 2.424 . S
Nd417 O442 2.500 . S
Nd417 O443 2.492 . S
Nd417 O444 2.487 . S
Nd417 O445 2.682 . S
Nd417 O446 2.410 . S
C418 Nd416 2.836 . S
C418 C419 1.498 . S
C418 O436 1.258 . S
C418 O437 1.239 . S
C419 C418 1.498 . S
C419 C420 1.366 . S
C419 C424 1.407 . S
C420 C419 1.366 . S
C420 C421 1.392 . S
C420 H448 0.930 . S
C421 C420 1.392 . S
C421 C422 1.398 . S
C421 H449 0.929 . S
C422 C421 1.398 . S
C422 C423 1.352 . S
C423 C422 1.352 . S
C423 C424 1.384 . S
C423 H450 0.930 . S
C424 C419 1.407 . S
C424 C423 1.384 . S
C424 H451 0.929 . S
C425 O438 1.241 . S
C425 O439 1.273 . S
C426 O440 1.251 . S
C426 O441 1.268 . S
C427 Nd417 2.836 . S
C427 C428 1.498 . S
C427 O442 1.258 . S
C427 O443 1.239 . S
C428 C427 1.498 . S
C428 C429 1.366 . S
C428 C433 1.407 . S
C429 C428 1.366 . S
C429 C430 1.392 . S
C429 H452 0.930 . S
C430 C429 1.392 . S
C430 C431 1.398 . S
C430 H453 0.929 . S
C431 C430 1.398 . S
C431 C432 1.352 . S
C432 C431 1.352 . S
C432 C433 1.384 . S
C432 H454 0.930 . S
C433 C428 1.407 . S
C433 C432 1.384 . S
C433 H455 0.929 . S
C434 O444 1.241 . S
C434 O445 1.273 . S
C435 O446 1.251 . S
C435 O447 1.268 . S
O436 Nd416 2.500 . S
O436 C418 1.258 . S
O437 Nd416 2.492 . S
O437 C418 1.239 . S
O438 Nd416 2.487 . S
O438 C425 1.241 . S
O439 Nd416 2.682 . S
O439 Nd417 2.414 . S
O439 C425 1.273 . S
O440 Nd416 2.410 . S
O440 C426 1.251 . S
O441 Nd417 2.424 . S
O441 C426 1.268 . S
O442 Nd417 2.500 . S
O442 C427 1.258 . S
O443 Nd417 2.492 . S
O443 C427 1.239 . S
O444 Nd417 2.487 . S
O444 C434 1.241 . S
O445 Nd416 2.414 . S
O445 Nd417 2.682 . S
O445 C434 1.273 . S
O446 Nd417 2.410 . S
O446 C435 1.251 . S
O447 Nd416 2.424 . S
O447 C435 1.268 . S
H448 C420 0.930 . S
H449 C421 0.929 . S
H450 C423 0.930 . S
H451 C424 0.929 . S
H452 C429 0.930 . S
H453 C430 0.929 . S
H454 C432 0.930 . S
H455 C433 0.929 . S
Nd456 C458 2.836 . S
Nd456 O476 2.500 . S
Nd456 O477 2.492 . S
Nd456 O478 2.487 . S
Nd456 O479 2.682 . S
Nd456 O480 2.410 . S
Nd456 O485 2.414 . S
Nd456 O487 2.424 . S
Nd457 C467 2.836 . S
Nd457 O479 2.414 . S
Nd457 O481 2.424 . S
Nd457 O482 2.500 . S
Nd457 O483 2.492 . S
Nd457 O484 2.487 . S
Nd457 O485 2.682 . S
Nd457 O486 2.410 . S
C458 Nd456 2.836 . S
C458 C459 1.498 . S
C458 O476 1.258 . S
C458 O477 1.239 . S
C459 C458 1.498 . S
C459 C460 1.366 . S
C459 C464 1.407 . S
C460 C459 1.366 . S
C460 C461 1.392 . S
C460 H488 0.930 . S
C461 C460 1.392 . S
C461 C462 1.398 . S
C461 H489 0.929 . S
C462 C461 1.398 . S
C462 C463 1.352 . S
C463 C462 1.352 . S
C463 C464 1.384 . S
C463 H490 0.930 . S
C464 C459 1.407 . S
C464 C463 1.384 . S
C464 H491 0.929 . S
C465 O478 1.241 . S
C465 O479 1.273 . S
C466 O480 1.251 . S
C466 O481 1.268 . S
C467 Nd457 2.836 . S
C467 C468 1.498 . S
C467 O482 1.258 . S
C467 O483 1.239 . S
C468 C467 1.498 . S
C468 C469 1.366 . S
C468 C473 1.407 . S
C469 C468 1.366 . S
C469 C470 1.392 . S
C469 H492 0.930 . S
C470 C469 1.392 . S
C470 C471 1.398 . S
C470 H493 0.929 . S
C471 C470 1.398 . S
C471 C472 1.352 . S
C472 C471 1.352 . S
C472 C473 1.384 . S
C472 H494 0.930 . S
C473 C468 1.407 . S
C473 C472 1.384 . S
C473 H495 0.929 . S
C474 O484 1.241 . S
C474 O485 1.273 . S
C475 O486 1.251 . S
C475 O487 1.268 . S
O476 Nd456 2.500 . S
O476 C458 1.258 . S
O477 Nd456 2.492 . S
O477 C458 1.239 . S
O478 Nd456 2.487 . S
O478 C465 1.241 . S
O479 Nd456 2.682 . S
O479 Nd457 2.414 . S
O479 C465 1.273 . S
O480 Nd456 2.410 . S
O480 C466 1.251 . S
O481 Nd457 2.424 . S
O481 C466 1.268 . S
O482 Nd457 2.500 . S
O482 C467 1.258 . S
O483 Nd457 2.492 . S
O483 C467 1.239 . S
O484 Nd457 2.487 . S
O484 C474 1.241 . S
O485 Nd456 2.414 . S
O485 Nd457 2.682 . S
O485 C474 1.273 . S
O486 Nd457 2.410 . S
O486 C475 1.251 . S
O487 Nd456 2.424 . S
O487 C475 1.268 . S
H488 C460 0.930 . S
H489 C461 0.929 . S
H490 C463 0.930 . S
H491 C464 0.929 . S
H492 C469 0.930 . S
H493 C470 0.929 . S
H494 C472 0.930 . S
H495 C473 0.929 . S
Nd496 C498 2.836 . S
Nd496 O516 2.462 1_455 S
Nd496 O517 2.492 . S
Nd496 O518 2.487 . S
Nd496 O519 2.682 . S
Nd496 O520 2.410 . S
Nd496 O525 2.414 1_455 S
Nd496 O527 2.424 . S
Nd497 C507 2.836 1_545 S
Nd497 O519 2.414 . S
Nd497 O521 2.414 1_455 S
Nd497 O522 2.500 . S
Nd497 O523 2.492 1_545 S
Nd497 O524 2.487 1_455 S
Nd497 O525 2.682 1_455 S
Nd497 O526 2.410 . S
C498 Nd496 2.836 . S
C498 C499 1.498 . S
C498 O516 1.227 1_455 S
C498 O517 1.239 . S
C499 C498 1.498 . S
C499 C500 1.366 1_455 S
C499 C504 1.407 . S
C500 C499 1.366 1_655 S
C500 C501 1.392 . S
C500 H528 0.930 . S
C501 C500 1.392 . S
C501 C502 1.398 . S
C501 H529 0.929 . S
C502 C501 1.398 . S
C502 C503 1.352 1_655 S
C503 C502 1.352 1_455 S
C503 C504 1.384 . S
C503 H530 0.930 . S
C504 C499 1.407 . S
C504 C503 1.384 . S
C504 H531 0.929 . S
C505 O518 1.241 . S
C505 O519 1.273 . S
C506 O520 1.251 . S
C506 O521 1.271 1_455 S
C507 Nd497 2.836 1_565 S
C507 C508 1.498 . S
C507 O522 1.258 1_565 S
C507 O523 1.239 . S
C508 C507 1.498 . S
C508 C509 1.366 . S
C508 C513 1.407 . S
C509 C508 1.366 . S
C509 C510 1.392 . S
C509 H532 0.930 . S
C510 C509 1.392 . S
C510 C511 1.398 . S
C510 H533 0.929 . S
C511 C510 1.398 . S
C511 C512 1.352 . S
C512 C511 1.352 . S
C512 C513 1.384 . S
C512 H534 0.930 . S
C513 C508 1.407 . S
C513 C512 1.384 . S
C513 H535 0.929 1_455 S
C514 O524 1.241 . S
C514 O525 1.273 . S
C515 O526 1.251 . S
C515 O527 1.268 . S
O516 Nd496 2.462 1_655 S
O516 C498 1.227 1_655 S
O517 Nd496 2.492 . S
O517 C498 1.239 . S
O518 Nd496 2.487 . S
O518 C505 1.241 . S
O519 Nd496 2.682 . S
O519 Nd497 2.414 . S
O519 C505 1.273 . S
O520 Nd496 2.410 . S
O520 C506 1.251 . S
O521 Nd497 2.414 1_655 S
O521 C506 1.271 1_655 S
O522 Nd497 2.500 . S
O522 C507 1.258 1_545 S
O523 Nd497 2.492 1_565 S
O523 C507 1.239 . S
O524 Nd497 2.487 1_655 S
O524 C514 1.241 . S
O525 Nd496 2.414 1_655 S
O525 Nd497 2.682 1_655 S
O525 C514 1.273 . S
O526 Nd497 2.410 . S
O526 C515 1.251 . S
O527 Nd496 2.424 . S
O527 C515 1.268 . S
H528 C500 0.930 . S
H529 C501 0.929 . S
H530 C503 0.930 . S
H531 C504 0.929 . S
H532 C509 0.930 . S
H533 C510 0.929 . S
H534 C512 0.930 . S
H535 C513 0.929 1_655 S
Nd536 C538 2.836 . S
Nd536 O556 2.500 . S
Nd536 O557 2.492 . S
Nd536 O558 2.487 . S
Nd536 O559 2.682 . S
Nd536 O560 2.410 . S
Nd536 O565 2.414 . S
Nd536 O567 2.424 . S
Nd537 C547 2.836 . S
Nd537 O559 2.414 . S
Nd537 O561 2.424 . S
Nd537 O562 2.500 . S
Nd537 O563 2.492 . S
Nd537 O564 2.487 . S
Nd537 O565 2.682 . S
Nd537 O566 2.410 . S
C538 Nd536 2.836 . S
C538 C539 1.498 . S
C538 O556 1.258 . S
C538 O557 1.239 . S
C539 C538 1.498 . S
C539 C540 1.366 . S
C539 C544 1.407 . S
C540 C539 1.366 . S
C540 C541 1.392 . S
C540 H568 0.930 . S
C541 C540 1.392 . S
C541 C542 1.398 . S
C541 H569 0.929 . S
C542 C541 1.398 . S
C542 C543 1.352 . S
C543 C542 1.352 . S
C543 C544 1.384 . S
C543 H570 0.930 . S
C544 C539 1.407 . S
C544 C543 1.384 . S
C544 H571 0.929 . S
C545 O558 1.241 . S
C545 O559 1.273 . S
C546 O560 1.251 . S
C546 O561 1.268 . S
C547 Nd537 2.836 . S
C547 C548 1.498 . S
C547 O562 1.258 . S
C547 O563 1.239 . S
C548 C547 1.498 . S
C548 C549 1.366 . S
C548 C553 1.407 . S
C549 C548 1.366 . S
C549 C550 1.392 . S
C549 H572 0.930 . S
C550 C549 1.392 . S
C550 C551 1.398 . S
C550 H573 0.929 . S
C551 C550 1.398 . S
C551 C552 1.352 . S
C552 C551 1.352 . S
C552 C553 1.384 . S
C552 H574 0.930 . S
C553 C548 1.407 . S
C553 C552 1.384 . S
C553 H575 0.929 . S
C554 O564 1.241 . S
C554 O565 1.273 . S
C555 O566 1.251 . S
C555 O567 1.268 . S
O556 Nd536 2.500 . S
O556 C538 1.258 . S
O557 Nd536 2.492 . S
O557 C538 1.239 . S
O558 Nd536 2.487 . S
O558 C545 1.241 . S
O559 Nd536 2.682 . S
O559 Nd537 2.414 . S
O559 C545 1.273 . S
O560 Nd536 2.410 . S
O560 C546 1.251 . S
O561 Nd537 2.424 . S
O561 C546 1.268 . S
O562 Nd537 2.500 . S
O562 C547 1.258 . S
O563 Nd537 2.492 . S
O563 C547 1.239 . S
O564 Nd537 2.487 . S
O564 C554 1.241 . S
O565 Nd536 2.414 . S
O565 Nd537 2.682 . S
O565 C554 1.273 . S
O566 Nd537 2.410 . S
O566 C555 1.251 . S
O567 Nd536 2.424 . S
O567 C555 1.268 . S
H568 C540 0.930 . S
H569 C541 0.929 . S
H570 C543 0.930 . S
H571 C544 0.929 . S
H572 C549 0.930 . S
H573 C550 0.929 . S
H574 C552 0.930 . S
H575 C553 0.929 . S
Nd576 C578 2.836 . S
Nd576 O596 2.500 . S
Nd576 O597 2.492 . S
Nd576 O598 2.487 . S
Nd576 O599 2.682 . S
Nd576 O600 2.410 . S
Nd576 O605 2.414 . S
Nd576 O607 2.424 . S
Nd577 C587 2.836 . S
Nd577 O599 2.414 . S
Nd577 O601 2.424 . S
Nd577 O602 2.500 . S
Nd577 O603 2.492 . S
Nd577 O604 2.487 . S
Nd577 O605 2.682 . S
Nd577 O606 2.410 . S
C578 Nd576 2.836 . S
C578 C579 1.498 . S
C578 O596 1.258 . S
C578 O597 1.239 . S
C579 C578 1.498 . S
C579 C580 1.366 . S
C579 C584 1.407 . S
C580 C579 1.366 . S
C580 C581 1.392 . S
C580 H608 0.930 . S
C581 C580 1.392 . S
C581 C582 1.398 . S
C581 H609 0.929 . S
C582 C581 1.398 . S
C582 C583 1.352 . S
C583 C582 1.352 . S
C583 C584 1.384 . S
C583 H610 0.930 1_545 S
C584 C579 1.407 . S
C584 C583 1.384 . S
C584 H611 0.929 1_545 S
C585 O598 1.241 . S
C585 O599 1.273 . S
C586 O600 1.251 . S
C586 O601 1.268 . S
C587 Nd577 2.836 . S
C587 C588 1.498 . S
C587 O602 1.258 . S
C587 O603 1.239 . S
C588 C587 1.498 . S
C588 C589 1.366 . S
C588 C593 1.407 . S
C589 C588 1.366 . S
C589 C590 1.392 . S
C589 H612 0.930 . S
C590 C589 1.392 . S
C590 C591 1.398 . S
C590 H613 0.929 . S
C591 C590 1.398 . S
C591 C592 1.352 . S
C592 C591 1.352 . S
C592 C593 1.384 . S
C592 H614 0.930 . S
C593 C588 1.407 . S
C593 C592 1.384 . S
C593 H615 0.929 . S
C594 O604 1.241 . S
C594 O605 1.273 . S
C595 O606 1.251 . S
C595 O607 1.268 . S
O596 Nd576 2.500 . S
O596 C578 1.258 . S
O597 Nd576 2.492 . S
O597 C578 1.239 . S
O598 Nd576 2.487 . S
O598 C585 1.241 . S
O599 Nd576 2.682 . S
O599 Nd577 2.414 . S
O599 C585 1.273 . S
O600 Nd576 2.410 . S
O600 C586 1.251 . S
O601 Nd577 2.424 . S
O601 C586 1.268 . S
O602 Nd577 2.500 . S
O602 C587 1.258 . S
O603 Nd577 2.492 . S
O603 C587 1.239 . S
O604 Nd577 2.487 . S
O604 C594 1.241 . S
O605 Nd576 2.414 . S
O605 Nd577 2.682 . S
O605 C594 1.273 . S
O606 Nd577 2.410 . S
O606 C595 1.251 . S
O607 Nd576 2.424 . S
O607 C595 1.268 . S
H608 C580 0.930 . S
H609 C581 0.929 . S
H610 C583 0.930 1_565 S
H611 C584 0.929 1_565 S
H612 C589 0.930 . S
H613 C590 0.929 . S
H614 C592 0.930 . S
H615 C593 0.929 . S
Nd616 C618 2.836 . S
Nd616 O636 2.500 . S
Nd616 O637 2.492 . S
Nd616 O638 2.487 . S
Nd616 O639 2.682 . S
Nd616 O640 2.410 . S
Nd616 O645 2.414 . S
Nd616 O647 2.424 . S
Nd617 C627 2.836 . S
Nd617 O639 2.414 . S
Nd617 O641 2.424 . S
Nd617 O642 2.500 . S
Nd617 O643 2.492 . S
Nd617 O644 2.487 . S
Nd617 O645 2.682 . S
Nd617 O646 2.410 . S
C618 Nd616 2.836 . S
C618 C619 1.498 . S
C618 O636 1.258 . S
C618 O637 1.239 . S
C619 C618 1.498 . S
C619 C620 1.366 . S
C619 C624 1.407 . S
C620 C619 1.366 . S
C620 C621 1.392 . S
C620 H648 0.930 . S
C621 C620 1.392 . S
C621 C622 1.398 . S
C621 H649 0.929 . S
C622 C621 1.398 . S
C622 C623 1.352 . S
C623 C622 1.352 . S
C623 C624 1.384 . S
C623 H650 0.930 . S
C624 C619 1.407 . S
C624 C623 1.384 . S
C624 H651 0.929 . S
C625 O638 1.241 . S
C625 O639 1.273 . S
C626 O640 1.251 . S
C626 O641 1.268 . S
C627 Nd617 2.836 . S
C627 C628 1.498 . S
C627 O642 1.258 . S
C627 O643 1.239 . S
C628 C627 1.498 . S
C628 C629 1.366 . S
C628 C633 1.407 . S
C629 C628 1.366 . S
C629 C630 1.392 . S
C629 H652 0.930 . S
C630 C629 1.392 . S
C630 C631 1.398 . S
C630 H653 0.929 . S
C631 C630 1.398 . S
C631 C632 1.352 . S
C632 C631 1.352 . S
C632 C633 1.384 . S
C632 H654 0.930 . S
C633 C628 1.407 . S
C633 C632 1.384 . S
C633 H655 0.929 . S
C634 O644 1.241 . S
C634 O645 1.273 . S
C635 O646 1.251 . S
C635 O647 1.268 . S
O636 Nd616 2.500 . S
O636 C618 1.258 . S
O637 Nd616 2.492 . S
O637 C618 1.239 . S
O638 Nd616 2.487 . S
O638 C625 1.241 . S
O639 Nd616 2.682 . S
O639 Nd617 2.414 . S
O639 C625 1.273 . S
O640 Nd616 2.410 . S
O640 C626 1.251 . S
O641 Nd617 2.424 . S
O641 C626 1.268 . S
O642 Nd617 2.500 . S
O642 C627 1.258 . S
O643 Nd617 2.492 . S
O643 C627 1.239 . S
O644 Nd617 2.487 . S
O644 C634 1.241 . S
O645 Nd616 2.414 . S
O645 Nd617 2.682 . S
O645 C634 1.273 . S
O646 Nd617 2.410 . S
O646 C635 1.251 . S
O647 Nd616 2.424 . S
O647 C635 1.268 . S
H648 C620 0.930 . S
H649 C621 0.929 . S
H650 C623 0.930 . S
H651 C624 0.929 . S
H652 C629 0.930 . S
H653 C630 0.929 . S
H654 C632 0.930 . S
H655 C633 0.929 . S
Nd656 C658 2.836 . S
Nd656 O676 2.500 . S
Nd656 O677 2.492 . S
Nd656 O678 2.487 . S
Nd656 O679 2.682 . S
Nd656 O680 2.410 . S
Nd656 O685 2.414 . S
Nd656 O687 2.424 . S
Nd657 C667 2.836 . S
Nd657 O679 2.414 . S
Nd657 O681 2.424 . S
Nd657 O682 2.500 . S
Nd657 O683 2.492 . S
Nd657 O684 2.487 . S
Nd657 O685 2.682 . S
Nd657 O686 2.410 . S
C658 Nd656 2.836 . S
C658 C659 1.498 . S
C658 O676 1.258 . S
C658 O677 1.239 . S
C659 C658 1.498 . S
C659 C660 1.366 . S
C659 C664 1.407 . S
C660 C659 1.366 . S
C660 C661 1.392 . S
C660 H688 0.930 . S
C661 C660 1.392 . S
C661 C662 1.398 . S
C661 H689 0.929 . S
C662 C661 1.398 . S
C662 C663 1.352 . S
C663 C662 1.352 . S
C663 C664 1.384 . S
C663 H690 0.930 . S
C664 C659 1.407 . S
C664 C663 1.384 . S
C664 H691 0.929 . S
C665 O678 1.241 . S
C665 O679 1.273 . S
C666 O680 1.251 . S
C666 O681 1.268 . S
C667 Nd657 2.836 . S
C667 C668 1.498 . S
C667 O682 1.258 . S
C667 O683 1.239 . S
C668 C667 1.498 . S
C668 C669 1.366 . S
C668 C673 1.407 . S
C669 C668 1.366 . S
C669 C670 1.392 . S
C669 H692 0.930 . S
C670 C669 1.392 . S
C670 C671 1.398 . S
C670 H693 0.929 . S
C671 C670 1.398 . S
C671 C672 1.352 . S
C672 C671 1.352 . S
C672 C673 1.384 . S
C672 H694 0.930 . S
C673 C668 1.407 . S
C673 C672 1.384 . S
C673 H695 0.929 . S
C674 O684 1.241 . S
C674 O685 1.273 . S
C675 O686 1.251 . S
C675 O687 1.268 . S
O676 Nd656 2.500 . S
O676 C658 1.258 . S
O677 Nd656 2.492 . S
O677 C658 1.239 . S
O678 Nd656 2.487 . S
O678 C665 1.241 . S
O679 Nd656 2.682 . S
O679 Nd657 2.414 . S
O679 C665 1.273 . S
O680 Nd656 2.410 . S
O680 C666 1.251 . S
O681 Nd657 2.424 . S
O681 C666 1.268 . S
O682 Nd657 2.500 . S
O682 C667 1.258 . S
O683 Nd657 2.492 . S
O683 C667 1.239 . S
O684 Nd657 2.487 . S
O684 C674 1.241 . S
O685 Nd656 2.414 . S
O685 Nd657 2.682 . S
O685 C674 1.273 . S
O686 Nd657 2.410 . S
O686 C675 1.251 . S
O687 Nd656 2.424 . S
O687 C675 1.268 . S
H688 C660 0.930 . S
H689 C661 0.929 . S
H690 C663 0.930 . S
H691 C664 0.929 . S
H692 C669 0.930 . S
H693 C670 0.929 . S
H694 C672 0.930 . S
H695 C673 0.929 . S
Nd696 C698 2.836 . S
Nd696 O716 2.500 . S
Nd696 O717 2.492 . S
Nd696 O718 2.487 . S
Nd696 O719 2.682 . S
Nd696 O720 2.410 . S
Nd696 O725 2.414 . S
Nd696 O727 2.424 . S
Nd697 C707 2.836 . S
Nd697 O719 2.414 . S
Nd697 O721 2.424 . S
Nd697 O722 2.500 . S
Nd697 O723 2.492 . S
Nd697 O724 2.487 . S
Nd697 O725 2.682 . S
Nd697 O726 2.410 . S
C698 Nd696 2.836 . S
C698 C699 1.498 . S
C698 O716 1.258 . S
C698 O717 1.239 . S
C699 C698 1.498 . S
C699 C700 1.366 . S
C699 C704 1.407 . S
C700 C699 1.366 . S
C700 C701 1.392 . S
C700 H728 0.930 . S
C701 C700 1.392 . S
C701 C702 1.398 . S
C701 H729 0.929 . S
C702 C701 1.398 . S
C702 C703 1.352 . S
C703 C702 1.352 . S
C703 C704 1.384 . S
C703 H730 0.930 . S
C704 C699 1.407 . S
C704 C703 1.384 . S
C704 H731 0.929 . S
C705 O718 1.241 . S
C705 O719 1.273 . S
C706 O720 1.251 . S
C706 O721 1.268 . S
C707 Nd697 2.836 . S
C707 C708 1.498 . S
C707 O722 1.258 . S
C707 O723 1.239 . S
C708 C707 1.498 . S
C708 C709 1.366 . S
C708 C713 1.407 . S
C709 C708 1.366 . S
C709 C710 1.392 . S
C709 H732 0.930 . S
C710 C709 1.392 . S
C710 C711 1.398 . S
C710 H733 0.929 . S
C711 C710 1.398 . S
C711 C712 1.352 . S
C712 C711 1.352 . S
C712 C713 1.384 . S
C712 H734 0.930 . S
C713 C708 1.407 . S
C713 C712 1.384 . S
C713 H735 0.929 . S
C714 O724 1.241 . S
C714 O725 1.273 . S
C715 O726 1.251 . S
C715 O727 1.268 . S
O716 Nd696 2.500 . S
O716 C698 1.258 . S
O717 Nd696 2.492 . S
O717 C698 1.239 . S
O718 Nd696 2.487 . S
O718 C705 1.241 . S
O719 Nd696 2.682 . S
O719 Nd697 2.414 . S
O719 C705 1.273 . S
O720 Nd696 2.410 . S
O720 C706 1.251 . S
O721 Nd697 2.424 . S
O721 C706 1.268 . S
O722 Nd697 2.500 . S
O722 C707 1.258 . S
O723 Nd697 2.492 . S
O723 C707 1.239 . S
O724 Nd697 2.487 . S
O724 C714 1.241 . S
O725 Nd696 2.414 . S
O725 Nd697 2.682 . S
O725 C714 1.273 . S
O726 Nd697 2.410 . S
O726 C715 1.251 . S
O727 Nd696 2.424 . S
O727 C715 1.268 . S
H728 C700 0.930 . S
H729 C701 0.929 . S
H730 C703 0.930 . S
H731 C704 0.929 . S
H732 C709 0.930 . S
H733 C710 0.929 . S
H734 C712 0.930 . S
H735 C713 0.929 . S
Nd736 C738 2.836 . S
Nd736 O756 2.500 . S
Nd736 O757 2.492 . S
Nd736 O758 2.487 1_655 S
Nd736 O759 2.682 1_655 S
Nd736 O760 2.410 . S
Nd736 O765 2.414 1_655 S
Nd736 O767 2.424 1_655 S
Nd737 C747 2.836 . S
Nd737 O759 2.414 . S
Nd737 O761 2.424 . S
Nd737 O762 2.500 . S
Nd737 O763 2.492 . S
Nd737 O764 2.487 . S
Nd737 O765 2.682 . S
Nd737 O766 2.410 . S
C738 Nd736 2.836 . S
C738 C739 1.498 . S
C738 O756 1.258 . S
C738 O757 1.239 . S
C739 C738 1.498 . S
C739 C740 1.366 . S
C739 C744 1.407 . S
C740 C739 1.366 . S
C740 C741 1.392 . S
C740 H768 0.930 . S
C741 C740 1.392 . S
C741 C742 1.398 . S
C741 H769 0.929 . S
C742 C741 1.398 . S
C742 C743 1.352 . S
C743 C742 1.352 . S
C743 C744 1.384 . S
C743 H770 0.930 . S
C744 C739 1.407 . S
C744 C743 1.384 . S
C744 H771 0.929 . S
C745 O758 1.241 . S
C745 O759 1.273 . S
C746 O760 1.251 1_455 S
C746 O761 1.268 . S
C747 Nd737 2.836 . S
C747 C748 1.498 . S
C747 O762 1.258 . S
C747 O763 1.239 . S
C748 C747 1.498 . S
C748 C749 1.366 . S
C748 C753 1.407 . S
C749 C748 1.366 . S
C749 C750 1.392 . S
C749 H772 0.930 . S
C750 C749 1.392 . S
C750 C751 1.398 . S
C750 H773 0.929 . S
C751 C750 1.398 . S
C751 C752 1.352 . S
C752 C751 1.352 . S
C752 C753 1.384 . S
C752 H774 0.930 . S
C753 C748 1.407 . S
C753 C752 1.384 . S
C753 H775 0.929 . S
C754 O764 1.241 . S
C754 O765 1.273 . S
C755 O766 1.251 . S
C755 O767 1.268 . S
O756 Nd736 2.500 . S
O756 C738 1.258 . S
O757 Nd736 2.492 . S
O757 C738 1.239 . S
O758 Nd736 2.487 1_455 S
O758 C745 1.241 . S
O759 Nd736 2.682 1_455 S
O759 Nd737 2.414 . S
O759 C745 1.273 . S
O760 Nd736 2.410 . S
O760 C746 1.251 1_655 S
O761 Nd737 2.424 . S
O761 C746 1.268 . S
O762 Nd737 2.500 . S
O762 C747 1.258 . S
O763 Nd737 2.492 . S
O763 C747 1.239 . S
O764 Nd737 2.487 . S
O764 C754 1.241 . S
O765 Nd736 2.414 1_455 S
O765 Nd737 2.682 . S
O765 C754 1.273 . S
O766 Nd737 2.410 . S
O766 C755 1.251 . S
O767 Nd736 2.424 1_455 S
O767 C755 1.268 . S
H768 C740 0.930 . S
H769 C741 0.929 . S
H770 C743 0.930 . S
H771 C744 0.929 . S
H772 C749 0.930 . S
H773 C750 0.929 . S
H774 C752 0.930 . S
H775 C753 0.929 . S
Nd776 C778 2.836 . S
Nd776 O796 2.500 . S
Nd776 O797 2.492 . S
Nd776 O798 2.487 . S
Nd776 O799 2.682 . S
Nd776 O800 2.410 . S
Nd776 O805 2.414 . S
Nd776 O807 2.424 . S
Nd777 C787 2.836 . S
Nd777 O799 2.414 . S
Nd777 O801 2.424 . S
Nd777 O802 2.500 . S
Nd777 O803 2.492 . S
Nd777 O804 2.487 . S
Nd777 O805 2.682 . S
Nd777 O806 2.410 . S
C778 Nd776 2.836 . S
C778 C779 1.498 . S
C778 O796 1.258 . S
C778 O797 1.239 . S
C779 C778 1.498 . S
C779 C780 1.366 . S
C779 C784 1.407 . S
C780 C779 1.366 . S
C780 C781 1.392 . S
C780 H808 0.930 . S
C781 C780 1.392 . S
C781 C782 1.398 . S
C781 H809 0.929 . S
C782 C781 1.398 . S
C782 C783 1.352 . S
C783 C782 1.352 . S
C783 C784 1.384 . S
C783 H810 0.930 . S
C784 C779 1.407 . S
C784 C783 1.384 . S
C784 H811 0.929 . S
C785 O798 1.241 . S
C785 O799 1.273 . S
C786 O800 1.251 . S
C786 O801 1.268 . S
C787 Nd777 2.836 . S
C787 C788 1.498 . S
C787 O802 1.258 . S
C787 O803 1.239 . S
C788 C787 1.498 . S
C788 C789 1.366 . S
C788 C793 1.407 . S
C789 C788 1.366 . S
C789 C790 1.392 . S
C789 H812 0.930 . S
C790 C789 1.392 . S
C790 C791 1.398 . S
C790 H813 0.929 . S
C791 C790 1.398 . S
C791 C792 1.352 . S
C792 C791 1.352 . S
C792 C793 1.384 . S
C792 H814 0.930 . S
C793 C788 1.407 . S
C793 C792 1.384 . S
C793 H815 0.929 . S
C794 O804 1.241 . S
C794 O805 1.273 . S
C795 O806 1.251 . S
C795 O807 1.268 . S
O796 Nd776 2.500 . S
O796 C778 1.258 . S
O797 Nd776 2.492 . S
O797 C778 1.239 . S
O798 Nd776 2.487 . S
O798 C785 1.241 . S
O799 Nd776 2.682 . S
O799 Nd777 2.414 . S
O799 C785 1.273 . S
O800 Nd776 2.410 . S
O800 C786 1.251 . S
O801 Nd777 2.424 . S
O801 C786 1.268 . S
O802 Nd777 2.500 . S
O802 C787 1.258 . S
O803 Nd777 2.492 . S
O803 C787 1.239 . S
O804 Nd777 2.487 . S
O804 C794 1.241 . S
O805 Nd776 2.414 . S
O805 Nd777 2.682 . S
O805 C794 1.273 . S
O806 Nd777 2.410 . S
O806 C795 1.251 . S
O807 Nd776 2.424 . S
O807 C795 1.268 . S
H808 C780 0.930 . S
H809 C781 0.929 . S
H810 C783 0.930 . S
H811 C784 0.929 . S
H812 C789 0.930 . S
H813 C790 0.929 . S
H814 C792 0.930 . S
H815 C793 0.929 . S
Nd816 C818 2.836 . S
Nd816 O836 2.500 . S
Nd816 O837 2.492 . S
Nd816 O838 2.487 . S
Nd816 O839 2.682 . S
Nd816 O840 2.410 . S
Nd816 O845 2.414 . S
Nd816 O847 2.424 . S
Nd817 C827 2.836 . S
Nd817 O839 2.414 . S
Nd817 O841 2.424 . S
Nd817 O842 2.500 . S
Nd817 O843 2.492 . S
Nd817 O844 2.487 . S
Nd817 O845 2.682 . S
Nd817 O846 2.410 . S
C818 Nd816 2.836 . S
C818 C819 1.498 . S
C818 O836 1.258 . S
C818 O837 1.239 . S
C819 C818 1.498 . S
C819 C820 1.366 . S
C819 C824 1.407 . S
C820 C819 1.366 . S
C820 C821 1.392 . S
C820 H848 0.930 . S
C821 C820 1.392 . S
C821 C822 1.398 . S
C821 H849 0.929 . S
C822 C821 1.398 . S
C822 C823 1.352 . S
C823 C822 1.352 . S
C823 C824 1.384 . S
C823 H850 0.930 . S
C824 C819 1.407 . S
C824 C823 1.384 . S
C824 H851 0.929 . S
C825 O838 1.241 . S
C825 O839 1.273 . S
C826 O840 1.251 . S
C826 O841 1.268 . S
C827 Nd817 2.836 . S
C827 C828 1.498 . S
C827 O842 1.258 . S
C827 O843 1.239 . S
C828 C827 1.498 . S
C828 C829 1.366 . S
C828 C833 1.407 . S
C829 C828 1.366 . S
C829 C830 1.392 . S
C829 H852 0.930 . S
C830 C829 1.392 . S
C830 C831 1.398 . S
C830 H853 0.929 . S
C831 C830 1.398 . S
C831 C832 1.352 . S
C832 C831 1.352 . S
C832 C833 1.384 . S
C832 H854 0.930 . S
C833 C828 1.407 . S
C833 C832 1.384 . S
C833 H855 0.929 . S
C834 O844 1.241 . S
C834 O845 1.273 . S
C835 O846 1.251 . S
C835 O847 1.268 . S
O836 Nd816 2.500 . S
O836 C818 1.258 . S
O837 Nd816 2.492 . S
O837 C818 1.239 . S
O838 Nd816 2.487 . S
O838 C825 1.241 . S
O839 Nd816 2.682 . S
O839 Nd817 2.414 . S
O839 C825 1.273 . S
O840 Nd816 2.410 . S
O840 C826 1.251 . S
O841 Nd817 2.424 . S
O841 C826 1.268 . S
O842 Nd817 2.500 . S
O842 C827 1.258 . S
O843 Nd817 2.492 . S
O843 C827 1.239 . S
O844 Nd817 2.487 . S
O844 C834 1.241 . S
O845 Nd816 2.414 . S
O845 Nd817 2.682 . S
O845 C834 1.273 . S
O846 Nd817 2.410 . S
O846 C835 1.251 . S
O847 Nd816 2.424 . S
O847 C835 1.268 . S
H848 C820 0.930 . S
H849 C821 0.929 . S
H850 C823 0.930 . S
H851 C824 0.929 . S
H852 C829 0.930 . S
H853 C830 0.929 . S
H854 C832 0.930 . S
H855 C833 0.929 . S
Nd856 C858 2.836 . S
Nd856 O876 2.500 . S
Nd856 O877 2.492 . S
Nd856 O878 2.487 . S
Nd856 O879 2.682 . S
Nd856 O880 2.410 . S
Nd856 O885 2.414 . S
Nd856 O887 2.424 . S
Nd857 C867 2.836 . S
Nd857 O879 2.414 . S
Nd857 O881 2.424 . S
Nd857 O882 2.500 . S
Nd857 O883 2.492 . S
Nd857 O884 2.487 . S
Nd857 O885 2.682 . S
Nd857 O886 2.410 . S
C858 Nd856 2.836 . S
C858 C859 1.498 . S
C858 O876 1.258 . S
C858 O877 1.239 . S
C859 C858 1.498 . S
C859 C860 1.366 . S
C859 C864 1.407 . S
C860 C859 1.366 . S
C860 C861 1.392 . S
C860 H888 0.930 . S
C861 C860 1.392 . S
C861 C862 1.398 . S
C861 H889 0.929 . S
C862 C861 1.398 . S
C862 C863 1.352 . S
C863 C862 1.352 . S
C863 C864 1.384 . S
C863 H890 0.930 . S
C864 C859 1.407 . S
C864 C863 1.384 . S
C864 H891 0.929 . S
C865 O878 1.241 . S
C865 O879 1.273 . S
C866 O880 1.251 . S
C866 O881 1.268 . S
C867 Nd857 2.836 . S
C867 C868 1.498 . S
C867 O882 1.258 . S
C867 O883 1.239 . S
C868 C867 1.498 . S
C868 C869 1.366 . S
C868 C873 1.407 . S
C869 C868 1.366 . S
C869 C870 1.392 . S
C869 H892 0.930 . S
C870 C869 1.392 . S
C870 C871 1.398 . S
C870 H893 0.929 . S
C871 C870 1.398 . S
C871 C872 1.352 . S
C872 C871 1.352 . S
C872 C873 1.384 . S
C872 H894 0.930 . S
C873 C868 1.407 . S
C873 C872 1.384 . S
C873 H895 0.929 . S
C874 O884 1.241 . S
C874 O885 1.273 . S
C875 O886 1.251 . S
C875 O887 1.268 . S
O876 Nd856 2.500 . S
O876 C858 1.258 . S
O877 Nd856 2.492 . S
O877 C858 1.239 . S
O878 Nd856 2.487 . S
O878 C865 1.241 . S
O879 Nd856 2.682 . S
O879 Nd857 2.414 . S
O879 C865 1.273 . S
O880 Nd856 2.410 . S
O880 C866 1.251 . S
O881 Nd857 2.424 . S
O881 C866 1.268 . S
O882 Nd857 2.500 . S
O882 C867 1.258 . S
O883 Nd857 2.492 . S
O883 C867 1.239 . S
O884 Nd857 2.487 . S
O884 C874 1.241 . S
O885 Nd856 2.414 . S
O885 Nd857 2.682 . S
O885 C874 1.273 . S
O886 Nd857 2.410 . S
O886 C875 1.251 . S
O887 Nd856 2.424 . S
O887 C875 1.268 . S
H888 C860 0.930 . S
H889 C861 0.929 . S
H890 C863 0.930 . S
H891 C864 0.929 . S
H892 C869 0.930 . S
H893 C870 0.929 . S
H894 C872 0.930 . S
H895 C873 0.929 . S
Nd896 C898 2.836 . S
Nd896 O916 2.500 . S
Nd896 O917 2.492 . S
Nd896 O918 2.487 . S
Nd896 O919 2.682 . S
Nd896 O920 2.410 . S
Nd896 O925 2.414 . S
Nd896 O927 2.424 . S
Nd897 C907 2.836 . S
Nd897 O919 2.414 . S
Nd897 O921 2.424 . S
Nd897 O922 2.500 . S
Nd897 O923 2.492 . S
Nd897 O924 2.487 . S
Nd897 O925 2.682 . S
Nd897 O926 2.410 . S
C898 Nd896 2.836 . S
C898 C899 1.498 . S
C898 O916 1.258 . S
C898 O917 1.239 . S
C899 C898 1.498 . S
C899 C900 1.366 . S
C899 C904 1.407 . S
C900 C899 1.366 . S
C900 C901 1.392 . S
C900 H928 0.930 . S
C901 C900 1.392 . S
C901 C902 1.398 . S
C901 H929 0.929 . S
C902 C901 1.398 . S
C902 C903 1.352 . S
C903 C902 1.352 . S
C903 C904 1.384 . S
C903 H930 0.930 . S
C904 C899 1.407 . S
C904 C903 1.384 . S
C904 H931 0.929 . S
C905 O918 1.241 . S
C905 O919 1.273 . S
C906 O920 1.251 . S
C906 O921 1.268 . S
C907 Nd897 2.836 . S
C907 C908 1.498 . S
C907 O922 1.258 . S
C907 O923 1.239 . S
C908 C907 1.498 . S
C908 C909 1.366 . S
C908 C913 1.407 . S
C909 C908 1.366 . S
C909 C910 1.392 . S
C909 H932 0.930 . S
C910 C909 1.392 . S
C910 C911 1.398 . S
C910 H933 0.929 . S
C911 C910 1.398 . S
C911 C912 1.352 . S
C912 C911 1.352 . S
C912 C913 1.384 . S
C912 H934 0.930 . S
C913 C908 1.407 . S
C913 C912 1.384 . S
C913 H935 0.929 . S
C914 O924 1.241 . S
C914 O925 1.273 . S
C915 O926 1.251 . S
C915 O927 1.268 . S
O916 Nd896 2.500 . S
O916 C898 1.258 . S
O917 Nd896 2.492 . S
O917 C898 1.239 . S
O918 Nd896 2.487 . S
O918 C905 1.241 . S
O919 Nd896 2.682 . S
O919 Nd897 2.414 . S
O919 C905 1.273 . S
O920 Nd896 2.410 . S
O920 C906 1.251 . S
O921 Nd897 2.424 . S
O921 C906 1.268 . S
O922 Nd897 2.500 . S
O922 C907 1.258 . S
O923 Nd897 2.492 . S
O923 C907 1.239 . S
O924 Nd897 2.487 . S
O924 C914 1.241 . S
O925 Nd896 2.414 . S
O925 Nd897 2.682 . S
O925 C914 1.273 . S
O926 Nd897 2.410 . S
O926 C915 1.251 . S
O927 Nd896 2.424 . S
O927 C915 1.268 . S
H928 C900 0.930 . S
H929 C901 0.929 . S
H930 C903 0.930 . S
H931 C904 0.929 . S
H932 C909 0.930 . S
H933 C910 0.929 . S
H934 C912 0.930 . S
H935 C913 0.929 . S
Nd936 C938 2.836 . S
Nd936 O956 2.500 . S
Nd936 O957 2.492 . S
Nd936 O958 2.487 . S
Nd936 O959 2.682 . S
Nd936 O960 2.410 . S
Nd936 O965 2.414 . S
Nd936 O967 2.424 . S
Nd937 C947 2.836 . S
Nd937 O959 2.414 1_655 S
Nd937 O961 2.424 1_655 S
Nd937 O962 2.500 . S
Nd937 O963 2.492 . S
Nd937 O964 2.487 . S
Nd937 O965 2.682 1_655 S
Nd937 O966 2.410 1_655 S
C938 Nd936 2.836 . S
C938 C939 1.498 . S
C938 O956 1.258 . S
C938 O957 1.239 . S
C939 C938 1.498 . S
C939 C940 1.366 . S
C939 C944 1.407 . S
C940 C939 1.366 . S
C940 C941 1.392 . S
C940 H968 0.930 . S
C941 C940 1.392 . S
C941 C942 1.398 . S
C941 H969 0.897 1_554 S
C942 C941 1.398 . S
C942 C943 1.352 . S
C943 C942 1.352 . S
C943 C944 1.384 . S
C943 H970 0.930 . S
C944 C939 1.407 . S
C944 C943 1.384 . S
C944 H971 0.929 . S
C945 O958 1.241 . S
C945 O959 1.273 . S
C946 O960 1.251 . S
C946 O961 1.268 . S
C947 Nd937 2.836 . S
C947 C948 1.498 . S
C947 O962 1.258 . S
C947 O963 1.239 . S
C948 C947 1.498 . S
C948 C949 1.366 . S
C948 C953 1.407 . S
C949 C948 1.366 . S
C949 C950 1.392 . S
C949 H972 0.930 . S
C950 C949 1.392 . S
C950 C951 1.398 . S
C950 H973 0.929 . S
C951 C950 1.398 . S
C951 C952 1.352 . S
C952 C951 1.352 . S
C952 C953 1.384 . S
C952 H974 0.930 . S
C953 C948 1.407 . S
C953 C952 1.384 . S
C953 H975 0.929 . S
C954 O964 1.241 1_455 S
C954 O965 1.273 . S
C955 O966 1.251 . S
C955 O967 1.268 . S
O956 Nd936 2.500 . S
O956 C938 1.258 . S
O957 Nd936 2.492 . S
O957 C938 1.239 . S
O958 Nd936 2.487 . S
O958 C945 1.241 . S
O959 Nd936 2.682 . S
O959 Nd937 2.414 1_455 S
O959 C945 1.273 . S
O960 Nd936 2.410 . S
O960 C946 1.251 . S
O961 Nd937 2.424 1_455 S
O961 C946 1.268 . S
O962 Nd937 2.500 . S
O962 C947 1.258 . S
O963 Nd937 2.492 . S
O963 C947 1.239 . S
O964 Nd937 2.487 . S
O964 C954 1.241 1_655 S
O965 Nd936 2.414 . S
O965 Nd937 2.682 1_455 S
O965 C954 1.273 . S
O966 Nd937 2.410 1_455 S
O966 C955 1.251 . S
O967 Nd936 2.424 . S
O967 C955 1.268 . S
H968 C940 0.930 . S
H969 C941 0.897 1_556 S
H970 C943 0.930 . S
H971 C944 0.929 . S
H972 C949 0.930 . S
H973 C950 0.929 . S
H974 C952 0.930 . S
H975 C953 0.929 . S
C976 C977 1.349 . S
C976 C978 1.327 . S
C976 H1001 0.950 . S
C977 C976 1.349 . S
C977 C993 1.349 . S
C978 C976 1.327 . S
C978 C997 1.429 . S
C978 H1002 0.950 . S
C979 C996 1.574 . S
C979 C998 1.368 . S
C979 H1003 0.949 . S
H980 C984 0.943 1_554 S
C981 C982 1.349 . S
C981 C983 1.327 . S
C981 H1004 0.950 . S
C982 C981 1.349 . S
C982 C994 1.349 . S
C983 C981 1.327 . S
C983 C999 1.429 . S
C983 H1005 0.950 1_554 S
C984 H980 0.943 1_556 S
C984 C992 1.579 . S
C984 C1000 1.370 . S
H985 C993 0.950 . S
H986 C991 0.950 . S
H987 C992 0.949 . S
H988 C994 0.950 . S
H989 C995 0.950 . S
H990 C996 0.949 . S
C991 H986 0.950 . S
C991 C993 1.327 . S
C991 C997 1.429 . S
C992 C984 1.579 . S
C992 H987 0.949 . S
C992 C998 1.368 . S
C993 C977 1.349 . S
C993 H985 0.950 . S
C993 C991 1.327 . S
C994 C982 1.349 . S
C994 H988 0.950 . S
C994 C995 1.327 . S
C995 H989 0.950 . S
C995 C994 1.327 . S
C995 C999 1.429 . S
C996 C979 1.574 . S
C996 H990 0.949 . S
C996 C1000 1.368 . S
C997 C978 1.429 . S
C997 C991 1.429 . S
C997 C998 1.523 . S
C998 C979 1.368 . S
C998 C992 1.368 . S
C998 C997 1.523 . S
C999 C983 1.429 . S
C999 C995 1.429 . S
C999 C1000 1.523 1_554 S
C1000 C984 1.370 . S
C1000 C996 1.368 . S
C1000 C999 1.523 1_556 S
H1001 C976 0.950 . S
H1002 C978 0.950 . S
H1003 C979 0.949 . S
H1004 C981 0.950 . S
H1005 C983 0.950 1_556 S
C1006 C1007 1.349 . S
C1006 C1008 1.327 . S
C1006 H1031 0.950 . S
C1007 C1006 1.349 . S
C1007 C1023 1.349 . S
C1008 C1006 1.327 . S
C1008 C1027 1.429 . S
C1008 H1032 0.950 . S
C1009 C1026 1.574 . S
C1009 C1028 1.368 . S
C1009 H1033 0.949 . S
H1010 C1014 0.949 . S
C1011 C1012 1.349 . S
C1011 C1013 1.327 . S
C1011 H1034 0.950 . S
C1012 C1011 1.349 . S
C1012 C1024 1.349 . S
C1013 C1011 1.327 . S
C1013 C1029 1.429 . S
C1013 H1035 0.950 . S
C1014 H1010 0.949 . S
C1014 C1022 1.574 . S
C1014 C1030 1.368 . S
H1015 C1023 0.950 . S
H1016 C1021 0.950 . S
H1017 C1022 0.949 . S
H1018 C1024 0.950 . S
H1019 C1025 0.950 . S
H1020 C1026 0.949 . S
C1021 H1016 0.950 . S
C1021 C1023 1.327 . S
C1021 C1027 1.429 . S
C1022 C1014 1.574 . S
C1022 H1017 0.949 . S
C1022 C1028 1.368 . S
C1023 C1007 1.349 . S
C1023 H1015 0.950 . S
C1023 C1021 1.327 . S
C1024 C1012 1.349 . S
C1024 H1018 0.950 . S
C1024 C1025 1.327 . S
C1025 H1019 0.950 . S
C1025 C1024 1.327 . S
C1025 C1029 1.429 . S
C1026 C1009 1.574 . S
C1026 H1020 0.949 . S
C1026 C1030 1.368 . S
C1027 C1008 1.429 . S
C1027 C1021 1.429 . S
C1027 C1028 1.523 . S
C1028 C1009 1.368 . S
C1028 C1022 1.368 . S
C1028 C1027 1.523 . S
C1029 C1013 1.429 . S
C1029 C1025 1.429 . S
C1029 C1030 1.523 . S
C1030 C1014 1.368 . S
C1030 C1026 1.368 . S
C1030 C1029 1.523 . S
H1031 C1006 0.950 . S
H1032 C1008 0.950 . S
H1033 C1009 0.949 . S
H1034 C1011 0.950 . S
H1035 C1013 0.950 . S
C1036 C1037 1.349 . S
C1036 C1038 1.327 . S
C1036 H1061 0.950 . S
C1037 C1036 1.349 . S
C1037 C1053 1.349 . S
C1038 C1036 1.327 . S
C1038 C1057 1.429 . S
C1038 H1062 0.950 . S
C1039 C1056 1.574 . S
C1039 C1058 1.368 . S
C1039 H1063 0.949 . S
H1040 C1044 0.949 . S
C1041 C1042 1.349 1_565 S
C1041 C1043 1.327 . S
C1041 H1064 0.983 . S
C1042 C1041 1.349 1_545 S
C1042 C1054 1.349 1_545 S
C1043 C1041 1.327 . S
C1043 C1059 1.429 . S
C1043 H1065 0.950 . S
C1044 H1040 0.949 . S
C1044 C1052 1.574 . S
C1044 C1060 1.368 . S
H1045 C1053 0.950 . S
H1046 C1051 0.950 . S
H1047 C1052 0.949 . S
H1048 C1054 0.950 1_545 S
H1049 C1055 0.950 . S
H1050 C1056 0.949 . S
C1051 H1046 0.950 . S
C1051 C1053 1.327 . S
C1051 C1057 1.429 . S
C1052 C1044 1.574 . S
C1052 H1047 0.949 . S
C1052 C1058 1.368 . S
C1053 C1037 1.349 . S
C1053 H1045 0.950 . S
C1053 C1051 1.327 . S
C1054 C1042 1.349 1_565 S
C1054 H1048 0.950 1_565 S
C1054 C1055 1.327 . S
C1055 H1049 0.950 . S
C1055 C1054 1.327 . S
C1055 C1059 1.429 . S
C1056 C1039 1.574 . S
C1056 H1050 0.949 . S
C1056 C1060 1.368 . S
C1057 C1038 1.429 . S
C1057 C1051 1.429 . S
C1057 C1058 1.523 . S
C1058 C1039 1.368 . S
C1058 C1052 1.368 . S
C1058 C1057 1.523 . S
C1059 C1043 1.429 . S
C1059 C1055 1.429 . S
C1059 C1060 1.523 . S
C1060 C1044 1.368 . S
C1060 C1056 1.368 . S
C1060 C1059 1.523 . S
H1061 C1036 0.950 . S
H1062 C1038 0.950 . S
H1063 C1039 0.949 . S
H1064 C1041 0.983 . S
H1065 C1043 0.950 . S
C1066 C1067 1.349 . S
C1066 C1068 1.327 . S
C1066 H1091 0.950 . S
C1067 C1066 1.349 . S
C1067 C1083 1.349 . S
C1068 C1066 1.327 . S
C1068 C1087 1.429 . S
C1068 H1092 0.950 . S
C1069 C1086 1.574 . S
C1069 C1088 1.368 . S
C1069 H1093 0.949 . S
H1070 C1074 0.949 . S
C1071 C1072 1.349 . S
C1071 C1073 1.327 . S
C1071 H1094 0.950 . S
C1072 C1071 1.349 . S
C1072 C1084 1.349 . S
C1073 C1071 1.327 . S
C1073 C1089 1.429 . S
C1073 H1095 0.950 . S
C1074 H1070 0.949 . S
C1074 C1082 1.574 . S
C1074 C1090 1.368 . S
H1075 C1083 0.950 . S
H1076 C1081 0.950 . S
H1077 C1082 0.949 . S
H1078 C1084 0.950 . S
H1079 C1085 0.950 . S
H1080 C1086 0.949 . S
C1081 H1076 0.950 . S
C1081 C1083 1.327 . S
C1081 C1087 1.429 . S
C1082 C1074 1.574 . S
C1082 H1077 0.949 . S
C1082 C1088 1.368 . S
C1083 C1067 1.349 . S
C1083 H1075 0.950 . S
C1083 C1081 1.327 . S
C1084 C1072 1.349 . S
C1084 H1078 0.950 . S
C1084 C1085 1.327 . S
C1085 H1079 0.950 . S
C1085 C1084 1.327 . S
C1085 C1089 1.429 . S
C1086 C1069 1.574 . S
C1086 H1080 0.949 . S
C1086 C1090 1.368 . S
C1087 C1068 1.429 . S
C1087 C1081 1.429 . S
C1087 C1088 1.523 . S
C1088 C1069 1.368 . S
C1088 C1082 1.368 . S
C1088 C1087 1.523 . S
C1089 C1073 1.429 . S
C1089 C1085 1.429 . S
C1089 C1090 1.523 . S
C1090 C1074 1.368 . S
C1090 C1086 1.368 . S
C1090 C1089 1.523 . S
H1091 C1066 0.950 . S
H1092 C1068 0.950 . S
H1093 C1069 0.949 . S
H1094 C1071 0.950 . S
H1095 C1073 0.950 . S
C1096 C1097 1.339 1_455 S
C1096 C1098 1.327 . S
C1096 H1121 0.950 . S
C1097 C1096 1.339 1_655 S
C1097 C1113 1.357 . S
C1098 C1096 1.327 . S
C1098 C1117 1.429 . S
C1098 H1122 0.950 . S
C1099 C1116 1.574 . S
C1099 C1118 1.368 . S
C1099 H1123 0.954 . S
H1100 C1104 0.949 . S
C1101 C1102 1.349 . S
C1101 C1103 1.327 . S
C1101 H1124 0.950 . S
C1102 C1101 1.349 . S
C1102 C1114 1.349 . S
C1103 C1101 1.327 . S
C1103 C1119 1.429 . S
C1103 H1125 0.950 . S
C1104 H1100 0.949 . S
C1104 C1112 1.574 . S
C1104 C1120 1.368 . S
H1105 C1113 0.950 . S
H1106 C1111 0.950 . S
H1107 C1112 0.949 . S
H1108 C1114 0.950 . S
H1109 C1115 0.950 . S
H1110 C1116 0.949 . S
C1111 H1106 0.950 . S
C1111 C1113 1.327 . S
C1111 C1117 1.429 1_655 S
C1112 C1104 1.574 . S
C1112 H1107 0.949 . S
C1112 C1118 1.368 . S
C1113 C1097 1.357 . S
C1113 H1105 0.950 . S
C1113 C1111 1.327 . S
C1114 C1102 1.349 . S
C1114 H1108 0.950 . S
C1114 C1115 1.327 . S
C1115 H1109 0.950 . S
C1115 C1114 1.327 . S
C1115 C1119 1.429 . S
C1116 C1099 1.574 . S
C1116 H1110 0.949 . S
C1116 C1120 1.368 . S
C1117 C1098 1.429 . S
C1117 C1111 1.429 1_455 S
C1117 C1118 1.523 . S
C1118 C1099 1.368 . S
C1118 C1112 1.368 . S
C1118 C1117 1.523 . S
C1119 C1103 1.429 . S
C1119 C1115 1.429 . S
C1119 C1120 1.523 . S
C1120 C1104 1.368 . S
C1120 C1116 1.368 . S
C1120 C1119 1.523 . S
H1121 C1096 0.950 . S
H1122 C1098 0.950 . S
H1123 C1099 0.954 . S
H1124 C1101 0.950 . S
H1125 C1103 0.950 . S
C1126 C1127 1.349 . S
C1126 C1128 1.327 . S
C1126 H1151 0.950 . S
C1127 C1126 1.349 . S
C1127 C1143 1.349 . S
C1128 C1126 1.327 . S
C1128 C1147 1.429 . S
C1128 H1152 0.950 . S
C1129 C1146 1.574 . S
C1129 C1148 1.368 . S
C1129 H1153 0.949 . S
H1130 C1134 0.949 . S
C1131 C1132 1.349 . S
C1131 C1133 1.327 . S
C1131 H1154 0.950 . S
C1132 C1131 1.349 . S
C1132 C1144 1.349 . S
C1133 C1131 1.327 . S
C1133 C1149 1.429 . S
C1133 H1155 0.950 . S
C1134 H1130 0.949 . S
C1134 C1142 1.574 . S
C1134 C1150 1.368 . S
H1135 C1143 0.950 . S
H1136 C1141 0.950 . S
H1137 C1142 0.949 . S
H1138 C1144 0.950 . S
H1139 C1145 0.950 . S
H1140 C1146 0.949 . S
C1141 H1136 0.950 . S
C1141 C1143 1.327 . S
C1141 C1147 1.429 . S
C1142 C1134 1.574 . S
C1142 H1137 0.949 . S
C1142 C1148 1.368 . S
C1143 C1127 1.349 . S
C1143 H1135 0.950 . S
C1143 C1141 1.327 . S
C1144 C1132 1.349 . S
C1144 H1138 0.950 . S
C1144 C1145 1.327 . S
C1145 H1139 0.950 . S
C1145 C1144 1.327 . S
C1145 C1149 1.429 . S
C1146 C1129 1.574 . S
C1146 H1140 0.949 . S
C1146 C1150 1.368 . S
C1147 C1128 1.429 . S
C1147 C1141 1.429 . S
C1147 C1148 1.523 . S
C1148 C1129 1.368 . S
C1148 C1142 1.368 . S
C1148 C1147 1.523 . S
C1149 C1133 1.429 . S
C1149 C1145 1.429 . S
C1149 C1150 1.523 . S
C1150 C1134 1.368 . S
C1150 C1146 1.368 . S
C1150 C1149 1.523 . S
H1151 C1126 0.950 . S
H1152 C1128 0.950 . S
H1153 C1129 0.949 . S
H1154 C1131 0.950 . S
H1155 C1133 0.950 . S
C1156 C1157 1.349 . S
C1156 C1158 1.327 . S
C1156 H1181 0.950 . S
C1157 C1156 1.349 . S
C1157 C1173 1.349 . S
C1158 C1156 1.327 . S
C1158 C1177 1.429 . S
C1158 H1182 0.950 . S
C1159 C1176 1.574 . S
C1159 C1178 1.368 . S
C1159 H1183 0.949 . S
H1160 C1164 0.949 . S
C1161 C1162 1.349 . S
C1161 C1163 1.327 . S
C1161 H1184 0.950 . S
C1162 C1161 1.349 . S
C1162 C1174 1.349 . S
C1163 C1161 1.327 . S
C1163 C1179 1.429 . S
C1163 H1185 0.950 . S
C1164 H1160 0.949 . S
C1164 C1172 1.574 . S
C1164 C1180 1.368 . S
H1165 C1173 0.950 . S
H1166 C1171 0.950 . S
H1167 C1172 0.949 . S
H1168 C1174 0.950 . S
H1169 C1175 0.950 . S
H1170 C1176 0.949 . S
C1171 H1166 0.950 . S
C1171 C1173 1.327 . S
C1171 C1177 1.429 . S
C1172 C1164 1.574 . S
C1172 H1167 0.949 . S
C1172 C1178 1.368 . S
C1173 C1157 1.349 . S
C1173 H1165 0.950 . S
C1173 C1171 1.327 . S
C1174 C1162 1.349 . S
C1174 H1168 0.950 . S
C1174 C1175 1.327 . S
C1175 H1169 0.950 . S
C1175 C1174 1.327 . S
C1175 C1179 1.429 . S
C1176 C1159 1.574 . S
C1176 H1170 0.949 . S
C1176 C1180 1.368 . S
C1177 C1158 1.429 . S
C1177 C1171 1.429 . S
C1177 C1178 1.523 . S
C1178 C1159 1.368 . S
C1178 C1172 1.368 . S
C1178 C1177 1.523 . S
C1179 C1163 1.429 . S
C1179 C1175 1.429 . S
C1179 C1180 1.523 . S
C1180 C1164 1.368 . S
C1180 C1176 1.368 . S
C1180 C1179 1.523 . S
H1181 C1156 0.950 . S
H1182 C1158 0.950 . S
H1183 C1159 0.949 . S
H1184 C1161 0.950 . S
H1185 C1163 0.950 . S
C1186 C1187 1.349 . S
C1186 C1188 1.327 . S
C1186 H1211 0.950 . S
C1187 C1186 1.349 . S
C1187 C1203 1.349 . S
C1188 C1186 1.327 . S
C1188 C1207 1.429 . S
C1188 H1212 0.950 . S
C1189 C1206 1.574 . S
C1189 C1208 1.368 . S
C1189 H1213 0.949 . S
H1190 C1194 0.949 . S
C1191 C1192 1.349 . S
C1191 C1193 1.327 . S
C1191 H1214 0.950 . S
C1192 C1191 1.349 . S
C1192 C1204 1.349 . S
C1193 C1191 1.327 . S
C1193 C1209 1.429 . S
C1193 H1215 0.950 . S
C1194 H1190 0.949 . S
C1194 C1202 1.574 . S
C1194 C1210 1.368 . S
H1195 C1203 0.950 . S
H1196 C1201 0.950 . S
H1197 C1202 0.949 . S
H1198 C1204 0.950 . S
H1199 C1205 0.950 . S
H1200 C1206 0.949 . S
C1201 H1196 0.950 . S
C1201 C1203 1.327 . S
C1201 C1207 1.429 . S
C1202 C1194 1.574 . S
C1202 H1197 0.949 . S
C1202 C1208 1.368 . S
C1203 C1187 1.349 . S
C1203 H1195 0.950 . S
C1203 C1201 1.327 . S
C1204 C1192 1.349 . S
C1204 H1198 0.950 . S
C1204 C1205 1.327 . S
C1205 H1199 0.950 . S
C1205 C1204 1.327 . S
C1205 C1209 1.429 . S
C1206 C1189 1.574 . S
C1206 H1200 0.949 . S
C1206 C1210 1.368 . S
C1207 C1188 1.429 . S
C1207 C1201 1.429 . S
C1207 C1208 1.523 . S
C1208 C1189 1.368 . S
C1208 C1202 1.368 . S
C1208 C1207 1.523 . S
C1209 C1193 1.429 . S
C1209 C1205 1.429 . S
C1209 C1210 1.523 . S
C1210 C1194 1.368 . S
C1210 C1206 1.368 . S
C1210 C1209 1.523 . S
H1211 C1186 0.950 . S
H1212 C1188 0.950 . S
H1213 C1189 0.949 . S
H1214 C1191 0.950 . S
H1215 C1193 0.950 . S
C1216 C1217 1.349 . S
C1216 C1218 1.327 . S
C1216 H1241 0.950 . S
C1217 C1216 1.349 . S
C1217 C1233 1.349 . S
C1218 C1216 1.327 . S
C1218 C1237 1.429 . S
C1218 H1242 0.950 . S
C1219 C1236 1.574 . S
C1219 C1238 1.368 . S
C1219 H1243 0.949 . S
H1220 C1224 0.949 . S
C1221 C1222 1.349 . S
C1221 C1223 1.327 . S
C1221 H1244 0.950 . S
C1222 C1221 1.349 . S
C1222 C1234 1.349 1_655 S
C1223 C1221 1.327 . S
C1223 C1239 1.429 . S
C1223 H1245 0.950 . S
C1224 H1220 0.949 . S
C1224 C1232 1.574 . S
C1224 C1240 1.368 . S
H1225 C1233 0.950 . S
H1226 C1231 0.950 . S
H1227 C1232 0.949 . S
H1228 C1234 0.950 . S
H1229 C1235 0.950 . S
H1230 C1236 0.949 . S
C1231 H1226 0.950 . S
C1231 C1233 1.327 . S
C1231 C1237 1.429 . S
C1232 C1224 1.574 . S
C1232 H1227 0.949 . S
C1232 C1238 1.368 . S
C1233 C1217 1.349 . S
C1233 H1225 0.950 . S
C1233 C1231 1.327 . S
C1234 C1222 1.349 1_455 S
C1234 H1228 0.950 . S
C1234 C1235 1.327 1_455 S
C1235 H1229 0.950 . S
C1235 C1234 1.327 1_655 S
C1235 C1239 1.429 . S
C1236 C1219 1.574 . S
C1236 H1230 0.949 . S
C1236 C1240 1.368 . S
C1237 C1218 1.429 . S
C1237 C1231 1.429 . S
C1237 C1238 1.523 . S
C1238 C1219 1.368 . S
C1238 C1232 1.368 . S
C1238 C1237 1.523 . S
C1239 C1223 1.429 . S
C1239 C1235 1.429 . S
C1239 C1240 1.523 . S
C1240 C1224 1.368 . S
C1240 C1236 1.368 . S
C1240 C1239 1.523 . S
H1241 C1216 0.950 . S
H1242 C1218 0.950 . S
H1243 C1219 0.949 . S
H1244 C1221 0.950 . S
H1245 C1223 0.950 . S
C1246 C1247 1.349 . S
C1246 C1248 1.327 . S
C1246 H1271 0.950 . S
C1247 C1246 1.349 . S
C1247 C1263 1.349 . S
C1248 C1246 1.327 . S
C1248 C1267 1.429 . S
C1248 H1272 0.950 . S
C1249 C1266 1.574 . S
C1249 C1268 1.368 . S
C1249 H1273 0.949 . S
H1250 C1254 0.949 . S
C1251 C1252 1.349 . S
C1251 C1253 1.327 . S
C1251 H1274 0.950 . S
C1252 C1251 1.349 . S
C1252 C1264 1.349 . S
C1253 C1251 1.327 . S
C1253 C1269 1.429 . S
C1253 H1275 0.950 . S
C1254 H1250 0.949 . S
C1254 C1262 1.574 . S
C1254 C1270 1.368 . S
H1255 C1263 0.950 . S
H1256 C1261 0.950 . S
H1257 C1262 0.949 . S
H1258 C1264 0.950 . S
H1259 C1265 0.950 . S
H1260 C1266 0.949 . S
C1261 H1256 0.950 . S
C1261 C1263 1.327 . S
C1261 C1267 1.429 . S
C1262 C1254 1.574 . S
C1262 H1257 0.949 . S
C1262 C1268 1.368 . S
C1263 C1247 1.349 . S
C1263 H1255 0.950 . S
C1263 C1261 1.327 . S
C1264 C1252 1.349 . S
C1264 H1258 0.950 . S
C1264 C1265 1.327 . S
C1265 H1259 0.950 . S
C1265 C1264 1.327 . S
C1265 C1269 1.429 . S
C1266 C1249 1.574 . S
C1266 H1260 0.949 . S
C1266 C1270 1.368 . S
C1267 C1248 1.429 . S
C1267 C1261 1.429 . S
C1267 C1268 1.523 . S
C1268 C1249 1.368 . S
C1268 C1262 1.368 . S
C1268 C1267 1.523 . S
C1269 C1253 1.429 . S
C1269 C1265 1.429 . S
C1269 C1270 1.523 . S
C1270 C1254 1.368 . S
C1270 C1266 1.368 . S
C1270 C1269 1.523 . S
H1271 C1246 0.950 . S
H1272 C1248 0.950 . S
H1273 C1249 0.949 . S
H1274 C1251 0.950 . S
H1275 C1253 0.950 . S
C1276 C1277 1.353 . S
C1276 C1278 1.327 . S
C1276 H1301 0.950 . S
C1277 C1276 1.353 . S
C1277 C1293 1.347 1_545 S
C1278 C1276 1.327 . S
C1278 C1297 1.429 . S
C1278 H1302 0.950 . S
C1279 C1296 1.574 . S
C1279 C1298 1.368 . S
C1279 H1303 0.949 1_545 S
H1280 C1284 0.949 . S
C1281 C1282 1.349 . S
C1281 C1283 1.327 . S
C1281 H1304 0.950 . S
C1282 C1281 1.349 . S
C1282 C1294 1.349 . S
C1283 C1281 1.327 . S
C1283 C1299 1.429 . S
C1283 H1305 0.950 . S
C1284 H1280 0.949 . S
C1284 C1292 1.574 . S
C1284 C1300 1.368 . S
H1285 C1293 0.950 . S
H1286 C1291 0.950 . S
H1287 C1292 0.949 . S
H1288 C1294 0.950 . S
H1289 C1295 0.950 . S
H1290 C1296 0.949 1_565 S
C1291 H1286 0.950 . S
C1291 C1293 1.327 . S
C1291 C1297 1.429 1_565 S
C1292 C1284 1.574 . S
C1292 H1287 0.949 . S
C1292 C1298 1.368 . S
C1293 C1277 1.347 1_565 S
C1293 H1285 0.950 . S
C1293 C1291 1.327 . S
C1294 C1282 1.349 . S
C1294 H1288 0.950 . S
C1294 C1295 1.327 . S
C1295 H1289 0.950 . S
C1295 C1294 1.327 . S
C1295 C1299 1.429 . S
C1296 C1279 1.574 . S
C1296 H1290 0.949 1_545 S
C1296 C1300 1.368 . S
C1297 C1278 1.429 . S
C1297 C1291 1.429 1_545 S
C1297 C1298 1.523 . S
C1298 C1279 1.368 . S
C1298 C1292 1.368 . S
C1298 C1297 1.523 . S
C1299 C1283 1.429 . S
C1299 C1295 1.429 . S
C1299 C1300 1.523 . S
C1300 C1284 1.368 . S
C1300 C1296 1.368 . S
C1300 C1299 1.523 . S
H1301 C1276 0.950 . S
H1302 C1278 0.950 . S
H1303 C1279 0.949 1_565 S
H1304 C1281 0.950 . S
H1305 C1283 0.950 . S
C1306 C1307 1.349 . S
C1306 C1308 1.327 . S
C1306 H1331 0.950 . S
C1307 C1306 1.349 . S
C1307 C1323 1.349 . S
C1308 C1306 1.327 . S
C1308 C1327 1.429 . S
C1308 H1332 0.950 . S
C1309 C1326 1.574 1_554 S
C1309 C1328 1.368 . S
C1309 H1333 0.949 . S
H1310 C1314 0.949 . S
C1311 C1312 1.349 . S
C1311 C1313 1.327 . S
C1311 H1334 0.950 . S
C1312 C1311 1.349 . S
C1312 C1324 1.349 . S
C1313 C1311 1.327 . S
C1313 C1329 1.429 . S
C1313 H1335 0.950 . S
C1314 H1310 0.949 . S
C1314 C1322 1.574 1_556 S
C1314 C1330 1.368 . S
H1315 C1323 0.950 . S
H1316 C1321 0.950 . S
H1317 C1322 0.949 . S
H1318 C1324 0.950 . S
H1319 C1325 0.950 . S
H1320 C1326 0.949 . S
C1321 H1316 0.950 . S
C1321 C1323 1.327 . S
C1321 C1327 1.429 . S
C1322 C1314 1.574 1_554 S
C1322 H1317 0.949 . S
C1322 C1328 1.368 . S
C1323 C1307 1.349 . S
C1323 H1315 0.950 . S
C1323 C1321 1.327 . S
C1324 C1312 1.349 . S
C1324 H1318 0.950 . S
C1324 C1325 1.327 . S
C1325 H1319 0.950 . S
C1325 C1324 1.327 . S
C1325 C1329 1.429 . S
C1326 C1309 1.574 1_556 S
C1326 H1320 0.949 . S
C1326 C1330 1.368 . S
C1327 C1308 1.429 . S
C1327 C1321 1.429 . S
C1327 C1328 1.523 . S
C1328 C1309 1.368 . S
C1328 C1322 1.368 . S
C1328 C1327 1.523 . S
C1329 C1313 1.429 . S
C1329 C1325 1.429 . S
C1329 C1330 1.523 . S
C1330 C1314 1.368 . S
C1330 C1326 1.368 . S
C1330 C1329 1.523 . S
H1331 C1306 0.950 . S
H1332 C1308 0.950 . S
H1333 C1309 0.949 . S
H1334 C1311 0.950 . S
H1335 C1313 0.950 . S
C1336 C1337 1.349 . S
C1336 C1338 1.327 . S
C1336 H1361 0.950 . S
C1337 C1336 1.349 . S
C1337 C1353 1.349 . S
C1338 C1336 1.327 . S
C1338 C1357 1.429 . S
C1338 H1362 0.950 . S
C1339 C1356 1.574 . S
C1339 C1358 1.368 . S
C1339 H1363 0.949 . S
H1340 C1344 0.949 . S
C1341 C1342 1.349 . S
C1341 C1343 1.327 . S
C1341 H1364 0.950 . S
C1342 C1341 1.349 . S
C1342 C1354 1.349 . S
C1343 C1341 1.327 . S
C1343 C1359 1.429 . S
C1343 H1365 0.950 . S
C1344 H1340 0.949 . S
C1344 C1352 1.574 . S
C1344 C1360 1.368 . S
H1345 C1353 0.950 . S
H1346 C1351 0.950 . S
H1347 C1352 0.949 . S
H1348 C1354 0.999 . S
H1349 C1355 0.950 . S
H1350 C1356 0.949 . S
C1351 H1346 0.950 . S
C1351 C1353 1.327 . S
C1351 C1357 1.429 . S
C1352 C1344 1.574 . S
C1352 H1347 0.949 . S
C1352 C1358 1.368 . S
C1353 C1337 1.349 . S
C1353 H1345 0.950 . S
C1353 C1351 1.327 . S
C1354 C1342 1.349 . S
C1354 H1348 0.999 . S
C1354 C1355 1.327 . S
C1355 H1349 0.950 . S
C1355 C1354 1.327 . S
C1355 C1359 1.429 . S
C1356 C1339 1.574 . S
C1356 H1350 0.949 . S
C1356 C1360 1.368 . S
C1357 C1338 1.429 . S
C1357 C1351 1.429 . S
C1357 C1358 1.523 . S
C1358 C1339 1.368 . S
C1358 C1352 1.368 . S
C1358 C1357 1.523 . S
C1359 C1343 1.429 . S
C1359 C1355 1.429 . S
C1359 C1360 1.523 . S
C1360 C1344 1.368 . S
C1360 C1356 1.368 . S
C1360 C1359 1.523 . S
H1361 C1336 0.950 . S
H1362 C1338 0.950 . S
H1363 C1339 0.949 . S
H1364 C1341 0.950 . S
H1365 C1343 0.950 . S
C1366 C1367 1.349 . S
C1366 C1368 1.327 . S
C1366 H1391 0.950 . S
C1367 C1366 1.349 . S
C1367 C1383 1.349 . S
C1368 C1366 1.327 . S
C1368 C1387 1.429 . S
C1368 H1392 0.950 . S
C1369 C1386 1.574 . S
C1369 C1388 1.368 . S
C1369 H1393 0.949 . S
H1370 C1374 0.949 . S
C1371 C1372 1.349 . S
C1371 C1373 1.327 . S
C1371 H1394 0.950 . S
C1372 C1371 1.349 . S
C1372 C1384 1.349 . S
C1373 C1371 1.327 . S
C1373 C1389 1.429 . S
C1373 H1395 0.950 . S
C1374 H1370 0.949 . S
C1374 C1382 1.574 . S
C1374 C1390 1.368 . S
H1375 C1383 0.950 . S
H1376 C1381 0.950 . S
H1377 C1382 0.949 . S
H1378 C1384 0.950 . S
H1379 C1385 0.950 . S
H1380 C1386 0.949 . S
C1381 H1376 0.950 . S
C1381 C1383 1.327 . S
C1381 C1387 1.429 . S
C1382 C1374 1.574 . S
C1382 H1377 0.949 . S
C1382 C1388 1.368 . S
C1383 C1367 1.349 . S
C1383 H1375 0.950 . S
C1383 C1381 1.327 . S
C1384 C1372 1.349 . S
C1384 H1378 0.950 . S
C1384 C1385 1.327 . S
C1385 H1379 0.950 . S
C1385 C1384 1.327 . S
C1385 C1389 1.429 . S
C1386 C1369 1.574 . S
C1386 H1380 0.949 . S
C1386 C1390 1.368 . S
C1387 C1368 1.429 . S
C1387 C1381 1.429 . S
C1387 C1388 1.523 . S
C1388 C1369 1.368 . S
C1388 C1382 1.368 . S
C1388 C1387 1.523 . S
C1389 C1373 1.429 . S
C1389 C1385 1.429 . S
C1389 C1390 1.523 . S
C1390 C1374 1.368 . S
C1390 C1386 1.368 . S
C1390 C1389 1.523 . S
H1391 C1366 0.950 . S
H1392 C1368 0.950 . S
H1393 C1369 0.949 . S
H1394 C1371 0.950 . S
H1395 C1373 0.950 . S
C1396 C1397 1.349 . S
C1396 C1398 1.327 . S
C1396 H1421 0.950 . S
C1397 C1396 1.349 . S
C1397 C1413 1.349 1_545 S
C1398 C1396 1.327 . S
C1398 C1417 1.429 . S
C1398 H1422 0.950 . S
C1399 C1416 1.574 . S
C1399 C1418 1.368 . S
C1399 H1423 0.949 . S
H1400 C1404 0.949 . S
C1401 C1402 1.349 1_556 S
C1401 C1403 1.342 . S
C1401 H1424 0.935 1_556 S
C1402 C1401 1.349 1_554 S
C1402 C1414 1.349 1_554 S
C1403 C1401 1.342 . S
C1403 C1419 1.429 . S
C1403 H1425 0.950 . S
C1404 H1400 0.949 . S
C1404 C1412 1.574 . S
C1404 C1420 1.368 . S
H1405 C1413 0.950 . S
H1406 C1411 0.950 1_565 S
H1407 C1412 0.949 . S
H1408 C1414 0.950 . S
H1409 C1415 0.950 . S
H1410 C1416 0.949 . S
C1411 H1406 0.950 1_545 S
C1411 C1413 1.327 1_545 S
C1411 C1417 1.429 . S
C1412 C1404 1.574 . S
C1412 H1407 0.949 . S
C1412 C1418 1.368 . S
C1413 C1397 1.349 1_565 S
C1413 H1405 0.950 . S
C1413 C1411 1.327 1_565 S
C1414 C1402 1.349 1_556 S
C1414 H1408 0.950 . S
C1414 C1415 1.327 . S
C1415 H1409 0.950 . S
C1415 C1414 1.327 . S
C1415 C1419 1.429 . S
C1416 C1399 1.574 . S
C1416 H1410 0.949 . S
C1416 C1420 1.368 . S
C1417 C1398 1.429 . S
C1417 C1411 1.429 . S
C1417 C1418 1.523 . S
C1418 C1399 1.368 . S
C1418 C1412 1.368 . S
C1418 C1417 1.523 . S
C1419 C1403 1.429 . S
C1419 C1415 1.429 . S
C1419 C1420 1.523 . S
C1420 C1404 1.368 . S
C1420 C1416 1.368 . S
C1420 C1419 1.523 . S
H1421 C1396 0.950 . S
H1422 C1398 0.950 . S
H1423 C1399 0.949 . S
H1424 C1401 0.935 1_554 S
H1425 C1403 0.950 . S
C1426 C1427 1.349 . S
C1426 C1428 1.327 . S
C1426 H1451 0.950 . S
C1427 C1426 1.349 . S
C1427 C1443 1.349 . S
C1428 C1426 1.327 . S
C1428 C1447 1.429 . S
C1428 H1452 0.950 . S
C1429 C1446 1.574 . S
C1429 C1448 1.368 . S
C1429 H1453 0.949 . S
H1430 C1434 0.949 . S
C1431 C1432 1.349 . S
C1431 C1433 1.327 . S
C1431 H1454 0.950 . S
C1432 C1431 1.349 . S
C1432 C1444 1.349 . S
C1433 C1431 1.327 . S
C1433 C1449 1.429 . S
C1433 H1455 0.950 . S
C1434 H1430 0.949 . S
C1434 C1442 1.574 . S
C1434 C1450 1.368 . S
H1435 C1443 0.950 . S
H1436 C1441 0.950 . S
H1437 C1442 0.949 . S
H1438 C1444 0.950 . S
H1439 C1445 0.950 . S
H1440 C1446 0.949 . S
C1441 H1436 0.950 . S
C1441 C1443 1.327 . S
C1441 C1447 1.429 . S
C1442 C1434 1.574 . S
C1442 H1437 0.949 . S
C1442 C1448 1.368 . S
C1443 C1427 1.349 . S
C1443 H1435 0.950 . S
C1443 C1441 1.327 . S
C1444 C1432 1.349 . S
C1444 H1438 0.950 . S
C1444 C1445 1.327 . S
C1445 H1439 0.950 . S
C1445 C1444 1.327 . S
C1445 C1449 1.429 . S
C1446 C1429 1.574 . S
C1446 H1440 0.949 . S
C1446 C1450 1.368 . S
C1447 C1428 1.429 . S
C1447 C1441 1.429 . S
C1447 C1448 1.523 . S
C1448 C1429 1.368 . S
C1448 C1442 1.368 . S
C1448 C1447 1.523 . S
C1449 C1433 1.429 . S
C1449 C1445 1.429 . S
C1449 C1450 1.523 . S
C1450 C1434 1.368 . S
C1450 C1446 1.368 . S
C1450 C1449 1.523 . S
H1451 C1426 0.950 . S
H1452 C1428 0.950 . S
H1453 C1429 0.949 . S
H1454 C1431 0.950 . S
H1455 C1433 0.950 . S
C1456 C1457 1.349 . S
C1456 C1458 1.327 . S
C1456 H1481 0.950 . S
C1457 C1456 1.349 . S
C1457 C1473 1.349 . S
C1458 C1456 1.327 . S
C1458 C1477 1.429 . S
C1458 H1482 0.950 . S
C1459 C1476 1.574 . S
C1459 C1478 1.368 . S
C1459 H1483 0.949 . S
H1460 C1464 0.949 1_545 S
C1461 C1462 1.349 . S
C1461 C1463 1.327 1_545 S
C1461 H1484 0.950 . S
C1462 C1461 1.349 . S
C1462 C1474 1.349 . S
C1463 C1461 1.327 1_565 S
C1463 C1479 1.435 1_565 S
C1463 H1485 0.950 . S
C1464 H1460 0.949 1_565 S
C1464 C1472 1.574 . S
C1464 C1480 1.368 . S
H1465 C1473 0.950 . S
H1466 C1471 0.950 . S
H1467 C1472 0.949 . S
H1468 C1474 0.950 . S
H1469 C1475 0.950 . S
H1470 C1476 0.949 . S
C1471 H1466 0.950 . S
C1471 C1473 1.327 . S
C1471 C1477 1.429 . S
C1472 C1464 1.574 . S
C1472 H1467 0.949 . S
C1472 C1478 1.368 . S
C1473 C1457 1.349 . S
C1473 H1465 0.950 . S
C1473 C1471 1.327 . S
C1474 C1462 1.349 . S
C1474 H1468 0.950 . S
C1474 C1475 1.327 . S
C1475 H1469 0.950 . S
C1475 C1474 1.327 . S
C1475 C1479 1.473 . S
C1476 C1459 1.574 . S
C1476 H1470 0.949 . S
C1476 C1480 1.368 . S
C1477 C1458 1.429 . S
C1477 C1471 1.429 . S
C1477 C1478 1.523 . S
C1478 C1459 1.368 . S
C1478 C1472 1.368 . S
C1478 C1477 1.523 . S
C1479 C1463 1.435 1_545 S
C1479 C1475 1.473 . S
C1479 C1480 1.479 1_545 S
C1480 C1464 1.368 . S
C1480 C1476 1.368 . S
C1480 C1479 1.479 1_565 S
H1481 C1456 0.950 . S
H1482 C1458 0.950 . S
H1483 C1459 0.949 . S
H1484 C1461 0.950 . S
H1485 C1463 0.950 . S
C1486 C1487 1.328 1_554 S
C1486 C1488 1.327 . S
C1486 H1511 0.950 . S
C1487 C1486 1.328 1_556 S
C1487 C1503 1.356 . S
C1488 C1486 1.327 . S
C1488 C1507 1.429 . S
C1488 H1512 0.950 . S
C1489 C1506 1.574 . S
C1489 C1508 1.368 . S
C1489 H1513 0.949 1_554 S
H1490 C1494 0.949 . S
C1491 C1492 1.349 . S
C1491 C1493 1.327 . S
C1491 H1514 0.950 . S
C1492 C1491 1.349 . S
C1492 C1504 1.349 . S
C1493 C1491 1.327 . S
C1493 C1509 1.429 . S
C1493 H1515 0.950 . S
C1494 H1490 0.949 . S
C1494 C1502 1.574 . S
C1494 C1510 1.368 . S
H1495 C1503 0.950 . S
H1496 C1501 0.950 . S
H1497 C1502 0.949 . S
H1498 C1504 0.950 . S
H1499 C1505 0.950 . S
H1500 C1506 0.949 . S
C1501 H1496 0.950 . S
C1501 C1503 1.327 . S
C1501 C1507 1.429 1_556 S
C1502 C1494 1.574 . S
C1502 H1497 0.949 . S
C1502 C1508 1.368 . S
C1503 C1487 1.356 . S
C1503 H1495 0.950 . S
C1503 C1501 1.327 . S
C1504 C1492 1.349 . S
C1504 H1498 0.950 . S
C1504 C1505 1.327 . S
C1505 H1499 0.950 . S
C1505 C1504 1.327 . S
C1505 C1509 1.429 . S
C1506 C1489 1.574 . S
C1506 H1500 0.949 . S
C1506 C1510 1.368 . S
C1507 C1488 1.429 . S
C1507 C1501 1.429 1_554 S
C1507 C1508 1.523 . S
C1508 C1489 1.368 . S
C1508 C1502 1.368 . S
C1508 C1507 1.523 . S
C1509 C1493 1.429 . S
C1509 C1505 1.429 . S
C1509 C1510 1.523 . S
C1510 C1494 1.368 . S
C1510 C1506 1.368 . S
C1510 C1509 1.523 . S
H1511 C1486 0.950 . S
H1512 C1488 0.950 . S
H1513 C1489 0.949 1_556 S
H1514 C1491 0.950 . S
H1515 C1493 0.950 . S
C1516 C1517 1.349 . S
C1516 C1518 1.327 . S
C1516 H1541 0.950 . S
C1517 C1516 1.349 . S
C1517 C1533 1.349 . S
C1518 C1516 1.327 . S
C1518 C1537 1.429 . S
C1518 H1542 0.950 . S
C1519 C1536 1.574 . S
C1519 C1538 1.368 . S
C1519 H1543 0.949 . S
H1520 C1524 0.949 . S
C1521 C1522 1.349 . S
C1521 C1523 1.327 . S
C1521 H1544 0.950 . S
C1522 C1521 1.349 . S
C1522 C1534 1.349 . S
C1523 C1521 1.327 . S
C1523 C1539 1.429 . S
C1523 H1545 0.950 . S
C1524 H1520 0.949 . S
C1524 C1532 1.574 . S
C1524 C1540 1.368 . S
H1525 C1533 0.950 . S
H1526 C1531 0.950 . S
H1527 C1532 0.949 . S
H1528 C1534 0.950 . S
H1529 C1535 0.950 . S
H1530 C1536 0.949 . S
C1531 H1526 0.950 . S
C1531 C1533 1.327 . S
C1531 C1537 1.429 . S
C1532 C1524 1.574 . S
C1532 H1527 0.949 . S
C1532 C1538 1.368 . S
C1533 C1517 1.349 . S
C1533 H1525 0.950 . S
C1533 C1531 1.327 . S
C1534 C1522 1.349 . S
C1534 H1528 0.950 . S
C1534 C1535 1.327 . S
C1535 H1529 0.950 . S
C1535 C1534 1.327 . S
C1535 C1539 1.429 . S
C1536 C1519 1.574 . S
C1536 H1530 0.949 . S
C1536 C1540 1.368 . S
C1537 C1518 1.429 . S
C1537 C1531 1.429 . S
C1537 C1538 1.523 . S
C1538 C1519 1.368 . S
C1538 C1532 1.368 . S
C1538 C1537 1.523 . S
C1539 C1523 1.429 . S
C1539 C1535 1.429 . S
C1539 C1540 1.523 . S
C1540 C1524 1.368 . S
C1540 C1536 1.368 . S
C1540 C1539 1.523 . S
H1541 C1516 0.950 . S
H1542 C1518 0.950 . S
H1543 C1519 0.949 . S
H1544 C1521 0.950 . S
H1545 C1523 0.950 . S
C1546 C1547 1.349 . S
C1546 C1548 1.327 . S
C1546 H1571 0.950 . S
C1547 C1546 1.349 . S
C1547 C1563 1.349 . S
C1548 C1546 1.327 . S
C1548 C1567 1.429 . S
C1548 H1572 0.950 . S
C1549 C1566 1.574 . S
C1549 C1568 1.368 . S
C1549 H1573 0.949 . S
H1550 C1554 0.949 . S
C1551 C1552 1.349 . S
C1551 C1553 1.327 . S
C1551 H1574 0.950 . S
C1552 C1551 1.349 . S
C1552 C1564 1.349 . S
C1553 C1551 1.327 . S
C1553 C1569 1.429 . S
C1553 H1575 0.950 . S
C1554 H1550 0.949 . S
C1554 C1562 1.574 . S
C1554 C1570 1.368 . S
H1555 C1563 0.950 . S
H1556 C1561 0.950 . S
H1557 C1562 0.949 . S
H1558 C1564 0.950 . S
H1559 C1565 0.950 . S
H1560 C1566 0.949 . S
C1561 H1556 0.950 . S
C1561 C1563 1.327 . S
C1561 C1567 1.429 . S
C1562 C1554 1.574 . S
C1562 H1557 0.949 . S
C1562 C1568 1.368 . S
C1563 C1547 1.349 . S
C1563 H1555 0.950 . S
C1563 C1561 1.327 . S
C1564 C1552 1.349 . S
C1564 H1558 0.950 . S
C1564 C1565 1.327 . S
C1565 H1559 0.950 . S
C1565 C1564 1.327 . S
C1565 C1569 1.429 . S
C1566 C1549 1.574 . S
C1566 H1560 0.949 . S
C1566 C1570 1.368 . S
C1567 C1548 1.429 . S
C1567 C1561 1.429 . S
C1567 C1568 1.523 . S
C1568 C1549 1.368 . S
C1568 C1562 1.368 . S
C1568 C1567 1.523 . S
C1569 C1553 1.429 . S
C1569 C1565 1.429 . S
C1569 C1570 1.523 . S
C1570 C1554 1.368 . S
C1570 C1566 1.368 . S
C1570 C1569 1.523 . S
H1571 C1546 0.950 . S
H1572 C1548 0.950 . S
H1573 C1549 0.949 . S
H1574 C1551 0.950 . S
H1575 C1553 0.950 . S
C1576 C1577 1.349 . S
C1576 C1578 1.327 . S
C1576 H1601 0.950 . S
C1577 C1576 1.349 . S
C1577 C1593 1.349 . S
C1578 C1576 1.327 . S
C1578 C1597 1.429 . S
C1578 H1602 0.950 . S
C1579 C1596 1.574 . S
C1579 C1598 1.368 . S
C1579 H1603 0.949 . S
H1580 C1584 0.949 . S
C1581 C1582 1.349 . S
C1581 C1583 1.327 . S
C1581 H1604 0.950 . S
C1582 C1581 1.349 . S
C1582 C1594 1.349 . S
C1583 C1581 1.327 . S
C1583 C1599 1.429 . S
C1583 H1605 0.950 . S
C1584 H1580 0.949 . S
C1584 C1592 1.574 . S
C1584 C1600 1.368 . S
H1585 C1593 0.950 . S
H1586 C1591 0.950 . S
H1587 C1592 0.949 . S
H1588 C1594 0.950 . S
H1589 C1595 0.950 . S
H1590 C1596 0.949 . S
C1591 H1586 0.950 . S
C1591 C1593 1.327 . S
C1591 C1597 1.429 . S
C1592 C1584 1.574 . S
C1592 H1587 0.949 . S
C1592 C1598 1.368 . S
C1593 C1577 1.349 . S
C1593 H1585 0.950 . S
C1593 C1591 1.327 . S
C1594 C1582 1.349 . S
C1594 H1588 0.950 . S
C1594 C1595 1.327 . S
C1595 H1589 0.950 . S
C1595 C1594 1.327 . S
C1595 C1599 1.429 . S
C1596 C1579 1.574 . S
C1596 H1590 0.949 . S
C1596 C1600 1.368 . S
C1597 C1578 1.429 . S
C1597 C1591 1.429 . S
C1597 C1598 1.523 . S
C1598 C1579 1.368 . S
C1598 C1592 1.368 . S
C1598 C1597 1.523 . S
C1599 C1583 1.429 . S
C1599 C1595 1.429 . S
C1599 C1600 1.523 . S
C1600 C1584 1.368 . S
C1600 C1596 1.368 . S
C1600 C1599 1.523 . S
H1601 C1576 0.950 . S
H1602 C1578 0.950 . S
H1603 C1579 0.949 . S
H1604 C1581 0.950 . S
H1605 C1583 0.950 . S
C1606 C1607 1.349 . S
C1606 C1608 1.327 . S
C1606 H1631 0.950 . S
C1607 C1606 1.349 . S
C1607 C1623 1.349 . S
C1608 C1606 1.327 . S
C1608 C1627 1.429 . S
C1608 H1632 0.950 . S
C1609 C1626 1.574 . S
C1609 C1628 1.368 . S
C1609 H1633 0.949 . S
H1610 C1614 0.949 . S
C1611 C1612 1.349 . S
C1611 C1613 1.327 . S
C1611 H1634 0.950 . S
C1612 C1611 1.349 . S
C1612 C1624 1.349 . S
C1613 C1611 1.327 . S
C1613 C1629 1.429 . S
C1613 H1635 0.950 . S
C1614 H1610 0.949 . S
C1614 C1622 1.574 . S
C1614 C1630 1.368 . S
H1615 C1623 0.950 . S
H1616 C1621 0.950 . S
H1617 C1622 0.949 . S
H1618 C1624 0.950 . S
H1619 C1625 0.950 . S
H1620 C1626 0.949 . S
C1621 H1616 0.950 . S
C1621 C1623 1.327 . S
C1621 C1627 1.429 . S
C1622 C1614 1.574 . S
C1622 H1617 0.949 . S
C1622 C1628 1.368 . S
C1623 C1607 1.349 . S
C1623 H1615 0.950 . S
C1623 C1621 1.327 . S
C1624 C1612 1.349 . S
C1624 H1618 0.950 . S
C1624 C1625 1.327 . S
C1625 H1619 0.950 . S
C1625 C1624 1.327 . S
C1625 C1629 1.429 . S
C1626 C1609 1.574 . S
C1626 H1620 0.949 . S
C1626 C1630 1.368 . S
C1627 C1608 1.429 . S
C1627 C1621 1.429 . S
C1627 C1628 1.523 . S
C1628 C1609 1.368 . S
C1628 C1622 1.368 . S
C1628 C1627 1.523 . S
C1629 C1613 1.429 . S
C1629 C1625 1.429 . S
C1629 C1630 1.523 . S
C1630 C1614 1.368 . S
C1630 C1626 1.368 . S
C1630 C1629 1.523 . S
H1631 C1606 0.950 . S
H1632 C1608 0.950 . S
H1633 C1609 0.949 . S
H1634 C1611 0.950 . S
H1635 C1613 0.950 . S
C1636 C1637 1.349 . S
C1636 C1638 1.327 . S
C1636 H1661 0.950 . S
C1637 C1636 1.349 . S
C1637 C1653 1.349 . S
C1638 C1636 1.327 . S
C1638 C1657 1.429 . S
C1638 H1662 0.950 . S
C1639 C1656 1.574 . S
C1639 C1658 1.368 . S
C1639 H1663 0.949 . S
H1640 C1644 0.949 . S
C1641 C1642 1.349 . S
C1641 C1643 1.327 . S
C1641 H1664 0.950 . S
C1642 C1641 1.349 . S
C1642 C1654 1.349 . S
C1643 C1641 1.327 . S
C1643 C1659 1.429 . S
C1643 H1665 0.950 . S
C1644 H1640 0.949 . S
C1644 C1652 1.574 . S
C1644 C1660 1.368 . S
H1645 C1653 0.950 . S
H1646 C1651 0.950 . S
H1647 C1652 0.949 . S
H1648 C1654 0.950 . S
H1649 C1655 0.950 . S
H1650 C1656 0.949 . S
C1651 H1646 0.950 . S
C1651 C1653 1.327 . S
C1651 C1657 1.429 . S
C1652 C1644 1.574 . S
C1652 H1647 0.949 . S
C1652 C1658 1.368 . S
C1653 C1637 1.349 . S
C1653 H1645 0.950 . S
C1653 C1651 1.327 . S
C1654 C1642 1.349 . S
C1654 H1648 0.950 . S
C1654 C1655 1.327 . S
C1655 H1649 0.950 . S
C1655 C1654 1.327 . S
C1655 C1659 1.429 . S
C1656 C1639 1.574 . S
C1656 H1650 0.949 . S
C1656 C1660 1.368 . S
C1657 C1638 1.429 . S
C1657 C1651 1.429 . S
C1657 C1658 1.523 . S
C1658 C1639 1.368 . S
C1658 C1652 1.368 . S
C1658 C1657 1.523 . S
C1659 C1643 1.429 . S
C1659 C1655 1.429 . S
C1659 C1660 1.523 . S
C1660 C1644 1.368 . S
C1660 C1656 1.368 . S
C1660 C1659 1.523 . S
H1661 C1636 0.950 . S
H1662 C1638 0.950 . S
H1663 C1639 0.949 . S
H1664 C1641 0.950 . S
H1665 C1643 0.950 . S
C1666 C1667 1.349 . S
C1666 C1668 1.327 . S
C1666 H1691 0.950 . S
C1667 C1666 1.349 . S
C1667 C1683 1.349 . S
C1668 C1666 1.327 . S
C1668 C1687 1.429 . S
C1668 H1692 0.950 . S
C1669 C1686 1.574 . S
C1669 C1688 1.368 . S
C1669 H1693 0.949 . S
H1670 C1674 0.949 . S
C1671 C1672 1.349 . S
C1671 C1673 1.327 . S
C1671 H1694 0.950 . S
C1672 C1671 1.349 . S
C1672 C1684 1.349 . S
C1673 C1671 1.327 . S
C1673 C1689 1.429 . S
C1673 H1695 0.950 . S
C1674 H1670 0.949 . S
C1674 C1682 1.574 . S
C1674 C1690 1.368 . S
H1675 C1683 0.950 . S
H1676 C1681 0.950 . S
H1677 C1682 0.949 . S
H1678 C1684 0.950 . S
H1679 C1685 0.950 . S
H1680 C1686 0.949 . S
C1681 H1676 0.950 . S
C1681 C1683 1.327 . S
C1681 C1687 1.429 . S
C1682 C1674 1.574 . S
C1682 H1677 0.949 . S
C1682 C1688 1.368 . S
C1683 C1667 1.349 . S
C1683 H1675 0.950 . S
C1683 C1681 1.327 . S
C1684 C1672 1.349 . S
C1684 H1678 0.950 . S
C1684 C1685 1.327 . S
C1685 H1679 0.950 . S
C1685 C1684 1.327 . S
C1685 C1689 1.429 . S
C1686 C1669 1.574 . S
C1686 H1680 0.949 . S
C1686 C1690 1.368 . S
C1687 C1668 1.429 . S
C1687 C1681 1.429 . S
C1687 C1688 1.523 . S
C1688 C1669 1.368 . S
C1688 C1682 1.368 . S
C1688 C1687 1.523 . S
C1689 C1673 1.429 . S
C1689 C1685 1.429 . S
C1689 C1690 1.523 . S
C1690 C1674 1.368 . S
C1690 C1686 1.368 . S
C1690 C1689 1.523 . S
H1691 C1666 0.950 . S
H1692 C1668 0.950 . S
H1693 C1669 0.949 . S
H1694 C1671 0.950 . S
H1695 C1673 0.950 . S
C1696 C1697 1.349 . S
C1696 C1698 1.327 . S
C1696 H1721 0.950 . S
C1697 C1696 1.349 . S
C1697 C1713 1.349 . S
C1698 C1696 1.327 . S
C1698 C1717 1.429 . S
C1698 H1722 0.950 . S
C1699 C1716 1.574 . S
C1699 C1718 1.368 . S
C1699 H1723 0.949 . S
H1700 C1704 0.949 . S
C1701 C1702 1.349 . S
C1701 C1703 1.327 . S
C1701 H1724 0.950 . S
C1702 C1701 1.349 . S
C1702 C1714 1.349 . S
C1703 C1701 1.327 . S
C1703 C1719 1.429 . S
C1703 H1725 0.950 . S
C1704 H1700 0.949 . S
C1704 C1712 1.574 . S
C1704 C1720 1.368 . S
H1705 C1713 0.950 . S
H1706 C1711 0.950 . S
H1707 C1712 0.949 . S
H1708 C1714 0.950 . S
H1709 C1715 0.950 . S
H1710 C1716 0.949 . S
C1711 H1706 0.950 . S
C1711 C1713 1.327 . S
C1711 C1717 1.429 . S
C1712 C1704 1.574 . S
C1712 H1707 0.949 . S
C1712 C1718 1.368 . S
C1713 C1697 1.349 . S
C1713 H1705 0.950 . S
C1713 C1711 1.327 . S
C1714 C1702 1.349 . S
C1714 H1708 0.950 . S
C1714 C1715 1.327 . S
C1715 H1709 0.950 . S
C1715 C1714 1.327 . S
C1715 C1719 1.429 . S
C1716 C1699 1.574 . S
C1716 H1710 0.949 . S
C1716 C1720 1.368 . S
C1717 C1698 1.429 . S
C1717 C1711 1.429 . S
C1717 C1718 1.523 . S
C1718 C1699 1.368 . S
C1718 C1712 1.368 . S
C1718 C1717 1.523 . S
C1719 C1703 1.429 . S
C1719 C1715 1.429 . S
C1719 C1720 1.523 . S
C1720 C1704 1.368 . S
C1720 C1716 1.368 . S
C1720 C1719 1.523 . S
H1721 C1696 0.950 . S
H1722 C1698 0.950 . S
H1723 C1699 0.949 . S
H1724 C1701 0.950 . S
H1725 C1703 0.950 . S
C1726 C1727 1.349 . S
C1726 C1728 1.327 . S
C1726 H1751 0.950 . S
C1727 C1726 1.349 . S
C1727 C1743 1.349 . S
C1728 C1726 1.327 . S
C1728 C1747 1.429 . S
C1728 H1752 0.950 . S
C1729 C1746 1.574 . S
C1729 C1748 1.368 . S
C1729 H1753 0.949 . S
H1730 C1734 0.949 . S
C1731 C1732 1.349 . S
C1731 C1733 1.327 . S
C1731 H1754 0.950 . S
C1732 C1731 1.349 . S
C1732 C1744 1.349 . S
C1733 C1731 1.327 . S
C1733 C1749 1.429 . S
C1733 H1755 0.950 . S
C1734 H1730 0.949 . S
C1734 C1742 1.574 . S
C1734 C1750 1.368 . S
H1735 C1743 0.950 . S
H1736 C1741 0.950 . S
H1737 C1742 0.949 . S
H1738 C1744 0.950 . S
H1739 C1745 0.950 . S
H1740 C1746 0.949 . S
C1741 H1736 0.950 . S
C1741 C1743 1.327 . S
C1741 C1747 1.429 . S
C1742 C1734 1.574 . S
C1742 H1737 0.949 . S
C1742 C1748 1.368 . S
C1743 C1727 1.349 . S
C1743 H1735 0.950 . S
C1743 C1741 1.327 . S
C1744 C1732 1.349 . S
C1744 H1738 0.950 . S
C1744 C1745 1.327 . S
C1745 H1739 0.950 . S
C1745 C1744 1.327 . S
C1745 C1749 1.429 . S
C1746 C1729 1.574 . S
C1746 H1740 0.949 . S
C1746 C1750 1.368 . S
C1747 C1728 1.429 . S
C1747 C1741 1.429 . S
C1747 C1748 1.523 . S
C1748 C1729 1.368 . S
C1748 C1742 1.368 . S
C1748 C1747 1.523 . S
C1749 C1733 1.429 . S
C1749 C1745 1.429 . S
C1749 C1750 1.523 . S
C1750 C1734 1.368 . S
C1750 C1746 1.368 . S
C1750 C1749 1.523 . S
H1751 C1726 0.950 . S
H1752 C1728 0.950 . S
H1753 C1729 0.949 . S
H1754 C1731 0.950 . S
H1755 C1733 0.950 . S
C1756 C1757 1.349 . S
C1756 C1758 1.327 . S
C1756 H1781 0.950 . S
C1757 C1756 1.349 . S
C1757 C1773 1.349 . S
C1758 C1756 1.327 . S
C1758 C1777 1.429 . S
C1758 H1782 0.950 . S
C1759 C1776 1.574 . S
C1759 C1778 1.368 . S
C1759 H1783 0.949 . S
H1760 C1764 0.949 . S
C1761 C1762 1.349 . S
C1761 C1763 1.327 . S
C1761 H1784 0.950 . S
C1762 C1761 1.349 . S
C1762 C1774 1.349 . S
C1763 C1761 1.327 . S
C1763 C1779 1.429 . S
C1763 H1785 0.950 . S
C1764 H1760 0.949 . S
C1764 C1772 1.574 . S
C1764 C1780 1.368 . S
H1765 C1773 0.950 . S
H1766 C1771 0.950 . S
H1767 C1772 0.949 . S
H1768 C1774 0.950 . S
H1769 C1775 0.950 . S
H1770 C1776 0.949 . S
C1771 H1766 0.950 . S
C1771 C1773 1.327 . S
C1771 C1777 1.429 . S
C1772 C1764 1.574 . S
C1772 H1767 0.949 . S
C1772 C1778 1.368 . S
C1773 C1757 1.349 . S
C1773 H1765 0.950 . S
C1773 C1771 1.327 . S
C1774 C1762 1.349 . S
C1774 H1768 0.950 . S
C1774 C1775 1.327 . S
C1775 H1769 0.950 . S
C1775 C1774 1.327 . S
C1775 C1779 1.429 . S
C1776 C1759 1.574 . S
C1776 H1770 0.949 . S
C1776 C1780 1.368 . S
C1777 C1758 1.429 . S
C1777 C1771 1.429 . S
C1777 C1778 1.523 . S
C1778 C1759 1.368 . S
C1778 C1772 1.368 . S
C1778 C1777 1.523 . S
C1779 C1763 1.429 . S
C1779 C1775 1.429 . S
C1779 C1780 1.523 . S
C1780 C1764 1.368 . S
C1780 C1776 1.368 . S
C1780 C1779 1.523 . S
H1781 C1756 0.950 . S
H1782 C1758 0.950 . S
H1783 C1759 0.949 . S
H1784 C1761 0.950 . S
H1785 C1763 0.950 . S
C1786 C1787 1.349 . S
C1786 C1788 1.327 . S
C1786 H1811 0.950 . S
C1787 C1786 1.349 . S
C1787 C1803 1.349 . S
C1788 C1786 1.327 . S
C1788 C1807 1.429 . S
C1788 H1812 0.950 . S
C1789 C1806 1.574 . S
C1789 C1808 1.368 . S
C1789 H1813 0.949 . S
H1790 C1794 0.949 . S
C1791 C1792 1.349 . S
C1791 C1793 1.327 . S
C1791 H1814 0.950 . S
C1792 C1791 1.349 . S
C1792 C1804 1.349 . S
C1793 C1791 1.327 . S
C1793 C1809 1.429 . S
C1793 H1815 0.950 . S
C1794 H1790 0.949 . S
C1794 C1802 1.574 . S
C1794 C1810 1.368 . S
H1795 C1803 0.950 . S
H1796 C1801 0.950 . S
H1797 C1802 0.949 . S
H1798 C1804 0.950 . S
H1799 C1805 0.950 . S
H1800 C1806 0.949 . S
C1801 H1796 0.950 . S
C1801 C1803 1.327 . S
C1801 C1807 1.429 . S
C1802 C1794 1.574 . S
C1802 H1797 0.949 . S
C1802 C1808 1.368 . S
C1803 C1787 1.349 . S
C1803 H1795 0.950 . S
C1803 C1801 1.327 . S
C1804 C1792 1.349 . S
C1804 H1798 0.950 . S
C1804 C1805 1.327 . S
C1805 H1799 0.950 . S
C1805 C1804 1.327 . S
C1805 C1809 1.429 . S
C1806 C1789 1.574 . S
C1806 H1800 0.949 . S
C1806 C1810 1.368 . S
C1807 C1788 1.429 . S
C1807 C1801 1.429 . S
C1807 C1808 1.523 . S
C1808 C1789 1.368 . S
C1808 C1802 1.368 . S
C1808 C1807 1.523 . S
C1809 C1793 1.429 . S
C1809 C1805 1.429 . S
C1809 C1810 1.523 . S
C1810 C1794 1.368 . S
C1810 C1806 1.368 . S
C1810 C1809 1.523 . S
H1811 C1786 0.950 . S
H1812 C1788 0.950 . S
H1813 C1789 0.949 . S
H1814 C1791 0.950 . S
H1815 C1793 0.950 . S
C1816 C1817 1.349 . S
C1816 C1818 1.327 . S
C1816 H1841 0.950 . S
C1817 C1816 1.349 . S
C1817 C1833 1.349 . S
C1818 C1816 1.327 . S
C1818 C1837 1.429 . S
C1818 H1842 0.950 . S
C1819 C1836 1.574 . S
C1819 C1838 1.368 . S
C1819 H1843 0.949 . S
H1820 C1824 0.949 . S
C1821 C1822 1.349 . S
C1821 C1823 1.327 . S
C1821 H1844 0.950 . S
C1822 C1821 1.349 . S
C1822 C1834 1.349 1_655 S
C1823 C1821 1.327 . S
C1823 C1839 1.429 1_655 S
C1823 H1845 0.950 . S
C1824 H1820 0.949 . S
C1824 C1832 1.574 . S
C1824 C1840 1.368 . S
H1825 C1833 0.950 . S
H1826 C1831 0.950 . S
H1827 C1832 0.949 . S
H1828 C1834 0.950 . S
H1829 C1835 0.950 . S
H1830 C1836 0.949 1_655 S
C1831 H1826 0.950 . S
C1831 C1833 1.327 . S
C1831 C1837 1.429 . S
C1832 C1824 1.574 . S
C1832 H1827 0.949 . S
C1832 C1838 1.368 . S
C1833 C1817 1.349 . S
C1833 H1825 0.950 . S
C1833 C1831 1.327 . S
C1834 C1822 1.349 1_455 S
C1834 H1828 0.950 . S
C1834 C1835 1.327 . S
C1835 H1829 0.950 . S
C1835 C1834 1.327 . S
C1835 C1839 1.429 . S
C1836 C1819 1.574 . S
C1836 H1830 0.949 1_455 S
C1836 C1840 1.368 . S
C1837 C1818 1.429 . S
C1837 C1831 1.429 . S
C1837 C1838 1.523 . S
C1838 C1819 1.368 . S
C1838 C1832 1.368 . S
C1838 C1837 1.523 . S
C1839 C1823 1.429 1_455 S
C1839 C1835 1.429 . S
C1839 C1840 1.523 . S
C1840 C1824 1.368 . S
C1840 C1836 1.368 . S
C1840 C1839 1.523 . S
H1841 C1816 0.950 . S
H1842 C1818 0.950 . S
H1843 C1819 0.949 . S
H1844 C1821 0.950 . S
H1845 C1823 0.950 . S
C1846 C1847 1.349 . S
C1846 C1848 1.327 . S
C1846 H1871 0.950 . S
C1847 C1846 1.349 . S
C1847 C1863 1.349 . S
C1848 C1846 1.327 . S
C1848 C1867 1.429 . S
C1848 H1872 0.950 . S
C1849 C1866 1.574 . S
C1849 C1868 1.368 . S
C1849 H1873 0.949 . S
H1850 C1854 0.949 . S
C1851 C1852 1.349 . S
C1851 C1853 1.327 . S
C1851 H1874 0.950 . S
C1852 C1851 1.349 . S
C1852 C1864 1.349 . S
C1853 C1851 1.327 . S
C1853 C1869 1.429 . S
C1853 H1875 0.950 . S
C1854 H1850 0.949 . S
C1854 C1862 1.574 . S
C1854 C1870 1.368 . S
H1855 C1863 0.950 . S
H1856 C1861 0.950 . S
H1857 C1862 0.949 . S
H1858 C1864 0.950 . S
H1859 C1865 0.950 . S
H1860 C1866 0.949 . S
C1861 H1856 0.950 . S
C1861 C1863 1.327 . S
C1861 C1867 1.429 . S
C1862 C1854 1.574 . S
C1862 H1857 0.949 . S
C1862 C1868 1.368 . S
C1863 C1847 1.349 . S
C1863 H1855 0.950 . S
C1863 C1861 1.327 . S
C1864 C1852 1.349 . S
C1864 H1858 0.950 . S
C1864 C1865 1.327 . S
C1865 H1859 0.950 . S
C1865 C1864 1.327 . S
C1865 C1869 1.429 . S
C1866 C1849 1.574 . S
C1866 H1860 0.949 . S
C1866 C1870 1.368 . S
C1867 C1848 1.429 . S
C1867 C1861 1.429 . S
C1867 C1868 1.523 . S
C1868 C1849 1.368 . S
C1868 C1862 1.368 . S
C1868 C1867 1.523 . S
C1869 C1853 1.429 . S
C1869 C1865 1.429 . S
C1869 C1870 1.523 . S
C1870 C1854 1.368 . S
C1870 C1866 1.368 . S
C1870 C1869 1.523 . S
H1871 C1846 0.950 . S
H1872 C1848 0.950 . S
H1873 C1849 0.949 . S
H1874 C1851 0.950 . S
H1875 C1853 0.950 . S
C1876 C1877 1.349 . S
C1876 C1878 1.327 1_556 S
C1876 H1901 0.950 . S
C1877 C1876 1.349 . S
C1877 C1893 1.349 . S
C1878 C1876 1.327 1_554 S
C1878 C1897 1.429 . S
C1878 H1902 0.950 . S
C1879 C1896 1.574 . S
C1879 C1898 1.368 . S
C1879 H1903 0.963 . S
H1880 C1884 0.949 . S
C1881 C1882 1.349 . S
C1881 C1883 1.327 1_545 S
C1881 H1904 0.950 . S
C1882 C1881 1.349 . S
C1882 C1894 1.349 . S
C1883 C1881 1.327 1_565 S
C1883 C1899 1.429 . S
C1883 H1905 0.950 . S
C1884 H1880 0.949 . S
C1884 C1892 1.574 . S
C1884 C1900 1.368 . S
H1885 C1893 0.950 . S
H1886 C1891 0.950 . S
H1887 C1892 0.949 . S
H1888 C1894 0.950 . S
H1889 C1895 0.950 . S
H1890 C1896 0.949 . S
C1891 H1886 0.950 . S
C1891 C1893 1.327 . S
C1891 C1897 1.429 1_556 S
C1892 C1884 1.574 . S
C1892 H1887 0.949 . S
C1892 C1898 1.368 . S
C1893 C1877 1.349 . S
C1893 H1885 0.950 . S
C1893 C1891 1.327 . S
C1894 C1882 1.349 . S
C1894 H1888 0.950 . S
C1894 C1895 1.327 1_545 S
C1895 H1889 0.950 . S
C1895 C1894 1.327 1_565 S
C1895 C1899 1.429 . S
C1896 C1879 1.574 . S
C1896 H1890 0.949 . S
C1896 C1900 1.368 . S
C1897 C1878 1.429 . S
C1897 C1891 1.429 1_554 S
C1897 C1898 1.523 . S
C1898 C1879 1.368 . S
C1898 C1892 1.368 . S
C1898 C1897 1.523 . S
C1899 C1883 1.429 . S
C1899 C1895 1.429 . S
C1899 C1900 1.523 . S
C1900 C1884 1.368 . S
C1900 C1896 1.368 . S
C1900 C1899 1.523 . S
H1901 C1876 0.950 . S
H1902 C1878 0.950 . S
H1903 C1879 0.963 . S
H1904 C1881 0.950 . S
H1905 C1883 0.950 . S
C1906 C1907 1.349 . S
C1906 C1908 1.327 . S
C1906 H1931 0.950 . S
C1907 C1906 1.349 . S
C1907 C1923 1.349 . S
C1908 C1906 1.327 . S
C1908 C1927 1.429 . S
C1908 H1932 0.950 . S
C1909 C1926 1.574 . S
C1909 C1928 1.368 . S
C1909 H1933 0.949 . S
H1910 C1914 0.949 . S
C1911 C1912 1.349 . S
C1911 C1913 1.327 . S
C1911 H1934 0.950 . S
C1912 C1911 1.349 . S
C1912 C1924 1.349 . S
C1913 C1911 1.327 . S
C1913 C1929 1.429 . S
C1913 H1935 0.950 . S
C1914 H1910 0.949 . S
C1914 C1922 1.574 . S
C1914 C1930 1.368 . S
H1915 C1923 0.950 . S
H1916 C1921 0.950 . S
H1917 C1922 0.949 . S
H1918 C1924 0.950 . S
H1919 C1925 0.950 . S
H1920 C1926 0.949 . S
C1921 H1916 0.950 . S
C1921 C1923 1.327 . S
C1921 C1927 1.429 . S
C1922 C1914 1.574 . S
C1922 H1917 0.949 . S
C1922 C1928 1.368 . S
C1923 C1907 1.349 . S
C1923 H1915 0.950 . S
C1923 C1921 1.327 . S
C1924 C1912 1.349 . S
C1924 H1918 0.950 . S
C1924 C1925 1.327 . S
C1925 H1919 0.950 . S
C1925 C1924 1.327 . S
C1925 C1929 1.429 . S
C1926 C1909 1.574 . S
C1926 H1920 0.949 . S
C1926 C1930 1.368 . S
C1927 C1908 1.429 . S
C1927 C1921 1.429 . S
C1927 C1928 1.523 . S
C1928 C1909 1.368 . S
C1928 C1922 1.368 . S
C1928 C1927 1.523 . S
C1929 C1913 1.429 . S
C1929 C1925 1.429 . S
C1929 C1930 1.523 . S
C1930 C1914 1.368 . S
C1930 C1926 1.368 . S
C1930 C1929 1.523 . S
H1931 C1906 0.950 . S
H1932 C1908 0.950 . S
H1933 C1909 0.949 . S
H1934 C1911 0.950 . S
H1935 C1913 0.950 . S
C1936 C1937 1.349 . S
C1936 C1938 1.327 . S
C1936 H1961 0.950 . S
C1937 C1936 1.349 . S
C1937 C1953 1.349 . S
C1938 C1936 1.327 . S
C1938 C1957 1.429 . S
C1938 H1962 0.950 . S
C1939 C1956 1.574 . S
C1939 C1958 1.368 . S
C1939 H1963 0.949 . S
H1940 C1944 0.949 . S
C1941 C1942 1.349 . S
C1941 C1943 1.327 . S
C1941 H1964 0.950 . S
C1942 C1941 1.349 . S
C1942 C1954 1.349 . S
C1943 C1941 1.327 . S
C1943 C1959 1.429 . S
C1943 H1965 0.950 . S
C1944 H1940 0.949 . S
C1944 C1952 1.574 . S
C1944 C1960 1.368 . S
H1945 C1953 0.950 . S
H1946 C1951 0.950 . S
H1947 C1952 0.949 . S
H1948 C1954 0.954 . S
H1949 C1955 0.950 . S
H1950 C1956 0.949 . S
C1951 H1946 0.950 . S
C1951 C1953 1.327 . S
C1951 C1957 1.429 . S
C1952 C1944 1.574 . S
C1952 H1947 0.949 . S
C1952 C1958 1.368 . S
C1953 C1937 1.349 . S
C1953 H1945 0.950 . S
C1953 C1951 1.327 . S
C1954 C1942 1.349 . S
C1954 H1948 0.954 . S
C1954 C1955 1.327 . S
C1955 H1949 0.950 . S
C1955 C1954 1.327 . S
C1955 C1959 1.429 . S
C1956 C1939 1.574 . S
C1956 H1950 0.949 . S
C1956 C1960 1.368 . S
C1957 C1938 1.429 . S
C1957 C1951 1.429 . S
C1957 C1958 1.523 . S
C1958 C1939 1.368 . S
C1958 C1952 1.368 . S
C1958 C1957 1.523 . S
C1959 C1943 1.429 . S
C1959 C1955 1.429 . S
C1959 C1960 1.523 . S
C1960 C1944 1.368 . S
C1960 C1956 1.368 . S
C1960 C1959 1.523 . S
H1961 C1936 0.950 . S
H1962 C1938 0.950 . S
H1963 C1939 0.949 . S
H1964 C1941 0.950 . S
H1965 C1943 0.950 . S
C1966 C1967 1.349 . S
C1966 C1968 1.327 . S
C1966 H1991 0.950 . S
C1967 C1966 1.349 . S
C1967 C1983 1.349 . S
C1968 C1966 1.327 . S
C1968 C1987 1.429 . S
C1968 H1992 0.950 . S
C1969 C1986 1.574 . S
C1969 C1988 1.368 . S
C1969 H1993 0.949 . S
H1970 C1974 0.949 . S
C1971 C1972 1.349 . S
C1971 C1973 1.327 . S
C1971 H1994 0.950 . S
C1972 C1971 1.349 . S
C1972 C1984 1.349 . S
C1973 C1971 1.327 . S
C1973 C1989 1.429 . S
C1973 H1995 0.950 . S
C1974 H1970 0.949 . S
C1974 C1982 1.574 . S
C1974 C1990 1.368 . S
H1975 C1983 0.950 . S
H1976 C1981 0.950 . S
H1977 C1982 0.949 . S
H1978 C1984 0.950 . S
H1979 C1985 0.950 . S
H1980 C1986 0.949 . S
C1981 H1976 0.950 . S
C1981 C1983 1.327 . S
C1981 C1987 1.429 . S
C1982 C1974 1.574 . S
C1982 H1977 0.949 . S
C1982 C1988 1.368 . S
C1983 C1967 1.349 . S
C1983 H1975 0.950 . S
C1983 C1981 1.327 . S
C1984 C1972 1.349 . S
C1984 H1978 0.950 . S
C1984 C1985 1.327 . S
C1985 H1979 0.950 . S
C1985 C1984 1.327 . S
C1985 C1989 1.429 . S
C1986 C1969 1.574 . S
C1986 H1980 0.949 . S
C1986 C1990 1.368 . S
C1987 C1968 1.429 . S
C1987 C1981 1.429 . S
C1987 C1988 1.523 . S
C1988 C1969 1.368 . S
C1988 C1982 1.368 . S
C1988 C1987 1.523 . S
C1989 C1973 1.429 . S
C1989 C1985 1.429 . S
C1989 C1990 1.523 . S
C1990 C1974 1.368 . S
C1990 C1986 1.368 . S
C1990 C1989 1.523 . S
H1991 C1966 0.950 . S
H1992 C1968 0.950 . S
H1993 C1969 0.949 . S
H1994 C1971 0.950 . S
H1995 C1973 0.950 . S
C1996 C1997 1.349 . S
C1996 C1998 1.327 . S
C1996 H2021 0.950 . S
C1997 C1996 1.349 . S
C1997 C2013 1.349 . S
C1998 C1996 1.327 . S
C1998 C2017 1.429 . S
C1998 H2022 0.950 . S
C1999 C2016 1.574 . S
C1999 C2018 1.368 . S
C1999 H2023 0.949 . S
H2000 C2004 0.949 . S
C2001 C2002 1.349 . S
C2001 C2003 1.327 . S
C2001 H2024 0.950 . S
C2002 C2001 1.349 . S
C2002 C2014 1.349 . S
C2003 C2001 1.327 . S
C2003 C2019 1.429 . S
C2003 H2025 0.950 . S
C2004 H2000 0.949 . S
C2004 C2012 1.574 . S
C2004 C2020 1.368 . S
H2005 C2013 0.950 . S
H2006 C2011 0.950 . S
H2007 C2012 0.949 . S
H2008 C2014 0.950 . S
H2009 C2015 0.950 . S
H2010 C2016 0.949 . S
C2011 H2006 0.950 . S
C2011 C2013 1.327 . S
C2011 C2017 1.429 . S
C2012 C2004 1.574 . S
C2012 H2007 0.949 . S
C2012 C2018 1.368 . S
C2013 C1997 1.349 . S
C2013 H2005 0.950 . S
C2013 C2011 1.327 . S
C2014 C2002 1.349 . S
C2014 H2008 0.950 . S
C2014 C2015 1.327 . S
C2015 H2009 0.950 . S
C2015 C2014 1.327 . S
C2015 C2019 1.429 . S
C2016 C1999 1.574 . S
C2016 H2010 0.949 . S
C2016 C2020 1.368 . S
C2017 C1998 1.429 . S
C2017 C2011 1.429 . S
C2017 C2018 1.523 . S
C2018 C1999 1.368 . S
C2018 C2012 1.368 . S
C2018 C2017 1.523 . S
C2019 C2003 1.429 . S
C2019 C2015 1.429 . S
C2019 C2020 1.523 . S
C2020 C2004 1.368 . S
C2020 C2016 1.368 . S
C2020 C2019 1.523 . S
H2021 C1996 0.950 . S
H2022 C1998 0.950 . S
H2023 C1999 0.949 . S
H2024 C2001 0.950 . S
H2025 C2003 0.950 . S
C2026 C2027 1.349 . S
C2026 C2028 1.327 . S
C2026 H2051 0.950 . S
C2027 C2026 1.349 . S
C2027 C2043 1.349 . S
C2028 C2026 1.327 . S
C2028 C2047 1.429 . S
C2028 H2052 0.950 . S
C2029 C2046 1.574 . S
C2029 C2048 1.368 . S
C2029 H2053 0.949 . S
H2030 C2034 0.949 . S
C2031 C2032 1.349 . S
C2031 C2033 1.327 . S
C2031 H2054 0.950 . S
C2032 C2031 1.349 . S
C2032 C2044 1.349 . S
C2033 C2031 1.327 . S
C2033 C2049 1.429 . S
C2033 H2055 0.950 . S
C2034 H2030 0.949 . S
C2034 C2042 1.574 . S
C2034 C2050 1.368 . S
H2035 C2043 0.950 . S
H2036 C2041 0.950 . S
H2037 C2042 0.949 . S
H2038 C2044 0.950 . S
H2039 C2045 0.950 . S
H2040 C2046 0.949 . S
C2041 H2036 0.950 . S
C2041 C2043 1.327 . S
C2041 C2047 1.429 . S
C2042 C2034 1.574 . S
C2042 H2037 0.949 . S
C2042 C2048 1.368 . S
C2043 C2027 1.349 . S
C2043 H2035 0.950 . S
C2043 C2041 1.327 . S
C2044 C2032 1.349 . S
C2044 H2038 0.950 . S
C2044 C2045 1.327 . S
C2045 H2039 0.950 . S
C2045 C2044 1.327 . S
C2045 C2049 1.429 . S
C2046 C2029 1.574 . S
C2046 H2040 0.949 . S
C2046 C2050 1.368 . S
C2047 C2028 1.429 . S
C2047 C2041 1.429 . S
C2047 C2048 1.523 . S
C2048 C2029 1.368 . S
C2048 C2042 1.368 . S
C2048 C2047 1.523 . S
C2049 C2033 1.429 . S
C2049 C2045 1.429 . S
C2049 C2050 1.523 . S
C2050 C2034 1.368 . S
C2050 C2046 1.368 . S
C2050 C2049 1.523 . S
H2051 C2026 0.950 . S
H2052 C2028 0.950 . S
H2053 C2029 0.949 . S
H2054 C2031 0.950 . S
H2055 C2033 0.950 . S
C2056 C2057 1.349 . S
C2056 C2058 1.327 . S
C2056 H2081 0.950 . S
C2057 C2056 1.349 . S
C2057 C2073 1.349 . S
C2058 C2056 1.327 . S
C2058 C2077 1.429 . S
C2058 H2082 0.950 . S
C2059 C2076 1.574 . S
C2059 C2078 1.368 . S
C2059 H2083 0.949 . S
H2060 C2064 0.949 . S
C2061 C2062 1.349 . S
C2061 C2063 1.327 . S
C2061 H2084 0.950 . S
C2062 C2061 1.349 . S
C2062 C2074 1.349 . S
C2063 C2061 1.327 . S
C2063 C2079 1.429 . S
C2063 H2085 0.950 . S
C2064 H2060 0.949 . S
C2064 C2072 1.574 . S
C2064 C2080 1.368 . S
H2065 C2073 0.950 . S
H2066 C2071 0.950 . S
H2067 C2072 0.949 . S
H2068 C2074 0.950 . S
H2069 C2075 0.950 . S
H2070 C2076 0.949 . S
C2071 H2066 0.950 . S
C2071 C2073 1.327 . S
C2071 C2077 1.429 . S
C2072 C2064 1.574 . S
C2072 H2067 0.949 . S
C2072 C2078 1.368 . S
C2073 C2057 1.349 . S
C2073 H2065 0.950 . S
C2073 C2071 1.327 . S
C2074 C2062 1.349 . S
C2074 H2068 0.950 . S
C2074 C2075 1.327 . S
C2075 H2069 0.950 . S
C2075 C2074 1.327 . S
C2075 C2079 1.429 . S
C2076 C2059 1.574 . S
C2076 H2070 0.949 . S
C2076 C2080 1.368 . S
C2077 C2058 1.429 . S
C2077 C2071 1.429 . S
C2077 C2078 1.523 . S
C2078 C2059 1.368 . S
C2078 C2072 1.368 . S
C2078 C2077 1.523 . S
C2079 C2063 1.429 . S
C2079 C2075 1.429 . S
C2079 C2080 1.523 . S
C2080 C2064 1.368 . S
C2080 C2076 1.368 . S
C2080 C2079 1.523 . S
H2081 C2056 0.950 . S
H2082 C2058 0.950 . S
H2083 C2059 0.949 . S
H2084 C2061 0.950 . S
H2085 C2063 0.950 . S
C2086 C2087 1.349 . S
C2086 C2088 1.327 . S
C2086 H2111 0.950 . S
C2087 C2086 1.349 . S
C2087 C2103 1.349 . S
C2088 C2086 1.327 . S
C2088 C2107 1.429 . S
C2088 H2112 0.950 . S
C2089 C2106 1.574 . S
C2089 C2108 1.368 . S
C2089 H2113 0.949 . S
H2090 C2094 0.949 . S
C2091 C2092 1.349 . S
C2091 C2093 1.327 . S
C2091 H2114 0.950 . S
C2092 C2091 1.349 . S
C2092 C2104 1.349 . S
C2093 C2091 1.327 . S
C2093 C2109 1.429 . S
C2093 H2115 0.950 . S
C2094 H2090 0.949 . S
C2094 C2102 1.574 . S
C2094 C2110 1.368 . S
H2095 C2103 0.950 . S
H2096 C2101 0.950 . S
H2097 C2102 0.949 . S
H2098 C2104 0.950 . S
H2099 C2105 0.950 . S
H2100 C2106 0.949 . S
C2101 H2096 0.950 . S
C2101 C2103 1.327 . S
C2101 C2107 1.429 . S
C2102 C2094 1.574 . S
C2102 H2097 0.949 . S
C2102 C2108 1.368 . S
C2103 C2087 1.349 . S
C2103 H2095 0.950 . S
C2103 C2101 1.327 . S
C2104 C2092 1.349 . S
C2104 H2098 0.950 . S
C2104 C2105 1.327 . S
C2105 H2099 0.950 . S
C2105 C2104 1.327 . S
C2105 C2109 1.429 . S
C2106 C2089 1.574 . S
C2106 H2100 0.949 . S
C2106 C2110 1.368 . S
C2107 C2088 1.429 . S
C2107 C2101 1.429 . S
C2107 C2108 1.523 . S
C2108 C2089 1.368 . S
C2108 C2102 1.368 . S
C2108 C2107 1.523 . S
C2109 C2093 1.429 . S
C2109 C2105 1.429 . S
C2109 C2110 1.523 . S
C2110 C2094 1.368 . S
C2110 C2106 1.368 . S
C2110 C2109 1.523 . S
H2111 C2086 0.950 . S
H2112 C2088 0.950 . S
H2113 C2089 0.949 . S
H2114 C2091 0.950 . S
H2115 C2093 0.950 . S
C2116 C2117 1.349 . S
C2116 C2118 1.327 . S
C2116 H2141 0.950 . S
C2117 C2116 1.349 . S
C2117 C2133 1.349 . S
C2118 C2116 1.327 . S
C2118 C2137 1.429 . S
C2118 H2142 0.950 . S
C2119 C2136 1.574 . S
C2119 C2138 1.368 . S
C2119 H2143 0.949 . S
H2120 C2124 0.949 . S
C2121 C2122 1.349 . S
C2121 C2123 1.327 . S
C2121 H2144 0.950 . S
C2122 C2121 1.349 . S
C2122 C2134 1.349 . S
C2123 C2121 1.327 . S
C2123 C2139 1.429 . S
C2123 H2145 0.950 . S
C2124 H2120 0.949 . S
C2124 C2132 1.574 . S
C2124 C2140 1.368 . S
H2125 C2133 0.950 . S
H2126 C2131 0.950 . S
H2127 C2132 0.949 . S
H2128 C2134 0.950 . S
H2129 C2135 0.950 . S
H2130 C2136 0.949 . S
C2131 H2126 0.950 . S
C2131 C2133 1.327 . S
C2131 C2137 1.429 . S
C2132 C2124 1.574 . S
C2132 H2127 0.949 . S
C2132 C2138 1.368 . S
C2133 C2117 1.349 . S
C2133 H2125 0.950 . S
C2133 C2131 1.327 . S
C2134 C2122 1.349 . S
C2134 H2128 0.950 . S
C2134 C2135 1.327 . S
C2135 H2129 0.950 . S
C2135 C2134 1.327 . S
C2135 C2139 1.429 . S
C2136 C2119 1.574 . S
C2136 H2130 0.949 . S
C2136 C2140 1.368 . S
C2137 C2118 1.429 . S
C2137 C2131 1.429 . S
C2137 C2138 1.523 . S
C2138 C2119 1.368 . S
C2138 C2132 1.368 . S
C2138 C2137 1.523 . S
C2139 C2123 1.429 . S
C2139 C2135 1.429 . S
C2139 C2140 1.523 . S
C2140 C2124 1.368 . S
C2140 C2136 1.368 . S
C2140 C2139 1.523 . S
H2141 C2116 0.950 . S
H2142 C2118 0.950 . S
H2143 C2119 0.949 . S
H2144 C2121 0.950 . S
H2145 C2123 0.950 . S
C2146 C2147 1.349 . S
C2146 C2148 1.327 . S
C2146 H2171 0.950 . S
C2147 C2146 1.349 . S
C2147 C2163 1.349 . S
C2148 C2146 1.327 . S
C2148 C2167 1.429 . S
C2148 H2172 0.950 . S
C2149 C2166 1.574 . S
C2149 C2168 1.368 . S
C2149 H2173 0.949 . S
H2150 C2154 0.949 . S
C2151 C2152 1.349 . S
C2151 C2153 1.327 . S
C2151 H2174 0.950 . S
C2152 C2151 1.349 . S
C2152 C2164 1.349 . S
C2153 C2151 1.327 . S
C2153 C2169 1.429 . S
C2153 H2175 0.950 . S
C2154 H2150 0.949 . S
C2154 C2162 1.574 . S
C2154 C2170 1.368 . S
H2155 C2163 0.950 . S
H2156 C2161 0.950 . S
H2157 C2162 0.949 . S
H2158 C2164 0.950 . S
H2159 C2165 0.950 . S
H2160 C2166 0.949 . S
C2161 H2156 0.950 . S
C2161 C2163 1.327 . S
C2161 C2167 1.429 . S
C2162 C2154 1.574 . S
C2162 H2157 0.949 . S
C2162 C2168 1.368 . S
C2163 C2147 1.349 . S
C2163 H2155 0.950 . S
C2163 C2161 1.327 . S
C2164 C2152 1.349 . S
C2164 H2158 0.950 . S
C2164 C2165 1.327 . S
C2165 H2159 0.950 . S
C2165 C2164 1.327 . S
C2165 C2169 1.429 . S
C2166 C2149 1.574 . S
C2166 H2160 0.949 . S
C2166 C2170 1.368 . S
C2167 C2148 1.429 . S
C2167 C2161 1.429 . S
C2167 C2168 1.523 . S
C2168 C2149 1.368 . S
C2168 C2162 1.368 . S
C2168 C2167 1.523 . S
C2169 C2153 1.429 . S
C2169 C2165 1.429 . S
C2169 C2170 1.523 . S
C2170 C2154 1.368 . S
C2170 C2166 1.368 . S
C2170 C2169 1.523 . S
H2171 C2146 0.950 . S
H2172 C2148 0.950 . S
H2173 C2149 0.949 . S
H2174 C2151 0.950 . S
H2175 C2153 0.950 . S
C2176 C2177 1.349 . S
C2176 C2178 1.327 . S
C2176 H2201 0.950 . S
C2177 C2176 1.349 . S
C2177 C2193 1.349 . S
C2178 C2176 1.327 . S
C2178 C2197 1.429 . S
C2178 H2202 0.950 . S
C2179 C2196 1.574 . S
C2179 C2198 1.368 . S
C2179 H2203 0.949 . S
H2180 C2184 0.949 . S
C2181 C2182 1.349 . S
C2181 C2183 1.327 . S
C2181 H2204 0.950 . S
C2182 C2181 1.349 . S
C2182 C2194 1.349 . S
C2183 C2181 1.327 . S
C2183 C2199 1.429 . S
C2183 H2205 0.950 . S
C2184 H2180 0.949 . S
C2184 C2192 1.574 . S
C2184 C2200 1.368 . S
H2185 C2193 0.950 . S
H2186 C2191 0.950 . S
H2187 C2192 0.949 . S
H2188 C2194 0.950 . S
H2189 C2195 0.950 . S
H2190 C2196 0.949 . S
C2191 H2186 0.950 . S
C2191 C2193 1.327 . S
C2191 C2197 1.429 . S
C2192 C2184 1.574 . S
C2192 H2187 0.949 . S
C2192 C2198 1.368 . S
C2193 C2177 1.349 . S
C2193 H2185 0.950 . S
C2193 C2191 1.327 . S
C2194 C2182 1.349 . S
C2194 H2188 0.950 . S
C2194 C2195 1.327 . S
C2195 H2189 0.950 . S
C2195 C2194 1.327 . S
C2195 C2199 1.429 . S
C2196 C2179 1.574 . S
C2196 H2190 0.949 . S
C2196 C2200 1.368 . S
C2197 C2178 1.429 . S
C2197 C2191 1.429 . S
C2197 C2198 1.523 . S
C2198 C2179 1.368 . S
C2198 C2192 1.368 . S
C2198 C2197 1.523 . S
C2199 C2183 1.429 . S
C2199 C2195 1.429 . S
C2199 C2200 1.523 . S
C2200 C2184 1.368 . S
C2200 C2196 1.368 . S
C2200 C2199 1.523 . S
H2201 C2176 0.950 . S
H2202 C2178 0.950 . S
H2203 C2179 0.949 . S
H2204 C2181 0.950 . S
H2205 C2183 0.950 . S
C2206 C2207 1.349 . S
C2206 C2208 1.327 . S
C2206 H2231 0.950 . S
C2207 C2206 1.349 . S
C2207 C2223 1.349 . S
C2208 C2206 1.327 . S
C2208 C2227 1.429 . S
C2208 H2232 0.950 . S
C2209 C2226 1.574 . S
C2209 C2228 1.368 . S
C2209 H2233 0.949 . S
H2210 C2214 0.949 . S
C2211 C2212 1.349 . S
C2211 C2213 1.327 . S
C2211 H2234 0.950 . S
C2212 C2211 1.349 . S
C2212 C2224 1.349 . S
C2213 C2211 1.327 . S
C2213 C2229 1.429 . S
C2213 H2235 0.950 . S
C2214 H2210 0.949 . S
C2214 C2222 1.574 . S
C2214 C2230 1.368 . S
H2215 C2223 0.950 . S
H2216 C2221 0.950 . S
H2217 C2222 0.949 . S
H2218 C2224 0.950 . S
H2219 C2225 0.950 . S
H2220 C2226 0.949 . S
C2221 H2216 0.950 . S
C2221 C2223 1.327 . S
C2221 C2227 1.429 . S
C2222 C2214 1.574 . S
C2222 H2217 0.949 . S
C2222 C2228 1.368 . S
C2223 C2207 1.349 . S
C2223 H2215 0.950 . S
C2223 C2221 1.327 . S
C2224 C2212 1.349 . S
C2224 H2218 0.950 . S
C2224 C2225 1.327 . S
C2225 H2219 0.950 . S
C2225 C2224 1.327 . S
C2225 C2229 1.429 . S
C2226 C2209 1.574 . S
C2226 H2220 0.949 . S
C2226 C2230 1.368 . S
C2227 C2208 1.429 . S
C2227 C2221 1.429 . S
C2227 C2228 1.523 . S
C2228 C2209 1.368 . S
C2228 C2222 1.368 . S
C2228 C2227 1.523 . S
C2229 C2213 1.429 . S
C2229 C2225 1.429 . S
C2229 C2230 1.523 . S
C2230 C2214 1.368 . S
C2230 C2226 1.368 . S
C2230 C2229 1.523 . S
H2231 C2206 0.950 . S
H2232 C2208 0.950 . S
H2233 C2209 0.949 . S
H2234 C2211 0.950 . S
H2235 C2213 0.950 . S
C2236 C2237 1.349 . S
C2236 C2238 1.327 . S
C2236 H2261 0.950 . S
C2237 C2236 1.349 . S
C2237 C2253 1.349 . S
C2238 C2236 1.327 . S
C2238 C2257 1.429 . S
C2238 H2262 0.950 . S
C2239 C2256 1.574 . S
C2239 C2258 1.368 . S
C2239 H2263 0.949 . S
H2240 C2244 0.949 . S
C2241 C2242 1.349 . S
C2241 C2243 1.327 . S
C2241 H2264 0.950 . S
C2242 C2241 1.349 . S
C2242 C2254 1.349 . S
C2243 C2241 1.327 . S
C2243 C2259 1.429 . S
C2243 H2265 0.950 . S
C2244 H2240 0.949 . S
C2244 C2252 1.574 . S
C2244 C2260 1.368 . S
H2245 C2253 0.950 . S
H2246 C2251 0.950 . S
H2247 C2252 0.949 . S
H2248 C2254 0.950 . S
H2249 C2255 0.950 . S
H2250 C2256 0.949 . S
C2251 H2246 0.950 . S
C2251 C2253 1.327 . S
C2251 C2257 1.429 . S
C2252 C2244 1.574 . S
C2252 H2247 0.949 . S
C2252 C2258 1.368 . S
C2253 C2237 1.349 . S
C2253 H2245 0.950 . S
C2253 C2251 1.327 . S
C2254 C2242 1.349 . S
C2254 H2248 0.950 . S
C2254 C2255 1.327 . S
C2255 H2249 0.950 . S
C2255 C2254 1.327 . S
C2255 C2259 1.429 . S
C2256 C2239 1.574 . S
C2256 H2250 0.949 . S
C2256 C2260 1.368 . S
C2257 C2238 1.429 . S
C2257 C2251 1.429 . S
C2257 C2258 1.523 . S
C2258 C2239 1.368 . S
C2258 C2252 1.368 . S
C2258 C2257 1.523 . S
C2259 C2243 1.429 . S
C2259 C2255 1.429 . S
C2259 C2260 1.523 . S
C2260 C2244 1.368 . S
C2260 C2256 1.368 . S
C2260 C2259 1.523 . S
H2261 C2236 0.950 . S
H2262 C2238 0.950 . S
H2263 C2239 0.949 . S
H2264 C2241 0.950 . S
H2265 C2243 0.950 . S
C2266 C2267 1.349 . S
C2266 C2268 1.327 . S
C2266 H2291 0.950 . S
C2267 C2266 1.349 . S
C2267 C2283 1.349 . S
C2268 C2266 1.327 . S
C2268 C2287 1.429 . S
C2268 H2292 0.950 . S
C2269 C2286 1.574 . S
C2269 C2288 1.368 . S
C2269 H2293 0.949 . S
H2270 C2274 0.949 . S
C2271 C2272 1.349 . S
C2271 C2273 1.327 . S
C2271 H2294 0.950 . S
C2272 C2271 1.349 . S
C2272 C2284 1.349 . S
C2273 C2271 1.327 . S
C2273 C2289 1.429 . S
C2273 H2295 0.950 . S
C2274 H2270 0.949 . S
C2274 C2282 1.574 . S
C2274 C2290 1.368 . S
H2275 C2283 0.950 . S
H2276 C2281 0.950 . S
H2277 C2282 0.949 . S
H2278 C2284 0.950 . S
H2279 C2285 0.950 . S
H2280 C2286 0.949 . S
C2281 H2276 0.950 . S
C2281 C2283 1.327 . S
C2281 C2287 1.429 . S
C2282 C2274 1.574 . S
C2282 H2277 0.949 . S
C2282 C2288 1.368 . S
C2283 C2267 1.349 . S
C2283 H2275 0.950 . S
C2283 C2281 1.327 . S
C2284 C2272 1.349 . S
C2284 H2278 0.950 . S
C2284 C2285 1.327 . S
C2285 H2279 0.950 . S
C2285 C2284 1.327 . S
C2285 C2289 1.429 . S
C2286 C2269 1.574 . S
C2286 H2280 0.949 . S
C2286 C2290 1.368 . S
C2287 C2268 1.429 . S
C2287 C2281 1.429 . S
C2287 C2288 1.523 . S
C2288 C2269 1.368 . S
C2288 C2282 1.368 . S
C2288 C2287 1.523 . S
C2289 C2273 1.429 . S
C2289 C2285 1.429 . S
C2289 C2290 1.523 . S
C2290 C2274 1.368 . S
C2290 C2286 1.368 . S
C2290 C2289 1.523 . S
H2291 C2266 0.950 . S
H2292 C2268 0.950 . S
H2293 C2269 0.949 . S
H2294 C2271 0.950 . S
H2295 C2273 0.950 . S
C2296 C2297 1.349 . S
C2296 C2298 1.327 . S
C2296 H2321 0.950 . S
C2297 C2296 1.349 . S
C2297 C2313 1.349 . S
C2298 C2296 1.327 . S
C2298 C2317 1.429 . S
C2298 H2322 0.950 . S
C2299 C2316 1.574 . S
C2299 C2318 1.368 . S
C2299 H2323 0.949 . S
H2300 C2304 0.949 . S
C2301 C2302 1.349 . S
C2301 C2303 1.327 . S
C2301 H2324 0.950 . S
C2302 C2301 1.349 . S
C2302 C2314 1.349 . S
C2303 C2301 1.327 . S
C2303 C2319 1.429 . S
C2303 H2325 0.950 . S
C2304 H2300 0.949 . S
C2304 C2312 1.574 . S
C2304 C2320 1.368 . S
H2305 C2313 0.950 . S
H2306 C2311 0.950 . S
H2307 C2312 0.949 . S
H2308 C2314 0.950 . S
H2309 C2315 0.950 . S
H2310 C2316 0.949 . S
C2311 H2306 0.950 . S
C2311 C2313 1.327 . S
C2311 C2317 1.429 . S
C2312 C2304 1.574 . S
C2312 H2307 0.949 . S
C2312 C2318 1.368 . S
C2313 C2297 1.349 . S
C2313 H2305 0.950 . S
C2313 C2311 1.327 . S
C2314 C2302 1.349 . S
C2314 H2308 0.950 . S
C2314 C2315 1.327 . S
C2315 H2309 0.950 . S
C2315 C2314 1.327 . S
C2315 C2319 1.429 . S
C2316 C2299 1.574 . S
C2316 H2310 0.949 . S
C2316 C2320 1.368 . S
C2317 C2298 1.429 . S
C2317 C2311 1.429 . S
C2317 C2318 1.523 . S
C2318 C2299 1.368 . S
C2318 C2312 1.368 . S
C2318 C2317 1.523 . S
C2319 C2303 1.429 . S
C2319 C2315 1.429 . S
C2319 C2320 1.523 . S
C2320 C2304 1.368 . S
C2320 C2316 1.368 . S
C2320 C2319 1.523 . S
H2321 C2296 0.950 . S
H2322 C2298 0.950 . S
H2323 C2299 0.949 . S
H2324 C2301 0.950 . S
H2325 C2303 0.950 . S
C2326 C2327 1.349 . S
C2326 C2328 1.327 . S
C2326 H2351 0.950 . S
C2327 C2326 1.349 . S
C2327 C2343 1.349 1_565 S
C2328 C2326 1.327 . S
C2328 C2347 1.429 . S
C2328 H2352 0.950 . S
C2329 C2346 1.574 . S
C2329 C2348 1.368 1_545 S
C2329 H2353 0.949 . S
H2330 C2334 0.949 . S
C2331 C2332 1.349 . S
C2331 C2333 1.327 . S
C2331 H2354 0.950 . S
C2332 C2331 1.349 . S
C2332 C2344 1.349 1_545 S
C2333 C2331 1.327 . S
C2333 C2349 1.429 . S
C2333 H2355 0.950 . S
C2334 H2330 0.949 . S
C2334 C2342 1.574 . S
C2334 C2350 1.368 1_565 S
H2335 C2343 0.950 . S
H2336 C2341 0.950 . S
H2337 C2342 0.949 . S
H2338 C2344 0.950 . S
H2339 C2345 0.950 . S
H2340 C2346 0.949 . S
C2341 H2336 0.950 . S
C2341 C2343 1.327 . S
C2341 C2347 1.429 1_545 S
C2342 C2334 1.574 . S
C2342 H2337 0.949 . S
C2342 C2348 1.368 . S
C2343 C2327 1.349 1_545 S
C2343 H2335 0.950 . S
C2343 C2341 1.327 . S
C2344 C2332 1.349 1_565 S
C2344 H2338 0.950 . S
C2344 C2345 1.327 . S
C2345 H2339 0.950 . S
C2345 C2344 1.327 . S
C2345 C2349 1.429 1_565 S
C2346 C2329 1.574 . S
C2346 H2340 0.949 . S
C2346 C2350 1.368 . S
C2347 C2328 1.429 . S
C2347 C2341 1.429 1_565 S
C2347 C2348 1.523 . S
C2348 C2329 1.368 1_565 S
C2348 C2342 1.368 . S
C2348 C2347 1.523 . S
C2349 C2333 1.429 . S
C2349 C2345 1.429 1_545 S
C2349 C2350 1.523 . S
C2350 C2334 1.368 1_545 S
C2350 C2346 1.368 . S
C2350 C2349 1.523 . S
H2351 C2326 0.950 . S
H2352 C2328 0.950 . S
H2353 C2329 0.949 . S
H2354 C2331 0.950 . S
H2355 C2333 0.950 . S
C2356 C2357 1.349 . S
C2356 C2358 1.327 . S
C2356 H2381 0.950 . S
C2357 C2356 1.349 . S
C2357 C2373 1.349 . S
C2358 C2356 1.327 . S
C2358 C2377 1.429 . S
C2358 H2382 0.950 . S
C2359 C2376 1.574 . S
C2359 C2378 1.368 . S
C2359 H2383 0.949 . S
H2360 C2364 0.949 . S
C2361 C2362 1.349 . S
C2361 C2363 1.327 . S
C2361 H2384 0.950 . S
C2362 C2361 1.349 . S
C2362 C2374 1.349 . S
C2363 C2361 1.327 . S
C2363 C2379 1.429 . S
C2363 H2385 0.950 . S
C2364 H2360 0.949 . S
C2364 C2372 1.574 . S
C2364 C2380 1.368 . S
H2365 C2373 0.950 . S
H2366 C2371 0.950 . S
H2367 C2372 0.949 . S
H2368 C2374 0.950 . S
H2369 C2375 0.950 . S
H2370 C2376 0.949 . S
C2371 H2366 0.950 . S
C2371 C2373 1.327 . S
C2371 C2377 1.429 . S
C2372 C2364 1.574 . S
C2372 H2367 0.949 . S
C2372 C2378 1.368 . S
C2373 C2357 1.349 . S
C2373 H2365 0.950 . S
C2373 C2371 1.327 . S
C2374 C2362 1.349 . S
C2374 H2368 0.950 . S
C2374 C2375 1.327 . S
C2375 H2369 0.950 . S
C2375 C2374 1.327 . S
C2375 C2379 1.429 . S
C2376 C2359 1.574 . S
C2376 H2370 0.949 . S
C2376 C2380 1.368 . S
C2377 C2358 1.429 . S
C2377 C2371 1.429 . S
C2377 C2378 1.523 . S
C2378 C2359 1.368 . S
C2378 C2372 1.368 . S
C2378 C2377 1.523 . S
C2379 C2363 1.429 . S
C2379 C2375 1.429 . S
C2379 C2380 1.523 . S
C2380 C2364 1.368 . S
C2380 C2376 1.368 . S
C2380 C2379 1.523 . S
H2381 C2356 0.950 . S
H2382 C2358 0.950 . S
H2383 C2359 0.949 . S
H2384 C2361 0.950 . S
H2385 C2363 0.950 . S
C2386 C2387 1.349 . S
C2386 C2388 1.327 . S
C2386 H2411 0.950 . S
C2387 C2386 1.349 . S
C2387 C2403 1.349 . S
C2388 C2386 1.327 . S
C2388 C2407 1.429 . S
C2388 H2412 0.950 . S
C2389 C2406 1.574 . S
C2389 C2408 1.368 . S
C2389 H2413 0.949 . S
H2390 C2394 0.949 . S
C2391 C2392 1.349 . S
C2391 C2393 1.327 . S
C2391 H2414 0.950 . S
C2392 C2391 1.349 . S
C2392 C2404 1.349 . S
C2393 C2391 1.327 . S
C2393 C2409 1.429 . S
C2393 H2415 0.950 . S
C2394 H2390 0.949 . S
C2394 C2402 1.574 . S
C2394 C2410 1.368 . S
H2395 C2403 0.950 . S
H2396 C2401 0.950 . S
H2397 C2402 0.949 . S
H2398 C2404 0.950 . S
H2399 C2405 0.950 . S
H2400 C2406 0.949 . S
C2401 H2396 0.950 . S
C2401 C2403 1.327 . S
C2401 C2407 1.429 . S
C2402 C2394 1.574 . S
C2402 H2397 0.949 . S
C2402 C2408 1.368 . S
C2403 C2387 1.349 . S
C2403 H2395 0.950 . S
C2403 C2401 1.327 . S
C2404 C2392 1.349 . S
C2404 H2398 0.950 . S
C2404 C2405 1.327 . S
C2405 H2399 0.950 . S
C2405 C2404 1.327 . S
C2405 C2409 1.429 . S
C2406 C2389 1.574 . S
C2406 H2400 0.949 . S
C2406 C2410 1.368 . S
C2407 C2388 1.429 . S
C2407 C2401 1.429 . S
C2407 C2408 1.523 . S
C2408 C2389 1.368 . S
C2408 C2402 1.368 . S
C2408 C2407 1.523 . S
C2409 C2393 1.429 . S
C2409 C2405 1.429 . S
C2409 C2410 1.523 . S
C2410 C2394 1.368 . S
C2410 C2406 1.368 . S
C2410 C2409 1.523 . S
H2411 C2386 0.950 . S
H2412 C2388 0.950 . S
H2413 C2389 0.949 . S
H2414 C2391 0.950 . S
H2415 C2393 0.950 . S
C2416 C2417 1.349 . S
C2416 C2418 1.327 . S
C2416 H2441 0.950 . S
C2417 C2416 1.349 . S
C2417 C2433 1.349 . S
C2418 C2416 1.327 . S
C2418 C2437 1.429 . S
C2418 H2442 0.950 . S
C2419 C2436 1.574 . S
C2419 C2438 1.368 . S
C2419 H2443 0.949 . S
H2420 C2424 0.949 . S
C2421 C2422 1.349 . S
C2421 C2423 1.327 . S
C2421 H2444 0.950 . S
C2422 C2421 1.349 . S
C2422 C2434 1.349 . S
C2423 C2421 1.327 . S
C2423 C2439 1.429 . S
C2423 H2445 0.950 . S
C2424 H2420 0.949 . S
C2424 C2432 1.574 . S
C2424 C2440 1.368 . S
H2425 C2433 0.950 . S
H2426 C2431 0.950 . S
H2427 C2432 0.949 . S
H2428 C2434 0.950 . S
H2429 C2435 0.950 . S
H2430 C2436 0.949 . S
C2431 H2426 0.950 . S
C2431 C2433 1.327 . S
C2431 C2437 1.429 . S
C2432 C2424 1.574 . S
C2432 H2427 0.949 . S
C2432 C2438 1.368 . S
C2433 C2417 1.349 . S
C2433 H2425 0.950 . S
C2433 C2431 1.327 . S
C2434 C2422 1.349 . S
C2434 H2428 0.950 . S
C2434 C2435 1.327 . S
C2435 H2429 0.950 . S
C2435 C2434 1.327 . S
C2435 C2439 1.429 . S
C2436 C2419 1.574 . S
C2436 H2430 0.949 . S
C2436 C2440 1.368 . S
C2437 C2418 1.429 . S
C2437 C2431 1.429 . S
C2437 C2438 1.523 . S
C2438 C2419 1.368 . S
C2438 C2432 1.368 . S
C2438 C2437 1.523 . S
C2439 C2423 1.429 . S
C2439 C2435 1.429 . S
C2439 C2440 1.523 . S
C2440 C2424 1.368 . S
C2440 C2436 1.368 . S
C2440 C2439 1.523 . S
H2441 C2416 0.950 . S
H2442 C2418 0.950 . S
H2443 C2419 0.949 . S
H2444 C2421 0.950 . S
H2445 C2423 0.950 . S
C2446 C2447 1.349 . S
C2446 C2448 1.327 . S
C2446 H2471 0.950 . S
C2447 C2446 1.349 . S
C2447 C2463 1.349 . S
C2448 C2446 1.327 . S
C2448 C2467 1.429 . S
C2448 H2472 0.950 . S
C2449 C2466 1.574 . S
C2449 C2468 1.368 . S
C2449 H2473 0.949 . S
H2450 C2454 0.949 . S
C2451 C2452 1.349 . S
C2451 C2453 1.327 . S
C2451 H2474 0.950 . S
C2452 C2451 1.349 . S
C2452 C2464 1.349 . S
C2453 C2451 1.327 . S
C2453 C2469 1.429 . S
C2453 H2475 0.950 . S
C2454 H2450 0.949 . S
C2454 C2462 1.574 . S
C2454 C2470 1.368 . S
H2455 C2463 0.950 . S
H2456 C2461 0.950 . S
H2457 C2462 0.949 . S
H2458 C2464 0.950 . S
H2459 C2465 0.950 . S
H2460 C2466 0.949 . S
C2461 H2456 0.950 . S
C2461 C2463 1.327 . S
C2461 C2467 1.429 . S
C2462 C2454 1.574 . S
C2462 H2457 0.949 . S
C2462 C2468 1.368 . S
C2463 C2447 1.349 . S
C2463 H2455 0.950 . S
C2463 C2461 1.327 . S
C2464 C2452 1.349 . S
C2464 H2458 0.950 . S
C2464 C2465 1.327 . S
C2465 H2459 0.950 . S
C2465 C2464 1.327 . S
C2465 C2469 1.429 . S
C2466 C2449 1.574 . S
C2466 H2460 0.949 . S
C2466 C2470 1.368 . S
C2467 C2448 1.429 . S
C2467 C2461 1.429 . S
C2467 C2468 1.523 . S
C2468 C2449 1.368 . S
C2468 C2462 1.368 . S
C2468 C2467 1.523 . S
C2469 C2453 1.429 . S
C2469 C2465 1.429 . S
C2469 C2470 1.523 . S
C2470 C2454 1.368 . S
C2470 C2466 1.368 . S
C2470 C2469 1.523 . S
H2471 C2446 0.950 . S
H2472 C2448 0.950 . S
H2473 C2449 0.949 . S
H2474 C2451 0.950 . S
H2475 C2453 0.950 . S
C2476 C2477 1.349 . S
C2476 C2478 1.327 . S
C2476 H2501 0.950 . S
C2477 C2476 1.349 . S
C2477 C2493 1.349 . S
C2478 C2476 1.327 . S
C2478 C2497 1.429 . S
C2478 H2502 0.950 . S
C2479 C2496 1.591 . S
C2479 C2498 1.368 . S
C2479 H2503 0.949 . S
H2480 C2484 0.949 . S
C2481 C2482 1.349 . S
C2481 C2483 1.327 . S
C2481 H2504 0.950 . S
C2482 C2481 1.349 . S
C2482 C2494 1.349 . S
C2483 C2481 1.327 . S
C2483 C2499 1.429 . S
C2483 H2505 0.950 . S
C2484 H2480 0.949 . S
C2484 C2492 1.574 . S
C2484 C2500 1.368 . S
H2485 C2493 0.950 . S
H2486 C2491 0.950 . S
H2487 C2492 0.949 . S
H2488 C2494 0.944 1_556 S
H2489 C2495 0.950 . S
H2490 C2496 0.915 1_554 S
C2491 H2486 0.950 . S
C2491 C2493 1.327 . S
C2491 C2497 1.429 . S
C2492 C2484 1.574 . S
C2492 H2487 0.949 . S
C2492 C2498 1.368 . S
C2493 C2477 1.349 . S
C2493 H2485 0.950 . S
C2493 C2491 1.327 . S
C2494 C2482 1.349 . S
C2494 H2488 0.944 1_554 S
C2494 C2495 1.327 1_554 S
C2495 H2489 0.950 . S
C2495 C2494 1.327 1_556 S
C2495 C2499 1.429 1_556 S
C2496 C2479 1.591 . S
C2496 H2490 0.915 1_556 S
C2496 C2500 1.390 . S
C2497 C2478 1.429 . S
C2497 C2491 1.429 . S
C2497 C2498 1.523 . S
C2498 C2479 1.368 . S
C2498 C2492 1.368 . S
C2498 C2497 1.523 . S
C2499 C2483 1.429 . S
C2499 C2495 1.429 1_554 S
C2499 C2500 1.523 1_554 S
C2500 C2484 1.368 . S
C2500 C2496 1.390 . S
C2500 C2499 1.523 1_556 S
H2501 C2476 0.950 . S
H2502 C2478 0.950 . S
H2503 C2479 0.949 . S
H2504 C2481 0.950 . S
H2505 C2483 0.950 . S
C2506 C2507 1.349 . S
C2506 C2508 1.327 . S
C2506 H2531 0.950 . S
C2507 C2506 1.349 . S
C2507 C2523 1.349 . S
C2508 C2506 1.327 . S
C2508 C2527 1.429 . S
C2508 H2532 0.950 . S
C2509 C2526 1.574 . S
C2509 C2528 1.368 . S
C2509 H2533 0.949 . S
H2510 C2514 0.949 . S
C2511 C2512 1.349 . S
C2511 C2513 1.327 . S
C2511 H2534 0.950 . S
C2512 C2511 1.349 . S
C2512 C2524 1.349 . S
C2513 C2511 1.327 . S
C2513 C2529 1.429 . S
C2513 H2535 0.950 . S
C2514 H2510 0.949 . S
C2514 C2522 1.574 . S
C2514 C2530 1.368 . S
H2515 C2523 0.950 . S
H2516 C2521 0.950 . S
H2517 C2522 0.949 . S
H2518 C2524 0.950 . S
H2519 C2525 0.950 . S
H2520 C2526 0.949 . S
C2521 H2516 0.950 . S
C2521 C2523 1.327 . S
C2521 C2527 1.429 . S
C2522 C2514 1.574 . S
C2522 H2517 0.949 . S
C2522 C2528 1.368 . S
C2523 C2507 1.349 . S
C2523 H2515 0.950 . S
C2523 C2521 1.327 . S
C2524 C2512 1.349 . S
C2524 H2518 0.950 . S
C2524 C2525 1.327 . S
C2525 H2519 0.950 . S
C2525 C2524 1.327 . S
C2525 C2529 1.429 . S
C2526 C2509 1.574 . S
C2526 H2520 0.949 . S
C2526 C2530 1.368 . S
C2527 C2508 1.429 . S
C2527 C2521 1.429 . S
C2527 C2528 1.523 . S
C2528 C2509 1.368 . S
C2528 C2522 1.368 . S
C2528 C2527 1.523 . S
C2529 C2513 1.429 . S
C2529 C2525 1.429 . S
C2529 C2530 1.523 . S
C2530 C2514 1.368 . S
C2530 C2526 1.368 . S
C2530 C2529 1.523 . S
H2531 C2506 0.950 . S
H2532 C2508 0.950 . S
H2533 C2509 0.949 . S
H2534 C2511 0.950 . S
H2535 C2513 0.950 . S
C2536 C2537 1.349 . S
C2536 C2538 1.327 . S
C2536 H2561 0.950 . S
C2537 C2536 1.349 . S
C2537 C2553 1.349 . S
C2538 C2536 1.327 . S
C2538 C2557 1.429 . S
C2538 H2562 0.950 . S
C2539 C2556 1.574 . S
C2539 C2558 1.368 . S
C2539 H2563 0.949 . S
H2540 C2544 0.949 . S
C2541 C2542 1.349 . S
C2541 C2543 1.327 . S
C2541 H2564 0.950 . S
C2542 C2541 1.349 . S
C2542 C2554 1.349 . S
C2543 C2541 1.327 . S
C2543 C2559 1.429 . S
C2543 H2565 0.950 . S
C2544 H2540 0.949 . S
C2544 C2552 1.574 . S
C2544 C2560 1.368 . S
H2545 C2553 0.950 . S
H2546 C2551 0.950 . S
H2547 C2552 0.949 . S
H2548 C2554 0.950 . S
H2549 C2555 0.950 . S
H2550 C2556 0.949 . S
C2551 H2546 0.950 . S
C2551 C2553 1.327 . S
C2551 C2557 1.429 . S
C2552 C2544 1.574 . S
C2552 H2547 0.949 . S
C2552 C2558 1.368 . S
C2553 C2537 1.349 . S
C2553 H2545 0.950 . S
C2553 C2551 1.327 . S
C2554 C2542 1.349 . S
C2554 H2548 0.950 . S
C2554 C2555 1.327 . S
C2555 H2549 0.950 . S
C2555 C2554 1.327 . S
C2555 C2559 1.429 . S
C2556 C2539 1.574 . S
C2556 H2550 0.949 . S
C2556 C2560 1.368 . S
C2557 C2538 1.429 . S
C2557 C2551 1.429 . S
C2557 C2558 1.523 . S
C2558 C2539 1.368 . S
C2558 C2552 1.368 . S
C2558 C2557 1.523 . S
C2559 C2543 1.429 . S
C2559 C2555 1.429 . S
C2559 C2560 1.523 . S
C2560 C2544 1.368 . S
C2560 C2556 1.368 . S
C2560 C2559 1.523 . S
H2561 C2536 0.950 . S
H2562 C2538 0.950 . S
H2563 C2539 0.949 . S
H2564 C2541 0.950 . S
H2565 C2543 0.950 . S
C2566 C2567 1.331 1_655 S
C2566 C2568 1.349 . S
C2566 H2591 0.946 1_655 S
C2567 C2566 1.331 1_455 S
C2567 C2583 1.349 . S
C2568 C2566 1.349 . S
C2568 C2587 1.429 . S
C2568 H2592 0.950 . S
C2569 C2586 1.574 . S
C2569 C2588 1.368 . S
C2569 H2593 0.949 . S
H2570 C2574 0.949 . S
C2571 C2572 1.349 . S
C2571 C2573 1.327 . S
C2571 H2594 0.950 . S
C2572 C2571 1.349 . S
C2572 C2584 1.349 . S
C2573 C2571 1.327 . S
C2573 C2589 1.429 . S
C2573 H2595 0.950 . S
C2574 H2570 0.949 . S
C2574 C2582 1.574 . S
C2574 C2590 1.368 . S
H2575 C2583 0.950 . S
H2576 C2581 0.950 . S
H2577 C2582 0.949 . S
H2578 C2584 0.950 . S
H2579 C2585 0.950 . S
H2580 C2586 0.949 . S
C2581 H2576 0.950 . S
C2581 C2583 1.327 1_655 S
C2581 C2587 1.429 . S
C2582 C2574 1.574 . S
C2582 H2577 0.949 . S
C2582 C2588 1.368 . S
C2583 C2567 1.349 . S
C2583 H2575 0.950 . S
C2583 C2581 1.327 1_455 S
C2584 C2572 1.349 . S
C2584 H2578 0.950 . S
C2584 C2585 1.327 . S
C2585 H2579 0.950 . S
C2585 C2584 1.327 . S
C2585 C2589 1.429 . S
C2586 C2569 1.574 . S
C2586 H2580 0.949 . S
C2586 C2590 1.368 . S
C2587 C2568 1.429 . S
C2587 C2581 1.429 . S
C2587 C2588 1.523 . S
C2588 C2569 1.368 . S
C2588 C2582 1.368 . S
C2588 C2587 1.523 . S
C2589 C2573 1.429 . S
C2589 C2585 1.429 . S
C2589 C2590 1.523 . S
C2590 C2574 1.368 . S
C2590 C2586 1.368 . S
C2590 C2589 1.523 . S
H2591 C2566 0.946 1_455 S
H2592 C2568 0.950 . S
H2593 C2569 0.949 . S
H2594 C2571 0.950 . S
H2595 C2573 0.950 . S
C2596 C2597 1.349 . S
C2596 C2598 1.323 1_655 S
C2596 H2621 0.953 . S
C2597 C2596 1.349 . S
C2597 C2613 1.349 . S
C2598 C2596 1.323 1_455 S
C2598 C2617 1.428 1_455 S
C2598 H2622 0.954 . S
C2599 C2616 1.560 1_655 S
C2599 C2618 1.364 1_655 S
C2599 H2623 0.949 . S
H2600 C2604 0.949 . S
C2601 C2602 1.349 . S
C2601 C2603 1.327 . S
C2601 H2624 0.950 . S
C2602 C2601 1.349 . S
C2602 C2614 1.349 . S
C2603 C2601 1.327 . S
C2603 C2619 1.429 . S
C2603 H2625 0.950 . S
C2604 H2600 0.949 . S
C2604 C2612 1.574 . S
C2604 C2620 1.368 . S
H2605 C2613 0.950 . S
H2606 C2611 0.950 . S
H2607 C2612 0.949 . S
H2608 C2614 0.950 . S
H2609 C2615 0.950 . S
H2610 C2616 0.949 1_655 S
C2611 H2606 0.950 . S
C2611 C2613 1.327 . S
C2611 C2617 1.429 . S
C2612 C2604 1.574 . S
C2612 H2607 0.949 . S
C2612 C2618 1.388 . S
C2613 C2597 1.349 . S
C2613 H2605 0.950 . S
C2613 C2611 1.327 . S
C2614 C2602 1.349 . S
C2614 H2608 0.950 . S
C2614 C2615 1.327 . S
C2615 H2609 0.950 . S
C2615 C2614 1.327 . S
C2615 C2619 1.429 . S
C2616 C2599 1.560 1_455 S
C2616 H2610 0.949 1_455 S
C2616 C2620 1.383 . S
C2617 C2598 1.428 1_655 S
C2617 C2611 1.429 . S
C2617 C2618 1.506 1_655 S
C2618 C2599 1.364 1_455 S
C2618 C2612 1.388 . S
C2618 C2617 1.506 1_455 S
C2619 C2603 1.429 . S
C2619 C2615 1.429 . S
C2619 C2620 1.523 . S
C2620 C2604 1.368 . S
C2620 C2616 1.383 . S
C2620 C2619 1.523 . S
H2621 C2596 0.953 . S
H2622 C2598 0.954 . S
H2623 C2599 0.949 . S
H2624 C2601 0.950 . S
H2625 C2603 0.950 . S
C2626 C2627 1.349 . S
C2626 C2628 1.327 . S
C2626 H2651 0.950 . S
C2627 C2626 1.349 . S
C2627 C2643 1.349 . S
C2628 C2626 1.327 . S
C2628 C2647 1.429 . S
C2628 H2652 0.950 . S
C2629 C2646 1.574 . S
C2629 C2648 1.368 . S
C2629 H2653 0.949 . S
H2630 C2634 0.949 . S
C2631 C2632 1.349 . S
C2631 C2633 1.327 . S
C2631 H2654 0.950 . S
C2632 C2631 1.349 . S
C2632 C2644 1.349 . S
C2633 C2631 1.327 . S
C2633 C2649 1.429 . S
C2633 H2655 0.950 . S
C2634 H2630 0.949 . S
C2634 C2642 1.574 . S
C2634 C2650 1.368 . S
H2635 C2643 0.950 . S
H2636 C2641 0.950 . S
H2637 C2642 0.949 . S
H2638 C2644 0.950 . S
H2639 C2645 0.950 . S
H2640 C2646 0.949 . S
C2641 H2636 0.950 . S
C2641 C2643 1.327 . S
C2641 C2647 1.429 . S
C2642 C2634 1.574 . S
C2642 H2637 0.949 . S
C2642 C2648 1.368 . S
C2643 C2627 1.349 . S
C2643 H2635 0.950 . S
C2643 C2641 1.327 . S
C2644 C2632 1.349 . S
C2644 H2638 0.950 . S
C2644 C2645 1.327 . S
C2645 H2639 0.950 . S
C2645 C2644 1.327 . S
C2645 C2649 1.429 . S
C2646 C2629 1.574 . S
C2646 H2640 0.949 . S
C2646 C2650 1.368 . S
C2647 C2628 1.429 . S
C2647 C2641 1.429 . S
C2647 C2648 1.523 . S
C2648 C2629 1.368 . S
C2648 C2642 1.368 . S
C2648 C2647 1.523 . S
C2649 C2633 1.429 . S
C2649 C2645 1.429 . S
C2649 C2650 1.523 . S
C2650 C2634 1.368 . S
C2650 C2646 1.368 . S
C2650 C2649 1.523 . S
H2651 C2626 0.950 . S
H2652 C2628 0.950 . S
H2653 C2629 0.949 . S
H2654 C2631 0.950 . S
H2655 C2633 0.950 . S
C2656 C2657 1.349 . S
C2656 C2658 1.327 . S
C2656 H2681 0.950 . S
C2657 C2656 1.349 . S
C2657 C2673 1.349 . S
C2658 C2656 1.327 . S
C2658 C2677 1.429 . S
C2658 H2682 0.950 . S
C2659 C2676 1.574 . S
C2659 C2678 1.368 . S
C2659 H2683 0.949 . S
H2660 C2664 0.949 . S
C2661 C2662 1.349 . S
C2661 C2663 1.327 . S
C2661 H2684 0.950 . S
C2662 C2661 1.349 . S
C2662 C2674 1.349 . S
C2663 C2661 1.327 . S
C2663 C2679 1.429 . S
C2663 H2685 0.950 . S
C2664 H2660 0.949 . S
C2664 C2672 1.574 . S
C2664 C2680 1.368 . S
H2665 C2673 0.950 . S
H2666 C2671 0.950 . S
H2667 C2672 0.949 . S
H2668 C2674 0.950 . S
H2669 C2675 0.950 . S
H2670 C2676 0.949 . S
C2671 H2666 0.950 . S
C2671 C2673 1.327 . S
C2671 C2677 1.429 . S
C2672 C2664 1.574 . S
C2672 H2667 0.949 . S
C2672 C2678 1.368 . S
C2673 C2657 1.349 . S
C2673 H2665 0.950 . S
C2673 C2671 1.327 . S
C2674 C2662 1.349 . S
C2674 H2668 0.950 . S
C2674 C2675 1.327 . S
C2675 H2669 0.950 . S
C2675 C2674 1.327 . S
C2675 C2679 1.429 . S
C2676 C2659 1.574 . S
C2676 H2670 0.949 . S
C2676 C2680 1.368 . S
C2677 C2658 1.429 . S
C2677 C2671 1.429 . S
C2677 C2678 1.523 . S
C2678 C2659 1.368 . S
C2678 C2672 1.368 . S
C2678 C2677 1.523 . S
C2679 C2663 1.429 . S
C2679 C2675 1.429 . S
C2679 C2680 1.523 . S
C2680 C2664 1.368 . S
C2680 C2676 1.368 . S
C2680 C2679 1.523 . S
H2681 C2656 0.950 . S
H2682 C2658 0.950 . S
H2683 C2659 0.949 . S
H2684 C2661 0.950 . S
H2685 C2663 0.950 . S
C2686 C2687 1.349 . S
C2686 C2688 1.327 . S
C2686 H2711 0.950 . S
C2687 C2686 1.349 . S
C2687 C2703 1.349 . S
C2688 C2686 1.327 . S
C2688 C2707 1.429 . S
C2688 H2712 0.950 . S
C2689 C2706 1.574 . S
C2689 C2708 1.368 . S
C2689 H2713 0.949 . S
H2690 C2694 0.949 . S
C2691 C2692 1.349 . S
C2691 C2693 1.327 . S
C2691 H2714 0.950 . S
C2692 C2691 1.349 . S
C2692 C2704 1.349 . S
C2693 C2691 1.327 . S
C2693 C2709 1.429 . S
C2693 H2715 0.950 . S
C2694 H2690 0.949 . S
C2694 C2702 1.574 . S
C2694 C2710 1.368 . S
H2695 C2703 0.982 . S
H2696 C2701 0.950 . S
H2697 C2702 0.949 . S
H2698 C2704 0.950 . S
H2699 C2705 0.950 . S
H2700 C2706 0.949 . S
C2701 H2696 0.950 . S
C2701 C2703 1.327 . S
C2701 C2707 1.429 . S
C2702 C2694 1.574 . S
C2702 H2697 0.949 . S
C2702 C2708 1.368 . S
C2703 C2687 1.349 . S
C2703 H2695 0.982 . S
C2703 C2701 1.327 . S
C2704 C2692 1.349 . S
C2704 H2698 0.950 . S
C2704 C2705 1.327 . S
C2705 H2699 0.950 . S
C2705 C2704 1.327 . S
C2705 C2709 1.429 . S
C2706 C2689 1.574 . S
C2706 H2700 0.949 . S
C2706 C2710 1.368 . S
C2707 C2688 1.429 . S
C2707 C2701 1.429 . S
C2707 C2708 1.523 . S
C2708 C2689 1.368 . S
C2708 C2702 1.368 . S
C2708 C2707 1.523 . S
C2709 C2693 1.429 . S
C2709 C2705 1.429 . S
C2709 C2710 1.523 . S
C2710 C2694 1.368 . S
C2710 C2706 1.368 . S
C2710 C2709 1.523 . S
H2711 C2686 0.950 . S
H2712 C2688 0.950 . S
H2713 C2689 0.949 . S
H2714 C2691 0.950 . S
H2715 C2693 0.950 . S
C2716 C2717 1.349 . S
C2716 C2718 1.327 . S
C2716 H2741 0.950 . S
C2717 C2716 1.349 . S
C2717 C2733 1.349 . S
C2718 C2716 1.327 . S
C2718 C2737 1.429 . S
C2718 H2742 0.950 . S
C2719 C2736 1.574 . S
C2719 C2738 1.368 . S
C2719 H2743 0.949 . S
H2720 C2724 0.949 . S
C2721 C2722 1.349 . S
C2721 C2723 1.327 . S
C2721 H2744 0.950 . S
C2722 C2721 1.349 . S
C2722 C2734 1.349 . S
C2723 C2721 1.327 . S
C2723 C2739 1.429 . S
C2723 H2745 0.950 . S
C2724 H2720 0.949 . S
C2724 C2732 1.574 . S
C2724 C2740 1.368 . S
H2725 C2733 0.950 . S
H2726 C2731 0.950 . S
H2727 C2732 0.949 . S
H2728 C2734 0.950 . S
H2729 C2735 0.950 . S
H2730 C2736 0.949 . S
C2731 H2726 0.950 . S
C2731 C2733 1.327 . S
C2731 C2737 1.429 . S
C2732 C2724 1.574 . S
C2732 H2727 0.949 . S
C2732 C2738 1.368 . S
C2733 C2717 1.349 . S
C2733 H2725 0.950 . S
C2733 C2731 1.327 . S
C2734 C2722 1.349 . S
C2734 H2728 0.950 . S
C2734 C2735 1.327 . S
C2735 H2729 0.950 . S
C2735 C2734 1.327 . S
C2735 C2739 1.429 . S
C2736 C2719 1.574 . S
C2736 H2730 0.949 . S
C2736 C2740 1.368 . S
C2737 C2718 1.429 . S
C2737 C2731 1.429 . S
C2737 C2738 1.523 . S
C2738 C2719 1.368 . S
C2738 C2732 1.368 . S
C2738 C2737 1.523 . S
C2739 C2723 1.429 . S
C2739 C2735 1.429 . S
C2739 C2740 1.523 . S
C2740 C2724 1.368 . S
C2740 C2736 1.368 . S
C2740 C2739 1.523 . S
H2741 C2716 0.950 . S
H2742 C2718 0.950 . S
H2743 C2719 0.949 . S
H2744 C2721 0.950 . S
H2745 C2723 0.950 . S
C2746 C2747 1.349 . S
C2746 C2748 1.327 . S
C2746 H2771 0.950 . S
C2747 C2746 1.349 . S
C2747 C2763 1.349 . S
C2748 C2746 1.327 . S
C2748 C2767 1.429 . S
C2748 H2772 0.950 . S
C2749 C2766 1.574 . S
C2749 C2768 1.368 . S
C2749 H2773 0.949 . S
H2750 C2754 0.949 . S
C2751 C2752 1.349 . S
C2751 C2753 1.327 . S
C2751 H2774 0.950 . S
C2752 C2751 1.349 . S
C2752 C2764 1.349 . S
C2753 C2751 1.327 . S
C2753 C2769 1.429 . S
C2753 H2775 0.950 . S
C2754 H2750 0.949 . S
C2754 C2762 1.574 . S
C2754 C2770 1.368 . S
H2755 C2763 0.950 . S
H2756 C2761 0.950 . S
H2757 C2762 0.949 . S
H2758 C2764 0.950 . S
H2759 C2765 0.950 . S
H2760 C2766 0.949 . S
C2761 H2756 0.950 . S
C2761 C2763 1.327 . S
C2761 C2767 1.429 . S
C2762 C2754 1.574 . S
C2762 H2757 0.949 . S
C2762 C2768 1.368 . S
C2763 C2747 1.349 . S
C2763 H2755 0.950 . S
C2763 C2761 1.327 . S
C2764 C2752 1.349 . S
C2764 H2758 0.950 . S
C2764 C2765 1.327 . S
C2765 H2759 0.950 . S
C2765 C2764 1.327 . S
C2765 C2769 1.429 . S
C2766 C2749 1.574 . S
C2766 H2760 0.949 . S
C2766 C2770 1.368 . S
C2767 C2748 1.429 . S
C2767 C2761 1.429 . S
C2767 C2768 1.523 . S
C2768 C2749 1.368 . S
C2768 C2762 1.368 . S
C2768 C2767 1.523 . S
C2769 C2753 1.429 . S
C2769 C2765 1.429 . S
C2769 C2770 1.523 . S
C2770 C2754 1.368 . S
C2770 C2766 1.368 . S
C2770 C2769 1.523 . S
H2771 C2746 0.950 . S
H2772 C2748 0.950 . S
H2773 C2749 0.949 . S
H2774 C2751 0.950 . S
H2775 C2753 0.950 . S
C2776 C2777 1.349 . S
C2776 C2778 1.327 . S
C2776 H2801 0.950 . S
C2777 C2776 1.349 . S
C2777 C2793 1.349 . S
C2778 C2776 1.327 . S
C2778 C2797 1.429 . S
C2778 H2802 0.950 . S
C2779 C2796 1.574 . S
C2779 C2798 1.368 . S
C2779 H2803 0.949 . S
H2780 C2784 0.949 . S
C2781 C2782 1.349 . S
C2781 C2783 1.327 . S
C2781 H2804 0.950 1_556 S
C2782 C2781 1.349 . S
C2782 C2794 1.349 . S
C2783 C2781 1.327 . S
C2783 C2799 1.429 . S
C2783 H2805 0.950 . S
C2784 H2780 0.949 . S
C2784 C2792 1.574 . S
C2784 C2800 1.368 . S
H2785 C2793 0.950 . S
H2786 C2791 0.950 . S
H2787 C2792 0.949 . S
H2788 C2794 0.950 . S
H2789 C2795 0.950 . S
H2790 C2796 0.949 . S
C2791 H2786 0.950 . S
C2791 C2793 1.327 . S
C2791 C2797 1.429 . S
C2792 C2784 1.574 . S
C2792 H2787 0.949 . S
C2792 C2798 1.368 . S
C2793 C2777 1.349 . S
C2793 H2785 0.950 . S
C2793 C2791 1.327 . S
C2794 C2782 1.349 . S
C2794 H2788 0.950 . S
C2794 C2795 1.327 . S
C2795 H2789 0.950 . S
C2795 C2794 1.327 . S
C2795 C2799 1.429 . S
C2796 C2779 1.574 . S
C2796 H2790 0.949 . S
C2796 C2800 1.368 . S
C2797 C2778 1.429 . S
C2797 C2791 1.429 . S
C2797 C2798 1.523 . S
C2798 C2779 1.368 . S
C2798 C2792 1.368 . S
C2798 C2797 1.523 . S
C2799 C2783 1.429 . S
C2799 C2795 1.429 . S
C2799 C2800 1.523 . S
C2800 C2784 1.368 . S
C2800 C2796 1.368 . S
C2800 C2799 1.523 . S
H2801 C2776 0.950 . S
H2802 C2778 0.950 . S
H2803 C2779 0.949 . S
H2804 C2781 0.950 1_554 S
H2805 C2783 0.950 . S
C2806 C2807 1.349 . S
C2806 C2808 1.327 . S
C2806 H2831 0.950 . S
C2807 C2806 1.349 . S
C2807 C2823 1.349 . S
C2808 C2806 1.327 . S
C2808 C2827 1.429 . S
C2808 H2832 0.950 . S
C2809 C2826 1.574 . S
C2809 C2828 1.368 . S
C2809 H2833 0.949 . S
H2810 C2814 0.949 . S
C2811 C2812 1.349 . S
C2811 C2813 1.327 . S
C2811 H2834 0.950 . S
C2812 C2811 1.349 . S
C2812 C2824 1.349 . S
C2813 C2811 1.327 . S
C2813 C2829 1.429 . S
C2813 H2835 0.950 . S
C2814 H2810 0.949 . S
C2814 C2822 1.574 . S
C2814 C2830 1.368 . S
H2815 C2823 0.950 . S
H2816 C2821 0.950 . S
H2817 C2822 0.949 . S
H2818 C2824 0.950 . S
H2819 C2825 0.950 . S
H2820 C2826 0.949 . S
C2821 H2816 0.950 . S
C2821 C2823 1.327 . S
C2821 C2827 1.429 . S
C2822 C2814 1.574 . S
C2822 H2817 0.949 . S
C2822 C2828 1.368 . S
C2823 C2807 1.349 . S
C2823 H2815 0.950 . S
C2823 C2821 1.327 . S
C2824 C2812 1.349 . S
C2824 H2818 0.950 . S
C2824 C2825 1.327 . S
C2825 H2819 0.950 . S
C2825 C2824 1.327 . S
C2825 C2829 1.429 . S
C2826 C2809 1.574 . S
C2826 H2820 0.949 . S
C2826 C2830 1.368 . S
C2827 C2808 1.429 . S
C2827 C2821 1.429 . S
C2827 C2828 1.523 . S
C2828 C2809 1.368 . S
C2828 C2822 1.368 . S
C2828 C2827 1.523 . S
C2829 C2813 1.429 . S
C2829 C2825 1.429 . S
C2829 C2830 1.523 . S
C2830 C2814 1.368 . S
C2830 C2826 1.368 . S
C2830 C2829 1.523 . S
H2831 C2806 0.950 . S
H2832 C2808 0.950 . S
H2833 C2809 0.949 . S
H2834 C2811 0.950 . S
H2835 C2813 0.950 . S
C2836 C2837 1.349 . S
C2836 C2838 1.327 . S
C2836 H2861 0.950 . S
C2837 C2836 1.349 . S
C2837 C2853 1.349 . S
C2838 C2836 1.327 . S
C2838 C2857 1.429 . S
C2838 H2862 0.950 . S
C2839 C2856 1.574 . S
C2839 C2858 1.368 . S
C2839 H2863 0.949 . S
H2840 C2844 0.949 . S
C2841 C2842 1.349 . S
C2841 C2843 1.327 . S
C2841 H2864 0.950 . S
C2842 C2841 1.349 . S
C2842 C2854 1.349 . S
C2843 C2841 1.327 . S
C2843 C2859 1.429 . S
C2843 H2865 0.950 . S
C2844 H2840 0.949 . S
C2844 C2852 1.574 . S
C2844 C2860 1.368 . S
H2845 C2853 0.950 . S
H2846 C2851 0.950 . S
H2847 C2852 0.949 . S
H2848 C2854 0.950 . S
H2849 C2855 0.950 . S
H2850 C2856 0.949 . S
C2851 H2846 0.950 . S
C2851 C2853 1.327 . S
C2851 C2857 1.429 . S
C2852 C2844 1.574 . S
C2852 H2847 0.949 . S
C2852 C2858 1.368 . S
C2853 C2837 1.349 . S
C2853 H2845 0.950 . S
C2853 C2851 1.327 . S
C2854 C2842 1.349 . S
C2854 H2848 0.950 . S
C2854 C2855 1.327 . S
C2855 H2849 0.950 . S
C2855 C2854 1.327 . S
C2855 C2859 1.429 . S
C2856 C2839 1.574 . S
C2856 H2850 0.949 . S
C2856 C2860 1.368 . S
C2857 C2838 1.429 . S
C2857 C2851 1.429 . S
C2857 C2858 1.523 . S
C2858 C2839 1.368 . S
C2858 C2852 1.368 . S
C2858 C2857 1.523 . S
C2859 C2843 1.429 . S
C2859 C2855 1.429 . S
C2859 C2860 1.523 . S
C2860 C2844 1.368 . S
C2860 C2856 1.368 . S
C2860 C2859 1.523 . S
H2861 C2836 0.950 . S
H2862 C2838 0.950 . S
H2863 C2839 0.949 . S
H2864 C2841 0.950 . S
H2865 C2843 0.950 . S
C2866 C2867 1.349 . S
C2866 C2868 1.327 . S
C2866 H2891 0.950 . S
C2867 C2866 1.349 . S
C2867 C2883 1.349 . S
C2868 C2866 1.327 . S
C2868 C2887 1.429 . S
C2868 H2892 0.950 . S
C2869 C2886 1.574 . S
C2869 C2888 1.368 . S
C2869 H2893 0.949 . S
H2870 C2874 0.949 . S
C2871 C2872 1.349 . S
C2871 C2873 1.327 . S
C2871 H2894 0.950 . S
C2872 C2871 1.349 . S
C2872 C2884 1.349 . S
C2873 C2871 1.327 . S
C2873 C2889 1.429 . S
C2873 H2895 0.950 . S
C2874 H2870 0.949 . S
C2874 C2882 1.574 . S
C2874 C2890 1.368 . S
H2875 C2883 0.950 . S
H2876 C2881 0.950 . S
H2877 C2882 0.949 . S
H2878 C2884 0.950 . S
H2879 C2885 0.950 . S
H2880 C2886 0.949 . S
C2881 H2876 0.950 . S
C2881 C2883 1.327 . S
C2881 C2887 1.429 . S
C2882 C2874 1.574 . S
C2882 H2877 0.949 . S
C2882 C2888 1.368 . S
C2883 C2867 1.349 . S
C2883 H2875 0.950 . S
C2883 C2881 1.327 . S
C2884 C2872 1.349 . S
C2884 H2878 0.950 . S
C2884 C2885 1.327 . S
C2885 H2879 0.950 . S
C2885 C2884 1.327 . S
C2885 C2889 1.429 . S
C2886 C2869 1.574 . S
C2886 H2880 0.949 . S
C2886 C2890 1.368 . S
C2887 C2868 1.429 . S
C2887 C2881 1.429 . S
C2887 C2888 1.523 . S
C2888 C2869 1.368 . S
C2888 C2882 1.368 . S
C2888 C2887 1.523 . S
C2889 C2873 1.429 . S
C2889 C2885 1.429 . S
C2889 C2890 1.523 . S
C2890 C2874 1.368 . S
C2890 C2886 1.368 . S
C2890 C2889 1.523 . S
H2891 C2866 0.950 . S
H2892 C2868 0.950 . S
H2893 C2869 0.949 . S
H2894 C2871 0.950 . S
H2895 C2873 0.950 . S
C2896 C2897 1.349 . S
C2896 C2898 1.327 . S
C2896 H2921 0.950 . S
C2897 C2896 1.349 . S
C2897 C2913 1.349 . S
C2898 C2896 1.327 . S
C2898 C2917 1.429 . S
C2898 H2922 0.950 . S
C2899 C2916 1.574 . S
C2899 C2918 1.368 . S
C2899 H2923 0.949 . S
H2900 C2904 0.949 . S
C2901 C2902 1.349 . S
C2901 C2903 1.327 . S
C2901 H2924 0.950 . S
C2902 C2901 1.349 . S
C2902 C2914 1.349 . S
C2903 C2901 1.327 . S
C2903 C2919 1.429 . S
C2903 H2925 0.950 . S
C2904 H2900 0.949 . S
C2904 C2912 1.574 . S
C2904 C2920 1.368 . S
H2905 C2913 0.950 . S
H2906 C2911 0.950 . S
H2907 C2912 0.949 . S
H2908 C2914 0.950 . S
H2909 C2915 0.950 . S
H2910 C2916 0.949 . S
C2911 H2906 0.950 . S
C2911 C2913 1.327 . S
C2911 C2917 1.429 . S
C2912 C2904 1.574 . S
C2912 H2907 0.949 . S
C2912 C2918 1.368 . S
C2913 C2897 1.349 . S
C2913 H2905 0.950 . S
C2913 C2911 1.327 . S
C2914 C2902 1.349 . S
C2914 H2908 0.950 . S
C2914 C2915 1.327 . S
C2915 H2909 0.950 . S
C2915 C2914 1.327 . S
C2915 C2919 1.429 . S
C2916 C2899 1.574 . S
C2916 H2910 0.949 . S
C2916 C2920 1.368 . S
C2917 C2898 1.429 . S
C2917 C2911 1.429 . S
C2917 C2918 1.523 . S
C2918 C2899 1.368 . S
C2918 C2912 1.368 . S
C2918 C2917 1.523 . S
C2919 C2903 1.429 . S
C2919 C2915 1.429 . S
C2919 C2920 1.523 . S
C2920 C2904 1.368 . S
C2920 C2916 1.368 . S
C2920 C2919 1.523 . S
H2921 C2896 0.950 . S
H2922 C2898 0.950 . S
H2923 C2899 0.949 . S
H2924 C2901 0.950 . S
H2925 C2903 0.950 . S
C2926 C2927 1.349 . S
C2926 C2928 1.327 . S
C2926 H2951 0.950 . S
C2927 C2926 1.349 . S
C2927 C2943 1.349 . S
C2928 C2926 1.327 . S
C2928 C2947 1.429 . S
C2928 H2952 0.950 . S
C2929 C2946 1.574 . S
C2929 C2948 1.368 . S
C2929 H2953 0.949 . S
H2930 C2934 0.949 . S
C2931 C2932 1.349 . S
C2931 C2933 1.327 . S
C2931 H2954 0.950 . S
C2932 C2931 1.349 . S
C2932 C2944 1.349 . S
C2933 C2931 1.327 . S
C2933 C2949 1.429 . S
C2933 H2955 0.950 . S
C2934 H2930 0.949 . S
C2934 C2942 1.574 . S
C2934 C2950 1.368 . S
H2935 C2943 0.950 . S
H2936 C2941 0.950 . S
H2937 C2942 0.949 . S
H2938 C2944 0.950 . S
H2939 C2945 0.950 . S
H2940 C2946 0.949 . S
C2941 H2936 0.950 . S
C2941 C2943 1.327 . S
C2941 C2947 1.429 . S
C2942 C2934 1.574 . S
C2942 H2937 0.949 . S
C2942 C2948 1.368 . S
C2943 C2927 1.349 . S
C2943 H2935 0.950 . S
C2943 C2941 1.327 . S
C2944 C2932 1.349 . S
C2944 H2938 0.950 . S
C2944 C2945 1.327 . S
C2945 H2939 0.950 . S
C2945 C2944 1.327 . S
C2945 C2949 1.429 . S
C2946 C2929 1.574 . S
C2946 H2940 0.949 . S
C2946 C2950 1.368 . S
C2947 C2928 1.429 . S
C2947 C2941 1.429 . S
C2947 C2948 1.523 . S
C2948 C2929 1.368 . S
C2948 C2942 1.368 . S
C2948 C2947 1.523 . S
C2949 C2933 1.429 . S
C2949 C2945 1.429 . S
C2949 C2950 1.523 . S
C2950 C2934 1.368 . S
C2950 C2946 1.368 . S
C2950 C2949 1.523 . S
H2951 C2926 0.950 . S
H2952 C2928 0.950 . S
H2953 C2929 0.949 . S
H2954 C2931 0.950 . S
H2955 C2933 0.950 . S
C2956 C2957 1.349 . S
C2956 C2958 1.327 . S
C2956 H2981 0.950 . S
C2957 C2956 1.349 . S
C2957 C2973 1.349 . S
C2958 C2956 1.327 . S
C2958 C2977 1.429 . S
C2958 H2982 0.950 . S
C2959 C2976 1.574 . S
C2959 C2978 1.368 . S
C2959 H2983 0.949 . S
H2960 C2964 0.949 . S
C2961 C2962 1.349 . S
C2961 C2963 1.327 . S
C2961 H2984 0.950 . S
C2962 C2961 1.349 . S
C2962 C2974 1.349 . S
C2963 C2961 1.327 . S
C2963 C2979 1.429 . S
C2963 H2985 0.950 . S
C2964 H2960 0.949 . S
C2964 C2972 1.574 . S
C2964 C2980 1.368 . S
H2965 C2973 0.950 . S
H2966 C2971 0.950 . S
H2967 C2972 0.949 . S
H2968 C2974 0.950 . S
H2969 C2975 0.950 . S
H2970 C2976 0.949 . S
C2971 H2966 0.950 . S
C2971 C2973 1.327 . S
C2971 C2977 1.429 . S
C2972 C2964 1.574 . S
C2972 H2967 0.949 . S
C2972 C2978 1.368 . S
C2973 C2957 1.349 . S
C2973 H2965 0.950 . S
C2973 C2971 1.327 . S
C2974 C2962 1.349 . S
C2974 H2968 0.950 . S
C2974 C2975 1.327 . S
C2975 H2969 0.950 . S
C2975 C2974 1.327 . S
C2975 C2979 1.429 . S
C2976 C2959 1.574 . S
C2976 H2970 0.949 . S
C2976 C2980 1.368 . S
C2977 C2958 1.429 . S
C2977 C2971 1.429 . S
C2977 C2978 1.523 . S
C2978 C2959 1.368 . S
C2978 C2972 1.368 . S
C2978 C2977 1.523 . S
C2979 C2963 1.429 . S
C2979 C2975 1.429 . S
C2979 C2980 1.523 . S
C2980 C2964 1.368 . S
C2980 C2976 1.368 . S
C2980 C2979 1.523 . S
H2981 C2956 0.950 . S
H2982 C2958 0.950 . S
H2983 C2959 0.949 . S
H2984 C2961 0.950 . S
H2985 C2963 0.950 . S
C2986 C2987 1.349 . S
C2986 C2988 1.327 . S
C2986 H3011 0.950 . S
C2987 C2986 1.349 . S
C2987 C3003 1.349 . S
C2988 C2986 1.327 . S
C2988 C3007 1.429 . S
C2988 H3012 0.950 . S
C2989 C3006 1.574 . S
C2989 C3008 1.368 . S
C2989 H3013 0.949 . S
H2990 C2994 0.949 . S
C2991 C2992 1.349 . S
C2991 C2993 1.327 . S
C2991 H3014 0.950 . S
C2992 C2991 1.349 . S
C2992 C3004 1.349 1_545 S
C2993 C2991 1.327 . S
C2993 C3009 1.429 1_545 S
C2993 H3015 0.950 . S
C2994 H2990 0.949 . S
C2994 C3002 1.574 . S
C2994 C3010 1.368 . S
H2995 C3003 0.950 . S
H2996 C3001 0.950 . S
H2997 C3002 0.949 . S
H2998 C3004 0.950 . S
H2999 C3005 0.950 . S
H3000 C3006 0.949 1_545 S
C3001 H2996 0.950 . S
C3001 C3003 1.327 . S
C3001 C3007 1.429 . S
C3002 C2994 1.574 . S
C3002 H2997 0.949 . S
C3002 C3008 1.368 . S
C3003 C2987 1.349 . S
C3003 H2995 0.950 . S
C3003 C3001 1.327 . S
C3004 C2992 1.349 1_565 S
C3004 H2998 0.950 . S
C3004 C3005 1.327 . S
C3005 H2999 0.950 . S
C3005 C3004 1.327 . S
C3005 C3009 1.429 . S
C3006 C2989 1.574 . S
C3006 H3000 0.949 1_565 S
C3006 C3010 1.368 . S
C3007 C2988 1.429 . S
C3007 C3001 1.429 . S
C3007 C3008 1.523 . S
C3008 C2989 1.368 . S
C3008 C3002 1.368 . S
C3008 C3007 1.523 . S
C3009 C2993 1.429 1_565 S
C3009 C3005 1.429 . S
C3009 C3010 1.523 . S
C3010 C2994 1.368 . S
C3010 C3006 1.368 . S
C3010 C3009 1.523 . S
H3011 C2986 0.950 . S
H3012 C2988 0.950 . S
H3013 C2989 0.949 . S
H3014 C2991 0.950 . S
H3015 C2993 0.950 . S
C3016 C3017 1.349 . S
C3016 C3018 1.327 . S
C3016 H3041 0.950 . S
C3017 C3016 1.349 . S
C3017 C3033 1.349 . S
C3018 C3016 1.327 . S
C3018 C3037 1.429 . S
C3018 H3042 0.950 . S
C3019 C3036 1.574 . S
C3019 C3038 1.368 . S
C3019 H3043 0.949 . S
H3020 C3024 0.949 . S
C3021 C3022 1.349 . S
C3021 C3023 1.327 . S
C3021 H3044 0.950 . S
C3022 C3021 1.349 . S
C3022 C3034 1.349 . S
C3023 C3021 1.327 . S
C3023 C3039 1.429 . S
C3023 H3045 0.950 . S
C3024 H3020 0.949 . S
C3024 C3032 1.574 . S
C3024 C3040 1.368 . S
H3025 C3033 0.950 . S
H3026 C3031 0.950 . S
H3027 C3032 0.949 . S
H3028 C3034 0.950 . S
H3029 C3035 0.950 . S
H3030 C3036 0.949 . S
C3031 H3026 0.950 . S
C3031 C3033 1.327 . S
C3031 C3037 1.429 . S
C3032 C3024 1.574 . S
C3032 H3027 0.949 . S
C3032 C3038 1.368 . S
C3033 C3017 1.349 . S
C3033 H3025 0.950 . S
C3033 C3031 1.327 . S
C3034 C3022 1.349 . S
C3034 H3028 0.950 . S
C3034 C3035 1.327 . S
C3035 H3029 0.950 . S
C3035 C3034 1.327 . S
C3035 C3039 1.429 . S
C3036 C3019 1.574 . S
C3036 H3030 0.949 . S
C3036 C3040 1.368 . S
C3037 C3018 1.429 . S
C3037 C3031 1.429 . S
C3037 C3038 1.523 . S
C3038 C3019 1.368 . S
C3038 C3032 1.368 . S
C3038 C3037 1.523 . S
C3039 C3023 1.429 . S
C3039 C3035 1.429 . S
C3039 C3040 1.523 . S
C3040 C3024 1.368 . S
C3040 C3036 1.368 . S
C3040 C3039 1.523 . S
H3041 C3016 0.950 . S
H3042 C3018 0.950 . S
H3043 C3019 0.949 . S
H3044 C3021 0.950 . S
H3045 C3023 0.950 . S
C3046 C3047 1.349 . S
C3046 C3048 1.327 . S
C3046 H3071 0.950 . S
C3047 C3046 1.349 . S
C3047 C3063 1.349 . S
C3048 C3046 1.327 . S
C3048 C3067 1.429 . S
C3048 H3072 0.950 . S
C3049 C3066 1.574 . S
C3049 C3068 1.368 . S
C3049 H3073 0.949 . S
H3050 C3054 0.949 . S
C3051 C3052 1.349 . S
C3051 C3053 1.327 . S
C3051 H3074 0.950 . S
C3052 C3051 1.349 . S
C3052 C3064 1.349 . S
C3053 C3051 1.327 . S
C3053 C3069 1.429 . S
C3053 H3075 0.950 . S
C3054 H3050 0.949 . S
C3054 C3062 1.574 . S
C3054 C3070 1.368 . S
H3055 C3063 0.950 1_556 S
H3056 C3061 0.950 . S
H3057 C3062 0.949 . S
H3058 C3064 0.950 . S
H3059 C3065 0.950 . S
H3060 C3066 0.949 . S
C3061 H3056 0.950 . S
C3061 C3063 1.327 . S
C3061 C3067 1.429 . S
C3062 C3054 1.574 . S
C3062 H3057 0.949 . S
C3062 C3068 1.368 . S
C3063 C3047 1.349 . S
C3063 H3055 0.950 1_554 S
C3063 C3061 1.327 . S
C3064 C3052 1.349 . S
C3064 H3058 0.950 . S
C3064 C3065 1.327 . S
C3065 H3059 0.950 . S
C3065 C3064 1.327 . S
C3065 C3069 1.429 . S
C3066 C3049 1.574 . S
C3066 H3060 0.949 . S
C3066 C3070 1.368 . S
C3067 C3048 1.429 . S
C3067 C3061 1.429 . S
C3067 C3068 1.523 . S
C3068 C3049 1.368 . S
C3068 C3062 1.368 . S
C3068 C3067 1.523 . S
C3069 C3053 1.429 . S
C3069 C3065 1.429 . S
C3069 C3070 1.523 . S
C3070 C3054 1.368 . S
C3070 C3066 1.368 . S
C3070 C3069 1.523 . S
H3071 C3046 0.950 . S
H3072 C3048 0.950 . S
H3073 C3049 0.949 . S
H3074 C3051 0.950 . S
H3075 C3053 0.950 . S
C3076 C3077 1.349 . S
C3076 C3078 1.327 . S
C3076 H3101 0.950 . S
C3077 C3076 1.349 . S
C3077 C3093 1.349 . S
C3078 C3076 1.327 . S
C3078 C3097 1.429 . S
C3078 H3102 0.950 . S
C3079 C3096 1.574 . S
C3079 C3098 1.368 . S
C3079 H3103 0.949 . S
H3080 C3084 0.949 . S
C3081 C3082 1.349 . S
C3081 C3083 1.327 . S
C3081 H3104 0.950 . S
C3082 C3081 1.349 . S
C3082 C3094 1.349 . S
C3083 C3081 1.327 . S
C3083 C3099 1.429 . S
C3083 H3105 0.950 . S
C3084 H3080 0.949 . S
C3084 C3092 1.574 . S
C3084 C3100 1.368 . S
H3085 C3093 0.950 . S
H3086 C3091 0.950 . S
H3087 C3092 0.949 . S
H3088 C3094 0.950 . S
H3089 C3095 0.950 . S
H3090 C3096 0.949 . S
C3091 H3086 0.950 . S
C3091 C3093 1.327 . S
C3091 C3097 1.429 . S
C3092 C3084 1.574 . S
C3092 H3087 0.949 . S
C3092 C3098 1.368 . S
C3093 C3077 1.349 . S
C3093 H3085 0.950 . S
C3093 C3091 1.327 . S
C3094 C3082 1.349 . S
C3094 H3088 0.950 . S
C3094 C3095 1.327 . S
C3095 H3089 0.950 . S
C3095 C3094 1.327 . S
C3095 C3099 1.429 . S
C3096 C3079 1.574 . S
C3096 H3090 0.949 . S
C3096 C3100 1.368 . S
C3097 C3078 1.429 . S
C3097 C3091 1.429 . S
C3097 C3098 1.523 . S
C3098 C3079 1.368 . S
C3098 C3092 1.368 . S
C3098 C3097 1.523 . S
C3099 C3083 1.429 . S
C3099 C3095 1.429 . S
C3099 C3100 1.523 . S
C3100 C3084 1.368 . S
C3100 C3096 1.368 . S
C3100 C3099 1.523 . S
H3101 C3076 0.950 . S
H3102 C3078 0.950 . S
H3103 C3079 0.949 . S
H3104 C3081 0.950 . S
H3105 C3083 0.950 . S
C3106 C3107 1.349 . S
C3106 C3108 1.327 . S
C3106 H3131 0.950 . S
C3107 C3106 1.349 . S
C3107 C3123 1.349 . S
C3108 C3106 1.327 . S
C3108 C3127 1.429 . S
C3108 H3132 0.950 . S
C3109 C3126 1.574 1_545 S
C3109 C3128 1.368 . S
C3109 H3133 0.949 . S
H3110 C3114 0.949 . S
C3111 C3112 1.349 . S
C3111 C3113 1.327 . S
C3111 H3134 0.950 . S
C3112 C3111 1.349 . S
C3112 C3124 1.349 . S
C3113 C3111 1.327 . S
C3113 C3129 1.429 . S
C3113 H3135 0.950 . S
C3114 H3110 0.949 . S
C3114 C3122 1.574 1_565 S
C3114 C3130 1.368 . S
H3115 C3123 0.950 . S
H3116 C3121 0.950 . S
H3117 C3122 0.949 . S
H3118 C3124 0.950 . S
H3119 C3125 0.950 . S
H3120 C3126 0.949 . S
C3121 H3116 0.950 . S
C3121 C3123 1.327 . S
C3121 C3127 1.429 . S
C3122 C3114 1.574 1_545 S
C3122 H3117 0.949 . S
C3122 C3128 1.368 . S
C3123 C3107 1.349 . S
C3123 H3115 0.950 . S
C3123 C3121 1.327 . S
C3124 C3112 1.349 . S
C3124 H3118 0.950 . S
C3124 C3125 1.327 . S
C3125 H3119 0.950 . S
C3125 C3124 1.327 . S
C3125 C3129 1.429 . S
C3126 C3109 1.574 1_565 S
C3126 H3120 0.949 . S
C3126 C3130 1.368 . S
C3127 C3108 1.429 . S
C3127 C3121 1.429 . S
C3127 C3128 1.523 . S
C3128 C3109 1.368 . S
C3128 C3122 1.368 . S
C3128 C3127 1.523 . S
C3129 C3113 1.429 . S
C3129 C3125 1.429 . S
C3129 C3130 1.523 . S
C3130 C3114 1.368 . S
C3130 C3126 1.368 . S
C3130 C3129 1.523 . S
H3131 C3106 0.950 . S
H3132 C3108 0.950 . S
H3133 C3109 0.949 . S
H3134 C3111 0.950 . S
H3135 C3113 0.950 . S
C3136 C3137 1.349 . S
C3136 C3138 1.327 . S
C3136 H3161 0.950 . S
C3137 C3136 1.349 . S
C3137 C3153 1.349 . S
C3138 C3136 1.327 . S
C3138 C3157 1.429 . S
C3138 H3162 0.950 . S
C3139 C3156 1.574 . S
C3139 C3158 1.368 . S
C3139 H3163 0.949 . S
H3140 C3144 0.949 . S
C3141 C3142 1.349 . S
C3141 C3143 1.327 . S
C3141 H3164 0.950 . S
C3142 C3141 1.349 . S
C3142 C3154 1.349 . S
C3143 C3141 1.327 . S
C3143 C3159 1.429 . S
C3143 H3165 0.950 . S
C3144 H3140 0.949 . S
C3144 C3152 1.574 . S
C3144 C3160 1.368 . S
H3145 C3153 0.950 . S
H3146 C3151 0.950 . S
H3147 C3152 0.949 . S
H3148 C3154 0.950 . S
H3149 C3155 0.950 . S
H3150 C3156 0.949 . S
C3151 H3146 0.950 . S
C3151 C3153 1.327 . S
C3151 C3157 1.429 . S
C3152 C3144 1.574 . S
C3152 H3147 0.949 . S
C3152 C3158 1.368 . S
C3153 C3137 1.349 . S
C3153 H3145 0.950 . S
C3153 C3151 1.327 . S
C3154 C3142 1.349 . S
C3154 H3148 0.950 . S
C3154 C3155 1.327 . S
C3155 H3149 0.950 . S
C3155 C3154 1.327 . S
C3155 C3159 1.429 . S
C3156 C3139 1.574 . S
C3156 H3150 0.949 . S
C3156 C3160 1.368 . S
C3157 C3138 1.429 . S
C3157 C3151 1.429 . S
C3157 C3158 1.523 . S
C3158 C3139 1.368 . S
C3158 C3152 1.368 . S
C3158 C3157 1.523 . S
C3159 C3143 1.429 . S
C3159 C3155 1.429 . S
C3159 C3160 1.523 . S
C3160 C3144 1.368 . S
C3160 C3156 1.368 . S
C3160 C3159 1.523 . S
H3161 C3136 0.950 . S
H3162 C3138 0.950 . S
H3163 C3139 0.949 . S
H3164 C3141 0.950 . S
H3165 C3143 0.950 . S
C3166 C3167 1.349 . S
C3166 C3168 1.327 . S
C3166 H3191 0.950 . S
C3167 C3166 1.349 . S
C3167 C3183 1.349 . S
C3168 C3166 1.327 . S
C3168 C3187 1.429 . S
C3168 H3192 0.950 . S
C3169 C3186 1.574 . S
C3169 C3188 1.368 . S
C3169 H3193 0.949 . S
H3170 C3174 0.949 . S
C3171 C3172 1.349 . S
C3171 C3173 1.327 . S
C3171 H3194 0.950 . S
C3172 C3171 1.349 . S
C3172 C3184 1.349 . S
C3173 C3171 1.327 . S
C3173 C3189 1.429 . S
C3173 H3195 0.950 . S
C3174 H3170 0.949 . S
C3174 C3182 1.574 . S
C3174 C3190 1.368 . S
H3175 C3183 0.950 . S
H3176 C3181 0.950 . S
H3177 C3182 0.949 . S
H3178 C3184 0.950 . S
H3179 C3185 0.950 . S
H3180 C3186 0.949 . S
C3181 H3176 0.950 . S
C3181 C3183 1.327 . S
C3181 C3187 1.429 . S
C3182 C3174 1.574 . S
C3182 H3177 0.949 . S
C3182 C3188 1.368 . S
C3183 C3167 1.349 . S
C3183 H3175 0.950 . S
C3183 C3181 1.327 . S
C3184 C3172 1.349 . S
C3184 H3178 0.950 . S
C3184 C3185 1.327 . S
C3185 H3179 0.950 . S
C3185 C3184 1.327 . S
C3185 C3189 1.429 . S
C3186 C3169 1.574 . S
C3186 H3180 0.949 . S
C3186 C3190 1.368 . S
C3187 C3168 1.429 . S
C3187 C3181 1.429 . S
C3187 C3188 1.523 . S
C3188 C3169 1.368 . S
C3188 C3182 1.368 . S
C3188 C3187 1.523 . S
C3189 C3173 1.429 . S
C3189 C3185 1.429 . S
C3189 C3190 1.523 . S
C3190 C3174 1.368 . S
C3190 C3186 1.368 . S
C3190 C3189 1.523 . S
H3191 C3166 0.950 . S
H3192 C3168 0.950 . S
H3193 C3169 0.949 . S
H3194 C3171 0.950 . S
H3195 C3173 0.950 . S
C3196 C3197 1.349 . S
C3196 C3198 1.327 . S
C3196 H3221 0.950 . S
C3197 C3196 1.349 . S
C3197 C3213 1.349 . S
C3198 C3196 1.327 . S
C3198 C3217 1.429 . S
C3198 H3222 0.950 . S
C3199 C3216 1.574 . S
C3199 C3218 1.368 . S
C3199 H3223 0.949 . S
H3200 C3204 0.949 . S
C3201 C3202 1.349 . S
C3201 C3203 1.327 . S
C3201 H3224 0.950 . S
C3202 C3201 1.349 . S
C3202 C3214 1.349 . S
C3203 C3201 1.327 . S
C3203 C3219 1.429 . S
C3203 H3225 0.950 . S
C3204 H3200 0.949 . S
C3204 C3212 1.574 . S
C3204 C3220 1.368 . S
H3205 C3213 0.950 . S
H3206 C3211 0.950 . S
H3207 C3212 0.949 . S
H3208 C3214 0.950 . S
H3209 C3215 0.950 . S
H3210 C3216 0.949 . S
C3211 H3206 0.950 . S
C3211 C3213 1.327 . S
C3211 C3217 1.429 . S
C3212 C3204 1.574 . S
C3212 H3207 0.949 . S
C3212 C3218 1.368 . S
C3213 C3197 1.349 . S
C3213 H3205 0.950 . S
C3213 C3211 1.327 . S
C3214 C3202 1.349 . S
C3214 H3208 0.950 . S
C3214 C3215 1.327 . S
C3215 H3209 0.950 . S
C3215 C3214 1.327 . S
C3215 C3219 1.429 . S
C3216 C3199 1.574 . S
C3216 H3210 0.949 . S
C3216 C3220 1.368 . S
C3217 C3198 1.429 . S
C3217 C3211 1.429 . S
C3217 C3218 1.523 . S
C3218 C3199 1.368 . S
C3218 C3212 1.368 . S
C3218 C3217 1.523 . S
C3219 C3203 1.429 . S
C3219 C3215 1.429 . S
C3219 C3220 1.523 . S
C3220 C3204 1.368 . S
C3220 C3216 1.368 . S
C3220 C3219 1.523 . S
H3221 C3196 0.950 . S
H3222 C3198 0.950 . S
H3223 C3199 0.949 . S
H3224 C3201 0.950 . S
H3225 C3203 0.950 . S
C3226 C3227 1.349 . S
C3226 C3228 1.327 . S
C3226 H3251 0.950 . S
C3227 C3226 1.349 . S
C3227 C3243 1.349 . S
C3228 C3226 1.327 . S
C3228 C3247 1.429 . S
C3228 H3252 0.950 . S
C3229 C3246 1.574 . S
C3229 C3248 1.368 . S
C3229 H3253 0.949 . S
H3230 C3234 0.949 . S
C3231 C3232 1.349 . S
C3231 C3233 1.327 . S
C3231 H3254 0.950 . S
C3232 C3231 1.349 . S
C3232 C3244 1.349 . S
C3233 C3231 1.327 . S
C3233 C3249 1.429 . S
C3233 H3255 0.950 . S
C3234 H3230 0.949 . S
C3234 C3242 1.574 . S
C3234 C3250 1.368 . S
H3235 C3243 0.950 . S
H3236 C3241 0.950 . S
H3237 C3242 0.949 . S
H3238 C3244 0.950 . S
H3239 C3245 0.950 . S
H3240 C3246 0.949 . S
C3241 H3236 0.950 . S
C3241 C3243 1.327 . S
C3241 C3247 1.429 . S
C3242 C3234 1.574 . S
C3242 H3237 0.949 . S
C3242 C3248 1.368 . S
C3243 C3227 1.349 . S
C3243 H3235 0.950 . S
C3243 C3241 1.327 . S
C3244 C3232 1.349 . S
C3244 H3238 0.950 . S
C3244 C3245 1.327 . S
C3245 H3239 0.950 . S
C3245 C3244 1.327 . S
C3245 C3249 1.429 . S
C3246 C3229 1.574 . S
C3246 H3240 0.949 . S
C3246 C3250 1.368 . S
C3247 C3228 1.429 . S
C3247 C3241 1.429 . S
C3247 C3248 1.523 . S
C3248 C3229 1.368 . S
C3248 C3242 1.368 . S
C3248 C3247 1.523 . S
C3249 C3233 1.429 . S
C3249 C3245 1.429 . S
C3249 C3250 1.523 . S
C3250 C3234 1.368 . S
C3250 C3246 1.368 . S
C3250 C3249 1.523 . S
H3251 C3226 0.950 . S
H3252 C3228 0.950 . S
H3253 C3229 0.949 . S
H3254 C3231 0.950 . S
H3255 C3233 0.950 . S
C3256 C3257 1.349 . S
C3256 C3258 1.327 . S
C3256 H3281 0.950 . S
C3257 C3256 1.349 . S
C3257 C3273 1.349 1_556 S
C3258 C3256 1.327 . S
C3258 C3277 1.481 . S
C3258 H3282 0.950 . S
C3259 C3276 1.574 . S
C3259 C3278 1.368 . S
C3259 H3283 0.949 . S
H3260 C3264 0.949 . S
C3261 C3262 1.349 . S
C3261 C3263 1.327 . S
C3261 H3284 0.950 . S
C3262 C3261 1.349 . S
C3262 C3274 1.349 . S
C3263 C3261 1.327 . S
C3263 C3279 1.429 . S
C3263 H3285 0.950 . S
C3264 H3260 0.949 . S
C3264 C3272 1.574 . S
C3264 C3280 1.368 1_556 S
H3265 C3273 0.950 . S
H3266 C3271 0.950 . S
H3267 C3272 0.949 . S
H3268 C3274 0.950 1_556 S
H3269 C3275 0.999 . S
H3270 C3276 0.949 . S
C3271 H3266 0.950 . S
C3271 C3273 1.327 . S
C3271 C3277 1.400 1_554 S
C3272 C3264 1.574 . S
C3272 H3267 0.949 . S
C3272 C3278 1.368 1_556 S
C3273 C3257 1.349 1_554 S
C3273 H3265 0.950 . S
C3273 C3271 1.327 . S
C3274 C3262 1.349 . S
C3274 H3268 0.950 1_554 S
C3274 C3275 1.308 1_554 S
C3275 H3269 0.999 . S
C3275 C3274 1.308 1_556 S
C3275 C3279 1.402 1_556 S
C3276 C3259 1.574 . S
C3276 H3270 0.949 . S
C3276 C3280 1.368 . S
C3277 C3258 1.481 . S
C3277 C3271 1.400 1_556 S
C3277 C3278 1.503 1_556 S
C3278 C3259 1.368 . S
C3278 C3272 1.368 1_554 S
C3278 C3277 1.503 1_554 S
C3279 C3263 1.429 . S
C3279 C3275 1.402 1_554 S
C3279 C3280 1.523 . S
C3280 C3264 1.368 1_554 S
C3280 C3276 1.368 . S
C3280 C3279 1.523 . S
H3281 C3256 0.950 . S
H3282 C3258 0.950 . S
H3283 C3259 0.949 . S
H3284 C3261 0.950 . S
H3285 C3263 0.950 . S
C3286 C3287 1.349 . S
C3286 C3288 1.327 . S
C3286 H3311 0.950 . S
C3287 C3286 1.349 . S
C3287 C3303 1.349 . S
C3288 C3286 1.327 . S
C3288 C3307 1.429 . S
C3288 H3312 0.950 . S
C3289 C3306 1.574 . S
C3289 C3308 1.368 . S
C3289 H3313 0.949 . S
H3290 C3294 0.949 . S
C3291 C3292 1.349 . S
C3291 C3293 1.327 . S
C3291 H3314 0.950 . S
C3292 C3291 1.349 . S
C3292 C3304 1.349 . S
C3293 C3291 1.327 . S
C3293 C3309 1.429 . S
C3293 H3315 0.950 . S
C3294 H3290 0.949 . S
C3294 C3302 1.574 . S
C3294 C3310 1.368 . S
H3295 C3303 0.950 . S
H3296 C3301 0.950 . S
H3297 C3302 0.949 . S
H3298 C3304 0.950 . S
H3299 C3305 0.950 . S
H3300 C3306 0.949 . S
C3301 H3296 0.950 . S
C3301 C3303 1.327 . S
C3301 C3307 1.429 . S
C3302 C3294 1.574 . S
C3302 H3297 0.949 . S
C3302 C3308 1.368 . S
C3303 C3287 1.349 . S
C3303 H3295 0.950 . S
C3303 C3301 1.327 . S
C3304 C3292 1.349 . S
C3304 H3298 0.950 . S
C3304 C3305 1.327 . S
C3305 H3299 0.950 . S
C3305 C3304 1.327 . S
C3305 C3309 1.429 . S
C3306 C3289 1.574 . S
C3306 H3300 0.949 . S
C3306 C3310 1.368 . S
C3307 C3288 1.429 . S
C3307 C3301 1.429 . S
C3307 C3308 1.523 . S
C3308 C3289 1.368 . S
C3308 C3302 1.368 . S
C3308 C3307 1.523 . S
C3309 C3293 1.429 . S
C3309 C3305 1.429 . S
C3309 C3310 1.523 . S
C3310 C3294 1.368 . S
C3310 C3306 1.368 . S
C3310 C3309 1.523 . S
H3311 C3286 0.950 . S
H3312 C3288 0.950 . S
H3313 C3289 0.949 . S
H3314 C3291 0.950 . S
H3315 C3293 0.950 . S
C3316 C3317 1.349 . S
C3316 C3318 1.327 . S
C3316 H3341 0.950 . S
C3317 C3316 1.349 . S
C3317 C3333 1.349 . S
C3318 C3316 1.327 . S
C3318 C3337 1.429 . S
C3318 H3342 0.950 . S
C3319 C3336 1.574 . S
C3319 C3338 1.368 . S
C3319 H3343 0.949 . S
H3320 C3324 0.949 . S
C3321 C3322 1.349 . S
C3321 C3323 1.327 . S
C3321 H3344 0.950 . S
C3322 C3321 1.349 . S
C3322 C3334 1.349 . S
C3323 C3321 1.327 . S
C3323 C3339 1.429 . S
C3323 H3345 0.950 . S
C3324 H3320 0.949 . S
C3324 C3332 1.574 . S
C3324 C3340 1.368 . S
H3325 C3333 0.950 . S
H3326 C3331 0.950 . S
H3327 C3332 0.949 . S
H3328 C3334 0.950 . S
H3329 C3335 0.950 . S
H3330 C3336 0.949 . S
C3331 H3326 0.950 . S
C3331 C3333 1.327 . S
C3331 C3337 1.429 . S
C3332 C3324 1.574 . S
C3332 H3327 0.949 . S
C3332 C3338 1.368 . S
C3333 C3317 1.349 . S
C3333 H3325 0.950 . S
C3333 C3331 1.327 . S
C3334 C3322 1.349 . S
C3334 H3328 0.950 . S
C3334 C3335 1.327 . S
C3335 H3329 0.950 . S
C3335 C3334 1.327 . S
C3335 C3339 1.429 . S
C3336 C3319 1.574 . S
C3336 H3330 0.949 . S
C3336 C3340 1.368 . S
C3337 C3318 1.429 . S
C3337 C3331 1.429 . S
C3337 C3338 1.523 . S
C3338 C3319 1.368 . S
C3338 C3332 1.368 . S
C3338 C3337 1.523 . S
C3339 C3323 1.429 . S
C3339 C3335 1.429 . S
C3339 C3340 1.523 . S
C3340 C3324 1.368 . S
C3340 C3336 1.368 . S
C3340 C3339 1.523 . S
H3341 C3316 0.950 . S
H3342 C3318 0.950 . S
H3343 C3319 0.949 . S
H3344 C3321 0.950 . S
H3345 C3323 0.950 . S
C3346 C3347 1.349 . S
C3346 C3348 1.327 . S
C3346 H3371 0.950 . S
C3347 C3346 1.349 . S
C3347 C3363 1.349 . S
C3348 C3346 1.327 . S
C3348 C3367 1.429 . S
C3348 H3372 0.950 . S
C3349 C3366 1.574 . S
C3349 C3368 1.368 . S
C3349 H3373 0.949 . S
H3350 C3354 0.949 . S
C3351 C3352 1.349 . S
C3351 C3353 1.327 . S
C3351 H3374 0.950 . S
C3352 C3351 1.349 . S
C3352 C3364 1.349 . S
C3353 C3351 1.327 . S
C3353 C3369 1.429 . S
C3353 H3375 0.950 . S
C3354 H3350 0.949 . S
C3354 C3362 1.574 . S
C3354 C3370 1.368 . S
H3355 C3363 0.950 . S
H3356 C3361 0.950 . S
H3357 C3362 0.949 . S
H3358 C3364 0.950 . S
H3359 C3365 0.950 . S
H3360 C3366 0.949 . S
C3361 H3356 0.950 . S
C3361 C3363 1.327 . S
C3361 C3367 1.429 . S
C3362 C3354 1.574 . S
C3362 H3357 0.949 . S
C3362 C3368 1.368 . S
C3363 C3347 1.349 . S
C3363 H3355 0.950 . S
C3363 C3361 1.327 . S
C3364 C3352 1.349 . S
C3364 H3358 0.950 . S
C3364 C3365 1.327 . S
C3365 H3359 0.950 . S
C3365 C3364 1.327 . S
C3365 C3369 1.429 . S
C3366 C3349 1.574 . S
C3366 H3360 0.949 . S
C3366 C3370 1.368 . S
C3367 C3348 1.429 . S
C3367 C3361 1.429 . S
C3367 C3368 1.523 . S
C3368 C3349 1.368 . S
C3368 C3362 1.368 . S
C3368 C3367 1.523 . S
C3369 C3353 1.429 . S
C3369 C3365 1.429 . S
C3369 C3370 1.523 . S
C3370 C3354 1.368 . S
C3370 C3366 1.368 . S
C3370 C3369 1.523 . S
H3371 C3346 0.950 . S
H3372 C3348 0.950 . S
H3373 C3349 0.949 . S
H3374 C3351 0.950 . S
H3375 C3353 0.950 . S
C3376 C3377 1.349 . S
C3376 C3378 1.327 . S
C3376 H3401 0.950 . S
C3377 C3376 1.349 . S
C3377 C3393 1.349 . S
C3378 C3376 1.327 . S
C3378 C3397 1.429 . S
C3378 H3402 0.950 . S
C3379 C3396 1.574 . S
C3379 C3398 1.368 . S
C3379 H3403 0.949 . S
H3380 C3384 0.949 . S
C3381 C3382 1.349 . S
C3381 C3383 1.327 . S
C3381 H3404 0.950 . S
C3382 C3381 1.349 . S
C3382 C3394 1.349 . S
C3383 C3381 1.327 . S
C3383 C3399 1.429 . S
C3383 H3405 0.950 . S
C3384 H3380 0.949 . S
C3384 C3392 1.574 . S
C3384 C3400 1.368 . S
H3385 C3393 0.950 . S
H3386 C3391 0.950 . S
H3387 C3392 0.949 . S
H3388 C3394 0.950 . S
H3389 C3395 0.950 . S
H3390 C3396 0.949 . S
C3391 H3386 0.950 . S
C3391 C3393 1.327 . S
C3391 C3397 1.429 . S
C3392 C3384 1.574 . S
C3392 H3387 0.949 . S
C3392 C3398 1.368 . S
C3393 C3377 1.349 . S
C3393 H3385 0.950 . S
C3393 C3391 1.327 . S
C3394 C3382 1.349 . S
C3394 H3388 0.950 . S
C3394 C3395 1.327 . S
C3395 H3389 0.950 . S
C3395 C3394 1.327 . S
C3395 C3399 1.429 . S
C3396 C3379 1.574 . S
C3396 H3390 0.949 . S
C3396 C3400 1.368 . S
C3397 C3378 1.429 . S
C3397 C3391 1.429 . S
C3397 C3398 1.523 . S
C3398 C3379 1.368 . S
C3398 C3392 1.368 . S
C3398 C3397 1.523 . S
C3399 C3383 1.429 . S
C3399 C3395 1.429 . S
C3399 C3400 1.523 . S
C3400 C3384 1.368 . S
C3400 C3396 1.368 . S
C3400 C3399 1.523 . S
H3401 C3376 0.950 . S
H3402 C3378 0.950 . S
H3403 C3379 0.949 . S
H3404 C3381 0.950 . S
H3405 C3383 0.950 . S
C3406 C3407 1.349 . S
C3406 C3408 1.327 . S
C3406 H3431 0.950 . S
C3407 C3406 1.349 . S
C3407 C3423 1.349 . S
C3408 C3406 1.327 . S
C3408 C3427 1.429 . S
C3408 H3432 0.950 . S
C3409 C3426 1.574 . S
C3409 C3428 1.368 . S
C3409 H3433 0.949 . S
H3410 C3414 0.949 . S
C3411 C3412 1.349 . S
C3411 C3413 1.327 . S
C3411 H3434 0.950 . S
C3412 C3411 1.349 . S
C3412 C3424 1.349 . S
C3413 C3411 1.327 . S
C3413 C3429 1.429 . S
C3413 H3435 0.950 . S
C3414 H3410 0.949 . S
C3414 C3422 1.574 . S
C3414 C3430 1.368 . S
H3415 C3423 0.950 . S
H3416 C3421 0.950 . S
H3417 C3422 0.949 . S
H3418 C3424 0.950 . S
H3419 C3425 0.950 . S
H3420 C3426 0.949 . S
C3421 H3416 0.950 . S
C3421 C3423 1.327 . S
C3421 C3427 1.429 . S
C3422 C3414 1.574 . S
C3422 H3417 0.949 . S
C3422 C3428 1.368 . S
C3423 C3407 1.349 . S
C3423 H3415 0.950 . S
C3423 C3421 1.327 . S
C3424 C3412 1.349 . S
C3424 H3418 0.950 . S
C3424 C3425 1.327 . S
C3425 H3419 0.950 . S
C3425 C3424 1.327 . S
C3425 C3429 1.429 . S
C3426 C3409 1.574 . S
C3426 H3420 0.949 . S
C3426 C3430 1.368 . S
C3427 C3408 1.429 . S
C3427 C3421 1.429 . S
C3427 C3428 1.523 . S
C3428 C3409 1.368 . S
C3428 C3422 1.368 . S
C3428 C3427 1.523 . S
C3429 C3413 1.429 . S
C3429 C3425 1.429 . S
C3429 C3430 1.523 . S
C3430 C3414 1.368 . S
C3430 C3426 1.368 . S
C3430 C3429 1.523 . S
H3431 C3406 0.950 . S
H3432 C3408 0.950 . S
H3433 C3409 0.949 . S
H3434 C3411 0.950 . S
H3435 C3413 0.950 . S
C3436 C3437 1.349 . S
C3436 C3438 1.327 . S
C3436 H3461 0.950 . S
C3437 C3436 1.349 . S
C3437 C3453 1.349 . S
C3438 C3436 1.327 . S
C3438 C3457 1.429 . S
C3438 H3462 0.950 . S
C3439 C3456 1.574 . S
C3439 C3458 1.368 . S
C3439 H3463 0.949 . S
H3440 C3444 0.949 1_455 S
C3441 C3442 1.386 . S
C3441 C3443 1.311 1_455 S
C3441 H3464 0.930 1_456 S
C3442 C3441 1.386 . S
C3442 C3454 1.349 . S
C3443 C3441 1.311 1_655 S
C3443 C3459 1.429 . S
C3443 H3465 0.950 . S
C3444 H3440 0.949 1_655 S
C3444 C3452 1.574 . S
C3444 C3460 1.368 . S
H3445 C3453 0.950 . S
H3446 C3451 0.950 . S
H3447 C3452 0.949 . S
H3448 C3454 0.950 . S
H3449 C3455 0.950 . S
H3450 C3456 0.949 . S
C3451 H3446 0.950 . S
C3451 C3453 1.327 . S
C3451 C3457 1.429 . S
C3452 C3444 1.574 . S
C3452 H3447 0.949 . S
C3452 C3458 1.368 . S
C3453 C3437 1.349 . S
C3453 H3445 0.950 . S
C3453 C3451 1.327 . S
C3454 C3442 1.349 . S
C3454 H3448 0.950 . S
C3454 C3455 1.327 . S
C3455 H3449 0.950 . S
C3455 C3454 1.327 . S
C3455 C3459 1.429 1_455 S
C3456 C3439 1.574 . S
C3456 H3450 0.949 . S
C3456 C3460 1.368 . S
C3457 C3438 1.429 . S
C3457 C3451 1.429 . S
C3457 C3458 1.523 . S
C3458 C3439 1.368 . S
C3458 C3452 1.368 . S
C3458 C3457 1.523 . S
C3459 C3443 1.429 . S
C3459 C3455 1.429 1_655 S
C3459 C3460 1.523 . S
C3460 C3444 1.368 . S
C3460 C3456 1.368 . S
C3460 C3459 1.523 . S
H3461 C3436 0.950 . S
H3462 C3438 0.950 . S
H3463 C3439 0.949 . S
H3464 C3441 0.930 1_654 S
H3465 C3443 0.950 . S
C3466 C3467 1.349 . S
C3466 C3468 1.327 . S
C3466 H3491 0.950 . S
C3467 C3466 1.349 . S
C3467 C3483 1.349 . S
C3468 C3466 1.327 . S
C3468 C3487 1.429 . S
C3468 H3492 0.950 . S
C3469 C3486 1.574 . S
C3469 C3488 1.368 . S
C3469 H3493 0.949 . S
H3470 C3474 0.949 . S
C3471 C3472 1.349 . S
C3471 C3473 1.327 . S
C3471 H3494 0.950 . S
C3472 C3471 1.349 . S
C3472 C3484 1.349 . S
C3473 C3471 1.327 . S
C3473 C3489 1.429 . S
C3473 H3495 0.950 . S
C3474 H3470 0.949 . S
C3474 C3482 1.574 . S
C3474 C3490 1.368 . S
H3475 C3483 0.950 . S
H3476 C3481 0.950 . S
H3477 C3482 0.949 . S
H3478 C3484 0.950 . S
H3479 C3485 0.950 . S
H3480 C3486 0.949 . S
C3481 H3476 0.950 . S
C3481 C3483 1.327 . S
C3481 C3487 1.429 . S
C3482 C3474 1.574 . S
C3482 H3477 0.949 . S
C3482 C3488 1.368 . S
C3483 C3467 1.349 . S
C3483 H3475 0.950 . S
C3483 C3481 1.327 . S
C3484 C3472 1.349 . S
C3484 H3478 0.950 . S
C3484 C3485 1.327 . S
C3485 H3479 0.950 . S
C3485 C3484 1.327 . S
C3485 C3489 1.429 . S
C3486 C3469 1.574 . S
C3486 H3480 0.949 . S
C3486 C3490 1.368 . S
C3487 C3468 1.429 . S
C3487 C3481 1.429 . S
C3487 C3488 1.523 . S
C3488 C3469 1.368 . S
C3488 C3482 1.368 . S
C3488 C3487 1.523 . S
C3489 C3473 1.429 . S
C3489 C3485 1.429 . S
C3489 C3490 1.523 . S
C3490 C3474 1.368 . S
C3490 C3486 1.368 . S
C3490 C3489 1.523 . S
H3491 C3466 0.950 . S
H3492 C3468 0.950 . S
H3493 C3469 0.949 . S
H3494 C3471 0.950 . S
H3495 C3473 0.950 . S
C3496 C3497 1.349 . S
C3496 C3498 1.327 . S
C3496 H3521 0.950 . S
C3497 C3496 1.349 . S
C3497 C3513 1.349 . S
C3498 C3496 1.327 . S
C3498 C3517 1.429 . S
C3498 H3522 0.950 . S
C3499 C3516 1.574 . S
C3499 C3518 1.368 . S
C3499 H3523 0.949 . S
H3500 C3504 0.949 . S
C3501 C3502 1.349 . S
C3501 C3503 1.327 . S
C3501 H3524 0.950 . S
C3502 C3501 1.349 . S
C3502 C3514 1.349 . S
C3503 C3501 1.327 . S
C3503 C3519 1.429 . S
C3503 H3525 0.950 . S
C3504 H3500 0.949 . S
C3504 C3512 1.574 . S
C3504 C3520 1.368 . S
H3505 C3513 0.950 . S
H3506 C3511 0.950 . S
H3507 C3512 0.949 . S
H3508 C3514 0.950 . S
H3509 C3515 0.950 . S
H3510 C3516 0.949 . S
C3511 H3506 0.950 . S
C3511 C3513 1.327 . S
C3511 C3517 1.429 . S
C3512 C3504 1.574 . S
C3512 H3507 0.949 . S
C3512 C3518 1.368 . S
C3513 C3497 1.349 . S
C3513 H3505 0.950 . S
C3513 C3511 1.327 . S
C3514 C3502 1.349 . S
C3514 H3508 0.950 . S
C3514 C3515 1.327 . S
C3515 H3509 0.950 . S
C3515 C3514 1.327 . S
C3515 C3519 1.429 . S
C3516 C3499 1.574 . S
C3516 H3510 0.949 . S
C3516 C3520 1.368 . S
C3517 C3498 1.429 . S
C3517 C3511 1.429 . S
C3517 C3518 1.523 . S
C3518 C3499 1.368 . S
C3518 C3512 1.368 . S
C3518 C3517 1.523 . S
C3519 C3503 1.429 . S
C3519 C3515 1.429 . S
C3519 C3520 1.523 . S
C3520 C3504 1.368 . S
C3520 C3516 1.368 . S
C3520 C3519 1.523 . S
H3521 C3496 0.950 . S
H3522 C3498 0.950 . S
H3523 C3499 0.949 . S
H3524 C3501 0.950 . S
H3525 C3503 0.950 . S
C3526 C3527 1.349 . S
C3526 C3528 1.327 1_554 S
C3526 H3551 0.950 . S
C3527 C3526 1.349 . S
C3527 C3543 1.349 . S
C3528 C3526 1.327 1_556 S
C3528 C3547 1.429 . S
C3528 H3552 0.950 . S
C3529 C3546 1.574 . S
C3529 C3548 1.368 . S
C3529 H3553 0.949 . S
H3530 C3534 0.949 . S
C3531 C3532 1.349 . S
C3531 C3533 1.327 . S
C3531 H3554 0.950 . S
C3532 C3531 1.349 . S
C3532 C3544 1.349 . S
C3533 C3531 1.327 . S
C3533 C3549 1.429 . S
C3533 H3555 0.950 . S
C3534 H3530 0.949 . S
C3534 C3542 1.574 . S
C3534 C3550 1.368 . S
H3535 C3543 0.950 . S
H3536 C3541 0.950 . S
H3537 C3542 0.949 . S
H3538 C3544 0.950 . S
H3539 C3545 0.950 . S
H3540 C3546 0.949 . S
C3541 H3536 0.950 . S
C3541 C3543 1.327 1_556 S
C3541 C3547 1.429 . S
C3542 C3534 1.574 . S
C3542 H3537 0.949 . S
C3542 C3548 1.368 . S
C3543 C3527 1.349 . S
C3543 H3535 0.950 . S
C3543 C3541 1.327 1_554 S
C3544 C3532 1.349 . S
C3544 H3538 0.950 . S
C3544 C3545 1.327 . S
C3545 H3539 0.950 . S
C3545 C3544 1.327 . S
C3545 C3549 1.429 . S
C3546 C3529 1.574 . S
C3546 H3540 0.949 . S
C3546 C3550 1.368 . S
C3547 C3528 1.429 . S
C3547 C3541 1.429 . S
C3547 C3548 1.523 . S
C3548 C3529 1.368 . S
C3548 C3542 1.368 . S
C3548 C3547 1.523 . S
C3549 C3533 1.429 . S
C3549 C3545 1.429 . S
C3549 C3550 1.523 . S
C3550 C3534 1.368 . S
C3550 C3546 1.368 . S
C3550 C3549 1.523 . S
H3551 C3526 0.950 . S
H3552 C3528 0.950 . S
H3553 C3529 0.949 . S
H3554 C3531 0.950 . S
H3555 C3533 0.950 . S
C3556 C3557 1.349 . S
C3556 C3558 1.327 . S
C3556 H3581 0.950 . S
C3557 C3556 1.349 . S
C3557 C3573 1.349 . S
C3558 C3556 1.327 . S
C3558 C3577 1.429 . S
C3558 H3582 0.950 . S
C3559 C3576 1.574 . S
C3559 C3578 1.368 . S
C3559 H3583 0.949 . S
H3560 C3564 0.949 1_455 S
C3561 C3562 1.349 1_655 S
C3561 C3563 1.327 . S
C3561 H3584 0.950 . S
C3562 C3561 1.349 1_455 S
C3562 C3574 1.349 . S
C3563 C3561 1.327 . S
C3563 C3579 1.429 . S
C3563 H3585 0.950 . S
C3564 H3560 0.949 1_655 S
C3564 C3572 1.574 . S
C3564 C3580 1.368 . S
H3565 C3573 0.950 . S
H3566 C3571 0.950 . S
H3567 C3572 0.949 . S
H3568 C3574 0.950 . S
H3569 C3575 0.950 . S
H3570 C3576 0.949 . S
C3571 H3566 0.950 . S
C3571 C3573 1.327 . S
C3571 C3577 1.429 . S
C3572 C3564 1.574 . S
C3572 H3567 0.949 . S
C3572 C3578 1.368 . S
C3573 C3557 1.349 . S
C3573 H3565 0.950 . S
C3573 C3571 1.327 . S
C3574 C3562 1.349 . S
C3574 H3568 0.950 . S
C3574 C3575 1.327 . S
C3575 H3569 0.950 . S
C3575 C3574 1.327 . S
C3575 C3579 1.429 1_455 S
C3576 C3559 1.574 . S
C3576 H3570 0.949 . S
C3576 C3580 1.368 . S
C3577 C3558 1.429 . S
C3577 C3571 1.429 . S
C3577 C3578 1.523 . S
C3578 C3559 1.368 . S
C3578 C3572 1.368 . S
C3578 C3577 1.523 . S
C3579 C3563 1.429 . S
C3579 C3575 1.429 1_655 S
C3579 C3580 1.523 . S
C3580 C3564 1.368 . S
C3580 C3576 1.368 . S
C3580 C3579 1.523 . S
H3581 C3556 0.950 . S
H3582 C3558 0.950 . S
H3583 C3559 0.949 . S
H3584 C3561 0.950 . S
H3585 C3563 0.950 . S
C3586 C3587 1.349 . S
C3586 C3588 1.327 . S
C3586 H3611 0.950 . S
C3587 C3586 1.349 . S
C3587 C3603 1.349 . S
C3588 C3586 1.327 . S
C3588 C3607 1.429 . S
C3588 H3612 0.950 . S
C3589 C3606 1.574 . S
C3589 C3608 1.368 . S
C3589 H3613 0.949 . S
H3590 C3594 0.949 . S
C3591 C3592 1.349 . S
C3591 C3593 1.327 . S
C3591 H3614 0.950 . S
C3592 C3591 1.349 . S
C3592 C3604 1.349 . S
C3593 C3591 1.327 . S
C3593 C3609 1.429 . S
C3593 H3615 0.950 . S
C3594 H3590 0.949 . S
C3594 C3602 1.574 . S
C3594 C3610 1.368 . S
H3595 C3603 0.950 . S
H3596 C3601 0.950 . S
H3597 C3602 0.949 . S
H3598 C3604 0.950 . S
H3599 C3605 0.950 . S
H3600 C3606 0.949 . S
C3601 H3596 0.950 . S
C3601 C3603 1.327 . S
C3601 C3607 1.429 . S
C3602 C3594 1.574 . S
C3602 H3597 0.949 . S
C3602 C3608 1.368 . S
C3603 C3587 1.349 . S
C3603 H3595 0.950 . S
C3603 C3601 1.327 . S
C3604 C3592 1.349 . S
C3604 H3598 0.950 . S
C3604 C3605 1.327 . S
C3605 H3599 0.950 . S
C3605 C3604 1.327 . S
C3605 C3609 1.429 . S
C3606 C3589 1.574 . S
C3606 H3600 0.949 . S
C3606 C3610 1.368 . S
C3607 C3588 1.429 . S
C3607 C3601 1.429 . S
C3607 C3608 1.523 . S
C3608 C3589 1.368 . S
C3608 C3602 1.368 . S
C3608 C3607 1.523 . S
C3609 C3593 1.429 . S
C3609 C3605 1.429 . S
C3609 C3610 1.523 . S
C3610 C3594 1.368 . S
C3610 C3606 1.368 . S
C3610 C3609 1.523 . S
H3611 C3586 0.950 . S
H3612 C3588 0.950 . S
H3613 C3589 0.949 . S
H3614 C3591 0.950 . S
H3615 C3593 0.950 . S
C3616 C3617 1.349 . S
C3616 C3618 1.327 . S
C3616 H3641 0.950 . S
C3617 C3616 1.349 . S
C3617 C3633 1.349 . S
C3618 C3616 1.327 . S
C3618 C3637 1.429 . S
C3618 H3642 0.950 . S
C3619 C3636 1.574 . S
C3619 C3638 1.368 . S
C3619 H3643 0.949 . S
H3620 C3624 0.949 . S
C3621 C3622 1.349 . S
C3621 C3623 1.327 . S
C3621 H3644 0.950 . S
C3622 C3621 1.349 . S
C3622 C3634 1.349 . S
C3623 C3621 1.327 . S
C3623 C3639 1.429 . S
C3623 H3645 0.950 . S
C3624 H3620 0.949 . S
C3624 C3632 1.574 . S
C3624 C3640 1.368 . S
H3625 C3633 0.950 . S
H3626 C3631 0.950 . S
H3627 C3632 0.949 . S
H3628 C3634 0.950 . S
H3629 C3635 0.950 . S
H3630 C3636 0.949 . S
C3631 H3626 0.950 . S
C3631 C3633 1.327 . S
C3631 C3637 1.429 . S
C3632 C3624 1.574 . S
C3632 H3627 0.949 . S
C3632 C3638 1.368 . S
C3633 C3617 1.349 . S
C3633 H3625 0.950 . S
C3633 C3631 1.327 . S
C3634 C3622 1.349 . S
C3634 H3628 0.950 . S
C3634 C3635 1.327 . S
C3635 H3629 0.950 . S
C3635 C3634 1.327 . S
C3635 C3639 1.429 . S
C3636 C3619 1.574 . S
C3636 H3630 0.949 . S
C3636 C3640 1.368 . S
C3637 C3618 1.429 . S
C3637 C3631 1.429 . S
C3637 C3638 1.523 . S
C3638 C3619 1.368 . S
C3638 C3632 1.368 . S
C3638 C3637 1.523 . S
C3639 C3623 1.429 . S
C3639 C3635 1.429 . S
C3639 C3640 1.523 . S
C3640 C3624 1.368 . S
C3640 C3636 1.368 . S
C3640 C3639 1.523 . S
H3641 C3616 0.950 . S
H3642 C3618 0.950 . S
H3643 C3619 0.949 . S
H3644 C3621 0.950 . S
H3645 C3623 0.950 . S
C3646 C3647 1.349 . S
C3646 C3648 1.327 . S
C3646 H3671 0.950 . S
C3647 C3646 1.349 . S
C3647 C3663 1.349 1_565 S
C3648 C3646 1.327 . S
C3648 C3667 1.429 1_565 S
C3648 H3672 0.950 . S
C3649 C3666 1.574 . S
C3649 C3668 1.368 . S
C3649 H3673 0.949 . S
H3650 C3654 0.949 . S
C3651 C3652 1.349 . S
C3651 C3653 1.327 . S
C3651 H3674 0.950 . S
C3652 C3651 1.349 . S
C3652 C3664 1.349 . S
C3653 C3651 1.327 . S
C3653 C3669 1.429 . S
C3653 H3675 0.950 . S
C3654 H3650 0.949 . S
C3654 C3662 1.574 . S
C3654 C3670 1.368 . S
H3655 C3663 0.950 . S
H3656 C3661 0.950 . S
H3657 C3662 0.949 . S
H3658 C3664 0.950 . S
H3659 C3665 0.950 . S
H3660 C3666 0.949 . S
C3661 H3656 0.950 . S
C3661 C3663 1.327 . S
C3661 C3667 1.429 . S
C3662 C3654 1.574 . S
C3662 H3657 0.949 . S
C3662 C3668 1.368 . S
C3663 C3647 1.349 1_545 S
C3663 H3655 0.950 . S
C3663 C3661 1.327 . S
C3664 C3652 1.349 . S
C3664 H3658 0.950 . S
C3664 C3665 1.327 . S
C3665 H3659 0.950 . S
C3665 C3664 1.327 . S
C3665 C3669 1.429 . S
C3666 C3649 1.574 . S
C3666 H3660 0.949 . S
C3666 C3670 1.368 . S
C3667 C3648 1.429 1_545 S
C3667 C3661 1.429 . S
C3667 C3668 1.523 . S
C3668 C3649 1.368 . S
C3668 C3662 1.368 . S
C3668 C3667 1.523 . S
C3669 C3653 1.429 . S
C3669 C3665 1.429 . S
C3669 C3670 1.523 . S
C3670 C3654 1.368 . S
C3670 C3666 1.368 . S
C3670 C3669 1.523 . S
H3671 C3646 0.950 . S
H3672 C3648 0.950 . S
H3673 C3649 0.949 . S
H3674 C3651 0.950 . S
H3675 C3653 0.950 . S
C3676 C3677 1.349 . S
C3676 C3678 1.327 . S
C3676 H3701 0.950 . S
C3677 C3676 1.349 . S
C3677 C3693 1.349 . S
C3678 C3676 1.327 . S
C3678 C3697 1.429 . S
C3678 H3702 0.950 . S
C3679 C3696 1.574 . S
C3679 C3698 1.368 . S
C3679 H3703 0.949 . S
H3680 C3684 0.949 . S
C3681 C3682 1.349 . S
C3681 C3683 1.327 . S
C3681 H3704 0.950 . S
C3682 C3681 1.349 . S
C3682 C3694 1.349 . S
C3683 C3681 1.327 . S
C3683 C3699 1.429 . S
C3683 H3705 0.950 . S
C3684 H3680 0.949 . S
C3684 C3692 1.574 . S
C3684 C3700 1.368 . S
H3685 C3693 0.950 . S
H3686 C3691 0.950 . S
H3687 C3692 0.949 . S
H3688 C3694 0.950 . S
H3689 C3695 0.950 . S
H3690 C3696 0.949 . S
C3691 H3686 0.950 . S
C3691 C3693 1.327 . S
C3691 C3697 1.429 . S
C3692 C3684 1.574 . S
C3692 H3687 0.949 . S
C3692 C3698 1.368 . S
C3693 C3677 1.349 . S
C3693 H3685 0.950 . S
C3693 C3691 1.327 . S
C3694 C3682 1.349 . S
C3694 H3688 0.950 . S
C3694 C3695 1.327 . S
C3695 H3689 0.950 . S
C3695 C3694 1.327 . S
C3695 C3699 1.429 . S
C3696 C3679 1.574 . S
C3696 H3690 0.949 . S
C3696 C3700 1.368 . S
C3697 C3678 1.429 . S
C3697 C3691 1.429 . S
C3697 C3698 1.523 . S
C3698 C3679 1.368 . S
C3698 C3692 1.368 . S
C3698 C3697 1.523 . S
C3699 C3683 1.429 . S
C3699 C3695 1.429 . S
C3699 C3700 1.523 . S
C3700 C3684 1.368 . S
C3700 C3696 1.368 . S
C3700 C3699 1.523 . S
H3701 C3676 0.950 . S
H3702 C3678 0.950 . S
H3703 C3679 0.949 . S
H3704 C3681 0.950 . S
H3705 C3683 0.950 . S
C3706 C3707 1.349 . S
C3706 C3708 1.327 . S
C3706 H3731 0.950 . S
C3707 C3706 1.349 . S
C3707 C3723 1.349 . S
C3708 C3706 1.327 . S
C3708 C3727 1.429 . S
C3708 H3732 0.950 . S
C3709 C3726 1.574 . S
C3709 C3728 1.368 . S
C3709 H3733 0.949 . S
H3710 C3714 0.949 . S
C3711 C3712 1.349 . S
C3711 C3713 1.327 . S
C3711 H3734 0.950 . S
C3712 C3711 1.349 . S
C3712 C3724 1.349 . S
C3713 C3711 1.327 . S
C3713 C3729 1.429 . S
C3713 H3735 0.950 . S
C3714 H3710 0.949 . S
C3714 C3722 1.574 . S
C3714 C3730 1.368 . S
H3715 C3723 0.950 . S
H3716 C3721 0.950 . S
H3717 C3722 0.949 . S
H3718 C3724 0.950 . S
H3719 C3725 0.950 . S
H3720 C3726 0.949 . S
C3721 H3716 0.950 . S
C3721 C3723 1.327 . S
C3721 C3727 1.429 . S
C3722 C3714 1.574 . S
C3722 H3717 0.949 . S
C3722 C3728 1.368 . S
C3723 C3707 1.349 . S
C3723 H3715 0.950 . S
C3723 C3721 1.327 . S
C3724 C3712 1.349 . S
C3724 H3718 0.950 . S
C3724 C3725 1.327 . S
C3725 H3719 0.950 . S
C3725 C3724 1.327 . S
C3725 C3729 1.429 . S
C3726 C3709 1.574 . S
C3726 H3720 0.949 . S
C3726 C3730 1.368 . S
C3727 C3708 1.429 . S
C3727 C3721 1.429 . S
C3727 C3728 1.523 . S
C3728 C3709 1.368 . S
C3728 C3722 1.368 . S
C3728 C3727 1.523 . S
C3729 C3713 1.429 . S
C3729 C3725 1.429 . S
C3729 C3730 1.523 . S
C3730 C3714 1.368 . S
C3730 C3726 1.368 . S
C3730 C3729 1.523 . S
H3731 C3706 0.950 . S
H3732 C3708 0.950 . S
H3733 C3709 0.949 . S
H3734 C3711 0.950 . S
H3735 C3713 0.950 . S
C3736 C3737 1.349 . S
C3736 C3738 1.327 . S
C3736 H3761 0.950 . S
C3737 C3736 1.349 . S
C3737 C3753 1.349 . S
C3738 C3736 1.327 . S
C3738 C3757 1.429 . S
C3738 H3762 0.950 . S
C3739 C3756 1.574 . S
C3739 C3758 1.368 . S
C3739 H3763 0.949 . S
H3740 C3744 0.949 . S
C3741 C3742 1.349 . S
C3741 C3743 1.327 . S
C3741 H3764 0.950 . S
C3742 C3741 1.349 . S
C3742 C3754 1.349 . S
C3743 C3741 1.327 . S
C3743 C3759 1.429 . S
C3743 H3765 0.950 . S
C3744 H3740 0.949 . S
C3744 C3752 1.574 . S
C3744 C3760 1.368 . S
H3745 C3753 0.950 . S
H3746 C3751 0.950 . S
H3747 C3752 0.949 . S
H3748 C3754 0.950 . S
H3749 C3755 0.950 . S
H3750 C3756 0.949 . S
C3751 H3746 0.950 . S
C3751 C3753 1.327 . S
C3751 C3757 1.429 . S
C3752 C3744 1.574 . S
C3752 H3747 0.949 . S
C3752 C3758 1.368 . S
C3753 C3737 1.349 . S
C3753 H3745 0.950 . S
C3753 C3751 1.327 . S
C3754 C3742 1.349 . S
C3754 H3748 0.950 . S
C3754 C3755 1.327 . S
C3755 H3749 0.950 . S
C3755 C3754 1.327 . S
C3755 C3759 1.429 . S
C3756 C3739 1.574 . S
C3756 H3750 0.949 . S
C3756 C3760 1.368 . S
C3757 C3738 1.429 . S
C3757 C3751 1.429 . S
C3757 C3758 1.523 . S
C3758 C3739 1.368 . S
C3758 C3752 1.368 . S
C3758 C3757 1.523 . S
C3759 C3743 1.429 . S
C3759 C3755 1.429 . S
C3759 C3760 1.523 . S
C3760 C3744 1.368 . S
C3760 C3756 1.368 . S
C3760 C3759 1.523 . S
H3761 C3736 0.950 . S
H3762 C3738 0.950 . S
H3763 C3739 0.949 . S
H3764 C3741 0.950 . S
H3765 C3743 0.950 . S
C3766 C3767 1.349 . S
C3766 C3768 1.327 . S
C3766 H3791 0.950 . S
C3767 C3766 1.349 . S
C3767 C3783 1.349 . S
C3768 C3766 1.327 . S
C3768 C3787 1.429 . S
C3768 H3792 0.950 . S
C3769 C3786 1.574 . S
C3769 C3788 1.368 . S
C3769 H3793 0.949 . S
H3770 C3774 0.949 . S
C3771 C3772 1.349 . S
C3771 C3773 1.327 . S
C3771 H3794 0.950 . S
C3772 C3771 1.349 . S
C3772 C3784 1.349 . S
C3773 C3771 1.327 . S
C3773 C3789 1.429 . S
C3773 H3795 0.950 . S
C3774 H3770 0.949 . S
C3774 C3782 1.574 . S
C3774 C3790 1.368 . S
H3775 C3783 0.950 . S
H3776 C3781 0.950 . S
H3777 C3782 0.949 . S
H3778 C3784 0.950 . S
H3779 C3785 0.950 . S
H3780 C3786 0.949 . S
C3781 H3776 0.950 . S
C3781 C3783 1.327 . S
C3781 C3787 1.429 . S
C3782 C3774 1.574 . S
C3782 H3777 0.949 . S
C3782 C3788 1.368 . S
C3783 C3767 1.349 . S
C3783 H3775 0.950 . S
C3783 C3781 1.327 . S
C3784 C3772 1.349 . S
C3784 H3778 0.950 . S
C3784 C3785 1.327 . S
C3785 H3779 0.950 . S
C3785 C3784 1.327 . S
C3785 C3789 1.429 . S
C3786 C3769 1.574 . S
C3786 H3780 0.949 . S
C3786 C3790 1.368 . S
C3787 C3768 1.429 . S
C3787 C3781 1.429 . S
C3787 C3788 1.523 . S
C3788 C3769 1.368 . S
C3788 C3782 1.368 . S
C3788 C3787 1.523 . S
C3789 C3773 1.429 . S
C3789 C3785 1.429 . S
C3789 C3790 1.523 . S
C3790 C3774 1.368 . S
C3790 C3786 1.368 . S
C3790 C3789 1.523 . S
H3791 C3766 0.950 . S
H3792 C3768 0.950 . S
H3793 C3769 0.949 . S
H3794 C3771 0.950 . S
H3795 C3773 0.950 . S
C3796 C3797 1.395 . S
C3796 C3798 1.268 1_545 S
C3796 H3821 0.967 . S
C3797 C3796 1.395 . S
C3797 C3813 1.349 . S
C3798 C3796 1.268 1_565 S
C3798 C3817 1.429 . S
C3798 H3822 0.950 . S
C3799 C3816 1.574 . S
C3799 C3818 1.368 . S
C3799 H3823 0.949 . S
H3800 C3804 0.949 . S
C3801 C3802 1.349 . S
C3801 C3803 1.327 . S
C3801 H3824 0.950 . S
C3802 C3801 1.349 . S
C3802 C3814 1.349 . S
C3803 C3801 1.327 . S
C3803 C3819 1.429 . S
C3803 H3825 0.950 . S
C3804 H3800 0.949 . S
C3804 C3812 1.574 . S
C3804 C3820 1.368 . S
H3805 C3813 0.950 . S
H3806 C3811 0.950 . S
H3807 C3812 0.949 . S
H3808 C3814 0.950 . S
H3809 C3815 0.950 . S
H3810 C3816 0.949 . S
C3811 H3806 0.950 . S
C3811 C3813 1.327 1_565 S
C3811 C3817 1.429 . S
C3812 C3804 1.574 . S
C3812 H3807 0.949 . S
C3812 C3818 1.368 . S
C3813 C3797 1.349 . S
C3813 H3805 0.950 . S
C3813 C3811 1.327 1_545 S
C3814 C3802 1.349 . S
C3814 H3808 0.950 . S
C3814 C3815 1.327 . S
C3815 H3809 0.950 . S
C3815 C3814 1.327 . S
C3815 C3819 1.429 . S
C3816 C3799 1.574 . S
C3816 H3810 0.949 . S
C3816 C3820 1.368 . S
C3817 C3798 1.429 . S
C3817 C3811 1.429 . S
C3817 C3818 1.523 . S
C3818 C3799 1.368 . S
C3818 C3812 1.368 . S
C3818 C3817 1.523 . S
C3819 C3803 1.429 . S
C3819 C3815 1.429 . S
C3819 C3820 1.523 . S
C3820 C3804 1.368 . S
C3820 C3816 1.368 . S
C3820 C3819 1.523 . S
H3821 C3796 0.967 . S
H3822 C3798 0.950 . S
H3823 C3799 0.949 . S
H3824 C3801 0.950 . S
H3825 C3803 0.950 . S
C3826 C3827 1.349 . S
C3826 C3828 1.327 . S
C3826 H3851 0.950 . S
C3827 C3826 1.349 . S
C3827 C3843 1.349 . S
C3828 C3826 1.327 . S
C3828 C3847 1.429 . S
C3828 H3852 0.950 . S
C3829 C3846 1.574 . S
C3829 C3848 1.368 . S
C3829 H3853 0.949 . S
H3830 C3834 0.949 . S
C3831 C3832 1.349 . S
C3831 C3833 1.327 . S
C3831 H3854 0.950 . S
C3832 C3831 1.349 . S
C3832 C3844 1.349 . S
C3833 C3831 1.327 . S
C3833 C3849 1.429 . S
C3833 H3855 0.950 . S
C3834 H3830 0.949 . S
C3834 C3842 1.574 . S
C3834 C3850 1.368 . S
H3835 C3843 0.950 . S
H3836 C3841 0.950 . S
H3837 C3842 0.949 . S
H3838 C3844 0.950 . S
H3839 C3845 0.950 . S
H3840 C3846 0.949 . S
C3841 H3836 0.950 . S
C3841 C3843 1.327 . S
C3841 C3847 1.429 . S
C3842 C3834 1.574 . S
C3842 H3837 0.949 . S
C3842 C3848 1.368 . S
C3843 C3827 1.349 . S
C3843 H3835 0.950 . S
C3843 C3841 1.327 . S
C3844 C3832 1.349 . S
C3844 H3838 0.950 . S
C3844 C3845 1.327 . S
C3845 H3839 0.950 . S
C3845 C3844 1.327 . S
C3845 C3849 1.429 . S
C3846 C3829 1.574 . S
C3846 H3840 0.949 . S
C3846 C3850 1.368 . S
C3847 C3828 1.429 . S
C3847 C3841 1.429 . S
C3847 C3848 1.523 . S
C3848 C3829 1.368 . S
C3848 C3842 1.368 . S
C3848 C3847 1.523 . S
C3849 C3833 1.429 . S
C3849 C3845 1.429 . S
C3849 C3850 1.523 . S
C3850 C3834 1.368 . S
C3850 C3846 1.368 . S
C3850 C3849 1.523 . S
H3851 C3826 0.950 . S
H3852 C3828 0.950 . S
H3853 C3829 0.949 . S
H3854 C3831 0.950 . S
H3855 C3833 0.950 . S
C977 C109 1.021 . S
C982 C342 1.004 . S
C1007 C61 1.642 . S
C1012 C394 1.743 . S
C1037 C74 1.178 . S
C1042 C426 1.230 . S
C1072 C475 2.575 . S
C1067 C96 2.565 . S
C1097 C25 0.729 . S
C1102 C511 0.723 . S
C1132 C542 0.307 . S
C1127 C40 0.141 . S
C1162 C594 0.420 . S
C1157 C46 0.157 . S
C1187 C5 0.753 . S
C1192 C622 0.787 . S
C1222 C354 1.645 1_655 S
C1217 C229 1.499 . S
C1247 C249 1.450 . S
C1252 C395 1.440 . S
C1282 C425 1.754 . S
C1277 C271 1.776 1_545 S
C1312 C462 0.318 . S
C1307 C172 0.352 . S
C1337 C236 1.742 . S
C1342 C506 1.747 1_655 S
C1372 C554 2.117 . S
C1367 C242 2.201 . S
C1402 C595 1.333 . S
C1397 C278 1.333 . S
C1432 C634 1.449 . S
C1427 C179 1.553 . S
C1462 C355 2.213 . S
C1457 C159 1.864 . S
C1487 C285 1.568 . S
C1492 C665 1.562 . S
C1522 C715 2.289 . S
C1517 C333 2.282 . S
C1552 C742 0.869 . S
C1547 C320 0.872 . S
C1577 C123 2.271 . S
C1582 C635 2.282 . S
C1607 C138 0.944 . S
C1612 C431 0.917 . S
C1637 C326 2.579 . S
C1642 C794 2.475 . S
C1672 C822 0.955 . S
C1667 C298 0.942 . S
C1702 C351 1.043 . S
C1697 C67 1.063 . S
C1732 C825 1.725 . S
C1727 C110 1.833 . S
C1757 C88 1.218 . S
C1762 C435 1.226 . S
C1787 C75 2.151 . S
C1792 C786 2.497 . S
C1822 C502 0.753 . S
C1817 C11 0.753 . S
C1847 C47 0.959 . S
C1852 C711 0.330 . S
C1882 C585 0.409 . S
C1877 C32 0.486 . S
C1912 C871 0.990 . S
C1907 C26 1.027 . S
C1942 C345 1.766 1_556 S
C1937 C152 1.922 . S
C1972 C826 1.476 . S
C1967 C319 1.420 . S
C1997 C124 1.869 . S
C2002 C434 1.759 . S
C2027 C284 0.362 . S
C2032 C791 0.347 . S
C2057 C145 1.597 . S
C2062 C515 1.770 . S
C2092 C705 2.044 . S
C2087 C312 1.992 . S
C2117 C117 1.081 . S
C2122 C586 1.175 . S
C2147 C291 1.560 . S
C2152 C865 1.445 . S
C2177 C194 2.223 . S
C2182 C346 2.218 . S
C2207 C180 1.500 . S
C2212 C674 1.442 . S
C2237 C263 2.111 . S
C2242 C546 2.135 . S
C2267 C243 0.769 . S
C2272 C751 0.784 . S
C2302 C866 2.353 . S
C2297 C277 2.329 . S
C2327 C215 0.855 . S
C2332 C422 0.854 . S
C2362 C465 2.382 . S
C2357 C256 2.409 . S
C2392 C391 1.018 . S
C2387 C200 1.034 . S
C2417 C81 1.021 . S
C2422 C902 1.004 . S
C2452 C834 1.743 . S
C2447 C89 1.643 . S
C2477 C102 1.178 . S
C2482 C946 1.230 . S
C2507 C68 2.565 . S
C2512 C795 2.575 . S
C2537 C53 0.721 . S
C2542 C671 0.724 . S
C2572 C702 0.306 . S
C2567 C12 0.141 . S
C2602 C754 0.420 . S
C2597 C18 0.156 . S
C2632 C862 0.786 . S
C2627 C33 0.753 . S
C2662 C914 1.645 . S
C2657 C257 1.498 . S
C2687 C193 1.450 1_556 S
C2692 C835 1.440 . S
C2722 C945 1.754 . S
C2717 C201 1.779 . S
C2752 C782 0.318 . S
C2747 C214 0.352 . S
C2782 C666 1.748 1_556 S
C2777 C264 1.742 . S
C2807 C186 2.201 . S
C2812 C714 2.117 . S
C2842 C755 1.334 . S
C2837 C208 1.333 . S
C2867 C221 1.552 . S
C2872 C874 1.448 . S
C2902 C915 2.212 . S
C2897 C313 1.864 . S
C2927 C131 1.545 . S
C2932 C505 1.564 . S
C2962 C555 2.290 . S
C2957 C151 2.234 1_565 S
C2992 C582 0.869 . S
C2987 C166 0.872 . S
C3022 C875 2.281 . S
C3017 C305 2.271 . S
C3047 C292 0.944 . S
C3052 C951 0.918 . S
C3082 C474 2.475 . S
C3077 C144 2.579 . S
C3112 C382 0.954 . S
C3107 C116 0.942 . S
C3137 C95 1.062 . S
C3142 C911 1.043 . S
C3172 C385 1.725 . S
C3167 C82 1.833 . S
C3197 C60 1.218 . S
C3202 C955 1.225 . S
C3227 C103 2.151 . S
C3232 C466 2.497 . S
C3257 C39 0.753 . S
C3262 C662 0.753 . S
C3292 C551 0.330 . S
C3287 C19 0.959 . S
C3317 C4 0.486 . S
C3322 C745 0.409 . S
C3347 C54 1.026 . S
C3352 C631 0.989 . S
C3382 C905 1.766 . S
C3377 C334 1.922 . S
C3407 C165 1.420 . S
C3412 C386 1.476 . S
C3442 C954 1.758 1_556 S
C3437 C306 1.868 . S
C3467 C130 0.362 . S
C3472 C471 0.352 . S
C3497 C327 1.598 . S
C3502 C675 1.770 . S
C3532 C545 2.044 . S
C3527 C158 1.992 . S
C3557 C299 1.081 . S
C3562 C746 1.176 . S
C3592 C625 1.440 . S
C3587 C137 1.560 . S
C3622 C906 2.218 . S
C3617 C250 2.223 . S
C3652 C514 1.442 . S
C3647 C222 1.500 . S
C3677 C235 2.111 . S
C3682 C706 2.135 . S
C3712 C591 0.784 . S
C3707 C187 0.769 . S
C3737 C207 2.329 . S
C3742 C626 2.353 . S
C3767 C173 0.855 . S
C3772 C942 0.853 . S
C3802 C785 2.382 . S
C3797 C228 2.409 . S
C3832 C831 1.018 . S
C3827 C270 1.034 . S
