# Generated by pormake.
# Topology gar, (4,6)-cn, num edge types: 1
# Building blocks:
#     Node 0, Type 0, BuildingBlock: NAHDIM_clean_sbu_0, # of connection points: 4
#     Node 1, Type 0, BuildingBlock: NAHDIM_clean_sbu_0, # of connection points: 4
#     Node 2, Type 0, BuildingBlock: NAHDIM_clean_sbu_0, # of connection points: 4
#     Node 3, Type 0, BuildingBlock: NAHDIM_clean_sbu_0, # of connection points: 4
#     Node 4, Type 0, BuildingBlock: NAHDIM_clean_sbu_0, # of connection points: 4
#     Node 5, Type 0, BuildingBlock: NAHDIM_clean_sbu_0, # of connection points: 4
#     Node 6, Type 0, BuildingBlock: NAHDIM_clean_sbu_0, # of connection points: 4
#     Node 7, Type 0, BuildingBlock: NAHDIM_clean_sbu_0, # of connection points: 4
#     Node 8, Type 0, BuildingBlock: NAHDIM_clean_sbu_0, # of connection points: 4
#     Node 9, Type 0, BuildingBlock: NAHDIM_clean_sbu_0, # of connection points: 4
#     Node 10, Type 0, BuildingBlock: NAHDIM_clean_sbu_0, # of connection points: 4
#     Node 11, Type 0, BuildingBlock: NAHDIM_clean_sbu_0, # of connection points: 4
#     Node 12, Type 0, BuildingBlock: NAHDIM_clean_sbu_0, # of connection points: 4
#     Node 13, Type 0, BuildingBlock: NAHDIM_clean_sbu_0, # of connection points: 4
#     Node 14, Type 0, BuildingBlock: NAHDIM_clean_sbu_0, # of connection points: 4
#     Node 15, Type 0, BuildingBlock: NAHDIM_clean_sbu_0, # of connection points: 4
#     Node 16, Type 0, BuildingBlock: NAHDIM_clean_sbu_0, # of connection points: 4
#     Node 17, Type 0, BuildingBlock: NAHDIM_clean_sbu_0, # of connection points: 4
#     Node 18, Type 0, BuildingBlock: NAHDIM_clean_sbu_0, # of connection points: 4
#     Node 19, Type 0, BuildingBlock: NAHDIM_clean_sbu_0, # of connection points: 4
#     Node 20, Type 0, BuildingBlock: NAHDIM_clean_sbu_0, # of connection points: 4
#     Node 21, Type 0, BuildingBlock: NAHDIM_clean_sbu_0, # of connection points: 4
#     Node 22, Type 0, BuildingBlock: NAHDIM_clean_sbu_0, # of connection points: 4
#     Node 23, Type 0, BuildingBlock: NAHDIM_clean_sbu_0, # of connection points: 4
#     Node 24, Type 1, BuildingBlock: PAMTUU_clean_sbu_0, # of connection points: 6
#     Node 25, Type 1, BuildingBlock: PAMTUU_clean_sbu_0, # of connection points: 6
#     Node 26, Type 1, BuildingBlock: PAMTUU_clean_sbu_0, # of connection points: 6
#     Node 27, Type 1, BuildingBlock: PAMTUU_clean_sbu_0, # of connection points: 6
#     Node 28, Type 1, BuildingBlock: PAMTUU_clean_sbu_0, # of connection points: 6
#     Node 29, Type 1, BuildingBlock: PAMTUU_clean_sbu_0, # of connection points: 6
#     Node 30, Type 1, BuildingBlock: PAMTUU_clean_sbu_0, # of connection points: 6
#     Node 31, Type 1, BuildingBlock: PAMTUU_clean_sbu_0, # of connection points: 6
#     Node 32, Type 1, BuildingBlock: PAMTUU_clean_sbu_0, # of connection points: 6
#     Node 33, Type 1, BuildingBlock: PAMTUU_clean_sbu_0, # of connection points: 6
#     Node 34, Type 1, BuildingBlock: PAMTUU_clean_sbu_0, # of connection points: 6
#     Node 35, Type 1, BuildingBlock: PAMTUU_clean_sbu_0, # of connection points: 6
#     Node 36, Type 1, BuildingBlock: PAMTUU_clean_sbu_0, # of connection points: 6
#     Node 37, Type 1, BuildingBlock: PAMTUU_clean_sbu_0, # of connection points: 6
#     Node 38, Type 1, BuildingBlock: PAMTUU_clean_sbu_0, # of connection points: 6
#     Node 39, Type 1, BuildingBlock: PAMTUU_clean_sbu_0, # of connection points: 6
#     Edge 40, Type (0, 1), BuildingBlock: AJUNOK_clean_linker_0, # of connection points: 2
#     Edge 41, Type (0, 1), BuildingBlock: AJUNOK_clean_linker_0, # of connection points: 2
#     Edge 42, Type (0, 1), BuildingBlock: AJUNOK_clean_linker_0, # of connection points: 2
#     Edge 43, Type (0, 1), BuildingBlock: AJUNOK_clean_linker_0, # of connection points: 2
#     Edge 44, Type (0, 1), BuildingBlock: AJUNOK_clean_linker_0, # of connection points: 2
#     Edge 45, Type (0, 1), BuildingBlock: AJUNOK_clean_linker_0, # of connection points: 2
#     Edge 46, Type (0, 1), BuildingBlock: AJUNOK_clean_linker_0, # of connection points: 2
#     Edge 47, Type (0, 1), BuildingBlock: AJUNOK_clean_linker_0, # of connection points: 2
#     Edge 48, Type (0, 1), BuildingBlock: AJUNOK_clean_linker_0, # of connection points: 2
#     Edge 49, Type (0, 1), BuildingBlock: AJUNOK_clean_linker_0, # of connection points: 2
#     Edge 50, Type (0, 1), BuildingBlock: AJUNOK_clean_linker_0, # of connection points: 2
#     Edge 51, Type (0, 1), BuildingBlock: AJUNOK_clean_linker_0, # of connection points: 2
#     Edge 52, Type (0, 1), BuildingBlock: AJUNOK_clean_linker_0, # of connection points: 2
#     Edge 53, Type (0, 1), BuildingBlock: AJUNOK_clean_linker_0, # of connection points: 2
#     Edge 54, Type (0, 1), BuildingBlock: AJUNOK_clean_linker_0, # of connection points: 2
#     Edge 55, Type (0, 1), BuildingBlock: AJUNOK_clean_linker_0, # of connection points: 2
#     Edge 56, Type (0, 1), BuildingBlock: AJUNOK_clean_linker_0, # of connection points: 2
#     Edge 57, Type (0, 1), BuildingBlock: AJUNOK_clean_linker_0, # of connection points: 2
#     Edge 58, Type (0, 1), BuildingBlock: AJUNOK_clean_linker_0, # of connection points: 2
#     Edge 59, Type (0, 1), BuildingBlock: AJUNOK_clean_linker_0, # of connection points: 2
#     Edge 60, Type (0, 1), BuildingBlock: AJUNOK_clean_linker_0, # of connection points: 2
#     Edge 61, Type (0, 1), BuildingBlock: AJUNOK_clean_linker_0, # of connection points: 2
#     Edge 62, Type (0, 1), BuildingBlock: AJUNOK_clean_linker_0, # of connection points: 2
#     Edge 63, Type (0, 1), BuildingBlock: AJUNOK_clean_linker_0, # of connection points: 2
#     Edge 64, Type (0, 1), BuildingBlock: AJUNOK_clean_linker_0, # of connection points: 2
#     Edge 65, Type (0, 1), BuildingBlock: AJUNOK_clean_linker_0, # of connection points: 2
#     Edge 66, Type (0, 1), BuildingBlock: AJUNOK_clean_linker_0, # of connection points: 2
#     Edge 67, Type (0, 1), BuildingBlock: AJUNOK_clean_linker_0, # of connection points: 2
#     Edge 68, Type (0, 1), BuildingBlock: AJUNOK_clean_linker_0, # of connection points: 2
#     Edge 69, Type (0, 1), BuildingBlock: AJUNOK_clean_linker_0, # of connection points: 2
#     Edge 70, Type (0, 1), BuildingBlock: AJUNOK_clean_linker_0, # of connection points: 2
#     Edge 71, Type (0, 1), BuildingBlock: AJUNOK_clean_linker_0, # of connection points: 2
#     Edge 72, Type (0, 1), BuildingBlock: AJUNOK_clean_linker_0, # of connection points: 2
#     Edge 73, Type (0, 1), BuildingBlock: AJUNOK_clean_linker_0, # of connection points: 2
#     Edge 74, Type (0, 1), BuildingBlock: AJUNOK_clean_linker_0, # of connection points: 2
#     Edge 75, Type (0, 1), BuildingBlock: AJUNOK_clean_linker_0, # of connection points: 2
#     Edge 76, Type (0, 1), BuildingBlock: AJUNOK_clean_linker_0, # of connection points: 2
#     Edge 77, Type (0, 1), BuildingBlock: AJUNOK_clean_linker_0, # of connection points: 2
#     Edge 78, Type (0, 1), BuildingBlock: AJUNOK_clean_linker_0, # of connection points: 2
#     Edge 79, Type (0, 1), BuildingBlock: AJUNOK_clean_linker_0, # of connection points: 2
#     Edge 80, Type (0, 1), BuildingBlock: AJUNOK_clean_linker_0, # of connection points: 2
#     Edge 81, Type (0, 1), BuildingBlock: AJUNOK_clean_linker_0, # of connection points: 2
#     Edge 82, Type (0, 1), BuildingBlock: AJUNOK_clean_linker_0, # of connection points: 2
#     Edge 83, Type (0, 1), BuildingBlock: AJUNOK_clean_linker_0, # of connection points: 2
#     Edge 84, Type (0, 1), BuildingBlock: AJUNOK_clean_linker_0, # of connection points: 2
#     Edge 85, Type (0, 1), BuildingBlock: AJUNOK_clean_linker_0, # of connection points: 2
#     Edge 86, Type (0, 1), BuildingBlock: AJUNOK_clean_linker_0, # of connection points: 2
#     Edge 87, Type (0, 1), BuildingBlock: AJUNOK_clean_linker_0, # of connection points: 2
#     Edge 88, Type (0, 1), BuildingBlock: AJUNOK_clean_linker_0, # of connection points: 2
#     Edge 89, Type (0, 1), BuildingBlock: AJUNOK_clean_linker_0, # of connection points: 2
#     Edge 90, Type (0, 1), BuildingBlock: AJUNOK_clean_linker_0, # of connection points: 2
#     Edge 91, Type (0, 1), BuildingBlock: AJUNOK_clean_linker_0, # of connection points: 2
#     Edge 92, Type (0, 1), BuildingBlock: AJUNOK_clean_linker_0, # of connection points: 2
#     Edge 93, Type (0, 1), BuildingBlock: AJUNOK_clean_linker_0, # of connection points: 2
#     Edge 94, Type (0, 1), BuildingBlock: AJUNOK_clean_linker_0, # of connection points: 2
#     Edge 95, Type (0, 1), BuildingBlock: AJUNOK_clean_linker_0, # of connection points: 2
#     Edge 96, Type (0, 1), BuildingBlock: AJUNOK_clean_linker_0, # of connection points: 2
#     Edge 97, Type (0, 1), BuildingBlock: AJUNOK_clean_linker_0, # of connection points: 2
#     Edge 98, Type (0, 1), BuildingBlock: AJUNOK_clean_linker_0, # of connection points: 2
#     Edge 99, Type (0, 1), BuildingBlock: AJUNOK_clean_linker_0, # of connection points: 2
#     Edge 100, Type (0, 1), BuildingBlock: AJUNOK_clean_linker_0, # of connection points: 2
#     Edge 101, Type (0, 1), BuildingBlock: AJUNOK_clean_linker_0, # of connection points: 2
#     Edge 102, Type (0, 1), BuildingBlock: AJUNOK_clean_linker_0, # of connection points: 2
#     Edge 103, Type (0, 1), BuildingBlock: AJUNOK_clean_linker_0, # of connection points: 2
#     Edge 104, Type (0, 1), BuildingBlock: AJUNOK_clean_linker_0, # of connection points: 2
#     Edge 105, Type (0, 1), BuildingBlock: AJUNOK_clean_linker_0, # of connection points: 2
#     Edge 106, Type (0, 1), BuildingBlock: AJUNOK_clean_linker_0, # of connection points: 2
#     Edge 107, Type (0, 1), BuildingBlock: AJUNOK_clean_linker_0, # of connection points: 2
#     Edge 108, Type (0, 1), BuildingBlock: AJUNOK_clean_linker_0, # of connection points: 2
#     Edge 109, Type (0, 1), BuildingBlock: AJUNOK_clean_linker_0, # of connection points: 2
#     Edge 110, Type (0, 1), BuildingBlock: AJUNOK_clean_linker_0, # of connection points: 2
#     Edge 111, Type (0, 1), BuildingBlock: AJUNOK_clean_linker_0, # of connection points: 2
#     Edge 112, Type (0, 1), BuildingBlock: AJUNOK_clean_linker_0, # of connection points: 2
#     Edge 113, Type (0, 1), BuildingBlock: AJUNOK_clean_linker_0, # of connection points: 2
#     Edge 114, Type (0, 1), BuildingBlock: AJUNOK_clean_linker_0, # of connection points: 2
#     Edge 115, Type (0, 1), BuildingBlock: AJUNOK_clean_linker_0, # of connection points: 2
#     Edge 116, Type (0, 1), BuildingBlock: AJUNOK_clean_linker_0, # of connection points: 2
#     Edge 117, Type (0, 1), BuildingBlock: AJUNOK_clean_linker_0, # of connection points: 2
#     Edge 118, Type (0, 1), BuildingBlock: AJUNOK_clean_linker_0, # of connection points: 2
#     Edge 119, Type (0, 1), BuildingBlock: AJUNOK_clean_linker_0, # of connection points: 2
#     Edge 120, Type (0, 1), BuildingBlock: AJUNOK_clean_linker_0, # of connection points: 2
#     Edge 121, Type (0, 1), BuildingBlock: AJUNOK_clean_linker_0, # of connection points: 2
#     Edge 122, Type (0, 1), BuildingBlock: AJUNOK_clean_linker_0, # of connection points: 2
#     Edge 123, Type (0, 1), BuildingBlock: AJUNOK_clean_linker_0, # of connection points: 2
#     Edge 124, Type (0, 1), BuildingBlock: AJUNOK_clean_linker_0, # of connection points: 2
#     Edge 125, Type (0, 1), BuildingBlock: AJUNOK_clean_linker_0, # of connection points: 2
#     Edge 126, Type (0, 1), BuildingBlock: AJUNOK_clean_linker_0, # of connection points: 2
#     Edge 127, Type (0, 1), BuildingBlock: AJUNOK_clean_linker_0, # of connection points: 2
#     Edge 128, Type (0, 1), BuildingBlock: AJUNOK_clean_linker_0, # of connection points: 2
#     Edge 129, Type (0, 1), BuildingBlock: AJUNOK_clean_linker_0, # of connection points: 2
#     Edge 130, Type (0, 1), BuildingBlock: AJUNOK_clean_linker_0, # of connection points: 2
#     Edge 131, Type (0, 1), BuildingBlock: AJUNOK_clean_linker_0, # of connection points: 2
#     Edge 132, Type (0, 1), BuildingBlock: AJUNOK_clean_linker_0, # of connection points: 2
#     Edge 133, Type (0, 1), BuildingBlock: AJUNOK_clean_linker_0, # of connection points: 2
#     Edge 134, Type (0, 1), BuildingBlock: AJUNOK_clean_linker_0, # of connection points: 2
#     Edge 135, Type (0, 1), BuildingBlock: AJUNOK_clean_linker_0, # of connection points: 2
# Relax obj value: 0.250
# Max RMSD: 0.377
# Mean RMSD: 0.198
data_MOF--net-gar--node1-NAHDIM_clean_sbu_0--node2-PAMTUU_clean_sbu_0--edge1-AJUNOK_clean_linker_0
_symmetry_space_group_name_H-M    P1
_symmetry_Int_Tables_number       1
_symmetry_cell_setting            triclinic
loop_
_symmetry_equiv_pos_as_xyz
'x, y, z'
_cell_length_a     45.694514
_cell_length_b     41.741987
_cell_length_c     43.931457
_cell_angle_alpha  93.900655
_cell_angle_beta   95.030054
_cell_angle_gamma 108.60327
loop_
_atom_site_label
_atom_site_type_symbol
_atom_site_fract_x
_atom_site_fract_y
_atom_site_fract_z
_atom_type_partial_charge
C0 C 0.17757 0.3378 0.39451 0.0
O1 O 0.187 0.36095 0.41825 0.0
O2 O 0.10173 0.27793 0.45217 0.0
Zn3 Zn 0.10516 0.32068 0.41995 0.0
O4 O 0.11441 0.37211 0.4471 0.0
C5 C 1.04226 0.3347 0.3848 0.0
O6 O 0.06037 0.36652 0.38707 0.0
O7 O 0.14746 0.32058 0.39045 0.0
C8 C 0.0967 0.38031 0.46574 0.0
O9 O 0.07173 0.35593 0.47092 0.0
C10 C 0.10107 0.24666 0.44538 0.0
O11 O 0.10208 0.23768 0.41634 0.0
O12 O 0.05509 0.31263 0.39459 0.0
C13 C 1.03076 0.84591 0.73262 0.0
O14 O 1.04242 0.87738 0.72607 0.0
O15 O 0.08709 0.7819 0.67367 0.0
Zn16 Zn 0.09342 0.83224 0.70088 0.0
O17 O 0.09865 0.87653 0.67006 0.0
C18 C 0.16747 0.83731 0.7208 0.0
O19 O 0.1693 0.83883 0.69125 0.0
O20 O 0.04682 0.82556 0.72585 0.0
C21 C 0.10234 0.9084 0.67828 0.0
O22 O 0.10384 0.91676 0.70788 0.0
C23 C 0.1004 0.77482 0.65034 0.0
O24 O 0.11858 0.80057 0.63804 0.0
O25 O 0.14063 0.83623 0.73031 0.0
C26 C 0.67158 0.8184 0.89336 0.0
O27 O 0.67099 0.796 0.91309 0.0
O28 O 0.60087 0.77318 0.94564 0.0
Zn29 Zn 0.60361 0.82147 0.92067 0.0
O30 O 0.60729 0.86733 0.95437 0.0
C31 C 0.53415 0.82742 0.89707 0.0
O32 O 0.5395 0.84761 0.92263 0.0
O33 O 0.6484 0.83106 0.89241 0.0
C34 C 0.60451 0.89625 0.94759 0.0
O35 O 0.60139 0.90042 0.91825 0.0
C36 C 0.5915 0.76288 0.97168 0.0
O37 O 0.58079 0.78303 0.98836 0.0
O38 O 0.55574 0.81398 0.89126 0.0
C39 C 0.53032 0.34375 0.23071 0.0
O40 O 0.53861 0.37286 0.21875 0.0
O41 O 0.58675 0.2841 0.17035 0.0
Zn42 Zn 0.59355 0.33258 0.20083 0.0
O43 O 0.59689 0.37768 0.1709 0.0
C44 C 0.65453 0.3198 0.24325 0.0
O45 O 0.63411 0.29303 0.25201 0.0
O46 O 0.54851 0.32501 0.2275 0.0
C47 C 0.60105 0.40985 0.17864 0.0
O48 O 0.60455 0.41947 0.2082 0.0
C49 C 0.58316 0.25412 0.17926 0.0
O50 O 0.58136 0.25122 0.20867 0.0
O51 O 0.64344 0.33868 0.22584 0.0
C52 C 0.09323 0.82591 0.17054 0.0
O53 O 0.08623 0.80391 0.14603 0.0
O54 O 0.13964 0.80703 0.11791 0.0
Zn55 Zn 0.15178 0.85302 0.14478 0.0
O56 O 0.15238 0.89581 0.12328 0.0
C57 C 0.19082 0.8364 0.18921 0.0
O58 O 0.16361 0.81322 0.18997 0.0
O59 O 0.11974 0.84886 0.17475 0.0
C60 C 0.12677 0.89782 0.11094 0.0
O61 O 0.10171 0.87098 0.10913 0.0
C62 C 0.15938 0.79257 0.11131 0.0
O63 O 0.18913 0.80965 0.11797 0.0
O64 O 0.19285 0.85883 0.17054 0.0
C65 C 0.60434 0.83243 0.43748 0.0
O66 O 0.61117 0.85465 0.46185 0.0
O67 O 0.54568 0.75926 0.48307 0.0
Zn68 Zn 0.545 0.80156 0.46176 0.0
O69 O 0.55385 0.84561 0.49046 0.0
C70 C 0.48125 0.79895 0.44272 0.0
O71 O 0.48221 0.80846 0.47202 0.0
O72 O 0.5782 0.80893 0.43353 0.0
C73 C 0.54883 0.87067 0.4785 0.0
O74 O 0.53852 0.86682 0.44917 0.0
C75 C 0.5705 0.7594 0.49892 0.0
O76 O 0.59423 0.78774 0.50327 0.0
O77 O 0.50477 0.79295 0.43348 0.0
C78 C 0.59444 0.32772 0.66044 0.0
O79 O 0.58705 0.30993 0.63342 0.0
O80 O 0.64203 0.30335 0.61331 0.0
Zn81 Zn 0.65478 0.35011 0.63857 0.0
O82 O 0.65588 0.39207 0.61513 0.0
C83 C 0.69621 0.34181 0.68807 0.0
O84 O 0.66924 0.32581 0.69722 0.0
O85 O 0.62242 0.34669 0.66818 0.0
C86 C 0.63081 0.39491 0.60218 0.0
O87 O 0.60509 0.36899 0.60091 0.0
C88 C 0.66199 0.2887 0.60825 0.0
O89 O 0.6916 0.30593 0.61559 0.0
O90 O 0.69667 0.35626 0.66342 0.0
C91 C 0.10417 0.31411 0.94389 0.0
O92 O 0.11117 0.31727 0.97383 0.0
O93 O 0.04708 0.26493 0.98735 0.0
Zn94 Zn 1.04295 0.3025 0.96077 0.0
O95 O 0.05342 0.34937 0.98531 0.0
C96 C 0.97796 0.29629 0.93748 0.0
O97 O 0.97701 0.30989 0.96508 0.0
O98 O 0.07604 0.30783 0.93295 0.0
C99 C 0.04835 0.37385 0.97238 0.0
O100 O 1.03447 0.36789 0.94411 0.0
C101 C 1.03564 0.23339 0.97788 0.0
O102 O 1.01764 0.22426 0.95162 0.0
O103 O 1.0025 0.29002 0.93168 0.0
C104 C 0.41583 0.11452 0.33078 0.0
O105 O 0.42963 0.10825 0.30719 0.0
O106 O 0.4847 0.09701 0.32355 0.0
Zn107 Zn 0.45971 0.09022 0.35918 0.0
O108 O 0.48852 0.10113 0.39757 0.0
C109 C 0.42369 0.02524 0.32979 0.0
O110 O 0.42926 0.0416 0.30535 0.0
O111 O 0.42755 0.11292 0.35764 0.0
C112 C 0.50591 0.0827 0.39806 0.0
O113 O 0.50247 0.06003 0.37461 0.0
C114 C 0.51333 0.11388 0.32399 0.0
O115 O 0.52891 0.13186 0.34942 0.0
O116 O 0.43509 0.04089 0.35613 0.0
C117 C 0.3945 0.23076 0.56976 0.0
O118 O 0.40093 0.25836 0.58876 0.0
O119 O 0.35002 0.27923 0.59079 0.0
Zn120 Zn 0.34207 0.25089 0.54811 0.0
O121 O 0.34492 0.2744 0.50773 0.0
C122 C 0.29113 0.19578 0.56452 0.0
O123 O 0.31183 0.19668 0.58759 0.0
O124 O 0.37126 0.22318 0.54929 0.0
C125 C 0.36799 0.28061 0.49196 0.0
O126 O 0.39379 0.27632 0.5036 0.0
C127 C 0.32855 0.28162 0.60669 0.0
O128 O 0.29966 0.27053 0.59368 0.0
O129 O 0.29874 0.21684 0.54466 0.0
C130 C 0.24813 1.01952 0.8288 0.0
O131 O 0.22029 1.00997 0.81343 0.0
O132 O 0.19354 0.05858 0.82746 0.0
Zn133 Zn 0.22596 0.06508 0.86289 0.0
O134 O 0.20735 0.0556 0.90178 0.0
C135 C 0.24157 0.13502 0.85218 0.0
O136 O 0.21205 0.12541 0.8414 0.0
O137 O 0.25421 0.0397 0.85313 0.0
C138 C 0.18689 0.06974 0.90499 0.0
O139 O 0.18082 0.08803 0.88372 0.0
C140 C 0.16446 0.04382 0.82182 0.0
O141 O 0.14927 0.02504 0.84188 0.0
O142 O 0.25236 0.11396 0.86471 0.0
C143 C 0.29543 1.00099 0.04801 0.0
O144 O 0.28755 0.97079 0.05799 0.0
O145 O 0.33742 0.94556 0.05121 0.0
Zn146 Zn 0.33745 0.97636 0.01779 0.0
O147 O 0.32434 0.95102 0.97611 0.0
C148 C 0.39594 1.01637 0.04517 0.0
O149 O 0.38013 1.01299 0.069 0.0
O150 O 0.31475 1.00805 0.02845 0.0
C151 C 0.34146 0.93308 0.97085 0.0
O152 O 0.36277 0.93228 0.99264 0.0
C153 C 0.3247 0.91376 0.05153 0.0
O154 O 0.30721 0.89567 0.02698 0.0
O155 O 0.38175 1.00416 0.01873 0.0
C156 C 0.30719 0.41542 0.04498 0.0
O157 O 0.29262 0.384 0.03304 0.0
O158 O 0.35287 0.37115 0.10053 0.0
Zn159 Zn 0.36126 0.39348 0.05968 0.0
O160 O 0.35321 0.36441 0.01738 0.0
C161 C 0.42684 0.42668 0.04873 0.0
O162 O 0.42335 0.40013 0.02919 0.0
O163 O 0.33519 0.42357 0.05687 0.0
C164 C 0.35938 0.38185 0.99446 0.0
O165 O 0.36934 0.41515 0.99951 0.0
C166 C 0.35655 0.39166 0.12474 0.0
O167 O 0.36601 0.42442 0.12193 0.0
O168 O 0.40477 0.42728 0.06426 0.0
C169 C 0.84721 0.10219 0.06647 0.0
O170 O 0.82377 0.106 0.04929 0.0
O171 O 0.85143 0.18207 0.14167 0.0
Zn172 Zn 0.83653 0.15383 0.10097 0.0
O173 O 0.833 0.18272 0.06655 0.0
C174 C 0.77757 0.11218 0.12297 0.0
O175 O 0.78955 0.12072 0.15183 0.0
O176 O 0.85952 0.12263 0.09039 0.0
C177 C 0.80631 0.18432 0.05727 0.0
O178 O 0.78232 0.16863 0.0712 0.0
C179 C 0.83218 0.1962 0.14998 0.0
O180 O 0.80705 0.19268 0.13135 0.0
O181 O 0.79406 0.12268 0.10176 0.0
C182 C 0.23317 0.53974 0.31715 0.0
O183 O 0.22441 0.56216 0.33305 0.0
O184 O 0.18086 0.53407 0.22651 0.0
Zn185 Zn 0.18972 0.54737 0.27118 0.0
O186 O 0.1502 0.53844 0.28957 0.0
C187 C 0.23483 0.61008 0.26353 0.0
O188 O 0.24188 0.59052 0.2427 0.0
O189 O 0.21926 0.52708 0.29063 0.0
C190 C 0.13144 0.55271 0.27853 0.0
O191 O 0.13796 0.56968 0.25452 0.0
C192 C 0.1561 0.511 0.21483 0.0
O193 O 0.1377 0.49241 0.23291 0.0
O194 O 0.21188 0.59728 0.2782 0.0
C195 C 0.80804 0.91125 0.54213 0.0
O196 O 0.79725 0.88066 0.52734 0.0
O197 O 0.85994 0.87179 0.60157 0.0
Zn198 Zn 0.86283 0.89234 0.55904 0.0
O199 O 0.85468 0.86295 0.51679 0.0
C200 C 0.92321 0.94244 0.58236 0.0
O201 O 0.91362 0.93737 0.6095 0.0
O202 O 0.8348 0.92085 0.5574 0.0
C203 C 0.85717 0.88138 0.49433 0.0
O204 O 0.86346 0.91425 0.50079 0.0
C205 C 0.83628 0.86826 0.61629 0.0
O206 O 0.81183 0.87366 0.60257 0.0
O207 O 0.90576 0.92577 0.55862 0.0
C208 C 0.95677 0.13315 0.29296 0.0
O209 O 0.98612 0.15227 0.29572 0.0
O210 O 0.98122 0.08522 0.21878 0.0
Zn211 Zn 0.97809 0.08242 0.26306 0.0
O212 O 1.02005 0.09796 0.28713 0.0
C213 C 0.94187 1.01265 0.24917 0.0
O214 O 0.93173 1.02316 0.2241 0.0
O215 O 0.94859 0.1035 0.27918 0.0
C216 C 1.03729 0.08077 0.27965 0.0
O217 O 1.02863 0.05987 0.25433 0.0
C218 C 1.00029 0.11038 0.20886 0.0
O219 O 1.01557 0.13716 0.22819 0.0
O220 O 0.96147 0.03389 0.26904 0.0
C221 C 0.37019 0.60935 0.56548 0.0
O222 O 0.34322 0.60946 0.55247 0.0
O223 O 0.36838 0.67925 0.64755 0.0
Zn224 Zn 0.35581 0.65468 0.60524 0.0
O225 O 0.35429 0.68643 0.57357 0.0
C226 C 0.29321 0.62772 0.62095 0.0
O227 O 0.30397 0.64573 0.64762 0.0
O228 O 0.3815 0.62723 0.591 0.0
C229 C 0.33709 0.70499 0.57502 0.0
O230 O 0.32358 0.70728 0.59988 0.0
C231 C 0.3833 0.71087 0.65145 0.0
O232 O 0.39477 0.72614 0.62788 0.0
O233 O 0.31176 0.62541 0.60177 0.0
C234 C 0.44646 0.61882 0.78164 0.0
O235 O 0.46988 0.62172 0.80244 0.0
O236 O 0.48979 0.58685 0.70388 0.0
Zn237 Zn 0.47679 0.58289 0.74603 0.0
O238 O 0.51378 0.59588 0.77775 0.0
C239 C 0.44584 0.52634 0.77674 0.0
O240 O 0.45124 0.54988 0.79985 0.0
O241 O 0.4466 0.60657 0.75446 0.0
C242 C 0.52948 0.57566 0.77783 0.0
O243 O 0.52289 0.55122 0.75527 0.0
C244 C 0.48482 0.5598 0.68628 0.0
O245 O 0.46952 0.53032 0.69518 0.0
O246 O 0.45439 0.53463 0.75092 0.0
C247 C 0.73777 1.01122 0.82372 0.0
O248 O 0.71469 1.01687 0.83641 0.0
O249 O 0.68974 1.01347 0.7336 0.0
Zn250 Zn 0.71685 0.0395 0.77108 0.0
O251 O 0.69465 0.06059 0.79923 0.0
C252 C 0.73675 0.10078 0.74567 0.0
O253 O 0.70647 0.09199 0.73896 0.0
O254 O 0.74044 1.01553 0.79556 0.0
C255 C 0.71203 0.08535 0.81787 0.0
O256 O 0.7423 0.09429 0.81772 0.0
C257 C 0.66165 1.01258 0.72957 0.0
O258 O 0.64884 1.0205 0.75333 0.0
O259 O 0.74794 0.0794 0.75696 0.0
C260 C 0.89339 0.72945 0.062 0.0
O261 O 0.90406 0.75976 0.07737 0.0
O262 O 0.84375 0.77449 0.08857 0.0
Zn263 Zn 0.83769 0.74718 0.04543 0.0
O264 O 0.84371 0.7726 1.00596 0.0
C265 C 0.77155 0.72086 0.04578 0.0
O266 O 0.7754 0.75338 0.0512 0.0
O267 O 0.86655 0.71993 0.04698 0.0
C268 C 0.84312 0.75486 0.98078 0.0
O269 O 0.83863 0.72226 0.98167 0.0
C270 C 0.83178 0.75726 0.1101 0.0
O271 O 0.81677 0.72464 0.10355 0.0
O272 O 0.79499 0.71204 0.04088 0.0
C273 C 0.92607 0.62376 0.86959 0.0
O274 O 0.95504 0.64394 0.8726 0.0
O275 O 0.96708 0.58664 0.82161 0.0
Zn276 Zn 0.95572 0.57627 0.8636 0.0
O277 O 0.99224 0.59707 0.89435 0.0
C278 C 0.95095 0.50882 0.84436 0.0
O279 O 0.97369 0.52466 0.82892 0.0
O280 O 0.92076 0.59233 0.87082 0.0
C281 C 1.01877 0.59661 0.8883 0.0
O282 O 1.0215 0.58253 0.86152 0.0
C283 C 0.98746 0.61291 0.81456 0.0
O284 O 1.0018 0.63806 0.83582 0.0
O285 O 0.94062 0.52604 0.86294 0.0
C286 C 0.7996 0.50937 0.52852 0.0
O287 O 0.78165 0.47804 0.5196 0.0
O288 O 0.85293 0.45654 0.5483 0.0
Zn289 Zn 0.85004 0.48559 0.51469 0.0
O290 O 0.83186 0.45748 0.47506 0.0
C291 C 0.91292 0.50123 0.50254 0.0
O292 O 0.90336 0.47011 0.48885 0.0
O293 O 0.82856 0.51745 0.52728 0.0
C294 C 0.83787 0.46891 0.44949 0.0
O295 O 0.85405 0.50114 0.44914 0.0
C296 C 0.85619 0.42758 0.54362 0.0
O297 O 0.85401 0.41388 0.51534 0.0
O298 O 0.8934 0.51367 0.51277 0.0
C299 C 0.73815 0.50773 0.31727 0.0
O300 O 0.70806 0.49241 0.31093 0.0
O301 O 0.6829 0.55034 0.32141 0.0
Zn302 Zn 0.7215 0.55958 0.35064 0.0
O303 O 0.71018 0.5503 0.39256 0.0
C304 C 0.73758 0.63298 0.35558 0.0
O305 O 0.71029 0.62828 0.36529 0.0
O306 O 0.74839 0.53492 0.33515 0.0
C307 C 0.7234 0.57012 0.41655 0.0
O308 O 0.74821 0.59629 0.41463 0.0
C309 C 0.65825 0.55426 0.32986 0.0
O310 O 0.65723 0.56239 0.35907 0.0
O311 O 0.74638 0.60767 0.34945 0.0
Tb312 Tb 0.11971 0.10121 0.07435 0.0
Tb313 Tb 0.05587 0.04729 0.03765 0.0
C314 C 0.05752 0.08563 0.10169 0.0
C315 C 0.20078 0.13405 0.10471 0.0
C316 C 0.24525 0.10191 0.09679 0.0
C317 C 0.22944 0.09789 0.12299 0.0
C318 C 0.20734 0.11389 0.12698 0.0
C319 C 0.21993 0.14196 0.08104 0.0
C320 C 0.24172 0.12564 0.07687 0.0
C321 C 0.17052 0.13993 0.10186 0.0
O322 O 0.1153 0.05095 0.09018 0.0
O323 O 0.08541 1.01704 0.04819 0.0
O324 O 0.08868 0.06078 1.00431 0.0
O325 O 0.13412 0.07627 0.03673 0.0
O326 O 1.02002 1.00065 0.03623 0.0
O327 O 1.02111 0.03316 1.0 0.0
O328 O 0.04975 0.09687 0.03607 0.0
O329 O 0.10108 0.12996 0.04244 0.0
O330 O 0.08251 0.10966 0.09674 0.0
O331 O 0.04854 0.05593 0.08541 0.0
C332 C 0.10425 1.02118 0.07352 0.0
O333 O 0.15994 0.14293 0.07399 0.0
O334 O 0.14876 0.11997 0.11584 0.0
C335 C 0.11877 0.06681 1.0093 0.0
C336 C 0.97439 1.01068 0.02002 0.0
C337 C 0.91958 1.02095 0.03494 0.0
C338 C 0.91826 0.99562 0.01154 0.0
C339 C 0.94576 0.99024 1.00426 0.0
C340 C 0.9754 0.03608 0.04293 0.0
C341 C 0.94838 0.04104 0.05046 0.0
C342 C 1.00408 1.00766 0.01304 0.0
C343 C 0.07163 0.12578 0.0339 0.0
H344 H 0.23234 0.08021 0.139 0.0
H345 H 0.19346 0.1079 0.14588 0.0
H346 H 0.21587 0.15795 0.06384 0.0
H347 H 0.25348 0.12913 0.05637 0.0
H348 H 0.8962 0.98044 0.99887 0.0
H349 H 0.94476 0.97077 0.98622 0.0
H350 H 0.9973 0.0527 0.05471 0.0
H351 H 0.95015 0.06155 0.06778 0.0
Tb352 Tb 0.31551 0.81447 0.34037 0.0
Tb353 Tb 0.35957 0.81659 0.28479 0.0
C354 C 0.29328 0.82607 0.27304 0.0
C355 C 0.28952 0.79155 0.41309 0.0
C356 C 0.30203 0.76129 0.46582 0.0
C357 C 0.27955 0.77787 0.46479 0.0
C358 C 0.27342 0.79305 0.43855 0.0
C359 C 0.31163 0.77474 0.41398 0.0
C360 C 0.31815 0.76022 0.44019 0.0
C361 C 0.28513 0.80874 0.38593 0.0
O362 O 0.31531 0.76332 0.32692 0.0
O363 O 0.32054 0.77029 0.27665 0.0
O364 O 0.38206 0.79825 0.32281 0.0
O365 O 0.36179 0.82047 0.36174 0.0
O366 O 0.37528 0.79169 0.24962 0.0
O367 O 0.39285 0.84622 0.25925 0.0
O368 O 0.37704 0.86402 0.31373 0.0
O369 O 0.33132 0.8666 0.32928 0.0
O370 O 0.28552 0.81389 0.29912 0.0
O371 O 0.3219 0.83372 0.26568 0.0
C372 C 0.31093 0.75064 0.29812 0.0
O373 O 0.30857 0.83552 0.38279 0.0
O374 O 0.27549 0.7889 0.3603 0.0
C375 C 0.38221 0.80719 0.35222 0.0
C376 C 0.38156 0.82518 0.2078 0.0
C377 C 0.36235 0.84822 0.15337 0.0
C378 C 0.34064 0.82437 0.16813 0.0
C379 C 0.35013 0.81313 0.19534 0.0
C380 C 0.40352 0.84721 0.1919 0.0
C381 C 0.39399 0.85866 0.16485 0.0
C382 C 0.39045 0.82042 0.23969 0.0
C383 C 0.35955 0.88144 0.32263 0.0
H384 H 0.26678 0.77908 0.48422 0.0
H385 H 0.25637 0.80611 0.43822 0.0
H386 H 0.32439 0.77347 0.39454 0.0
H387 H 0.33635 0.74875 0.44055 0.0
H388 H 0.31612 0.81615 0.15974 0.0
H389 H 0.33266 0.79662 0.20755 0.0
H390 H 0.42776 0.85715 0.20138 0.0
H391 H 0.41113 0.87688 0.15362 0.0
Tb392 Tb 0.5699 0.07083 0.57381 0.0
Tb393 Tb 0.63816 0.07611 0.55155 0.0
C394 C 0.61875 0.05008 0.61463 0.0
C395 C 0.49989 0.0932 0.58622 0.0
C396 C 0.466 0.13865 0.58176 0.0
C397 C 0.45852 0.11309 0.60178 0.0
C398 C 0.47536 0.09048 0.60396 0.0
C399 C 0.50754 0.11883 0.56633 0.0
C400 C 0.49057 0.14125 0.56397 0.0
C401 C 0.51736 0.06926 0.5884 0.0
O402 O 0.60139 0.1216 0.59151 0.0
O403 O 0.6384 0.1283 0.55812 0.0
O404 O 0.60618 0.07341 0.51125 0.0
O405 O 0.57491 0.09849 0.53388 0.0
O406 O 0.68688 0.09237 0.5611 0.0
O407 O 0.66402 0.06695 0.51688 0.0
O408 O 0.61381 1.022 0.55103 0.0
O409 O 0.56406 0.024 0.54451 0.0
O410 O 0.58919 0.04353 0.60558 0.0
O411 O 0.64071 0.06916 0.60006 0.0
C412 C 0.62461 0.14111 0.57844 0.0
O413 O 0.52169 0.05581 0.56222 0.0
O414 O 0.54266 0.07926 0.6077 0.0
C415 C 0.58512 0.08856 0.50932 0.0
C416 C 0.70744 0.05389 0.53686 0.0
C417 C 0.73992 1.00711 0.53844 0.0
C418 C 0.755 0.04075 0.53266 0.0
C419 C 0.73875 0.06399 0.5317 0.0
C420 C 0.69259 1.02048 0.54338 0.0
C421 C 0.70869 0.99719 0.54401 0.0
C422 C 0.69007 0.07787 0.53496 0.0
C423 C 0.584 1.00728 0.54231 0.0
H424 H 0.4394 0.11036 0.61545 0.0
H425 H 0.46918 0.07083 0.61939 0.0
H426 H 0.52656 0.12143 0.55256 0.0
H427 H 0.49681 0.16084 0.54849 0.0
H428 H 0.77914 0.04882 0.5284 0.0
H429 H 0.75052 0.08972 0.52673 0.0
H430 H 0.66849 1.01234 0.54772 0.0
H431 H 0.69682 0.97148 0.54896 0.0
Tb432 Tb 0.38201 0.31591 0.80615 0.0
Tb433 Tb 0.31643 0.33268 0.79928 0.0
C434 C 0.31942 0.26202 0.81527 0.0
C435 C 0.45705 0.30969 0.7873 0.0
C436 C 0.50168 0.31709 0.7456 0.0
C437 C 0.50336 0.29979 0.77173 0.0
C438 C 0.48115 0.29605 0.79238 0.0
C439 C 0.45548 0.32737 0.76147 0.0
C440 C 0.47767 0.33114 0.74084 0.0
C441 C 0.43335 0.30503 0.80864 0.0
O442 O 0.36089 0.2988 0.7585 0.0
O443 O 0.32944 0.33185 0.75277 0.0
O444 O 0.35434 0.38038 0.80652 0.0
O445 O 0.3908 0.36262 0.78499 0.0
O446 O 0.26938 0.31875 0.78153 0.0
O447 O 0.29214 0.36633 0.80927 0.0
O448 O 0.32498 0.32701 0.84787 0.0
O449 O 0.37799 0.34008 0.85108 0.0
O450 O 0.34898 0.27517 0.82541 0.0
O451 O 0.30527 0.27812 0.79783 0.0
C452 C 0.34428 0.31259 0.74089 0.0
O453 O 0.42989 0.33286 0.82067 0.0
O454 O 0.40665 0.28181 0.79915 0.0
C455 C 0.37998 0.38681 0.79349 0.0
C456 C 0.24088 0.33753 0.81648 0.0
C457 C 0.19643 0.32813 0.8582 0.0
C458 C 0.19582 0.34838 0.83401 0.0
C459 C 0.218 0.35314 0.81333 0.0
C460 C 0.24114 0.31662 0.84014 0.0
C461 C 0.21901 0.3119 0.86084 0.0
C462 C 0.26572 0.34496 0.79653 0.0
C463 C 0.35236 0.33654 0.86424 0.0
H464 H 0.52157 0.28866 0.7759 0.0
H465 H 0.48266 0.28231 0.8122 0.0
H466 H 0.43705 0.33818 0.75726 0.0
H467 H 0.47613 0.34517 0.72124 0.0
H468 H 0.17863 0.36116 0.83156 0.0
H469 H 0.21768 0.36951 0.79528 0.0
H470 H 0.25872 0.30439 0.84284 0.0
H471 H 0.21959 0.29565 0.87894 0.0
Tb472 Tb 0.10279 0.10193 0.59464 0.0
Tb473 Tb 0.09898 0.05528 0.53192 0.0
C474 C 1.04172 0.04352 0.56744 0.0
C475 C 0.09356 0.1248 0.67331 0.0
C476 C 0.10163 0.09862 0.7291 0.0
C477 C 0.08358 0.07694 0.7038 0.0
C478 C 0.07966 0.08999 0.67592 0.0
C479 C 0.10795 0.14698 0.69961 0.0
C480 C 0.11183 0.13393 0.72753 0.0
C481 C 0.10003 0.13607 0.64307 0.0
O482 O 0.10755 0.05473 0.61282 0.0
O483 O 0.10354 1.02073 0.56805 0.0
O484 O 0.14546 0.09278 0.53843 0.0
O485 O 0.15111 0.11056 0.58966 0.0
O486 O 0.07264 1.01992 0.49555 0.0
O487 O 0.1226 0.03662 0.49954 0.0
O488 O 0.09486 0.10224 0.51318 0.0
O489 O 0.0997 0.13626 0.55786 0.0
O490 O 0.06012 0.05984 0.59181 0.0
O491 O 0.05098 0.04687 0.54016 0.0
C492 C 0.10618 0.02492 0.59863 0.0
O493 O 0.12576 0.13302 0.6347 0.0
O494 O 0.07711 0.12471 0.62101 0.0
C495 C 0.16271 0.10921 0.56366 0.0
C496 C 0.09591 0.03263 0.45047 0.0
C497 C 0.09331 0.05447 0.39137 0.0
C498 C 0.1112 0.03359 0.39885 0.0
C499 C 0.11242 1.02267 0.42827 0.0
C500 C 0.07896 0.05438 0.44323 0.0
C501 C 0.07756 0.065 0.41404 0.0
C502 C 0.09695 1.02163 0.48153 0.0
C503 C 0.09702 0.13218 0.52733 0.0
H504 H 0.07569 0.04963 0.70453 0.0
H505 H 0.06865 0.07248 0.65579 0.0
H506 H 0.11895 0.17386 0.69793 0.0
H507 H 0.12584 0.15099 0.74693 0.0
H508 H 0.12395 0.02551 0.38196 0.0
H509 H 0.12606 1.00637 0.43364 0.0
H510 H 0.06629 0.06283 0.46001 0.0
H511 H 0.06323 0.08069 0.40896 0.0
Tb512 Tb 0.36719 0.85793 0.79227 0.0
Tb513 Tb 0.33179 0.78852 0.81833 0.0
C514 C 0.36203 0.78826 0.75732 0.0
C515 C 0.38416 0.94353 0.76987 0.0
C516 C 0.34768 0.9852 0.77827 0.0
C517 C 0.34359 0.96503 0.75032 0.0
C518 C 0.36176 0.94425 0.7461 0.0
C519 C 0.39162 0.96793 0.79547 0.0
C520 C 0.37317 0.98825 0.7999 0.0
C521 C 0.39398 0.91329 0.77168 0.0
O522 O 0.31741 0.84662 0.77174 0.0
O523 O 0.29272 0.80808 0.80339 0.0
O524 O 0.34121 0.8271 0.85634 0.0
O525 O 0.34528 0.87318 0.82992 0.0
O526 O 0.29278 0.74438 0.81451 0.0
O527 O 0.32849 0.75523 0.85265 0.0
O528 O 0.38249 0.79203 0.82659 0.0
O529 O 0.40398 0.84918 0.82457 0.0
O530 O 0.37934 0.81969 0.76553 0.0
O531 O 0.33845 0.77331 0.77195 0.0
C532 C 0.29103 0.82857 0.7819 0.0
O533 O 0.40043 0.90641 0.7995 0.0
O534 O 0.37678 0.88597 0.75429 0.0
C535 C 0.34132 0.85832 0.85521 0.0
C536 C 0.30936 0.69941 0.82973 0.0
C537 C 0.34022 0.65294 0.81604 0.0
C538 C 0.33515 0.6601 0.8465 0.0
C539 C 0.31986 0.68335 0.85332 0.0
C540 C 0.31072 0.68869 0.79903 0.0
C541 C 0.32624 0.66587 0.79226 0.0
C542 C 0.3046 0.7321 0.83715 0.0
C543 C 0.40733 0.82009 0.83184 0.0
H544 H 0.32445 0.96289 0.73302 0.0
H545 H 0.35608 0.92638 0.72568 0.0
H546 H 0.40933 0.96857 0.81383 0.0
H547 H 0.37686 1.00343 0.82175 0.0
H548 H 0.34539 0.65009 0.86522 0.0
H549 H 0.31892 0.69118 0.87714 0.0
H550 H 0.30266 0.70046 0.78028 0.0
H551 H 0.33005 0.66135 0.7686 0.0
Tb552 Tb 0.58558 0.04995 0.09639 0.0
Tb553 Tb 0.59464 0.09273 0.03805 0.0
C554 C 0.64917 0.09059 0.08268 0.0
C555 C 0.58453 0.03353 0.1764 0.0
C556 C 0.57342 0.06361 0.23099 0.0
C557 C 0.59353 0.08353 0.21216 0.0
C558 C 0.59895 0.06854 0.1848 0.0
C559 C 0.56716 1.01318 0.19684 0.0
C560 C 0.56162 0.02819 0.22409 0.0
C561 C 0.58146 1.01995 0.14433 0.0
O562 O 0.5764 0.09763 0.11268 0.0
O563 O 0.59772 0.13186 0.07621 0.0
O564 O 0.54646 0.08128 0.04619 0.0
O565 O 0.54195 0.032 0.06746 0.0
O566 O 0.61943 0.13725 0.02018 0.0
O567 O 0.58031 0.09939 0.99288 0.0
O568 O 0.59063 0.04057 0.01786 0.0
O569 O 0.59724 1.01543 0.06173 0.0
O570 O 0.63012 0.08893 0.10318 0.0
O571 O 0.63849 0.08599 0.05359 0.0
C572 C 0.58603 0.12833 0.10275 0.0
O573 O 0.55771 1.02317 0.12768 0.0
O574 O 0.60661 0.0289 0.1306 0.0
C575 C 0.52938 0.05265 0.05494 0.0
C576 C 0.62208 0.12908 0.96761 0.0
C577 C 0.65556 0.12858 0.91742 0.0
C578 C 0.63058 0.14131 0.91544 0.0
C579 C 0.61398 0.14171 0.94056 0.0
C580 C 0.64731 0.11683 0.96977 0.0
C581 C 0.66404 0.11671 0.94485 0.0
C582 C 0.60352 0.12751 0.99312 0.0
C583 C 0.59513 1.0146 0.03131 0.0
H584 H 0.60261 0.1109 0.21712 0.0
H585 H 0.61215 0.08469 0.16903 0.0
H586 H 0.55566 0.98623 0.19051 0.0
H587 H 0.54594 1.01254 0.23846 0.0
H588 H 0.62359 0.15026 0.89432 0.0
H589 H 0.59444 0.15113 0.93867 0.0
H590 H 0.65366 0.10671 0.99049 0.0
H591 H 0.68277 0.10603 0.94658 0.0
Tb592 Tb 0.33181 0.29025 0.29304 0.0
Tb593 Tb 0.36553 0.36717 0.32062 0.0
C594 C 0.34018 0.34938 0.24938 0.0
C595 C 0.28925 0.19792 0.2852 0.0
C596 C 0.30046 0.14206 0.30759 0.0
C597 C 0.28569 0.139 0.27754 0.0
C598 C 0.28085 0.16747 0.26605 0.0
C599 C 0.2947 0.19734 0.31705 0.0
C600 C 0.30065 0.16935 0.32832 0.0
C601 C 0.30487 0.22921 0.272 0.0
O602 O 0.38216 0.2996 0.28357 0.0
O603 O 0.40498 0.35605 0.30049 0.0
O604 O 0.37872 0.33699 0.35469 0.0
O605 O 0.33787 0.28823 0.34254 0.0
O606 O 0.39613 0.4164 0.31834 0.0
O607 O 0.37285 0.4036 0.35846 0.0
O608 O 0.31657 0.3574 0.33319 0.0
O609 O 0.29189 0.30263 0.31234 0.0
O610 O 0.33392 0.3171 0.25255 0.0
O611 O 0.34815 0.37229 0.27346 0.0
C612 C 0.40712 0.32774 0.28665 0.0
O613 O 0.29136 0.25234 0.27116 0.0
O614 O 0.33442 0.24212 0.28181 0.0
C615 C 0.35981 0.30874 0.36265 0.0
C616 C 0.37576 0.45583 0.34111 0.0
C617 C 0.34069 0.50002 0.3385 0.0
C618 C 0.35906 0.49981 0.3658 0.0
C619 C 0.37664 0.47782 0.36706 0.0
C620 C 0.35823 0.45702 0.31363 0.0
C621 C 0.34088 0.47882 0.31236 0.0
C622 C 0.38868 0.4281 0.34369 0.0
C623 C 0.29088 0.33026 0.32867 0.0
H624 H 0.28403 0.11747 0.26142 0.0
H625 H 0.27575 0.16723 0.24146 0.0
H626 H 0.30036 0.22051 0.33232 0.0
H627 H 0.31103 0.17221 0.35189 0.0
H628 H 0.35894 0.51569 0.38631 0.0
H629 H 0.38966 0.47678 0.3886 0.0
H630 H 0.35655 0.4398 0.29347 0.0
H631 H 0.32612 0.47758 0.29131 0.0
Tb632 Tb 0.59282 0.59969 0.09612 0.0
Tb633 Tb 0.60506 0.56166 0.03474 0.0
C634 C 0.53952 0.54308 0.05575 0.0
C635 C 0.57776 0.61186 0.1752 0.0
C636 C 0.58364 0.58317 0.23045 0.0
C637 C 0.5915 0.61861 0.23031 0.0
C638 C 0.58858 0.63284 0.20282 0.0
C639 C 0.56712 0.57642 0.17565 0.0
C640 C 0.56998 0.56216 0.20314 0.0
C641 C 0.58457 0.62642 0.1462 0.0
O642 O 0.60651 0.55621 0.11316 0.0
O643 O 0.60208 0.52268 0.06823 0.0
O644 O 0.64995 0.58797 0.06102 0.0
O645 O 0.63607 0.63091 0.08233 0.0
O646 O 0.59215 0.5205 1.00043 0.0
O647 O 0.63426 0.56251 1.00024 0.0
O648 O 0.60257 0.6111 0.01931 0.0
O649 O 0.58227 0.63101 0.05971 0.0
O650 O 0.55247 0.55539 0.08355 0.0
O651 O 0.55504 0.55093 0.0321 0.0
C652 C 0.60451 0.52626 0.09876 0.0
O653 O 0.61182 0.62735 0.13866 0.0
O654 O 0.56283 0.61513 0.12294 0.0
C655 C 0.65698 0.62007 0.07096 0.0
C656 C 0.60417 0.54136 0.95324 0.0
C657 C 0.58742 0.55768 0.89462 0.0
C658 C 0.61142 0.54359 0.89927 0.0
C659 C 0.61984 0.53561 0.92849 0.0
C660 C 0.58004 0.55511 0.94855 0.0
C661 C 0.57158 0.56294 0.91949 0.0
C662 C 0.61429 0.53582 0.98444 0.0
C663 C 0.59162 0.63426 0.0318 0.0
H664 H 0.60269 0.63549 0.25082 0.0
H665 H 0.59733 0.66022 0.20278 0.0
H666 H 0.55905 0.55979 0.15444 0.0
H667 H 0.5638 0.5348 0.20262 0.0
H668 H 0.62388 0.53916 0.88042 0.0
H669 H 0.63877 0.52539 0.93186 0.0
H670 H 0.56785 0.56004 0.96747 0.0
H671 H 0.55242 0.57283 0.91644 0.0
Tb672 Tb 0.86451 0.3533 0.28949 0.0
Tb673 Tb 0.8324 0.29465 0.33097 0.0
C674 C 0.84877 0.27849 0.26542 0.0
C675 C 0.87087 0.4274 0.25111 0.0
C676 C 0.82966 0.46341 0.26046 0.0
C677 C 0.82214 0.4371 0.23661 0.0
C678 C 0.84269 0.41922 0.23182 0.0
C679 C 0.88039 0.45741 0.27133 0.0
C680 C 0.85974 0.47518 0.27618 0.0
C681 C 0.88493 0.40067 0.25678 0.0
O682 O 0.81288 0.33932 0.27397 0.0
O683 O 0.79179 0.31027 0.31356 0.0
O684 O 0.83651 0.33993 0.35988 0.0
O685 O 0.8489 0.37984 0.32547 0.0
O686 O 0.79843 0.24749 0.33379 0.0
O687 O 0.83153 0.2727 0.37271 0.0
O688 O 0.88329 0.29891 0.33794 0.0
O689 O 0.90586 0.34943 0.31869 0.0
O690 O 0.8707 0.30789 0.26852 0.0
O691 O 0.82798 0.27135 0.28463 0.0
C692 C 0.788 0.32515 0.2883 0.0
O693 O 0.89628 0.40129 0.28523 0.0
O694 O 0.86829 0.36981 0.24541 0.0
C695 C 0.84039 0.37057 0.35209 0.0
C696 C 0.82384 0.21462 0.35999 0.0
C697 C 0.86248 0.17661 0.34615 0.0
C698 C 0.86892 0.19759 0.37385 0.0
C699 C 0.8496 0.21636 0.38088 0.0
C700 C 0.81504 0.18969 0.3346 0.0
C701 C 0.8344 0.17093 0.32763 0.0
C702 C 0.81202 0.24376 0.36 0.0
C703 C 0.90889 0.32415 0.33417 0.0
H704 H 0.79931 0.42849 0.22363 0.0
H705 H 0.83493 0.3968 0.2154 0.0
H706 H 0.90225 0.4648 0.28606 0.0
H707 H 0.86613 0.49584 0.2944 0.0
H708 H 0.89018 0.20147 0.38875 0.0
H709 H 0.85668 0.23478 0.40097 0.0
H710 H 0.795 0.18718 0.31833 0.0
H711 H 0.82892 0.15447 0.30631 0.0
Tb712 Tb 0.09435 0.55912 0.59169 0.0
Tb713 Tb 0.11103 0.59668 0.53146 0.0
C714 C 0.16247 0.59396 0.58065 0.0
C715 C 0.06216 0.54336 0.66329 0.0
C716 C 1.03771 0.57386 0.70902 0.0
C717 C 0.05958 0.55777 0.71706 0.0
C718 C 0.07175 0.54261 0.6943 0.0
C719 C 1.03986 0.55895 0.65524 0.0
C720 C 1.02748 0.5738 0.67801 0.0
C721 C 0.07864 0.53244 0.63966 0.0
O722 O 0.10101 0.61302 0.60835 0.0
O723 O 0.10052 0.6353 0.56216 0.0
O724 O 0.06456 0.56082 0.52242 0.0
O725 O 0.05362 0.56833 0.5708 0.0
O726 O 0.14041 0.61528 0.49812 0.0
O727 O 0.0959 0.62347 0.49831 0.0
O728 O 0.11668 0.54634 0.5187 0.0
O729 O 0.09233 0.51666 0.55671 0.0
O730 O 0.14296 0.56669 0.58921 0.0
O731 O 0.15306 0.61372 0.56318 0.0
C732 C 0.09998 0.6385 0.5923 0.0
O733 O 0.06275 0.52131 0.61266 0.0
O734 O 0.1062 0.55383 0.63778 0.0
C735 C 0.04429 0.56006 0.54161 0.0
C736 C 0.1107 0.61163 0.45038 0.0
C737 C 0.09359 0.58619 0.38828 0.0
C738 C 0.08304 0.61186 0.40063 0.0
C739 C 0.09172 0.62464 0.43148 0.0
C740 C 0.12006 0.58497 0.43835 0.0
C741 C 0.11174 0.57253 0.40761 0.0
C742 C 0.11928 0.62486 0.48286 0.0
C743 C 0.10494 0.51703 0.53048 0.0
H744 H 0.0673 0.55701 0.74095 0.0
H745 H 0.08926 0.53115 0.70086 0.0
H746 H 1.03262 0.56048 0.63139 0.0
H747 H 1.01053 0.58599 0.67141 0.0
H748 H 0.06874 0.62254 0.38632 0.0
H749 H 0.0838 0.64483 0.44056 0.0
H750 H 0.13426 0.57401 0.45249 0.0
H751 H 0.12069 0.55311 0.3987 0.0
Tb752 Tb 0.87695 0.81001 0.30709 0.0
Tb753 Tb 0.814 0.83134 0.2962 0.0
C754 C 0.81157 0.76233 0.31964 0.0
C755 C 0.953 0.80211 0.29438 0.0
C756 C 1.00135 0.81274 0.25676 0.0
C757 C 0.99445 0.78523 0.27469 0.0
C758 C 0.9705 0.78002 0.29344 0.0
C759 C 0.95997 0.82981 0.27668 0.0
C760 C 0.98407 0.83516 0.25809 0.0
C761 C 0.92611 0.79459 0.31195 0.0
O762 O 0.86854 0.81145 0.25758 0.0
O763 O 0.81598 0.80107 0.25397 0.0
O764 O 0.84874 0.8673 0.27452 0.0
O765 O 0.89144 0.86447 0.30401 0.0
O766 O 0.76703 0.81835 0.27907 0.0
O767 O 0.79255 0.86884 0.30084 0.0
O768 O 0.83606 0.85225 0.343 0.0
O769 O 0.86414 0.81663 0.35329 0.0
O770 O 0.83724 0.76427 0.30743 0.0
O771 O 0.80151 0.78823 0.32228 0.0
C772 C 0.84125 0.80225 0.24108 0.0
O773 O 0.92261 0.82038 0.3279 0.0
O774 O 0.89998 0.77511 0.2968 0.0
C775 C 0.87821 0.88 0.28496 0.0
C776 C 0.74085 0.84484 0.31105 0.0
C777 C 0.69572 0.84146 0.35147 0.0
C778 C 0.70633 0.86994 0.33512 0.0
C779 C 0.72869 0.87155 0.31494 0.0
C780 C 0.73054 0.8166 0.32775 0.0
C781 C 0.70816 0.81492 0.34774 0.0
C782 C 0.76522 0.84719 0.29071 0.0
C783 C 0.85059 0.83835 0.36278 0.0
H784 H 1.00743 0.76759 0.27398 0.0
H785 H 0.96522 0.75835 0.30672 0.0
H786 H 0.94635 0.84683 0.27672 0.0
H787 H 0.98857 0.85619 0.24406 0.0
H788 H 0.69708 0.89072 0.33773 0.0
H789 H 0.7366 0.89368 0.30249 0.0
H790 H 0.73987 0.79587 0.32547 0.0
H791 H 0.70075 0.793 0.36054 0.0
Tb792 Tb 0.82028 0.30543 0.82498 0.0
Tb793 Tb 0.86312 0.30341 0.76954 0.0
C794 C 0.80233 0.32558 0.76127 0.0
C795 C 0.78695 0.28414 0.89592 0.0
C796 C 0.7913 0.25264 0.94959 0.0
C797 C 0.77658 0.27746 0.94865 0.0
C798 C 0.77462 0.29337 0.92191 0.0
C799 C 0.80084 0.25866 0.89668 0.0
C800 C 0.80332 0.24329 0.92344 0.0
C801 C 0.7874 0.30233 0.86861 0.0
O802 O 0.79756 0.26109 0.79223 0.0
O803 O 0.84108 0.25161 0.77856 0.0
O804 O 0.89191 0.30251 0.81192 0.0
O805 O 0.8527 0.28046 0.84155 0.0
O806 O 0.86626 0.28151 0.72602 0.0
O807 O 0.90512 0.32194 0.75044 0.0
O808 O 0.86932 0.35595 0.78285 0.0
O809 O 0.86074 0.35098 0.8329 0.0
O810 O 0.80472 0.33325 0.79104 0.0
O811 O 0.81955 0.30918 0.74904 0.0
C812 C 0.81128 0.2407 0.78065 0.0
O813 O 0.81313 0.32693 0.86718 0.0
O814 O 0.77812 0.28313 0.8427 0.0
C815 C 0.88221 0.28963 0.83725 0.0
C816 C 0.89292 0.32468 0.69803 0.0
C817 C 0.88627 0.36006 0.64712 0.0
C818 C 0.89909 0.33362 0.64466 0.0
C819 C 0.90242 0.31601 0.67006 0.0
C820 C 0.88033 0.35118 0.70048 0.0
C821 C 0.877 0.36866 0.67528 0.0
C822 C 0.89296 0.30447 0.72399 0.0
C823 C 0.87398 0.36888 0.81148 0.0
H824 H 0.76729 0.28502 0.96876 0.0
H825 H 0.76397 0.31313 0.92165 0.0
H826 H 0.81036 0.2511 0.87676 0.0
H827 H 0.81466 0.22412 0.92376 0.0
H828 H 0.90627 0.32648 0.6231 0.0
H829 H 0.91176 0.29526 0.66772 0.0
H830 H 0.87219 0.35773 0.72169 0.0
H831 H 0.86623 0.38824 0.67761 0.0
Tb832 Tb 0.82965 0.79369 0.78947 0.0
Tb833 Tb 0.86299 0.86888 0.8183 0.0
C834 C 0.83811 0.85153 0.74872 0.0
C835 C 0.81319 0.70484 0.76211 0.0
C836 C 0.84221 0.66108 0.78586 0.0
C837 C 0.81013 0.65386 0.78654 0.0
C838 C 0.79561 0.67577 0.77465 0.0
C839 C 0.84396 0.70873 0.75698 0.0
C840 C 0.85842 0.68693 0.76886 0.0
C841 C 0.80283 0.73455 0.76324 0.0
O842 O 0.87889 0.80296 0.7769 0.0
O843 O 0.90386 0.85485 0.80393 0.0
O844 O 0.85411 0.83896 0.85709 0.0
O845 O 0.8508 0.78717 0.83444 0.0
O846 O 0.86996 0.92088 0.81858 0.0
O847 O 0.89638 0.90195 0.85206 0.0
O848 O 0.81231 0.86114 0.82596 0.0
O849 O 0.79229 0.80358 0.81485 0.0
O850 O 0.81672 0.82685 0.75869 0.0
O851 O 0.86196 0.8695 0.76822 0.0
C852 C 0.90521 0.82884 0.78538 0.0
O853 O 0.79864 0.74465 0.79071 0.0
O854 O 0.81829 0.76 0.74915 0.0
C855 C 0.85349 0.80771 0.8594 0.0
C856 C 0.87821 0.94607 0.86861 0.0
C857 C 0.8403 0.98215 0.88778 0.0
C858 C 0.87137 0.99968 0.8836 0.0
C859 C 0.89003 0.98155 0.87301 0.0
C860 C 0.85055 0.92895 0.88043 0.0
C861 C 0.83148 0.94697 0.88994 0.0
C862 C 0.88853 0.928 0.84434 0.0
C863 C 0.78878 0.83218 0.82653 0.0
H864 H 0.79707 0.63335 0.79882 0.0
H865 H 0.77173 0.67224 0.7785 0.0
H866 H 0.85795 0.73073 0.74702 0.0
H867 H 0.88315 0.69277 0.76773 0.0
H868 H 0.87912 0.02698 0.88293 0.0
H869 H 0.91168 0.99515 0.86454 0.0
H870 H 0.84148 0.90145 0.87791 0.0
H871 H 0.80801 0.93258 0.89368 0.0
Tb872 Tb 0.63129 0.60126 0.57384 0.0
Tb873 Tb 0.57367 0.55479 0.52387 0.0
C874 C 0.56371 0.57368 0.59018 0.0
C875 C 0.7102 0.63744 0.60653 0.0
C876 C 0.7535 0.60894 0.58639 0.0
C877 C 0.7439 0.60365 0.61557 0.0
C878 C 0.72247 0.61816 0.62579 0.0
C879 C 0.72393 0.64708 0.57963 0.0
C880 C 0.74521 0.63249 0.56941 0.0
C881 C 0.67821 0.63745 0.60894 0.0
O882 O 0.63755 0.55142 0.57032 0.0
O883 O 0.5873 0.51948 0.55212 0.0
O884 O 0.61478 0.55056 0.50591 0.0
O885 O 0.64963 0.6002 0.52987 0.0
O886 O 0.53213 0.51378 0.51514 0.0
O887 O 0.55084 0.54357 0.47879 0.0
O888 O 0.58271 0.60766 0.51398 0.0
O889 O 0.60339 0.63323 0.56216 0.0
O890 O 0.5929 0.5781 0.59918 0.0
O891 O 0.55352 0.57306 0.56133 0.0
C892 C 0.61517 0.5219 0.5651 0.0
O893 O 0.66553 0.64886 0.58617 0.0
O894 O 0.65922 0.60896 0.61603 0.0
C895 C 0.6421 0.5741 0.50889 0.0
C896 C 0.49704 0.52951 0.48304 0.0
C897 C 0.4475 0.5509 0.4983 0.0
C898 C 0.44471 0.51639 0.49747 0.0
C899 C 0.46943 0.50572 0.48984 0.0
C900 C 0.49808 0.56319 0.48025 0.0
C901 C 0.47352 0.57383 0.48799 0.0
C902 C 0.52628 0.52186 0.48765 0.0
C903 C 0.59056 0.63432 0.53451 0.0
H904 H 0.75027 0.58547 0.62889 0.0
H905 H 0.71257 0.61066 0.64677 0.0
H906 H 0.71547 0.66242 0.56446 0.0
H907 H 0.75262 0.6368 0.54684 0.0
H908 H 0.42477 0.49838 0.50547 0.0
H909 H 0.46821 0.47969 0.49231 0.0
H910 H 0.51898 0.58211 0.475 0.0
H911 H 0.47593 0.60054 0.48832 0.0
Tb912 Tb 0.07333 0.57553 0.05843 0.0
Tb913 Tb 0.1441 0.58579 0.04196 0.0
C914 C 0.11965 0.55292 0.10052 0.0
C915 C 1.00148 0.59395 0.07032 0.0
C916 C 0.9668 0.63863 0.06882 0.0
C917 C 0.95464 0.60658 0.07951 0.0
C918 C 0.97191 0.58437 0.08025 0.0
C919 C 1.01391 0.62613 0.06008 0.0
C920 C 0.99673 0.64843 0.0595 0.0
C921 C 1.01903 0.57014 0.06998 0.0
O922 O 0.10268 0.62457 0.0821 0.0
O923 O 0.14302 0.63728 0.05241 0.0
O924 O 0.11655 0.58866 1.00031 0.0
O925 O 0.08161 0.60866 0.02226 0.0
O926 O 0.1923 0.60357 0.05521 0.0
O927 O 0.17332 0.57877 0.00978 0.0
O928 O 0.1203 0.53096 0.03683 0.0
O929 O 0.07051 0.53171 0.02664 0.0
O930 O 0.09082 0.54512 0.08829 0.0
O931 O 0.14248 0.57512 0.08941 0.0
C932 C 0.12647 0.64683 0.07205 0.0
O933 O 1.02587 0.56175 0.04303 0.0
O934 O 1.04278 0.57731 0.09104 0.0
C935 C 0.09556 0.60385 0.99846 0.0
C936 C 0.21482 0.56549 0.03374 0.0
C937 C 0.24529 0.51703 0.03831 0.0
C938 C 0.25897 0.54728 0.02516 0.0
C939 C 0.24375 0.57137 0.02284 0.0
C940 C 0.20122 0.53542 0.04707 0.0
C941 C 0.21628 0.51126 0.0492 0.0
C942 C 0.19791 0.58963 0.02988 0.0
C943 C 0.09098 0.51559 0.02613 0.0
H944 H 0.93174 0.59871 0.08717 0.0
H945 H 0.96209 0.55962 0.08828 0.0
H946 H 1.0367 0.63378 0.05218 0.0
H947 H 1.00651 0.67298 0.0511 0.0
H948 H 0.28119 0.55202 0.01629 0.0
H949 H 0.25437 0.59434 0.01226 0.0
H950 H 0.17883 0.53053 0.0556 0.0
H951 H 0.2054 0.48819 0.05954 0.0
C952 C 1.02522 0.17292 0.98969 0.0
C953 C 0.04452 0.20714 0.99446 0.0
C954 C 1.03391 0.1471 1.003 0.0
C955 C 0.06264 0.15415 0.02121 0.0
H956 H 1.00317 0.1659 0.97534 0.0
H957 H 1.01818 0.12123 0.99833 0.0
S958 S 0.12166 0.23968 0.04128 0.0
N959 N 0.09354 0.24676 0.01938 0.0
N960 N 0.11012 0.19834 0.04389 0.0
C961 C 0.08208 0.18834 0.02645 0.0
C962 C 0.07296 0.21475 0.01328 0.0
C963 C 0.21253 0.81704 0.23575 0.0
C964 C 0.21797 0.83571 0.21016 0.0
C965 C 0.23702 0.81453 0.25581 0.0
C966 C 0.26826 0.83029 0.25116 0.0
H967 H 0.18902 0.80415 0.24051 0.0
H968 H 0.23119 0.79961 0.27499 0.0
S969 S 0.29539 0.88234 0.18743 0.0
N970 N 0.25707 0.8705 0.18116 0.0
N971 N 0.30334 0.86561 0.21884 0.0
C972 C 0.2742 0.84918 0.22563 0.0
C973 C 0.24905 0.852 0.20521 0.0
C974 C 0.57992 0.91561 0.52086 0.0
C975 C 0.55577 0.90439 0.49642 0.0
C976 C 0.58868 0.94875 0.53588 0.0
C977 C 0.57311 0.97165 0.52758 0.0
H978 H 0.59288 0.8991 0.52772 0.0
H979 H 0.60795 0.95657 0.554 0.0
S980 S 0.5076 0.95441 0.46583 0.0
N981 N 0.51604 0.91876 0.4651 0.0
N982 N 0.53202 0.98043 0.49364 0.0
C983 C 0.54836 0.96039 0.5038 0.0
C984 C 0.53985 0.92696 0.48816 0.0
C985 C 0.57924 0.33443 0.71335 0.0
C986 C 0.57046 0.32555 0.68159 0.0
C987 C 0.55688 0.33162 0.73387 0.0
C988 C 0.52493 0.32028 0.72337 0.0
H989 H 0.60356 0.34316 0.72253 0.0
H990 H 0.56469 0.33859 0.75814 0.0
S991 S 0.48973 0.29506 0.64236 0.0
N992 N 0.52751 0.30575 0.64057 0.0
N993 N 0.48564 0.30042 0.67913 0.0
C994 C 0.51584 0.31176 0.69165 0.0
C995 C 0.53856 0.31436 0.67079 0.0
C996 C 0.09563 0.9323 0.62426 0.0
C997 C 0.10495 0.93741 0.65651 0.0
C998 C 0.09651 0.95998 0.60579 0.0
C999 C 0.10665 0.99485 0.6181 0.0
H1000 H 0.08696 0.9066 0.61312 0.0
H1001 H 0.08852 0.95375 0.58151 0.0
S1002 S 0.13623 1.02351 0.70038 0.0
N1003 N 0.12671 0.98184 0.69886 0.0
N1004 N 0.12782 0.03187 0.66518 0.0
C1005 C 0.11656 1.00015 0.65006 0.0
C1006 C 0.11587 0.97229 0.6687 0.0
C1007 C 0.49291 0.85238 0.87444 0.0
C1008 C 0.50323 0.82368 0.87625 0.0
C1009 C 0.46301 0.85078 0.85996 0.0
C1010 C 0.44002 0.82008 0.84664 0.0
H1011 H 0.50824 0.87694 0.88487 0.0
H1012 H 0.45765 0.87423 0.85996 0.0
S1013 S 0.45353 0.73641 0.84436 0.0
N1014 N 0.48662 0.76282 0.86232 0.0
N1015 N 0.43101 0.75953 0.83621 0.0
C1016 C 0.44988 0.79094 0.84804 0.0
C1017 C 0.48089 0.79275 0.86237 0.0
C1018 C 0.59383 0.22323 0.1295 0.0
C1019 C 0.58196 0.22206 0.1583 0.0
C1020 C 0.59491 0.19337 0.11195 0.0
C1021 C 0.5841 0.16018 0.12185 0.0
H1022 H 0.60308 0.24756 0.12061 0.0
H1023 H 0.60469 0.19653 0.09034 0.0
S1024 S 0.54873 0.14184 0.19454 0.0
N1025 N 0.55773 0.18342 0.19484 0.0
N1026 N 0.55975 0.12884 0.16252 0.0
C1027 C 0.57158 0.15867 0.15026 0.0
C1028 C 0.57055 0.18891 0.1681 0.0
C1029 C 0.23318 0.36126 0.37704 0.0
C1030 C 0.20403 0.33428 0.3744 0.0
C1031 C 0.25974 0.35982 0.3622 0.0
C1032 C 0.26028 0.33104 0.34323 0.0
H1033 H 0.23589 0.38444 0.3913 0.0
H1034 H 0.28053 0.38187 0.3662 0.0
S1035 S 0.19112 0.25199 0.3276 0.0
N1036 N 0.17852 0.27691 0.35012 0.0
N1037 N 0.22734 0.27394 0.32302 0.0
C1038 C 0.23128 0.30367 0.34005 0.0
C1039 C 0.20388 0.3053 0.35513 0.0
C1040 C 1.03702 0.1304 0.17029 0.0
C1041 C 1.01069 0.10577 0.17845 0.0
C1042 C 0.05136 0.12387 0.14491 0.0
C1043 C 1.04 0.0924 0.12669 0.0
H1044 H 0.04759 0.1544 0.18436 0.0
H1045 H 0.07217 0.1434 0.14026 0.0
S1046 S 0.96883 1.02117 0.13557 0.0
N1047 N 0.97144 0.05014 0.16409 0.0
N1048 N 0.99891 0.03763 0.11672 0.0
C1049 C 1.0125 0.06833 0.13338 0.0
C1050 C 0.99766 0.07511 0.15912 0.0
C1051 C 0.32284 0.75043 0.54936 0.0
C1052 C 0.32832 0.71914 0.54718 0.0
C1053 C 0.31387 0.76375 0.52299 0.0
C1054 C 0.30947 0.74586 0.49368 0.0
H1055 H 0.32603 0.76495 0.57149 0.0
H1056 H 0.31095 0.78851 0.52552 0.0
S1057 S 0.31646 0.66042 0.47652 0.0
N1058 N 0.32649 0.6694 0.5139 0.0
N1059 N 0.30815 0.69353 0.46464 0.0
C1060 C 0.31361 0.71381 0.49149 0.0
C1061 C 0.32342 0.7007 0.51818 0.0
C1062 C 0.61944 1.02088 0.69419 0.0
C1063 C 0.64791 1.01445 0.69818 0.0
C1064 C 0.60947 0.03114 0.66657 0.0
C1065 C 0.62777 0.03562 0.64214 0.0
H1066 H 0.60546 1.01976 0.71302 0.0
H1067 H 0.58808 0.03724 0.66495 0.0
S1068 S 0.70091 1.01568 0.63833 0.0
N1069 N 0.69184 1.00836 0.67334 0.0
N1070 N 0.67317 0.02818 0.62174 0.0
C1071 C 0.65496 0.02674 0.64484 0.0
C1072 C 0.66496 1.01587 0.67276 0.0
C1073 C 0.38319 0.37922 0.94562 0.0
C1074 C 0.358 0.36617 0.96263 0.0
C1075 C 0.3816 0.36848 0.91427 0.0
C1076 C 0.35438 0.34491 0.89824 0.0
H1077 H 0.40424 0.39843 0.95658 0.0
H1078 H 0.40152 0.37979 0.90225 0.0
S1079 S 0.28182 0.30275 0.9323 0.0
N1080 N 0.30527 0.32774 0.96135 0.0
N1081 N 0.30172 0.30812 0.90233 0.0
C1082 C 0.3291 0.33122 0.91516 0.0
C1083 C 0.33106 0.34167 0.94733 0.0
C1084 C 0.07358 0.10256 0.3276 0.0
C1085 C 0.06016 0.07657 0.3036 0.0
C1086 C 0.0876 0.09609 0.35504 0.0
C1087 C 0.08816 0.06321 0.35963 0.0
H1088 H 0.07134 0.1275 0.326 0.0
H1089 H 0.09592 0.11632 0.37365 0.0
S1090 S 0.06067 0.98767 0.30196 0.0
N1091 N 0.05241 1.01797 0.28439 0.0
N1092 N 0.07763 1.00547 0.33646 0.0
C1093 C 0.07768 0.03789 0.33468 0.0
C1094 C 0.06387 0.04463 0.30649 0.0
C1095 C 0.3632 0.71473 0.70225 0.0
C1096 C 0.38164 0.73093 0.68007 0.0
C1097 C 0.35726 0.73344 0.72723 0.0
C1098 C 0.36972 0.76909 0.73129 0.0
H1099 H 0.35236 0.68738 0.69988 0.0
H1100 H 0.3425 0.71979 0.74329 0.0
S1101 S 0.42143 0.82377 0.6811 0.0
N1102 N 0.4138 0.78474 0.66483 0.0
N1103 N 0.40272 0.81988 0.71182 0.0
C1104 C 0.38925 0.78557 0.71001 0.0
C1105 C 0.39521 0.76651 0.68445 0.0
C1106 C 0.66601 0.09274 0.83994 0.0
C1107 C 0.69852 0.10135 0.84135 0.0
C1108 C 0.65226 0.10378 0.86389 0.0
C1109 C 0.67056 0.12368 0.89005 0.0
H1110 H 0.65096 0.07626 0.82076 0.0
H1111 H 0.62713 0.09503 0.86271 0.0
S1112 S 0.75649 0.15718 0.9034 0.0
N1113 N 0.7487 0.13414 0.86981 0.0
N1114 N 0.72247 0.15468 0.91489 0.0
C1115 C 0.703 0.13441 0.89095 0.0
C1116 C 0.7171 0.12333 0.86652 0.0
C1117 C 0.35919 0.40389 0.18227 0.0
C1118 C 0.3506 0.37993 0.15596 0.0
C1119 C 0.3546 0.39413 0.21208 0.0
C1120 C 0.34103 0.35986 0.21719 0.0
H1121 H 0.37015 0.43062 0.18 0.0
H1122 H 0.36256 0.41362 0.23133 0.0
S1123 S 0.31198 0.2871 0.156 0.0
N1124 N 0.32629 0.32043 0.13711 0.0
N1125 N 0.31732 0.30194 0.19257 0.0
C1126 C 0.33139 0.3357 0.19092 0.0
C1127 C 0.33626 0.3457 0.16058 0.0
C1128 C 0.25553 1.01773 0.07387 0.0
C1129 C 0.2838 0.02732 0.06114 0.0
C1130 C 0.2439 0.0422 0.08638 0.0
C1131 C 0.26035 0.0771 0.08709 0.0
H1132 H 0.24189 0.99115 0.07349 0.0
H1133 H 0.22127 0.03368 0.09454 0.0
S1134 S 0.33691 0.1154 0.05936 0.0
N1135 N 0.32893 0.07406 0.05148 0.0
N1136 N 0.30716 0.12005 0.07575 0.0
C1137 C 0.2891 0.08705 0.0753 0.0
C1138 C 0.30082 0.06215 0.06217 0.0
C1139 C 0.74036 0.66121 0.05419 0.0
C1140 C 0.74165 0.69484 0.04994 0.0
C1141 C 0.71294 0.63695 0.06086 0.0
C1142 C 0.68594 0.64555 0.06385 0.0
H1143 H 0.76086 0.65367 0.053 0.0
H1144 H 0.71307 0.61154 0.06426 0.0
S1145 S 0.67587 0.72877 0.05087 0.0
N1146 N 0.71257 0.73435 0.04637 0.0
N1147 N 0.66139 0.68925 0.05917 0.0
C1148 C 0.68665 0.67876 0.0586 0.0
C1149 C 0.71439 0.70326 0.05158 0.0
C1150 C 0.78573 0.51936 0.29074 0.0
C1151 C 0.76024 0.49573 0.30153 0.0
C1152 C 0.80774 0.50873 0.27645 0.0
C1153 C 0.8049 0.4742 0.27268 0.0
H1154 H 0.78869 0.54625 0.29339 0.0
H1155 H 0.82725 0.52759 0.26866 0.0
S1156 S 0.74456 0.40327 0.30065 0.0
N1157 N 0.7344 0.43701 0.30934 0.0
N1158 N 0.77621 0.41683 0.28323 0.0
C1159 C 0.77973 0.45044 0.2838 0.0
C1160 C 0.75721 0.46128 0.29802 0.0
C1161 C 0.96813 0.5121 0.49362 0.0
C1162 C 0.94628 0.5192 0.51113 0.0
C1163 C 1.0 0.52648 0.50309 0.0
C1164 C 1.01093 0.54785 0.5307 0.0
H1165 H 0.96055 0.49494 0.4727 0.0
H1166 H 1.01609 0.51984 0.48922 0.0
S1167 S 0.96321 0.57514 0.58448 0.0
N1168 N 0.93776 0.54986 0.55697 0.0
N1169 N 0.99765 0.57654 0.57483 0.0
C1170 C 0.98936 0.55578 0.54807 0.0
C1171 C 0.95699 0.54155 0.53825 0.0
C1172 C 0.37606 0.12763 0.29665 0.0
C1173 C 0.38524 0.11922 0.32546 0.0
C1174 C 0.34728 0.13206 0.29037 0.0
C1175 C 0.32626 0.12803 0.31261 0.0
H1176 H 0.39157 0.13184 0.27893 0.0
H1177 H 0.34241 0.14072 0.26841 0.0
S1178 S 0.33755 0.10182 0.39047 0.0
N1179 N 0.37009 0.10399 0.37574 0.0
N1180 N 0.31553 0.11224 0.36368 0.0
C1181 C 0.33448 0.11794 0.34105 0.0
C1182 C 0.36407 0.11361 0.34758 0.0
C1183 C 0.41691 0.18831 0.54743 0.0
C1184 C 0.41313 0.20782 0.57325 0.0
C1185 C 0.43438 0.16627 0.55033 0.0
C1186 C 0.44809 0.16248 0.57921 0.0
H1187 H 0.40655 0.19033 0.52481 0.0
H1188 H 0.43681 0.15171 0.52989 0.0
S1189 S 0.44419 0.20681 0.65401 0.0
N1190 N 0.42402 0.22139 0.62869 0.0
N1191 N 0.45665 0.1798 0.63406 0.0
C1192 C 0.44428 0.18161 0.60521 0.0
C1193 C 0.42687 0.20435 0.60222 0.0
C1194 C 0.78097 0.66888 0.32989 0.0
C1195 C 0.75701 0.6667 0.34858 0.0
C1196 C 0.79876 0.69996 0.32106 0.0
C1197 C 0.79337 0.73014 0.33062 0.0
H1198 H 0.78568 0.64627 0.32132 0.0
H1199 H 0.81643 0.70013 0.30611 0.0
S1200 S 0.7358 0.73883 0.38264 0.0
N1201 N 0.73027 0.69765 0.37817 0.0
N1202 N 0.76413 0.75643 0.36204 0.0
C1203 C 0.77026 0.72859 0.35029 0.0
C1204 C 0.75197 0.69678 0.35914 0.0
C1205 C 0.91334 0.45471 0.85652 0.0
C1206 C 0.93401 0.47228 0.8367 0.0
C1207 C 0.89427 0.42112 0.84833 0.0
C1208 C 0.89493 0.404 0.81986 0.0
H1209 H 0.91147 0.46716 0.87837 0.0
H1210 H 0.87845 0.40878 0.8642 0.0
S1211 S 0.94613 0.43809 0.76027 0.0
N1212 N 0.95497 0.46965 0.78783 0.0
N1213 N 0.91906 0.4065 0.77237 0.0
C1214 C 0.91608 0.42096 0.80011 0.0
C1215 C 0.93571 0.4551 0.80858 0.0
C1216 C 0.0995 0.92867 0.07801 0.0
C1217 C 0.1239 0.9302 0.10052 0.0
C1218 C 0.0939 0.95814 0.06939 0.0
C1219 C 0.11208 0.99079 0.08318 0.0
H1220 H 0.08427 0.90432 0.067 0.0
H1221 H 0.07456 0.95505 0.05205 0.0
S1222 S 0.17897 1.00905 0.14367 0.0
N1223 N 0.16677 0.96725 0.13642 0.0
N1224 N 0.156 1.02271 0.12057 0.0
C1225 C 0.13683 0.99283 0.10563 0.0
C1226 C 0.14283 0.96262 0.11414 0.0
C1227 C 0.9567 0.2859 0.88138 0.0
C1228 C 0.95221 0.29178 0.9124 0.0
C1229 C 0.93386 0.2846 0.85718 0.0
C1230 C 0.90531 0.28848 0.86296 0.0
H1231 H 0.97842 0.2832 0.87562 0.0
H1232 H 0.93871 0.28079 0.83376 0.0
S1233 S 0.8817 0.30453 0.93983 0.0
N1234 N 0.91663 0.30132 0.94729 0.0
N1235 N 0.874 0.29884 0.90208 0.0
C1236 C 0.90027 0.29372 0.89383 0.0
C1237 C 0.92358 0.29538 0.91843 0.0
C1238 C 0.62231 0.22994 0.60277 0.0
C1239 C 0.65214 0.25146 0.59844 0.0
C1240 C 0.61373 0.19439 0.59662 0.0
C1241 C 0.63445 0.17882 0.58547 0.0
H1242 H 0.60565 0.24054 0.61171 0.0
H1243 H 0.59057 0.17902 0.60047 0.0
S1244 S 0.71503 0.22368 0.56935 0.0
N1245 N 0.70221 0.25439 0.58176 0.0
N1246 N 0.68607 0.188 0.56997 0.0
C1247 C 0.66413 0.2001 0.58052 0.0
C1248 C 0.67296 0.23622 0.58707 0.0
C1249 C 0.65405 0.86304 0.41687 0.0
C1250 C 0.62698 0.83448 0.41486 0.0
C1251 C 0.67597 0.86544 0.39597 0.0
C1252 C 0.67172 0.83925 0.37247 0.0
H1253 H 0.6584 0.88376 0.43471 0.0
H1254 H 0.69666 0.88765 0.39855 0.0
S1255 S 0.60456 0.75974 0.3562 0.0
N1256 N 0.59699 0.77977 0.38667 0.0
N1257 N 0.6382 0.78456 0.34751 0.0
C1258 C 0.6447 0.8108 0.3699 0.0
C1259 C 0.62231 0.80835 0.39103 0.0
C1260 C 0.09663 0.1852 0.45648 0.0
C1261 C 0.09929 0.21888 0.4682 0.0
C1262 C 0.09562 0.15829 0.47532 0.0
C1263 C 0.0972 0.16238 0.5078 0.0
H1264 H 0.09538 0.17917 0.43194 0.0
H1265 H 0.09377 0.13377 0.46395 0.0
S1266 S 0.10426 0.24481 0.55179 0.0
N1267 N 0.10336 0.25395 0.51576 0.0
N1268 N 0.1016 0.2043 0.55077 0.0
C1269 C 0.09975 0.19587 0.52012 0.0
C1270 C 0.10073 0.22352 0.5007 0.0
C1271 C 0.69766 0.31188 0.28182 0.0
C1272 C 0.68974 0.32532 0.25444 0.0
C1273 C 0.72852 0.31224 0.29218 0.0
C1274 C 0.7546 0.32569 0.27594 0.0
H1275 H 0.67945 0.30044 0.29578 0.0
H1276 H 0.73179 0.30144 0.31341 0.0
S1277 S 0.74813 0.36283 0.20161 0.0
N1278 N 0.71218 0.35204 0.21079 0.0
N1279 N 0.76902 0.35231 0.22943 0.0
C1280 C 0.74717 0.33903 0.24822 0.0
C1281 C 0.71552 0.33902 0.23783 0.0
C1282 C 0.59966 0.95559 0.95964 0.0
C1283 C 0.60312 0.92559 0.97082 0.0
C1284 C 0.59725 0.98335 0.97896 0.0
C1285 C 0.59811 0.98369 0.01129 0.0
H1286 H 0.5986 0.9579 0.93521 0.0
H1287 H 0.59461 1.00496 0.96813 0.0
S1288 S 0.60711 0.91228 0.05376 0.0
N1289 N 0.60742 0.89883 0.01756 0.0
N1290 N 0.60309 0.95025 0.05354 0.0
C1291 C 0.60178 0.95399 0.02306 0.0
C1292 C 0.6042 0.92546 1.00317 0.0
C1293 C 0.99221 0.86446 0.76462 0.0
C1294 C 0.99924 0.83757 0.74815 0.0
C1295 C 0.9631 0.86097 0.77664 0.0
C1296 C 0.93739 0.83026 0.77303 0.0
H1297 H 1.00968 0.88942 0.76822 0.0
H1298 H 0.96062 0.88338 0.78851 0.0
S1299 S 0.94123 0.75044 0.73204 0.0
N1300 N 0.97605 0.77782 0.72959 0.0
N1301 N 0.92225 0.7714 0.75115 0.0
C1302 C 0.94387 0.80277 0.75678 0.0
C1303 C 0.97404 0.80626 0.74481 0.0
C1304 C 0.13929 0.06753 0.92832 0.0
C1305 C 0.16952 0.06569 0.93167 0.0
C1306 C 0.12269 0.06664 0.95351 0.0
C1307 C 0.13595 0.06441 0.98302 0.0
H1308 H 0.12845 0.07008 0.90608 0.0
H1309 H 0.09969 0.06887 0.94988 0.0
S1310 S 0.21401 0.05712 1.00363 0.0
N1311 N 0.21174 0.05991 0.96622 0.0
N1312 N 0.18058 0.05862 0.01406 0.0
C1313 C 0.16591 0.06155 0.98661 0.0
C1314 C 0.1827 0.06202 0.96075 0.0
C1315 C 0.8575 0.37532 0.56753 0.0
C1316 C 0.86492 0.41086 0.56982 0.0
C1317 C 0.86527 0.35904 0.59237 0.0
C1318 C 0.88099 0.3778 0.62018 0.0
H1319 H 0.84499 0.35994 0.54666 0.0
H1320 H 0.85816 0.33154 0.59009 0.0
S1321 S 0.90944 0.47166 0.63642 0.0
N1322 N 0.89121 0.46447 0.60123 0.0
N1323 N 0.90628 0.43385 0.64759 0.0
C1324 C 0.88967 0.41341 0.6223 0.0
C1325 C 0.88151 0.42994 0.5972 0.0
C1326 C 0.53177 0.11008 0.44986 0.0
C1327 C 0.52893 0.08605 0.42481 0.0
C1328 C 0.55134 0.11189 0.47661 0.0
C1329 C 0.56894 0.08987 0.47924 0.0
H1330 H 0.51813 0.12707 0.44924 0.0
H1331 H 0.55198 0.13006 0.4957 0.0
S1332 S 0.57152 0.02381 0.41952 0.0
N1333 N 0.54675 0.04094 0.40367 0.0
N1334 N 0.58355 0.04437 0.45409 0.0
C1335 C 0.5675 0.06677 0.45388 0.0
C1336 C 0.54744 0.06481 0.42663 0.0
C1337 C 0.80913 0.75983 0.15978 0.0
C1338 C 0.83418 0.7724 0.14243 0.0
C1339 C 0.81133 0.77032 0.19128 0.0
C1340 C 0.839 0.79318 0.20716 0.0
H1341 H 0.78761 0.74132 0.14895 0.0
H1342 H 0.79143 0.75955 0.20348 0.0
S1343 S 0.91132 0.83433 0.17236 0.0
N1344 N 0.88727 0.80991 0.14337 0.0
N1345 N 0.89186 0.829 0.20263 0.0
C1346 C 0.86415 0.80638 0.18998 0.0
C1347 C 0.86162 0.79623 0.15766 0.0
C1348 C 0.11537 0.04746 0.79388 0.0
C1349 C 0.14784 0.05463 0.79614 0.0
C1350 C 0.10015 0.06183 0.77225 0.0
C1351 C 0.1171 0.08434 0.75282 0.0
H1352 H 0.10171 0.03131 0.80935 0.0
H1353 H 0.07518 0.05581 0.77102 0.0
S1354 S 0.20154 0.10793 0.74644 0.0
N1355 N 0.19568 0.08287 0.77432 0.0
N1356 N 0.16718 0.1107 0.73493 0.0
C1357 C 0.14924 0.0908 0.75412 0.0
C1358 C 0.1646 0.07567 0.77539 0.0
C1359 C 0.84994 0.45469 0.3969 0.0
C1360 C 0.83318 0.44463 0.42196 0.0
C1361 C 0.85105 0.43069 0.37352 0.0
C1362 C 0.83558 0.39582 0.37455 0.0
H1363 H 0.86368 0.48103 0.39607 0.0
H1364 H 0.86538 0.4394 0.3554 0.0
S1365 S 0.78327 0.35714 0.43174 0.0
N1366 N 0.79691 0.39803 0.44384 0.0
N1367 N 0.79919 0.35298 0.40006 0.0
C1368 C 0.81671 0.38576 0.39811 0.0
C1369 C 0.81542 0.41016 0.42177 0.0
C1370 C 0.56179 0.11094 0.30315 0.0
C1371 C 0.52975 0.10655 0.29828 0.0
C1372 C 0.57638 0.09784 0.28092 0.0
C1373 C 0.55927 0.07988 0.25348 0.0
H1374 H 0.57531 0.12303 0.32474 0.0
H1375 H 0.6008 0.10062 0.28569 0.0
S1376 S 0.47645 0.06607 0.22749 0.0
N1377 N 0.48256 0.08658 0.26215 0.0
N1378 N 0.50999 0.06155 0.22092 0.0
C1379 C 0.52786 0.07713 0.24754 0.0
C1380 C 0.51314 0.09067 0.26985 0.0
C1381 C 0.84505 0.74829 0.92343 0.0
C1382 C 0.84704 0.76966 0.95048 0.0
C1383 C 0.84793 0.76072 0.89439 0.0
C1384 C 0.85298 0.79527 0.89083 0.0
H1385 H 0.84083 0.7214 0.92454 0.0
H1386 H 0.84564 0.74289 0.87451 0.0
S1387 S 0.86117 0.86257 0.95439 0.0
N1388 N 0.8552 0.8275 0.97165 0.0
N1389 N 0.86075 0.85104 0.91763 0.0
C1390 C 0.85557 0.81712 0.91783 0.0
C1391 C 0.85257 0.80436 0.9474 0.0
C1392 C 0.86117 0.06578 0.02693 0.0
C1393 C 0.8593 0.07467 0.05796 0.0
C1394 C 0.87774 0.04406 0.01884 0.0
C1395 C 0.8923 0.03039 0.04162 0.0
H1396 H 0.85196 0.07773 1.009 0.0
H1397 H 0.88165 0.04063 0.99504 0.0
S1398 S 0.88733 0.0392 0.12531 0.0
N1399 N 0.8685 0.06363 0.11098 0.0
N1400 N 0.89882 1.02197 0.09563 0.0
C1401 C 0.88707 0.03569 0.07228 0.0
C1402 C 0.87089 0.05827 0.08056 0.0
C1403 C 0.47501 0.46072 0.02736 0.0
C1404 C 0.45491 0.45723 0.0504 0.0
C1405 C 0.50146 0.48958 0.02816 0.0
C1406 C 0.50895 0.51588 0.05219 0.0
H1407 H 0.4704 0.44096 1.00855 0.0
H1408 H 0.51673 0.49063 0.01046 0.0
S1409 S 0.46325 0.5202 0.11729 0.0
N1410 N 0.44382 0.48347 0.09729 0.0
N1411 N 0.49344 0.53744 0.0988 0.0
C1412 C 0.48865 0.51316 0.07492 0.0
C1413 C 0.46169 0.48393 0.07404 0.0
C1414 C 0.42045 0.64565 0.81814 0.0
C1415 C 0.41842 0.62523 0.7908 0.0
C1416 C 0.39436 0.65255 0.82725 0.0
C1417 C 0.36519 0.63893 0.80953 0.0
H1418 H 0.44256 0.65725 0.8322 0.0
H1419 H 0.3975 0.67007 0.84755 0.0
S1420 S 0.34635 0.57907 0.7388 0.0
N1421 N 0.38416 0.58824 0.74781 0.0
N1422 N 0.33493 0.60068 0.7655 0.0
C1423 C 0.36239 0.61664 0.78321 0.0
C1424 C 0.38905 0.60995 0.77366 0.0
C1425 C 0.23761 0.60412 0.62982 0.0
C1426 C 0.25996 0.61766 0.61008 0.0
C1427 C 0.20587 0.59593 0.61993 0.0
C1428 C 0.19575 0.60214 0.59042 0.0
H1429 H 0.2447 0.59972 0.65291 0.0
H1430 H 0.18917 0.58534 0.63568 0.0
S1431 S 0.2452 0.6381 0.53039 0.0
N1432 N 0.26992 0.63705 0.55974 0.0
N1433 N 0.21033 0.62259 0.54163 0.0
C1434 C 0.21789 0.61594 0.57061 0.0
C1435 C 0.25004 0.62346 0.58034 0.0
C1436 C 0.79307 1.01517 0.83192 0.0
C1437 C 0.76386 1.00628 0.84285 0.0
C1438 C 0.81841 1.01033 0.84843 0.0
C1439 C 0.81578 0.99616 0.87666 0.0
H1440 H 0.79642 0.02541 0.80999 0.0
H1441 H 0.83969 1.01567 0.83771 0.0
S1442 S 0.74524 0.97213 0.91718 0.0
N1443 N 0.73417 0.98548 0.88496 0.0
N1444 N 0.7823 0.97607 0.91623 0.0
C1445 C 0.78716 0.98892 0.88882 0.0
C1446 C 0.76113 0.99407 0.8719 0.0
C1447 C 0.79966 0.96517 0.56075 0.0
C1448 C 0.78983 0.93489 0.54077 0.0
C1449 C 0.78348 0.98851 0.55971 0.0
C1450 C 0.7568 0.98234 0.53883 0.0
H1451 H 0.82002 0.97097 0.57742 0.0
H1452 H 0.79171 1.01142 0.57557 0.0
S1453 S 0.72209 0.90827 0.48048 0.0
N1454 N 0.75212 0.90084 0.49861 0.0
N1455 N 0.72164 0.94481 0.49704 0.0
C1456 C 0.74669 0.95242 0.51863 0.0
C1457 C 0.76323 0.92866 0.51952 0.0
C1458 C 0.40934 0.48265 0.80327 0.0
C1459 C 0.42963 0.49063 0.78062 0.0
C1460 C 0.39312 0.4489 0.80706 0.0
C1461 C 0.39707 0.42203 0.78865 0.0
H1462 H 0.40561 0.50261 0.81792 0.0
H1463 H 0.37764 0.44387 0.82477 0.0
S1464 S 0.44807 0.42956 0.7264 0.0
N1465 N 0.45314 0.46915 0.73968 0.0
N1466 N 0.42278 0.40554 0.74696 0.0
C1467 C 0.41751 0.42965 0.76605 0.0
C1468 C 0.43375 0.46404 0.76196 0.0
C1469 C 0.25329 0.66276 0.30009 0.0
C1470 C 0.2547 0.64581 0.2717 0.0
C1471 C 0.27221 0.69637 0.30884 0.0
C1472 C 0.29295 0.71445 0.28936 0.0
H1473 H 0.23757 0.64994 0.31584 0.0
H1474 H 0.27006 0.70845 0.33077 0.0
S1475 S 0.306 0.68157 0.21281 0.0
N1476 N 0.27897 0.64947 0.22436 0.0
N1477 N 0.31435 0.71279 0.24066 0.0
C1478 C 0.29478 0.69777 0.26099 0.0
C1479 C 0.27572 0.66342 0.25222 0.0
C1480 C 0.55686 0.69551 0.4941 0.0
C1481 C 0.57409 0.72752 0.50976 0.0
C1482 C 0.56229 0.66558 0.50213 0.0
C1483 C 0.58474 0.66625 0.52656 0.0
H1484 H 0.53966 0.69363 0.47485 0.0
H1485 H 0.54877 0.64175 0.48903 0.0
S1486 S 0.63515 0.74344 0.57587 0.0
N1487 N 0.614 0.75783 0.55143 0.0
N1488 N 0.62378 0.70195 0.56681 0.0
C1489 C 0.60153 0.69804 0.54289 0.0
C1490 C 0.59633 0.7285 0.53443 0.0
C1491 C 0.72541 0.33881 0.73778 0.0
C1492 C 0.72512 0.34123 0.70601 0.0
C1493 C 0.75091 0.3349 0.75535 0.0
C1494 C 0.77708 0.33249 0.74186 0.0
H1495 H 0.70554 0.33954 0.74923 0.0
H1496 H 0.74954 0.33262 0.77965 0.0
S1497 S 0.78842 0.33828 0.65953 0.0
N1498 N 0.75377 0.34216 0.66178 0.0
N1499 N 0.80147 0.33382 0.69473 0.0
C1500 C 0.77738 0.33539 0.71013 0.0
C1501 C 0.75153 0.3401 0.69226 0.0
C1502 C 0.04332 0.4319 0.97941 0.0
C1503 C 0.05896 0.40918 0.98793 0.0
C1504 C 0.0536 0.46596 0.99216 0.0
C1505 C 0.08043 0.47909 0.01351 0.0
H1506 H 1.02285 0.4233 0.96266 0.0
H1507 H 1.04068 0.4823 0.98472 0.0
S1508 S 0.13004 0.43033 0.04354 0.0
N1509 N 0.10259 0.40227 0.01941 0.0
N1510 N 0.12231 0.46634 0.0429 0.0
C1511 C 0.09633 0.45665 0.02231 0.0
C1512 C 0.08549 0.42173 1.00971 0.0
C1513 C 0.04583 0.79288 0.19317 0.0
C1514 C 0.07047 0.82346 0.19308 0.0
C1515 C 1.02386 0.78958 0.21409 0.0
C1516 C 1.02542 0.81687 0.23546 0.0
H1517 H 0.04353 0.77114 0.17707 0.0
H1518 H 1.00522 0.7656 0.21324 0.0
S1519 S 0.08509 0.9024 0.24492 0.0
N1520 N 0.09509 0.88164 0.21647 0.0
N1521 N 0.05351 0.87536 0.25559 0.0
C1522 C 0.0498 0.84762 0.23566 0.0
C1523 C 0.07243 0.85092 0.21457 0.0
C1524 C 0.60614 0.47195 0.1687 0.0
C1525 C 0.60202 0.43805 0.15632 0.0
C1526 C 0.60715 0.49935 0.15039 0.0
C1527 C 0.60428 0.49563 0.11782 0.0
H1528 H 0.60855 0.47777 0.19337 0.0
H1529 H 0.61014 0.52399 0.16225 0.0
S1530 S 0.59271 0.41278 0.07217 0.0
N1531 N 0.59482 0.40317 0.10801 0.0
N1532 N 0.59674 0.45368 0.07403 0.0
C1533 C 0.60014 0.46189 0.10486 0.0
C1534 C 0.59903 0.43373 0.12371 0.0
C1535 C 1.00063 0.34857 0.34873 0.0
C1536 C 1.00756 0.32742 0.37054 0.0
C1537 C 0.96966 0.34694 0.33737 0.0
C1538 C 0.94239 0.32425 0.34695 0.0
H1539 H 1.01973 0.36734 0.34031 0.0
H1540 H 0.96721 0.36424 0.3208 0.0
S1541 S 0.94569 0.26441 0.40564 0.0
N1542 N 0.98279 0.28335 0.40205 0.0
N1543 N 0.92562 0.28066 0.38168 0.0
C1544 C 0.94877 0.30299 0.36906 0.0
C1545 C 0.98061 0.30444 0.38043 0.0
C1546 C 0.10478 0.73368 0.60612 0.0
C1547 C 0.09724 0.73855 0.63641 0.0
C1548 C 0.10511 0.70184 0.59246 0.0
C1549 C 0.09851 0.67225 0.60815 0.0
H1550 H 0.11079 0.75502 0.59249 0.0
H1551 H 0.11125 0.70073 0.56925 0.0
S1552 S 0.07665 0.66951 0.68798 0.0
N1553 N 0.08219 0.70945 0.68145 0.0
N1554 N 0.08334 0.65042 0.65639 0.0
C1555 C 0.09063 0.67645 0.63847 0.0
C1556 C 0.08983 0.70903 0.6523 0.0
C1557 C 0.72288 0.85599 0.87037 0.0
C1558 C 0.69871 0.82445 0.87179 0.0
C1559 C 0.75093 0.85882 0.85565 0.0
C1560 C 0.75748 0.83036 0.84118 0.0
H1561 H 0.72084 0.87884 0.88184 0.0
H1562 H 0.76807 0.88378 0.85629 0.0
S1563 S 0.70243 0.74164 0.83776 0.0
N1564 N 0.68466 0.76417 0.85653 0.0
N1565 N 0.73507 0.76913 0.82971 0.0
C1566 C 0.73317 0.79898 0.8422 0.0
C1567 C 0.70496 0.79618 0.85713 0.0
C1568 C 0.50224 0.58378 0.63818 0.0
C1569 C 0.5025 0.56084 0.66007 0.0
C1570 C 0.52133 0.58693 0.61454 0.0
C1571 C 0.54184 0.56813 0.61308 0.0
H1572 H 0.48745 0.59946 0.63953 0.0
H1573 H 0.52093 0.60502 0.59807 0.0
S1574 S 0.5507 0.50442 0.66466 0.0
N1575 N 0.52391 0.51831 0.67829 0.0
N1576 N 0.5607 0.52527 0.63453 0.0
C1577 C 0.54197 0.54486 0.63458 0.0
C1578 C 0.52199 0.54096 0.658 0.0
C1579 C 0.82783 0.22167 0.01699 0.0
C1580 C 0.80188 0.20253 0.03046 0.0
C1581 C 0.82419 0.23823 0.99101 0.0
C1582 C 0.79452 0.23643 0.97779 0.0
H1583 H 0.85116 0.22373 0.02638 0.0
H1584 H 0.84472 0.25245 0.98113 0.0
S1585 S 0.71896 0.18875 1.00301 0.0
N1586 N 0.74521 0.18213 0.02782 0.0
N1587 N 0.7388 0.21364 0.97905 0.0
C1588 C 0.76839 0.21761 0.9909 0.0
C1589 C 0.77196 0.20054 0.01724 0.0
C1590 C 0.1667 0.52649 0.16269 0.0
C1591 C 0.14481 0.51286 0.18287 0.0
C1592 C 0.15799 0.53801 0.13541 0.0
C1593 C 0.12705 0.5364 0.12736 0.0
H1594 H 0.19112 0.53009 0.16888 0.0
H1595 H 0.17594 0.54944 0.12114 0.0
S1596 S 0.0601 0.49881 0.17056 0.0
N1597 N 0.09035 0.4951 0.19166 0.0
N1598 N 0.07381 0.51678 0.14013 0.0
C1599 C 0.10443 0.52028 0.14611 0.0
C1600 C 0.11336 0.50842 0.17395 0.0
C1601 C 0.84717 0.88746 0.4383 0.0
C1602 C 0.85354 0.8677 0.46123 0.0
C1603 C 0.84593 0.87754 0.40686 0.0
C1604 C 0.85146 0.84755 0.39658 0.0
H1605 H 0.84324 0.91116 0.44465 0.0
H1606 H 0.84113 0.89401 0.39049 0.0
S1607 S 0.86769 0.78557 0.44684 0.0
N1608 N 0.86422 0.81577 0.47118 0.0
N1609 N 0.86227 0.7972 0.41216 0.0
C1610 C 0.85731 0.8271 0.41918 0.0
C1611 C 0.85818 0.83708 0.45137 0.0
C1612 C 0.55749 0.54522 0.8101 0.0
C1613 C 0.54943 0.57464 0.80592 0.0
C1614 C 0.57127 0.54065 0.83849 0.0
C1615 C 0.5776 0.56538 0.8637 0.0
H1616 H 0.55165 0.52467 0.79184 0.0
H1617 H 0.57545 0.51681 0.84114 0.0
S1618 S 0.56614 0.64944 0.86343 0.0
N1619 N 0.55233 0.63066 0.82843 0.0
N1620 N 0.57862 0.62215 0.88168 0.0
C1621 C 0.57179 0.59595 0.85924 0.0
C1622 C 0.55766 0.60059 0.83037 0.0
C1623 C 0.86645 0.23486 0.19414 0.0
C1624 C 0.83663 0.2148 0.18059 0.0
C1625 C 0.8704 0.25506 0.22204 0.0
C1626 C 0.84472 0.25507 0.23753 0.0
H1627 H 0.88668 0.2359 0.18259 0.0
H1628 H 0.89363 0.27101 0.23137 0.0
S1629 S 0.76203 0.20463 0.21249 0.0
N1630 N 0.78126 0.1947 0.18527 0.0
N1631 N 0.78859 0.232 0.23782 0.0
C1632 C 0.81493 0.23393 0.22474 0.0
C1633 C 0.8109 0.21396 0.19619 0.0
C1634 C 0.09454 0.53374 0.31659 0.0
C1635 C 0.10939 0.55911 0.29845 0.0
C1636 C 0.08457 0.54227 0.34423 0.0
C1637 C 0.09007 0.57649 0.35484 0.0
H1638 H 0.0935 0.50768 0.31097 0.0
H1639 H 0.07591 0.52242 0.35902 0.0
S1640 S 0.12124 0.6512 0.31184 0.0
N1641 N 0.12304 0.61864 0.28945 0.0
N1642 N 0.1057 0.63502 0.34221 0.0
C1643 C 0.10066 0.6014 0.3347 0.0
C1644 C 0.11012 0.59257 0.30619 0.0
C1645 C 0.86462 0.87415 0.66985 0.0
C1646 C 0.83684 0.8619 0.64961 0.0
C1647 C 0.86473 0.87153 0.70182 0.0
C1648 C 0.83716 0.85605 0.71497 0.0
H1649 H 0.88638 0.88665 0.66108 0.0
H1650 H 0.88675 0.88139 0.71628 0.0
S1651 S 0.75833 0.81868 0.67194 0.0
N1652 N 0.78105 0.83316 0.64526 0.0
N1653 N 0.78138 0.82764 0.70466 0.0
C1654 C 0.80936 0.84319 0.69485 0.0
C1655 C 0.80918 0.84629 0.66247 0.0
C1656 C 0.80778 0.5638 0.56047 0.0
C1657 C 0.78722 0.53482 0.54229 0.0
C1658 C 0.7969 0.58807 0.57472 0.0
C1659 C 0.76527 0.58429 0.57082 0.0
H1660 H 0.83244 0.56754 0.56421 0.0
H1661 H 0.81321 0.60975 0.5889 0.0
S1662 S 0.70196 0.51418 0.5253 0.0
N1663 N 0.7337 0.50427 0.52115 0.0
N1664 N 0.71345 0.55056 0.54742 0.0
C1665 C 0.74451 0.55598 0.55243 0.0
C1666 C 0.75545 0.53101 0.53829 0.0
C1667 C 0.24782 0.15782 0.58959 0.0
C1668 C 0.25881 0.1721 0.56298 0.0
C1669 C 0.21691 0.13697 0.58941 0.0
C1670 C 0.19584 0.12904 0.56248 0.0
H1671 H 0.26298 0.16346 0.61103 0.0
H1672 H 0.20942 0.12721 0.61066 0.0
S1673 S 0.21322 0.15869 0.48621 0.0
N1674 N 0.24633 0.17599 0.50864 0.0
N1675 N 0.18837 0.13648 0.50821 0.0
C1676 C 0.20672 0.14233 0.53544 0.0
C1677 C 0.23813 0.16397 0.53573 0.0
C1678 C 0.26778 0.98088 0.79738 0.0
C1679 C 0.27359 1.0119 0.81514 0.0
C1680 C 0.29175 0.97321 0.78416 0.0
C1681 C 0.32217 0.99662 0.78778 0.0
H1682 H 0.24478 0.96203 0.79442 0.0
H1683 H 0.28662 0.94818 0.77209 0.0
S1684 S 0.3482 0.08335 0.82859 0.0
N1685 N 0.31113 0.06743 0.83359 0.0
N1686 N 0.35606 0.05325 0.80787 0.0
C1687 C 0.32788 0.02841 0.80424 0.0
C1688 C 0.30361 0.036 0.81815 0.0
C1689 C 0.44658 0.04249 0.0251 0.0
C1690 C 0.43011 0.02864 0.04934 0.0
C1691 C 0.47896 0.05097 0.02727 0.0
C1692 C 0.49564 0.04491 0.05336 0.0
H1693 H 0.43432 0.04643 1.00419 0.0
H1694 H 0.49089 0.06137 1.0081 0.0
S1695 S 0.46382 1.01085 0.12371 0.0
N1696 N 0.43316 1.01083 0.10083 0.0
N1697 N 0.49392 0.02608 0.10453 0.0
C1698 C 0.4796 0.03179 0.07798 0.0
C1699 C 0.4468 0.02386 0.07609 0.0
C1700 C 0.90539 0.62899 0.81756 0.0
C1701 C 0.90363 0.63249 0.84928 0.0
C1702 C 0.88396 0.63605 0.79683 0.0
C1703 C 0.86021 0.64694 0.80728 0.0
H1704 H 0.92361 0.62095 0.80874 0.0
H1705 H 0.88652 0.63399 0.77255 0.0
S1706 S 0.84559 0.6589 0.88846 0.0
N1707 N 0.87616 0.64583 0.89044 0.0
N1708 N 0.83602 0.66049 0.85158 0.0
C1709 C 0.85781 0.64966 0.83908 0.0
C1710 C 0.8796 0.64215 0.86013 0.0
C1711 C 0.94209 0.7169 0.07886 0.0
C1712 C 0.91194 0.70606 0.0629 0.0
C1713 C 0.95983 0.69505 0.08054 0.0
C1714 C 0.94793 0.66147 0.06657 0.0
H1715 H 0.95212 0.74245 0.09027 0.0
H1716 H 0.98286 0.70431 0.09318 0.0
S1717 S 0.8712 0.62078 0.02073 0.0
N1718 N 0.87153 0.65946 0.0319 0.0
N1719 N 0.90501 0.61867 0.03525 0.0
C1720 C 0.91809 0.65035 0.05027 0.0
C1721 C 0.90007 0.67256 0.04835 0.0
C1722 C 0.24941 0.19098 0.83218 0.0
C1723 C 0.26244 0.16825 0.84556 0.0
C1724 C 0.2681 0.22104 0.82241 0.0
C1725 C 0.30066 0.22972 0.82565 0.0
H1726 H 0.22444 0.18536 0.82873 0.0
H1727 H 0.25677 0.2376 0.81226 0.0
S1728 S 0.34661 0.17943 0.86003 0.0
N1729 N 0.31007 0.15677 0.86225 0.0
N1730 N 0.34535 0.21359 0.84386 0.0
C1731 C 0.31417 0.20766 0.83963 0.0
C1732 C 0.29504 0.17687 0.84961 0.0
C1733 C 0.39332 0.97367 0.35293 0.0
C1734 C 0.40484 0.98894 0.32684 0.0
C1735 C 0.37692 0.93885 0.35119 0.0
C1736 C 0.37199 0.91833 0.32342 0.0
H1737 H 0.39739 0.98859 0.375 0.0
H1738 H 0.36926 0.9277 0.37187 0.0
S1739 S 0.39489 0.94556 0.24806 0.0
N1740 N 0.40812 0.98071 0.27189 0.0
N1741 N 0.37776 0.91516 0.26904 0.0
C1742 C 0.3823 0.93321 0.29701 0.0
C1743 C 0.39861 0.96863 0.29858 0.0
C1744 C 0.60134 0.42813 0.57491 0.0
C1745 C 0.62918 0.42763 0.59116 0.0
C1746 C 0.5974 0.45846 0.56642 0.0
C1747 C 0.62103 0.4901 0.57379 0.0
H1748 H 0.582 0.40481 0.56893 0.0
H1749 H 0.57529 0.45693 0.55418 0.0
S1750 S 0.69901 0.50326 0.6156 0.0
N1751 N 0.68134 0.46181 0.61363 0.0
N1752 N 0.67381 0.51886 0.5982 0.0
C1753 C 0.6493 0.49006 0.58965 0.0
C1754 C 0.65341 0.45894 0.59813 0.0
C1755 C 0.45466 0.79069 0.38853 0.0
C1756 C 0.45474 0.79896 0.42023 0.0
C1757 C 0.43104 0.79288 0.36674 0.0
C1758 C 0.40653 0.80366 0.37566 0.0
H1759 H 0.47326 0.78286 0.38032 0.0
H1760 H 0.43233 0.78656 0.3427 0.0
S1761 S 0.39524 0.82722 0.45609 0.0
N1762 N 0.42741 0.81724 0.45944 0.0
N1763 N 0.38366 0.822 0.41895 0.0
C1764 C 0.40612 0.81149 0.40742 0.0
C1765 C 0.42999 0.80898 0.42954 0.0
C1766 C 0.17105 0.742 0.08765 0.0
C1767 C 0.14946 0.75569 0.09969 0.0
C1768 C 0.1634 0.70702 0.07873 0.0
C1769 C 0.13397 0.68389 0.08194 0.0
H1770 H 0.19426 0.75845 0.08519 0.0
H1771 H 0.18097 0.69801 0.06964 0.0
S1772 S 0.06856 0.70641 0.11165 0.0
N1773 N 0.09689 0.74307 0.11361 0.0
N1774 N 0.08276 0.67755 0.09754 0.0
C1775 C 0.11203 0.69721 0.09377 0.0
C1776 C 0.11967 0.73296 0.1024 0.0
C1777 C 0.11963 0.31169 0.89088 0.0
C1778 C 0.12841 0.31756 0.92285 0.0
C1779 C 0.14176 0.315 0.87021 0.0
C1780 C 0.17354 0.32418 0.88066 0.0
H1781 H 0.09541 0.30446 0.88159 0.0
H1782 H 0.13391 0.31013 0.84582 0.0
S1783 S 0.20918 0.34351 0.96178 0.0
N1784 N 0.17147 0.33362 0.96388 0.0
N1785 N 0.21303 0.33999 0.92481 0.0
C1786 C 0.18279 0.33015 0.91247 0.0
C1787 C 0.16024 0.32684 0.93361 0.0
C1788 C 0.57938 0.72056 0.01314 0.0
C1789 C 0.59183 0.72893 0.98493 0.0
C1790 C 0.57911 0.69059 0.02736 0.0
C1791 C 0.5912 0.66597 0.01469 0.0
H1792 H 0.56957 0.73765 0.02491 0.0
H1793 H 0.5693 0.68689 0.04891 0.0
S1794 S 0.62755 0.6742 0.94144 0.0
N1795 N 0.61721 0.70865 0.94521 0.0
N1796 N 0.61676 0.65319 0.97134 0.0
C1797 C 0.60381 0.67376 0.98639 0.0
C1798 C 0.60411 0.70459 0.97184 0.0
C1799 C 0.22767 0.85607 0.73241 0.0
C1800 C 0.19792 0.83726 0.74071 0.0
C1801 C 0.25664 0.85362 0.74592 0.0
C1802 C 0.25877 0.83158 0.76866 0.0
H1803 H 0.22869 0.87289 0.71458 0.0
H1804 H 0.27783 0.86908 0.73777 0.0
S1805 S 0.18856 0.77493 0.79889 0.0
N1806 N 0.17347 0.79484 0.77385 0.0
N1807 N 0.22667 0.7899 0.79857 0.0
C1808 C 0.22919 0.81258 0.77746 0.0
C1809 C 0.19954 0.81546 0.76381 0.0
C1810 C 0.08765 0.41954 0.50904 0.0
C1811 C 0.10225 0.41627 0.48225 0.0
C1812 C 0.08913 0.45146 0.52419 0.0
C1813 C 0.105 0.483 0.51362 0.0
H1814 H 0.07446 0.39684 0.51861 0.0
H1815 H 0.0771 0.4512 0.54438 0.0
S1816 S 0.1474 0.49035 0.44422 0.0
N1817 N 0.13357 0.44886 0.44599 0.0
N1818 N 0.13607 0.50815 0.47373 0.0
C1819 C 0.11997 0.48035 0.48687 0.0
C1820 C 0.11873 0.44755 0.47154 0.0
C1821 C 0.49218 0.36373 0.26173 0.0
C1822 C 0.49998 0.33606 0.24783 0.0
C1823 C 0.46341 0.36037 0.27427 0.0
C1824 C 0.43892 0.32897 0.27379 0.0
H1825 H 0.50867 0.38913 0.26269 0.0
H1826 H 0.46021 0.38337 0.28403 0.0
S1827 S 0.44519 0.24711 0.23996 0.0
N1828 N 0.47895 0.27498 0.23479 0.0
N1829 N 0.42567 0.26869 0.25744 0.0
C1830 C 0.44621 0.3007 0.26013 0.0
C1831 C 0.47605 0.30416 0.24759 0.0
C1832 C 0.71215 0.59751 0.46443 0.0
C1833 C 0.70629 0.56836 0.44372 0.0
C1834 C 0.69181 0.59883 0.48619 0.0
C1835 C 0.66487 0.57108 0.48789 0.0
H1836 H 0.7316 0.62016 0.46281 0.0
H1837 H 0.69664 0.62225 0.50089 0.0
S1838 S 0.64275 0.4864 0.44308 0.0
N1839 N 0.67444 0.50939 0.42943 0.0
N1840 N 0.63604 0.51183 0.47 0.0
C1841 C 0.66012 0.54089 0.46887 0.0
C1842 C 0.68094 0.5395 0.44694 0.0
C1843 C 0.32468 0.86154 0.0768 0.0
C1844 C 0.33238 0.89716 0.07854 0.0
C1845 C 0.33409 0.84565 0.1012 0.0
C1846 C 0.35174 0.86487 0.12801 0.0
H1847 H 0.31186 0.8458 0.05621 0.0
H1848 H 0.32813 0.81825 0.09884 0.0
S1849 S 0.37485 0.95823 0.14593 0.0
N1850 N 0.35649 0.95078 0.1108 0.0
N1851 N 0.37423 0.92076 0.15623 0.0
C1852 C 0.35863 0.90025 0.13057 0.0
C1853 C 0.34893 0.91644 0.10596 0.0
C1854 C 1.042 0.62525 0.93999 0.0
C1855 C 0.04452 0.6064 0.91321 0.0
C1856 C 0.06102 0.62721 0.96708 0.0
C1857 C 0.0831 0.61023 0.9683 0.0
H1858 H 1.0238 0.63667 0.94065 0.0
H1859 H 0.05674 0.64005 0.98766 0.0
S1860 S 0.10395 0.56467 0.90245 0.0
N1861 N 0.07459 0.57594 0.8879 0.0
N1862 N 0.1105 0.57952 0.93907 0.0
C1863 C 0.08855 0.59499 0.94075 0.0
C1864 C 0.06914 0.59307 0.91305 0.0
C1865 C 0.31275 0.30214 0.6559 0.0
C1866 C 0.33494 0.29245 0.64057 0.0
C1867 C 0.31628 0.30916 0.68807 0.0
C1868 C 0.34187 0.30617 0.70662 0.0
H1869 H 0.29216 0.30398 0.64294 0.0
H1870 H 0.2983 0.31619 0.69852 0.0
S1871 S 0.40728 0.28279 0.67826 0.0
N1872 N 0.38416 0.28142 0.64678 0.0
N1873 N 0.39044 0.29393 0.70702 0.0
C1874 C 0.36451 0.29702 0.69165 0.0
C1875 C 0.36118 0.29041 0.65878 0.0
C1876 C 0.63334 0.54234 0.27576 0.0
C1877 C 0.63357 0.5554 0.30619 0.0
C1878 C 0.61486 0.54904 0.25159 0.0
C1879 C 0.59596 0.56918 0.25689 0.0
H1880 H 0.64881 0.52832 0.27028 0.0
H1881 H 0.61721 0.54044 0.22838 0.0
S1882 S 0.584 0.60454 0.33269 0.0
N1883 N 0.61014 0.58575 0.3407 0.0
N1884 N 0.57534 0.59828 0.295 0.0
C1885 C 0.59391 0.57996 0.28738 0.0
C1886 C 0.61267 0.573 0.31212 0.0
C1887 C 0.34563 0.88342 0.93998 0.0
C1888 C 0.33838 0.91365 0.94091 0.0
C1889 C 0.3457 0.86547 0.91209 0.0
C1890 C 0.33906 0.87736 0.88395 0.0
H1891 H 0.35158 0.87364 0.96104 0.0
H1892 H 0.35188 0.84252 0.91274 0.0
S1893 S 0.31803 0.95517 0.87394 0.0
N1894 N 0.32357 0.95456 0.91156 0.0
N1895 N 0.32423 0.92096 0.8587 0.0
C1896 C 0.33128 0.90739 0.88448 0.0
C1897 C 0.33073 0.92547 0.91309 0.0
C1898 C 0.98034 0.58804 0.76045 0.0
C1899 C 0.99976 0.61032 0.78496 0.0
C1900 C 0.99265 0.57794 0.73489 0.0
C1901 C 1.0248 0.58952 0.73322 0.0
H1902 H 0.95564 0.57686 0.7618 0.0
H1903 H 0.97716 0.55936 0.71726 0.0
S1904 S 0.08511 0.65174 0.78896 0.0
N1905 N 0.05235 0.64659 0.80423 0.0
N1906 N 0.07546 0.62721 0.75609 0.0
C1907 C 0.04421 0.61368 0.75636 0.0
C1908 C 1.03166 0.62431 0.78226 0.0
C1909 C 0.39158 0.30728 0.4461 0.0
C1910 C 0.36504 0.28889 0.4594 0.0
C1911 C 0.38982 0.31369 0.41497 0.0
C1912 C 0.3616 0.30108 0.39548 0.0
H1913 H 0.41398 0.31697 0.45992 0.0
H1914 H 0.41084 0.32826 0.40603 0.0
S1915 S 0.28523 0.25119 0.41864 0.0
N1916 N 0.30953 0.25837 0.45038 0.0
N1917 N 0.30632 0.26953 0.39207 0.0
C1918 C 0.3349 0.28251 0.40845 0.0
C1919 C 0.33658 0.27668 0.44028 0.0
C1920 C 0.42061 0.60045 0.55837 0.0
C1921 C 0.38863 0.59203 0.54894 0.0
C1922 C 0.4393 0.5869 0.54167 0.0
C1923 C 0.42667 0.56417 0.51514 0.0
H1924 H 0.43154 0.61829 0.57839 0.0
H1925 H 0.46391 0.59429 0.54956 0.0
S1926 S 0.34429 0.53217 0.48156 0.0
N1927 N 0.34494 0.55829 0.5118 0.0
N1928 N 0.38047 0.53257 0.48071 0.0
C1929 C 0.39472 0.5546 0.50588 0.0
C1930 C 0.3756 0.56865 0.5227 0.0
C1931 C 0.95901 0.9819 0.55087 0.0
C1932 C 0.95355 0.9681 0.57907 0.0
C1933 C 0.98742 1.00649 0.54722 0.0
C1934 C 1.01143 1.01822 0.57165 0.0
H1935 H 0.94109 0.97388 0.53146 0.0
H1936 H 0.9905 1.01646 0.52516 0.0
S1937 S 1.01006 0.98757 0.64929 0.0
N1938 N 0.97526 0.96649 0.63123 0.0
N1939 N 1.02859 1.01217 0.62446 0.0
C1940 C 1.00646 1.00406 0.59981 0.0
C1941 C 0.97755 0.97917 0.60351 0.0
C1942 C 0.90596 0.12088 0.31439 0.0
C1943 C 0.93337 0.1449 0.30705 0.0
C1944 C 0.88318 0.13117 0.32759 0.0
C1945 C 0.88716 0.16574 0.33395 0.0
H1946 H 0.90209 0.09392 0.31001 0.0
H1947 H 0.86233 0.11204 0.33279 0.0
S1948 S 0.95276 0.23848 0.31611 0.0
N1949 N 0.96212 0.20467 0.30546 0.0
N1950 N 0.919 0.22393 0.32984 0.0
C1951 C 0.91408 0.18997 0.32627 0.0
C1952 C 0.93731 0.17954 0.31297 0.0
C1953 C 0.72422 0.10771 0.13437 0.0
C1954 C 0.74378 0.09999 0.11427 0.0
C1955 C 0.69354 0.10444 0.12385 0.0
C1956 C 0.6815 0.0935 0.09289 0.0
H1957 H 0.73306 0.11817 0.15789 0.0
H1958 H 0.67947 0.11152 0.13997 0.0
S1959 S 0.72223 0.06575 0.03215 0.0
N1960 N 0.74816 0.07742 0.06287 0.0
N1961 N 0.69058 0.07182 0.04303 0.0
C1962 C 0.70033 0.08398 0.07297 0.0
C1963 C 0.73142 0.08693 0.08375 0.0
C1964 C 0.26878 0.52148 0.35294 0.0
C1965 C 0.26333 0.53581 0.32595 0.0
C1966 C 0.29579 0.51268 0.35859 0.0
C1967 C 0.31802 0.51848 0.33753 0.0
H1968 H 0.25125 0.51506 0.36864 0.0
H1969 H 0.29811 0.49901 0.37828 0.0
S1970 S 0.31707 0.56231 0.26704 0.0
N1971 N 0.28389 0.56002 0.28045 0.0
N1972 N 0.3351 0.54457 0.29154 0.0
C1973 C 0.31411 0.53607 0.31219 0.0
C1974 C 0.28653 0.54439 0.30623 0.0
C1975 C 0.2608 0.43306 0.03015 0.0
C1976 C 0.2916 0.44158 0.04411 0.0
C1977 C 0.24584 0.45755 0.02858 0.0
C1978 C 0.26124 0.49145 0.04067 0.0
H1979 H 0.24814 0.40735 0.02021 0.0
H1980 H 0.22222 0.45004 0.01744 0.0
S1981 S 0.3411 0.5268 0.08112 0.0
N1982 N 0.33646 0.48645 0.07139 0.0
N1983 N 0.30813 0.53215 0.06821 0.0
C1984 C 0.29176 0.50029 0.05502 0.0
C1985 C 0.30699 0.47543 0.05682 0.0
C1986 C 0.89863 0.95775 0.24154 0.0
C1987 C 0.92802 0.97741 0.25622 0.0
C1988 C 0.88312 0.92595 0.25064 0.0
C1989 C 0.89651 0.91252 0.27462 0.0
H1990 H 0.88692 0.96746 0.22368 0.0
H1991 H 0.86014 0.91215 0.23906 0.0
S1992 S 0.97504 0.95229 0.31759 0.0
N1993 N 0.97143 0.98011 0.29381 0.0
N1994 N 0.94221 0.92011 0.31095 0.0
C1995 C 0.9267 0.93113 0.28833 0.0
C1996 C 0.94246 0.96366 0.27912 0.0
C1997 C 0.78825 0.14614 0.75871 0.0
C1998 C 0.75621 0.137 0.74892 0.0
C1999 C 0.80618 0.17996 0.76806 0.0
C2000 C 0.79264 0.20578 0.76826 0.0
H2001 H 0.79939 0.12688 0.76038 0.0
H2002 H 0.83051 0.18568 0.77638 0.0
S2003 S 0.71102 0.19641 0.74039 0.0
N2004 N 0.71261 0.15741 0.73662 0.0
N2005 N 0.74635 0.2209 0.75457 0.0
C2006 C 0.76116 0.19744 0.75679 0.0
C2007 C 0.74295 0.16307 0.74691 0.0
loop_
_geom_bond_atom_site_label_1
_geom_bond_atom_site_label_2
_geom_bond_distance
_geom_bond_site_symmetry_2
_ccdc_geom_bond_type
C0 O1 1.160 . S
C0 O7 1.185 . S
O1 C0 1.160 . S
O2 Zn3 1.899 . S
O2 C10 1.284 . S
Zn3 O2 1.899 . S
Zn3 O4 2.032 . S
Zn3 O7 2.086 . S
Zn3 O12 1.977 . S
O4 Zn3 2.032 . S
O4 C8 1.278 . S
C5 O6 1.203 . S
C5 O12 1.267 1_655 S
O6 C5 1.203 . S
O7 C0 1.185 . S
O7 Zn3 2.086 . S
C8 O4 1.278 . S
C8 O9 1.211 . S
O9 C8 1.211 . S
C10 O2 1.284 . S
C10 O11 1.273 . S
O11 C10 1.273 . S
O12 Zn3 1.977 . S
O12 C5 1.267 1_455 S
C13 O14 1.165 . S
C13 O20 1.159 1_655 S
O14 C13 1.165 . S
O15 Zn16 1.899 . S
O15 C23 1.284 . S
Zn16 O15 1.899 . S
Zn16 O17 2.032 . S
Zn16 O20 2.086 . S
Zn16 O25 1.977 . S
O17 Zn16 2.032 . S
O17 C21 1.278 . S
C18 O19 1.203 . S
C18 O25 1.267 . S
O19 C18 1.203 . S
O20 C13 1.159 1_455 S
O20 Zn16 2.086 . S
C21 O17 1.278 . S
C21 O22 1.211 . S
O22 C21 1.211 . S
C23 O15 1.284 . S
C23 O24 1.273 . S
O24 C23 1.273 . S
O25 Zn16 1.977 . S
O25 C18 1.267 . S
C26 O27 1.160 . S
C26 O33 1.185 . S
O27 C26 1.160 . S
O28 Zn29 1.899 . S
O28 C36 1.284 . S
Zn29 O28 1.899 . S
Zn29 O30 2.032 . S
Zn29 O33 2.086 . S
Zn29 O38 1.977 . S
O30 Zn29 2.032 . S
O30 C34 1.278 . S
C31 O32 1.203 . S
C31 O38 1.267 . S
O32 C31 1.203 . S
O33 C26 1.185 . S
O33 Zn29 2.086 . S
C34 O30 1.278 . S
C34 O35 1.211 . S
O35 C34 1.211 . S
C36 O28 1.284 . S
C36 O37 1.273 . S
O37 C36 1.273 . S
O38 Zn29 1.977 . S
O38 C31 1.267 . S
C39 O40 1.160 . S
C39 O46 1.185 . S
O40 C39 1.160 . S
O41 Zn42 1.899 . S
O41 C49 1.284 . S
Zn42 O41 1.899 . S
Zn42 O43 2.032 . S
Zn42 O46 2.086 . S
Zn42 O51 1.977 . S
O43 Zn42 2.032 . S
O43 C47 1.278 . S
C44 O45 1.203 . S
C44 O51 1.267 . S
O45 C44 1.203 . S
O46 C39 1.185 . S
O46 Zn42 2.086 . S
C47 O43 1.278 . S
C47 O48 1.211 . S
O48 C47 1.211 . S
C49 O41 1.284 . S
C49 O50 1.273 . S
O50 C49 1.273 . S
O51 Zn42 1.977 . S
O51 C44 1.267 . S
C52 O53 1.160 . S
C52 O59 1.185 . S
O53 C52 1.160 . S
O54 Zn55 1.899 . S
O54 C62 1.284 . S
Zn55 O54 1.899 . S
Zn55 O56 2.032 . S
Zn55 O59 2.086 . S
Zn55 O64 1.977 . S
O56 Zn55 2.032 . S
O56 C60 1.278 . S
C57 O58 1.203 . S
C57 O64 1.267 . S
O58 C57 1.203 . S
O59 C52 1.185 . S
O59 Zn55 2.086 . S
C60 O56 1.278 . S
C60 O61 1.211 . S
O61 C60 1.211 . S
C62 O54 1.284 . S
C62 O63 1.273 . S
O63 C62 1.273 . S
O64 Zn55 1.977 . S
O64 C57 1.267 . S
C65 O66 1.160 . S
C65 O72 1.185 . S
O66 C65 1.160 . S
O67 Zn68 1.899 . S
O67 C75 1.284 . S
Zn68 O67 1.899 . S
Zn68 O69 2.032 . S
Zn68 O72 2.086 . S
Zn68 O77 1.977 . S
O69 Zn68 2.032 . S
O69 C73 1.278 . S
C70 O71 1.203 . S
C70 O77 1.267 . S
O71 C70 1.203 . S
O72 C65 1.185 . S
O72 Zn68 2.086 . S
C73 O69 1.278 . S
C73 O74 1.211 . S
O74 C73 1.211 . S
C75 O67 1.284 . S
C75 O76 1.273 . S
O76 C75 1.273 . S
O77 Zn68 1.977 . S
O77 C70 1.267 . S
C78 O79 1.160 . S
C78 O85 1.185 . S
O79 C78 1.160 . S
O80 Zn81 1.899 . S
O80 C88 1.284 . S
Zn81 O80 1.899 . S
Zn81 O82 2.032 . S
Zn81 O85 2.086 . S
Zn81 O90 1.977 . S
O82 Zn81 2.032 . S
O82 C86 1.278 . S
C83 O84 1.203 . S
C83 O90 1.267 . S
O84 C83 1.203 . S
O85 C78 1.185 . S
O85 Zn81 2.086 . S
C86 O82 1.278 . S
C86 O87 1.211 . S
O87 C86 1.211 . S
C88 O80 1.284 . S
C88 O89 1.273 . S
O89 C88 1.273 . S
O90 Zn81 1.977 . S
O90 C83 1.267 . S
C91 O92 1.160 . S
C91 O98 1.185 . S
O92 C91 1.160 . S
O93 Zn94 1.899 1_655 S
O93 C101 1.284 . S
Zn94 O93 1.899 1_455 S
Zn94 O95 2.032 . S
Zn94 O98 2.086 . S
Zn94 O103 1.977 1_455 S
O95 Zn94 2.032 . S
O95 C99 1.278 . S
C96 O97 1.203 . S
C96 O103 1.267 . S
O97 C96 1.203 . S
O98 C91 1.185 . S
O98 Zn94 2.086 . S
C99 O95 1.278 . S
C99 O100 1.211 1_455 S
O100 C99 1.211 1_655 S
C101 O93 1.284 . S
C101 O102 1.271 . S
O102 C101 1.271 . S
O103 Zn94 1.977 1_655 S
O103 C96 1.267 . S
C104 O105 1.160 . S
C104 O111 1.185 . S
O105 C104 1.160 . S
O106 Zn107 1.899 . S
O106 C114 1.284 . S
Zn107 O106 1.899 . S
Zn107 O108 2.032 . S
Zn107 O111 2.086 . S
Zn107 O116 1.977 1_545 S
O108 Zn107 2.032 . S
O108 C112 1.278 . S
C109 O110 1.203 . S
C109 O116 1.267 . S
O110 C109 1.203 . S
O111 C104 1.185 . S
O111 Zn107 2.086 . S
C112 O108 1.278 . S
C112 O113 1.211 . S
O113 C112 1.211 . S
C114 O106 1.284 . S
C114 O115 1.273 . S
O115 C114 1.273 . S
O116 Zn107 1.977 1_565 S
O116 C109 1.267 . S
C117 O118 1.160 . S
C117 O124 1.185 . S
O118 C117 1.160 . S
O119 Zn120 1.899 . S
O119 C127 1.284 . S
Zn120 O119 1.899 . S
Zn120 O121 2.032 . S
Zn120 O124 2.086 . S
Zn120 O129 1.977 . S
O121 Zn120 2.032 . S
O121 C125 1.278 . S
C122 O123 1.203 . S
C122 O129 1.267 . S
O123 C122 1.203 . S
O124 C117 1.185 . S
O124 Zn120 2.086 . S
C125 O121 1.278 . S
C125 O126 1.211 . S
O126 C125 1.211 . S
C127 O119 1.284 . S
C127 O128 1.273 . S
O128 C127 1.273 . S
O129 Zn120 1.977 . S
O129 C122 1.267 . S
C130 O131 1.160 . S
C130 O137 1.185 . S
O131 C130 1.160 . S
O132 Zn133 1.899 . S
O132 C140 1.284 . S
Zn133 O132 1.899 . S
Zn133 O134 2.032 . S
Zn133 O137 2.086 . S
Zn133 O142 1.977 . S
O134 Zn133 2.032 . S
O134 C138 1.278 . S
C135 O136 1.203 . S
C135 O142 1.267 . S
O136 C135 1.203 . S
O137 C130 1.185 . S
O137 Zn133 2.086 . S
C138 O134 1.278 . S
C138 O139 1.211 . S
O139 C138 1.211 . S
C140 O132 1.284 . S
C140 O141 1.273 . S
O141 C140 1.273 . S
O142 Zn133 1.977 . S
O142 C135 1.267 . S
C143 O144 1.160 . S
C143 O150 1.185 1_554 S
O144 C143 1.160 . S
O145 Zn146 1.899 . S
O145 C153 1.284 . S
Zn146 O145 1.899 . S
Zn146 O147 2.032 1_554 S
Zn146 O150 2.086 1_554 S
Zn146 O155 1.980 . S
O147 Zn146 2.032 1_556 S
O147 C151 1.278 . S
C148 O149 1.203 . S
C148 O155 1.270 . S
O149 C148 1.203 . S
O150 C143 1.185 1_556 S
O150 Zn146 2.086 1_556 S
C151 O147 1.278 . S
C151 O152 1.211 . S
O152 C151 1.211 . S
C153 O145 1.284 . S
C153 O154 1.273 . S
O154 C153 1.273 . S
O155 Zn146 1.980 . S
O155 C148 1.270 . S
C156 O157 1.160 . S
C156 O163 1.185 . S
O157 C156 1.160 . S
O158 Zn159 1.899 . S
O158 C166 1.284 . S
Zn159 O158 1.899 . S
Zn159 O160 2.032 . S
Zn159 O163 2.086 . S
Zn159 O168 1.977 . S
O160 Zn159 2.032 . S
O160 C164 1.278 . S
C161 O162 1.203 . S
C161 O168 1.267 . S
O162 C161 1.203 . S
O163 C156 1.185 . S
O163 Zn159 2.086 . S
C164 O160 1.278 . S
C164 O165 1.211 . S
O165 C164 1.211 . S
C166 O158 1.284 . S
C166 O167 1.273 . S
O167 C166 1.273 . S
O168 Zn159 1.977 . S
O168 C161 1.267 . S
C169 O170 1.160 . S
C169 O176 1.185 . S
O170 C169 1.160 . S
O171 Zn172 1.899 . S
O171 C179 1.284 . S
Zn172 O171 1.899 . S
Zn172 O173 2.032 . S
Zn172 O176 2.086 . S
Zn172 O181 1.977 . S
O173 Zn172 2.032 . S
O173 C177 1.278 . S
C174 O175 1.203 . S
C174 O181 1.267 . S
O175 C174 1.203 . S
O176 C169 1.185 . S
O176 Zn172 2.086 . S
C177 O173 1.278 . S
C177 O178 1.211 . S
O178 C177 1.211 . S
C179 O171 1.284 . S
C179 O180 1.273 . S
O180 C179 1.273 . S
O181 Zn172 1.977 . S
O181 C174 1.267 . S
C182 O183 1.160 . S
C182 O189 1.185 . S
O183 C182 1.160 . S
O184 Zn185 1.899 . S
O184 C192 1.284 . S
Zn185 O184 1.899 . S
Zn185 O186 2.032 . S
Zn185 O189 2.086 . S
Zn185 O194 1.977 . S
O186 Zn185 2.032 . S
O186 C190 1.278 . S
C187 O188 1.203 . S
C187 O194 1.267 . S
O188 C187 1.203 . S
O189 C182 1.185 . S
O189 Zn185 2.086 . S
C190 O186 1.278 . S
C190 O191 1.211 . S
O191 C190 1.211 . S
C192 O184 1.284 . S
C192 O193 1.273 . S
O193 C192 1.273 . S
O194 Zn185 1.977 . S
O194 C187 1.267 . S
C195 O196 1.160 . S
C195 O202 1.185 . S
O196 C195 1.160 . S
O197 Zn198 1.899 . S
O197 C205 1.284 . S
Zn198 O197 1.899 . S
Zn198 O199 2.032 . S
Zn198 O202 2.086 . S
Zn198 O207 1.977 . S
O199 Zn198 2.032 . S
O199 C203 1.278 . S
C200 O201 1.203 . S
C200 O207 1.267 . S
O201 C200 1.203 . S
O202 C195 1.185 . S
O202 Zn198 2.086 . S
C203 O199 1.278 . S
C203 O204 1.211 . S
O204 C203 1.211 . S
C205 O197 1.284 . S
C205 O206 1.273 . S
O206 C205 1.273 . S
O207 Zn198 1.977 . S
O207 C200 1.267 . S
C208 O209 1.160 . S
C208 O215 1.185 . S
O209 C208 1.160 . S
O210 Zn211 1.899 . S
O210 C218 1.284 . S
Zn211 O210 1.899 . S
Zn211 O212 2.032 . S
Zn211 O215 2.086 . S
Zn211 O220 1.977 1_545 S
O212 Zn211 2.032 . S
O212 C216 1.278 . S
C213 O214 1.203 . S
C213 O220 1.267 . S
O214 C213 1.203 . S
O215 C208 1.185 . S
O215 Zn211 2.086 . S
C216 O212 1.278 . S
C216 O217 1.211 1_545 S
O217 C216 1.211 1_565 S
C218 O210 1.284 . S
C218 O219 1.273 1_545 S
O219 C218 1.273 1_565 S
O220 Zn211 1.977 1_565 S
O220 C213 1.267 . S
C221 O222 1.160 . S
C221 O228 1.185 . S
O222 C221 1.160 . S
O223 Zn224 1.899 . S
O223 C231 1.284 . S
Zn224 O223 1.899 . S
Zn224 O225 2.032 . S
Zn224 O228 2.086 . S
Zn224 O233 1.977 . S
O225 Zn224 2.032 . S
O225 C229 1.278 . S
C226 O227 1.203 . S
C226 O233 1.267 . S
O227 C226 1.203 . S
O228 C221 1.185 . S
O228 Zn224 2.086 . S
C229 O225 1.278 . S
C229 O230 1.211 . S
O230 C229 1.211 . S
C231 O223 1.284 . S
C231 O232 1.273 . S
O232 C231 1.273 . S
O233 Zn224 1.977 . S
O233 C226 1.267 . S
C234 O235 1.160 . S
C234 O241 1.185 . S
O235 C234 1.160 . S
O236 Zn237 1.899 . S
O236 C244 1.284 . S
Zn237 O236 1.899 . S
Zn237 O238 2.032 . S
Zn237 O241 2.086 . S
Zn237 O246 1.977 . S
O238 Zn237 2.032 . S
O238 C242 1.278 . S
C239 O240 1.203 . S
C239 O246 1.267 . S
O240 C239 1.203 . S
O241 C234 1.185 . S
O241 Zn237 2.086 . S
C242 O238 1.278 . S
C242 O243 1.211 . S
O243 C242 1.211 . S
C244 O236 1.284 . S
C244 O245 1.273 . S
O245 C244 1.273 . S
O246 Zn237 1.977 . S
O246 C239 1.267 . S
C247 O248 1.163 . S
C247 O254 1.185 . S
O248 C247 1.163 . S
O249 Zn250 1.899 . S
O249 C257 1.284 . S
Zn250 O249 1.899 . S
Zn250 O251 2.032 . S
Zn250 O254 2.086 . S
Zn250 O259 1.977 . S
O251 Zn250 2.032 . S
O251 C255 1.278 . S
C252 O253 1.203 . S
C252 O259 1.267 . S
O253 C252 1.203 . S
O254 C247 1.185 . S
O254 Zn250 2.086 . S
C255 O251 1.278 . S
C255 O256 1.211 . S
O256 C255 1.211 . S
C257 O249 1.284 . S
C257 O258 1.273 . S
O258 C257 1.273 . S
O259 Zn250 1.977 . S
O259 C252 1.267 . S
C260 O261 1.160 . S
C260 O267 1.185 . S
O261 C260 1.160 . S
O262 Zn263 1.899 . S
O262 C270 1.284 . S
Zn263 O262 1.899 . S
Zn263 O264 2.032 . S
Zn263 O267 2.086 . S
Zn263 O272 1.977 . S
O264 Zn263 2.032 . S
O264 C268 1.279 1_554 S
C265 O266 1.203 . S
C265 O272 1.267 . S
O266 C265 1.203 . S
O267 C260 1.185 . S
O267 Zn263 2.086 . S
C268 O264 1.279 1_556 S
C268 O269 1.212 1_556 S
O269 C268 1.212 1_554 S
C270 O262 1.284 . S
C270 O271 1.273 . S
O271 C270 1.273 . S
O272 Zn263 1.977 . S
O272 C265 1.267 . S
C273 O274 1.160 . S
C273 O280 1.185 . S
O274 C273 1.160 . S
O275 Zn276 1.899 . S
O275 C283 1.284 . S
Zn276 O275 1.899 . S
Zn276 O277 2.032 . S
Zn276 O280 2.086 . S
Zn276 O285 1.977 . S
O277 Zn276 2.032 . S
O277 C281 1.278 . S
C278 O279 1.203 . S
C278 O285 1.267 . S
O279 C278 1.203 . S
O280 C273 1.185 . S
O280 Zn276 2.086 . S
C281 O277 1.278 . S
C281 O282 1.211 . S
O282 C281 1.211 . S
C283 O275 1.284 . S
C283 O284 1.273 . S
O284 C283 1.273 . S
O285 Zn276 1.977 . S
O285 C278 1.267 . S
C286 O287 1.160 . S
C286 O293 1.185 . S
O287 C286 1.160 . S
O288 Zn289 1.899 . S
O288 C296 1.284 . S
Zn289 O288 1.899 . S
Zn289 O290 2.032 . S
Zn289 O293 2.086 . S
Zn289 O298 1.977 . S
O290 Zn289 2.032 . S
O290 C294 1.278 . S
C291 O292 1.203 . S
C291 O298 1.267 . S
O292 C291 1.203 . S
O293 C286 1.185 . S
O293 Zn289 2.086 . S
C294 O290 1.278 . S
C294 O295 1.211 . S
O295 C294 1.211 . S
C296 O288 1.284 . S
C296 O297 1.273 . S
O297 C296 1.273 . S
O298 Zn289 1.977 . S
O298 C291 1.267 . S
C299 O300 1.160 . S
C299 O306 1.185 . S
O300 C299 1.160 . S
O301 Zn302 1.899 . S
O301 C309 1.284 . S
Zn302 O301 1.899 . S
Zn302 O303 2.032 . S
Zn302 O306 2.086 . S
Zn302 O311 1.977 . S
O303 Zn302 2.032 . S
O303 C307 1.278 . S
C304 O305 1.203 . S
C304 O311 1.267 . S
O305 C304 1.203 . S
O306 C299 1.185 . S
O306 Zn302 2.086 . S
C307 O303 1.278 . S
C307 O308 1.211 . S
O308 C307 1.211 . S
C309 O301 1.284 . S
C309 O310 1.273 . S
O310 C309 1.273 . S
O311 Zn302 1.977 . S
O311 C304 1.267 . S
Tb312 C321 2.764 . S
Tb312 O322 2.325 . S
Tb312 O325 2.303 . S
Tb312 O329 2.322 . S
Tb312 O330 2.349 . S
Tb312 O333 2.415 . S
Tb312 O334 2.399 . S
Tb313 O323 2.322 1_545 S
Tb313 O324 2.349 1_554 S
Tb313 O326 2.415 1_455 S
Tb313 O327 2.399 1_454 S
Tb313 O328 2.325 . S
Tb313 O331 2.303 . S
Tb313 C342 2.764 1_455 S
C314 O330 1.261 . S
C314 O331 1.257 . S
C315 C318 1.358 . S
C315 C319 1.332 . S
C315 C321 1.504 . S
C316 C317 1.373 . S
C316 C320 1.308 . S
C317 C316 1.373 . S
C317 C318 1.429 . S
C317 H344 0.932 . S
C318 C315 1.358 . S
C318 C317 1.429 . S
C318 H345 0.930 . S
C319 C315 1.332 . S
C319 C320 1.394 . S
C319 H346 0.932 . S
C320 C316 1.308 . S
C320 C319 1.394 . S
C320 H347 0.929 . S
C321 Tb312 2.764 . S
C321 C315 1.504 . S
C321 O333 1.239 . S
C321 O334 1.263 . S
O322 Tb312 2.325 . S
O322 C332 1.236 1_545 S
O323 Tb313 2.322 1_565 S
O323 C332 1.257 . S
O324 Tb313 2.349 1_556 S
O324 C335 1.261 . S
O325 Tb312 2.303 . S
O325 C335 1.257 1_554 S
O326 Tb313 2.415 1_655 S
O326 C342 1.239 . S
O327 Tb313 2.399 1_656 S
O327 C342 1.263 1_556 S
O328 Tb313 2.325 . S
O328 C343 1.236 . S
O329 Tb312 2.322 . S
O329 C343 1.257 . S
O330 Tb312 2.349 . S
O330 C314 1.261 . S
O331 Tb313 2.303 . S
O331 C314 1.257 . S
C332 O322 1.236 1_565 S
C332 O323 1.257 . S
O333 Tb312 2.415 . S
O333 C321 1.239 . S
O334 Tb312 2.399 . S
O334 C321 1.263 . S
C335 O324 1.261 . S
C335 O325 1.257 1_556 S
C336 C339 1.341 1_554 S
C336 C340 1.345 . S
C336 C342 1.507 . S
C337 C338 1.373 . S
C337 C341 1.308 1_556 S
C338 C337 1.373 . S
C338 C339 1.429 . S
C338 H348 0.932 . S
C339 C336 1.341 1_556 S
C339 C338 1.429 . S
C339 H349 0.930 . S
C340 C336 1.345 . S
C340 C341 1.394 . S
C340 H350 0.932 . S
C341 C337 1.308 1_554 S
C341 C340 1.394 . S
C341 H351 0.929 . S
C342 Tb313 2.764 1_655 S
C342 O326 1.239 . S
C342 O327 1.263 1_554 S
C342 C336 1.507 . S
C343 O328 1.236 . S
C343 O329 1.257 . S
H344 C317 0.932 . S
H345 C318 0.930 . S
H346 C319 0.932 . S
H347 C320 0.929 . S
H348 C338 0.932 . S
H349 C339 0.930 . S
H350 C340 0.932 . S
H351 C341 0.929 . S
Tb352 C361 2.764 . S
Tb352 O362 2.325 . S
Tb352 O365 2.303 . S
Tb352 O369 2.322 . S
Tb352 O370 2.349 . S
Tb352 O373 2.415 . S
Tb352 O374 2.399 . S
Tb353 O363 2.322 . S
Tb353 O364 2.349 . S
Tb353 O366 2.415 . S
Tb353 O367 2.399 . S
Tb353 O368 2.325 . S
Tb353 O371 2.303 . S
Tb353 C382 2.764 . S
C354 O370 1.261 . S
C354 O371 1.257 . S
C355 C358 1.358 . S
C355 C359 1.332 . S
C355 C361 1.504 . S
C356 C357 1.373 . S
C356 C360 1.308 . S
C357 C356 1.373 . S
C357 C358 1.429 . S
C357 H384 0.932 . S
C358 C355 1.358 . S
C358 C357 1.429 . S
C358 H385 0.930 . S
C359 C355 1.332 . S
C359 C360 1.394 . S
C359 H386 0.932 . S
C360 C356 1.308 . S
C360 C359 1.394 . S
C360 H387 0.929 . S
C361 Tb352 2.764 . S
C361 C355 1.504 . S
C361 O373 1.239 . S
C361 O374 1.263 . S
O362 Tb352 2.325 . S
O362 C372 1.236 . S
O363 Tb353 2.322 . S
O363 C372 1.257 . S
O364 Tb353 2.349 . S
O364 C375 1.261 . S
O365 Tb352 2.303 . S
O365 C375 1.257 . S
O366 Tb353 2.415 . S
O366 C382 1.239 . S
O367 Tb353 2.399 . S
O367 C382 1.263 . S
O368 Tb353 2.325 . S
O368 C383 1.236 . S
O369 Tb352 2.322 . S
O369 C383 1.257 . S
O370 Tb352 2.349 . S
O370 C354 1.261 . S
O371 Tb353 2.303 . S
O371 C354 1.257 . S
C372 O362 1.236 . S
C372 O363 1.257 . S
O373 Tb352 2.415 . S
O373 C361 1.239 . S
O374 Tb352 2.399 . S
O374 C361 1.263 . S
C375 O364 1.261 . S
C375 O365 1.257 . S
C376 C379 1.358 . S
C376 C380 1.332 . S
C376 C382 1.504 . S
C377 C378 1.373 . S
C377 C381 1.308 . S
C378 C377 1.373 . S
C378 C379 1.429 . S
C378 H388 0.932 . S
C379 C376 1.358 . S
C379 C378 1.429 . S
C379 H389 0.930 . S
C380 C376 1.332 . S
C380 C381 1.394 . S
C380 H390 0.932 . S
C381 C377 1.308 . S
C381 C380 1.394 . S
C381 H391 0.929 . S
C382 Tb353 2.764 . S
C382 O366 1.239 . S
C382 O367 1.263 . S
C382 C376 1.504 . S
C383 O368 1.236 . S
C383 O369 1.257 . S
H384 C357 0.932 . S
H385 C358 0.930 . S
H386 C359 0.932 . S
H387 C360 0.929 . S
H388 C378 0.932 . S
H389 C379 0.930 . S
H390 C380 0.932 . S
H391 C381 0.929 . S
Tb392 C401 2.764 . S
Tb392 O402 2.325 . S
Tb392 O405 2.303 . S
Tb392 O409 2.322 1_545 S
Tb392 O410 2.349 . S
Tb392 O413 2.415 . S
Tb392 O414 2.399 . S
Tb393 O403 2.322 . S
Tb393 O404 2.349 . S
Tb393 O406 2.415 . S
Tb393 O407 2.399 . S
Tb393 O408 2.325 . S
Tb393 O411 2.303 . S
Tb393 C422 2.764 . S
C394 O410 1.261 . S
C394 O411 1.257 . S
C395 C398 1.358 . S
C395 C399 1.332 . S
C395 C401 1.504 . S
C396 C397 1.373 . S
C396 C400 1.308 . S
C397 C396 1.373 . S
C397 C398 1.429 . S
C397 H424 0.932 . S
C398 C395 1.358 . S
C398 C397 1.429 . S
C398 H425 0.930 . S
C399 C395 1.332 . S
C399 C400 1.394 . S
C399 H426 0.932 . S
C400 C396 1.308 . S
C400 C399 1.394 . S
C400 H427 0.929 . S
C401 Tb392 2.764 . S
C401 C395 1.504 . S
C401 O413 1.239 . S
C401 O414 1.263 . S
O402 Tb392 2.325 . S
O402 C412 1.236 . S
O403 Tb393 2.322 . S
O403 C412 1.257 . S
O404 Tb393 2.349 . S
O404 C415 1.261 . S
O405 Tb392 2.303 . S
O405 C415 1.257 . S
O406 Tb393 2.415 . S
O406 C422 1.239 . S
O407 Tb393 2.399 . S
O407 C422 1.263 . S
O408 Tb393 2.325 . S
O408 C423 1.236 1_545 S
O409 Tb392 2.322 1_565 S
O409 C423 1.257 . S
O410 Tb392 2.349 . S
O410 C394 1.261 . S
O411 Tb393 2.303 . S
O411 C394 1.257 . S
C412 O402 1.236 . S
C412 O403 1.257 . S
O413 Tb392 2.415 . S
O413 C401 1.239 . S
O414 Tb392 2.399 . S
O414 C401 1.263 . S
C415 O404 1.261 . S
C415 O405 1.257 . S
C416 C419 1.358 . S
C416 C420 1.332 1_545 S
C416 C422 1.504 . S
C417 C418 1.373 . S
C417 C421 1.308 . S
C418 C417 1.373 . S
C418 C419 1.429 1_565 S
C418 H428 0.932 . S
C419 C416 1.358 . S
C419 C418 1.429 1_545 S
C419 H429 0.930 . S
C420 C416 1.332 1_565 S
C420 C421 1.394 . S
C420 H430 0.932 . S
C421 C417 1.308 . S
C421 C420 1.394 . S
C421 H431 0.929 . S
C422 Tb393 2.764 . S
C422 O406 1.239 . S
C422 O407 1.263 . S
C422 C416 1.504 . S
C423 O408 1.236 1_565 S
C423 O409 1.257 . S
H424 C397 0.932 . S
H425 C398 0.930 . S
H426 C399 0.932 . S
H427 C400 0.929 . S
H428 C418 0.932 . S
H429 C419 0.930 . S
H430 C420 0.932 . S
H431 C421 0.929 . S
Tb432 C441 2.764 . S
Tb432 O442 2.325 . S
Tb432 O445 2.303 . S
Tb432 O449 2.322 . S
Tb432 O450 2.349 . S
Tb432 O453 2.415 . S
Tb432 O454 2.399 . S
Tb433 O443 2.322 . S
Tb433 O444 2.349 . S
Tb433 O446 2.415 . S
Tb433 O447 2.399 . S
Tb433 O448 2.325 . S
Tb433 O451 2.303 . S
Tb433 C462 2.764 . S
C434 O450 1.261 . S
C434 O451 1.257 . S
C435 C438 1.358 . S
C435 C439 1.332 . S
C435 C441 1.504 . S
C436 C437 1.373 . S
C436 C440 1.308 . S
C437 C436 1.373 . S
C437 C438 1.429 . S
C437 H464 0.932 . S
C438 C435 1.358 . S
C438 C437 1.429 . S
C438 H465 0.930 . S
C439 C435 1.332 . S
C439 C440 1.394 . S
C439 H466 0.932 . S
C440 C436 1.308 . S
C440 C439 1.394 . S
C440 H467 0.929 . S
C441 Tb432 2.764 . S
C441 C435 1.504 . S
C441 O453 1.239 . S
C441 O454 1.263 . S
O442 Tb432 2.325 . S
O442 C452 1.236 . S
O443 Tb433 2.322 . S
O443 C452 1.257 . S
O444 Tb433 2.349 . S
O444 C455 1.261 . S
O445 Tb432 2.303 . S
O445 C455 1.257 . S
O446 Tb433 2.415 . S
O446 C462 1.239 . S
O447 Tb433 2.399 . S
O447 C462 1.263 . S
O448 Tb433 2.325 . S
O448 C463 1.236 . S
O449 Tb432 2.322 . S
O449 C463 1.257 . S
O450 Tb432 2.349 . S
O450 C434 1.261 . S
O451 Tb433 2.303 . S
O451 C434 1.257 . S
C452 O442 1.236 . S
C452 O443 1.257 . S
O453 Tb432 2.415 . S
O453 C441 1.239 . S
O454 Tb432 2.399 . S
O454 C441 1.263 . S
C455 O444 1.261 . S
C455 O445 1.257 . S
C456 C459 1.358 . S
C456 C460 1.332 . S
C456 C462 1.504 . S
C457 C458 1.373 . S
C457 C461 1.308 . S
C458 C457 1.373 . S
C458 C459 1.429 . S
C458 H468 0.932 . S
C459 C456 1.358 . S
C459 C458 1.429 . S
C459 H469 0.930 . S
C460 C456 1.332 . S
C460 C461 1.394 . S
C460 H470 0.932 . S
C461 C457 1.308 . S
C461 C460 1.394 . S
C461 H471 0.929 . S
C462 Tb433 2.764 . S
C462 O446 1.239 . S
C462 O447 1.263 . S
C462 C456 1.504 . S
C463 O448 1.236 . S
C463 O449 1.257 . S
H464 C437 0.932 . S
H465 C438 0.930 . S
H466 C439 0.932 . S
H467 C440 0.929 . S
H468 C458 0.932 . S
H469 C459 0.930 . S
H470 C460 0.932 . S
H471 C461 0.929 . S
Tb472 C481 2.764 . S
Tb472 O482 2.325 . S
Tb472 O485 2.303 . S
Tb472 O489 2.322 . S
Tb472 O490 2.349 . S
Tb472 O493 2.415 . S
Tb472 O494 2.399 . S
Tb473 O483 2.322 . S
Tb473 O484 2.349 . S
Tb473 O486 2.415 . S
Tb473 O487 2.399 . S
Tb473 O488 2.325 . S
Tb473 O491 2.303 . S
Tb473 C502 2.764 . S
C474 O490 1.261 1_655 S
C474 O491 1.257 1_655 S
C475 C478 1.358 . S
C475 C479 1.332 . S
C475 C481 1.504 . S
C476 C477 1.373 . S
C476 C480 1.308 . S
C477 C476 1.373 . S
C477 C478 1.429 . S
C477 H504 0.932 . S
C478 C475 1.358 . S
C478 C477 1.429 . S
C478 H505 0.930 . S
C479 C475 1.332 . S
C479 C480 1.394 . S
C479 H506 0.932 . S
C480 C476 1.308 . S
C480 C479 1.394 . S
C480 H507 0.929 . S
C481 Tb472 2.764 . S
C481 C475 1.504 . S
C481 O493 1.239 . S
C481 O494 1.263 . S
O482 Tb472 2.325 . S
O482 C492 1.236 . S
O483 Tb473 2.322 . S
O483 C492 1.257 . S
O484 Tb473 2.349 . S
O484 C495 1.261 . S
O485 Tb472 2.303 . S
O485 C495 1.257 . S
O486 Tb473 2.415 . S
O486 C502 1.239 . S
O487 Tb473 2.399 . S
O487 C502 1.263 . S
O488 Tb473 2.325 . S
O488 C503 1.236 . S
O489 Tb472 2.322 . S
O489 C503 1.257 . S
O490 Tb472 2.349 . S
O490 C474 1.261 1_455 S
O491 Tb473 2.303 . S
O491 C474 1.257 1_455 S
C492 O482 1.236 . S
C492 O483 1.257 . S
O493 Tb472 2.415 . S
O493 C481 1.239 . S
O494 Tb472 2.399 . S
O494 C481 1.263 . S
C495 O484 1.261 . S
C495 O485 1.257 . S
C496 C499 1.358 . S
C496 C500 1.332 1_455 S
C496 C502 1.504 . S
C497 C498 1.373 1_655 S
C497 C501 1.308 . S
C498 C497 1.373 1_455 S
C498 C499 1.429 . S
C498 H508 0.932 . S
C499 C496 1.358 . S
C499 C498 1.429 . S
C499 H509 0.930 . S
C500 C496 1.332 1_655 S
C500 C501 1.394 . S
C500 H510 0.932 . S
C501 C497 1.308 . S
C501 C500 1.394 . S
C501 H511 0.929 . S
C502 Tb473 2.764 . S
C502 O486 1.239 . S
C502 O487 1.263 . S
C502 C496 1.504 . S
C503 O488 1.236 . S
C503 O489 1.257 . S
H504 C477 0.932 . S
H505 C478 0.930 . S
H506 C479 0.932 . S
H507 C480 0.929 . S
H508 C498 0.932 . S
H509 C499 0.930 . S
H510 C500 0.932 . S
H511 C501 0.929 . S
Tb512 C521 2.764 . S
Tb512 O522 2.325 . S
Tb512 O525 2.303 . S
Tb512 O529 2.322 . S
Tb512 O530 2.349 . S
Tb512 O533 2.415 . S
Tb512 O534 2.399 . S
Tb513 O523 2.322 . S
Tb513 O524 2.349 . S
Tb513 O526 2.415 . S
Tb513 O527 2.399 . S
Tb513 O528 2.325 . S
Tb513 O531 2.303 . S
Tb513 C542 2.764 . S
C514 O530 1.261 . S
C514 O531 1.257 . S
C515 C518 1.358 . S
C515 C519 1.332 . S
C515 C521 1.504 . S
C516 C517 1.373 . S
C516 C520 1.308 . S
C517 C516 1.373 . S
C517 C518 1.429 . S
C517 H544 0.932 . S
C518 C515 1.358 . S
C518 C517 1.429 . S
C518 H545 0.930 . S
C519 C515 1.332 . S
C519 C520 1.394 . S
C519 H546 0.932 . S
C520 C516 1.308 . S
C520 C519 1.394 . S
C520 H547 0.929 . S
C521 Tb512 2.764 . S
C521 C515 1.504 . S
C521 O533 1.239 . S
C521 O534 1.263 . S
O522 Tb512 2.325 . S
O522 C532 1.236 . S
O523 Tb513 2.322 . S
O523 C532 1.257 . S
O524 Tb513 2.349 . S
O524 C535 1.261 . S
O525 Tb512 2.303 . S
O525 C535 1.257 . S
O526 Tb513 2.415 . S
O526 C542 1.239 . S
O527 Tb513 2.399 . S
O527 C542 1.263 . S
O528 Tb513 2.325 . S
O528 C543 1.236 . S
O529 Tb512 2.322 . S
O529 C543 1.257 . S
O530 Tb512 2.349 . S
O530 C514 1.261 . S
O531 Tb513 2.303 . S
O531 C514 1.257 . S
C532 O522 1.236 . S
C532 O523 1.257 . S
O533 Tb512 2.415 . S
O533 C521 1.239 . S
O534 Tb512 2.399 . S
O534 C521 1.263 . S
C535 O524 1.261 . S
C535 O525 1.257 . S
C536 C539 1.358 . S
C536 C540 1.332 . S
C536 C542 1.504 . S
C537 C538 1.373 . S
C537 C541 1.308 . S
C538 C537 1.373 . S
C538 C539 1.429 . S
C538 H548 0.932 . S
C539 C536 1.358 . S
C539 C538 1.429 . S
C539 H549 0.930 . S
C540 C536 1.332 . S
C540 C541 1.394 . S
C540 H550 0.932 . S
C541 C537 1.308 . S
C541 C540 1.394 . S
C541 H551 0.929 . S
C542 Tb513 2.764 . S
C542 O526 1.239 . S
C542 O527 1.263 . S
C542 C536 1.504 . S
C543 O528 1.236 . S
C543 O529 1.257 . S
H544 C517 0.932 . S
H545 C518 0.930 . S
H546 C519 0.932 . S
H547 C520 0.929 . S
H548 C538 0.932 . S
H549 C539 0.930 . S
H550 C540 0.932 . S
H551 C541 0.929 . S
Tb552 C561 2.764 . S
Tb552 O562 2.325 . S
Tb552 O565 2.303 . S
Tb552 O569 2.322 1_545 S
Tb552 O570 2.349 . S
Tb552 O573 2.415 . S
Tb552 O574 2.399 . S
Tb553 O563 2.322 . S
Tb553 O564 2.349 . S
Tb553 O566 2.415 1_554 S
Tb553 O567 2.399 1_554 S
Tb553 O568 2.325 . S
Tb553 O571 2.303 . S
Tb553 C582 2.764 1_554 S
C554 O570 1.261 . S
C554 O571 1.257 . S
C555 C558 1.358 . S
C555 C559 1.332 . S
C555 C561 1.504 . S
C556 C557 1.373 . S
C556 C560 1.308 . S
C557 C556 1.373 . S
C557 C558 1.429 . S
C557 H584 0.932 . S
C558 C555 1.358 . S
C558 C557 1.429 . S
C558 H585 0.930 . S
C559 C555 1.332 . S
C559 C560 1.394 . S
C559 H586 0.932 . S
C560 C556 1.308 . S
C560 C559 1.394 . S
C560 H587 0.929 . S
C561 Tb552 2.764 . S
C561 C555 1.504 . S
C561 O573 1.239 . S
C561 O574 1.263 . S
O562 Tb552 2.325 . S
O562 C572 1.236 . S
O563 Tb553 2.322 . S
O563 C572 1.257 . S
O564 Tb553 2.349 . S
O564 C575 1.261 . S
O565 Tb552 2.303 . S
O565 C575 1.257 . S
O566 Tb553 2.415 1_556 S
O566 C582 1.239 . S
O567 Tb553 2.399 1_556 S
O567 C582 1.263 . S
O568 Tb553 2.325 . S
O568 C583 1.236 1_545 S
O569 Tb552 2.322 1_565 S
O569 C583 1.257 . S
O570 Tb552 2.349 . S
O570 C554 1.261 . S
O571 Tb553 2.303 . S
O571 C554 1.257 . S
C572 O562 1.236 . S
C572 O563 1.257 . S
O573 Tb552 2.415 . S
O573 C561 1.239 . S
O574 Tb552 2.399 . S
O574 C561 1.263 . S
C575 O564 1.261 . S
C575 O565 1.257 . S
C576 C579 1.358 . S
C576 C580 1.332 . S
C576 C582 1.504 . S
C577 C578 1.373 . S
C577 C581 1.308 . S
C578 C577 1.373 . S
C578 C579 1.429 . S
C578 H588 0.932 . S
C579 C576 1.358 . S
C579 C578 1.429 . S
C579 H589 0.930 . S
C580 C576 1.332 . S
C580 C581 1.394 . S
C580 H590 0.932 . S
C581 C577 1.308 . S
C581 C580 1.394 . S
C581 H591 0.929 . S
C582 Tb553 2.764 1_556 S
C582 O566 1.239 . S
C582 O567 1.263 . S
C582 C576 1.504 . S
C583 O568 1.236 1_565 S
C583 O569 1.257 . S
H584 C557 0.932 . S
H585 C558 0.930 . S
H586 C559 0.932 . S
H587 C560 0.929 . S
H588 C578 0.932 . S
H589 C579 0.930 . S
H590 C580 0.932 . S
H591 C581 0.929 . S
Tb592 C601 2.764 . S
Tb592 O602 2.325 . S
Tb592 O605 2.303 . S
Tb592 O609 2.322 . S
Tb592 O610 2.349 . S
Tb592 O613 2.415 . S
Tb592 O614 2.399 . S
Tb593 O603 2.322 . S
Tb593 O604 2.349 . S
Tb593 O606 2.415 . S
Tb593 O607 2.399 . S
Tb593 O608 2.325 . S
Tb593 O611 2.303 . S
Tb593 C622 2.764 . S
C594 O610 1.261 . S
C594 O611 1.257 . S
C595 C598 1.358 . S
C595 C599 1.332 . S
C595 C601 1.504 . S
C596 C597 1.373 . S
C596 C600 1.308 . S
C597 C596 1.373 . S
C597 C598 1.429 . S
C597 H624 0.932 . S
C598 C595 1.358 . S
C598 C597 1.429 . S
C598 H625 0.930 . S
C599 C595 1.332 . S
C599 C600 1.394 . S
C599 H626 0.932 . S
C600 C596 1.308 . S
C600 C599 1.394 . S
C600 H627 0.929 . S
C601 Tb592 2.764 . S
C601 C595 1.504 . S
C601 O613 1.239 . S
C601 O614 1.263 . S
O602 Tb592 2.325 . S
O602 C612 1.236 . S
O603 Tb593 2.322 . S
O603 C612 1.257 . S
O604 Tb593 2.349 . S
O604 C615 1.261 . S
O605 Tb592 2.303 . S
O605 C615 1.257 . S
O606 Tb593 2.415 . S
O606 C622 1.239 . S
O607 Tb593 2.399 . S
O607 C622 1.263 . S
O608 Tb593 2.325 . S
O608 C623 1.236 . S
O609 Tb592 2.322 . S
O609 C623 1.257 . S
O610 Tb592 2.349 . S
O610 C594 1.261 . S
O611 Tb593 2.303 . S
O611 C594 1.257 . S
C612 O602 1.236 . S
C612 O603 1.257 . S
O613 Tb592 2.415 . S
O613 C601 1.239 . S
O614 Tb592 2.399 . S
O614 C601 1.263 . S
C615 O604 1.261 . S
C615 O605 1.257 . S
C616 C619 1.358 . S
C616 C620 1.332 . S
C616 C622 1.504 . S
C617 C618 1.373 . S
C617 C621 1.308 . S
C618 C617 1.373 . S
C618 C619 1.429 . S
C618 H628 0.932 . S
C619 C616 1.358 . S
C619 C618 1.429 . S
C619 H629 0.930 . S
C620 C616 1.332 . S
C620 C621 1.394 . S
C620 H630 0.932 . S
C621 C617 1.308 . S
C621 C620 1.394 . S
C621 H631 0.929 . S
C622 Tb593 2.764 . S
C622 O606 1.239 . S
C622 O607 1.263 . S
C622 C616 1.504 . S
C623 O608 1.236 . S
C623 O609 1.257 . S
H624 C597 0.932 . S
H625 C598 0.930 . S
H626 C599 0.932 . S
H627 C600 0.929 . S
H628 C618 0.932 . S
H629 C619 0.930 . S
H630 C620 0.932 . S
H631 C621 0.929 . S
Tb632 C641 2.764 . S
Tb632 O642 2.325 . S
Tb632 O645 2.303 . S
Tb632 O649 2.322 . S
Tb632 O650 2.349 . S
Tb632 O653 2.415 . S
Tb632 O654 2.399 . S
Tb633 O643 2.322 . S
Tb633 O644 2.349 . S
Tb633 O646 2.415 1_554 S
Tb633 O647 2.399 1_554 S
Tb633 O648 2.325 . S
Tb633 O651 2.303 . S
Tb633 C662 2.764 1_554 S
C634 O650 1.261 . S
C634 O651 1.257 . S
C635 C638 1.358 . S
C635 C639 1.332 . S
C635 C641 1.504 . S
C636 C637 1.373 . S
C636 C640 1.308 . S
C637 C636 1.373 . S
C637 C638 1.429 . S
C637 H664 0.932 . S
C638 C635 1.358 . S
C638 C637 1.429 . S
C638 H665 0.930 . S
C639 C635 1.332 . S
C639 C640 1.394 . S
C639 H666 0.932 . S
C640 C636 1.308 . S
C640 C639 1.394 . S
C640 H667 0.929 . S
C641 Tb632 2.764 . S
C641 C635 1.504 . S
C641 O653 1.239 . S
C641 O654 1.263 . S
O642 Tb632 2.325 . S
O642 C652 1.236 . S
O643 Tb633 2.322 . S
O643 C652 1.257 . S
O644 Tb633 2.349 . S
O644 C655 1.261 . S
O645 Tb632 2.303 . S
O645 C655 1.257 . S
O646 Tb633 2.415 1_556 S
O646 C662 1.239 . S
O647 Tb633 2.399 1_556 S
O647 C662 1.263 . S
O648 Tb633 2.325 . S
O648 C663 1.236 . S
O649 Tb632 2.322 . S
O649 C663 1.257 . S
O650 Tb632 2.349 . S
O650 C634 1.261 . S
O651 Tb633 2.303 . S
O651 C634 1.257 . S
C652 O642 1.236 . S
C652 O643 1.257 . S
O653 Tb632 2.415 . S
O653 C641 1.239 . S
O654 Tb632 2.399 . S
O654 C641 1.263 . S
C655 O644 1.261 . S
C655 O645 1.257 . S
C656 C659 1.358 . S
C656 C660 1.332 . S
C656 C662 1.504 . S
C657 C658 1.373 . S
C657 C661 1.308 . S
C658 C657 1.373 . S
C658 C659 1.429 . S
C658 H668 0.932 . S
C659 C656 1.358 . S
C659 C658 1.429 . S
C659 H669 0.930 . S
C660 C656 1.332 . S
C660 C661 1.394 . S
C660 H670 0.932 . S
C661 C657 1.308 . S
C661 C660 1.394 . S
C661 H671 0.929 . S
C662 Tb633 2.764 1_556 S
C662 O646 1.239 . S
C662 O647 1.263 . S
C662 C656 1.504 . S
C663 O648 1.236 . S
C663 O649 1.257 . S
H664 C637 0.932 . S
H665 C638 0.930 . S
H666 C639 0.932 . S
H667 C640 0.929 . S
H668 C658 0.932 . S
H669 C659 0.930 . S
H670 C660 0.932 . S
H671 C661 0.929 . S
Tb672 C681 2.764 . S
Tb672 O682 2.325 . S
Tb672 O685 2.303 . S
Tb672 O689 2.322 . S
Tb672 O690 2.349 . S
Tb672 O693 2.415 . S
Tb672 O694 2.399 . S
Tb673 O683 2.322 . S
Tb673 O684 2.349 . S
Tb673 O686 2.415 . S
Tb673 O687 2.399 . S
Tb673 O688 2.325 . S
Tb673 O691 2.303 . S
Tb673 C702 2.764 . S
C674 O690 1.261 . S
C674 O691 1.257 . S
C675 C678 1.358 . S
C675 C679 1.332 . S
C675 C681 1.504 . S
C676 C677 1.373 . S
C676 C680 1.308 . S
C677 C676 1.373 . S
C677 C678 1.429 . S
C677 H704 0.932 . S
C678 C675 1.358 . S
C678 C677 1.429 . S
C678 H705 0.930 . S
C679 C675 1.332 . S
C679 C680 1.394 . S
C679 H706 0.932 . S
C680 C676 1.308 . S
C680 C679 1.394 . S
C680 H707 0.929 . S
C681 Tb672 2.764 . S
C681 C675 1.504 . S
C681 O693 1.239 . S
C681 O694 1.263 . S
O682 Tb672 2.325 . S
O682 C692 1.236 . S
O683 Tb673 2.322 . S
O683 C692 1.257 . S
O684 Tb673 2.349 . S
O684 C695 1.261 . S
O685 Tb672 2.303 . S
O685 C695 1.257 . S
O686 Tb673 2.415 . S
O686 C702 1.239 . S
O687 Tb673 2.399 . S
O687 C702 1.263 . S
O688 Tb673 2.325 . S
O688 C703 1.236 . S
O689 Tb672 2.322 . S
O689 C703 1.257 . S
O690 Tb672 2.349 . S
O690 C674 1.261 . S
O691 Tb673 2.303 . S
O691 C674 1.257 . S
C692 O682 1.236 . S
C692 O683 1.257 . S
O693 Tb672 2.415 . S
O693 C681 1.239 . S
O694 Tb672 2.399 . S
O694 C681 1.263 . S
C695 O684 1.261 . S
C695 O685 1.257 . S
C696 C699 1.358 . S
C696 C700 1.332 . S
C696 C702 1.504 . S
C697 C698 1.373 . S
C697 C701 1.308 . S
C698 C697 1.373 . S
C698 C699 1.429 . S
C698 H708 0.932 . S
C699 C696 1.358 . S
C699 C698 1.429 . S
C699 H709 0.930 . S
C700 C696 1.332 . S
C700 C701 1.394 . S
C700 H710 0.932 . S
C701 C697 1.308 . S
C701 C700 1.394 . S
C701 H711 0.929 . S
C702 Tb673 2.764 . S
C702 O686 1.239 . S
C702 O687 1.263 . S
C702 C696 1.504 . S
C703 O688 1.236 . S
C703 O689 1.257 . S
H704 C677 0.932 . S
H705 C678 0.930 . S
H706 C679 0.932 . S
H707 C680 0.929 . S
H708 C698 0.932 . S
H709 C699 0.930 . S
H710 C700 0.932 . S
H711 C701 0.929 . S
Tb712 C721 2.764 . S
Tb712 O722 2.325 . S
Tb712 O725 2.303 . S
Tb712 O729 2.322 . S
Tb712 O730 2.349 . S
Tb712 O733 2.415 . S
Tb712 O734 2.399 . S
Tb713 O723 2.322 . S
Tb713 O724 2.349 . S
Tb713 O726 2.415 . S
Tb713 O727 2.399 . S
Tb713 O728 2.325 . S
Tb713 O731 2.303 . S
Tb713 C742 2.764 . S
C714 O730 1.261 . S
C714 O731 1.257 . S
C715 C718 1.358 . S
C715 C719 1.332 1_455 S
C715 C721 1.504 . S
C716 C717 1.373 . S
C716 C720 1.308 1_455 S
C717 C716 1.373 . S
C717 C718 1.429 . S
C717 H744 0.932 . S
C718 C715 1.358 . S
C718 C717 1.429 . S
C718 H745 0.930 . S
C719 C715 1.332 1_655 S
C719 C720 1.394 . S
C719 H746 0.932 . S
C720 C716 1.308 1_655 S
C720 C719 1.394 . S
C720 H747 0.929 . S
C721 Tb712 2.764 . S
C721 C715 1.504 . S
C721 O733 1.239 . S
C721 O734 1.263 . S
O722 Tb712 2.325 . S
O722 C732 1.236 . S
O723 Tb713 2.322 . S
O723 C732 1.257 . S
O724 Tb713 2.349 . S
O724 C735 1.261 1_455 S
O725 Tb712 2.303 . S
O725 C735 1.257 1_455 S
O726 Tb713 2.415 . S
O726 C742 1.239 . S
O727 Tb713 2.399 . S
O727 C742 1.263 . S
O728 Tb713 2.325 . S
O728 C743 1.236 . S
O729 Tb712 2.322 . S
O729 C743 1.257 . S
O730 Tb712 2.349 . S
O730 C714 1.261 . S
O731 Tb713 2.303 . S
O731 C714 1.257 . S
C732 O722 1.236 . S
C732 O723 1.257 . S
O733 Tb712 2.415 . S
O733 C721 1.239 . S
O734 Tb712 2.399 . S
O734 C721 1.263 . S
C735 O724 1.261 1_655 S
C735 O725 1.257 1_655 S
C736 C739 1.358 . S
C736 C740 1.332 . S
C736 C742 1.504 . S
C737 C738 1.373 . S
C737 C741 1.308 . S
C738 C737 1.373 . S
C738 C739 1.429 . S
C738 H748 0.932 . S
C739 C736 1.358 . S
C739 C738 1.429 . S
C739 H749 0.930 . S
C740 C736 1.332 . S
C740 C741 1.394 . S
C740 H750 0.932 . S
C741 C737 1.308 . S
C741 C740 1.394 . S
C741 H751 0.929 . S
C742 Tb713 2.764 . S
C742 O726 1.239 . S
C742 O727 1.263 . S
C742 C736 1.504 . S
C743 O728 1.236 . S
C743 O729 1.257 . S
H744 C717 0.932 . S
H745 C718 0.930 . S
H746 C719 0.932 . S
H747 C720 0.929 . S
H748 C738 0.932 . S
H749 C739 0.930 . S
H750 C740 0.932 . S
H751 C741 0.929 . S
Tb752 C761 2.764 . S
Tb752 O762 2.325 . S
Tb752 O765 2.303 . S
Tb752 O769 2.322 . S
Tb752 O770 2.349 . S
Tb752 O773 2.415 . S
Tb752 O774 2.399 . S
Tb753 O763 2.322 . S
Tb753 O764 2.349 . S
Tb753 O766 2.415 . S
Tb753 O767 2.399 . S
Tb753 O768 2.325 . S
Tb753 O771 2.303 . S
Tb753 C782 2.764 . S
C754 O770 1.261 . S
C754 O771 1.257 . S
C755 C758 1.358 . S
C755 C759 1.332 . S
C755 C761 1.504 . S
C756 C757 1.373 . S
C756 C760 1.308 . S
C757 C756 1.373 . S
C757 C758 1.429 . S
C757 H784 0.932 . S
C758 C755 1.358 . S
C758 C757 1.429 . S
C758 H785 0.930 . S
C759 C755 1.332 . S
C759 C760 1.394 . S
C759 H786 0.932 . S
C760 C756 1.308 . S
C760 C759 1.394 . S
C760 H787 0.929 . S
C761 Tb752 2.764 . S
C761 C755 1.504 . S
C761 O773 1.239 . S
C761 O774 1.263 . S
O762 Tb752 2.325 . S
O762 C772 1.236 . S
O763 Tb753 2.322 . S
O763 C772 1.257 . S
O764 Tb753 2.349 . S
O764 C775 1.261 . S
O765 Tb752 2.303 . S
O765 C775 1.257 . S
O766 Tb753 2.415 . S
O766 C782 1.239 . S
O767 Tb753 2.399 . S
O767 C782 1.263 . S
O768 Tb753 2.325 . S
O768 C783 1.236 . S
O769 Tb752 2.322 . S
O769 C783 1.257 . S
O770 Tb752 2.349 . S
O770 C754 1.261 . S
O771 Tb753 2.303 . S
O771 C754 1.257 . S
C772 O762 1.236 . S
C772 O763 1.257 . S
O773 Tb752 2.415 . S
O773 C761 1.239 . S
O774 Tb752 2.399 . S
O774 C761 1.263 . S
C775 O764 1.261 . S
C775 O765 1.257 . S
C776 C779 1.358 . S
C776 C780 1.332 . S
C776 C782 1.504 . S
C777 C778 1.373 . S
C777 C781 1.308 . S
C778 C777 1.373 . S
C778 C779 1.429 . S
C778 H788 0.932 . S
C779 C776 1.358 . S
C779 C778 1.429 . S
C779 H789 0.930 . S
C780 C776 1.332 . S
C780 C781 1.394 . S
C780 H790 0.932 . S
C781 C777 1.308 . S
C781 C780 1.394 . S
C781 H791 0.929 . S
C782 Tb753 2.764 . S
C782 O766 1.239 . S
C782 O767 1.263 . S
C782 C776 1.504 . S
C783 O768 1.236 . S
C783 O769 1.257 . S
H784 C757 0.932 . S
H785 C758 0.930 . S
H786 C759 0.932 . S
H787 C760 0.929 . S
H788 C778 0.932 . S
H789 C779 0.930 . S
H790 C780 0.932 . S
H791 C781 0.929 . S
Tb792 C801 2.764 . S
Tb792 O802 2.325 . S
Tb792 O805 2.303 . S
Tb792 O809 2.322 . S
Tb792 O810 2.349 . S
Tb792 O813 2.415 . S
Tb792 O814 2.399 . S
Tb793 O803 2.322 . S
Tb793 O804 2.349 . S
Tb793 O806 2.415 . S
Tb793 O807 2.399 . S
Tb793 O808 2.325 . S
Tb793 O811 2.303 . S
Tb793 C822 2.764 . S
C794 O810 1.261 . S
C794 O811 1.257 . S
C795 C798 1.358 . S
C795 C799 1.332 . S
C795 C801 1.504 . S
C796 C797 1.373 . S
C796 C800 1.308 . S
C797 C796 1.373 . S
C797 C798 1.429 . S
C797 H824 0.932 . S
C798 C795 1.358 . S
C798 C797 1.429 . S
C798 H825 0.930 . S
C799 C795 1.332 . S
C799 C800 1.394 . S
C799 H826 0.932 . S
C800 C796 1.308 . S
C800 C799 1.394 . S
C800 H827 0.929 . S
C801 Tb792 2.764 . S
C801 C795 1.504 . S
C801 O813 1.239 . S
C801 O814 1.263 . S
O802 Tb792 2.325 . S
O802 C812 1.236 . S
O803 Tb793 2.322 . S
O803 C812 1.257 . S
O804 Tb793 2.349 . S
O804 C815 1.261 . S
O805 Tb792 2.303 . S
O805 C815 1.257 . S
O806 Tb793 2.415 . S
O806 C822 1.239 . S
O807 Tb793 2.399 . S
O807 C822 1.263 . S
O808 Tb793 2.325 . S
O808 C823 1.236 . S
O809 Tb792 2.322 . S
O809 C823 1.257 . S
O810 Tb792 2.349 . S
O810 C794 1.261 . S
O811 Tb793 2.303 . S
O811 C794 1.257 . S
C812 O802 1.236 . S
C812 O803 1.257 . S
O813 Tb792 2.415 . S
O813 C801 1.239 . S
O814 Tb792 2.399 . S
O814 C801 1.263 . S
C815 O804 1.261 . S
C815 O805 1.257 . S
C816 C819 1.358 . S
C816 C820 1.332 . S
C816 C822 1.504 . S
C817 C818 1.373 . S
C817 C821 1.308 . S
C818 C817 1.373 . S
C818 C819 1.429 . S
C818 H828 0.932 . S
C819 C816 1.358 . S
C819 C818 1.429 . S
C819 H829 0.930 . S
C820 C816 1.332 . S
C820 C821 1.394 . S
C820 H830 0.932 . S
C821 C817 1.308 . S
C821 C820 1.394 . S
C821 H831 0.929 . S
C822 Tb793 2.764 . S
C822 O806 1.239 . S
C822 O807 1.263 . S
C822 C816 1.504 . S
C823 O808 1.236 . S
C823 O809 1.257 . S
H824 C797 0.932 . S
H825 C798 0.930 . S
H826 C799 0.932 . S
H827 C800 0.929 . S
H828 C818 0.932 . S
H829 C819 0.930 . S
H830 C820 0.932 . S
H831 C821 0.929 . S
Tb832 C841 2.764 . S
Tb832 O842 2.325 . S
Tb832 O845 2.303 . S
Tb832 O849 2.322 . S
Tb832 O850 2.349 . S
Tb832 O853 2.415 . S
Tb832 O854 2.399 . S
Tb833 O843 2.322 . S
Tb833 O844 2.349 . S
Tb833 O846 2.415 . S
Tb833 O847 2.399 . S
Tb833 O848 2.325 . S
Tb833 O851 2.303 . S
Tb833 C862 2.764 . S
C834 O850 1.261 . S
C834 O851 1.257 . S
C835 C838 1.358 . S
C835 C839 1.332 . S
C835 C841 1.504 . S
C836 C837 1.373 . S
C836 C840 1.308 . S
C837 C836 1.373 . S
C837 C838 1.429 . S
C837 H864 0.932 . S
C838 C835 1.358 . S
C838 C837 1.429 . S
C838 H865 0.930 . S
C839 C835 1.332 . S
C839 C840 1.394 . S
C839 H866 0.932 . S
C840 C836 1.308 . S
C840 C839 1.394 . S
C840 H867 0.929 . S
C841 Tb832 2.764 . S
C841 C835 1.504 . S
C841 O853 1.239 . S
C841 O854 1.263 . S
O842 Tb832 2.325 . S
O842 C852 1.236 . S
O843 Tb833 2.322 . S
O843 C852 1.257 . S
O844 Tb833 2.349 . S
O844 C855 1.261 . S
O845 Tb832 2.303 . S
O845 C855 1.257 . S
O846 Tb833 2.415 . S
O846 C862 1.239 . S
O847 Tb833 2.399 . S
O847 C862 1.263 . S
O848 Tb833 2.325 . S
O848 C863 1.236 . S
O849 Tb832 2.322 . S
O849 C863 1.257 . S
O850 Tb832 2.349 . S
O850 C834 1.261 . S
O851 Tb833 2.303 . S
O851 C834 1.257 . S
C852 O842 1.236 . S
C852 O843 1.257 . S
O853 Tb832 2.415 . S
O853 C841 1.239 . S
O854 Tb832 2.399 . S
O854 C841 1.263 . S
C855 O844 1.261 . S
C855 O845 1.257 . S
C856 C859 1.358 . S
C856 C860 1.332 . S
C856 C862 1.504 . S
C857 C858 1.373 . S
C857 C861 1.308 . S
C858 C857 1.373 . S
C858 C859 1.429 . S
C858 H868 0.932 . S
C859 C856 1.358 . S
C859 C858 1.429 . S
C859 H869 0.930 . S
C860 C856 1.332 . S
C860 C861 1.394 . S
C860 H870 0.932 . S
C861 C857 1.308 . S
C861 C860 1.394 . S
C861 H871 0.929 . S
C862 Tb833 2.764 . S
C862 O846 1.239 . S
C862 O847 1.263 . S
C862 C856 1.504 . S
C863 O848 1.236 . S
C863 O849 1.257 . S
H864 C837 0.932 . S
H865 C838 0.930 . S
H866 C839 0.932 . S
H867 C840 0.929 . S
H868 C858 0.932 . S
H869 C859 0.930 . S
H870 C860 0.932 . S
H871 C861 0.929 . S
Tb872 C881 2.764 . S
Tb872 O882 2.325 . S
Tb872 O885 2.303 . S
Tb872 O889 2.322 . S
Tb872 O890 2.349 . S
Tb872 O893 2.415 . S
Tb872 O894 2.399 . S
Tb873 O883 2.322 . S
Tb873 O884 2.349 . S
Tb873 O886 2.415 . S
Tb873 O887 2.399 . S
Tb873 O888 2.325 . S
Tb873 O891 2.303 . S
Tb873 C902 2.764 . S
C874 O890 1.261 . S
C874 O891 1.257 . S
C875 C878 1.358 . S
C875 C879 1.332 . S
C875 C881 1.504 . S
C876 C877 1.373 . S
C876 C880 1.308 . S
C877 C876 1.373 . S
C877 C878 1.429 . S
C877 H904 0.932 . S
C878 C875 1.358 . S
C878 C877 1.429 . S
C878 H905 0.930 . S
C879 C875 1.332 . S
C879 C880 1.394 . S
C879 H906 0.932 . S
C880 C876 1.308 . S
C880 C879 1.394 . S
C880 H907 0.929 . S
C881 Tb872 2.764 . S
C881 C875 1.504 . S
C881 O893 1.239 . S
C881 O894 1.263 . S
O882 Tb872 2.325 . S
O882 C892 1.236 . S
O883 Tb873 2.322 . S
O883 C892 1.257 . S
O884 Tb873 2.349 . S
O884 C895 1.261 . S
O885 Tb872 2.303 . S
O885 C895 1.257 . S
O886 Tb873 2.415 . S
O886 C902 1.239 . S
O887 Tb873 2.399 . S
O887 C902 1.263 . S
O888 Tb873 2.325 . S
O888 C903 1.236 . S
O889 Tb872 2.322 . S
O889 C903 1.257 . S
O890 Tb872 2.349 . S
O890 C874 1.261 . S
O891 Tb873 2.303 . S
O891 C874 1.257 . S
C892 O882 1.236 . S
C892 O883 1.257 . S
O893 Tb872 2.415 . S
O893 C881 1.239 . S
O894 Tb872 2.399 . S
O894 C881 1.263 . S
C895 O884 1.261 . S
C895 O885 1.257 . S
C896 C899 1.358 . S
C896 C900 1.332 . S
C896 C902 1.504 . S
C897 C898 1.373 . S
C897 C901 1.308 . S
C898 C897 1.373 . S
C898 C899 1.429 . S
C898 H908 0.932 . S
C899 C896 1.358 . S
C899 C898 1.429 . S
C899 H909 0.930 . S
C900 C896 1.332 . S
C900 C901 1.394 . S
C900 H910 0.932 . S
C901 C897 1.308 . S
C901 C900 1.394 . S
C901 H911 0.929 . S
C902 Tb873 2.764 . S
C902 O886 1.239 . S
C902 O887 1.263 . S
C902 C896 1.504 . S
C903 O888 1.236 . S
C903 O889 1.257 . S
H904 C877 0.932 . S
H905 C878 0.930 . S
H906 C879 0.932 . S
H907 C880 0.929 . S
H908 C898 0.932 . S
H909 C899 0.930 . S
H910 C900 0.932 . S
H911 C901 0.929 . S
Tb912 C921 2.764 1_455 S
Tb912 O922 2.325 . S
Tb912 O925 2.303 . S
Tb912 O929 2.322 . S
Tb912 O930 2.349 . S
Tb912 O933 2.415 1_455 S
Tb912 O934 2.399 1_455 S
Tb913 O923 2.322 . S
Tb913 O924 2.349 1_554 S
Tb913 O926 2.415 . S
Tb913 O927 2.399 1_554 S
Tb913 O928 2.325 . S
Tb913 O931 2.303 . S
Tb913 C942 2.764 . S
C914 O930 1.261 . S
C914 O931 1.257 . S
C915 C918 1.358 . S
C915 C919 1.332 . S
C915 C921 1.504 . S
C916 C917 1.373 . S
C916 C920 1.308 . S
C917 C916 1.373 . S
C917 C918 1.429 . S
C917 H944 0.932 . S
C918 C915 1.358 . S
C918 C917 1.429 . S
C918 H945 0.930 . S
C919 C915 1.332 . S
C919 C920 1.394 . S
C919 H946 0.932 . S
C920 C916 1.308 . S
C920 C919 1.394 . S
C920 H947 0.929 . S
C921 Tb912 2.764 1_655 S
C921 C915 1.504 . S
C921 O933 1.239 . S
C921 O934 1.263 . S
O922 Tb912 2.325 . S
O922 C932 1.236 . S
O923 Tb913 2.322 . S
O923 C932 1.257 . S
O924 Tb913 2.349 1_556 S
O924 C935 1.261 . S
O925 Tb912 2.303 . S
O925 C935 1.257 1_554 S
O926 Tb913 2.415 . S
O926 C942 1.239 . S
O927 Tb913 2.399 1_556 S
O927 C942 1.263 1_556 S
O928 Tb913 2.325 . S
O928 C943 1.236 . S
O929 Tb912 2.322 . S
O929 C943 1.257 . S
O930 Tb912 2.349 . S
O930 C914 1.261 . S
O931 Tb913 2.303 . S
O931 C914 1.257 . S
C932 O922 1.236 . S
C932 O923 1.257 . S
O933 Tb912 2.415 1_655 S
O933 C921 1.239 . S
O934 Tb912 2.399 1_655 S
O934 C921 1.263 . S
C935 O924 1.261 . S
C935 O925 1.257 1_556 S
C936 C939 1.358 1_554 S
C936 C940 1.332 . S
C936 C942 1.504 . S
C937 C938 1.373 1_554 S
C937 C941 1.308 . S
C938 C937 1.373 1_556 S
C938 C939 1.429 . S
C938 H948 0.932 . S
C939 C936 1.358 1_556 S
C939 C938 1.429 . S
C939 H949 0.930 . S
C940 C936 1.332 . S
C940 C941 1.394 . S
C940 H950 0.932 . S
C941 C937 1.308 . S
C941 C940 1.394 . S
C941 H951 0.929 . S
C942 Tb913 2.764 . S
C942 O926 1.239 . S
C942 O927 1.263 1_554 S
C942 C936 1.504 . S
C943 O928 1.236 . S
C943 O929 1.257 . S
H944 C917 0.932 . S
H945 C918 0.930 . S
H946 C919 0.932 . S
H947 C920 0.929 . S
H948 C938 0.932 . S
H949 C939 0.930 . S
H950 C940 0.932 . S
H951 C941 0.929 . S
C952 C953 1.369 1_655 S
C952 C954 1.404 1_655 S
C952 H956 0.930 . S
C953 C952 1.369 1_455 S
C953 C962 1.429 1_554 S
C954 C952 1.404 1_455 S
C954 C955 1.386 . S
C954 H957 0.921 1_455 S
C955 C954 1.386 . S
C955 C961 1.428 . S
H956 C952 0.930 . S
H957 C954 0.921 1_655 S
S958 N959 1.613 . S
S958 N960 1.610 . S
N959 S958 1.613 . S
N959 C962 1.350 . S
N960 S958 1.610 . S
N960 C961 1.351 1_556 S
C961 C955 1.428 . S
C961 N960 1.351 1_554 S
C961 C962 1.434 1_554 S
C962 C953 1.429 1_556 S
C962 N959 1.350 . S
C962 C961 1.434 1_556 S
C963 C964 1.369 . S
C963 C965 1.419 . S
C963 H967 0.930 . S
C964 C963 1.369 . S
C964 C973 1.429 . S
C965 C963 1.419 . S
C965 C966 1.363 . S
C965 H968 0.929 . S
C966 C965 1.363 . S
C966 C972 1.428 . S
H967 C963 0.930 . S
H968 C965 0.929 . S
S969 N970 1.613 . S
S969 N971 1.610 . S
N970 S969 1.613 . S
N970 C973 1.350 . S
N971 S969 1.610 . S
N971 C972 1.351 . S
C972 C966 1.428 . S
C972 N971 1.351 . S
C972 C973 1.434 . S
C973 C964 1.429 . S
C973 N970 1.350 . S
C973 C972 1.434 . S
C974 C975 1.369 . S
C974 C976 1.419 . S
C974 H978 0.930 . S
C975 C974 1.369 . S
C975 C984 1.429 . S
C976 C974 1.419 . S
C976 C977 1.363 . S
C976 H979 0.929 . S
C977 C976 1.363 . S
C977 C983 1.428 . S
H978 C974 0.930 . S
H979 C976 0.929 . S
S980 N981 1.613 . S
S980 N982 1.610 . S
N981 S980 1.613 . S
N981 C984 1.350 . S
N982 S980 1.610 . S
N982 C983 1.351 . S
C983 C977 1.428 . S
C983 N982 1.351 . S
C983 C984 1.434 . S
C984 C975 1.429 . S
C984 N981 1.350 . S
C984 C983 1.434 . S
C985 C986 1.369 . S
C985 C987 1.419 . S
C985 H989 0.930 . S
C986 C985 1.369 . S
C986 C995 1.429 . S
C987 C985 1.419 . S
C987 C988 1.363 . S
C987 H990 0.929 . S
C988 C987 1.363 . S
C988 C994 1.428 . S
H989 C985 0.930 . S
H990 C987 0.929 . S
S991 N992 1.613 . S
S991 N993 1.610 . S
N992 S991 1.613 . S
N992 C995 1.350 . S
N993 S991 1.610 . S
N993 C994 1.351 . S
C994 C988 1.428 . S
C994 N993 1.351 . S
C994 C995 1.434 . S
C995 C986 1.429 . S
C995 N992 1.350 . S
C995 C994 1.434 . S
C996 C997 1.369 . S
C996 C998 1.419 . S
C996 H1000 0.930 . S
C997 C996 1.369 . S
C997 C1006 1.429 . S
C998 C996 1.419 . S
C998 C999 1.363 . S
C998 H1001 0.929 . S
C999 C998 1.363 . S
C999 C1005 1.428 . S
H1000 C996 0.930 . S
H1001 C998 0.929 . S
S1002 N1003 1.613 . S
S1002 N1004 1.610 . S
N1003 S1002 1.613 . S
N1003 C1006 1.350 . S
N1004 S1002 1.610 . S
N1004 C1005 1.351 . S
C1005 C999 1.428 . S
C1005 N1004 1.351 . S
C1005 C1006 1.434 . S
C1006 C997 1.429 . S
C1006 N1003 1.350 . S
C1006 C1005 1.434 . S
C1007 C1008 1.369 . S
C1007 C1009 1.419 . S
C1007 H1011 0.930 . S
C1008 C1007 1.369 . S
C1008 C1017 1.429 . S
C1009 C1007 1.419 . S
C1009 C1010 1.363 . S
C1009 H1012 0.929 . S
C1010 C1009 1.363 . S
C1010 C1016 1.428 . S
H1011 C1007 0.930 . S
H1012 C1009 0.929 . S
S1013 N1014 1.613 . S
S1013 N1015 1.610 . S
N1014 S1013 1.613 . S
N1014 C1017 1.350 . S
N1015 S1013 1.610 . S
N1015 C1016 1.351 . S
C1016 C1010 1.428 . S
C1016 N1015 1.351 . S
C1016 C1017 1.434 . S
C1017 C1008 1.429 . S
C1017 N1014 1.350 . S
C1017 C1016 1.434 . S
C1018 C1019 1.369 . S
C1018 C1020 1.419 . S
C1018 H1022 0.930 . S
C1019 C1018 1.369 . S
C1019 C1028 1.429 . S
C1020 C1018 1.419 . S
C1020 C1021 1.363 . S
C1020 H1023 0.929 . S
C1021 C1020 1.363 . S
C1021 C1027 1.428 . S
H1022 C1018 0.930 . S
H1023 C1020 0.929 . S
S1024 N1025 1.613 . S
S1024 N1026 1.610 . S
N1025 S1024 1.613 . S
N1025 C1028 1.350 . S
N1026 S1024 1.610 . S
N1026 C1027 1.351 . S
C1027 C1021 1.428 . S
C1027 N1026 1.351 . S
C1027 C1028 1.434 . S
C1028 C1019 1.429 . S
C1028 N1025 1.350 . S
C1028 C1027 1.434 . S
C1029 C1030 1.369 . S
C1029 C1031 1.419 . S
C1029 H1033 0.930 . S
C1030 C1029 1.369 . S
C1030 C1039 1.429 . S
C1031 C1029 1.419 . S
C1031 C1032 1.363 . S
C1031 H1034 0.929 . S
C1032 C1031 1.363 . S
C1032 C1038 1.428 . S
H1033 C1029 0.930 . S
H1034 C1031 0.929 . S
S1035 N1036 1.613 . S
S1035 N1037 1.610 . S
N1036 S1035 1.613 . S
N1036 C1039 1.350 . S
N1037 S1035 1.610 . S
N1037 C1038 1.351 . S
C1038 C1032 1.428 . S
C1038 N1037 1.351 . S
C1038 C1039 1.434 . S
C1039 C1030 1.429 . S
C1039 N1036 1.350 . S
C1039 C1038 1.434 . S
C1040 C1041 1.369 . S
C1040 C1042 1.419 1_655 S
C1040 H1044 0.934 . S
C1041 C1040 1.369 . S
C1041 C1050 1.429 . S
C1042 C1040 1.419 1_455 S
C1042 C1043 1.363 . S
C1042 H1045 0.929 . S
C1043 C1042 1.363 . S
C1043 C1049 1.428 1_455 S
H1044 C1040 0.934 . S
H1045 C1042 0.929 . S
S1046 N1047 1.613 . S
S1046 N1048 1.610 1_565 S
N1047 S1046 1.613 . S
N1047 C1050 1.350 1_565 S
N1048 S1046 1.610 1_545 S
N1048 C1049 1.351 . S
C1049 C1043 1.428 1_655 S
C1049 N1048 1.351 . S
C1049 C1050 1.434 . S
C1050 C1041 1.429 . S
C1050 N1047 1.350 1_545 S
C1050 C1049 1.434 . S
C1051 C1052 1.369 . S
C1051 C1053 1.419 . S
C1051 H1055 0.930 . S
C1052 C1051 1.369 . S
C1052 C1061 1.429 . S
C1053 C1051 1.419 . S
C1053 C1054 1.363 . S
C1053 H1056 0.929 . S
C1054 C1053 1.363 . S
C1054 C1060 1.428 . S
H1055 C1051 0.930 . S
H1056 C1053 0.929 . S
S1057 N1058 1.613 . S
S1057 N1059 1.610 . S
N1058 S1057 1.613 . S
N1058 C1061 1.350 . S
N1059 S1057 1.610 . S
N1059 C1060 1.351 . S
C1060 C1054 1.428 . S
C1060 N1059 1.351 . S
C1060 C1061 1.434 . S
C1061 C1052 1.429 . S
C1061 N1058 1.350 . S
C1061 C1060 1.434 . S
C1062 C1063 1.369 . S
C1062 C1064 1.419 . S
C1062 H1066 0.930 . S
C1063 C1062 1.369 . S
C1063 C1072 1.429 . S
C1064 C1062 1.419 . S
C1064 C1065 1.363 . S
C1064 H1067 0.929 . S
C1065 C1064 1.363 . S
C1065 C1071 1.428 . S
H1066 C1062 0.930 . S
H1067 C1064 0.929 . S
S1068 N1069 1.613 . S
S1068 N1070 1.610 . S
N1069 S1068 1.613 . S
N1069 C1072 1.350 . S
N1070 S1068 1.610 . S
N1070 C1071 1.351 . S
C1071 C1065 1.428 . S
C1071 N1070 1.351 . S
C1071 C1072 1.434 . S
C1072 C1063 1.429 . S
C1072 N1069 1.350 . S
C1072 C1071 1.434 . S
C1073 C1074 1.369 . S
C1073 C1075 1.419 . S
C1073 H1077 0.930 . S
C1074 C1073 1.369 . S
C1074 C1083 1.429 . S
C1075 C1073 1.419 . S
C1075 C1076 1.363 . S
C1075 H1078 0.929 . S
C1076 C1075 1.363 . S
C1076 C1082 1.428 . S
H1077 C1073 0.930 . S
H1078 C1075 0.929 . S
S1079 N1080 1.613 . S
S1079 N1081 1.610 . S
N1080 S1079 1.613 . S
N1080 C1083 1.350 . S
N1081 S1079 1.610 . S
N1081 C1082 1.351 . S
C1082 C1076 1.428 . S
C1082 N1081 1.351 . S
C1082 C1083 1.434 . S
C1083 C1074 1.429 . S
C1083 N1080 1.350 . S
C1083 C1082 1.434 . S
C1084 C1085 1.369 . S
C1084 C1086 1.419 . S
C1084 H1088 0.930 . S
C1085 C1084 1.369 . S
C1085 C1094 1.429 1_545 S
C1086 C1084 1.419 . S
C1086 C1087 1.363 . S
C1086 H1089 0.929 1_655 S
C1087 C1086 1.363 . S
C1087 C1093 1.428 1_545 S
H1088 C1084 0.930 . S
H1089 C1086 0.929 1_455 S
S1090 N1091 1.613 . S
S1090 N1092 1.610 . S
N1091 S1090 1.613 . S
N1091 C1094 1.350 . S
N1092 S1090 1.610 . S
N1092 C1093 1.351 . S
C1093 C1087 1.428 1_565 S
C1093 N1092 1.351 . S
C1093 C1094 1.434 . S
C1094 C1085 1.429 1_565 S
C1094 N1091 1.350 . S
C1094 C1093 1.434 . S
C1095 C1096 1.369 . S
C1095 C1097 1.419 . S
C1095 H1099 0.930 . S
C1096 C1095 1.369 . S
C1096 C1105 1.429 . S
C1097 C1095 1.419 . S
C1097 C1098 1.363 . S
C1097 H1100 0.929 . S
C1098 C1097 1.363 . S
C1098 C1104 1.428 . S
H1099 C1095 0.930 . S
H1100 C1097 0.929 . S
S1101 N1102 1.613 . S
S1101 N1103 1.610 . S
N1102 S1101 1.613 . S
N1102 C1105 1.350 . S
N1103 S1101 1.610 . S
N1103 C1104 1.351 . S
C1104 C1098 1.428 . S
C1104 N1103 1.351 . S
C1104 C1105 1.434 . S
C1105 C1096 1.429 . S
C1105 N1102 1.350 . S
C1105 C1104 1.434 . S
C1106 C1107 1.369 . S
C1106 C1108 1.419 . S
C1106 H1110 0.930 . S
C1107 C1106 1.369 . S
C1107 C1116 1.429 . S
C1108 C1106 1.419 . S
C1108 C1109 1.363 . S
C1108 H1111 0.929 . S
C1109 C1108 1.363 . S
C1109 C1115 1.428 . S
H1110 C1106 0.930 . S
H1111 C1108 0.929 . S
S1112 N1113 1.613 . S
S1112 N1114 1.610 . S
N1113 S1112 1.613 . S
N1113 C1116 1.350 . S
N1114 S1112 1.610 . S
N1114 C1115 1.351 . S
C1115 C1109 1.428 . S
C1115 N1114 1.351 . S
C1115 C1116 1.434 . S
C1116 C1107 1.429 . S
C1116 N1113 1.350 . S
C1116 C1115 1.434 . S
C1117 C1118 1.369 . S
C1117 C1119 1.419 . S
C1117 H1121 0.930 . S
C1118 C1117 1.369 . S
C1118 C1127 1.429 . S
C1119 C1117 1.419 . S
C1119 C1120 1.363 . S
C1119 H1122 0.929 . S
C1120 C1119 1.363 . S
C1120 C1126 1.428 . S
H1121 C1117 0.930 . S
H1122 C1119 0.929 . S
S1123 N1124 1.613 . S
S1123 N1125 1.610 . S
N1124 S1123 1.613 . S
N1124 C1127 1.350 . S
N1125 S1123 1.610 . S
N1125 C1126 1.351 . S
C1126 C1120 1.428 . S
C1126 N1125 1.351 . S
C1126 C1127 1.434 . S
C1127 C1118 1.429 . S
C1127 N1124 1.350 . S
C1127 C1126 1.434 . S
C1128 C1129 1.369 1_565 S
C1128 C1130 1.419 . S
C1128 H1132 0.930 . S
C1129 C1128 1.369 1_545 S
C1129 C1138 1.429 . S
C1130 C1128 1.419 . S
C1130 C1131 1.363 1_565 S
C1130 H1133 0.929 . S
C1131 C1130 1.363 1_545 S
C1131 C1137 1.428 . S
H1132 C1128 0.930 . S
H1133 C1130 0.929 . S
S1134 N1135 1.613 . S
S1134 N1136 1.610 . S
N1135 S1134 1.613 . S
N1135 C1138 1.350 . S
N1136 S1134 1.610 . S
N1136 C1137 1.351 . S
C1137 C1131 1.428 . S
C1137 N1136 1.351 . S
C1137 C1138 1.434 . S
C1138 C1129 1.429 . S
C1138 N1135 1.350 . S
C1138 C1137 1.434 . S
C1139 C1140 1.369 . S
C1139 C1141 1.419 . S
C1139 H1143 0.930 . S
C1140 C1139 1.369 . S
C1140 C1149 1.429 . S
C1141 C1139 1.419 . S
C1141 C1142 1.363 . S
C1141 H1144 0.929 . S
C1142 C1141 1.363 . S
C1142 C1148 1.428 . S
H1143 C1139 0.930 . S
H1144 C1141 0.929 . S
S1145 N1146 1.613 . S
S1145 N1147 1.610 . S
N1146 S1145 1.613 . S
N1146 C1149 1.350 . S
N1147 S1145 1.610 . S
N1147 C1148 1.351 . S
C1148 C1142 1.428 . S
C1148 N1147 1.351 . S
C1148 C1149 1.434 . S
C1149 C1140 1.429 . S
C1149 N1146 1.350 . S
C1149 C1148 1.434 . S
C1150 C1151 1.369 . S
C1150 C1152 1.419 . S
C1150 H1154 0.930 . S
C1151 C1150 1.369 . S
C1151 C1160 1.429 . S
C1152 C1150 1.419 . S
C1152 C1153 1.363 . S
C1152 H1155 0.929 . S
C1153 C1152 1.363 . S
C1153 C1159 1.428 . S
H1154 C1150 0.930 . S
H1155 C1152 0.929 . S
S1156 N1157 1.613 . S
S1156 N1158 1.610 . S
N1157 S1156 1.613 . S
N1157 C1160 1.350 . S
N1158 S1156 1.610 . S
N1158 C1159 1.351 . S
C1159 C1153 1.428 . S
C1159 N1158 1.351 . S
C1159 C1160 1.434 . S
C1160 C1151 1.429 . S
C1160 N1157 1.350 . S
C1160 C1159 1.434 . S
C1161 C1162 1.369 . S
C1161 C1163 1.419 . S
C1161 H1165 0.930 . S
C1162 C1161 1.369 . S
C1162 C1171 1.429 . S
C1163 C1161 1.419 . S
C1163 C1164 1.363 . S
C1163 H1166 0.929 . S
C1164 C1163 1.363 . S
C1164 C1170 1.428 . S
H1165 C1161 0.930 . S
H1166 C1163 0.929 . S
S1167 N1168 1.613 . S
S1167 N1169 1.610 . S
N1168 S1167 1.613 . S
N1168 C1171 1.350 . S
N1169 S1167 1.610 . S
N1169 C1170 1.351 . S
C1170 C1164 1.428 . S
C1170 N1169 1.351 . S
C1170 C1171 1.434 . S
C1171 C1162 1.429 . S
C1171 N1168 1.350 . S
C1171 C1170 1.434 . S
C1172 C1173 1.369 . S
C1172 C1174 1.419 . S
C1172 H1176 0.930 . S
C1173 C1172 1.369 . S
C1173 C1182 1.429 . S
C1174 C1172 1.419 . S
C1174 C1175 1.363 . S
C1174 H1177 0.929 . S
C1175 C1174 1.363 . S
C1175 C1181 1.428 . S
H1176 C1172 0.930 . S
H1177 C1174 0.929 . S
S1178 N1179 1.613 . S
S1178 N1180 1.610 . S
N1179 S1178 1.613 . S
N1179 C1182 1.350 . S
N1180 S1178 1.610 . S
N1180 C1181 1.351 . S
C1181 C1175 1.428 . S
C1181 N1180 1.351 . S
C1181 C1182 1.434 . S
C1182 C1173 1.429 . S
C1182 N1179 1.350 . S
C1182 C1181 1.434 . S
C1183 C1184 1.369 . S
C1183 C1185 1.419 . S
C1183 H1187 0.930 . S
C1184 C1183 1.369 . S
C1184 C1193 1.429 . S
C1185 C1183 1.419 . S
C1185 C1186 1.363 . S
C1185 H1188 0.929 . S
C1186 C1185 1.363 . S
C1186 C1192 1.428 . S
H1187 C1183 0.930 . S
H1188 C1185 0.929 . S
S1189 N1190 1.613 . S
S1189 N1191 1.610 . S
N1190 S1189 1.613 . S
N1190 C1193 1.350 . S
N1191 S1189 1.610 . S
N1191 C1192 1.351 . S
C1192 C1186 1.428 . S
C1192 N1191 1.351 . S
C1192 C1193 1.434 . S
C1193 C1184 1.429 . S
C1193 N1190 1.350 . S
C1193 C1192 1.434 . S
C1194 C1195 1.369 . S
C1194 C1196 1.419 . S
C1194 H1198 0.930 . S
C1195 C1194 1.369 . S
C1195 C1204 1.429 . S
C1196 C1194 1.419 . S
C1196 C1197 1.363 . S
C1196 H1199 0.929 . S
C1197 C1196 1.363 . S
C1197 C1203 1.428 . S
H1198 C1194 0.930 . S
H1199 C1196 0.929 . S
S1200 N1201 1.613 . S
S1200 N1202 1.610 . S
N1201 S1200 1.613 . S
N1201 C1204 1.350 . S
N1202 S1200 1.610 . S
N1202 C1203 1.351 . S
C1203 C1197 1.428 . S
C1203 N1202 1.351 . S
C1203 C1204 1.434 . S
C1204 C1195 1.429 . S
C1204 N1201 1.350 . S
C1204 C1203 1.434 . S
C1205 C1206 1.369 . S
C1205 C1207 1.419 . S
C1205 H1209 0.930 . S
C1206 C1205 1.369 . S
C1206 C1215 1.429 . S
C1207 C1205 1.419 . S
C1207 C1208 1.363 . S
C1207 H1210 0.929 . S
C1208 C1207 1.363 . S
C1208 C1214 1.428 . S
H1209 C1205 0.930 . S
H1210 C1207 0.929 . S
S1211 N1212 1.613 . S
S1211 N1213 1.610 . S
N1212 S1211 1.613 . S
N1212 C1215 1.350 . S
N1213 S1211 1.610 . S
N1213 C1214 1.351 . S
C1214 C1208 1.428 . S
C1214 N1213 1.351 . S
C1214 C1215 1.434 . S
C1215 C1206 1.429 . S
C1215 N1212 1.350 . S
C1215 C1214 1.434 . S
C1216 C1217 1.369 . S
C1216 C1218 1.419 . S
C1216 H1220 0.930 . S
C1217 C1216 1.369 . S
C1217 C1226 1.429 . S
C1218 C1216 1.419 . S
C1218 C1219 1.363 . S
C1218 H1221 0.929 . S
C1219 C1218 1.363 . S
C1219 C1225 1.428 . S
H1220 C1216 0.930 . S
H1221 C1218 0.929 . S
S1222 N1223 1.613 . S
S1222 N1224 1.610 . S
N1223 S1222 1.613 . S
N1223 C1226 1.350 . S
N1224 S1222 1.610 . S
N1224 C1225 1.351 . S
C1225 C1219 1.428 . S
C1225 N1224 1.351 . S
C1225 C1226 1.434 . S
C1226 C1217 1.429 . S
C1226 N1223 1.350 . S
C1226 C1225 1.434 . S
C1227 C1228 1.369 . S
C1227 C1229 1.419 . S
C1227 H1231 0.930 . S
C1228 C1227 1.369 . S
C1228 C1237 1.429 . S
C1229 C1227 1.419 . S
C1229 C1230 1.363 . S
C1229 H1232 0.929 . S
C1230 C1229 1.363 . S
C1230 C1236 1.428 . S
H1231 C1227 0.930 . S
H1232 C1229 0.929 . S
S1233 N1234 1.613 . S
S1233 N1235 1.610 . S
N1234 S1233 1.613 . S
N1234 C1237 1.350 . S
N1235 S1233 1.610 . S
N1235 C1236 1.351 . S
C1236 C1230 1.428 . S
C1236 N1235 1.351 . S
C1236 C1237 1.434 . S
C1237 C1228 1.429 . S
C1237 N1234 1.350 . S
C1237 C1236 1.434 . S
C1238 C1239 1.369 . S
C1238 C1240 1.419 . S
C1238 H1242 0.930 . S
C1239 C1238 1.369 . S
C1239 C1248 1.429 . S
C1240 C1238 1.419 . S
C1240 C1241 1.363 . S
C1240 H1243 0.929 . S
C1241 C1240 1.363 . S
C1241 C1247 1.428 . S
H1242 C1238 0.930 . S
H1243 C1240 0.929 . S
S1244 N1245 1.613 . S
S1244 N1246 1.610 . S
N1245 S1244 1.613 . S
N1245 C1248 1.350 . S
N1246 S1244 1.610 . S
N1246 C1247 1.351 . S
C1247 C1241 1.428 . S
C1247 N1246 1.351 . S
C1247 C1248 1.434 . S
C1248 C1239 1.429 . S
C1248 N1245 1.350 . S
C1248 C1247 1.434 . S
C1249 C1250 1.369 . S
C1249 C1251 1.419 . S
C1249 H1253 0.930 . S
C1250 C1249 1.369 . S
C1250 C1259 1.429 . S
C1251 C1249 1.419 . S
C1251 C1252 1.363 . S
C1251 H1254 0.929 . S
C1252 C1251 1.363 . S
C1252 C1258 1.428 . S
H1253 C1249 0.930 . S
H1254 C1251 0.929 . S
S1255 N1256 1.613 . S
S1255 N1257 1.610 . S
N1256 S1255 1.613 . S
N1256 C1259 1.350 . S
N1257 S1255 1.610 . S
N1257 C1258 1.351 . S
C1258 C1252 1.428 . S
C1258 N1257 1.351 . S
C1258 C1259 1.434 . S
C1259 C1250 1.429 . S
C1259 N1256 1.350 . S
C1259 C1258 1.434 . S
C1260 C1261 1.369 . S
C1260 C1262 1.419 . S
C1260 H1264 0.930 . S
C1261 C1260 1.369 . S
C1261 C1270 1.429 . S
C1262 C1260 1.419 . S
C1262 C1263 1.363 . S
C1262 H1265 0.929 . S
C1263 C1262 1.363 . S
C1263 C1269 1.428 . S
H1264 C1260 0.930 . S
H1265 C1262 0.929 . S
S1266 N1267 1.613 . S
S1266 N1268 1.610 . S
N1267 S1266 1.613 . S
N1267 C1270 1.350 . S
N1268 S1266 1.610 . S
N1268 C1269 1.351 . S
C1269 C1263 1.428 . S
C1269 N1268 1.351 . S
C1269 C1270 1.434 . S
C1270 C1261 1.429 . S
C1270 N1267 1.350 . S
C1270 C1269 1.434 . S
C1271 C1272 1.369 . S
C1271 C1273 1.419 . S
C1271 H1275 0.930 . S
C1272 C1271 1.369 . S
C1272 C1281 1.429 . S
C1273 C1271 1.419 . S
C1273 C1274 1.363 . S
C1273 H1276 0.929 . S
C1274 C1273 1.363 . S
C1274 C1280 1.428 . S
H1275 C1271 0.930 . S
H1276 C1273 0.929 . S
S1277 N1278 1.613 . S
S1277 N1279 1.610 . S
N1278 S1277 1.613 . S
N1278 C1281 1.350 . S
N1279 S1277 1.610 . S
N1279 C1280 1.351 . S
C1280 C1274 1.428 . S
C1280 N1279 1.351 . S
C1280 C1281 1.434 . S
C1281 C1272 1.429 . S
C1281 N1278 1.350 . S
C1281 C1280 1.434 . S
C1282 C1283 1.369 . S
C1282 C1284 1.419 . S
C1282 H1286 0.930 . S
C1283 C1282 1.369 . S
C1283 C1292 1.429 . S
C1284 C1282 1.419 . S
C1284 C1285 1.363 . S
C1284 H1287 0.929 . S
C1285 C1284 1.363 . S
C1285 C1291 1.428 1_556 S
H1286 C1282 0.930 . S
H1287 C1284 0.929 . S
S1288 N1289 1.605 1_554 S
S1288 N1290 1.610 . S
N1289 S1288 1.605 1_556 S
N1289 C1292 1.355 . S
N1290 S1288 1.610 . S
N1290 C1291 1.351 . S
C1291 C1285 1.428 1_554 S
C1291 N1290 1.351 . S
C1291 C1292 1.434 1_554 S
C1292 C1283 1.429 . S
C1292 N1289 1.355 . S
C1292 C1291 1.434 1_556 S
C1293 C1294 1.369 . S
C1293 C1295 1.419 . S
C1293 H1297 0.930 . S
C1294 C1293 1.369 . S
C1294 C1303 1.429 . S
C1295 C1293 1.419 . S
C1295 C1296 1.363 . S
C1295 H1298 0.929 . S
C1296 C1295 1.363 . S
C1296 C1302 1.428 . S
H1297 C1293 0.930 . S
H1298 C1295 0.929 . S
S1299 N1300 1.613 . S
S1299 N1301 1.610 . S
N1300 S1299 1.613 . S
N1300 C1303 1.350 . S
N1301 S1299 1.610 . S
N1301 C1302 1.351 . S
C1302 C1296 1.428 . S
C1302 N1301 1.351 . S
C1302 C1303 1.434 . S
C1303 C1294 1.429 . S
C1303 N1300 1.350 . S
C1303 C1302 1.434 . S
C1304 C1305 1.369 . S
C1304 C1306 1.419 . S
C1304 H1308 0.930 . S
C1305 C1304 1.369 . S
C1305 C1314 1.429 . S
C1306 C1304 1.419 . S
C1306 C1307 1.363 . S
C1306 H1309 0.929 . S
C1307 C1306 1.363 . S
C1307 C1313 1.428 . S
H1308 C1304 0.930 . S
H1309 C1306 0.929 . S
S1310 N1311 1.613 1_565 S
S1310 N1312 1.610 1_565 S
N1311 S1310 1.613 1_545 S
N1311 C1314 1.350 . S
N1312 S1310 1.610 1_545 S
N1312 C1313 1.351 . S
C1313 C1307 1.428 . S
C1313 N1312 1.351 . S
C1313 C1314 1.434 . S
C1314 C1305 1.429 . S
C1314 N1311 1.350 . S
C1314 C1313 1.434 . S
C1315 C1316 1.369 . S
C1315 C1317 1.419 . S
C1315 H1319 0.930 . S
C1316 C1315 1.369 . S
C1316 C1325 1.429 . S
C1317 C1315 1.419 . S
C1317 C1318 1.363 . S
C1317 H1320 0.929 . S
C1318 C1317 1.363 . S
C1318 C1324 1.428 . S
H1319 C1315 0.930 . S
H1320 C1317 0.929 . S
S1321 N1322 1.613 . S
S1321 N1323 1.610 . S
N1322 S1321 1.613 . S
N1322 C1325 1.350 . S
N1323 S1321 1.610 . S
N1323 C1324 1.351 . S
C1324 C1318 1.428 . S
C1324 N1323 1.351 . S
C1324 C1325 1.434 . S
C1325 C1316 1.429 . S
C1325 N1322 1.350 . S
C1325 C1324 1.434 . S
C1326 C1327 1.369 . S
C1326 C1328 1.419 . S
C1326 H1330 0.930 . S
C1327 C1326 1.369 . S
C1327 C1336 1.429 . S
C1328 C1326 1.419 . S
C1328 C1329 1.363 . S
C1328 H1331 0.929 . S
C1329 C1328 1.363 . S
C1329 C1335 1.428 . S
H1330 C1326 0.930 . S
H1331 C1328 0.929 . S
S1332 N1333 1.613 . S
S1332 N1334 1.610 1_565 S
N1333 S1332 1.613 . S
N1333 C1336 1.350 1_565 S
N1334 S1332 1.610 1_545 S
N1334 C1335 1.351 . S
C1335 C1329 1.428 . S
C1335 N1334 1.351 . S
C1335 C1336 1.434 . S
C1336 C1327 1.429 . S
C1336 N1333 1.350 1_545 S
C1336 C1335 1.434 . S
C1337 C1338 1.369 . S
C1337 C1339 1.419 . S
C1337 H1341 0.930 . S
C1338 C1337 1.369 . S
C1338 C1347 1.429 . S
C1339 C1337 1.419 . S
C1339 C1340 1.363 . S
C1339 H1342 0.929 . S
C1340 C1339 1.363 . S
C1340 C1346 1.428 . S
H1341 C1337 0.930 . S
H1342 C1339 0.929 . S
S1343 N1344 1.613 . S
S1343 N1345 1.610 . S
N1344 S1343 1.613 . S
N1344 C1347 1.350 . S
N1345 S1343 1.610 . S
N1345 C1346 1.351 . S
C1346 C1340 1.428 . S
C1346 N1345 1.351 . S
C1346 C1347 1.434 . S
C1347 C1338 1.429 . S
C1347 N1344 1.350 . S
C1347 C1346 1.434 . S
C1348 C1349 1.369 . S
C1348 C1350 1.419 . S
C1348 H1352 0.930 . S
C1349 C1348 1.369 . S
C1349 C1358 1.429 . S
C1350 C1348 1.419 . S
C1350 C1351 1.363 . S
C1350 H1353 0.929 . S
C1351 C1350 1.363 . S
C1351 C1357 1.428 . S
H1352 C1348 0.930 . S
H1353 C1350 0.929 . S
S1354 N1355 1.613 . S
S1354 N1356 1.610 . S
N1355 S1354 1.613 . S
N1355 C1358 1.350 . S
N1356 S1354 1.610 . S
N1356 C1357 1.351 . S
C1357 C1351 1.428 . S
C1357 N1356 1.351 . S
C1357 C1358 1.434 . S
C1358 C1349 1.429 . S
C1358 N1355 1.350 . S
C1358 C1357 1.434 . S
C1359 C1360 1.369 . S
C1359 C1361 1.419 . S
C1359 H1363 0.930 . S
C1360 C1359 1.369 . S
C1360 C1369 1.429 . S
C1361 C1359 1.419 . S
C1361 C1362 1.363 . S
C1361 H1364 0.929 . S
C1362 C1361 1.363 . S
C1362 C1368 1.428 . S
H1363 C1359 0.930 . S
H1364 C1361 0.929 . S
S1365 N1366 1.613 . S
S1365 N1367 1.610 . S
N1366 S1365 1.613 . S
N1366 C1369 1.350 . S
N1367 S1365 1.610 . S
N1367 C1368 1.351 . S
C1368 C1362 1.428 . S
C1368 N1367 1.351 . S
C1368 C1369 1.434 . S
C1369 C1360 1.429 . S
C1369 N1366 1.350 . S
C1369 C1368 1.434 . S
C1370 C1371 1.369 . S
C1370 C1372 1.419 . S
C1370 H1374 0.930 . S
C1371 C1370 1.369 . S
C1371 C1380 1.429 . S
C1372 C1370 1.419 . S
C1372 C1373 1.363 . S
C1372 H1375 0.929 . S
C1373 C1372 1.363 . S
C1373 C1379 1.428 . S
H1374 C1370 0.930 . S
H1375 C1372 0.929 . S
S1376 N1377 1.613 . S
S1376 N1378 1.610 . S
N1377 S1376 1.613 . S
N1377 C1380 1.350 . S
N1378 S1376 1.610 . S
N1378 C1379 1.351 . S
C1379 C1373 1.428 . S
C1379 N1378 1.351 . S
C1379 C1380 1.434 . S
C1380 C1371 1.429 . S
C1380 N1377 1.350 . S
C1380 C1379 1.434 . S
C1381 C1382 1.369 . S
C1381 C1383 1.419 . S
C1381 H1385 0.930 . S
C1382 C1381 1.369 . S
C1382 C1391 1.429 . S
C1383 C1381 1.419 . S
C1383 C1384 1.363 . S
C1383 H1386 0.929 . S
C1384 C1383 1.363 . S
C1384 C1390 1.428 . S
H1385 C1381 0.930 . S
H1386 C1383 0.929 . S
S1387 N1388 1.613 . S
S1387 N1389 1.610 . S
N1388 S1387 1.613 . S
N1388 C1391 1.350 . S
N1389 S1387 1.610 . S
N1389 C1390 1.351 . S
C1390 C1384 1.428 . S
C1390 N1389 1.351 . S
C1390 C1391 1.434 . S
C1391 C1382 1.429 . S
C1391 N1388 1.350 . S
C1391 C1390 1.434 . S
C1392 C1393 1.369 . S
C1392 C1394 1.419 . S
C1392 H1396 0.930 . S
C1393 C1392 1.369 . S
C1393 C1402 1.429 . S
C1394 C1392 1.419 . S
C1394 C1395 1.363 . S
C1394 H1397 0.929 1_554 S
C1395 C1394 1.363 . S
C1395 C1401 1.428 . S
H1396 C1392 0.930 . S
H1397 C1394 0.929 1_556 S
S1398 N1399 1.613 . S
S1398 N1400 1.610 . S
N1399 S1398 1.613 . S
N1399 C1402 1.350 . S
N1400 S1398 1.610 . S
N1400 C1401 1.351 . S
C1401 C1395 1.428 . S
C1401 N1400 1.351 . S
C1401 C1402 1.434 . S
C1402 C1393 1.429 . S
C1402 N1399 1.350 . S
C1402 C1401 1.434 . S
C1403 C1404 1.369 . S
C1403 C1405 1.419 . S
C1403 H1407 0.930 . S
C1404 C1403 1.369 . S
C1404 C1413 1.429 . S
C1405 C1403 1.419 . S
C1405 C1406 1.363 . S
C1405 H1408 0.929 . S
C1406 C1405 1.363 . S
C1406 C1412 1.428 . S
H1407 C1403 0.930 . S
H1408 C1405 0.929 . S
S1409 N1410 1.613 . S
S1409 N1411 1.610 . S
N1410 S1409 1.613 . S
N1410 C1413 1.350 . S
N1411 S1409 1.610 . S
N1411 C1412 1.351 . S
C1412 C1406 1.428 . S
C1412 N1411 1.351 . S
C1412 C1413 1.434 . S
C1413 C1404 1.429 . S
C1413 N1410 1.350 . S
C1413 C1412 1.434 . S
C1414 C1415 1.369 . S
C1414 C1416 1.419 . S
C1414 H1418 0.930 . S
C1415 C1414 1.369 . S
C1415 C1424 1.429 . S
C1416 C1414 1.419 . S
C1416 C1417 1.363 . S
C1416 H1419 0.929 . S
C1417 C1416 1.363 . S
C1417 C1423 1.428 . S
H1418 C1414 0.930 . S
H1419 C1416 0.929 . S
S1420 N1421 1.613 . S
S1420 N1422 1.610 . S
N1421 S1420 1.613 . S
N1421 C1424 1.350 . S
N1422 S1420 1.610 . S
N1422 C1423 1.351 . S
C1423 C1417 1.428 . S
C1423 N1422 1.351 . S
C1423 C1424 1.434 . S
C1424 C1415 1.429 . S
C1424 N1421 1.350 . S
C1424 C1423 1.434 . S
C1425 C1426 1.369 . S
C1425 C1427 1.419 . S
C1425 H1429 0.930 . S
C1426 C1425 1.369 . S
C1426 C1435 1.429 . S
C1427 C1425 1.419 . S
C1427 C1428 1.363 . S
C1427 H1430 0.929 . S
C1428 C1427 1.363 . S
C1428 C1434 1.428 . S
H1429 C1425 0.930 . S
H1430 C1427 0.929 . S
S1431 N1432 1.613 . S
S1431 N1433 1.610 . S
N1432 S1431 1.613 . S
N1432 C1435 1.350 . S
N1433 S1431 1.610 . S
N1433 C1434 1.351 . S
C1434 C1428 1.428 . S
C1434 N1433 1.351 . S
C1434 C1435 1.434 . S
C1435 C1426 1.429 . S
C1435 N1432 1.350 . S
C1435 C1434 1.434 . S
C1436 C1437 1.369 . S
C1436 C1438 1.419 . S
C1436 H1440 0.930 . S
C1437 C1436 1.369 . S
C1437 C1446 1.429 1_545 S
C1438 C1436 1.419 . S
C1438 C1439 1.363 1_545 S
C1438 H1441 0.929 . S
C1439 C1438 1.363 1_565 S
C1439 C1445 1.428 . S
H1440 C1436 0.930 . S
H1441 C1438 0.929 . S
S1442 N1443 1.613 . S
S1442 N1444 1.610 . S
N1443 S1442 1.613 . S
N1443 C1446 1.350 . S
N1444 S1442 1.610 . S
N1444 C1445 1.351 . S
C1445 C1439 1.428 . S
C1445 N1444 1.351 . S
C1445 C1446 1.434 . S
C1446 C1437 1.429 1_565 S
C1446 N1443 1.350 . S
C1446 C1445 1.434 . S
C1447 C1448 1.369 . S
C1447 C1449 1.419 . S
C1447 H1451 0.930 . S
C1448 C1447 1.369 . S
C1448 C1457 1.429 . S
C1449 C1447 1.419 . S
C1449 C1450 1.363 . S
C1449 H1452 0.929 1_565 S
C1450 C1449 1.363 . S
C1450 C1456 1.428 . S
H1451 C1447 0.930 . S
H1452 C1449 0.929 1_545 S
S1453 N1454 1.613 . S
S1453 N1455 1.610 . S
N1454 S1453 1.613 . S
N1454 C1457 1.350 . S
N1455 S1453 1.610 . S
N1455 C1456 1.351 . S
C1456 C1450 1.428 . S
C1456 N1455 1.351 . S
C1456 C1457 1.434 . S
C1457 C1448 1.429 . S
C1457 N1454 1.350 . S
C1457 C1456 1.434 . S
C1458 C1459 1.369 . S
C1458 C1460 1.419 . S
C1458 H1462 0.930 . S
C1459 C1458 1.369 . S
C1459 C1468 1.429 . S
C1460 C1458 1.419 . S
C1460 C1461 1.363 . S
C1460 H1463 0.929 . S
C1461 C1460 1.363 . S
C1461 C1467 1.428 . S
H1462 C1458 0.930 . S
H1463 C1460 0.929 . S
S1464 N1465 1.613 . S
S1464 N1466 1.610 . S
N1465 S1464 1.613 . S
N1465 C1468 1.350 . S
N1466 S1464 1.610 . S
N1466 C1467 1.351 . S
C1467 C1461 1.428 . S
C1467 N1466 1.351 . S
C1467 C1468 1.434 . S
C1468 C1459 1.429 . S
C1468 N1465 1.350 . S
C1468 C1467 1.434 . S
C1469 C1470 1.369 . S
C1469 C1471 1.419 . S
C1469 H1473 0.930 . S
C1470 C1469 1.369 . S
C1470 C1479 1.429 . S
C1471 C1469 1.419 . S
C1471 C1472 1.363 . S
C1471 H1474 0.929 . S
C1472 C1471 1.363 . S
C1472 C1478 1.428 . S
H1473 C1469 0.930 . S
H1474 C1471 0.929 . S
S1475 N1476 1.613 . S
S1475 N1477 1.610 . S
N1476 S1475 1.613 . S
N1476 C1479 1.350 . S
N1477 S1475 1.610 . S
N1477 C1478 1.351 . S
C1478 C1472 1.428 . S
C1478 N1477 1.351 . S
C1478 C1479 1.434 . S
C1479 C1470 1.429 . S
C1479 N1476 1.350 . S
C1479 C1478 1.434 . S
C1480 C1481 1.369 . S
C1480 C1482 1.419 . S
C1480 H1484 0.930 . S
C1481 C1480 1.369 . S
C1481 C1490 1.429 . S
C1482 C1480 1.419 . S
C1482 C1483 1.363 . S
C1482 H1485 0.929 . S
C1483 C1482 1.363 . S
C1483 C1489 1.428 . S
H1484 C1480 0.930 . S
H1485 C1482 0.929 . S
S1486 N1487 1.613 . S
S1486 N1488 1.610 . S
N1487 S1486 1.613 . S
N1487 C1490 1.350 . S
N1488 S1486 1.610 . S
N1488 C1489 1.351 . S
C1489 C1483 1.428 . S
C1489 N1488 1.351 . S
C1489 C1490 1.434 . S
C1490 C1481 1.429 . S
C1490 N1487 1.350 . S
C1490 C1489 1.434 . S
C1491 C1492 1.369 . S
C1491 C1493 1.419 . S
C1491 H1495 0.930 . S
C1492 C1491 1.369 . S
C1492 C1501 1.429 . S
C1493 C1491 1.419 . S
C1493 C1494 1.363 . S
C1493 H1496 0.929 . S
C1494 C1493 1.363 . S
C1494 C1500 1.428 . S
H1495 C1491 0.930 . S
H1496 C1493 0.929 . S
S1497 N1498 1.613 . S
S1497 N1499 1.610 . S
N1498 S1497 1.613 . S
N1498 C1501 1.350 . S
N1499 S1497 1.610 . S
N1499 C1500 1.351 . S
C1500 C1494 1.428 . S
C1500 N1499 1.351 . S
C1500 C1501 1.434 . S
C1501 C1492 1.429 . S
C1501 N1498 1.350 . S
C1501 C1500 1.434 . S
C1502 C1503 1.369 1_556 S
C1502 C1504 1.419 . S
C1502 H1506 0.920 1_455 S
C1503 C1502 1.369 1_554 S
C1503 C1512 1.429 . S
C1504 C1502 1.419 . S
C1504 C1505 1.363 1_556 S
C1504 H1507 0.929 . S
C1505 C1504 1.363 1_554 S
C1505 C1511 1.428 . S
H1506 C1502 0.920 1_655 S
H1507 C1504 0.929 . S
S1508 N1509 1.613 . S
S1508 N1510 1.610 . S
N1509 S1508 1.613 . S
N1509 C1512 1.350 . S
N1510 S1508 1.610 . S
N1510 C1511 1.351 . S
C1511 C1505 1.428 . S
C1511 N1510 1.351 . S
C1511 C1512 1.434 . S
C1512 C1503 1.429 . S
C1512 N1509 1.350 . S
C1512 C1511 1.434 . S
C1513 C1514 1.369 . S
C1513 C1515 1.419 1_455 S
C1513 H1517 0.930 . S
C1514 C1513 1.369 . S
C1514 C1523 1.429 . S
C1515 C1513 1.419 1_655 S
C1515 C1516 1.363 . S
C1515 H1518 0.929 . S
C1516 C1515 1.363 . S
C1516 C1522 1.428 . S
H1517 C1513 0.930 . S
H1518 C1515 0.929 . S
S1519 N1520 1.613 1_655 S
S1519 N1521 1.610 . S
N1520 S1519 1.613 1_455 S
N1520 C1523 1.350 . S
N1521 S1519 1.610 . S
N1521 C1522 1.351 . S
C1522 C1516 1.428 . S
C1522 N1521 1.351 . S
C1522 C1523 1.434 1_655 S
C1523 C1514 1.429 . S
C1523 N1520 1.350 . S
C1523 C1522 1.434 1_455 S
C1524 C1525 1.369 . S
C1524 C1526 1.419 . S
C1524 H1528 0.930 . S
C1525 C1524 1.369 . S
C1525 C1534 1.429 . S
C1526 C1524 1.419 . S
C1526 C1527 1.363 . S
C1526 H1529 0.929 . S
C1527 C1526 1.363 . S
C1527 C1533 1.428 . S
H1528 C1524 0.930 . S
H1529 C1526 0.929 . S
S1530 N1531 1.613 . S
S1530 N1532 1.610 . S
N1531 S1530 1.613 . S
N1531 C1534 1.350 . S
N1532 S1530 1.610 . S
N1532 C1533 1.351 . S
C1533 C1527 1.428 . S
C1533 N1532 1.351 . S
C1533 C1534 1.434 . S
C1534 C1525 1.429 . S
C1534 N1531 1.350 . S
C1534 C1533 1.434 . S
C1535 C1536 1.369 . S
C1535 C1537 1.419 . S
C1535 H1539 0.930 . S
C1536 C1535 1.369 . S
C1536 C1545 1.429 . S
C1537 C1535 1.419 . S
C1537 C1538 1.363 . S
C1537 H1540 0.929 . S
C1538 C1537 1.363 . S
C1538 C1544 1.428 . S
H1539 C1535 0.930 . S
H1540 C1537 0.929 . S
S1541 N1542 1.613 . S
S1541 N1543 1.610 . S
N1542 S1541 1.613 . S
N1542 C1545 1.350 . S
N1543 S1541 1.610 . S
N1543 C1544 1.351 . S
C1544 C1538 1.428 . S
C1544 N1543 1.351 . S
C1544 C1545 1.434 . S
C1545 C1536 1.429 . S
C1545 N1542 1.350 . S
C1545 C1544 1.434 . S
C1546 C1547 1.369 . S
C1546 C1548 1.419 . S
C1546 H1550 0.930 . S
C1547 C1546 1.369 . S
C1547 C1556 1.429 . S
C1548 C1546 1.419 . S
C1548 C1549 1.363 . S
C1548 H1551 0.929 . S
C1549 C1548 1.363 . S
C1549 C1555 1.428 . S
H1550 C1546 0.930 . S
H1551 C1548 0.929 . S
S1552 N1553 1.613 . S
S1552 N1554 1.610 . S
N1553 S1552 1.613 . S
N1553 C1556 1.350 1_655 S
N1554 S1552 1.610 . S
N1554 C1555 1.351 1_655 S
C1555 C1549 1.428 . S
C1555 N1554 1.351 1_455 S
C1555 C1556 1.434 . S
C1556 C1547 1.429 . S
C1556 N1553 1.350 1_455 S
C1556 C1555 1.434 . S
C1557 C1558 1.369 . S
C1557 C1559 1.419 . S
C1557 H1561 0.930 . S
C1558 C1557 1.369 . S
C1558 C1567 1.429 . S
C1559 C1557 1.419 . S
C1559 C1560 1.363 . S
C1559 H1562 0.929 . S
C1560 C1559 1.363 . S
C1560 C1566 1.428 . S
H1561 C1557 0.930 . S
H1562 C1559 0.929 . S
S1563 N1564 1.613 . S
S1563 N1565 1.610 . S
N1564 S1563 1.613 . S
N1564 C1567 1.350 . S
N1565 S1563 1.610 . S
N1565 C1566 1.351 . S
C1566 C1560 1.428 . S
C1566 N1565 1.351 . S
C1566 C1567 1.434 . S
C1567 C1558 1.429 . S
C1567 N1564 1.350 . S
C1567 C1566 1.434 . S
C1568 C1569 1.369 . S
C1568 C1570 1.419 . S
C1568 H1572 0.930 . S
C1569 C1568 1.369 . S
C1569 C1578 1.429 . S
C1570 C1568 1.419 . S
C1570 C1571 1.363 . S
C1570 H1573 0.929 . S
C1571 C1570 1.363 . S
C1571 C1577 1.428 . S
H1572 C1568 0.930 . S
H1573 C1570 0.929 . S
S1574 N1575 1.613 . S
S1574 N1576 1.610 . S
N1575 S1574 1.613 . S
N1575 C1578 1.350 . S
N1576 S1574 1.610 . S
N1576 C1577 1.351 . S
C1577 C1571 1.428 . S
C1577 N1576 1.351 . S
C1577 C1578 1.434 . S
C1578 C1569 1.429 . S
C1578 N1575 1.350 . S
C1578 C1577 1.434 . S
C1579 C1580 1.369 . S
C1579 C1581 1.419 1_554 S
C1579 H1583 0.930 . S
C1580 C1579 1.369 . S
C1580 C1589 1.429 . S
C1581 C1579 1.419 1_556 S
C1581 C1582 1.363 . S
C1581 H1584 0.929 . S
C1582 C1581 1.363 . S
C1582 C1588 1.428 . S
H1583 C1579 0.930 . S
H1584 C1581 0.929 . S
S1585 N1586 1.613 . S
S1585 N1587 1.610 1_554 S
N1586 S1585 1.613 . S
N1586 C1589 1.350 . S
N1587 S1585 1.610 1_556 S
N1587 C1588 1.351 . S
C1588 C1582 1.428 . S
C1588 N1587 1.351 . S
C1588 C1589 1.434 1_556 S
C1589 C1580 1.429 . S
C1589 N1586 1.350 . S
C1589 C1588 1.434 1_554 S
C1590 C1591 1.369 . S
C1590 C1592 1.419 . S
C1590 H1594 0.930 . S
C1591 C1590 1.369 . S
C1591 C1600 1.429 . S
C1592 C1590 1.419 . S
C1592 C1593 1.363 . S
C1592 H1595 0.929 . S
C1593 C1592 1.363 . S
C1593 C1599 1.428 . S
H1594 C1590 0.930 . S
H1595 C1592 0.929 . S
S1596 N1597 1.613 . S
S1596 N1598 1.610 . S
N1597 S1596 1.613 . S
N1597 C1600 1.350 . S
N1598 S1596 1.610 . S
N1598 C1599 1.351 . S
C1599 C1593 1.428 . S
C1599 N1598 1.351 . S
C1599 C1600 1.434 . S
C1600 C1591 1.429 . S
C1600 N1597 1.350 . S
C1600 C1599 1.434 . S
C1601 C1602 1.369 . S
C1601 C1603 1.419 . S
C1601 H1605 0.930 . S
C1602 C1601 1.369 . S
C1602 C1611 1.429 . S
C1603 C1601 1.419 . S
C1603 C1604 1.363 . S
C1603 H1606 0.929 . S
C1604 C1603 1.363 . S
C1604 C1610 1.428 . S
H1605 C1601 0.930 . S
H1606 C1603 0.929 . S
S1607 N1608 1.613 . S
S1607 N1609 1.610 . S
N1608 S1607 1.613 . S
N1608 C1611 1.350 . S
N1609 S1607 1.610 . S
N1609 C1610 1.351 . S
C1610 C1604 1.428 . S
C1610 N1609 1.351 . S
C1610 C1611 1.434 . S
C1611 C1602 1.429 . S
C1611 N1608 1.350 . S
C1611 C1610 1.434 . S
C1612 C1613 1.369 . S
C1612 C1614 1.419 . S
C1612 H1616 0.930 . S
C1613 C1612 1.369 . S
C1613 C1622 1.429 . S
C1614 C1612 1.419 . S
C1614 C1615 1.363 . S
C1614 H1617 0.929 . S
C1615 C1614 1.363 . S
C1615 C1621 1.428 . S
H1616 C1612 0.930 . S
H1617 C1614 0.929 . S
S1618 N1619 1.613 . S
S1618 N1620 1.610 . S
N1619 S1618 1.613 . S
N1619 C1622 1.350 . S
N1620 S1618 1.610 . S
N1620 C1621 1.351 . S
C1621 C1615 1.428 . S
C1621 N1620 1.351 . S
C1621 C1622 1.434 . S
C1622 C1613 1.429 . S
C1622 N1619 1.350 . S
C1622 C1621 1.434 . S
C1623 C1624 1.369 . S
C1623 C1625 1.419 . S
C1623 H1627 0.930 . S
C1624 C1623 1.369 . S
C1624 C1633 1.429 . S
C1625 C1623 1.419 . S
C1625 C1626 1.363 . S
C1625 H1628 0.929 . S
C1626 C1625 1.363 . S
C1626 C1632 1.428 . S
H1627 C1623 0.930 . S
H1628 C1625 0.929 . S
S1629 N1630 1.613 . S
S1629 N1631 1.610 . S
N1630 S1629 1.613 . S
N1630 C1633 1.350 . S
N1631 S1629 1.610 . S
N1631 C1632 1.351 . S
C1632 C1626 1.428 . S
C1632 N1631 1.351 . S
C1632 C1633 1.434 . S
C1633 C1624 1.429 . S
C1633 N1630 1.350 . S
C1633 C1632 1.434 . S
C1634 C1635 1.369 . S
C1634 C1636 1.419 . S
C1634 H1638 0.930 . S
C1635 C1634 1.369 . S
C1635 C1644 1.429 . S
C1636 C1634 1.419 . S
C1636 C1637 1.363 . S
C1636 H1639 0.929 . S
C1637 C1636 1.363 . S
C1637 C1643 1.428 . S
H1638 C1634 0.930 . S
H1639 C1636 0.929 . S
S1640 N1641 1.613 . S
S1640 N1642 1.610 . S
N1641 S1640 1.613 . S
N1641 C1644 1.350 . S
N1642 S1640 1.610 . S
N1642 C1643 1.351 . S
C1643 C1637 1.428 . S
C1643 N1642 1.351 . S
C1643 C1644 1.434 . S
C1644 C1635 1.429 . S
C1644 N1641 1.350 . S
C1644 C1643 1.434 . S
C1645 C1646 1.369 . S
C1645 C1647 1.419 . S
C1645 H1649 0.930 . S
C1646 C1645 1.369 . S
C1646 C1655 1.429 . S
C1647 C1645 1.419 . S
C1647 C1648 1.363 . S
C1647 H1650 0.929 . S
C1648 C1647 1.363 . S
C1648 C1654 1.428 . S
H1649 C1645 0.930 . S
H1650 C1647 0.929 . S
S1651 N1652 1.613 . S
S1651 N1653 1.610 . S
N1652 S1651 1.613 . S
N1652 C1655 1.350 . S
N1653 S1651 1.610 . S
N1653 C1654 1.351 . S
C1654 C1648 1.428 . S
C1654 N1653 1.351 . S
C1654 C1655 1.434 . S
C1655 C1646 1.429 . S
C1655 N1652 1.350 . S
C1655 C1654 1.434 . S
C1656 C1657 1.369 . S
C1656 C1658 1.419 . S
C1656 H1660 0.930 . S
C1657 C1656 1.369 . S
C1657 C1666 1.429 . S
C1658 C1656 1.419 . S
C1658 C1659 1.363 . S
C1658 H1661 0.929 . S
C1659 C1658 1.363 . S
C1659 C1665 1.428 . S
H1660 C1656 0.930 . S
H1661 C1658 0.929 . S
S1662 N1663 1.613 . S
S1662 N1664 1.610 . S
N1663 S1662 1.613 . S
N1663 C1666 1.350 . S
N1664 S1662 1.610 . S
N1664 C1665 1.351 . S
C1665 C1659 1.428 . S
C1665 N1664 1.351 . S
C1665 C1666 1.434 . S
C1666 C1657 1.429 . S
C1666 N1663 1.350 . S
C1666 C1665 1.434 . S
C1667 C1668 1.369 . S
C1667 C1669 1.419 . S
C1667 H1671 0.930 . S
C1668 C1667 1.369 . S
C1668 C1677 1.429 . S
C1669 C1667 1.419 . S
C1669 C1670 1.363 . S
C1669 H1672 0.929 . S
C1670 C1669 1.363 . S
C1670 C1676 1.428 . S
H1671 C1667 0.930 . S
H1672 C1669 0.929 . S
S1673 N1674 1.613 . S
S1673 N1675 1.610 . S
N1674 S1673 1.613 . S
N1674 C1677 1.350 . S
N1675 S1673 1.610 . S
N1675 C1676 1.351 . S
C1676 C1670 1.428 . S
C1676 N1675 1.351 . S
C1676 C1677 1.434 . S
C1677 C1668 1.429 . S
C1677 N1674 1.350 . S
C1677 C1676 1.434 . S
C1678 C1679 1.369 1_565 S
C1678 C1680 1.419 . S
C1678 H1682 0.930 . S
C1679 C1678 1.369 1_545 S
C1679 C1688 1.429 . S
C1680 C1678 1.419 . S
C1680 C1681 1.380 . S
C1680 H1683 0.929 . S
C1681 C1680 1.380 . S
C1681 C1687 1.397 1_565 S
H1682 C1678 0.930 . S
H1683 C1680 0.929 . S
S1684 N1685 1.613 . S
S1684 N1686 1.610 . S
N1685 S1684 1.613 . S
N1685 C1688 1.350 . S
N1686 S1684 1.610 . S
N1686 C1687 1.351 . S
C1687 C1681 1.397 1_545 S
C1687 N1686 1.351 . S
C1687 C1688 1.434 . S
C1688 C1679 1.429 . S
C1688 N1685 1.350 . S
C1688 C1687 1.434 . S
C1689 C1690 1.369 . S
C1689 C1691 1.419 . S
C1689 H1693 0.930 1_554 S
C1690 C1689 1.369 . S
C1690 C1699 1.429 1_545 S
C1691 C1689 1.419 . S
C1691 C1692 1.363 . S
C1691 H1694 0.929 . S
C1692 C1691 1.363 . S
C1692 C1698 1.428 1_545 S
H1693 C1689 0.930 1_556 S
H1694 C1691 0.929 . S
S1695 N1696 1.613 . S
S1695 N1697 1.610 . S
N1696 S1695 1.613 . S
N1696 C1699 1.350 . S
N1697 S1695 1.610 . S
N1697 C1698 1.351 . S
C1698 C1692 1.428 1_565 S
C1698 N1697 1.351 . S
C1698 C1699 1.434 . S
C1699 C1690 1.429 1_565 S
C1699 N1696 1.350 . S
C1699 C1698 1.434 . S
C1700 C1701 1.369 . S
C1700 C1702 1.419 . S
C1700 H1704 0.930 . S
C1701 C1700 1.369 . S
C1701 C1710 1.429 . S
C1702 C1700 1.419 . S
C1702 C1703 1.363 . S
C1702 H1705 0.929 . S
C1703 C1702 1.363 . S
C1703 C1709 1.428 . S
H1704 C1700 0.930 . S
H1705 C1702 0.929 . S
S1706 N1707 1.613 . S
S1706 N1708 1.610 . S
N1707 S1706 1.613 . S
N1707 C1710 1.350 . S
N1708 S1706 1.610 . S
N1708 C1709 1.351 . S
C1709 C1703 1.428 . S
C1709 N1708 1.351 . S
C1709 C1710 1.434 . S
C1710 C1701 1.429 . S
C1710 N1707 1.350 . S
C1710 C1709 1.434 . S
C1711 C1712 1.369 . S
C1711 C1713 1.419 . S
C1711 H1715 0.930 . S
C1712 C1711 1.369 . S
C1712 C1721 1.429 . S
C1713 C1711 1.419 . S
C1713 C1714 1.363 . S
C1713 H1716 0.929 . S
C1714 C1713 1.363 . S
C1714 C1720 1.428 . S
H1715 C1711 0.930 . S
H1716 C1713 0.929 . S
S1717 N1718 1.613 . S
S1717 N1719 1.610 . S
N1718 S1717 1.613 . S
N1718 C1721 1.350 . S
N1719 S1717 1.610 . S
N1719 C1720 1.351 . S
C1720 C1714 1.428 . S
C1720 N1719 1.351 . S
C1720 C1721 1.434 . S
C1721 C1712 1.429 . S
C1721 N1718 1.350 . S
C1721 C1720 1.434 . S
C1722 C1723 1.369 . S
C1722 C1724 1.419 . S
C1722 H1726 0.930 . S
C1723 C1722 1.369 . S
C1723 C1732 1.429 . S
C1724 C1722 1.419 . S
C1724 C1725 1.363 . S
C1724 H1727 0.929 . S
C1725 C1724 1.363 . S
C1725 C1731 1.428 . S
H1726 C1722 0.930 . S
H1727 C1724 0.929 . S
S1728 N1729 1.613 . S
S1728 N1730 1.610 . S
N1729 S1728 1.613 . S
N1729 C1732 1.350 . S
N1730 S1728 1.610 . S
N1730 C1731 1.351 . S
C1731 C1725 1.428 . S
C1731 N1730 1.351 . S
C1731 C1732 1.434 . S
C1732 C1723 1.429 . S
C1732 N1729 1.350 . S
C1732 C1731 1.434 . S
C1733 C1734 1.369 . S
C1733 C1735 1.419 . S
C1733 H1737 0.930 . S
C1734 C1733 1.369 . S
C1734 C1743 1.429 . S
C1735 C1733 1.419 . S
C1735 C1736 1.363 . S
C1735 H1738 0.929 . S
C1736 C1735 1.363 . S
C1736 C1742 1.428 . S
H1737 C1733 0.930 . S
H1738 C1735 0.929 . S
S1739 N1740 1.613 . S
S1739 N1741 1.610 . S
N1740 S1739 1.613 . S
N1740 C1743 1.350 . S
N1741 S1739 1.610 . S
N1741 C1742 1.351 . S
C1742 C1736 1.428 . S
C1742 N1741 1.351 . S
C1742 C1743 1.434 . S
C1743 C1734 1.429 . S
C1743 N1740 1.350 . S
C1743 C1742 1.434 . S
C1744 C1745 1.369 . S
C1744 C1746 1.419 . S
C1744 H1748 0.930 . S
C1745 C1744 1.369 . S
C1745 C1754 1.429 . S
C1746 C1744 1.419 . S
C1746 C1747 1.363 . S
C1746 H1749 0.929 . S
C1747 C1746 1.363 . S
C1747 C1753 1.428 . S
H1748 C1744 0.930 . S
H1749 C1746 0.929 . S
S1750 N1751 1.613 . S
S1750 N1752 1.610 . S
N1751 S1750 1.613 . S
N1751 C1754 1.350 . S
N1752 S1750 1.610 . S
N1752 C1753 1.351 . S
C1753 C1747 1.428 . S
C1753 N1752 1.351 . S
C1753 C1754 1.434 . S
C1754 C1745 1.429 . S
C1754 N1751 1.350 . S
C1754 C1753 1.434 . S
C1755 C1756 1.369 . S
C1755 C1757 1.419 . S
C1755 H1759 0.930 . S
C1756 C1755 1.369 . S
C1756 C1765 1.429 . S
C1757 C1755 1.419 . S
C1757 C1758 1.363 . S
C1757 H1760 0.929 . S
C1758 C1757 1.363 . S
C1758 C1764 1.428 . S
H1759 C1755 0.930 . S
H1760 C1757 0.929 . S
S1761 N1762 1.613 . S
S1761 N1763 1.610 . S
N1762 S1761 1.613 . S
N1762 C1765 1.350 . S
N1763 S1761 1.610 . S
N1763 C1764 1.351 . S
C1764 C1758 1.428 . S
C1764 N1763 1.351 . S
C1764 C1765 1.434 . S
C1765 C1756 1.429 . S
C1765 N1762 1.350 . S
C1765 C1764 1.434 . S
C1766 C1767 1.369 . S
C1766 C1768 1.419 . S
C1766 H1770 0.930 . S
C1767 C1766 1.369 . S
C1767 C1776 1.429 . S
C1768 C1766 1.419 . S
C1768 C1769 1.363 . S
C1768 H1771 0.929 . S
C1769 C1768 1.363 . S
C1769 C1775 1.428 . S
H1770 C1766 0.930 . S
H1771 C1768 0.929 . S
S1772 N1773 1.613 . S
S1772 N1774 1.610 . S
N1773 S1772 1.613 . S
N1773 C1776 1.350 . S
N1774 S1772 1.610 . S
N1774 C1775 1.351 . S
C1775 C1769 1.428 . S
C1775 N1774 1.351 . S
C1775 C1776 1.434 . S
C1776 C1767 1.429 . S
C1776 N1773 1.350 . S
C1776 C1775 1.434 . S
C1777 C1778 1.369 . S
C1777 C1779 1.419 . S
C1777 H1781 0.930 . S
C1778 C1777 1.369 . S
C1778 C1787 1.429 . S
C1779 C1777 1.419 . S
C1779 C1780 1.363 . S
C1779 H1782 0.929 . S
C1780 C1779 1.363 . S
C1780 C1786 1.428 . S
H1781 C1777 0.930 . S
H1782 C1779 0.929 . S
S1783 N1784 1.613 . S
S1783 N1785 1.610 . S
N1784 S1783 1.613 . S
N1784 C1787 1.350 . S
N1785 S1783 1.610 . S
N1785 C1786 1.351 . S
C1786 C1780 1.428 . S
C1786 N1785 1.351 . S
C1786 C1787 1.434 . S
C1787 C1778 1.429 . S
C1787 N1784 1.350 . S
C1787 C1786 1.434 . S
C1788 C1789 1.369 . S
C1788 C1790 1.419 . S
C1788 H1792 0.930 . S
C1789 C1788 1.369 . S
C1789 C1798 1.429 . S
C1790 C1788 1.419 . S
C1790 C1791 1.363 . S
C1790 H1793 0.929 . S
C1791 C1790 1.363 . S
C1791 C1797 1.428 . S
H1792 C1788 0.930 . S
H1793 C1790 0.929 . S
S1794 N1795 1.613 . S
S1794 N1796 1.610 . S
N1795 S1794 1.613 . S
N1795 C1798 1.350 . S
N1796 S1794 1.610 . S
N1796 C1797 1.351 . S
C1797 C1791 1.428 . S
C1797 N1796 1.351 . S
C1797 C1798 1.434 . S
C1798 C1789 1.429 . S
C1798 N1795 1.350 . S
C1798 C1797 1.434 . S
C1799 C1800 1.369 . S
C1799 C1801 1.419 . S
C1799 H1803 0.930 . S
C1800 C1799 1.369 . S
C1800 C1809 1.429 . S
C1801 C1799 1.419 . S
C1801 C1802 1.363 . S
C1801 H1804 0.929 . S
C1802 C1801 1.363 . S
C1802 C1808 1.428 . S
H1803 C1799 0.930 . S
H1804 C1801 0.929 . S
S1805 N1806 1.613 . S
S1805 N1807 1.610 . S
N1806 S1805 1.613 . S
N1806 C1809 1.350 . S
N1807 S1805 1.610 . S
N1807 C1808 1.351 . S
C1808 C1802 1.428 . S
C1808 N1807 1.351 . S
C1808 C1809 1.434 . S
C1809 C1800 1.429 . S
C1809 N1806 1.350 . S
C1809 C1808 1.434 . S
C1810 C1811 1.369 . S
C1810 C1812 1.419 . S
C1810 H1814 0.930 . S
C1811 C1810 1.369 . S
C1811 C1820 1.429 . S
C1812 C1810 1.419 . S
C1812 C1813 1.363 . S
C1812 H1815 0.929 . S
C1813 C1812 1.363 . S
C1813 C1819 1.428 . S
H1814 C1810 0.930 . S
H1815 C1812 0.929 . S
S1816 N1817 1.613 . S
S1816 N1818 1.610 . S
N1817 S1816 1.613 . S
N1817 C1820 1.350 . S
N1818 S1816 1.610 . S
N1818 C1819 1.351 . S
C1819 C1813 1.428 . S
C1819 N1818 1.351 . S
C1819 C1820 1.434 . S
C1820 C1811 1.429 . S
C1820 N1817 1.350 . S
C1820 C1819 1.434 . S
C1821 C1822 1.369 . S
C1821 C1823 1.419 . S
C1821 H1825 0.930 . S
C1822 C1821 1.369 . S
C1822 C1831 1.429 . S
C1823 C1821 1.419 . S
C1823 C1824 1.363 . S
C1823 H1826 0.929 . S
C1824 C1823 1.363 . S
C1824 C1830 1.428 . S
H1825 C1821 0.930 . S
H1826 C1823 0.929 . S
S1827 N1828 1.613 . S
S1827 N1829 1.610 . S
N1828 S1827 1.613 . S
N1828 C1831 1.350 . S
N1829 S1827 1.610 . S
N1829 C1830 1.351 . S
C1830 C1824 1.428 . S
C1830 N1829 1.351 . S
C1830 C1831 1.434 . S
C1831 C1822 1.429 . S
C1831 N1828 1.350 . S
C1831 C1830 1.434 . S
C1832 C1833 1.369 . S
C1832 C1834 1.419 . S
C1832 H1836 0.930 . S
C1833 C1832 1.369 . S
C1833 C1842 1.429 . S
C1834 C1832 1.419 . S
C1834 C1835 1.363 . S
C1834 H1837 0.929 . S
C1835 C1834 1.363 . S
C1835 C1841 1.428 . S
H1836 C1832 0.930 . S
H1837 C1834 0.929 . S
S1838 N1839 1.613 . S
S1838 N1840 1.610 . S
N1839 S1838 1.613 . S
N1839 C1842 1.350 . S
N1840 S1838 1.610 . S
N1840 C1841 1.351 . S
C1841 C1835 1.428 . S
C1841 N1840 1.351 . S
C1841 C1842 1.434 . S
C1842 C1833 1.429 . S
C1842 N1839 1.350 . S
C1842 C1841 1.434 . S
C1843 C1844 1.369 . S
C1843 C1845 1.419 . S
C1843 H1847 0.930 . S
C1844 C1843 1.369 . S
C1844 C1853 1.429 . S
C1845 C1843 1.419 . S
C1845 C1846 1.363 . S
C1845 H1848 0.929 . S
C1846 C1845 1.363 . S
C1846 C1852 1.428 . S
H1847 C1843 0.930 . S
H1848 C1845 0.929 . S
S1849 N1850 1.613 . S
S1849 N1851 1.610 . S
N1850 S1849 1.613 . S
N1850 C1853 1.350 . S
N1851 S1849 1.610 . S
N1851 C1852 1.351 . S
C1852 C1846 1.428 . S
C1852 N1851 1.351 . S
C1852 C1853 1.434 . S
C1853 C1844 1.429 . S
C1853 N1850 1.350 . S
C1853 C1852 1.434 . S
C1854 C1855 1.369 . S
C1854 C1856 1.419 1_655 S
C1854 H1858 0.930 . S
C1855 C1854 1.369 . S
C1855 C1864 1.429 1_655 S
C1856 C1854 1.419 1_455 S
C1856 C1857 1.363 . S
C1856 H1859 0.929 1_455 S
C1857 C1856 1.363 . S
C1857 C1863 1.428 . S
H1858 C1854 0.930 . S
H1859 C1856 0.929 1_655 S
S1860 N1861 1.613 . S
S1860 N1862 1.610 . S
N1861 S1860 1.613 . S
N1861 C1864 1.350 . S
N1862 S1860 1.610 . S
N1862 C1863 1.351 . S
C1863 C1857 1.428 . S
C1863 N1862 1.351 . S
C1863 C1864 1.434 . S
C1864 C1855 1.429 1_455 S
C1864 N1861 1.350 . S
C1864 C1863 1.434 . S
C1865 C1866 1.369 . S
C1865 C1867 1.419 . S
C1865 H1869 0.930 . S
C1866 C1865 1.369 . S
C1866 C1875 1.429 . S
C1867 C1865 1.419 . S
C1867 C1868 1.363 . S
C1867 H1870 0.929 . S
C1868 C1867 1.363 . S
C1868 C1874 1.428 . S
H1869 C1865 0.930 . S
H1870 C1867 0.929 . S
S1871 N1872 1.613 . S
S1871 N1873 1.610 . S
N1872 S1871 1.613 . S
N1872 C1875 1.350 . S
N1873 S1871 1.610 . S
N1873 C1874 1.351 . S
C1874 C1868 1.428 . S
C1874 N1873 1.351 . S
C1874 C1875 1.434 . S
C1875 C1866 1.429 . S
C1875 N1872 1.350 . S
C1875 C1874 1.434 . S
C1876 C1877 1.369 . S
C1876 C1878 1.419 . S
C1876 H1880 0.930 . S
C1877 C1876 1.369 . S
C1877 C1886 1.429 . S
C1878 C1876 1.419 . S
C1878 C1879 1.363 . S
C1878 H1881 0.929 . S
C1879 C1878 1.363 . S
C1879 C1885 1.428 . S
H1880 C1876 0.930 . S
H1881 C1878 0.929 . S
S1882 N1883 1.613 . S
S1882 N1884 1.610 . S
N1883 S1882 1.613 . S
N1883 C1886 1.350 . S
N1884 S1882 1.610 . S
N1884 C1885 1.351 . S
C1885 C1879 1.428 . S
C1885 N1884 1.351 . S
C1885 C1886 1.434 . S
C1886 C1877 1.429 . S
C1886 N1883 1.350 . S
C1886 C1885 1.434 . S
C1887 C1888 1.369 . S
C1887 C1889 1.419 . S
C1887 H1891 0.930 . S
C1888 C1887 1.369 . S
C1888 C1897 1.429 . S
C1889 C1887 1.419 . S
C1889 C1890 1.363 . S
C1889 H1892 0.929 . S
C1890 C1889 1.363 . S
C1890 C1896 1.428 . S
H1891 C1887 0.930 . S
H1892 C1889 0.929 . S
S1893 N1894 1.613 . S
S1893 N1895 1.610 . S
N1894 S1893 1.613 . S
N1894 C1897 1.350 . S
N1895 S1893 1.610 . S
N1895 C1896 1.351 . S
C1896 C1890 1.428 . S
C1896 N1895 1.351 . S
C1896 C1897 1.434 . S
C1897 C1888 1.429 . S
C1897 N1894 1.350 . S
C1897 C1896 1.434 . S
C1898 C1899 1.369 . S
C1898 C1900 1.419 . S
C1898 H1902 0.930 . S
C1899 C1898 1.369 . S
C1899 C1908 1.429 . S
C1900 C1898 1.419 . S
C1900 C1901 1.364 1_655 S
C1900 H1903 0.929 . S
C1901 C1900 1.364 1_455 S
C1901 C1907 1.429 . S
H1902 C1898 0.930 . S
H1903 C1900 0.929 . S
S1904 N1905 1.613 . S
S1904 N1906 1.610 . S
N1905 S1904 1.613 . S
N1905 C1908 1.350 1_455 S
N1906 S1904 1.610 . S
N1906 C1907 1.351 . S
C1907 C1901 1.429 . S
C1907 N1906 1.351 . S
C1907 C1908 1.434 1_455 S
C1908 C1899 1.429 . S
C1908 N1905 1.350 1_655 S
C1908 C1907 1.434 1_655 S
C1909 C1910 1.369 . S
C1909 C1911 1.419 . S
C1909 H1913 0.930 . S
C1910 C1909 1.369 . S
C1910 C1919 1.429 . S
C1911 C1909 1.419 . S
C1911 C1912 1.363 . S
C1911 H1914 0.929 . S
C1912 C1911 1.363 . S
C1912 C1918 1.428 . S
H1913 C1909 0.930 . S
H1914 C1911 0.929 . S
S1915 N1916 1.613 . S
S1915 N1917 1.610 . S
N1916 S1915 1.613 . S
N1916 C1919 1.350 . S
N1917 S1915 1.610 . S
N1917 C1918 1.351 . S
C1918 C1912 1.428 . S
C1918 N1917 1.351 . S
C1918 C1919 1.434 . S
C1919 C1910 1.429 . S
C1919 N1916 1.350 . S
C1919 C1918 1.434 . S
C1920 C1921 1.369 . S
C1920 C1922 1.419 . S
C1920 H1924 0.930 . S
C1921 C1920 1.369 . S
C1921 C1930 1.429 . S
C1922 C1920 1.419 . S
C1922 C1923 1.363 . S
C1922 H1925 0.929 . S
C1923 C1922 1.363 . S
C1923 C1929 1.428 . S
H1924 C1920 0.930 . S
H1925 C1922 0.929 . S
S1926 N1927 1.613 . S
S1926 N1928 1.610 . S
N1927 S1926 1.613 . S
N1927 C1930 1.350 . S
N1928 S1926 1.610 . S
N1928 C1929 1.351 . S
C1929 C1923 1.428 . S
C1929 N1928 1.351 . S
C1929 C1930 1.434 . S
C1930 C1921 1.429 . S
C1930 N1927 1.350 . S
C1930 C1929 1.434 . S
C1931 C1932 1.369 . S
C1931 C1933 1.419 1_565 S
C1931 H1935 0.930 . S
C1932 C1931 1.369 . S
C1932 C1941 1.429 . S
C1933 C1931 1.419 1_545 S
C1933 C1934 1.363 . S
C1933 H1936 0.929 . S
C1934 C1933 1.363 . S
C1934 C1940 1.428 1_545 S
H1935 C1931 0.930 . S
H1936 C1933 0.929 . S
S1937 N1938 1.613 . S
S1937 N1939 1.610 . S
N1938 S1937 1.613 . S
N1938 C1941 1.350 . S
N1939 S1937 1.610 . S
N1939 C1940 1.351 . S
C1940 C1934 1.428 1_565 S
C1940 N1939 1.351 . S
C1940 C1941 1.434 . S
C1941 C1932 1.429 . S
C1941 N1938 1.350 . S
C1941 C1940 1.434 . S
C1942 C1943 1.369 . S
C1942 C1944 1.419 . S
C1942 H1946 0.930 . S
C1943 C1942 1.369 . S
C1943 C1952 1.429 . S
C1944 C1942 1.419 . S
C1944 C1945 1.363 . S
C1944 H1947 0.929 . S
C1945 C1944 1.363 . S
C1945 C1951 1.428 . S
H1946 C1942 0.930 . S
H1947 C1944 0.929 . S
S1948 N1949 1.613 . S
S1948 N1950 1.610 . S
N1949 S1948 1.613 . S
N1949 C1952 1.350 . S
N1950 S1948 1.610 . S
N1950 C1951 1.351 . S
C1951 C1945 1.428 . S
C1951 N1950 1.351 . S
C1951 C1952 1.434 . S
C1952 C1943 1.429 . S
C1952 N1949 1.350 . S
C1952 C1951 1.434 . S
C1953 C1954 1.369 . S
C1953 C1955 1.419 . S
C1953 H1957 0.930 . S
C1954 C1953 1.369 . S
C1954 C1963 1.429 . S
C1955 C1953 1.419 . S
C1955 C1956 1.363 . S
C1955 H1958 0.929 . S
C1956 C1955 1.363 . S
C1956 C1962 1.428 . S
H1957 C1953 0.930 . S
H1958 C1955 0.929 . S
S1959 N1960 1.613 . S
S1959 N1961 1.610 . S
N1960 S1959 1.613 . S
N1960 C1963 1.350 . S
N1961 S1959 1.610 . S
N1961 C1962 1.351 . S
C1962 C1956 1.428 . S
C1962 N1961 1.351 . S
C1962 C1963 1.434 . S
C1963 C1954 1.429 . S
C1963 N1960 1.350 . S
C1963 C1962 1.434 . S
C1964 C1965 1.369 . S
C1964 C1966 1.419 . S
C1964 H1968 0.930 . S
C1965 C1964 1.369 . S
C1965 C1974 1.429 . S
C1966 C1964 1.419 . S
C1966 C1967 1.363 . S
C1966 H1969 0.929 . S
C1967 C1966 1.363 . S
C1967 C1973 1.428 . S
H1968 C1964 0.930 . S
H1969 C1966 0.929 . S
S1970 N1971 1.613 . S
S1970 N1972 1.610 . S
N1971 S1970 1.613 . S
N1971 C1974 1.350 . S
N1972 S1970 1.610 . S
N1972 C1973 1.351 . S
C1973 C1967 1.428 . S
C1973 N1972 1.351 . S
C1973 C1974 1.434 . S
C1974 C1965 1.429 . S
C1974 N1971 1.350 . S
C1974 C1973 1.434 . S
C1975 C1976 1.369 . S
C1975 C1977 1.419 . S
C1975 H1979 0.930 . S
C1976 C1975 1.369 . S
C1976 C1985 1.429 . S
C1977 C1975 1.419 . S
C1977 C1978 1.363 . S
C1977 H1980 0.929 . S
C1978 C1977 1.363 . S
C1978 C1984 1.428 . S
H1979 C1975 0.930 . S
H1980 C1977 0.929 . S
S1981 N1982 1.613 . S
S1981 N1983 1.610 . S
N1982 S1981 1.613 . S
N1982 C1985 1.350 . S
N1983 S1981 1.610 . S
N1983 C1984 1.351 . S
C1984 C1978 1.428 . S
C1984 N1983 1.351 . S
C1984 C1985 1.434 . S
C1985 C1976 1.429 . S
C1985 N1982 1.350 . S
C1985 C1984 1.434 . S
C1986 C1987 1.369 . S
C1986 C1988 1.419 . S
C1986 H1990 0.930 . S
C1987 C1986 1.369 . S
C1987 C1996 1.429 . S
C1988 C1986 1.419 . S
C1988 C1989 1.363 . S
C1988 H1991 0.929 . S
C1989 C1988 1.363 . S
C1989 C1995 1.428 . S
H1990 C1986 0.930 . S
H1991 C1988 0.929 . S
S1992 N1993 1.613 . S
S1992 N1994 1.610 . S
N1993 S1992 1.613 . S
N1993 C1996 1.350 . S
N1994 S1992 1.610 . S
N1994 C1995 1.351 . S
C1995 C1989 1.428 . S
C1995 N1994 1.351 . S
C1995 C1996 1.434 . S
C1996 C1987 1.429 . S
C1996 N1993 1.350 . S
C1996 C1995 1.434 . S
C1997 C1998 1.369 . S
C1997 C1999 1.419 . S
C1997 H2001 0.930 . S
C1998 C1997 1.369 . S
C1998 C2007 1.429 . S
C1999 C1997 1.419 . S
C1999 C2000 1.363 . S
C1999 H2002 0.929 . S
C2000 C1999 1.363 . S
C2000 C2006 1.428 . S
H2001 C1997 0.930 . S
H2002 C1999 0.929 . S
S2003 N2004 1.613 . S
S2003 N2005 1.610 . S
N2004 S2003 1.613 . S
N2004 C2007 1.350 . S
N2005 S2003 1.610 . S
N2005 C2006 1.351 . S
C2006 C2000 1.428 . S
C2006 N2005 1.351 . S
C2006 C2007 1.434 . S
C2007 C1998 1.429 . S
C2007 N2004 1.350 . S
C2007 C2006 1.434 . S
C953 C101 2.384 1_454 S
C955 C343 2.405 . S
C964 C57 1.898 . S
C966 C354 1.956 . S
C975 C73 1.845 . S
C977 C423 1.892 . S
C988 C436 1.149 . S
C986 C78 1.138 . S
C997 C21 2.599 . S
C999 C492 2.581 1_565 S
C1010 C543 2.328 . S
C1008 C31 2.308 . S
C1021 C572 2.416 . S
C1019 C49 2.417 . S
C1030 C0 2.468 . S
C1032 C623 2.515 . S
C1043 C314 1.459 . S
C1041 C218 1.424 . S
C1052 C229 1.106 . S
C1054 C356 1.137 . S
C1065 C394 1.031 . S
C1063 C257 1.043 . S
C1076 C463 1.917 . S
C1074 C164 1.775 1_556 S
C1085 C216 0.726 . S
C1087 C497 0.732 . S
C1098 C514 1.422 . S
C1096 C231 1.396 . S
C1109 C577 0.547 . S
C1107 C255 0.568 . S
C1120 C594 2.158 . S
C1118 C166 2.213 . S
C1131 C316 2.026 . S
C1129 C143 2.002 1_545 S
C1140 C265 1.637 . S
C1142 C655 1.606 . S
C1153 C676 1.828 . S
C1151 C299 1.786 . S
C1164 C735 0.704 . S
C1162 C291 0.711 . S
C1173 C104 1.188 . S
C1175 C596 1.232 . S
C1184 C117 1.422 . S
C1186 C396 1.455 . S
C1195 C304 1.090 . S
C1197 C754 1.218 . S
C1208 C823 0.915 . S
C1206 C278 0.920 . S
C1219 C332 2.379 . S
C1217 C60 2.452 . S
C1230 C815 1.881 . S
C1228 C96 1.877 . S
C1239 C88 1.835 . S
C1241 C412 1.803 . S
C1250 C65 1.159 . S
C1252 C777 1.120 . S
C1263 C503 2.482 . S
C1261 C10 2.504 . S
C1272 C44 2.234 . S
C1274 C692 2.289 . S
C1285 C583 2.335 1_556 S
C1283 C34 2.253 . S
C1296 C852 2.477 . S
C1294 C13 2.559 . S
C1307 C335 1.492 . S
C1305 C138 1.520 . S
C1318 C817 1.083 . S
C1316 C296 1.151 . S
C1327 C112 0.961 . S
C1329 C415 0.964 . S
C1338 C270 1.796 . S
C1340 C772 1.812 . S
C1349 C140 0.693 . S
C1351 C476 0.685 . S
C1362 C695 1.381 . S
C1360 C294 1.389 . S
C1371 C114 0.480 . S
C1373 C556 0.478 . S
C1382 C268 2.092 . S
C1384 C855 2.079 . S
C1393 C169 2.413 . S
C1395 C337 2.081 1_554 S
C1404 C161 1.647 . S
C1406 C634 1.580 . S
C1415 C234 2.187 . S
C1417 C537 1.875 . S
C1426 C226 0.626 . S
C1428 C714 0.641 . S
C1439 C857 1.282 . S
C1437 C247 1.448 . S
C1448 C195 1.597 . S
C1450 C417 1.473 . S
C1461 C455 1.168 . S
C1459 C239 1.122 . S
C1472 C372 0.906 . S
C1470 C187 0.959 . S
C1481 C75 2.385 . S
C1483 C903 2.408 . S
C1494 C794 1.956 . S
C1492 C83 1.899 . S
C1503 C99 1.851 1_554 S
C1505 C943 1.895 . S
C1514 C52 1.139 . S
C1516 C756 1.150 . S
C1525 C47 2.599 . S
C1527 C652 2.582 . S
C1538 C703 2.327 . S
C1536 C5 2.308 . S
C1549 C732 2.418 . S
C1547 C23 2.419 . S
C1560 C863 2.511 . S
C1558 C26 2.466 . S
C1571 C874 1.458 . S
C1569 C244 1.421 . S
C1580 C177 1.099 . S
C1582 C796 1.143 . S
C1593 C914 1.030 . S
C1591 C192 1.040 . S
C1604 C783 1.916 . S
C1602 C203 1.773 . S
C1615 C657 0.729 . S
C1613 C242 0.743 . S
C1624 C179 1.403 . S
C1626 C674 1.421 . S
C1637 C737 0.548 . S
C1635 C190 0.567 . S
C1646 C205 2.215 . S
C1648 C834 2.154 . S
C1659 C876 2.020 . S
C1657 C286 2.008 . S
C1668 C122 1.641 . S
C1670 C495 1.603 . S
C1681 C516 1.861 . S
C1679 C130 1.777 . S
C1692 C575 0.705 . S
C1690 C148 0.700 1_545 S
C1703 C836 1.237 . S
C1701 C273 1.182 . S
C1712 C260 1.425 . S
C1714 C916 1.455 . S
C1725 C434 1.215 . S
C1723 C135 1.099 . S
C1736 C383 0.919 . S
C1734 C109 0.918 . S
C1745 C86 2.452 . S
C1747 C892 2.378 . S
C1758 C375 1.881 . S
C1756 C70 1.877 . S
C1767 C62 1.835 . S
C1769 C932 1.799 . S
C1778 C91 1.156 . S
C1780 C457 1.123 . S
C1789 C36 2.506 . S
C1791 C663 2.480 1_556 S
C1802 C532 2.290 . S
C1800 C18 2.234 . S
C1811 C8 2.258 . S
C1813 C743 2.337 . S
C1822 C39 2.532 . S
C1824 C612 2.479 . S
C1835 C895 1.491 . S
C1833 C307 1.517 . S
C1844 C153 1.155 . S
C1846 C377 1.071 . S
C1857 C935 0.964 . S
C1855 C281 0.962 . S
C1866 C127 1.796 . S
C1868 C452 1.813 . S
C1877 C309 0.686 . S
C1879 C636 0.694 . S
C1890 C535 1.385 . S
C1888 C151 1.398 . S
C1899 C283 0.476 . S
C1901 C716 0.481 . S
C1912 C615 2.082 . S
C1910 C125 2.094 . S
C1923 C897 2.090 . S
C1921 C221 2.409 . S
C1934 C474 1.576 . S
C1932 C200 1.645 . S
C1943 C208 2.186 . S
C1945 C697 1.875 . S
C1956 C554 0.641 . S
C1954 C174 0.630 . S
C1965 C182 1.454 . S
C1967 C617 1.274 . S
C1976 C156 1.598 . S
C1978 C937 1.471 . S
C1989 C775 1.171 . S
C1987 C213 1.116 . S
C2000 C812 0.911 . S
C1998 C252 0.960 . S
