# Generated by pormake.
# Topology ocu, (6,8)-cn, num edge types: 1
# Building blocks:
#     Node 0, Type 0, BuildingBlock: VOLQOD_clean_sbu_1, # of connection points: 6
#     Node 1, Type 0, BuildingBlock: VOLQOD_clean_sbu_1, # of connection points: 6
#     Node 2, Type 0, BuildingBlock: VOLQOD_clean_sbu_1, # of connection points: 6
#     Node 3, Type 0, BuildingBlock: VOLQOD_clean_sbu_1, # of connection points: 6
#     Node 4, Type 0, BuildingBlock: VOLQOD_clean_sbu_1, # of connection points: 6
#     Node 5, Type 0, BuildingBlock: VOLQOD_clean_sbu_1, # of connection points: 6
#     Node 6, Type 0, BuildingBlock: VOLQOD_clean_sbu_1, # of connection points: 6
#     Node 7, Type 0, BuildingBlock: VOLQOD_clean_sbu_1, # of connection points: 6
#     Node 8, Type 1, BuildingBlock: TAGTUT_clean_sbu_1, # of connection points: 8
#     Node 9, Type 1, BuildingBlock: TAGTUT_clean_sbu_1, # of connection points: 8
#     Node 10, Type 1, BuildingBlock: TAGTUT_clean_sbu_1, # of connection points: 8
#     Node 11, Type 1, BuildingBlock: TAGTUT_clean_sbu_1, # of connection points: 8
#     Node 12, Type 1, BuildingBlock: TAGTUT_clean_sbu_1, # of connection points: 8
#     Node 13, Type 1, BuildingBlock: TAGTUT_clean_sbu_1, # of connection points: 8
#     Edge 14, Type (0, 1), BuildingBlock: TEMPAE_clean_linker_10, # of connection points: 2
#     Edge 15, Type (0, 1), BuildingBlock: TEMPAE_clean_linker_10, # of connection points: 2
#     Edge 16, Type (0, 1), BuildingBlock: TEMPAE_clean_linker_10, # of connection points: 2
#     Edge 17, Type (0, 1), BuildingBlock: TEMPAE_clean_linker_10, # of connection points: 2
#     Edge 18, Type (0, 1), BuildingBlock: TEMPAE_clean_linker_10, # of connection points: 2
#     Edge 19, Type (0, 1), BuildingBlock: TEMPAE_clean_linker_10, # of connection points: 2
#     Edge 20, Type (0, 1), BuildingBlock: TEMPAE_clean_linker_10, # of connection points: 2
#     Edge 21, Type (0, 1), BuildingBlock: TEMPAE_clean_linker_10, # of connection points: 2
#     Edge 22, Type (0, 1), BuildingBlock: TEMPAE_clean_linker_10, # of connection points: 2
#     Edge 23, Type (0, 1), BuildingBlock: TEMPAE_clean_linker_10, # of connection points: 2
#     Edge 24, Type (0, 1), BuildingBlock: TEMPAE_clean_linker_10, # of connection points: 2
#     Edge 25, Type (0, 1), BuildingBlock: TEMPAE_clean_linker_10, # of connection points: 2
#     Edge 26, Type (0, 1), BuildingBlock: TEMPAE_clean_linker_10, # of connection points: 2
#     Edge 27, Type (0, 1), BuildingBlock: TEMPAE_clean_linker_10, # of connection points: 2
#     Edge 28, Type (0, 1), BuildingBlock: TEMPAE_clean_linker_10, # of connection points: 2
#     Edge 29, Type (0, 1), BuildingBlock: TEMPAE_clean_linker_10, # of connection points: 2
#     Edge 30, Type (0, 1), BuildingBlock: TEMPAE_clean_linker_10, # of connection points: 2
#     Edge 31, Type (0, 1), BuildingBlock: TEMPAE_clean_linker_10, # of connection points: 2
#     Edge 32, Type (0, 1), BuildingBlock: TEMPAE_clean_linker_10, # of connection points: 2
#     Edge 33, Type (0, 1), BuildingBlock: TEMPAE_clean_linker_10, # of connection points: 2
#     Edge 34, Type (0, 1), BuildingBlock: TEMPAE_clean_linker_10, # of connection points: 2
#     Edge 35, Type (0, 1), BuildingBlock: TEMPAE_clean_linker_10, # of connection points: 2
#     Edge 36, Type (0, 1), BuildingBlock: TEMPAE_clean_linker_10, # of connection points: 2
#     Edge 37, Type (0, 1), BuildingBlock: TEMPAE_clean_linker_10, # of connection points: 2
#     Edge 38, Type (0, 1), BuildingBlock: TEMPAE_clean_linker_10, # of connection points: 2
#     Edge 39, Type (0, 1), BuildingBlock: TEMPAE_clean_linker_10, # of connection points: 2
#     Edge 40, Type (0, 1), BuildingBlock: TEMPAE_clean_linker_10, # of connection points: 2
#     Edge 41, Type (0, 1), BuildingBlock: TEMPAE_clean_linker_10, # of connection points: 2
#     Edge 42, Type (0, 1), BuildingBlock: TEMPAE_clean_linker_10, # of connection points: 2
#     Edge 43, Type (0, 1), BuildingBlock: TEMPAE_clean_linker_10, # of connection points: 2
#     Edge 44, Type (0, 1), BuildingBlock: TEMPAE_clean_linker_10, # of connection points: 2
#     Edge 45, Type (0, 1), BuildingBlock: TEMPAE_clean_linker_10, # of connection points: 2
#     Edge 46, Type (0, 1), BuildingBlock: TEMPAE_clean_linker_10, # of connection points: 2
#     Edge 47, Type (0, 1), BuildingBlock: TEMPAE_clean_linker_10, # of connection points: 2
#     Edge 48, Type (0, 1), BuildingBlock: TEMPAE_clean_linker_10, # of connection points: 2
#     Edge 49, Type (0, 1), BuildingBlock: TEMPAE_clean_linker_10, # of connection points: 2
#     Edge 50, Type (0, 1), BuildingBlock: TEMPAE_clean_linker_10, # of connection points: 2
#     Edge 51, Type (0, 1), BuildingBlock: TEMPAE_clean_linker_10, # of connection points: 2
#     Edge 52, Type (0, 1), BuildingBlock: TEMPAE_clean_linker_10, # of connection points: 2
#     Edge 53, Type (0, 1), BuildingBlock: TEMPAE_clean_linker_10, # of connection points: 2
#     Edge 54, Type (0, 1), BuildingBlock: TEMPAE_clean_linker_10, # of connection points: 2
#     Edge 55, Type (0, 1), BuildingBlock: TEMPAE_clean_linker_10, # of connection points: 2
#     Edge 56, Type (0, 1), BuildingBlock: TEMPAE_clean_linker_10, # of connection points: 2
#     Edge 57, Type (0, 1), BuildingBlock: TEMPAE_clean_linker_10, # of connection points: 2
#     Edge 58, Type (0, 1), BuildingBlock: TEMPAE_clean_linker_10, # of connection points: 2
#     Edge 59, Type (0, 1), BuildingBlock: TEMPAE_clean_linker_10, # of connection points: 2
#     Edge 60, Type (0, 1), BuildingBlock: TEMPAE_clean_linker_10, # of connection points: 2
#     Edge 61, Type (0, 1), BuildingBlock: TEMPAE_clean_linker_10, # of connection points: 2
# Relax obj value: 0.189
# Max RMSD: 0.330
# Mean RMSD: 0.221
data_MOF--net-ocu--node1-VOLQOD_clean_sbu_1--node2-TAGTUT_clean_sbu_1--edge1-TEMPAE_clean_linker_10
_symmetry_space_group_name_H-M    P1
_symmetry_Int_Tables_number       1
_symmetry_cell_setting            triclinic
loop_
_symmetry_equiv_pos_as_xyz
'x, y, z'
_cell_length_a     38.863755
_cell_length_b     36.887832
_cell_length_c     40.028216
_cell_angle_alpha  91.249321
_cell_angle_beta   92.370647
_cell_angle_gamma 100.6386
loop_
_atom_site_label
_atom_site_type_symbol
_atom_site_fract_x
_atom_site_fract_y
_atom_site_fract_z
_atom_type_partial_charge
O0 O 0.33447 0.29844 0.25354 0.0
Zn1 Zn 0.29583 0.27732 0.28432 0.0
O2 O 0.25152 0.26327 0.25788 0.0
Zn3 Zn 0.21426 0.27891 0.28112 0.0
Zn4 Zn 0.25647 0.28694 0.215 0.0
Zn5 Zn 0.23846 0.21018 0.25079 0.0
O6 O 0.17903 0.23685 0.29628 0.0
O7 O 0.19095 0.18847 0.2684 0.0
O8 O 0.29145 0.31633 0.32078 0.0
O9 O 0.23337 0.31034 0.32041 0.0
O10 O 0.18933 0.3102 0.25268 0.0
O11 O 0.21799 0.31596 0.20561 0.0
O12 O 0.25754 0.24882 0.17837 0.0
O13 O 0.30958 0.23157 0.30446 0.0
O14 O 0.24379 0.19526 0.20319 0.0
O15 O 0.27282 0.18665 0.27642 0.0
C16 C 0.33307 0.31692 0.22713 0.0
C17 C 0.17182 0.2027 0.28814 0.0
C18 C 0.19354 0.32294 0.2236 0.0
C19 C 0.26366 0.32431 0.33265 0.0
C20 C 0.25293 0.21371 0.17747 0.0
C21 C 0.29872 0.19743 0.29693 0.0
O22 O 0.30389 0.3197 0.21264 0.0
O23 O 0.7727 0.19925 0.23081 0.0
Zn24 Zn 0.7894 0.23381 0.27094 0.0
O25 O 0.75005 0.24764 0.29335 0.0
Zn26 Zn 0.74692 0.29864 0.28603 0.0
Zn27 Zn 0.70867 0.21852 0.27287 0.0
Zn28 Zn 0.75249 0.23862 0.34103 0.0
O29 O 0.75591 0.32839 0.32882 0.0
O30 O 0.76552 0.28763 0.3665 0.0
O31 O 0.82026 0.27861 0.25406 0.0
O32 O 0.78569 0.32038 0.25706 0.0
O33 O 0.70193 0.30527 0.26192 0.0
O34 O 0.68297 0.24794 0.24276 0.0
O35 O 0.67621 0.19861 0.30678 0.0
O36 O 0.81779 0.20862 0.30279 0.0
O37 O 0.70549 0.21033 0.35581 0.0
O38 O 0.79148 0.20998 0.35103 0.0
C39 C 0.74417 0.17592 0.22664 0.0
C40 C 0.76491 0.3208 0.35843 0.0
C41 C 0.68112 0.28198 0.24317 0.0
C42 C 0.81378 0.31051 0.24834 0.0
C43 C 0.67758 0.19683 0.33839 0.0
C44 C 0.81557 0.20095 0.3336 0.0
O45 O 0.71866 0.17686 0.24525 0.0
O46 O 0.70731 0.67535 0.26876 0.0
Zn47 Zn 0.72886 0.7252 0.29046 0.0
O48 O 0.73424 0.76093 0.25497 0.0
Zn49 Zn 0.78274 0.77425 0.2436 0.0
Zn50 Zn 0.70653 0.74008 0.2161 0.0
Zn51 Zn 0.71799 0.80455 0.26831 0.0
O52 O 0.80163 0.82837 0.25216 0.0
O53 O 0.75954 0.84258 0.28291 0.0
O54 O 0.77636 0.72063 0.31081 0.0
O55 O 0.81254 0.75031 0.27477 0.0
O56 O 0.79075 0.7549 0.19778 0.0
O57 O 0.73758 0.72493 0.18155 0.0
O58 O 0.67958 0.77598 0.1953 0.0
O59 O 0.6985 0.74081 0.327 0.0
O60 O 0.68901 0.82305 0.23221 0.0
O61 O 0.68878 0.79427 0.30745 0.0
C62 C 0.68351 0.66827 0.24541 0.0
C63 C 0.79085 0.84956 0.27335 0.0
C64 C 0.77028 0.73359 0.17706 0.0
C65 C 0.8072 0.73114 0.30069 0.0
C66 C 0.67527 0.80794 0.20475 0.0
C67 C 0.68403 0.76916 0.32892 0.0
O68 O 0.67463 0.69373 0.2279 0.0
O69 O 0.28367 0.72875 0.2999 0.0
Zn70 Zn 0.26511 0.71012 0.25326 0.0
O71 O 0.27133 0.75194 0.2237 0.0
Zn72 Zn 0.22677 0.76645 0.21242 0.0
Zn73 Zn 0.30231 0.7928 0.24565 0.0
Zn74 Zn 0.29218 0.73959 0.18363 0.0
O75 O 0.21169 0.75346 0.16404 0.0
O76 O 0.25519 0.72732 0.1467 0.0
O77 O 0.21397 0.69038 0.25782 0.0
O78 O 0.18956 0.73581 0.23778 0.0
O79 O 0.22469 0.81827 0.22912 0.0
O80 O 0.2744 0.83028 0.25998 0.0
O81 O 0.34026 0.81614 0.21652 0.0
O82 O 0.28985 0.6692 0.23673 0.0
O83 O 0.33164 0.77926 0.17116 0.0
O84 O 0.31214 0.69473 0.19059 0.0
C85 C 0.30887 0.75485 0.30892 0.0
C86 C 0.22473 0.73497 0.14211 0.0
C87 C 0.24477 0.83797 0.25129 0.0
C88 C 0.18739 0.70556 0.25279 0.0
C89 C 0.3486 0.80744 0.18743 0.0
C90 C 0.30868 0.66894 0.21139 0.0
O91 O 0.32322 0.77795 0.28824 0.0
O92 O 0.28141 0.69765 0.72625 0.0
Zn93 Zn 0.29842 0.73012 0.76751 0.0
O94 O 0.25975 0.74714 0.78922 0.0
Zn95 Zn 0.26325 0.79965 0.78345 0.0
Zn96 Zn 0.21618 0.72308 0.76776 0.0
Zn97 Zn 0.25967 0.73626 0.83672 0.0
O98 O 0.26153 0.82597 0.82701 0.0
O99 O 0.26999 0.78424 0.86411 0.0
O100 O 0.33418 0.77282 0.75384 0.0
O101 O 0.31015 0.82104 0.76673 0.0
O102 O 0.22657 0.81184 0.75063 0.0
O103 O 0.1913 0.75759 0.74272 0.0
O104 O 0.18371 0.69795 0.79972 0.0
O105 O 0.32398 0.70272 0.7999 0.0
O106 O 0.21274 0.70604 0.84898 0.0
O107 O 0.29808 0.70747 0.84796 0.0
C108 C 0.25054 0.68033 0.71843 0.0
C109 C 0.26801 0.81736 0.85692 0.0
C110 C 0.199 0.79186 0.73731 0.0
C111 C 0.33556 0.8075 0.756 0.0
C112 C 0.18517 0.69307 0.83095 0.0
C113 C 0.32148 0.69649 0.83095 0.0
O114 O 0.22424 0.68594 0.73421 0.0
O115 O 0.20317 0.17166 0.76755 0.0
Zn116 Zn 0.22534 0.21995 0.79152 0.0
O117 O 0.23095 0.2575 0.75784 0.0
Zn118 Zn 0.27955 0.27185 0.74709 0.0
Zn119 Zn 0.20342 0.2391 0.71844 0.0
Zn120 Zn 0.21393 0.29981 0.77289 0.0
O121 O 0.29755 0.32588 0.75812 0.0
O122 O 0.2551 0.33574 0.79064 0.0
O123 O 0.27277 0.21454 0.81173 0.0
O124 O 0.30937 0.24735 0.77783 0.0
O125 O 0.28796 0.25383 0.7006 0.0
O126 O 0.23464 0.22409 0.68438 0.0
O127 O 0.17933 0.27758 0.69779 0.0
O128 O 0.19501 0.23372 0.8287 0.0
O129 O 0.18803 0.32226 0.73701 0.0
O130 O 0.18306 0.2869 0.81051 0.0
C131 C 0.17889 0.16633 0.74456 0.0
C132 C 0.28643 0.34424 0.78143 0.0
C133 C 0.2673 0.23276 0.67978 0.0
C134 C 0.30381 0.22656 0.8027 0.0
C135 C 0.17584 0.30947 0.70831 0.0
C136 C 0.17925 0.26106 0.83131 0.0
O137 O 0.17003 0.1931 0.72886 0.0
O138 O 0.78589 0.23537 0.79518 0.0
Zn139 Zn 0.76212 0.2166 0.75033 0.0
O140 O 0.76427 0.25797 0.7202 0.0
Zn141 Zn 0.71849 0.27203 0.71322 0.0
Zn142 Zn 0.79759 0.29943 0.73899 0.0
Zn143 Zn 0.7798 0.245 0.67759 0.0
O144 O 0.69745 0.2582 0.66636 0.0
O145 O 0.74077 0.23655 0.64343 0.0
O146 O 0.71208 0.19779 0.76076 0.0
O147 O 0.68497 0.24218 0.74263 0.0
O148 O 0.71835 0.32426 0.72968 0.0
O149 O 0.77173 0.33876 0.75376 0.0
O150 O 0.83426 0.31934 0.70709 0.0
O151 O 0.78297 0.17427 0.73016 0.0
O152 O 0.81941 0.28235 0.66222 0.0
O153 O 0.79419 0.1966 0.67977 0.0
C154 C 0.8101 0.26301 0.80265 0.0
C155 C 0.70957 0.24236 0.642 0.0
C156 C 0.74108 0.34562 0.74846 0.0
C157 C 0.685 0.21262 0.75828 0.0
C158 C 0.83914 0.30974 0.67719 0.0
C159 C 0.79376 0.17119 0.70073 0.0
O160 O 0.82081 0.28707 0.78135 0.0
O161 O 0.8341 0.80119 0.75609 0.0
Zn162 Zn 0.79546 0.77859 0.78613 0.0
O163 O 0.75181 0.76345 0.75887 0.0
Zn164 Zn 0.71363 0.77824 0.78119 0.0
Zn165 Zn 0.75689 0.78723 0.7161 0.0
Zn166 Zn 0.74031 0.71021 0.7516 0.0
O167 O 0.67906 0.7354 0.79556 0.0
O168 O 0.6927 0.68727 0.76856 0.0
O169 O 0.78941 0.8169 0.82258 0.0
O170 O 0.73122 0.80986 0.82086 0.0
O171 O 0.68824 0.80861 0.75216 0.0
O172 O 0.71735 0.81451 0.7054 0.0
O173 O 0.76068 0.74965 0.67976 0.0
O174 O 0.81043 0.73343 0.80632 0.0
O175 O 0.74755 0.69572 0.70412 0.0
O176 O 0.77501 0.68778 0.77791 0.0
C177 C 0.8325 0.8199 0.72985 0.0
C178 C 0.67276 0.70117 0.7877 0.0
C179 C 0.69239 0.82101 0.72296 0.0
C180 C 0.76111 0.82425 0.83381 0.0
C181 C 0.7572 0.71462 0.67876 0.0
C182 C 0.80051 0.69919 0.7987 0.0
O183 O 0.80329 0.82183 0.71501 0.0
C184 C 0.93175 0.03777 0.56272 0.0
C185 C 0.965 0.05496 0.46189 0.0
C186 C 0.97366 0.91688 0.4524 0.0
Mg187 Mg 0.00396 0.05184 0.52912 0.0
O188 O 0.99308 0.00011 0.52864 0.0
Mg189 Mg 0.94797 0.97585 0.50488 0.0
Mg190 Mg 0.02556 0.97384 0.50506 0.0
O191 O 0.05776 0.94799 0.48058 0.0
Mg192 Mg 0.04771 0.89633 0.47386 0.0
Mg193 Mg 0.10249 0.97224 0.50444 0.0
C194 C 0.07846 0.03413 0.55257 0.0
C195 C 0.07367 0.033 0.45929 0.0
O196 O 0.92154 0.00812 0.54456 0.0
O197 O 0.96209 0.05817 0.56068 0.0
O198 O 0.94795 0.02317 0.46872 0.0
O199 O 0.99123 0.07095 0.48036 0.0
O200 O 0.0578 0.05758 0.55 0.0
O201 O 0.07009 0.00119 0.54015 0.0
C202 C 0.97689 0.91586 0.55142 0.0
O203 O 0.00816 0.92735 0.54217 0.0
O204 O 0.95082 0.92956 0.54042 0.0
O205 O 0.12961 0.94263 0.46371 0.0
O206 O 0.09096 0.89345 0.4425 0.0
O207 O 0.09933 0.92377 0.54 0.0
C208 C 0.12094 0.91495 0.44301 0.0
O209 O 0.05845 0.8752 0.52229 0.0
O210 O 0.99439 0.89342 0.45103 0.0
C211 C 0.08156 0.89147 0.54396 0.0
O212 O 0.98142 0.9468 0.47015 0.0
O213 O 0.04265 0.02065 0.46871 0.0
O214 O 0.1001 0.0195 0.46976 0.0
C215 C 0.42505 0.11554 0.04121 0.0
C216 C 0.47322 0.12943 0.94744 0.0
C217 C 0.47154 0.98379 0.94597 0.0
Mg218 Mg 0.50203 0.12544 0.01992 0.0
O219 O 0.49053 0.07356 0.01613 0.0
Mg220 Mg 0.44732 0.05111 0.98883 0.0
Mg221 Mg 0.5233 0.04555 0.99432 0.0
O222 O 0.55671 0.01851 0.97208 0.0
Mg223 Mg 0.54688 0.96713 0.96765 0.0
Mg224 Mg 0.60043 0.04181 -0.00149 0.0
C225 C 0.57523 0.10532 0.04518 0.0
C226 C 0.57464 0.10157 0.94969 0.0
O227 O 0.41775 0.0867 0.02177 0.0
O228 O 0.45636 0.13392 0.04599 0.0
O229 O 0.45492 0.09737 0.95128 0.0
O230 O 0.49526 0.14558 0.9701 0.0
O231 O 0.5545 0.12888 0.04463 0.0
O232 O 0.56689 0.07374 0.02994 0.0
C233 C 0.47027 0.99048 0.03837 0.0
O234 O 0.50233 3e-05 0.03047 0.0
O235 O 0.4458 0.0063 0.0266 0.0
O236 O 0.63098 0.00758 0.96457 0.0
O237 O 0.59244 0.95989 0.94099 0.0
O238 O 0.59477 0.995 0.03592 0.0
C239 C 0.62364 0.97871 0.94512 0.0
O240 O 0.55344 0.94771 0.0173 0.0
O241 O 0.49345 0.96153 0.94602 0.0
C242 C 0.57601 0.96315 0.03976 0.0
O243 O 0.47965 0.01672 0.95878 0.0
O244 O 0.54314 0.09042 0.95828 0.0
O245 O 0.6005 0.08762 0.96125 0.0
C246 C 0.88674 0.57446 0.03087 0.0
C247 C 0.91415 0.5358 0.93614 0.0
C248 C 0.9208 0.40886 0.99435 0.0
Mg249 Mg 0.95671 0.56681 -0.00083 0.0
O250 O 0.94708 0.52154 0.01988 0.0
Mg251 Mg 0.9002 0.48966 0.00797 0.0
Mg252 Mg 0.97796 0.48532 0.01072 0.0
O253 O 0.00815 0.4484 0.00246 0.0
Mg254 Mg 0.99612 0.40479 0.02623 0.0
Mg255 Mg 0.0546 0.47956 0.01624 0.0
C256 C 0.03458 0.56163 0.0243 0.0
C257 C 0.02489 0.51023 0.9477 0.0
O258 O 0.87655 0.53924 0.02791 0.0
O259 O 0.91674 0.59099 0.0218 0.0
O260 O 0.89626 0.51199 0.95446 0.0
O261 O 0.94165 0.5574 0.94767 0.0
O262 O 0.01241 0.5807 0.01284 0.0
O263 O 0.02571 0.52711 0.03055 0.0
C264 C 0.93382 0.46018 0.0753 0.0
O265 O 0.96334 0.46343 0.06167 0.0
O266 O 0.90662 0.46844 0.06043 0.0
O267 O 0.07763 0.42767 -0.00041 0.0
O268 O 0.03552 0.37794 0.00662 0.0
O269 O 0.05473 0.4602 0.0705 0.0
C270 C 0.0662 0.39251 -0.0022 0.0
O271 O 0.00902 0.41563 0.07828 0.0
O272 O 0.94177 0.38992 0.00824 0.0
C273 C 0.03606 0.43811 0.08964 0.0
O274 O 0.92997 0.44381 0.99023 0.0
O275 O 0.99453 0.50804 0.95988 0.0
O276 O 0.05052 0.49971 0.96354 0.0
C277 C 0.42827 0.52913 0.06596 0.0
C278 C 0.46971 0.55967 0.96836 0.0
C279 C 0.47847 0.41805 0.95372 0.0
Mg280 Mg 0.50252 0.55054 0.03809 0.0
O281 O 0.49384 0.49935 0.03058 0.0
Mg282 Mg 0.45033 0.47589 0.00382 0.0
Mg283 Mg 0.52806 0.47584 0.00674 0.0
O284 O 0.56194 0.45229 0.98225 0.0
Mg285 Mg 0.55318 0.40061 0.97678 0.0
Mg286 Mg 0.60603 0.47742 0.00705 0.0
C287 C 0.5783 0.53449 0.05888 0.0
C288 C 0.57537 0.53782 0.96293 0.0
O289 O 0.41983 0.50356 0.04316 0.0
O290 O 0.45871 0.54966 0.06924 0.0
O291 O 0.45313 0.52643 0.97016 0.0
O292 O 0.49194 0.57467 0.99126 0.0
O293 O 0.55609 0.55636 0.05948 0.0
O294 O 0.57153 0.50309 0.04329 0.0
C295 C 0.47828 0.41443 0.04934 0.0
O296 O 0.51 0.42742 0.04198 0.0
O297 O 0.45221 0.42759 0.0374 0.0
O298 O 0.63447 0.44978 0.96614 0.0
O299 O 0.59748 0.39867 0.94627 0.0
O300 O 0.6052 0.42884 0.0416 0.0
C301 C 0.62672 0.42146 0.94606 0.0
O302 O 0.56233 0.38136 0.02633 0.0
O303 O 0.49986 0.39521 0.95352 0.0
C304 C 0.58685 0.39717 0.04685 0.0
O305 O 0.48571 0.44896 0.97005 0.0
O306 O 0.54451 0.52428 0.972 0.0
O307 O 0.60229 0.52512 0.97328 0.0
C308 C 0.93057 0.62128 0.53839 0.0
C309 C 0.97589 0.62956 0.44277 0.0
C310 C 0.97453 0.48366 0.44783 0.0
Mg311 Mg 0.00671 0.62954 0.51509 0.0
O312 O 0.99527 0.57765 0.51347 0.0
Mg313 Mg 0.95121 0.55393 0.48811 0.0
Mg314 Mg 0.02732 0.54801 0.49255 0.0
O315 O 0.06015 0.51951 0.47115 0.0
Mg316 Mg 0.05086 0.46814 0.46829 0.0
Mg317 Mg 0.10472 0.54437 0.49531 0.0
C318 C 0.08114 0.61117 0.53876 0.0
C319 C 0.077 0.60076 0.44393 0.0
O320 O 0.92276 0.59172 0.51992 0.0
O321 O 0.96201 0.63963 0.54209 0.0
O322 O 0.95774 0.59772 0.44796 0.0
O323 O -0.00167 0.6467 0.46461 0.0
O324 O 0.06026 0.63456 0.53765 0.0
O325 O 0.07215 0.5784 0.5259 0.0
C326 C 0.97559 0.49766 0.54129 0.0
O327 O 0.00717 0.50508 0.53152 0.0
O328 O 0.95091 0.51269 0.52883 0.0
O329 O 0.13431 0.50847 0.46219 0.0
O330 O 0.09544 0.45999 0.44047 0.0
O331 O 0.10103 0.49973 0.53517 0.0
C332 C 0.12667 0.47892 0.44365 0.0
O333 O 0.06013 0.45122 0.5183 0.0
O334 O 0.99665 0.4616 0.4483 0.0
C335 C 0.08297 0.46774 0.54006 0.0
O336 O 0.98268 0.51716 0.45931 0.0
O337 O 0.04586 0.59025 0.4537 0.0
O338 O 0.10324 0.58764 0.45577 0.0
C339 C 0.3762 0.07014 0.53052 0.0
C340 C 0.40532 0.03117 0.43637 0.0
C341 C 0.41384 0.90612 0.49524 0.0
Mg342 Mg 0.44642 0.06296 0.49954 0.0
O343 O 0.43743 0.01848 0.52141 0.0
Mg344 Mg 0.39119 0.98567 0.50842 0.0
Mg345 Mg 0.46951 0.98354 0.51219 0.0
O346 O 0.50078 0.94787 0.50318 0.0
Mg347 Mg 0.4902 0.90285 0.52487 0.0
Mg348 Mg 0.54692 0.97964 0.51666 0.0
C349 C 0.52439 0.06061 0.52599 0.0
C350 C 0.51591 0.0115 0.44943 0.0
O351 O 0.36635 0.0348 0.52825 0.0
O352 O 0.40597 0.08674 0.52104 0.0
O353 O 0.38712 0.00779 0.45482 0.0
O354 O 0.43276 0.05274 0.44794 0.0
O355 O 0.50142 0.07841 0.51408 0.0
O356 O 0.51678 0.02602 0.5325 0.0
C357 C 0.42489 0.9564 0.57612 0.0
O358 O 0.455 0.96127 0.56333 0.0
O359 O 0.39772 0.96384 0.56043 0.0
O360 O 0.57117 0.92928 0.49793 0.0
O361 O 0.5301 0.87824 0.50316 0.0
O362 O 0.54829 0.95801 0.57018 0.0
C363 C 0.56053 0.89406 0.49466 0.0
O364 O 0.50374 0.9117 0.57691 0.0
O365 O 0.43557 0.88733 0.50801 0.0
C366 C 0.53056 0.93428 0.58863 0.0
O367 O 0.42238 0.94113 0.49123 0.0
O368 O 0.48547 0.00758 0.46167 0.0
O369 O 0.54205 0.00145 0.46477 0.0
C370 C 0.13893 0.14011 0.30185 0.0
C371 C 0.14392 0.17862 0.30587 0.0
C372 C 0.11906 0.11707 0.32425 0.0
C373 C 0.10412 0.13296 0.35135 0.0
C374 C 0.10571 0.17156 0.35322 0.0
C375 C 0.12552 0.19394 0.33037 0.0
C376 C 0.11722 0.0759 0.32092 0.0
C377 C 0.0899 0.18966 0.38148 0.0
C378 C 0.05256 0.06737 0.41145 0.0
C379 C 0.07948 0.06208 0.43425 0.0
C380 C 0.05964 0.09139 0.38472 0.0
C381 C 0.09434 0.11053 0.38108 0.0
C382 C 0.12103 0.10683 0.40526 0.0
C383 C 0.11328 0.08259 0.43139 0.0
C384 C 0.03043 0.09484 0.35964 0.0
C385 C 0.15826 0.1274 0.40287 0.0
H386 H 0.15246 0.12792 0.28265 0.0
H387 H 0.12856 0.22366 0.33334 0.0
H388 H 0.13581 0.06737 0.33964 0.0
H389 H 0.09056 0.06085 0.32591 0.0
H390 H 0.1242 0.06747 0.29564 0.0
H391 H 0.08645 0.21806 0.37539 0.0
H392 H 0.06415 0.17328 0.3876 0.0
H393 H 0.10756 0.19143 0.4042 0.0
H394 H 0.02635 0.05153 0.41356 0.0
H395 H 0.13406 0.07903 0.44926 0.0
H396 H 0.00428 0.08235 0.3685 0.0
H397 H 0.03448 0.08066 0.33578 0.0
H398 H 0.03054 0.1242 0.35417 0.0
H399 H 0.16971 0.11785 0.38009 0.0
H400 H 0.17528 0.12324 0.42491 0.0
H401 H 0.15865 0.15741 0.40073 0.0
C402 C 0.84377 0.17772 0.38418 0.0
C403 C 0.84188 0.18145 0.34941 0.0
C404 C 0.86813 0.15881 0.39937 0.0
C405 C 0.89099 0.14294 0.37931 0.0
C406 C 0.88987 0.14735 0.34431 0.0
C407 C 0.86537 0.16662 0.32977 0.0
C408 C 0.86863 0.15481 0.43686 0.0
C409 C 0.91378 0.13078 0.32212 0.0
C410 C 0.96544 0.11209 0.42872 0.0
C411 C 0.95027 0.07549 0.43508 0.0
C412 C 0.94744 0.13398 0.40866 0.0
C413 C 0.91352 0.11888 0.39489 0.0
C414 C 0.89937 0.08119 0.39909 0.0
C415 C 0.91796 0.05996 0.41897 0.0
C416 C 0.96371 0.1739 0.40422 0.0
C417 C 0.86349 0.06386 0.38442 0.0
H418 H 0.82604 0.1894 0.39961 0.0
H419 H 0.86425 0.16946 0.30287 0.0
H420 H 0.86054 0.12531 0.44283 0.0
H421 H 0.8956 0.16423 0.44779 0.0
H422 H 0.85082 0.17082 0.4491 0.0
H423 H 0.9124 0.14015 0.296 0.0
H424 H 0.94133 0.13805 0.33208 0.0
H425 H 0.90634 0.10025 0.32178 0.0
H426 H 0.99056 0.12424 0.44073 0.0
H427 H 0.90604 0.03164 0.42344 0.0
H428 H 0.95089 0.19162 0.42055 0.0
H429 H 0.95967 0.18204 0.37804 0.0
H430 H 0.99227 0.17947 0.41094 0.0
H431 H 0.85628 0.03412 0.38992 0.0
H432 H 0.86256 0.06684 0.3569 0.0
H433 H 0.84337 0.07827 0.39464 0.0
C434 C 0.85294 0.87871 0.28822 0.0
C435 C 0.8172 0.87546 0.29419 0.0
C436 C 0.87853 0.89146 0.31359 0.0
C437 C 0.86798 0.90093 0.34554 0.0
C438 C 0.83237 0.90197 0.35043 0.0
C439 C 0.80738 0.88964 0.32449 0.0
C440 C 0.91653 0.89155 0.30705 0.0
C441 C 0.82017 0.91233 0.38406 0.0
C442 C 0.92493 0.87787 0.41827 0.0
C443 C 0.94358 0.91281 0.42822 0.0
C444 C 0.8994 0.8738 0.39197 0.0
C445 C 0.89342 0.90537 0.37462 0.0
C446 C 0.91229 0.9407 0.38459 0.0
C447 C 0.93664 0.94408 0.41177 0.0
C448 C 0.87949 0.83563 0.38218 0.0
C449 C 0.90766 0.97473 0.36588 0.0
H450 H 0.86087 0.86849 0.26469 0.0
H451 H 0.77986 0.88787 0.32923 0.0
H452 H 0.93351 0.91689 0.31797 0.0
H453 H 0.92482 0.86756 0.31913 0.0
H454 H 0.92096 0.8897 0.27987 0.0
H455 H 0.82258 0.8902 0.40189 0.0
H456 H 0.83679 0.93814 0.39441 0.0
H457 H 0.79243 0.91608 0.38265 0.0
H458 H 0.93062 0.85374 0.43081 0.0
H459 H 0.95174 0.97107 0.4189 0.0
H460 H 0.88584 0.82802 0.35649 0.0
H461 H 0.85086 0.83521 0.38202 0.0
H462 H 0.88584 0.81433 0.39941 0.0
H463 H 0.92805 -0.00094 0.37356 0.0
H464 H 0.88156 0.98131 0.37055 0.0
H465 H 0.9087 0.96984 0.33852 0.0
C466 C 0.1946 0.86572 0.27076 0.0
C467 C 0.23042 0.86414 0.2731 0.0
C468 C 0.17851 0.88068 0.29723 0.0
C469 C 0.19868 0.8941 0.32671 0.0
C470 C 0.23543 0.89643 0.3276 0.0
C471 C 0.2509 0.8816 0.30072 0.0
C472 C 0.13941 0.87913 0.29474 0.0
C473 C 0.2581 0.911 0.35825 0.0
C474 C 0.15767 0.94065 0.39661 0.0
C475 C 0.14435 0.91037 0.41585 0.0
C476 C 0.17541 0.93596 0.3674 0.0
C477 C 0.1809 0.90032 0.35799 0.0
C478 C 0.16883 0.86994 0.3783 0.0
C479 C 0.15001 0.87524 0.40661 0.0
C480 C 0.1869 0.96877 0.34593 0.0
C481 C 0.17521 0.83168 0.36981 0.0
H482 H 0.17853 0.85278 0.24943 0.0
H483 H 0.27871 0.8811 0.3027 0.0
H484 H 0.12625 0.85591 0.30953 0.0
H485 H 0.13266 0.9049 0.30519 0.0
H486 H 0.12878 0.87484 0.26846 0.0
H487 H 0.28603 0.91918 0.35217 0.0
H488 H 0.24952 0.93513 0.36997 0.0
H489 H 0.25597 0.8891 0.37702 0.0
H490 H 0.15261 0.96772 0.40347 0.0
H491 H 0.1395 0.85187 0.42148 0.0
H492 H 0.17236 0.96434 0.32129 0.0
H493 H 0.21517 0.97183 0.34112 0.0
H494 H 0.18216 0.9949 0.35759 0.0
H495 H 0.16094 0.82135 0.3459 0.0
H496 H 0.16647 0.81173 0.38951 0.0
H497 H 0.20353 0.83247 0.36637 0.0
C498 C 0.19188 0.83702 0.69339 0.0
C499 C 0.17688 0.80775 0.71293 0.0
C500 C 0.17234 0.84938 0.66723 0.0
C501 C 0.13669 0.83272 0.66115 0.0
C502 C 0.12091 0.8044 0.68191 0.0
C503 C 0.14139 0.79181 0.70725 0.0
C504 C 0.19027 0.87926 0.64525 0.0
C505 C 0.08271 0.7868 0.67684 0.0
C506 C 0.08801 0.88993 0.60565 0.0
C507 C 0.08924 0.87257 0.57441 0.0
C508 C 0.10094 0.87552 0.6347 0.0
C509 C 0.1167 0.84398 0.63199 0.0
C510 C 0.11656 0.82548 0.60055 0.0
C511 C 0.10227 0.83979 0.57208 0.0
C512 C 0.09917 0.89494 0.668 0.0
C513 C 0.13371 0.79219 0.59655 0.0
H514 H 0.21938 0.84915 0.69754 0.0
H515 H 0.1297 0.76927 0.72249 0.0
H516 H 0.18913 0.86861 0.619 0.0
H517 H 0.17649 0.90304 0.64552 0.0
H518 H 0.21816 0.88928 0.65334 0.0
H519 H 0.07338 0.76889 0.69782 0.0
H520 H 0.06626 0.80827 0.67431 0.0
H521 H 0.07872 0.76972 0.65337 0.0
H522 H 0.07774 0.9153 0.6072 0.0
H523 H 0.10344 0.82679 0.5477 0.0
H524 H 0.12598 0.90743 0.6777 0.0
H525 H 0.08761 0.87484 0.68654 0.0
H526 H 0.08336 0.91708 0.66616 0.0
H527 H 0.16237 0.80039 0.60204 0.0
H528 H 0.12934 0.77964 0.57089 0.0
H529 H 0.12355 0.77093 0.61462 0.0
C530 C 0.13325 0.11771 0.71783 0.0
C531 C 0.16832 0.12972 0.72831 0.0
C532 C 0.12422 0.09195 0.69125 0.0
C533 C 0.15114 0.07924 0.67414 0.0
C534 C 0.18608 0.08781 0.68733 0.0
C535 C 0.19428 0.1128 0.71471 0.0
C536 C 0.08634 0.08207 0.67887 0.0
C537 C 0.2152 0.07411 0.6701 0.0
C538 C 0.11305 0.01634 0.60095 0.0
C539 C 0.10786 0.04282 0.57755 0.0
C540 C 0.13057 0.02709 0.63196 0.0
C541 C 0.14348 0.065 0.63912 0.0
C542 C 0.1428 0.0909 0.61353 0.0
C543 C 0.12457 0.07951 0.58311 0.0
C544 C 0.13142 -0.00178 0.65792 0.0
C545 C 0.15774 0.13143 0.61956 0.0
H546 H 0.11328 0.13087 0.72845 0.0
H547 H 0.2215 0.12237 0.72275 0.0
H548 H 0.08242 0.09747 0.65592 0.0
H549 H 0.07917 0.05216 0.67234 0.0
H550 H 0.06833 0.08909 0.69781 0.0
H551 H 0.2407 0.08149 0.68449 0.0
H552 H 0.20864 0.0437 0.66626 0.0
H553 H 0.21803 0.08622 0.64501 0.0
H554 H 0.10025 0.9878 0.59665 0.0
H555 H 0.12094 0.09984 0.56476 0.0
H556 H 0.15241 0.00692 0.67762 0.0
H557 H 0.13521 0.97186 0.64598 0.0
H558 H 0.10586 0.99286 0.67003 0.0
H559 H 0.14071 0.14378 0.63635 0.0
H560 H 0.1595 0.14678 0.59593 0.0
H561 H 0.18425 0.13525 0.63199 0.0
C562 C 0.82989 0.12174 0.70609 0.0
C563 C 0.80449 0.1372 0.68862 0.0
C564 C 0.84723 0.0966 0.68973 0.0
C565 C 0.83889 0.08732 0.65537 0.0
C566 C 0.81023 0.09949 0.63918 0.0
C567 C 0.79342 0.1243 0.65605 0.0
C568 C 0.87685 0.08312 0.70814 0.0
C569 C 0.80016 0.09025 0.60271 0.0
C570 C 0.91287 0.0866 0.59732 0.0
C571 C 0.90814 0.04934 0.58721 0.0
C572 C 0.89127 0.09883 0.62046 0.0
C573 C 0.86443 0.07308 0.63439 0.0
C574 C 0.86022 0.03514 0.62527 0.0
C575 C 0.88189 0.02372 0.60137 0.0
C576 C 0.89647 0.13968 0.62903 0.0
C577 C 0.83246 0.00676 0.64013 0.0
H578 H 0.83826 0.13157 0.73138 0.0
H579 H 0.77326 0.1359 0.64278 0.0
H580 H 0.87745 0.05409 0.70071 0.0
H581 H 0.90215 0.10025 0.7017 0.0
H582 H 0.87465 0.08513 0.73568 0.0
H583 H 0.77424 0.09708 0.59543 0.0
H584 H 0.82014 0.10624 0.58702 0.0
H585 H 0.79932 0.06057 0.59699 0.0
H586 H 0.93311 0.10653 0.58649 0.0
H587 H 0.87853 0.99477 0.59404 0.0
H588 H 0.90054 0.14454 0.65646 0.0
H589 H 0.87267 0.15046 0.62106 0.0
H590 H 0.91926 0.15581 0.61676 0.0
H591 H 0.83098 0.01235 0.66733 0.0
H592 H 0.8375 0.97832 0.63624 0.0
H593 H 0.80651 0.00809 0.62812 0.0
C594 C 0.89119 0.81377 0.70981 0.0
C595 C 0.86478 0.83482 0.71273 0.0
C596 C 0.91759 0.8229 0.68679 0.0
C597 C 0.91778 0.85414 0.66682 0.0
C598 C 0.89294 0.87724 0.67197 0.0
C599 C 0.86648 0.86699 0.69453 0.0
C600 C 0.94322 0.7973 0.68192 0.0
C601 C 0.89258 0.91134 0.6518 0.0
C602 C 0.98754 0.89981 0.6103 0.0
C603 C 0.97028 0.89027 0.57906 0.0
C604 C 0.97257 0.88523 0.63968 0.0
C605 C 0.94006 0.8603 0.63734 0.0
C606 C 0.92535 0.84683 0.60547 0.0
C607 C 0.94042 0.86241 0.57668 0.0
C608 C 0.98941 0.89977 0.67311 0.0
C609 C 0.89145 0.81916 0.60174 0.0
H610 H 0.88968 0.78858 0.72359 0.0
H611 H 0.84611 0.8833 0.69685 0.0
H612 H 0.93401 0.77843 0.6601 0.0
H613 H 0.96962 0.81283 0.67672 0.0
H614 H 0.9454 0.78023 0.70416 0.0
H615 H 0.87458 0.92868 0.66178 0.0
H616 H 0.91927 0.92834 0.65156 0.0
H617 H 0.88394 0.90308 0.62551 0.0
H618 H 0.01055 0.92157 0.61211 0.0
H619 H 0.9272 0.85502 0.55242 0.0
H620 H 0.98801 0.8773 0.69126 0.0
H621 H 0.97506 0.92057 0.68336 0.0
H622 H 0.01726 0.91311 0.67096 0.0
H623 H 0.89158 0.7964 0.61938 0.0
H624 H 0.88668 0.80719 0.57588 0.0
H625 H 0.86927 0.83293 0.60773 0.0
C626 C 0.27246 0.15866 0.15271 0.0
C627 C 0.26671 0.1949 0.1492 0.0
C628 C 0.29498 0.1441 0.13187 0.0
C629 C 0.31149 0.16598 0.10639 0.0
C630 C 0.30292 0.20101 0.10044 0.0
C631 C 0.28071 0.21516 0.12203 0.0
C632 C 0.3036 0.10671 0.13923 0.0
C633 C 0.31926 0.22473 0.07289 0.0
C634 C 0.40281 0.15205 0.08624 0.0
C635 C 0.39602 0.12859 0.05777 0.0
C636 C 0.3755 0.1646 0.1021 0.0
C637 C 0.34062 0.15397 0.0888 0.0
C638 C 0.33368 0.13097 0.05965 0.0
C639 C 0.36142 0.11822 0.04468 0.0
C640 C 0.38396 0.18885 0.13338 0.0
C641 C 0.29698 0.11987 0.0443 0.0
H642 H 0.26167 0.1426 0.17346 0.0
H643 H 0.2762 0.24304 0.11886 0.0
H644 H 0.30209 0.08953 0.11595 0.0
H645 H 0.33088 0.11028 0.1499 0.0
H646 H 0.28576 0.09156 0.15734 0.0
H647 H 0.30628 0.24875 0.06856 0.0
H648 H 0.34736 0.23523 0.07964 0.0
H649 H 0.3179 0.20827 0.04918 0.0
H650 H 0.42946 0.16016 0.09646 0.0
H651 H 0.35603 0.10052 0.02239 0.0
H652 H 0.36928 0.17557 0.15446 0.0
H653 H 0.37561 0.21569 0.12955 0.0
H654 H 0.41238 0.19427 0.14067 0.0
H655 H 0.27986 0.10343 0.06215 0.0
H656 H 0.29624 0.1033 0.02068 0.0
H657 H 0.28573 0.1448 0.03902 0.0
C658 C 0.87371 0.34293 0.23571 0.0
C659 C 0.83757 0.33536 0.22808 0.0
C660 C 0.89635 0.3661 0.21549 0.0
C661 C 0.88235 0.38032 0.18644 0.0
C662 C 0.84576 0.37243 0.17873 0.0
C663 C 0.82375 0.35063 0.20011 0.0
C664 C 0.935 0.37536 0.22511 0.0
C665 C 0.82986 0.38614 0.14742 0.0
C666 C 0.91969 0.46058 0.13497 0.0
C667 C 0.92957 0.44204 0.10721 0.0
C668 C 0.90837 0.44116 0.16338 0.0
C669 C 0.90543 0.40231 0.16292 0.0
C670 C 0.91811 0.38408 0.13583 0.0
C671 C 0.93044 0.40442 0.10829 0.0
C672 C 0.89652 0.4617 0.19246 0.0
C673 C 0.91474 0.34263 0.13393 0.0
H674 H 0.88409 0.33113 0.25765 0.0
H675 H 0.79573 0.34433 0.19429 0.0
H676 H 0.95026 0.36442 0.20572 0.0
H677 H 0.94384 0.40576 0.22654 0.0
H678 H 0.9413 0.36386 0.24955 0.0
H679 H 0.80113 0.37592 0.14444 0.0
H680 H 0.83468 0.41673 0.14807 0.0
H681 H 0.84232 0.37709 0.12503 0.0
H682 H 0.91933 0.48986 0.13386 0.0
H683 H 0.93787 0.39033 0.08641 0.0
H684 H 0.90385 0.45026 0.21659 0.0
H685 H 0.86756 0.45868 0.19072 0.0
H686 H 0.90799 0.49162 0.19253 0.0
H687 H 0.92245 0.33191 0.15821 0.0
H688 H 0.93101 0.33365 0.1143 0.0
H689 H 0.88694 0.3299 0.12792 0.0
C690 C 0.65917 0.82739 0.14822 0.0
C691 C 0.65516 0.82858 0.18277 0.0
C692 C 0.64259 0.84925 0.12706 0.0
C693 C 0.6205 0.87173 0.14076 0.0
C694 C 0.61493 0.87153 0.17547 0.0
C695 C 0.63298 0.85046 0.19625 0.0
C696 C 0.64993 0.84948 0.09028 0.0
C697 C 0.59049 0.89406 0.19066 0.0
C698 C 0.61316 0.9555 0.09039 0.0
C699 C 0.58357 0.94214 0.06933 0.0
C700 C 0.62456 0.93339 0.11489 0.0
C701 C 0.60547 0.89731 0.1189 0.0
C702 C 0.57411 0.88465 0.09951 0.0
C703 C 0.56362 0.90716 0.07472 0.0
C704 C 0.65844 0.94773 0.13476 0.0
C705 C 0.55256 0.84673 0.1039 0.0
H706 H 0.67652 0.81055 0.13794 0.0
H707 H 0.62965 0.85094 0.22301 0.0
H708 H 0.62509 0.84203 0.07497 0.0
H709 H 0.66254 0.87766 0.0834 0.0
H710 H 0.66737 0.82999 0.0836 0.0
H711 H 0.58643 0.88807 0.21744 0.0
H712 H 0.6013 0.9239 0.18867 0.0
H713 H 0.56467 0.88849 0.17675 0.0
H714 H 0.62865 0.98258 0.08658 0.0
H715 H 0.54038 0.89687 0.05893 0.0
H716 H 0.67852 0.93147 0.12768 0.0
H717 H 0.65475 0.94439 0.1619 0.0
H718 H 0.66872 0.97732 0.13033 0.0
H719 H 0.56724 0.82539 0.09547 0.0
H720 H 0.52708 0.84261 0.08941 0.0
H721 H 0.54751 0.84226 0.13072 0.0
C722 C 0.21439 0.69218 0.09168 0.0
C723 C 0.20146 0.7152 0.1146 0.0
C724 C 0.19152 0.66621 0.07115 0.0
C725 C 0.15493 0.66296 0.07391 0.0
C726 C 0.14178 0.68795 0.09513 0.0
C727 C 0.16519 0.71396 0.11496 0.0
C728 C 0.20659 0.64075 0.04821 0.0
C729 C 0.10286 0.68567 0.09857 0.0
C730 C 0.0836 0.61297 0.01388 0.0
C731 C 0.07059 0.58166 0.03205 0.0
C732 C 0.11324 0.63831 0.02571 0.0
C733 C 0.12998 0.63224 0.05656 0.0
C734 C 0.11898 0.59883 0.07329 0.0
C735 C 0.08942 0.5737 0.06065 0.0
C736 C 0.1249 0.67296 0.00661 0.0
C737 C 0.13634 0.59122 0.10617 0.0
H738 H 0.24239 0.69304 0.09099 0.0
H739 H 0.15485 0.73165 0.13241 0.0
H740 H 0.20463 0.61337 0.05967 0.0
H741 H 0.19172 0.63655 0.02374 0.0
H742 H 0.23462 0.65152 0.04383 0.0
H743 H 0.09693 0.7082 0.11497 0.0
H744 H 0.08961 0.68702 0.07367 0.0
H745 H 0.09145 0.65884 0.10927 0.0
H746 H 0.06936 0.61876 0.99134 0.0
H747 H 0.07943 0.54945 0.07464 0.0
H748 H 0.15332 0.6765 0.00225 0.0
H749 H 0.12088 0.6974 0.02154 0.0
H750 H 0.11029 0.67258 0.98213 0.0
H751 H 0.16525 0.59653 0.10458 0.0
H752 H 0.12756 0.56233 0.11385 0.0
H753 H 0.12991 0.61011 0.12596 0.0
C754 C 0.30133 0.84091 0.91003 0.0
C755 C 0.28224 0.84789 0.88114 0.0
C756 C 0.32653 0.86898 0.9256 0.0
C757 C 0.33262 0.90444 0.91171 0.0
C758 C 0.30948 0.91296 0.88617 0.0
C759 C 0.28423 0.88454 0.87132 0.0
C760 C 0.34963 0.85942 0.95406 0.0
C761 C 0.31437 0.95079 0.87146 0.0
C762 C 0.40657 0.97614 0.95144 0.0
C763 C 0.43518 0.96867 0.93405 0.0
C764 C 0.37257 0.95634 0.94399 0.0
C765 C 0.36719 0.9289 0.91814 0.0
C766 C 0.39567 0.92301 0.89901 0.0
C767 C 0.42935 0.94269 0.90748 0.0
C768 C 0.34316 0.96329 0.96528 0.0
C769 C 0.39092 0.89472 0.87049 0.0
H770 H 0.29932 0.81289 0.91844 0.0
H771 H 0.26873 0.89048 0.84967 0.0
H772 H 0.37513 0.85566 0.94437 0.0
H773 H 0.35498 0.88206 0.97334 0.0
H774 H 0.33758 0.83351 0.966 0.0
H775 H 0.29041 0.95513 0.85717 0.0
H776 H 0.32129 0.97271 0.89129 0.0
H777 H 0.33624 0.95379 0.85415 0.0
H778 H 0.41071 0.9958 0.97214 0.0
H779 H 0.45141 0.93704 0.89383 0.0
H780 H 0.33999 0.94313 0.98561 0.0
H781 H 0.31788 0.9598 0.95059 0.0
H782 H 0.34894 0.99145 0.97704 0.0
H783 H 0.38286 0.86666 0.8803 0.0
H784 H 0.4153 0.89536 0.85679 0.0
H785 H 0.36989 0.89956 0.85247 0.0
C786 C 0.12877 0.28137 0.85628 0.0
C787 C 0.15911 0.26634 0.86073 0.0
C788 C 0.11435 0.29691 0.88331 0.0
C789 C 0.13104 0.29789 0.91552 0.0
C790 C 0.16011 0.28012 0.92064 0.0
C791 C 0.1738 0.26431 0.89304 0.0
C792 C 0.08284 0.31483 0.87682 0.0
C793 C 0.17849 0.28041 0.95461 0.0
C794 C 0.11706 0.38232 0.96454 0.0
C795 C 0.0875 0.36781 0.98223 0.0
C796 C 0.1334 0.35925 0.94469 0.0
C797 C 0.11984 0.32081 0.94254 0.0
C798 C 0.09198 0.30567 0.96257 0.0
C799 C 0.07613 0.32933 0.98218 0.0
C800 C 0.16346 0.37639 0.92402 0.0
C801 C 0.07706 0.26483 0.96134 0.0
H802 H 0.11751 0.2829 0.83121 0.0
H803 H 0.19759 0.25313 0.89636 0.0
H804 H 0.06249 0.30545 0.89496 0.0
H805 H 0.09073 0.34521 0.88019 0.0
H806 H 0.07107 0.30856 0.8511 0.0
H807 H 0.19579 0.25959 0.95582 0.0
H808 H 0.19485 0.30807 0.96001 0.0
H809 H 0.15931 0.27507 0.97451 0.0
H810 H 0.12629 0.41191 0.96467 0.0
H811 H 0.0537 0.31768 -0.00375 0.0
H812 H 0.1545 0.37531 0.89726 0.0
H813 H 0.18518 0.36072 0.92621 0.0
H814 H 0.17375 0.40566 0.93165 0.0
H815 H 0.06121 0.25753 0.93764 0.0
H816 H 0.05998 0.25667 0.98253 0.0
H817 H 0.09833 0.24848 0.96177 0.0
C818 C 0.63664 0.22331 0.79366 0.0
C819 C 0.65515 0.19853 0.77863 0.0
C820 C 0.6149 0.21235 0.82008 0.0
C821 C 0.61147 0.17576 0.83105 0.0
C822 C 0.62672 0.14964 0.81316 0.0
C823 C 0.64878 0.1615 0.78731 0.0
C824 C 0.59899 0.24101 0.83832 0.0
C825 C 0.62288 0.11002 0.82358 0.0
C826 C 0.61445 0.1498 0.92074 0.0
C827 C 0.58103 0.12844 0.92311 0.0
C828 C 0.62354 0.1691 0.89181 0.0
C829 C 0.59866 0.16622 0.86455 0.0
C830 C 0.56374 0.14804 0.86823 0.0
C831 C 0.55522 0.12934 0.89773 0.0
C832 C 0.66079 0.18944 0.88925 0.0
C833 C 0.5364 0.14527 0.83995 0.0
H834 H 0.64148 0.25205 0.78687 0.0
H835 H 0.6627 0.14228 0.77525 0.0
H836 H 0.57377 0.22874 0.84907 0.0
H837 H 0.61729 0.25359 0.8592 0.0
H838 H 0.59461 0.26345 0.82149 0.0
H839 H 0.63191 0.09227 0.80426 0.0
H840 H 0.63871 0.1088 0.84711 0.0
H841 H 0.59517 0.09849 0.82844 0.0
H842 H 0.63412 0.14978 0.94077 0.0
H843 H 0.52919 0.11304 0.8997 0.0
H844 H 0.66119 0.21693 0.87843 0.0
H845 H 0.67493 0.17358 0.87239 0.0
H846 H 0.67526 0.19328 0.91398 0.0
H847 H 0.54085 0.12427 0.82115 0.0
H848 H 0.53829 0.17192 0.82719 0.0
H849 H 0.50947 0.13697 0.84883 0.0
C850 C 0.8343 0.67682 0.84587 0.0
C851 C 0.81911 0.67156 0.81345 0.0
C852 C 0.85004 0.64942 0.86061 0.0
C853 C 0.85142 0.61654 0.84204 0.0
C854 C 0.83721 0.61171 0.80884 0.0
C855 C 0.82077 0.63909 0.79509 0.0
C856 C 0.86449 0.65532 0.89634 0.0
C857 C 0.83907 0.57756 0.788 0.0
C858 C 0.91918 0.56861 0.88245 0.0
C859 C 0.89848 0.54538 0.90409 0.0
C860 C 0.90383 0.58945 0.85927 0.0
C861 C 0.86704 0.58711 0.85809 0.0
C862 C 0.84584 0.56017 0.87676 0.0
C863 C 0.86189 0.53924 0.89935 0.0
C864 C 0.92727 0.61674 0.83873 0.0
C865 C 0.80646 0.5565 0.87606 0.0
H866 H 0.83289 0.70182 0.86007 0.0
H867 H 0.80937 0.63519 0.76979 0.0
H868 H 0.85133 0.63282 0.91193 0.0
H869 H 0.89289 0.65442 0.8975 0.0
H870 H 0.86085 0.68215 0.90743 0.0
H871 H 0.82925 0.57943 0.76175 0.0
H872 H 0.86649 0.57298 0.78787 0.0
H873 H 0.82325 0.553 0.79908 0.0
H874 H 0.94752 0.57292 0.88558 0.0
H875 H 0.84569 0.52107 0.91579 0.0
H876 H 0.92989 0.64478 0.85032 0.0
H877 H 0.91584 0.61754 0.81296 0.0
H878 H 0.95391 0.61002 0.83739 0.0
H879 H 0.79963 0.57977 0.89084 0.0
H880 H 0.79361 0.53024 0.88694 0.0
H881 H 0.79556 0.55783 0.85018 0.0
C882 C 0.15093 0.36478 0.23292 0.0
C883 C 0.16916 0.3461 0.2107 0.0
C884 C 0.12679 0.38596 0.22104 0.0
C885 C 0.12007 0.38748 0.18618 0.0
C886 C 0.13875 0.36899 0.16366 0.0
C887 C 0.16337 0.34888 0.17623 0.0
C888 C 0.10811 0.40587 0.24588 0.0
C889 C 0.13225 0.36979 0.1262 0.0
C890 C 0.03766 0.40059 0.14039 0.0
C891 C 0.05054 0.43286 0.12351 0.0
C892 C 0.05874 0.3873 0.16469 0.0
C893 C 0.09298 0.40724 0.17243 0.0
C894 C 0.10335 0.44297 0.15995 0.0
C895 C 0.08196 0.45542 0.13539 0.0
C896 C 0.04619 0.34961 0.17839 0.0
C897 C 0.13889 0.466 0.1692 0.0
H898 H 0.15561 0.36298 0.25967 0.0
H899 H 0.17737 0.33441 0.15905 0.0
H900 H 0.10387 0.43286 0.23651 0.0
H901 H 0.08206 0.38888 0.25007 0.0
H902 H 0.12296 0.41054 0.27041 0.0
H903 H 0.14863 0.35349 0.11226 0.0
H904 H 0.10427 0.35855 0.11942 0.0
H905 H 0.13797 0.39865 0.1178 0.0
H906 H 0.01282 0.38355 0.13214 0.0
H907 H 0.09152 0.48113 0.12331 0.0
H908 H 0.05382 0.34907 0.20533 0.0
H909 H 0.05862 0.32909 0.16499 0.0
H910 H 0.01728 0.34102 0.17508 0.0
H911 H 0.14592 0.46367 0.19612 0.0
H912 H 0.13979 0.49555 0.16369 0.0
H913 H 0.159 0.45586 0.15453 0.0
C914 C 0.15645 0.65836 0.8785 0.0
C915 C 0.15467 0.66981 0.84547 0.0
C916 C 0.12899 0.63286 0.89091 0.0
C917 C 0.09923 0.61854 0.8697 0.0
C918 C 0.09649 0.63136 0.83694 0.0
C919 C 0.12423 0.65691 0.82522 0.0
C920 C 0.13266 0.61987 0.9262 0.0
C921 C 0.06507 0.61682 0.81377 0.0
C922 C 0.05884 0.52422 0.89734 0.0
C923 C 0.0338 0.533 0.91869 0.0
C924 C 0.07821 0.55143 0.87833 0.0
C925 C 0.07247 0.58814 0.88128 0.0
C926 C 0.04442 0.59611 0.89979 0.0
C927 C 0.02527 0.56824 0.91833 0.0
C928 C 0.10733 0.54168 0.85807 0.0
C929 C 0.03735 0.63484 0.90349 0.0
H930 H 0.17975 0.6683 0.89431 0.0
H931 H 0.1224 0.66589 0.79971 0.0
H932 H 0.10827 0.62015 0.93954 0.0
H933 H 0.13704 0.59098 0.92544 0.0
H934 H 0.15492 0.63716 0.94079 0.0
H935 H 0.06517 0.63263 0.79046 0.0
H936 H 0.06496 0.5875 0.80685 0.0
H937 H 0.04039 0.61778 0.82645 0.0
H938 H 0.0654 0.49688 0.89779 0.0
H939 H 0.00659 0.57532 0.93551 0.0
H940 H 0.13292 0.55225 0.87146 0.0
H941 H 0.10773 0.55477 0.83338 0.0
H942 H 0.10469 0.51138 0.85406 0.0
H943 H 0.01035 0.63486 0.9116 0.0
H944 H 0.04099 0.6497 0.87974 0.0
H945 H 0.05613 0.65036 0.92271 0.0
C946 C 0.36817 0.22615 0.80944 0.0
C947 C 0.33427 0.21655 0.8214 0.0
C948 C 0.3972 0.21626 0.82649 0.0
C949 C 0.39223 0.19648 0.85628 0.0
C950 C 0.35825 0.18747 0.8689 0.0
C951 C 0.32969 0.19748 0.85125 0.0
C952 C 0.43297 0.22616 0.81221 0.0
C953 C 0.35192 0.16667 0.90085 0.0
C954 C 0.44755 0.13067 0.88983 0.0
C955 C 0.46323 0.15013 0.91867 0.0
C956 C 0.42709 0.14693 0.86711 0.0
C957 C 0.42187 0.18331 0.87375 0.0
C958 C 0.44095 0.20446 0.90071 0.0
C959 C 0.46173 0.18762 0.92282 0.0
C960 C 0.40809 0.12375 0.83808 0.0
C961 C 0.43644 0.24349 0.9084 0.0
H962 H 0.37205 0.24099 0.78641 0.0
H963 H 0.30371 0.19024 0.86085 0.0
H964 H 0.45234 0.24046 0.83153 0.0
H965 H 0.44203 0.20062 0.80428 0.0
H966 H 0.4329 0.24415 0.79032 0.0
H967 H 0.32424 0.16329 0.90807 0.0
H968 H 0.35867 0.13888 0.89779 0.0
H969 H 0.36905 0.18136 0.92165 0.0
H970 H 0.44914 0.10179 0.88634 0.0
H971 H 0.47383 0.20277 0.9451 0.0
H972 H 0.40858 0.14006 0.8151 0.0
H973 H 0.38024 0.11445 0.84394 0.0
H974 H 0.4197 0.09896 0.83292 0.0
H975 H 0.43645 0.2594 0.88521 0.0
H976 H 0.45738 0.25815 0.92618 0.0
H977 H 0.41078 0.24292 0.91976 0.0
C978 C 0.79445 0.27845 0.85981 0.0
C979 C 0.82034 0.27305 0.83783 0.0
C980 C 0.80338 0.29895 0.88993 0.0
C981 C 0.83907 0.3134 0.89842 0.0
C982 C 0.86539 0.30542 0.8774 0.0
C983 C 0.85563 0.28588 0.84704 0.0
C984 C 0.77453 0.30773 0.91107 0.0
C985 C 0.90383 0.31958 0.88588 0.0
C986 C 0.87591 0.4017 0.94707 0.0
C987 C 0.88939 0.38762 0.97601 0.0
C988 C 0.85593 0.37789 0.92273 0.0
C989 C 0.8494 0.33931 0.92762 0.0
C990 C 0.85888 0.32568 0.95873 0.0
C991 C 0.87857 0.3501 0.9827 0.0
C992 C 0.84566 0.39383 0.89024 0.0
C993 C 0.85212 0.28488 0.96521 0.0
H994 H 0.76705 0.2694 0.85213 0.0
H995 H 0.87549 0.28215 0.82969 0.0
H996 H 0.78053 0.3039 0.93794 0.0
H997 H 0.77246 0.33712 0.90818 0.0
H998 H 0.74872 0.29037 0.90366 0.0
H999 H 0.92095 0.30784 0.86869 0.0
H1000 H 0.9096 0.35007 0.88425 0.0
H1001 H 0.91064 0.31273 0.91189 0.0
H1002 H 0.88379 0.43068 0.94178 0.0
H1003 H 0.88827 0.33911 0.00541 0.0
H1004 H 0.82105 0.37745 0.87877 0.0
H1005 H 0.86668 0.39347 0.87237 0.0
H1006 H 0.84234 0.42291 0.89395 0.0
H1007 H 0.82562 0.27141 0.95543 0.0
H1008 H 0.85465 0.27946 0.99232 0.0
H1009 H 0.87149 0.27181 0.95206 0.0
C1010 C 0.74339 0.84417 0.88847 0.0
C1011 C 0.76127 0.85345 0.85933 0.0
C1012 C 0.72828 0.87024 0.90584 0.0
C1013 C 0.73055 0.90615 0.89322 0.0
C1014 C 0.75211 0.91678 0.86609 0.0
C1015 C 0.76738 0.89018 0.84946 0.0
C1016 C 0.70625 0.8579 0.93514 0.0
C1017 C 0.75552 0.95479 0.85198 0.0
C1018 C 0.64515 0.94059 0.90106 0.0
C1019 C 0.65248 0.96464 0.92907 0.0
C1020 C 0.67101 0.92304 0.88812 0.0
C1021 C 0.70501 0.9292 0.90391 0.0
C1022 C 0.7131 0.95478 0.93124 0.0
C1023 C 0.68675 0.9724 0.9434 0.0
C1024 C 0.66139 0.89657 0.85841 0.0
C1025 C 0.74891 0.96203 0.9488 0.0
H1026 H 0.73825 0.81558 0.89575 0.0
H1027 H 0.78062 0.89716 0.82649 0.0
H1028 H 0.71052 0.87947 0.9554 0.0
H1029 H 0.6781 0.85315 0.92693 0.0
H1030 H 0.71213 0.83186 0.94542 0.0
H1031 H 0.77866 0.96126 0.83628 0.0
H1032 H 0.73171 0.95621 0.83613 0.0
H1033 H 0.75771 0.97622 0.87222 0.0
H1034 H 0.61885 0.93478 0.88965 0.0
H1035 H 0.6926 0.99084 0.96518 0.0
H1036 H 0.66218 0.86804 0.8662 0.0
H1037 H 0.68059 0.90332 0.83869 0.0
H1038 H 0.63478 0.89716 0.8474 0.0
H1039 H 0.75207 0.93791 0.96393 0.0
H1040 H 0.75278 0.98686 0.96573 0.0
H1041 H 0.7698 0.9657 0.93045 0.0
C1042 C 0.82128 0.71357 0.15122 0.0
C1043 C 0.78536 0.71455 0.14988 0.0
C1044 C 0.83527 0.69089 0.12901 0.0
C1045 C 0.81296 0.66925 0.10431 0.0
C1046 C 0.77699 0.67155 0.10165 0.0
C1047 C 0.76353 0.6939 0.12472 0.0
C1048 C 0.87366 0.68869 0.1331 0.0
C1049 C 0.75236 0.64945 0.07537 0.0
C1050 C 0.86329 0.63266 0.03619 0.0
C1051 C 0.86398 0.59686 0.04687 0.0
C1052 C 0.84463 0.65574 0.05335 0.0
C1053 C 0.82739 0.64311 0.08252 0.0
C1054 C 0.82703 0.60649 0.0927 0.0
C1055 C 0.84489 0.58355 0.07436 0.0
C1056 C 0.84437 0.69406 0.04097 0.0
C1057 C 0.80915 0.59208 0.12379 0.0
H1058 H 0.8383 0.72917 0.17072 0.0
H1059 H 0.73573 0.69453 0.12348 0.0
H1060 H 0.8764 0.66005 0.13896 0.0
H1061 H 0.88687 0.69564 0.10943 0.0
H1062 H 0.88751 0.7076 0.15336 0.0
H1063 H 0.72796 0.66078 0.07152 0.0
H1064 H 0.76506 0.64881 0.05109 0.0
H1065 H 0.7449 0.62061 0.08345 0.0
H1066 H 0.87771 0.64274 0.01461 0.0
H1067 H 0.84549 0.55586 0.0826 0.0
H1068 H 0.86022 0.71479 0.05863 0.0
H1069 H 0.81724 0.69962 0.03988 0.0
H1070 H 0.85523 0.69799 0.01578 0.0
H1071 H 0.81982 0.61011 0.14579 0.0
H1072 H 0.8124 0.5634 0.12895 0.0
H1073 H 0.78078 0.59256 0.12093 0.0
C1074 C 0.38555 0.86918 0.18049 0.0
C1075 C 0.37728 0.8316 0.17143 0.0
C1076 C 0.4083 0.89371 0.16167 0.0
C1077 C 0.42353 0.88002 0.13364 0.0
C1078 C 0.41836 0.84158 0.12678 0.0
C1079 C 0.39479 0.81777 0.1455 0.0
C1080 C 0.4128 0.93458 0.16959 0.0
C1081 C 0.43501 0.82587 0.09774 0.0
C1082 C 0.42542 0.94121 0.0596 0.0
C1083 C 0.46024 0.95998 0.06115 0.0
C1084 C 0.41365 0.91434 0.08251 0.0
C1085 C 0.43737 0.90588 0.10762 0.0
C1086 C 0.473 0.92356 0.1086 0.0
C1087 C 0.48416 0.95048 0.08508 0.0
C1088 C 0.3754 0.89601 0.08046 0.0
C1089 C 0.49886 0.9148 0.13499 0.0
H1090 H 0.37229 0.87988 0.20076 0.0
H1091 H 0.38907 0.78851 0.139 0.0
H1092 H 0.44041 0.94846 0.16734 0.0
H1093 H 0.39647 0.9471 0.15138 0.0
H1094 H 0.40462 0.94022 0.19517 0.0
H1095 H 0.43618 0.79629 0.10108 0.0
H1096 H 0.41921 0.82807 0.07439 0.0
H1097 H 0.46189 0.84141 0.09451 0.0
H1098 H 0.40703 0.94795 0.04065 0.0
H1099 H 0.51114 0.96494 0.08616 0.0
H1100 H 0.36284 0.90189 0.10387 0.0
H1101 H 0.37294 0.86565 0.07774 0.0
H1102 H 0.36063 0.90561 0.05907 0.0
H1103 H 0.49063 0.92155 0.16022 0.0
H1104 H 0.5258 0.93038 0.13188 0.0
H1105 H 0.49928 0.88483 0.13411 0.0
C1106 C 0.74568 0.16938 0.16499 0.0
C1107 C 0.73617 0.15344 0.19551 0.0
C1108 C 0.72596 0.15701 0.1354 0.0
C1109 C 0.69652 0.12815 0.13676 0.0
C1110 C 0.69069 0.10819 0.16641 0.0
C1111 C 0.71064 0.1212 0.19559 0.0
C1112 C 0.73386 0.17787 0.10379 0.0
C1113 C 0.66034 0.07635 0.16859 0.0
C1114 C 0.61248 0.1411 0.09137 0.0
C1115 C 0.60847 0.11388 0.06583 0.0
C1116 C 0.64148 0.14638 0.11411 0.0
C1117 C 0.66773 0.12465 0.11068 0.0
C1118 C 0.66482 0.09844 0.08399 0.0
C1119 C 0.63501 0.09305 0.06219 0.0
C1120 C 0.64314 0.17406 0.14281 0.0
C1121 C 0.69214 0.07475 0.07918 0.0
H1122 H 0.76562 0.19417 0.16479 0.0
H1123 H 0.7037 0.10851 0.21918 0.0
H1124 H 0.72989 0.15874 0.0816 0.0
H1125 H 0.71566 0.19759 0.10058 0.0
H1126 H 0.76114 0.19373 0.10469 0.0
H1127 H 0.66275 0.0603 0.19147 0.0
H1128 H 0.63552 0.08714 0.16915 0.0
H1129 H 0.65849 0.05748 0.14638 0.0
H1130 H 0.59211 0.15719 0.09464 0.0
H1131 H 0.6325 0.07202 0.04273 0.0
H1132 H 0.66776 0.19476 0.14249 0.0
H1133 H 0.64331 0.1599 0.16697 0.0
H1134 H 0.62056 0.18866 0.14191 0.0
H1135 H 0.71883 0.08978 0.0868 0.0
H1136 H 0.69204 0.065 0.0527 0.0
H1137 H 0.6862 0.05007 0.09477 0.0
C1138 C 0.62417 0.69247 0.82744 0.0
C1139 C 0.64494 0.67687 0.8053 0.0
C1140 C 0.6044 0.67088 0.85081 0.0
C1141 C 0.60528 0.63279 0.85189 0.0
C1142 C 0.62266 0.61617 0.82698 0.0
C1143 C 0.64243 0.63845 0.80398 0.0
C1144 C 0.58577 0.68961 0.87657 0.0
C1145 C 0.62332 0.57538 0.82672 0.0
C1146 C 0.61336 0.58903 0.93552 0.0
C1147 C 0.58034 0.56657 0.9376 0.0
C1148 C 0.62101 0.61203 0.90848 0.0
C1149 C 0.59509 0.61232 0.8826 0.0
C1150 C 0.56093 0.59147 0.88555 0.0
C1151 C 0.55389 0.56884 0.91321 0.0
C1152 C 0.65751 0.63468 0.9069 0.0
C1153 C 0.53246 0.59116 0.85868 0.0
H1154 H 0.62524 0.72206 0.82822 0.0
H1155 H 0.65785 0.62601 0.78662 0.0
H1156 H 0.56011 0.67244 0.8818 0.0
H1157 H 0.60192 0.69353 0.90035 0.0
H1158 H 0.58148 0.7171 0.86842 0.0
H1159 H 0.63246 0.56572 0.80274 0.0
H1160 H 0.64136 0.56955 0.8473 0.0
H1161 H 0.5969 0.55924 0.83097 0.0
H1162 H 0.6337 0.58772 0.95459 0.0
H1163 H 0.52831 0.55141 0.91471 0.0
H1164 H 0.6562 0.66397 0.90239 0.0
H1165 H 0.67101 0.62438 0.88576 0.0
H1166 H 0.67367 0.63345 0.93026 0.0
H1167 H 0.50602 0.58103 0.86813 0.0
H1168 H 0.5366 0.57254 0.83768 0.0
H1169 H 0.53316 0.61903 0.84857 0.0
C1170 C 0.33957 0.65938 0.87777 0.0
C1171 C 0.34732 0.6774 0.84781 0.0
C1172 C 0.36399 0.64149 0.89414 0.0
C1173 C 0.39727 0.64239 0.88065 0.0
C1174 C 0.40538 0.66075 0.85055 0.0
C1175 C 0.38016 0.67776 0.83428 0.0
C1176 C 0.35402 0.62119 0.92571 0.0
C1177 C 0.44052 0.66201 0.83542 0.0
C1178 C 0.46259 0.62079 0.9463 0.0
C1179 C 0.45903 0.58251 0.94134 0.0
C1180 C 0.44477 0.64144 0.92488 0.0
C1181 C 0.42302 0.62328 0.89801 0.0
C1182 C 0.42261 0.58548 0.89075 0.0
C1183 C 0.44067 0.56556 0.91257 0.0
C1184 C 0.44699 0.68205 0.93264 0.0
C1185 C 0.40096 0.56485 0.86176 0.0
H1186 H 0.31417 0.65882 0.88818 0.0
H1187 H 0.38639 0.69186 0.81121 0.0
H1188 H 0.35598 0.59171 0.9223 0.0
H1189 H 0.37246 0.63289 0.94678 0.0
H1190 H 0.32695 0.62276 0.9327 0.0
H1191 H 0.44329 0.67872 0.8126 0.0
H1192 H 0.46193 0.67376 0.85394 0.0
H1193 H 0.444 0.63358 0.82878 0.0
H1194 H 0.47719 0.63424 0.96824 0.0
H1195 H 0.43897 0.53624 0.90798 0.0
H1196 H 0.42223 0.68647 0.94353 0.0
H1197 H 0.45025 0.69804 0.90946 0.0
H1198 H 0.46906 0.69313 0.95075 0.0
H1199 H 0.37655 0.54864 0.87125 0.0
H1200 H 0.41554 0.54517 0.84992 0.0
H1201 H 0.39367 0.58324 0.84222 0.0
C1202 C 0.34762 0.37639 0.79679 0.0
C1203 C 0.31223 0.3679 0.80445 0.0
C1204 C 0.37358 0.38883 0.82193 0.0
C1205 C 0.36382 0.3918 0.85541 0.0
C1206 C 0.32806 0.38645 0.86276 0.0
C1207 C 0.30262 0.37521 0.83705 0.0
C1208 C 0.41154 0.39689 0.81303 0.0
C1209 C 0.31675 0.39018 0.89813 0.0
C1210 C 0.4324 0.3745 0.92003 0.0
C1211 C 0.44636 0.41043 0.93184 0.0
C1212 C 0.40446 0.36795 0.89603 0.0
C1213 C 0.39099 0.39819 0.88299 0.0
C1214 C 0.4041 0.4343 0.89577 0.0
C1215 C 0.43155 0.43995 0.92013 0.0
C1216 C 0.38999 0.32876 0.88406 0.0
C1217 C 0.39096 0.4676 0.88278 0.0
H1218 H 0.35521 0.37138 0.77159 0.0
H1219 H 0.27531 0.36921 0.84325 0.0
H1220 H 0.42476 0.42382 0.82445 0.0
H1221 H 0.42518 0.37535 0.82323 0.0
H1222 H 0.41447 0.39756 0.78555 0.0
H1223 H 0.32671 0.36967 0.91397 0.0
H1224 H 0.32818 0.41799 0.90886 0.0
H1225 H 0.2878 0.38586 0.89954 0.0
H1226 H 0.44364 0.35158 0.92916 0.0
H1227 H 0.44251 0.4679 0.92872 0.0
H1228 H 0.39851 0.32435 0.85841 0.0
H1229 H 0.36091 0.32341 0.88302 0.0
H1230 H 0.39914 0.30831 0.90055 0.0
H1231 H 0.41024 0.48185 0.86549 0.0
H1232 H 0.38895 0.48718 0.90376 0.0
H1233 H 0.3651 0.46081 0.86913 0.0
C1234 C 0.75142 0.38873 0.79842 0.0
C1235 C 0.72921 0.37266 0.77133 0.0
C1236 C 0.73794 0.40363 0.82651 0.0
C1237 C 0.70149 0.40291 0.82733 0.0
C1238 C 0.67972 0.3912 0.79838 0.0
C1239 C 0.69381 0.37605 0.77073 0.0
C1240 C 0.76227 0.4163 0.85655 0.0
C1241 C 0.64091 0.39145 0.79773 0.0
C1242 C 0.65494 0.38241 0.90814 0.0
C1243 C 0.65009 0.41746 0.91865 0.0
C1244 C 0.67306 0.37769 0.87924 0.0
C1245 C 0.6854 0.40863 0.85969 0.0
C1246 C 0.68115 0.44425 0.87059 0.0
C1247 C 0.66397 0.4483 0.90028 0.0
C1248 C 0.67816 0.33937 0.86916 0.0
C1249 C 0.69314 0.47775 0.8501 0.0
H1250 H 0.77894 0.38681 0.79912 0.0
H1251 H 0.67645 0.3643 0.74978 0.0
H1252 H 0.75505 0.44034 0.86975 0.0
H1253 H 0.7604 0.39354 0.87444 0.0
H1254 H 0.7899 0.42388 0.84934 0.0
H1255 H 0.62905 0.38816 0.77185 0.0
H1256 H 0.62762 0.36835 0.81258 0.0
H1257 H 0.6358 0.4175 0.80916 0.0
H1258 H 0.64412 0.35861 0.92234 0.0
H1259 H 0.65963 0.47536 0.90811 0.0
H1260 H 0.70622 0.3395 0.86487 0.0
H1261 H 0.66309 0.33027 0.84536 0.0
H1262 H 0.66943 0.31883 0.88841 0.0
H1263 H 0.72086 0.47949 0.84365 0.0
H1264 H 0.6905 0.5038 0.86337 0.0
H1265 H 0.67722 0.47534 0.82622 0.0
C1266 C 0.64959 0.27626 0.18753 0.0
C1267 C 0.65742 0.29517 0.21846 0.0
C1268 C 0.63267 0.29155 0.16129 0.0
C1269 C 0.62185 0.32572 0.16671 0.0
C1270 C 0.62669 0.34316 0.19886 0.0
C1271 C 0.64516 0.32806 0.22426 0.0
C1272 C 0.62816 0.27185 0.1274 0.0
C1273 C 0.61423 0.37889 0.20584 0.0
C1274 C 0.62898 0.38676 0.09204 0.0
C1275 C 0.59478 0.37908 0.07789 0.0
C1276 C 0.63777 0.37016 0.1214 0.0
C1277 C 0.61143 0.34602 0.13758 0.0
C1278 C 0.57649 0.33908 0.12408 0.0
C1279 C 0.56863 0.35532 0.09395 0.0
C1280 C 0.67563 0.37727 0.13425 0.0
C1281 C 0.54764 0.31425 0.14117 0.0
H1282 H 0.65881 0.25066 0.18304 0.0
H1283 H 0.65071 0.3424 0.24836 0.0
H1284 H 0.60113 0.25565 0.12428 0.0
H1285 H 0.63219 0.29138 0.10663 0.0
H1286 H 0.64677 0.25258 0.12485 0.0
H1287 H 0.61408 0.38517 0.2331 0.0
H1288 H 0.63181 0.40195 0.19433 0.0
H1289 H 0.58744 0.37775 0.1946 0.0
H1290 H 0.64924 0.4051 0.07959 0.0
H1291 H 0.54205 0.34983 0.08322 0.0
H1292 H 0.68552 0.3509 0.1347 0.0
H1293 H 0.67788 0.38878 0.16023 0.0
H1294 H 0.69282 0.3968 0.11861 0.0
H1295 H 0.52132 0.31523 0.12967 0.0
H1296 H 0.54804 0.32229 0.16809 0.0
H1297 H 0.55194 0.28538 0.13959 0.0
C1298 C 0.69965 0.61461 0.21664 0.0
C1299 C 0.67356 0.63077 0.23092 0.0
C1300 C 0.69126 0.58904 0.1897 0.0
C1301 C 0.656 0.57926 0.17753 0.0
C1302 C 0.62918 0.59117 0.19549 0.0
C1303 C 0.63838 0.61737 0.22171 0.0
C1304 C 0.72058 0.57678 0.17159 0.0
C1305 C 0.59105 0.58033 0.18415 0.0
C1306 C 0.62565 0.57974 0.08765 0.0
C1307 C 0.60886 0.54304 0.08248 0.0
C1308 C 0.64548 0.59106 0.11726 0.0
C1309 C 0.64752 0.56509 0.14256 0.0
C1310 C 0.63447 0.52716 0.13554 0.0
C1311 C 0.61537 0.51646 0.10525 0.0
C1312 C 0.66049 0.63162 0.12299 0.0
C1313 C 0.63698 0.49837 0.16127 0.0
H1314 H 0.72697 0.62535 0.22359 0.0
H1315 H 0.61832 0.63003 0.23277 0.0
H1316 H 0.71245 0.54835 0.16085 0.0
H1317 H 0.72781 0.59552 0.15068 0.0
H1318 H 0.74424 0.57794 0.18842 0.0
H1319 H 0.57341 0.58687 0.20365 0.0
H1320 H 0.58603 0.59556 0.16137 0.0
H1321 H 0.58431 0.5504 0.17768 0.0
H1322 H 0.6209 0.60012 0.06975 0.0
H1323 H 0.60242 0.48794 0.10116 0.0
H1324 H 0.68741 0.63558 0.1345 0.0
H1325 H 0.64405 0.64392 0.14044 0.0
H1326 H 0.66134 0.64693 0.09935 0.0
H1327 H 0.66123 0.50578 0.17748 0.0
H1328 H 0.63631 0.47083 0.14915 0.0
H1329 H 0.61423 0.49615 0.17747 0.0
C1330 C 0.36034 0.64565 0.19329 0.0
C1331 C 0.32594 0.63775 0.20372 0.0
C1332 C 0.37438 0.61943 0.17524 0.0
C1333 C 0.35329 0.58446 0.16732 0.0
C1334 C 0.3198 0.57501 0.18088 0.0
C1335 C 0.30637 0.60199 0.19901 0.0
C1336 C 0.41046 0.63062 0.16181 0.0
C1337 C 0.29693 0.53772 0.17377 0.0
C1338 C 0.37642 0.55453 0.08191 0.0
C1339 C 0.40267 0.53475 0.09045 0.0
C1340 C 0.3573 0.56791 0.10684 0.0
C1341 C 0.36469 0.56097 0.14089 0.0
C1342 C 0.38864 0.53758 0.14907 0.0
C1343 C 0.40785 0.52519 0.12369 0.0
C1344 C 0.33184 0.5926 0.09698 0.0
C1345 C 0.39637 0.52839 0.18482 0.0
H1346 H 0.37538 0.6734 0.19707 0.0
H1347 H 0.2796 0.59606 0.20689 0.0
H1348 H 0.4266 0.6094 0.16712 0.0
H1349 H 0.40816 0.63298 0.13424 0.0
H1350 H 0.4245 0.65751 0.17274 0.0
H1351 H 0.27662 0.53134 0.1926 0.0
H1352 H 0.28341 0.53757 0.14879 0.0
H1353 H 0.31274 0.51556 0.17343 0.0
H1354 H 0.37267 0.56182 0.05608 0.0
H1355 H 0.42817 0.50959 0.13004 0.0
H1356 H 0.34322 0.62155 0.10474 0.0
H1357 H 0.30697 0.58468 0.10988 0.0
H1358 H 0.32586 0.5915 0.06956 0.0
H1359 H 0.41533 0.55158 0.19697 0.0
H1360 H 0.40804 0.50311 0.18619 0.0
H1361 H 0.37226 0.52437 0.19925 0.0
C1362 C 0.36858 0.36412 0.19288 0.0
C1363 C 0.36539 0.33086 0.20963 0.0
C1364 C 0.39517 0.37419 0.17038 0.0
C1365 C 0.41844 0.34975 0.1636 0.0
C1366 C 0.41669 0.31717 0.18203 0.0
C1367 C 0.39032 0.30828 0.20516 0.0
C1368 C 0.39669 0.40981 0.15206 0.0
C1369 C 0.44071 0.29026 0.17546 0.0
C1370 C 0.43994 0.36124 0.07337 0.0
C1371 C 0.47082 0.38775 0.07617 0.0
C1372 C 0.42471 0.34494 0.10182 0.0
C1373 C 0.44042 0.35613 0.13386 0.0
C1374 C 0.47393 0.37928 0.13641 0.0
C1375 C 0.48889 0.39479 0.10735 0.0
C1376 C 0.38971 0.31909 0.09771 0.0
C1377 C 0.49222 0.39109 0.16989 0.0
H1378 H 0.34937 0.3816 0.19642 0.0
H1379 H 0.38764 0.2823 0.21784 0.0
H1380 H 0.42397 0.42551 0.15258 0.0
H1381 H 0.38799 0.40355 0.12546 0.0
H1382 H 0.37969 0.42766 0.16303 0.0
H1383 H 0.44089 0.27052 0.19601 0.0
H1384 H 0.43167 0.27423 0.15194 0.0
H1385 H 0.46791 0.30493 0.17222 0.0
H1386 H 0.42614 0.35556 0.04917 0.0
H1387 H 0.51284 0.41529 0.10956 0.0
H1388 H 0.36861 0.33403 0.10468 0.0
H1389 H 0.38877 0.29538 0.11444 0.0
H1390 H 0.38408 0.30835 0.07153 0.0
H1391 H 0.48214 0.41517 0.18 0.0
H1392 H 0.52098 0.39943 0.16757 0.0
H1393 H 0.4872 0.36876 0.18816 0.0
C1394 C 0.78075 0.66152 0.65493 0.0
C1395 C 0.77256 0.69673 0.65089 0.0
C1396 C 0.80385 0.64816 0.63387 0.0
C1397 C 0.81854 0.67017 0.60764 0.0
C1398 C 0.80795 0.70424 0.60154 0.0
C1399 C 0.78519 0.71722 0.62333 0.0
C1400 C 0.81471 0.61183 0.64145 0.0
C1401 C 0.82233 0.72801 0.57323 0.0
C1402 C 0.90958 0.65897 0.58343 0.0
C1403 C 0.90203 0.63466 0.55558 0.0
C1404 C 0.88263 0.67104 0.60035 0.0
C1405 C 0.8473 0.65905 0.58875 0.0
C1406 C 0.83959 0.63535 0.56009 0.0
C1407 C 0.867 0.62314 0.54406 0.0
C1408 C 0.89193 0.69606 0.63106 0.0
C1409 C 0.80236 0.62267 0.54654 0.0
H1410 H 0.77122 0.6454 0.67609 0.0
H1411 H 0.77886 0.74434 0.61982 0.0
H1412 H 0.81244 0.59401 0.6185 0.0
H1413 H 0.84261 0.61696 0.65051 0.0
H1414 H 0.79869 0.5966 0.66082 0.0
H1415 H 0.80945 0.75231 0.57023 0.0
H1416 H 0.85087 0.73799 0.57794 0.0
H1417 H 0.81885 0.71157 0.54938 0.0
H1418 H 0.93655 0.66796 0.59249 0.0
H1419 H 0.86097 0.60474 0.52227 0.0
H1420 H 0.87931 0.68247 0.65306 0.0
H1421 H 0.88185 0.72204 0.62767 0.0
H1422 H 0.92067 0.70311 0.63664 0.0
H1423 H 0.78694 0.60558 0.56515 0.0
H1424 H 0.80098 0.60621 0.52278 0.0
H1425 H 0.78968 0.64683 0.54209 0.0
C1426 C 0.36892 0.87077 0.74748 0.0
C1427 C 0.36512 0.83254 0.74198 0.0
C1428 C 0.38948 0.89526 0.72686 0.0
C1429 C 0.40595 0.88089 0.70006 0.0
C1430 C 0.40691 0.84274 0.69805 0.0
C1431 C 0.38638 0.81885 0.71921 0.0
C1432 C 0.38902 0.93595 0.73071 0.0
C1433 C 0.42491 0.82639 0.6703 0.0
C1434 C 0.38758 0.91973 0.61641 0.0
C1435 C 0.42054 0.93934 0.6089 0.0
C1436 C 0.3827 0.90107 0.64623 0.0
C1437 C 0.41149 0.9025 0.66945 0.0
C1438 C 0.4447 0.92325 0.66262 0.0
C1439 C 0.44894 0.94128 0.63211 0.0
C1440 C 0.34671 0.87916 0.65243 0.0
C1441 C 0.47559 0.92615 0.68732 0.0
H1442 H 0.35358 0.88157 0.76602 0.0
H1443 H 0.38435 0.78931 0.71549 0.0
H1444 H 0.41387 0.95292 0.723 0.0
H1445 H 0.36734 0.94271 0.71451 0.0
H1446 H 0.38455 0.94364 0.75695 0.0
H1447 H 0.43091 0.79907 0.67698 0.0
H1448 H 0.40733 0.82253 0.64742 0.0
H1449 H 0.44957 0.8449 0.66425 0.0
H1450 H 0.36563 0.91803 0.59845 0.0
H1451 H 0.47433 0.95701 0.62649 0.0
H1452 H 0.33675 0.88951 0.67567 0.0
H1453 H 0.34817 0.84969 0.65577 0.0
H1454 H 0.32735 0.8808 0.63156 0.0
H1455 H 0.46858 0.93538 0.71228 0.0
H1456 H 0.49887 0.9457 0.67933 0.0
H1457 H 0.4828 0.89865 0.69032 0.0
C1458 C 0.16708 0.33436 0.65221 0.0
C1459 C 0.15928 0.33302 0.68601 0.0
C1460 C 0.15338 0.35828 0.63088 0.0
C1461 C 0.13028 0.38029 0.64346 0.0
C1462 C 0.12165 0.37836 0.67746 0.0
C1463 C 0.13688 0.35521 0.69858 0.0
C1464 C 0.16375 0.36012 0.5949 0.0
C1465 C 0.09615 0.40043 0.69137 0.0
C1466 C 0.12016 0.46272 0.59168 0.0
C1467 C 0.09154 0.44764 0.56999 0.0
C1468 C 0.13222 0.4416 0.61679 0.0
C1469 C 0.1149 0.40475 0.62058 0.0
C1470 C 0.08478 0.39011 0.60013 0.0
C1471 C 0.07353 0.41171 0.57501 0.0
C1472 C 0.16489 0.45793 0.63766 0.0
C1473 C 0.06527 0.35111 0.60393 0.0
H1474 H 0.18476 0.31744 0.64269 0.0
H1475 H 0.13084 0.35395 0.72478 0.0
H1476 H 0.14029 0.35101 0.57794 0.0
H1477 H 0.17493 0.38901 0.58888 0.0
H1478 H 0.18332 0.34254 0.58955 0.0
H1479 H 0.09194 0.39549 0.71831 0.0
H1480 H 0.10584 0.43033 0.68828 0.0
H1481 H 0.07052 0.39314 0.67724 0.0
H1482 H 0.13429 0.49047 0.58806 0.0
H1483 H 0.0515 0.39981 0.55838 0.0
H1484 H 0.18654 0.4437 0.63094 0.0
H1485 H 0.16063 0.45366 0.66462 0.0
H1486 H 0.17329 0.48795 0.63379 0.0
H1487 H 0.08343 0.33124 0.60278 0.0
H1488 H 0.04411 0.34282 0.58428 0.0
H1489 H 0.05358 0.34869 0.6288 0.0
C1490 C 0.64905 0.21836 0.61796 0.0
C1491 C 0.68539 0.22258 0.61519 0.0
C1492 C 0.62604 0.19145 0.59858 0.0
C1493 C 0.63974 0.16834 0.57588 0.0
C1494 C 0.6761 0.17453 0.57091 0.0
C1495 C 0.69849 0.20171 0.59052 0.0
C1496 C 0.58721 0.18625 0.60394 0.0
C1497 C 0.69171 0.15074 0.54676 0.0
C1498 C 0.57932 0.07566 0.56218 0.0
C1499 C 0.55964 0.08248 0.53375 0.0
C1500 C 0.60748 0.10256 0.57497 0.0
C1501 C 0.61587 0.1367 0.55876 0.0
C1502 C 0.59831 0.14197 0.52817 0.0
C1503 C 0.57046 0.11469 0.51596 0.0
C1504 C 0.62628 0.09568 0.6073 0.0
C1505 C 0.60694 0.17763 0.50981 0.0
H1506 H 0.63863 0.23437 0.63679 0.0
H1507 H 0.72654 0.20489 0.58793 0.0
H1508 H 0.57239 0.18633 0.57966 0.0
H1509 H 0.57823 0.15907 0.61515 0.0
H1510 H 0.58059 0.2081 0.62072 0.0
H1511 H 0.71913 0.16319 0.54141 0.0
H1512 H 0.69174 0.12338 0.55773 0.0
H1513 H 0.67592 0.14603 0.52282 0.0
H1514 H 0.57105 0.05074 0.57587 0.0
H1515 H 0.55559 0.11967 0.49354 0.0
H1516 H 0.61879 0.11316 0.62768 0.0
H1517 H 0.65506 0.10341 0.60523 0.0
H1518 H 0.61974 0.06635 0.61444 0.0
H1519 H 0.60008 0.2005 0.5251 0.0
H1520 H 0.59251 0.17631 0.48515 0.0
H1521 H 0.63545 0.18455 0.50588 0.0
C1522 C 0.78733 0.38799 0.36984 0.0
C1523 C 0.7823 0.35167 0.38113 0.0
C1524 C 0.81357 0.41551 0.38467 0.0
C1525 C 0.83484 0.40648 0.41157 0.0
C1526 C 0.82628 0.37157 0.42623 0.0
C1527 C 0.80008 0.34442 0.41074 0.0
C1528 C 0.82126 0.45275 0.36886 0.0
C1529 C 0.84752 0.36141 0.45583 0.0
C1530 C 0.93254 0.44107 0.41041 0.0
C1531 C 0.93821 0.46812 0.4361 0.0
C1532 C 0.89878 0.42191 0.4015 0.0
C1533 C 0.86993 0.4296 0.41911 0.0
C1534 C 0.87526 0.45787 0.44427 0.0
C1535 C 0.90945 0.47695 0.45239 0.0
C1536 C 0.89424 0.39248 0.37395 0.0
C1537 C 0.84535 0.46671 0.46386 0.0
H1538 H 0.7731 0.39423 0.34747 0.0
H1539 H 0.79583 0.31671 0.42019 0.0
H1540 H 0.82825 0.4752 0.3882 0.0
H1541 H 0.84398 0.45381 0.35275 0.0
H1542 H 0.79858 0.458 0.3531 0.0
H1543 H 0.83374 0.33641 0.46802 0.0
H1544 H 0.87289 0.35577 0.4473 0.0
H1545 H 0.85337 0.38449 0.47465 0.0
H1546 H 0.95473 0.43434 0.39765 0.0
H1547 H 0.91362 0.49732 0.47261 0.0
H1548 H 0.87454 0.39765 0.35464 0.0
H1549 H 0.88443 0.36506 0.38438 0.0
H1550 H 0.91912 0.39133 0.36162 0.0
H1551 H 0.8214 0.46572 0.44754 0.0
H1552 H 0.8522 0.49435 0.47656 0.0
H1553 H 0.83901 0.44583 0.4833 0.0
C1554 C 0.63357 0.79182 0.35162 0.0
C1555 C 0.66306 0.77567 0.35749 0.0
C1556 C 0.61767 0.80689 0.37794 0.0
C1557 C 0.63195 0.80624 0.41099 0.0
C1558 C 0.66043 0.78787 0.41736 0.0
C1559 C 0.67563 0.77255 0.3904 0.0
C1560 C 0.58691 0.82553 0.37003 0.0
C1561 C 0.67633 0.7866 0.45224 0.0
C1562 C 0.61334 0.88698 0.46277 0.0
C1563 C 0.5827 0.87086 0.47815 0.0
C1564 C 0.63131 0.8656 0.44275 0.0
C1565 C 0.61828 0.82725 0.43798 0.0
C1566 C 0.58895 0.81041 0.45543 0.0
C1567 C 0.57154 0.83238 0.47531 0.0
C1568 C 0.66282 0.88453 0.42485 0.0
C1569 C 0.57436 0.76962 0.45121 0.0
H1570 H 0.6239 0.79419 0.32609 0.0
H1571 H 0.69878 0.76051 0.39485 0.0
H1572 H 0.56494 0.81509 0.38619 0.0
H1573 H 0.59469 0.85567 0.37523 0.0
H1574 H 0.57731 0.82103 0.34346 0.0
H1575 H 0.69132 0.81434 0.45985 0.0
H1576 H 0.65562 0.77916 0.47046 0.0
H1577 H 0.6944 0.76655 0.45378 0.0
H1578 H 0.62242 0.91657 0.46503 0.0
H1579 H 0.54821 0.81943 0.48749 0.0
H1580 H 0.65584 0.88529 0.39774 0.0
H1581 H 0.68456 0.86893 0.42753 0.0
H1582 H 0.6723 0.91328 0.43444 0.0
H1583 H 0.561 0.76389 0.42609 0.0
H1584 H 0.55513 0.75982 0.47033 0.0
H1585 H 0.5957 0.7534 0.45276 0.0
C1586 C 0.13645 0.71647 0.28435 0.0
C1587 C 0.15547 0.69149 0.27042 0.0
C1588 C 0.11368 0.70578 0.31007 0.0
C1589 C 0.10978 0.6693 0.32141 0.0
C1590 C 0.12488 0.64279 0.30389 0.0
C1591 C 0.14799 0.65437 0.27875 0.0
C1592 C 0.09758 0.73472 0.32767 0.0
C1593 C 0.12032 0.60321 0.3145 0.0
C1594 C 0.11583 0.64693 0.41194 0.0
C1595 C 0.08252 0.62595 0.41595 0.0
C1596 C 0.12392 0.66474 0.38207 0.0
C1597 C 0.09811 0.66082 0.35551 0.0
C1598 C 0.06339 0.64301 0.36072 0.0
C1599 C 0.05591 0.62573 0.39112 0.0
C1600 C 0.16105 0.68475 0.37795 0.0
C1601 C 0.03498 0.63917 0.33333 0.0
H1602 H 0.14198 0.74524 0.2777 0.0
H1603 H 0.1622 0.63495 0.26743 0.0
H1604 H 0.07196 0.72266 0.33779 0.0
H1605 H 0.11537 0.74719 0.34894 0.0
H1606 H 0.09389 0.75717 0.31059 0.0
H1607 H 0.12871 0.58508 0.29511 0.0
H1608 H 0.13639 0.6018 0.33785 0.0
H1609 H 0.09258 0.59233 0.31973 0.0
H1610 H 0.13613 0.64783 0.43152 0.0
H1611 H 0.02996 0.60975 0.39433 0.0
H1612 H 0.16111 0.71204 0.36684 0.0
H1613 H 0.17438 0.66846 0.36071 0.0
H1614 H 0.17655 0.68902 0.40213 0.0
H1615 H 0.03787 0.66407 0.3179 0.0
H1616 H 0.00851 0.63425 0.34371 0.0
H1617 H 0.03684 0.61527 0.31663 0.0
C1618 C 0.31675 0.13617 0.29363 0.0
C1619 C 0.31641 0.16914 0.31173 0.0
C1620 C 0.33204 0.10808 0.30758 0.0
C1621 C 0.34642 0.11275 0.34072 0.0
C1622 C 0.34645 0.14616 0.359 0.0
C1623 C 0.33185 0.17422 0.34406 0.0
C1624 C 0.33243 0.07333 0.28705 0.0
C1625 C 0.36115 0.15195 0.39466 0.0
C1626 C 0.35368 0.03567 0.3992 0.0
C1627 C 0.39019 0.04042 0.40398 0.0
C1628 C 0.3386 0.05687 0.37613 0.0
C1629 C 0.36068 0.08263 0.35707 0.0
C1630 C 0.39724 0.08338 0.35832 0.0
C1631 C 0.41165 0.06232 0.38197 0.0
C1632 C 0.29941 0.05494 0.37538 0.0
C1633 C 0.42157 0.10935 0.3374 0.0
H1634 H 0.30514 0.1324 0.26839 0.0
H1635 H 0.33144 0.19962 0.35806 0.0
H1636 H 0.35933 0.06719 0.28724 0.0
H1637 H 0.31543 0.04957 0.29817 0.0
H1638 H 0.32307 0.07547 0.26069 0.0
H1639 H 0.35871 0.1793 0.40549 0.0
H1640 H 0.34723 0.13015 0.41051 0.0
H1641 H 0.38925 0.14973 0.39578 0.0
H1642 H 0.33693 0.01855 0.41596 0.0
H1643 H 0.43991 0.06552 0.38519 0.0
H1644 H 0.28866 0.0563 0.34946 0.0
H1645 H 0.29358 0.07893 0.38984 0.0
H1646 H 0.28564 0.02929 0.3866 0.0
H1647 H 0.4102 0.11025 0.31162 0.0
H1648 H 0.44766 0.10126 0.33613 0.0
H1649 H 0.42542 0.13766 0.34864 0.0
C1650 C 0.66274 0.84649 0.67488 0.0
C1651 C 0.66742 0.84322 0.70943 0.0
C1652 C 0.6377 0.86578 0.66171 0.0
C1653 C 0.61738 0.88284 0.68372 0.0
C1654 C 0.62289 0.88082 0.71869 0.0
C1655 C 0.64758 0.86059 0.73115 0.0
C1656 C 0.63249 0.86717 0.62416 0.0
C1657 C 0.60232 0.89922 0.74298 0.0
C1658 C 0.57683 0.95054 0.63427 0.0
C1659 C 0.54601 0.92745 0.6217 0.0
C1660 C 0.59885 0.93792 0.65817 0.0
C1661 C 0.5897 0.90147 0.66941 0.0
C1662 C 0.55619 0.88035 0.66066 0.0
C1663 C 0.53457 0.89373 0.63694 0.0
C1664 C 0.63368 0.96195 0.66824 0.0
C1665 C 0.54498 0.84173 0.67287 0.0
H1666 H 0.67798 0.83308 0.65805 0.0
H1667 H 0.65138 0.85845 0.75797 0.0
H1668 H 0.60507 0.85459 0.61636 0.0
H1669 H 0.63705 0.89626 0.61631 0.0
H1670 H 0.65038 0.85237 0.61061 0.0
H1671 H 0.61506 0.90217 0.76851 0.0
H1672 H 0.59919 0.92691 0.73449 0.0
H1673 H 0.57573 0.88231 0.74451 0.0
H1674 H 0.58538 0.97715 0.62333 0.0
H1675 H 0.51028 0.8761 0.62807 0.0
H1676 H 0.65448 0.9532 0.65353 0.0
H1677 H 0.64054 0.95904 0.69511 0.0
H1678 H 0.63361 0.9915 0.66347 0.0
H1679 H 0.55874 0.82269 0.65902 0.0
H1680 H 0.51628 0.83183 0.66885 0.0
H1681 H 0.55212 0.8403 0.69983 0.0
C1682 C 0.64871 0.16322 0.38644 0.0
C1683 C 0.64645 0.17614 0.35397 0.0
C1684 C 0.62075 0.13831 0.39882 0.0
C1685 C 0.59008 0.12616 0.3781 0.0
C1686 C 0.58668 0.14123 0.34634 0.0
C1687 C 0.61489 0.16614 0.33468 0.0
C1688 C 0.62509 0.12309 0.43315 0.0
C1689 C 0.55433 0.12915 0.32369 0.0
C1690 C 0.54908 0.02954 0.3994 0.0
C1691 C 0.52435 0.03653 0.42189 0.0
C1692 C 0.56864 0.05842 0.38231 0.0
C1693 C 0.56346 0.09493 0.38845 0.0
C1694 C 0.53581 0.10145 0.40823 0.0
C1695 C 0.5164 0.07195 0.42472 0.0
C1696 C 0.59727 0.05029 0.36053 0.0
C1697 C 0.52941 0.13996 0.41527 0.0
H1698 H 0.67288 0.17101 0.40151 0.0
H1699 H 0.61266 0.17656 0.30972 0.0
H1700 H 0.60077 0.12159 0.44698 0.0
H1701 H 0.63033 0.09462 0.43053 0.0
H1702 H 0.64715 0.14004 0.44825 0.0
H1703 H 0.55343 0.14775 0.30234 0.0
H1704 H 0.55415 0.10088 0.31352 0.0
H1705 H 0.53017 0.12813 0.33774 0.0
H1706 H 0.55529 0.0021 0.39749 0.0
H1707 H 0.49806 0.07761 0.44288 0.0
H1708 H 0.62314 0.05999 0.3737 0.0
H1709 H 0.59709 0.06522 0.33678 0.0
H1710 H 0.59456 0.02031 0.35457 0.0
H1711 H 0.54964 0.15417 0.43389 0.0
H1712 H 0.50322 0.13962 0.42552 0.0
H1713 H 0.53148 0.15638 0.39232 0.0
C1714 C 0.87076 0.72664 0.305 0.0
C1715 C 0.83759 0.72047 0.31887 0.0
C1716 C 0.89951 0.71535 0.32126 0.0
C1717 C 0.89501 0.69771 0.35217 0.0
C1718 C 0.86188 0.69231 0.36673 0.0
C1719 C 0.83355 0.70362 0.34984 0.0
C1720 C 0.9344 0.72143 0.30498 0.0
C1721 C 0.85615 0.67392 0.39993 0.0
C1722 C 0.94689 0.62906 0.38627 0.0
C1723 C 0.96525 0.64929 0.41357 0.0
C1724 C 0.92648 0.64562 0.36373 0.0
C1725 C 0.92417 0.68315 0.36897 0.0
C1726 C 0.94585 0.7047 0.39414 0.0
C1727 C 0.96646 0.68749 0.41609 0.0
C1728 C 0.90454 0.62191 0.33659 0.0
C1729 C 0.9444 0.7449 0.40031 0.0
H1730 H 0.87418 0.7397 0.28107 0.0
H1731 H 0.80816 0.69904 0.36086 0.0
H1732 H 0.95545 0.7357 0.32279 0.0
H1733 H 0.94117 0.69441 0.29803 0.0
H1734 H 0.93422 0.73796 0.28213 0.0
H1735 H 0.82922 0.67327 0.40849 0.0
H1736 H 0.8607 0.64514 0.39784 0.0
H1737 H 0.87517 0.68866 0.41934 0.0
H1738 H 0.94641 0.59962 0.38394 0.0
H1739 H 0.98071 0.70331 0.4371 0.0
H1740 H 0.90478 0.63679 0.3128 0.0
H1741 H 0.87696 0.61527 0.34408 0.0
H1742 H 0.91387 0.59559 0.3321 0.0
H1743 H 0.94328 0.75941 0.37643 0.0
H1744 H 0.96735 0.75928 0.41598 0.0
H1745 H 0.92027 0.74704 0.41352 0.0
C1746 C 0.28939 0.77103 0.36449 0.0
C1747 C 0.31659 0.76463 0.34451 0.0
C1748 C 0.29671 0.792 0.39453 0.0
C1749 C 0.33203 0.80604 0.40483 0.0
C1750 C 0.35949 0.79658 0.38615 0.0
C1751 C 0.35139 0.77641 0.35593 0.0
C1752 C 0.26674 0.80188 0.41339 0.0
C1753 C 0.39756 0.8102 0.39666 0.0
C1754 C 0.36862 0.89702 0.44852 0.0
C1755 C 0.38164 0.88476 0.4785 0.0
C1756 C 0.34847 0.87185 0.42537 0.0
C1757 C 0.34104 0.83384 0.43275 0.0
C1758 C 0.34955 0.82248 0.46505 0.0
C1759 C 0.36978 0.84818 0.48765 0.0
C1760 C 0.33953 0.88536 0.39138 0.0
C1761 C 0.3415 0.78245 0.47425 0.0
H1762 H 0.26242 0.76257 0.35519 0.0
H1763 H 0.37229 0.7717 0.34019 0.0
H1764 H 0.27155 0.80019 0.44077 0.0
H1765 H 0.26441 0.83078 0.40821 0.0
H1766 H 0.24141 0.78368 0.4058 0.0
H1767 H 0.41547 0.79731 0.38128 0.0
H1768 H 0.40416 0.84056 0.39408 0.0
H1769 H 0.40247 0.80427 0.42331 0.0
H1770 H 0.37739 0.92531 0.44139 0.0
H1771 H 0.3792 0.83875 0.5112 0.0
H1772 H 0.31457 0.86916 0.38047 0.0
H1773 H 0.36057 0.88215 0.37425 0.0
H1774 H 0.33759 0.91503 0.39268 0.0
H1775 H 0.31544 0.76866 0.46362 0.0
H1776 H 0.34217 0.77941 0.50182 0.0
H1777 H 0.36143 0.76792 0.46382 0.0
C1778 C 0.2483 0.34517 0.38784 0.0
C1779 C 0.26484 0.35397 0.35791 0.0
C1780 C 0.23305 0.3712 0.40513 0.0
C1781 C 0.23384 0.40653 0.39166 0.0
C1782 C 0.25424 0.41687 0.3637 0.0
C1783 C 0.26968 0.39035 0.34716 0.0
C1784 C 0.21233 0.35924 0.43535 0.0
C1785 C 0.25606 0.45427 0.34863 0.0
C1786 C 0.14756 0.43903 0.40057 0.0
C1787 C 0.15528 0.46437 0.42763 0.0
C1788 C 0.17346 0.42152 0.38765 0.0
C1789 C 0.20791 0.42903 0.4025 0.0
C1790 C 0.21627 0.45573 0.42892 0.0
C1791 C 0.18988 0.47328 0.44106 0.0
C1792 C 0.16352 0.39381 0.35888 0.0
C1793 C 0.25255 0.46441 0.44549 0.0
H1794 H 0.2441 0.31683 0.39581 0.0
H1795 H 0.28187 0.39693 0.3236 0.0
H1796 H 0.21657 0.38149 0.45499 0.0
H1797 H 0.18396 0.35326 0.42796 0.0
H1798 H 0.21948 0.33397 0.44612 0.0
H1799 H 0.27854 0.46086 0.33214 0.0
H1800 H 0.23158 0.45447 0.33339 0.0
H1801 H 0.25833 0.47627 0.36837 0.0
H1802 H 0.121 0.43229 0.38987 0.0
H1803 H 0.19604 0.49271 0.46212 0.0
H1804 H 0.16546 0.36581 0.36741 0.0
H1805 H 0.18187 0.40035 0.33842 0.0
H1806 H 0.13642 0.39318 0.34859 0.0
H1807 H 0.25688 0.44091 0.46095 0.0
H1808 H 0.25628 0.48962 0.46193 0.0
H1809 H 0.27282 0.46818 0.42652 0.0
C1810 C 0.25939 0.19412 0.62692 0.0
C1811 C 0.28184 0.21392 0.65213 0.0
C1812 C 0.27188 0.17138 0.60356 0.0
C1813 C 0.30755 0.1679 0.60584 0.0
C1814 C 0.33061 0.18892 0.63037 0.0
C1815 C 0.31753 0.21193 0.65304 0.0
C1816 C 0.24646 0.1498 0.57758 0.0
C1817 C 0.36881 0.18577 0.63373 0.0
C1818 C 0.33578 0.08043 0.57495 0.0
C1819 C 0.35383 0.09286 0.54664 0.0
C1820 C 0.31951 0.1043 0.59393 0.0
C1821 C 0.32068 0.14106 0.58377 0.0
C1822 C 0.33682 0.15287 0.55387 0.0
C1823 C 0.35368 0.12875 0.53589 0.0
C1824 C 0.30297 0.09086 0.62591 0.0
C1825 C 0.33748 0.19139 0.54161 0.0
H1826 H 0.23176 0.19557 0.62596 0.0
H1827 H 0.33501 0.22692 0.67254 0.0
H1828 H 0.25874 0.14849 0.55315 0.0
H1829 H 0.2383 0.12111 0.58588 0.0
H1830 H 0.22257 0.16203 0.5739 0.0
H1831 H 0.38348 0.20482 0.65348 0.0
H1832 H 0.37102 0.15709 0.63993 0.0
H1833 H 0.3815 0.19187 0.60966 0.0
H1834 H 0.33617 0.05277 0.5834 0.0
H1835 H 0.36742 0.13822 0.51375 0.0
H1836 H 0.27659 0.09795 0.62711 0.0
H1837 H 0.31908 0.10491 0.64762 0.0
H1838 H 0.30062 0.06057 0.62833 0.0
H1839 H 0.3107 0.1979 0.54107 0.0
H1840 H 0.34787 0.19497 0.51621 0.0
H1841 H 0.35417 0.21171 0.55907 0.0
C1842 C 0.89706 0.35189 0.67592 0.0
C1843 C 0.86693 0.33221 0.65883 0.0
C1844 C 0.92188 0.37636 0.659 0.0
C1845 C 0.91554 0.38202 0.62466 0.0
C1846 C 0.88614 0.36066 0.60696 0.0
C1847 C 0.86235 0.33561 0.62426 0.0
C1848 C 0.95395 0.39741 0.67806 0.0
C1849 C 0.87862 0.36594 0.57021 0.0
C1850 C 0.94013 0.47604 0.58897 0.0
C1851 C 0.96613 0.47065 0.56723 0.0
C1852 C 0.92509 0.44799 0.60954 0.0
C1853 C 0.93633 0.41367 0.60816 0.0
C1854 C 0.96416 0.4088 0.5878 0.0
C1855 C 0.97913 0.43773 0.56769 0.0
C1856 C 0.89525 0.4542 0.6307 0.0
C1857 C 0.97713 0.37273 0.58626 0.0
H1858 H 0.90091 0.34861 0.70259 0.0
H1859 H 0.83912 0.32022 0.61103 0.0
H1860 H 0.97777 0.3962 0.66401 0.0
H1861 H 0.95179 0.42688 0.68087 0.0
H1862 H 0.95734 0.3864 0.70337 0.0
H1863 H 0.85585 0.34553 0.55974 0.0
H1864 H 0.87302 0.39406 0.56656 0.0
H1865 H 0.90185 0.36348 0.55573 0.0
H1866 H 0.93042 0.50179 0.58879 0.0
H1867 H -0.00077 0.43369 0.55079 0.0
H1868 H 0.90007 0.44673 0.65694 0.0
H1869 H 0.87058 0.43619 0.62107 0.0
H1870 H 0.89138 0.4833 0.6306 0.0
H1871 H 0.99429 0.37113 0.6088 0.0
H1872 H 0.99224 0.37025 0.56367 0.0
H1873 H 0.95522 0.34873 0.58616 0.0
C1874 C 0.21524 0.6282 0.68604 0.0
C1875 C 0.24268 0.65872 0.68696 0.0
C1876 C 0.19562 0.61709 0.65632 0.0
C1877 C 0.20392 0.63712 0.62705 0.0
C1878 C 0.23498 0.66406 0.62678 0.0
C1879 C 0.25417 0.67471 0.65702 0.0
C1880 C 0.16332 0.5873 0.65744 0.0
C1881 C 0.24566 0.68452 0.59554 0.0
C1882 C 0.14177 0.60025 0.55404 0.0
C1883 C 0.11561 0.62163 0.55718 0.0
C1884 C 0.1724 0.60691 0.57468 0.0
C1885 C 0.17652 0.63499 0.59982 0.0
C1886 C 0.15131 0.6582 0.60189 0.0
C1887 C 0.12137 0.65147 0.58028 0.0
C1888 C 0.19904 0.58225 0.57073 0.0
C1889 C 0.15469 0.68858 0.62846 0.0
H1890 H 0.20671 0.61567 0.70929 0.0
H1891 H 0.27552 0.69829 0.65775 0.0
H1892 H 0.13958 0.60003 0.65571 0.0
H1893 H 0.16182 0.56754 0.63594 0.0
H1894 H 0.16288 0.57173 0.68092 0.0
H1895 H 0.27383 0.69764 0.59723 0.0
H1896 H 0.24059 0.66569 0.57315 0.0
H1897 H 0.22999 0.70653 0.59202 0.0
H1898 H 0.13821 0.57753 0.5362 0.0
H1899 H 0.10153 0.66836 0.58287 0.0
H1900 H 0.1924 0.558 0.58675 0.0
H1901 H 0.22595 0.59678 0.57825 0.0
H1902 H 0.1988 0.57179 0.54446 0.0
H1903 H 0.15405 0.6765 0.65364 0.0
H1904 H 0.13333 0.70477 0.62603 0.0
H1905 H 0.18015 0.70771 0.62702 0.0
loop_
_geom_bond_atom_site_label_1
_geom_bond_atom_site_label_2
_geom_bond_distance
_geom_bond_site_symmetry_2
_ccdc_geom_bond_type
O0 Zn1 1.953 . S
O0 C16 1.225 . S
Zn1 O0 1.953 . S
Zn1 O2 1.949 . S
Zn1 O8 1.919 . S
Zn1 O13 1.924 . S
O2 Zn1 1.949 . S
O2 Zn3 1.923 . S
O2 Zn4 1.950 . S
O2 Zn5 1.945 . S
Zn3 O2 1.923 . S
Zn3 O6 1.933 . S
Zn3 O9 1.941 . S
Zn3 O10 1.965 . S
Zn4 O2 1.950 . S
Zn4 O11 1.938 . S
Zn4 O12 1.906 . S
Zn4 O22 1.953 . S
Zn5 O2 1.945 . S
Zn5 O7 1.932 . S
Zn5 O14 1.977 . S
Zn5 O15 1.910 . S
O6 Zn3 1.933 . S
O6 C17 1.226 . S
O7 Zn5 1.932 . S
O7 C17 1.307 . S
O8 Zn1 1.919 . S
O8 C19 1.253 . S
O9 Zn3 1.941 . S
O9 C19 1.283 . S
O10 Zn3 1.965 . S
O10 C18 1.303 . S
O11 Zn4 1.938 . S
O11 C18 1.247 . S
O12 Zn4 1.906 . S
O12 C20 1.304 . S
O13 Zn1 1.924 . S
O13 C21 1.311 . S
O14 Zn5 1.977 . S
O14 C20 1.272 . S
O15 Zn5 1.910 . S
O15 C21 1.231 . S
C16 O0 1.225 . S
C16 O22 1.298 . S
C17 O6 1.226 . S
C17 O7 1.307 . S
C18 O10 1.303 . S
C18 O11 1.247 . S
C19 O8 1.253 . S
C19 O9 1.283 . S
C20 O12 1.304 . S
C20 O14 1.272 . S
C21 O13 1.311 . S
C21 O15 1.231 . S
O22 Zn4 1.953 . S
O22 C16 1.298 . S
O23 Zn24 1.953 . S
O23 C39 1.225 . S
Zn24 O23 1.953 . S
Zn24 O25 1.949 . S
Zn24 O31 1.919 . S
Zn24 O36 1.924 . S
O25 Zn24 1.949 . S
O25 Zn26 1.923 . S
O25 Zn27 1.950 . S
O25 Zn28 1.945 . S
Zn26 O25 1.923 . S
Zn26 O29 1.933 . S
Zn26 O32 1.941 . S
Zn26 O33 1.965 . S
Zn27 O25 1.950 . S
Zn27 O34 1.938 . S
Zn27 O35 1.906 . S
Zn27 O45 1.953 . S
Zn28 O25 1.945 . S
Zn28 O30 1.932 . S
Zn28 O37 1.977 . S
Zn28 O38 1.910 . S
O29 Zn26 1.933 . S
O29 C40 1.226 . S
O30 Zn28 1.932 . S
O30 C40 1.307 . S
O31 Zn24 1.919 . S
O31 C42 1.253 . S
O32 Zn26 1.941 . S
O32 C42 1.283 . S
O33 Zn26 1.965 . S
O33 C41 1.303 . S
O34 Zn27 1.938 . S
O34 C41 1.247 . S
O35 Zn27 1.906 . S
O35 C43 1.304 . S
O36 Zn24 1.924 . S
O36 C44 1.311 . S
O37 Zn28 1.977 . S
O37 C43 1.272 . S
O38 Zn28 1.910 . S
O38 C44 1.231 . S
C39 O23 1.225 . S
C39 O45 1.298 . S
C40 O29 1.226 . S
C40 O30 1.307 . S
C41 O33 1.303 . S
C41 O34 1.247 . S
C42 O31 1.253 . S
C42 O32 1.283 . S
C43 O35 1.304 . S
C43 O37 1.272 . S
C44 O36 1.311 . S
C44 O38 1.231 . S
O45 Zn27 1.953 . S
O45 C39 1.298 . S
O46 Zn47 1.953 . S
O46 C62 1.225 . S
Zn47 O46 1.953 . S
Zn47 O48 1.949 . S
Zn47 O54 1.919 . S
Zn47 O59 1.924 . S
O48 Zn47 1.949 . S
O48 Zn49 1.923 . S
O48 Zn50 1.950 . S
O48 Zn51 1.945 . S
Zn49 O48 1.923 . S
Zn49 O52 1.933 . S
Zn49 O55 1.941 . S
Zn49 O56 1.965 . S
Zn50 O48 1.950 . S
Zn50 O57 1.938 . S
Zn50 O58 1.906 . S
Zn50 O68 1.953 . S
Zn51 O48 1.945 . S
Zn51 O53 1.932 . S
Zn51 O60 1.977 . S
Zn51 O61 1.910 . S
O52 Zn49 1.933 . S
O52 C63 1.226 . S
O53 Zn51 1.932 . S
O53 C63 1.307 . S
O54 Zn47 1.919 . S
O54 C65 1.253 . S
O55 Zn49 1.941 . S
O55 C65 1.283 . S
O56 Zn49 1.965 . S
O56 C64 1.303 . S
O57 Zn50 1.938 . S
O57 C64 1.247 . S
O58 Zn50 1.906 . S
O58 C66 1.304 . S
O59 Zn47 1.924 . S
O59 C67 1.311 . S
O60 Zn51 1.977 . S
O60 C66 1.272 . S
O61 Zn51 1.910 . S
O61 C67 1.231 . S
C62 O46 1.225 . S
C62 O68 1.298 . S
C63 O52 1.226 . S
C63 O53 1.307 . S
C64 O56 1.303 . S
C64 O57 1.247 . S
C65 O54 1.253 . S
C65 O55 1.283 . S
C66 O58 1.304 . S
C66 O60 1.272 . S
C67 O59 1.311 . S
C67 O61 1.231 . S
O68 Zn50 1.953 . S
O68 C62 1.298 . S
O69 Zn70 1.953 . S
O69 C85 1.225 . S
Zn70 O69 1.953 . S
Zn70 O71 1.949 . S
Zn70 O77 1.919 . S
Zn70 O82 1.924 . S
O71 Zn70 1.949 . S
O71 Zn72 1.923 . S
O71 Zn73 1.950 . S
O71 Zn74 1.945 . S
Zn72 O71 1.923 . S
Zn72 O75 1.933 . S
Zn72 O78 1.941 . S
Zn72 O79 1.965 . S
Zn73 O71 1.950 . S
Zn73 O80 1.938 . S
Zn73 O81 1.906 . S
Zn73 O91 1.953 . S
Zn74 O71 1.945 . S
Zn74 O76 1.932 . S
Zn74 O83 1.977 . S
Zn74 O84 1.910 . S
O75 Zn72 1.933 . S
O75 C86 1.226 . S
O76 Zn74 1.932 . S
O76 C86 1.307 . S
O77 Zn70 1.919 . S
O77 C88 1.253 . S
O78 Zn72 1.941 . S
O78 C88 1.283 . S
O79 Zn72 1.965 . S
O79 C87 1.303 . S
O80 Zn73 1.938 . S
O80 C87 1.247 . S
O81 Zn73 1.906 . S
O81 C89 1.304 . S
O82 Zn70 1.924 . S
O82 C90 1.311 . S
O83 Zn74 1.977 . S
O83 C89 1.272 . S
O84 Zn74 1.910 . S
O84 C90 1.231 . S
C85 O69 1.225 . S
C85 O91 1.298 . S
C86 O75 1.226 . S
C86 O76 1.307 . S
C87 O79 1.303 . S
C87 O80 1.247 . S
C88 O77 1.253 . S
C88 O78 1.283 . S
C89 O81 1.304 . S
C89 O83 1.272 . S
C90 O82 1.311 . S
C90 O84 1.231 . S
O91 Zn73 1.953 . S
O91 C85 1.298 . S
O92 Zn93 1.953 . S
O92 C108 1.225 . S
Zn93 O92 1.953 . S
Zn93 O94 1.949 . S
Zn93 O100 1.919 . S
Zn93 O105 1.924 . S
O94 Zn93 1.949 . S
O94 Zn95 1.923 . S
O94 Zn96 1.950 . S
O94 Zn97 1.945 . S
Zn95 O94 1.923 . S
Zn95 O98 1.933 . S
Zn95 O101 1.941 . S
Zn95 O102 1.965 . S
Zn96 O94 1.950 . S
Zn96 O103 1.938 . S
Zn96 O104 1.906 . S
Zn96 O114 1.953 . S
Zn97 O94 1.945 . S
Zn97 O99 1.932 . S
Zn97 O106 1.977 . S
Zn97 O107 1.910 . S
O98 Zn95 1.933 . S
O98 C109 1.226 . S
O99 Zn97 1.932 . S
O99 C109 1.307 . S
O100 Zn93 1.919 . S
O100 C111 1.253 . S
O101 Zn95 1.941 . S
O101 C111 1.283 . S
O102 Zn95 1.965 . S
O102 C110 1.303 . S
O103 Zn96 1.938 . S
O103 C110 1.247 . S
O104 Zn96 1.906 . S
O104 C112 1.304 . S
O105 Zn93 1.924 . S
O105 C113 1.311 . S
O106 Zn97 1.977 . S
O106 C112 1.272 . S
O107 Zn97 1.910 . S
O107 C113 1.231 . S
C108 O92 1.225 . S
C108 O114 1.298 . S
C109 O98 1.226 . S
C109 O99 1.307 . S
C110 O102 1.303 . S
C110 O103 1.247 . S
C111 O100 1.253 . S
C111 O101 1.283 . S
C112 O104 1.304 . S
C112 O106 1.272 . S
C113 O105 1.311 . S
C113 O107 1.231 . S
O114 Zn96 1.953 . S
O114 C108 1.298 . S
O115 Zn116 1.953 . S
O115 C131 1.225 . S
Zn116 O115 1.953 . S
Zn116 O117 1.949 . S
Zn116 O123 1.919 . S
Zn116 O128 1.924 . S
O117 Zn116 1.949 . S
O117 Zn118 1.923 . S
O117 Zn119 1.950 . S
O117 Zn120 1.945 . S
Zn118 O117 1.923 . S
Zn118 O121 1.933 . S
Zn118 O124 1.941 . S
Zn118 O125 1.965 . S
Zn119 O117 1.950 . S
Zn119 O126 1.938 . S
Zn119 O127 1.906 . S
Zn119 O137 1.953 . S
Zn120 O117 1.945 . S
Zn120 O122 1.932 . S
Zn120 O129 1.977 . S
Zn120 O130 1.910 . S
O121 Zn118 1.933 . S
O121 C132 1.226 . S
O122 Zn120 1.932 . S
O122 C132 1.307 . S
O123 Zn116 1.919 . S
O123 C134 1.253 . S
O124 Zn118 1.941 . S
O124 C134 1.283 . S
O125 Zn118 1.965 . S
O125 C133 1.303 . S
O126 Zn119 1.938 . S
O126 C133 1.247 . S
O127 Zn119 1.906 . S
O127 C135 1.304 . S
O128 Zn116 1.924 . S
O128 C136 1.311 . S
O129 Zn120 1.977 . S
O129 C135 1.272 . S
O130 Zn120 1.910 . S
O130 C136 1.231 . S
C131 O115 1.225 . S
C131 O137 1.298 . S
C132 O121 1.226 . S
C132 O122 1.307 . S
C133 O125 1.303 . S
C133 O126 1.247 . S
C134 O123 1.253 . S
C134 O124 1.283 . S
C135 O127 1.304 . S
C135 O129 1.272 . S
C136 O128 1.311 . S
C136 O130 1.231 . S
O137 Zn119 1.953 . S
O137 C131 1.298 . S
O138 Zn139 1.953 . S
O138 C154 1.225 . S
Zn139 O138 1.953 . S
Zn139 O140 1.949 . S
Zn139 O146 1.919 . S
Zn139 O151 1.924 . S
O140 Zn139 1.949 . S
O140 Zn141 1.923 . S
O140 Zn142 1.950 . S
O140 Zn143 1.945 . S
Zn141 O140 1.923 . S
Zn141 O144 1.933 . S
Zn141 O147 1.941 . S
Zn141 O148 1.965 . S
Zn142 O140 1.950 . S
Zn142 O149 1.938 . S
Zn142 O150 1.906 . S
Zn142 O160 1.953 . S
Zn143 O140 1.945 . S
Zn143 O145 1.932 . S
Zn143 O152 1.977 . S
Zn143 O153 1.910 . S
O144 Zn141 1.933 . S
O144 C155 1.226 . S
O145 Zn143 1.932 . S
O145 C155 1.307 . S
O146 Zn139 1.919 . S
O146 C157 1.253 . S
O147 Zn141 1.941 . S
O147 C157 1.283 . S
O148 Zn141 1.965 . S
O148 C156 1.303 . S
O149 Zn142 1.938 . S
O149 C156 1.247 . S
O150 Zn142 1.906 . S
O150 C158 1.304 . S
O151 Zn139 1.924 . S
O151 C159 1.311 . S
O152 Zn143 1.977 . S
O152 C158 1.272 . S
O153 Zn143 1.910 . S
O153 C159 1.231 . S
C154 O138 1.225 . S
C154 O160 1.298 . S
C155 O144 1.226 . S
C155 O145 1.307 . S
C156 O148 1.303 . S
C156 O149 1.247 . S
C157 O146 1.253 . S
C157 O147 1.283 . S
C158 O150 1.304 . S
C158 O152 1.272 . S
C159 O151 1.311 . S
C159 O153 1.231 . S
O160 Zn142 1.953 . S
O160 C154 1.298 . S
O161 Zn162 1.953 . S
O161 C177 1.225 . S
Zn162 O161 1.953 . S
Zn162 O163 1.949 . S
Zn162 O169 1.919 . S
Zn162 O174 1.924 . S
O163 Zn162 1.949 . S
O163 Zn164 1.923 . S
O163 Zn165 1.950 . S
O163 Zn166 1.945 . S
Zn164 O163 1.923 . S
Zn164 O167 1.933 . S
Zn164 O170 1.941 . S
Zn164 O171 1.965 . S
Zn165 O163 1.950 . S
Zn165 O172 1.938 . S
Zn165 O173 1.906 . S
Zn165 O183 1.953 . S
Zn166 O163 1.945 . S
Zn166 O168 1.932 . S
Zn166 O175 1.977 . S
Zn166 O176 1.910 . S
O167 Zn164 1.933 . S
O167 C178 1.226 . S
O168 Zn166 1.932 . S
O168 C178 1.307 . S
O169 Zn162 1.919 . S
O169 C180 1.253 . S
O170 Zn164 1.941 . S
O170 C180 1.283 . S
O171 Zn164 1.965 . S
O171 C179 1.303 . S
O172 Zn165 1.938 . S
O172 C179 1.247 . S
O173 Zn165 1.906 . S
O173 C181 1.304 . S
O174 Zn162 1.924 . S
O174 C182 1.311 . S
O175 Zn166 1.977 . S
O175 C181 1.272 . S
O176 Zn166 1.910 . S
O176 C182 1.231 . S
C177 O161 1.225 . S
C177 O183 1.298 . S
C178 O167 1.226 . S
C178 O168 1.307 . S
C179 O171 1.303 . S
C179 O172 1.247 . S
C180 O169 1.253 . S
C180 O170 1.283 . S
C181 O173 1.304 . S
C181 O175 1.272 . S
C182 O174 1.311 . S
C182 O176 1.231 . S
O183 Zn165 1.953 . S
O183 C177 1.298 . S
C184 O196 1.241 . S
C184 O197 1.280 . S
C185 O198 1.277 . S
C185 O199 1.245 . S
C186 O210 1.247 . S
C186 O212 1.289 . S
Mg187 O188 1.926 . S
Mg187 O197 1.984 . S
Mg187 O199 1.988 . S
Mg187 O200 2.061 1_655 S
O188 Mg187 1.926 . S
O188 Mg189 1.986 . S
O188 Mg190 1.917 1_655 S
Mg189 O188 1.986 . S
Mg189 O196 2.042 . S
Mg189 O198 2.041 . S
Mg189 O204 2.038 1_545 S
Mg189 O212 2.238 1_545 S
Mg190 O188 1.917 1_455 S
Mg190 O191 1.917 1_545 S
Mg190 O201 2.106 . S
Mg190 O203 2.079 1_445 S
Mg190 O212 2.106 1_445 S
Mg190 O213 2.079 . S
O191 Mg190 1.917 1_565 S
O191 Mg192 1.926 . S
O191 Mg193 1.986 . S
Mg192 O191 1.926 . S
Mg192 O206 1.984 . S
Mg192 O209 1.988 . S
Mg192 O210 2.061 1_455 S
Mg193 O191 1.986 . S
Mg193 O201 2.239 1_565 S
Mg193 O205 2.041 . S
Mg193 O207 2.039 . S
Mg193 O214 2.040 1_565 S
C194 O200 1.247 . S
C194 O201 1.289 . S
C195 O213 1.245 . S
C195 O214 1.274 . S
O196 C184 1.241 . S
O196 Mg189 2.042 . S
O197 C184 1.280 . S
O197 Mg187 1.984 . S
O198 C185 1.277 . S
O198 Mg189 2.041 . S
O199 C185 1.245 . S
O199 Mg187 1.988 . S
O200 Mg187 2.061 1_455 S
O200 C194 1.247 . S
O201 Mg190 2.106 . S
O201 Mg193 2.239 1_545 S
O201 C194 1.289 . S
C202 O203 1.245 . S
C202 O204 1.274 . S
O203 Mg190 2.079 1_665 S
O203 C202 1.245 . S
O204 Mg189 2.038 1_565 S
O204 C202 1.274 . S
O205 Mg193 2.041 . S
O205 C208 1.241 . S
O206 Mg192 1.984 . S
O206 C208 1.280 . S
O207 Mg193 2.039 . S
O207 C211 1.277 . S
C208 O205 1.241 . S
C208 O206 1.280 . S
O209 Mg192 1.988 . S
O209 C211 1.245 . S
O210 C186 1.247 . S
O210 Mg192 2.061 1_655 S
C211 O207 1.277 . S
C211 O209 1.245 . S
O212 C186 1.289 . S
O212 Mg189 2.238 1_565 S
O212 Mg190 2.106 1_665 S
O213 Mg190 2.079 . S
O213 C195 1.245 . S
O214 Mg193 2.040 1_545 S
O214 C195 1.274 . S
C215 O227 1.241 . S
C215 O228 1.280 . S
C216 O229 1.277 . S
C216 O230 1.245 . S
C217 O241 1.247 . S
C217 O243 1.289 . S
Mg218 O219 1.926 . S
Mg218 O228 1.984 . S
Mg218 O230 1.988 1_554 S
Mg218 O231 2.061 . S
O219 Mg218 1.926 . S
O219 Mg220 1.986 . S
O219 Mg221 1.917 . S
Mg220 O219 1.986 . S
Mg220 O227 2.042 . S
Mg220 O229 2.041 1_554 S
Mg220 O235 2.038 1_545 S
Mg220 O243 2.238 1_544 S
Mg221 O219 1.917 . S
Mg221 O222 1.917 1_545 S
Mg221 O232 2.106 . S
Mg221 O234 2.079 1_545 S
Mg221 O243 2.106 1_544 S
Mg221 O244 2.079 1_554 S
O222 Mg221 1.917 1_565 S
O222 Mg223 1.926 1_554 S
O222 Mg224 1.986 . S
Mg223 O222 1.926 1_556 S
Mg223 O237 1.984 . S
Mg223 O240 1.988 1_556 S
Mg223 O241 2.061 . S
Mg224 O222 1.986 . S
Mg224 O232 2.238 1_565 S
Mg224 O236 2.042 1_554 S
Mg224 O238 2.041 . S
Mg224 O245 2.038 1_564 S
C225 O231 1.247 . S
C225 O232 1.289 . S
C226 O244 1.245 . S
C226 O245 1.274 . S
O227 C215 1.241 . S
O227 Mg220 2.042 . S
O228 C215 1.280 . S
O228 Mg218 1.984 . S
O229 C216 1.277 . S
O229 Mg220 2.041 1_556 S
O230 C216 1.245 . S
O230 Mg218 1.988 1_556 S
O231 Mg218 2.061 . S
O231 C225 1.247 . S
O232 Mg221 2.106 . S
O232 Mg224 2.238 1_545 S
O232 C225 1.289 . S
C233 O234 1.245 . S
C233 O235 1.274 . S
O234 Mg221 2.079 1_565 S
O234 C233 1.245 . S
O235 Mg220 2.038 1_565 S
O235 C233 1.274 . S
O236 Mg224 2.042 1_556 S
O236 C239 1.241 . S
O237 Mg223 1.984 . S
O237 C239 1.280 . S
O238 Mg224 2.041 . S
O238 C242 1.277 . S
C239 O236 1.241 . S
C239 O237 1.280 . S
O240 Mg223 1.988 1_554 S
O240 C242 1.245 . S
O241 C217 1.247 . S
O241 Mg223 2.061 . S
C242 O238 1.277 . S
C242 O240 1.245 . S
O243 C217 1.289 . S
O243 Mg220 2.238 1_566 S
O243 Mg221 2.106 1_566 S
O244 Mg221 2.079 1_556 S
O244 C226 1.245 . S
O245 Mg224 2.038 1_546 S
O245 C226 1.274 . S
C246 O258 1.241 . S
C246 O259 1.280 . S
C247 O260 1.277 . S
C247 O261 1.245 . S
C248 O272 1.247 . S
C248 O274 1.289 . S
Mg249 O250 1.926 . S
Mg249 O259 1.984 . S
Mg249 O261 1.988 1_554 S
Mg249 O262 2.061 1_655 S
O250 Mg249 1.926 . S
O250 Mg251 1.986 . S
O250 Mg252 1.917 1_655 S
Mg251 O250 1.986 . S
Mg251 O258 2.042 . S
Mg251 O260 2.041 1_554 S
Mg251 O266 2.038 . S
Mg251 O274 2.238 1_554 S
Mg252 O250 1.917 1_455 S
Mg252 O253 1.917 1_554 S
Mg252 O263 2.106 . S
Mg252 O265 2.079 1_455 S
Mg252 O274 2.106 1_454 S
Mg252 O275 2.079 1_554 S
O253 Mg252 1.917 1_556 S
O253 Mg254 1.926 . S
O253 Mg255 1.986 1_556 S
Mg254 O253 1.926 . S
Mg254 O268 1.984 . S
Mg254 O271 1.988 1_556 S
Mg254 O272 2.061 1_455 S
Mg255 O253 1.986 1_554 S
Mg255 O263 2.238 . S
Mg255 O267 2.042 1_554 S
Mg255 O269 2.041 . S
Mg255 O276 2.038 1_554 S
C256 O262 1.247 . S
C256 O263 1.289 . S
C257 O275 1.245 . S
C257 O276 1.274 . S
O258 C246 1.241 . S
O258 Mg251 2.042 . S
O259 C246 1.280 . S
O259 Mg249 1.984 . S
O260 C247 1.277 . S
O260 Mg251 2.041 1_556 S
O261 C247 1.245 . S
O261 Mg249 1.988 1_556 S
O262 Mg249 2.061 1_455 S
O262 C256 1.247 . S
O263 Mg252 2.106 . S
O263 Mg255 2.238 . S
O263 C256 1.289 . S
C264 O265 1.245 . S
C264 O266 1.274 . S
O265 Mg252 2.079 1_655 S
O265 C264 1.245 . S
O266 Mg251 2.038 . S
O266 C264 1.274 . S
O267 Mg255 2.042 1_556 S
O267 C270 1.241 . S
O268 Mg254 1.984 . S
O268 C270 1.280 . S
O269 Mg255 2.041 . S
O269 C273 1.277 . S
C270 O267 1.241 . S
C270 O268 1.280 . S
O271 Mg254 1.988 1_554 S
O271 C273 1.245 . S
O272 C248 1.247 . S
O272 Mg254 2.061 1_655 S
C273 O269 1.277 . S
C273 O271 1.245 . S
O274 C248 1.289 . S
O274 Mg251 2.238 1_556 S
O274 Mg252 2.106 1_656 S
O275 Mg252 2.079 1_556 S
O275 C257 1.245 . S
O276 Mg255 2.038 1_556 S
O276 C257 1.274 . S
C277 O289 1.241 . S
C277 O290 1.280 . S
C278 O291 1.277 . S
C278 O292 1.245 . S
C279 O303 1.247 . S
C279 O305 1.289 . S
Mg280 O281 1.926 . S
Mg280 O290 1.984 . S
Mg280 O292 1.988 1_554 S
Mg280 O293 2.061 . S
O281 Mg280 1.926 . S
O281 Mg282 1.986 . S
O281 Mg283 1.917 . S
Mg282 O281 1.986 . S
Mg282 O289 2.042 . S
Mg282 O291 2.041 1_554 S
Mg282 O297 2.038 . S
Mg282 O305 2.238 1_554 S
Mg283 O281 1.917 . S
Mg283 O284 1.919 . S
Mg283 O294 2.106 . S
Mg283 O296 2.079 . S
Mg283 O305 2.106 1_554 S
Mg283 O306 2.079 1_554 S
O284 Mg283 1.919 . S
O284 Mg285 1.926 1_554 S
O284 Mg286 1.988 . S
Mg285 O284 1.926 1_556 S
Mg285 O299 1.984 . S
Mg285 O302 1.988 1_556 S
Mg285 O303 2.061 . S
Mg286 O284 1.988 . S
Mg286 O294 2.238 . S
Mg286 O298 2.042 1_554 S
Mg286 O300 2.041 . S
Mg286 O307 2.038 1_554 S
C287 O293 1.247 . S
C287 O294 1.289 . S
C288 O306 1.245 . S
C288 O307 1.274 . S
O289 C277 1.241 . S
O289 Mg282 2.042 . S
O290 C277 1.280 . S
O290 Mg280 1.984 . S
O291 C278 1.277 . S
O291 Mg282 2.041 1_556 S
O292 C278 1.245 . S
O292 Mg280 1.988 1_556 S
O293 Mg280 2.061 . S
O293 C287 1.247 . S
O294 Mg283 2.106 . S
O294 Mg286 2.238 . S
O294 C287 1.289 . S
C295 O296 1.245 . S
C295 O297 1.274 . S
O296 Mg283 2.079 . S
O296 C295 1.245 . S
O297 Mg282 2.038 . S
O297 C295 1.274 . S
O298 Mg286 2.042 1_556 S
O298 C301 1.241 . S
O299 Mg285 1.984 . S
O299 C301 1.280 . S
O300 Mg286 2.041 . S
O300 C304 1.277 . S
C301 O298 1.241 . S
C301 O299 1.280 . S
O302 Mg285 1.988 1_554 S
O302 C304 1.245 . S
O303 C279 1.247 . S
O303 Mg285 2.061 . S
C304 O300 1.277 . S
C304 O302 1.245 . S
O305 C279 1.289 . S
O305 Mg282 2.238 1_556 S
O305 Mg283 2.106 1_556 S
O306 Mg283 2.079 1_556 S
O306 C288 1.245 . S
O307 Mg286 2.038 1_556 S
O307 C288 1.274 . S
C308 O320 1.241 . S
C308 O321 1.280 . S
C309 O322 1.277 . S
C309 O323 1.245 . S
C310 O334 1.247 . S
C310 O336 1.289 . S
Mg311 O312 1.926 . S
Mg311 O321 1.984 . S
Mg311 O323 1.988 . S
Mg311 O324 2.061 1_655 S
O312 Mg311 1.926 . S
O312 Mg313 1.986 . S
O312 Mg314 1.917 1_655 S
Mg313 O312 1.986 . S
Mg313 O320 2.042 . S
Mg313 O322 2.041 . S
Mg313 O328 2.038 . S
Mg313 O336 2.238 . S
Mg314 O312 1.917 1_455 S
Mg314 O315 1.917 . S
Mg314 O325 2.106 . S
Mg314 O327 2.079 1_455 S
Mg314 O336 2.106 1_455 S
Mg314 O337 2.079 . S
O315 Mg314 1.917 . S
O315 Mg316 1.926 . S
O315 Mg317 1.986 . S
Mg316 O315 1.926 . S
Mg316 O330 1.984 . S
Mg316 O333 1.988 . S
Mg316 O334 2.061 1_455 S
Mg317 O315 1.986 . S
Mg317 O325 2.238 . S
Mg317 O329 2.042 . S
Mg317 O331 2.041 . S
Mg317 O338 2.038 . S
C318 O324 1.247 . S
C318 O325 1.289 . S
C319 O337 1.245 . S
C319 O338 1.274 . S
O320 C308 1.241 . S
O320 Mg313 2.042 . S
O321 C308 1.280 . S
O321 Mg311 1.984 . S
O322 C309 1.277 . S
O322 Mg313 2.041 . S
O323 C309 1.245 . S
O323 Mg311 1.988 . S
O324 Mg311 2.061 1_455 S
O324 C318 1.247 . S
O325 Mg314 2.106 . S
O325 Mg317 2.238 . S
O325 C318 1.289 . S
C326 O327 1.245 . S
C326 O328 1.274 . S
O327 Mg314 2.079 1_655 S
O327 C326 1.245 . S
O328 Mg313 2.038 . S
O328 C326 1.274 . S
O329 Mg317 2.042 . S
O329 C332 1.241 . S
O330 Mg316 1.984 . S
O330 C332 1.280 . S
O331 Mg317 2.041 . S
O331 C335 1.277 . S
C332 O329 1.241 . S
C332 O330 1.280 . S
O333 Mg316 1.988 . S
O333 C335 1.245 . S
O334 C310 1.247 . S
O334 Mg316 2.061 1_655 S
C335 O331 1.277 . S
C335 O333 1.245 . S
O336 C310 1.289 . S
O336 Mg313 2.238 . S
O336 Mg314 2.106 1_655 S
O337 Mg314 2.079 . S
O337 C319 1.245 . S
O338 Mg317 2.038 . S
O338 C319 1.274 . S
C339 O351 1.241 . S
C339 O352 1.280 . S
C340 O353 1.277 . S
C340 O354 1.245 . S
C341 O365 1.247 . S
C341 O367 1.289 . S
Mg342 O343 1.926 . S
Mg342 O352 1.984 . S
Mg342 O354 1.988 . S
Mg342 O355 2.061 . S
O343 Mg342 1.926 . S
O343 Mg344 1.986 . S
O343 Mg345 1.917 . S
Mg344 O343 1.986 . S
Mg344 O351 2.042 . S
Mg344 O353 2.041 . S
Mg344 O359 2.038 1_545 S
Mg344 O367 2.238 1_545 S
Mg345 O343 1.917 . S
Mg345 O346 1.917 1_545 S
Mg345 O356 2.106 . S
Mg345 O358 2.079 1_545 S
Mg345 O367 2.106 1_545 S
Mg345 O368 2.079 . S
O346 Mg345 1.917 1_565 S
O346 Mg347 1.926 . S
O346 Mg348 1.986 1_565 S
Mg347 O346 1.926 . S
Mg347 O361 1.984 . S
Mg347 O364 1.988 . S
Mg347 O365 2.061 . S
Mg348 O346 1.986 1_545 S
Mg348 O356 2.238 . S
Mg348 O360 2.042 1_545 S
Mg348 O362 2.041 1_545 S
Mg348 O369 2.038 . S
C349 O355 1.247 . S
C349 O356 1.289 . S
C350 O368 1.245 . S
C350 O369 1.274 . S
O351 C339 1.241 . S
O351 Mg344 2.042 . S
O352 C339 1.280 . S
O352 Mg342 1.984 . S
O353 C340 1.277 . S
O353 Mg344 2.041 . S
O354 C340 1.245 . S
O354 Mg342 1.988 . S
O355 Mg342 2.061 . S
O355 C349 1.247 . S
O356 Mg345 2.106 . S
O356 Mg348 2.238 . S
O356 C349 1.289 . S
C357 O358 1.245 . S
C357 O359 1.274 . S
O358 Mg345 2.079 1_565 S
O358 C357 1.245 . S
O359 Mg344 2.038 1_565 S
O359 C357 1.274 . S
O360 Mg348 2.042 1_565 S
O360 C363 1.241 . S
O361 Mg347 1.984 . S
O361 C363 1.280 . S
O362 Mg348 2.041 1_565 S
O362 C366 1.277 . S
C363 O360 1.241 . S
C363 O361 1.280 . S
O364 Mg347 1.988 . S
O364 C366 1.245 . S
O365 C341 1.247 . S
O365 Mg347 2.061 . S
C366 O362 1.277 . S
C366 O364 1.245 . S
O367 C341 1.289 . S
O367 Mg344 2.238 1_565 S
O367 Mg345 2.106 1_565 S
O368 Mg345 2.079 . S
O368 C350 1.245 . S
O369 Mg348 2.038 . S
O369 C350 1.274 . S
C370 C371 1.391 . S
C370 C372 1.394 . S
C370 H386 0.931 . S
C371 C370 1.391 . S
C371 C375 1.376 . S
C372 C370 1.394 . S
C372 C373 1.369 . S
C372 C376 1.531 . S
C373 C372 1.369 . S
C373 C374 1.410 . S
C373 C381 1.503 . S
C374 C373 1.410 . S
C374 C375 1.392 . S
C374 C377 1.511 . S
C375 C371 1.376 . S
C375 C374 1.392 . S
C375 H387 0.929 . S
C376 C372 1.531 . S
C376 H388 0.960 . S
C376 H389 0.962 . S
C376 H390 0.960 . S
C377 C374 1.511 . S
C377 H391 0.961 . S
C377 H392 0.961 . S
C377 H393 0.961 . S
C378 C379 1.370 . S
C378 C380 1.363 . S
C378 H394 0.931 . S
C379 C378 1.370 . S
C379 C383 1.408 . S
C380 C378 1.363 . S
C380 C381 1.370 . S
C380 C384 1.524 . S
C381 C373 1.503 . S
C381 C380 1.370 . S
C381 C382 1.403 . S
C382 C381 1.403 . S
C382 C383 1.404 . S
C382 C385 1.539 . S
C383 C379 1.408 . S
C383 C382 1.404 . S
C383 H395 0.930 . S
C384 C380 1.524 . S
C384 H396 0.956 . S
C384 H397 0.961 . S
C384 H398 0.961 . S
C385 C382 1.539 . S
C385 H399 0.958 . S
C385 H400 0.961 . S
C385 H401 0.960 . S
H386 C370 0.931 . S
H387 C375 0.929 . S
H388 C376 0.960 . S
H389 C376 0.962 . S
H390 C376 0.960 . S
H391 C377 0.961 . S
H392 C377 0.961 . S
H393 C377 0.961 . S
H394 C378 0.931 . S
H395 C383 0.930 . S
H396 C384 0.956 . S
H397 C384 0.961 . S
H398 C384 0.961 . S
H399 C385 0.958 . S
H400 C385 0.961 . S
H401 C385 0.960 . S
C402 C403 1.391 . S
C402 C404 1.394 . S
C402 H418 0.931 . S
C403 C402 1.391 . S
C403 C407 1.376 . S
C404 C402 1.394 . S
C404 C405 1.369 . S
C404 C408 1.531 . S
C405 C404 1.369 . S
C405 C406 1.410 . S
C405 C413 1.503 . S
C406 C405 1.410 . S
C406 C407 1.392 . S
C406 C409 1.511 . S
C407 C403 1.376 . S
C407 C406 1.392 . S
C407 H419 0.929 . S
C408 C404 1.531 . S
C408 H420 0.960 . S
C408 H421 0.962 . S
C408 H422 0.960 . S
C409 C406 1.511 . S
C409 H423 0.961 . S
C409 H424 0.961 . S
C409 H425 0.961 . S
C410 C411 1.370 . S
C410 C412 1.363 . S
C410 H426 0.931 . S
C411 C410 1.370 . S
C411 C415 1.408 . S
C412 C410 1.363 . S
C412 C413 1.370 . S
C412 C416 1.524 . S
C413 C405 1.503 . S
C413 C412 1.370 . S
C413 C414 1.403 . S
C414 C413 1.403 . S
C414 C415 1.404 . S
C414 C417 1.539 . S
C415 C411 1.408 . S
C415 C414 1.404 . S
C415 H427 0.930 . S
C416 C412 1.524 . S
C416 H428 0.956 . S
C416 H429 0.961 . S
C416 H430 0.961 . S
C417 C414 1.539 . S
C417 H431 0.958 . S
C417 H432 0.961 . S
C417 H433 0.960 . S
H418 C402 0.931 . S
H419 C407 0.929 . S
H420 C408 0.960 . S
H421 C408 0.962 . S
H422 C408 0.960 . S
H423 C409 0.961 . S
H424 C409 0.961 . S
H425 C409 0.961 . S
H426 C410 0.931 . S
H427 C415 0.930 . S
H428 C416 0.956 . S
H429 C416 0.961 . S
H430 C416 0.961 . S
H431 C417 0.958 . S
H432 C417 0.961 . S
H433 C417 0.960 . S
C434 C435 1.391 . S
C434 C436 1.394 . S
C434 H450 0.931 . S
C435 C434 1.391 . S
C435 C439 1.376 . S
C436 C434 1.394 . S
C436 C437 1.369 . S
C436 C440 1.531 . S
C437 C436 1.369 . S
C437 C438 1.410 . S
C437 C445 1.503 . S
C438 C437 1.410 . S
C438 C439 1.392 . S
C438 C441 1.511 . S
C439 C435 1.376 . S
C439 C438 1.392 . S
C439 H451 0.929 . S
C440 C436 1.531 . S
C440 H452 0.960 . S
C440 H453 0.962 . S
C440 H454 0.960 . S
C441 C438 1.511 . S
C441 H455 0.961 . S
C441 H456 0.961 . S
C441 H457 0.961 . S
C442 C443 1.370 . S
C442 C444 1.363 . S
C442 H458 0.931 . S
C443 C442 1.370 . S
C443 C447 1.408 . S
C444 C442 1.363 . S
C444 C445 1.370 . S
C444 C448 1.524 . S
C445 C437 1.503 . S
C445 C444 1.370 . S
C445 C446 1.403 . S
C446 C445 1.403 . S
C446 C447 1.404 . S
C446 C449 1.539 . S
C447 C443 1.408 . S
C447 C446 1.404 . S
C447 H459 0.930 . S
C448 C444 1.524 . S
C448 H460 0.956 . S
C448 H461 0.961 . S
C448 H462 0.961 . S
C449 C446 1.539 . S
C449 H463 0.958 . S
C449 H464 0.961 . S
C449 H465 0.960 . S
H450 C434 0.931 . S
H451 C439 0.929 . S
H452 C440 0.960 . S
H453 C440 0.962 . S
H454 C440 0.960 . S
H455 C441 0.961 . S
H456 C441 0.961 . S
H457 C441 0.961 . S
H458 C442 0.931 . S
H459 C447 0.930 . S
H460 C448 0.956 . S
H461 C448 0.961 . S
H462 C448 0.961 . S
H463 C449 0.958 . S
H464 C449 0.961 . S
H465 C449 0.960 . S
C466 C467 1.391 . S
C466 C468 1.394 . S
C466 H482 0.931 . S
C467 C466 1.391 . S
C467 C471 1.376 . S
C468 C466 1.394 . S
C468 C469 1.369 . S
C468 C472 1.531 . S
C469 C468 1.369 . S
C469 C470 1.410 . S
C469 C477 1.503 . S
C470 C469 1.410 . S
C470 C471 1.392 . S
C470 C473 1.511 . S
C471 C467 1.376 . S
C471 C470 1.392 . S
C471 H483 0.929 . S
C472 C468 1.531 . S
C472 H484 0.960 . S
C472 H485 0.962 . S
C472 H486 0.960 . S
C473 C470 1.511 . S
C473 H487 0.961 . S
C473 H488 0.961 . S
C473 H489 0.961 . S
C474 C475 1.370 . S
C474 C476 1.363 . S
C474 H490 0.931 . S
C475 C474 1.370 . S
C475 C479 1.408 . S
C476 C474 1.363 . S
C476 C477 1.370 . S
C476 C480 1.524 . S
C477 C469 1.503 . S
C477 C476 1.370 . S
C477 C478 1.403 . S
C478 C477 1.403 . S
C478 C479 1.404 . S
C478 C481 1.539 . S
C479 C475 1.408 . S
C479 C478 1.404 . S
C479 H491 0.930 . S
C480 C476 1.524 . S
C480 H492 0.956 . S
C480 H493 0.961 . S
C480 H494 0.961 . S
C481 C478 1.539 . S
C481 H495 0.958 . S
C481 H496 0.961 . S
C481 H497 0.960 . S
H482 C466 0.931 . S
H483 C471 0.929 . S
H484 C472 0.960 . S
H485 C472 0.962 . S
H486 C472 0.960 . S
H487 C473 0.961 . S
H488 C473 0.961 . S
H489 C473 0.961 . S
H490 C474 0.931 . S
H491 C479 0.930 . S
H492 C480 0.956 . S
H493 C480 0.961 . S
H494 C480 0.961 . S
H495 C481 0.958 . S
H496 C481 0.961 . S
H497 C481 0.960 . S
C498 C499 1.391 . S
C498 C500 1.394 . S
C498 H514 0.931 . S
C499 C498 1.391 . S
C499 C503 1.376 . S
C500 C498 1.394 . S
C500 C501 1.369 . S
C500 C504 1.531 . S
C501 C500 1.369 . S
C501 C502 1.410 . S
C501 C509 1.503 . S
C502 C501 1.410 . S
C502 C503 1.392 . S
C502 C505 1.511 . S
C503 C499 1.376 . S
C503 C502 1.392 . S
C503 H515 0.929 . S
C504 C500 1.531 . S
C504 H516 0.960 . S
C504 H517 0.962 . S
C504 H518 0.960 . S
C505 C502 1.511 . S
C505 H519 0.961 . S
C505 H520 0.961 . S
C505 H521 0.961 . S
C506 C507 1.370 . S
C506 C508 1.363 . S
C506 H522 0.931 . S
C507 C506 1.370 . S
C507 C511 1.408 . S
C508 C506 1.363 . S
C508 C509 1.370 . S
C508 C512 1.524 . S
C509 C501 1.503 . S
C509 C508 1.370 . S
C509 C510 1.403 . S
C510 C509 1.403 . S
C510 C511 1.404 . S
C510 C513 1.539 . S
C511 C507 1.408 . S
C511 C510 1.404 . S
C511 H523 0.930 . S
C512 C508 1.524 . S
C512 H524 0.956 . S
C512 H525 0.961 . S
C512 H526 0.961 . S
C513 C510 1.539 . S
C513 H527 0.958 . S
C513 H528 0.961 . S
C513 H529 0.960 . S
H514 C498 0.931 . S
H515 C503 0.929 . S
H516 C504 0.960 . S
H517 C504 0.962 . S
H518 C504 0.960 . S
H519 C505 0.961 . S
H520 C505 0.961 . S
H521 C505 0.961 . S
H522 C506 0.931 . S
H523 C511 0.930 . S
H524 C512 0.956 . S
H525 C512 0.961 . S
H526 C512 0.961 . S
H527 C513 0.958 . S
H528 C513 0.961 . S
H529 C513 0.960 . S
C530 C531 1.391 . S
C530 C532 1.394 . S
C530 H546 0.931 . S
C531 C530 1.391 . S
C531 C535 1.376 . S
C532 C530 1.394 . S
C532 C533 1.369 . S
C532 C536 1.531 . S
C533 C532 1.369 . S
C533 C534 1.410 . S
C533 C541 1.503 . S
C534 C533 1.410 . S
C534 C535 1.392 . S
C534 C537 1.511 . S
C535 C531 1.376 . S
C535 C534 1.392 . S
C535 H547 0.929 . S
C536 C532 1.531 . S
C536 H548 0.960 . S
C536 H549 0.962 . S
C536 H550 0.960 . S
C537 C534 1.511 . S
C537 H551 0.961 . S
C537 H552 0.961 . S
C537 H553 0.961 . S
C538 C539 1.370 . S
C538 C540 1.363 . S
C538 H554 0.931 . S
C539 C538 1.370 . S
C539 C543 1.408 . S
C540 C538 1.363 . S
C540 C541 1.370 . S
C540 C544 1.524 . S
C541 C533 1.503 . S
C541 C540 1.370 . S
C541 C542 1.403 . S
C542 C541 1.403 . S
C542 C543 1.404 . S
C542 C545 1.539 . S
C543 C539 1.408 . S
C543 C542 1.404 . S
C543 H555 0.930 . S
C544 C540 1.524 . S
C544 H556 0.956 . S
C544 H557 0.961 . S
C544 H558 0.961 . S
C545 C542 1.539 . S
C545 H559 0.958 . S
C545 H560 0.961 . S
C545 H561 0.960 . S
H546 C530 0.931 . S
H547 C535 0.929 . S
H548 C536 0.960 . S
H549 C536 0.962 . S
H550 C536 0.960 . S
H551 C537 0.961 . S
H552 C537 0.961 . S
H553 C537 0.961 . S
H554 C538 0.931 . S
H555 C543 0.930 . S
H556 C544 0.956 . S
H557 C544 0.961 . S
H558 C544 0.961 . S
H559 C545 0.958 . S
H560 C545 0.961 . S
H561 C545 0.960 . S
C562 C563 1.391 . S
C562 C564 1.394 . S
C562 H578 0.931 . S
C563 C562 1.391 . S
C563 C567 1.376 . S
C564 C562 1.394 . S
C564 C565 1.369 . S
C564 C568 1.531 . S
C565 C564 1.369 . S
C565 C566 1.410 . S
C565 C573 1.503 . S
C566 C565 1.410 . S
C566 C567 1.392 . S
C566 C569 1.511 . S
C567 C563 1.376 . S
C567 C566 1.392 . S
C567 H579 0.929 . S
C568 C564 1.531 . S
C568 H580 0.960 . S
C568 H581 0.962 . S
C568 H582 0.960 . S
C569 C566 1.511 . S
C569 H583 0.961 . S
C569 H584 0.961 . S
C569 H585 0.961 . S
C570 C571 1.370 . S
C570 C572 1.363 . S
C570 H586 0.931 . S
C571 C570 1.370 . S
C571 C575 1.408 . S
C572 C570 1.363 . S
C572 C573 1.370 . S
C572 C576 1.524 . S
C573 C565 1.503 . S
C573 C572 1.370 . S
C573 C574 1.403 . S
C574 C573 1.403 . S
C574 C575 1.404 . S
C574 C577 1.539 . S
C575 C571 1.408 . S
C575 C574 1.404 . S
C575 H587 0.930 . S
C576 C572 1.524 . S
C576 H588 0.956 . S
C576 H589 0.961 . S
C576 H590 0.961 . S
C577 C574 1.539 . S
C577 H591 0.958 . S
C577 H592 0.961 . S
C577 H593 0.960 . S
H578 C562 0.931 . S
H579 C567 0.929 . S
H580 C568 0.960 . S
H581 C568 0.962 . S
H582 C568 0.960 . S
H583 C569 0.961 . S
H584 C569 0.961 . S
H585 C569 0.961 . S
H586 C570 0.931 . S
H587 C575 0.930 . S
H588 C576 0.956 . S
H589 C576 0.961 . S
H590 C576 0.961 . S
H591 C577 0.958 . S
H592 C577 0.961 . S
H593 C577 0.960 . S
C594 C595 1.391 . S
C594 C596 1.394 . S
C594 H610 0.931 . S
C595 C594 1.391 . S
C595 C599 1.376 . S
C596 C594 1.394 . S
C596 C597 1.369 . S
C596 C600 1.531 . S
C597 C596 1.369 . S
C597 C598 1.410 . S
C597 C605 1.503 . S
C598 C597 1.410 . S
C598 C599 1.392 . S
C598 C601 1.511 . S
C599 C595 1.376 . S
C599 C598 1.392 . S
C599 H611 0.929 . S
C600 C596 1.531 . S
C600 H612 0.960 . S
C600 H613 0.962 . S
C600 H614 0.960 . S
C601 C598 1.511 . S
C601 H615 0.961 . S
C601 H616 0.961 . S
C601 H617 0.961 . S
C602 C603 1.370 . S
C602 C604 1.363 . S
C602 H618 0.931 . S
C603 C602 1.370 . S
C603 C607 1.408 . S
C604 C602 1.363 . S
C604 C605 1.370 . S
C604 C608 1.524 . S
C605 C597 1.503 . S
C605 C604 1.370 . S
C605 C606 1.403 . S
C606 C605 1.403 . S
C606 C607 1.404 . S
C606 C609 1.539 . S
C607 C603 1.408 . S
C607 C606 1.404 . S
C607 H619 0.930 . S
C608 C604 1.524 . S
C608 H620 0.956 . S
C608 H621 0.961 . S
C608 H622 0.961 . S
C609 C606 1.539 . S
C609 H623 0.958 . S
C609 H624 0.961 . S
C609 H625 0.960 . S
H610 C594 0.931 . S
H611 C599 0.929 . S
H612 C600 0.960 . S
H613 C600 0.962 . S
H614 C600 0.960 . S
H615 C601 0.961 . S
H616 C601 0.961 . S
H617 C601 0.961 . S
H618 C602 0.931 . S
H619 C607 0.930 . S
H620 C608 0.956 . S
H621 C608 0.961 . S
H622 C608 0.961 . S
H623 C609 0.958 . S
H624 C609 0.961 . S
H625 C609 0.960 . S
C626 C627 1.391 . S
C626 C628 1.394 . S
C626 H642 0.931 . S
C627 C626 1.391 . S
C627 C631 1.376 . S
C628 C626 1.394 . S
C628 C629 1.369 . S
C628 C632 1.531 . S
C629 C628 1.369 . S
C629 C630 1.410 . S
C629 C637 1.503 . S
C630 C629 1.410 . S
C630 C631 1.392 . S
C630 C633 1.511 . S
C631 C627 1.376 . S
C631 C630 1.392 . S
C631 H643 0.929 . S
C632 C628 1.531 . S
C632 H644 0.960 . S
C632 H645 0.962 . S
C632 H646 0.960 . S
C633 C630 1.511 . S
C633 H647 0.961 . S
C633 H648 0.961 . S
C633 H649 0.961 . S
C634 C635 1.370 . S
C634 C636 1.363 . S
C634 H650 0.931 . S
C635 C634 1.370 . S
C635 C639 1.408 . S
C636 C634 1.363 . S
C636 C637 1.370 . S
C636 C640 1.524 . S
C637 C629 1.503 . S
C637 C636 1.370 . S
C637 C638 1.403 . S
C638 C637 1.403 . S
C638 C639 1.404 . S
C638 C641 1.539 . S
C639 C635 1.408 . S
C639 C638 1.404 . S
C639 H651 0.930 . S
C640 C636 1.524 . S
C640 H652 0.956 . S
C640 H653 0.961 . S
C640 H654 0.961 . S
C641 C638 1.539 . S
C641 H655 0.958 . S
C641 H656 0.961 . S
C641 H657 0.960 . S
H642 C626 0.931 . S
H643 C631 0.929 . S
H644 C632 0.960 . S
H645 C632 0.962 . S
H646 C632 0.960 . S
H647 C633 0.961 . S
H648 C633 0.961 . S
H649 C633 0.961 . S
H650 C634 0.931 . S
H651 C639 0.930 . S
H652 C640 0.956 . S
H653 C640 0.961 . S
H654 C640 0.961 . S
H655 C641 0.958 . S
H656 C641 0.961 . S
H657 C641 0.960 . S
C658 C659 1.391 . S
C658 C660 1.394 . S
C658 H674 0.931 . S
C659 C658 1.391 . S
C659 C663 1.376 . S
C660 C658 1.394 . S
C660 C661 1.369 . S
C660 C664 1.531 . S
C661 C660 1.369 . S
C661 C662 1.410 . S
C661 C669 1.503 . S
C662 C661 1.410 . S
C662 C663 1.392 . S
C662 C665 1.511 . S
C663 C659 1.376 . S
C663 C662 1.392 . S
C663 H675 0.929 . S
C664 C660 1.531 . S
C664 H676 0.960 . S
C664 H677 0.962 . S
C664 H678 0.960 . S
C665 C662 1.511 . S
C665 H679 0.961 . S
C665 H680 0.961 . S
C665 H681 0.961 . S
C666 C667 1.370 . S
C666 C668 1.363 . S
C666 H682 0.931 . S
C667 C666 1.370 . S
C667 C671 1.408 . S
C668 C666 1.363 . S
C668 C669 1.370 . S
C668 C672 1.524 . S
C669 C661 1.503 . S
C669 C668 1.370 . S
C669 C670 1.403 . S
C670 C669 1.403 . S
C670 C671 1.404 . S
C670 C673 1.539 . S
C671 C667 1.408 . S
C671 C670 1.404 . S
C671 H683 0.930 . S
C672 C668 1.524 . S
C672 H684 0.956 . S
C672 H685 0.961 . S
C672 H686 0.961 . S
C673 C670 1.539 . S
C673 H687 0.958 . S
C673 H688 0.961 . S
C673 H689 0.960 . S
H674 C658 0.931 . S
H675 C663 0.929 . S
H676 C664 0.960 . S
H677 C664 0.962 . S
H678 C664 0.960 . S
H679 C665 0.961 . S
H680 C665 0.961 . S
H681 C665 0.961 . S
H682 C666 0.931 . S
H683 C671 0.930 . S
H684 C672 0.956 . S
H685 C672 0.961 . S
H686 C672 0.961 . S
H687 C673 0.958 . S
H688 C673 0.961 . S
H689 C673 0.960 . S
C690 C691 1.391 . S
C690 C692 1.394 . S
C690 H706 0.931 . S
C691 C690 1.391 . S
C691 C695 1.376 . S
C692 C690 1.394 . S
C692 C693 1.369 . S
C692 C696 1.531 . S
C693 C692 1.369 . S
C693 C694 1.410 . S
C693 C701 1.503 . S
C694 C693 1.410 . S
C694 C695 1.392 . S
C694 C697 1.511 . S
C695 C691 1.376 . S
C695 C694 1.392 . S
C695 H707 0.929 . S
C696 C692 1.531 . S
C696 H708 0.960 . S
C696 H709 0.962 . S
C696 H710 0.960 . S
C697 C694 1.511 . S
C697 H711 0.961 . S
C697 H712 0.961 . S
C697 H713 0.961 . S
C698 C699 1.370 . S
C698 C700 1.363 . S
C698 H714 0.931 . S
C699 C698 1.370 . S
C699 C703 1.408 . S
C700 C698 1.363 . S
C700 C701 1.370 . S
C700 C704 1.524 . S
C701 C693 1.503 . S
C701 C700 1.370 . S
C701 C702 1.403 . S
C702 C701 1.403 . S
C702 C703 1.404 . S
C702 C705 1.539 . S
C703 C699 1.408 . S
C703 C702 1.404 . S
C703 H715 0.930 . S
C704 C700 1.524 . S
C704 H716 0.956 . S
C704 H717 0.961 . S
C704 H718 0.961 . S
C705 C702 1.539 . S
C705 H719 0.958 . S
C705 H720 0.961 . S
C705 H721 0.960 . S
H706 C690 0.931 . S
H707 C695 0.929 . S
H708 C696 0.960 . S
H709 C696 0.962 . S
H710 C696 0.960 . S
H711 C697 0.961 . S
H712 C697 0.961 . S
H713 C697 0.961 . S
H714 C698 0.931 . S
H715 C703 0.930 . S
H716 C704 0.956 . S
H717 C704 0.961 . S
H718 C704 0.961 . S
H719 C705 0.958 . S
H720 C705 0.961 . S
H721 C705 0.960 . S
C722 C723 1.391 . S
C722 C724 1.394 . S
C722 H738 0.931 . S
C723 C722 1.391 . S
C723 C727 1.376 . S
C724 C722 1.394 . S
C724 C725 1.369 . S
C724 C728 1.531 . S
C725 C724 1.369 . S
C725 C726 1.410 . S
C725 C733 1.503 . S
C726 C725 1.410 . S
C726 C727 1.392 . S
C726 C729 1.511 . S
C727 C723 1.376 . S
C727 C726 1.392 . S
C727 H739 0.929 . S
C728 C724 1.531 . S
C728 H740 0.960 . S
C728 H741 0.962 . S
C728 H742 0.960 . S
C729 C726 1.511 . S
C729 H743 0.961 . S
C729 H744 0.961 . S
C729 H745 0.961 . S
C730 C731 1.370 . S
C730 C732 1.363 . S
C730 H746 0.931 . S
C731 C730 1.370 . S
C731 C735 1.408 . S
C732 C730 1.363 . S
C732 C733 1.370 . S
C732 C736 1.524 . S
C733 C725 1.503 . S
C733 C732 1.370 . S
C733 C734 1.403 . S
C734 C733 1.403 . S
C734 C735 1.404 . S
C734 C737 1.539 . S
C735 C731 1.408 . S
C735 C734 1.404 . S
C735 H747 0.930 . S
C736 C732 1.524 . S
C736 H748 0.956 . S
C736 H749 0.961 . S
C736 H750 0.961 . S
C737 C734 1.539 . S
C737 H751 0.958 . S
C737 H752 0.961 . S
C737 H753 0.960 . S
H738 C722 0.931 . S
H739 C727 0.929 . S
H740 C728 0.960 . S
H741 C728 0.962 . S
H742 C728 0.960 . S
H743 C729 0.961 . S
H744 C729 0.961 . S
H745 C729 0.961 . S
H746 C730 0.931 . S
H747 C735 0.930 . S
H748 C736 0.956 . S
H749 C736 0.961 . S
H750 C736 0.961 . S
H751 C737 0.958 . S
H752 C737 0.961 . S
H753 C737 0.960 . S
C754 C755 1.391 . S
C754 C756 1.394 . S
C754 H770 0.931 . S
C755 C754 1.391 . S
C755 C759 1.376 . S
C756 C754 1.394 . S
C756 C757 1.369 . S
C756 C760 1.531 . S
C757 C756 1.369 . S
C757 C758 1.410 . S
C757 C765 1.503 . S
C758 C757 1.410 . S
C758 C759 1.392 . S
C758 C761 1.511 . S
C759 C755 1.376 . S
C759 C758 1.392 . S
C759 H771 0.929 . S
C760 C756 1.531 . S
C760 H772 0.960 . S
C760 H773 0.962 . S
C760 H774 0.960 . S
C761 C758 1.511 . S
C761 H775 0.961 . S
C761 H776 0.961 . S
C761 H777 0.961 . S
C762 C763 1.370 . S
C762 C764 1.363 . S
C762 H778 0.931 . S
C763 C762 1.370 . S
C763 C767 1.408 . S
C764 C762 1.363 . S
C764 C765 1.370 . S
C764 C768 1.524 . S
C765 C757 1.503 . S
C765 C764 1.370 . S
C765 C766 1.403 . S
C766 C765 1.403 . S
C766 C767 1.404 . S
C766 C769 1.539 . S
C767 C763 1.408 . S
C767 C766 1.404 . S
C767 H779 0.930 . S
C768 C764 1.524 . S
C768 H780 0.956 . S
C768 H781 0.961 . S
C768 H782 0.961 . S
C769 C766 1.539 . S
C769 H783 0.958 . S
C769 H784 0.961 . S
C769 H785 0.960 . S
H770 C754 0.931 . S
H771 C759 0.929 . S
H772 C760 0.960 . S
H773 C760 0.962 . S
H774 C760 0.960 . S
H775 C761 0.961 . S
H776 C761 0.961 . S
H777 C761 0.961 . S
H778 C762 0.931 . S
H779 C767 0.930 . S
H780 C768 0.956 . S
H781 C768 0.961 . S
H782 C768 0.961 . S
H783 C769 0.958 . S
H784 C769 0.961 . S
H785 C769 0.960 . S
C786 C787 1.391 . S
C786 C788 1.394 . S
C786 H802 0.931 . S
C787 C786 1.391 . S
C787 C791 1.376 . S
C788 C786 1.394 . S
C788 C789 1.369 . S
C788 C792 1.531 . S
C789 C788 1.369 . S
C789 C790 1.410 . S
C789 C797 1.503 . S
C790 C789 1.410 . S
C790 C791 1.392 . S
C790 C793 1.511 . S
C791 C787 1.376 . S
C791 C790 1.392 . S
C791 H803 0.929 . S
C792 C788 1.531 . S
C792 H804 0.960 . S
C792 H805 0.962 . S
C792 H806 0.960 . S
C793 C790 1.511 . S
C793 H807 0.961 . S
C793 H808 0.961 . S
C793 H809 0.961 . S
C794 C795 1.370 . S
C794 C796 1.363 . S
C794 H810 0.931 . S
C795 C794 1.370 . S
C795 C799 1.408 . S
C796 C794 1.363 . S
C796 C797 1.370 . S
C796 C800 1.524 . S
C797 C789 1.503 . S
C797 C796 1.370 . S
C797 C798 1.403 . S
C798 C797 1.403 . S
C798 C799 1.404 . S
C798 C801 1.539 . S
C799 C795 1.408 . S
C799 C798 1.404 . S
C799 H811 0.930 . S
C800 C796 1.524 . S
C800 H812 0.956 . S
C800 H813 0.961 . S
C800 H814 0.961 . S
C801 C798 1.539 . S
C801 H815 0.958 . S
C801 H816 0.961 . S
C801 H817 0.960 . S
H802 C786 0.931 . S
H803 C791 0.929 . S
H804 C792 0.960 . S
H805 C792 0.962 . S
H806 C792 0.960 . S
H807 C793 0.961 . S
H808 C793 0.961 . S
H809 C793 0.961 . S
H810 C794 0.931 . S
H811 C799 0.930 . S
H812 C800 0.956 . S
H813 C800 0.961 . S
H814 C800 0.961 . S
H815 C801 0.958 . S
H816 C801 0.961 . S
H817 C801 0.960 . S
C818 C819 1.391 . S
C818 C820 1.394 . S
C818 H834 0.931 . S
C819 C818 1.391 . S
C819 C823 1.376 . S
C820 C818 1.394 . S
C820 C821 1.369 . S
C820 C824 1.531 . S
C821 C820 1.369 . S
C821 C822 1.410 . S
C821 C829 1.503 . S
C822 C821 1.410 . S
C822 C823 1.392 . S
C822 C825 1.511 . S
C823 C819 1.376 . S
C823 C822 1.392 . S
C823 H835 0.929 . S
C824 C820 1.531 . S
C824 H836 0.960 . S
C824 H837 0.962 . S
C824 H838 0.960 . S
C825 C822 1.511 . S
C825 H839 0.961 . S
C825 H840 0.961 . S
C825 H841 0.961 . S
C826 C827 1.370 . S
C826 C828 1.363 . S
C826 H842 0.931 . S
C827 C826 1.370 . S
C827 C831 1.408 . S
C828 C826 1.363 . S
C828 C829 1.370 . S
C828 C832 1.524 . S
C829 C821 1.503 . S
C829 C828 1.370 . S
C829 C830 1.403 . S
C830 C829 1.403 . S
C830 C831 1.404 . S
C830 C833 1.539 . S
C831 C827 1.408 . S
C831 C830 1.404 . S
C831 H843 0.930 . S
C832 C828 1.524 . S
C832 H844 0.956 . S
C832 H845 0.961 . S
C832 H846 0.961 . S
C833 C830 1.539 . S
C833 H847 0.958 . S
C833 H848 0.961 . S
C833 H849 0.960 . S
H834 C818 0.931 . S
H835 C823 0.929 . S
H836 C824 0.960 . S
H837 C824 0.962 . S
H838 C824 0.960 . S
H839 C825 0.961 . S
H840 C825 0.961 . S
H841 C825 0.961 . S
H842 C826 0.931 . S
H843 C831 0.930 . S
H844 C832 0.956 . S
H845 C832 0.961 . S
H846 C832 0.961 . S
H847 C833 0.958 . S
H848 C833 0.961 . S
H849 C833 0.960 . S
C850 C851 1.391 . S
C850 C852 1.394 . S
C850 H866 0.931 . S
C851 C850 1.391 . S
C851 C855 1.376 . S
C852 C850 1.394 . S
C852 C853 1.369 . S
C852 C856 1.531 . S
C853 C852 1.369 . S
C853 C854 1.410 . S
C853 C861 1.503 . S
C854 C853 1.410 . S
C854 C855 1.392 . S
C854 C857 1.511 . S
C855 C851 1.376 . S
C855 C854 1.392 . S
C855 H867 0.929 . S
C856 C852 1.531 . S
C856 H868 0.960 . S
C856 H869 0.962 . S
C856 H870 0.960 . S
C857 C854 1.511 . S
C857 H871 0.961 . S
C857 H872 0.961 . S
C857 H873 0.961 . S
C858 C859 1.370 . S
C858 C860 1.363 . S
C858 H874 0.931 . S
C859 C858 1.370 . S
C859 C863 1.408 . S
C860 C858 1.363 . S
C860 C861 1.370 . S
C860 C864 1.524 . S
C861 C853 1.503 . S
C861 C860 1.370 . S
C861 C862 1.403 . S
C862 C861 1.403 . S
C862 C863 1.404 . S
C862 C865 1.539 . S
C863 C859 1.408 . S
C863 C862 1.404 . S
C863 H875 0.930 . S
C864 C860 1.524 . S
C864 H876 0.956 . S
C864 H877 0.961 . S
C864 H878 0.961 . S
C865 C862 1.539 . S
C865 H879 0.958 . S
C865 H880 0.961 . S
C865 H881 0.960 . S
H866 C850 0.931 . S
H867 C855 0.929 . S
H868 C856 0.960 . S
H869 C856 0.962 . S
H870 C856 0.960 . S
H871 C857 0.961 . S
H872 C857 0.961 . S
H873 C857 0.961 . S
H874 C858 0.931 . S
H875 C863 0.930 . S
H876 C864 0.956 . S
H877 C864 0.961 . S
H878 C864 0.961 . S
H879 C865 0.958 . S
H880 C865 0.961 . S
H881 C865 0.960 . S
C882 C883 1.391 . S
C882 C884 1.394 . S
C882 H898 0.931 . S
C883 C882 1.391 . S
C883 C887 1.376 . S
C884 C882 1.394 . S
C884 C885 1.369 . S
C884 C888 1.531 . S
C885 C884 1.369 . S
C885 C886 1.410 . S
C885 C893 1.503 . S
C886 C885 1.410 . S
C886 C887 1.392 . S
C886 C889 1.511 . S
C887 C883 1.376 . S
C887 C886 1.392 . S
C887 H899 0.929 . S
C888 C884 1.531 . S
C888 H900 0.960 . S
C888 H901 0.962 . S
C888 H902 0.960 . S
C889 C886 1.511 . S
C889 H903 0.961 . S
C889 H904 0.961 . S
C889 H905 0.961 . S
C890 C891 1.370 . S
C890 C892 1.363 . S
C890 H906 0.931 . S
C891 C890 1.370 . S
C891 C895 1.408 . S
C892 C890 1.363 . S
C892 C893 1.370 . S
C892 C896 1.524 . S
C893 C885 1.503 . S
C893 C892 1.370 . S
C893 C894 1.403 . S
C894 C893 1.403 . S
C894 C895 1.404 . S
C894 C897 1.539 . S
C895 C891 1.408 . S
C895 C894 1.404 . S
C895 H907 0.930 . S
C896 C892 1.524 . S
C896 H908 0.956 . S
C896 H909 0.961 . S
C896 H910 0.961 . S
C897 C894 1.539 . S
C897 H911 0.958 . S
C897 H912 0.961 . S
C897 H913 0.960 . S
H898 C882 0.931 . S
H899 C887 0.929 . S
H900 C888 0.960 . S
H901 C888 0.962 . S
H902 C888 0.960 . S
H903 C889 0.961 . S
H904 C889 0.961 . S
H905 C889 0.961 . S
H906 C890 0.931 . S
H907 C895 0.930 . S
H908 C896 0.956 . S
H909 C896 0.961 . S
H910 C896 0.961 . S
H911 C897 0.958 . S
H912 C897 0.961 . S
H913 C897 0.960 . S
C914 C915 1.391 . S
C914 C916 1.394 . S
C914 H930 0.931 . S
C915 C914 1.391 . S
C915 C919 1.376 . S
C916 C914 1.394 . S
C916 C917 1.369 . S
C916 C920 1.531 . S
C917 C916 1.369 . S
C917 C918 1.410 . S
C917 C925 1.503 . S
C918 C917 1.410 . S
C918 C919 1.392 . S
C918 C921 1.511 . S
C919 C915 1.376 . S
C919 C918 1.392 . S
C919 H931 0.929 . S
C920 C916 1.531 . S
C920 H932 0.960 . S
C920 H933 0.962 . S
C920 H934 0.960 . S
C921 C918 1.511 . S
C921 H935 0.961 . S
C921 H936 0.961 . S
C921 H937 0.961 . S
C922 C923 1.370 . S
C922 C924 1.363 . S
C922 H938 0.931 . S
C923 C922 1.370 . S
C923 C927 1.408 . S
C924 C922 1.363 . S
C924 C925 1.370 . S
C924 C928 1.524 . S
C925 C917 1.503 . S
C925 C924 1.370 . S
C925 C926 1.403 . S
C926 C925 1.403 . S
C926 C927 1.404 . S
C926 C929 1.539 . S
C927 C923 1.408 . S
C927 C926 1.404 . S
C927 H939 0.930 . S
C928 C924 1.524 . S
C928 H940 0.956 . S
C928 H941 0.961 . S
C928 H942 0.961 . S
C929 C926 1.539 . S
C929 H943 0.958 . S
C929 H944 0.961 . S
C929 H945 0.960 . S
H930 C914 0.931 . S
H931 C919 0.929 . S
H932 C920 0.960 . S
H933 C920 0.962 . S
H934 C920 0.960 . S
H935 C921 0.961 . S
H936 C921 0.961 . S
H937 C921 0.961 . S
H938 C922 0.931 . S
H939 C927 0.930 . S
H940 C928 0.956 . S
H941 C928 0.961 . S
H942 C928 0.961 . S
H943 C929 0.958 . S
H944 C929 0.961 . S
H945 C929 0.960 . S
C946 C947 1.391 . S
C946 C948 1.394 . S
C946 H962 0.931 . S
C947 C946 1.391 . S
C947 C951 1.376 . S
C948 C946 1.394 . S
C948 C949 1.369 . S
C948 C952 1.531 . S
C949 C948 1.369 . S
C949 C950 1.410 . S
C949 C957 1.503 . S
C950 C949 1.410 . S
C950 C951 1.392 . S
C950 C953 1.511 . S
C951 C947 1.376 . S
C951 C950 1.392 . S
C951 H963 0.929 . S
C952 C948 1.531 . S
C952 H964 0.960 . S
C952 H965 0.962 . S
C952 H966 0.960 . S
C953 C950 1.511 . S
C953 H967 0.961 . S
C953 H968 0.961 . S
C953 H969 0.961 . S
C954 C955 1.370 . S
C954 C956 1.363 . S
C954 H970 0.931 . S
C955 C954 1.370 . S
C955 C959 1.408 . S
C956 C954 1.363 . S
C956 C957 1.370 . S
C956 C960 1.524 . S
C957 C949 1.503 . S
C957 C956 1.370 . S
C957 C958 1.403 . S
C958 C957 1.403 . S
C958 C959 1.404 . S
C958 C961 1.539 . S
C959 C955 1.408 . S
C959 C958 1.404 . S
C959 H971 0.930 . S
C960 C956 1.524 . S
C960 H972 0.956 . S
C960 H973 0.961 . S
C960 H974 0.961 . S
C961 C958 1.539 . S
C961 H975 0.958 . S
C961 H976 0.961 . S
C961 H977 0.960 . S
H962 C946 0.931 . S
H963 C951 0.929 . S
H964 C952 0.960 . S
H965 C952 0.962 . S
H966 C952 0.960 . S
H967 C953 0.961 . S
H968 C953 0.961 . S
H969 C953 0.961 . S
H970 C954 0.931 . S
H971 C959 0.930 . S
H972 C960 0.956 . S
H973 C960 0.961 . S
H974 C960 0.961 . S
H975 C961 0.958 . S
H976 C961 0.961 . S
H977 C961 0.960 . S
C978 C979 1.391 . S
C978 C980 1.394 . S
C978 H994 0.931 . S
C979 C978 1.391 . S
C979 C983 1.376 . S
C980 C978 1.394 . S
C980 C981 1.369 . S
C980 C984 1.531 . S
C981 C980 1.369 . S
C981 C982 1.410 . S
C981 C989 1.503 . S
C982 C981 1.410 . S
C982 C983 1.392 . S
C982 C985 1.511 . S
C983 C979 1.376 . S
C983 C982 1.392 . S
C983 H995 0.929 . S
C984 C980 1.531 . S
C984 H996 0.960 . S
C984 H997 0.962 . S
C984 H998 0.960 . S
C985 C982 1.511 . S
C985 H999 0.961 . S
C985 H1000 0.961 . S
C985 H1001 0.961 . S
C986 C987 1.370 . S
C986 C988 1.363 . S
C986 H1002 0.931 . S
C987 C986 1.370 . S
C987 C991 1.408 . S
C988 C986 1.363 . S
C988 C989 1.370 . S
C988 C992 1.524 . S
C989 C981 1.503 . S
C989 C988 1.370 . S
C989 C990 1.403 . S
C990 C989 1.403 . S
C990 C991 1.404 . S
C990 C993 1.539 . S
C991 C987 1.408 . S
C991 C990 1.404 . S
C991 H1003 0.930 . S
C992 C988 1.524 . S
C992 H1004 0.956 . S
C992 H1005 0.961 . S
C992 H1006 0.961 . S
C993 C990 1.539 . S
C993 H1007 0.958 . S
C993 H1008 0.961 . S
C993 H1009 0.960 . S
H994 C978 0.931 . S
H995 C983 0.929 . S
H996 C984 0.960 . S
H997 C984 0.962 . S
H998 C984 0.960 . S
H999 C985 0.961 . S
H1000 C985 0.961 . S
H1001 C985 0.961 . S
H1002 C986 0.931 . S
H1003 C991 0.930 . S
H1004 C992 0.956 . S
H1005 C992 0.961 . S
H1006 C992 0.961 . S
H1007 C993 0.958 . S
H1008 C993 0.961 . S
H1009 C993 0.960 . S
C1010 C1011 1.391 . S
C1010 C1012 1.394 . S
C1010 H1026 0.931 . S
C1011 C1010 1.391 . S
C1011 C1015 1.376 . S
C1012 C1010 1.394 . S
C1012 C1013 1.369 . S
C1012 C1016 1.531 . S
C1013 C1012 1.369 . S
C1013 C1014 1.410 . S
C1013 C1021 1.503 . S
C1014 C1013 1.410 . S
C1014 C1015 1.392 . S
C1014 C1017 1.511 . S
C1015 C1011 1.376 . S
C1015 C1014 1.392 . S
C1015 H1027 0.929 . S
C1016 C1012 1.531 . S
C1016 H1028 0.960 . S
C1016 H1029 0.962 . S
C1016 H1030 0.960 . S
C1017 C1014 1.511 . S
C1017 H1031 0.961 . S
C1017 H1032 0.961 . S
C1017 H1033 0.961 . S
C1018 C1019 1.370 . S
C1018 C1020 1.363 . S
C1018 H1034 0.931 . S
C1019 C1018 1.370 . S
C1019 C1023 1.408 . S
C1020 C1018 1.363 . S
C1020 C1021 1.370 . S
C1020 C1024 1.524 . S
C1021 C1013 1.503 . S
C1021 C1020 1.370 . S
C1021 C1022 1.403 . S
C1022 C1021 1.403 . S
C1022 C1023 1.404 . S
C1022 C1025 1.539 . S
C1023 C1019 1.408 . S
C1023 C1022 1.404 . S
C1023 H1035 0.930 . S
C1024 C1020 1.524 . S
C1024 H1036 0.956 . S
C1024 H1037 0.961 . S
C1024 H1038 0.961 . S
C1025 C1022 1.539 . S
C1025 H1039 0.958 . S
C1025 H1040 0.961 . S
C1025 H1041 0.960 . S
H1026 C1010 0.931 . S
H1027 C1015 0.929 . S
H1028 C1016 0.960 . S
H1029 C1016 0.962 . S
H1030 C1016 0.960 . S
H1031 C1017 0.961 . S
H1032 C1017 0.961 . S
H1033 C1017 0.961 . S
H1034 C1018 0.931 . S
H1035 C1023 0.930 . S
H1036 C1024 0.956 . S
H1037 C1024 0.961 . S
H1038 C1024 0.961 . S
H1039 C1025 0.958 . S
H1040 C1025 0.961 . S
H1041 C1025 0.960 . S
C1042 C1043 1.391 . S
C1042 C1044 1.394 . S
C1042 H1058 0.931 . S
C1043 C1042 1.391 . S
C1043 C1047 1.376 . S
C1044 C1042 1.394 . S
C1044 C1045 1.369 . S
C1044 C1048 1.531 . S
C1045 C1044 1.369 . S
C1045 C1046 1.410 . S
C1045 C1053 1.503 . S
C1046 C1045 1.410 . S
C1046 C1047 1.392 . S
C1046 C1049 1.511 . S
C1047 C1043 1.376 . S
C1047 C1046 1.392 . S
C1047 H1059 0.929 . S
C1048 C1044 1.531 . S
C1048 H1060 0.960 . S
C1048 H1061 0.962 . S
C1048 H1062 0.960 . S
C1049 C1046 1.511 . S
C1049 H1063 0.961 . S
C1049 H1064 0.961 . S
C1049 H1065 0.961 . S
C1050 C1051 1.370 . S
C1050 C1052 1.363 . S
C1050 H1066 0.931 . S
C1051 C1050 1.370 . S
C1051 C1055 1.408 . S
C1052 C1050 1.363 . S
C1052 C1053 1.370 . S
C1052 C1056 1.524 . S
C1053 C1045 1.503 . S
C1053 C1052 1.370 . S
C1053 C1054 1.403 . S
C1054 C1053 1.403 . S
C1054 C1055 1.404 . S
C1054 C1057 1.539 . S
C1055 C1051 1.408 . S
C1055 C1054 1.404 . S
C1055 H1067 0.930 . S
C1056 C1052 1.524 . S
C1056 H1068 0.956 . S
C1056 H1069 0.961 . S
C1056 H1070 0.961 . S
C1057 C1054 1.539 . S
C1057 H1071 0.958 . S
C1057 H1072 0.961 . S
C1057 H1073 0.960 . S
H1058 C1042 0.931 . S
H1059 C1047 0.929 . S
H1060 C1048 0.960 . S
H1061 C1048 0.962 . S
H1062 C1048 0.960 . S
H1063 C1049 0.961 . S
H1064 C1049 0.961 . S
H1065 C1049 0.961 . S
H1066 C1050 0.931 . S
H1067 C1055 0.930 . S
H1068 C1056 0.956 . S
H1069 C1056 0.961 . S
H1070 C1056 0.961 . S
H1071 C1057 0.958 . S
H1072 C1057 0.961 . S
H1073 C1057 0.960 . S
C1074 C1075 1.391 . S
C1074 C1076 1.394 . S
C1074 H1090 0.931 . S
C1075 C1074 1.391 . S
C1075 C1079 1.376 . S
C1076 C1074 1.394 . S
C1076 C1077 1.369 . S
C1076 C1080 1.531 . S
C1077 C1076 1.369 . S
C1077 C1078 1.410 . S
C1077 C1085 1.503 . S
C1078 C1077 1.410 . S
C1078 C1079 1.392 . S
C1078 C1081 1.511 . S
C1079 C1075 1.376 . S
C1079 C1078 1.392 . S
C1079 H1091 0.929 . S
C1080 C1076 1.531 . S
C1080 H1092 0.960 . S
C1080 H1093 0.962 . S
C1080 H1094 0.960 . S
C1081 C1078 1.511 . S
C1081 H1095 0.961 . S
C1081 H1096 0.961 . S
C1081 H1097 0.961 . S
C1082 C1083 1.370 . S
C1082 C1084 1.363 . S
C1082 H1098 0.931 . S
C1083 C1082 1.370 . S
C1083 C1087 1.408 . S
C1084 C1082 1.363 . S
C1084 C1085 1.370 . S
C1084 C1088 1.524 . S
C1085 C1077 1.503 . S
C1085 C1084 1.370 . S
C1085 C1086 1.403 . S
C1086 C1085 1.403 . S
C1086 C1087 1.404 . S
C1086 C1089 1.539 . S
C1087 C1083 1.408 . S
C1087 C1086 1.404 . S
C1087 H1099 0.930 . S
C1088 C1084 1.524 . S
C1088 H1100 0.956 . S
C1088 H1101 0.961 . S
C1088 H1102 0.961 . S
C1089 C1086 1.539 . S
C1089 H1103 0.958 . S
C1089 H1104 0.961 . S
C1089 H1105 0.960 . S
H1090 C1074 0.931 . S
H1091 C1079 0.929 . S
H1092 C1080 0.960 . S
H1093 C1080 0.962 . S
H1094 C1080 0.960 . S
H1095 C1081 0.961 . S
H1096 C1081 0.961 . S
H1097 C1081 0.961 . S
H1098 C1082 0.931 . S
H1099 C1087 0.930 . S
H1100 C1088 0.956 . S
H1101 C1088 0.961 . S
H1102 C1088 0.961 . S
H1103 C1089 0.958 . S
H1104 C1089 0.961 . S
H1105 C1089 0.960 . S
C1106 C1107 1.391 . S
C1106 C1108 1.394 . S
C1106 H1122 0.931 . S
C1107 C1106 1.391 . S
C1107 C1111 1.376 . S
C1108 C1106 1.394 . S
C1108 C1109 1.369 . S
C1108 C1112 1.531 . S
C1109 C1108 1.369 . S
C1109 C1110 1.410 . S
C1109 C1117 1.503 . S
C1110 C1109 1.410 . S
C1110 C1111 1.392 . S
C1110 C1113 1.511 . S
C1111 C1107 1.376 . S
C1111 C1110 1.392 . S
C1111 H1123 0.929 . S
C1112 C1108 1.531 . S
C1112 H1124 0.960 . S
C1112 H1125 0.962 . S
C1112 H1126 0.960 . S
C1113 C1110 1.511 . S
C1113 H1127 0.961 . S
C1113 H1128 0.961 . S
C1113 H1129 0.961 . S
C1114 C1115 1.370 . S
C1114 C1116 1.363 . S
C1114 H1130 0.931 . S
C1115 C1114 1.370 . S
C1115 C1119 1.408 . S
C1116 C1114 1.363 . S
C1116 C1117 1.370 . S
C1116 C1120 1.524 . S
C1117 C1109 1.503 . S
C1117 C1116 1.370 . S
C1117 C1118 1.403 . S
C1118 C1117 1.403 . S
C1118 C1119 1.404 . S
C1118 C1121 1.539 . S
C1119 C1115 1.408 . S
C1119 C1118 1.404 . S
C1119 H1131 0.930 . S
C1120 C1116 1.524 . S
C1120 H1132 0.956 . S
C1120 H1133 0.961 . S
C1120 H1134 0.961 . S
C1121 C1118 1.539 . S
C1121 H1135 0.958 . S
C1121 H1136 0.961 . S
C1121 H1137 0.960 . S
H1122 C1106 0.931 . S
H1123 C1111 0.929 . S
H1124 C1112 0.960 . S
H1125 C1112 0.962 . S
H1126 C1112 0.960 . S
H1127 C1113 0.961 . S
H1128 C1113 0.961 . S
H1129 C1113 0.961 . S
H1130 C1114 0.931 . S
H1131 C1119 0.930 . S
H1132 C1120 0.956 . S
H1133 C1120 0.961 . S
H1134 C1120 0.961 . S
H1135 C1121 0.958 . S
H1136 C1121 0.961 . S
H1137 C1121 0.960 . S
C1138 C1139 1.391 . S
C1138 C1140 1.394 . S
C1138 H1154 0.931 . S
C1139 C1138 1.391 . S
C1139 C1143 1.376 . S
C1140 C1138 1.394 . S
C1140 C1141 1.369 . S
C1140 C1144 1.531 . S
C1141 C1140 1.369 . S
C1141 C1142 1.410 . S
C1141 C1149 1.503 . S
C1142 C1141 1.410 . S
C1142 C1143 1.392 . S
C1142 C1145 1.511 . S
C1143 C1139 1.376 . S
C1143 C1142 1.392 . S
C1143 H1155 0.929 . S
C1144 C1140 1.531 . S
C1144 H1156 0.960 . S
C1144 H1157 0.962 . S
C1144 H1158 0.960 . S
C1145 C1142 1.511 . S
C1145 H1159 0.961 . S
C1145 H1160 0.961 . S
C1145 H1161 0.961 . S
C1146 C1147 1.370 . S
C1146 C1148 1.363 . S
C1146 H1162 0.931 . S
C1147 C1146 1.370 . S
C1147 C1151 1.408 . S
C1148 C1146 1.363 . S
C1148 C1149 1.370 . S
C1148 C1152 1.524 . S
C1149 C1141 1.503 . S
C1149 C1148 1.370 . S
C1149 C1150 1.403 . S
C1150 C1149 1.403 . S
C1150 C1151 1.404 . S
C1150 C1153 1.539 . S
C1151 C1147 1.408 . S
C1151 C1150 1.404 . S
C1151 H1163 0.930 . S
C1152 C1148 1.524 . S
C1152 H1164 0.956 . S
C1152 H1165 0.961 . S
C1152 H1166 0.961 . S
C1153 C1150 1.539 . S
C1153 H1167 0.958 . S
C1153 H1168 0.961 . S
C1153 H1169 0.960 . S
H1154 C1138 0.931 . S
H1155 C1143 0.929 . S
H1156 C1144 0.960 . S
H1157 C1144 0.962 . S
H1158 C1144 0.960 . S
H1159 C1145 0.961 . S
H1160 C1145 0.961 . S
H1161 C1145 0.961 . S
H1162 C1146 0.931 . S
H1163 C1151 0.930 . S
H1164 C1152 0.956 . S
H1165 C1152 0.961 . S
H1166 C1152 0.961 . S
H1167 C1153 0.958 . S
H1168 C1153 0.961 . S
H1169 C1153 0.960 . S
C1170 C1171 1.391 . S
C1170 C1172 1.394 . S
C1170 H1186 0.931 . S
C1171 C1170 1.391 . S
C1171 C1175 1.376 . S
C1172 C1170 1.394 . S
C1172 C1173 1.369 . S
C1172 C1176 1.531 . S
C1173 C1172 1.369 . S
C1173 C1174 1.410 . S
C1173 C1181 1.503 . S
C1174 C1173 1.410 . S
C1174 C1175 1.392 . S
C1174 C1177 1.511 . S
C1175 C1171 1.376 . S
C1175 C1174 1.392 . S
C1175 H1187 0.929 . S
C1176 C1172 1.531 . S
C1176 H1188 0.960 . S
C1176 H1189 0.962 . S
C1176 H1190 0.960 . S
C1177 C1174 1.511 . S
C1177 H1191 0.961 . S
C1177 H1192 0.961 . S
C1177 H1193 0.961 . S
C1178 C1179 1.370 . S
C1178 C1180 1.363 . S
C1178 H1194 0.931 . S
C1179 C1178 1.370 . S
C1179 C1183 1.408 . S
C1180 C1178 1.363 . S
C1180 C1181 1.370 . S
C1180 C1184 1.524 . S
C1181 C1173 1.503 . S
C1181 C1180 1.370 . S
C1181 C1182 1.403 . S
C1182 C1181 1.403 . S
C1182 C1183 1.404 . S
C1182 C1185 1.539 . S
C1183 C1179 1.408 . S
C1183 C1182 1.404 . S
C1183 H1195 0.930 . S
C1184 C1180 1.524 . S
C1184 H1196 0.956 . S
C1184 H1197 0.961 . S
C1184 H1198 0.961 . S
C1185 C1182 1.539 . S
C1185 H1199 0.958 . S
C1185 H1200 0.961 . S
C1185 H1201 0.960 . S
H1186 C1170 0.931 . S
H1187 C1175 0.929 . S
H1188 C1176 0.960 . S
H1189 C1176 0.962 . S
H1190 C1176 0.960 . S
H1191 C1177 0.961 . S
H1192 C1177 0.961 . S
H1193 C1177 0.961 . S
H1194 C1178 0.931 . S
H1195 C1183 0.930 . S
H1196 C1184 0.956 . S
H1197 C1184 0.961 . S
H1198 C1184 0.961 . S
H1199 C1185 0.958 . S
H1200 C1185 0.961 . S
H1201 C1185 0.960 . S
C1202 C1203 1.391 . S
C1202 C1204 1.394 . S
C1202 H1218 0.931 . S
C1203 C1202 1.391 . S
C1203 C1207 1.376 . S
C1204 C1202 1.394 . S
C1204 C1205 1.369 . S
C1204 C1208 1.531 . S
C1205 C1204 1.369 . S
C1205 C1206 1.410 . S
C1205 C1213 1.503 . S
C1206 C1205 1.410 . S
C1206 C1207 1.392 . S
C1206 C1209 1.511 . S
C1207 C1203 1.376 . S
C1207 C1206 1.392 . S
C1207 H1219 0.929 . S
C1208 C1204 1.531 . S
C1208 H1220 0.960 . S
C1208 H1221 0.962 . S
C1208 H1222 0.960 . S
C1209 C1206 1.511 . S
C1209 H1223 0.961 . S
C1209 H1224 0.961 . S
C1209 H1225 0.961 . S
C1210 C1211 1.370 . S
C1210 C1212 1.363 . S
C1210 H1226 0.931 . S
C1211 C1210 1.370 . S
C1211 C1215 1.408 . S
C1212 C1210 1.363 . S
C1212 C1213 1.370 . S
C1212 C1216 1.524 . S
C1213 C1205 1.503 . S
C1213 C1212 1.370 . S
C1213 C1214 1.403 . S
C1214 C1213 1.403 . S
C1214 C1215 1.404 . S
C1214 C1217 1.539 . S
C1215 C1211 1.408 . S
C1215 C1214 1.404 . S
C1215 H1227 0.930 . S
C1216 C1212 1.524 . S
C1216 H1228 0.956 . S
C1216 H1229 0.961 . S
C1216 H1230 0.961 . S
C1217 C1214 1.539 . S
C1217 H1231 0.958 . S
C1217 H1232 0.961 . S
C1217 H1233 0.960 . S
H1218 C1202 0.931 . S
H1219 C1207 0.929 . S
H1220 C1208 0.960 . S
H1221 C1208 0.962 . S
H1222 C1208 0.960 . S
H1223 C1209 0.961 . S
H1224 C1209 0.961 . S
H1225 C1209 0.961 . S
H1226 C1210 0.931 . S
H1227 C1215 0.930 . S
H1228 C1216 0.956 . S
H1229 C1216 0.961 . S
H1230 C1216 0.961 . S
H1231 C1217 0.958 . S
H1232 C1217 0.961 . S
H1233 C1217 0.960 . S
C1234 C1235 1.391 . S
C1234 C1236 1.394 . S
C1234 H1250 0.931 . S
C1235 C1234 1.391 . S
C1235 C1239 1.376 . S
C1236 C1234 1.394 . S
C1236 C1237 1.369 . S
C1236 C1240 1.531 . S
C1237 C1236 1.369 . S
C1237 C1238 1.410 . S
C1237 C1245 1.503 . S
C1238 C1237 1.410 . S
C1238 C1239 1.392 . S
C1238 C1241 1.511 . S
C1239 C1235 1.376 . S
C1239 C1238 1.392 . S
C1239 H1251 0.929 . S
C1240 C1236 1.531 . S
C1240 H1252 0.960 . S
C1240 H1253 0.962 . S
C1240 H1254 0.960 . S
C1241 C1238 1.511 . S
C1241 H1255 0.961 . S
C1241 H1256 0.961 . S
C1241 H1257 0.961 . S
C1242 C1243 1.370 . S
C1242 C1244 1.363 . S
C1242 H1258 0.931 . S
C1243 C1242 1.370 . S
C1243 C1247 1.408 . S
C1244 C1242 1.363 . S
C1244 C1245 1.370 . S
C1244 C1248 1.524 . S
C1245 C1237 1.503 . S
C1245 C1244 1.370 . S
C1245 C1246 1.403 . S
C1246 C1245 1.403 . S
C1246 C1247 1.404 . S
C1246 C1249 1.539 . S
C1247 C1243 1.408 . S
C1247 C1246 1.404 . S
C1247 H1259 0.930 . S
C1248 C1244 1.524 . S
C1248 H1260 0.956 . S
C1248 H1261 0.961 . S
C1248 H1262 0.961 . S
C1249 C1246 1.539 . S
C1249 H1263 0.958 . S
C1249 H1264 0.961 . S
C1249 H1265 0.960 . S
H1250 C1234 0.931 . S
H1251 C1239 0.929 . S
H1252 C1240 0.960 . S
H1253 C1240 0.962 . S
H1254 C1240 0.960 . S
H1255 C1241 0.961 . S
H1256 C1241 0.961 . S
H1257 C1241 0.961 . S
H1258 C1242 0.931 . S
H1259 C1247 0.930 . S
H1260 C1248 0.956 . S
H1261 C1248 0.961 . S
H1262 C1248 0.961 . S
H1263 C1249 0.958 . S
H1264 C1249 0.961 . S
H1265 C1249 0.960 . S
C1266 C1267 1.391 . S
C1266 C1268 1.394 . S
C1266 H1282 0.931 . S
C1267 C1266 1.391 . S
C1267 C1271 1.376 . S
C1268 C1266 1.394 . S
C1268 C1269 1.369 . S
C1268 C1272 1.531 . S
C1269 C1268 1.369 . S
C1269 C1270 1.410 . S
C1269 C1277 1.503 . S
C1270 C1269 1.410 . S
C1270 C1271 1.392 . S
C1270 C1273 1.511 . S
C1271 C1267 1.376 . S
C1271 C1270 1.392 . S
C1271 H1283 0.929 . S
C1272 C1268 1.531 . S
C1272 H1284 0.960 . S
C1272 H1285 0.962 . S
C1272 H1286 0.960 . S
C1273 C1270 1.511 . S
C1273 H1287 0.961 . S
C1273 H1288 0.961 . S
C1273 H1289 0.961 . S
C1274 C1275 1.370 . S
C1274 C1276 1.363 . S
C1274 H1290 0.931 . S
C1275 C1274 1.370 . S
C1275 C1279 1.408 . S
C1276 C1274 1.363 . S
C1276 C1277 1.370 . S
C1276 C1280 1.524 . S
C1277 C1269 1.503 . S
C1277 C1276 1.370 . S
C1277 C1278 1.403 . S
C1278 C1277 1.403 . S
C1278 C1279 1.404 . S
C1278 C1281 1.539 . S
C1279 C1275 1.408 . S
C1279 C1278 1.404 . S
C1279 H1291 0.930 . S
C1280 C1276 1.524 . S
C1280 H1292 0.956 . S
C1280 H1293 0.961 . S
C1280 H1294 0.961 . S
C1281 C1278 1.539 . S
C1281 H1295 0.958 . S
C1281 H1296 0.961 . S
C1281 H1297 0.960 . S
H1282 C1266 0.931 . S
H1283 C1271 0.929 . S
H1284 C1272 0.960 . S
H1285 C1272 0.962 . S
H1286 C1272 0.960 . S
H1287 C1273 0.961 . S
H1288 C1273 0.961 . S
H1289 C1273 0.961 . S
H1290 C1274 0.931 . S
H1291 C1279 0.930 . S
H1292 C1280 0.956 . S
H1293 C1280 0.961 . S
H1294 C1280 0.961 . S
H1295 C1281 0.958 . S
H1296 C1281 0.961 . S
H1297 C1281 0.960 . S
C1298 C1299 1.391 . S
C1298 C1300 1.394 . S
C1298 H1314 0.931 . S
C1299 C1298 1.391 . S
C1299 C1303 1.376 . S
C1300 C1298 1.394 . S
C1300 C1301 1.369 . S
C1300 C1304 1.531 . S
C1301 C1300 1.369 . S
C1301 C1302 1.410 . S
C1301 C1309 1.503 . S
C1302 C1301 1.410 . S
C1302 C1303 1.392 . S
C1302 C1305 1.511 . S
C1303 C1299 1.376 . S
C1303 C1302 1.392 . S
C1303 H1315 0.929 . S
C1304 C1300 1.531 . S
C1304 H1316 0.960 . S
C1304 H1317 0.962 . S
C1304 H1318 0.960 . S
C1305 C1302 1.511 . S
C1305 H1319 0.961 . S
C1305 H1320 0.961 . S
C1305 H1321 0.961 . S
C1306 C1307 1.370 . S
C1306 C1308 1.363 . S
C1306 H1322 0.931 . S
C1307 C1306 1.370 . S
C1307 C1311 1.408 . S
C1308 C1306 1.363 . S
C1308 C1309 1.370 . S
C1308 C1312 1.524 . S
C1309 C1301 1.503 . S
C1309 C1308 1.370 . S
C1309 C1310 1.403 . S
C1310 C1309 1.403 . S
C1310 C1311 1.404 . S
C1310 C1313 1.539 . S
C1311 C1307 1.408 . S
C1311 C1310 1.404 . S
C1311 H1323 0.930 . S
C1312 C1308 1.524 . S
C1312 H1324 0.956 . S
C1312 H1325 0.961 . S
C1312 H1326 0.961 . S
C1313 C1310 1.539 . S
C1313 H1327 0.958 . S
C1313 H1328 0.961 . S
C1313 H1329 0.960 . S
H1314 C1298 0.931 . S
H1315 C1303 0.929 . S
H1316 C1304 0.960 . S
H1317 C1304 0.962 . S
H1318 C1304 0.960 . S
H1319 C1305 0.961 . S
H1320 C1305 0.961 . S
H1321 C1305 0.961 . S
H1322 C1306 0.931 . S
H1323 C1311 0.930 . S
H1324 C1312 0.956 . S
H1325 C1312 0.961 . S
H1326 C1312 0.961 . S
H1327 C1313 0.958 . S
H1328 C1313 0.961 . S
H1329 C1313 0.960 . S
C1330 C1331 1.391 . S
C1330 C1332 1.394 . S
C1330 H1346 0.931 . S
C1331 C1330 1.391 . S
C1331 C1335 1.376 . S
C1332 C1330 1.394 . S
C1332 C1333 1.369 . S
C1332 C1336 1.531 . S
C1333 C1332 1.369 . S
C1333 C1334 1.410 . S
C1333 C1341 1.503 . S
C1334 C1333 1.410 . S
C1334 C1335 1.392 . S
C1334 C1337 1.511 . S
C1335 C1331 1.376 . S
C1335 C1334 1.392 . S
C1335 H1347 0.929 . S
C1336 C1332 1.531 . S
C1336 H1348 0.960 . S
C1336 H1349 0.962 . S
C1336 H1350 0.960 . S
C1337 C1334 1.511 . S
C1337 H1351 0.961 . S
C1337 H1352 0.961 . S
C1337 H1353 0.961 . S
C1338 C1339 1.370 . S
C1338 C1340 1.363 . S
C1338 H1354 0.931 . S
C1339 C1338 1.370 . S
C1339 C1343 1.408 . S
C1340 C1338 1.363 . S
C1340 C1341 1.370 . S
C1340 C1344 1.524 . S
C1341 C1333 1.503 . S
C1341 C1340 1.370 . S
C1341 C1342 1.403 . S
C1342 C1341 1.403 . S
C1342 C1343 1.404 . S
C1342 C1345 1.539 . S
C1343 C1339 1.408 . S
C1343 C1342 1.404 . S
C1343 H1355 0.930 . S
C1344 C1340 1.524 . S
C1344 H1356 0.956 . S
C1344 H1357 0.961 . S
C1344 H1358 0.961 . S
C1345 C1342 1.539 . S
C1345 H1359 0.958 . S
C1345 H1360 0.961 . S
C1345 H1361 0.960 . S
H1346 C1330 0.931 . S
H1347 C1335 0.929 . S
H1348 C1336 0.960 . S
H1349 C1336 0.962 . S
H1350 C1336 0.960 . S
H1351 C1337 0.961 . S
H1352 C1337 0.961 . S
H1353 C1337 0.961 . S
H1354 C1338 0.931 . S
H1355 C1343 0.930 . S
H1356 C1344 0.956 . S
H1357 C1344 0.961 . S
H1358 C1344 0.961 . S
H1359 C1345 0.958 . S
H1360 C1345 0.961 . S
H1361 C1345 0.960 . S
C1362 C1363 1.391 . S
C1362 C1364 1.394 . S
C1362 H1378 0.931 . S
C1363 C1362 1.391 . S
C1363 C1367 1.376 . S
C1364 C1362 1.394 . S
C1364 C1365 1.369 . S
C1364 C1368 1.531 . S
C1365 C1364 1.369 . S
C1365 C1366 1.410 . S
C1365 C1373 1.503 . S
C1366 C1365 1.410 . S
C1366 C1367 1.392 . S
C1366 C1369 1.511 . S
C1367 C1363 1.376 . S
C1367 C1366 1.392 . S
C1367 H1379 0.929 . S
C1368 C1364 1.531 . S
C1368 H1380 0.960 . S
C1368 H1381 0.962 . S
C1368 H1382 0.960 . S
C1369 C1366 1.511 . S
C1369 H1383 0.961 . S
C1369 H1384 0.961 . S
C1369 H1385 0.961 . S
C1370 C1371 1.370 . S
C1370 C1372 1.363 . S
C1370 H1386 0.931 . S
C1371 C1370 1.370 . S
C1371 C1375 1.408 . S
C1372 C1370 1.363 . S
C1372 C1373 1.370 . S
C1372 C1376 1.524 . S
C1373 C1365 1.503 . S
C1373 C1372 1.370 . S
C1373 C1374 1.403 . S
C1374 C1373 1.403 . S
C1374 C1375 1.404 . S
C1374 C1377 1.539 . S
C1375 C1371 1.408 . S
C1375 C1374 1.404 . S
C1375 H1387 0.930 . S
C1376 C1372 1.524 . S
C1376 H1388 0.956 . S
C1376 H1389 0.961 . S
C1376 H1390 0.961 . S
C1377 C1374 1.539 . S
C1377 H1391 0.958 . S
C1377 H1392 0.961 . S
C1377 H1393 0.960 . S
H1378 C1362 0.931 . S
H1379 C1367 0.929 . S
H1380 C1368 0.960 . S
H1381 C1368 0.962 . S
H1382 C1368 0.960 . S
H1383 C1369 0.961 . S
H1384 C1369 0.961 . S
H1385 C1369 0.961 . S
H1386 C1370 0.931 . S
H1387 C1375 0.930 . S
H1388 C1376 0.956 . S
H1389 C1376 0.961 . S
H1390 C1376 0.961 . S
H1391 C1377 0.958 . S
H1392 C1377 0.961 . S
H1393 C1377 0.960 . S
C1394 C1395 1.391 . S
C1394 C1396 1.394 . S
C1394 H1410 0.931 . S
C1395 C1394 1.391 . S
C1395 C1399 1.376 . S
C1396 C1394 1.394 . S
C1396 C1397 1.369 . S
C1396 C1400 1.531 . S
C1397 C1396 1.369 . S
C1397 C1398 1.410 . S
C1397 C1405 1.503 . S
C1398 C1397 1.410 . S
C1398 C1399 1.392 . S
C1398 C1401 1.511 . S
C1399 C1395 1.376 . S
C1399 C1398 1.392 . S
C1399 H1411 0.929 . S
C1400 C1396 1.531 . S
C1400 H1412 0.960 . S
C1400 H1413 0.962 . S
C1400 H1414 0.960 . S
C1401 C1398 1.511 . S
C1401 H1415 0.961 . S
C1401 H1416 0.961 . S
C1401 H1417 0.961 . S
C1402 C1403 1.370 . S
C1402 C1404 1.363 . S
C1402 H1418 0.931 . S
C1403 C1402 1.370 . S
C1403 C1407 1.408 . S
C1404 C1402 1.363 . S
C1404 C1405 1.370 . S
C1404 C1408 1.524 . S
C1405 C1397 1.503 . S
C1405 C1404 1.370 . S
C1405 C1406 1.403 . S
C1406 C1405 1.403 . S
C1406 C1407 1.404 . S
C1406 C1409 1.539 . S
C1407 C1403 1.408 . S
C1407 C1406 1.404 . S
C1407 H1419 0.930 . S
C1408 C1404 1.524 . S
C1408 H1420 0.956 . S
C1408 H1421 0.961 . S
C1408 H1422 0.961 . S
C1409 C1406 1.539 . S
C1409 H1423 0.958 . S
C1409 H1424 0.961 . S
C1409 H1425 0.960 . S
H1410 C1394 0.931 . S
H1411 C1399 0.929 . S
H1412 C1400 0.960 . S
H1413 C1400 0.962 . S
H1414 C1400 0.960 . S
H1415 C1401 0.961 . S
H1416 C1401 0.961 . S
H1417 C1401 0.961 . S
H1418 C1402 0.931 . S
H1419 C1407 0.930 . S
H1420 C1408 0.956 . S
H1421 C1408 0.961 . S
H1422 C1408 0.961 . S
H1423 C1409 0.958 . S
H1424 C1409 0.961 . S
H1425 C1409 0.960 . S
C1426 C1427 1.391 . S
C1426 C1428 1.394 . S
C1426 H1442 0.931 . S
C1427 C1426 1.391 . S
C1427 C1431 1.376 . S
C1428 C1426 1.394 . S
C1428 C1429 1.369 . S
C1428 C1432 1.531 . S
C1429 C1428 1.369 . S
C1429 C1430 1.410 . S
C1429 C1437 1.503 . S
C1430 C1429 1.410 . S
C1430 C1431 1.392 . S
C1430 C1433 1.511 . S
C1431 C1427 1.376 . S
C1431 C1430 1.392 . S
C1431 H1443 0.929 . S
C1432 C1428 1.531 . S
C1432 H1444 0.960 . S
C1432 H1445 0.962 . S
C1432 H1446 0.960 . S
C1433 C1430 1.511 . S
C1433 H1447 0.961 . S
C1433 H1448 0.961 . S
C1433 H1449 0.961 . S
C1434 C1435 1.370 . S
C1434 C1436 1.363 . S
C1434 H1450 0.931 . S
C1435 C1434 1.370 . S
C1435 C1439 1.408 . S
C1436 C1434 1.363 . S
C1436 C1437 1.370 . S
C1436 C1440 1.524 . S
C1437 C1429 1.503 . S
C1437 C1436 1.370 . S
C1437 C1438 1.403 . S
C1438 C1437 1.403 . S
C1438 C1439 1.404 . S
C1438 C1441 1.539 . S
C1439 C1435 1.408 . S
C1439 C1438 1.404 . S
C1439 H1451 0.930 . S
C1440 C1436 1.524 . S
C1440 H1452 0.956 . S
C1440 H1453 0.961 . S
C1440 H1454 0.961 . S
C1441 C1438 1.539 . S
C1441 H1455 0.958 . S
C1441 H1456 0.961 . S
C1441 H1457 0.960 . S
H1442 C1426 0.931 . S
H1443 C1431 0.929 . S
H1444 C1432 0.960 . S
H1445 C1432 0.962 . S
H1446 C1432 0.960 . S
H1447 C1433 0.961 . S
H1448 C1433 0.961 . S
H1449 C1433 0.961 . S
H1450 C1434 0.931 . S
H1451 C1439 0.930 . S
H1452 C1440 0.956 . S
H1453 C1440 0.961 . S
H1454 C1440 0.961 . S
H1455 C1441 0.958 . S
H1456 C1441 0.961 . S
H1457 C1441 0.960 . S
C1458 C1459 1.391 . S
C1458 C1460 1.394 . S
C1458 H1474 0.931 . S
C1459 C1458 1.391 . S
C1459 C1463 1.376 . S
C1460 C1458 1.394 . S
C1460 C1461 1.369 . S
C1460 C1464 1.531 . S
C1461 C1460 1.369 . S
C1461 C1462 1.410 . S
C1461 C1469 1.503 . S
C1462 C1461 1.410 . S
C1462 C1463 1.392 . S
C1462 C1465 1.511 . S
C1463 C1459 1.376 . S
C1463 C1462 1.392 . S
C1463 H1475 0.929 . S
C1464 C1460 1.531 . S
C1464 H1476 0.960 . S
C1464 H1477 0.962 . S
C1464 H1478 0.960 . S
C1465 C1462 1.511 . S
C1465 H1479 0.961 . S
C1465 H1480 0.961 . S
C1465 H1481 0.961 . S
C1466 C1467 1.370 . S
C1466 C1468 1.363 . S
C1466 H1482 0.931 . S
C1467 C1466 1.370 . S
C1467 C1471 1.408 . S
C1468 C1466 1.363 . S
C1468 C1469 1.370 . S
C1468 C1472 1.524 . S
C1469 C1461 1.503 . S
C1469 C1468 1.370 . S
C1469 C1470 1.403 . S
C1470 C1469 1.403 . S
C1470 C1471 1.404 . S
C1470 C1473 1.539 . S
C1471 C1467 1.408 . S
C1471 C1470 1.404 . S
C1471 H1483 0.930 . S
C1472 C1468 1.524 . S
C1472 H1484 0.956 . S
C1472 H1485 0.961 . S
C1472 H1486 0.961 . S
C1473 C1470 1.539 . S
C1473 H1487 0.958 . S
C1473 H1488 0.961 . S
C1473 H1489 0.960 . S
H1474 C1458 0.931 . S
H1475 C1463 0.929 . S
H1476 C1464 0.960 . S
H1477 C1464 0.962 . S
H1478 C1464 0.960 . S
H1479 C1465 0.961 . S
H1480 C1465 0.961 . S
H1481 C1465 0.961 . S
H1482 C1466 0.931 . S
H1483 C1471 0.930 . S
H1484 C1472 0.956 . S
H1485 C1472 0.961 . S
H1486 C1472 0.961 . S
H1487 C1473 0.958 . S
H1488 C1473 0.961 . S
H1489 C1473 0.960 . S
C1490 C1491 1.391 . S
C1490 C1492 1.394 . S
C1490 H1506 0.931 . S
C1491 C1490 1.391 . S
C1491 C1495 1.376 . S
C1492 C1490 1.394 . S
C1492 C1493 1.369 . S
C1492 C1496 1.531 . S
C1493 C1492 1.369 . S
C1493 C1494 1.410 . S
C1493 C1501 1.503 . S
C1494 C1493 1.410 . S
C1494 C1495 1.392 . S
C1494 C1497 1.511 . S
C1495 C1491 1.376 . S
C1495 C1494 1.392 . S
C1495 H1507 0.929 . S
C1496 C1492 1.531 . S
C1496 H1508 0.960 . S
C1496 H1509 0.962 . S
C1496 H1510 0.960 . S
C1497 C1494 1.511 . S
C1497 H1511 0.961 . S
C1497 H1512 0.961 . S
C1497 H1513 0.961 . S
C1498 C1499 1.370 . S
C1498 C1500 1.363 . S
C1498 H1514 0.931 . S
C1499 C1498 1.370 . S
C1499 C1503 1.408 . S
C1500 C1498 1.363 . S
C1500 C1501 1.370 . S
C1500 C1504 1.524 . S
C1501 C1493 1.503 . S
C1501 C1500 1.370 . S
C1501 C1502 1.403 . S
C1502 C1501 1.403 . S
C1502 C1503 1.404 . S
C1502 C1505 1.539 . S
C1503 C1499 1.408 . S
C1503 C1502 1.404 . S
C1503 H1515 0.930 . S
C1504 C1500 1.524 . S
C1504 H1516 0.956 . S
C1504 H1517 0.961 . S
C1504 H1518 0.961 . S
C1505 C1502 1.539 . S
C1505 H1519 0.958 . S
C1505 H1520 0.961 . S
C1505 H1521 0.960 . S
H1506 C1490 0.931 . S
H1507 C1495 0.929 . S
H1508 C1496 0.960 . S
H1509 C1496 0.962 . S
H1510 C1496 0.960 . S
H1511 C1497 0.961 . S
H1512 C1497 0.961 . S
H1513 C1497 0.961 . S
H1514 C1498 0.931 . S
H1515 C1503 0.930 . S
H1516 C1504 0.956 . S
H1517 C1504 0.961 . S
H1518 C1504 0.961 . S
H1519 C1505 0.958 . S
H1520 C1505 0.961 . S
H1521 C1505 0.960 . S
C1522 C1523 1.391 . S
C1522 C1524 1.394 . S
C1522 H1538 0.931 . S
C1523 C1522 1.391 . S
C1523 C1527 1.376 . S
C1524 C1522 1.394 . S
C1524 C1525 1.369 . S
C1524 C1528 1.531 . S
C1525 C1524 1.369 . S
C1525 C1526 1.410 . S
C1525 C1533 1.503 . S
C1526 C1525 1.410 . S
C1526 C1527 1.392 . S
C1526 C1529 1.511 . S
C1527 C1523 1.376 . S
C1527 C1526 1.392 . S
C1527 H1539 0.929 . S
C1528 C1524 1.531 . S
C1528 H1540 0.960 . S
C1528 H1541 0.962 . S
C1528 H1542 0.960 . S
C1529 C1526 1.511 . S
C1529 H1543 0.961 . S
C1529 H1544 0.961 . S
C1529 H1545 0.961 . S
C1530 C1531 1.370 . S
C1530 C1532 1.363 . S
C1530 H1546 0.931 . S
C1531 C1530 1.370 . S
C1531 C1535 1.408 . S
C1532 C1530 1.363 . S
C1532 C1533 1.370 . S
C1532 C1536 1.524 . S
C1533 C1525 1.503 . S
C1533 C1532 1.370 . S
C1533 C1534 1.403 . S
C1534 C1533 1.403 . S
C1534 C1535 1.404 . S
C1534 C1537 1.539 . S
C1535 C1531 1.408 . S
C1535 C1534 1.404 . S
C1535 H1547 0.930 . S
C1536 C1532 1.524 . S
C1536 H1548 0.956 . S
C1536 H1549 0.961 . S
C1536 H1550 0.961 . S
C1537 C1534 1.539 . S
C1537 H1551 0.958 . S
C1537 H1552 0.961 . S
C1537 H1553 0.960 . S
H1538 C1522 0.931 . S
H1539 C1527 0.929 . S
H1540 C1528 0.960 . S
H1541 C1528 0.962 . S
H1542 C1528 0.960 . S
H1543 C1529 0.961 . S
H1544 C1529 0.961 . S
H1545 C1529 0.961 . S
H1546 C1530 0.931 . S
H1547 C1535 0.930 . S
H1548 C1536 0.956 . S
H1549 C1536 0.961 . S
H1550 C1536 0.961 . S
H1551 C1537 0.958 . S
H1552 C1537 0.961 . S
H1553 C1537 0.960 . S
C1554 C1555 1.391 . S
C1554 C1556 1.394 . S
C1554 H1570 0.931 . S
C1555 C1554 1.391 . S
C1555 C1559 1.376 . S
C1556 C1554 1.394 . S
C1556 C1557 1.369 . S
C1556 C1560 1.531 . S
C1557 C1556 1.369 . S
C1557 C1558 1.410 . S
C1557 C1565 1.503 . S
C1558 C1557 1.410 . S
C1558 C1559 1.392 . S
C1558 C1561 1.511 . S
C1559 C1555 1.376 . S
C1559 C1558 1.392 . S
C1559 H1571 0.929 . S
C1560 C1556 1.531 . S
C1560 H1572 0.960 . S
C1560 H1573 0.962 . S
C1560 H1574 0.960 . S
C1561 C1558 1.511 . S
C1561 H1575 0.961 . S
C1561 H1576 0.961 . S
C1561 H1577 0.961 . S
C1562 C1563 1.370 . S
C1562 C1564 1.363 . S
C1562 H1578 0.931 . S
C1563 C1562 1.370 . S
C1563 C1567 1.408 . S
C1564 C1562 1.363 . S
C1564 C1565 1.370 . S
C1564 C1568 1.524 . S
C1565 C1557 1.503 . S
C1565 C1564 1.370 . S
C1565 C1566 1.403 . S
C1566 C1565 1.403 . S
C1566 C1567 1.404 . S
C1566 C1569 1.539 . S
C1567 C1563 1.408 . S
C1567 C1566 1.404 . S
C1567 H1579 0.930 . S
C1568 C1564 1.524 . S
C1568 H1580 0.956 . S
C1568 H1581 0.961 . S
C1568 H1582 0.961 . S
C1569 C1566 1.539 . S
C1569 H1583 0.958 . S
C1569 H1584 0.961 . S
C1569 H1585 0.960 . S
H1570 C1554 0.931 . S
H1571 C1559 0.929 . S
H1572 C1560 0.960 . S
H1573 C1560 0.962 . S
H1574 C1560 0.960 . S
H1575 C1561 0.961 . S
H1576 C1561 0.961 . S
H1577 C1561 0.961 . S
H1578 C1562 0.931 . S
H1579 C1567 0.930 . S
H1580 C1568 0.956 . S
H1581 C1568 0.961 . S
H1582 C1568 0.961 . S
H1583 C1569 0.958 . S
H1584 C1569 0.961 . S
H1585 C1569 0.960 . S
C1586 C1587 1.391 . S
C1586 C1588 1.394 . S
C1586 H1602 0.931 . S
C1587 C1586 1.391 . S
C1587 C1591 1.376 . S
C1588 C1586 1.394 . S
C1588 C1589 1.369 . S
C1588 C1592 1.531 . S
C1589 C1588 1.369 . S
C1589 C1590 1.410 . S
C1589 C1597 1.503 . S
C1590 C1589 1.410 . S
C1590 C1591 1.392 . S
C1590 C1593 1.511 . S
C1591 C1587 1.376 . S
C1591 C1590 1.392 . S
C1591 H1603 0.929 . S
C1592 C1588 1.531 . S
C1592 H1604 0.960 . S
C1592 H1605 0.962 . S
C1592 H1606 0.960 . S
C1593 C1590 1.511 . S
C1593 H1607 0.961 . S
C1593 H1608 0.961 . S
C1593 H1609 0.961 . S
C1594 C1595 1.370 . S
C1594 C1596 1.363 . S
C1594 H1610 0.931 . S
C1595 C1594 1.370 . S
C1595 C1599 1.408 . S
C1596 C1594 1.363 . S
C1596 C1597 1.370 . S
C1596 C1600 1.524 . S
C1597 C1589 1.503 . S
C1597 C1596 1.370 . S
C1597 C1598 1.403 . S
C1598 C1597 1.403 . S
C1598 C1599 1.404 . S
C1598 C1601 1.539 . S
C1599 C1595 1.408 . S
C1599 C1598 1.404 . S
C1599 H1611 0.930 . S
C1600 C1596 1.524 . S
C1600 H1612 0.956 . S
C1600 H1613 0.961 . S
C1600 H1614 0.961 . S
C1601 C1598 1.539 . S
C1601 H1615 0.958 . S
C1601 H1616 0.961 . S
C1601 H1617 0.960 . S
H1602 C1586 0.931 . S
H1603 C1591 0.929 . S
H1604 C1592 0.960 . S
H1605 C1592 0.962 . S
H1606 C1592 0.960 . S
H1607 C1593 0.961 . S
H1608 C1593 0.961 . S
H1609 C1593 0.961 . S
H1610 C1594 0.931 . S
H1611 C1599 0.930 . S
H1612 C1600 0.956 . S
H1613 C1600 0.961 . S
H1614 C1600 0.961 . S
H1615 C1601 0.958 . S
H1616 C1601 0.961 . S
H1617 C1601 0.960 . S
C1618 C1619 1.391 . S
C1618 C1620 1.394 . S
C1618 H1634 0.931 . S
C1619 C1618 1.391 . S
C1619 C1623 1.376 . S
C1620 C1618 1.394 . S
C1620 C1621 1.369 . S
C1620 C1624 1.531 . S
C1621 C1620 1.369 . S
C1621 C1622 1.410 . S
C1621 C1629 1.503 . S
C1622 C1621 1.410 . S
C1622 C1623 1.392 . S
C1622 C1625 1.511 . S
C1623 C1619 1.376 . S
C1623 C1622 1.392 . S
C1623 H1635 0.929 . S
C1624 C1620 1.531 . S
C1624 H1636 0.960 . S
C1624 H1637 0.962 . S
C1624 H1638 0.960 . S
C1625 C1622 1.511 . S
C1625 H1639 0.961 . S
C1625 H1640 0.961 . S
C1625 H1641 0.961 . S
C1626 C1627 1.370 . S
C1626 C1628 1.363 . S
C1626 H1642 0.931 . S
C1627 C1626 1.370 . S
C1627 C1631 1.408 . S
C1628 C1626 1.363 . S
C1628 C1629 1.370 . S
C1628 C1632 1.524 . S
C1629 C1621 1.503 . S
C1629 C1628 1.370 . S
C1629 C1630 1.403 . S
C1630 C1629 1.403 . S
C1630 C1631 1.404 . S
C1630 C1633 1.539 . S
C1631 C1627 1.408 . S
C1631 C1630 1.404 . S
C1631 H1643 0.930 . S
C1632 C1628 1.524 . S
C1632 H1644 0.956 . S
C1632 H1645 0.961 . S
C1632 H1646 0.961 . S
C1633 C1630 1.539 . S
C1633 H1647 0.958 . S
C1633 H1648 0.961 . S
C1633 H1649 0.960 . S
H1634 C1618 0.931 . S
H1635 C1623 0.929 . S
H1636 C1624 0.960 . S
H1637 C1624 0.962 . S
H1638 C1624 0.960 . S
H1639 C1625 0.961 . S
H1640 C1625 0.961 . S
H1641 C1625 0.961 . S
H1642 C1626 0.931 . S
H1643 C1631 0.930 . S
H1644 C1632 0.956 . S
H1645 C1632 0.961 . S
H1646 C1632 0.961 . S
H1647 C1633 0.958 . S
H1648 C1633 0.961 . S
H1649 C1633 0.960 . S
C1650 C1651 1.391 . S
C1650 C1652 1.394 . S
C1650 H1666 0.931 . S
C1651 C1650 1.391 . S
C1651 C1655 1.376 . S
C1652 C1650 1.394 . S
C1652 C1653 1.369 . S
C1652 C1656 1.531 . S
C1653 C1652 1.369 . S
C1653 C1654 1.410 . S
C1653 C1661 1.503 . S
C1654 C1653 1.410 . S
C1654 C1655 1.392 . S
C1654 C1657 1.511 . S
C1655 C1651 1.376 . S
C1655 C1654 1.392 . S
C1655 H1667 0.929 . S
C1656 C1652 1.531 . S
C1656 H1668 0.960 . S
C1656 H1669 0.962 . S
C1656 H1670 0.960 . S
C1657 C1654 1.511 . S
C1657 H1671 0.961 . S
C1657 H1672 0.961 . S
C1657 H1673 0.961 . S
C1658 C1659 1.370 . S
C1658 C1660 1.363 . S
C1658 H1674 0.931 . S
C1659 C1658 1.370 . S
C1659 C1663 1.408 . S
C1660 C1658 1.363 . S
C1660 C1661 1.370 . S
C1660 C1664 1.524 . S
C1661 C1653 1.503 . S
C1661 C1660 1.370 . S
C1661 C1662 1.403 . S
C1662 C1661 1.403 . S
C1662 C1663 1.404 . S
C1662 C1665 1.539 . S
C1663 C1659 1.408 . S
C1663 C1662 1.404 . S
C1663 H1675 0.930 . S
C1664 C1660 1.524 . S
C1664 H1676 0.956 . S
C1664 H1677 0.961 . S
C1664 H1678 0.961 . S
C1665 C1662 1.539 . S
C1665 H1679 0.958 . S
C1665 H1680 0.961 . S
C1665 H1681 0.960 . S
H1666 C1650 0.931 . S
H1667 C1655 0.929 . S
H1668 C1656 0.960 . S
H1669 C1656 0.962 . S
H1670 C1656 0.960 . S
H1671 C1657 0.961 . S
H1672 C1657 0.961 . S
H1673 C1657 0.961 . S
H1674 C1658 0.931 . S
H1675 C1663 0.930 . S
H1676 C1664 0.956 . S
H1677 C1664 0.961 . S
H1678 C1664 0.961 . S
H1679 C1665 0.958 . S
H1680 C1665 0.961 . S
H1681 C1665 0.960 . S
C1682 C1683 1.391 . S
C1682 C1684 1.394 . S
C1682 H1698 0.931 . S
C1683 C1682 1.391 . S
C1683 C1687 1.376 . S
C1684 C1682 1.394 . S
C1684 C1685 1.369 . S
C1684 C1688 1.531 . S
C1685 C1684 1.369 . S
C1685 C1686 1.410 . S
C1685 C1693 1.503 . S
C1686 C1685 1.410 . S
C1686 C1687 1.392 . S
C1686 C1689 1.511 . S
C1687 C1683 1.376 . S
C1687 C1686 1.392 . S
C1687 H1699 0.929 . S
C1688 C1684 1.531 . S
C1688 H1700 0.960 . S
C1688 H1701 0.962 . S
C1688 H1702 0.960 . S
C1689 C1686 1.511 . S
C1689 H1703 0.961 . S
C1689 H1704 0.961 . S
C1689 H1705 0.961 . S
C1690 C1691 1.370 . S
C1690 C1692 1.363 . S
C1690 H1706 0.931 . S
C1691 C1690 1.370 . S
C1691 C1695 1.408 . S
C1692 C1690 1.363 . S
C1692 C1693 1.370 . S
C1692 C1696 1.524 . S
C1693 C1685 1.503 . S
C1693 C1692 1.370 . S
C1693 C1694 1.403 . S
C1694 C1693 1.403 . S
C1694 C1695 1.404 . S
C1694 C1697 1.539 . S
C1695 C1691 1.408 . S
C1695 C1694 1.404 . S
C1695 H1707 0.930 . S
C1696 C1692 1.524 . S
C1696 H1708 0.956 . S
C1696 H1709 0.961 . S
C1696 H1710 0.961 . S
C1697 C1694 1.539 . S
C1697 H1711 0.958 . S
C1697 H1712 0.961 . S
C1697 H1713 0.960 . S
H1698 C1682 0.931 . S
H1699 C1687 0.929 . S
H1700 C1688 0.960 . S
H1701 C1688 0.962 . S
H1702 C1688 0.960 . S
H1703 C1689 0.961 . S
H1704 C1689 0.961 . S
H1705 C1689 0.961 . S
H1706 C1690 0.931 . S
H1707 C1695 0.930 . S
H1708 C1696 0.956 . S
H1709 C1696 0.961 . S
H1710 C1696 0.961 . S
H1711 C1697 0.958 . S
H1712 C1697 0.961 . S
H1713 C1697 0.960 . S
C1714 C1715 1.391 . S
C1714 C1716 1.394 . S
C1714 H1730 0.931 . S
C1715 C1714 1.391 . S
C1715 C1719 1.376 . S
C1716 C1714 1.394 . S
C1716 C1717 1.369 . S
C1716 C1720 1.531 . S
C1717 C1716 1.369 . S
C1717 C1718 1.410 . S
C1717 C1725 1.503 . S
C1718 C1717 1.410 . S
C1718 C1719 1.392 . S
C1718 C1721 1.511 . S
C1719 C1715 1.376 . S
C1719 C1718 1.392 . S
C1719 H1731 0.929 . S
C1720 C1716 1.531 . S
C1720 H1732 0.960 . S
C1720 H1733 0.962 . S
C1720 H1734 0.960 . S
C1721 C1718 1.511 . S
C1721 H1735 0.961 . S
C1721 H1736 0.961 . S
C1721 H1737 0.961 . S
C1722 C1723 1.370 . S
C1722 C1724 1.363 . S
C1722 H1738 0.931 . S
C1723 C1722 1.370 . S
C1723 C1727 1.408 . S
C1724 C1722 1.363 . S
C1724 C1725 1.370 . S
C1724 C1728 1.524 . S
C1725 C1717 1.503 . S
C1725 C1724 1.370 . S
C1725 C1726 1.403 . S
C1726 C1725 1.403 . S
C1726 C1727 1.404 . S
C1726 C1729 1.539 . S
C1727 C1723 1.408 . S
C1727 C1726 1.404 . S
C1727 H1739 0.930 . S
C1728 C1724 1.524 . S
C1728 H1740 0.956 . S
C1728 H1741 0.961 . S
C1728 H1742 0.961 . S
C1729 C1726 1.539 . S
C1729 H1743 0.958 . S
C1729 H1744 0.961 . S
C1729 H1745 0.960 . S
H1730 C1714 0.931 . S
H1731 C1719 0.929 . S
H1732 C1720 0.960 . S
H1733 C1720 0.962 . S
H1734 C1720 0.960 . S
H1735 C1721 0.961 . S
H1736 C1721 0.961 . S
H1737 C1721 0.961 . S
H1738 C1722 0.931 . S
H1739 C1727 0.930 . S
H1740 C1728 0.956 . S
H1741 C1728 0.961 . S
H1742 C1728 0.961 . S
H1743 C1729 0.958 . S
H1744 C1729 0.961 . S
H1745 C1729 0.960 . S
C1746 C1747 1.391 . S
C1746 C1748 1.394 . S
C1746 H1762 0.931 . S
C1747 C1746 1.391 . S
C1747 C1751 1.376 . S
C1748 C1746 1.394 . S
C1748 C1749 1.369 . S
C1748 C1752 1.531 . S
C1749 C1748 1.369 . S
C1749 C1750 1.410 . S
C1749 C1757 1.503 . S
C1750 C1749 1.410 . S
C1750 C1751 1.392 . S
C1750 C1753 1.511 . S
C1751 C1747 1.376 . S
C1751 C1750 1.392 . S
C1751 H1763 0.929 . S
C1752 C1748 1.531 . S
C1752 H1764 0.960 . S
C1752 H1765 0.962 . S
C1752 H1766 0.960 . S
C1753 C1750 1.511 . S
C1753 H1767 0.961 . S
C1753 H1768 0.961 . S
C1753 H1769 0.961 . S
C1754 C1755 1.370 . S
C1754 C1756 1.363 . S
C1754 H1770 0.931 . S
C1755 C1754 1.370 . S
C1755 C1759 1.408 . S
C1756 C1754 1.363 . S
C1756 C1757 1.370 . S
C1756 C1760 1.524 . S
C1757 C1749 1.503 . S
C1757 C1756 1.370 . S
C1757 C1758 1.403 . S
C1758 C1757 1.403 . S
C1758 C1759 1.404 . S
C1758 C1761 1.539 . S
C1759 C1755 1.408 . S
C1759 C1758 1.404 . S
C1759 H1771 0.930 . S
C1760 C1756 1.524 . S
C1760 H1772 0.956 . S
C1760 H1773 0.961 . S
C1760 H1774 0.961 . S
C1761 C1758 1.539 . S
C1761 H1775 0.958 . S
C1761 H1776 0.961 . S
C1761 H1777 0.960 . S
H1762 C1746 0.931 . S
H1763 C1751 0.929 . S
H1764 C1752 0.960 . S
H1765 C1752 0.962 . S
H1766 C1752 0.960 . S
H1767 C1753 0.961 . S
H1768 C1753 0.961 . S
H1769 C1753 0.961 . S
H1770 C1754 0.931 . S
H1771 C1759 0.930 . S
H1772 C1760 0.956 . S
H1773 C1760 0.961 . S
H1774 C1760 0.961 . S
H1775 C1761 0.958 . S
H1776 C1761 0.961 . S
H1777 C1761 0.960 . S
C1778 C1779 1.391 . S
C1778 C1780 1.394 . S
C1778 H1794 0.931 . S
C1779 C1778 1.391 . S
C1779 C1783 1.376 . S
C1780 C1778 1.394 . S
C1780 C1781 1.369 . S
C1780 C1784 1.531 . S
C1781 C1780 1.369 . S
C1781 C1782 1.410 . S
C1781 C1789 1.503 . S
C1782 C1781 1.410 . S
C1782 C1783 1.392 . S
C1782 C1785 1.511 . S
C1783 C1779 1.376 . S
C1783 C1782 1.392 . S
C1783 H1795 0.929 . S
C1784 C1780 1.531 . S
C1784 H1796 0.960 . S
C1784 H1797 0.962 . S
C1784 H1798 0.960 . S
C1785 C1782 1.511 . S
C1785 H1799 0.961 . S
C1785 H1800 0.961 . S
C1785 H1801 0.961 . S
C1786 C1787 1.370 . S
C1786 C1788 1.363 . S
C1786 H1802 0.931 . S
C1787 C1786 1.370 . S
C1787 C1791 1.408 . S
C1788 C1786 1.363 . S
C1788 C1789 1.370 . S
C1788 C1792 1.524 . S
C1789 C1781 1.503 . S
C1789 C1788 1.370 . S
C1789 C1790 1.403 . S
C1790 C1789 1.403 . S
C1790 C1791 1.404 . S
C1790 C1793 1.539 . S
C1791 C1787 1.408 . S
C1791 C1790 1.404 . S
C1791 H1803 0.930 . S
C1792 C1788 1.524 . S
C1792 H1804 0.956 . S
C1792 H1805 0.961 . S
C1792 H1806 0.961 . S
C1793 C1790 1.539 . S
C1793 H1807 0.958 . S
C1793 H1808 0.961 . S
C1793 H1809 0.960 . S
H1794 C1778 0.931 . S
H1795 C1783 0.929 . S
H1796 C1784 0.960 . S
H1797 C1784 0.962 . S
H1798 C1784 0.960 . S
H1799 C1785 0.961 . S
H1800 C1785 0.961 . S
H1801 C1785 0.961 . S
H1802 C1786 0.931 . S
H1803 C1791 0.930 . S
H1804 C1792 0.956 . S
H1805 C1792 0.961 . S
H1806 C1792 0.961 . S
H1807 C1793 0.958 . S
H1808 C1793 0.961 . S
H1809 C1793 0.960 . S
C1810 C1811 1.391 . S
C1810 C1812 1.394 . S
C1810 H1826 0.931 . S
C1811 C1810 1.391 . S
C1811 C1815 1.376 . S
C1812 C1810 1.394 . S
C1812 C1813 1.369 . S
C1812 C1816 1.531 . S
C1813 C1812 1.369 . S
C1813 C1814 1.410 . S
C1813 C1821 1.503 . S
C1814 C1813 1.410 . S
C1814 C1815 1.392 . S
C1814 C1817 1.511 . S
C1815 C1811 1.376 . S
C1815 C1814 1.392 . S
C1815 H1827 0.929 . S
C1816 C1812 1.531 . S
C1816 H1828 0.960 . S
C1816 H1829 0.962 . S
C1816 H1830 0.960 . S
C1817 C1814 1.511 . S
C1817 H1831 0.961 . S
C1817 H1832 0.961 . S
C1817 H1833 0.961 . S
C1818 C1819 1.370 . S
C1818 C1820 1.363 . S
C1818 H1834 0.931 . S
C1819 C1818 1.370 . S
C1819 C1823 1.408 . S
C1820 C1818 1.363 . S
C1820 C1821 1.370 . S
C1820 C1824 1.524 . S
C1821 C1813 1.503 . S
C1821 C1820 1.370 . S
C1821 C1822 1.403 . S
C1822 C1821 1.403 . S
C1822 C1823 1.404 . S
C1822 C1825 1.539 . S
C1823 C1819 1.408 . S
C1823 C1822 1.404 . S
C1823 H1835 0.930 . S
C1824 C1820 1.524 . S
C1824 H1836 0.956 . S
C1824 H1837 0.961 . S
C1824 H1838 0.961 . S
C1825 C1822 1.539 . S
C1825 H1839 0.958 . S
C1825 H1840 0.961 . S
C1825 H1841 0.960 . S
H1826 C1810 0.931 . S
H1827 C1815 0.929 . S
H1828 C1816 0.960 . S
H1829 C1816 0.962 . S
H1830 C1816 0.960 . S
H1831 C1817 0.961 . S
H1832 C1817 0.961 . S
H1833 C1817 0.961 . S
H1834 C1818 0.931 . S
H1835 C1823 0.930 . S
H1836 C1824 0.956 . S
H1837 C1824 0.961 . S
H1838 C1824 0.961 . S
H1839 C1825 0.958 . S
H1840 C1825 0.961 . S
H1841 C1825 0.960 . S
C1842 C1843 1.391 . S
C1842 C1844 1.394 . S
C1842 H1858 0.931 . S
C1843 C1842 1.391 . S
C1843 C1847 1.376 . S
C1844 C1842 1.394 . S
C1844 C1845 1.369 . S
C1844 C1848 1.531 . S
C1845 C1844 1.369 . S
C1845 C1846 1.410 . S
C1845 C1853 1.503 . S
C1846 C1845 1.410 . S
C1846 C1847 1.392 . S
C1846 C1849 1.511 . S
C1847 C1843 1.376 . S
C1847 C1846 1.392 . S
C1847 H1859 0.929 . S
C1848 C1844 1.531 . S
C1848 H1860 0.960 . S
C1848 H1861 0.962 . S
C1848 H1862 0.960 . S
C1849 C1846 1.511 . S
C1849 H1863 0.961 . S
C1849 H1864 0.961 . S
C1849 H1865 0.961 . S
C1850 C1851 1.370 . S
C1850 C1852 1.363 . S
C1850 H1866 0.931 . S
C1851 C1850 1.370 . S
C1851 C1855 1.408 . S
C1852 C1850 1.363 . S
C1852 C1853 1.370 . S
C1852 C1856 1.524 . S
C1853 C1845 1.503 . S
C1853 C1852 1.370 . S
C1853 C1854 1.403 . S
C1854 C1853 1.403 . S
C1854 C1855 1.404 . S
C1854 C1857 1.539 . S
C1855 C1851 1.408 . S
C1855 C1854 1.404 . S
C1855 H1867 0.930 . S
C1856 C1852 1.524 . S
C1856 H1868 0.956 . S
C1856 H1869 0.961 . S
C1856 H1870 0.961 . S
C1857 C1854 1.539 . S
C1857 H1871 0.958 . S
C1857 H1872 0.961 . S
C1857 H1873 0.960 . S
H1858 C1842 0.931 . S
H1859 C1847 0.929 . S
H1860 C1848 0.960 . S
H1861 C1848 0.962 . S
H1862 C1848 0.960 . S
H1863 C1849 0.961 . S
H1864 C1849 0.961 . S
H1865 C1849 0.961 . S
H1866 C1850 0.931 . S
H1867 C1855 0.930 . S
H1868 C1856 0.956 . S
H1869 C1856 0.961 . S
H1870 C1856 0.961 . S
H1871 C1857 0.958 . S
H1872 C1857 0.961 . S
H1873 C1857 0.960 . S
C1874 C1875 1.391 . S
C1874 C1876 1.394 . S
C1874 H1890 0.931 . S
C1875 C1874 1.391 . S
C1875 C1879 1.376 . S
C1876 C1874 1.394 . S
C1876 C1877 1.369 . S
C1876 C1880 1.531 . S
C1877 C1876 1.369 . S
C1877 C1878 1.410 . S
C1877 C1885 1.503 . S
C1878 C1877 1.410 . S
C1878 C1879 1.392 . S
C1878 C1881 1.511 . S
C1879 C1875 1.376 . S
C1879 C1878 1.392 . S
C1879 H1891 0.929 . S
C1880 C1876 1.531 . S
C1880 H1892 0.960 . S
C1880 H1893 0.962 . S
C1880 H1894 0.960 . S
C1881 C1878 1.511 . S
C1881 H1895 0.961 . S
C1881 H1896 0.961 . S
C1881 H1897 0.961 . S
C1882 C1883 1.370 . S
C1882 C1884 1.363 . S
C1882 H1898 0.931 . S
C1883 C1882 1.370 . S
C1883 C1887 1.408 . S
C1884 C1882 1.363 . S
C1884 C1885 1.370 . S
C1884 C1888 1.524 . S
C1885 C1877 1.503 . S
C1885 C1884 1.370 . S
C1885 C1886 1.403 . S
C1886 C1885 1.403 . S
C1886 C1887 1.404 . S
C1886 C1889 1.539 . S
C1887 C1883 1.408 . S
C1887 C1886 1.404 . S
C1887 H1899 0.930 . S
C1888 C1884 1.524 . S
C1888 H1900 0.956 . S
C1888 H1901 0.961 . S
C1888 H1902 0.961 . S
C1889 C1886 1.539 . S
C1889 H1903 0.958 . S
C1889 H1904 0.961 . S
C1889 H1905 0.960 . S
H1890 C1874 0.931 . S
H1891 C1879 0.929 . S
H1892 C1880 0.960 . S
H1893 C1880 0.962 . S
H1894 C1880 0.960 . S
H1895 C1881 0.961 . S
H1896 C1881 0.961 . S
H1897 C1881 0.961 . S
H1898 C1882 0.931 . S
H1899 C1887 0.930 . S
H1900 C1888 0.956 . S
H1901 C1888 0.961 . S
H1902 C1888 0.961 . S
H1903 C1889 0.958 . S
H1904 C1889 0.961 . S
H1905 C1889 0.960 . S
C379 C195 1.274 . S
C371 C17 1.307 . S
C411 C185 1.688 . S
C403 C44 1.582 . S
C443 C186 0.985 . S
C435 C63 0.991 . S
C467 C87 1.393 . S
C475 C208 1.356 . S
C499 C110 1.417 . S
C507 C211 1.389 . S
C539 C194 0.978 . S
C531 C131 0.963 . S
C563 C159 1.427 . S
C571 C184 1.585 . S
C595 C177 1.296 . S
C603 C202 1.292 . S
C635 C215 1.459 . S
C627 C20 1.413 . S
C659 C42 1.388 . S
C667 C264 1.373 . S
C699 C242 1.609 . S
C691 C66 1.510 . S
C731 C256 0.877 . S
C723 C86 0.897 . S
C755 C109 0.873 . S
C763 C217 0.893 . S
C795 C270 1.510 . S
C787 C136 1.444 . S
C819 C157 1.371 . S
C827 C226 1.376 . S
C851 C182 1.412 . S
C859 C247 1.511 . S
C883 C18 1.477 . S
C891 C273 1.421 . S
C915 C112 1.250 . S
C923 C257 1.316 . S
C955 C216 1.404 . S
C947 C134 1.454 . S
C987 C248 0.963 . S
C979 C154 1.044 . S
C1011 C180 1.383 . S
C1019 C239 1.330 . S
C1043 C64 1.403 . S
C1051 C246 1.363 . S
C1083 C233 1.318 . S
C1075 C89 1.251 . S
C1107 C39 1.030 . S
C1115 C225 1.037 . S
C1139 C178 1.316 . S
C1147 C288 1.278 . S
C1171 C113 1.569 . S
C1179 C278 1.680 . S
C1211 C279 0.976 . S
C1203 C132 0.966 . S
C1243 C301 1.375 . S
C1235 C156 1.383 . S
C1267 C41 1.404 . S
C1275 C304 1.401 . S
C1307 C287 0.997 . S
C1299 C62 1.027 . S
C1331 C90 1.487 . S
C1339 C277 1.575 . S
C1363 C16 1.341 . S
C1371 C295 1.315 . S
C1395 C181 1.409 . S
C1403 C308 1.464 . S
C1435 C357 1.384 . S
C1427 C111 1.408 . S
C1459 C135 1.491 . S
C1467 C335 1.613 . S
C1491 C155 0.918 . S
C1499 C349 0.849 . S
C1531 C310 0.898 . S
C1523 C40 0.889 . S
C1555 C67 1.451 . S
C1563 C363 1.509 . S
C1595 C319 1.365 . S
C1587 C88 1.411 . S
C1627 C340 1.525 . S
C1619 C21 1.472 . S
C1659 C366 1.420 . S
C1651 C179 1.459 . S
C1683 C43 1.298 . S
C1691 C350 1.306 . S
C1715 C65 1.452 . S
C1723 C309 1.407 . S
C1755 C341 0.962 . S
C1747 C85 1.047 . S
C1779 C19 1.382 . S
C1787 C332 1.333 . S
C1811 C133 1.391 . S
C1819 C339 1.348 . S
C1851 C326 1.294 . S
C1843 C158 1.281 . S
C1883 C318 1.028 . S
C1875 C108 1.015 . S
