# Generated by pormake.
# Topology ocu, (6,8)-cn, num edge types: 1
# Building blocks:
#     Node 0, Type 0, BuildingBlock: BETDEL_clean_sbu_0, # of connection points: 6
#     Node 1, Type 0, BuildingBlock: BETDEL_clean_sbu_0, # of connection points: 6
#     Node 2, Type 0, BuildingBlock: BETDEL_clean_sbu_0, # of connection points: 6
#     Node 3, Type 0, BuildingBlock: BETDEL_clean_sbu_0, # of connection points: 6
#     Node 4, Type 0, BuildingBlock: BETDEL_clean_sbu_0, # of connection points: 6
#     Node 5, Type 0, BuildingBlock: BETDEL_clean_sbu_0, # of connection points: 6
#     Node 6, Type 0, BuildingBlock: BETDEL_clean_sbu_0, # of connection points: 6
#     Node 7, Type 0, BuildingBlock: BETDEL_clean_sbu_0, # of connection points: 6
#     Node 8, Type 1, BuildingBlock: GIZVER_clean_sbu_0, # of connection points: 8
#     Node 9, Type 1, BuildingBlock: GIZVER_clean_sbu_0, # of connection points: 8
#     Node 10, Type 1, BuildingBlock: GIZVER_clean_sbu_0, # of connection points: 8
#     Node 11, Type 1, BuildingBlock: GIZVER_clean_sbu_0, # of connection points: 8
#     Node 12, Type 1, BuildingBlock: GIZVER_clean_sbu_0, # of connection points: 8
#     Node 13, Type 1, BuildingBlock: GIZVER_clean_sbu_0, # of connection points: 8
#     Edge 14, Type (0, 1), BuildingBlock: TEMPAE_clean_linker_10, # of connection points: 2
#     Edge 15, Type (0, 1), BuildingBlock: TEMPAE_clean_linker_10, # of connection points: 2
#     Edge 16, Type (0, 1), BuildingBlock: TEMPAE_clean_linker_10, # of connection points: 2
#     Edge 17, Type (0, 1), BuildingBlock: TEMPAE_clean_linker_10, # of connection points: 2
#     Edge 18, Type (0, 1), BuildingBlock: TEMPAE_clean_linker_10, # of connection points: 2
#     Edge 19, Type (0, 1), BuildingBlock: TEMPAE_clean_linker_10, # of connection points: 2
#     Edge 20, Type (0, 1), BuildingBlock: TEMPAE_clean_linker_10, # of connection points: 2
#     Edge 21, Type (0, 1), BuildingBlock: TEMPAE_clean_linker_10, # of connection points: 2
#     Edge 22, Type (0, 1), BuildingBlock: TEMPAE_clean_linker_10, # of connection points: 2
#     Edge 23, Type (0, 1), BuildingBlock: TEMPAE_clean_linker_10, # of connection points: 2
#     Edge 24, Type (0, 1), BuildingBlock: TEMPAE_clean_linker_10, # of connection points: 2
#     Edge 25, Type (0, 1), BuildingBlock: TEMPAE_clean_linker_10, # of connection points: 2
#     Edge 26, Type (0, 1), BuildingBlock: TEMPAE_clean_linker_10, # of connection points: 2
#     Edge 27, Type (0, 1), BuildingBlock: TEMPAE_clean_linker_10, # of connection points: 2
#     Edge 28, Type (0, 1), BuildingBlock: TEMPAE_clean_linker_10, # of connection points: 2
#     Edge 29, Type (0, 1), BuildingBlock: TEMPAE_clean_linker_10, # of connection points: 2
#     Edge 30, Type (0, 1), BuildingBlock: TEMPAE_clean_linker_10, # of connection points: 2
#     Edge 31, Type (0, 1), BuildingBlock: TEMPAE_clean_linker_10, # of connection points: 2
#     Edge 32, Type (0, 1), BuildingBlock: TEMPAE_clean_linker_10, # of connection points: 2
#     Edge 33, Type (0, 1), BuildingBlock: TEMPAE_clean_linker_10, # of connection points: 2
#     Edge 34, Type (0, 1), BuildingBlock: TEMPAE_clean_linker_10, # of connection points: 2
#     Edge 35, Type (0, 1), BuildingBlock: TEMPAE_clean_linker_10, # of connection points: 2
#     Edge 36, Type (0, 1), BuildingBlock: TEMPAE_clean_linker_10, # of connection points: 2
#     Edge 37, Type (0, 1), BuildingBlock: TEMPAE_clean_linker_10, # of connection points: 2
#     Edge 38, Type (0, 1), BuildingBlock: TEMPAE_clean_linker_10, # of connection points: 2
#     Edge 39, Type (0, 1), BuildingBlock: TEMPAE_clean_linker_10, # of connection points: 2
#     Edge 40, Type (0, 1), BuildingBlock: TEMPAE_clean_linker_10, # of connection points: 2
#     Edge 41, Type (0, 1), BuildingBlock: TEMPAE_clean_linker_10, # of connection points: 2
#     Edge 42, Type (0, 1), BuildingBlock: TEMPAE_clean_linker_10, # of connection points: 2
#     Edge 43, Type (0, 1), BuildingBlock: TEMPAE_clean_linker_10, # of connection points: 2
#     Edge 44, Type (0, 1), BuildingBlock: TEMPAE_clean_linker_10, # of connection points: 2
#     Edge 45, Type (0, 1), BuildingBlock: TEMPAE_clean_linker_10, # of connection points: 2
#     Edge 46, Type (0, 1), BuildingBlock: TEMPAE_clean_linker_10, # of connection points: 2
#     Edge 47, Type (0, 1), BuildingBlock: TEMPAE_clean_linker_10, # of connection points: 2
#     Edge 48, Type (0, 1), BuildingBlock: TEMPAE_clean_linker_10, # of connection points: 2
#     Edge 49, Type (0, 1), BuildingBlock: TEMPAE_clean_linker_10, # of connection points: 2
#     Edge 50, Type (0, 1), BuildingBlock: TEMPAE_clean_linker_10, # of connection points: 2
#     Edge 51, Type (0, 1), BuildingBlock: TEMPAE_clean_linker_10, # of connection points: 2
#     Edge 52, Type (0, 1), BuildingBlock: TEMPAE_clean_linker_10, # of connection points: 2
#     Edge 53, Type (0, 1), BuildingBlock: TEMPAE_clean_linker_10, # of connection points: 2
#     Edge 54, Type (0, 1), BuildingBlock: TEMPAE_clean_linker_10, # of connection points: 2
#     Edge 55, Type (0, 1), BuildingBlock: TEMPAE_clean_linker_10, # of connection points: 2
#     Edge 56, Type (0, 1), BuildingBlock: TEMPAE_clean_linker_10, # of connection points: 2
#     Edge 57, Type (0, 1), BuildingBlock: TEMPAE_clean_linker_10, # of connection points: 2
#     Edge 58, Type (0, 1), BuildingBlock: TEMPAE_clean_linker_10, # of connection points: 2
#     Edge 59, Type (0, 1), BuildingBlock: TEMPAE_clean_linker_10, # of connection points: 2
#     Edge 60, Type (0, 1), BuildingBlock: TEMPAE_clean_linker_10, # of connection points: 2
#     Edge 61, Type (0, 1), BuildingBlock: TEMPAE_clean_linker_10, # of connection points: 2
# Relax obj value: 0.134
# Max RMSD: 0.274
# Mean RMSD: 0.184
data_MOF--net-ocu--node1-BETDEL_clean_sbu_0--node2-GIZVER_clean_sbu_0--edge1-TEMPAE_clean_linker_10
_symmetry_space_group_name_H-M    P1
_symmetry_Int_Tables_number       1
_symmetry_cell_setting            triclinic
loop_
_symmetry_equiv_pos_as_xyz
'x, y, z'
_cell_length_a     41.518218
_cell_length_b     43.860197
_cell_length_c     30.187928
_cell_angle_alpha  90.990573
_cell_angle_beta   92.267051
_cell_angle_gamma 105.72614
loop_
_atom_site_label
_atom_site_type_symbol
_atom_site_fract_x
_atom_site_fract_y
_atom_site_fract_z
_atom_type_partial_charge
Dy0 Dy 0.28552 0.25897 0.2927 0.0
C1 C 0.20917 0.27876 0.14694 0.0
C2 C 0.31539 0.23051 0.35503 0.0
Dy3 Dy 0.24381 0.25858 0.21375 0.0
O4 O 0.32452 0.26079 0.34791 0.0
O5 O 0.28914 0.21684 0.33022 0.0
O6 O 0.31483 0.30938 0.28386 0.0
O7 O 0.29736 0.27957 0.2277 0.0
C8 C 0.31222 0.30766 0.24071 0.0
C9 C 0.21875 0.20998 0.26703 0.0
O10 O 0.27557 0.23109 0.18051 0.0
O11 O 0.30247 0.22483 0.24651 0.0
O12 O 0.19699 0.25486 0.17166 0.0
O13 O 0.24075 0.29057 0.15743 0.0
O14 O 0.21751 0.20727 0.22398 0.0
O15 O 0.23216 0.2385 0.27905 0.0
O16 O 0.25129 0.28436 0.32512 0.0
O17 O 0.23125 0.29665 0.25752 0.0
C18 C 0.29663 0.21851 0.20319 0.0
C19 C 0.23369 0.30013 0.30153 0.0
Dy20 Dy 0.78847 0.24086 0.26832 0.0
C21 C 0.70409 0.30195 0.17979 0.0
C22 C 0.831 0.21492 0.31415 0.0
Dy23 Dy 0.74238 0.27877 0.23664 0.0
O24 O 0.80986 0.22778 0.33225 0.0
O25 O 0.82865 0.21597 0.27129 0.0
O26 O 0.77602 0.20967 0.2056 0.0
O27 O 0.74068 0.22932 0.23222 0.0
C28 C 0.74647 0.21399 0.19966 0.0
C29 C 0.78178 0.30513 0.30718 0.0
O30 O 0.70821 0.25017 0.2837 0.0
O31 O 0.74743 0.22783 0.31716 0.0
O32 O 0.73403 0.31721 0.19423 0.0
O33 O 0.69409 0.27485 0.19843 0.0
O34 O 0.75191 0.30862 0.29945 0.0
O35 O 0.78987 0.29072 0.27484 0.0
O36 O 0.82299 0.27784 0.23038 0.0
O37 O 0.78033 0.28459 0.18446 0.0
C38 C 0.71711 0.23261 0.31449 0.0
C39 C 0.8126 0.28889 0.19374 0.0
Dy40 Dy 0.74831 0.76405 0.29369 0.0
C41 C 0.82 0.73304 0.15241 0.0
C42 C 0.71555 0.7907 0.35331 0.0
Dy43 Dy 0.78726 0.75828 0.21365 0.0
O44 O 0.70396 0.76292 0.33424 0.0
O45 O 0.7462 0.80282 0.34229 0.0
O46 O 0.72053 0.71276 0.28747 0.0
O47 O 0.7355 0.73862 0.23015 0.0
C48 C 0.72221 0.71143 0.24454 0.0
C49 C 0.81456 0.80999 0.26499 0.0
O50 O 0.75387 0.78454 0.17903 0.0
O51 O 0.7319 0.79633 0.24444 0.0
O52 O 0.83408 0.75372 0.18332 0.0
O53 O 0.78766 0.72715 0.1534 0.0
O54 O 0.81616 0.80943 0.22198 0.0
O55 O 0.80022 0.78266 0.27776 0.0
O56 O 0.78391 0.74028 0.32814 0.0
O57 O 0.79967 0.72295 0.26162 0.0
C58 C 0.73469 0.79904 0.20082 0.0
C59 C 0.79996 0.72289 0.3058 0.0
Dy60 Dy 0.27715 0.74164 0.23994 0.0
C61 C 0.2279 0.83456 0.3188 0.0
C62 C 0.30028 0.6972 0.19893 0.0
Dy63 Dy 0.23825 0.78971 0.26383 0.0
O64 O 0.30497 0.70465 0.24095 0.0
O65 O 0.28375 0.71461 0.17903 0.0
O66 O 0.3108 0.75671 0.30228 0.0
O67 O 0.28966 0.7884 0.26965 0.0
C68 C 0.30615 0.78483 0.30379 0.0
C69 C 0.20866 0.74892 0.19827 0.0
O70 O 0.27301 0.81803 0.21652 0.0
O71 O 0.2937 0.77796 0.18772 0.0
O72 O 0.21459 0.82877 0.27858 0.0
O73 O 0.24534 0.81508 0.3291 0.0
O74 O 0.20316 0.77671 0.20363 0.0
O75 O 0.2256 0.74348 0.23127 0.0
O76 O 0.23919 0.71189 0.28276 0.0
O77 O 0.21719 0.75117 0.31136 0.0
C78 C 0.291 0.80748 0.18771 0.0
C79 C 0.2201 0.72178 0.3107 0.0
Dy80 Dy 0.30455 0.73356 0.76089 0.0
C81 C 0.20532 0.78954 0.68865 0.0
C82 C 0.34894 0.7235 0.82234 0.0
Dy83 Dy 0.25216 0.7662 0.72993 0.0
O84 O 0.34709 0.71388 0.78094 0.0
O85 O 0.32609 0.73774 0.83009 0.0
O86 O 0.29831 0.70237 0.69996 0.0
O87 O 0.25811 0.71881 0.72064 0.0
C88 C 0.26847 0.70518 0.68925 0.0
C89 C 0.29299 0.79471 0.79902 0.0
O90 O 0.21954 0.7258 0.76543 0.0
O91 O 0.26156 0.70884 0.80173 0.0
O92 O 0.20845 0.78647 0.73107 0.0
O93 O 0.22808 0.78011 0.66839 0.0
O94 O 0.26228 0.79608 0.79409 0.0
O95 O 0.29999 0.78114 0.76553 0.0
O96 O 0.33538 0.76845 0.71679 0.0
O97 O 0.29187 0.78314 0.68018 0.0
C98 C 0.22967 0.70832 0.79542 0.0
C99 C 0.32386 0.78304 0.68431 0.0
Dy100 Dy 0.25576 0.26474 0.79414 0.0
C101 C 0.29517 0.20031 0.65126 0.0
C102 C 0.24575 0.3075 0.85459 0.0
Dy103 Dy 0.28179 0.24424 0.7069 0.0
O104 O 0.23387 0.27687 0.85698 0.0
O105 O 0.26358 0.31433 0.82001 0.0
O106 O 0.21497 0.21863 0.79531 0.0
O107 O 0.23356 0.2374 0.73531 0.0
C108 C 0.2151 0.21352 0.75264 0.0
C109 C 0.32114 0.29613 0.74763 0.0
O110 O 0.24747 0.27119 0.67546 0.0
O111 O 0.23759 0.29421 0.74187 0.0
O112 O 0.30769 0.23086 0.64841 0.0
O113 O 0.27374 0.19442 0.68222 0.0
O114 O 0.32089 0.29134 0.70485 0.0
O115 O 0.30381 0.27182 0.76538 0.0
O116 O 0.28965 0.2374 0.8255 0.0
O117 O 0.30035 0.21519 0.75919 0.0
C118 C 0.23488 0.29168 0.69761 0.0
C119 C 0.3027 0.21735 0.80336 0.0
Dy120 Dy 0.78709 0.22655 0.73243 0.0
C121 C 0.73031 0.32501 0.78552 0.0
C122 C 0.79993 0.17858 0.68624 0.0
Dy123 Dy 0.7495 0.27759 0.74571 0.0
O124 O 0.81182 0.18725 0.72653 0.0
O125 O 0.78252 0.19688 0.67108 0.0
O126 O 0.81724 0.24104 0.79687 0.0
O127 O 0.79979 0.27404 0.7604 0.0
C128 C 0.81383 0.2698 0.79658 0.0
C129 C 0.72322 0.23351 0.6823 0.0
O130 O 0.78947 0.30379 0.70231 0.0
O131 O 0.81281 0.26273 0.68422 0.0
O132 O 0.74851 0.30873 0.80455 0.0
O133 O 0.7219 0.31497 0.74476 0.0
O134 O 0.71968 0.26211 0.68062 0.0
O135 O 0.73694 0.23013 0.71893 0.0
O136 O 0.74906 0.20081 0.77742 0.0
O137 O 0.72663 0.24204 0.7972 0.0
C138 C 0.81028 0.29204 0.67962 0.0
C139 C 0.72912 0.21257 0.80152 0.0
Dy140 Dy 0.78392 0.75084 0.79248 0.0
C141 C 0.72551 0.79207 0.64577 0.0
C142 C 0.80514 0.71625 0.85546 0.0
Dy143 Dy 0.74803 0.7582 0.70845 0.0
O144 O 0.81964 0.74594 0.84844 0.0
O145 O 0.77827 0.70663 0.83004 0.0
O146 O 0.81713 0.8007 0.7893 0.0
O147 O 0.80034 0.77369 0.73054 0.0
C148 C 0.81607 0.80076 0.7461 0.0
C149 C 0.71524 0.70857 0.75518 0.0
O150 O 0.78269 0.73223 0.67766 0.0
O151 O 0.79998 0.71683 0.74521 0.0
O152 O 0.71658 0.76123 0.64666 0.0
O153 O 0.74732 0.80376 0.67771 0.0
O154 O 0.71376 0.70871 0.71202 0.0
O155 O 0.7315 0.73558 0.77027 0.0
O156 O 0.75177 0.77862 0.82415 0.0
O157 O 0.7314 0.7915 0.75668 0.0
C158 C 0.79893 0.71506 0.70107 0.0
C159 C 0.73425 0.79463 0.80084 0.0
Co160 Co 0.06383 0.95301 0.50546 0.0
Co161 Co 0.0578 0.97971 0.58277 0.0
Co162 Co 0.0191 1.00572 0.5104 0.0
O163 O 0.05951 0.99289 0.5242 0.0
H164 H 0.07957 0.00989 0.52074 0.0
O165 O 0.97837 0.01794 0.49673 0.0
Co166 Co 0.97224 0.05669 0.51605 0.0
Co167 Co 0.97973 0.03122 0.4386 0.0
H168 H 0.95858 1.00054 0.49974 0.0
O169 O 0.09421 0.97226 0.61448 0.0
O170 O 0.0578 0.9389 0.56696 0.0
O171 O 1.0169 0.9753 0.61233 0.0
O172 O 0.98908 0.97123 0.54736 0.0
O173 O 0.03029 0.03452 0.56307 0.0
O174 O 0.96108 0.09097 0.53263 0.0
O175 O 0.92782 0.04353 0.50784 0.0
O176 O 0.019 0.07527 0.53029 0.0
O177 O 0.04924 0.04045 0.47352 0.0
O178 O 0.02087 0.0376 0.40913 0.0
O179 O 0.97727 0.07116 0.45461 0.0
O180 O 0.94241 0.03629 0.40701 0.0
C181 C 0.10366 0.93588 0.49879 0.0
C182 C 1.00082 0.94738 0.46174 0.0
C183 C 0.99003 0.96527 0.58881 0.0
C184 C 0.08247 0.94419 0.59631 0.0
C185 C 0.93134 0.07212 0.52346 0.0
C186 C 0.03516 0.06419 0.55981 0.0
C187 C 0.04791 0.04734 0.43238 0.0
C188 C 0.9525 0.06447 0.4253 0.0
O189 O 0.07352 0.91789 0.4895 0.0
O190 O 0.10819 0.96469 0.51418 0.0
O191 O 1.00784 0.97711 0.4576 0.0
O192 O 1.01671 0.93561 0.49075 0.0
Co193 Co 0.55735 0.94613 0.97858 0.0
Co194 Co 0.56056 0.96648 0.05886 0.0
Co195 Co 0.51636 0.00699 0.00281 0.0
O196 O 0.55691 0.98779 0.00615 0.0
H197 H 0.57764 1.00377 0.00183 0.0
O198 O 0.47575 0.02601 7e-05 0.0
Co199 Co 0.47541 0.06788 0.02693 0.0
Co200 Co 0.47044 0.04564 0.94684 0.0
H201 H 0.45522 0.01007 0.00549 0.0
O202 O 0.60211 0.96569 0.08318 0.0
O203 O 0.56779 0.92847 0.03787 0.0
O204 O 0.52086 0.95539 0.0927 0.0
O205 O 0.4915 0.97983 0.04931 0.0
O206 O 0.53933 0.04071 0.04722 0.0
O207 O 0.47184 0.10435 0.05296 0.0
O208 O 0.43013 0.06028 0.0394 0.0
O209 O 0.52324 0.082 0.02075 0.0
O210 O 0.54116 0.03458 0.95611 0.0
O211 O 0.5088 0.05492 0.91096 0.0
O212 O 0.46541 0.08476 0.96715 0.0
O213 O 0.42857 0.04752 0.92465 0.0
C214 C 0.5923 0.92458 0.9496 0.0
C215 C 0.48768 0.94338 0.96547 0.0
C216 C 0.4937 0.96168 0.08108 0.0
C217 C 0.59493 0.93772 0.06412 0.0
C218 C 0.44023 0.0896 0.05522 0.0
C219 C 0.54504 0.07037 0.04029 0.0
C220 C 0.53705 0.05107 0.923 0.0
C221 C 0.43758 0.07596 0.94229 0.0
O222 O 0.56068 0.90994 0.9518 0.0
O223 O 0.60258 0.95379 0.96581 0.0
O224 O 0.4932 0.97306 0.95848 0.0
O225 O 0.50961 0.93195 0.9851 0.0
Co226 Co 0.05897 0.45073 0.98015 0.0
Co227 Co 0.05912 0.47289 0.06149 0.0
Co228 Co 1.01636 0.50624 0.9965 0.0
O229 O 0.05605 0.48966 0.00576 0.0
H230 H 0.07644 0.50621 0.00193 0.0
O231 O 0.97733 0.52364 0.98801 0.0
Co232 Co 0.98137 0.56668 0.00553 0.0
Co233 Co 0.97353 0.53514 0.9292 0.0
H234 H 0.95666 0.50916 0.99656 0.0
O235 O 0.09849 0.46658 0.08676 0.0
O236 O 0.06101 0.43344 0.0401 0.0
O237 O 0.02036 0.46632 0.09636 0.0
O238 O 0.98898 0.47813 0.04107 0.0
O239 O 0.03731 0.54009 0.04233 0.0
O240 O 0.98128 0.60535 0.02239 0.0
O241 O 0.93765 0.56159 0.01585 0.0
O242 O 0.02822 0.57765 -0.00019 0.0
O243 O 0.04363 0.5332 0.95099 0.0
O244 O 1.01134 0.53811 0.89253 0.0
O245 O 0.97375 0.57646 0.94275 0.0
O246 O 0.9327 0.53888 0.90636 0.0
C247 C 0.09713 0.43361 0.95996 0.0
C248 C 0.99136 0.44374 0.95417 0.0
C249 C 0.99211 0.46592 0.07853 0.0
C250 C 0.08746 0.43908 0.06669 0.0
C251 C 0.9496 0.59173 0.02616 0.0
C252 C 0.04487 0.569 0.03111 0.0
C253 C 0.04006 0.54136 0.91117 0.0
C254 C 0.94471 0.56778 0.9215 0.0
O255 O 0.06617 0.41655 0.95552 0.0
O256 O 0.10408 0.4619 0.97845 0.0
O257 O 0.99483 0.47324 0.95003 0.0
O258 O 1.01208 0.43363 0.97761 0.0
Co259 Co 0.55528 0.45591 0.9661 0.0
Co260 Co 0.55816 0.47205 0.04903 0.0
Co261 Co 0.5149 0.50815 0.99848 0.0
O262 O 0.55462 0.4926 0.99783 0.0
H263 H 0.57485 0.50955 0.99507 0.0
O264 O 0.47554 0.52431 -0.00045 0.0
Co265 Co 0.47687 0.56098 0.03368 0.0
Co266 Co 0.47012 0.54556 0.94862 0.0
H267 H 0.45527 0.50758 0.00317 0.0
O268 O 0.59862 0.46917 0.06946 0.0
O269 O 0.56111 0.43511 0.02258 0.0
O270 O 0.52143 0.46155 0.08756 0.0
O271 O 0.48707 0.47311 0.03662 0.0
O272 O 0.53612 0.5333 0.05261 0.0
O273 O 0.473 0.5937 0.06536 0.0
O274 O 0.43278 0.55041 0.04027 0.0
O275 O 0.52377 0.57666 0.03205 0.0
O276 O 0.5421 0.54309 0.9597 0.0
O277 O 0.50679 0.55512 0.90991 0.0
O278 O 0.47254 0.58289 0.97887 0.0
O279 O 0.43 0.55555 0.93367 0.0
C280 C 0.59124 0.43996 0.9383 0.0
C281 C 0.49026 0.45257 0.94256 0.0
C282 C 0.49203 0.45962 0.07264 0.0
C283 C 0.58833 0.44203 0.04806 0.0
C284 C 0.44164 0.5776 0.06175 0.0
C285 C 0.5424 0.56326 0.05402 0.0
C286 C 0.53641 0.55657 0.92388 0.0
C287 C 0.44403 0.5805 0.95836 0.0
O288 O 0.56014 0.42311 0.9357 0.0
O289 O 0.5996 0.46723 0.95966 0.0
O290 O 0.49428 0.48237 0.94465 0.0
O291 O 0.50835 0.43994 0.96711 0.0
Co292 Co 0.08214 0.46787 0.52049 0.0
Co293 Co 0.05706 0.46602 0.44175 0.0
Co294 Co 0.0178 0.50783 0.50422 0.0
O295 O 0.03745 0.46933 0.49628 0.0
H296 H 0.02075 0.44972 0.50135 0.0
O297 O 0.99806 0.54651 0.51155 0.0
Co298 Co 0.95389 0.54862 0.48507 0.0
Co299 Co 0.97667 0.54939 0.56454 0.0
H300 H 1.01505 0.56611 0.50744 0.0
O301 O 0.05782 0.42677 0.41617 0.0
O302 O 0.09833 0.45881 0.46001 0.0
O303 O 0.06603 0.50441 0.40835 0.0
O304 O 0.04172 0.53147 0.45394 0.0
O305 O 0.97852 0.4855 0.46472 0.0
O306 O 0.91583 0.5531 0.45903 0.0
O307 O 0.96321 0.59165 0.47314 0.0
O308 O 0.93759 0.5041 0.49134 0.0
O309 O 0.994 0.48423 0.55473 0.0
O310 O 0.96712 0.51081 0.59722 0.0
O311 O 0.93609 0.5572 0.54465 0.0
O312 O 0.97582 0.58848 0.59041 0.0
C313 C 0.10467 0.4339 0.54767 0.0
C314 C 0.08797 0.53358 0.53482 0.0
C315 C 0.05889 0.52966 0.42035 0.0
C316 C 0.08806 0.43349 0.43379 0.0
C317 C 0.93209 0.58284 0.45707 0.0
C318 C 0.94774 0.48234 0.47247 0.0
C319 C 0.97564 0.48588 0.58715 0.0
C320 C 0.946 0.58221 0.5715 0.0
O321 O 0.12101 0.4636 0.54488 0.0
O322 O 0.07324 0.42512 0.53297 0.0
O323 O 0.0573 0.52983 0.54398 0.0
O324 O 0.0977 0.51266 0.51309 0.0
Co325 Co 0.5822 0.97377 0.49345 0.0
Co326 Co 0.5531 0.97754 0.41703 0.0
Co327 Co 0.51853 0.0078 0.4934 0.0
O328 O 0.538 0.97383 0.47387 0.0
H329 H 0.52229 0.95322 0.47621 0.0
O330 O 0.49916 0.04182 0.5134 0.0
Co331 Co 0.45606 0.04383 0.49226 0.0
Co332 Co 0.48317 0.03866 0.5699 0.0
H333 H 0.51543 0.0622 0.51189 0.0
O334 O 0.55182 0.94133 0.38469 0.0
O335 O 0.59406 0.97042 0.43041 0.0
O336 O 0.55976 0.01814 0.39118 0.0
O337 O 0.54131 0.03929 0.44937 0.0
O338 O 0.48048 0.99011 0.45004 0.0
O339 O 0.41783 0.05098 0.47246 0.0
O340 O 0.46712 0.08624 0.49227 0.0
O341 O 0.43918 0.99852 0.48794 0.0
O342 O 0.49536 0.97638 0.53739 0.0
O343 O 0.4771 0.99815 0.59536 0.0
O344 O 0.44122 0.04301 0.55379 0.0
O345 O 0.47896 0.07399 0.60233 0.0
C346 C 0.60474 0.93962 0.51148 0.0
C347 C 0.58661 0.03559 0.52204 0.0
C348 C 0.55509 0.04181 0.4121 0.0
C349 C 0.58165 0.94625 0.40314 0.0
C350 C 0.43634 0.08018 0.47652 0.0
C351 C 0.45036 0.98117 0.46169 0.0
C352 C 0.48146 0.97426 0.57463 0.0
C353 C 0.44934 0.0664 0.58274 0.0
O354 O 0.62183 0.96928 0.51198 0.0
O355 O 0.57316 0.93166 0.49848 0.0
O356 O 0.55713 0.02543 0.53596 0.0
O357 O 0.59721 0.0192 0.49355 0.0
C358 C 0.18881 0.19393 0.33744 0.0
C359 C 0.19873 0.18545 0.29611 0.0
C360 C 0.16705 0.17139 0.36314 0.0
C361 C 0.15546 0.13935 0.34777 0.0
C362 C 0.16697 0.13043 0.30717 0.0
C363 C 0.18806 0.1536 0.28166 0.0
C364 C 0.15502 0.18228 0.40558 0.0
C365 C 0.156 0.09656 0.28978 0.0
C366 C 0.10979 0.07523 0.42639 0.0
C367 C 0.07619 0.07092 0.41223 0.0
C368 C 0.13599 0.09727 0.4058 0.0
C369 C 0.12838 0.11608 0.37111 0.0
C370 C 0.09442 0.11232 0.35773 0.0
C371 C 0.069 0.08971 0.37795 0.0
C372 C 0.17182 0.10002 0.42057 0.0
C373 C 0.08478 0.13222 0.32184 0.0
H374 H 0.19693 0.2185 0.34888 0.0
H375 H 0.19587 0.1468 0.24999 0.0
H376 H 0.12785 0.18033 0.40151 0.0
H377 H 0.15834 0.1669 0.4332 0.0
H378 H 0.16845 0.20723 0.41497 0.0
H379 H 0.17031 0.09267 0.26088 0.0
H380 H 0.15915 0.08021 0.31622 0.0
H381 H 0.12901 0.09024 0.27943 0.0
H382 H 0.11563 0.06091 0.45282 0.0
H383 H 0.04315 0.08708 0.36714 0.0
H384 H 0.18456 0.12474 0.43168 0.0
H385 H 0.18556 0.09425 0.39222 0.0
H386 H 0.17368 0.08397 0.44804 0.0
H387 H 0.09565 0.15776 0.33033 0.0
H388 H 0.05721 0.12758 0.31684 0.0
H389 H 0.0951 0.12728 0.28999 0.0
C390 C 0.84493 0.18798 0.38075 0.0
C391 C 0.85228 0.19856 0.33793 0.0
C392 C 0.86203 0.16807 0.40087 0.0
C393 C 0.88709 0.15918 0.37752 0.0
C394 C 0.89609 0.17168 0.33551 0.0
C395 C 0.8783 0.19112 0.316 0.0
C396 C 0.85171 0.1549 0.44555 0.0
C397 C 0.92317 0.16309 0.31007 0.0
C398 C 0.94829 0.1198 0.4305 0.0
C399 C 0.93467 0.08835 0.41538 0.0
C400 C 0.93209 0.14304 0.42046 0.0
C401 C 0.9018 0.13447 0.39452 0.0
C402 C 0.88718 0.10254 0.38079 0.0
C403 C 0.90392 0.07978 0.39131 0.0
C404 C 0.94794 0.17686 0.43616 0.0
C405 C 0.85452 0.09262 0.35359 0.0
H406 H 0.82466 0.19384 0.39752 0.0
H407 H 0.88407 0.19973 0.28298 0.0
H408 H 0.8355 0.1303 0.4409 0.0
H409 H 0.87385 0.15397 0.46663 0.0
H410 H 0.83753 0.16913 0.46325 0.0
H411 H 0.92911 0.17715 0.27974 0.0
H412 H 0.94642 0.16693 0.33133 0.0
H413 H 0.91496 0.13759 0.30008 0.0
H414 H 0.97195 0.12643 0.44955 0.0
H415 H 0.89307 0.05536 0.38026 0.0
H416 H 0.9294 0.18653 0.453 0.0
H417 H 0.95621 0.19178 0.40721 0.0
H418 H 0.96992 0.179 0.45938 0.0
H419 H 0.83507 0.10132 0.36985 0.0
H420 H 0.84521 0.06648 0.34879 0.0
H421 H 0.85794 0.10338 0.3205 0.0
C422 C 0.83567 0.83227 0.34041 0.0
C423 C 0.83873 0.83331 0.29435 0.0
C424 C 0.86058 0.85145 0.36933 0.0
C425 C 0.88965 0.8715 0.35172 0.0
C426 C 0.89252 0.87313 0.30515 0.0
C427 C 0.86679 0.85429 0.27698 0.0
C428 C 0.85612 0.84971 0.41871 0.0
C429 C 0.92335 0.89387 0.2851 0.0
C430 C 0.94607 0.94014 0.42013 0.0
C431 C 0.97172 0.9272 0.4356 0.0
C432 C 0.91873 0.92199 0.39395 0.0
C433 C 0.9174 0.89035 0.38191 0.0
C434 C 0.94307 0.87703 0.39774 0.0
C435 C 0.96975 0.89553 0.42494 0.0
C436 C 0.89142 0.93679 0.37888 0.0
C437 C 0.9428 0.84353 0.38496 0.0
H438 H 0.81407 0.81594 0.35393 0.0
H439 H 0.86939 0.85496 0.24139 0.0
H440 H 0.87517 0.83942 0.4346 0.0
H441 H 0.85997 0.87384 0.43351 0.0
H442 H 0.83087 0.83499 0.42681 0.0
H443 H 0.92156 0.89267 0.24827 0.0
H444 H 0.92737 0.91888 0.29634 0.0
H445 H 0.94574 0.88646 0.29656 0.0
H446 H 0.94729 0.96455 0.42865 0.0
H447 H 0.98959 0.88554 0.43672 0.0
H448 H 0.86668 0.92186 0.38837 0.0
H449 H 0.89054 0.93811 0.34222 0.0
H450 H 0.89524 0.96105 0.39333 0.0
H451 H 0.91945 0.82667 0.39543 0.0
H452 H 0.96456 0.83669 0.40011 0.0
H453 H 0.94319 0.84101 0.34836 0.0
C454 C 0.23671 0.86054 0.39327 0.0
C455 C 0.22235 0.85811 0.3501 0.0
C456 C 0.22658 0.87821 0.42622 0.0
C457 C 0.20176 0.89366 0.41516 0.0
C458 C 0.19037 0.89439 0.37037 0.0
C459 C 0.20075 0.87632 0.33822 0.0
C460 C 0.24011 0.87737 0.47317 0.0
C461 C 0.16455 0.91148 0.35712 0.0
C462 C 0.12756 0.89161 0.48121 0.0
C463 C 0.13251 0.92397 0.49001 0.0
C464 C 0.1522 0.88072 0.46128 0.0
C465 C 0.18217 0.90291 0.44996 0.0
C466 C 0.18914 0.93489 0.46446 0.0
C467 C 0.164 0.94519 0.48453 0.0
C468 C 0.14466 0.846 0.44824 0.0
C469 C 0.22161 0.95871 0.45465 0.0
H470 H 0.2543 0.84708 0.4021 0.0
H471 H 0.19039 0.87495 0.30447 0.0
H472 H 0.26752 0.88033 0.47359 0.0
H473 H 0.23513 0.89585 0.49533 0.0
H474 H 0.22854 0.85376 0.4867 0.0
H475 H 0.16198 0.91337 0.32057 0.0
H476 H 0.13983 0.89841 0.36916 0.0
H477 H 0.17125 0.93568 0.37243 0.0
H478 H 0.10361 0.87503 0.48713 0.0
H479 H 0.16812 0.9702 0.49241 0.0
H480 H 0.16662 0.83694 0.45626 0.0
H481 H 0.13915 0.8429 0.4119 0.0
H482 H 0.12276 0.8314 0.4653 0.0
H483 H 0.24305 0.94835 0.45952 0.0
H484 H 0.22609 0.98049 0.47597 0.0
H485 H 0.22068 0.96551 0.41948 0.0
C486 C 0.15686 0.81162 0.69303 0.0
C487 C 0.18213 0.80542 0.668 0.0
C488 C 0.13799 0.83138 0.67713 0.0
C489 C 0.14495 0.84532 0.63547 0.0
C490 C 0.16885 0.83731 0.60875 0.0
C491 C 0.18724 0.81725 0.6254 0.0
C492 C 0.11221 0.83897 0.70617 0.0
C493 C 0.17673 0.85149 0.56402 0.0
C494 C 0.0835 0.88784 0.59036 0.0
C495 C 0.09874 0.919 0.60569 0.0
C496 C 0.09879 0.86362 0.59846 0.0
C497 C 0.12988 0.87086 0.62259 0.0
C498 C 0.14578 0.90238 0.6372 0.0
C499 C 0.1299 0.92612 0.6287 0.0
C500 C 0.08157 0.83031 0.58177 0.0
C501 C 0.17932 0.91092 0.66242 0.0
H502 H 0.15275 0.80206 0.72586 0.0
H503 H 0.20681 0.8123 0.60608 0.0
H504 H 0.12108 0.86402 0.71822 0.0
H505 H 0.08822 0.83619 0.68691 0.0
H506 H 0.10739 0.82359 0.73538 0.0
H507 H 0.18779 0.83638 0.54284 0.0
H508 H 0.15396 0.85464 0.54659 0.0
H509 H 0.19501 0.87515 0.56847 0.0
H510 H 0.05946 0.8823 0.57222 0.0
H511 H 0.14196 0.95027 0.63999 0.0
H512 H 0.07573 0.81433 0.6102 0.0
H513 H 0.09849 0.82133 0.56066 0.0
H514 H 0.05796 0.8289 0.56221 0.0
H515 H 0.17714 0.89842 0.69426 0.0
H516 H 0.18894 0.9368 0.66968 0.0
H517 H 0.19798 0.90311 0.64306 0.0
C518 C 0.19231 0.18708 0.68034 0.0
C519 C 0.18974 0.18915 0.7264 0.0
C520 C 0.16747 0.16591 0.65376 0.0
C521 C 0.13887 0.14692 0.6736 0.0
C522 C 0.1362 0.14868 0.72019 0.0
C523 C 0.16192 0.16962 0.74618 0.0
C524 C 0.17162 0.16428 0.60435 0.0
C525 C 0.10581 0.12906 0.74236 0.0
C526 C 0.06131 0.11701 0.5971 0.0
C527 C 0.06156 0.08557 0.58873 0.0
C528 C 0.08591 0.13707 0.62558 0.0
C529 C 0.11167 0.12552 0.6453 0.0
C530 C 0.11218 0.09387 0.63659 0.0
C531 C 0.08695 0.0742 0.60876 0.0
C532 C 0.08435 0.1706 0.63456 0.0
C533 C 0.13969 0.08093 0.65608 0.0
H534 H 0.21361 0.2024 0.66485 0.0
H535 H 0.15976 0.1714 0.78174 0.0
H536 H 0.16902 0.13945 0.5932 0.0
H537 H 0.15166 0.17227 0.58645 0.0
H538 H 0.19633 0.17923 0.59459 0.0
H539 H 0.10773 0.13296 0.77894 0.0
H540 H 0.08304 0.13505 0.72912 0.0
H541 H 0.10241 0.10351 0.73482 0.0
H542 H 0.04159 0.12579 0.58194 0.0
H543 H 0.08742 0.04995 0.60213 0.0
H544 H 0.10696 0.1876 0.62234 0.0
H545 H 0.08414 0.17516 0.6708 0.0
H546 H 0.06182 0.17544 0.61834 0.0
H547 H 0.16431 0.09498 0.6449 0.0
H548 H 0.13624 0.05566 0.64635 0.0
H549 H 0.1406 0.08311 0.69279 0.0
C550 C 0.79268 0.14664 0.61647 0.0
C551 C 0.80715 0.15342 0.6595 0.0
C552 C 0.80438 0.12758 0.58704 0.0
C553 C 0.83064 0.11487 0.60173 0.0
C554 C 0.84229 0.11855 0.64682 0.0
C555 C 0.83045 0.13807 0.67527 0.0
C556 C 0.78976 0.12253 0.54001 0.0
C557 C 0.86973 0.10459 0.66394 0.0
C558 C 0.87143 0.06113 0.54097 0.0
C559 C 0.90182 0.08301 0.53206 0.0
C560 C 0.84579 0.0714 0.55982 0.0
C561 C 0.85108 0.10403 0.56945 0.0
C562 C 0.87991 0.12634 0.55497 0.0
C563 C 0.90514 0.11548 0.53657 0.0
C564 C 0.81452 0.0473 0.57308 0.0
C565 C 0.88557 0.16157 0.56279 0.0
H566 H 0.77355 0.15765 0.60498 0.0
H567 H 0.84093 0.14281 0.70896 0.0
H568 H 0.778 0.14152 0.53036 0.0
H569 H 0.80882 0.12144 0.51582 0.0
H570 H 0.77007 0.09962 0.53749 0.0
H571 H 0.87237 0.10573 0.70075 0.0
H572 H 0.86474 0.0795 0.6525 0.0
H573 H 0.89396 0.11791 0.65076 0.0
H574 H 0.86866 0.03596 0.53653 0.0
H575 H 0.92827 0.13239 0.52817 0.0
H576 H 0.79201 0.05513 0.56352 0.0
H577 H 0.81521 0.04512 0.60965 0.0
H578 H 0.81205 0.02358 0.55755 0.0
H579 H 0.86276 0.16872 0.55262 0.0
H580 H 0.90691 0.17566 0.54424 0.0
H581 H 0.89098 0.16753 0.59868 0.0
C582 C 0.84942 0.85709 0.73681 0.0
C583 C 0.8374 0.82603 0.7195 0.0
C584 C 0.87111 0.88085 0.71288 0.0
C585 C 0.8819 0.8732 0.67112 0.0
C586 C 0.86916 0.84196 0.65309 0.0
C587 C 0.84673 0.81892 0.67718 0.0
C588 C 0.88329 0.91395 0.73294 0.0
C589 C 0.88053 0.83238 0.60937 0.0
C590 C 0.92816 0.93892 0.59566 0.0
C591 C 0.9617 0.94188 0.60873 0.0
C592 C 0.90178 0.91696 0.61587 0.0
C593 C 0.90917 0.8968 0.64883 0.0
C594 C 0.94307 0.89922 0.66108 0.0
C595 C 0.96872 0.9219 0.64144 0.0
C596 C 0.86603 0.91569 0.60255 0.0
C597 C 0.95238 0.87771 0.69493 0.0
H598 H 0.842 0.8628 0.76928 0.0
H599 H 0.83754 0.79494 0.66359 0.0
H600 H 0.91032 0.91917 0.74268 0.0
H601 H 0.88047 0.93159 0.70823 0.0
H602 H 0.86951 0.91705 0.76275 0.0
H603 H 0.86666 0.80785 0.59846 0.0
H604 H 0.87722 0.84884 0.58319 0.0
H605 H 0.90764 0.83386 0.6125 0.0
H606 H 0.92256 0.95424 0.57041 0.0
H607 H 0.99457 0.92359 0.65124 0.0
H608 H 0.85284 0.92048 0.63204 0.0
H609 H 0.85257 0.89163 0.58947 0.0
H610 H 0.86439 0.93315 0.57691 0.0
H611 H 0.94265 0.88184 0.72754 0.0
H612 H 0.97991 0.88152 0.69913 0.0
H613 H 0.94073 0.85255 0.68485 0.0
C614 C 0.33579 0.18264 0.20476 0.0
C615 C 0.31531 0.19778 0.18014 0.0
C616 C 0.35437 0.164 0.18411 0.0
C617 C 0.35287 0.1599 0.13717 0.0
C618 C 0.33198 0.17483 0.11211 0.0
C619 C 0.31358 0.19336 0.13367 0.0
C620 C 0.37589 0.14876 0.21278 0.0
C621 C 0.32963 0.17184 0.06218 0.0
C622 C 0.42817 0.13991 0.0841 0.0
C623 C 0.41677 0.10701 0.07479 0.0
C624 C 0.40766 0.15716 0.10337 0.0
C625 C 0.37446 0.14153 0.1145 0.0
C626 C 0.36256 0.10835 0.10482 0.0
C627 C 0.3836 0.09164 0.08501 0.0
C628 C 0.42185 0.19232 0.11228 0.0
C629 C 0.32758 0.09035 0.11596 0.0
H630 H 0.33753 0.18546 0.24059 0.0
H631 H 0.29813 0.20478 0.11388 0.0
H632 H 0.36653 0.12259 0.20897 0.0
H633 H 0.40207 0.15562 0.20206 0.0
H634 H 0.37602 0.15553 0.24842 0.0
H635 H 0.31092 0.18308 0.04735 0.0
H636 H 0.35443 0.18323 0.04892 0.0
H637 H 0.32277 0.14651 0.05133 0.0
H638 H 0.45349 0.15247 0.0763 0.0
H639 H 0.37419 0.06638 0.07815 0.0
H640 H 0.42232 0.19771 0.14839 0.0
H641 H 0.40561 0.20541 0.0956 0.0
H642 H 0.44766 0.20133 0.1006 0.0
H643 H 0.32472 0.09211 0.15223 0.0
H644 H 0.32155 0.06491 0.10569 0.0
H645 H 0.30906 0.101 0.09944 0.0
C646 C 0.87015 0.31214 0.16876 0.0
C647 C 0.83678 0.31302 0.16999 0.0
C648 C 0.89453 0.33767 0.15257 0.0
C649 C 0.88533 0.36501 0.13896 0.0
C650 C 0.85152 0.36575 0.13944 0.0
C651 C 0.82749 0.33946 0.15433 0.0
C652 C 0.93014 0.33554 0.15045 0.0
C653 C 0.84099 0.39479 0.12606 0.0
C654 C 0.95667 0.44034 0.13989 0.0
C655 C 0.96247 0.44313 0.09465 0.0
C656 C 0.93051 0.41565 0.15477 0.0
C657 C 0.91109 0.39269 0.12369 0.0
C658 C 0.91702 0.39554 0.07801 0.0
C659 C 0.94218 0.42115 0.06404 0.0
C660 C 0.92412 0.41372 0.20367 0.0
C661 C 0.89766 0.37107 0.0439 0.0
H662 H 0.87722 0.29166 0.18105 0.0
H663 H 0.80174 0.34039 0.15608 0.0
H664 H 0.93904 0.34052 0.11644 0.0
H665 H 0.94685 0.35367 0.17321 0.0
H666 H 0.93266 0.31186 0.15967 0.0
H667 H 0.81368 0.3916 0.12891 0.0
H668 H 0.85481 0.41544 0.14736 0.0
H669 H 0.84743 0.40057 0.09134 0.0
H670 H 0.97269 0.45725 0.16346 0.0
H671 H 0.94734 0.42293 0.02921 0.0
H672 H 0.93062 0.39271 0.21728 0.0
H673 H 0.89715 0.41075 0.20898 0.0
H674 H 0.93905 0.43514 0.2227 0.0
H675 H 0.89594 0.34674 0.0551 0.0
H676 H 0.9094 0.37395 0.01127 0.0
H677 H 0.87178 0.37328 0.03923 0.0
C678 C 0.69059 0.82937 0.19932 0.0
C679 C 0.71441 0.8182 0.17669 0.0
C680 C 0.67098 0.84718 0.17815 0.0
C681 C 0.67498 0.85467 0.13277 0.0
C682 C 0.69887 0.84343 0.10954 0.0
C683 C 0.71804 0.82531 0.13153 0.0
C684 C 0.64598 0.85821 0.20473 0.0
C685 C 0.70466 0.85105 0.0615 0.0
C686 C 0.6046 0.88272 0.07173 0.0
C687 C 0.61623 0.91589 0.07698 0.0
C688 C 0.6236 0.86255 0.0886 0.0
C689 C 0.65543 0.87561 0.11079 0.0
C690 C 0.66779 0.90909 0.11432 0.0
C691 C 0.64817 0.92857 0.09785 0.0
C692 C 0.60901 0.82715 0.08406 0.0
C693 C 0.70161 0.92452 0.13669 0.0
H694 H 0.68704 0.8241 0.23403 0.0
H695 H 0.73616 0.81701 0.11336 0.0
H696 H 0.65255 0.88447 0.2061 0.0
H697 H 0.6206 0.84963 0.18842 0.0
H698 H 0.64504 0.84971 0.23921 0.0
H699 H 0.72284 0.83953 0.04731 0.0
H700 H 0.68068 0.84334 0.04159 0.0
H701 H 0.71428 0.87707 0.05822 0.0
H702 H 0.5801 0.87241 0.05583 0.0
H703 H 0.65785 0.95406 0.10194 0.0
H704 H 0.60448 0.81708 0.11745 0.0
H705 H 0.627 0.81611 0.06845 0.0
H706 H 0.58503 0.82053 0.06393 0.0
H707 H 0.70116 0.91899 0.17242 0.0
H708 H 0.70896 0.95069 0.1337 0.0
H709 H 0.7211 0.91497 0.12207 0.0
C710 C 0.19721 0.69542 0.16189 0.0
C711 C 0.18742 0.72316 0.1694 0.0
C712 C 0.17645 0.66971 0.1371 0.0
C713 C 0.14432 0.67116 0.12152 0.0
C714 C 0.13422 0.69912 0.12918 0.0
C715 C 0.15621 0.72506 0.15228 0.0
C716 C 0.18875 0.64088 0.12824 0.0
C717 C 0.09978 0.70127 0.11422 0.0
C718 C 0.09385 0.61637 0.02986 0.0
C719 C 0.07258 0.59292 0.05418 0.0
C720 C 0.11838 0.64123 0.05132 0.0
C721 C 0.12082 0.64322 0.09826 0.0
C722 C 0.09968 0.61923 0.12297 0.0
C723 C 0.07615 0.59399 0.10051 0.0
C724 C 0.14147 0.66547 0.0238 0.0
C725 C 0.10085 0.62098 0.17305 0.0
H726 H 0.22102 0.69367 0.17577 0.0
H727 H 0.14836 0.74632 0.15858 0.0
H728 H 0.17446 0.62078 0.14751 0.0
H729 H 0.18458 0.63359 0.09262 0.0
H730 H 0.21582 0.6452 0.13752 0.0
H731 H 0.09558 0.72447 0.12347 0.0
H732 H 0.09618 0.69772 0.0777 0.0
H733 H 0.0804 0.68218 0.12928 0.0
H734 H 0.09117 0.61532 0.99394 0.0
H735 H 0.0594 0.57596 0.1192 0.0
H736 H 0.16776 0.66501 0.03095 0.0
H737 H 0.13986 0.68965 0.03259 0.0
H738 H 0.13553 0.66105 0.98767 0.0
H739 H 0.12638 0.62209 0.18652 0.0
H740 H 0.08285 0.60035 0.18728 0.0
H741 H 0.09495 0.64297 0.18447 0.0
C742 C 0.35269 0.81722 0.82306 0.0
C743 C 0.31886 0.81409 0.83065 0.0
C744 C 0.37823 0.83745 0.84971 0.0
C745 C 0.36984 0.8546 0.88557 0.0
C746 C 0.33571 0.85045 0.89478 0.0
C747 C 0.3105 0.83037 0.86686 0.0
C748 C 0.41423 0.84139 0.83828 0.0
C749 C 0.32593 0.86765 0.93354 0.0
C750 C 0.44425 0.89085 0.96491 0.0
C751 C 0.4555 0.92152 0.94861 0.0
C752 C 0.41508 0.86926 0.94656 0.0
C753 C 0.397 0.8785 0.91086 0.0
C754 C 0.40744 0.90988 0.89568 0.0
C755 C 0.43638 0.93105 0.91499 0.0
C756 C 0.40426 0.83623 0.96428 0.0
C757 C 0.3892 0.92058 0.85725 0.0
H758 H 0.35933 0.80456 0.79524 0.0
H759 H 0.28436 0.82771 0.87303 0.0
H760 H 0.42581 0.86629 0.82938 0.0
H761 H 0.42884 0.83627 0.8674 0.0
H762 H 0.41649 0.82559 0.81009 0.0
H763 H 0.29836 0.86142 0.93674 0.0
H764 H 0.33769 0.86177 0.9647 0.0
H765 H 0.33533 0.89363 0.92983 0.0
H766 H 0.4585 0.88356 0.99159 0.0
H767 H 0.44477 0.95476 0.90236 0.0
H768 H 0.40419 0.81847 0.93763 0.0
H769 H 0.37829 0.83134 0.97555 0.0
H770 H 0.42091 0.83282 0.99239 0.0
H771 H 0.392 0.90747 0.8265 0.0
H772 H 0.39891 0.94638 0.85175 0.0
H773 H 0.36204 0.91519 0.86297 0.0
C774 C 0.23793 0.36135 0.86255 0.0
C775 C 0.23356 0.33097 0.87934 0.0
C776 C 0.21978 0.38157 0.87854 0.0
C777 C 0.19759 0.37144 0.91305 0.0
C778 C 0.19558 0.34189 0.93279 0.0
C779 C 0.21337 0.32184 0.91535 0.0
C780 C 0.22203 0.41239 0.85572 0.0
C781 C 0.17257 0.32982 0.96972 0.0
C782 C 0.1565 0.43038 0.96517 0.0
C783 C 0.12391 0.41972 0.94621 0.0
C784 C 0.18114 0.41523 0.95459 0.0
C785 C 0.17295 0.38924 0.92371 0.0
C786 C 0.14041 0.37938 0.90316 0.0
C787 C 0.11622 0.39443 0.91515 0.0
C788 C 0.21574 0.42752 0.97635 0.0
C789 C 0.13097 0.3528 0.86851 0.0
H790 H 0.25363 0.36844 0.8346 0.0
H791 H 0.21008 0.29838 0.92847 0.0
H792 H 0.22875 0.43241 0.88028 0.0
H793 H 0.24088 0.41699 0.82978 0.0
H794 H 0.19725 0.41189 0.83998 0.0
H795 H 0.18406 0.31614 0.99325 0.0
H796 H 0.1663 0.34927 0.98822 0.0
H797 H 0.149 0.31347 0.95553 0.0
H798 H 0.16255 0.44998 0.9892 0.0
H799 H 0.09113 0.38635 0.90003 0.0
H800 H 0.23054 0.44715 0.9567 0.0
H801 H 0.22934 0.40901 0.97853 0.0
H802 H 0.21453 0.4374 0.01019 0.0
H803 H 0.15005 0.35646 0.84295 0.0
H804 H 0.10615 0.35083 0.85176 0.0
H805 H 0.13005 0.32996 0.8843 0.0
C806 C 0.68054 0.19925 0.85118 0.0
C807 C 0.70468 0.18981 0.8274 0.0
C808 C 0.65417 0.1766 0.86955 0.0
C809 C 0.65176 0.14398 0.86304 0.0
C810 C 0.67683 0.13444 0.84081 0.0
C811 C 0.70319 0.15746 0.82381 0.0
C812 C 0.6282 0.18749 0.89426 0.0
C813 C 0.67491 0.09983 0.83292 0.0
C814 C 0.59653 0.08197 0.93236 0.0
C815 C 0.5673 0.07195 0.90488 0.0
C816 C 0.62389 0.10604 0.91966 0.0
C817 C 0.62242 0.11957 0.87779 0.0
C818 C 0.59352 0.10883 0.84915 0.0
C819 C 0.566 0.08537 0.86336 0.0
C820 C 0.65403 0.11741 0.95143 0.0
C821 C 0.59158 0.1223 0.80372 0.0
H822 H 0.68161 0.22416 0.85429 0.0
H823 H 0.72178 0.14979 0.80573 0.0
H824 H 0.60449 0.18218 0.87371 0.0
H825 H 0.62275 0.17457 0.92555 0.0
H826 H 0.63631 0.21335 0.90222 0.0
H827 H 0.65215 0.08831 0.81195 0.0
H828 H 0.69711 0.09646 0.81619 0.0
H829 H 0.67281 0.08739 0.86478 0.0
H830 H 0.59751 0.07207 0.96488 0.0
H831 H 0.54336 0.07779 0.84226 0.0
H832 H 0.65957 0.14339 0.95738 0.0
H833 H 0.67637 0.11278 0.93676 0.0
H834 H 0.65027 0.10565 0.98386 0.0
H835 H 0.59428 0.14812 0.80685 0.0
H836 H 0.56756 0.11086 0.78519 0.0
H837 H 0.6125 0.11916 0.78398 0.0
C838 C 0.85005 0.70451 0.90411 0.0
C839 C 0.82261 0.69409 0.87409 0.0
C840 C 0.86992 0.68438 0.91598 0.0
C841 C 0.86282 0.65361 0.89587 0.0
C842 C 0.83509 0.64323 0.86523 0.0
C843 C 0.81474 0.66321 0.85592 0.0
C844 C 0.89895 0.697 0.94887 0.0
C845 C 0.82744 0.61156 0.84067 0.0
C846 C 0.9365 0.61793 0.893 0.0
C847 C 0.92458 0.59032 0.91649 0.0
C848 C 0.91652 0.63867 0.88566 0.0
C849 C 0.88483 0.63257 0.905 0.0
C850 C 0.87339 0.60506 0.93034 0.0
C851 C 0.89313 0.58389 0.93474 0.0
C852 C 0.92929 0.66644 0.85617 0.0
C853 C 0.84018 0.59687 0.95233 0.0
H854 H 0.85635 0.72855 0.91772 0.0
H855 H 0.79383 0.65527 0.83195 0.0
H856 H 0.90861 0.67803 0.96347 0.0
H857 H 0.91953 0.71375 0.93217 0.0
H858 H 0.89138 0.71067 0.97597 0.0
H859 H 0.81099 0.61077 0.8105 0.0
H860 H 0.85076 0.60611 0.83061 0.0
H861 H 0.81425 0.59262 0.86257 0.0
H862 H 0.9609 0.62261 0.87881 0.0
H863 H 0.88413 0.56245 0.95316 0.0
H864 H 0.94286 0.6874 0.87697 0.0
H865 H 0.90863 0.67249 0.83694 0.0
H866 H 0.94719 0.66156 0.83243 0.0
H867 H 0.82664 0.61537 0.94973 0.0
H868 H 0.84411 0.59248 0.98792 0.0
H869 H 0.82392 0.57438 0.93737 0.0
C870 C 0.2044 0.32358 0.10064 0.0
C871 C 0.18873 0.29666 0.1238 0.0
C872 C 0.18697 0.34547 0.08791 0.0
C873 C 0.15307 0.34036 0.09906 0.0
C874 C 0.13678 0.31242 0.12091 0.0
C875 C 0.15469 0.29057 0.13222 0.0
C876 C 0.20605 0.3748 0.06513 0.0
C877 C 0.10115 0.30653 0.13498 0.0
C878 C 0.12777 0.41687 0.1104 0.0
C879 C 0.10406 0.41376 0.07514 0.0
C880 C 0.1429 0.39256 0.11945 0.0
C881 C 0.13547 0.3652 0.09107 0.0
C882 C 0.11135 0.3619 0.0555 0.0
C883 C 0.0955 0.38592 0.04867 0.0
C884 C 0.16651 0.39622 0.15979 0.0
C885 C 0.10129 0.33326 0.02434 0.0
H886 H 0.23084 0.32843 0.09437 0.0
H887 H 0.14264 0.26987 0.1506 0.0
H888 H 0.18943 0.38766 0.04897 0.0
H889 H 0.22314 0.39102 0.08981 0.0
H890 H 0.22204 0.36847 0.03983 0.0
H891 H 0.09397 0.28623 0.15745 0.0
H892 H 0.09767 0.32793 0.15216 0.0
H893 H 0.08376 0.3013 0.1053 0.0
H894 H 0.13401 0.43802 0.13165 0.0
H895 H 0.07647 0.38277 0.02214 0.0
H896 H 0.19271 0.40455 0.14953 0.0
H897 H 0.16349 0.37332 0.17648 0.0
H898 H 0.16243 0.41387 0.18426 0.0
H899 H 0.10326 0.34103 0.98948 0.0
H900 H 0.07456 0.32074 0.02851 0.0
H901 H 0.1164 0.31622 0.02948 0.0
C902 C 0.17622 0.68853 0.83286 0.0
C903 C 0.20422 0.68256 0.81417 0.0
C904 C 0.15032 0.66353 0.84727 0.0
C905 C 0.15207 0.63193 0.84095 0.0
C906 C 0.18018 0.62585 0.82136 0.0
C907 C 0.20627 0.65139 0.80883 0.0
C908 C 0.12116 0.67089 0.86933 0.0
C909 C 0.18229 0.59245 0.81268 0.0
C910 C 0.1001 0.57187 0.91589 0.0
C911 C 0.07018 0.56044 0.89006 0.0
C912 C 0.12726 0.59462 0.89986 0.0
C913 C 0.12492 0.60541 0.85635 0.0
C914 C 0.0958 0.59238 0.82888 0.0
C915 C 0.06851 0.57025 0.84628 0.0
C916 C 0.15786 0.60808 0.93025 0.0
C917 C 0.09294 0.6028 0.78182 0.0
H918 H 0.17473 0.71275 0.83636 0.0
H919 H 0.22768 0.64694 0.79314 0.0
H920 H 0.09766 0.66037 0.84932 0.0
H921 H 0.11815 0.66015 0.90246 0.0
H922 H 0.1244 0.69678 0.87349 0.0
H923 H 0.20556 0.59186 0.79617 0.0
H924 H 0.18139 0.5798 0.84429 0.0
H925 H 0.16042 0.57921 0.79134 0.0
H926 H 0.10181 0.56435 0.94972 0.0
H927 H 0.04561 0.56135 0.82603 0.0
H928 H 0.16382 0.63432 0.9322 0.0
H929 H 0.17981 0.60193 0.91672 0.0
H930 H 0.15448 0.59902 0.96438 0.0
H931 H 0.09061 0.6274 0.78211 0.0
H932 H 0.07082 0.58731 0.76302 0.0
H933 H 0.11582 0.60278 0.76405 0.0
C934 C 0.34168 0.18177 0.8036 0.0
C935 C 0.32261 0.19799 0.82751 0.0
C936 C 0.36086 0.16364 0.82491 0.0
C937 C 0.36098 0.16087 0.87171 0.0
C938 C 0.34176 0.17711 0.89614 0.0
C939 C 0.32314 0.19555 0.87395 0.0
C940 C 0.38094 0.14725 0.79701 0.0
C941 C 0.34033 0.1745 0.94581 0.0
C942 C 0.38373 0.08688 0.91451 0.0
C943 C 0.41747 0.09868 0.92944 0.0
C944 C 0.36489 0.10691 0.89766 0.0
C945 C 0.38002 0.13989 0.8944 0.0
C946 C 0.41385 0.15215 0.91054 0.0
C947 C 0.43197 0.13157 0.92824 0.0
C948 C 0.32884 0.0925 0.8822 0.0
C949 C 0.43142 0.18691 0.90739 0.0
H950 H 0.34187 0.18333 0.76781 0.0
H951 H 0.30861 0.20775 0.89303 0.0
H952 H 0.4075 0.15393 0.80946 0.0
H953 H 0.37121 0.1212 0.79957 0.0
H954 H 0.37995 0.15324 0.76147 0.0
H955 H 0.32525 0.18924 0.96034 0.0
H956 H 0.32921 0.14944 0.95434 0.0
H957 H 0.36598 0.18189 0.96147 0.0
H958 H 0.37198 0.06162 0.91549 0.0
H959 H 0.45797 0.1411 0.93936 0.0
H960 H 0.32613 0.09447 0.84574 0.0
H961 H 0.31249 0.1056 0.89753 0.0
H962 H 0.31979 0.06711 0.89048 0.0
H963 H 0.43332 0.19331 0.87199 0.0
H964 H 0.45701 0.19321 0.92337 0.0
H965 H 0.41671 0.20144 0.92321 0.0
C966 C 0.84463 0.32679 0.80596 0.0
C967 C 0.83529 0.29649 0.82375 0.0
C968 C 0.86793 0.35195 0.82854 0.0
C969 C 0.88169 0.34693 0.87053 0.0
C970 C 0.87083 0.31682 0.88985 0.0
C971 C 0.84808 0.29175 0.86588 0.0
C972 C 0.87934 0.38322 0.80587 0.0
C973 C 0.88367 0.311 0.93552 0.0
C974 C 0.96952 0.39606 0.90523 0.0
C975 C 0.96316 0.42036 0.93114 0.0
C976 C 0.94319 0.37246 0.8846 0.0
C977 C 0.90965 0.37224 0.89205 0.0
C978 C 0.90312 0.39659 0.91878 0.0
C979 C 0.93006 0.42095 0.93703 0.0
C980 C 0.95129 0.34786 0.85464 0.0
C981 C 0.86778 0.39656 0.92876 0.0
H982 H 0.83491 0.33059 0.77328 0.0
H983 H 0.84053 0.26841 0.87985 0.0
H984 H 0.88184 0.40349 0.82939 0.0
H985 H 0.90435 0.38537 0.79249 0.0
H986 H 0.86173 0.38509 0.77803 0.0
H987 H 0.9113 0.3155 0.93635 0.0
H988 H 0.87783 0.3277 0.95991 0.0
H989 H 0.87244 0.2864 0.94609 0.0
H990 H 0.99523 0.39582 0.90062 0.0
H991 H 0.92529 0.4397 0.95744 0.0
H992 H 0.93891 0.34771 0.82131 0.0
H993 H 0.94147 0.32395 0.86819 0.0
H994 H 0.97865 0.35224 0.8508 0.0
H995 H 0.85361 0.3989 0.89766 0.0
H996 H 0.86706 0.41612 0.95225 0.0
H997 H 0.85468 0.37368 0.94323 0.0
C998 C 0.69742 0.83266 0.79958 0.0
C999 C 0.71584 0.81548 0.82411 0.0
C1000 C 0.67911 0.85147 0.82042 0.0
C1001 C 0.67891 0.85372 0.86744 0.0
C1002 C 0.69777 0.83675 0.89245 0.0
C1003 C 0.71584 0.81802 0.87071 0.0
C1004 C 0.65965 0.86881 0.79185 0.0
C1005 C 0.69836 0.8379 0.94244 0.0
C1006 C 0.64933 0.92185 0.92197 0.0
C1007 C 0.61553 0.90706 0.92975 0.0
C1008 C 0.67024 0.90495 0.90227 0.0
C1009 C 0.65748 0.87222 0.89008 0.0
C1010 C 0.62358 0.85719 0.89861 0.0
C1011 C 0.60328 0.87458 0.91796 0.0
C1012 C 0.70605 0.92228 0.89405 0.0
C1013 C 0.60842 0.82253 0.88677 0.0
H1014 H 0.69701 0.83126 0.76369 0.0
H1015 H 0.72974 0.80505 0.89044 0.0
H1016 H 0.63307 0.86263 0.80094 0.0
H1017 H 0.67005 0.89474 0.79762 0.0
H1018 H 0.66047 0.8632 0.75598 0.0
H1019 H 0.71524 0.82469 0.95739 0.0
H1020 H 0.70665 0.86284 0.95503 0.0
H1021 H 0.67272 0.82759 0.95389 0.0
H1022 H 0.6594 0.94676 0.93082 0.0
H1023 H 0.57744 0.86246 0.92381 0.0
H1024 H 0.71023 0.92174 0.858 0.0
H1025 H 0.72328 0.91023 0.91076 0.0
H1026 H 0.71266 0.94736 0.90616 0.0
H1027 H 0.60921 0.81847 0.85049 0.0
H1028 H 0.58202 0.81394 0.89645 0.0
H1029 H 0.62325 0.80807 0.90339 0.0
C1030 C 0.86309 0.70387 0.1548 0.0
C1031 C 0.83741 0.71228 0.13078 0.0
C1032 C 0.8786 0.68206 0.13719 0.0
C1033 C 0.86933 0.66955 0.09358 0.0
C1034 C 0.84334 0.67809 0.06906 0.0
C1035 C 0.82708 0.69883 0.08854 0.0
C1036 C 0.90448 0.67199 0.16563 0.0
C1037 C 0.83214 0.66541 0.0226 0.0
C1038 C 0.93913 0.6442 0.03984 0.0
C1039 C 0.92767 0.61107 0.04081 0.0
C1040 C 0.91994 0.66344 0.05566 0.0
C1041 C 0.88848 0.64921 0.0733 0.0
C1042 C 0.87647 0.61575 0.07378 0.0
C1043 C 0.89613 0.59701 0.0571 0.0
C1044 C 0.93432 0.69899 0.05488 0.0
C1045 C 0.84328 0.59979 0.0929 0.0
H1046 H 0.87028 0.71354 0.18817 0.0
H1047 H 0.8067 0.70491 0.07044 0.0
H1048 H 0.92943 0.68034 0.15138 0.0
H1049 H 0.90636 0.68156 0.20024 0.0
H1050 H 0.89814 0.64574 0.16636 0.0
H1051 H 0.82529 0.68377 0.00224 0.0
H1052 H 0.85155 0.65715 0.00572 0.0
H1053 H 0.80941 0.64517 0.02402 0.0
H1054 H 0.96342 0.6553 0.027 0.0
H1055 H 0.88717 0.57141 0.05783 0.0
H1056 H 0.9492 0.70736 0.0862 0.0
H1057 H 0.91454 0.71158 0.05174 0.0
H1058 H 0.95146 0.70585 0.02721 0.0
H1059 H 0.84238 0.60905 0.12716 0.0
H1060 H 0.8386 0.57364 0.09363 0.0
H1061 H 0.82274 0.60524 0.07274 0.0
C1062 C 0.32011 0.86357 0.17386 0.0
C1063 C 0.31498 0.83131 0.16289 0.0
C1064 C 0.34802 0.88631 0.15969 0.0
C1065 C 0.37084 0.87659 0.13309 0.0
C1066 C 0.36441 0.84452 0.11878 0.0
C1067 C 0.33656 0.82211 0.13416 0.0
C1068 C 0.35415 0.92038 0.17547 0.0
C1069 C 0.38793 0.83356 0.08937 0.0
C1070 C 0.43229 0.93889 0.07179 0.0
C1071 C 0.46193 0.94278 0.09809 0.0
C1072 C 0.40249 0.91734 0.08275 0.0
C1073 C 0.40207 0.89986 0.12158 0.0
C1074 C 0.43146 0.9044 0.14926 0.0
C1075 C 0.46128 0.92567 0.13688 0.0
C1076 C 0.3718 0.91248 0.05194 0.0
C1077 C 0.43153 0.88625 0.19132 0.0
H1078 H 0.30354 0.871 0.19596 0.0
H1079 H 0.33263 0.79727 0.12533 0.0
H1080 H 0.37703 0.92723 0.19774 0.0
H1081 H 0.35854 0.93638 0.14696 0.0
H1082 H 0.33288 0.92432 0.19379 0.0
H1083 H 0.37647 0.80935 0.07507 0.0
H1084 H 0.39552 0.85007 0.06189 0.0
H1085 H 0.41099 0.83335 0.10908 0.0
H1086 H 0.4326 0.9516 0.04126 0.0
H1087 H 0.48414 0.9285 0.15708 0.0
H1088 H 0.35101 0.91761 0.06998 0.0
H1089 H 0.36326 0.88737 0.04009 0.0
H1090 H 0.37656 0.92775 0.02261 0.0
H1091 H 0.41194 0.88995 0.21314 0.0
H1092 H 0.45611 0.89349 0.21003 0.0
H1093 H 0.42546 0.8605 0.18314 0.0
C1094 C 0.72621 0.1781 0.13269 0.0
C1095 C 0.71949 0.19534 0.16899 0.0
C1096 C 0.69984 0.15882 0.10565 0.0
C1097 C 0.66623 0.15652 0.11584 0.0
C1098 C 0.65952 0.17459 0.15185 0.0
C1099 C 0.6862 0.19396 0.17763 0.0
C1100 C 0.70785 0.14057 0.0667 0.0
C1101 C 0.62411 0.17239 0.16455 0.0
C1102 C 0.58958 0.1221 0.03951 0.0
C1103 C 0.57759 0.09175 0.05653 0.0
C1104 C 0.6197 0.14291 0.05656 0.0
C1105 C 0.63782 0.13327 0.09186 0.0
C1106 C 0.62641 0.10226 0.10799 0.0
C1107 C 0.59663 0.08181 0.08986 0.0
C1108 C 0.63154 0.17554 0.03785 0.0
C1109 C 0.64468 0.0912 0.1461 0.0
H1110 H 0.75197 0.17943 0.12576 0.0
H1111 H 0.68084 0.20723 0.20572 0.0
H1112 H 0.6958 0.11486 0.06959 0.0
H1113 H 0.69756 0.14814 0.0356 0.0
H1114 H 0.73524 0.14425 0.06394 0.0
H1115 H 0.62325 0.18899 0.19243 0.0
H1116 H 0.60928 0.17763 0.13575 0.0
H1117 H 0.61177 0.14791 0.17454 0.0
H1118 H 0.57534 0.12966 0.01306 0.0
H1119 H 0.58761 0.05835 0.10306 0.0
H1120 H 0.65789 0.18006 0.02819 0.0
H1121 H 0.6309 0.19374 0.06354 0.0
H1122 H 0.61586 0.17861 0.00849 0.0
H1123 H 0.67153 0.09516 0.13922 0.0
H1124 H 0.63387 0.06568 0.15259 0.0
H1125 H 0.64341 0.10517 0.17667 0.0
C1126 C 0.68672 0.6912 0.82589 0.0
C1127 C 0.69277 0.68419 0.78196 0.0
C1128 C 0.66334 0.66939 0.85047 0.0
C1129 C 0.64596 0.63948 0.83105 0.0
C1130 C 0.65319 0.63176 0.78739 0.0
C1131 C 0.67621 0.65428 0.76326 0.0
C1132 C 0.65618 0.67895 0.89654 0.0
C1133 C 0.63583 0.6 0.76562 0.0
C1134 C 0.59784 0.57505 0.90683 0.0
C1135 C 0.5648 0.577 0.89984 0.0
C1136 C 0.62448 0.59483 0.88431 0.0
C1137 C 0.61813 0.61758 0.85475 0.0
C1138 C 0.58488 0.61973 0.8479 0.0
C1139 C 0.55876 0.59935 0.87008 0.0
C1140 C 0.65942 0.59136 0.89208 0.0
C1141 C 0.57685 0.6439 0.81742 0.0
H1142 H 0.69944 0.71425 0.84064 0.0
H1143 H 0.68099 0.64859 0.72949 0.0
H1144 H 0.62996 0.68052 0.89702 0.0
H1145 H 0.65871 0.66078 0.92052 0.0
H1146 H 0.67318 0.70219 0.90793 0.0
H1147 H 0.64664 0.59636 0.73352 0.0
H1148 H 0.6376 0.5806 0.78789 0.0
H1149 H 0.60884 0.59817 0.75948 0.0
H1150 H 0.60285 0.55789 0.92963 0.0
H1151 H 0.53349 0.60142 0.86461 0.0
H1152 H 0.67619 0.61378 0.90645 0.0
H1153 H 0.66966 0.58664 0.86005 0.0
H1154 H 0.66011 0.57187 0.91481 0.0
H1155 H 0.5915 0.6681 0.82858 0.0
H1156 H 0.54982 0.64295 0.81624 0.0
H1157 H 0.58413 0.63991 0.7833 0.0
C1158 C 0.39451 0.70033 0.84525 0.0
C1159 C 0.37021 0.71513 0.85699 0.0
C1160 C 0.40936 0.68523 0.87713 0.0
C1161 C 0.39904 0.68473 0.92145 0.0
C1162 C 0.37784 0.70328 0.9344 0.0
C1163 C 0.36356 0.71844 0.90171 0.0
C1164 C 0.43326 0.66692 0.86218 0.0
C1165 C 0.36755 0.70497 0.98152 0.0
C1166 C 0.39519 0.60247 0.94824 0.0
C1167 C 0.42863 0.60672 0.96217 0.0
C1168 C 0.38265 0.6287 0.94253 0.0
C1169 C 0.4046 0.65945 0.94973 0.0
C1170 C 0.43621 0.66341 0.97138 0.0
C1171 C 0.44815 0.6368 0.97706 0.0
C1172 C 0.34751 0.62366 0.92302 0.0
C1173 C 0.45902 0.69584 0.98311 0.0
H1174 H 0.40027 0.69872 0.8107 0.0
H1175 H 0.34533 0.73079 0.91088 0.0
H1176 H 0.45605 0.67235 0.88452 0.0
H1177 H 0.42104 0.64111 0.86334 0.0
H1178 H 0.44107 0.67246 0.82779 0.0
H1179 H 0.34128 0.69049 0.98387 0.0
H1180 H 0.38372 0.69641 0.00566 0.0
H1181 H 0.36826 0.72976 0.99089 0.0
H1182 H 0.37953 0.57896 0.93901 0.0
H1183 H 0.47363 0.64001 0.98993 0.0
H1184 H 0.34849 0.62925 0.88729 0.0
H1185 H 0.33491 0.63968 0.93976 0.0
H1186 H 0.33219 0.5988 0.92615 0.0
H1187 H 0.47373 0.70516 0.954 0.0
H1188 H 0.4769 0.69482 0.01106 0.0
H1189 H 0.44447 0.71264 0.99222 0.0
C1190 C 0.36788 0.34612 0.75249 0.0
C1191 C 0.34365 0.32289 0.77327 0.0
C1192 C 0.3912 0.36995 0.77771 0.0
C1193 C 0.38966 0.37068 0.82452 0.0
C1194 C 0.36417 0.34811 0.84531 0.0
C1195 C 0.34185 0.32421 0.81948 0.0
C1196 C 0.41839 0.39337 0.75453 0.0
C1197 C 0.36129 0.34836 0.89505 0.0
C1198 C 0.46799 0.40259 0.89784 0.0
C1199 C 0.46492 0.4324 0.91116 0.0
C1200 C 0.44428 0.38284 0.86828 0.0
C1201 C 0.41643 0.39289 0.85231 0.0
C1202 C 0.41328 0.42309 0.86528 0.0
C1203 C 0.43781 0.44268 0.89432 0.0
C1204 C 0.44873 0.35094 0.8548 0.0
C1205 C 0.38354 0.43426 0.84958 0.0
H1206 H 0.36934 0.34504 0.71675 0.0
H1207 H 0.32337 0.30608 0.83572 0.0
H1208 H 0.41961 0.41795 0.76544 0.0
H1209 H 0.44302 0.38928 0.76359 0.0
H1210 H 0.41446 0.39128 0.71786 0.0
H1211 H 0.33773 0.33163 0.90535 0.0
H1212 H 0.38275 0.34158 0.91109 0.0
H1213 H 0.36222 0.3725 0.9077 0.0
H1214 H 0.48912 0.39469 0.91038 0.0
H1215 H 0.43535 0.46571 0.90465 0.0
H1216 H 0.44731 0.34808 0.81812 0.0
H1217 H 0.42822 0.33179 0.86764 0.0
H1218 H 0.47303 0.34773 0.86758 0.0
H1219 H 0.38083 0.4328 0.81285 0.0
H1220 H 0.3857 0.459 0.86088 0.0
H1221 H 0.36029 0.41856 0.8623 0.0
C1222 C 0.72427 0.35418 0.85427 0.0
C1223 C 0.71856 0.34938 0.80834 0.0
C1224 C 0.70885 0.37369 0.87771 0.0
C1225 C 0.68755 0.38873 0.85432 0.0
C1226 C 0.68417 0.38616 0.80745 0.0
C1227 C 0.69963 0.36625 0.78493 0.0
C1228 C 0.71286 0.37562 0.92769 0.0
C1229 C 0.66198 0.40227 0.78143 0.0
C1230 C 0.60892 0.39489 0.90698 0.0
C1231 C 0.61685 0.42715 0.91883 0.0
C1232 C 0.63231 0.382 0.88746 0.0
C1233 C 0.66419 0.40205 0.87874 0.0
C1234 C 0.67273 0.43454 0.89142 0.0
C1235 C 0.6489 0.44675 0.91173 0.0
C1236 C 0.62259 0.34699 0.87537 0.0
C1237 C 0.70664 0.45639 0.88264 0.0
H1238 H 0.73926 0.3413 0.87229 0.0
H1239 H 0.6957 0.36282 0.74927 0.0
H1240 H 0.71359 0.39957 0.94086 0.0
H1241 H 0.69109 0.35849 0.94159 0.0
H1242 H 0.73596 0.36956 0.93965 0.0
H1243 H 0.66618 0.40197 0.74532 0.0
H1244 H 0.63533 0.38991 0.78646 0.0
H1245 H 0.66638 0.42721 0.79327 0.0
H1246 H 0.58431 0.37957 0.913 0.0
H1247 H 0.65507 0.47171 0.92106 0.0
H1248 H 0.64098 0.33566 0.89073 0.0
H1249 H 0.62283 0.34356 0.8389 0.0
H1250 H 0.59728 0.33454 0.88635 0.0
H1251 H 0.72677 0.44676 0.89684 0.0
H1252 H 0.70997 0.48066 0.89681 0.0
H1253 H 0.70982 0.45798 0.84635 0.0
C1254 C 0.70249 0.33301 0.11312 0.0
C1255 C 0.68527 0.31315 0.14519 0.0
C1256 C 0.68536 0.34809 0.08396 0.0
C1257 C 0.65083 0.34419 0.08905 0.0
C1258 C 0.63279 0.32116 0.11779 0.0
C1259 C 0.6504 0.30546 0.14543 0.0
C1260 C 0.70503 0.37113 0.05185 0.0
C1261 C 0.59583 0.31629 0.12381 0.0
C1262 C 0.62733 0.42084 0.09369 0.0
C1263 C 0.60605 0.41788 0.05592 0.0
C1264 C 0.64217 0.39691 0.10445 0.0
C1265 C 0.63647 0.36992 0.07571 0.0
C1266 C 0.61626 0.36738 0.03637 0.0
C1267 C 0.60059 0.39123 0.02741 0.0
C1268 C 0.66322 0.40027 0.14728 0.0
C1269 C 0.61154 0.33992 0.00366 0.0
H1270 H 0.7295 0.33785 0.11209 0.0
H1271 H 0.63728 0.28936 0.16979 0.0
H1272 H 0.68909 0.37415 0.02282 0.0
H1273 H 0.71529 0.39459 0.06889 0.0
H1274 H 0.72649 0.36311 0.04005 0.0
H1275 H 0.58464 0.29404 0.14117 0.0
H1276 H 0.59219 0.33645 0.14388 0.0
H1277 H 0.58211 0.31565 0.09139 0.0
H1278 H 0.6314 0.44134 0.11593 0.0
H1279 H 0.58395 0.38887 0.99831 0.0
H1280 H 0.68946 0.40131 0.14002 0.0
H1281 H 0.65362 0.37944 0.16812 0.0
H1282 H 0.66337 0.42197 0.16692 0.0
H1283 H 0.63488 0.34282 0.98554 0.0
H1284 H 0.59063 0.33868 0.97898 0.0
H1285 H 0.60677 0.31705 0.02077 0.0
C1286 C 0.70264 0.68614 0.1701 0.0
C1287 C 0.70087 0.68534 0.21633 0.0
C1288 C 0.67972 0.66364 0.14262 0.0
C1289 C 0.6539 0.64039 0.16191 0.0
C1290 C 0.65294 0.63865 0.20865 0.0
C1291 C 0.67672 0.66097 0.23534 0.0
C1292 C 0.68209 0.66582 0.09293 0.0
C1293 C 0.62549 0.61457 0.2305 0.0
C1294 C 0.57133 0.6133 0.09552 0.0
C1295 C 0.57126 0.58274 0.08114 0.0
C1296 C 0.59805 0.63216 0.12193 0.0
C1297 C 0.62576 0.62043 0.13347 0.0
C1298 C 0.62615 0.58977 0.11843 0.0
C1299 C 0.59863 0.57108 0.09281 0.0
C1300 C 0.59639 0.66451 0.13794 0.0
C1301 C 0.65564 0.57684 0.12921 0.0
H1302 H 0.72129 0.70495 0.15532 0.0
H1303 H 0.6753 0.66027 0.2711 0.0
H1304 H 0.67921 0.64204 0.07747 0.0
H1305 H 0.66151 0.67494 0.07897 0.0
H1306 H 0.70631 0.68188 0.08349 0.0
H1307 H 0.62998 0.61453 0.26703 0.0
H1308 H 0.60118 0.61993 0.22355 0.0
H1309 H 0.62315 0.59043 0.2167 0.0
H1310 H 0.55012 0.62232 0.08679 0.0
H1311 H 0.59875 0.54754 0.0814 0.0
H1312 H 0.61768 0.68307 0.12556 0.0
H1313 H 0.59856 0.66613 0.17472 0.0
H1314 H 0.5727 0.66978 0.12678 0.0
H1315 H 0.67886 0.59306 0.11721 0.0
H1316 H 0.6524 0.55288 0.11402 0.0
H1317 H 0.65923 0.57549 0.16565 0.0
C1318 C 0.30772 0.66763 0.13104 0.0
C1319 C 0.3133 0.67347 0.17682 0.0
C1320 C 0.32355 0.64782 0.10891 0.0
C1321 C 0.34514 0.63376 0.13352 0.0
C1322 C 0.34883 0.63783 0.1802 0.0
C1323 C 0.33278 0.65774 0.20137 0.0
C1324 C 0.31854 0.64316 0.05917 0.0
C1325 C 0.37174 0.62314 0.20743 0.0
C1326 C 0.38386 0.57265 0.08573 0.0
C1327 C 0.41608 0.59163 0.0782 0.0
C1328 C 0.35966 0.58615 0.1022 0.0
C1329 C 0.36807 0.61924 0.11047 0.0
C1330 C 0.40002 0.63862 0.10058 0.0
C1331 C 0.42382 0.62447 0.08509 0.0
C1332 C 0.32568 0.56499 0.1123 0.0
C1333 C 0.40948 0.6742 0.10767 0.0
H1334 H 0.29201 0.67943 0.11234 0.0
H1335 H 0.33664 0.66202 0.23692 0.0
H1336 H 0.34304 0.64928 0.04332 0.0
H1337 H 0.30622 0.61787 0.05075 0.0
H1338 H 0.30287 0.6577 0.04465 0.0
H1339 H 0.36858 0.62543 0.2436 0.0
H1340 H 0.36702 0.59766 0.19826 0.0
H1341 H 0.39818 0.63502 0.20053 0.0
H1342 H 0.37786 0.54724 0.07986 0.0
H1343 H 0.44853 0.63923 0.07821 0.0
H1344 H 0.30556 0.57432 0.09743 0.0
H1345 H 0.32284 0.56464 0.14869 0.0
H1346 H 0.32203 0.54026 0.09976 0.0
H1347 H 0.39042 0.68421 0.09121 0.0
H1348 H 0.43429 0.68593 0.09454 0.0
H1349 H 0.41028 0.68014 0.14365 0.0
C1350 C 0.34927 0.36235 0.22941 0.0
C1351 C 0.3341 0.33157 0.2125 0.0
C1352 C 0.37236 0.3845 0.20488 0.0
C1353 C 0.38111 0.37563 0.16255 0.0
C1354 C 0.36501 0.34485 0.14473 0.0
C1355 C 0.34154 0.32334 0.1697 0.0
C1356 C 0.3883 0.41712 0.22501 0.0
C1357 C 0.37373 0.3341 0.1001 0.0
C1358 C 0.42998 0.43928 0.08601 0.0
C1359 C 0.46322 0.43875 0.09567 0.0
C1360 C 0.403 0.4191 0.10754 0.0
C1361 C 0.40921 0.39741 0.13898 0.0
C1362 C 0.44267 0.39664 0.14847 0.0
C1363 C 0.46909 0.41735 0.12712 0.0
C1364 C 0.36784 0.42111 0.09685 0.0
C1365 C 0.45065 0.37372 0.18115 0.0
H1366 H 0.34347 0.369 0.26229 0.0
H1367 H 0.32995 0.29962 0.15633 0.0
H1368 H 0.41528 0.41987 0.23288 0.0
H1369 H 0.38657 0.43554 0.20099 0.0
H1370 H 0.37638 0.42148 0.25592 0.0
H1371 H 0.35739 0.31038 0.08945 0.0
H1372 H 0.37156 0.35137 0.07452 0.0
H1373 H 0.40014 0.33299 0.10164 0.0
H1374 H 0.42505 0.45565 0.06186 0.0
H1375 H 0.49451 0.41636 0.13472 0.0
H1376 H 0.35645 0.42669 0.12754 0.0
H1377 H 0.35207 0.39789 0.08357 0.0
H1378 H 0.36713 0.43946 0.0722 0.0
H1379 H 0.44226 0.37838 0.21441 0.0
H1380 H 0.47784 0.37544 0.18403 0.0
H1381 H 0.43689 0.34907 0.17085 0.0
C1382 C 0.82627 0.69789 0.63366 0.0
C1383 C 0.81809 0.69454 0.6785 0.0
C1384 C 0.8458 0.6798 0.61348 0.0
C1385 C 0.85733 0.65709 0.63809 0.0
C1386 C 0.84855 0.65323 0.68311 0.0
C1387 C 0.82948 0.67191 0.70259 0.0
C1388 C 0.85485 0.6856 0.5659 0.0
C1389 C 0.85958 0.62938 0.7111 0.0
C1390 C 0.88771 0.59115 0.57862 0.0
C1391 C 0.9228 0.60199 0.58493 0.0
C1392 C 0.86624 0.60877 0.59504 0.0
C1393 C 0.8798 0.63852 0.61782 0.0
C1394 C 0.91524 0.65001 0.62272 0.0
C1395 C 0.936 0.63171 0.6068 0.0
C1396 C 0.82885 0.59505 0.58907 0.0
C1397 C 0.93142 0.68165 0.64555 0.0
H1398 H 0.81807 0.71527 0.61444 0.0
H1399 H 0.82348 0.6687 0.73712 0.0
H1400 H 0.88245 0.69442 0.5641 0.0
H1401 H 0.84675 0.6631 0.54607 0.0
H1402 H 0.84325 0.70316 0.55061 0.0
H1403 H 0.85021 0.62852 0.74512 0.0
H1404 H 0.85044 0.60543 0.69513 0.0
H1405 H 0.88732 0.63532 0.71364 0.0
H1406 H 0.87689 0.56837 0.56198 0.0
H1407 H 0.96292 0.64079 0.61181 0.0
H1408 H 0.81751 0.61201 0.5718 0.0
H1409 H 0.81773 0.59109 0.62203 0.0
H1410 H 0.82198 0.57223 0.5698 0.0
H1411 H 0.92186 0.70041 0.62998 0.0
H1412 H 0.95915 0.68841 0.64419 0.0
H1413 H 0.92482 0.68088 0.68084 0.0
C1414 C 0.33921 0.82473 0.62754 0.0
C1415 C 0.34873 0.80403 0.65695 0.0
C1416 C 0.36346 0.8493 0.60906 0.0
C1417 C 0.39772 0.85326 0.62082 0.0
C1418 C 0.40754 0.83062 0.64683 0.0
C1419 C 0.38289 0.80612 0.66446 0.0
C1420 C 0.35238 0.87229 0.57939 0.0
C1421 C 0.44395 0.83368 0.65891 0.0
C1422 C 0.46104 0.91583 0.56131 0.0
C1423 C 0.46491 0.94232 0.58992 0.0
C1424 C 0.43976 0.88634 0.57117 0.0
C1425 C 0.4226 0.8832 0.61104 0.0
C1426 C 0.42803 0.9093 0.64136 0.0
C1427 C 0.44909 0.93861 0.63036 0.0
C1428 C 0.43543 0.85893 0.53846 0.0
C1429 C 0.41043 0.90663 0.6846 0.0
H1430 H 0.3129 0.82288 0.62085 0.0
H1431 H 0.39054 0.78976 0.68632 0.0
H1432 H 0.35657 0.89542 0.59737 0.0
H1433 H 0.36746 0.87644 0.54943 0.0
H1434 H 0.32544 0.86365 0.56878 0.0
H1435 H 0.44757 0.81221 0.67506 0.0
H1436 H 0.45896 0.83798 0.62893 0.0
H1437 H 0.45388 0.85433 0.68207 0.0
H1438 H 0.47335 0.91837 0.53004 0.0
H1439 H 0.45214 0.95889 0.65275 0.0
H1440 H 0.40951 0.84319 0.53716 0.0
H1441 H 0.45253 0.84457 0.54887 0.0
H1442 H 0.44178 0.86728 0.50453 0.0
H1443 H 0.38298 0.90132 0.67771 0.0
H1444 H 0.41873 0.92872 0.70545 0.0
H1445 H 0.41512 0.88682 0.70385 0.0
C1446 C 0.19983 0.33093 0.69733 0.0
C1447 C 0.2151 0.31117 0.6734 0.0
C1448 C 0.18086 0.34924 0.67595 0.0
C1449 C 0.17678 0.34828 0.62898 0.0
C1450 C 0.19196 0.32829 0.60454 0.0
C1451 C 0.21075 0.31006 0.62686 0.0
C1452 C 0.16537 0.36992 0.70387 0.0
C1453 C 0.18881 0.32655 0.55458 0.0
C1454 C 0.1057 0.37958 0.57647 0.0
C1455 C 0.1226 0.41095 0.56668 0.0
C1456 C 0.1229 0.35883 0.59594 0.0
C1457 C 0.15805 0.36934 0.60577 0.0
C1458 C 0.17524 0.40072 0.59495 0.0
C1459 C 0.15748 0.42093 0.57588 0.0
C1460 C 0.1033 0.32572 0.60672 0.0
C1461 C 0.21256 0.41326 0.60414 0.0
H1462 H 0.20264 0.3322 0.73321 0.0
H1463 H 0.22219 0.29502 0.6077 0.0
H1464 H 0.17597 0.39515 0.69581 0.0
H1465 H 0.13798 0.36394 0.69624 0.0
H1466 H 0.16974 0.3673 0.73998 0.0
H1467 H 0.20002 0.30847 0.54033 0.0
H1468 H 0.16207 0.32088 0.5431 0.0
H1469 H 0.20155 0.34995 0.54132 0.0
H1470 H 0.07889 0.37135 0.56958 0.0
H1471 H 0.17117 0.44489 0.5683 0.0
H1472 H 0.10504 0.32248 0.64302 0.0
H1473 H 0.11418 0.30812 0.59056 0.0
H1474 H 0.07645 0.32059 0.59581 0.0
H1475 H 0.21846 0.41336 0.64032 0.0
H1476 H 0.22259 0.43769 0.59223 0.0
H1477 H 0.22578 0.39756 0.58787 0.0
C1478 C 0.70431 0.17557 0.66559 0.0
C1479 C 0.7063 0.20646 0.6522 0.0
C1480 C 0.68674 0.14913 0.63955 0.0
C1481 C 0.67075 0.15358 0.59885 0.0
C1482 C 0.67381 0.18475 0.58419 0.0
C1483 C 0.69138 0.21092 0.61129 0.0
C1484 C 0.68416 0.11641 0.65662 0.0
C1485 C 0.65767 0.19045 0.54064 0.0
C1486 C 0.64097 0.07881 0.52568 0.0
C1487 C 0.60774 0.06716 0.53817 0.0
C1488 C 0.66146 0.10783 0.54339 0.0
C1489 C 0.64839 0.12554 0.57423 0.0
C1490 C 0.61445 0.11459 0.58525 0.0
C1491 C 0.5946 0.08565 0.5671 0.0
C1492 C 0.69749 0.11879 0.53068 0.0
C1493 C 0.59946 0.13268 0.61798 0.0
H1494 H 0.71579 0.17194 0.69722 0.0
H1495 H 0.69309 0.23478 0.60073 0.0
H1496 H 0.65768 0.10444 0.66318 0.0
H1497 H 0.69229 0.10178 0.63132 0.0
H1498 H 0.69962 0.11706 0.6877 0.0
H1499 H 0.66627 0.2156 0.53104 0.0
H1500 H 0.66325 0.17525 0.51388 0.0
H1501 H 0.63009 0.18403 0.54326 0.0
H1502 H 0.65126 0.06492 0.50294 0.0
H1503 H 0.56884 0.07718 0.57652 0.0
H1504 H 0.71413 0.1161 0.55914 0.0
H1505 H 0.70426 0.14427 0.52266 0.0
H1506 H 0.7025 0.10498 0.50181 0.0
H1507 H 0.61181 0.13284 0.6513 0.0
H1508 H 0.57208 0.12218 0.62054 0.0
H1509 H 0.60386 0.15769 0.60821 0.0
C1510 C 0.83827 0.34208 0.32092 0.0
C1511 C 0.80686 0.32698 0.33679 0.0
C1512 C 0.86137 0.3656 0.34653 0.0
C1513 C 0.85327 0.37334 0.38967 0.0
C1514 C 0.82229 0.3568 0.40682 0.0
C1515 C 0.79906 0.3342 0.37969 0.0
C1516 C 0.89369 0.38327 0.32646 0.0
C1517 C 0.81344 0.36352 0.45332 0.0
C1518 C 0.92714 0.42386 0.45967 0.0
C1519 C 0.92248 0.45406 0.45458 0.0
C1520 C 0.9038 0.39696 0.44066 0.0
C1521 C 0.87595 0.40072 0.41485 0.0
C1522 C 0.87103 0.43126 0.41027 0.0
C1523 C 0.89409 0.45751 0.4309 0.0
C1524 C 0.90906 0.36465 0.44781 0.0
C1525 C 0.84225 0.43643 0.38195 0.0
H1526 H 0.84416 0.33661 0.28752 0.0
H1527 H 0.77479 0.32223 0.39189 0.0
H1528 H 0.89429 0.40859 0.32325 0.0
H1529 H 0.91546 0.38238 0.34839 0.0
H1530 H 0.89668 0.37348 0.29316 0.0
H1531 H 0.79 0.34641 0.46319 0.0
H1532 H 0.8341 0.36257 0.47727 0.0
H1533 H 0.8102 0.38777 0.45583 0.0
H1534 H 0.94896 0.42132 0.47861 0.0
H1535 H 0.89071 0.481 0.42692 0.0
H1536 H 0.91004 0.35257 0.41551 0.0
H1537 H 0.88759 0.34975 0.46522 0.0
H1538 H 0.9325 0.36592 0.4677 0.0
H1539 H 0.84417 0.42872 0.34716 0.0
H1540 H 0.84182 0.46164 0.38229 0.0
H1541 H 0.81807 0.42188 0.39367 0.0
C1542 C 0.70692 0.838 0.39266 0.0
C1543 C 0.69385 0.81045 0.36656 0.0
C1544 C 0.68823 0.85994 0.39868 0.0
C1545 C 0.65625 0.85463 0.3768 0.0
C1546 C 0.64336 0.82709 0.3495 0.0
C1547 C 0.66188 0.80486 0.34587 0.0
C1548 C 0.70347 0.88932 0.42708 0.0
C1549 C 0.61076 0.82168 0.32247 0.0
C1550 C 0.59146 0.89407 0.41653 0.0
C1551 C 0.60044 0.92298 0.39527 0.0
C1552 C 0.60976 0.87185 0.41139 0.0
C1553 C 0.6364 0.87793 0.382 0.0
C1554 C 0.644 0.90636 0.35797 0.0
C1555 C 0.62653 0.92906 0.36603 0.0
C1556 C 0.60167 0.84286 0.43946 0.0
C1557 C 0.67036 0.91313 0.3237 0.0
H1558 H 0.73203 0.84269 0.40762 0.0
H1559 H 0.65221 0.78407 0.32433 0.0
H1560 H 0.71503 0.90915 0.40554 0.0
H1561 H 0.68419 0.89631 0.44613 0.0
H1562 H 0.72343 0.88586 0.45043 0.0
H1563 H 0.60851 0.80368 0.29534 0.0
H1564 H 0.58936 0.81319 0.34406 0.0
H1565 H 0.6085 0.84404 0.30766 0.0
H1566 H 0.57061 0.88916 0.43822 0.0
H1567 H 0.63279 0.95124 0.34879 0.0
H1568 H 0.62214 0.84553 0.46495 0.0
H1569 H 0.60025 0.82099 0.41975 0.0
H1570 H 0.57782 0.83981 0.4565 0.0
H1571 H 0.69445 0.92736 0.33946 0.0
H1572 H 0.66345 0.92732 0.2966 0.0
H1573 H 0.67423 0.89115 0.30884 0.0
C1574 C 0.16212 0.69779 0.33242 0.0
C1575 C 0.19574 0.69736 0.33348 0.0
C1576 C 0.13718 0.67133 0.34506 0.0
C1577 C 0.14643 0.64444 0.36022 0.0
C1578 C 0.1806 0.64461 0.36349 0.0
C1579 C 0.20485 0.67096 0.34928 0.0
C1580 C 0.1009 0.67155 0.34014 0.0
C1581 C 0.19155 0.61658 0.38031 0.0
C1582 C 0.08813 0.58639 0.43091 0.0
C1583 C 0.07712 0.5599 0.4019 0.0
C1584 C 0.11031 0.61425 0.4175 0.0
C1585 C 0.12053 0.61617 0.37336 0.0
C1586 C 0.10797 0.59023 0.34302 0.0
C1587 C 0.08687 0.56196 0.35799 0.0
C1588 C 0.1244 0.64085 0.45133 0.0
C1589 C 0.11778 0.59196 0.29531 0.0
H1590 H 0.15509 0.718 0.31907 0.0
H1591 H 0.23089 0.67065 0.34951 0.0
H1592 H 0.08734 0.65257 0.31602 0.0
H1593 H 0.08869 0.66647 0.37222 0.0
H1594 H 0.098 0.69459 0.32849 0.0
H1595 H 0.21866 0.62318 0.39023 0.0
H1596 H 0.1771 0.60616 0.40908 0.0
H1597 H 0.18689 0.59797 0.35367 0.0
H1598 H 0.08107 0.58473 0.46517 0.0
H1599 H 0.07837 0.54145 0.33568 0.0
H1600 H 0.11888 0.66294 0.44021 0.0
H1601 H 0.15205 0.64563 0.45458 0.0
H1602 H 0.11413 0.63528 0.48459 0.0
H1603 H 0.11518 0.61428 0.28072 0.0
H1604 H 0.10232 0.5716 0.27471 0.0
H1605 H 0.14444 0.59204 0.29372 0.0
C1606 C 0.33563 0.1828 0.35648 0.0
C1607 C 0.33688 0.2125 0.37537 0.0
C1608 C 0.35639 0.16498 0.37288 0.0
C1609 C 0.37761 0.17625 0.41091 0.0
C1610 C 0.38015 0.20702 0.42897 0.0
C1611 C 0.3599 0.225 0.41044 0.0
C1612 C 0.35536 0.13397 0.34939 0.0
C1613 C 0.40405 0.22172 0.46728 0.0
C1614 C 0.38864 0.10407 0.46959 0.0
C1615 C 0.42237 0.10633 0.4636 0.0
C1616 C 0.37448 0.12806 0.45575 0.0
C1617 C 0.39421 0.15417 0.43304 0.0
C1618 C 0.42845 0.1565 0.42685 0.0
C1619 C 0.44238 0.13297 0.4435 0.0
C1620 C 0.33802 0.12432 0.46449 0.0
C1621 C 0.45003 0.18296 0.40103 0.0
H1622 H 0.31882 0.17366 0.32799 0.0
H1623 H 0.36165 0.2485 0.42395 0.0
H1624 H 0.38093 0.13082 0.34764 0.0
H1625 H 0.34001 0.11399 0.36787 0.0
H1626 H 0.34404 0.13252 0.31519 0.0
H1627 H 0.39064 0.23152 0.49266 0.0
H1628 H 0.41647 0.20507 0.48318 0.0
H1629 H 0.42371 0.242 0.45516 0.0
H1630 H 0.37318 0.08344 0.48507 0.0
H1631 H 0.46852 0.13454 0.43866 0.0
H1632 H 0.3221 0.10514 0.44246 0.0
H1633 H 0.33013 0.14628 0.45959 0.0
H1634 H 0.33302 0.11694 0.49902 0.0
H1635 H 0.43644 0.18696 0.37021 0.0
H1636 H 0.4738 0.17794 0.39194 0.0
H1637 H 0.45643 0.20522 0.42142 0.0
C1638 C 0.70033 0.83678 0.6444 0.0
C1639 C 0.70722 0.81136 0.62166 0.0
C1640 C 0.6821 0.85546 0.62364 0.0
C1641 C 0.67161 0.84928 0.57844 0.0
C1642 C 0.67906 0.82382 0.55506 0.0
C1643 C 0.69609 0.80454 0.57743 0.0
C1644 C 0.67374 0.88154 0.65038 0.0
C1645 C 0.66958 0.81708 0.50649 0.0
C1646 C 0.60271 0.88573 0.53917 0.0
C1647 C 0.62143 0.91523 0.52493 0.0
C1648 C 0.61865 0.86338 0.55516 0.0
C1649 C 0.65404 0.87052 0.55598 0.0
C1650 C 0.67293 0.89982 0.54 0.0
C1651 C 0.65641 0.92189 0.52495 0.0
C1652 C 0.5977 0.83266 0.57265 0.0
C1653 C 0.71075 0.90864 0.54081 0.0
H1654 H 0.70854 0.84162 0.67899 0.0
H1655 H 0.70149 0.78476 0.56011 0.0
H1656 H 0.68327 0.90468 0.63458 0.0
H1657 H 0.64614 0.87681 0.65148 0.0
H1658 H 0.68454 0.88363 0.68491 0.0
H1659 H 0.6831 0.80112 0.49141 0.0
H1660 H 0.64233 0.80552 0.5023 0.0
H1661 H 0.67522 0.83944 0.4882 0.0
H1662 H 0.57565 0.88049 0.53914 0.0
H1663 H 0.67101 0.94456 0.51359 0.0
H1664 H 0.60429 0.83111 0.60838 0.0
H1665 H 0.60309 0.81231 0.55509 0.0
H1666 H 0.57043 0.83039 0.56868 0.0
H1667 H 0.72087 0.91673 0.57484 0.0
H1668 H 0.72103 0.92816 0.51801 0.0
H1669 H 0.71991 0.88795 0.53166 0.0
C1670 C 0.69775 0.19168 0.37112 0.0
C1671 C 0.69044 0.21296 0.34078 0.0
C1672 C 0.67204 0.16727 0.38719 0.0
C1673 C 0.63856 0.16402 0.37199 0.0
C1674 C 0.63075 0.18742 0.34543 0.0
C1675 C 0.65685 0.21182 0.33027 0.0
C1676 C 0.68092 0.14352 0.41762 0.0
C1677 C 0.59514 0.18522 0.33004 0.0
C1678 C 0.58858 0.07847 0.35816 0.0
C1679 C 0.57104 0.07404 0.39725 0.0
C1680 C 0.60933 0.10827 0.34849 0.0
C1681 C 0.61279 0.13405 0.37891 0.0
C1682 C 0.59355 0.13022 0.417 0.0
C1683 C 0.57254 0.10031 0.4254 0.0
C1684 C 0.62897 0.11173 0.30689 0.0
C1685 C 0.59541 0.15721 0.44963 0.0
H1686 H 0.72358 0.19284 0.38022 0.0
H1687 H 0.65085 0.22856 0.30755 0.0
H1688 H 0.66363 0.1385 0.44533 0.0
H1689 H 0.67814 0.12088 0.3989 0.0
H1690 H 0.70706 0.15195 0.43164 0.0
H1691 H 0.59289 0.20712 0.31376 0.0
H1692 H 0.58603 0.16496 0.30601 0.0
H1693 H 0.57852 0.18075 0.35848 0.0
H1694 H 0.58726 0.0584 0.33602 0.0
H1695 H 0.55867 0.0973 0.45544 0.0
H1696 H 0.65609 0.11669 0.31601 0.0
H1697 H 0.62541 0.13204 0.28774 0.0
H1698 H 0.62147 0.09007 0.28509 0.0
H1699 H 0.62021 0.17495 0.45095 0.0
H1700 H 0.58994 0.14838 0.48357 0.0
H1701 H 0.57625 0.1694 0.43943 0.0
C1702 C 0.83769 0.68602 0.30595 0.0
C1703 C 0.81995 0.70356 0.32989 0.0
C1704 C 0.8571 0.66814 0.32741 0.0
C1705 C 0.85932 0.66748 0.37443 0.0
C1706 C 0.84171 0.68531 0.39887 0.0
C1707 C 0.82239 0.70302 0.37649 0.0
C1708 C 0.87513 0.64969 0.29952 0.0
C1709 C 0.84294 0.68539 0.44885 0.0
C1710 C 0.8797 0.59472 0.42541 0.0
C1711 C 0.91414 0.6056 0.43746 0.0
C1712 C 0.86177 0.6146 0.40588 0.0
C1713 C 0.8783 0.64663 0.3976 0.0
C1714 C 0.91298 0.65804 0.41023 0.0
C1715 C 0.93039 0.63755 0.43001 0.0
C1716 C 0.825 0.60102 0.39348 0.0
C1717 C 0.93183 0.69191 0.40233 0.0
H1718 H 0.83647 0.68618 0.27003 0.0
H1719 H 0.80913 0.71645 0.39566 0.0
H1720 H 0.90247 0.65799 0.30749 0.0
H1721 H 0.86688 0.62418 0.30723 0.0
H1722 H 0.87058 0.65215 0.26341 0.0
H1723 H 0.82946 0.70162 0.46326 0.0
H1724 H 0.83152 0.6611 0.46027 0.0
H1725 H 0.86933 0.6926 0.46198 0.0
H1726 H 0.86645 0.57029 0.43105 0.0
H1727 H 0.95684 0.64648 0.43913 0.0
H1728 H 0.82066 0.60221 0.35712 0.0
H1729 H 0.81015 0.61524 0.40969 0.0
H1730 H 0.81544 0.57597 0.40319 0.0
H1731 H 0.93145 0.69635 0.36626 0.0
H1732 H 0.9583 0.69764 0.41514 0.0
H1733 H 0.91939 0.70829 0.41854 0.0
C1734 C 0.32484 0.84262 0.32177 0.0
C1735 C 0.3248 0.81172 0.33309 0.0
C1736 C 0.34398 0.869 0.34669 0.0
C1737 C 0.36338 0.86447 0.38433 0.0
C1738 C 0.36243 0.83326 0.39704 0.0
C1739 C 0.3433 0.80717 0.371 0.0
C1740 C 0.34441 0.90177 0.33158 0.0
C1741 C 0.38212 0.82753 0.4376 0.0
C1742 C 0.43997 0.93319 0.41152 0.0
C1743 C 0.4285 0.95027 0.44428 0.0
C1744 C 0.41943 0.90464 0.39302 0.0
C1745 C 0.3866 0.89256 0.40784 0.0
C1746 C 0.37528 0.90894 0.44219 0.0
C1747 C 0.39633 0.93768 0.45991 0.0
C1748 C 0.43246 0.88807 0.35629 0.0
C1749 C 0.34054 0.89671 0.45907 0.0
H1750 H 0.31054 0.84633 0.29252 0.0
H1751 H 0.34308 0.7833 0.38002 0.0
H1752 H 0.33778 0.91572 0.35904 0.0
H1753 H 0.37002 0.91446 0.32206 0.0
H1754 H 0.32674 0.90114 0.30274 0.0
H1755 H 0.3773 0.80192 0.44447 0.0
H1756 H 0.4093 0.83755 0.43313 0.0
H1757 H 0.37558 0.83983 0.46692 0.0
H1758 H 0.46488 0.94249 0.39944 0.0
H1759 H 0.3874 0.95044 0.48566 0.0
H1760 H 0.41756 0.88828 0.325 0.0
H1761 H 0.42965 0.86292 0.36429 0.0
H1762 H 0.45924 0.89948 0.35046 0.0
H1763 H 0.32177 0.89868 0.43287 0.0
H1764 H 0.33687 0.91011 0.48915 0.0
H1765 H 0.33547 0.87127 0.46691 0.0
C1766 C 0.20734 0.31814 0.3691 0.0
C1767 C 0.21503 0.32112 0.32406 0.0
C1768 C 0.18806 0.33639 0.38943 0.0
C1769 C 0.17643 0.35904 0.36483 0.0
C1770 C 0.18494 0.3627 0.31967 0.0
C1771 C 0.20352 0.34364 0.29993 0.0
C1772 C 0.1793 0.33075 0.43714 0.0
C1773 C 0.17393 0.38653 0.29163 0.0
C1774 C 0.09794 0.38428 0.39739 0.0
C1775 C 0.11123 0.41391 0.41948 0.0
C1776 C 0.11862 0.36613 0.38081 0.0
C1777 C 0.15407 0.37764 0.38533 0.0
C1778 C 0.16774 0.40732 0.40823 0.0
C1779 C 0.14635 0.42481 0.42526 0.0
C1780 C 0.10234 0.33456 0.35783 0.0
C1781 C 0.20515 0.42111 0.41367 0.0
H1782 H 0.21561 0.3008 0.38833 0.0
H1783 H 0.20908 0.34648 0.26522 0.0
H1784 H 0.18729 0.35334 0.4568 0.0
H1785 H 0.15173 0.32172 0.43917 0.0
H1786 H 0.19117 0.3134 0.45248 0.0
H1787 H 0.18671 0.39017 0.25974 0.0
H1788 H 0.14652 0.37813 0.2842 0.0
H1789 H 0.17907 0.4097 0.30975 0.0
H1790 H 0.071 0.37515 0.39273 0.0
H1791 H 0.15726 0.44753 0.44203 0.0
H1792 H 0.11202 0.31575 0.37305 0.0
H1793 H 0.10872 0.3355 0.32245 0.0
H1794 H 0.07463 0.32776 0.3595 0.0
H1795 H 0.21666 0.40425 0.43085 0.0
H1796 H 0.21211 0.444 0.43279 0.0
H1797 H 0.216 0.42497 0.38053 0.0
C1798 C 0.31011 0.14976 0.66094 0.0
C1799 C 0.31196 0.17677 0.63587 0.0
C1800 C 0.3314 0.13043 0.6536 0.0
C1801 C 0.35397 0.13743 0.61891 0.0
C1802 C 0.35468 0.16385 0.5921 0.0
C1803 C 0.33399 0.18348 0.60136 0.0
C1804 C 0.33087 0.10355 0.68441 0.0
C1805 C 0.37813 0.17283 0.55479 0.0
C1806 C 0.43442 0.1121 0.61916 0.0
C1807 C 0.42461 0.08381 0.59374 0.0
C1808 C 0.41134 0.12921 0.62871 0.0
C1809 C 0.37775 0.118 0.6119 0.0
C1810 C 0.36744 0.08888 0.58739 0.0
C1811 C 0.39102 0.07218 0.57868 0.0
C1812 C 0.42302 0.15939 0.65665 0.0
C1813 C 0.33159 0.07453 0.57084 0.0
H1814 H 0.29349 0.1448 0.68831 0.0
H1815 H 0.33578 0.20458 0.58231 0.0
H1816 H 0.31993 0.08062 0.66636 0.0
H1817 H 0.35672 0.10413 0.69616 0.0
H1818 H 0.31582 0.10445 0.71379 0.0
H1819 H 0.39825 0.19446 0.5649 0.0
H1820 H 0.38985 0.15403 0.54487 0.0
H1821 H 0.36425 0.17878 0.52552 0.0
H1822 H 0.46025 0.1211 0.63129 0.0
H1823 H 0.38301 0.04995 0.5598 0.0
H1824 H 0.40485 0.16005 0.68241 0.0
H1825 H 0.42465 0.18004 0.63531 0.0
H1826 H 0.44804 0.162 0.6732 0.0
H1827 H 0.3194 0.05574 0.59366 0.0
H1828 H 0.3306 0.06291 0.53766 0.0
H1829 H 0.31668 0.09199 0.56892 0.0
C1830 C 0.83209 0.33548 0.62823 0.0
C1831 C 0.83806 0.31511 0.66063 0.0
C1832 C 0.85777 0.36179 0.6168 0.0
C1833 C 0.88937 0.36836 0.63999 0.0
C1834 C 0.89556 0.34738 0.67222 0.0
C1835 C 0.86985 0.32061 0.68164 0.0
C1836 C 0.85071 0.38322 0.58122 0.0
C1837 C 0.92861 0.35412 0.69843 0.0
C1838 C 0.96053 0.42699 0.5878 0.0
C1839 C 0.95878 0.45573 0.60762 0.0
C1840 C 0.93876 0.39815 0.59905 0.0
C1841 C 0.91536 0.39795 0.63175 0.0
C1842 C 0.91529 0.42644 0.65449 0.0
C1843 C 0.93691 0.45512 0.64194 0.0
C1844 C 0.93927 0.36826 0.57376 0.0
C1845 C 0.89117 0.42685 0.69045 0.0
H1846 H 0.80719 0.33125 0.61277 0.0
H1847 H 0.87389 0.30514 0.70771 0.0
H1848 H 0.85202 0.40687 0.59604 0.0
H1849 H 0.86997 0.3867 0.55591 0.0
H1850 H 0.82561 0.37357 0.5644 0.0
H1851 H 0.92941 0.33513 0.722 0.0
H1852 H 0.94946 0.35674 0.6757 0.0
H1853 H 0.93308 0.37684 0.71752 0.0
H1854 H 0.97743 0.42707 0.56133 0.0
H1855 H 0.93558 0.47714 0.65763 0.0
H1856 H 0.91548 0.35932 0.55368 0.0
H1857 H 0.94111 0.34945 0.59702 0.0
H1858 H 0.96043 0.37219 0.55121 0.0
H1859 H 0.86522 0.421 0.6758 0.0
H1860 H 0.89668 0.45027 0.70806 0.0
H1861 H 0.89219 0.40858 0.71493 0.0
C1862 C 0.24537 0.65089 0.65688 0.0
C1863 C 0.24483 0.68263 0.65881 0.0
C1864 C 0.21975 0.62795 0.63381 0.0
C1865 C 0.19368 0.63729 0.61091 0.0
C1866 C 0.19409 0.66968 0.61082 0.0
C1867 C 0.21935 0.69193 0.63568 0.0
C1868 C 0.21973 0.59355 0.63576 0.0
C1869 C 0.16738 0.68066 0.58554 0.0
C1870 C 0.14164 0.57557 0.52815 0.0
C1871 C 0.11351 0.56195 0.55244 0.0
C1872 C 0.16731 0.60117 0.54597 0.0
C1873 C 0.16507 0.61277 0.58947 0.0
C1874 C 0.13633 0.59946 0.61375 0.0
C1875 C 0.11063 0.57449 0.59461 0.0
C1876 C 0.19703 0.61547 0.51859 0.0
C1877 C 0.13342 0.61053 0.66074 0.0
H1878 H 0.26483 0.64369 0.67548 0.0
H1879 H 0.21899 0.71655 0.63748 0.0
H1880 H 0.19707 0.57993 0.65225 0.0
H1881 H 0.21872 0.5832 0.60179 0.0
H1882 H 0.24221 0.59035 0.65422 0.0
H1883 H 0.17322 0.70691 0.58514 0.0
H1884 H 0.16448 0.67122 0.55083 0.0
H1885 H 0.14295 0.67138 0.6009 0.0
H1886 H 0.14357 0.56615 0.49521 0.0
H1887 H 0.08893 0.56382 0.61346 0.0
H1888 H 0.2206 0.61461 0.53649 0.0
H1889 H 0.19867 0.64079 0.51312 0.0
H1890 H 0.19544 0.60305 0.4859 0.0
H1891 H 0.15366 0.60581 0.68241 0.0
H1892 H 0.10892 0.59848 0.67442 0.0
H1893 H 0.1366 0.63646 0.6622 0.0
loop_
_geom_bond_atom_site_label_1
_geom_bond_atom_site_label_2
_geom_bond_distance
_geom_bond_site_symmetry_2
_ccdc_geom_bond_type
Dy0 O4 2.398 . S
Dy0 O5 2.491 . S
Dy0 O6 2.403 . S
Dy0 O7 2.664 . S
Dy0 O11 2.326 . S
Dy0 O15 2.310 . S
Dy0 O16 2.351 . S
C1 O12 1.185 . S
C1 O13 1.355 . S
C2 O4 1.185 . S
C2 O5 1.355 . S
Dy3 O7 2.310 . S
Dy3 O10 2.351 . S
Dy3 O12 2.398 . S
Dy3 O13 2.491 . S
Dy3 O14 2.403 . S
Dy3 O15 2.664 . S
Dy3 O17 2.326 . S
O4 Dy0 2.398 . S
O4 C2 1.185 . S
O5 Dy0 2.491 . S
O5 C2 1.355 . S
O6 Dy0 2.403 . S
O6 C8 1.254 . S
O7 Dy0 2.664 . S
O7 Dy3 2.310 . S
O7 C8 1.268 . S
C8 O6 1.254 . S
C8 O7 1.268 . S
C9 O14 1.254 . S
C9 O15 1.268 . S
O10 Dy3 2.351 . S
O10 C18 1.249 . S
O11 Dy0 2.326 . S
O11 C18 1.267 . S
O12 C1 1.185 . S
O12 Dy3 2.398 . S
O13 C1 1.355 . S
O13 Dy3 2.491 . S
O14 Dy3 2.403 . S
O14 C9 1.254 . S
O15 Dy0 2.310 . S
O15 Dy3 2.664 . S
O15 C9 1.268 . S
O16 Dy0 2.351 . S
O16 C19 1.249 . S
O17 Dy3 2.326 . S
O17 C19 1.267 . S
C18 O10 1.249 . S
C18 O11 1.267 . S
C19 O16 1.249 . S
C19 O17 1.267 . S
Dy20 O24 2.398 . S
Dy20 O25 2.491 . S
Dy20 O26 2.403 . S
Dy20 O27 2.664 . S
Dy20 O31 2.326 . S
Dy20 O35 2.310 . S
Dy20 O36 2.351 . S
C21 O32 1.185 . S
C21 O33 1.355 . S
C22 O24 1.185 . S
C22 O25 1.355 . S
Dy23 O27 2.310 . S
Dy23 O30 2.351 . S
Dy23 O32 2.398 . S
Dy23 O33 2.491 . S
Dy23 O34 2.403 . S
Dy23 O35 2.664 . S
Dy23 O37 2.326 . S
O24 Dy20 2.398 . S
O24 C22 1.185 . S
O25 Dy20 2.491 . S
O25 C22 1.355 . S
O26 Dy20 2.403 . S
O26 C28 1.254 . S
O27 Dy20 2.664 . S
O27 Dy23 2.310 . S
O27 C28 1.268 . S
C28 O26 1.254 . S
C28 O27 1.268 . S
C29 O34 1.254 . S
C29 O35 1.268 . S
O30 Dy23 2.351 . S
O30 C38 1.249 . S
O31 Dy20 2.326 . S
O31 C38 1.267 . S
O32 C21 1.185 . S
O32 Dy23 2.398 . S
O33 C21 1.355 . S
O33 Dy23 2.491 . S
O34 Dy23 2.403 . S
O34 C29 1.254 . S
O35 Dy20 2.310 . S
O35 Dy23 2.664 . S
O35 C29 1.268 . S
O36 Dy20 2.351 . S
O36 C39 1.249 . S
O37 Dy23 2.326 . S
O37 C39 1.267 . S
C38 O30 1.249 . S
C38 O31 1.267 . S
C39 O36 1.249 . S
C39 O37 1.267 . S
Dy40 O44 2.398 . S
Dy40 O45 2.491 . S
Dy40 O46 2.403 . S
Dy40 O47 2.664 . S
Dy40 O51 2.326 . S
Dy40 O55 2.310 . S
Dy40 O56 2.351 . S
C41 O52 1.185 . S
C41 O53 1.355 . S
C42 O44 1.185 . S
C42 O45 1.355 . S
Dy43 O47 2.310 . S
Dy43 O50 2.351 . S
Dy43 O52 2.398 . S
Dy43 O53 2.491 . S
Dy43 O54 2.403 . S
Dy43 O55 2.664 . S
Dy43 O57 2.326 . S
O44 Dy40 2.398 . S
O44 C42 1.185 . S
O45 Dy40 2.491 . S
O45 C42 1.355 . S
O46 Dy40 2.403 . S
O46 C48 1.254 . S
O47 Dy40 2.664 . S
O47 Dy43 2.310 . S
O47 C48 1.268 . S
C48 O46 1.254 . S
C48 O47 1.268 . S
C49 O54 1.254 . S
C49 O55 1.268 . S
O50 Dy43 2.351 . S
O50 C58 1.249 . S
O51 Dy40 2.326 . S
O51 C58 1.267 . S
O52 C41 1.185 . S
O52 Dy43 2.398 . S
O53 C41 1.355 . S
O53 Dy43 2.491 . S
O54 Dy43 2.403 . S
O54 C49 1.254 . S
O55 Dy40 2.310 . S
O55 Dy43 2.664 . S
O55 C49 1.268 . S
O56 Dy40 2.351 . S
O56 C59 1.249 . S
O57 Dy43 2.326 . S
O57 C59 1.267 . S
C58 O50 1.249 . S
C58 O51 1.267 . S
C59 O56 1.249 . S
C59 O57 1.267 . S
Dy60 O64 2.398 . S
Dy60 O65 2.491 . S
Dy60 O66 2.403 . S
Dy60 O67 2.664 . S
Dy60 O71 2.326 . S
Dy60 O75 2.310 . S
Dy60 O76 2.351 . S
C61 O72 1.185 . S
C61 O73 1.355 . S
C62 O64 1.185 . S
C62 O65 1.355 . S
Dy63 O67 2.310 . S
Dy63 O70 2.351 . S
Dy63 O72 2.398 . S
Dy63 O73 2.491 . S
Dy63 O74 2.403 . S
Dy63 O75 2.664 . S
Dy63 O77 2.326 . S
O64 Dy60 2.398 . S
O64 C62 1.185 . S
O65 Dy60 2.491 . S
O65 C62 1.355 . S
O66 Dy60 2.403 . S
O66 C68 1.254 . S
O67 Dy60 2.664 . S
O67 Dy63 2.310 . S
O67 C68 1.268 . S
C68 O66 1.254 . S
C68 O67 1.268 . S
C69 O74 1.254 . S
C69 O75 1.268 . S
O70 Dy63 2.351 . S
O70 C78 1.249 . S
O71 Dy60 2.326 . S
O71 C78 1.267 . S
O72 C61 1.185 . S
O72 Dy63 2.398 . S
O73 C61 1.355 . S
O73 Dy63 2.491 . S
O74 Dy63 2.403 . S
O74 C69 1.254 . S
O75 Dy60 2.310 . S
O75 Dy63 2.664 . S
O75 C69 1.268 . S
O76 Dy60 2.351 . S
O76 C79 1.249 . S
O77 Dy63 2.326 . S
O77 C79 1.267 . S
C78 O70 1.249 . S
C78 O71 1.267 . S
C79 O76 1.249 . S
C79 O77 1.267 . S
Dy80 O84 2.398 . S
Dy80 O85 2.491 . S
Dy80 O86 2.403 . S
Dy80 O87 2.664 . S
Dy80 O91 2.326 . S
Dy80 O95 2.310 . S
Dy80 O96 2.351 . S
C81 O92 1.185 . S
C81 O93 1.355 . S
C82 O84 1.185 . S
C82 O85 1.355 . S
Dy83 O87 2.310 . S
Dy83 O90 2.351 . S
Dy83 O92 2.398 . S
Dy83 O93 2.491 . S
Dy83 O94 2.403 . S
Dy83 O95 2.664 . S
Dy83 O97 2.326 . S
O84 Dy80 2.398 . S
O84 C82 1.185 . S
O85 Dy80 2.491 . S
O85 C82 1.355 . S
O86 Dy80 2.403 . S
O86 C88 1.254 . S
O87 Dy80 2.664 . S
O87 Dy83 2.310 . S
O87 C88 1.268 . S
C88 O86 1.254 . S
C88 O87 1.268 . S
C89 O94 1.254 . S
C89 O95 1.268 . S
O90 Dy83 2.351 . S
O90 C98 1.249 . S
O91 Dy80 2.326 . S
O91 C98 1.267 . S
O92 C81 1.185 . S
O92 Dy83 2.398 . S
O93 C81 1.355 . S
O93 Dy83 2.491 . S
O94 Dy83 2.403 . S
O94 C89 1.254 . S
O95 Dy80 2.310 . S
O95 Dy83 2.664 . S
O95 C89 1.268 . S
O96 Dy80 2.351 . S
O96 C99 1.249 . S
O97 Dy83 2.326 . S
O97 C99 1.267 . S
C98 O90 1.249 . S
C98 O91 1.267 . S
C99 O96 1.249 . S
C99 O97 1.267 . S
Dy100 O104 2.398 . S
Dy100 O105 2.491 . S
Dy100 O106 2.403 . S
Dy100 O107 2.664 . S
Dy100 O111 2.326 . S
Dy100 O115 2.310 . S
Dy100 O116 2.351 . S
C101 O112 1.185 . S
C101 O113 1.355 . S
C102 O104 1.185 . S
C102 O105 1.355 . S
Dy103 O107 2.310 . S
Dy103 O110 2.351 . S
Dy103 O112 2.398 . S
Dy103 O113 2.491 . S
Dy103 O114 2.403 . S
Dy103 O115 2.664 . S
Dy103 O117 2.326 . S
O104 Dy100 2.398 . S
O104 C102 1.185 . S
O105 Dy100 2.491 . S
O105 C102 1.355 . S
O106 Dy100 2.403 . S
O106 C108 1.254 . S
O107 Dy100 2.664 . S
O107 Dy103 2.310 . S
O107 C108 1.268 . S
C108 O106 1.254 . S
C108 O107 1.268 . S
C109 O114 1.254 . S
C109 O115 1.268 . S
O110 Dy103 2.351 . S
O110 C118 1.249 . S
O111 Dy100 2.326 . S
O111 C118 1.267 . S
O112 C101 1.185 . S
O112 Dy103 2.398 . S
O113 C101 1.355 . S
O113 Dy103 2.491 . S
O114 Dy103 2.403 . S
O114 C109 1.254 . S
O115 Dy100 2.310 . S
O115 Dy103 2.664 . S
O115 C109 1.268 . S
O116 Dy100 2.351 . S
O116 C119 1.249 . S
O117 Dy103 2.326 . S
O117 C119 1.267 . S
C118 O110 1.249 . S
C118 O111 1.267 . S
C119 O116 1.249 . S
C119 O117 1.267 . S
Dy120 O124 2.398 . S
Dy120 O125 2.491 . S
Dy120 O126 2.403 . S
Dy120 O127 2.664 . S
Dy120 O131 2.326 . S
Dy120 O135 2.310 . S
Dy120 O136 2.351 . S
C121 O132 1.185 . S
C121 O133 1.355 . S
C122 O124 1.185 . S
C122 O125 1.355 . S
Dy123 O127 2.310 . S
Dy123 O130 2.351 . S
Dy123 O132 2.398 . S
Dy123 O133 2.491 . S
Dy123 O134 2.403 . S
Dy123 O135 2.664 . S
Dy123 O137 2.326 . S
O124 Dy120 2.398 . S
O124 C122 1.185 . S
O125 Dy120 2.491 . S
O125 C122 1.355 . S
O126 Dy120 2.403 . S
O126 C128 1.254 . S
O127 Dy120 2.664 . S
O127 Dy123 2.310 . S
O127 C128 1.268 . S
C128 O126 1.254 . S
C128 O127 1.268 . S
C129 O134 1.254 . S
C129 O135 1.268 . S
O130 Dy123 2.351 . S
O130 C138 1.249 . S
O131 Dy120 2.326 . S
O131 C138 1.267 . S
O132 C121 1.185 . S
O132 Dy123 2.398 . S
O133 C121 1.355 . S
O133 Dy123 2.491 . S
O134 Dy123 2.403 . S
O134 C129 1.254 . S
O135 Dy120 2.310 . S
O135 Dy123 2.664 . S
O135 C129 1.268 . S
O136 Dy120 2.351 . S
O136 C139 1.249 . S
O137 Dy123 2.326 . S
O137 C139 1.267 . S
C138 O130 1.249 . S
C138 O131 1.267 . S
C139 O136 1.249 . S
C139 O137 1.267 . S
Dy140 O144 2.398 . S
Dy140 O145 2.491 . S
Dy140 O146 2.403 . S
Dy140 O147 2.664 . S
Dy140 O151 2.326 . S
Dy140 O155 2.310 . S
Dy140 O156 2.351 . S
C141 O152 1.185 . S
C141 O153 1.355 . S
C142 O144 1.185 . S
C142 O145 1.355 . S
Dy143 O147 2.310 . S
Dy143 O150 2.351 . S
Dy143 O152 2.398 . S
Dy143 O153 2.491 . S
Dy143 O154 2.403 . S
Dy143 O155 2.664 . S
Dy143 O157 2.326 . S
O144 Dy140 2.398 . S
O144 C142 1.185 . S
O145 Dy140 2.491 . S
O145 C142 1.355 . S
O146 Dy140 2.403 . S
O146 C148 1.254 . S
O147 Dy140 2.664 . S
O147 Dy143 2.310 . S
O147 C148 1.268 . S
C148 O146 1.254 . S
C148 O147 1.268 . S
C149 O154 1.254 . S
C149 O155 1.268 . S
O150 Dy143 2.351 . S
O150 C158 1.249 . S
O151 Dy140 2.326 . S
O151 C158 1.267 . S
O152 C141 1.185 . S
O152 Dy143 2.398 . S
O153 C141 1.355 . S
O153 Dy143 2.491 . S
O154 Dy143 2.403 . S
O154 C149 1.254 . S
O155 Dy140 2.310 . S
O155 Dy143 2.664 . S
O155 C149 1.268 . S
O156 Dy140 2.351 . S
O156 C159 1.249 . S
O157 Dy143 2.326 . S
O157 C159 1.267 . S
C158 O150 1.249 . S
C158 O151 1.267 . S
C159 O156 1.249 . S
C159 O157 1.267 . S
Co160 O163 2.042 . S
Co160 O170 2.264 . S
Co160 O189 2.286 . S
Co160 O190 2.069 . S
Co160 O192 2.015 1_455 S
Co161 O163 2.122 . S
Co161 O169 2.073 . S
Co161 O170 2.327 . S
Co161 O171 1.976 1_455 S
Co162 O163 2.090 1_545 S
Co162 O165 2.084 1_455 S
Co162 O172 2.109 1_445 S
Co162 O173 2.145 . S
Co162 O177 2.113 . S
Co162 O191 2.142 1_445 S
O163 Co160 2.042 . S
O163 Co161 2.122 . S
O163 Co162 2.090 1_565 S
O163 H164 0.980 . S
H164 O163 0.980 . S
O165 Co162 2.084 1_655 S
O165 Co166 2.042 . S
O165 Co167 2.122 . S
O165 H168 0.980 . S
Co166 O165 2.042 . S
Co166 O174 2.286 . S
Co166 O175 2.069 . S
Co166 O176 2.015 1_655 S
Co166 O179 2.264 . S
Co167 O165 2.122 . S
Co167 O178 1.976 1_655 S
Co167 O179 2.327 . S
Co167 O180 2.073 . S
H168 O165 0.980 . S
O169 Co161 2.073 . S
O169 C184 1.245 . S
O170 Co160 2.264 . S
O170 Co161 2.327 . S
O170 C184 1.257 . S
O171 Co161 1.976 1_655 S
O171 C183 1.251 . S
O172 Co162 2.109 1_665 S
O172 C183 1.274 . S
O173 Co162 2.145 . S
O173 C186 1.246 . S
O174 Co166 2.286 . S
O174 C185 1.259 . S
O175 Co166 2.069 . S
O175 C185 1.289 . S
O176 Co166 2.015 1_455 S
O176 C186 1.257 . S
O177 Co162 2.113 . S
O177 C187 1.274 . S
O178 Co167 1.976 1_455 S
O178 C187 1.251 . S
O179 Co166 2.264 . S
O179 Co167 2.327 . S
O179 C188 1.257 . S
O180 Co167 2.073 . S
O180 C188 1.245 . S
C181 O189 1.259 . S
C181 O190 1.289 . S
C182 O191 1.246 . S
C182 O192 1.257 . S
C183 O171 1.251 . S
C183 O172 1.274 . S
C184 O169 1.245 . S
C184 O170 1.257 . S
C185 O174 1.259 . S
C185 O175 1.289 . S
C186 O173 1.246 . S
C186 O176 1.257 . S
C187 O177 1.274 . S
C187 O178 1.251 . S
C188 O179 1.257 . S
C188 O180 1.245 . S
O189 Co160 2.286 . S
O189 C181 1.259 . S
O190 Co160 2.069 . S
O190 C181 1.289 . S
O191 Co162 2.142 1_665 S
O191 C182 1.246 . S
O192 Co160 2.015 1_655 S
O192 C182 1.257 . S
Co193 O196 2.042 1_556 S
Co193 O203 2.264 1_556 S
Co193 O222 2.286 . S
Co193 O223 2.069 . S
Co193 O225 2.015 . S
Co194 O196 2.122 . S
Co194 O202 2.073 . S
Co194 O203 2.327 . S
Co194 O204 1.976 . S
Co195 O196 2.086 1_545 S
Co195 O198 2.087 1_554 S
Co195 O205 2.111 1_545 S
Co195 O206 2.144 . S
Co195 O210 2.111 1_554 S
Co195 O224 2.143 1_544 S
O196 Co193 2.042 1_554 S
O196 Co194 2.122 . S
O196 Co195 2.086 1_565 S
O196 H197 0.980 . S
H197 O196 0.980 . S
O198 Co195 2.087 1_556 S
O198 Co199 2.042 1_556 S
O198 Co200 2.122 . S
O198 H201 0.980 . S
Co199 O198 2.042 1_554 S
Co199 O207 2.286 . S
Co199 O208 2.069 . S
Co199 O209 2.015 . S
Co199 O212 2.264 1_554 S
Co200 O198 2.122 . S
Co200 O211 1.976 . S
Co200 O212 2.327 . S
Co200 O213 2.073 . S
H201 O198 0.980 . S
O202 Co194 2.073 . S
O202 C217 1.245 . S
O203 Co193 2.264 1_554 S
O203 Co194 2.327 . S
O203 C217 1.257 . S
O204 Co194 1.976 . S
O204 C216 1.251 . S
O205 Co195 2.111 1_565 S
O205 C216 1.274 . S
O206 Co195 2.144 . S
O206 C219 1.246 . S
O207 Co199 2.286 . S
O207 C218 1.259 . S
O208 Co199 2.069 . S
O208 C218 1.289 . S
O209 Co199 2.015 . S
O209 C219 1.257 . S
O210 Co195 2.111 1_556 S
O210 C220 1.274 . S
O211 Co200 1.976 . S
O211 C220 1.251 . S
O212 Co199 2.264 1_556 S
O212 Co200 2.327 . S
O212 C221 1.257 . S
O213 Co200 2.073 . S
O213 C221 1.245 . S
C214 O222 1.259 . S
C214 O223 1.289 . S
C215 O224 1.246 . S
C215 O225 1.257 . S
C216 O204 1.251 . S
C216 O205 1.274 . S
C217 O202 1.245 . S
C217 O203 1.257 . S
C218 O207 1.259 . S
C218 O208 1.289 . S
C219 O206 1.246 . S
C219 O209 1.257 . S
C220 O210 1.274 . S
C220 O211 1.251 . S
C221 O212 1.257 . S
C221 O213 1.245 . S
O222 Co193 2.286 . S
O222 C214 1.259 . S
O223 Co193 2.069 . S
O223 C214 1.289 . S
O224 Co195 2.143 1_566 S
O224 C215 1.246 . S
O225 Co193 2.015 . S
O225 C215 1.257 . S
Co226 O229 2.042 1_556 S
Co226 O236 2.264 1_556 S
Co226 O255 2.286 . S
Co226 O256 2.069 . S
Co226 O258 2.015 1_455 S
Co227 O229 2.122 . S
Co227 O235 2.073 . S
Co227 O236 2.327 . S
Co227 O237 1.976 1_455 S
Co228 O229 2.090 . S
Co228 O231 2.084 1_454 S
Co228 O238 2.109 1_455 S
Co228 O239 2.145 . S
Co228 O243 2.113 1_554 S
Co228 O257 2.142 1_454 S
O229 Co226 2.042 1_554 S
O229 Co227 2.122 . S
O229 Co228 2.090 . S
O229 H230 0.980 . S
H230 O229 0.980 . S
O231 Co228 2.084 1_656 S
O231 Co232 2.042 1_556 S
O231 Co233 2.122 . S
O231 H234 0.980 . S
Co232 O231 2.042 1_554 S
Co232 O240 2.286 . S
Co232 O241 2.069 . S
Co232 O242 2.015 1_655 S
Co232 O245 2.264 1_554 S
Co233 O231 2.122 . S
Co233 O244 1.976 1_655 S
Co233 O245 2.327 . S
Co233 O246 2.073 . S
H234 O231 0.980 . S
O235 Co227 2.073 . S
O235 C250 1.245 . S
O236 Co226 2.264 1_554 S
O236 Co227 2.327 . S
O236 C250 1.257 . S
O237 Co227 1.976 1_655 S
O237 C249 1.251 . S
O238 Co228 2.109 1_655 S
O238 C249 1.274 . S
O239 Co228 2.145 . S
O239 C252 1.246 . S
O240 Co232 2.286 . S
O240 C251 1.259 . S
O241 Co232 2.069 . S
O241 C251 1.289 . S
O242 Co232 2.015 1_455 S
O242 C252 1.257 . S
O243 Co228 2.113 1_556 S
O243 C253 1.274 . S
O244 Co233 1.976 1_455 S
O244 C253 1.251 . S
O245 Co232 2.264 1_556 S
O245 Co233 2.327 . S
O245 C254 1.257 . S
O246 Co233 2.073 . S
O246 C254 1.245 . S
C247 O255 1.259 . S
C247 O256 1.289 . S
C248 O257 1.246 . S
C248 O258 1.257 . S
C249 O237 1.251 . S
C249 O238 1.274 . S
C250 O235 1.245 . S
C250 O236 1.257 . S
C251 O240 1.259 . S
C251 O241 1.289 . S
C252 O239 1.246 . S
C252 O242 1.257 . S
C253 O243 1.274 . S
C253 O244 1.251 . S
C254 O245 1.257 . S
C254 O246 1.245 . S
O255 Co226 2.286 . S
O255 C247 1.259 . S
O256 Co226 2.069 . S
O256 C247 1.289 . S
O257 Co228 2.142 1_656 S
O257 C248 1.246 . S
O258 Co226 2.015 1_655 S
O258 C248 1.257 . S
Co259 O262 2.042 1_556 S
Co259 O269 2.264 1_556 S
Co259 O288 2.286 . S
Co259 O289 2.069 . S
Co259 O291 2.015 . S
Co260 O262 2.122 . S
Co260 O268 2.073 . S
Co260 O269 2.327 . S
Co260 O270 1.976 . S
Co261 O262 2.087 . S
Co261 O264 2.087 1_554 S
Co261 O271 2.111 . S
Co261 O272 2.143 . S
Co261 O276 2.111 1_554 S
Co261 O290 2.143 1_554 S
O262 Co259 2.042 1_554 S
O262 Co260 2.122 . S
O262 Co261 2.087 . S
O262 H263 0.980 . S
H263 O262 0.980 . S
O264 Co261 2.087 1_556 S
O264 Co265 2.042 1_556 S
O264 Co266 2.122 . S
O264 H267 0.980 . S
Co265 O264 2.042 1_554 S
Co265 O273 2.286 . S
Co265 O274 2.069 . S
Co265 O275 2.015 . S
Co265 O278 2.264 1_554 S
Co266 O264 2.122 . S
Co266 O277 1.976 . S
Co266 O278 2.327 . S
Co266 O279 2.073 . S
H267 O264 0.980 . S
O268 Co260 2.073 . S
O268 C283 1.245 . S
O269 Co259 2.264 1_554 S
O269 Co260 2.327 . S
O269 C283 1.257 . S
O270 Co260 1.976 . S
O270 C282 1.251 . S
O271 Co261 2.111 . S
O271 C282 1.274 . S
O272 Co261 2.143 . S
O272 C285 1.246 . S
O273 Co265 2.286 . S
O273 C284 1.259 . S
O274 Co265 2.069 . S
O274 C284 1.289 . S
O275 Co265 2.015 . S
O275 C285 1.257 . S
O276 Co261 2.111 1_556 S
O276 C286 1.274 . S
O277 Co266 1.976 . S
O277 C286 1.251 . S
O278 Co265 2.264 1_556 S
O278 Co266 2.327 . S
O278 C287 1.257 . S
O279 Co266 2.073 . S
O279 C287 1.245 . S
C280 O288 1.259 . S
C280 O289 1.289 . S
C281 O290 1.246 . S
C281 O291 1.257 . S
C282 O270 1.251 . S
C282 O271 1.274 . S
C283 O268 1.245 . S
C283 O269 1.257 . S
C284 O273 1.259 . S
C284 O274 1.289 . S
C285 O272 1.246 . S
C285 O275 1.257 . S
C286 O276 1.274 . S
C286 O277 1.251 . S
C287 O278 1.257 . S
C287 O279 1.245 . S
O288 Co259 2.286 . S
O288 C280 1.259 . S
O289 Co259 2.069 . S
O289 C280 1.289 . S
O290 Co261 2.143 1_556 S
O290 C281 1.246 . S
O291 Co259 2.015 . S
O291 C281 1.257 . S
Co292 O295 2.042 . S
Co292 O302 2.264 . S
Co292 O321 2.286 . S
Co292 O322 2.069 . S
Co292 O324 2.015 . S
Co293 O295 2.122 . S
Co293 O301 2.073 . S
Co293 O302 2.327 . S
Co293 O303 1.976 . S
Co294 O295 2.090 . S
Co294 O297 2.084 1_455 S
Co294 O304 2.112 . S
Co294 O305 2.142 1_455 S
Co294 O309 2.110 1_455 S
Co294 O323 2.145 . S
O295 Co292 2.042 . S
O295 Co293 2.122 . S
O295 Co294 2.090 . S
O295 H296 0.980 . S
H296 O295 0.980 . S
O297 Co294 2.084 1_655 S
O297 Co298 2.042 . S
O297 Co299 2.122 . S
O297 H300 0.980 . S
Co298 O297 2.042 . S
Co298 O306 2.286 . S
Co298 O307 2.069 . S
Co298 O308 2.015 . S
Co298 O311 2.264 . S
Co299 O297 2.122 . S
Co299 O310 1.976 . S
Co299 O311 2.327 . S
Co299 O312 2.073 . S
H300 O297 0.980 . S
O301 Co293 2.073 . S
O301 C316 1.245 . S
O302 Co292 2.264 . S
O302 Co293 2.327 . S
O302 C316 1.257 . S
O303 Co293 1.976 . S
O303 C315 1.251 . S
O304 Co294 2.112 . S
O304 C315 1.274 . S
O305 Co294 2.142 1_655 S
O305 C318 1.246 . S
O306 Co298 2.286 . S
O306 C317 1.259 . S
O307 Co298 2.069 . S
O307 C317 1.289 . S
O308 Co298 2.015 . S
O308 C318 1.257 . S
O309 Co294 2.110 1_655 S
O309 C319 1.274 . S
O310 Co299 1.976 . S
O310 C319 1.251 . S
O311 Co298 2.264 . S
O311 Co299 2.327 . S
O311 C320 1.257 . S
O312 Co299 2.073 . S
O312 C320 1.245 . S
C313 O321 1.259 . S
C313 O322 1.289 . S
C314 O323 1.246 . S
C314 O324 1.257 . S
C315 O303 1.251 . S
C315 O304 1.274 . S
C316 O301 1.245 . S
C316 O302 1.257 . S
C317 O306 1.259 . S
C317 O307 1.289 . S
C318 O305 1.246 . S
C318 O308 1.257 . S
C319 O309 1.274 . S
C319 O310 1.251 . S
C320 O311 1.257 . S
C320 O312 1.245 . S
O321 Co292 2.286 . S
O321 C313 1.259 . S
O322 Co292 2.069 . S
O322 C313 1.289 . S
O323 Co294 2.145 . S
O323 C314 1.246 . S
O324 Co292 2.015 . S
O324 C314 1.257 . S
Co325 O328 2.042 . S
Co325 O335 2.264 . S
Co325 O354 2.286 . S
Co325 O355 2.069 . S
Co325 O357 2.015 1_565 S
Co326 O328 2.122 . S
Co326 O334 2.073 . S
Co326 O335 2.327 . S
Co326 O336 1.976 1_565 S
Co327 O328 2.086 1_545 S
Co327 O330 2.087 . S
Co327 O337 2.112 . S
Co327 O338 2.143 1_545 S
Co327 O342 2.111 1_545 S
Co327 O356 2.144 . S
O328 Co325 2.042 . S
O328 Co326 2.122 . S
O328 Co327 2.086 1_565 S
O328 H329 0.980 . S
H329 O328 0.980 . S
O330 Co327 2.087 . S
O330 Co331 2.042 . S
O330 Co332 2.122 . S
O330 H333 0.980 . S
Co331 O330 2.042 . S
Co331 O339 2.286 . S
Co331 O340 2.069 . S
Co331 O341 2.015 1_545 S
Co331 O344 2.264 . S
Co332 O330 2.122 . S
Co332 O343 1.976 1_545 S
Co332 O344 2.327 . S
Co332 O345 2.073 . S
H333 O330 0.980 . S
O334 Co326 2.073 . S
O334 C349 1.245 . S
O335 Co325 2.264 . S
O335 Co326 2.327 . S
O335 C349 1.257 . S
O336 Co326 1.976 1_545 S
O336 C348 1.251 . S
O337 Co327 2.112 . S
O337 C348 1.274 . S
O338 Co327 2.143 1_565 S
O338 C351 1.246 . S
O339 Co331 2.286 . S
O339 C350 1.259 . S
O340 Co331 2.069 . S
O340 C350 1.289 . S
O341 Co331 2.015 1_565 S
O341 C351 1.257 . S
O342 Co327 2.111 1_565 S
O342 C352 1.274 . S
O343 Co332 1.976 1_565 S
O343 C352 1.251 . S
O344 Co331 2.264 . S
O344 Co332 2.327 . S
O344 C353 1.257 . S
O345 Co332 2.073 . S
O345 C353 1.245 . S
C346 O354 1.259 . S
C346 O355 1.289 . S
C347 O356 1.246 . S
C347 O357 1.257 . S
C348 O336 1.251 . S
C348 O337 1.274 . S
C349 O334 1.245 . S
C349 O335 1.257 . S
C350 O339 1.259 . S
C350 O340 1.289 . S
C351 O338 1.246 . S
C351 O341 1.257 . S
C352 O342 1.274 . S
C352 O343 1.251 . S
C353 O344 1.257 . S
C353 O345 1.245 . S
O354 Co325 2.286 . S
O354 C346 1.259 . S
O355 Co325 2.069 . S
O355 C346 1.289 . S
O356 Co327 2.144 . S
O356 C347 1.246 . S
O357 Co325 2.015 1_545 S
O357 C347 1.257 . S
C358 C359 1.391 . S
C358 C360 1.394 . S
C358 H374 0.931 . S
C359 C358 1.391 . S
C359 C363 1.376 . S
C360 C358 1.394 . S
C360 C361 1.369 . S
C360 C364 1.531 . S
C361 C360 1.369 . S
C361 C362 1.410 . S
C361 C369 1.503 . S
C362 C361 1.410 . S
C362 C363 1.392 . S
C362 C365 1.511 . S
C363 C359 1.376 . S
C363 C362 1.392 . S
C363 H375 0.929 . S
C364 C360 1.531 . S
C364 H376 0.960 . S
C364 H377 0.962 . S
C364 H378 0.960 . S
C365 C362 1.511 . S
C365 H379 0.961 . S
C365 H380 0.961 . S
C365 H381 0.961 . S
C366 C367 1.370 . S
C366 C368 1.363 . S
C366 H382 0.931 . S
C367 C366 1.370 . S
C367 C371 1.408 . S
C368 C366 1.363 . S
C368 C369 1.370 . S
C368 C372 1.524 . S
C369 C361 1.503 . S
C369 C368 1.370 . S
C369 C370 1.403 . S
C370 C369 1.403 . S
C370 C371 1.404 . S
C370 C373 1.539 . S
C371 C367 1.408 . S
C371 C370 1.404 . S
C371 H383 0.930 . S
C372 C368 1.524 . S
C372 H384 0.956 . S
C372 H385 0.961 . S
C372 H386 0.961 . S
C373 C370 1.539 . S
C373 H387 0.958 . S
C373 H388 0.961 . S
C373 H389 0.960 . S
H374 C358 0.931 . S
H375 C363 0.929 . S
H376 C364 0.960 . S
H377 C364 0.962 . S
H378 C364 0.960 . S
H379 C365 0.961 . S
H380 C365 0.961 . S
H381 C365 0.961 . S
H382 C366 0.931 . S
H383 C371 0.930 . S
H384 C372 0.956 . S
H385 C372 0.961 . S
H386 C372 0.961 . S
H387 C373 0.958 . S
H388 C373 0.961 . S
H389 C373 0.960 . S
C390 C391 1.391 . S
C390 C392 1.394 . S
C390 H406 0.931 . S
C391 C390 1.391 . S
C391 C395 1.376 . S
C392 C390 1.394 . S
C392 C393 1.369 . S
C392 C396 1.531 . S
C393 C392 1.369 . S
C393 C394 1.410 . S
C393 C401 1.503 . S
C394 C393 1.410 . S
C394 C395 1.392 . S
C394 C397 1.511 . S
C395 C391 1.376 . S
C395 C394 1.392 . S
C395 H407 0.929 . S
C396 C392 1.531 . S
C396 H408 0.960 . S
C396 H409 0.962 . S
C396 H410 0.960 . S
C397 C394 1.511 . S
C397 H411 0.961 . S
C397 H412 0.961 . S
C397 H413 0.961 . S
C398 C399 1.370 . S
C398 C400 1.363 . S
C398 H414 0.931 . S
C399 C398 1.370 . S
C399 C403 1.408 . S
C400 C398 1.363 . S
C400 C401 1.370 . S
C400 C404 1.524 . S
C401 C393 1.503 . S
C401 C400 1.370 . S
C401 C402 1.403 . S
C402 C401 1.403 . S
C402 C403 1.404 . S
C402 C405 1.539 . S
C403 C399 1.408 . S
C403 C402 1.404 . S
C403 H415 0.930 . S
C404 C400 1.524 . S
C404 H416 0.956 . S
C404 H417 0.961 . S
C404 H418 0.961 . S
C405 C402 1.539 . S
C405 H419 0.958 . S
C405 H420 0.961 . S
C405 H421 0.960 . S
H406 C390 0.931 . S
H407 C395 0.929 . S
H408 C396 0.960 . S
H409 C396 0.962 . S
H410 C396 0.960 . S
H411 C397 0.961 . S
H412 C397 0.961 . S
H413 C397 0.961 . S
H414 C398 0.931 . S
H415 C403 0.930 . S
H416 C404 0.956 . S
H417 C404 0.961 . S
H418 C404 0.961 . S
H419 C405 0.958 . S
H420 C405 0.961 . S
H421 C405 0.960 . S
C422 C423 1.391 . S
C422 C424 1.394 . S
C422 H438 0.931 . S
C423 C422 1.391 . S
C423 C427 1.376 . S
C424 C422 1.394 . S
C424 C425 1.369 . S
C424 C428 1.531 . S
C425 C424 1.369 . S
C425 C426 1.410 . S
C425 C433 1.503 . S
C426 C425 1.410 . S
C426 C427 1.392 . S
C426 C429 1.511 . S
C427 C423 1.376 . S
C427 C426 1.392 . S
C427 H439 0.929 . S
C428 C424 1.531 . S
C428 H440 0.960 . S
C428 H441 0.962 . S
C428 H442 0.960 . S
C429 C426 1.511 . S
C429 H443 0.961 . S
C429 H444 0.961 . S
C429 H445 0.961 . S
C430 C431 1.370 . S
C430 C432 1.363 . S
C430 H446 0.931 . S
C431 C430 1.370 . S
C431 C435 1.408 . S
C432 C430 1.363 . S
C432 C433 1.370 . S
C432 C436 1.524 . S
C433 C425 1.503 . S
C433 C432 1.370 . S
C433 C434 1.403 . S
C434 C433 1.403 . S
C434 C435 1.404 . S
C434 C437 1.539 . S
C435 C431 1.408 . S
C435 C434 1.404 . S
C435 H447 0.930 . S
C436 C432 1.524 . S
C436 H448 0.956 . S
C436 H449 0.961 . S
C436 H450 0.961 . S
C437 C434 1.539 . S
C437 H451 0.958 . S
C437 H452 0.961 . S
C437 H453 0.960 . S
H438 C422 0.931 . S
H439 C427 0.929 . S
H440 C428 0.960 . S
H441 C428 0.962 . S
H442 C428 0.960 . S
H443 C429 0.961 . S
H444 C429 0.961 . S
H445 C429 0.961 . S
H446 C430 0.931 . S
H447 C435 0.930 . S
H448 C436 0.956 . S
H449 C436 0.961 . S
H450 C436 0.961 . S
H451 C437 0.958 . S
H452 C437 0.961 . S
H453 C437 0.960 . S
C454 C455 1.391 . S
C454 C456 1.394 . S
C454 H470 0.931 . S
C455 C454 1.391 . S
C455 C459 1.376 . S
C456 C454 1.394 . S
C456 C457 1.369 . S
C456 C460 1.531 . S
C457 C456 1.369 . S
C457 C458 1.410 . S
C457 C465 1.503 . S
C458 C457 1.410 . S
C458 C459 1.392 . S
C458 C461 1.511 . S
C459 C455 1.376 . S
C459 C458 1.392 . S
C459 H471 0.929 . S
C460 C456 1.531 . S
C460 H472 0.960 . S
C460 H473 0.962 . S
C460 H474 0.960 . S
C461 C458 1.511 . S
C461 H475 0.961 . S
C461 H476 0.961 . S
C461 H477 0.961 . S
C462 C463 1.370 . S
C462 C464 1.363 . S
C462 H478 0.931 . S
C463 C462 1.370 . S
C463 C467 1.408 . S
C464 C462 1.363 . S
C464 C465 1.370 . S
C464 C468 1.524 . S
C465 C457 1.503 . S
C465 C464 1.370 . S
C465 C466 1.403 . S
C466 C465 1.403 . S
C466 C467 1.404 . S
C466 C469 1.539 . S
C467 C463 1.408 . S
C467 C466 1.404 . S
C467 H479 0.930 . S
C468 C464 1.524 . S
C468 H480 0.956 . S
C468 H481 0.961 . S
C468 H482 0.961 . S
C469 C466 1.539 . S
C469 H483 0.958 . S
C469 H484 0.961 . S
C469 H485 0.960 . S
H470 C454 0.931 . S
H471 C459 0.929 . S
H472 C460 0.960 . S
H473 C460 0.962 . S
H474 C460 0.960 . S
H475 C461 0.961 . S
H476 C461 0.961 . S
H477 C461 0.961 . S
H478 C462 0.931 . S
H479 C467 0.930 . S
H480 C468 0.956 . S
H481 C468 0.961 . S
H482 C468 0.961 . S
H483 C469 0.958 . S
H484 C469 0.961 . S
H485 C469 0.960 . S
C486 C487 1.391 . S
C486 C488 1.394 . S
C486 H502 0.931 . S
C487 C486 1.391 . S
C487 C491 1.376 . S
C488 C486 1.394 . S
C488 C489 1.369 . S
C488 C492 1.531 . S
C489 C488 1.369 . S
C489 C490 1.410 . S
C489 C497 1.503 . S
C490 C489 1.410 . S
C490 C491 1.392 . S
C490 C493 1.511 . S
C491 C487 1.376 . S
C491 C490 1.392 . S
C491 H503 0.929 . S
C492 C488 1.531 . S
C492 H504 0.960 . S
C492 H505 0.962 . S
C492 H506 0.960 . S
C493 C490 1.511 . S
C493 H507 0.961 . S
C493 H508 0.961 . S
C493 H509 0.961 . S
C494 C495 1.370 . S
C494 C496 1.363 . S
C494 H510 0.931 . S
C495 C494 1.370 . S
C495 C499 1.408 . S
C496 C494 1.363 . S
C496 C497 1.370 . S
C496 C500 1.524 . S
C497 C489 1.503 . S
C497 C496 1.370 . S
C497 C498 1.403 . S
C498 C497 1.403 . S
C498 C499 1.404 . S
C498 C501 1.539 . S
C499 C495 1.408 . S
C499 C498 1.404 . S
C499 H511 0.930 . S
C500 C496 1.524 . S
C500 H512 0.956 . S
C500 H513 0.961 . S
C500 H514 0.961 . S
C501 C498 1.539 . S
C501 H515 0.958 . S
C501 H516 0.961 . S
C501 H517 0.960 . S
H502 C486 0.931 . S
H503 C491 0.929 . S
H504 C492 0.960 . S
H505 C492 0.962 . S
H506 C492 0.960 . S
H507 C493 0.961 . S
H508 C493 0.961 . S
H509 C493 0.961 . S
H510 C494 0.931 . S
H511 C499 0.930 . S
H512 C500 0.956 . S
H513 C500 0.961 . S
H514 C500 0.961 . S
H515 C501 0.958 . S
H516 C501 0.961 . S
H517 C501 0.960 . S
C518 C519 1.391 . S
C518 C520 1.394 . S
C518 H534 0.931 . S
C519 C518 1.391 . S
C519 C523 1.376 . S
C520 C518 1.394 . S
C520 C521 1.369 . S
C520 C524 1.531 . S
C521 C520 1.369 . S
C521 C522 1.410 . S
C521 C529 1.503 . S
C522 C521 1.410 . S
C522 C523 1.392 . S
C522 C525 1.511 . S
C523 C519 1.376 . S
C523 C522 1.392 . S
C523 H535 0.929 . S
C524 C520 1.531 . S
C524 H536 0.960 . S
C524 H537 0.962 . S
C524 H538 0.960 . S
C525 C522 1.511 . S
C525 H539 0.961 . S
C525 H540 0.961 . S
C525 H541 0.961 . S
C526 C527 1.370 . S
C526 C528 1.363 . S
C526 H542 0.931 . S
C527 C526 1.370 . S
C527 C531 1.408 . S
C528 C526 1.363 . S
C528 C529 1.370 . S
C528 C532 1.524 . S
C529 C521 1.503 . S
C529 C528 1.370 . S
C529 C530 1.403 . S
C530 C529 1.403 . S
C530 C531 1.404 . S
C530 C533 1.539 . S
C531 C527 1.408 . S
C531 C530 1.404 . S
C531 H543 0.930 . S
C532 C528 1.524 . S
C532 H544 0.956 . S
C532 H545 0.961 . S
C532 H546 0.961 . S
C533 C530 1.539 . S
C533 H547 0.958 . S
C533 H548 0.961 . S
C533 H549 0.960 . S
H534 C518 0.931 . S
H535 C523 0.929 . S
H536 C524 0.960 . S
H537 C524 0.962 . S
H538 C524 0.960 . S
H539 C525 0.961 . S
H540 C525 0.961 . S
H541 C525 0.961 . S
H542 C526 0.931 . S
H543 C531 0.930 . S
H544 C532 0.956 . S
H545 C532 0.961 . S
H546 C532 0.961 . S
H547 C533 0.958 . S
H548 C533 0.961 . S
H549 C533 0.960 . S
C550 C551 1.391 . S
C550 C552 1.394 . S
C550 H566 0.931 . S
C551 C550 1.391 . S
C551 C555 1.376 . S
C552 C550 1.394 . S
C552 C553 1.369 . S
C552 C556 1.531 . S
C553 C552 1.369 . S
C553 C554 1.410 . S
C553 C561 1.503 . S
C554 C553 1.410 . S
C554 C555 1.392 . S
C554 C557 1.511 . S
C555 C551 1.376 . S
C555 C554 1.392 . S
C555 H567 0.929 . S
C556 C552 1.531 . S
C556 H568 0.960 . S
C556 H569 0.962 . S
C556 H570 0.960 . S
C557 C554 1.511 . S
C557 H571 0.961 . S
C557 H572 0.961 . S
C557 H573 0.961 . S
C558 C559 1.370 . S
C558 C560 1.363 . S
C558 H574 0.931 . S
C559 C558 1.370 . S
C559 C563 1.408 . S
C560 C558 1.363 . S
C560 C561 1.370 . S
C560 C564 1.524 . S
C561 C553 1.503 . S
C561 C560 1.370 . S
C561 C562 1.403 . S
C562 C561 1.403 . S
C562 C563 1.404 . S
C562 C565 1.539 . S
C563 C559 1.408 . S
C563 C562 1.404 . S
C563 H575 0.930 . S
C564 C560 1.524 . S
C564 H576 0.956 . S
C564 H577 0.961 . S
C564 H578 0.961 . S
C565 C562 1.539 . S
C565 H579 0.958 . S
C565 H580 0.961 . S
C565 H581 0.960 . S
H566 C550 0.931 . S
H567 C555 0.929 . S
H568 C556 0.960 . S
H569 C556 0.962 . S
H570 C556 0.960 . S
H571 C557 0.961 . S
H572 C557 0.961 . S
H573 C557 0.961 . S
H574 C558 0.931 . S
H575 C563 0.930 . S
H576 C564 0.956 . S
H577 C564 0.961 . S
H578 C564 0.961 . S
H579 C565 0.958 . S
H580 C565 0.961 . S
H581 C565 0.960 . S
C582 C583 1.391 . S
C582 C584 1.394 . S
C582 H598 0.931 . S
C583 C582 1.391 . S
C583 C587 1.376 . S
C584 C582 1.394 . S
C584 C585 1.369 . S
C584 C588 1.531 . S
C585 C584 1.369 . S
C585 C586 1.410 . S
C585 C593 1.503 . S
C586 C585 1.410 . S
C586 C587 1.392 . S
C586 C589 1.511 . S
C587 C583 1.376 . S
C587 C586 1.392 . S
C587 H599 0.929 . S
C588 C584 1.531 . S
C588 H600 0.960 . S
C588 H601 0.962 . S
C588 H602 0.960 . S
C589 C586 1.511 . S
C589 H603 0.961 . S
C589 H604 0.961 . S
C589 H605 0.961 . S
C590 C591 1.370 . S
C590 C592 1.363 . S
C590 H606 0.931 . S
C591 C590 1.370 . S
C591 C595 1.408 . S
C592 C590 1.363 . S
C592 C593 1.370 . S
C592 C596 1.524 . S
C593 C585 1.503 . S
C593 C592 1.370 . S
C593 C594 1.403 . S
C594 C593 1.403 . S
C594 C595 1.404 . S
C594 C597 1.539 . S
C595 C591 1.408 . S
C595 C594 1.404 . S
C595 H607 0.930 . S
C596 C592 1.524 . S
C596 H608 0.956 . S
C596 H609 0.961 . S
C596 H610 0.961 . S
C597 C594 1.539 . S
C597 H611 0.958 . S
C597 H612 0.961 . S
C597 H613 0.960 . S
H598 C582 0.931 . S
H599 C587 0.929 . S
H600 C588 0.960 . S
H601 C588 0.962 . S
H602 C588 0.960 . S
H603 C589 0.961 . S
H604 C589 0.961 . S
H605 C589 0.961 . S
H606 C590 0.931 . S
H607 C595 0.930 . S
H608 C596 0.956 . S
H609 C596 0.961 . S
H610 C596 0.961 . S
H611 C597 0.958 . S
H612 C597 0.961 . S
H613 C597 0.960 . S
C614 C615 1.391 . S
C614 C616 1.394 . S
C614 H630 0.931 . S
C615 C614 1.391 . S
C615 C619 1.376 . S
C616 C614 1.394 . S
C616 C617 1.369 . S
C616 C620 1.531 . S
C617 C616 1.369 . S
C617 C618 1.410 . S
C617 C625 1.503 . S
C618 C617 1.410 . S
C618 C619 1.392 . S
C618 C621 1.511 . S
C619 C615 1.376 . S
C619 C618 1.392 . S
C619 H631 0.929 . S
C620 C616 1.531 . S
C620 H632 0.960 . S
C620 H633 0.962 . S
C620 H634 0.960 . S
C621 C618 1.511 . S
C621 H635 0.961 . S
C621 H636 0.961 . S
C621 H637 0.961 . S
C622 C623 1.370 . S
C622 C624 1.363 . S
C622 H638 0.931 . S
C623 C622 1.370 . S
C623 C627 1.408 . S
C624 C622 1.363 . S
C624 C625 1.370 . S
C624 C628 1.524 . S
C625 C617 1.503 . S
C625 C624 1.370 . S
C625 C626 1.403 . S
C626 C625 1.403 . S
C626 C627 1.404 . S
C626 C629 1.539 . S
C627 C623 1.408 . S
C627 C626 1.404 . S
C627 H639 0.930 . S
C628 C624 1.524 . S
C628 H640 0.956 . S
C628 H641 0.961 . S
C628 H642 0.961 . S
C629 C626 1.539 . S
C629 H643 0.958 . S
C629 H644 0.961 . S
C629 H645 0.960 . S
H630 C614 0.931 . S
H631 C619 0.929 . S
H632 C620 0.960 . S
H633 C620 0.962 . S
H634 C620 0.960 . S
H635 C621 0.961 . S
H636 C621 0.961 . S
H637 C621 0.961 . S
H638 C622 0.931 . S
H639 C627 0.930 . S
H640 C628 0.956 . S
H641 C628 0.961 . S
H642 C628 0.961 . S
H643 C629 0.958 . S
H644 C629 0.961 . S
H645 C629 0.960 . S
C646 C647 1.391 . S
C646 C648 1.394 . S
C646 H662 0.931 . S
C647 C646 1.391 . S
C647 C651 1.376 . S
C648 C646 1.394 . S
C648 C649 1.369 . S
C648 C652 1.531 . S
C649 C648 1.369 . S
C649 C650 1.410 . S
C649 C657 1.503 . S
C650 C649 1.410 . S
C650 C651 1.392 . S
C650 C653 1.511 . S
C651 C647 1.376 . S
C651 C650 1.392 . S
C651 H663 0.929 . S
C652 C648 1.531 . S
C652 H664 0.960 . S
C652 H665 0.962 . S
C652 H666 0.960 . S
C653 C650 1.511 . S
C653 H667 0.961 . S
C653 H668 0.961 . S
C653 H669 0.961 . S
C654 C655 1.370 . S
C654 C656 1.363 . S
C654 H670 0.931 . S
C655 C654 1.370 . S
C655 C659 1.408 . S
C656 C654 1.363 . S
C656 C657 1.370 . S
C656 C660 1.524 . S
C657 C649 1.503 . S
C657 C656 1.370 . S
C657 C658 1.403 . S
C658 C657 1.403 . S
C658 C659 1.404 . S
C658 C661 1.539 . S
C659 C655 1.408 . S
C659 C658 1.404 . S
C659 H671 0.930 . S
C660 C656 1.524 . S
C660 H672 0.956 . S
C660 H673 0.961 . S
C660 H674 0.961 . S
C661 C658 1.539 . S
C661 H675 0.958 . S
C661 H676 0.961 . S
C661 H677 0.960 . S
H662 C646 0.931 . S
H663 C651 0.929 . S
H664 C652 0.960 . S
H665 C652 0.962 . S
H666 C652 0.960 . S
H667 C653 0.961 . S
H668 C653 0.961 . S
H669 C653 0.961 . S
H670 C654 0.931 . S
H671 C659 0.930 . S
H672 C660 0.956 . S
H673 C660 0.961 . S
H674 C660 0.961 . S
H675 C661 0.958 . S
H676 C661 0.961 . S
H677 C661 0.960 . S
C678 C679 1.391 . S
C678 C680 1.394 . S
C678 H694 0.931 . S
C679 C678 1.391 . S
C679 C683 1.376 . S
C680 C678 1.394 . S
C680 C681 1.369 . S
C680 C684 1.531 . S
C681 C680 1.369 . S
C681 C682 1.410 . S
C681 C689 1.503 . S
C682 C681 1.410 . S
C682 C683 1.392 . S
C682 C685 1.511 . S
C683 C679 1.376 . S
C683 C682 1.392 . S
C683 H695 0.929 . S
C684 C680 1.531 . S
C684 H696 0.960 . S
C684 H697 0.962 . S
C684 H698 0.960 . S
C685 C682 1.511 . S
C685 H699 0.961 . S
C685 H700 0.961 . S
C685 H701 0.961 . S
C686 C687 1.370 . S
C686 C688 1.363 . S
C686 H702 0.931 . S
C687 C686 1.370 . S
C687 C691 1.408 . S
C688 C686 1.363 . S
C688 C689 1.370 . S
C688 C692 1.524 . S
C689 C681 1.503 . S
C689 C688 1.370 . S
C689 C690 1.403 . S
C690 C689 1.403 . S
C690 C691 1.404 . S
C690 C693 1.539 . S
C691 C687 1.408 . S
C691 C690 1.404 . S
C691 H703 0.930 . S
C692 C688 1.524 . S
C692 H704 0.956 . S
C692 H705 0.961 . S
C692 H706 0.961 . S
C693 C690 1.539 . S
C693 H707 0.958 . S
C693 H708 0.961 . S
C693 H709 0.960 . S
H694 C678 0.931 . S
H695 C683 0.929 . S
H696 C684 0.960 . S
H697 C684 0.962 . S
H698 C684 0.960 . S
H699 C685 0.961 . S
H700 C685 0.961 . S
H701 C685 0.961 . S
H702 C686 0.931 . S
H703 C691 0.930 . S
H704 C692 0.956 . S
H705 C692 0.961 . S
H706 C692 0.961 . S
H707 C693 0.958 . S
H708 C693 0.961 . S
H709 C693 0.960 . S
C710 C711 1.391 . S
C710 C712 1.394 . S
C710 H726 0.931 . S
C711 C710 1.391 . S
C711 C715 1.376 . S
C712 C710 1.394 . S
C712 C713 1.369 . S
C712 C716 1.531 . S
C713 C712 1.369 . S
C713 C714 1.410 . S
C713 C721 1.503 . S
C714 C713 1.410 . S
C714 C715 1.392 . S
C714 C717 1.511 . S
C715 C711 1.376 . S
C715 C714 1.392 . S
C715 H727 0.929 . S
C716 C712 1.531 . S
C716 H728 0.960 . S
C716 H729 0.962 . S
C716 H730 0.960 . S
C717 C714 1.511 . S
C717 H731 0.961 . S
C717 H732 0.961 . S
C717 H733 0.961 . S
C718 C719 1.370 . S
C718 C720 1.363 . S
C718 H734 0.931 . S
C719 C718 1.370 . S
C719 C723 1.408 . S
C720 C718 1.363 . S
C720 C721 1.370 . S
C720 C724 1.524 . S
C721 C713 1.503 . S
C721 C720 1.370 . S
C721 C722 1.403 . S
C722 C721 1.403 . S
C722 C723 1.404 . S
C722 C725 1.539 . S
C723 C719 1.408 . S
C723 C722 1.404 . S
C723 H735 0.930 . S
C724 C720 1.524 . S
C724 H736 0.956 . S
C724 H737 0.961 . S
C724 H738 0.961 . S
C725 C722 1.539 . S
C725 H739 0.958 . S
C725 H740 0.961 . S
C725 H741 0.960 . S
H726 C710 0.931 . S
H727 C715 0.929 . S
H728 C716 0.960 . S
H729 C716 0.962 . S
H730 C716 0.960 . S
H731 C717 0.961 . S
H732 C717 0.961 . S
H733 C717 0.961 . S
H734 C718 0.931 . S
H735 C723 0.930 . S
H736 C724 0.956 . S
H737 C724 0.961 . S
H738 C724 0.961 . S
H739 C725 0.958 . S
H740 C725 0.961 . S
H741 C725 0.960 . S
C742 C743 1.391 . S
C742 C744 1.394 . S
C742 H758 0.931 . S
C743 C742 1.391 . S
C743 C747 1.376 . S
C744 C742 1.394 . S
C744 C745 1.369 . S
C744 C748 1.531 . S
C745 C744 1.369 . S
C745 C746 1.410 . S
C745 C753 1.503 . S
C746 C745 1.410 . S
C746 C747 1.392 . S
C746 C749 1.511 . S
C747 C743 1.376 . S
C747 C746 1.392 . S
C747 H759 0.929 . S
C748 C744 1.531 . S
C748 H760 0.960 . S
C748 H761 0.962 . S
C748 H762 0.960 . S
C749 C746 1.511 . S
C749 H763 0.961 . S
C749 H764 0.961 . S
C749 H765 0.961 . S
C750 C751 1.370 . S
C750 C752 1.363 . S
C750 H766 0.931 . S
C751 C750 1.370 . S
C751 C755 1.408 . S
C752 C750 1.363 . S
C752 C753 1.370 . S
C752 C756 1.524 . S
C753 C745 1.503 . S
C753 C752 1.370 . S
C753 C754 1.403 . S
C754 C753 1.403 . S
C754 C755 1.404 . S
C754 C757 1.539 . S
C755 C751 1.408 . S
C755 C754 1.404 . S
C755 H767 0.930 . S
C756 C752 1.524 . S
C756 H768 0.956 . S
C756 H769 0.961 . S
C756 H770 0.961 . S
C757 C754 1.539 . S
C757 H771 0.958 . S
C757 H772 0.961 . S
C757 H773 0.960 . S
H758 C742 0.931 . S
H759 C747 0.929 . S
H760 C748 0.960 . S
H761 C748 0.962 . S
H762 C748 0.960 . S
H763 C749 0.961 . S
H764 C749 0.961 . S
H765 C749 0.961 . S
H766 C750 0.931 . S
H767 C755 0.930 . S
H768 C756 0.956 . S
H769 C756 0.961 . S
H770 C756 0.961 . S
H771 C757 0.958 . S
H772 C757 0.961 . S
H773 C757 0.960 . S
C774 C775 1.391 . S
C774 C776 1.394 . S
C774 H790 0.931 . S
C775 C774 1.391 . S
C775 C779 1.376 . S
C776 C774 1.394 . S
C776 C777 1.369 . S
C776 C780 1.531 . S
C777 C776 1.369 . S
C777 C778 1.410 . S
C777 C785 1.503 . S
C778 C777 1.410 . S
C778 C779 1.392 . S
C778 C781 1.511 . S
C779 C775 1.376 . S
C779 C778 1.392 . S
C779 H791 0.929 . S
C780 C776 1.531 . S
C780 H792 0.960 . S
C780 H793 0.962 . S
C780 H794 0.960 . S
C781 C778 1.511 . S
C781 H795 0.961 . S
C781 H796 0.961 . S
C781 H797 0.961 . S
C782 C783 1.370 . S
C782 C784 1.363 . S
C782 H798 0.931 . S
C783 C782 1.370 . S
C783 C787 1.408 . S
C784 C782 1.363 . S
C784 C785 1.370 . S
C784 C788 1.524 . S
C785 C777 1.503 . S
C785 C784 1.370 . S
C785 C786 1.403 . S
C786 C785 1.403 . S
C786 C787 1.404 . S
C786 C789 1.539 . S
C787 C783 1.408 . S
C787 C786 1.404 . S
C787 H799 0.930 . S
C788 C784 1.524 . S
C788 H800 0.956 . S
C788 H801 0.961 . S
C788 H802 0.961 . S
C789 C786 1.539 . S
C789 H803 0.958 . S
C789 H804 0.961 . S
C789 H805 0.960 . S
H790 C774 0.931 . S
H791 C779 0.929 . S
H792 C780 0.960 . S
H793 C780 0.962 . S
H794 C780 0.960 . S
H795 C781 0.961 . S
H796 C781 0.961 . S
H797 C781 0.961 . S
H798 C782 0.931 . S
H799 C787 0.930 . S
H800 C788 0.956 . S
H801 C788 0.961 . S
H802 C788 0.961 . S
H803 C789 0.958 . S
H804 C789 0.961 . S
H805 C789 0.960 . S
C806 C807 1.391 . S
C806 C808 1.394 . S
C806 H822 0.931 . S
C807 C806 1.391 . S
C807 C811 1.376 . S
C808 C806 1.394 . S
C808 C809 1.369 . S
C808 C812 1.531 . S
C809 C808 1.369 . S
C809 C810 1.410 . S
C809 C817 1.503 . S
C810 C809 1.410 . S
C810 C811 1.392 . S
C810 C813 1.511 . S
C811 C807 1.376 . S
C811 C810 1.392 . S
C811 H823 0.929 . S
C812 C808 1.531 . S
C812 H824 0.960 . S
C812 H825 0.962 . S
C812 H826 0.960 . S
C813 C810 1.511 . S
C813 H827 0.961 . S
C813 H828 0.961 . S
C813 H829 0.961 . S
C814 C815 1.370 . S
C814 C816 1.363 . S
C814 H830 0.931 . S
C815 C814 1.370 . S
C815 C819 1.408 . S
C816 C814 1.363 . S
C816 C817 1.370 . S
C816 C820 1.524 . S
C817 C809 1.503 . S
C817 C816 1.370 . S
C817 C818 1.403 . S
C818 C817 1.403 . S
C818 C819 1.404 . S
C818 C821 1.539 . S
C819 C815 1.408 . S
C819 C818 1.404 . S
C819 H831 0.930 . S
C820 C816 1.524 . S
C820 H832 0.956 . S
C820 H833 0.961 . S
C820 H834 0.961 . S
C821 C818 1.539 . S
C821 H835 0.958 1_556 S
C821 H836 0.961 . S
C821 H837 0.960 . S
H822 C806 0.931 . S
H823 C811 0.929 . S
H824 C812 0.960 . S
H825 C812 0.962 . S
H826 C812 0.960 . S
H827 C813 0.961 . S
H828 C813 0.961 . S
H829 C813 0.961 . S
H830 C814 0.931 . S
H831 C819 0.930 . S
H832 C820 0.956 . S
H833 C820 0.961 . S
H834 C820 0.961 . S
H835 C821 0.958 1_554 S
H836 C821 0.961 . S
H837 C821 0.960 . S
C838 C839 1.391 . S
C838 C840 1.394 . S
C838 H854 0.931 . S
C839 C838 1.391 . S
C839 C843 1.376 . S
C840 C838 1.394 . S
C840 C841 1.369 . S
C840 C844 1.531 . S
C841 C840 1.369 . S
C841 C842 1.410 . S
C841 C849 1.503 . S
C842 C841 1.410 . S
C842 C843 1.392 . S
C842 C845 1.511 . S
C843 C839 1.376 . S
C843 C842 1.392 . S
C843 H855 0.929 . S
C844 C840 1.531 . S
C844 H856 0.960 . S
C844 H857 0.962 . S
C844 H858 0.960 . S
C845 C842 1.511 . S
C845 H859 0.961 . S
C845 H860 0.961 . S
C845 H861 0.961 . S
C846 C847 1.370 . S
C846 C848 1.363 . S
C846 H862 0.931 . S
C847 C846 1.370 . S
C847 C851 1.408 . S
C848 C846 1.363 . S
C848 C849 1.370 . S
C848 C852 1.524 . S
C849 C841 1.503 . S
C849 C848 1.370 . S
C849 C850 1.403 . S
C850 C849 1.403 . S
C850 C851 1.404 . S
C850 C853 1.539 . S
C851 C847 1.408 . S
C851 C850 1.404 . S
C851 H863 0.930 . S
C852 C848 1.524 . S
C852 H864 0.956 . S
C852 H865 0.961 . S
C852 H866 0.961 . S
C853 C850 1.539 . S
C853 H867 0.958 . S
C853 H868 0.961 . S
C853 H869 0.960 . S
H854 C838 0.931 . S
H855 C843 0.929 . S
H856 C844 0.960 . S
H857 C844 0.962 . S
H858 C844 0.960 . S
H859 C845 0.961 . S
H860 C845 0.961 . S
H861 C845 0.961 . S
H862 C846 0.931 . S
H863 C851 0.930 . S
H864 C852 0.956 . S
H865 C852 0.961 . S
H866 C852 0.961 . S
H867 C853 0.958 . S
H868 C853 0.961 . S
H869 C853 0.960 . S
C870 C871 1.391 . S
C870 C872 1.394 . S
C870 H886 0.931 . S
C871 C870 1.391 . S
C871 C875 1.376 . S
C872 C870 1.394 . S
C872 C873 1.369 . S
C872 C876 1.531 . S
C873 C872 1.369 . S
C873 C874 1.410 . S
C873 C881 1.503 . S
C874 C873 1.410 . S
C874 C875 1.392 . S
C874 C877 1.511 . S
C875 C871 1.376 . S
C875 C874 1.392 . S
C875 H887 0.929 . S
C876 C872 1.531 . S
C876 H888 0.960 . S
C876 H889 0.962 . S
C876 H890 0.960 . S
C877 C874 1.511 . S
C877 H891 0.961 . S
C877 H892 0.961 . S
C877 H893 0.961 . S
C878 C879 1.370 . S
C878 C880 1.363 . S
C878 H894 0.931 . S
C879 C878 1.370 . S
C879 C883 1.408 . S
C880 C878 1.363 . S
C880 C881 1.370 . S
C880 C884 1.524 . S
C881 C873 1.503 . S
C881 C880 1.370 . S
C881 C882 1.403 . S
C882 C881 1.403 . S
C882 C883 1.404 . S
C882 C885 1.539 . S
C883 C879 1.408 . S
C883 C882 1.404 . S
C883 H895 0.930 . S
C884 C880 1.524 . S
C884 H896 0.956 . S
C884 H897 0.961 . S
C884 H898 0.961 . S
C885 C882 1.539 . S
C885 H899 0.958 . S
C885 H900 0.961 . S
C885 H901 0.960 . S
H886 C870 0.931 . S
H887 C875 0.929 . S
H888 C876 0.960 . S
H889 C876 0.962 . S
H890 C876 0.960 . S
H891 C877 0.961 . S
H892 C877 0.961 . S
H893 C877 0.961 . S
H894 C878 0.931 . S
H895 C883 0.930 . S
H896 C884 0.956 . S
H897 C884 0.961 . S
H898 C884 0.961 . S
H899 C885 0.958 . S
H900 C885 0.961 . S
H901 C885 0.960 . S
C902 C903 1.391 . S
C902 C904 1.394 . S
C902 H918 0.931 . S
C903 C902 1.391 . S
C903 C907 1.376 . S
C904 C902 1.394 . S
C904 C905 1.369 . S
C904 C908 1.531 . S
C905 C904 1.369 . S
C905 C906 1.410 . S
C905 C913 1.503 . S
C906 C905 1.410 . S
C906 C907 1.392 . S
C906 C909 1.511 . S
C907 C903 1.376 . S
C907 C906 1.392 . S
C907 H919 0.929 . S
C908 C904 1.531 . S
C908 H920 0.960 . S
C908 H921 0.962 . S
C908 H922 0.960 . S
C909 C906 1.511 . S
C909 H923 0.961 . S
C909 H924 0.961 . S
C909 H925 0.961 . S
C910 C911 1.370 . S
C910 C912 1.363 . S
C910 H926 0.931 . S
C911 C910 1.370 . S
C911 C915 1.408 . S
C912 C910 1.363 . S
C912 C913 1.370 . S
C912 C916 1.524 . S
C913 C905 1.503 . S
C913 C912 1.370 . S
C913 C914 1.403 . S
C914 C913 1.403 . S
C914 C915 1.404 . S
C914 C917 1.539 . S
C915 C911 1.408 . S
C915 C914 1.404 . S
C915 H927 0.930 . S
C916 C912 1.524 . S
C916 H928 0.956 . S
C916 H929 0.961 . S
C916 H930 0.961 . S
C917 C914 1.539 . S
C917 H931 0.958 . S
C917 H932 0.961 . S
C917 H933 0.960 . S
H918 C902 0.931 . S
H919 C907 0.929 . S
H920 C908 0.960 . S
H921 C908 0.962 . S
H922 C908 0.960 . S
H923 C909 0.961 . S
H924 C909 0.961 . S
H925 C909 0.961 . S
H926 C910 0.931 . S
H927 C915 0.930 . S
H928 C916 0.956 . S
H929 C916 0.961 . S
H930 C916 0.961 . S
H931 C917 0.958 . S
H932 C917 0.961 . S
H933 C917 0.960 . S
C934 C935 1.391 . S
C934 C936 1.394 . S
C934 H950 0.931 . S
C935 C934 1.391 . S
C935 C939 1.376 . S
C936 C934 1.394 . S
C936 C937 1.369 . S
C936 C940 1.531 . S
C937 C936 1.369 . S
C937 C938 1.410 . S
C937 C945 1.503 . S
C938 C937 1.410 . S
C938 C939 1.392 . S
C938 C941 1.511 . S
C939 C935 1.376 . S
C939 C938 1.392 . S
C939 H951 0.929 . S
C940 C936 1.531 . S
C940 H952 0.960 . S
C940 H953 0.962 . S
C940 H954 0.960 . S
C941 C938 1.511 . S
C941 H955 0.961 . S
C941 H956 0.961 . S
C941 H957 0.961 . S
C942 C943 1.370 . S
C942 C944 1.363 . S
C942 H958 0.931 . S
C943 C942 1.370 . S
C943 C947 1.408 . S
C944 C942 1.363 . S
C944 C945 1.370 . S
C944 C948 1.524 . S
C945 C937 1.503 . S
C945 C944 1.370 . S
C945 C946 1.403 . S
C946 C945 1.403 . S
C946 C947 1.404 . S
C946 C949 1.539 . S
C947 C943 1.408 . S
C947 C946 1.404 . S
C947 H959 0.930 . S
C948 C944 1.524 . S
C948 H960 0.956 . S
C948 H961 0.961 . S
C948 H962 0.961 . S
C949 C946 1.539 . S
C949 H963 0.958 . S
C949 H964 0.961 . S
C949 H965 0.960 . S
H950 C934 0.931 . S
H951 C939 0.929 . S
H952 C940 0.960 . S
H953 C940 0.962 . S
H954 C940 0.960 . S
H955 C941 0.961 . S
H956 C941 0.961 . S
H957 C941 0.961 . S
H958 C942 0.931 . S
H959 C947 0.930 . S
H960 C948 0.956 . S
H961 C948 0.961 . S
H962 C948 0.961 . S
H963 C949 0.958 . S
H964 C949 0.961 . S
H965 C949 0.960 . S
C966 C967 1.391 . S
C966 C968 1.394 . S
C966 H982 0.931 . S
C967 C966 1.391 . S
C967 C971 1.376 . S
C968 C966 1.394 . S
C968 C969 1.369 . S
C968 C972 1.531 . S
C969 C968 1.369 . S
C969 C970 1.410 . S
C969 C977 1.503 . S
C970 C969 1.410 . S
C970 C971 1.392 . S
C970 C973 1.511 . S
C971 C967 1.376 . S
C971 C970 1.392 . S
C971 H983 0.929 . S
C972 C968 1.531 . S
C972 H984 0.960 . S
C972 H985 0.962 . S
C972 H986 0.960 . S
C973 C970 1.511 . S
C973 H987 0.961 . S
C973 H988 0.961 . S
C973 H989 0.961 . S
C974 C975 1.370 . S
C974 C976 1.363 . S
C974 H990 0.931 . S
C975 C974 1.370 . S
C975 C979 1.408 . S
C976 C974 1.363 . S
C976 C977 1.370 . S
C976 C980 1.524 . S
C977 C969 1.503 . S
C977 C976 1.370 . S
C977 C978 1.403 . S
C978 C977 1.403 . S
C978 C979 1.404 . S
C978 C981 1.539 . S
C979 C975 1.408 . S
C979 C978 1.404 . S
C979 H991 0.930 . S
C980 C976 1.524 . S
C980 H992 0.956 . S
C980 H993 0.961 . S
C980 H994 0.961 . S
C981 C978 1.539 . S
C981 H995 0.958 . S
C981 H996 0.961 1_556 S
C981 H997 0.960 . S
H982 C966 0.931 . S
H983 C971 0.929 . S
H984 C972 0.960 . S
H985 C972 0.962 . S
H986 C972 0.960 . S
H987 C973 0.961 . S
H988 C973 0.961 . S
H989 C973 0.961 . S
H990 C974 0.931 . S
H991 C979 0.930 . S
H992 C980 0.956 . S
H993 C980 0.961 . S
H994 C980 0.961 . S
H995 C981 0.958 . S
H996 C981 0.961 1_554 S
H997 C981 0.960 . S
C998 C999 1.391 . S
C998 C1000 1.394 . S
C998 H1014 0.931 . S
C999 C998 1.391 . S
C999 C1003 1.376 . S
C1000 C998 1.394 . S
C1000 C1001 1.369 . S
C1000 C1004 1.531 . S
C1001 C1000 1.369 . S
C1001 C1002 1.410 . S
C1001 C1009 1.503 . S
C1002 C1001 1.410 . S
C1002 C1003 1.392 . S
C1002 C1005 1.511 . S
C1003 C999 1.376 . S
C1003 C1002 1.392 . S
C1003 H1015 0.929 . S
C1004 C1000 1.531 . S
C1004 H1016 0.960 . S
C1004 H1017 0.962 . S
C1004 H1018 0.960 . S
C1005 C1002 1.511 . S
C1005 H1019 0.961 . S
C1005 H1020 0.961 . S
C1005 H1021 0.961 . S
C1006 C1007 1.370 . S
C1006 C1008 1.363 . S
C1006 H1022 0.931 . S
C1007 C1006 1.370 . S
C1007 C1011 1.408 . S
C1008 C1006 1.363 . S
C1008 C1009 1.370 . S
C1008 C1012 1.524 . S
C1009 C1001 1.503 . S
C1009 C1008 1.370 . S
C1009 C1010 1.403 . S
C1010 C1009 1.403 . S
C1010 C1011 1.404 . S
C1010 C1013 1.539 . S
C1011 C1007 1.408 . S
C1011 C1010 1.404 . S
C1011 H1023 0.930 . S
C1012 C1008 1.524 . S
C1012 H1024 0.956 . S
C1012 H1025 0.961 . S
C1012 H1026 0.961 . S
C1013 C1010 1.539 . S
C1013 H1027 0.958 . S
C1013 H1028 0.961 . S
C1013 H1029 0.960 . S
H1014 C998 0.931 . S
H1015 C1003 0.929 . S
H1016 C1004 0.960 . S
H1017 C1004 0.962 . S
H1018 C1004 0.960 . S
H1019 C1005 0.961 . S
H1020 C1005 0.961 . S
H1021 C1005 0.961 . S
H1022 C1006 0.931 . S
H1023 C1011 0.930 . S
H1024 C1012 0.956 . S
H1025 C1012 0.961 . S
H1026 C1012 0.961 . S
H1027 C1013 0.958 . S
H1028 C1013 0.961 . S
H1029 C1013 0.960 . S
C1030 C1031 1.391 . S
C1030 C1032 1.394 . S
C1030 H1046 0.931 . S
C1031 C1030 1.391 . S
C1031 C1035 1.376 . S
C1032 C1030 1.394 . S
C1032 C1033 1.369 . S
C1032 C1036 1.531 . S
C1033 C1032 1.369 . S
C1033 C1034 1.410 . S
C1033 C1041 1.503 . S
C1034 C1033 1.410 . S
C1034 C1035 1.392 . S
C1034 C1037 1.511 . S
C1035 C1031 1.376 . S
C1035 C1034 1.392 . S
C1035 H1047 0.929 . S
C1036 C1032 1.531 . S
C1036 H1048 0.960 . S
C1036 H1049 0.962 . S
C1036 H1050 0.960 . S
C1037 C1034 1.511 . S
C1037 H1051 0.961 . S
C1037 H1052 0.961 . S
C1037 H1053 0.961 . S
C1038 C1039 1.370 . S
C1038 C1040 1.363 . S
C1038 H1054 0.931 . S
C1039 C1038 1.370 . S
C1039 C1043 1.408 . S
C1040 C1038 1.363 . S
C1040 C1041 1.370 . S
C1040 C1044 1.524 . S
C1041 C1033 1.503 . S
C1041 C1040 1.370 . S
C1041 C1042 1.403 . S
C1042 C1041 1.403 . S
C1042 C1043 1.404 . S
C1042 C1045 1.539 . S
C1043 C1039 1.408 . S
C1043 C1042 1.404 . S
C1043 H1055 0.930 . S
C1044 C1040 1.524 . S
C1044 H1056 0.956 . S
C1044 H1057 0.961 . S
C1044 H1058 0.961 . S
C1045 C1042 1.539 . S
C1045 H1059 0.958 . S
C1045 H1060 0.961 . S
C1045 H1061 0.960 . S
H1046 C1030 0.931 . S
H1047 C1035 0.929 . S
H1048 C1036 0.960 . S
H1049 C1036 0.962 . S
H1050 C1036 0.960 . S
H1051 C1037 0.961 . S
H1052 C1037 0.961 . S
H1053 C1037 0.961 . S
H1054 C1038 0.931 . S
H1055 C1043 0.930 . S
H1056 C1044 0.956 . S
H1057 C1044 0.961 . S
H1058 C1044 0.961 . S
H1059 C1045 0.958 . S
H1060 C1045 0.961 . S
H1061 C1045 0.960 . S
C1062 C1063 1.391 . S
C1062 C1064 1.394 . S
C1062 H1078 0.931 . S
C1063 C1062 1.391 . S
C1063 C1067 1.376 . S
C1064 C1062 1.394 . S
C1064 C1065 1.369 . S
C1064 C1068 1.531 . S
C1065 C1064 1.369 . S
C1065 C1066 1.410 . S
C1065 C1073 1.503 . S
C1066 C1065 1.410 . S
C1066 C1067 1.392 . S
C1066 C1069 1.511 . S
C1067 C1063 1.376 . S
C1067 C1066 1.392 . S
C1067 H1079 0.929 . S
C1068 C1064 1.531 . S
C1068 H1080 0.960 . S
C1068 H1081 0.962 . S
C1068 H1082 0.960 . S
C1069 C1066 1.511 . S
C1069 H1083 0.961 . S
C1069 H1084 0.961 . S
C1069 H1085 0.961 . S
C1070 C1071 1.370 . S
C1070 C1072 1.363 . S
C1070 H1086 0.931 . S
C1071 C1070 1.370 . S
C1071 C1075 1.408 . S
C1072 C1070 1.363 . S
C1072 C1073 1.370 . S
C1072 C1076 1.524 . S
C1073 C1065 1.503 . S
C1073 C1072 1.370 . S
C1073 C1074 1.403 . S
C1074 C1073 1.403 . S
C1074 C1075 1.404 . S
C1074 C1077 1.539 . S
C1075 C1071 1.408 . S
C1075 C1074 1.404 . S
C1075 H1087 0.930 . S
C1076 C1072 1.524 . S
C1076 H1088 0.956 . S
C1076 H1089 0.961 . S
C1076 H1090 0.961 . S
C1077 C1074 1.539 . S
C1077 H1091 0.958 . S
C1077 H1092 0.961 . S
C1077 H1093 0.960 . S
H1078 C1062 0.931 . S
H1079 C1067 0.929 . S
H1080 C1068 0.960 . S
H1081 C1068 0.962 . S
H1082 C1068 0.960 . S
H1083 C1069 0.961 . S
H1084 C1069 0.961 . S
H1085 C1069 0.961 . S
H1086 C1070 0.931 . S
H1087 C1075 0.930 . S
H1088 C1076 0.956 . S
H1089 C1076 0.961 . S
H1090 C1076 0.961 . S
H1091 C1077 0.958 . S
H1092 C1077 0.961 . S
H1093 C1077 0.960 . S
C1094 C1095 1.391 . S
C1094 C1096 1.394 . S
C1094 H1110 0.931 . S
C1095 C1094 1.391 . S
C1095 C1099 1.376 . S
C1096 C1094 1.394 . S
C1096 C1097 1.369 . S
C1096 C1100 1.531 . S
C1097 C1096 1.369 . S
C1097 C1098 1.410 . S
C1097 C1105 1.503 . S
C1098 C1097 1.410 . S
C1098 C1099 1.392 . S
C1098 C1101 1.511 . S
C1099 C1095 1.376 . S
C1099 C1098 1.392 . S
C1099 H1111 0.929 . S
C1100 C1096 1.531 . S
C1100 H1112 0.960 . S
C1100 H1113 0.962 . S
C1100 H1114 0.960 . S
C1101 C1098 1.511 . S
C1101 H1115 0.961 . S
C1101 H1116 0.961 . S
C1101 H1117 0.961 . S
C1102 C1103 1.370 . S
C1102 C1104 1.363 . S
C1102 H1118 0.931 . S
C1103 C1102 1.370 . S
C1103 C1107 1.408 . S
C1104 C1102 1.363 . S
C1104 C1105 1.370 . S
C1104 C1108 1.524 . S
C1105 C1097 1.503 . S
C1105 C1104 1.370 . S
C1105 C1106 1.403 . S
C1106 C1105 1.403 . S
C1106 C1107 1.404 . S
C1106 C1109 1.539 . S
C1107 C1103 1.408 . S
C1107 C1106 1.404 . S
C1107 H1119 0.930 . S
C1108 C1104 1.524 . S
C1108 H1120 0.956 . S
C1108 H1121 0.961 . S
C1108 H1122 0.961 . S
C1109 C1106 1.539 . S
C1109 H1123 0.958 . S
C1109 H1124 0.961 . S
C1109 H1125 0.960 . S
H1110 C1094 0.931 . S
H1111 C1099 0.929 . S
H1112 C1100 0.960 . S
H1113 C1100 0.962 . S
H1114 C1100 0.960 . S
H1115 C1101 0.961 . S
H1116 C1101 0.961 . S
H1117 C1101 0.961 . S
H1118 C1102 0.931 . S
H1119 C1107 0.930 . S
H1120 C1108 0.956 . S
H1121 C1108 0.961 . S
H1122 C1108 0.961 . S
H1123 C1109 0.958 . S
H1124 C1109 0.961 . S
H1125 C1109 0.960 . S
C1126 C1127 1.391 . S
C1126 C1128 1.394 . S
C1126 H1142 0.931 . S
C1127 C1126 1.391 . S
C1127 C1131 1.376 . S
C1128 C1126 1.394 . S
C1128 C1129 1.369 . S
C1128 C1132 1.531 . S
C1129 C1128 1.369 . S
C1129 C1130 1.410 . S
C1129 C1137 1.503 . S
C1130 C1129 1.410 . S
C1130 C1131 1.392 . S
C1130 C1133 1.511 . S
C1131 C1127 1.376 . S
C1131 C1130 1.392 . S
C1131 H1143 0.929 . S
C1132 C1128 1.531 . S
C1132 H1144 0.960 . S
C1132 H1145 0.962 . S
C1132 H1146 0.960 . S
C1133 C1130 1.511 . S
C1133 H1147 0.961 . S
C1133 H1148 0.961 . S
C1133 H1149 0.961 . S
C1134 C1135 1.370 . S
C1134 C1136 1.363 . S
C1134 H1150 0.931 . S
C1135 C1134 1.370 . S
C1135 C1139 1.408 . S
C1136 C1134 1.363 . S
C1136 C1137 1.370 . S
C1136 C1140 1.524 . S
C1137 C1129 1.503 . S
C1137 C1136 1.370 . S
C1137 C1138 1.403 . S
C1138 C1137 1.403 . S
C1138 C1139 1.404 . S
C1138 C1141 1.539 . S
C1139 C1135 1.408 . S
C1139 C1138 1.404 . S
C1139 H1151 0.930 . S
C1140 C1136 1.524 . S
C1140 H1152 0.956 . S
C1140 H1153 0.961 . S
C1140 H1154 0.961 . S
C1141 C1138 1.539 . S
C1141 H1155 0.958 . S
C1141 H1156 0.961 . S
C1141 H1157 0.960 . S
H1142 C1126 0.931 . S
H1143 C1131 0.929 . S
H1144 C1132 0.960 . S
H1145 C1132 0.962 . S
H1146 C1132 0.960 . S
H1147 C1133 0.961 . S
H1148 C1133 0.961 . S
H1149 C1133 0.961 . S
H1150 C1134 0.931 . S
H1151 C1139 0.930 . S
H1152 C1140 0.956 . S
H1153 C1140 0.961 . S
H1154 C1140 0.961 . S
H1155 C1141 0.958 . S
H1156 C1141 0.961 . S
H1157 C1141 0.960 . S
C1158 C1159 1.391 . S
C1158 C1160 1.394 . S
C1158 H1174 0.931 . S
C1159 C1158 1.391 . S
C1159 C1163 1.376 . S
C1160 C1158 1.394 . S
C1160 C1161 1.369 . S
C1160 C1164 1.531 . S
C1161 C1160 1.369 . S
C1161 C1162 1.410 . S
C1161 C1169 1.503 . S
C1162 C1161 1.410 . S
C1162 C1163 1.392 . S
C1162 C1165 1.511 . S
C1163 C1159 1.376 . S
C1163 C1162 1.392 . S
C1163 H1175 0.929 . S
C1164 C1160 1.531 . S
C1164 H1176 0.960 . S
C1164 H1177 0.962 . S
C1164 H1178 0.960 . S
C1165 C1162 1.511 . S
C1165 H1179 0.961 . S
C1165 H1180 0.961 . S
C1165 H1181 0.961 . S
C1166 C1167 1.370 . S
C1166 C1168 1.363 . S
C1166 H1182 0.931 . S
C1167 C1166 1.370 . S
C1167 C1171 1.408 . S
C1168 C1166 1.363 . S
C1168 C1169 1.370 . S
C1168 C1172 1.524 . S
C1169 C1161 1.503 . S
C1169 C1168 1.370 . S
C1169 C1170 1.403 . S
C1170 C1169 1.403 . S
C1170 C1171 1.404 . S
C1170 C1173 1.539 . S
C1171 C1167 1.408 . S
C1171 C1170 1.404 . S
C1171 H1183 0.930 . S
C1172 C1168 1.524 . S
C1172 H1184 0.956 . S
C1172 H1185 0.961 . S
C1172 H1186 0.961 . S
C1173 C1170 1.539 . S
C1173 H1187 0.958 . S
C1173 H1188 0.961 . S
C1173 H1189 0.960 . S
H1174 C1158 0.931 . S
H1175 C1163 0.929 . S
H1176 C1164 0.960 . S
H1177 C1164 0.962 . S
H1178 C1164 0.960 . S
H1179 C1165 0.961 . S
H1180 C1165 0.961 . S
H1181 C1165 0.961 . S
H1182 C1166 0.931 . S
H1183 C1171 0.930 . S
H1184 C1172 0.956 . S
H1185 C1172 0.961 . S
H1186 C1172 0.961 . S
H1187 C1173 0.958 . S
H1188 C1173 0.961 . S
H1189 C1173 0.960 . S
C1190 C1191 1.391 . S
C1190 C1192 1.394 . S
C1190 H1206 0.931 . S
C1191 C1190 1.391 . S
C1191 C1195 1.376 . S
C1192 C1190 1.394 . S
C1192 C1193 1.369 . S
C1192 C1196 1.531 . S
C1193 C1192 1.369 . S
C1193 C1194 1.410 . S
C1193 C1201 1.503 . S
C1194 C1193 1.410 . S
C1194 C1195 1.392 . S
C1194 C1197 1.511 . S
C1195 C1191 1.376 . S
C1195 C1194 1.392 . S
C1195 H1207 0.929 . S
C1196 C1192 1.531 . S
C1196 H1208 0.960 . S
C1196 H1209 0.962 . S
C1196 H1210 0.960 . S
C1197 C1194 1.511 . S
C1197 H1211 0.961 . S
C1197 H1212 0.961 . S
C1197 H1213 0.961 . S
C1198 C1199 1.370 . S
C1198 C1200 1.363 . S
C1198 H1214 0.931 . S
C1199 C1198 1.370 . S
C1199 C1203 1.408 . S
C1200 C1198 1.363 . S
C1200 C1201 1.370 . S
C1200 C1204 1.524 . S
C1201 C1193 1.503 . S
C1201 C1200 1.370 . S
C1201 C1202 1.403 . S
C1202 C1201 1.403 . S
C1202 C1203 1.404 . S
C1202 C1205 1.539 . S
C1203 C1199 1.408 . S
C1203 C1202 1.404 . S
C1203 H1215 0.930 . S
C1204 C1200 1.524 . S
C1204 H1216 0.956 . S
C1204 H1217 0.961 . S
C1204 H1218 0.961 . S
C1205 C1202 1.539 . S
C1205 H1219 0.958 . S
C1205 H1220 0.961 . S
C1205 H1221 0.960 . S
H1206 C1190 0.931 . S
H1207 C1195 0.929 . S
H1208 C1196 0.960 . S
H1209 C1196 0.962 . S
H1210 C1196 0.960 . S
H1211 C1197 0.961 . S
H1212 C1197 0.961 . S
H1213 C1197 0.961 . S
H1214 C1198 0.931 . S
H1215 C1203 0.930 . S
H1216 C1204 0.956 . S
H1217 C1204 0.961 . S
H1218 C1204 0.961 . S
H1219 C1205 0.958 . S
H1220 C1205 0.961 . S
H1221 C1205 0.960 . S
C1222 C1223 1.391 . S
C1222 C1224 1.394 . S
C1222 H1238 0.931 . S
C1223 C1222 1.391 . S
C1223 C1227 1.376 . S
C1224 C1222 1.394 . S
C1224 C1225 1.369 . S
C1224 C1228 1.531 . S
C1225 C1224 1.369 . S
C1225 C1226 1.410 . S
C1225 C1233 1.503 . S
C1226 C1225 1.410 . S
C1226 C1227 1.392 . S
C1226 C1229 1.511 . S
C1227 C1223 1.376 . S
C1227 C1226 1.392 . S
C1227 H1239 0.929 . S
C1228 C1224 1.531 . S
C1228 H1240 0.960 . S
C1228 H1241 0.962 . S
C1228 H1242 0.960 . S
C1229 C1226 1.511 . S
C1229 H1243 0.961 . S
C1229 H1244 0.961 . S
C1229 H1245 0.961 . S
C1230 C1231 1.370 . S
C1230 C1232 1.363 . S
C1230 H1246 0.931 . S
C1231 C1230 1.370 . S
C1231 C1235 1.408 . S
C1232 C1230 1.363 . S
C1232 C1233 1.370 . S
C1232 C1236 1.524 . S
C1233 C1225 1.503 . S
C1233 C1232 1.370 . S
C1233 C1234 1.403 . S
C1234 C1233 1.403 . S
C1234 C1235 1.404 . S
C1234 C1237 1.539 . S
C1235 C1231 1.408 . S
C1235 C1234 1.404 . S
C1235 H1247 0.930 . S
C1236 C1232 1.524 . S
C1236 H1248 0.956 . S
C1236 H1249 0.961 . S
C1236 H1250 0.961 . S
C1237 C1234 1.539 . S
C1237 H1251 0.958 . S
C1237 H1252 0.961 . S
C1237 H1253 0.960 . S
H1238 C1222 0.931 . S
H1239 C1227 0.929 . S
H1240 C1228 0.960 . S
H1241 C1228 0.962 . S
H1242 C1228 0.960 . S
H1243 C1229 0.961 . S
H1244 C1229 0.961 . S
H1245 C1229 0.961 . S
H1246 C1230 0.931 . S
H1247 C1235 0.930 . S
H1248 C1236 0.956 . S
H1249 C1236 0.961 . S
H1250 C1236 0.961 . S
H1251 C1237 0.958 . S
H1252 C1237 0.961 . S
H1253 C1237 0.960 . S
C1254 C1255 1.391 . S
C1254 C1256 1.394 . S
C1254 H1270 0.931 . S
C1255 C1254 1.391 . S
C1255 C1259 1.376 . S
C1256 C1254 1.394 . S
C1256 C1257 1.369 . S
C1256 C1260 1.531 . S
C1257 C1256 1.369 . S
C1257 C1258 1.410 . S
C1257 C1265 1.503 . S
C1258 C1257 1.410 . S
C1258 C1259 1.392 . S
C1258 C1261 1.511 . S
C1259 C1255 1.376 . S
C1259 C1258 1.392 . S
C1259 H1271 0.929 . S
C1260 C1256 1.531 . S
C1260 H1272 0.960 . S
C1260 H1273 0.962 . S
C1260 H1274 0.960 . S
C1261 C1258 1.511 . S
C1261 H1275 0.961 . S
C1261 H1276 0.961 . S
C1261 H1277 0.961 . S
C1262 C1263 1.370 . S
C1262 C1264 1.363 . S
C1262 H1278 0.931 . S
C1263 C1262 1.370 . S
C1263 C1267 1.408 . S
C1264 C1262 1.363 . S
C1264 C1265 1.370 . S
C1264 C1268 1.524 . S
C1265 C1257 1.503 . S
C1265 C1264 1.370 . S
C1265 C1266 1.403 . S
C1266 C1265 1.403 . S
C1266 C1267 1.404 . S
C1266 C1269 1.539 . S
C1267 C1263 1.408 . S
C1267 C1266 1.404 . S
C1267 H1279 0.930 . S
C1268 C1264 1.524 . S
C1268 H1280 0.956 . S
C1268 H1281 0.961 . S
C1268 H1282 0.961 . S
C1269 C1266 1.539 . S
C1269 H1283 0.958 . S
C1269 H1284 0.961 . S
C1269 H1285 0.960 . S
H1270 C1254 0.931 . S
H1271 C1259 0.929 . S
H1272 C1260 0.960 . S
H1273 C1260 0.962 . S
H1274 C1260 0.960 . S
H1275 C1261 0.961 . S
H1276 C1261 0.961 . S
H1277 C1261 0.961 . S
H1278 C1262 0.931 . S
H1279 C1267 0.930 . S
H1280 C1268 0.956 . S
H1281 C1268 0.961 . S
H1282 C1268 0.961 . S
H1283 C1269 0.958 . S
H1284 C1269 0.961 . S
H1285 C1269 0.960 . S
C1286 C1287 1.391 . S
C1286 C1288 1.394 . S
C1286 H1302 0.931 . S
C1287 C1286 1.391 . S
C1287 C1291 1.376 . S
C1288 C1286 1.394 . S
C1288 C1289 1.369 . S
C1288 C1292 1.531 . S
C1289 C1288 1.369 . S
C1289 C1290 1.410 . S
C1289 C1297 1.503 . S
C1290 C1289 1.410 . S
C1290 C1291 1.392 . S
C1290 C1293 1.511 . S
C1291 C1287 1.376 . S
C1291 C1290 1.392 . S
C1291 H1303 0.929 . S
C1292 C1288 1.531 . S
C1292 H1304 0.960 . S
C1292 H1305 0.962 . S
C1292 H1306 0.960 . S
C1293 C1290 1.511 . S
C1293 H1307 0.961 . S
C1293 H1308 0.961 . S
C1293 H1309 0.961 . S
C1294 C1295 1.370 . S
C1294 C1296 1.363 . S
C1294 H1310 0.931 . S
C1295 C1294 1.370 . S
C1295 C1299 1.408 . S
C1296 C1294 1.363 . S
C1296 C1297 1.370 . S
C1296 C1300 1.524 . S
C1297 C1289 1.503 . S
C1297 C1296 1.370 . S
C1297 C1298 1.403 . S
C1298 C1297 1.403 . S
C1298 C1299 1.404 . S
C1298 C1301 1.539 . S
C1299 C1295 1.408 . S
C1299 C1298 1.404 . S
C1299 H1311 0.930 . S
C1300 C1296 1.524 . S
C1300 H1312 0.956 . S
C1300 H1313 0.961 . S
C1300 H1314 0.961 . S
C1301 C1298 1.539 . S
C1301 H1315 0.958 . S
C1301 H1316 0.961 . S
C1301 H1317 0.960 . S
H1302 C1286 0.931 . S
H1303 C1291 0.929 . S
H1304 C1292 0.960 . S
H1305 C1292 0.962 . S
H1306 C1292 0.960 . S
H1307 C1293 0.961 . S
H1308 C1293 0.961 . S
H1309 C1293 0.961 . S
H1310 C1294 0.931 . S
H1311 C1299 0.930 . S
H1312 C1300 0.956 . S
H1313 C1300 0.961 . S
H1314 C1300 0.961 . S
H1315 C1301 0.958 . S
H1316 C1301 0.961 . S
H1317 C1301 0.960 . S
C1318 C1319 1.391 . S
C1318 C1320 1.394 . S
C1318 H1334 0.931 . S
C1319 C1318 1.391 . S
C1319 C1323 1.376 . S
C1320 C1318 1.394 . S
C1320 C1321 1.369 . S
C1320 C1324 1.531 . S
C1321 C1320 1.369 . S
C1321 C1322 1.410 . S
C1321 C1329 1.503 . S
C1322 C1321 1.410 . S
C1322 C1323 1.392 . S
C1322 C1325 1.511 . S
C1323 C1319 1.376 . S
C1323 C1322 1.392 . S
C1323 H1335 0.929 . S
C1324 C1320 1.531 . S
C1324 H1336 0.960 . S
C1324 H1337 0.962 . S
C1324 H1338 0.960 . S
C1325 C1322 1.511 . S
C1325 H1339 0.961 . S
C1325 H1340 0.961 . S
C1325 H1341 0.961 . S
C1326 C1327 1.370 . S
C1326 C1328 1.363 . S
C1326 H1342 0.931 . S
C1327 C1326 1.370 . S
C1327 C1331 1.408 . S
C1328 C1326 1.363 . S
C1328 C1329 1.370 . S
C1328 C1332 1.524 . S
C1329 C1321 1.503 . S
C1329 C1328 1.370 . S
C1329 C1330 1.403 . S
C1330 C1329 1.403 . S
C1330 C1331 1.404 . S
C1330 C1333 1.539 . S
C1331 C1327 1.408 . S
C1331 C1330 1.404 . S
C1331 H1343 0.930 . S
C1332 C1328 1.524 . S
C1332 H1344 0.956 . S
C1332 H1345 0.961 . S
C1332 H1346 0.961 . S
C1333 C1330 1.539 . S
C1333 H1347 0.958 . S
C1333 H1348 0.961 . S
C1333 H1349 0.960 . S
H1334 C1318 0.931 . S
H1335 C1323 0.929 . S
H1336 C1324 0.960 . S
H1337 C1324 0.962 . S
H1338 C1324 0.960 . S
H1339 C1325 0.961 . S
H1340 C1325 0.961 . S
H1341 C1325 0.961 . S
H1342 C1326 0.931 . S
H1343 C1331 0.930 . S
H1344 C1332 0.956 . S
H1345 C1332 0.961 . S
H1346 C1332 0.961 . S
H1347 C1333 0.958 . S
H1348 C1333 0.961 . S
H1349 C1333 0.960 . S
C1350 C1351 1.391 . S
C1350 C1352 1.394 . S
C1350 H1366 0.931 . S
C1351 C1350 1.391 . S
C1351 C1355 1.376 . S
C1352 C1350 1.394 . S
C1352 C1353 1.369 . S
C1352 C1356 1.531 . S
C1353 C1352 1.369 . S
C1353 C1354 1.410 . S
C1353 C1361 1.503 . S
C1354 C1353 1.410 . S
C1354 C1355 1.392 . S
C1354 C1357 1.511 . S
C1355 C1351 1.376 . S
C1355 C1354 1.392 . S
C1355 H1367 0.929 . S
C1356 C1352 1.531 . S
C1356 H1368 0.960 . S
C1356 H1369 0.962 . S
C1356 H1370 0.960 . S
C1357 C1354 1.511 . S
C1357 H1371 0.961 . S
C1357 H1372 0.961 . S
C1357 H1373 0.961 . S
C1358 C1359 1.370 . S
C1358 C1360 1.363 . S
C1358 H1374 0.931 . S
C1359 C1358 1.370 . S
C1359 C1363 1.408 . S
C1360 C1358 1.363 . S
C1360 C1361 1.370 . S
C1360 C1364 1.524 . S
C1361 C1353 1.503 . S
C1361 C1360 1.370 . S
C1361 C1362 1.403 . S
C1362 C1361 1.403 . S
C1362 C1363 1.404 . S
C1362 C1365 1.539 . S
C1363 C1359 1.408 . S
C1363 C1362 1.404 . S
C1363 H1375 0.930 . S
C1364 C1360 1.524 . S
C1364 H1376 0.956 . S
C1364 H1377 0.961 . S
C1364 H1378 0.961 . S
C1365 C1362 1.539 . S
C1365 H1379 0.958 . S
C1365 H1380 0.961 . S
C1365 H1381 0.960 . S
H1366 C1350 0.931 . S
H1367 C1355 0.929 . S
H1368 C1356 0.960 . S
H1369 C1356 0.962 . S
H1370 C1356 0.960 . S
H1371 C1357 0.961 . S
H1372 C1357 0.961 . S
H1373 C1357 0.961 . S
H1374 C1358 0.931 . S
H1375 C1363 0.930 . S
H1376 C1364 0.956 . S
H1377 C1364 0.961 . S
H1378 C1364 0.961 . S
H1379 C1365 0.958 . S
H1380 C1365 0.961 . S
H1381 C1365 0.960 . S
C1382 C1383 1.391 . S
C1382 C1384 1.394 . S
C1382 H1398 0.931 . S
C1383 C1382 1.391 . S
C1383 C1387 1.376 . S
C1384 C1382 1.394 . S
C1384 C1385 1.369 . S
C1384 C1388 1.531 . S
C1385 C1384 1.369 . S
C1385 C1386 1.410 . S
C1385 C1393 1.503 . S
C1386 C1385 1.410 . S
C1386 C1387 1.392 . S
C1386 C1389 1.511 . S
C1387 C1383 1.376 . S
C1387 C1386 1.392 . S
C1387 H1399 0.929 . S
C1388 C1384 1.531 . S
C1388 H1400 0.960 . S
C1388 H1401 0.962 . S
C1388 H1402 0.960 . S
C1389 C1386 1.511 . S
C1389 H1403 0.961 . S
C1389 H1404 0.961 . S
C1389 H1405 0.961 . S
C1390 C1391 1.370 . S
C1390 C1392 1.363 . S
C1390 H1406 0.931 . S
C1391 C1390 1.370 . S
C1391 C1395 1.408 . S
C1392 C1390 1.363 . S
C1392 C1393 1.370 . S
C1392 C1396 1.524 . S
C1393 C1385 1.503 . S
C1393 C1392 1.370 . S
C1393 C1394 1.403 . S
C1394 C1393 1.403 . S
C1394 C1395 1.404 . S
C1394 C1397 1.539 . S
C1395 C1391 1.408 . S
C1395 C1394 1.404 . S
C1395 H1407 0.930 . S
C1396 C1392 1.524 . S
C1396 H1408 0.956 . S
C1396 H1409 0.961 . S
C1396 H1410 0.961 . S
C1397 C1394 1.539 . S
C1397 H1411 0.958 . S
C1397 H1412 0.961 . S
C1397 H1413 0.960 . S
H1398 C1382 0.931 . S
H1399 C1387 0.929 . S
H1400 C1388 0.960 . S
H1401 C1388 0.962 . S
H1402 C1388 0.960 . S
H1403 C1389 0.961 . S
H1404 C1389 0.961 . S
H1405 C1389 0.961 . S
H1406 C1390 0.931 . S
H1407 C1395 0.930 . S
H1408 C1396 0.956 . S
H1409 C1396 0.961 . S
H1410 C1396 0.961 . S
H1411 C1397 0.958 . S
H1412 C1397 0.961 . S
H1413 C1397 0.960 . S
C1414 C1415 1.391 . S
C1414 C1416 1.394 . S
C1414 H1430 0.931 . S
C1415 C1414 1.391 . S
C1415 C1419 1.376 . S
C1416 C1414 1.394 . S
C1416 C1417 1.369 . S
C1416 C1420 1.531 . S
C1417 C1416 1.369 . S
C1417 C1418 1.410 . S
C1417 C1425 1.503 . S
C1418 C1417 1.410 . S
C1418 C1419 1.392 . S
C1418 C1421 1.511 . S
C1419 C1415 1.376 . S
C1419 C1418 1.392 . S
C1419 H1431 0.929 . S
C1420 C1416 1.531 . S
C1420 H1432 0.960 . S
C1420 H1433 0.962 . S
C1420 H1434 0.960 . S
C1421 C1418 1.511 . S
C1421 H1435 0.961 . S
C1421 H1436 0.961 . S
C1421 H1437 0.961 . S
C1422 C1423 1.370 . S
C1422 C1424 1.363 . S
C1422 H1438 0.931 . S
C1423 C1422 1.370 . S
C1423 C1427 1.408 . S
C1424 C1422 1.363 . S
C1424 C1425 1.370 . S
C1424 C1428 1.524 . S
C1425 C1417 1.503 . S
C1425 C1424 1.370 . S
C1425 C1426 1.403 . S
C1426 C1425 1.403 . S
C1426 C1427 1.404 . S
C1426 C1429 1.539 . S
C1427 C1423 1.408 . S
C1427 C1426 1.404 . S
C1427 H1439 0.930 . S
C1428 C1424 1.524 . S
C1428 H1440 0.956 . S
C1428 H1441 0.961 . S
C1428 H1442 0.961 . S
C1429 C1426 1.539 . S
C1429 H1443 0.958 . S
C1429 H1444 0.961 . S
C1429 H1445 0.960 . S
H1430 C1414 0.931 . S
H1431 C1419 0.929 . S
H1432 C1420 0.960 . S
H1433 C1420 0.962 . S
H1434 C1420 0.960 . S
H1435 C1421 0.961 . S
H1436 C1421 0.961 . S
H1437 C1421 0.961 . S
H1438 C1422 0.931 . S
H1439 C1427 0.930 . S
H1440 C1428 0.956 . S
H1441 C1428 0.961 . S
H1442 C1428 0.961 . S
H1443 C1429 0.958 . S
H1444 C1429 0.961 . S
H1445 C1429 0.960 . S
C1446 C1447 1.391 . S
C1446 C1448 1.394 . S
C1446 H1462 0.931 . S
C1447 C1446 1.391 . S
C1447 C1451 1.376 . S
C1448 C1446 1.394 . S
C1448 C1449 1.369 . S
C1448 C1452 1.531 . S
C1449 C1448 1.369 . S
C1449 C1450 1.410 . S
C1449 C1457 1.503 . S
C1450 C1449 1.410 . S
C1450 C1451 1.392 . S
C1450 C1453 1.511 . S
C1451 C1447 1.376 . S
C1451 C1450 1.392 . S
C1451 H1463 0.929 . S
C1452 C1448 1.531 . S
C1452 H1464 0.960 . S
C1452 H1465 0.962 . S
C1452 H1466 0.960 . S
C1453 C1450 1.511 . S
C1453 H1467 0.961 . S
C1453 H1468 0.961 . S
C1453 H1469 0.961 . S
C1454 C1455 1.370 . S
C1454 C1456 1.363 . S
C1454 H1470 0.931 . S
C1455 C1454 1.370 . S
C1455 C1459 1.408 . S
C1456 C1454 1.363 . S
C1456 C1457 1.370 . S
C1456 C1460 1.524 . S
C1457 C1449 1.503 . S
C1457 C1456 1.370 . S
C1457 C1458 1.403 . S
C1458 C1457 1.403 . S
C1458 C1459 1.404 . S
C1458 C1461 1.539 . S
C1459 C1455 1.408 . S
C1459 C1458 1.404 . S
C1459 H1471 0.930 . S
C1460 C1456 1.524 . S
C1460 H1472 0.956 . S
C1460 H1473 0.961 . S
C1460 H1474 0.961 . S
C1461 C1458 1.539 . S
C1461 H1475 0.958 . S
C1461 H1476 0.961 . S
C1461 H1477 0.960 . S
H1462 C1446 0.931 . S
H1463 C1451 0.929 . S
H1464 C1452 0.960 . S
H1465 C1452 0.962 . S
H1466 C1452 0.960 . S
H1467 C1453 0.961 . S
H1468 C1453 0.961 . S
H1469 C1453 0.961 . S
H1470 C1454 0.931 . S
H1471 C1459 0.930 . S
H1472 C1460 0.956 . S
H1473 C1460 0.961 . S
H1474 C1460 0.961 . S
H1475 C1461 0.958 . S
H1476 C1461 0.961 . S
H1477 C1461 0.960 . S
C1478 C1479 1.391 . S
C1478 C1480 1.394 . S
C1478 H1494 0.931 . S
C1479 C1478 1.391 . S
C1479 C1483 1.376 . S
C1480 C1478 1.394 . S
C1480 C1481 1.369 . S
C1480 C1484 1.531 . S
C1481 C1480 1.369 . S
C1481 C1482 1.410 . S
C1481 C1489 1.503 . S
C1482 C1481 1.410 . S
C1482 C1483 1.392 . S
C1482 C1485 1.511 . S
C1483 C1479 1.376 . S
C1483 C1482 1.392 . S
C1483 H1495 0.929 . S
C1484 C1480 1.531 . S
C1484 H1496 0.960 . S
C1484 H1497 0.962 . S
C1484 H1498 0.960 . S
C1485 C1482 1.511 . S
C1485 H1499 0.961 . S
C1485 H1500 0.961 . S
C1485 H1501 0.961 . S
C1486 C1487 1.370 . S
C1486 C1488 1.363 . S
C1486 H1502 0.931 . S
C1487 C1486 1.370 . S
C1487 C1491 1.408 . S
C1488 C1486 1.363 . S
C1488 C1489 1.370 . S
C1488 C1492 1.524 . S
C1489 C1481 1.503 . S
C1489 C1488 1.370 . S
C1489 C1490 1.403 . S
C1490 C1489 1.403 . S
C1490 C1491 1.404 . S
C1490 C1493 1.539 . S
C1491 C1487 1.408 . S
C1491 C1490 1.404 . S
C1491 H1503 0.930 . S
C1492 C1488 1.524 . S
C1492 H1504 0.956 . S
C1492 H1505 0.961 . S
C1492 H1506 0.961 . S
C1493 C1490 1.539 . S
C1493 H1507 0.958 . S
C1493 H1508 0.961 . S
C1493 H1509 0.960 . S
H1494 C1478 0.931 . S
H1495 C1483 0.929 . S
H1496 C1484 0.960 . S
H1497 C1484 0.962 . S
H1498 C1484 0.960 . S
H1499 C1485 0.961 . S
H1500 C1485 0.961 . S
H1501 C1485 0.961 . S
H1502 C1486 0.931 . S
H1503 C1491 0.930 . S
H1504 C1492 0.956 . S
H1505 C1492 0.961 . S
H1506 C1492 0.961 . S
H1507 C1493 0.958 . S
H1508 C1493 0.961 . S
H1509 C1493 0.960 . S
C1510 C1511 1.391 . S
C1510 C1512 1.394 . S
C1510 H1526 0.931 . S
C1511 C1510 1.391 . S
C1511 C1515 1.376 . S
C1512 C1510 1.394 . S
C1512 C1513 1.369 . S
C1512 C1516 1.531 . S
C1513 C1512 1.369 . S
C1513 C1514 1.410 . S
C1513 C1521 1.503 . S
C1514 C1513 1.410 . S
C1514 C1515 1.392 . S
C1514 C1517 1.511 . S
C1515 C1511 1.376 . S
C1515 C1514 1.392 . S
C1515 H1527 0.929 . S
C1516 C1512 1.531 . S
C1516 H1528 0.960 . S
C1516 H1529 0.962 . S
C1516 H1530 0.960 . S
C1517 C1514 1.511 . S
C1517 H1531 0.961 . S
C1517 H1532 0.961 . S
C1517 H1533 0.961 . S
C1518 C1519 1.370 . S
C1518 C1520 1.363 . S
C1518 H1534 0.931 . S
C1519 C1518 1.370 . S
C1519 C1523 1.408 . S
C1520 C1518 1.363 . S
C1520 C1521 1.370 . S
C1520 C1524 1.524 . S
C1521 C1513 1.503 . S
C1521 C1520 1.370 . S
C1521 C1522 1.403 . S
C1522 C1521 1.403 . S
C1522 C1523 1.404 . S
C1522 C1525 1.539 . S
C1523 C1519 1.408 . S
C1523 C1522 1.404 . S
C1523 H1535 0.930 . S
C1524 C1520 1.524 . S
C1524 H1536 0.956 . S
C1524 H1537 0.961 . S
C1524 H1538 0.961 . S
C1525 C1522 1.539 . S
C1525 H1539 0.958 . S
C1525 H1540 0.961 . S
C1525 H1541 0.960 . S
H1526 C1510 0.931 . S
H1527 C1515 0.929 . S
H1528 C1516 0.960 . S
H1529 C1516 0.962 . S
H1530 C1516 0.960 . S
H1531 C1517 0.961 . S
H1532 C1517 0.961 . S
H1533 C1517 0.961 . S
H1534 C1518 0.931 . S
H1535 C1523 0.930 . S
H1536 C1524 0.956 . S
H1537 C1524 0.961 . S
H1538 C1524 0.961 . S
H1539 C1525 0.958 . S
H1540 C1525 0.961 . S
H1541 C1525 0.960 . S
C1542 C1543 1.391 . S
C1542 C1544 1.394 . S
C1542 H1558 0.931 . S
C1543 C1542 1.391 . S
C1543 C1547 1.376 . S
C1544 C1542 1.394 . S
C1544 C1545 1.369 . S
C1544 C1548 1.531 . S
C1545 C1544 1.369 . S
C1545 C1546 1.410 . S
C1545 C1553 1.503 . S
C1546 C1545 1.410 . S
C1546 C1547 1.392 . S
C1546 C1549 1.511 . S
C1547 C1543 1.376 . S
C1547 C1546 1.392 . S
C1547 H1559 0.929 . S
C1548 C1544 1.531 . S
C1548 H1560 0.960 . S
C1548 H1561 0.962 . S
C1548 H1562 0.960 . S
C1549 C1546 1.511 . S
C1549 H1563 0.961 . S
C1549 H1564 0.961 . S
C1549 H1565 0.961 . S
C1550 C1551 1.370 . S
C1550 C1552 1.363 . S
C1550 H1566 0.931 . S
C1551 C1550 1.370 . S
C1551 C1555 1.408 . S
C1552 C1550 1.363 . S
C1552 C1553 1.370 . S
C1552 C1556 1.524 . S
C1553 C1545 1.503 . S
C1553 C1552 1.370 . S
C1553 C1554 1.403 . S
C1554 C1553 1.403 . S
C1554 C1555 1.404 . S
C1554 C1557 1.539 . S
C1555 C1551 1.408 . S
C1555 C1554 1.404 . S
C1555 H1567 0.930 . S
C1556 C1552 1.524 . S
C1556 H1568 0.956 . S
C1556 H1569 0.961 . S
C1556 H1570 0.961 . S
C1557 C1554 1.539 . S
C1557 H1571 0.958 . S
C1557 H1572 0.961 . S
C1557 H1573 0.960 . S
H1558 C1542 0.931 . S
H1559 C1547 0.929 . S
H1560 C1548 0.960 . S
H1561 C1548 0.962 . S
H1562 C1548 0.960 . S
H1563 C1549 0.961 . S
H1564 C1549 0.961 . S
H1565 C1549 0.961 . S
H1566 C1550 0.931 . S
H1567 C1555 0.930 . S
H1568 C1556 0.956 . S
H1569 C1556 0.961 . S
H1570 C1556 0.961 . S
H1571 C1557 0.958 . S
H1572 C1557 0.961 . S
H1573 C1557 0.960 . S
C1574 C1575 1.391 . S
C1574 C1576 1.394 . S
C1574 H1590 0.931 . S
C1575 C1574 1.391 . S
C1575 C1579 1.376 . S
C1576 C1574 1.394 . S
C1576 C1577 1.369 . S
C1576 C1580 1.531 . S
C1577 C1576 1.369 . S
C1577 C1578 1.410 . S
C1577 C1585 1.503 . S
C1578 C1577 1.410 . S
C1578 C1579 1.392 . S
C1578 C1581 1.511 . S
C1579 C1575 1.376 . S
C1579 C1578 1.392 . S
C1579 H1591 0.929 . S
C1580 C1576 1.531 . S
C1580 H1592 0.960 . S
C1580 H1593 0.962 . S
C1580 H1594 0.960 . S
C1581 C1578 1.511 . S
C1581 H1595 0.961 . S
C1581 H1596 0.961 . S
C1581 H1597 0.961 . S
C1582 C1583 1.370 . S
C1582 C1584 1.363 . S
C1582 H1598 0.931 . S
C1583 C1582 1.370 . S
C1583 C1587 1.408 . S
C1584 C1582 1.363 . S
C1584 C1585 1.370 . S
C1584 C1588 1.524 . S
C1585 C1577 1.503 . S
C1585 C1584 1.370 . S
C1585 C1586 1.403 . S
C1586 C1585 1.403 . S
C1586 C1587 1.404 . S
C1586 C1589 1.539 . S
C1587 C1583 1.408 . S
C1587 C1586 1.404 . S
C1587 H1599 0.930 . S
C1588 C1584 1.524 . S
C1588 H1600 0.956 . S
C1588 H1601 0.961 . S
C1588 H1602 0.961 . S
C1589 C1586 1.539 . S
C1589 H1603 0.958 . S
C1589 H1604 0.961 . S
C1589 H1605 0.960 . S
H1590 C1574 0.931 . S
H1591 C1579 0.929 . S
H1592 C1580 0.960 . S
H1593 C1580 0.962 . S
H1594 C1580 0.960 . S
H1595 C1581 0.961 . S
H1596 C1581 0.961 . S
H1597 C1581 0.961 . S
H1598 C1582 0.931 . S
H1599 C1587 0.930 . S
H1600 C1588 0.956 . S
H1601 C1588 0.961 . S
H1602 C1588 0.961 . S
H1603 C1589 0.958 . S
H1604 C1589 0.961 . S
H1605 C1589 0.960 . S
C1606 C1607 1.391 . S
C1606 C1608 1.394 . S
C1606 H1622 0.931 . S
C1607 C1606 1.391 . S
C1607 C1611 1.376 . S
C1608 C1606 1.394 . S
C1608 C1609 1.369 . S
C1608 C1612 1.531 . S
C1609 C1608 1.369 . S
C1609 C1610 1.410 . S
C1609 C1617 1.503 . S
C1610 C1609 1.410 . S
C1610 C1611 1.392 . S
C1610 C1613 1.511 . S
C1611 C1607 1.376 . S
C1611 C1610 1.392 . S
C1611 H1623 0.929 . S
C1612 C1608 1.531 . S
C1612 H1624 0.960 . S
C1612 H1625 0.962 . S
C1612 H1626 0.960 . S
C1613 C1610 1.511 . S
C1613 H1627 0.961 . S
C1613 H1628 0.961 . S
C1613 H1629 0.961 . S
C1614 C1615 1.370 . S
C1614 C1616 1.363 . S
C1614 H1630 0.931 . S
C1615 C1614 1.370 . S
C1615 C1619 1.408 . S
C1616 C1614 1.363 . S
C1616 C1617 1.370 . S
C1616 C1620 1.524 . S
C1617 C1609 1.503 . S
C1617 C1616 1.370 . S
C1617 C1618 1.403 . S
C1618 C1617 1.403 . S
C1618 C1619 1.404 . S
C1618 C1621 1.539 . S
C1619 C1615 1.408 . S
C1619 C1618 1.404 . S
C1619 H1631 0.930 . S
C1620 C1616 1.524 . S
C1620 H1632 0.956 . S
C1620 H1633 0.961 . S
C1620 H1634 0.961 . S
C1621 C1618 1.539 . S
C1621 H1635 0.958 . S
C1621 H1636 0.961 . S
C1621 H1637 0.960 . S
H1622 C1606 0.931 . S
H1623 C1611 0.929 . S
H1624 C1612 0.960 . S
H1625 C1612 0.962 . S
H1626 C1612 0.960 . S
H1627 C1613 0.961 . S
H1628 C1613 0.961 . S
H1629 C1613 0.961 . S
H1630 C1614 0.931 . S
H1631 C1619 0.930 . S
H1632 C1620 0.956 . S
H1633 C1620 0.961 . S
H1634 C1620 0.961 . S
H1635 C1621 0.958 . S
H1636 C1621 0.961 . S
H1637 C1621 0.960 . S
C1638 C1639 1.391 . S
C1638 C1640 1.394 . S
C1638 H1654 0.931 . S
C1639 C1638 1.391 . S
C1639 C1643 1.376 . S
C1640 C1638 1.394 . S
C1640 C1641 1.369 . S
C1640 C1644 1.531 . S
C1641 C1640 1.369 . S
C1641 C1642 1.410 . S
C1641 C1649 1.503 . S
C1642 C1641 1.410 . S
C1642 C1643 1.392 . S
C1642 C1645 1.511 . S
C1643 C1639 1.376 . S
C1643 C1642 1.392 . S
C1643 H1655 0.929 . S
C1644 C1640 1.531 . S
C1644 H1656 0.960 . S
C1644 H1657 0.962 . S
C1644 H1658 0.960 . S
C1645 C1642 1.511 . S
C1645 H1659 0.961 . S
C1645 H1660 0.961 . S
C1645 H1661 0.961 . S
C1646 C1647 1.370 . S
C1646 C1648 1.363 . S
C1646 H1662 0.931 . S
C1647 C1646 1.370 . S
C1647 C1651 1.408 . S
C1648 C1646 1.363 . S
C1648 C1649 1.370 . S
C1648 C1652 1.524 . S
C1649 C1641 1.503 . S
C1649 C1648 1.370 . S
C1649 C1650 1.403 . S
C1650 C1649 1.403 . S
C1650 C1651 1.404 . S
C1650 C1653 1.539 . S
C1651 C1647 1.408 . S
C1651 C1650 1.404 . S
C1651 H1663 0.930 . S
C1652 C1648 1.524 . S
C1652 H1664 0.956 . S
C1652 H1665 0.961 . S
C1652 H1666 0.961 . S
C1653 C1650 1.539 . S
C1653 H1667 0.958 . S
C1653 H1668 0.961 . S
C1653 H1669 0.960 . S
H1654 C1638 0.931 . S
H1655 C1643 0.929 . S
H1656 C1644 0.960 . S
H1657 C1644 0.962 . S
H1658 C1644 0.960 . S
H1659 C1645 0.961 . S
H1660 C1645 0.961 . S
H1661 C1645 0.961 . S
H1662 C1646 0.931 . S
H1663 C1651 0.930 . S
H1664 C1652 0.956 . S
H1665 C1652 0.961 . S
H1666 C1652 0.961 . S
H1667 C1653 0.958 . S
H1668 C1653 0.961 . S
H1669 C1653 0.960 . S
C1670 C1671 1.391 . S
C1670 C1672 1.394 . S
C1670 H1686 0.931 . S
C1671 C1670 1.391 . S
C1671 C1675 1.376 . S
C1672 C1670 1.394 . S
C1672 C1673 1.369 . S
C1672 C1676 1.531 . S
C1673 C1672 1.369 . S
C1673 C1674 1.410 . S
C1673 C1681 1.503 . S
C1674 C1673 1.410 . S
C1674 C1675 1.392 . S
C1674 C1677 1.511 . S
C1675 C1671 1.376 . S
C1675 C1674 1.392 . S
C1675 H1687 0.929 . S
C1676 C1672 1.531 . S
C1676 H1688 0.960 . S
C1676 H1689 0.962 . S
C1676 H1690 0.960 . S
C1677 C1674 1.511 . S
C1677 H1691 0.961 . S
C1677 H1692 0.961 . S
C1677 H1693 0.961 . S
C1678 C1679 1.370 . S
C1678 C1680 1.363 . S
C1678 H1694 0.931 . S
C1679 C1678 1.370 . S
C1679 C1683 1.408 . S
C1680 C1678 1.363 . S
C1680 C1681 1.370 . S
C1680 C1684 1.524 . S
C1681 C1673 1.503 . S
C1681 C1680 1.370 . S
C1681 C1682 1.403 . S
C1682 C1681 1.403 . S
C1682 C1683 1.404 . S
C1682 C1685 1.539 . S
C1683 C1679 1.408 . S
C1683 C1682 1.404 . S
C1683 H1695 0.930 . S
C1684 C1680 1.524 . S
C1684 H1696 0.956 . S
C1684 H1697 0.961 . S
C1684 H1698 0.961 . S
C1685 C1682 1.539 . S
C1685 H1699 0.958 . S
C1685 H1700 0.961 . S
C1685 H1701 0.960 . S
H1686 C1670 0.931 . S
H1687 C1675 0.929 . S
H1688 C1676 0.960 . S
H1689 C1676 0.962 . S
H1690 C1676 0.960 . S
H1691 C1677 0.961 . S
H1692 C1677 0.961 . S
H1693 C1677 0.961 . S
H1694 C1678 0.931 . S
H1695 C1683 0.930 . S
H1696 C1684 0.956 . S
H1697 C1684 0.961 . S
H1698 C1684 0.961 . S
H1699 C1685 0.958 . S
H1700 C1685 0.961 . S
H1701 C1685 0.960 . S
C1702 C1703 1.391 . S
C1702 C1704 1.394 . S
C1702 H1718 0.931 . S
C1703 C1702 1.391 . S
C1703 C1707 1.376 . S
C1704 C1702 1.394 . S
C1704 C1705 1.369 . S
C1704 C1708 1.531 . S
C1705 C1704 1.369 . S
C1705 C1706 1.410 . S
C1705 C1713 1.503 . S
C1706 C1705 1.410 . S
C1706 C1707 1.392 . S
C1706 C1709 1.511 . S
C1707 C1703 1.376 . S
C1707 C1706 1.392 . S
C1707 H1719 0.929 . S
C1708 C1704 1.531 . S
C1708 H1720 0.960 . S
C1708 H1721 0.962 . S
C1708 H1722 0.960 . S
C1709 C1706 1.511 . S
C1709 H1723 0.961 . S
C1709 H1724 0.961 . S
C1709 H1725 0.961 . S
C1710 C1711 1.370 . S
C1710 C1712 1.363 . S
C1710 H1726 0.931 . S
C1711 C1710 1.370 . S
C1711 C1715 1.408 . S
C1712 C1710 1.363 . S
C1712 C1713 1.370 . S
C1712 C1716 1.524 . S
C1713 C1705 1.503 . S
C1713 C1712 1.370 . S
C1713 C1714 1.403 . S
C1714 C1713 1.403 . S
C1714 C1715 1.404 . S
C1714 C1717 1.539 . S
C1715 C1711 1.408 . S
C1715 C1714 1.404 . S
C1715 H1727 0.930 . S
C1716 C1712 1.524 . S
C1716 H1728 0.956 . S
C1716 H1729 0.961 . S
C1716 H1730 0.961 . S
C1717 C1714 1.539 . S
C1717 H1731 0.958 . S
C1717 H1732 0.961 . S
C1717 H1733 0.960 . S
H1718 C1702 0.931 . S
H1719 C1707 0.929 . S
H1720 C1708 0.960 . S
H1721 C1708 0.962 . S
H1722 C1708 0.960 . S
H1723 C1709 0.961 . S
H1724 C1709 0.961 . S
H1725 C1709 0.961 . S
H1726 C1710 0.931 . S
H1727 C1715 0.930 . S
H1728 C1716 0.956 . S
H1729 C1716 0.961 . S
H1730 C1716 0.961 . S
H1731 C1717 0.958 . S
H1732 C1717 0.961 . S
H1733 C1717 0.960 . S
C1734 C1735 1.391 . S
C1734 C1736 1.394 . S
C1734 H1750 0.931 . S
C1735 C1734 1.391 . S
C1735 C1739 1.376 . S
C1736 C1734 1.394 . S
C1736 C1737 1.369 . S
C1736 C1740 1.531 . S
C1737 C1736 1.369 . S
C1737 C1738 1.410 . S
C1737 C1745 1.503 . S
C1738 C1737 1.410 . S
C1738 C1739 1.392 . S
C1738 C1741 1.511 . S
C1739 C1735 1.376 . S
C1739 C1738 1.392 . S
C1739 H1751 0.929 . S
C1740 C1736 1.531 . S
C1740 H1752 0.960 . S
C1740 H1753 0.962 . S
C1740 H1754 0.960 . S
C1741 C1738 1.511 . S
C1741 H1755 0.961 . S
C1741 H1756 0.961 . S
C1741 H1757 0.961 . S
C1742 C1743 1.370 . S
C1742 C1744 1.363 . S
C1742 H1758 0.931 . S
C1743 C1742 1.370 . S
C1743 C1747 1.408 . S
C1744 C1742 1.363 . S
C1744 C1745 1.370 . S
C1744 C1748 1.524 . S
C1745 C1737 1.503 . S
C1745 C1744 1.370 . S
C1745 C1746 1.403 . S
C1746 C1745 1.403 . S
C1746 C1747 1.404 . S
C1746 C1749 1.539 . S
C1747 C1743 1.408 . S
C1747 C1746 1.404 . S
C1747 H1759 0.930 . S
C1748 C1744 1.524 . S
C1748 H1760 0.956 . S
C1748 H1761 0.961 . S
C1748 H1762 0.961 . S
C1749 C1746 1.539 . S
C1749 H1763 0.958 . S
C1749 H1764 0.961 . S
C1749 H1765 0.960 . S
H1750 C1734 0.931 . S
H1751 C1739 0.929 . S
H1752 C1740 0.960 . S
H1753 C1740 0.962 . S
H1754 C1740 0.960 . S
H1755 C1741 0.961 . S
H1756 C1741 0.961 . S
H1757 C1741 0.961 . S
H1758 C1742 0.931 . S
H1759 C1747 0.930 . S
H1760 C1748 0.956 . S
H1761 C1748 0.961 . S
H1762 C1748 0.961 . S
H1763 C1749 0.958 . S
H1764 C1749 0.961 . S
H1765 C1749 0.960 . S
C1766 C1767 1.391 . S
C1766 C1768 1.394 . S
C1766 H1782 0.931 . S
C1767 C1766 1.391 . S
C1767 C1771 1.376 . S
C1768 C1766 1.394 . S
C1768 C1769 1.369 . S
C1768 C1772 1.531 . S
C1769 C1768 1.369 . S
C1769 C1770 1.410 . S
C1769 C1777 1.503 . S
C1770 C1769 1.410 . S
C1770 C1771 1.392 . S
C1770 C1773 1.511 . S
C1771 C1767 1.376 . S
C1771 C1770 1.392 . S
C1771 H1783 0.929 . S
C1772 C1768 1.531 . S
C1772 H1784 0.960 . S
C1772 H1785 0.962 . S
C1772 H1786 0.960 . S
C1773 C1770 1.511 . S
C1773 H1787 0.961 . S
C1773 H1788 0.961 . S
C1773 H1789 0.961 . S
C1774 C1775 1.370 . S
C1774 C1776 1.363 . S
C1774 H1790 0.931 . S
C1775 C1774 1.370 . S
C1775 C1779 1.408 . S
C1776 C1774 1.363 . S
C1776 C1777 1.370 . S
C1776 C1780 1.524 . S
C1777 C1769 1.503 . S
C1777 C1776 1.370 . S
C1777 C1778 1.403 . S
C1778 C1777 1.403 . S
C1778 C1779 1.404 . S
C1778 C1781 1.539 . S
C1779 C1775 1.408 . S
C1779 C1778 1.404 . S
C1779 H1791 0.930 . S
C1780 C1776 1.524 . S
C1780 H1792 0.956 . S
C1780 H1793 0.961 . S
C1780 H1794 0.961 . S
C1781 C1778 1.539 . S
C1781 H1795 0.958 . S
C1781 H1796 0.961 . S
C1781 H1797 0.960 . S
H1782 C1766 0.931 . S
H1783 C1771 0.929 . S
H1784 C1772 0.960 . S
H1785 C1772 0.962 . S
H1786 C1772 0.960 . S
H1787 C1773 0.961 . S
H1788 C1773 0.961 . S
H1789 C1773 0.961 . S
H1790 C1774 0.931 . S
H1791 C1779 0.930 . S
H1792 C1780 0.956 . S
H1793 C1780 0.961 . S
H1794 C1780 0.961 . S
H1795 C1781 0.958 . S
H1796 C1781 0.961 . S
H1797 C1781 0.960 . S
C1798 C1799 1.391 . S
C1798 C1800 1.394 . S
C1798 H1814 0.931 . S
C1799 C1798 1.391 . S
C1799 C1803 1.376 . S
C1800 C1798 1.394 . S
C1800 C1801 1.369 . S
C1800 C1804 1.531 . S
C1801 C1800 1.369 . S
C1801 C1802 1.410 . S
C1801 C1809 1.503 . S
C1802 C1801 1.410 . S
C1802 C1803 1.392 . S
C1802 C1805 1.511 . S
C1803 C1799 1.376 . S
C1803 C1802 1.392 . S
C1803 H1815 0.929 . S
C1804 C1800 1.531 . S
C1804 H1816 0.960 . S
C1804 H1817 0.962 . S
C1804 H1818 0.960 . S
C1805 C1802 1.511 . S
C1805 H1819 0.961 . S
C1805 H1820 0.961 . S
C1805 H1821 0.961 . S
C1806 C1807 1.370 . S
C1806 C1808 1.363 . S
C1806 H1822 0.931 . S
C1807 C1806 1.370 . S
C1807 C1811 1.408 . S
C1808 C1806 1.363 . S
C1808 C1809 1.370 . S
C1808 C1812 1.524 . S
C1809 C1801 1.503 . S
C1809 C1808 1.370 . S
C1809 C1810 1.403 . S
C1810 C1809 1.403 . S
C1810 C1811 1.404 . S
C1810 C1813 1.539 . S
C1811 C1807 1.408 . S
C1811 C1810 1.404 . S
C1811 H1823 0.930 . S
C1812 C1808 1.524 . S
C1812 H1824 0.956 . S
C1812 H1825 0.961 . S
C1812 H1826 0.961 . S
C1813 C1810 1.539 . S
C1813 H1827 0.958 . S
C1813 H1828 0.961 . S
C1813 H1829 0.960 . S
H1814 C1798 0.931 . S
H1815 C1803 0.929 . S
H1816 C1804 0.960 . S
H1817 C1804 0.962 . S
H1818 C1804 0.960 . S
H1819 C1805 0.961 . S
H1820 C1805 0.961 . S
H1821 C1805 0.961 . S
H1822 C1806 0.931 . S
H1823 C1811 0.930 . S
H1824 C1812 0.956 . S
H1825 C1812 0.961 . S
H1826 C1812 0.961 . S
H1827 C1813 0.958 . S
H1828 C1813 0.961 . S
H1829 C1813 0.960 . S
C1830 C1831 1.391 . S
C1830 C1832 1.394 . S
C1830 H1846 0.931 . S
C1831 C1830 1.391 . S
C1831 C1835 1.376 . S
C1832 C1830 1.394 . S
C1832 C1833 1.369 . S
C1832 C1836 1.531 . S
C1833 C1832 1.369 . S
C1833 C1834 1.410 . S
C1833 C1841 1.503 . S
C1834 C1833 1.410 . S
C1834 C1835 1.392 . S
C1834 C1837 1.511 . S
C1835 C1831 1.376 . S
C1835 C1834 1.392 . S
C1835 H1847 0.929 . S
C1836 C1832 1.531 . S
C1836 H1848 0.960 . S
C1836 H1849 0.962 . S
C1836 H1850 0.960 . S
C1837 C1834 1.511 . S
C1837 H1851 0.961 . S
C1837 H1852 0.961 . S
C1837 H1853 0.961 . S
C1838 C1839 1.370 . S
C1838 C1840 1.363 . S
C1838 H1854 0.931 . S
C1839 C1838 1.370 . S
C1839 C1843 1.408 . S
C1840 C1838 1.363 . S
C1840 C1841 1.370 . S
C1840 C1844 1.524 . S
C1841 C1833 1.503 . S
C1841 C1840 1.370 . S
C1841 C1842 1.403 . S
C1842 C1841 1.403 . S
C1842 C1843 1.404 . S
C1842 C1845 1.539 . S
C1843 C1839 1.408 . S
C1843 C1842 1.404 . S
C1843 H1855 0.930 . S
C1844 C1840 1.524 . S
C1844 H1856 0.956 . S
C1844 H1857 0.961 . S
C1844 H1858 0.961 . S
C1845 C1842 1.539 . S
C1845 H1859 0.958 . S
C1845 H1860 0.961 . S
C1845 H1861 0.960 . S
H1846 C1830 0.931 . S
H1847 C1835 0.929 . S
H1848 C1836 0.960 . S
H1849 C1836 0.962 . S
H1850 C1836 0.960 . S
H1851 C1837 0.961 . S
H1852 C1837 0.961 . S
H1853 C1837 0.961 . S
H1854 C1838 0.931 . S
H1855 C1843 0.930 . S
H1856 C1844 0.956 . S
H1857 C1844 0.961 . S
H1858 C1844 0.961 . S
H1859 C1845 0.958 . S
H1860 C1845 0.961 . S
H1861 C1845 0.960 . S
C1862 C1863 1.391 . S
C1862 C1864 1.394 . S
C1862 H1878 0.931 . S
C1863 C1862 1.391 . S
C1863 C1867 1.376 . S
C1864 C1862 1.394 . S
C1864 C1865 1.369 . S
C1864 C1868 1.531 . S
C1865 C1864 1.369 . S
C1865 C1866 1.410 . S
C1865 C1873 1.503 . S
C1866 C1865 1.410 . S
C1866 C1867 1.392 . S
C1866 C1869 1.511 . S
C1867 C1863 1.376 . S
C1867 C1866 1.392 . S
C1867 H1879 0.929 . S
C1868 C1864 1.531 . S
C1868 H1880 0.960 . S
C1868 H1881 0.962 . S
C1868 H1882 0.960 . S
C1869 C1866 1.511 . S
C1869 H1883 0.961 . S
C1869 H1884 0.961 . S
C1869 H1885 0.961 . S
C1870 C1871 1.370 . S
C1870 C1872 1.363 . S
C1870 H1886 0.931 . S
C1871 C1870 1.370 . S
C1871 C1875 1.408 . S
C1872 C1870 1.363 . S
C1872 C1873 1.370 . S
C1872 C1876 1.524 . S
C1873 C1865 1.503 . S
C1873 C1872 1.370 . S
C1873 C1874 1.403 . S
C1874 C1873 1.403 . S
C1874 C1875 1.404 . S
C1874 C1877 1.539 . S
C1875 C1871 1.408 . S
C1875 C1874 1.404 . S
C1875 H1887 0.930 . S
C1876 C1872 1.524 . S
C1876 H1888 0.956 . S
C1876 H1889 0.961 . S
C1876 H1890 0.961 . S
C1877 C1874 1.539 . S
C1877 H1891 0.958 . S
C1877 H1892 0.961 . S
C1877 H1893 0.960 . S
H1878 C1862 0.931 . S
H1879 C1867 0.929 . S
H1880 C1868 0.960 . S
H1881 C1868 0.962 . S
H1882 C1868 0.960 . S
H1883 C1869 0.961 . S
H1884 C1869 0.961 . S
H1885 C1869 0.961 . S
H1886 C1870 0.931 . S
H1887 C1875 0.930 . S
H1888 C1876 0.956 . S
H1889 C1876 0.961 . S
H1890 C1876 0.961 . S
H1891 C1877 0.958 . S
H1892 C1877 0.961 . S
H1893 C1877 0.960 . S
C367 C187 1.331 . S
C359 C9 1.432 . S
C399 C188 1.518 . S
C391 C22 1.556 . S
C431 C182 1.062 . S
C423 C49 1.072 . S
C455 C61 0.961 . S
C463 C181 1.005 . S
C487 C81 1.581 . S
C495 C184 1.536 . S
C527 C186 1.053 . S
C519 C108 1.050 . S
C551 C122 1.028 . S
C559 C185 1.000 . S
C583 C148 1.437 . S
C591 C183 1.344 . S
C623 C218 2.225 . S
C615 C18 2.186 . S
C647 C39 1.503 . S
C655 C249 1.501 . S
C687 C217 2.077 . S
C679 C58 2.123 . S
C719 C252 1.004 . S
C711 C69 1.002 . S
C743 C89 1.219 . S
C751 C215 1.259 . S
C783 C247 1.321 . S
C775 C102 1.340 . S
C807 C139 1.296 . S
C815 C220 1.274 . S
C839 C142 1.242 . S
C847 C254 1.219 . S
C871 C1 1.251 . S
C879 C250 1.211 . S
C903 C98 1.472 . S
C911 C253 1.486 . S
C943 C221 2.085 . S
C935 C119 2.093 . S
C975 C248 1.014 . S
C967 C128 1.050 . S
C999 C159 2.149 . S
C1007 C214 2.225 . S
C1031 C41 1.334 . S
C1039 C251 1.333 . S
C1071 C216 1.265 . S
C1063 C78 1.264 . S
C1095 C28 1.225 . S
C1103 C219 1.242 . S
C1127 C149 1.439 . S
C1135 C286 1.352 . S
C1159 C82 1.198 . S
C1167 C287 1.156 . S
C1199 C281 1.121 . S
C1191 C109 1.144 . S
C1231 C280 1.422 . S
C1223 C121 1.393 . S
C1255 C21 1.206 . S
C1263 C283 1.188 . S
C1295 C285 1.098 . S
C1287 C48 1.103 . S
C1319 C62 1.416 . S
C1327 C284 1.410 . S
C1351 C8 1.418 . S
C1359 C282 1.331 . S
C1383 C158 2.326 . S
C1391 C320 2.258 . S
C1423 C352 1.269 . S
C1415 C99 1.215 . S
C1447 C118 2.019 . S
C1455 C313 2.023 . S
C1479 C129 1.280 . S
C1487 C347 1.296 . S
C1519 C318 1.026 . S
C1511 C29 0.987 . S
C1543 C42 1.514 . S
C1551 C349 1.452 . S
C1583 C315 1.528 . S
C1575 C79 1.481 . S
C1615 C350 1.247 . S
C1607 C2 1.257 . S
C1647 C346 1.254 . S
C1639 C141 1.221 . S
C1671 C38 1.280 . S
C1679 C348 1.286 . S
C1703 C59 1.996 . S
C1711 C317 2.028 . S
C1743 C351 1.287 . S
C1735 C68 1.301 . S
C1767 C19 2.329 . S
C1775 C316 2.258 . S
C1799 C101 1.499 . S
C1807 C353 1.469 . S
C1839 C319 1.529 . S
C1831 C138 1.482 . S
C1871 C314 1.045 . S
C1863 C88 1.018 . S
