# Generated by pormake.
# Topology nia, (6,6)-cn, num edge types: 1
# Building blocks:
#     Node 0, Type 0, BuildingBlock: FUNLAD_clean_sbu_0, # of connection points: 6
#     Node 1, Type 0, BuildingBlock: FUNLAD_clean_sbu_0, # of connection points: 6
#     Node 2, Type 1, BuildingBlock: MIDCAF_clean_sbu_0, # of connection points: 6
#     Node 3, Type 1, BuildingBlock: MIDCAF_clean_sbu_0, # of connection points: 6
#     Edge 4, Type (0, 1), BuildingBlock: ZUJKAS_clean_linker_0, # of connection points: 2
#     Edge 5, Type (0, 1), BuildingBlock: ZUJKAS_clean_linker_0, # of connection points: 2
#     Edge 6, Type (0, 1), BuildingBlock: ZUJKAS_clean_linker_0, # of connection points: 2
#     Edge 7, Type (0, 1), BuildingBlock: ZUJKAS_clean_linker_0, # of connection points: 2
#     Edge 8, Type (0, 1), BuildingBlock: ZUJKAS_clean_linker_0, # of connection points: 2
#     Edge 9, Type (0, 1), BuildingBlock: ZUJKAS_clean_linker_0, # of connection points: 2
#     Edge 10, Type (0, 1), BuildingBlock: ZUJKAS_clean_linker_0, # of connection points: 2
#     Edge 11, Type (0, 1), BuildingBlock: ZUJKAS_clean_linker_0, # of connection points: 2
#     Edge 12, Type (0, 1), BuildingBlock: ZUJKAS_clean_linker_0, # of connection points: 2
#     Edge 13, Type (0, 1), BuildingBlock: ZUJKAS_clean_linker_0, # of connection points: 2
#     Edge 14, Type (0, 1), BuildingBlock: ZUJKAS_clean_linker_0, # of connection points: 2
#     Edge 15, Type (0, 1), BuildingBlock: ZUJKAS_clean_linker_0, # of connection points: 2
# Relax obj value: 0.135
# Max RMSD: 0.241
# Mean RMSD: 0.138
data_MOF--net-nia--node1-FUNLAD_clean_sbu_0--node2-MIDCAF_clean_sbu_0--edge1-ZUJKAS_clean_linker_0
_symmetry_space_group_name_H-M    P1
_symmetry_Int_Tables_number       1
_symmetry_cell_setting            triclinic
loop_
_symmetry_equiv_pos_as_xyz
'x, y, z'
_cell_length_a     30.359843
_cell_length_b     30.38491
_cell_length_c     45.509113
_cell_angle_alpha  95.524471
_cell_angle_beta   94.971538
_cell_angle_gamma 118.07744
loop_
_atom_site_label
_atom_site_type_symbol
_atom_site_fract_x
_atom_site_fract_y
_atom_site_fract_z
_atom_type_partial_charge
C0 C 0.04763 0.98043 0.06614 0.0
N1 N 0.08878 0.05065 0.9903 0.0
C2 C 0.1383 0.0735 1.00258 0.0
C3 C 0.17591 0.08847 0.98424 0.0
C4 C 0.16224 0.08035 0.95311 0.0
C5 C 0.11097 0.05663 0.94112 0.0
C6 C 0.07472 0.04169 0.96017 0.0
Zn7 Zn 0.03249 0.02817 0.01613 0.0
C8 C 0.95248 0.92077 0.99149 0.0
N9 N 0.90922 0.97761 0.06552 0.0
C10 C 0.92571 -0.00639 0.09534 0.0
C11 C 0.8591 0.9494 0.05477 0.0
C12 C 0.82344 0.93636 0.07445 0.0
C13 C 0.83979 0.9531 0.10529 0.0
C14 C 0.89161 0.982 0.1156 0.0
Zn15 Zn 0.96457 -0.00092 0.03896 0.0
O16 O 0.07019 0.00155 0.04509 0.0
C17 C 0.04457 0.10681 0.06331 0.0
O18 O 0.00404 0.97512 0.06826 0.0
H19 H 0.84682 0.93706 0.031 0.0
H20 H 0.14862 0.08026 0.02657 0.0
H21 H 0.96564 0.01546 0.10361 0.0
O22 O 0.0692 0.09954 0.04396 0.0
O23 O 0.00072 0.07181 0.06498 0.0
H24 H 0.03519 0.02287 0.95077 0.0
O25 O 0.92563 0.02323 0.0091 0.0
O26 O -0.00607 0.05434 0.9878 0.0
O27 O 0.92922 0.92654 0.01222 0.0
O28 O -0.00488 0.95686 0.98868 0.0
C29 C 0.94927 0.04665 0.98897 0.0
H30 H 0.21522 0.10698 0.99427 0.0
H31 H 0.099 0.04922 0.91722 0.0
H32 H 0.78363 0.91397 0.06569 0.0
H33 H 0.9058 -0.00519 0.13922 0.0
C34 C 0.04439 0.97237 0.48679 0.0
N35 N 0.97035 0.92369 0.5607 0.0
C36 C 0.94607 0.87434 0.54783 0.0
C37 C 0.92957 0.83616 0.56564 0.0
C38 C 0.93788 0.8491 0.59688 0.0
C39 C 0.96388 0.90028 0.60947 0.0
C40 C 0.97993 0.93705 0.59093 0.0
Zn41 Zn -0.00845 0.98092 0.53583 0.0
C42 C 0.09558 0.0651 0.56254 0.0
N43 N 0.03822 0.10659 0.4888 0.0
C44 C 0.03065 0.09213 0.45874 0.0
C45 C 0.05887 0.15611 0.50081 0.0
C46 C 0.07299 0.19326 0.48225 0.0
C47 C 0.06617 0.17926 0.45108 0.0
C48 C 0.04476 0.12781 0.43952 0.0
Zn49 Zn 0.01727 0.04971 0.51411 0.0
O50 O 0.02133 0.94665 0.50632 0.0
C51 C 0.91361 0.96506 0.48715 0.0
O52 O 0.04858 0.01583 0.48623 0.0
H53 H 0.06438 0.16679 0.52476 0.0
H54 H 0.93877 0.8646 0.52377 0.0
H55 H 0.01388 0.05263 0.44946 0.0
O56 O 0.92086 0.94256 0.50765 0.0
O57 O 0.94739 0.00943 0.48526 0.0
H58 H -0.00051 0.97646 0.60078 0.0
O59 O 0.98574 0.08295 0.54273 0.0
O60 O 0.96204 0.01591 0.56476 0.0
O61 O 0.0871 0.089 0.54331 0.0
O62 O 0.06249 0.01997 0.5635 0.0
C63 C 0.96455 0.05853 0.56318 0.0
H64 H 0.90929 0.79704 0.55507 0.0
H65 H 0.97164 0.91182 0.63345 0.0
H66 H 0.08871 0.23239 0.49222 0.0
H67 H 0.03963 0.11498 0.41583 0.0
Zn68 Zn 0.32434 0.69221 0.21939 0.0
Zn69 Zn 0.32137 0.71542 0.33452 0.0
Zn70 Zn 0.32124 0.70248 0.27651 0.0
C71 C 0.42119 0.75332 0.32773 0.0
C72 C 0.26562 0.61149 0.31385 0.0
O73 O 0.28456 0.74297 0.25598 0.0
O74 O 0.29452 0.73472 0.20853 0.0
C75 C 0.42335 0.74096 0.24594 0.0
O76 O 0.40039 0.73964 0.30011 0.0
O77 O 0.39445 0.7471 0.34828 0.0
O78 O 0.27819 0.64335 0.33717 0.0
O79 O 0.27923 0.62622 0.28893 0.0
O80 O 0.39732 0.72096 0.22051 0.0
O81 O 0.4017 0.73867 0.26935 0.0
O82 O 0.28044 0.62044 0.25816 0.0
O83 O 0.28449 0.61856 0.20972 0.0
C84 C 0.27029 0.59568 0.23162 0.0
O85 O 0.28164 0.74676 0.28662 0.0
O86 O 0.28979 0.75871 0.33604 0.0
C87 C 0.2793 0.75222 0.2292 0.0
C88 C 0.27426 0.76543 0.31118 0.0
Zn89 Zn 0.69016 0.3336 0.83035 0.0
Zn90 Zn 0.68062 0.32148 0.72086 0.0
Zn91 Zn 0.6872 0.32807 0.77593 0.0
C92 C 0.71638 0.4217 0.74135 0.0
C93 C 0.5847 0.26269 0.72837 0.0
O94 O 0.72399 0.28408 0.79077 0.0
O95 O 0.70071 0.27517 0.8354 0.0
C96 C 0.753 0.42958 0.82395 0.0
O97 O 0.72313 0.40604 0.76578 0.0
O98 O 0.69201 0.39053 0.71793 0.0
O99 O 0.61111 0.26541 0.70801 0.0
O100 O 0.60635 0.28661 0.75492 0.0
O101 O 0.7474 0.40202 0.84387 0.0
O102 O 0.73034 0.40918 0.79703 0.0
O103 O 0.60864 0.29346 0.78598 0.0
O104 O 0.62212 0.32484 0.83369 0.0
C105 C 0.59179 0.3005 0.81002 0.0
O106 O 0.73027 0.28958 0.76117 0.0
O107 O 0.73744 0.30838 0.71554 0.0
C108 C 0.72051 0.264 0.81473 0.0
C109 C 0.74916 0.29032 0.7368 0.0
H110 H 0.0085 0.93496 0.11353 0.0
H111 H 0.04681 0.90433 0.15002 0.0
H112 H 0.17816 0.95362 0.10557 0.0
H113 H 0.14035 0.98499 0.06902 0.0
H114 H 0.07503 0.83112 0.1385 0.0
H115 H 0.23957 0.01162 0.19328 0.0
H116 H 0.18642 0.00883 0.17033 0.0
H117 H 0.2349 0.0025 0.15333 0.0
C118 C 0.0457 0.93961 0.11155 0.0
C119 C 0.07141 0.96242 0.08831 0.0
C120 C 0.06753 0.92214 0.1325 0.0
C121 C 0.11561 0.92743 0.1308 0.0
C122 C 0.14146 0.95021 0.10768 0.0
H123 H 0.30808 0.8186 0.19033 0.0
H124 H 0.266 0.86438 0.17244 0.0
C125 C 0.11964 0.96772 0.08666 0.0
C126 C 0.13738 0.90624 0.15203 0.0
H127 H 0.24262 0.93596 0.20095 0.0
C128 C 0.11126 0.85408 0.15258 0.0
C129 C 0.18439 0.93645 0.17053 0.0
C130 C 0.21275 -0.00696 0.17213 0.0
C131 C 0.13243 0.83077 0.1697 0.0
C132 C 0.18062 0.86067 0.18708 0.0
C133 C 0.20562 0.91318 0.18765 0.0
C134 C 0.20859 0.83741 0.20121 0.0
C135 C 0.10444 0.77404 0.16765 0.0
C136 C 0.19098 0.80802 0.22394 0.0
C137 C 0.215 0.78145 0.23413 0.0
C138 C 0.25697 0.78436 0.22185 0.0
C139 C 0.27563 0.81555 0.2001 0.0
C140 C 0.25182 0.84194 0.18997 0.0
H141 H 0.07119 0.75595 0.14973 0.0
H142 H 0.12987 0.75803 0.1633 0.0
H143 H 0.09094 0.76405 0.18919 0.0
H144 H 0.15786 0.80438 0.23307 0.0
H145 H 0.19926 0.75669 0.25034 0.0
H146 H 0.1287 0.01974 0.60089 0.0
H147 H 0.20791 0.05756 0.63505 0.0
H148 H 0.24929 0.20213 0.60733 0.0
H149 H 0.1703 0.16406 0.57225 0.0
H150 H 0.32418 0.18088 0.60695 0.0
H151 H 0.25342 0.14617 0.71483 0.0
H152 H 0.22629 0.08889 0.68861 0.0
H153 H 0.21322 0.13907 0.68107 0.0
C154 C 0.1544 0.05971 0.60217 0.0
C155 C 0.14321 0.08891 0.5838 0.0
C156 C 0.1995 0.0814 0.62201 0.0
C157 C 0.23406 0.13294 0.62432 0.0
C158 C 0.22291 0.16235 0.60614 0.0
H159 H 0.51799 0.28993 0.7494 0.0
H160 H 0.42994 0.25815 0.72698 0.0
C161 C 0.17787 0.14054 0.58604 0.0
C162 C 0.28362 0.15482 0.64373 0.0
H163 H 0.33943 0.16305 0.7141 0.0
C164 C 0.32744 0.17757 0.63046 0.0
C165 C 0.28803 0.15117 0.67455 0.0
C166 C 0.2427 0.13049 0.69065 0.0
C167 C 0.37534 0.19477 0.64678 0.0
C168 C 0.37947 0.18783 0.677 0.0
C169 C 0.33599 0.1673 0.69075 0.0
C170 C 0.42884 0.20097 0.69419 0.0
C171 C 0.42113 0.22009 0.63139 0.0
C172 C 0.45617 0.17742 0.68426 0.0
C173 C 0.50616 0.19543 0.69696 0.0
C174 C 0.52938 0.23671 0.72019 0.0
C175 C 0.50071 0.25757 0.73183 0.0
C176 C 0.45061 0.23973 0.71889 0.0
H177 H 0.41293 0.23533 0.61164 0.0
H178 H 0.45328 0.25144 0.64688 0.0
H179 H 0.43283 0.192 0.62352 0.0
H180 H 0.4396 0.14671 0.66564 0.0
H181 H 0.52743 0.17858 0.68769 0.0
H182 H -0.0015 0.13434 0.10461 0.0
H183 H 0.03345 0.21388 0.13879 0.0
H184 H 0.17475 0.26694 0.10437 0.0
H185 H 0.13981 0.18771 0.0696 0.0
H186 H 0.11711 0.2612 0.18369 0.0
H187 H 0.13734 0.37764 0.09388 0.0
H188 H 0.10095 0.30962 0.08707 0.0
H189 H 0.16863 0.3404 0.08967 0.0
C190 C 0.03701 0.16295 0.1042 0.0
C191 C 0.06625 0.15494 0.08412 0.0
C192 C 0.05694 0.20828 0.12387 0.0
C193 C 0.10638 0.24648 0.12383 0.0
C194 C 0.13612 0.23822 0.10433 0.0
H195 H 0.31207 0.54144 0.21033 0.0
H196 H 0.26854 0.45184 0.18926 0.0
C197 C 0.11616 0.19294 0.08452 0.0
C198 C 0.12654 0.29542 0.1437 0.0
H199 H 0.17763 0.42198 0.14278 0.0
C200 C 0.12996 0.29638 0.17481 0.0
C201 C 0.14248 0.34109 0.13199 0.0
C202 C 0.13674 0.34226 0.09883 0.0
C203 C 0.15114 0.34228 0.19452 0.0
C204 C 0.16903 0.38785 0.18269 0.0
C205 C 0.16406 0.38673 0.15167 0.0
C206 C 0.19643 0.43778 0.20169 0.0
C207 C 0.15595 0.3423 0.22777 0.0
C208 C 0.17051 0.45884 0.21663 0.0
C209 C 0.19554 0.51021 0.22889 0.0
C210 C 0.24642 0.54049 0.22605 0.0
C211 C 0.27284 0.51848 0.21283 0.0
C212 C 0.24809 0.46747 0.20084 0.0
H213 H 0.14237 0.3037 0.23347 0.0
H214 H 0.19601 0.36642 0.23814 0.0
H215 H 0.13376 0.35874 0.23768 0.0
H216 H 0.13043 0.43645 0.21716 0.0
H217 H 0.17454 0.52685 0.23876 0.0
H218 H 0.91486 0.01361 0.60811 0.0
H219 H 0.88372 0.04896 0.64641 0.0
H220 H 0.93774 0.1864 0.60827 0.0
H221 H 0.9694 0.15147 0.56979 0.0
H222 H 0.96329 0.19801 0.67358 0.0
H223 H 0.75891 0.07145 0.63127 0.0
H224 H 0.79752 0.04182 0.63685 0.0
H225 H 0.80734 0.08095 0.60832 0.0
C226 C 0.91998 0.05131 0.60772 0.0
C227 C 0.94438 0.07965 0.58574 0.0
C228 C 0.90208 0.07136 0.62963 0.0
C229 C 0.90813 0.12006 0.63 0.0
C230 C 0.93271 0.14865 0.60828 0.0
H231 H 0.8308 0.32816 0.70876 0.0
H232 H 0.87481 0.28447 0.69004 0.0
C233 C 0.95054 0.12857 0.58625 0.0
C234 C 0.88862 0.14125 0.65292 0.0
H235 H 0.77953 0.13154 0.67379 0.0
C236 C 0.92313 0.18327 0.67384 0.0
C237 C 0.83626 0.12137 0.65347 0.0
C238 C 0.79764 0.0766 0.63122 0.0
C239 C 0.90656 0.20701 0.69475 0.0
C240 C 0.85415 0.18883 0.69425 0.0
C241 C 0.8197 0.1453 0.67426 0.0
C242 C 0.83418 0.21833 0.7108 0.0
C243 C 0.94536 0.2518 0.71687 0.0
C244 C 0.79693 0.19599 0.72907 0.0
C245 C 0.77148 0.2211 0.73981 0.0
C246 C 0.78271 0.26852 0.7321 0.0
C247 C 0.82174 0.29175 0.71519 0.0
C248 C 0.84719 0.26694 0.70465 0.0
H249 H 0.98043 0.24917 0.72198 0.0
H250 H 0.95555 0.28681 0.70708 0.0
H251 H 0.93069 0.25502 0.73804 0.0
H252 H 0.78592 0.15823 0.7338 0.0
H253 H 0.74081 0.20204 0.7523 0.0
H254 H 0.83829 0.01549 0.1521 0.0
H255 H 0.78232 -0.00781 0.19024 0.0
H256 H 0.70443 0.83776 0.14583 0.0
H257 H 0.76038 0.86068 0.10774 0.0
H258 H 0.67276 0.94382 0.17989 0.0
H259 H 0.74475 0.83081 0.23518 0.0
H260 H 0.78076 0.87692 0.21237 0.0
H261 H 0.73182 0.81517 0.19516 0.0
C262 C 0.80926 0.97654 0.15055 0.0
C263 C 0.80369 0.93978 0.12704 0.0
C264 C 0.77746 0.96337 0.17232 0.0
C265 C 0.7401 0.91316 0.17112 0.0
C266 C 0.7338 0.87657 0.14739 0.0
H267 H 0.47853 0.70944 0.2162 0.0
H268 H 0.56562 0.76023 0.20846 0.0
C269 C 0.76528 0.88978 0.12547 0.0
C270 C 0.70583 0.89886 0.19377 0.0
H271 H 0.66136 0.81509 0.24262 0.0
C272 C 0.67085 0.91665 0.19424 0.0
C273 C 0.70419 0.86404 0.21266 0.0
C274 C 0.74271 0.84593 0.21412 0.0
C275 C 0.631 0.89668 0.21097 0.0
C276 C 0.62693 0.85869 0.22806 0.0
C277 C 0.66459 0.84423 0.22955 0.0
C278 C 0.57899 0.82625 0.2387 0.0
C279 C 0.59125 0.91319 0.20814 0.0
C280 C 0.55839 0.84572 0.25947 0.0
C281 C 0.50813 0.81655 0.2638 0.0
C282 C 0.47852 0.76771 0.24759 0.0
C283 C 0.50067 0.74711 0.22884 0.0
C284 C 0.55047 0.77603 0.22452 0.0
H285 H 0.5975 0.93917 0.19146 0.0
H286 H 0.55314 0.87987 0.2015 0.0
H287 H 0.59179 0.93308 0.23004 0.0
H288 H 0.58016 0.88417 0.271 0.0
H289 H 0.49161 0.83315 0.27832 0.0
H290 H 0.94303 0.76132 0.59339 0.0
H291 H 0.90839 0.69545 0.62491 0.0
H292 H 0.85361 0.78198 0.67556 0.0
H293 H 0.88867 0.8482 0.64441 0.0
H294 H 0.8957 0.73888 0.71163 0.0
H295 H 0.75818 0.59804 0.61714 0.0
H296 H 0.8224 0.62417 0.6104 0.0
H297 H 0.79397 0.66426 0.61461 0.0
C298 C 0.9235 0.76618 0.61121 0.0
C299 C 0.91823 0.80968 0.61632 0.0
C300 C 0.90381 0.72863 0.6292 0.0
C301 C 0.87781 0.73356 0.65227 0.0
C302 C 0.87357 0.77748 0.65788 0.0
H303 H 0.66876 0.46972 0.71919 0.0
H304 H 0.70834 0.5529 0.70358 0.0
C305 C 0.8936 0.81523 0.64007 0.0
C306 C 0.85324 0.69202 0.66975 0.0
H307 H 0.76613 0.56752 0.66216 0.0
C308 C 0.86714 0.7014 0.70092 0.0
C309 C 0.81532 0.64352 0.65577 0.0
C310 C 0.79616 0.63191 0.62269 0.0
C311 C 0.84479 0.66308 0.71841 0.0
C312 C 0.80838 0.61406 0.70419 0.0
C313 C 0.79411 0.6051 0.67309 0.0
C314 C 0.78467 0.57064 0.72053 0.0
C315 C 0.85984 0.67562 0.75186 0.0
C316 C 0.81422 0.55412 0.73669 0.0
C317 C 0.79138 0.50697 0.74625 0.0
C318 C 0.73898 0.47562 0.73921 0.0
C319 C 0.70927 0.49354 0.72489 0.0
C320 C 0.73188 0.54089 0.71591 0.0
H321 H 0.87501 0.71655 0.75977 0.0
H322 H 0.82739 0.65384 0.7635 0.0
H323 H 0.88995 0.66593 0.75826 0.0
H324 H 0.85502 0.57587 0.74002 0.0
H325 H 0.81492 0.49339 0.75696 0.0
H326 H 0.05076 0.8848 0.48317 0.0
H327 H 0.08632 0.8532 0.44536 0.0
H328 H 0.11971 0.98248 0.40137 0.0
H329 H 0.0845 0.01433 0.43879 0.0
H330 H 0.07248 0.88428 0.36217 0.0
H331 H 0.24184 0.92317 0.4409 0.0
H332 H 0.182 0.88702 0.45317 0.0
H333 H 0.20262 0.95152 0.44855 0.0
C334 C 0.06565 0.90644 0.46544 0.0
C335 C 0.06522 0.95227 0.46416 0.0
C336 C 0.0859 0.88838 0.4439 0.0
C337 C 0.10581 0.91576 0.42075 0.0
C338 C 0.10449 0.96088 0.41907 0.0
H339 H 0.31183 0.86652 0.32062 0.0
H340 H 0.26781 0.90977 0.34104 0.0
C341 C 0.08459 0.97909 0.44062 0.0
C342 C 0.12971 0.89842 0.39881 0.0
H343 H 0.23063 0.87919 0.39278 0.0
C344 C 0.10716 0.88328 0.36874 0.0
C345 C 0.17539 0.89818 0.40744 0.0
C346 C 0.20228 0.9162 0.43921 0.0
C347 C 0.12849 0.86631 0.34715 0.0
C348 C 0.17325 0.86441 0.35603 0.0
C349 C 0.19638 0.88088 0.38598 0.0
C350 C 0.19527 0.84207 0.33553 0.0
C351 C 0.1031 0.8506 0.31511 0.0
C352 C 0.16842 0.79027 0.3242 0.0
C353 C 0.19348 0.76577 0.31235 0.0
C354 C 0.24552 0.79282 0.31157 0.0
C355 C 0.27139 0.8453 0.32038 0.0
C356 C 0.24636 0.86985 0.33222 0.0
H357 H 0.07858 0.86783 0.3104 0.0
H358 H 0.13137 0.86136 0.29951 0.0
H359 H 0.079 0.80895 0.31063 0.0
H360 H 0.12931 0.76791 0.32708 0.0
H361 H 0.17327 0.72502 0.3064 0.0
H362 H 0.16904 0.13475 0.90789 0.0
H363 H 0.2347 0.1647 0.87585 0.0
H364 H 0.30773 0.09206 0.92065 0.0
H365 H 0.24293 0.06351 0.95342 0.0
H366 H 0.37289 0.18443 0.91745 0.0
H367 H 0.26145 0.09732 0.80506 0.0
H368 H 0.23861 0.13403 0.82529 0.0
H369 H 0.23526 0.07887 0.83878 0.0
C370 C 0.19884 0.12473 0.91062 0.0
C371 C 0.20109 0.09693 0.93312 0.0
C372 C 0.23606 0.14143 0.89212 0.0
C373 C 0.27559 0.12971 0.89536 0.0
C374 C 0.27741 0.10129 0.91759 0.0
H375 H 0.51974 0.2034 0.78886 0.0
H376 H 0.43693 0.15927 0.80553 0.0
C377 C 0.24062 0.08524 0.9364 0.0
C378 C 0.31764 0.15118 0.87764 0.0
H379 H 0.3457 0.16597 0.80684 0.0
C380 C 0.36683 0.17984 0.89325 0.0
C381 C 0.30993 0.14481 0.84601 0.0
C382 C 0.25848 0.11162 0.82781 0.0
C383 C 0.40833 0.20331 0.87829 0.0
C384 C 0.40034 0.19955 0.84683 0.0
C385 C 0.35146 0.16963 0.831 0.0
C386 C 0.443 0.22671 0.83052 0.0
C387 C 0.46049 0.2317 0.89641 0.0
C388 C 0.47194 0.27942 0.83744 0.0
C389 C 0.5192 0.3043 0.82842 0.0
C390 C 0.53751 0.277 0.81163 0.0
C391 C 0.50612 0.22512 0.80173 0.0
C392 C 0.45901 0.19996 0.81128 0.0
H393 H 0.46128 0.21922 0.91852 0.0
H394 H 0.48851 0.22655 0.88446 0.0
H395 H 0.4723 0.2726 0.90037 0.0
H396 H 0.45965 0.3008 0.85175 0.0
H397 H 0.54278 0.34442 0.83613 0.0
H398 H 0.01982 0.17116 0.39469 0.0
H399 H 0.04889 0.23141 0.35979 0.0
H400 H 0.17447 0.33621 0.42655 0.0
H401 H 0.148 0.27468 0.46081 0.0
H402 H 0.05758 0.31955 0.36047 0.0
H403 H 0.24762 0.34112 0.35761 0.0
H404 H 0.20073 0.29203 0.37452 0.0
H405 H 0.24006 0.35448 0.39546 0.0
C406 C 0.0543 0.20655 0.40181 0.0
C407 C 0.08193 0.21758 0.43055 0.0
C408 C 0.07063 0.24117 0.38184 0.0
C409 C 0.11467 0.28785 0.39018 0.0
C410 C 0.14136 0.29975 0.41917 0.0
H411 H 0.1948 0.57215 0.34956 0.0
H412 H 0.15232 0.48595 0.35974 0.0
C413 C 0.12553 0.26483 0.43902 0.0
C414 C 0.13125 0.32532 0.36929 0.0
H415 H 0.23639 0.41142 0.34453 0.0
C416 C 0.09648 0.3389 0.35651 0.0
C417 C 0.18146 0.34946 0.36303 0.0
C418 C 0.21933 0.333 0.37311 0.0
C419 C 0.11163 0.37876 0.33985 0.0
C420 C 0.1632 0.40691 0.33682 0.0
C421 C 0.197 0.39055 0.34733 0.0
C422 C 0.18411 0.4572 0.3271 0.0
C423 C 0.07235 0.39104 0.32632 0.0
C424 C 0.21703 0.47027 0.30565 0.0
C425 C 0.24241 0.52027 0.30024 0.0
C426 C 0.23495 0.55761 0.3161 0.0
C427 C 0.20095 0.54402 0.33684 0.0
C428 C 0.17607 0.49451 0.34239 0.0
H429 H 0.03536 0.35621 0.31954 0.0
H430 H 0.06695 0.4162 0.34326 0.0
H431 H 0.08363 0.41015 0.30652 0.0
H432 H 0.2244 0.44225 0.2939 0.0
H433 H 0.2697 0.53016 0.28491 0.0
H434 H 0.85832 0.04579 0.98729 0.0
H435 H 0.82034 0.07646 0.95027 0.0
H436 H 0.94816 0.11788 0.90323 0.0
H437 H 0.98638 0.08745 0.93993 0.0
H438 H 0.8686 0.17878 0.9367 0.0
H439 H 0.82222 0.03434 0.83725 0.0
H440 H 0.83263 0.02346 0.87495 0.0
H441 H 0.88524 0.06264 0.85741 0.0
C442 C 0.8782 0.06117 0.96899 0.0
C443 C 0.92541 0.0643 0.96662 0.0
C444 C 0.85645 0.07857 0.94786 0.0
C445 C 0.88121 0.09878 0.92386 0.0
C446 C 0.9281 0.10163 0.92131 0.0
H447 H 0.81307 0.27635 0.80514 0.0
H448 H 0.85525 0.2323 0.82699 0.0
C449 C 0.95001 0.08456 0.94248 0.0
C450 C 0.85946 0.11975 0.90254 0.0
H451 H 0.80765 0.10283 0.82983 0.0
C452 C 0.85547 0.16231 0.91332 0.0
C453 C 0.84268 0.09823 0.87204 0.0
C454 C 0.84546 0.05192 0.8596 0.0
C455 C 0.83468 0.18375 0.89444 0.0
C456 C 0.81712 0.16181 0.8641 0.0
C457 C 0.82165 0.11966 0.85309 0.0
C458 C 0.78973 0.18 0.8447 0.0
C459 C 0.83054 0.22921 0.9071 0.0
C460 C 0.73869 0.1636 0.8465 0.0
C461 C 0.71491 0.18871 0.83433 0.0
C462 C 0.74166 0.23021 0.81987 0.0
C463 C 0.79158 0.24398 0.81584 0.0
C464 C 0.81565 0.21902 0.82834 0.0
H465 H 0.85014 0.24453 0.93044 0.0
H466 H 0.84683 0.25945 0.89312 0.0
H467 H 0.79012 0.21857 0.90672 0.0
H468 H 0.71829 0.13371 0.85917 0.0
H469 H 0.67642 0.17761 0.83778 0.0
H470 H 0.82186 0.88715 0.49302 0.0
H471 H 0.74407 0.84903 0.4571 0.0
H472 H 0.8234 0.9467 0.39508 0.0
H473 H 0.90046 0.98659 0.4315 0.0
H474 H 0.74052 0.94768 0.39772 0.0
H475 H 0.69444 0.74773 0.38366 0.0
H476 H 0.70119 0.77085 0.42239 0.0
H477 H 0.75473 0.79753 0.40269 0.0
C478 C 0.8227 0.90013 0.47162 0.0
C479 C 0.86706 0.93993 0.4651 0.0
C480 C 0.77836 0.87796 0.45094 0.0
C481 C 0.778 0.89417 0.42304 0.0
C482 C 0.82268 0.93334 0.41636 0.0
H483 H 0.48743 0.73021 0.30175 0.0
H484 H 0.57862 0.76719 0.31856 0.0
C485 C 0.86667 0.9562 0.43723 0.0
C486 C 0.73016 0.87338 0.40194 0.0
H487 H 0.62409 0.76354 0.37139 0.0
C488 C 0.71558 0.90737 0.39154 0.0
C489 C 0.69795 0.82084 0.39304 0.0
C490 C 0.71324 0.78226 0.40077 0.0
C491 C 0.66845 0.89029 0.37424 0.0
C492 C 0.63423 0.83791 0.36807 0.0
C493 C 0.65001 0.80378 0.37662 0.0
C494 C 0.58044 0.81831 0.35584 0.0
C495 C 0.65549 0.92865 0.36318 0.0
C496 C 0.55138 0.83464 0.37123 0.0
C497 C 0.49993 0.81428 0.36143 0.0
C498 C 0.47633 0.7769 0.33613 0.0
C499 C 0.50517 0.76018 0.32074 0.0
C500 C 0.55701 0.78087 0.33049 0.0
H501 H 0.69 0.96288 0.35984 0.0
H502 H 0.629 0.91283 0.34182 0.0
H503 H 0.63749 0.94062 0.38012 0.0
H504 H 0.56824 0.86228 0.39137 0.0
H505 H 0.47839 0.82734 0.37394 0.0
H506 H 0.87982 0.82678 0.99887 0.0
H507 H 0.84861 0.74734 0.96464 0.0
H508 H 0.94316 0.8284 0.90177 0.0
H509 H 0.97592 0.90719 0.93626 0.0
H510 H 0.79897 0.71397 0.90904 0.0
H511 H 0.98623 0.72401 0.91014 0.0
H512 H 0.97584 0.76631 0.93554 0.0
H513 H 0.98469 0.77764 0.89783 0.0
C514 C 0.8939 0.82753 0.97775 0.0
C515 C 0.93082 0.873 0.97043 0.0
C516 C 0.87606 0.78221 0.9582 0.0
C517 C 0.89447 0.78174 0.93093 0.0
C518 C 0.92964 0.82752 0.92307 0.0
H519 H 0.73993 0.50245 0.79944 0.0
H520 H 0.77848 0.59215 0.82033 0.0
C521 C 0.9481 0.87258 0.94276 0.0
C522 C 0.87717 0.73335 0.91084 0.0
H523 H 0.91886 0.65855 0.87583 0.0
C524 C 0.82514 0.70183 0.90173 0.0
C525 C 0.91142 0.71742 0.90149 0.0
C526 C 0.96759 0.74786 0.91198 0.0
C527 C 0.80631 0.65445 0.884 0.0
C528 C 0.84061 0.63887 0.87428 0.0
C529 C 0.89267 0.67087 0.88291 0.0
C530 C 0.82326 0.58723 0.85832 0.0
C531 C 0.74984 0.62067 0.87708 0.0
C532 C 0.8383 0.55561 0.87149 0.0
C533 C 0.81778 0.50505 0.859 0.0
C534 C 0.78165 0.4849 0.83308 0.0
C535 C 0.76863 0.51716 0.81892 0.0
C536 C 0.78978 0.56817 0.83126 0.0
H537 H 0.72943 0.63349 0.89183 0.0
H538 H 0.73661 0.62114 0.85367 0.0
H539 H 0.73944 0.58112 0.8796 0.0
H540 H 0.86425 0.56945 0.89227 0.0
H541 H 0.8286 0.48113 0.87042 0.0
loop_
_geom_bond_atom_site_label_1
_geom_bond_atom_site_label_2
_geom_bond_distance
_geom_bond_site_symmetry_2
_ccdc_geom_bond_type
C0 O16 1.251 1_565 S
C0 O18 1.254 . S
N1 C2 1.333 . S
N1 C6 1.307 . S
N1 Zn7 2.021 . S
C2 N1 1.333 . S
C2 C3 1.379 . S
C2 H20 0.952 1_556 S
C3 C2 1.379 . S
C3 C4 1.390 . S
C3 H30 0.949 . S
C4 C3 1.390 . S
C4 C5 1.357 . S
C5 C4 1.357 . S
C5 C6 1.370 . S
C5 H31 0.950 . S
C6 N1 1.307 . S
C6 C5 1.370 . S
C6 H24 0.948 . S
Zn7 N1 2.021 . S
Zn7 O16 2.037 1_556 S
Zn7 O22 2.032 1_556 S
Zn7 O26 2.027 . S
Zn7 O28 2.025 1_545 S
C8 O27 1.246 1_556 S
C8 O28 1.249 1_655 S
N9 C10 1.307 . S
N9 C11 1.333 . S
N9 Zn15 2.020 1_565 S
C10 N9 1.307 . S
C10 C14 1.370 . S
C10 H21 0.948 . S
C11 N9 1.333 . S
C11 C12 1.379 . S
C11 H19 0.952 . S
C12 C11 1.379 . S
C12 C13 1.390 . S
C12 H32 0.949 . S
C13 C12 1.390 . S
C13 C14 1.357 . S
C14 C10 1.370 . S
C14 C13 1.357 . S
C14 H33 0.950 . S
Zn15 N9 2.020 1_545 S
Zn15 O18 2.025 1_645 S
Zn15 O23 2.024 1_655 S
Zn15 O25 2.039 . S
Zn15 O27 2.034 1_545 S
O16 C0 1.251 1_545 S
O16 Zn7 2.037 1_554 S
C17 O22 1.246 . S
C17 O23 1.249 . S
O18 C0 1.254 . S
O18 Zn15 2.025 1_465 S
H19 C11 0.952 . S
H20 C2 0.952 1_554 S
H21 C10 0.948 . S
O22 Zn7 2.032 1_554 S
O22 C17 1.246 . S
O23 Zn15 2.024 1_455 S
O23 C17 1.249 . S
H24 C6 0.948 . S
O25 Zn15 2.039 . S
O25 C29 1.251 1_554 S
O26 Zn7 2.027 . S
O26 C29 1.254 1_455 S
O27 C8 1.246 1_554 S
O27 Zn15 2.034 1_565 S
O28 Zn7 2.025 1_565 S
O28 C8 1.249 1_455 S
C29 O25 1.251 1_556 S
C29 O26 1.254 1_655 S
H30 C3 0.949 . S
H31 C5 0.950 . S
H32 C12 0.949 . S
H33 C14 0.950 . S
C34 O50 1.251 . S
C34 O52 1.254 1_565 S
N35 C36 1.333 . S
N35 C40 1.307 . S
N35 Zn41 2.020 . S
C36 N35 1.333 . S
C36 C37 1.379 . S
C36 H54 0.952 . S
C37 C36 1.379 . S
C37 C38 1.390 . S
C37 H64 0.949 . S
C38 C37 1.390 . S
C38 C39 1.357 . S
C39 C38 1.357 . S
C39 C40 1.370 . S
C39 H65 0.950 . S
C40 N35 1.307 . S
C40 C39 1.370 . S
C40 H58 0.948 . S
Zn41 N35 2.020 . S
Zn41 O50 2.039 1_655 S
Zn41 O56 2.034 . S
Zn41 O60 2.025 1_565 S
Zn41 O62 2.024 1_665 S
C42 O61 1.246 . S
C42 O62 1.249 . S
N43 C44 1.307 . S
N43 C45 1.333 . S
N43 Zn49 2.020 . S
C44 N43 1.307 . S
C44 C48 1.370 . S
C44 H55 0.948 . S
C45 N43 1.333 . S
C45 C46 1.379 . S
C45 H53 0.952 . S
C46 C45 1.379 . S
C46 C47 1.390 . S
C46 H66 0.949 . S
C47 C46 1.390 . S
C47 C48 1.357 . S
C48 C44 1.370 . S
C48 C47 1.357 . S
C48 H67 0.950 . S
Zn49 N43 2.020 . S
Zn49 O52 2.025 . S
Zn49 O57 2.024 1_455 S
Zn49 O59 2.039 1_455 S
Zn49 O61 2.034 . S
O50 C34 1.251 . S
O50 Zn41 2.039 1_455 S
C51 O56 1.246 . S
C51 O57 1.249 1_565 S
O52 C34 1.254 1_545 S
O52 Zn49 2.025 . S
H53 C45 0.952 . S
H54 C36 0.952 . S
H55 C44 0.948 . S
O56 Zn41 2.034 . S
O56 C51 1.246 . S
O57 Zn49 2.024 1_655 S
O57 C51 1.249 1_545 S
H58 C40 0.948 . S
O59 Zn49 2.039 1_655 S
O59 C63 1.251 . S
O60 Zn41 2.025 1_545 S
O60 C63 1.254 . S
O61 C42 1.246 . S
O61 Zn49 2.034 . S
O62 Zn41 2.024 1_445 S
O62 C42 1.249 . S
C63 O59 1.251 . S
C63 O60 1.254 . S
H64 C37 0.949 . S
H65 C39 0.950 . S
H66 C46 0.949 . S
H67 C48 0.950 . S
Zn68 O74 1.920 . S
Zn68 O80 1.898 . S
Zn68 O83 1.905 . S
Zn69 O77 1.905 . S
Zn69 O78 1.898 . S
Zn69 O86 1.920 . S
Zn70 O73 2.080 . S
Zn70 O76 2.114 . S
Zn70 O79 2.120 . S
Zn70 O81 2.120 . S
Zn70 O82 2.114 . S
Zn70 O85 2.080 . S
C71 O76 1.166 . S
C71 O77 1.182 . S
C72 O78 1.167 . S
C72 O79 1.299 . S
O73 Zn70 2.080 . S
O73 C87 1.305 . S
O74 Zn68 1.920 . S
O74 C87 1.234 . S
C75 O80 1.167 . S
C75 O81 1.299 . S
O76 Zn70 2.114 . S
O76 C71 1.166 . S
O77 Zn69 1.905 . S
O77 C71 1.182 . S
O78 Zn69 1.898 . S
O78 C72 1.167 . S
O79 Zn70 2.120 . S
O79 C72 1.299 . S
O80 Zn68 1.898 . S
O80 C75 1.167 . S
O81 Zn70 2.120 . S
O81 C75 1.299 . S
O82 Zn70 2.114 . S
O82 C84 1.166 . S
O83 Zn68 1.905 . S
O83 C84 1.182 . S
C84 O82 1.166 . S
C84 O83 1.182 . S
O85 Zn70 2.080 . S
O85 C88 1.305 . S
O86 Zn69 1.920 . S
O86 C88 1.234 . S
C87 O73 1.305 . S
C87 O74 1.234 . S
C88 O85 1.305 . S
C88 O86 1.234 . S
Zn89 O95 1.920 . S
Zn89 O101 1.898 . S
Zn89 O104 1.905 . S
Zn90 O98 1.905 . S
Zn90 O99 1.898 . S
Zn90 O107 1.920 . S
Zn91 O94 2.080 . S
Zn91 O97 2.114 . S
Zn91 O100 2.120 . S
Zn91 O102 2.120 . S
Zn91 O103 2.114 . S
Zn91 O106 2.080 . S
C92 O97 1.166 . S
C92 O98 1.182 . S
C93 O99 1.167 . S
C93 O100 1.299 . S
O94 Zn91 2.080 . S
O94 C108 1.305 . S
O95 Zn89 1.920 . S
O95 C108 1.234 . S
C96 O101 1.167 . S
C96 O102 1.299 . S
O97 Zn91 2.114 . S
O97 C92 1.166 . S
O98 Zn90 1.905 . S
O98 C92 1.182 . S
O99 Zn90 1.898 . S
O99 C93 1.167 . S
O100 Zn91 2.120 . S
O100 C93 1.299 . S
O101 Zn89 1.898 . S
O101 C96 1.167 . S
O102 Zn91 2.120 . S
O102 C96 1.299 . S
O103 Zn91 2.114 . S
O103 C105 1.166 . S
O104 Zn89 1.905 . S
O104 C105 1.182 . S
C105 O103 1.166 . S
C105 O104 1.182 . S
O106 Zn91 2.080 . S
O106 C109 1.305 . S
O107 Zn90 1.920 . S
O107 C109 1.234 . S
C108 O94 1.305 . S
C108 O95 1.234 . S
C109 O106 1.305 . S
C109 O107 1.234 . S
H110 C118 0.929 . S
H111 C120 0.930 . S
H112 C122 0.930 . S
H113 C125 0.929 . S
H114 C128 0.930 . S
H115 C130 0.960 . S
H116 C130 0.960 . S
H117 C130 0.960 . S
C118 H110 0.929 . S
C118 C119 1.377 . S
C118 C120 1.384 . S
C119 C118 1.377 . S
C119 C125 1.390 . S
C120 H111 0.930 . S
C120 C118 1.384 . S
C120 C121 1.372 . S
C121 C120 1.372 . S
C121 C122 1.400 . S
C121 C126 1.490 . S
C122 H112 0.930 . S
C122 C121 1.400 . S
C122 C125 1.386 . S
H123 C139 0.930 . S
H124 C140 0.931 . S
C125 H113 0.929 . S
C125 C119 1.390 . S
C125 C122 1.386 . S
C126 C121 1.490 . S
C126 C128 1.395 . S
C126 C129 1.403 . S
H127 C133 0.930 . S
C128 H114 0.930 . S
C128 C126 1.395 . S
C128 C131 1.403 . S
C129 C126 1.403 . S
C129 C130 1.524 . S
C129 C133 1.400 . S
C130 H115 0.960 . S
C130 H116 0.960 . S
C130 H117 0.960 . S
C130 C129 1.524 . S
C131 C128 1.403 . S
C131 C132 1.392 . S
C131 C135 1.495 . S
C132 C131 1.392 . S
C132 C133 1.385 . S
C132 C134 1.478 . S
C133 H127 0.930 . S
C133 C129 1.400 . S
C133 C132 1.385 . S
C134 C132 1.478 . S
C134 C136 1.381 . S
C134 C140 1.383 . S
C135 C131 1.495 . S
C135 H141 0.959 . S
C135 H142 0.961 . S
C135 H143 0.960 . S
C136 C134 1.381 . S
C136 C137 1.394 . S
C136 H144 0.930 . S
C137 C136 1.394 . S
C137 C138 1.383 . S
C137 H145 0.929 . S
C138 C137 1.383 . S
C138 C139 1.377 . S
C139 H123 0.930 . S
C139 C138 1.377 . S
C139 C140 1.379 . S
C140 H124 0.931 . S
C140 C134 1.383 . S
C140 C139 1.379 . S
H141 C135 0.959 . S
H142 C135 0.961 . S
H143 C135 0.960 . S
H144 C136 0.930 . S
H145 C137 0.929 . S
H146 C154 0.929 . S
H147 C156 0.930 . S
H148 C158 0.930 . S
H149 C161 0.929 . S
H150 C164 0.930 . S
H151 C166 0.960 . S
H152 C166 0.960 . S
H153 C166 0.960 . S
C154 H146 0.929 . S
C154 C155 1.377 . S
C154 C156 1.384 . S
C155 C154 1.377 . S
C155 C161 1.390 . S
C156 H147 0.930 . S
C156 C154 1.384 . S
C156 C157 1.372 . S
C157 C156 1.372 . S
C157 C158 1.400 . S
C157 C162 1.490 . S
C158 H148 0.930 . S
C158 C157 1.400 . S
C158 C161 1.386 . S
H159 C175 0.930 . S
H160 C176 0.931 . S
C161 H149 0.929 . S
C161 C155 1.390 . S
C161 C158 1.386 . S
C162 C157 1.490 . S
C162 C164 1.395 . S
C162 C165 1.403 . S
H163 C169 0.930 . S
C164 H150 0.930 . S
C164 C162 1.395 . S
C164 C167 1.403 . S
C165 C162 1.403 . S
C165 C166 1.524 . S
C165 C169 1.400 . S
C166 H151 0.960 . S
C166 H152 0.960 . S
C166 H153 0.960 . S
C166 C165 1.524 . S
C167 C164 1.403 . S
C167 C168 1.392 . S
C167 C171 1.495 . S
C168 C167 1.392 . S
C168 C169 1.385 . S
C168 C170 1.478 . S
C169 H163 0.930 . S
C169 C165 1.400 . S
C169 C168 1.385 . S
C170 C168 1.478 . S
C170 C172 1.381 . S
C170 C176 1.383 . S
C171 C167 1.495 . S
C171 H177 0.959 . S
C171 H178 0.961 . S
C171 H179 0.960 . S
C172 C170 1.381 . S
C172 C173 1.394 . S
C172 H180 0.930 . S
C173 C172 1.394 . S
C173 C174 1.383 . S
C173 H181 0.929 . S
C174 C173 1.383 . S
C174 C175 1.377 . S
C175 H159 0.930 . S
C175 C174 1.377 . S
C175 C176 1.379 . S
C176 H160 0.931 . S
C176 C170 1.383 . S
C176 C175 1.379 . S
H177 C171 0.959 . S
H178 C171 0.961 . S
H179 C171 0.960 . S
H180 C172 0.930 . S
H181 C173 0.929 . S
H182 C190 0.929 . S
H183 C192 0.930 . S
H184 C194 0.930 . S
H185 C197 0.929 . S
H186 C200 0.930 . S
H187 C202 0.960 . S
H188 C202 0.960 . S
H189 C202 0.960 . S
C190 H182 0.929 . S
C190 C191 1.377 . S
C190 C192 1.384 . S
C191 C190 1.377 . S
C191 C197 1.390 . S
C192 H183 0.930 . S
C192 C190 1.384 . S
C192 C193 1.372 . S
C193 C192 1.372 . S
C193 C194 1.400 . S
C193 C198 1.490 . S
C194 H184 0.930 . S
C194 C193 1.400 . S
C194 C197 1.386 . S
H195 C211 0.930 . S
H196 C212 0.931 . S
C197 H185 0.929 . S
C197 C191 1.390 . S
C197 C194 1.386 . S
C198 C193 1.490 . S
C198 C200 1.395 . S
C198 C201 1.403 . S
H199 C205 0.930 . S
C200 H186 0.930 . S
C200 C198 1.395 . S
C200 C203 1.403 . S
C201 C198 1.403 . S
C201 C202 1.524 . S
C201 C205 1.400 . S
C202 H187 0.960 . S
C202 H188 0.960 . S
C202 H189 0.960 . S
C202 C201 1.524 . S
C203 C200 1.403 . S
C203 C204 1.392 . S
C203 C207 1.495 . S
C204 C203 1.392 . S
C204 C205 1.385 . S
C204 C206 1.478 . S
C205 H199 0.930 . S
C205 C201 1.400 . S
C205 C204 1.385 . S
C206 C204 1.478 . S
C206 C208 1.381 . S
C206 C212 1.383 . S
C207 C203 1.495 . S
C207 H213 0.959 . S
C207 H214 0.961 . S
C207 H215 0.960 . S
C208 C206 1.381 . S
C208 C209 1.394 . S
C208 H216 0.930 . S
C209 C208 1.394 . S
C209 C210 1.383 . S
C209 H217 0.929 . S
C210 C209 1.383 . S
C210 C211 1.377 . S
C211 H195 0.930 . S
C211 C210 1.377 . S
C211 C212 1.379 . S
C212 H196 0.931 . S
C212 C206 1.383 . S
C212 C211 1.379 . S
H213 C207 0.959 . S
H214 C207 0.961 . S
H215 C207 0.960 . S
H216 C208 0.930 . S
H217 C209 0.929 . S
H218 C226 0.929 . S
H219 C228 0.930 . S
H220 C230 0.930 . S
H221 C233 0.929 . S
H222 C236 0.930 . S
H223 C238 0.960 . S
H224 C238 0.960 . S
H225 C238 0.960 . S
C226 H218 0.929 . S
C226 C227 1.377 . S
C226 C228 1.384 . S
C227 C226 1.377 . S
C227 C233 1.390 . S
C228 H219 0.930 . S
C228 C226 1.384 . S
C228 C229 1.372 . S
C229 C228 1.372 . S
C229 C230 1.400 . S
C229 C234 1.490 . S
C230 H220 0.930 . S
C230 C229 1.400 . S
C230 C233 1.386 . S
H231 C247 0.930 . S
H232 C248 0.931 . S
C233 H221 0.929 . S
C233 C227 1.390 . S
C233 C230 1.386 . S
C234 C229 1.490 . S
C234 C236 1.395 . S
C234 C237 1.403 . S
H235 C241 0.930 . S
C236 H222 0.930 . S
C236 C234 1.395 . S
C236 C239 1.403 . S
C237 C234 1.403 . S
C237 C238 1.524 . S
C237 C241 1.400 . S
C238 H223 0.960 . S
C238 H224 0.960 . S
C238 H225 0.960 . S
C238 C237 1.524 . S
C239 C236 1.403 . S
C239 C240 1.392 . S
C239 C243 1.495 . S
C240 C239 1.392 . S
C240 C241 1.385 . S
C240 C242 1.478 . S
C241 H235 0.930 . S
C241 C237 1.400 . S
C241 C240 1.385 . S
C242 C240 1.478 . S
C242 C244 1.381 . S
C242 C248 1.383 . S
C243 C239 1.495 . S
C243 H249 0.959 . S
C243 H250 0.961 . S
C243 H251 0.960 . S
C244 C242 1.381 . S
C244 C245 1.394 . S
C244 H252 0.930 . S
C245 C244 1.394 . S
C245 C246 1.383 . S
C245 H253 0.929 . S
C246 C245 1.383 . S
C246 C247 1.377 . S
C247 H231 0.930 . S
C247 C246 1.377 . S
C247 C248 1.379 . S
C248 H232 0.931 . S
C248 C242 1.383 . S
C248 C247 1.379 . S
H249 C243 0.959 . S
H250 C243 0.961 . S
H251 C243 0.960 . S
H252 C244 0.930 . S
H253 C245 0.929 . S
H254 C262 0.929 . S
H255 C264 0.930 . S
H256 C266 0.930 . S
H257 C269 0.929 . S
H258 C272 0.930 . S
H259 C274 0.960 . S
H260 C274 0.960 . S
H261 C274 0.960 . S
C262 H254 0.929 . S
C262 C263 1.377 . S
C262 C264 1.384 . S
C263 C262 1.377 . S
C263 C269 1.390 . S
C264 H255 0.930 . S
C264 C262 1.384 . S
C264 C265 1.372 . S
C265 C264 1.372 . S
C265 C266 1.400 . S
C265 C270 1.490 . S
C266 H256 0.930 . S
C266 C265 1.400 . S
C266 C269 1.386 . S
H267 C283 0.930 . S
H268 C284 0.931 . S
C269 H257 0.929 . S
C269 C263 1.390 . S
C269 C266 1.386 . S
C270 C265 1.490 . S
C270 C272 1.395 . S
C270 C273 1.403 . S
H271 C277 0.930 . S
C272 H258 0.930 . S
C272 C270 1.395 . S
C272 C275 1.403 . S
C273 C270 1.403 . S
C273 C274 1.524 . S
C273 C277 1.400 . S
C274 H259 0.960 . S
C274 H260 0.960 . S
C274 H261 0.960 . S
C274 C273 1.524 . S
C275 C272 1.403 . S
C275 C276 1.392 . S
C275 C279 1.495 . S
C276 C275 1.392 . S
C276 C277 1.385 . S
C276 C278 1.478 . S
C277 H271 0.930 . S
C277 C273 1.400 . S
C277 C276 1.385 . S
C278 C276 1.478 . S
C278 C280 1.381 . S
C278 C284 1.383 . S
C279 C275 1.495 . S
C279 H285 0.959 . S
C279 H286 0.961 . S
C279 H287 0.960 . S
C280 C278 1.381 . S
C280 C281 1.394 . S
C280 H288 0.930 . S
C281 C280 1.394 . S
C281 C282 1.383 . S
C281 H289 0.929 . S
C282 C281 1.383 . S
C282 C283 1.377 . S
C283 H267 0.930 . S
C283 C282 1.377 . S
C283 C284 1.379 . S
C284 H268 0.931 . S
C284 C278 1.383 . S
C284 C283 1.379 . S
H285 C279 0.959 . S
H286 C279 0.961 . S
H287 C279 0.960 . S
H288 C280 0.930 . S
H289 C281 0.929 . S
H290 C298 0.929 . S
H291 C300 0.930 . S
H292 C302 0.930 . S
H293 C305 0.929 . S
H294 C308 0.930 . S
H295 C310 0.960 . S
H296 C310 0.960 . S
H297 C310 0.960 . S
C298 H290 0.929 . S
C298 C299 1.377 . S
C298 C300 1.384 . S
C299 C298 1.377 . S
C299 C305 1.390 . S
C300 H291 0.930 . S
C300 C298 1.384 . S
C300 C301 1.372 . S
C301 C300 1.372 . S
C301 C302 1.400 . S
C301 C306 1.490 . S
C302 H292 0.930 . S
C302 C301 1.400 . S
C302 C305 1.386 . S
H303 C319 0.930 . S
H304 C320 0.931 . S
C305 H293 0.929 . S
C305 C299 1.390 . S
C305 C302 1.386 . S
C306 C301 1.490 . S
C306 C308 1.395 . S
C306 C309 1.403 . S
H307 C313 0.930 . S
C308 H294 0.930 . S
C308 C306 1.395 . S
C308 C311 1.403 . S
C309 C306 1.403 . S
C309 C310 1.524 . S
C309 C313 1.400 . S
C310 H295 0.960 . S
C310 H296 0.960 . S
C310 H297 0.960 . S
C310 C309 1.524 . S
C311 C308 1.403 . S
C311 C312 1.392 . S
C311 C315 1.495 . S
C312 C311 1.392 . S
C312 C313 1.385 . S
C312 C314 1.478 . S
C313 H307 0.930 . S
C313 C309 1.400 . S
C313 C312 1.385 . S
C314 C312 1.478 . S
C314 C316 1.381 . S
C314 C320 1.383 . S
C315 C311 1.495 . S
C315 H321 0.959 . S
C315 H322 0.961 . S
C315 H323 0.960 . S
C316 C314 1.381 . S
C316 C317 1.394 . S
C316 H324 0.930 . S
C317 C316 1.394 . S
C317 C318 1.383 . S
C317 H325 0.929 . S
C318 C317 1.383 . S
C318 C319 1.377 . S
C319 H303 0.930 . S
C319 C318 1.377 . S
C319 C320 1.379 . S
C320 H304 0.931 . S
C320 C314 1.383 . S
C320 C319 1.379 . S
H321 C315 0.959 . S
H322 C315 0.961 . S
H323 C315 0.960 . S
H324 C316 0.930 . S
H325 C317 0.929 . S
H326 C334 0.929 . S
H327 C336 0.930 . S
H328 C338 0.930 . S
H329 C341 0.929 1_545 S
H330 C344 0.930 . S
H331 C346 0.960 . S
H332 C346 0.960 . S
H333 C346 0.960 . S
C334 H326 0.929 . S
C334 C335 1.377 . S
C334 C336 1.384 . S
C335 C334 1.377 . S
C335 C341 1.390 . S
C336 H327 0.930 . S
C336 C334 1.384 . S
C336 C337 1.372 . S
C337 C336 1.372 . S
C337 C338 1.400 . S
C337 C342 1.490 . S
C338 H328 0.930 . S
C338 C337 1.400 . S
C338 C341 1.386 . S
H339 C355 0.930 . S
H340 C356 0.931 . S
C341 H329 0.929 1_565 S
C341 C335 1.390 . S
C341 C338 1.386 . S
C342 C337 1.490 . S
C342 C344 1.395 . S
C342 C345 1.403 . S
H343 C349 0.930 . S
C344 H330 0.930 . S
C344 C342 1.395 . S
C344 C347 1.403 . S
C345 C342 1.403 . S
C345 C346 1.524 . S
C345 C349 1.400 . S
C346 H331 0.960 . S
C346 H332 0.960 . S
C346 H333 0.960 . S
C346 C345 1.524 . S
C347 C344 1.403 . S
C347 C348 1.392 . S
C347 C351 1.495 . S
C348 C347 1.392 . S
C348 C349 1.385 . S
C348 C350 1.478 . S
C349 H343 0.930 . S
C349 C345 1.400 . S
C349 C348 1.385 . S
C350 C348 1.478 . S
C350 C352 1.381 . S
C350 C356 1.383 . S
C351 C347 1.495 . S
C351 H357 0.959 . S
C351 H358 0.961 . S
C351 H359 0.960 . S
C352 C350 1.381 . S
C352 C353 1.394 . S
C352 H360 0.930 . S
C353 C352 1.394 . S
C353 C354 1.383 . S
C353 H361 0.929 . S
C354 C353 1.383 . S
C354 C355 1.377 . S
C355 H339 0.930 . S
C355 C354 1.377 . S
C355 C356 1.379 . S
C356 H340 0.931 . S
C356 C350 1.383 . S
C356 C355 1.379 . S
H357 C351 0.959 . S
H358 C351 0.961 . S
H359 C351 0.960 . S
H360 C352 0.930 . S
H361 C353 0.929 . S
H362 C370 0.929 . S
H363 C372 0.930 . S
H364 C374 0.930 . S
H365 C377 0.929 . S
H366 C380 0.930 . S
H367 C382 0.960 . S
H368 C382 0.960 . S
H369 C382 0.960 . S
C370 H362 0.929 . S
C370 C371 1.377 . S
C370 C372 1.384 . S
C371 C370 1.377 . S
C371 C377 1.390 . S
C372 H363 0.930 . S
C372 C370 1.384 . S
C372 C373 1.372 . S
C373 C372 1.372 . S
C373 C374 1.400 . S
C373 C378 1.490 . S
C374 H364 0.930 . S
C374 C373 1.400 . S
C374 C377 1.386 . S
H375 C391 0.930 . S
H376 C392 0.931 . S
C377 H365 0.929 . S
C377 C371 1.390 . S
C377 C374 1.386 . S
C378 C373 1.490 . S
C378 C380 1.395 . S
C378 C381 1.403 . S
H379 C385 0.930 . S
C380 H366 0.930 . S
C380 C378 1.395 . S
C380 C383 1.403 . S
C381 C378 1.403 . S
C381 C382 1.524 . S
C381 C385 1.400 . S
C382 H367 0.960 . S
C382 H368 0.960 . S
C382 H369 0.960 . S
C382 C381 1.524 . S
C383 C380 1.403 . S
C383 C384 1.392 . S
C383 C387 1.495 . S
C384 C383 1.392 . S
C384 C385 1.385 . S
C384 C386 1.478 . S
C385 H379 0.930 . S
C385 C381 1.400 . S
C385 C384 1.385 . S
C386 C384 1.478 . S
C386 C388 1.381 . S
C386 C392 1.383 . S
C387 C383 1.495 . S
C387 H393 0.959 . S
C387 H394 0.961 . S
C387 H395 0.960 . S
C388 C386 1.381 . S
C388 C389 1.394 . S
C388 H396 0.930 . S
C389 C388 1.394 . S
C389 C390 1.383 . S
C389 H397 0.929 . S
C390 C389 1.383 . S
C390 C391 1.377 . S
C391 H375 0.930 . S
C391 C390 1.377 . S
C391 C392 1.379 . S
C392 H376 0.931 . S
C392 C386 1.383 . S
C392 C391 1.379 . S
H393 C387 0.959 . S
H394 C387 0.961 . S
H395 C387 0.960 . S
H396 C388 0.930 . S
H397 C389 0.929 . S
H398 C406 0.929 . S
H399 C408 0.930 . S
H400 C410 0.930 . S
H401 C413 0.929 . S
H402 C416 0.930 . S
H403 C418 0.960 . S
H404 C418 0.960 . S
H405 C418 0.960 . S
C406 H398 0.929 . S
C406 C407 1.377 . S
C406 C408 1.384 . S
C407 C406 1.377 . S
C407 C413 1.390 . S
C408 H399 0.930 . S
C408 C406 1.384 . S
C408 C409 1.372 . S
C409 C408 1.372 . S
C409 C410 1.400 . S
C409 C414 1.490 . S
C410 H400 0.930 . S
C410 C409 1.400 . S
C410 C413 1.386 . S
H411 C427 0.930 . S
H412 C428 0.931 . S
C413 H401 0.929 . S
C413 C407 1.390 . S
C413 C410 1.386 . S
C414 C409 1.490 . S
C414 C416 1.395 . S
C414 C417 1.403 . S
H415 C421 0.930 . S
C416 H402 0.930 . S
C416 C414 1.395 . S
C416 C419 1.403 . S
C417 C414 1.403 . S
C417 C418 1.524 . S
C417 C421 1.400 . S
C418 H403 0.960 . S
C418 H404 0.960 . S
C418 H405 0.960 . S
C418 C417 1.524 . S
C419 C416 1.403 . S
C419 C420 1.392 . S
C419 C423 1.495 . S
C420 C419 1.392 . S
C420 C421 1.385 . S
C420 C422 1.478 . S
C421 H415 0.930 . S
C421 C417 1.400 . S
C421 C420 1.385 . S
C422 C420 1.478 . S
C422 C424 1.381 . S
C422 C428 1.383 . S
C423 C419 1.495 . S
C423 H429 0.959 . S
C423 H430 0.961 . S
C423 H431 0.960 . S
C424 C422 1.381 . S
C424 C425 1.394 . S
C424 H432 0.930 . S
C425 C424 1.394 . S
C425 C426 1.383 . S
C425 H433 0.929 . S
C426 C425 1.383 . S
C426 C427 1.377 . S
C427 H411 0.930 . S
C427 C426 1.377 . S
C427 C428 1.379 . S
C428 H412 0.931 . S
C428 C422 1.383 . S
C428 C427 1.379 . S
H429 C423 0.959 . S
H430 C423 0.961 . S
H431 C423 0.960 . S
H432 C424 0.930 . S
H433 C425 0.929 . S
H434 C442 0.929 . S
H435 C444 0.930 . S
H436 C446 0.930 . S
H437 C449 0.929 1_455 S
H438 C452 0.930 . S
H439 C454 0.960 . S
H440 C454 0.960 . S
H441 C454 0.960 . S
C442 H434 0.929 . S
C442 C443 1.377 . S
C442 C444 1.384 . S
C443 C442 1.377 . S
C443 C449 1.390 . S
C444 H435 0.930 . S
C444 C442 1.384 . S
C444 C445 1.372 . S
C445 C444 1.372 . S
C445 C446 1.400 . S
C445 C450 1.490 . S
C446 H436 0.930 . S
C446 C445 1.400 . S
C446 C449 1.386 . S
H447 C463 0.930 . S
H448 C464 0.931 . S
C449 H437 0.929 1_655 S
C449 C443 1.390 . S
C449 C446 1.386 . S
C450 C445 1.490 . S
C450 C452 1.395 . S
C450 C453 1.403 . S
H451 C457 0.930 . S
C452 H438 0.930 . S
C452 C450 1.395 . S
C452 C455 1.403 . S
C453 C450 1.403 . S
C453 C454 1.524 . S
C453 C457 1.400 . S
C454 H439 0.960 . S
C454 H440 0.960 . S
C454 H441 0.960 . S
C454 C453 1.524 . S
C455 C452 1.403 . S
C455 C456 1.392 . S
C455 C459 1.495 . S
C456 C455 1.392 . S
C456 C457 1.385 . S
C456 C458 1.478 . S
C457 H451 0.930 . S
C457 C453 1.400 . S
C457 C456 1.385 . S
C458 C456 1.478 . S
C458 C460 1.381 . S
C458 C464 1.383 . S
C459 C455 1.495 . S
C459 H465 0.959 . S
C459 H466 0.961 . S
C459 H467 0.960 . S
C460 C458 1.381 . S
C460 C461 1.394 . S
C460 H468 0.930 . S
C461 C460 1.394 . S
C461 C462 1.383 . S
C461 H469 0.929 . S
C462 C461 1.383 . S
C462 C463 1.377 . S
C463 H447 0.930 . S
C463 C462 1.377 . S
C463 C464 1.379 . S
C464 H448 0.931 . S
C464 C458 1.383 . S
C464 C463 1.379 . S
H465 C459 0.959 . S
H466 C459 0.961 . S
H467 C459 0.960 . S
H468 C460 0.930 . S
H469 C461 0.929 . S
H470 C478 0.929 . S
H471 C480 0.930 . S
H472 C482 0.930 . S
H473 C485 0.929 . S
H474 C488 0.930 . S
H475 C490 0.960 . S
H476 C490 0.960 . S
H477 C490 0.960 . S
C478 H470 0.929 . S
C478 C479 1.377 . S
C478 C480 1.384 . S
C479 C478 1.377 . S
C479 C485 1.390 . S
C480 H471 0.930 . S
C480 C478 1.384 . S
C480 C481 1.372 . S
C481 C480 1.372 . S
C481 C482 1.400 . S
C481 C486 1.490 . S
C482 H472 0.930 . S
C482 C481 1.400 . S
C482 C485 1.386 . S
H483 C499 0.930 . S
H484 C500 0.931 . S
C485 H473 0.929 . S
C485 C479 1.390 . S
C485 C482 1.386 . S
C486 C481 1.490 . S
C486 C488 1.395 . S
C486 C489 1.403 . S
H487 C493 0.930 . S
C488 H474 0.930 . S
C488 C486 1.395 . S
C488 C491 1.403 . S
C489 C486 1.403 . S
C489 C490 1.524 . S
C489 C493 1.400 . S
C490 H475 0.960 . S
C490 H476 0.960 . S
C490 H477 0.960 . S
C490 C489 1.524 . S
C491 C488 1.403 . S
C491 C492 1.392 . S
C491 C495 1.495 . S
C492 C491 1.392 . S
C492 C493 1.385 . S
C492 C494 1.478 . S
C493 H487 0.930 . S
C493 C489 1.400 . S
C493 C492 1.385 . S
C494 C492 1.478 . S
C494 C496 1.381 . S
C494 C500 1.383 . S
C495 C491 1.495 . S
C495 H501 0.959 . S
C495 H502 0.961 . S
C495 H503 0.960 . S
C496 C494 1.381 . S
C496 C497 1.394 . S
C496 H504 0.930 . S
C497 C496 1.394 . S
C497 C498 1.383 . S
C497 H505 0.929 . S
C498 C497 1.383 . S
C498 C499 1.377 . S
C499 H483 0.930 . S
C499 C498 1.377 . S
C499 C500 1.379 . S
C500 H484 0.931 . S
C500 C494 1.383 . S
C500 C499 1.379 . S
H501 C495 0.959 . S
H502 C495 0.961 . S
H503 C495 0.960 . S
H504 C496 0.930 . S
H505 C497 0.929 . S
H506 C514 0.929 . S
H507 C516 0.930 . S
H508 C518 0.930 . S
H509 C521 0.929 . S
H510 C524 0.930 . S
H511 C526 0.960 . S
H512 C526 0.960 . S
H513 C526 0.960 . S
C514 H506 0.929 . S
C514 C515 1.377 . S
C514 C516 1.384 . S
C515 C514 1.377 . S
C515 C521 1.390 . S
C516 H507 0.930 . S
C516 C514 1.384 . S
C516 C517 1.372 . S
C517 C516 1.372 . S
C517 C518 1.400 . S
C517 C522 1.490 . S
C518 H508 0.930 . S
C518 C517 1.400 . S
C518 C521 1.386 . S
H519 C535 0.930 . S
H520 C536 0.931 . S
C521 H509 0.929 . S
C521 C515 1.390 . S
C521 C518 1.386 . S
C522 C517 1.490 . S
C522 C524 1.395 . S
C522 C525 1.403 . S
H523 C529 0.930 . S
C524 H510 0.930 . S
C524 C522 1.395 . S
C524 C527 1.403 . S
C525 C522 1.403 . S
C525 C526 1.524 . S
C525 C529 1.400 . S
C526 H511 0.960 . S
C526 H512 0.960 . S
C526 H513 0.960 . S
C526 C525 1.524 . S
C527 C524 1.403 . S
C527 C528 1.392 . S
C527 C531 1.495 . S
C528 C527 1.392 . S
C528 C529 1.385 . S
C528 C530 1.478 . S
C529 H523 0.930 . S
C529 C525 1.400 . S
C529 C528 1.385 . S
C530 C528 1.478 . S
C530 C532 1.381 . S
C530 C536 1.383 . S
C531 C527 1.495 . S
C531 H537 0.959 . S
C531 H538 0.961 . S
C531 H539 0.960 . S
C532 C530 1.381 . S
C532 C533 1.394 . S
C532 H540 0.930 . S
C533 C532 1.394 . S
C533 C534 1.383 . S
C533 H541 0.929 . S
C534 C533 1.383 . S
C534 C535 1.377 . S
C535 H519 0.930 . S
C535 C534 1.377 . S
C535 C536 1.379 . S
C536 H520 0.931 . S
C536 C530 1.383 . S
C536 C535 1.379 . S
H537 C531 0.959 . S
H538 C531 0.961 . S
H539 C531 0.960 . S
H540 C532 0.930 . S
H541 C533 0.929 . S
C119 C0 1.625 . S
C138 C87 1.436 . S
C155 C42 1.742 . S
C174 C93 1.562 . S
C191 C17 1.629 . S
C210 C84 1.525 . S
C227 C63 1.482 . S
C246 C109 1.362 . S
C263 C13 1.195 . S
C282 C75 1.073 . S
C318 C92 1.136 . S
C299 C38 1.227 . S
C335 C34 1.627 . S
C354 C88 1.470 . S
C390 C105 1.098 . S
C371 C4 1.223 . S
C426 C72 1.113 . S
C407 C47 1.194 . S
C462 C108 1.284 . S
C443 C29 1.482 . S
C498 C71 1.502 . S
C479 C51 1.629 . S
C534 C96 1.550 . S
C515 C8 1.743 . S
