# Generated by pormake.
# Topology zzz, (3,6)-cn, num edge types: 1
# Building blocks:
#     Node 0, Type 0, BuildingBlock: OLANEW_clean_sbu_2, # of connection points: 3
#     Node 1, Type 0, BuildingBlock: OLANEW_clean_sbu_2, # of connection points: 3
#     Node 2, Type 0, BuildingBlock: OLANEW_clean_sbu_2, # of connection points: 3
#     Node 3, Type 0, BuildingBlock: OLANEW_clean_sbu_2, # of connection points: 3
#     Node 4, Type 0, BuildingBlock: OLANEW_clean_sbu_2, # of connection points: 3
#     Node 5, Type 0, BuildingBlock: OLANEW_clean_sbu_2, # of connection points: 3
#     Node 6, Type 0, BuildingBlock: OLANEW_clean_sbu_2, # of connection points: 3
#     Node 7, Type 0, BuildingBlock: OLANEW_clean_sbu_2, # of connection points: 3
#     Node 8, Type 1, BuildingBlock: JUFBIX_clean_sbu_0, # of connection points: 6
#     Node 9, Type 1, BuildingBlock: JUFBIX_clean_sbu_0, # of connection points: 6
#     Node 10, Type 1, BuildingBlock: JUFBIX_clean_sbu_0, # of connection points: 6
#     Node 11, Type 1, BuildingBlock: JUFBIX_clean_sbu_0, # of connection points: 6
#     Edge 12, Type (0, 1), BuildingBlock: KIFKEQ_clean_linker_1, # of connection points: 2
#     Edge 13, Type (0, 1), BuildingBlock: KIFKEQ_clean_linker_1, # of connection points: 2
#     Edge 14, Type (0, 1), BuildingBlock: KIFKEQ_clean_linker_1, # of connection points: 2
#     Edge 15, Type (0, 1), BuildingBlock: KIFKEQ_clean_linker_1, # of connection points: 2
#     Edge 16, Type (0, 1), BuildingBlock: KIFKEQ_clean_linker_1, # of connection points: 2
#     Edge 17, Type (0, 1), BuildingBlock: KIFKEQ_clean_linker_1, # of connection points: 2
#     Edge 18, Type (0, 1), BuildingBlock: KIFKEQ_clean_linker_1, # of connection points: 2
#     Edge 19, Type (0, 1), BuildingBlock: KIFKEQ_clean_linker_1, # of connection points: 2
#     Edge 20, Type (0, 1), BuildingBlock: KIFKEQ_clean_linker_1, # of connection points: 2
#     Edge 21, Type (0, 1), BuildingBlock: KIFKEQ_clean_linker_1, # of connection points: 2
#     Edge 22, Type (0, 1), BuildingBlock: KIFKEQ_clean_linker_1, # of connection points: 2
#     Edge 23, Type (0, 1), BuildingBlock: KIFKEQ_clean_linker_1, # of connection points: 2
#     Edge 24, Type (0, 1), BuildingBlock: KIFKEQ_clean_linker_1, # of connection points: 2
#     Edge 25, Type (0, 1), BuildingBlock: KIFKEQ_clean_linker_1, # of connection points: 2
#     Edge 26, Type (0, 1), BuildingBlock: KIFKEQ_clean_linker_1, # of connection points: 2
#     Edge 27, Type (0, 1), BuildingBlock: KIFKEQ_clean_linker_1, # of connection points: 2
#     Edge 28, Type (0, 1), BuildingBlock: KIFKEQ_clean_linker_1, # of connection points: 2
#     Edge 29, Type (0, 1), BuildingBlock: KIFKEQ_clean_linker_1, # of connection points: 2
#     Edge 30, Type (0, 1), BuildingBlock: KIFKEQ_clean_linker_1, # of connection points: 2
#     Edge 31, Type (0, 1), BuildingBlock: KIFKEQ_clean_linker_1, # of connection points: 2
#     Edge 32, Type (0, 1), BuildingBlock: KIFKEQ_clean_linker_1, # of connection points: 2
#     Edge 33, Type (0, 1), BuildingBlock: KIFKEQ_clean_linker_1, # of connection points: 2
#     Edge 34, Type (0, 1), BuildingBlock: KIFKEQ_clean_linker_1, # of connection points: 2
#     Edge 35, Type (0, 1), BuildingBlock: KIFKEQ_clean_linker_1, # of connection points: 2
# Relax obj value: 0.116
# Max RMSD: 0.177
# Mean RMSD: 0.088
data_MOF--net-zzz--node1-OLANEW_clean_sbu_2--node2-JUFBIX_clean_sbu_0--edge1-KIFKEQ_clean_linker_1
_symmetry_space_group_name_H-M    P1
_symmetry_Int_Tables_number       1
_symmetry_cell_setting            triclinic
loop_
_symmetry_equiv_pos_as_xyz
'x, y, z'
_cell_length_a     56.075979
_cell_length_b     55.428836
_cell_length_c     19.614555
_cell_angle_alpha  82.018513
_cell_angle_beta   89.866199
_cell_angle_gamma 91.804038
loop_
_atom_site_label
_atom_site_type_symbol
_atom_site_fract_x
_atom_site_fract_y
_atom_site_fract_z
_atom_type_partial_charge
O0 O 0.81473 0.59554 0.02095 0.0
Cd1 Cd 0.77927 0.61174 0.06681 0.0
O2 O 0.8138 0.56962 0.11597 0.0
Cd3 Cd 0.83077 0.54245 0.18922 0.0
O4 O 0.85617 0.52999 0.26886 0.0
C5 C 0.87591 0.54192 0.26829 0.0
O6 O 0.88011 0.56017 0.21895 0.0
C7 C 0.82335 0.57727 0.05787 0.0
C8 C 0.74084 0.5832 0.0321 0.0
O9 O 0.74648 0.60352 0.99521 0.0
O10 O 0.75294 0.57676 0.08657 0.0
O11 O 0.89596 0.79671 0.96879 0.0
Cd12 Cd 0.87797 0.75701 0.01246 0.0
O13 O 0.91022 0.79854 0.07173 0.0
Cd14 Cd 0.93129 0.81258 0.15259 0.0
O15 O 0.94721 0.83523 0.22427 0.0
C16 C 0.9353 0.85269 0.2409 0.0
O17 O 0.91385 0.85617 0.21527 0.0
C18 C 0.90843 0.808 0.00896 0.0
C19 C 0.90487 0.72132 0.96489 0.0
O20 O 0.88642 0.72956 0.93211 0.0
O21 O 0.91028 0.72963 0.02086 0.0
O22 O 0.7358 0.01183 0.95138 0.0
Cd23 Cd 0.77461 0.00161 0.00056 0.0
O24 O 0.72527 0.01258 0.05847 0.0
Cd25 Cd 0.69954 0.0135 0.1418 0.0
O26 O 0.67254 0.01501 0.22106 0.0
C27 C 0.66369 0.99553 0.2547 0.0
O28 O 0.6711 0.97442 0.24129 0.0
C29 C 0.7198 0.01484 0.99505 0.0
C30 C 0.81308 0.01343 0.91108 0.0
O31 O 0.80225 0.99255 0.9154 0.0
O32 O 0.80531 0.02891 0.94796 0.0
O33 O 0.60269 0.71554 0.99026 0.0
Cd34 Cd 0.62065 0.75266 0.02501 0.0
O35 O 0.59483 0.70309 0.09924 0.0
Cd36 Cd 0.58334 0.67544 0.18464 0.0
O37 O 0.57166 0.64696 0.26727 0.0
C38 C 0.58597 0.63947 0.31515 0.0
O39 O 0.60772 0.64908 0.31385 0.0
C40 C 0.59399 0.69938 0.03672 0.0
C41 C 0.59513 0.79446 0.98264 0.0
O42 O 0.61215 0.78827 0.94558 0.0
O43 O 0.59001 0.78072 0.03919 0.0
O44 O 0.21249 0.49001 0.48343 0.0
Cd45 Cd 0.24975 0.48441 0.42511 0.0
O46 O 0.19725 0.45867 0.43996 0.0
Cd47 Cd 0.16618 0.43769 0.4121 0.0
O48 O 0.1359 0.43681 0.34347 0.0
C49 C 0.12217 0.45475 0.33882 0.0
O50 O 0.12589 0.47156 0.37906 0.0
C51 C 0.19491 0.47557 0.47683 0.0
C52 C 0.28724 0.49296 0.51147 0.0
O53 O 0.2791 0.51025 0.46847 0.0
O54 O 0.27787 0.47151 0.51261 0.0
O55 O 0.12474 0.21849 0.57263 0.0
Cd56 Cd 0.13785 0.2605 0.53496 0.0
O57 O 0.12148 0.21163 0.46542 0.0
Cd58 Cd 0.11417 0.18812 0.38625 0.0
O59 O 0.10664 0.16244 0.31316 0.0
C60 C 0.08744 0.14953 0.32028 0.0
O61 O 0.07273 0.15225 0.37066 0.0
C62 C 0.11898 0.20426 0.52951 0.0
C63 C 0.10818 0.29116 0.59497 0.0
O64 O 0.10284 0.28399 0.53737 0.0
O65 O 0.12778 0.28416 0.62359 0.0
O66 O 0.29451 0.8897 0.78953 0.0
Cd67 Cd 0.25776 0.86746 0.76839 0.0
O68 O 0.30017 0.89917 0.67805 0.0
Cd69 Cd 0.31978 0.91841 0.58869 0.0
O70 O 0.34361 0.93683 0.50795 0.0
C71 C 0.34681 0.92744 0.45322 0.0
O72 O 0.33534 0.90693 0.44591 0.0
C73 C 0.30708 0.90017 0.73938 0.0
C74 C 0.21837 0.89631 0.77593 0.0
O75 O 0.22543 0.88233 0.82914 0.0
O76 O 0.22992 0.89654 0.71936 0.0
O77 O 0.42628 0.29418 0.7039 0.0
Cd78 Cd 0.40507 0.25775 0.67498 0.0
O79 O 0.42294 0.30943 0.59536 0.0
Cd80 Cd 0.42922 0.33628 0.50366 0.0
O81 O 0.43652 0.36263 0.41193 0.0
C82 C 0.45327 0.37859 0.41233 0.0
O83 O 0.46579 0.37907 0.46871 0.0
C84 C 0.42989 0.31182 0.65586 0.0
C85 C 0.42699 0.21399 0.72086 0.0
O86 O 0.43288 0.22668 0.66326 0.0
O87 O 0.41097 0.2222 0.7575 0.0
Co88 Co 0.02464 0.00607 0.82023 0.0
C89 C 0.9807 0.01792 0.75945 0.0
Co90 Co 0.02009 0.99638 0.71524 0.0
C91 C 0.04201 0.02861 0.93723 0.0
C92 C 0.01033 0.00636 0.95997 0.0
N93 N 0.02634 0.01378 0.90934 0.0
N94 N 0.03639 0.03058 0.00327 0.0
C95 C 0.0165 0.01653 0.0176 0.0
H96 H 0.05703 0.03803 0.90936 0.0
H97 H 0.99467 0.9949 0.95477 0.0
C98 C 0.06377 0.98388 0.7765 0.0
N99 N 0.01825 0.98859 0.62629 0.0
C100 C 0.00301 0.97283 0.60061 0.0
C101 C 0.03379 0.99609 0.57452 0.0
N102 N 0.00859 0.96999 0.53515 0.0
C103 C 0.02788 0.98478 0.51857 0.0
C104 C 0.04041 0.04282 0.7202 0.0
O105 O 0.05551 0.99261 0.82809 0.0
O106 O 0.05116 0.98417 0.72265 0.0
O107 O 0.03299 0.02794 0.68057 0.0
O108 O 0.0385 0.03685 0.7849 0.0
O109 O 0.98875 0.00847 0.70891 0.0
H110 H 0.04895 0.00841 0.57786 0.0
H111 H 0.98874 0.96281 0.63044 0.0
O112 O 0.99387 0.01923 0.81157 0.0
O113 O 0.01055 0.97521 0.85461 0.0
O114 O 0.00723 0.96498 0.75103 0.0
C115 C 0.00399 0.95987 0.81554 0.0
H116 H 0.00648 0.01458 0.06539 0.0
H117 H 0.03734 0.98703 0.46984 0.0
Co118 Co 0.50011 0.00019 0.91002 0.0
C119 C 0.51946 0.95796 0.87297 0.0
Co120 Co 0.50875 0.00216 0.79934 0.0
C121 C 0.47159 0.99674 0.03444 0.0
C122 C 0.50862 0.99174 0.05584 0.0
N123 N 0.49322 0.99717 0.00368 0.0
N124 N 0.47283 0.99091 0.10356 0.0
C125 C 0.49619 0.98796 0.11711 0.0
H126 H 0.45514 0.99986 0.00637 0.0
H127 H 0.52754 0.98939 0.04959 0.0
C128 C 0.48958 0.04447 0.83638 0.0
N129 N 0.51541 0.00493 0.70615 0.0
C130 C 0.53581 9e-05 0.6748 0.0
C131 C 0.5007 0.01327 0.65451 0.0
N132 N 0.53448 0.00521 0.60554 0.0
C133 C 0.51235 0.01346 0.5927 0.0
C134 C 0.46282 0.98471 0.83236 0.0
O135 O 0.48878 0.03255 0.89671 0.0
O136 O 0.49778 0.03447 0.7871 0.0
O137 O 0.47762 0.99017 0.78322 0.0
O138 O 0.46903 0.98766 0.89292 0.0
O139 O 0.51971 0.96975 0.81254 0.0
H140 H 0.48274 0.01911 0.66143 0.0
H141 H 0.55154 0.99355 0.70249 0.0
O142 O 0.51154 0.96799 0.92258 0.0
O143 O 0.53139 0.01246 0.92562 0.0
O144 O 0.53999 0.01397 0.81604 0.0
C145 C 0.5464 0.01689 0.87649 0.0
H146 H 0.50367 0.98201 0.16722 0.0
H147 H 0.50502 0.0192 0.54228 0.0
Co148 Co 0.53298 0.49586 0.8571 0.0
C149 C 0.50135 0.48243 0.96707 0.0
Co150 Co 0.49746 0.51165 0.84269 0.0
C151 C 0.58362 0.49635 0.86669 0.0
C152 C 0.56854 0.46123 0.90609 0.0
N153 N 0.56285 0.48335 0.87364 0.0
N154 N 0.60197 0.48354 0.89508 0.0
C155 C 0.59263 0.46138 0.92001 0.0
H156 H 0.58489 0.51558 0.84672 0.0
H157 H 0.55575 0.44656 0.9228 0.0
C158 C 0.52911 0.52533 0.73298 0.0
N159 N 0.46771 0.5247 0.8257 0.0
C160 C 0.44707 0.51259 0.81571 0.0
C161 C 0.46277 0.54847 0.80987 0.0
N162 N 0.4296 0.52776 0.7925 0.0
C163 C 0.43937 0.55041 0.78957 0.0
C164 C 0.52886 0.54114 0.90319 0.0
O165 O 0.54325 0.51139 0.76901 0.0
O166 O 0.50825 0.52787 0.75588 0.0
O167 O 0.50734 0.5392 0.88434 0.0
O168 O 0.5429 0.52413 0.89613 0.0
O169 O 0.48679 0.49541 0.92957 0.0
H170 H 0.47573 0.5634 0.80869 0.0
H171 H 0.4452 0.49292 0.82221 0.0
O172 O 0.52247 0.48055 0.94518 0.0
O173 O 0.523 0.46772 0.81807 0.0
O174 O 0.48799 0.48386 0.80104 0.0
C175 C 0.50175 0.4664 0.79619 0.0
H176 H 0.60224 0.44687 0.94952 0.0
H177 H 0.43083 0.56711 0.7692 0.0
Co178 Co 0.00844 0.5206 0.79333 0.0
C179 C 0.02401 0.49141 0.91098 0.0
Co180 Co -0.00129 0.48151 0.79751 0.0
C181 C 0.99695 0.57041 0.79068 0.0
C182 C 0.03354 0.56493 0.81715 0.0
N183 N 0.01389 0.55354 0.79612 0.0
N184 N 0.00483 0.59169 0.81004 0.0
C185 C 0.02803 0.58838 0.82581 0.0
H186 H 0.97875 0.56654 0.77655 0.0
H187 H 0.05023 0.55622 0.83027 0.0
C188 C 0.98283 0.5103 0.68029 0.0
N189 N 0.99331 0.44857 0.7945 0.0
C190 C 0.01056 0.43205 0.79873 0.0
C191 C 0.97385 0.437 0.77297 0.0
N192 N 0.00312 0.41087 0.77787 0.0
C193 C 0.97983 0.41382 0.76263 0.0
C194 C 0.96416 0.50501 0.85543 0.0
O195 O 0.99329 0.52758 0.70614 0.0
O196 O 0.9831 0.4888 0.71246 0.0
O197 O 0.9691 0.48358 0.84501 0.0
O198 O 0.97889 0.52251 0.83723 0.0
O199 O 0.01431 0.47437 0.88266 0.0
H200 H 0.95704 0.44549 0.76015 0.0
H201 H 0.02871 0.43624 0.81263 0.0
O202 O 0.0234 0.51322 0.88073 0.0
O203 O 0.03794 0.51859 0.74894 0.0
O204 O 0.02825 0.47997 0.74922 0.0
C205 C 0.04284 0.49788 0.73309 0.0
H206 H 0.03976 0.60123 0.84719 0.0
H207 H 0.96837 0.40102 0.74014 0.0
H208 H 0.18737 0.8964 0.88391 0.0
H209 H 0.20154 0.93036 0.67526 0.0
H210 H 0.15101 0.91935 0.88597 0.0
H211 H 0.16561 0.95372 0.67797 0.0
H212 H 0.08528 0.96387 0.67435 0.0
H213 H 0.12344 0.94445 0.67698 0.0
H214 H 0.13476 0.9599 0.88464 0.0
H215 H 0.09596 0.97903 0.88265 0.0
C216 C 0.18287 0.90896 0.83878 0.0
C217 C 0.19719 0.91136 0.77914 0.0
C218 C 0.16212 0.92224 0.84015 0.0
C219 C 0.15531 0.93823 0.78196 0.0
C220 C 0.1701 0.94121 0.72321 0.0
C221 C 0.19076 0.92788 0.72174 0.0
C222 C 0.09588 0.96325 0.72063 0.0
C223 C 0.08753 0.97298 0.77839 0.0
C224 C 0.11789 0.95225 0.7219 0.0
C225 C 0.13223 0.95073 0.78086 0.0
C226 C 0.12403 0.96061 0.83862 0.0
C227 C 0.10188 0.97166 0.83738 0.0
H228 H 0.46494 0.19452 0.66312 0.0
H229 H 0.41326 0.17943 0.82842 0.0
H230 H 0.48118 0.15434 0.6949 0.0
H231 H 0.42897 0.13885 0.85886 0.0
H232 H 0.47574 0.07397 0.92983 0.0
H233 H 0.46211 0.11573 0.90569 0.0
H234 H 0.46975 0.11317 0.68749 0.0
H235 H 0.48399 0.07199 0.71159 0.0
C236 C 0.45704 0.18261 0.70628 0.0
C237 C 0.43772 0.19012 0.74299 0.0
C238 C 0.46625 0.15949 0.72427 0.0
C239 C 0.45623 0.14319 0.77902 0.0
C240 C 0.43729 0.15097 0.81686 0.0
C241 C 0.42819 0.17421 0.79917 0.0
C242 C 0.47455 0.08239 0.87677 0.0
C243 C 0.48103 0.06968 0.82269 0.0
C244 C 0.46664 0.10629 0.86288 0.0
C245 C 0.46494 0.11792 0.79461 0.0
C246 C 0.4713 0.10505 0.74072 0.0
C247 C 0.47932 0.08131 0.75457 0.0
H248 H 0.31079 0.53625 0.52061 0.0
H249 H 0.30773 0.46034 0.60951 0.0
H250 H 0.34362 0.54383 0.59673 0.0
H251 H 0.34029 0.46806 0.68659 0.0
H252 H 0.41884 0.48668 0.73653 0.0
H253 H 0.38289 0.47786 0.675 0.0
H254 H 0.35342 0.5453 0.71781 0.0
H255 H 0.38964 0.55419 0.77993 0.0
C256 C 0.31702 0.52121 0.55671 0.0
C257 C 0.30678 0.49766 0.55871 0.0
C258 C 0.33569 0.52561 0.60076 0.0
C259 C 0.34451 0.50655 0.64775 0.0
C260 C 0.33403 0.48306 0.65043 0.0
C261 C 0.31536 0.47866 0.60638 0.0
C262 C 0.40455 0.4994 0.73446 0.0
C263 C 0.40719 0.52123 0.7631 0.0
C264 C 0.38389 0.49434 0.69892 0.0
C265 C 0.36537 0.51095 0.69116 0.0
C266 C 0.36758 0.53234 0.72197 0.0
C267 C 0.38827 0.53741 0.75761 0.0
H268 H 0.11688 0.31361 0.70834 0.0
H269 H 0.06319 0.30441 0.5555 0.0
H270 H 0.09081 0.34056 0.76028 0.0
H271 H 0.0372 0.33143 0.60748 0.0
H272 H 0.98912 0.36502 0.75647 0.0
H273 H 0.01403 0.33428 0.71691 0.0
H274 H 0.07595 0.38224 0.72167 0.0
H275 H 0.05143 0.41299 0.7591 0.0
C276 C 0.09949 0.31726 0.68598 0.0
C277 C 0.09216 0.30701 0.62751 0.0
C278 C 0.0846 0.33271 0.71567 0.0
C279 C 0.06199 0.33808 0.68791 0.0
C280 C 0.05443 0.3274 0.63042 0.0
C281 C 0.0694 0.31211 0.60033 0.0
C282 C 0.00803 0.36904 0.7492 0.0
C283 C 0.01805 0.39167 0.76115 0.0
C284 C 0.02229 0.3514 0.7266 0.0
C285 C 0.04692 0.35589 0.71624 0.0
C286 C 0.05708 0.37811 0.73017 0.0
C287 C 0.04286 0.39579 0.75202 0.0
H288 H 0.83585 0.98313 0.83556 0.0
H289 H 0.84011 0.05577 0.89208 0.0
H290 H 0.87521 0.98952 0.78254 0.0
H291 H 0.87935 0.06236 0.83754 0.0
H292 H 0.95974 0.04244 0.85326 0.0
H293 H 0.91737 0.04562 0.87376 0.0
H294 H 0.90166 0.01114 0.69377 0.0
H295 H 0.94437 0.00752 0.67383 0.0
C296 C 0.84495 0.00067 0.83529 0.0
C297 C 0.83503 0.01879 0.86905 0.0
C298 C 0.86747 0.00442 0.80435 0.0
C299 C 0.88053 0.02639 0.80638 0.0
C300 C 0.86989 0.0451 0.83609 0.0
C301 C 0.84738 0.04134 0.86716 0.0
C302 C 0.9473 0.03601 0.81709 0.0
C303 C 0.95541 0.02444 0.76244 0.0
C304 C 0.92295 0.03799 0.8286 0.0
C305 C 0.9061 0.02842 0.78575 0.0
C306 C 0.91422 0.01838 0.72822 0.0
C307 C 0.93867 0.01647 0.71652 0.0
H308 H 0.60595 0.83065 0.87654 0.0
H309 H 0.55533 0.80984 0.04226 0.0
H310 H 0.58651 0.86942 0.84789 0.0
H311 H 0.53539 0.84823 0.01227 0.0
H312 H 0.52563 0.93024 0.9974 0.0
H313 H 0.54274 0.89024 0.02054 0.0
H314 H 0.55135 0.88901 0.802 0.0
H315 H 0.53485 0.92954 0.77888 0.0
C316 C 0.59047 0.83422 0.90629 0.0
C317 C 0.58229 0.81724 0.96201 0.0
C318 C 0.57923 0.85641 0.88961 0.0
C319 C 0.55944 0.86206 0.92799 0.0
C320 C 0.55086 0.84471 0.98243 0.0
C321 C 0.56221 0.82262 0.99941 0.0
C322 C 0.53106 0.92142 0.95418 0.0
C323 C 0.5289 0.93311 0.88627 0.0
C324 C 0.54075 0.89836 0.96746 0.0
C325 C 0.54839 0.8863 0.91316 0.0
C326 C 0.54594 0.89788 0.84511 0.0
C327 C 0.53635 0.92106 0.83181 0.0
H328 H 0.70532 0.59567 0.94064 0.0
H329 H 0.7327 0.53474 0.07582 0.0
H330 H 0.67346 0.56944 0.90527 0.0
H331 H 0.70154 0.50809 0.03797 0.0
H332 H 0.62562 0.47585 0.01529 0.0
H333 H 0.66042 0.49902 0.04757 0.0
H334 H 0.66477 0.53783 0.84048 0.0
H335 H 0.6292 0.51527 0.80987 0.0
C336 C 0.70462 0.57659 0.96233 0.0
C337 C 0.7214 0.56728 0.01121 0.0
C338 C 0.6865 0.56144 0.94154 0.0
C339 C 0.68497 0.53652 0.96827 0.0
C340 C 0.70192 0.52722 0.01695 0.0
C341 C 0.71983 0.54248 0.03856 0.0
C342 C 0.6344 0.48896 0.97647 0.0
C343 C 0.62481 0.49388 0.91019 0.0
C344 C 0.65435 0.5023 0.99485 0.0
C345 C 0.6653 0.52059 0.94692 0.0
C346 C 0.65644 0.52439 0.87931 0.0
C347 C 0.63627 0.51133 0.8614 0.0
H348 H 0.94852 0.70592 0.0107 0.0
H349 H 0.89483 0.69553 0.85883 0.0
H350 H 0.97302 0.67574 0.96695 0.0
H351 H 0.91939 0.66535 0.8152 0.0
H352 H 0.95657 0.59105 0.82895 0.0
H353 H 0.93287 0.62342 0.86133 0.0
H354 H 0.99602 0.67009 0.85926 0.0
H355 H 0.02002 0.63776 0.82491 0.0
C356 C 0.94196 0.69721 0.96798 0.0
C357 C 0.91969 0.70303 0.9384 0.0
C358 C 0.95608 0.6801 0.94259 0.0
C359 C 0.94813 0.66827 0.88759 0.0
C360 C 0.92589 0.6741 0.85793 0.0
C361 C 0.91187 0.6914 0.88283 0.0
C362 C 0.96554 0.60828 0.83361 0.0
C363 C 0.99042 0.61163 0.82407 0.0
C364 C 0.95183 0.62687 0.85255 0.0
C365 C 0.9626 0.64923 0.86303 0.0
C366 C 0.98731 0.65289 0.85231 0.0
C367 C 0.00105 0.63434 0.83268 0.0
H368 H 0.08258 0.18028 0.47341 0.0
H369 H 0.13131 0.17397 0.64427 0.0
H370 H 0.06381 0.141 0.51852 0.0
H371 H 0.11274 0.1345 0.68956 0.0
H372 H 0.05628 0.07955 0.78989 0.0
H373 H 0.07574 0.11817 0.74241 0.0
H374 H 0.07054 0.09781 0.53796 0.0
H375 H 0.05053 0.05946 0.5852 0.0
C376 C 0.08974 0.17009 0.51947 0.0
C377 C 0.10877 0.17979 0.55438 0.0
C378 C 0.07889 0.14767 0.54567 0.0
C379 C 0.08682 0.13454 0.60752 0.0
C380 C 0.106 0.14427 0.64223 0.0
C381 C 0.11675 0.16675 0.61613 0.0
C382 C 0.05922 0.08334 0.73478 0.0
C383 C 0.0518 0.06646 0.6913 0.0
C384 C 0.07055 0.10541 0.70761 0.0
C385 C 0.0748 0.11105 0.63639 0.0
C386 C 0.0673 0.09417 0.59294 0.0
C387 C 0.0559 0.07214 0.62007 0.0
H388 H 0.3493 0.90114 0.67018 0.0
H389 H 0.31526 0.92819 0.84066 0.0
H390 H 0.38623 0.92287 0.69268 0.0
H391 H 0.35215 0.95035 0.863 0.0
H392 H 0.42982 0.96365 0.92696 0.0
H393 H 0.39181 0.94376 0.90459 0.0
H394 H 0.40377 0.96292 0.68565 0.0
H395 H 0.44208 0.98201 0.70801 0.0
C396 C 0.34961 0.91223 0.71149 0.0
C397 C 0.32934 0.91348 0.75272 0.0
C398 C 0.37078 0.92463 0.72461 0.0
C399 C 0.37213 0.93858 0.77928 0.0
C400 C 0.35182 0.93962 0.82089 0.0
C401 C 0.33068 0.92704 0.80799 0.0
C402 C 0.42426 0.9637 0.87408 0.0
C403 C 0.43902 0.97422 0.81924 0.0
C404 C 0.40241 0.95241 0.86123 0.0
C405 C 0.39479 0.95159 0.79327 0.0
C406 C 0.4093 0.96276 0.73857 0.0
C407 C 0.43121 0.97385 0.75139 0.0
H408 H 0.46348 0.31681 0.75335 0.0
H409 H 0.42248 0.35845 0.59509 0.0
H410 H 0.48198 0.35448 0.78248 0.0
H411 H 0.44192 0.39592 0.62112 0.0
H412 H 0.45696 0.45782 0.74923 0.0
H413 H 0.4408 0.4207 0.71179 0.0
H414 H 0.5096 0.38796 0.74188 0.0
H415 H 0.52568 0.42506 0.78126 0.0
C416 C 0.45875 0.33399 0.72397 0.0
C417 C 0.44196 0.3346 0.67077 0.0
C418 C 0.46949 0.35556 0.74021 0.0
C419 C 0.46356 0.37825 0.70385 0.0
C420 C 0.44685 0.37879 0.65035 0.0
C421 C 0.43606 0.35723 0.63435 0.0
C422 C 0.46872 0.44279 0.74751 0.0
C423 C 0.4926 0.44439 0.76853 0.0
C424 C 0.45948 0.42151 0.72557 0.0
C425 C 0.47389 0.4013 0.72385 0.0
C426 C 0.49793 0.40308 0.74347 0.0
C427 C 0.50719 0.42439 0.7656 0.0
H428 H 0.17411 0.51827 0.49067 0.0
H429 H 0.16457 0.4403 0.54037 0.0
H430 H 0.13672 0.52384 0.54942 0.0
H431 H 0.12788 0.44562 0.6023 0.0
H432 H 0.05242 0.46114 0.65925 0.0
H433 H 0.08825 0.45624 0.5932 0.0
H434 H 0.11954 0.52164 0.65803 0.0
H435 H 0.08304 0.52723 0.7206 0.0
C436 C 0.16396 0.50234 0.51445 0.0
C437 C 0.17197 0.47887 0.51038 0.0
C438 C 0.14264 0.50548 0.54867 0.0
C439 C 0.12918 0.48519 0.58107 0.0
C440 C 0.13737 0.46169 0.57684 0.0
C441 C 0.15844 0.45858 0.54145 0.0
C442 C 0.06697 0.47449 0.65919 0.0
C443 C 0.06493 0.49461 0.6949 0.0
C444 C 0.08762 0.4716 0.62164 0.0
C445 C 0.10694 0.48852 0.62004 0.0
C446 C 0.10491 0.50851 0.65662 0.0
C447 C 0.08406 0.51164 0.69307 0.0
H448 H 0.92358 0.84594 0.07699 0.0
H449 H 0.92157 0.82287 0.87587 0.0
H450 H 0.94866 0.88084 0.03266 0.0
H451 H 0.944 0.85958 0.82876 0.0
H452 H 0.00341 0.91549 0.76979 0.0
H453 H 0.98075 0.87875 0.81784 0.0
H454 H 0.95015 0.9183 0.97061 0.0
H455 H 0.97431 0.95402 0.92584 0.0
C456 C 0.92884 0.84804 0.02357 0.0
C457 C 0.92158 0.83086 0.98102 0.0
C458 C 0.94266 0.86864 0.99722 0.0
C459 C 0.94876 0.87319 0.92676 0.0
C460 C 0.94045 0.8565 0.88359 0.0
C461 C 0.92721 0.83554 0.91047 0.0
C462 C 0.992 0.91606 0.81415 0.0
C463 C 0.99078 0.93741 0.84466 0.0
C464 C 0.97876 0.89511 0.8414 0.0
C465 C 0.96342 0.89531 0.89845 0.0
C466 C 0.96213 0.91697 0.92808 0.0
C467 C 0.9759 0.93761 0.90213 0.0
H468 H 0.69666 0.99754 0.88948 0.0
H469 H 0.68739 0.0431 0.04839 0.0
H470 H 0.65489 0.00223 0.85757 0.0
H471 H 0.64555 0.04786 0.01674 0.0
H472 H 0.56708 0.01945 0.0014 0.0
H473 H 0.60948 0.02241 0.0261 0.0
H474 H 0.62549 0.03035 0.80836 0.0
H475 H 0.58305 0.02677 0.78366 0.0
C476 C 0.6857 0.00873 0.91719 0.0
C477 C 0.69503 0.01936 0.97272 0.0
C478 C 0.6618 0.01155 0.89872 0.0
C479 C 0.6468 0.02527 0.93501 0.0
C480 C 0.65648 0.03673 0.98877 0.0
C481 C 0.68038 0.03385 0.00728 0.0
C482 C 0.5796 0.02222 0.95869 0.0
C483 C 0.57169 0.02265 0.89061 0.0
C484 C 0.60394 0.02402 0.97284 0.0
C485 C 0.62091 0.02637 0.91923 0.0
C486 C 0.6129 0.02809 0.8509 0.0
C487 C 0.58856 0.02623 0.83674 0.0
H488 H 0.60992 0.67391 0.93785 0.0
H489 H 0.55489 0.67321 0.09237 0.0
H490 H 0.59389 0.63512 0.90855 0.0
H491 H 0.53914 0.63418 0.06428 0.0
H492 H 0.50331 0.57978 0.93215 0.0
H493 H 0.51883 0.61805 0.96571 0.0
H494 H 0.59044 0.59165 0.96422 0.0
H495 H 0.57504 0.55344 0.93052 0.0
C496 C 0.59445 0.66538 0.96567 0.0
C497 C 0.58394 0.67624 0.01834 0.0
C498 C 0.58539 0.64313 0.94932 0.0
C499 C 0.56541 0.63151 0.98465 0.0
C500 C 0.55458 0.64269 0.03628 0.0
C501 C 0.56378 0.66484 0.05301 0.0
C502 C 0.52234 0.58206 0.93955 0.0
C503 C 0.53794 0.56358 0.9286 0.0
C504 C 0.53121 0.60395 0.95894 0.0
C505 C 0.55586 0.60788 0.96718 0.0
C506 C 0.57139 0.58925 0.95738 0.0
C507 C 0.56253 0.5673 0.93857 0.0
H508 H 0.8319 0.52867 0.07408 0.0
H509 H 0.86129 0.59887 0.98475 0.0
H510 H 0.86481 0.50862 0.02544 0.0
H511 H 0.89459 0.5791 0.93797 0.0
H512 H 0.93573 0.53983 0.79809 0.0
H513 H 0.90112 0.5558 0.84885 0.0
H514 H 0.9069 0.50117 0.02787 0.0
H515 H 0.94127 0.48445 0.97442 0.0
C516 C 0.84576 0.53982 0.04545 0.0
C517 C 0.84422 0.56531 0.03351 0.0
C518 C 0.86457 0.52834 0.01741 0.0
C519 C 0.88224 0.54218 0.97704 0.0
C520 C 0.88098 0.56778 0.96718 0.0
C521 C 0.86203 0.57918 0.9944 0.0
C522 C 0.92925 0.53094 0.8477 0.0
C523 C 0.94099 0.51096 0.88252 0.0
C524 C 0.90963 0.54028 0.87731 0.0
C525 C 0.90156 0.53022 0.94334 0.0
C526 C 0.91263 0.50936 0.9769 0.0
C527 C 0.93221 0.4997 0.94643 0.0
H528 H 0.11307 0.14001 0.20816 0.0
H529 H 0.04869 0.11838 0.32543 0.0
H530 H 0.10326 0.11011 0.13106 0.0
H531 H 0.03878 0.08895 0.24807 0.0
H532 H 0.03823 0.02235 0.14197 0.0
H533 H 0.05254 0.05056 0.21861 0.0
H534 H 0.07377 0.10265 0.04263 0.0
H535 H 0.0595 0.07422 0.96582 0.0
C536 C 0.09683 0.12892 0.21745 0.0
C537 C 0.08167 0.13156 0.27301 0.0
C538 C 0.09117 0.11187 0.1731 0.0
C539 C 0.07032 0.09705 0.18364 0.0
C540 C 0.0552 0.09977 0.23918 0.0
C541 C 0.0608 0.11679 0.28329 0.0
C542 C 0.04602 0.03979 0.11965 0.0
C543 C 0.04747 0.04617 0.04787 0.0
C544 C 0.05419 0.05597 0.16353 0.0
C545 C 0.06395 0.079 0.13673 0.0
C546 C 0.06644 0.08499 0.06492 0.0
C547 C 0.0583 0.06871 0.02089 0.0
H548 H 0.37386 0.96953 0.45265 0.0
H549 H 0.3584 0.91133 0.33233 0.0
H550 H 0.40288 0.98754 0.36587 0.0
H551 H 0.38771 0.929 0.24657 0.0
H552 H 0.4276 0.97611 0.0759 0.0
H553 H 0.39573 0.96335 0.15857 0.0
H554 H 0.44194 0.97879 0.32412 0.0
H555 H 0.47352 0.99257 0.24104 0.0
C556 C 0.37661 0.96059 0.40767 0.0
C557 C 0.36384 0.93894 0.39955 0.0
C558 C 0.39334 0.97086 0.35809 0.0
C559 C 0.39766 0.95972 0.29924 0.0
C560 C 0.3846 0.93828 0.29071 0.0
C561 C 0.36789 0.92803 0.34021 0.0
C562 C 0.43087 0.97731 0.12967 0.0
C563 C 0.45325 0.9853 0.15172 0.0
C564 C 0.41264 0.96967 0.17726 0.0
C565 C 0.41632 0.9698 0.2481 0.0
C566 C 0.43841 0.97859 0.26994 0.0
C567 C 0.45664 0.98625 0.22234 0.0
H568 H 0.42967 0.38389 0.28945 0.0
H569 H 0.4904 0.41202 0.39245 0.0
H570 H 0.44077 0.41059 0.18386 0.0
H571 H 0.50132 0.43885 0.28697 0.0
H572 H 0.52925 0.45681 0.0633 0.0
H573 H 0.51685 0.4333 0.17243 0.0
H574 H 0.44406 0.45426 0.13362 0.0
H575 H 0.45643 0.47772 0.02371 0.0
C576 C 0.44528 0.39589 0.28975 0.0
C577 C 0.45924 0.39571 0.34929 0.0
C578 C 0.45155 0.41129 0.22934 0.0
C579 C 0.47196 0.42676 0.22704 0.0
C580 C 0.48565 0.42692 0.28693 0.0
C581 C 0.47932 0.41162 0.34744 0.0
C582 C 0.51061 0.45654 0.07809 0.0
C583 C 0.49382 0.46911 0.03472 0.0
C584 C 0.50354 0.44317 0.14088 0.0
C585 C 0.47948 0.44194 0.16166 0.0
C586 C 0.4627 0.4547 0.11867 0.0
C587 C 0.4698 0.46823 0.05594 0.0
H588 H 0.1134 0.42608 0.23844 0.0
H589 H 0.09107 0.49184 0.31211 0.0
H590 H 0.08784 0.43472 0.13856 0.0
H591 H 0.06504 0.50019 0.21279 0.0
H592 H 0.04909 0.5228 0.98216 0.0
H593 H 0.07041 0.51298 0.0901 0.0
H594 H 0.04704 0.43752 0.10002 0.0
H595 H 0.02622 0.4472 0.99135 0.0
C596 C 0.10273 0.44217 0.23394 0.0
C597 C 0.10443 0.45837 0.28295 0.0
C598 C 0.08798 0.44708 0.17676 0.0
C599 C 0.07453 0.46826 0.16741 0.0
C600 C 0.0755 0.48395 0.21788 0.0
C601 C 0.09029 0.47906 0.27504 0.0
C602 C 0.04842 0.50414 0.00753 0.0
C603 C 0.03609 0.48577 0.97796 0.0
C604 C 0.0605 0.49853 0.06968 0.0
C605 C 0.06045 0.47445 0.10366 0.0
C606 C 0.04771 0.45618 0.07468 0.0
C607 C 0.03569 0.46177 0.01251 0.0
H608 H 0.91461 0.89187 0.28474 0.0
H609 H 0.97929 0.85112 0.30119 0.0
H610 H 0.93204 0.92008 0.35713 0.0
H611 H 0.99652 0.87908 0.3746 0.0
H612 H 0.0294 0.94963 0.43298 0.0
H613 H 0.01117 0.9212 0.3633 0.0
H614 H 0.9449 0.92256 0.4752 0.0
H615 H 0.96296 0.95184 0.54352 0.0
C616 C 0.93249 0.88882 0.30415 0.0
C617 C 0.94559 0.86929 0.28693 0.0
C618 C 0.94242 0.90492 0.346 0.0
C619 C 0.96569 0.90188 0.37149 0.0
C620 C 0.97867 0.88215 0.35498 0.0
C621 C 0.96874 0.86603 0.31319 0.0
C622 C 0.01086 0.94416 0.44232 0.0
C623 C 0.99763 0.95316 0.49379 0.0
C624 C 0.0005 0.92756 0.40291 0.0
C625 C 0.97661 0.9195 0.41387 0.0
C626 C 0.9633 0.92854 0.46512 0.0
C627 C 0.97371 0.94515 0.50473 0.0
H628 H 0.641 0.95749 0.33597 0.0
H629 H 0.64427 0.03616 0.29345 0.0
H630 H 0.60974 0.9595 0.4216 0.0
H631 H 0.61338 0.03813 0.37972 0.0
H632 H 0.53963 0.0316 0.47905 0.0
H633 H 0.57085 0.02857 0.39479 0.0
H634 H 0.60349 0.97232 0.53525 0.0
H635 H 0.57165 0.97473 0.61891 0.0
C636 C 0.63514 0.9752 0.34508 0.0
C637 C 0.64508 0.99666 0.30771 0.0
C638 C 0.61733 0.97635 0.39443 0.0
C639 C 0.60904 0.99897 0.4073 0.0
C640 C 0.61913 0.02041 0.3703 0.0
C641 C 0.63694 0.01927 0.32109 0.0
C642 C 0.55327 0.01837 0.49181 0.0
C643 C 0.55307 0.00337 0.5558 0.0
C644 C 0.57136 0.01686 0.44376 0.0
C645 C 0.58972 0.00029 0.45844 0.0
C646 C 0.58949 0.98515 0.52221 0.0
C647 C 0.57139 0.98671 0.57044 0.0
H648 H 0.5432 0.6141 0.32972 0.0
H649 H 0.61077 0.62243 0.43078 0.0
H650 H 0.52964 0.58433 0.42633 0.0
H651 H 0.59698 0.59314 0.52811 0.0
H652 H 0.57265 0.52506 0.66948 0.0
H653 H 0.58652 0.55068 0.5647 0.0
H654 H 0.51783 0.58409 0.54439 0.0
H655 H 0.50381 0.55814 0.64774 0.0
C656 C 0.55516 0.60959 0.37255 0.0
C657 C 0.57803 0.62074 0.37268 0.0
C658 C 0.54735 0.59259 0.42809 0.0
C659 C 0.56218 0.5864 0.48517 0.0
C660 C 0.58521 0.59723 0.48465 0.0
C661 C 0.59306 0.61417 0.429 0.0
C662 C 0.56044 0.5377 0.6422 0.0
C663 C 0.53714 0.53958 0.66704 0.0
C664 C 0.56844 0.5525 0.58242 0.0
C665 C 0.55333 0.56953 0.54624 0.0
C666 C 0.52986 0.57097 0.57036 0.0
C667 C 0.52185 0.55616 0.62995 0.0
H668 H 0.91901 0.56488 0.28423 0.0
H669 H 0.87183 0.50673 0.38024 0.0
H670 H 0.94663 0.55705 0.38013 0.0
H671 H 0.89917 0.49926 0.47646 0.0
H672 H 0.96258 0.47667 0.60763 0.0
H673 H 0.93848 0.48391 0.50442 0.0
H674 H 0.94836 0.56162 0.50263 0.0
H675 H 0.973 0.55438 0.60559 0.0
C676 C 0.91455 0.55039 0.32566 0.0
C677 C 0.89321 0.53644 0.32465 0.0
C678 C 0.93031 0.54602 0.38078 0.0
C679 C 0.92508 0.52757 0.43591 0.0
C680 C 0.90389 0.5134 0.43433 0.0
C681 C 0.88815 0.51777 0.37931 0.0
C682 C 0.95978 0.49533 0.58505 0.0
C683 C 0.96959 0.51498 0.61501 0.0
C684 C 0.94584 0.49946 0.52606 0.0
C685 C 0.94132 0.52332 0.49571 0.0
C686 C 0.95169 0.54301 0.52449 0.0
C687 C 0.96571 0.53887 0.58359 0.0
loop_
_geom_bond_atom_site_label_1
_geom_bond_atom_site_label_2
_geom_bond_distance
_geom_bond_site_symmetry_2
_ccdc_geom_bond_type
O0 Cd1 2.300 . S
O0 C7 1.275 . S
Cd1 O0 2.300 . S
Cd1 O9 2.381 . S
Cd1 O10 2.378 . S
O2 Cd3 2.385 . S
O2 C7 1.255 . S
Cd3 O2 2.385 . S
Cd3 O4 2.317 . S
O4 Cd3 2.317 . S
O4 C5 1.232 . S
C5 O4 1.232 . S
C5 O6 1.218 . S
O6 C5 1.218 . S
C7 O0 1.275 . S
C7 O2 1.255 . S
C8 O9 1.258 . S
C8 O10 1.256 . S
O9 Cd1 2.381 . S
O9 C8 1.258 . S
O10 Cd1 2.378 . S
O10 C8 1.256 . S
O11 Cd12 2.300 . S
O11 C18 1.275 . S
Cd12 O11 2.300 . S
Cd12 O20 2.381 . S
Cd12 O21 2.378 . S
O13 Cd14 2.383 1_655 S
O13 C18 1.255 . S
Cd14 O13 2.383 1_455 S
Cd14 O15 2.316 1_455 S
O15 Cd14 2.316 1_655 S
O15 C16 1.232 . S
C16 O15 1.232 . S
C16 O17 1.218 . S
O17 C16 1.218 . S
C18 O11 1.275 . S
C18 O13 1.255 . S
C19 O20 1.258 . S
C19 O21 1.256 . S
O20 Cd12 2.381 . S
O20 C19 1.258 . S
O21 Cd12 2.378 . S
O21 C19 1.256 . S
O22 Cd23 2.300 1_566 S
O22 C29 1.275 1_566 S
Cd23 O22 2.300 1_544 S
Cd23 O31 2.381 1_544 S
Cd23 O32 2.378 . S
O24 Cd25 2.385 . S
O24 C29 1.255 . S
Cd25 O24 2.385 . S
Cd25 O26 2.317 . S
O26 Cd25 2.317 . S
O26 C27 1.232 . S
C27 O26 1.232 . S
C27 O28 1.218 . S
O28 C27 1.218 . S
C29 O22 1.275 1_544 S
C29 O24 1.255 . S
C30 O31 1.258 1_544 S
C30 O32 1.256 . S
O31 Cd23 2.381 1_566 S
O31 C30 1.258 1_566 S
O32 Cd23 2.378 . S
O32 C30 1.256 . S
O33 Cd34 2.300 . S
O33 C40 1.275 . S
Cd34 O33 2.300 . S
Cd34 O42 2.381 . S
Cd34 O43 2.378 . S
O35 Cd36 2.385 . S
O35 C40 1.255 . S
Cd36 O35 2.385 . S
Cd36 O37 2.317 . S
O37 Cd36 2.317 . S
O37 C38 1.232 . S
C38 O37 1.232 . S
C38 O39 1.218 . S
O39 C38 1.218 . S
C40 O33 1.275 . S
C40 O35 1.255 . S
C41 O42 1.258 . S
C41 O43 1.256 . S
O42 Cd34 2.381 . S
O42 C41 1.258 . S
O43 Cd34 2.378 . S
O43 C41 1.256 . S
O44 Cd45 2.300 . S
O44 C51 1.275 . S
Cd45 O44 2.300 . S
Cd45 O53 2.381 . S
Cd45 O54 2.378 . S
O46 Cd47 2.385 . S
O46 C51 1.255 . S
Cd47 O46 2.385 . S
Cd47 O48 2.317 . S
O48 Cd47 2.317 . S
O48 C49 1.232 . S
C49 O48 1.232 . S
C49 O50 1.218 . S
O50 C49 1.218 . S
C51 O44 1.275 . S
C51 O46 1.255 . S
C52 O53 1.258 . S
C52 O54 1.256 . S
O53 Cd45 2.381 . S
O53 C52 1.258 . S
O54 Cd45 2.378 . S
O54 C52 1.256 . S
O55 Cd56 2.300 . S
O55 C62 1.275 . S
Cd56 O55 2.300 . S
Cd56 O64 2.381 . S
Cd56 O65 2.378 . S
O57 Cd58 2.385 . S
O57 C62 1.255 . S
Cd58 O57 2.385 . S
Cd58 O59 2.317 . S
O59 Cd58 2.317 . S
O59 C60 1.232 . S
C60 O59 1.232 . S
C60 O61 1.218 . S
O61 C60 1.218 . S
C62 O55 1.275 . S
C62 O57 1.255 . S
C63 O64 1.258 . S
C63 O65 1.256 . S
O64 Cd56 2.381 . S
O64 C63 1.258 . S
O65 Cd56 2.378 . S
O65 C63 1.256 . S
O66 Cd67 2.300 1_565 S
O66 C73 1.275 1_565 S
Cd67 O66 2.300 1_545 S
Cd67 O75 2.381 1_545 S
Cd67 O76 2.378 . S
O68 Cd69 2.385 . S
O68 C73 1.255 . S
Cd69 O68 2.385 . S
Cd69 O70 2.317 . S
O70 Cd69 2.317 . S
O70 C71 1.232 . S
C71 O70 1.232 . S
C71 O72 1.218 . S
O72 C71 1.218 . S
C73 O66 1.275 1_545 S
C73 O68 1.255 . S
C74 O75 1.258 1_545 S
C74 O76 1.256 . S
O75 Cd67 2.381 1_565 S
O75 C74 1.258 1_565 S
O76 Cd67 2.378 . S
O76 C74 1.256 . S
O77 Cd78 2.300 . S
O77 C84 1.275 . S
Cd78 O77 2.300 . S
Cd78 O86 2.381 . S
Cd78 O87 2.378 . S
O79 Cd80 2.385 . S
O79 C84 1.255 . S
Cd80 O79 2.385 . S
Cd80 O81 2.317 . S
O81 Cd80 2.317 . S
O81 C82 1.232 . S
C82 O81 1.232 . S
C82 O83 1.218 . S
O83 C82 1.218 . S
C84 O77 1.275 . S
C84 O79 1.255 . S
C85 O86 1.258 . S
C85 O87 1.256 . S
O86 Cd78 2.381 . S
O86 C85 1.258 . S
O87 Cd78 2.378 . S
O87 C85 1.256 . S
Co88 N93 2.057 . S
Co88 O105 2.021 . S
Co88 O108 2.062 . S
Co88 O112 2.117 1_455 S
Co88 O113 2.020 1_545 S
C89 O109 1.259 1_545 S
C89 O112 1.258 . S
Co90 N99 2.057 . S
Co90 O106 2.117 . S
Co90 O107 2.020 1_565 S
Co90 O109 2.021 1_455 S
Co90 O114 2.062 . S
C91 N93 1.316 . S
C91 N94 1.347 1_556 S
C91 H96 0.931 . S
C92 N93 1.375 . S
C92 C95 1.350 1_556 S
C92 H97 0.930 1_455 S
N93 Co88 2.057 . S
N93 C91 1.316 . S
N93 C92 1.375 . S
N94 C91 1.347 1_554 S
N94 C95 1.373 . S
C95 C92 1.350 1_554 S
C95 N94 1.373 . S
C95 H116 0.931 . S
H96 C91 0.931 . S
H97 C92 0.930 1_655 S
C98 O105 1.259 1_565 S
C98 O106 1.258 . S
N99 Co90 2.057 . S
N99 C100 1.316 1_455 S
N99 C101 1.375 . S
C100 N99 1.316 1_655 S
C100 N102 1.347 . S
C100 H111 0.931 . S
C101 N99 1.375 . S
C101 C103 1.350 . S
C101 H110 0.930 . S
N102 C100 1.347 . S
N102 C103 1.373 1_655 S
C103 C101 1.350 . S
C103 N102 1.373 1_455 S
C103 H117 0.931 . S
C104 O107 1.256 . S
C104 O108 1.255 . S
O105 Co88 2.021 . S
O105 C98 1.259 1_545 S
O106 Co90 2.117 . S
O106 C98 1.258 . S
O107 Co90 2.020 1_545 S
O107 C104 1.256 . S
O108 Co88 2.062 . S
O108 C104 1.255 . S
O109 C89 1.259 1_565 S
O109 Co90 2.021 1_655 S
H110 C101 0.930 . S
H111 C100 0.931 . S
O112 Co88 2.117 1_655 S
O112 C89 1.258 . S
O113 Co88 2.020 1_565 S
O113 C115 1.256 . S
O114 Co90 2.062 . S
O114 C115 1.255 . S
C115 O113 1.256 . S
C115 O114 1.255 . S
H116 C95 0.931 . S
H117 C103 0.931 . S
Co118 N123 2.057 1_545 S
Co118 O135 2.021 . S
Co118 O138 2.063 . S
Co118 O142 2.117 1_545 S
Co118 O143 2.020 . S
C119 O139 1.259 . S
C119 O142 1.258 . S
Co120 N129 2.057 1_565 S
Co120 O136 2.117 1_565 S
Co120 O137 2.020 . S
Co120 O139 2.021 . S
Co120 O144 2.061 . S
C121 N123 1.291 1_545 S
C121 N124 1.347 1_556 S
C121 H126 0.931 . S
C122 N123 1.402 1_554 S
C122 C125 1.350 . S
C122 H127 0.930 . S
N123 Co118 2.057 1_565 S
N123 C121 1.291 1_565 S
N123 C122 1.402 1_556 S
N124 C121 1.347 1_554 S
N124 C125 1.373 1_545 S
C125 C122 1.350 . S
C125 N124 1.373 1_565 S
C125 H146 0.931 . S
H126 C121 0.931 . S
H127 C122 0.930 . S
C128 O135 1.259 . S
C128 O136 1.258 . S
N129 Co120 2.057 1_545 S
N129 C130 1.283 1_545 S
N129 C131 1.411 . S
C130 N129 1.283 1_565 S
C130 N132 1.347 . S
C130 H141 0.931 . S
C131 N129 1.411 . S
C131 C133 1.350 . S
C131 H140 0.930 . S
N132 C130 1.347 . S
N132 C133 1.373 1_565 S
C133 C131 1.350 . S
C133 N132 1.373 1_545 S
C133 H147 0.931 . S
C134 O137 1.256 . S
C134 O138 1.252 1_565 S
O135 Co118 2.021 . S
O135 C128 1.259 . S
O136 Co120 2.117 1_545 S
O136 C128 1.258 . S
O137 Co120 2.020 . S
O137 C134 1.256 . S
O138 Co118 2.063 . S
O138 C134 1.252 1_545 S
O139 C119 1.259 . S
O139 Co120 2.021 . S
H140 C131 0.930 . S
H141 C130 0.931 . S
O142 Co118 2.117 1_565 S
O142 C119 1.258 . S
O143 Co118 2.020 . S
O143 C145 1.256 . S
O144 Co120 2.061 . S
O144 C145 1.256 1_565 S
C145 O143 1.256 . S
C145 O144 1.256 1_545 S
H146 C125 0.931 . S
H147 C133 0.931 . S
Co148 N153 2.057 . S
Co148 O165 2.021 . S
Co148 O168 2.062 . S
Co148 O172 2.117 . S
Co148 O173 2.020 . S
C149 O169 1.259 . S
C149 O172 1.258 . S
Co150 N159 2.057 . S
Co150 O166 2.117 . S
Co150 O167 2.020 . S
Co150 O169 2.021 . S
Co150 O174 2.062 . S
C151 N153 1.316 . S
C151 N154 1.347 . S
C151 H156 0.931 . S
C152 N153 1.375 . S
C152 C155 1.350 . S
C152 H157 0.930 . S
N153 Co148 2.057 . S
N153 C151 1.316 . S
N153 C152 1.375 . S
N154 C151 1.347 . S
N154 C155 1.373 . S
C155 C152 1.350 . S
C155 N154 1.373 . S
C155 H176 0.931 . S
H156 C151 0.931 . S
H157 C152 0.930 . S
C158 O165 1.259 . S
C158 O166 1.258 . S
N159 Co150 2.057 . S
N159 C160 1.316 . S
N159 C161 1.375 . S
C160 N159 1.316 . S
C160 N162 1.347 . S
C160 H171 0.931 . S
C161 N159 1.375 . S
C161 C163 1.350 . S
C161 H170 0.930 . S
N162 C160 1.347 . S
N162 C163 1.373 . S
C163 C161 1.350 . S
C163 N162 1.373 . S
C163 H177 0.931 . S
C164 O167 1.256 . S
C164 O168 1.255 . S
O165 Co148 2.021 . S
O165 C158 1.259 . S
O166 Co150 2.117 . S
O166 C158 1.258 . S
O167 Co150 2.020 . S
O167 C164 1.256 . S
O168 Co148 2.062 . S
O168 C164 1.255 . S
O169 C149 1.259 . S
O169 Co150 2.021 . S
H170 C161 0.930 . S
H171 C160 0.931 . S
O172 Co148 2.117 . S
O172 C149 1.258 . S
O173 Co148 2.020 . S
O173 C175 1.256 . S
O174 Co150 2.062 . S
O174 C175 1.255 . S
C175 O173 1.256 . S
C175 O174 1.255 . S
H176 C155 0.931 . S
H177 C163 0.931 . S
Co178 N183 2.057 . S
Co178 O195 2.021 1_455 S
Co178 O198 2.062 1_455 S
Co178 O202 2.117 . S
Co178 O203 2.020 . S
C179 O199 1.259 . S
C179 O202 1.258 . S
Co180 N189 2.057 . S
Co180 O196 2.117 1_455 S
Co180 O197 2.020 1_455 S
Co180 O199 2.021 . S
Co180 O204 2.062 . S
C181 N183 1.316 . S
C181 N184 1.347 . S
C181 H186 0.931 1_455 S
C182 N183 1.375 . S
C182 C185 1.350 . S
C182 H187 0.930 . S
N183 Co178 2.057 . S
N183 C181 1.316 . S
N183 C182 1.375 . S
N184 C181 1.347 . S
N184 C185 1.373 . S
C185 C182 1.350 . S
C185 N184 1.373 . S
C185 H206 0.931 . S
H186 C181 0.931 1_655 S
H187 C182 0.930 . S
C188 O195 1.259 . S
C188 O196 1.258 . S
N189 Co180 2.057 . S
N189 C190 1.316 . S
N189 C191 1.375 1_455 S
C190 N189 1.316 . S
C190 N192 1.347 . S
C190 H201 0.931 . S
C191 N189 1.375 1_655 S
C191 C193 1.341 1_655 S
C191 H200 0.930 . S
N192 C190 1.347 . S
N192 C193 1.404 . S
C193 C191 1.341 1_455 S
C193 N192 1.404 . S
C193 H207 0.914 1_455 S
C194 O197 1.256 . S
C194 O198 1.255 . S
O195 Co178 2.021 1_655 S
O195 C188 1.259 . S
O196 Co180 2.117 1_655 S
O196 C188 1.258 . S
O197 Co180 2.020 1_655 S
O197 C194 1.256 . S
O198 Co178 2.062 1_655 S
O198 C194 1.255 . S
O199 C179 1.259 . S
O199 Co180 2.021 . S
H200 C191 0.930 . S
H201 C190 0.931 . S
O202 Co178 2.117 . S
O202 C179 1.258 . S
O203 Co178 2.020 . S
O203 C205 1.256 . S
O204 Co180 2.062 . S
O204 C205 1.255 . S
C205 O203 1.256 . S
C205 O204 1.255 . S
H206 C185 0.931 . S
H207 C193 0.914 1_655 S
H208 C216 0.950 . S
H209 C221 0.950 . S
H210 C218 0.950 . S
H211 C220 0.950 . S
H212 C222 0.950 . S
H213 C224 0.950 . S
H214 C226 0.950 . S
H215 C227 0.962 . S
C216 H208 0.950 . S
C216 C217 1.389 . S
C216 C218 1.391 . S
C217 C216 1.389 . S
C217 C221 1.390 1_545 S
C218 H210 0.950 . S
C218 C216 1.391 . S
C218 C219 1.400 1_545 S
C219 C218 1.400 1_565 S
C219 C220 1.398 . S
C219 C225 1.491 . S
C220 H211 0.950 . S
C220 C219 1.398 . S
C220 C221 1.391 . S
C221 H209 0.950 . S
C221 C217 1.390 1_565 S
C221 C220 1.391 . S
C222 H212 0.950 . S
C222 C223 1.386 . S
C222 C224 1.391 . S
C223 C222 1.386 . S
C223 C227 1.383 1_565 S
C224 H213 0.950 . S
C224 C222 1.391 . S
C224 C225 1.400 . S
C225 C219 1.491 . S
C225 C224 1.400 . S
C225 C226 1.398 1_565 S
C226 H214 0.950 . S
C226 C225 1.398 1_545 S
C226 C227 1.389 . S
C227 H215 0.962 . S
C227 C223 1.383 1_545 S
C227 C226 1.389 . S
H228 C236 0.950 . S
H229 C241 0.950 . S
H230 C238 0.950 . S
H231 C240 0.950 . S
H232 C242 0.950 . S
H233 C244 0.950 . S
H234 C246 0.950 . S
H235 C247 0.950 . S
C236 H228 0.950 . S
C236 C237 1.386 . S
C236 C238 1.391 . S
C237 C236 1.386 . S
C237 C241 1.393 . S
C238 H230 0.950 . S
C238 C236 1.391 . S
C238 C239 1.400 . S
C239 C238 1.400 . S
C239 C240 1.398 . S
C239 C245 1.491 . S
C240 H231 0.950 . S
C240 C239 1.398 . S
C240 C241 1.391 . S
C241 H229 0.950 . S
C241 C237 1.393 . S
C241 C240 1.391 . S
C242 H232 0.950 . S
C242 C243 1.386 . S
C242 C244 1.391 . S
C243 C242 1.386 . S
C243 C247 1.393 . S
C244 H233 0.950 . S
C244 C242 1.391 . S
C244 C245 1.400 . S
C245 C239 1.491 . S
C245 C244 1.400 . S
C245 C246 1.398 . S
C246 H234 0.950 . S
C246 C245 1.398 . S
C246 C247 1.391 . S
C247 H235 0.950 . S
C247 C243 1.393 . S
C247 C246 1.391 . S
H248 C256 0.950 . S
H249 C261 0.950 . S
H250 C258 0.950 . S
H251 C260 0.950 . S
H252 C262 0.950 . S
H253 C264 0.950 . S
H254 C266 0.950 . S
H255 C267 0.950 . S
C256 H248 0.950 . S
C256 C257 1.386 . S
C256 C258 1.391 . S
C257 C256 1.386 . S
C257 C261 1.393 . S
C258 H250 0.950 . S
C258 C256 1.391 . S
C258 C259 1.400 . S
C259 C258 1.400 . S
C259 C260 1.398 . S
C259 C265 1.491 . S
C260 H251 0.950 . S
C260 C259 1.398 . S
C260 C261 1.391 . S
C261 H249 0.950 . S
C261 C257 1.393 . S
C261 C260 1.391 . S
C262 H252 0.950 . S
C262 C263 1.386 . S
C262 C264 1.391 . S
C263 C262 1.386 . S
C263 C267 1.393 . S
C264 H253 0.950 . S
C264 C262 1.391 . S
C264 C265 1.400 . S
C265 C259 1.491 . S
C265 C264 1.400 . S
C265 C266 1.398 . S
C266 H254 0.950 . S
C266 C265 1.398 . S
C266 C267 1.391 . S
C267 H255 0.950 . S
C267 C263 1.393 . S
C267 C266 1.391 . S
H268 C276 0.950 . S
H269 C281 0.950 . S
H270 C278 0.950 . S
H271 C280 0.950 . S
H272 C282 0.938 1_655 S
H273 C284 0.950 . S
H274 C286 0.950 . S
H275 C287 0.950 . S
C276 H268 0.950 . S
C276 C277 1.386 . S
C276 C278 1.391 . S
C277 C276 1.386 . S
C277 C281 1.393 . S
C278 H270 0.950 . S
C278 C276 1.391 . S
C278 C279 1.400 . S
C279 C278 1.400 . S
C279 C280 1.398 . S
C279 C285 1.491 . S
C280 H271 0.950 . S
C280 C279 1.398 . S
C280 C281 1.391 . S
C281 H269 0.950 . S
C281 C277 1.393 . S
C281 C280 1.391 . S
C282 H272 0.938 1_455 S
C282 C283 1.386 . S
C282 C284 1.391 . S
C283 C282 1.386 . S
C283 C287 1.393 . S
C284 H273 0.950 . S
C284 C282 1.391 . S
C284 C285 1.400 . S
C285 C279 1.491 . S
C285 C284 1.400 . S
C285 C286 1.398 . S
C286 H274 0.950 . S
C286 C285 1.398 . S
C286 C287 1.391 . S
C287 H275 0.950 . S
C287 C283 1.393 . S
C287 C286 1.391 . S
H288 C296 0.950 1_554 S
H289 C301 0.950 . S
H290 C298 0.950 . S
H291 C300 0.950 . S
H292 C302 0.950 . S
H293 C304 0.950 . S
H294 C306 0.950 . S
H295 C307 0.950 . S
C296 H288 0.950 1_556 S
C296 C297 1.353 1_565 S
C296 C298 1.391 . S
C297 C296 1.353 1_545 S
C297 C301 1.424 . S
C298 H290 0.950 . S
C298 C296 1.391 . S
C298 C299 1.400 1_565 S
C299 C298 1.400 1_545 S
C299 C300 1.398 . S
C299 C305 1.491 . S
C300 H291 0.950 . S
C300 C299 1.398 . S
C300 C301 1.391 . S
C301 H289 0.950 . S
C301 C297 1.424 . S
C301 C300 1.391 . S
C302 H292 0.950 . S
C302 C303 1.386 . S
C302 C304 1.391 . S
C303 C302 1.386 . S
C303 C307 1.393 1_545 S
C304 H293 0.950 . S
C304 C302 1.391 . S
C304 C305 1.400 . S
C305 C299 1.491 . S
C305 C304 1.400 . S
C305 C306 1.398 1_545 S
C306 H294 0.950 . S
C306 C305 1.398 1_565 S
C306 C307 1.391 . S
C307 H295 0.950 . S
C307 C303 1.393 1_565 S
C307 C306 1.391 . S
H308 C316 0.950 . S
H309 C321 0.950 . S
H310 C318 0.950 . S
H311 C320 0.950 . S
H312 C322 0.950 . S
H313 C324 0.950 1_554 S
H314 C326 0.950 . S
H315 C327 0.950 . S
C316 H308 0.950 . S
C316 C317 1.386 1_556 S
C316 C318 1.391 . S
C317 C316 1.386 1_554 S
C317 C321 1.393 . S
C318 H310 0.950 . S
C318 C316 1.391 . S
C318 C319 1.400 . S
C319 C318 1.400 . S
C319 C320 1.398 1_556 S
C319 C325 1.491 . S
C320 H311 0.950 . S
C320 C319 1.398 1_554 S
C320 C321 1.391 . S
C321 H309 0.950 . S
C321 C317 1.393 . S
C321 C320 1.391 . S
C322 H312 0.950 . S
C322 C323 1.386 . S
C322 C324 1.391 . S
C323 C322 1.386 . S
C323 C327 1.393 . S
C324 H313 0.950 1_556 S
C324 C322 1.391 . S
C324 C325 1.400 . S
C325 C319 1.491 . S
C325 C324 1.400 . S
C325 C326 1.398 . S
C326 H314 0.950 . S
C326 C325 1.398 . S
C326 C327 1.391 . S
C327 H315 0.950 . S
C327 C323 1.393 . S
C327 C326 1.391 . S
H328 C336 0.950 . S
H329 C341 0.950 . S
H330 C338 0.950 . S
H331 C340 0.950 1_556 S
H332 C342 0.950 . S
H333 C344 0.950 . S
H334 C346 0.950 . S
H335 C347 0.950 . S
C336 H328 0.950 . S
C336 C337 1.386 . S
C336 C338 1.391 . S
C337 C336 1.386 . S
C337 C341 1.393 . S
C338 H330 0.950 . S
C338 C336 1.391 . S
C338 C339 1.400 . S
C339 C338 1.400 . S
C339 C340 1.398 . S
C339 C345 1.491 1_554 S
C340 H331 0.950 1_554 S
C340 C339 1.398 . S
C340 C341 1.391 . S
C341 H329 0.950 . S
C341 C337 1.393 . S
C341 C340 1.391 . S
C342 H332 0.950 . S
C342 C343 1.386 . S
C342 C344 1.391 . S
C343 C342 1.386 . S
C343 C347 1.393 . S
C344 H333 0.950 . S
C344 C342 1.391 . S
C344 C345 1.400 . S
C345 C339 1.491 1_556 S
C345 C344 1.400 . S
C345 C346 1.398 1_556 S
C346 H334 0.950 . S
C346 C345 1.398 1_554 S
C346 C347 1.391 1_554 S
C347 H335 0.950 . S
C347 C343 1.393 . S
C347 C346 1.391 1_556 S
H348 C356 0.950 . S
H349 C361 0.950 . S
H350 C358 0.950 1_455 S
H351 C360 0.950 . S
H352 C362 0.950 . S
H353 C364 0.950 . S
H354 C366 0.950 . S
H355 C367 0.950 . S
C356 H348 0.950 . S
C356 C357 1.386 . S
C356 C358 1.391 1_554 S
C357 C356 1.386 . S
C357 C361 1.393 . S
C358 H350 0.950 1_655 S
C358 C356 1.391 1_556 S
C358 C359 1.400 . S
C359 C358 1.400 . S
C359 C360 1.398 1_556 S
C359 C365 1.491 . S
C360 H351 0.950 . S
C360 C359 1.398 1_554 S
C360 C361 1.391 . S
C361 H349 0.950 . S
C361 C357 1.393 . S
C361 C360 1.391 . S
C362 H352 0.950 . S
C362 C363 1.386 . S
C362 C364 1.391 . S
C363 C362 1.386 . S
C363 C367 1.393 1_655 S
C364 H353 0.950 . S
C364 C362 1.391 . S
C364 C365 1.400 . S
C365 C359 1.491 . S
C365 C364 1.400 . S
C365 C366 1.398 1_655 S
C366 H354 0.950 . S
C366 C365 1.398 1_455 S
C366 C367 1.391 . S
C367 H355 0.950 . S
C367 C363 1.393 1_455 S
C367 C366 1.391 . S
H368 C376 0.950 . S
H369 C381 0.950 . S
H370 C378 0.950 . S
H371 C380 0.950 . S
H372 C382 0.950 . S
H373 C384 0.950 . S
H374 C386 0.950 . S
H375 C387 0.950 . S
C376 H368 0.950 . S
C376 C377 1.386 . S
C376 C378 1.391 . S
C377 C376 1.386 . S
C377 C381 1.393 . S
C378 H370 0.950 . S
C378 C376 1.391 . S
C378 C379 1.400 . S
C379 C378 1.400 . S
C379 C380 1.398 . S
C379 C385 1.491 . S
C380 H371 0.950 . S
C380 C379 1.398 . S
C380 C381 1.391 . S
C381 H369 0.950 . S
C381 C377 1.393 . S
C381 C380 1.391 . S
C382 H372 0.950 . S
C382 C383 1.386 . S
C382 C384 1.391 . S
C383 C382 1.386 . S
C383 C387 1.393 . S
C384 H373 0.950 . S
C384 C382 1.391 . S
C384 C385 1.400 . S
C385 C379 1.491 . S
C385 C384 1.400 . S
C385 C386 1.398 . S
C386 H374 0.950 . S
C386 C385 1.398 . S
C386 C387 1.391 . S
C387 H375 0.950 . S
C387 C383 1.393 . S
C387 C386 1.391 . S
H388 C396 0.950 . S
H389 C401 0.950 . S
H390 C398 0.950 . S
H391 C400 0.950 . S
H392 C402 0.950 . S
H393 C404 0.950 . S
H394 C406 0.950 . S
H395 C407 0.950 . S
C396 H388 0.950 . S
C396 C397 1.385 . S
C396 C398 1.391 . S
C397 C396 1.385 . S
C397 C401 1.394 1_545 S
C398 H390 0.950 . S
C398 C396 1.391 . S
C398 C399 1.400 1_545 S
C399 C398 1.400 1_565 S
C399 C400 1.398 . S
C399 C405 1.491 . S
C400 H391 0.950 . S
C400 C399 1.398 . S
C400 C401 1.391 . S
C401 H389 0.950 . S
C401 C397 1.394 1_565 S
C401 C400 1.391 . S
C402 H392 0.950 . S
C402 C403 1.386 . S
C402 C404 1.391 . S
C403 C402 1.386 . S
C403 C407 1.393 . S
C404 H393 0.950 . S
C404 C402 1.391 . S
C404 C405 1.400 . S
C405 C399 1.491 . S
C405 C404 1.400 . S
C405 C406 1.398 . S
C406 H394 0.950 . S
C406 C405 1.398 . S
C406 C407 1.391 . S
C407 H395 0.950 . S
C407 C403 1.393 . S
C407 C406 1.391 . S
H408 C416 0.950 . S
H409 C421 0.950 . S
H410 C418 0.950 . S
H411 C420 0.950 . S
H412 C422 0.950 . S
H413 C424 0.950 . S
H414 C426 0.950 . S
H415 C427 0.950 . S
C416 H408 0.950 . S
C416 C417 1.386 . S
C416 C418 1.391 . S
C417 C416 1.386 . S
C417 C421 1.393 . S
C418 H410 0.950 . S
C418 C416 1.391 . S
C418 C419 1.400 . S
C419 C418 1.400 . S
C419 C420 1.398 . S
C419 C425 1.491 . S
C420 H411 0.950 . S
C420 C419 1.398 . S
C420 C421 1.391 . S
C421 H409 0.950 . S
C421 C417 1.393 . S
C421 C420 1.391 . S
C422 H412 0.950 . S
C422 C423 1.386 . S
C422 C424 1.391 . S
C423 C422 1.386 . S
C423 C427 1.393 . S
C424 H413 0.950 . S
C424 C422 1.391 . S
C424 C425 1.400 . S
C425 C419 1.491 . S
C425 C424 1.400 . S
C425 C426 1.398 . S
C426 H414 0.950 . S
C426 C425 1.398 . S
C426 C427 1.391 . S
C427 H415 0.950 . S
C427 C423 1.393 . S
C427 C426 1.391 . S
H428 C436 0.950 . S
H429 C441 0.950 . S
H430 C438 0.950 . S
H431 C440 0.950 . S
H432 C442 0.950 . S
H433 C444 0.950 . S
H434 C446 0.950 . S
H435 C447 0.950 . S
C436 H428 0.950 . S
C436 C437 1.386 . S
C436 C438 1.391 . S
C437 C436 1.386 . S
C437 C441 1.393 . S
C438 H430 0.950 . S
C438 C436 1.391 . S
C438 C439 1.400 . S
C439 C438 1.400 . S
C439 C440 1.398 . S
C439 C445 1.491 . S
C440 H431 0.950 . S
C440 C439 1.398 . S
C440 C441 1.391 . S
C441 H429 0.950 . S
C441 C437 1.393 . S
C441 C440 1.391 . S
C442 H432 0.950 . S
C442 C443 1.386 . S
C442 C444 1.391 . S
C443 C442 1.386 . S
C443 C447 1.393 . S
C444 H433 0.950 . S
C444 C442 1.391 . S
C444 C445 1.400 . S
C445 C439 1.491 . S
C445 C444 1.400 . S
C445 C446 1.398 . S
C446 H434 0.950 . S
C446 C445 1.398 . S
C446 C447 1.391 . S
C447 H435 0.950 . S
C447 C443 1.393 . S
C447 C446 1.391 . S
H448 C456 0.950 . S
H449 C461 0.950 . S
H450 C458 0.950 . S
H451 C460 0.950 . S
H452 C462 0.950 . S
H453 C464 0.950 . S
H454 C466 0.943 1_454 S
H455 C467 0.950 1_554 S
C456 H448 0.950 . S
C456 C457 1.386 . S
C456 C458 1.391 . S
C457 C456 1.386 . S
C457 C461 1.393 1_554 S
C458 H450 0.950 . S
C458 C456 1.391 . S
C458 C459 1.400 1_554 S
C459 C458 1.400 1_556 S
C459 C460 1.398 . S
C459 C465 1.491 . S
C460 H451 0.950 . S
C460 C459 1.398 . S
C460 C461 1.391 . S
C461 H449 0.950 . S
C461 C457 1.393 1_556 S
C461 C460 1.391 . S
C462 H452 0.950 . S
C462 C463 1.386 1_655 S
C462 C464 1.391 . S
C463 C462 1.386 1_455 S
C463 C467 1.393 . S
C464 H453 0.950 . S
C464 C462 1.391 . S
C464 C465 1.400 . S
C465 C459 1.491 . S
C465 C464 1.400 . S
C465 C466 1.424 . S
C466 H454 0.943 1_656 S
C466 C465 1.424 . S
C466 C467 1.374 1_655 S
C467 H455 0.950 1_556 S
C467 C463 1.393 . S
C467 C466 1.374 1_455 S
H468 C476 0.950 . S
H469 C481 0.950 . S
H470 C478 0.950 . S
H471 C480 0.950 . S
H472 C482 0.950 . S
H473 C484 0.950 1_554 S
H474 C486 0.950 . S
H475 C487 0.950 . S
C476 H468 0.950 . S
C476 C477 1.415 . S
C476 C478 1.391 . S
C477 C476 1.415 . S
C477 C481 1.368 1_566 S
C478 H470 0.950 . S
C478 C476 1.391 . S
C478 C479 1.400 1_565 S
C479 C478 1.400 1_545 S
C479 C480 1.398 1_556 S
C479 C485 1.491 . S
C480 H471 0.950 . S
C480 C479 1.398 1_554 S
C480 C481 1.391 . S
C481 H469 0.950 . S
C481 C477 1.368 1_544 S
C481 C480 1.391 . S
C482 H472 0.950 . S
C482 C483 1.386 . S
C482 C484 1.391 . S
C483 C482 1.386 . S
C483 C487 1.393 1_545 S
C484 H473 0.950 1_556 S
C484 C482 1.391 . S
C484 C485 1.400 . S
C485 C479 1.491 . S
C485 C484 1.400 . S
C485 C486 1.398 1_545 S
C486 H474 0.950 . S
C486 C485 1.398 1_565 S
C486 C487 1.391 . S
C487 H475 0.950 . S
C487 C483 1.393 1_565 S
C487 C486 1.391 . S
H488 C496 0.950 . S
H489 C501 0.950 1_556 S
H490 C498 0.950 . S
H491 C500 0.950 . S
H492 C502 0.950 . S
H493 C504 0.950 . S
H494 C506 0.950 1_554 S
H495 C507 0.950 . S
C496 H488 0.950 . S
C496 C497 1.386 . S
C496 C498 1.391 . S
C497 C496 1.386 . S
C497 C501 1.393 . S
C498 H490 0.950 . S
C498 C496 1.391 . S
C498 C499 1.400 1_554 S
C499 C498 1.400 1_556 S
C499 C500 1.398 . S
C499 C505 1.491 . S
C500 H491 0.950 . S
C500 C499 1.398 . S
C500 C501 1.391 1_556 S
C501 H489 0.950 1_554 S
C501 C497 1.393 . S
C501 C500 1.391 1_554 S
C502 H492 0.950 . S
C502 C503 1.386 . S
C502 C504 1.391 . S
C503 C502 1.386 . S
C503 C507 1.393 . S
C504 H493 0.950 . S
C504 C502 1.391 . S
C504 C505 1.400 . S
C505 C499 1.491 . S
C505 C504 1.400 . S
C505 C506 1.398 . S
C506 H494 0.950 1_556 S
C506 C505 1.398 . S
C506 C507 1.391 . S
C507 H495 0.950 . S
C507 C503 1.393 . S
C507 C506 1.391 . S
H508 C516 0.950 . S
H509 C521 0.950 . S
H510 C518 0.950 . S
H511 C520 0.950 . S
H512 C522 0.950 . S
H513 C524 0.950 . S
H514 C526 0.950 . S
H515 C527 0.950 1_554 S
C516 H508 0.950 . S
C516 C517 1.386 . S
C516 C518 1.391 . S
C517 C516 1.386 . S
C517 C521 1.393 . S
C518 H510 0.950 . S
C518 C516 1.391 . S
C518 C519 1.400 . S
C519 C518 1.400 . S
C519 C520 1.398 1_554 S
C519 C525 1.491 1_554 S
C520 H511 0.950 . S
C520 C519 1.398 1_556 S
C520 C521 1.391 1_556 S
C521 H509 0.950 . S
C521 C517 1.393 . S
C521 C520 1.391 1_554 S
C522 H512 0.950 . S
C522 C523 1.386 . S
C522 C524 1.391 . S
C523 C522 1.386 . S
C523 C527 1.393 . S
C524 H513 0.950 . S
C524 C522 1.391 . S
C524 C525 1.400 . S
C525 C519 1.491 1_556 S
C525 C524 1.400 . S
C525 C526 1.398 1_556 S
C526 H514 0.950 . S
C526 C525 1.398 1_554 S
C526 C527 1.391 1_554 S
C527 H515 0.950 1_556 S
C527 C523 1.393 . S
C527 C526 1.391 1_556 S
H528 C536 0.950 . S
H529 C541 0.950 . S
H530 C538 0.950 . S
H531 C540 0.950 . S
H532 C542 0.950 . S
H533 C544 0.950 . S
H534 C546 0.950 . S
H535 C547 0.950 . S
C536 H528 0.950 . S
C536 C537 1.386 . S
C536 C538 1.391 . S
C537 C536 1.386 . S
C537 C541 1.393 . S
C538 H530 0.950 . S
C538 C536 1.391 . S
C538 C539 1.400 . S
C539 C538 1.400 . S
C539 C540 1.398 . S
C539 C545 1.491 . S
C540 H531 0.950 . S
C540 C539 1.398 . S
C540 C541 1.391 . S
C541 H529 0.950 . S
C541 C537 1.393 . S
C541 C540 1.391 . S
C542 H532 0.950 . S
C542 C543 1.386 . S
C542 C544 1.391 . S
C543 C542 1.386 . S
C543 C547 1.393 . S
C544 H533 0.950 . S
C544 C542 1.391 . S
C544 C545 1.400 . S
C545 C539 1.491 . S
C545 C544 1.400 . S
C545 C546 1.398 . S
C546 H534 0.950 . S
C546 C545 1.398 . S
C546 C547 1.391 . S
C547 H535 0.950 . S
C547 C543 1.393 . S
C547 C546 1.391 . S
H548 C556 0.950 . S
H549 C561 0.950 . S
H550 C558 0.950 . S
H551 C560 0.950 . S
H552 C562 0.950 . S
H553 C564 0.950 . S
H554 C566 0.950 . S
H555 C567 0.950 . S
C556 H548 0.950 . S
C556 C557 1.414 . S
C556 C558 1.391 . S
C557 C556 1.414 . S
C557 C561 1.363 1_545 S
C558 H550 0.950 . S
C558 C556 1.391 . S
C558 C559 1.400 . S
C559 C558 1.400 . S
C559 C560 1.398 1_545 S
C559 C565 1.491 . S
C560 H551 0.950 . S
C560 C559 1.398 1_565 S
C560 C561 1.391 . S
C561 H549 0.950 . S
C561 C557 1.363 1_565 S
C561 C560 1.391 . S
C562 H552 0.950 . S
C562 C563 1.386 1_565 S
C562 C564 1.391 . S
C563 C562 1.386 1_545 S
C563 C567 1.393 . S
C564 H553 0.950 . S
C564 C562 1.391 . S
C564 C565 1.400 1_565 S
C565 C559 1.491 . S
C565 C564 1.400 1_545 S
C565 C566 1.398 . S
C566 H554 0.950 . S
C566 C565 1.398 . S
C566 C567 1.391 . S
C567 H555 0.950 . S
C567 C563 1.393 . S
C567 C566 1.391 . S
H568 C576 0.950 . S
H569 C581 0.950 . S
H570 C578 0.950 . S
H571 C580 0.950 . S
H572 C582 0.950 1_556 S
H573 C584 0.950 . S
H574 C586 0.950 . S
H575 C587 0.950 . S
C576 H568 0.950 . S
C576 C577 1.386 . S
C576 C578 1.391 . S
C577 C576 1.386 . S
C577 C581 1.393 . S
C578 H570 0.950 . S
C578 C576 1.391 . S
C578 C579 1.400 . S
C579 C578 1.400 . S
C579 C580 1.398 . S
C579 C585 1.491 . S
C580 H571 0.950 . S
C580 C579 1.398 . S
C580 C581 1.391 . S
C581 H569 0.950 . S
C581 C577 1.393 . S
C581 C580 1.391 . S
C582 H572 0.950 1_554 S
C582 C583 1.386 1_554 S
C582 C584 1.391 . S
C583 C582 1.386 1_556 S
C583 C587 1.393 1_556 S
C584 H573 0.950 . S
C584 C582 1.391 . S
C584 C585 1.400 . S
C585 C579 1.491 . S
C585 C584 1.400 . S
C585 C586 1.398 . S
C586 H574 0.950 . S
C586 C585 1.398 . S
C586 C587 1.391 . S
C587 H575 0.950 . S
C587 C583 1.393 1_554 S
C587 C586 1.391 . S
H588 C596 0.950 . S
H589 C601 0.950 . S
H590 C598 0.950 . S
H591 C600 0.950 . S
H592 C602 0.950 . S
H593 C604 0.950 . S
H594 C606 0.950 . S
H595 C607 0.950 . S
C596 H588 0.950 . S
C596 C597 1.386 . S
C596 C598 1.391 . S
C597 C596 1.386 . S
C597 C601 1.393 . S
C598 H590 0.950 . S
C598 C596 1.391 . S
C598 C599 1.400 . S
C599 C598 1.400 . S
C599 C600 1.398 . S
C599 C605 1.491 . S
C600 H591 0.950 . S
C600 C599 1.398 . S
C600 C601 1.391 . S
C601 H589 0.950 . S
C601 C597 1.393 . S
C601 C600 1.391 . S
C602 H592 0.950 . S
C602 C603 1.386 1_554 S
C602 C604 1.391 . S
C603 C602 1.386 1_556 S
C603 C607 1.393 . S
C604 H593 0.950 . S
C604 C602 1.391 . S
C604 C605 1.400 . S
C605 C599 1.491 . S
C605 C604 1.400 . S
C605 C606 1.398 . S
C606 H594 0.950 . S
C606 C605 1.398 . S
C606 C607 1.391 1_554 S
C607 H595 0.950 . S
C607 C603 1.393 . S
C607 C606 1.391 1_556 S
H608 C616 0.950 . S
H609 C621 0.950 . S
H610 C618 0.950 . S
H611 C620 0.993 . S
H612 C622 0.950 1_455 S
H613 C624 0.950 1_455 S
H614 C626 0.950 . S
H615 C627 0.950 . S
C616 H608 0.950 . S
C616 C617 1.386 . S
C616 C618 1.391 . S
C617 C616 1.386 . S
C617 C621 1.393 . S
C618 H610 0.950 . S
C618 C616 1.391 . S
C618 C619 1.400 . S
C619 C618 1.400 . S
C619 C620 1.398 . S
C619 C625 1.491 . S
C620 H611 0.993 . S
C620 C619 1.398 . S
C620 C621 1.391 . S
C621 H609 0.950 . S
C621 C617 1.393 . S
C621 C620 1.391 . S
C622 H612 0.950 1_655 S
C622 C623 1.386 . S
C622 C624 1.391 . S
C623 C622 1.386 . S
C623 C627 1.393 . S
C624 H613 0.950 1_655 S
C624 C622 1.391 . S
C624 C625 1.400 . S
C625 C619 1.491 . S
C625 C624 1.400 . S
C625 C626 1.398 . S
C626 H614 0.950 . S
C626 C625 1.398 . S
C626 C627 1.391 . S
C627 H615 0.950 . S
C627 C623 1.393 . S
C627 C626 1.391 . S
H628 C636 0.950 . S
H629 C641 0.950 . S
H630 C638 0.950 . S
H631 C640 0.950 . S
H632 C642 0.950 . S
H633 C644 0.950 . S
H634 C646 0.950 . S
H635 C647 0.950 . S
C636 H628 0.950 . S
C636 C637 1.423 . S
C636 C638 1.391 . S
C637 C636 1.423 . S
C637 C641 1.353 1_565 S
C638 H630 0.950 . S
C638 C636 1.391 . S
C638 C639 1.400 . S
C639 C638 1.400 . S
C639 C640 1.398 1_565 S
C639 C645 1.491 . S
C640 H631 0.950 . S
C640 C639 1.398 1_545 S
C640 C641 1.391 . S
C641 H629 0.950 . S
C641 C637 1.353 1_545 S
C641 C640 1.391 . S
C642 H632 0.950 . S
C642 C643 1.386 1_545 S
C642 C644 1.391 . S
C643 C642 1.386 1_565 S
C643 C647 1.393 . S
C644 H633 0.950 . S
C644 C642 1.391 . S
C644 C645 1.400 1_545 S
C645 C639 1.491 . S
C645 C644 1.400 1_565 S
C645 C646 1.398 . S
C646 H634 0.950 . S
C646 C645 1.398 . S
C646 C647 1.391 . S
C647 H635 0.950 . S
C647 C643 1.393 . S
C647 C646 1.391 . S
H648 C656 0.950 . S
H649 C661 0.950 . S
H650 C658 0.950 . S
H651 C660 0.950 . S
H652 C662 0.950 . S
H653 C664 0.950 . S
H654 C666 0.950 . S
H655 C667 0.950 . S
C656 H648 0.950 . S
C656 C657 1.386 . S
C656 C658 1.391 . S
C657 C656 1.386 . S
C657 C661 1.393 . S
C658 H650 0.950 . S
C658 C656 1.391 . S
C658 C659 1.400 . S
C659 C658 1.400 . S
C659 C660 1.398 . S
C659 C665 1.491 . S
C660 H651 0.950 . S
C660 C659 1.398 . S
C660 C661 1.391 . S
C661 H649 0.950 . S
C661 C657 1.393 . S
C661 C660 1.391 . S
C662 H652 0.950 . S
C662 C663 1.386 . S
C662 C664 1.391 . S
C663 C662 1.386 . S
C663 C667 1.393 . S
C664 H653 0.950 . S
C664 C662 1.391 . S
C664 C665 1.400 . S
C665 C659 1.491 . S
C665 C664 1.400 . S
C665 C666 1.398 . S
C666 H654 0.950 . S
C666 C665 1.398 . S
C666 C667 1.391 . S
C667 H655 0.950 . S
C667 C663 1.393 . S
C667 C666 1.391 . S
H668 C676 0.950 . S
H669 C681 0.950 . S
H670 C678 0.950 . S
H671 C680 0.950 . S
H672 C682 0.950 . S
H673 C684 0.950 . S
H674 C686 0.950 . S
H675 C687 0.950 . S
C676 H668 0.950 . S
C676 C677 1.386 . S
C676 C678 1.391 . S
C677 C676 1.386 . S
C677 C681 1.393 . S
C678 H670 0.950 . S
C678 C676 1.391 . S
C678 C679 1.400 . S
C679 C678 1.400 . S
C679 C680 1.398 . S
C679 C685 1.491 . S
C680 H671 0.950 . S
C680 C679 1.398 . S
C680 C681 1.391 . S
C681 H669 0.950 . S
C681 C677 1.393 . S
C681 C680 1.391 . S
C682 H672 0.950 . S
C682 C683 1.386 . S
C682 C684 1.391 . S
C683 C682 1.386 . S
C683 C687 1.393 . S
C684 H673 0.950 . S
C684 C682 1.391 . S
C684 C685 1.400 . S
C685 C679 1.491 . S
C685 C684 1.400 . S
C685 C686 1.398 . S
C686 H674 0.950 . S
C686 C685 1.398 . S
C686 C687 1.391 . S
C687 H675 0.950 . S
C687 C683 1.393 . S
C687 C686 1.391 . S
C217 C74 1.629 . S
C223 C98 1.638 . S
C243 C128 1.780 . S
C237 C85 1.775 . S
C263 N162 1.327 . S
C257 C52 1.372 . S
C283 N192 1.435 . S
C277 C63 1.463 . S
C303 C89 1.634 . S
C297 C30 1.626 1_556 S
C317 C41 1.736 . S
C323 C119 1.783 . S
C337 C8 1.368 . S
C343 N154 1.328 . S
C357 C19 1.410 . S
C363 N184 1.435 1_655 S
C383 C104 0.496 . S
C377 C62 0.433 . S
C403 C134 0.784 . S
C397 C73 0.774 . S
C423 C175 1.072 . S
C417 C84 1.082 . S
C437 C51 0.593 . S
C443 C205 0.571 . S
C457 C18 0.538 . S
C463 C115 0.449 . S
C483 C145 0.776 . S
C477 C29 0.768 1_566 S
C503 C164 1.063 . S
C497 C40 1.027 . S
C517 C7 0.572 . S
C523 C194 0.566 . S
C537 C60 1.314 . S
C543 N94 1.466 . S
C557 C71 1.209 . S
C563 N124 1.416 . S
C583 C149 1.650 . S
C577 C82 1.454 . S
C603 C179 1.573 . S
C597 C49 1.316 . S
C617 C16 1.199 . S
C623 N102 1.483 . S
C643 N132 1.403 . S
C637 C27 1.235 1_565 S
C663 C158 1.652 . S
C657 C38 1.350 . S
C677 C5 1.333 . S
C683 C188 1.575 . S
