# Generated by pormake.
# Topology pts, (4,4)-cn, num edge types: 1
# Building blocks:
#     Node 0, Type 0, BuildingBlock: KOZSID_clean_sbu_0, # of connection points: 4
#     Node 1, Type 0, BuildingBlock: KOZSID_clean_sbu_0, # of connection points: 4
#     Node 2, Type 1, BuildingBlock: UXUYUI_clean_sbu_0, # of connection points: 4
#     Node 3, Type 1, BuildingBlock: UXUYUI_clean_sbu_0, # of connection points: 4
#     Edge 4, Type (0, 1), BuildingBlock: CIFDUS_clean_linker_0, # of connection points: 2
#     Edge 5, Type (0, 1), BuildingBlock: CIFDUS_clean_linker_0, # of connection points: 2
#     Edge 6, Type (0, 1), BuildingBlock: CIFDUS_clean_linker_0, # of connection points: 2
#     Edge 7, Type (0, 1), BuildingBlock: CIFDUS_clean_linker_0, # of connection points: 2
#     Edge 8, Type (0, 1), BuildingBlock: CIFDUS_clean_linker_0, # of connection points: 2
#     Edge 9, Type (0, 1), BuildingBlock: CIFDUS_clean_linker_0, # of connection points: 2
#     Edge 10, Type (0, 1), BuildingBlock: CIFDUS_clean_linker_0, # of connection points: 2
#     Edge 11, Type (0, 1), BuildingBlock: CIFDUS_clean_linker_0, # of connection points: 2
# Relax obj value: 0.000
# Max RMSD: 0.024
# Mean RMSD: 0.016
data_MOF--net-pts--node1-KOZSID_clean_sbu_0--node2-UXUYUI_clean_sbu_0--edge1-CIFDUS_clean_linker_0
_symmetry_space_group_name_H-M    P1
_symmetry_Int_Tables_number       1
_symmetry_cell_setting            triclinic
loop_
_symmetry_equiv_pos_as_xyz
'x, y, z'
_cell_length_a     29.856863
_cell_length_b     29.809704
_cell_length_c     43.379565
_cell_angle_alpha  86.598234
_cell_angle_beta   93.388908
_cell_angle_gamma 90.108796
loop_
_atom_site_label
_atom_site_type_symbol
_atom_site_fract_x
_atom_site_fract_y
_atom_site_fract_z
_atom_type_partial_charge
C0 C 0.62393 0.10287 0.05652 0.0
C1 C 0.63711 0.14414 0.06718 0.0
C2 C 0.61092 0.17587 0.05092 0.0
C3 C 0.58314 0.15229 0.03147 0.0
N4 N 0.58949 0.1073 0.03467 0.0
Co5 Co 0.55684 0.06058 0.01059 0.0
N6 N 0.5231 0.10765 0.98343 0.0
C7 C 0.52741 0.15275 0.98444 0.0
C8 C 0.49951 0.17656 0.96323 0.0
C9 C 0.47562 0.14483 0.94788 0.0
C10 C 0.49032 0.10333 0.96074 0.0
N11 N 0.52343 0.01385 0.98694 0.0
C12 C 0.48988 0.01839 0.96442 0.0
C13 C 0.4744 0.97697 0.95536 0.0
C14 C 0.49859 0.94511 0.97301 0.0
C15 C 0.52729 0.96876 0.99179 0.0
N16 N 0.59156 0.01364 0.03724 0.0
C17 C 0.58809 0.96857 0.03571 0.0
C18 C 0.61844 0.9448 0.05515 0.0
C19 C 0.64346 0.97654 0.06962 0.0
C20 C 0.62664 0.01809 0.05827 0.0
N21 N 0.50788 0.05939 0.04018 0.0
C22 C 0.43151 0.05726 0.07599 0.0
C23 C 0.4555 0.01805 0.07191 0.0
C24 C 0.49318 0.01982 0.05396 0.0
C25 C 0.44773 0.09771 0.06314 0.0
C26 C 0.48581 0.09808 0.04586 0.0
N27 N 0.60548 0.06182 0.98094 0.0
C28 C 0.6571 0.0234 0.95026 0.0
C29 C 0.67672 0.0641 0.94049 0.0
C30 C 0.65975 0.10355 0.95133 0.0
C31 C 0.62453 0.10168 0.97123 0.0
C32 C 0.62178 0.02304 0.97023 0.0
H33 H 0.61355 0.133 0.97868 0.0
H34 H 0.60826 0.99097 0.97678 0.0
H35 H 0.5092 0.98859 0.05103 0.0
H36 H 0.49613 0.13013 0.03686 0.0
C37 C 0.55485 0.17161 0.00749 0.0
C38 C 0.64662 0.06077 0.06682 0.0
C39 C 0.4707 0.06094 0.95153 0.0
C40 C 0.55773 0.94969 0.01446 0.0
H41 H 0.66382 0.15068 0.08429 0.0
H42 H 0.61322 0.21197 0.05216 0.0
H43 H 0.4959 0.21268 0.96001 0.0
H44 H 0.44954 0.15147 0.92978 0.0
H45 H 0.4479 0.9705 0.93808 0.0
H46 H 0.49518 0.90899 0.97255 0.0
H47 H 0.62287 0.90871 0.05771 0.0
H48 H 0.6717 0.96971 0.08598 0.0
H49 H 0.44432 0.98588 0.08155 0.0
H50 H 0.43086 0.12914 0.06624 0.0
H51 H 0.66851 0.99188 0.94227 0.0
H52 H 0.67403 0.13596 0.94492 0.0
C53 C 0.0931 0.48489 0.55884 0.0
C54 C 0.13543 0.4717 0.57092 0.0
C55 C 0.16551 0.4984 0.55604 0.0
C56 C 0.13994 0.52647 0.53596 0.0
N57 N 0.09529 0.51984 0.53744 0.0
Co58 Co 0.04623 0.55297 0.51196 0.0
N59 N 0.09057 0.58779 0.48697 0.0
C60 C 0.13576 0.58362 0.48969 0.0
C61 C 0.15756 0.61112 0.46907 0.0
C62 C 0.12439 0.63468 0.45232 0.0
C63 C 0.08405 0.62048 0.46397 0.0
N64 N 0.99711 0.58676 0.48683 0.0
C65 C 0.99933 0.6209 0.46473 0.0
C66 C 0.95689 0.63709 0.45505 0.0
C67 C 0.92691 0.61229 0.47135 0.0
C68 C 0.9525 0.58273 0.49024 0.0
N69 N 1.00191 0.51722 0.53653 0.0
C70 C 0.95666 0.52049 0.53339 0.0
C71 C 0.93486 0.48951 0.55165 0.0
C72 C 0.96809 0.46429 0.56703 0.0
C73 C 0.00849 0.48164 0.5574 0.0
N74 N 0.04748 0.6011 0.54223 0.0
C75 C 0.04691 0.67604 0.57953 0.0
C76 C 0.00769 0.65209 0.57253 0.0
C77 C 0.00874 0.61513 0.55418 0.0
C78 C 0.08689 0.66037 0.56871 0.0
C79 C 0.08644 0.62313 0.55036 0.0
N80 N 0.04485 0.50515 0.4817 0.0
C81 C 1.00275 0.45348 0.45013 0.0
C82 C 0.04214 0.43398 0.44108 0.0
C83 C 0.08302 0.45134 0.45259 0.0
C84 C 0.0836 0.48652 0.4727 0.0
C85 C 1.00485 0.48876 0.47002 0.0
H86 H 0.1158 0.49795 0.48081 0.0
H87 H 0.97356 0.5019 0.47591 0.0
H88 H 0.97751 0.59899 0.54963 0.0
H89 H 0.11793 0.61341 0.54253 0.0
C90 C 0.15683 0.5556 0.51309 0.0
C91 C 0.05207 0.46177 0.56744 0.0
C92 C 0.04068 0.64008 0.45301 0.0
C93 C 0.93565 0.55147 0.51185 0.0
H94 H 0.14373 0.4447 0.58808 0.0
H95 H 0.20174 0.49634 0.55863 0.0
H96 H 0.19337 0.61432 0.46688 0.0
H97 H 0.12944 0.65999 0.43393 0.0
H98 H 0.94831 0.66456 0.43835 0.0
H99 H 0.89077 0.61596 0.47003 0.0
H100 H 0.89903 0.48485 0.55286 0.0
H101 H 0.96294 0.43562 0.58289 0.0
H102 H 0.97597 0.66192 0.58102 0.0
H103 H 0.1183 0.67756 0.57349 0.0
H104 H 0.97011 0.44114 0.4424 0.0
H105 H 0.11461 0.43816 0.446 0.0
Li106 Li 0.05269 0.08725 0.28233 0.0
Li107 Li 0.05016 1.00394 0.28302 0.0
Li108 Li 0.09127 0.04821 0.24143 0.0
Li109 Li 0.00745 0.04619 0.2406 0.0
C110 C 0.14011 0.06243 0.30202 0.0
N111 N 0.21328 0.10134 0.33184 0.0
C112 C 0.15486 0.04647 0.33183 0.0
C113 C 0.16268 0.09794 0.28729 0.0
C114 C 0.19187 0.06668 0.34655 0.0
C115 C 0.19959 0.11721 0.30276 0.0
C116 C 0.9732 0.02633 0.30709 0.0
C117 C 0.92138 0.96762 0.32133 0.0
N118 N 0.92105 0.98313 0.35018 0.0
C119 C 0.97211 0.04193 0.33678 0.0
C120 C 0.94742 0.9891 0.29918 0.0
C121 C 0.94561 0.01954 0.35828 0.0
C122 C 0.03999 0.17905 0.29644 0.0
N123 N 0.05442 0.13793 0.30821 0.0
C124 C 0.07232 0.16774 0.35755 0.0
C125 C 0.06979 0.13165 0.33829 0.0
C126 C 0.05906 0.21108 0.34583 0.0
C127 C 0.04251 0.21624 0.31474 0.0
H128 H 0.02673 0.18313 0.27271 0.0
H129 H 0.07978 0.09844 0.34748 0.0
C130 C 0.05312 0.90905 0.29958 0.0
N131 N 0.0517 0.95069 0.31073 0.0
C132 C 0.05418 0.87057 0.31984 0.0
C133 C 0.05187 0.91846 0.36266 0.0
C134 C 0.05158 0.95592 0.34165 0.0
C135 C 0.05345 0.87478 0.35199 0.0
H136 H 0.05386 0.90567 0.27494 0.0
H137 H 0.0511 0.98933 0.35004 0.0
C138 C 0.05751 0.13368 0.21537 0.0
N139 N 0.0769 0.20252 0.17273 0.0
C140 C 0.04028 0.13287 0.18475 0.0
C141 C 0.08463 0.16953 0.22431 0.0
C142 C 0.05047 0.16799 0.16354 0.0
C143 C 0.09403 0.204 0.20241 0.0
C144 C 0.03483 0.97134 0.21356 0.0
C145 C 0.05376 0.9776 0.18491 0.0
C146 C 0.9999 0.94057 0.2172 0.0
C147 C 0.03707 0.95317 0.16023 0.0
C148 C 0.98408 0.91688 0.19194 0.0
N149 N 1.00283 0.92362 0.16422 0.0
C150 C 0.1694 0.00855 0.22083 0.0
C151 C 0.15718 0.08205 0.19845 0.0
C152 C 0.20856 1.00452 0.20487 0.0
N153 N 0.14448 0.0469 0.21744 0.0
C154 C 0.19617 0.07961 0.18225 0.0
C155 C 0.22267 0.04045 0.18521 0.0
H156 H 0.15876 0.98091 0.23597 0.0
H157 H 0.13755 0.11235 0.19588 0.0
C158 C 0.91355 0.05736 0.22962 0.0
N159 N 0.95143 0.0479 0.21527 0.0
C160 C 0.87162 0.05806 0.21336 0.0
C161 C 0.90809 0.04016 0.16748 0.0
C162 C 0.94939 0.03995 0.18463 0.0
C163 C 0.86826 0.049 0.18184 0.0
H164 H 0.91582 0.06441 0.25381 0.0
H165 H 0.97974 0.03327 0.17337 0.0
O166 O 0.10356 0.04347 0.28746 0.0
O167 O 0.99949 0.04732 0.28589 0.0
O168 O 0.04759 0.09974 0.23649 0.0
O169 O 0.05072 0.99492 0.23797 0.0
H170 H 0.13768 0.01898 0.34352 0.0
H171 H 0.15176 0.11053 0.26419 0.0
H172 H 0.20356 0.05484 0.36968 0.0
H173 H 0.21734 0.1448 0.29167 0.0
H174 H 0.90145 0.93861 0.31559 0.0
H175 H 0.99175 0.07081 0.34322 0.0
H176 H 0.94771 0.97685 0.27623 0.0
H177 H 0.94461 0.03107 0.38141 0.0
H178 H 0.0841 0.16146 0.38149 0.0
H179 H 0.03214 0.24876 0.30437 0.0
H180 H 0.05632 0.83794 0.31032 0.0
H181 H 0.05049 0.92389 0.38703 0.0
H182 H 0.0194 0.10539 0.17741 0.0
H183 H 0.09869 0.17056 0.2478 0.0
H184 H 0.03737 0.16777 0.13976 0.0
H185 H 0.11507 0.23185 0.20899 0.0
H186 H 0.08075 1.00135 0.18166 0.0
H187 H 0.98509 0.93511 0.23927 0.0
H188 H 0.05125 0.95782 0.13789 0.0
H189 H 0.95692 0.8931 0.19438 0.0
H190 H 0.22729 0.97335 0.20772 0.0
H191 H 0.20576 0.10863 0.16793 0.0
H192 H 0.84216 0.06601 0.2254 0.0
H193 H 0.9074 0.03267 0.14334 0.0
Li194 Li 0.02189 0.05696 0.78093 0.0
Li195 Li 0.10494 0.05882 0.7853 0.0
Li196 Li 0.06024 0.10059 0.74177 0.0
Li197 Li 0.06533 0.01861 0.7424 0.0
C198 C 0.04236 0.12968 0.80994 0.0
N199 N 0.99981 0.16786 0.85683 0.0
C200 C 0.05612 0.1189 0.84083 0.0
C201 C 0.0073 0.16026 0.80287 0.0
C202 C 0.03411 0.13847 0.86422 0.0
C203 C 0.98611 0.17908 0.82691 0.0
C204 C 0.08707 0.96624 0.79649 0.0
C205 C 0.1526 0.91941 0.79511 0.0
N206 N 0.13205 0.88649 0.81214 0.0
C207 C 0.06657 0.93199 0.81395 0.0
C208 C 0.13042 0.95997 0.78696 0.0
C209 C 0.08989 0.8919 0.82165 0.0
C210 C 0.92837 0.06307 0.79371 0.0
N211 N 0.97026 0.05238 0.80597 0.0
C212 C 0.94117 0.03499 0.85562 0.0
C213 C 0.97709 0.03817 0.83626 0.0
C214 C 0.89745 0.04611 0.84372 0.0
C215 C 0.89144 0.06023 0.81221 0.0
H216 H 0.92343 0.07356 0.76952 0.0
H217 H 0.01064 0.02958 0.84549 0.0
C218 C 0.19334 0.08472 0.806 0.0
N219 N 0.15729 0.05934 0.81367 0.0
C220 C 0.23182 0.08546 0.82609 0.0
C221 C 0.19527 0.03438 0.86183 0.0
C222 C 0.15758 0.03456 0.84105 0.0
C223 C 0.23321 0.06008 0.85453 0.0
H224 H 0.19208 0.1047 0.78435 0.0
H225 H 0.12843 0.01491 0.84682 0.0
C226 C 0.98269 0.0753 0.71202 0.0
N227 N 0.92748 0.11435 0.66451 0.0
C228 C 0.97781 0.05553 0.68358 0.0
C229 C 0.95912 0.11467 0.71637 0.0
C230 C 0.94983 0.07585 0.65983 0.0
C231 C 0.93149 0.13397 0.69205 0.0
C232 C 0.13426 0.06838 0.712 0.0
C233 C 0.10874 0.0607 0.6848 0.0
C234 C 0.17909 0.08141 0.71044 0.0
C235 C 0.12835 0.06656 0.6564 0.0
C236 C 0.19754 0.08687 0.6816 0.0
N237 N 0.172 0.07942 0.65539 0.0
C238 C 0.06857 0.19475 0.73085 0.0
C239 C 0.04892 0.15827 0.68503 0.0
C240 C 0.06709 0.2367 0.7145 0.0
N241 N 0.05908 0.15654 0.71611 0.0
C242 C 0.0468 0.19956 0.66779 0.0
C243 C 0.05563 0.23974 0.6825 0.0
H244 H 0.07719 0.19272 0.75545 0.0
H245 H 0.04161 0.12775 0.67353 0.0
C246 C 0.02986 0.94236 0.71263 0.0
N247 N 0.06823 0.96565 0.71888 0.0
C248 C 0.03076 0.9034 0.69613 0.0
C249 C 0.11073 0.91266 0.69306 0.0
C250 C 0.10827 0.95145 0.70955 0.0
C251 C 0.07163 0.88791 0.68609 0.0
H252 H 0.9985 0.95398 0.72062 0.0
H253 H 0.13848 0.97017 0.71499 0.0
O254 O 0.0627 0.10993 0.78676 0.0
O255 O 0.06453 1.00552 0.78861 0.0
O256 O 0.01013 0.05598 0.7355 0.0
O257 O 0.11581 0.06239 0.74008 0.0
H258 H 0.08313 0.09525 0.84671 0.0
H259 H 0.99653 0.16932 0.77909 0.0
H260 H 0.04419 0.13018 0.88824 0.0
H261 H 0.95878 0.20262 0.82178 0.0
H262 H 0.18614 0.91408 0.78788 0.0
H263 H 0.03299 0.93638 0.82146 0.0
H264 H 0.14677 0.98614 0.77341 0.0
H265 H 0.07445 0.86508 0.83516 0.0
H266 H 0.94778 0.02446 0.87977 0.0
H267 H 0.85841 0.06838 0.80175 0.0
H268 H 0.25987 0.10635 0.81963 0.0
H269 H 0.1948 0.01393 0.88329 0.0
H270 H 0.99552 0.02491 0.67981 0.0
H271 H 0.96252 0.13043 0.73817 0.0
H272 H 0.94591 0.06103 0.63767 0.0
H273 H 0.91332 0.16462 0.69506 0.0
H274 H 0.07419 0.0502 0.68562 0.0
H275 H 0.19951 0.08707 0.73127 0.0
H276 H 0.1089 0.06079 0.63517 0.0
H277 H 0.23221 0.09694 0.68005 0.0
H278 H 0.07512 0.26643 0.72688 0.0
H279 H 0.03733 0.19996 0.6433 0.0
H280 H 0.99984 0.88518 0.69178 0.0
H281 H 0.14294 0.90243 0.68559 0.0
H282 H 0.41492 0.01569 0.13225 0.0
H283 H 0.35217 0.09668 0.05608 0.0
H284 H 0.28214 0.09743 0.08242 0.0
H285 H 0.23875 0.07589 0.12714 0.0
H286 H 0.3022 0.99843 0.20493 0.0
H287 H 0.37119 0.99474 0.17771 0.0
C288 C 0.38579 0.03326 0.12141 0.0
C289 C 0.38888 0.05626 0.09228 0.0
C290 C 0.34558 0.03409 0.13693 0.0
C291 C 0.3509 0.07916 0.07862 0.0
C292 C 0.31075 0.07948 0.09363 0.0
C293 C 0.26771 0.05857 0.13841 0.0
C294 C 0.26481 0.03751 0.16822 0.0
C295 C 0.30776 0.05737 0.12289 0.0
C296 C 0.30279 0.01442 0.18189 0.0
C297 C 0.34257 0.01256 0.1664 0.0
H298 H 0.02928 0.44063 0.62653 0.0
H299 H 0.08237 0.38332 0.5475 0.0
H300 H 0.08875 0.30973 0.57586 0.0
H301 H 0.07951 0.26184 0.62331 0.0
H302 H 0.02351 0.3189 0.70178 0.0
H303 H 0.01834 0.39214 0.67369 0.0
C304 C 0.04195 0.41183 0.61558 0.0
C305 C 0.05503 0.41708 0.58497 0.0
C306 C 0.04521 0.36962 0.63199 0.0
C307 C 0.07195 0.37984 0.57103 0.0
C308 C 0.07557 0.33785 0.58723 0.0
C309 C 0.06571 0.2901 0.63423 0.0
C310 C 0.05219 0.28449 0.66485 0.0
C311 C 0.06223 0.33228 0.61774 0.0
C312 C 0.03504 0.32203 0.67856 0.0
C313 C 0.03172 0.36403 0.66239 0.0
H314 H 0.66713 0.03243 0.12693 0.0
H315 H 0.72539 0.09209 0.04584 0.0
H316 H 0.799 0.09431 0.07398 0.0
H317 H 0.84673 0.07914 0.12176 0.0
H318 H 0.78859 0.01685 0.20243 0.0
H319 H 0.71529 0.01604 0.17455 0.0
C320 C 0.69612 0.04568 0.11551 0.0
C321 C 0.69116 0.06176 0.08437 0.0
C322 C 0.73834 0.04649 0.1318 0.0
C323 C 0.72865 0.07938 0.06979 0.0
C324 C 0.77065 0.08059 0.08587 0.0
C325 C 0.81819 0.06495 0.1332 0.0
C326 C 0.82351 0.04828 0.16433 0.0
C327 C 0.77597 0.0641 0.11688 0.0
C328 C 0.78568 0.03069 0.17875 0.0
C329 C 0.74364 0.0299 0.16273 0.0
H330 H 0.10739 0.70417 0.62455 0.0
H331 H 0.98328 0.74229 0.57376 0.0
H332 H 0.97965 0.81015 0.6022 0.0
H333 H 0.01191 0.85957 0.64105 0.0
H334 H 0.13593 0.82183 0.69204 0.0
H335 H 0.13977 0.75384 0.66356 0.0
C336 C 0.0797 0.72745 0.61953 0.0
C337 C 0.04552 0.71769 0.59709 0.0
C338 C 0.07786 0.76682 0.63593 0.0
C339 C 0.00969 0.74827 0.59123 0.0
C340 C 0.0077 0.78737 0.60737 0.0
C341 C 0.0396 0.83631 0.64619 0.0
C342 C 0.07359 0.84612 0.66872 0.0
C343 C 0.04151 0.79699 0.62982 0.0
C344 C 0.10956 0.81571 0.67458 0.0
C345 C 0.11167 0.77656 0.6584 0.0
H346 H 0.38312 0.06243 0.96468 0.0
H347 H 0.46955 0.05966 0.88888 0.0
H348 H 0.40397 0.05947 0.85194 0.0
H349 H 0.32187 0.05927 0.84145 0.0
H350 H 0.23544 0.0627 0.9176 0.0
H351 H 0.30084 0.06298 0.9541 0.0
C352 C 0.38731 0.06183 0.94003 0.0
C353 C 0.43074 0.06108 0.92929 0.0
C354 C 0.34946 0.06164 0.91906 0.0
C355 C 0.43622 0.06026 0.89745 0.0
C356 C 0.39879 0.06015 0.87643 0.0
C357 C 0.31729 0.06049 0.866 0.0
C358 C 0.27356 0.06081 0.87664 0.0
C359 C 0.35519 0.06082 0.88696 0.0
C360 C 0.26851 0.06174 0.90866 0.0
C361 C 0.30596 0.06218 0.92961 0.0
H362 H 0.09835 0.36098 0.44198 0.0
H363 H 0.98169 0.42088 0.39224 0.0
H364 H 0.97603 0.35745 0.35935 0.0
H365 H 1.00316 0.28437 0.34502 0.0
H366 H 0.12321 0.22714 0.39202 0.0
H367 H 0.1282 0.28994 0.4255 0.0
C368 C 0.07201 0.36063 0.42369 0.0
C369 C 0.04029 0.39586 0.42 0.0
C370 C 0.06927 0.32422 0.40436 0.0
C371 C 1.00609 0.39405 0.39629 0.0
C372 C 1.00296 0.35782 0.37722 0.0
C373 C 0.03089 0.28574 0.36222 0.0
C374 C 0.06252 0.25042 0.36588 0.0
C375 C 0.03422 0.32259 0.38112 0.0
C376 C 0.09765 0.25298 0.38888 0.0
C377 C 0.10084 0.28923 0.40797 0.0
H378 H 0.74836 0.0066 0.94033 0.0
H379 H 0.69018 0.12558 0.89245 0.0
H380 H 0.75282 0.1307 0.85882 0.0
H381 H 0.82485 0.10233 0.84331 0.0
H382 H 0.88194 0.98187 0.88987 0.0
H383 H 0.81927 0.97666 0.92354 0.0
C384 C 0.74905 0.03337 0.92232 0.0
C385 C 0.71446 0.06578 0.9192 0.0
C386 C 0.78525 0.03609 0.90282 0.0
C387 C 0.71652 0.10055 0.89588 0.0
C388 C 0.7523 0.1034 0.87645 0.0
C389 C 0.82344 0.07459 0.86055 0.0
C390 C 0.85847 0.04268 0.86395 0.0
C391 C 0.78698 0.07149 0.87977 0.0
C392 C 0.85608 0.00744 0.88691 0.0
C393 C 0.81998 1.0042 0.90611 0.0
H394 H 0.0748 0.72334 0.46148 0.0
H395 H 1.00328 0.64589 0.39387 0.0
H396 H 0.99992 0.71147 0.35687 0.0
H397 H 0.01689 0.79104 0.34403 0.0
H398 H 0.09419 0.86644 0.41059 0.0
H399 H 0.09522 0.80186 0.44762 0.0
C400 C 0.05859 0.72097 0.43859 0.0
C401 C 0.03889 0.68011 0.43045 0.0
C402 C 0.05764 0.75853 0.41728 0.0
C403 C 0.01821 0.67721 0.4007 0.0
C404 C 0.01642 0.71464 0.37956 0.0
C405 C 0.03453 0.79339 0.36644 0.0
C406 C 0.05499 0.83425 0.37431 0.0
C407 C 0.03605 0.75553 0.38758 0.0
C408 C 0.07706 0.8362 0.40384 0.0
C409 C 0.07809 0.799 0.42509 0.0
loop_
_geom_bond_atom_site_label_1
_geom_bond_atom_site_label_2
_geom_bond_distance
_geom_bond_site_symmetry_2
_ccdc_geom_bond_type
C0 C1 1.443 . S
C0 N4 1.376 . S
C0 C38 1.389 . S
C1 C0 1.443 . S
C1 C2 1.340 . S
C1 H41 0.951 . S
C2 C1 1.340 . S
C2 C3 1.439 . S
C2 H42 0.950 . S
C3 C2 1.439 . S
C3 N4 1.374 . S
C3 C37 1.395 1_554 S
N4 C0 1.376 . S
N4 C3 1.374 . S
N4 Co5 2.008 . S
Co5 N4 2.008 . S
Co5 N6 1.995 1_554 S
Co5 N11 2.027 1_554 S
Co5 N16 1.993 . S
Co5 N21 2.282 . S
Co5 N27 2.282 1_554 S
N6 Co5 1.995 1_556 S
N6 C7 1.376 . S
N6 C10 1.383 . S
C7 N6 1.376 . S
C7 C8 1.446 . S
C7 C37 1.391 . S
C8 C7 1.446 . S
C8 C9 1.339 . S
C8 H43 0.949 . S
C9 C8 1.339 . S
C9 C10 1.439 . S
C9 H44 0.950 . S
C10 N6 1.383 . S
C10 C9 1.439 . S
C10 C39 1.392 . S
N11 Co5 2.027 1_556 S
N11 C12 1.380 . S
N11 C15 1.349 1_545 S
C12 N11 1.380 . S
C12 C13 1.443 1_545 S
C12 C39 1.389 . S
C13 C12 1.443 1_565 S
C13 C14 1.340 . S
C13 H45 0.951 . S
C14 C13 1.340 . S
C14 C15 1.439 . S
C14 H46 0.950 . S
C15 N11 1.349 1_565 S
C15 C14 1.439 . S
C15 C40 1.395 1_556 S
N16 Co5 1.993 . S
N16 C17 1.378 1_545 S
N16 C20 1.383 . S
C17 N16 1.378 1_565 S
C17 C18 1.446 . S
C17 C40 1.391 . S
C18 C17 1.446 . S
C18 C19 1.339 . S
C18 H47 0.949 . S
C19 C18 1.339 . S
C19 C20 1.439 1_565 S
C19 H48 0.950 . S
C20 N16 1.383 . S
C20 C19 1.439 1_545 S
C20 C38 1.392 . S
N21 Co5 2.282 . S
N21 C24 1.332 . S
N21 C26 1.332 . S
C22 C23 1.386 . S
C22 C25 1.388 . S
C23 C22 1.386 . S
C23 C24 1.382 . S
C23 H49 0.950 1_545 S
C24 N21 1.332 . S
C24 C23 1.382 . S
C24 H35 0.952 1_545 S
C25 C22 1.388 . S
C25 C26 1.382 . S
C25 H50 0.950 . S
C26 N21 1.332 . S
C26 C25 1.382 . S
C26 H36 0.948 . S
N27 Co5 2.282 1_556 S
N27 C31 1.332 . S
N27 C32 1.332 . S
C28 C29 1.388 . S
C28 C32 1.382 . S
C28 H51 0.950 1_545 S
C29 C28 1.388 . S
C29 C30 1.386 . S
C30 C29 1.386 . S
C30 C31 1.382 . S
C30 H52 0.950 . S
C31 N27 1.332 . S
C31 C30 1.382 . S
C31 H33 0.952 . S
C32 N27 1.332 . S
C32 C28 1.382 . S
C32 H34 0.948 1_545 S
H33 C31 0.952 . S
H34 C32 0.948 1_565 S
H35 C24 0.952 1_565 S
H36 C26 0.948 . S
C37 C3 1.395 1_556 S
C37 C7 1.391 . S
C38 C0 1.389 . S
C38 C20 1.392 . S
C39 C10 1.392 . S
C39 C12 1.389 . S
C40 C15 1.395 1_554 S
C40 C17 1.391 . S
H41 C1 0.951 . S
H42 C2 0.950 . S
H43 C8 0.949 . S
H44 C9 0.950 . S
H45 C13 0.951 . S
H46 C14 0.950 . S
H47 C18 0.949 . S
H48 C19 0.950 . S
H49 C23 0.950 1_565 S
H50 C25 0.950 . S
H51 C28 0.950 1_565 S
H52 C30 0.950 . S
C53 C54 1.443 . S
C53 N57 1.376 . S
C53 C91 1.389 . S
C54 C53 1.443 . S
C54 C55 1.340 . S
C54 H94 0.951 . S
C55 C54 1.340 . S
C55 C56 1.439 . S
C55 H95 0.950 . S
C56 C55 1.439 . S
C56 N57 1.374 . S
C56 C90 1.395 . S
N57 C53 1.376 . S
N57 C56 1.374 . S
N57 Co58 2.008 . S
Co58 N57 2.008 . S
Co58 N59 1.995 . S
Co58 N64 1.992 1_455 S
Co58 N69 1.995 . S
Co58 N74 2.282 . S
Co58 N80 2.282 . S
N59 Co58 1.995 . S
N59 C60 1.376 . S
N59 C63 1.383 . S
C60 N59 1.376 . S
C60 C61 1.446 . S
C60 C90 1.391 . S
C61 C60 1.446 . S
C61 C62 1.339 . S
C61 H96 0.949 . S
C62 C61 1.339 . S
C62 C63 1.439 . S
C62 H97 0.950 . S
C63 N59 1.383 . S
C63 C62 1.439 . S
C63 C92 1.392 . S
N64 Co58 1.992 1_655 S
N64 C65 1.373 1_655 S
N64 C68 1.396 . S
C65 N64 1.373 1_455 S
C65 C66 1.443 1_455 S
C65 C92 1.389 . S
C66 C65 1.443 1_655 S
C66 C67 1.340 . S
C66 H98 0.951 . S
C67 C66 1.340 . S
C67 C68 1.439 . S
C67 H99 0.950 . S
C68 N64 1.396 . S
C68 C67 1.439 . S
C68 C93 1.395 . S
N69 Co58 1.995 . S
N69 C70 1.376 1_455 S
N69 C73 1.383 . S
C70 N69 1.376 1_655 S
C70 C71 1.446 . S
C70 C93 1.391 . S
C71 C70 1.446 . S
C71 C72 1.339 . S
C71 H100 0.949 . S
C72 C71 1.339 . S
C72 C73 1.439 1_655 S
C72 H101 0.950 . S
C73 N69 1.383 . S
C73 C72 1.439 1_455 S
C73 C91 1.392 . S
N74 Co58 2.282 . S
N74 C77 1.332 . S
N74 C79 1.332 . S
C75 C76 1.386 . S
C75 C78 1.388 . S
C76 C75 1.386 . S
C76 C77 1.382 . S
C76 H102 0.950 1_455 S
C77 N74 1.332 . S
C77 C76 1.382 . S
C77 H88 0.952 1_455 S
C78 C75 1.388 . S
C78 C79 1.382 . S
C78 H103 0.950 . S
C79 N74 1.332 . S
C79 C78 1.382 . S
C79 H89 0.948 . S
N80 Co58 2.282 . S
N80 C84 1.332 . S
N80 C85 1.332 . S
C81 C82 1.388 . S
C81 C85 1.382 . S
C81 H104 0.950 1_455 S
C82 C81 1.388 . S
C82 C83 1.386 . S
C83 C82 1.386 . S
C83 C84 1.382 . S
C83 H105 0.950 . S
C84 N80 1.332 . S
C84 C83 1.382 . S
C84 H86 0.952 . S
C85 N80 1.332 . S
C85 C81 1.382 . S
C85 H87 0.948 1_455 S
H86 C84 0.952 . S
H87 C85 0.948 1_655 S
H88 C77 0.952 1_655 S
H89 C79 0.948 . S
C90 C56 1.395 . S
C90 C60 1.391 . S
C91 C53 1.389 . S
C91 C73 1.392 . S
C92 C63 1.392 . S
C92 C65 1.389 . S
C93 C68 1.395 . S
C93 C70 1.391 . S
H94 C54 0.951 . S
H95 C55 0.950 . S
H96 C61 0.949 . S
H97 C62 0.950 . S
H98 C66 0.951 . S
H99 C67 0.950 . S
H100 C71 0.949 . S
H101 C72 0.950 . S
H102 C76 0.950 1_655 S
H103 C78 0.950 . S
H104 C81 0.950 1_655 S
H105 C83 0.950 . S
Li106 N123 1.990 . S
Li106 O166 1.956 . S
Li106 O167 1.970 1_455 S
Li106 O168 1.961 . S
Li107 N131 1.990 . S
Li107 O166 1.970 1_565 S
Li107 O167 1.956 1_465 S
Li107 O169 1.961 . S
Li108 N153 1.990 . S
Li108 O166 1.961 . S
Li108 O168 1.956 . S
Li108 O169 1.970 1_545 S
Li109 N159 1.990 . S
Li109 O167 1.961 . S
Li109 O168 1.970 1_655 S
Li109 O169 1.956 1_645 S
C110 C112 1.348 . S
C110 C113 1.356 . S
C110 O166 1.325 . S
N111 C114 1.314 . S
N111 C115 1.279 . S
C112 C110 1.348 . S
C112 C114 1.353 . S
C112 H170 0.929 1_545 S
C113 C110 1.356 . S
C113 C115 1.358 . S
C113 H171 0.930 . S
C114 N111 1.314 . S
C114 C112 1.353 . S
C114 H172 0.930 1_545 S
C115 N111 1.279 . S
C115 C113 1.358 . S
C115 H173 0.930 . S
C116 C119 1.348 . S
C116 C120 1.356 . S
C116 O167 1.325 . S
C117 N118 1.279 . S
C117 C120 1.358 . S
C117 H174 0.930 1_545 S
N118 C117 1.279 . S
N118 C121 1.314 . S
C119 C116 1.348 . S
C119 C121 1.353 . S
C119 H175 0.929 . S
C120 C116 1.356 . S
C120 C117 1.358 . S
C120 H176 0.930 1_545 S
C121 N118 1.314 . S
C121 C119 1.353 . S
C121 H177 0.930 . S
C122 N123 1.314 . S
C122 C127 1.353 . S
C122 H128 0.930 1_455 S
N123 Li106 1.990 . S
N123 C122 1.314 . S
N123 C125 1.279 . S
C124 C125 1.358 . S
C124 C126 1.356 . S
C124 H178 0.930 . S
C125 N123 1.279 . S
C125 C124 1.358 . S
C125 H129 0.930 . S
C126 C124 1.356 . S
C126 C127 1.348 . S
C127 C122 1.353 . S
C127 C126 1.348 . S
C127 H179 0.929 1_455 S
H128 C122 0.930 1_655 S
H129 C125 0.930 . S
C130 N131 1.314 . S
C130 C132 1.353 . S
C130 H136 0.930 . S
N131 Li107 1.990 . S
N131 C130 1.314 . S
N131 C134 1.279 . S
C132 C130 1.353 . S
C132 C135 1.348 . S
C132 H180 0.929 . S
C133 C134 1.358 . S
C133 C135 1.356 . S
C133 H181 0.930 1_455 S
C134 N131 1.279 . S
C134 C133 1.358 . S
C134 H137 0.930 1_455 S
C135 C132 1.348 . S
C135 C133 1.356 . S
H136 C130 0.930 . S
H137 C134 0.930 1_655 S
C138 C140 1.348 . S
C138 C141 1.356 . S
C138 O168 1.325 . S
N139 C142 1.314 . S
N139 C143 1.279 . S
C140 C138 1.348 . S
C140 C142 1.353 . S
C140 H182 0.929 1_455 S
C141 C138 1.356 . S
C141 C143 1.358 . S
C141 H183 0.930 . S
C142 N139 1.314 . S
C142 C140 1.353 . S
C142 H184 0.930 1_455 S
C143 N139 1.279 . S
C143 C141 1.358 . S
C143 H185 0.930 . S
C144 C145 1.348 . S
C144 C146 1.356 . S
C144 O169 1.325 . S
C145 C144 1.348 . S
C145 C147 1.353 . S
C145 H186 0.929 . S
C146 C144 1.356 . S
C146 C148 1.358 . S
C146 H187 0.930 1_455 S
C147 C145 1.353 . S
C147 N149 1.314 . S
C147 H188 0.930 . S
C148 C146 1.358 . S
C148 N149 1.279 . S
C148 H189 0.930 1_455 S
N149 C147 1.314 . S
N149 C148 1.279 . S
C150 C152 1.353 . S
C150 N153 1.314 . S
C150 H156 0.930 1_545 S
C151 N153 1.279 . S
C151 C154 1.358 . S
C151 H157 0.930 . S
C152 C150 1.353 . S
C152 C155 1.348 . S
C152 H190 0.929 1_545 S
N153 Li108 1.990 . S
N153 C150 1.314 . S
N153 C151 1.279 . S
C154 C151 1.358 . S
C154 C155 1.356 . S
C154 H191 0.930 . S
C155 C152 1.348 . S
C155 C154 1.356 . S
H156 C150 0.930 1_565 S
H157 C151 0.930 . S
C158 N159 1.314 . S
C158 C160 1.353 . S
C158 H164 0.930 . S
N159 Li109 1.990 . S
N159 C158 1.314 . S
N159 C162 1.279 . S
C160 C158 1.353 . S
C160 C163 1.348 . S
C160 H192 0.929 . S
C161 C162 1.358 . S
C161 C163 1.356 . S
C161 H193 0.930 1_545 S
C162 N159 1.279 . S
C162 C161 1.358 . S
C162 H165 0.930 1_545 S
C163 C160 1.348 . S
C163 C161 1.356 . S
H164 C158 0.930 . S
H165 C162 0.930 1_565 S
O166 Li106 1.956 . S
O166 Li107 1.970 1_545 S
O166 Li108 1.961 . S
O166 C110 1.325 . S
O167 Li106 1.970 1_655 S
O167 Li107 1.956 1_645 S
O167 Li109 1.961 . S
O167 C116 1.325 . S
O168 Li106 1.961 . S
O168 Li108 1.956 . S
O168 Li109 1.970 1_455 S
O168 C138 1.325 . S
O169 Li107 1.961 . S
O169 Li108 1.970 1_565 S
O169 Li109 1.956 1_465 S
O169 C144 1.325 . S
H170 C112 0.929 1_565 S
H171 C113 0.930 . S
H172 C114 0.930 1_565 S
H173 C115 0.930 . S
H174 C117 0.930 1_565 S
H175 C119 0.929 . S
H176 C120 0.930 1_565 S
H177 C121 0.930 . S
H178 C124 0.930 . S
H179 C127 0.929 1_655 S
H180 C132 0.929 . S
H181 C133 0.930 1_655 S
H182 C140 0.929 1_655 S
H183 C141 0.930 . S
H184 C142 0.930 1_655 S
H185 C143 0.930 . S
H186 C145 0.929 . S
H187 C146 0.930 1_655 S
H188 C147 0.930 . S
H189 C148 0.930 1_655 S
H190 C152 0.929 1_565 S
H191 C154 0.930 . S
H192 C160 0.929 . S
H193 C161 0.930 1_565 S
Li194 N211 1.990 1_455 S
Li194 O254 1.956 . S
Li194 O255 1.970 . S
Li194 O256 1.961 . S
Li195 N219 1.990 . S
Li195 O254 1.970 . S
Li195 O255 1.956 . S
Li195 O257 1.961 . S
Li196 N241 1.990 . S
Li196 O254 1.961 . S
Li196 O256 1.956 . S
Li196 O257 1.970 . S
Li197 N247 1.990 1_545 S
Li197 O255 1.961 . S
Li197 O256 1.970 . S
Li197 O257 1.956 . S
C198 C200 1.348 . S
C198 C201 1.356 . S
C198 O254 1.325 . S
N199 C202 1.314 . S
N199 C203 1.279 . S
C200 C198 1.348 . S
C200 C202 1.353 . S
C200 H258 0.929 . S
C201 C198 1.356 . S
C201 C203 1.358 . S
C201 H259 0.930 . S
C202 N199 1.314 . S
C202 C200 1.353 . S
C202 H260 0.930 . S
C203 N199 1.279 . S
C203 C201 1.358 . S
C203 H261 0.930 . S
C204 C207 1.348 . S
C204 C208 1.356 . S
C204 O255 1.325 1_565 S
C205 N206 1.279 . S
C205 C208 1.358 . S
C205 H262 0.930 . S
N206 C205 1.279 . S
N206 C209 1.314 . S
C207 C204 1.348 . S
C207 C209 1.353 . S
C207 H263 0.929 . S
C208 C204 1.356 . S
C208 C205 1.358 . S
C208 H264 0.930 . S
C209 N206 1.314 . S
C209 C207 1.353 . S
C209 H265 0.930 . S
C210 N211 1.314 . S
C210 C215 1.353 . S
C210 H216 0.930 . S
N211 Li194 1.990 1_655 S
N211 C210 1.314 . S
N211 C213 1.279 . S
C212 C213 1.358 . S
C212 C214 1.356 . S
C212 H266 0.930 . S
C213 N211 1.279 . S
C213 C212 1.358 . S
C213 H217 0.930 . S
C214 C212 1.356 . S
C214 C215 1.348 . S
C215 C210 1.353 . S
C215 C214 1.348 . S
C215 H267 0.929 . S
H216 C210 0.930 . S
H217 C213 0.930 . S
C218 N219 1.314 . S
C218 C220 1.353 . S
C218 H224 0.930 . S
N219 Li195 1.990 . S
N219 C218 1.314 . S
N219 C222 1.279 . S
C220 C218 1.353 . S
C220 C223 1.348 . S
C220 H268 0.929 . S
C221 C222 1.358 . S
C221 C223 1.356 . S
C221 H269 0.930 . S
C222 N219 1.279 . S
C222 C221 1.358 . S
C222 H225 0.930 . S
C223 C220 1.348 . S
C223 C221 1.356 . S
H224 C218 0.930 . S
H225 C222 0.930 . S
C226 C228 1.348 . S
C226 C229 1.356 . S
C226 O256 1.325 1_655 S
N227 C230 1.314 . S
N227 C231 1.279 . S
C228 C226 1.348 . S
C228 C230 1.353 . S
C228 H270 0.929 . S
C229 C226 1.356 . S
C229 C231 1.358 . S
C229 H271 0.930 . S
C230 N227 1.314 . S
C230 C228 1.353 . S
C230 H272 0.930 . S
C231 N227 1.279 . S
C231 C229 1.358 . S
C231 H273 0.930 . S
C232 C233 1.348 . S
C232 C234 1.356 . S
C232 O257 1.325 . S
C233 C232 1.348 . S
C233 C235 1.353 . S
C233 H274 0.929 . S
C234 C232 1.356 . S
C234 C236 1.358 . S
C234 H275 0.930 . S
C235 C233 1.353 . S
C235 N237 1.314 . S
C235 H276 0.930 . S
C236 C234 1.358 . S
C236 N237 1.279 . S
C236 H277 0.930 . S
N237 C235 1.314 . S
N237 C236 1.279 . S
C238 C240 1.353 . S
C238 N241 1.314 . S
C238 H244 0.930 . S
C239 N241 1.279 . S
C239 C242 1.358 . S
C239 H245 0.930 . S
C240 C238 1.353 . S
C240 C243 1.348 . S
C240 H278 0.929 . S
N241 Li196 1.990 . S
N241 C238 1.314 . S
N241 C239 1.279 . S
C242 C239 1.358 . S
C242 C243 1.356 . S
C242 H279 0.930 . S
C243 C240 1.348 . S
C243 C242 1.356 . S
H244 C238 0.930 . S
H245 C239 0.930 . S
C246 N247 1.314 . S
C246 C248 1.353 . S
C246 H252 0.930 . S
N247 Li197 1.990 1_565 S
N247 C246 1.314 . S
N247 C250 1.279 . S
C248 C246 1.353 . S
C248 C251 1.348 . S
C248 H280 0.929 . S
C249 C250 1.358 . S
C249 C251 1.356 . S
C249 H281 0.930 . S
C250 N247 1.279 . S
C250 C249 1.358 . S
C250 H253 0.930 . S
C251 C248 1.348 . S
C251 C249 1.356 . S
H252 C246 0.930 . S
H253 C250 0.930 . S
O254 Li194 1.956 . S
O254 Li195 1.970 . S
O254 Li196 1.961 . S
O254 C198 1.325 . S
O255 Li194 1.970 . S
O255 Li195 1.956 . S
O255 Li197 1.961 . S
O255 C204 1.325 1_545 S
O256 Li194 1.961 . S
O256 Li196 1.956 . S
O256 Li197 1.970 . S
O256 C226 1.325 1_455 S
O257 Li195 1.961 . S
O257 Li196 1.970 . S
O257 Li197 1.956 . S
O257 C232 1.325 . S
H258 C200 0.929 . S
H259 C201 0.930 . S
H260 C202 0.930 . S
H261 C203 0.930 . S
H262 C205 0.930 . S
H263 C207 0.929 . S
H264 C208 0.930 . S
H265 C209 0.930 . S
H266 C212 0.930 . S
H267 C215 0.929 . S
H268 C220 0.929 . S
H269 C221 0.930 . S
H270 C228 0.929 . S
H271 C229 0.930 . S
H272 C230 0.930 . S
H273 C231 0.930 . S
H274 C233 0.929 . S
H275 C234 0.930 . S
H276 C235 0.930 . S
H277 C236 0.930 . S
H278 C240 0.929 . S
H279 C242 0.930 . S
H280 C248 0.929 . S
H281 C249 0.930 . S
H282 C288 0.930 . S
H283 C291 0.930 . S
H284 C292 0.930 . S
H285 C293 0.930 . S
H286 C296 0.930 . S
H287 C297 0.930 . S
C288 H282 0.930 . S
C288 C289 1.355 . S
C288 C290 1.415 . S
C289 C288 1.355 . S
C289 C291 1.419 . S
C290 C288 1.415 . S
C290 C295 1.425 . S
C290 C297 1.409 . S
C291 H283 0.930 . S
C291 C289 1.419 . S
C291 C292 1.362 . S
C292 H284 0.930 . S
C292 C291 1.362 . S
C292 C295 1.409 . S
C293 H285 0.930 . S
C293 C294 1.355 . S
C293 C295 1.415 . S
C294 C293 1.355 . S
C294 C296 1.419 . S
C295 C290 1.425 . S
C295 C292 1.409 . S
C295 C293 1.415 . S
C296 H286 0.930 . S
C296 C294 1.419 . S
C296 C297 1.362 . S
C297 H287 0.930 . S
C297 C290 1.409 . S
C297 C296 1.362 . S
H298 C304 0.930 1_655 S
H299 C307 0.930 . S
H300 C308 0.930 . S
H301 C309 0.930 . S
H302 C312 0.930 1_655 S
H303 C313 0.946 . S
C304 H298 0.930 1_455 S
C304 C305 1.355 . S
C304 C306 1.415 . S
C305 C304 1.355 . S
C305 C307 1.419 . S
C306 C304 1.415 . S
C306 C311 1.425 . S
C306 C313 1.397 1_455 S
C307 H299 0.930 . S
C307 C305 1.419 . S
C307 C308 1.362 . S
C308 H300 0.930 . S
C308 C307 1.362 . S
C308 C311 1.409 . S
C309 H301 0.930 . S
C309 C310 1.355 . S
C309 C311 1.415 . S
C310 C309 1.355 . S
C310 C312 1.419 . S
C311 C306 1.425 . S
C311 C308 1.409 . S
C311 C309 1.415 . S
C312 H302 0.930 1_455 S
C312 C310 1.419 . S
C312 C313 1.360 1_455 S
C313 H303 0.946 . S
C313 C306 1.397 1_655 S
C313 C312 1.360 1_655 S
H314 C320 0.930 . S
H315 C323 0.930 . S
H316 C324 0.930 . S
H317 C325 0.930 . S
H318 C328 0.930 . S
H319 C329 0.930 . S
C320 H314 0.930 . S
C320 C321 1.355 . S
C320 C322 1.415 . S
C321 C320 1.355 . S
C321 C323 1.419 . S
C322 C320 1.415 . S
C322 C327 1.425 . S
C322 C329 1.409 . S
C323 H315 0.930 . S
C323 C321 1.419 . S
C323 C324 1.362 . S
C324 H316 0.930 . S
C324 C323 1.362 . S
C324 C327 1.409 . S
C325 H317 0.930 . S
C325 C326 1.355 . S
C325 C327 1.415 . S
C326 C325 1.355 . S
C326 C328 1.419 . S
C327 C322 1.425 . S
C327 C324 1.409 . S
C327 C325 1.415 . S
C328 H318 0.930 . S
C328 C326 1.419 . S
C328 C329 1.362 . S
C329 H319 0.930 . S
C329 C322 1.409 . S
C329 C328 1.362 . S
H330 C336 0.930 . S
H331 C339 0.930 1_655 S
H332 C340 0.930 . S
H333 C341 0.930 1_655 S
H334 C344 0.930 . S
H335 C345 0.930 . S
C336 H330 0.930 . S
C336 C337 1.355 . S
C336 C338 1.415 . S
C337 C336 1.355 . S
C337 C339 1.419 . S
C338 C336 1.415 . S
C338 C343 1.425 . S
C338 C345 1.409 . S
C339 H331 0.930 1_455 S
C339 C337 1.419 . S
C339 C340 1.362 1_455 S
C340 H332 0.930 . S
C340 C339 1.362 1_655 S
C340 C343 1.409 1_655 S
C341 H333 0.930 1_455 S
C341 C342 1.355 . S
C341 C343 1.415 . S
C342 C341 1.355 . S
C342 C344 1.419 . S
C343 C338 1.425 . S
C343 C340 1.409 1_455 S
C343 C341 1.415 . S
C344 H334 0.930 . S
C344 C342 1.419 . S
C344 C345 1.362 . S
C345 H335 0.930 . S
C345 C338 1.409 . S
C345 C344 1.362 . S
H346 C352 0.930 . S
H347 C355 0.930 1_565 S
H348 C356 0.930 . S
H349 C357 0.930 1_565 S
H350 C360 0.930 . S
H351 C361 0.930 . S
C352 H346 0.930 . S
C352 C353 1.355 . S
C352 C354 1.415 . S
C353 C352 1.355 . S
C353 C355 1.419 . S
C354 C352 1.415 . S
C354 C359 1.425 . S
C354 C361 1.409 . S
C355 H347 0.930 1_545 S
C355 C353 1.419 . S
C355 C356 1.362 1_545 S
C356 H348 0.930 . S
C356 C355 1.362 1_565 S
C356 C359 1.409 1_565 S
C357 H349 0.930 1_545 S
C357 C358 1.355 . S
C357 C359 1.415 . S
C358 C357 1.355 . S
C358 C360 1.419 . S
C359 C354 1.425 . S
C359 C356 1.409 1_545 S
C359 C357 1.415 . S
C360 H350 0.930 . S
C360 C358 1.419 . S
C360 C361 1.362 . S
C361 H351 0.930 . S
C361 C354 1.409 . S
C361 C360 1.362 . S
H362 C368 0.930 . S
H363 C371 0.933 . S
H364 C372 0.930 . S
H365 C373 0.930 1_655 S
H366 C376 0.930 . S
H367 C377 0.930 . S
C368 H362 0.930 . S
C368 C369 1.355 . S
C368 C370 1.415 . S
C369 C368 1.355 . S
C369 C371 1.416 1_455 S
C370 C368 1.415 . S
C370 C375 1.425 . S
C370 C377 1.409 . S
C371 H363 0.933 . S
C371 C369 1.416 1_655 S
C371 C372 1.363 . S
C372 H364 0.930 . S
C372 C371 1.363 . S
C372 C375 1.409 1_655 S
C373 H365 0.930 1_455 S
C373 C374 1.355 . S
C373 C375 1.415 . S
C374 C373 1.355 . S
C374 C376 1.419 . S
C375 C370 1.425 . S
C375 C372 1.409 1_455 S
C375 C373 1.415 . S
C376 H366 0.930 . S
C376 C374 1.419 . S
C376 C377 1.362 . S
C377 H367 0.930 . S
C377 C370 1.409 . S
C377 C376 1.362 . S
H378 C384 0.930 . S
H379 C387 0.930 . S
H380 C388 0.930 . S
H381 C389 0.930 . S
H382 C392 0.930 . S
H383 C393 0.930 . S
C384 H378 0.930 . S
C384 C385 1.355 . S
C384 C386 1.415 . S
C385 C384 1.355 . S
C385 C387 1.419 . S
C386 C384 1.415 . S
C386 C391 1.425 . S
C386 C393 1.409 . S
C387 H379 0.930 . S
C387 C385 1.419 . S
C387 C388 1.362 . S
C388 H380 0.930 . S
C388 C387 1.362 . S
C388 C391 1.409 . S
C389 H381 0.930 . S
C389 C390 1.355 . S
C389 C391 1.415 . S
C390 C389 1.355 . S
C390 C392 1.419 . S
C391 C386 1.425 . S
C391 C388 1.409 . S
C391 C389 1.415 . S
C392 H382 0.930 . S
C392 C390 1.419 . S
C392 C393 1.362 . S
C393 H383 0.930 . S
C393 C386 1.409 . S
C393 C392 1.362 . S
H394 C400 0.930 . S
H395 C403 0.930 . S
H396 C404 0.930 . S
H397 C405 0.930 . S
H398 C408 0.930 . S
H399 C409 0.930 . S
C400 H394 0.930 . S
C400 C401 1.355 . S
C400 C402 1.415 . S
C401 C400 1.355 . S
C401 C403 1.419 . S
C402 C400 1.415 . S
C402 C407 1.425 . S
C402 C409 1.409 . S
C403 H395 0.930 . S
C403 C401 1.419 . S
C403 C404 1.362 . S
C404 H396 0.930 . S
C404 C403 1.362 . S
C404 C407 1.409 . S
C405 H397 0.930 . S
C405 C406 1.355 . S
C405 C407 1.415 . S
C406 C405 1.355 . S
C406 C408 1.419 . S
C407 C402 1.425 . S
C407 C404 1.409 . S
C407 C405 1.415 . S
C408 H398 0.930 . S
C408 C406 1.419 . S
C408 C409 1.362 . S
C409 H399 0.930 . S
C409 C402 1.409 . S
C409 C408 1.362 . S
C294 C155 1.485 . S
C289 C22 1.489 . S
C310 C243 1.481 . S
C305 C91 1.482 . S
C326 C163 1.483 . S
C321 C38 1.486 . S
C342 C251 1.483 . S
C337 C75 1.487 . S
C358 C223 1.488 . S
C353 C39 1.484 . S
C374 C126 1.484 . S
C369 C82 1.484 . S
C390 C214 1.487 . S
C385 C29 1.485 . S
C401 C92 1.480 . S
C406 C135 1.485 . S
