# Generated by pormake.
# Topology gar, (4,6)-cn, num edge types: 1
# Building blocks:
#     Node 0, Type 0, BuildingBlock: NAHDIM_clean_sbu_0, # of connection points: 4
#     Node 1, Type 0, BuildingBlock: NAHDIM_clean_sbu_0, # of connection points: 4
#     Node 2, Type 0, BuildingBlock: NAHDIM_clean_sbu_0, # of connection points: 4
#     Node 3, Type 0, BuildingBlock: NAHDIM_clean_sbu_0, # of connection points: 4
#     Node 4, Type 0, BuildingBlock: NAHDIM_clean_sbu_0, # of connection points: 4
#     Node 5, Type 0, BuildingBlock: NAHDIM_clean_sbu_0, # of connection points: 4
#     Node 6, Type 0, BuildingBlock: NAHDIM_clean_sbu_0, # of connection points: 4
#     Node 7, Type 0, BuildingBlock: NAHDIM_clean_sbu_0, # of connection points: 4
#     Node 8, Type 0, BuildingBlock: NAHDIM_clean_sbu_0, # of connection points: 4
#     Node 9, Type 0, BuildingBlock: NAHDIM_clean_sbu_0, # of connection points: 4
#     Node 10, Type 0, BuildingBlock: NAHDIM_clean_sbu_0, # of connection points: 4
#     Node 11, Type 0, BuildingBlock: NAHDIM_clean_sbu_0, # of connection points: 4
#     Node 12, Type 0, BuildingBlock: NAHDIM_clean_sbu_0, # of connection points: 4
#     Node 13, Type 0, BuildingBlock: NAHDIM_clean_sbu_0, # of connection points: 4
#     Node 14, Type 0, BuildingBlock: NAHDIM_clean_sbu_0, # of connection points: 4
#     Node 15, Type 0, BuildingBlock: NAHDIM_clean_sbu_0, # of connection points: 4
#     Node 16, Type 0, BuildingBlock: NAHDIM_clean_sbu_0, # of connection points: 4
#     Node 17, Type 0, BuildingBlock: NAHDIM_clean_sbu_0, # of connection points: 4
#     Node 18, Type 0, BuildingBlock: NAHDIM_clean_sbu_0, # of connection points: 4
#     Node 19, Type 0, BuildingBlock: NAHDIM_clean_sbu_0, # of connection points: 4
#     Node 20, Type 0, BuildingBlock: NAHDIM_clean_sbu_0, # of connection points: 4
#     Node 21, Type 0, BuildingBlock: NAHDIM_clean_sbu_0, # of connection points: 4
#     Node 22, Type 0, BuildingBlock: NAHDIM_clean_sbu_0, # of connection points: 4
#     Node 23, Type 0, BuildingBlock: NAHDIM_clean_sbu_0, # of connection points: 4
#     Node 24, Type 1, BuildingBlock: PAMTOO_clean_sbu_0, # of connection points: 6
#     Node 25, Type 1, BuildingBlock: PAMTOO_clean_sbu_0, # of connection points: 6
#     Node 26, Type 1, BuildingBlock: PAMTOO_clean_sbu_0, # of connection points: 6
#     Node 27, Type 1, BuildingBlock: PAMTOO_clean_sbu_0, # of connection points: 6
#     Node 28, Type 1, BuildingBlock: PAMTOO_clean_sbu_0, # of connection points: 6
#     Node 29, Type 1, BuildingBlock: PAMTOO_clean_sbu_0, # of connection points: 6
#     Node 30, Type 1, BuildingBlock: PAMTOO_clean_sbu_0, # of connection points: 6
#     Node 31, Type 1, BuildingBlock: PAMTOO_clean_sbu_0, # of connection points: 6
#     Node 32, Type 1, BuildingBlock: PAMTOO_clean_sbu_0, # of connection points: 6
#     Node 33, Type 1, BuildingBlock: PAMTOO_clean_sbu_0, # of connection points: 6
#     Node 34, Type 1, BuildingBlock: PAMTOO_clean_sbu_0, # of connection points: 6
#     Node 35, Type 1, BuildingBlock: PAMTOO_clean_sbu_0, # of connection points: 6
#     Node 36, Type 1, BuildingBlock: PAMTOO_clean_sbu_0, # of connection points: 6
#     Node 37, Type 1, BuildingBlock: PAMTOO_clean_sbu_0, # of connection points: 6
#     Node 38, Type 1, BuildingBlock: PAMTOO_clean_sbu_0, # of connection points: 6
#     Node 39, Type 1, BuildingBlock: PAMTOO_clean_sbu_0, # of connection points: 6
#     Edge 40, Type (0, 1), BuildingBlock: AJUNOK_clean_linker_0, # of connection points: 2
#     Edge 41, Type (0, 1), BuildingBlock: AJUNOK_clean_linker_0, # of connection points: 2
#     Edge 42, Type (0, 1), BuildingBlock: AJUNOK_clean_linker_0, # of connection points: 2
#     Edge 43, Type (0, 1), BuildingBlock: AJUNOK_clean_linker_0, # of connection points: 2
#     Edge 44, Type (0, 1), BuildingBlock: AJUNOK_clean_linker_0, # of connection points: 2
#     Edge 45, Type (0, 1), BuildingBlock: AJUNOK_clean_linker_0, # of connection points: 2
#     Edge 46, Type (0, 1), BuildingBlock: AJUNOK_clean_linker_0, # of connection points: 2
#     Edge 47, Type (0, 1), BuildingBlock: AJUNOK_clean_linker_0, # of connection points: 2
#     Edge 48, Type (0, 1), BuildingBlock: AJUNOK_clean_linker_0, # of connection points: 2
#     Edge 49, Type (0, 1), BuildingBlock: AJUNOK_clean_linker_0, # of connection points: 2
#     Edge 50, Type (0, 1), BuildingBlock: AJUNOK_clean_linker_0, # of connection points: 2
#     Edge 51, Type (0, 1), BuildingBlock: AJUNOK_clean_linker_0, # of connection points: 2
#     Edge 52, Type (0, 1), BuildingBlock: AJUNOK_clean_linker_0, # of connection points: 2
#     Edge 53, Type (0, 1), BuildingBlock: AJUNOK_clean_linker_0, # of connection points: 2
#     Edge 54, Type (0, 1), BuildingBlock: AJUNOK_clean_linker_0, # of connection points: 2
#     Edge 55, Type (0, 1), BuildingBlock: AJUNOK_clean_linker_0, # of connection points: 2
#     Edge 56, Type (0, 1), BuildingBlock: AJUNOK_clean_linker_0, # of connection points: 2
#     Edge 57, Type (0, 1), BuildingBlock: AJUNOK_clean_linker_0, # of connection points: 2
#     Edge 58, Type (0, 1), BuildingBlock: AJUNOK_clean_linker_0, # of connection points: 2
#     Edge 59, Type (0, 1), BuildingBlock: AJUNOK_clean_linker_0, # of connection points: 2
#     Edge 60, Type (0, 1), BuildingBlock: AJUNOK_clean_linker_0, # of connection points: 2
#     Edge 61, Type (0, 1), BuildingBlock: AJUNOK_clean_linker_0, # of connection points: 2
#     Edge 62, Type (0, 1), BuildingBlock: AJUNOK_clean_linker_0, # of connection points: 2
#     Edge 63, Type (0, 1), BuildingBlock: AJUNOK_clean_linker_0, # of connection points: 2
#     Edge 64, Type (0, 1), BuildingBlock: AJUNOK_clean_linker_0, # of connection points: 2
#     Edge 65, Type (0, 1), BuildingBlock: AJUNOK_clean_linker_0, # of connection points: 2
#     Edge 66, Type (0, 1), BuildingBlock: AJUNOK_clean_linker_0, # of connection points: 2
#     Edge 67, Type (0, 1), BuildingBlock: AJUNOK_clean_linker_0, # of connection points: 2
#     Edge 68, Type (0, 1), BuildingBlock: AJUNOK_clean_linker_0, # of connection points: 2
#     Edge 69, Type (0, 1), BuildingBlock: AJUNOK_clean_linker_0, # of connection points: 2
#     Edge 70, Type (0, 1), BuildingBlock: AJUNOK_clean_linker_0, # of connection points: 2
#     Edge 71, Type (0, 1), BuildingBlock: AJUNOK_clean_linker_0, # of connection points: 2
#     Edge 72, Type (0, 1), BuildingBlock: AJUNOK_clean_linker_0, # of connection points: 2
#     Edge 73, Type (0, 1), BuildingBlock: AJUNOK_clean_linker_0, # of connection points: 2
#     Edge 74, Type (0, 1), BuildingBlock: AJUNOK_clean_linker_0, # of connection points: 2
#     Edge 75, Type (0, 1), BuildingBlock: AJUNOK_clean_linker_0, # of connection points: 2
#     Edge 76, Type (0, 1), BuildingBlock: AJUNOK_clean_linker_0, # of connection points: 2
#     Edge 77, Type (0, 1), BuildingBlock: AJUNOK_clean_linker_0, # of connection points: 2
#     Edge 78, Type (0, 1), BuildingBlock: AJUNOK_clean_linker_0, # of connection points: 2
#     Edge 79, Type (0, 1), BuildingBlock: AJUNOK_clean_linker_0, # of connection points: 2
#     Edge 80, Type (0, 1), BuildingBlock: AJUNOK_clean_linker_0, # of connection points: 2
#     Edge 81, Type (0, 1), BuildingBlock: AJUNOK_clean_linker_0, # of connection points: 2
#     Edge 82, Type (0, 1), BuildingBlock: AJUNOK_clean_linker_0, # of connection points: 2
#     Edge 83, Type (0, 1), BuildingBlock: AJUNOK_clean_linker_0, # of connection points: 2
#     Edge 84, Type (0, 1), BuildingBlock: AJUNOK_clean_linker_0, # of connection points: 2
#     Edge 85, Type (0, 1), BuildingBlock: AJUNOK_clean_linker_0, # of connection points: 2
#     Edge 86, Type (0, 1), BuildingBlock: AJUNOK_clean_linker_0, # of connection points: 2
#     Edge 87, Type (0, 1), BuildingBlock: AJUNOK_clean_linker_0, # of connection points: 2
#     Edge 88, Type (0, 1), BuildingBlock: AJUNOK_clean_linker_0, # of connection points: 2
#     Edge 89, Type (0, 1), BuildingBlock: AJUNOK_clean_linker_0, # of connection points: 2
#     Edge 90, Type (0, 1), BuildingBlock: AJUNOK_clean_linker_0, # of connection points: 2
#     Edge 91, Type (0, 1), BuildingBlock: AJUNOK_clean_linker_0, # of connection points: 2
#     Edge 92, Type (0, 1), BuildingBlock: AJUNOK_clean_linker_0, # of connection points: 2
#     Edge 93, Type (0, 1), BuildingBlock: AJUNOK_clean_linker_0, # of connection points: 2
#     Edge 94, Type (0, 1), BuildingBlock: AJUNOK_clean_linker_0, # of connection points: 2
#     Edge 95, Type (0, 1), BuildingBlock: AJUNOK_clean_linker_0, # of connection points: 2
#     Edge 96, Type (0, 1), BuildingBlock: AJUNOK_clean_linker_0, # of connection points: 2
#     Edge 97, Type (0, 1), BuildingBlock: AJUNOK_clean_linker_0, # of connection points: 2
#     Edge 98, Type (0, 1), BuildingBlock: AJUNOK_clean_linker_0, # of connection points: 2
#     Edge 99, Type (0, 1), BuildingBlock: AJUNOK_clean_linker_0, # of connection points: 2
#     Edge 100, Type (0, 1), BuildingBlock: AJUNOK_clean_linker_0, # of connection points: 2
#     Edge 101, Type (0, 1), BuildingBlock: AJUNOK_clean_linker_0, # of connection points: 2
#     Edge 102, Type (0, 1), BuildingBlock: AJUNOK_clean_linker_0, # of connection points: 2
#     Edge 103, Type (0, 1), BuildingBlock: AJUNOK_clean_linker_0, # of connection points: 2
#     Edge 104, Type (0, 1), BuildingBlock: AJUNOK_clean_linker_0, # of connection points: 2
#     Edge 105, Type (0, 1), BuildingBlock: AJUNOK_clean_linker_0, # of connection points: 2
#     Edge 106, Type (0, 1), BuildingBlock: AJUNOK_clean_linker_0, # of connection points: 2
#     Edge 107, Type (0, 1), BuildingBlock: AJUNOK_clean_linker_0, # of connection points: 2
#     Edge 108, Type (0, 1), BuildingBlock: AJUNOK_clean_linker_0, # of connection points: 2
#     Edge 109, Type (0, 1), BuildingBlock: AJUNOK_clean_linker_0, # of connection points: 2
#     Edge 110, Type (0, 1), BuildingBlock: AJUNOK_clean_linker_0, # of connection points: 2
#     Edge 111, Type (0, 1), BuildingBlock: AJUNOK_clean_linker_0, # of connection points: 2
#     Edge 112, Type (0, 1), BuildingBlock: AJUNOK_clean_linker_0, # of connection points: 2
#     Edge 113, Type (0, 1), BuildingBlock: AJUNOK_clean_linker_0, # of connection points: 2
#     Edge 114, Type (0, 1), BuildingBlock: AJUNOK_clean_linker_0, # of connection points: 2
#     Edge 115, Type (0, 1), BuildingBlock: AJUNOK_clean_linker_0, # of connection points: 2
#     Edge 116, Type (0, 1), BuildingBlock: AJUNOK_clean_linker_0, # of connection points: 2
#     Edge 117, Type (0, 1), BuildingBlock: AJUNOK_clean_linker_0, # of connection points: 2
#     Edge 118, Type (0, 1), BuildingBlock: AJUNOK_clean_linker_0, # of connection points: 2
#     Edge 119, Type (0, 1), BuildingBlock: AJUNOK_clean_linker_0, # of connection points: 2
#     Edge 120, Type (0, 1), BuildingBlock: AJUNOK_clean_linker_0, # of connection points: 2
#     Edge 121, Type (0, 1), BuildingBlock: AJUNOK_clean_linker_0, # of connection points: 2
#     Edge 122, Type (0, 1), BuildingBlock: AJUNOK_clean_linker_0, # of connection points: 2
#     Edge 123, Type (0, 1), BuildingBlock: AJUNOK_clean_linker_0, # of connection points: 2
#     Edge 124, Type (0, 1), BuildingBlock: AJUNOK_clean_linker_0, # of connection points: 2
#     Edge 125, Type (0, 1), BuildingBlock: AJUNOK_clean_linker_0, # of connection points: 2
#     Edge 126, Type (0, 1), BuildingBlock: AJUNOK_clean_linker_0, # of connection points: 2
#     Edge 127, Type (0, 1), BuildingBlock: AJUNOK_clean_linker_0, # of connection points: 2
#     Edge 128, Type (0, 1), BuildingBlock: AJUNOK_clean_linker_0, # of connection points: 2
#     Edge 129, Type (0, 1), BuildingBlock: AJUNOK_clean_linker_0, # of connection points: 2
#     Edge 130, Type (0, 1), BuildingBlock: AJUNOK_clean_linker_0, # of connection points: 2
#     Edge 131, Type (0, 1), BuildingBlock: AJUNOK_clean_linker_0, # of connection points: 2
#     Edge 132, Type (0, 1), BuildingBlock: AJUNOK_clean_linker_0, # of connection points: 2
#     Edge 133, Type (0, 1), BuildingBlock: AJUNOK_clean_linker_0, # of connection points: 2
#     Edge 134, Type (0, 1), BuildingBlock: AJUNOK_clean_linker_0, # of connection points: 2
#     Edge 135, Type (0, 1), BuildingBlock: AJUNOK_clean_linker_0, # of connection points: 2
# Relax obj value: 0.199
# Max RMSD: 0.274
# Mean RMSD: 0.190
data_MOF--net-gar--node1-NAHDIM_clean_sbu_0--node2-PAMTOO_clean_sbu_0--edge1-AJUNOK_clean_linker_0
_symmetry_space_group_name_H-M    P1
_symmetry_Int_Tables_number       1
_symmetry_cell_setting            triclinic
loop_
_symmetry_equiv_pos_as_xyz
'x, y, z'
_cell_length_a     46.092001
_cell_length_b     45.372059
_cell_length_c     42.241161
_cell_angle_alpha  98.270485
_cell_angle_beta   97.612526
_cell_angle_gamma 107.03182
loop_
_atom_site_label
_atom_site_type_symbol
_atom_site_fract_x
_atom_site_fract_y
_atom_site_fract_z
_atom_type_partial_charge
C0 C 0.13536 0.33652 0.35491 0.0
O1 O 0.12136 0.31162 0.36613 0.0
O2 O 0.07268 0.31997 0.40071 0.0
Zn3 Zn 0.07964 0.3569 0.37592 0.0
O4 O 0.0858 0.39758 0.41064 0.0
C5 C 1.01124 0.34529 0.36155 0.0
O6 O 1.01688 0.34431 0.39261 0.0
O7 O 0.12233 0.35833 0.35492 0.0
C8 C 0.07559 0.41956 0.40325 0.0
O9 O 0.06382 0.41755 0.37265 0.0
C10 C 0.06939 0.32233 0.4304 0.0
O11 O 0.07065 0.3498 0.44658 0.0
O12 O 0.03438 0.34986 0.3465 0.0
C13 C 0.97919 0.79214 0.74819 0.0
O14 O 0.98852 0.81171 0.72878 0.0
O15 O 0.02777 0.72711 0.70119 0.0
Zn16 Zn 0.03618 0.772 0.73047 0.0
O17 O 0.03993 0.80494 0.70111 0.0
C18 C 0.10252 0.76866 0.75051 0.0
O19 O 0.09085 0.74184 0.72976 0.0
O20 O 0.99546 0.77382 0.75412 0.0
C21 C 0.06145 0.81209 0.68472 0.0
O22 O 0.08169 0.79685 0.68511 0.0
C23 C 0.0252 0.72226 0.67017 0.0
O24 O 1.02438 0.74548 0.65517 0.0
O25 O 0.08419 0.7847 0.75691 0.0
C26 C 0.64271 0.86369 0.86119 0.0
O27 O 0.64965 0.88318 0.8893 0.0
O28 O 0.56532 0.82441 0.9012 0.0
Zn29 Zn 0.57349 0.85733 0.87188 0.0
O30 O 0.58299 0.90202 0.90246 0.0
C31 C 0.50678 0.85915 0.85481 0.0
O32 O 0.51609 0.87839 0.88315 0.0
O33 O 0.61352 0.85112 0.84855 0.0
C34 C 0.57892 0.90465 0.93211 0.0
O35 O 0.57137 0.87902 0.94434 0.0
C36 C 0.58525 0.8147 0.91662 0.0
O37 O 0.61435 0.82622 0.91415 0.0
O38 O 0.52663 0.84747 0.84328 0.0
C39 C 0.49056 0.29912 0.26342 0.0
O40 O 0.50601 0.32547 0.25554 0.0
O41 O 0.53779 0.23147 0.20992 0.0
Zn42 Zn 0.54438 0.2761 0.23894 0.0
O43 O 0.54727 0.30782 0.20816 0.0
C44 C 0.61267 0.28163 0.25341 0.0
O45 O 0.60494 0.26697 0.22293 0.0
O46 O 0.50234 0.27632 0.2606 0.0
C47 C 0.57034 0.33254 0.21133 0.0
O48 O 0.59348 0.33861 0.23563 0.0
C49 C 0.54255 0.22901 0.18058 0.0
O50 O 0.5499 0.25471 0.16845 0.0
O51 O 0.59132 0.28823 0.26735 0.0
C52 C 0.05681 0.81436 0.1606 0.0
O53 O 0.05415 0.78993 0.1383 0.0
O54 O 0.10118 0.79674 0.1043 0.0
Zn55 Zn 0.11088 0.84451 0.13188 0.0
O56 O 0.10503 0.88329 0.10683 0.0
C57 C 0.18022 0.85642 0.15827 0.0
O58 O 0.18394 0.85407 0.12781 0.0
O59 O 0.07849 0.83991 0.16205 0.0
C60 C 0.11753 0.9133 0.11762 0.0
O61 O 0.13752 0.92228 0.14513 0.0
C62 C 0.11325 0.77703 0.11546 0.0
O63 O 0.13364 0.78732 0.14266 0.0
O64 O 0.15337 0.85479 0.16447 0.0
C65 C 0.56751 0.82837 0.43708 0.0
O66 O 0.5567 0.85201 0.4425 0.0
O67 O 0.52569 0.76316 0.50338 0.0
Zn68 Zn 0.52208 0.80147 0.47642 0.0
O69 O 0.53267 0.8502 0.5008 0.0
C70 C 0.45879 0.80346 0.44796 0.0
O71 O 0.46006 0.8168 0.47803 0.0
O72 O 0.55595 0.8039 0.44856 0.0
C73 C 0.52153 0.86411 0.52261 0.0
O74 O 0.50157 0.84649 0.53717 0.0
C75 C 0.51904 0.73376 0.4901 0.0
O76 O 0.5068 0.72555 0.45897 0.0
O77 O 0.48087 0.79296 0.44187 0.0
C78 C 0.55107 0.32369 0.65958 0.0
O79 O 0.54068 0.31027 0.6288 0.0
O80 O 0.5947 0.29333 0.6091 0.0
Zn81 Zn 0.60818 0.34249 0.63466 0.0
O82 O 0.60076 0.38096 0.60969 0.0
C83 C 0.65889 0.33277 0.67848 0.0
O84 O 0.63652 0.30662 0.67724 0.0
O85 O 0.57961 0.33957 0.66831 0.0
C86 C 0.6124 0.41089 0.62152 0.0
O87 O 0.63146 0.41938 0.64964 0.0
C88 C 0.61264 0.2768 0.60332 0.0
O89 O 0.64248 0.29157 0.60865 0.0
O90 O 0.65314 0.35301 0.6624 0.0
C91 C 0.06993 0.33193 0.93958 0.0
O92 O 0.05763 0.35446 0.94494 0.0
O93 O 0.0266 0.26252 1.00183 0.0
Zn94 Zn 0.02498 0.30302 0.97787 0.0
O95 O 0.03764 0.35022 1.00664 0.0
C96 C 0.95709 0.29476 0.94613 0.0
O97 O 0.94893 0.2895 0.97397 0.0
O98 O 0.05937 0.30697 0.95065 0.0
C99 C 1.01963 0.36701 0.01039 0.0
O100 O 0.98987 0.35343 1.00001 0.0
C101 C 1.02167 0.23397 0.98681 0.0
O102 O 1.01257 0.22785 0.95508 0.0
O103 O 0.9852 0.2984 0.94324 0.0
C104 C 0.38736 0.09858 0.29178 0.0
O105 O 0.39976 0.08122 0.27391 0.0
O106 O 0.46093 0.09023 0.31206 0.0
Zn107 Zn 0.43086 0.09269 0.34115 0.0
O108 O 0.45365 0.11501 0.38548 0.0
C109 C 0.42356 0.03066 0.35269 0.0
O110 O 0.45361 0.04217 0.36247 0.0
O111 O 0.39843 0.10865 0.32192 0.0
C112 C 0.44262 0.10522 0.40935 0.0
O113 O 0.41337 0.08819 0.4044 0.0
C114 C 0.48947 0.09564 0.32263 0.0
O115 O 0.50077 0.1064 0.35375 0.0
O116 O 0.4089 0.04844 0.34323 0.0
C117 C 0.35078 0.2047 0.54812 0.0
O118 O 0.36374 0.23092 0.5385 0.0
O119 O 0.29075 0.25066 0.58026 0.0
Zn120 Zn 0.29105 0.21936 0.53989 0.0
O121 O 0.29454 0.23527 0.49654 0.0
C122 C 0.22521 0.18523 0.51945 0.0
O123 O 0.2246 0.20901 0.50524 0.0
O124 O 0.32242 0.19727 0.55033 0.0
C125 C 0.31539 0.25952 0.49295 0.0
O126 O 0.33544 0.27689 0.51879 0.0
C127 C 0.31385 0.26266 0.60348 0.0
O128 O 0.34023 0.25837 0.59959 0.0
O129 O 0.25079 0.18483 0.53442 0.0
C130 C 0.18131 0.04429 0.78063 0.0
O131 O 0.18027 0.06272 0.75949 0.0
O132 O 0.12346 0.0843 0.77162 0.0
Zn133 Zn 0.15192 0.08408 0.81362 0.0
O134 O 0.13294 0.08349 0.85548 0.0
C135 C 0.18092 0.14883 0.81727 0.0
O136 O 0.15162 0.14689 0.81239 0.0
O137 O 0.16991 0.04847 0.80609 0.0
C138 C 0.1253 0.05896 0.86798 0.0
O139 O 0.12795 0.03283 0.85263 0.0
C140 C 0.10754 0.05977 0.75077 0.0
O141 O 0.10662 0.0322 0.7576 0.0
O142 O 0.18777 0.12407 0.82007 0.0
C143 C 0.29463 0.01723 0.06502 0.0
O144 O 0.31115 1.00801 0.08693 0.0
O145 O 0.3109 0.94547 0.05774 0.0
Zn146 Zn 0.30997 0.97219 0.02414 0.0
O147 O 0.29411 0.94377 0.98073 0.0
C148 C 0.37377 1.0015 0.04908 0.0
O149 O 0.36527 0.99256 0.07554 0.0
O150 O 0.28905 1.00365 0.03536 0.0
C151 C 0.31102 0.92634 0.97678 0.0
O152 O 0.33472 0.93009 0.99974 0.0
C153 C 0.29636 0.91643 0.05453 0.0
O154 O 0.2752 0.90206 0.02846 0.0
O155 O 0.35361 0.99626 0.02367 0.0
C156 C 0.28605 0.44309 0.04004 0.0
O157 O 0.30185 0.4383 0.01722 0.0
O158 O 0.32403 0.39238 0.11194 0.0
Zn159 Zn 0.32394 0.41171 0.07033 0.0
O160 O 0.31611 0.38129 0.02668 0.0
C161 C 0.39068 0.44563 0.08704 0.0
O162 O 0.39193 0.42272 0.10243 0.0
O163 O 0.2913 0.4336 0.06651 0.0
C164 C 0.33742 0.37576 0.01275 0.0
O165 O 0.36592 0.38596 0.02901 0.0
C166 C 0.29935 0.3792 0.12191 0.0
O167 O 0.27269 0.37646 0.1042 0.0
O168 O 0.36459 0.44559 0.07279 0.0
C169 C 0.85026 0.1455 0.03768 0.0
O170 O 0.84788 0.16749 0.02138 0.0
O171 O 0.82935 0.19756 0.1206 0.0
Zn172 Zn 0.81249 0.1685 0.07722 0.0
O173 O 0.8022 0.19168 0.04252 0.0
C174 C 0.75887 0.1389 0.10366 0.0
O175 O 0.77243 0.15993 0.13034 0.0
O176 O 0.83883 0.14334 0.06331 0.0
C177 C 0.77516 0.19337 0.0349 0.0
O178 O 0.75342 0.17986 0.05019 0.0
C179 C 0.83123 0.22634 0.12316 0.0
O180 O 0.8264 0.23737 0.09659 0.0
O181 O 0.77292 0.13771 0.07993 0.0
C182 C 0.27513 0.57354 0.31777 0.0
O183 O 0.26991 0.59503 0.33851 0.0
O184 O 0.19783 0.56217 0.23624 0.0
Zn185 Zn 0.22805 0.58459 0.27716 0.0
O186 O 0.20537 0.59146 0.31336 0.0
C187 C 0.24205 0.64143 0.25135 0.0
O188 O 0.21527 0.62801 0.23173 0.0
O189 O 0.25847 0.56361 0.28958 0.0
C190 C 0.20603 0.61858 0.32702 0.0
O191 O 0.22406 0.6436 0.31914 0.0
C192 C 0.16905 0.55575 0.23602 0.0
O193 O 0.15934 0.56009 0.26362 0.0
O194 O 0.25215 0.6262 0.27061 0.0
C195 C 0.76207 0.92405 0.54422 0.0
O196 O 0.75398 0.89497 0.52824 0.0
O197 O 0.82 0.89509 0.60998 0.0
Zn198 Zn 0.81968 0.91235 0.56704 0.0
O199 O 0.81203 0.88123 0.52341 0.0
C200 C 0.88614 0.9414 0.58071 0.0
O201 O 0.88558 0.91651 0.59344 0.0
O202 O 0.78833 0.93568 0.56291 0.0
C203 C 0.83308 0.8736 0.51064 0.0
O204 O 0.86099 0.88195 0.52802 0.0
C205 C 0.79602 0.88081 0.62044 0.0
O206 O 0.7688 0.87399 0.60188 0.0
O207 O 0.86085 0.94516 0.56931 0.0
C208 C 0.93348 0.0929 0.31572 0.0
O209 O 0.93478 0.07467 0.33703 0.0
O210 O 0.98498 0.05539 0.24484 0.0
Zn211 Zn 0.96692 0.05615 0.28704 0.0
O212 O 0.99656 0.0625 0.33035 0.0
C213 C 0.93271 0.98915 0.26967 0.0
O214 O 0.9561 0.98764 0.25551 0.0
O215 O 0.94671 0.09003 0.2914 0.0
C216 C 1.00234 0.03984 0.34177 0.0
O217 O 0.9922 1.01168 0.32339 0.0
C218 C 1.00022 0.08007 0.23579 0.0
O219 O 1.00709 0.10736 0.2554 0.0
O220 O 0.9324 0.0157 0.28377 0.0
C221 C 0.33102 0.64051 0.52684 0.0
O222 O 0.32931 0.66467 0.51379 0.0
O223 O 0.31165 0.68633 0.61316 0.0
Zn224 Zn 0.29324 0.66038 0.56866 0.0
O225 O 0.28679 0.68909 0.53897 0.0
C226 C 0.23731 0.63428 0.59242 0.0
O227 O 0.25151 0.65498 0.61915 0.0
O228 O 0.31833 0.63499 0.55122 0.0
C229 C 0.26378 0.69917 0.5373 0.0
O230 O 0.24284 0.69015 0.55523 0.0
C231 C 0.32414 0.71589 0.61712 0.0
O232 O 0.32953 0.72853 0.59154 0.0
O233 O 0.25158 0.63163 0.569 0.0
C234 C 0.4317 0.5924 0.78193 0.0
O235 O 0.42524 0.57463 0.75283 0.0
O236 O 0.49182 0.55877 0.75444 0.0
Zn237 Zn 0.47328 0.5569 0.79615 0.0
O238 O 0.50317 0.56248 0.83908 0.0
C239 C 0.44082 0.48981 0.77644 0.0
O240 O 0.46501 0.48965 0.76319 0.0
O241 O 0.45245 0.58987 0.80337 0.0
C242 C 0.50454 0.53934 0.85254 0.0
O243 O 0.48932 0.51077 0.83649 0.0
C244 C 0.50291 0.58433 0.74461 0.0
O245 O 0.50427 0.61091 0.76281 0.0
O246 O 0.43924 0.51574 0.79072 0.0
C247 C 0.75624 0.04705 0.80829 0.0
O248 O 0.73274 0.0458 0.82313 0.0
O249 O 0.69489 0.05175 0.72567 0.0
Zn250 Zn 0.72478 0.07562 0.76632 0.0
O251 O 0.70167 0.08268 0.80166 0.0
C252 C 0.72915 0.13516 0.75486 0.0
O253 O 0.69905 0.12265 0.75109 0.0
O254 O 0.75662 0.05677 0.78159 0.0
C255 C 0.71106 0.10605 0.82512 0.0
O256 O 0.73788 0.12751 0.82723 0.0
C257 C 0.6662 0.04239 0.72641 0.0
O258 O 0.65717 0.04339 0.75462 0.0
O259 O 0.746 0.11791 0.75912 0.0
C260 C 0.85519 0.71018 0.05833 0.0
O261 O 0.8635 0.73912 0.07468 0.0
O262 O 0.7975 0.74592 0.08327 0.0
Zn263 Zn 0.79582 0.72043 0.03807 0.0
O264 O 0.79719 0.74337 0.99901 0.0
C265 C 0.73143 0.69476 0.03366 0.0
O266 O 0.73533 0.72503 0.03975 0.0
O267 O 0.82828 0.69831 0.04101 0.0
C268 C 0.8215 0.75357 0.98719 0.0
O269 O 0.84759 0.75146 1.00181 0.0
C270 C 0.81497 0.7729 0.09856 0.0
O271 O 0.83559 0.78985 0.08415 0.0
O272 O 0.75477 0.68603 0.03009 0.0
C273 C 0.89494 0.60986 0.79931 0.0
O274 O 0.91219 0.60294 0.77889 0.0
O275 O 0.96581 0.5921 0.8178 0.0
Zn276 Zn 0.93438 0.59168 0.84572 0.0
O277 O 0.95743 0.61208 0.89018 0.0
C278 C 0.90072 0.52834 0.81814 0.0
O279 O 0.90379 0.54015 0.79172 0.0
O280 O 0.90204 0.6094 0.82927 0.0
C281 C 0.94588 0.60013 0.91274 0.0
O282 O 0.91638 0.58384 0.90687 0.0
C283 C 0.98299 0.57561 0.8245 0.0
O284 O 0.97916 0.56051 0.84873 0.0
O285 O 0.91243 0.54636 0.84562 0.0
C286 C 0.78697 0.51212 0.55622 0.0
O287 O 0.80614 0.50314 0.57547 0.0
O288 O 0.80001 0.43912 0.54574 0.0
Zn289 Zn 0.79304 0.46353 0.51161 0.0
O290 O 0.76886 0.4339 0.47086 0.0
C291 C 0.85194 0.47072 0.49331 0.0
O292 O 0.84073 0.43998 0.48529 0.0
O293 O 0.77603 0.49698 0.52728 0.0
C294 C 0.77516 0.44283 0.44483 0.0
O295 O 0.78677 0.47311 0.44563 0.0
C296 C 0.80051 0.41114 0.53844 0.0
O297 O 0.79322 0.39681 0.50782 0.0
O298 O 0.83506 0.48591 0.50418 0.0
C299 C 0.67475 0.53318 0.29571 0.0
O300 O 0.65343 0.53052 0.27059 0.0
O301 O 0.62382 0.57604 0.27902 0.0
Zn302 Zn 0.65279 0.58391 0.32301 0.0
O303 O 0.63199 0.5816 0.3632 0.0
C304 C 0.70327 0.63316 0.31105 0.0
O305 O 0.70492 0.60976 0.28985 0.0
O306 O 0.67814 0.5538 0.32097 0.0
C307 C 0.62376 0.55686 0.37522 0.0
O308 O 0.62671 0.5308 0.36006 0.0
C309 C 0.61684 0.59794 0.26715 0.0
O310 O 0.62575 0.62624 0.28521 0.0
O311 O 0.68278 0.62769 0.32877 0.0
Dy312 Dy 0.09761 0.09643 0.07164 0.0
Dy313 Dy 0.03272 0.04777 0.03304 0.0
C314 C 0.08885 0.06471 0.99651 0.0
O315 O 0.06987 0.12943 0.06342 0.0
O316 O 0.03297 0.09611 0.02182 0.0
O317 O 0.13614 0.13819 0.07443 0.0
O318 O 0.13566 0.11093 0.11234 0.0
O319 O 1.02136 0.06284 0.08168 0.0
O320 O 0.06975 0.09089 0.11096 0.0
O321 O 0.05407 0.01494 0.05619 0.0
O322 O 0.10389 0.04786 0.07178 0.0
O323 O 0.99093 1.00897 0.0282 0.0
O324 O 1.00021 0.03187 0.98754 0.0
C325 C 0.04751 0.12503 0.03855 0.0
O326 O 0.10052 0.09075 0.01837 0.0
O327 O 0.06702 0.04131 1.00225 0.0
C328 C 0.18193 0.12927 0.09457 0.0
C329 C 0.23284 0.10835 0.08909 0.0
C330 C 0.20851 0.10109 0.06248 0.0
C331 C 0.18333 0.11142 0.0652 0.0
C332 C 0.20703 0.13854 0.12055 0.0
C333 C 0.23258 0.12829 0.11775 0.0
C334 C 0.15227 0.13283 0.0994 0.0
C335 C 0.0401 0.0775 0.10941 0.0
C336 C 0.0833 0.01951 0.06826 0.0
C337 C 0.94963 0.01941 0.99755 0.0
C338 C 0.90513 0.05023 0.99933 0.0
C339 C 0.91437 0.03811 0.02629 0.0
C340 C 0.93638 0.02276 0.02541 0.0
C341 C 0.93764 0.02813 0.96929 0.0
C342 C 0.9155 0.04351 0.97018 0.0
C343 C 0.97939 1.01318 0.99995 0.0
H344 H 0.20777 0.08543 0.04024 0.0
H345 H 0.16398 0.10357 0.04502 0.0
H346 H 0.20611 0.15213 0.14347 0.0
H347 H 0.2513 0.13465 0.13842 0.0
H348 H 0.90657 0.04279 0.04903 0.0
H349 H 0.94475 0.01596 0.04752 0.0
H350 H 0.94718 0.02536 0.94736 0.0
H351 H 0.90798 0.05191 0.94881 0.0
Dy352 Dy 0.34522 0.83486 0.27635 0.0
Dy353 Dy 0.30211 0.8392 0.3304 0.0
C354 C 0.35551 0.89781 0.32475 0.0
O355 O 0.36697 0.81618 0.31704 0.0
O356 O 0.34501 0.83401 0.35845 0.0
O357 O 0.37717 0.85776 0.24786 0.0
O358 O 0.3631 0.80703 0.24293 0.0
O359 O 0.29894 0.78931 0.31466 0.0
O360 O 0.30335 0.79307 0.26255 0.0
O361 O 0.27184 0.83862 0.28393 0.0
O362 O 0.30876 0.85375 0.25291 0.0
O363 O 0.25741 0.82398 0.34393 0.0
O364 O 0.2958 0.85853 0.37783 0.0
C365 C 0.3655 0.82158 0.34826 0.0
O366 O 0.36927 0.87818 0.31356 0.0
O367 O 0.3259 0.88803 0.32512 0.0
C368 C 0.36662 0.82857 0.19562 0.0
C369 C 0.34553 0.84451 0.1374 0.0
C370 C 0.37736 0.8514 0.14843 0.0
C371 C 0.38788 0.84361 0.17762 0.0
C372 C 0.33492 0.81807 0.18239 0.0
C373 C 0.32443 0.82587 0.15327 0.0
C374 C 0.3764 0.83118 0.23055 0.0
C375 C 0.29397 0.77626 0.28395 0.0
C376 C 0.28002 0.84854 0.25769 0.0
C377 C 0.26346 0.81865 0.39811 0.0
C378 C 0.25875 0.7809 0.44533 0.0
C379 C 0.27305 0.7748 0.41895 0.0
C380 C 0.27548 0.79357 0.39562 0.0
C381 C 0.24846 0.8245 0.42393 0.0
C382 C 0.24606 0.80561 0.44754 0.0
C383 C 0.26795 0.83882 0.374 0.0
H384 H 0.39397 0.86555 0.13626 0.0
H385 H 0.41238 0.85201 0.18761 0.0
H386 H 0.31812 0.80667 0.19613 0.0
H387 H 0.29979 0.82036 0.14521 0.0
H388 H 0.2828 0.75573 0.41665 0.0
H389 H 0.28723 0.7888 0.37586 0.0
H390 H 0.23917 0.84389 0.42612 0.0
H391 H 0.23521 0.81084 0.46792 0.0
Dy392 Dy 0.53065 0.06658 0.57715 0.0
Dy393 Dy 0.58953 0.07227 0.5403 0.0
C394 C 0.52707 0.07729 0.50561 0.0
O395 O 0.53383 0.01712 0.57005 0.0
O396 O 0.56073 0.0204 0.52807 0.0
O397 O 0.48182 0.04589 0.57595 0.0
O398 O 0.50946 0.08367 0.61543 0.0
O399 O 0.60104 0.05516 0.5854 0.0
O400 O 0.56814 0.06806 0.61693 0.0
O401 O 0.59769 0.12279 0.56551 0.0
O402 O 0.54859 0.11817 0.57384 0.0
O403 O 0.63876 0.08806 0.54184 0.0
O404 O 0.60781 0.05979 0.49759 0.0
C405 C 0.54447 1.00335 0.54647 0.0
O406 O 0.51478 0.05797 0.52383 0.0
O407 O 0.55708 0.08961 0.5099 0.0
C408 C 0.46124 0.08591 0.59256 0.0
C409 C 0.42434 0.12397 0.57897 0.0
C410 C 0.44682 0.12138 0.56027 0.0
C411 C 0.46509 0.10255 0.56702 0.0
C412 C 0.43895 0.08844 0.6114 0.0
C413 C 0.42062 0.10737 0.60468 0.0
C414 C 0.48164 0.06729 0.60006 0.0
C415 C 0.59192 0.05843 0.61334 0.0
C416 C 0.57669 0.13597 0.5729 0.0
C417 C 0.65313 0.04758 0.51417 0.0
C418 C 0.68706 1.00545 0.52121 0.0
C419 C 0.65731 0.99881 0.52875 0.0
C420 C 0.64055 0.01967 0.52529 0.0
C421 C 0.68269 0.05424 0.50634 0.0
C422 C 0.69955 0.03335 0.50986 0.0
C423 C 0.63628 0.0706 0.51357 0.0
H424 H 0.45017 0.13379 0.54029 0.0
H425 H 0.48242 0.10113 0.55239 0.0
H426 H 0.43594 0.07607 0.63145 0.0
H427 H 0.40389 0.10942 0.6199 0.0
H428 H 0.64734 0.97796 0.5383 0.0
H429 H 0.61803 0.01437 0.53212 0.0
H430 H 0.69293 0.07582 0.4981 0.0
H431 H 0.72245 0.03907 0.5039 0.0
Dy432 Dy 0.34423 0.30648 0.80884 0.0
Dy433 Dy 0.28463 0.33431 0.80104 0.0
C434 C 0.35211 0.37668 0.79705 0.0
O435 O 0.3346 0.31442 0.85961 0.0
O436 O 0.30882 0.35032 0.85317 0.0
O437 O 0.39171 0.31156 0.82881 0.0
O438 O 0.3645 0.27116 0.792 0.0
O439 O 0.27131 0.29177 0.82266 0.0
O440 O 0.3011 0.26486 0.80116 0.0
O441 O 0.28428 0.3085 0.75086 0.0
O442 O 0.33573 0.31381 0.7579 0.0
O443 O 0.23593 0.32485 0.78368 0.0
O444 O 0.2635 0.37044 0.81223 0.0
C445 C 0.32277 0.33575 0.87184 0.0
O446 O 0.36315 0.35843 0.81317 0.0
O447 O 0.32241 0.37008 0.78615 0.0
C448 C 0.41659 0.29399 0.78787 0.0
C449 C 0.46264 0.30558 0.74869 0.0
C450 C 0.43441 0.31091 0.73963 0.0
C451 C 0.41175 0.30528 0.75902 0.0
C452 C 0.44479 0.2888 0.79721 0.0
C453 C 0.46762 0.29452 0.7778 0.0
C454 C 0.39214 0.28765 0.80785 0.0
C455 C 0.27594 0.26525 0.81248 0.0
C456 C 0.30907 0.30778 0.73875 0.0
C457 C 0.21246 0.34948 0.82112 0.0
C458 C 0.16729 0.34464 0.86125 0.0
C459 C 0.19022 0.33021 0.8664 0.0
C460 C 0.21268 0.33279 0.84666 0.0
C461 C 0.18956 0.36378 0.8158 0.0
C462 C 0.16721 0.36141 0.83567 0.0
C463 C 0.23567 0.35156 0.79975 0.0
H464 H 0.42986 0.31961 0.71753 0.0
H465 H 0.39035 0.3097 0.75142 0.0
H466 H 0.44905 0.28007 0.81935 0.0
H467 H 0.48888 0.28965 0.78522 0.0
H468 H 0.19098 0.31722 0.88593 0.0
H469 H 0.23021 0.32164 0.85126 0.0
H470 H 0.18886 0.37665 0.79616 0.0
H471 H 0.14956 0.37235 0.83072 0.0
Dy472 Dy 0.06959 0.02927 0.54489 0.0
Dy473 Dy 0.04549 0.09188 0.55336 0.0
C474 C 1.00007 0.02362 0.55463 0.0
O475 O 0.06153 0.03765 0.49387 0.0
O476 O 0.02995 0.06841 0.50066 0.0
O477 O 0.06559 0.98107 0.5256 0.0
O478 O 0.10434 1.00953 0.56316 0.0
O479 O 0.08643 0.10374 0.52978 0.0
O480 O 0.11112 0.07191 0.5503 0.0
O481 O 0.06987 0.09052 0.60323 0.0
O482 O 0.06058 0.03755 0.59516 0.0
O483 O 0.05683 0.1413 0.57316 0.0
O484 O 1.01222 0.11612 0.54265 0.0
C485 C 0.04223 0.05147 0.48184 0.0
O486 O 1.01827 1.01124 0.53969 0.0
O487 O 1.00779 0.05403 0.56594 0.0
C488 C 0.08379 0.95628 0.5663 0.0
C489 C 0.07516 0.9099 0.60578 0.0
C490 C 0.05313 0.92541 0.60007 0.0
C491 C 0.05773 0.94873 0.58108 0.0
C492 C 0.10571 0.94082 0.57165 0.0
C493 C 0.10155 0.91803 0.59127 0.0
C494 C 0.08908 0.98133 0.5468 0.0
C495 C 0.11144 0.09618 0.53661 0.0
C496 C 0.0677 0.06464 0.61484 0.0
C497 C 0.03663 0.16832 0.53645 0.0
C498 C 0.04612 0.21636 0.49903 0.0
C499 C 0.06627 0.19838 0.50132 0.0
C500 C 0.0615 0.17457 0.51971 0.0
C501 C 1.01639 0.18607 0.53412 0.0
C502 C 1.0211 0.20987 0.51567 0.0
C503 C 0.03188 0.1436 0.55649 0.0
H504 H 0.03214 0.91944 0.60997 0.0
H505 H 0.04101 0.96102 0.57808 0.0
H506 H 0.12628 0.94666 0.56096 0.0
H507 H 0.11926 0.90701 0.59537 0.0
H508 H 0.08615 0.20317 0.4895 0.0
H509 H 0.07752 0.1613 0.52119 0.0
H510 H 0.99701 0.18165 0.54673 0.0
H511 H 1.0051 0.22321 0.51437 0.0
Dy512 Dy 0.30898 0.84818 0.78229 0.0
Dy513 Dy 0.30193 0.78328 0.80943 0.0
C514 C 0.30057 0.84488 0.85458 0.0
O515 O 0.35785 0.85259 0.80726 0.0
O516 O 0.3527 0.80063 0.80556 0.0
O517 O 0.32637 0.89882 0.79098 0.0
O518 O 0.29979 0.87262 0.74379 0.0
O519 O 0.29707 0.77085 0.75584 0.0
O520 O 0.32365 0.81823 0.74524 0.0
O521 O 0.25311 0.78651 0.80389 0.0
O522 O 0.25713 0.82193 0.76965 0.0
O523 O 0.28221 0.7328 0.80306 0.0
O524 O 0.31416 0.75926 0.8471 0.0
C525 C 0.37059 0.83009 0.80986 0.0
O526 O 0.29157 0.85437 0.82838 0.0
O527 O 0.31143 0.82122 0.8528 0.0
C528 C 0.29154 0.91995 0.76411 0.0
C529 C 0.25299 0.95804 0.76714 0.0
C530 C 0.24671 0.93094 0.78092 0.0
C531 C 0.26578 0.91201 0.77934 0.0
C532 C 0.29795 0.94694 0.75039 0.0
C533 C 0.27886 0.96589 0.75192 0.0
C534 C 0.31175 0.9002 0.76283 0.0
C535 C 0.3127 0.78757 0.73727 0.0
C536 C 0.23995 0.80106 0.78417 0.0
C537 C 0.31898 0.71028 0.82449 0.0
C538 C 0.35599 0.67161 0.8122 0.0
C539 C 0.32532 0.66276 0.79562 0.0
C540 C 0.30695 0.68182 0.80181 0.0
C541 C 0.3496 0.71892 0.84134 0.0
C542 C 0.3679 0.69983 0.83517 0.0
C543 C 0.30018 0.73152 0.82904 0.0
H544 H 0.22694 0.9243 0.79275 0.0
H545 H 0.26048 0.8912 0.79008 0.0
H546 H 0.31782 0.95348 0.73869 0.0
H547 H 0.28464 0.98697 0.74169 0.0
H548 H 0.31553 0.64103 0.77789 0.0
H549 H 0.28346 0.67453 0.7885 0.0
H550 H 0.35972 0.74072 0.85888 0.0
H551 H 0.39162 0.7075 0.84791 0.0
Dy552 Dy 0.56505 0.08691 0.0303 0.0
Dy553 Dy 0.5658 0.04837 0.08934 0.0
C554 C 0.57207 0.01748 0.01683 0.0
O555 O 0.51683 0.07138 0.03847 0.0
O556 O 0.52044 0.02726 0.05618 0.0
O557 O 0.54904 0.09274 0.98192 0.0
O558 O 0.58529 0.13051 0.01522 0.0
O559 O 0.55089 0.0892 0.11074 0.0
O560 O 0.56674 0.12137 0.07485 0.0
O561 O 0.60984 0.08743 0.09847 0.0
O562 O 0.6121 0.08421 0.0451 0.0
O563 O 0.59202 0.03139 0.12458 0.0
O564 O 0.54227 0.01883 0.11969 0.0
C565 C 0.50383 0.04386 0.04522 0.0
O566 O 0.56183 0.03852 1.00466 0.0
O567 O 0.57896 0.01962 0.04864 0.0
C568 C 0.59205 0.11964 0.96208 0.0
C569 C 0.63319 0.11902 0.91919 0.0
C570 C 0.63078 0.09958 0.9423 0.0
C571 C 0.61023 0.09976 0.96344 0.0
C572 C 0.59512 0.14001 0.93989 0.0
C573 C 0.61573 0.13971 0.91841 0.0
C574 C 0.57114 0.11934 0.98512 0.0
C575 C 0.5562 0.11674 0.10182 0.0
C576 C 0.62602 0.09077 0.07543 0.0
C577 C 0.57053 0.02965 0.17194 0.0
C578 C 0.55803 0.05075 0.23255 0.0
C579 C 0.57364 0.07248 0.2151 0.0
C580 C 0.57978 0.06197 0.18484 0.0
C581 C 0.5578 1.00794 0.19075 0.0
C582 C 0.55161 0.01845 0.22102 0.0
C583 C 0.56794 0.01905 0.1371 0.0
H584 H 0.64443 0.08383 0.94359 0.0
H585 H 0.60838 0.08419 0.98078 0.0
H586 H 0.58148 0.15578 0.939 0.0
H587 H 0.61745 0.15491 0.90071 0.0
H588 H 0.57831 0.09746 0.22327 0.0
H589 H 0.58928 0.07904 0.17035 0.0
H590 H 0.55032 0.98295 0.18094 0.0
H591 H 0.53945 1.00137 0.23415 0.0
Dy592 Dy 0.29224 0.28255 0.28716 0.0
Dy593 Dy 0.33178 0.35264 0.32555 0.0
C594 C 0.31824 0.29433 0.36435 0.0
O595 O 0.25656 0.30021 0.30904 0.0
O596 O 0.28147 0.35316 0.32137 0.0
O597 O 0.25413 0.23975 0.28057 0.0
O598 O 0.2825 0.24699 0.24376 0.0
O599 O 0.32744 0.35689 0.27301 0.0
O600 O 0.28503 0.31404 0.25261 0.0
O601 O 0.36955 0.33078 0.31778 0.0
O602 O 0.34197 0.28516 0.28185 0.0
O603 O 0.37135 0.39418 0.33249 0.0
O604 O 0.33907 0.39112 0.36546 0.0
C605 C 0.25594 0.32904 0.31838 0.0
O606 O 0.30674 0.27364 0.33698 0.0
O607 O 0.32724 0.32463 0.36486 0.0
C608 C 0.26624 0.19646 0.25504 0.0
C609 C 0.2892 0.1458 0.25672 0.0
C610 C 0.28719 0.16395 0.28574 0.0
C611 C 0.27583 0.18901 0.28492 0.0
C612 C 0.26607 0.17708 0.2259 0.0
C613 C 0.27759 0.15186 0.22672 0.0
C614 C 0.26138 0.22688 0.25443 0.0
C615 C 0.30495 0.34013 0.24901 0.0
C616 C 0.36889 0.30559 0.29721 0.0
C617 C 0.35992 0.43956 0.35139 0.0
C618 C 0.34804 0.49545 0.34393 0.0
C619 C 0.33724 0.46919 0.31837 0.0
C620 C 0.34315 0.44151 0.32207 0.0
C621 C 0.37146 0.46582 0.37681 0.0
C622 C 0.36547 0.49374 0.37313 0.0
C623 C 0.36259 0.40922 0.35607 0.0
H624 H 0.2968 0.16054 0.30924 0.0
H625 H 0.27661 0.2038 0.30778 0.0
H626 H 0.25889 0.18264 0.20262 0.0
H627 H 0.27909 0.13827 0.20406 0.0
H628 H 0.32278 0.46946 0.29606 0.0
H629 H 0.33359 0.42122 0.30245 0.0
H630 H 0.38416 0.4644 0.39974 0.0
H631 H 0.37362 0.5136 0.39327 0.0
Dy632 Dy 0.57401 0.53877 0.0578 0.0
Dy633 Dy 0.54883 0.60059 0.06134 0.0
C634 C 0.50612 0.53393 0.07046 0.0
O635 O 0.5481 0.5354 0.0078 0.0
O636 O 0.55458 0.58755 0.00997 0.0
O637 O 0.56386 0.48869 0.04215 0.0
O638 O 0.60895 0.51702 0.06975 0.0
O639 O 0.59998 0.61785 0.06766 0.0
O640 O 0.60965 0.5753 0.04048 0.0
O641 O 0.55541 0.59342 0.11316 0.0
O642 O 0.58952 0.56529 0.10913 0.0
O643 O 0.5549 0.64964 0.07924 0.0
O644 O 0.51549 0.62167 0.04239 0.0
C645 C 0.54787 0.55902 0.99312 0.0
O646 O 0.5312 0.52669 0.07894 0.0
O647 O 0.5071 0.55875 0.05746 0.0
C648 C 0.58736 0.4656 0.08063 0.0
C649 C 0.58005 0.42113 0.12218 0.0
C650 C 0.56797 0.4116 0.08865 0.0
C651 C 0.57162 0.43359 0.06812 0.0
C652 C 0.5996 0.47515 0.11416 0.0
C653 C 0.5961 0.45314 0.13464 0.0
C654 C 0.58986 0.48862 0.0586 0.0
C655 C 0.61724 0.60579 0.05106 0.0
C656 C 0.57573 0.58144 0.12668 0.0
C657 C 0.53892 0.67402 0.03739 0.0
C658 C 0.55244 0.72002 0.99801 0.0
C659 C 0.5614 0.69294 0.99216 0.0
C660 C 0.5546 0.67014 0.01155 0.0
C661 C 0.53003 0.70104 0.04344 0.0
C662 C 0.53671 0.72384 0.02393 0.0
C663 C 0.53187 0.64991 0.05784 0.0
H664 H 0.55602 0.38706 0.07819 0.0
H665 H 0.56201 0.42559 0.04239 0.0
H666 H 0.61171 0.49964 0.12466 0.0
H667 H 0.60564 0.46122 0.16038 0.0
H668 H 0.5735 0.68928 0.97239 0.0
H669 H 0.56169 0.64948 1.00643 0.0
H670 H 0.51799 0.70454 0.0633 0.0
H671 H 0.52995 0.74468 0.0294 0.0
Dy672 Dy 0.81919 0.35301 0.29357 0.0
Dy673 Dy 0.80718 0.28749 0.32029 0.0
C674 C 0.81054 0.35017 0.36333 0.0
O675 O 0.86699 0.34656 0.298 0.0
O676 O 0.85894 0.31229 0.33347 0.0
O677 O 0.83838 0.40362 0.30585 0.0
O678 O 0.81061 0.38121 0.25837 0.0
O679 O 0.82267 0.27831 0.27294 0.0
O680 O 0.81417 0.31816 0.24918 0.0
O681 O 0.75944 0.28427 0.29541 0.0
O682 O 0.76756 0.33663 0.29622 0.0
O683 O 0.78799 0.23708 0.31375 0.0
O684 O 0.81539 0.26432 0.36021 0.0
C685 C 0.87793 0.33112 0.31857 0.0
O686 O 0.83207 0.35996 0.34687 0.0
O687 O 0.79285 0.32094 0.35452 0.0
C688 C 0.80338 0.4276 0.28362 0.0
C689 C 0.7618 0.4623 0.2887 0.0
C690 C 0.76743 0.44525 0.31277 0.0
C691 C 0.7878 0.42781 0.31009 0.0
C692 C 0.79834 0.44521 0.25999 0.0
C693 C 0.77772 0.4624 0.26248 0.0
C694 C 0.82315 0.40749 0.27934 0.0
C695 C 0.82051 0.29173 0.24757 0.0
C696 C 0.74831 0.30768 0.29256 0.0
C697 C 0.82314 0.21654 0.3405 0.0
C698 C 0.86027 0.17739 0.33299 0.0
C699 C 0.87014 0.20814 0.32708 0.0
C700 C 0.85166 0.22745 0.33061 0.0
C701 C 0.81344 0.18614 0.3471 0.0
C702 C 0.83192 0.16672 0.34347 0.0
C703 C 0.80301 0.23636 0.34193 0.0
H704 H 0.75538 0.44468 0.33314 0.0
H705 H 0.79089 0.41398 0.32836 0.0
H706 H 0.80996 0.44523 0.23931 0.0
H707 H 0.77408 0.47567 0.24382 0.0
H708 H 0.89215 0.21726 0.31967 0.0
H709 H 0.85947 0.25082 0.32522 0.0
H710 H 0.7914 0.17728 0.35453 0.0
H711 H 0.82375 0.1431 0.34815 0.0
Dy712 Dy 0.04444 0.58442 0.51556 0.0
Dy713 Dy 0.04095 0.54051 0.56968 0.0
C714 C 0.05617 0.51685 0.49948 0.0
O715 O 0.99502 0.56517 0.51925 0.0
O716 O 0.99995 0.51918 0.52995 0.0
O717 O 0.0298 0.59208 0.46755 0.0
O718 O 0.06371 0.62967 0.50318 0.0
O719 O 0.02533 0.58095 0.5917 0.0
O720 O 0.04827 0.6166 0.56219 0.0
O721 O 0.08671 0.57758 0.58321 0.0
O722 O 0.09164 0.58245 0.53131 0.0
O723 O 0.06265 0.52255 0.60782 0.0
O724 O 1.01291 0.50626 0.59276 0.0
C725 C 0.98289 0.53514 0.51861 0.0
O726 O 0.04627 0.53865 0.48854 0.0
O727 O 0.05954 0.51552 0.53075 0.0
C728 C 0.07349 0.6218 0.45083 0.0
C729 C 0.11785 0.62535 0.41104 0.0
C730 C 0.11466 0.60472 0.43297 0.0
C731 C 0.0927 0.60298 0.45267 0.0
C732 C 0.07677 0.64288 0.42937 0.0
C733 C 0.09896 0.64466 0.40943 0.0
C734 C 0.05115 0.61941 0.47253 0.0
C735 C 0.03516 0.61023 0.58721 0.0
C736 C 0.10406 0.58527 0.56173 0.0
C737 C 0.03282 0.51663 0.64872 0.0
C738 C 0.02986 0.53877 0.71332 0.0
C739 C 1.01154 0.54492 0.68751 0.0
C740 C 1.0132 0.53427 0.65557 0.0
C741 C 0.05062 0.50961 0.67446 0.0
C742 C 0.04901 0.52051 0.70674 0.0
C743 C 0.03619 0.50785 0.61493 0.0
H744 H 0.12913 0.58979 0.43477 0.0
H745 H 0.09065 0.58682 0.46939 0.0
H746 H 0.06219 0.65772 0.42795 0.0
H747 H 0.10096 0.66054 0.3924 0.0
H748 H 0.9957 0.55785 0.69212 0.0
H749 H 0.99924 0.54013 0.63627 0.0
H750 H 0.066 0.49616 0.66958 0.0
H751 H 0.06291 0.51511 0.72645 0.0
Dy752 Dy 0.84825 0.80755 0.30818 0.0
Dy753 Dy 0.78341 0.82682 0.29866 0.0
C754 C 0.84853 0.87557 0.29487 0.0
O755 O 0.83702 0.81387 0.35858 0.0
O756 O 0.80607 0.84489 0.35094 0.0
O757 O 0.89661 0.81736 0.3284 0.0
O758 O 0.87181 0.77447 0.29378 0.0
O759 O 0.77383 0.78347 0.31966 0.0
O760 O 0.80842 0.763 0.29869 0.0
O761 O 0.78661 0.80346 0.24874 0.0
O762 O 0.83906 0.81332 0.25669 0.0
O763 O 0.73406 0.81202 0.28168 0.0
O764 O 0.75819 0.85977 0.30709 0.0
C765 C 0.82209 0.83256 0.37018 0.0
O766 O 0.86255 0.85924 0.31073 0.0
O767 O 0.81852 0.86578 0.28411 0.0
C768 C 0.92359 0.79873 0.29011 0.0
C769 C 0.96862 0.80554 0.24972 0.0
C770 C 0.94618 0.82084 0.24629 0.0
C771 C 0.92378 0.81733 0.26619 0.0
C772 C 0.94642 0.78417 0.29419 0.0
C773 C 0.96874 0.78758 0.27427 0.0
C774 C 0.89874 0.79295 0.30953 0.0
C775 C 0.78302 0.75941 0.31068 0.0
C776 C 0.81229 0.80584 0.23722 0.0
C777 C 0.70776 0.83627 0.31636 0.0
C778 C 0.663 0.83367 0.35685 0.0
C779 C 0.6853 0.81844 0.36214 0.0
C780 C 0.70751 0.8198 0.34213 0.0
C781 C 0.68528 0.851 0.31069 0.0
C782 C 0.66308 0.84962 0.33059 0.0
C783 C 0.73138 0.83851 0.29546 0.0
H784 H 0.94543 0.83476 0.2276 0.0
H785 H 0.90625 0.82862 0.2625 0.0
H786 H 0.94669 0.76972 0.31247 0.0
H787 H 0.98604 0.77598 0.27793 0.0
H788 H 0.68592 0.80594 0.38209 0.0
H789 H 0.72464 0.8082 0.34693 0.0
H790 H 0.6849 0.86364 0.29082 0.0
H791 H 0.64579 0.86091 0.32525 0.0
Dy792 Dy 0.83927 0.32532 0.77684 0.0
Dy793 Dy 0.80217 0.33667 0.83467 0.0
C794 C 0.84487 0.3945 0.81145 0.0
O795 O 0.87306 0.3296 0.82241 0.0
O796 O 0.83777 0.31565 0.85528 0.0
O797 O 0.87872 0.33993 0.7536 0.0
O798 O 0.84079 0.29768 0.73142 0.0
O799 O 0.77901 0.28813 0.80579 0.0
O800 O 0.82128 0.27897 0.79009 0.0
O801 O 0.77919 0.35307 0.79329 0.0
O802 O 0.79068 0.3213 0.75315 0.0
O803 O 0.75838 0.32998 0.85038 0.0
O804 O 0.80097 0.35232 0.88513 0.0
C805 C 0.86593 0.31998 0.84921 0.0
O806 O 0.842 0.37555 0.78397 0.0
O807 O 0.83637 0.38371 0.83708 0.0
C808 C 0.85943 0.33259 0.69825 0.0
C809 C 0.84446 0.35703 0.64336 0.0
C810 C 0.83326 0.36404 0.67181 0.0
C811 C 0.84065 0.35192 0.69892 0.0
C812 C 0.87084 0.32542 0.66999 0.0
C813 C 0.86337 0.33766 0.64252 0.0
C814 C 0.86499 0.3192 0.727 0.0
C815 C 0.79283 0.26858 0.79442 0.0
C816 C 0.77374 0.33862 0.76276 0.0
C817 C 0.76232 0.31416 0.9005 0.0
C818 C 0.75575 0.27023 0.94141 0.0
C819 C 0.76218 0.2628 0.91035 0.0
C820 C 0.76539 0.28461 0.89 0.0
C821 C 0.75434 0.32107 0.93093 0.0
C822 C 0.75097 0.29905 0.95136 0.0
C823 C 0.77128 0.3384 0.88105 0.0
H824 H 0.81835 0.37858 0.67294 0.0
H825 H 0.83126 0.35731 0.72037 0.0
H826 H 0.88518 0.31031 0.66912 0.0
H827 H 0.8724 0.33219 0.6208 0.0
H828 H 0.76629 0.24079 0.90254 0.0
H829 H 0.77188 0.27899 0.86671 0.0
H830 H 0.75219 0.34389 0.93945 0.0
H831 H 0.74644 0.30519 0.97555 0.0
Dy832 Dy 0.78651 0.78493 0.78609 0.0
Dy833 Dy 0.83024 0.85295 0.82471 0.0
C834 C 0.81484 0.79527 0.86163 0.0
O835 O 0.74995 0.80809 0.79665 0.0
O836 O 0.78147 0.85318 0.83112 0.0
O837 O 0.74856 0.74216 0.78131 0.0
O838 O 0.77628 0.74797 0.74389 0.0
O839 O 0.81665 0.86405 0.77588 0.0
O840 O 0.78899 0.81423 0.74757 0.0
O841 O 0.8628 0.83448 0.79842 0.0
O842 O 0.83633 0.78215 0.78886 0.0
O843 O 0.8721 0.89224 0.83339 0.0
O844 O 0.84111 0.88918 0.86776 0.0
C845 C 0.75327 0.83426 0.81731 0.0
O846 O 0.79056 0.78102 0.83875 0.0
O847 O 0.8366 0.81942 0.85702 0.0
C848 C 0.76299 0.69909 0.75901 0.0
C849 C 0.79236 0.65351 0.76507 0.0
C850 C 0.78847 0.67191 0.79289 0.0
C851 C 0.77392 0.69445 0.78991 0.0
C852 C 0.76467 0.67915 0.73113 0.0
C853 C 0.77937 0.65649 0.73413 0.0
C854 C 0.75611 0.72825 0.75596 0.0
C855 C 0.80175 0.8444 0.74857 0.0
C856 C 0.86224 0.80526 0.78979 0.0
C857 C 0.86508 0.93904 0.85755 0.0
C858 C 0.84794 0.99266 0.85241 0.0
C859 C 0.85408 0.97559 0.82509 0.0
C860 C 0.86256 0.94896 0.82762 0.0
C861 C 0.86238 0.95801 0.88559 0.0
C862 C 0.8538 0.98475 0.88303 0.0
C863 C 0.86506 0.90689 0.85857 0.0
H864 H 0.79893 0.67079 0.81703 0.0
H865 H 0.77343 0.70981 0.81185 0.0
H866 H 0.75664 0.68262 0.70708 0.0
H867 H 0.78218 0.6426 0.71234 0.0
H868 H 0.84924 0.98079 0.80108 0.0
H869 H 0.86453 0.9348 0.80556 0.0
H870 H 0.86442 0.95078 0.90892 0.0
H871 H 0.84926 0.99769 0.90442 0.0
Dy872 Dy 0.59704 0.59727 0.5779 0.0
Dy873 Dy 0.53088 0.54969 0.54058 0.0
C874 C 0.5865 0.56386 0.50299 0.0
O875 O 0.57147 0.63197 0.56851 0.0
O876 O 0.5323 0.59828 0.52934 0.0
O877 O 0.63633 0.63815 0.58034 0.0
O878 O 0.63613 0.60977 0.61726 0.0
O879 O 0.5227 0.56222 0.59144 0.0
O880 O 0.56961 0.59756 0.6173 0.0
O881 O 0.5512 0.51445 0.55992 0.0
O882 O 0.60048 0.54769 0.58022 0.0
O883 O 0.48558 0.51677 0.53816 0.0
O884 O 0.49879 0.5326 0.4948 0.0
C885 C 0.54808 0.62737 0.54469 0.0
O886 O 0.59925 0.58992 0.52464 0.0
O887 O 0.56383 0.54129 0.50879 0.0
C888 C 0.68215 0.62815 0.59865 0.0
C889 C 0.73237 0.60707 0.58936 0.0
C890 C 0.70908 0.604 0.56288 0.0
C891 C 0.68425 0.61445 0.56747 0.0
C892 C 0.70623 0.63312 0.62489 0.0
C893 C 0.7313 0.62261 0.62027 0.0
C894 C 0.65271 0.63182 0.60445 0.0
C895 C 0.54108 0.58124 0.61756 0.0
C896 C 0.57989 0.51899 0.57412 0.0
C897 C 0.45105 0.53344 0.50562 0.0
C898 C 0.40719 0.5647 0.49861 0.0
C899 C 0.43458 0.57846 0.52146 0.0
C900 C 0.4562 0.56292 0.52504 0.0
C901 C 0.42364 0.51936 0.4827 0.0
C902 C 0.40148 0.53486 0.47946 0.0
C903 C 0.47597 0.51964 0.50867 0.0
H904 H 0.70864 0.59122 0.539 0.0
H905 H 0.66565 0.60979 0.54696 0.0
H906 H 0.70473 0.64332 0.64919 0.0
H907 H 0.74889 0.62503 0.64108 0.0
H908 H 0.43906 0.60114 0.53694 0.0
H909 H 0.47717 0.57409 0.54296 0.0
H910 H 0.41952 0.4967 0.46737 0.0
H911 H 0.38017 0.52383 0.46199 0.0
Dy912 Dy 0.03681 0.56843 0.07557 0.0
Dy913 Dy 0.0987 0.57669 0.04352 0.0
C914 C 0.03549 0.57319 1.00361 0.0
O915 O 0.03997 0.51891 0.06915 0.0
O916 O 0.07337 0.52402 0.03273 0.0
O917 O 0.98724 0.54882 0.0698 0.0
O918 O 1.0131 0.58364 0.11248 0.0
O919 O 0.10885 0.56018 0.0895 0.0
O920 O 0.07261 0.57101 0.11749 0.0
O921 O 0.10448 0.62596 0.07007 0.0
O922 O 0.05341 0.61952 0.06964 0.0
O923 O 0.148 0.59545 0.04677 0.0
O924 O 0.11931 0.5656 1.00212 0.0
C925 C 0.05402 0.50624 0.04816 0.0
O926 O 0.02498 0.55375 0.02225 0.0
O927 O 0.06467 0.59015 0.0103 0.0
C928 C 0.96584 0.58841 0.08837 0.0
C929 C 0.93146 0.62947 0.07706 0.0
C930 C 0.93538 0.60896 0.05092 0.0
C931 C 0.95257 0.58879 0.05647 0.0
C932 C 0.96145 0.60856 0.1145 0.0
C933 C 0.94451 0.62895 0.10891 0.0
C934 C 0.98594 0.56886 0.09458 0.0
C935 C 0.09756 0.56289 0.11625 0.0
C936 C 0.08207 0.63825 0.07324 0.0
C937 C 0.16658 0.55774 0.02001 0.0
C938 C 0.20376 0.51835 0.02448 0.0
C939 C 0.17853 0.51444 0.04061 0.0
C940 C 0.16008 0.53387 0.03828 0.0
C941 C 0.19167 0.56176 1.00378 0.0
C942 C 0.21014 0.54219 1.00597 0.0
C943 C 0.14737 0.57855 0.01877 0.0
H944 H 0.92558 0.60894 0.02614 0.0
H945 H 0.95576 0.57383 0.03569 0.0
H946 H 0.97149 0.60883 0.13927 0.0
H947 H 0.94143 0.6442 0.12952 0.0
H948 H 0.17296 0.4962 0.05486 0.0
H949 H 0.14073 0.53038 0.05088 0.0
H950 H 0.19712 0.58015 0.98968 0.0
H951 H 0.22973 0.54606 0.9937 0.0
C952 C 1.0137 0.17547 0.98598 0.0
C953 C 0.02682 0.20706 1.00305 0.0
C954 C 1.01968 0.14964 0.99795 0.0
C955 C 0.03967 0.15339 0.02775 0.0
H956 H 0.99866 0.17044 0.96256 0.0
H957 H 1.00892 0.12641 0.98307 0.0
S958 S 0.07989 0.23075 0.08319 0.0
N959 N 0.06044 0.23999 0.05248 0.0
N960 N 0.07207 0.19222 0.07463 0.0
C961 C 0.05263 0.18481 0.0455 0.0
C962 C 0.04616 0.21121 0.03338 0.0
C963 C 0.20034 0.84607 0.21324 0.0
C964 C 0.20632 0.85713 0.18447 0.0
C965 C 0.2242 0.84383 0.23661 0.0
C966 C 0.25545 0.85271 0.23268 0.0
H967 H 0.17684 0.83818 0.21739 0.0
H968 H 0.21784 0.83451 0.25781 0.0
S969 S 0.28404 0.88649 0.16337 0.0
N970 N 0.24635 0.87914 0.15457 0.0
N971 N 0.2909 0.87522 0.19828 0.0
C972 C 0.26184 0.86479 0.2045 0.0
C973 C 0.23748 0.86691 0.18058 0.0
C974 C 0.54606 0.91962 0.51139 0.0
C975 C 0.52848 0.89981 0.52972 0.0
C976 C 0.55099 0.95259 0.51678 0.0
C977 C 0.53863 0.96782 0.5408 0.0
H978 H 0.55591 0.90956 0.49237 0.0
H979 H 0.56467 0.96626 0.50179 0.0
S980 S 0.49159 0.9274 0.59644 0.0
N981 N 0.49926 0.89886 0.57374 0.0
N982 N 0.50837 0.95972 0.58355 0.0
C983 C 0.52133 0.94832 0.55951 0.0
C984 C 0.51633 0.91485 0.55408 0.0
C985 C 0.49794 0.30264 0.67207 0.0
C986 C 0.52947 0.31971 0.68331 0.0
C987 C 0.47677 0.29822 0.69335 0.0
C988 C 0.48606 0.31048 0.72695 0.0
H989 H 0.48934 0.2925 0.64649 0.0
H990 H 0.45286 0.28477 0.68335 0.0
S991 S 0.56564 0.35754 0.76916 0.0
N992 N 0.56879 0.34928 0.73064 0.0
N993 N 0.52889 0.34103 0.7705 0.0
C994 C 0.51746 0.32758 0.73867 0.0
C995 C 0.53912 0.33222 0.71693 0.0
C996 C 0.07564 0.83446 0.63594 0.0
C997 C 0.06358 0.83685 0.66475 0.0
C998 C 0.07884 0.85785 0.61698 0.0
C999 C 0.0707 0.88506 0.62629 0.0
H1000 H 0.08243 0.81414 0.62774 0.0
H1001 H 0.08766 0.85441 0.59469 0.0
S1002 S 0.04023 0.90374 0.70129 0.0
N1003 N 0.04418 0.86885 0.70228 0.0
N1004 N 0.05155 0.91354 0.66769 0.0
C1005 C 0.05895 0.88789 0.6554 0.0
C1006 C 0.05509 0.86367 0.67435 0.0
C1007 C 0.45303 0.82102 0.82553 0.0
C1008 C 0.47307 0.8519 0.83842 0.0
C1009 C 0.42041 0.81426 0.81608 0.0
C1010 C 0.40589 0.83797 0.81855 0.0
H1011 H 0.46236 0.80167 0.82406 0.0
H1012 H 0.40638 0.78997 0.80718 0.0
S1013 S 0.448 0.92303 0.8492 0.0
N1014 N 0.47549 0.90649 0.85206 0.0
N1015 N 0.41553 0.89413 0.83403 0.0
C1016 C 0.42596 0.869 0.83041 0.0
C1017 C 0.45893 0.87578 0.84038 0.0
C1018 C 0.54751 0.17373 0.1748 0.0
C1019 C 0.54266 0.19865 0.16054 0.0
C1020 C 0.55108 0.14687 0.1559 0.0
C1021 C 0.55012 0.14387 0.12195 0.0
H1022 H 0.54957 0.17539 0.20088 0.0
H1023 H 0.55556 0.12882 0.16814 0.0
S1024 S 0.53386 0.20038 0.07207 0.0
N1025 N 0.53416 0.21668 0.10967 0.0
N1026 N 0.54088 0.16714 0.07477 0.0
C1027 C 0.54392 0.16803 0.1074 0.0
C1028 C 0.54021 0.19507 0.12645 0.0
C1029 C 0.17153 0.30827 0.33404 0.0
C1030 C 0.1658 0.33712 0.34293 0.0
C1031 C 0.19993 0.30637 0.32584 0.0
C1032 C 0.22529 0.3332 0.32618 0.0
H1033 H 0.15375 0.28638 0.33364 0.0
H1034 H 0.20202 0.28318 0.31965 0.0
S1035 S 0.22357 0.41525 0.34721 0.0
N1036 N 0.18882 0.39374 0.35089 0.0
N1037 N 0.24195 0.39033 0.33598 0.0
C1038 C 0.21999 0.36245 0.33461 0.0
C1039 C 0.19059 0.36437 0.34273 0.0
C1040 C 0.03473 0.10273 0.19804 0.0
C1041 C 1.00951 0.0786 0.20314 0.0
C1042 C 0.04401 0.10237 0.16763 0.0
C1043 C 0.02808 0.07826 0.14061 0.0
H1044 H 0.04779 0.12192 0.2179 0.0
H1045 H 0.06392 0.12126 0.16532 0.0
S1046 S 0.95968 1.01004 0.14045 0.0
N1047 N 0.96834 0.03007 0.17819 0.0
N1048 N 0.98534 0.02977 0.12095 0.0
C1049 C 1.0024 0.05429 0.14512 0.0
C1050 C 0.99328 0.05432 0.17635 0.0
C1051 C 0.28847 0.73891 0.50634 0.0
C1052 C 0.26152 0.72154 0.51583 0.0
C1053 C 0.2873 0.75896 0.48449 0.0
C1054 C 0.25915 0.76233 0.47116 0.0
H1055 H 0.31071 0.73682 0.51559 0.0
H1056 H 0.30858 0.77154 0.47749 0.0
S1057 S 0.18202 0.72263 0.48841 0.0
N1058 N 0.20584 0.7095 0.51084 0.0
N1059 N 0.20375 0.7474 0.46934 0.0
C1060 C 0.23209 0.74592 0.48109 0.0
C1061 C 0.23325 0.72542 0.50352 0.0
C1062 C 0.61886 0.0511 0.69971 0.0
C1063 C 0.64422 0.04027 0.69689 0.0
C1064 C 0.60154 0.05614 0.67243 0.0
C1065 C 0.60883 0.05031 0.64133 0.0
H1066 H 0.6134 0.05753 0.72337 0.0
H1067 H 0.58302 0.06571 0.67604 0.0
S1068 S 0.66991 0.01642 0.62056 0.0
N1069 N 0.67364 0.02036 0.66049 0.0
N1070 N 0.64087 0.0291 0.60891 0.0
C1071 C 0.6328 0.03722 0.63794 0.0
C1072 C 0.65054 0.03237 0.66581 0.0
C1073 C 0.35277 0.3504 0.96339 0.0
C1074 C 0.33133 0.36248 0.97713 0.0
C1075 C 0.34945 0.34095 0.92949 0.0
C1076 C 0.32495 0.3439 0.90781 0.0
H1077 H 0.37261 0.34863 0.97895 0.0
H1078 H 0.36678 0.33222 0.92018 0.0
S1079 S 0.26163 0.37276 0.93108 0.0
N1080 N 0.2838 0.37537 0.96609 0.0
N1081 N 0.27805 0.35856 0.90275 0.0
C1082 C 0.30299 0.35532 0.92125 0.0
C1083 C 0.30601 0.36431 0.95574 0.0
C1084 C 1.01466 0.06939 0.39963 0.0
C1085 C 1.01578 0.04394 0.37695 0.0
C1086 C 1.02351 0.07167 0.43329 0.0
C1087 C 0.03428 0.04884 0.44585 0.0
H1088 H 1.00589 0.08723 0.39145 0.0
H1089 H 1.02168 0.09151 0.44962 0.0
S1090 S 0.04374 0.97863 0.39683 0.0
N1091 N 0.02994 0.99611 0.36955 0.0
N1092 N 0.04687 1.00065 0.4326 0.0
C1093 C 0.03662 0.02389 0.42341 0.0
C1094 C 0.02728 0.02137 0.3891 0.0
C1095 C 0.3175 0.72124 0.67498 0.0
C1096 C 0.32594 0.73576 0.64883 0.0
C1097 C 0.3138 0.73838 0.70349 0.0
C1098 C 0.31851 0.77085 0.70724 0.0
H1099 H 0.31269 0.69614 0.67312 0.0
H1100 H 0.30674 0.72582 0.72259 0.0
S1101 S 0.34364 0.82085 0.64735 0.0
N1102 N 0.34104 0.78512 0.62941 0.0
N1103 N 0.33414 0.8174 0.68329 0.0
C1104 C 0.32847 0.78609 0.68202 0.0
C1105 C 0.3322 0.76854 0.65279 0.0
C1106 C 0.69576 0.1385 0.86879 0.0
C1107 C 0.69134 0.10907 0.84928 0.0
C1108 C 0.67647 0.14188 0.8911 0.0
C1109 C 0.65249 0.11586 0.89472 0.0
H1110 H 0.71399 0.15909 0.8666 0.0
H1111 H 0.68057 0.1648 0.90591 0.0
S1112 S 0.63119 0.03392 0.84972 0.0
N1113 N 0.66116 0.05347 0.83536 0.0
N1114 N 0.62489 0.0601 0.87702 0.0
C1115 C 0.64779 0.08643 0.8754 0.0
C1116 C 0.66725 0.08296 0.85274 0.0
C1117 C 0.32732 0.38073 0.17817 0.0
C1118 C 0.30045 0.36855 0.15394 0.0
C1119 C 0.32833 0.37199 0.20892 0.0
C1120 C 0.30267 0.35027 0.21673 0.0
H1121 H 0.3477 0.39751 0.17353 0.0
H1122 H 0.34963 0.38207 0.22655 0.0
S1123 S 0.22673 0.31103 0.16181 0.0
N1124 N 0.24748 0.33343 0.14005 0.0
N1125 N 0.2495 0.31679 0.19727 0.0
C1126 C 0.27571 0.33778 0.19263 0.0
C1127 C 0.27457 0.34696 0.16149 0.0
C1128 C 0.28029 0.06317 0.05183 0.0
C1129 C 0.2836 0.04392 0.07435 0.0
C1130 C 0.26682 0.08664 0.05845 0.0
C1131 C 0.25548 0.09115 0.08747 0.0
H1132 H 0.28735 0.0595 0.0285 0.0
H1133 H 0.26347 0.10005 0.03981 0.0
S1134 S 0.26215 0.04922 0.15601 0.0
N1135 N 0.27796 0.03309 0.12832 0.0
N1136 N 0.25119 0.07638 0.14029 0.0
C1137 C 0.26076 0.07358 0.11124 0.0
C1138 C 0.27508 0.05002 0.10471 0.0
C1139 C 0.69865 0.63978 0.03474 0.0
C1140 C 0.70129 0.67158 0.03483 0.0
C1141 C 0.67119 0.61825 0.03912 0.0
C1142 C 0.64548 0.62781 0.04407 0.0
H1143 H 0.71818 0.63155 0.03211 0.0
H1144 H 0.67044 0.59424 0.03964 0.0
S1145 S 0.63901 0.70739 0.04238 0.0
N1146 N 0.67459 0.71064 0.03724 0.0
N1147 N 0.62349 0.67058 0.04581 0.0
C1148 C 0.64741 0.6592 0.04283 0.0
C1149 C 0.67515 0.68096 0.03812 0.0
C1150 C 0.71993 0.51819 0.32025 0.0
C1151 C 0.6958 0.51377 0.29394 0.0
C1152 C 0.74094 0.50121 0.3186 0.0
C1153 C 0.73882 0.47935 0.29048 0.0
H1154 H 0.72291 0.53516 0.34224 0.0
H1155 H 0.75934 0.50566 0.33924 0.0
S1156 S 0.67886 0.45699 0.21585 0.0
N1157 N 0.67028 0.48431 0.23948 0.0
N1158 N 0.70982 0.45271 0.23659 0.0
C1159 C 0.71452 0.47414 0.26433 0.0
C1160 C 0.69301 0.49123 0.26602 0.0
C1161 C 0.89685 0.52005 0.50551 0.0
C1162 C 0.88495 0.48728 0.49426 0.0
C1163 C 0.92865 0.53578 0.51167 0.0
C1164 C 0.94962 0.51925 0.50705 0.0
H1165 H 0.88165 0.53357 0.51089 0.0
H1166 H 0.93687 0.56075 0.52172 0.0
S1167 S 0.9304 0.43445 0.47255 0.0
N1168 N 0.89667 0.43965 0.47462 0.0
N1169 N 0.95648 0.46929 0.48667 0.0
C1170 C 0.93806 0.48695 0.49369 0.0
C1171 C 0.90568 0.47095 0.48711 0.0
C1172 C 0.35895 0.12001 0.25173 0.0
C1173 C 0.3592 0.10421 0.27788 0.0
C1174 C 0.33414 0.1307 0.24235 0.0
C1175 C 0.30886 0.12541 0.25865 0.0
H1176 H 0.37894 0.12615 0.24015 0.0
H1177 H 0.33605 0.14545 0.22421 0.0
S1178 S 0.29589 0.07842 0.32335 0.0
N1179 N 0.33055 0.07932 0.31642 0.0
N1180 N 0.28322 0.09828 0.2979 0.0
C1181 C 0.30749 0.10641 0.28225 0.0
C1182 C 0.33296 0.09618 0.29222 0.0
C1183 C 0.40136 0.19432 0.55957 0.0
C1184 C 0.36899 0.18373 0.55631 0.0
C1185 C 0.41904 0.17495 0.56708 0.0
C1186 C 0.40509 0.14421 0.57165 0.0
H1187 H 0.41324 0.21783 0.55643 0.0
H1188 H 0.44389 0.18422 0.56955 0.0
S1189 S 0.32113 0.10432 0.56405 0.0
N1190 N 0.32366 0.13985 0.55731 0.0
N1191 N 0.35697 0.10355 0.57104 0.0
C1192 C 0.37279 0.13319 0.56826 0.0
C1193 C 0.35474 0.15289 0.56067 0.0
C1194 C 0.74868 0.67045 0.29558 0.0
C1195 C 0.72424 0.66555 0.31306 0.0
C1196 C 0.76803 0.70076 0.29564 0.0
C1197 C 0.76363 0.72751 0.313 0.0
H1198 H 0.75281 0.65072 0.28138 0.0
H1199 H 0.78613 0.70319 0.28132 0.0
S1200 S 0.70394 0.72769 0.36416 0.0
N1201 N 0.69747 0.69019 0.34928 0.0
N1202 N 0.73374 0.74703 0.34942 0.0
C1203 C 0.73971 0.72297 0.33122 0.0
C1204 C 0.72007 0.69207 0.33127 0.0
C1205 C 0.88482 0.48146 0.84438 0.0
C1206 C 0.88496 0.4944 0.81598 0.0
C1207 C 0.87119 0.44921 0.84286 0.0
C1208 C 0.85734 0.4287 0.8129 0.0
H1209 H 0.89574 0.49622 0.86798 0.0
H1210 H 0.87219 0.44022 0.86526 0.0
S1211 S 0.8489 0.45096 0.73171 0.0
N1212 N 0.86818 0.48427 0.75716 0.0
N1213 N 0.84261 0.42384 0.75438 0.0
C1214 C 0.85647 0.44143 0.78442 0.0
C1215 C 0.87026 0.47423 0.78595 0.0
C1216 C 0.07963 0.93541 0.08458 0.0
C1217 C 0.10954 0.93906 0.1014 0.0
C1218 C 0.07158 0.96098 0.0737 0.0
C1219 C 0.09297 0.99184 0.07855 0.0
H1220 H 0.06184 0.91285 0.08079 0.0
H1221 H 0.04802 0.95649 0.06173 0.0
S1222 S 0.17526 0.01388 0.11876 0.0
N1223 N 0.1611 0.97639 0.12059 0.0
N1224 N 0.14635 0.02324 0.10013 0.0
C1225 C 0.12321 0.9954 0.09431 0.0
C1226 C 0.13129 0.96956 0.10564 0.0
C1227 C 0.90353 0.29605 0.92423 0.0
C1228 C 0.9342 0.29979 0.91987 0.0
C1229 C 0.88194 0.30242 0.90142 0.0
C1230 C 0.88969 0.31299 0.87285 0.0
H1231 H 0.89601 0.28838 0.94577 0.0
H1232 H 0.8589 0.29918 0.90651 0.0
S1233 S 0.9667 0.32618 0.84895 0.0
N1234 N 0.9709 0.31443 0.88401 0.0
N1235 N 0.93067 0.32632 0.8414 0.0
C1236 C 0.9202 0.31648 0.8679 0.0
C1237 C 0.94224 0.30993 0.8912 0.0
C1238 C 0.62304 0.22484 0.58739 0.0
C1239 C 0.60155 0.24084 0.59369 0.0
C1240 C 0.61485 0.19157 0.5806 0.0
C1241 C 0.58458 0.17185 0.57972 0.0
H1242 H 0.64688 0.23816 0.58802 0.0
H1243 H 0.63274 0.18127 0.57628 0.0
S1244 S 0.51862 0.2009 0.59349 0.0
N1245 N 0.54795 0.23346 0.59782 0.0
N1246 N 0.53254 0.17159 0.58515 0.0
C1247 C 0.5626 0.18744 0.58551 0.0
C1248 C 0.57101 0.22149 0.5924 0.0
C1249 C 0.60002 0.80322 0.40576 0.0
C1250 C 0.59267 0.83031 0.41763 0.0
C1251 C 0.623 0.80451 0.38658 0.0
C1252 C 0.63966 0.83295 0.37851 0.0
H1253 H 0.58758 0.78068 0.41084 0.0
H1254 H 0.62729 0.78291 0.37745 0.0
S1255 S 0.63191 0.91126 0.40627 0.0
N1256 N 0.60562 0.8869 0.42144 0.0
N1257 N 0.64893 0.88926 0.38618 0.0
C1258 C 0.63325 0.86034 0.39107 0.0
C1259 C 0.60979 0.85905 0.41039 0.0
C1260 C 0.05651 0.29757 0.47843 0.0
C1261 C 0.06346 0.29459 0.44682 0.0
C1262 C 0.05072 0.27221 0.49482 0.0
C1263 C 0.0518 0.24265 0.48052 0.0
H1264 H 0.05545 0.31976 0.49081 0.0
H1265 H 0.0458 0.27598 0.51918 0.0
S1266 S 0.06813 0.22172 0.39797 0.0
N1267 N 0.07061 0.25916 0.40168 0.0
N1268 N 0.05961 0.21156 0.43245 0.0
C1269 C 0.0586 0.23917 0.4489 0.0
C1270 C 0.06439 0.26503 0.43208 0.0
C1271 C 0.6672 0.31961 0.27817 0.0
C1272 C 0.64611 0.28873 0.26976 0.0
C1273 C 0.6998 0.32563 0.2859 0.0
C1274 C 0.71319 0.30111 0.2856 0.0
H1275 H 0.65859 0.33933 0.27729 0.0
H1276 H 0.71468 0.34983 0.29152 0.0
S1277 S 0.66792 0.21588 0.26593 0.0
N1278 N 0.64133 0.23348 0.26212 0.0
N1279 N 0.70134 0.24431 0.27687 0.0
C1280 C 0.69205 0.27018 0.27803 0.0
C1281 C 0.65909 0.26418 0.27001 0.0
C1282 C 0.58103 0.9372 0.9866 0.0
C1283 C 0.5799 0.93519 0.95273 0.0
C1284 C 0.57908 0.96386 1.00681 0.0
C1285 C 0.57553 0.99007 0.99437 0.0
H1286 H 0.58308 0.9177 0.99779 0.0
H1287 H 0.57972 0.96351 0.03247 0.0
S1288 S 0.57283 0.99802 0.90766 0.0
N1289 N 0.57623 0.96279 0.90791 0.0
N1290 N 0.57238 1.0127 0.94565 0.0
C1291 C 0.57506 0.98881 0.96061 0.0
C1292 C 0.57733 0.96158 0.93996 0.0
C1293 C 0.94365 0.82236 0.76631 0.0
C1294 C 0.95022 0.79357 0.76228 0.0
C1295 C 0.91591 0.8254 0.77538 0.0
C1296 C 0.89197 0.79976 0.78065 0.0
H1297 H 0.96022 0.84322 0.76206 0.0
H1298 H 0.91311 0.84844 0.77766 0.0
S1299 S 0.89646 0.7185 0.77394 0.0
N1300 N 0.92965 0.73842 0.7651 0.0
N1301 N 0.87762 0.74388 0.78147 0.0
C1302 C 0.89811 0.77063 0.77704 0.0
C1303 C 0.92694 0.76762 0.76817 0.0
C1304 C 0.12237 0.08876 0.92227 0.0
C1305 C 0.11535 0.06 0.9004 0.0
C1306 C 0.11443 0.08999 0.95345 0.0
C1307 C 0.0987 0.06256 0.96405 0.0
H1308 H 0.13447 0.11055 0.91545 0.0
H1309 H 0.12032 0.11276 0.96918 0.0
S1310 S 0.07456 0.98122 0.91608 0.0
N1311 N 0.09158 1.00333 0.89178 0.0
N1312 N 0.07647 1.00568 0.9498 0.0
C1313 C 0.09144 0.03367 0.94235 0.0
C1314 C 0.09979 0.03238 0.91077 0.0
C1315 C 0.82761 0.41528 0.59459 0.0
C1316 C 0.81236 0.39644 0.56406 0.0
C1317 C 0.83918 0.40245 0.61954 0.0
C1318 C 0.83584 0.37028 0.61504 0.0
H1319 H 0.83064 0.4402 0.59945 0.0
H1320 H 0.85037 0.41777 0.64282 0.0
S1321 S 0.79819 0.31074 0.53982 0.0
N1322 N 0.79515 0.34396 0.53047 0.0
N1323 N 0.8166 0.31977 0.57796 0.0
C1324 C 0.8213 0.3512 0.58453 0.0
C1325 C 0.80956 0.3643 0.55892 0.0
C1326 C 0.45357 0.08058 0.45653 0.0
C1327 C 0.46424 0.10291 0.43735 0.0
C1328 C 0.47415 0.07253 0.47832 0.0
C1329 C 0.5063 0.08659 0.48205 0.0
H1330 H 0.42916 0.06804 0.45372 0.0
H1331 H 0.46459 0.05468 0.49193 0.0
S1332 S 0.54597 0.14986 0.44104 0.0
N1333 N 0.50894 0.14149 0.42599 0.0
N1334 N 0.54773 0.1263 0.46709 0.0
C1335 C 0.51729 0.11028 0.46442 0.0
C1336 C 0.49624 0.11853 0.44216 0.0
C1337 C 0.78755 0.76937 0.14656 0.0
C1338 C 0.81359 0.78367 0.13339 0.0
C1339 C 0.78657 0.77755 0.17982 0.0
C1340 C 0.81184 0.79995 0.20143 0.0
H1341 H 0.76782 0.75137 0.13113 0.0
H1342 H 0.76635 0.76538 0.18887 0.0
S1343 S 0.88492 0.84566 0.17937 0.0
N1344 N 0.86472 0.82259 0.14478 0.0
N1345 N 0.86303 0.83756 0.20689 0.0
C1346 C 0.83766 0.81502 0.18844 0.0
C1347 C 0.83849 0.80702 0.15459 0.0
C1348 C 0.1039 0.09026 0.70544 0.0
C1349 C 0.09383 0.06217 0.71743 0.0
C1350 C 0.09426 0.09161 0.67266 0.0
C1351 C 0.07417 0.06492 0.65057 0.0
H1352 H 0.12038 0.11106 0.72111 0.0
H1353 H 0.10372 0.11329 0.66427 0.0
S1354 S 0.03736 0.98699 0.67076 0.0
N1355 N 0.05997 1.00804 0.70513 0.0
N1356 N 0.04179 1.01055 0.6442 0.0
C1357 C 0.0625 0.03729 0.66283 0.0
C1358 C 0.07233 0.03591 0.696 0.0
C1359 C 0.76468 0.3882 0.4147 0.0
C1360 C 0.78219 0.42024 0.42073 0.0
C1361 C 0.77417 0.36543 0.39663 0.0
C1362 C 0.80194 0.37386 0.38469 0.0
H1363 H 0.74371 0.38065 0.42447 0.0
H1364 H 0.75969 0.34112 0.39207 0.0
S1365 S 0.85713 0.45464 0.39562 0.0
N1366 N 0.82868 0.45923 0.41357 0.0
N1367 N 0.84752 0.41659 0.3815 0.0
C1368 C 0.81988 0.40587 0.39105 0.0
C1369 C 0.80968 0.42904 0.40843 0.0
C1370 C 0.49318 0.06057 0.27378 0.0
C1371 C 0.5082 0.08481 0.3008 0.0
C1372 C 0.50986 0.04892 0.25281 0.0
C1373 C 0.54218 0.06125 0.25784 0.0
H1374 H 0.46827 0.05029 0.26877 0.0
H1375 H 0.49723 0.03071 0.23189 0.0
S1376 S 0.59265 0.12471 0.32492 0.0
N1377 N 0.55733 0.12052 0.33183 0.0
N1378 N 0.5888 0.09879 0.2916 0.0
C1379 C 0.55763 0.08538 0.28474 0.0
C1380 C 0.5406 0.09705 0.3065 0.0
C1381 C 0.7921 0.75669 0.93351 0.0
C1382 C 0.82015 0.76533 0.95582 0.0
C1383 C 0.79072 0.76593 0.90302 0.0
C1384 C 0.81723 0.78466 0.89362 0.0
H1385 H 0.77104 0.74218 0.93938 0.0
H1386 H 0.76854 0.75856 0.88684 0.0
S1387 S 0.89638 0.81428 0.94335 0.0
N1388 N 0.87511 0.79404 0.9663 0.0
N1389 N 0.87247 0.81168 0.90956 0.0
C1390 C 0.84538 0.79373 0.91586 0.0
C1391 C 0.84684 0.78401 0.94672 0.0
C1392 C 0.85075 0.09044 0.03034 0.0
C1393 C 0.86294 0.12108 0.0247 0.0
C1394 C 0.86314 0.06692 0.01989 0.0
C1395 C 0.88838 0.07328 1.00376 0.0
H1396 H 0.83168 0.08465 0.04328 0.0
H1397 H 0.85361 0.04384 0.0255 0.0
S1398 S 0.92851 0.14975 0.98289 0.0
N1399 N 0.90084 0.15641 1.00108 0.0
N1400 N 0.92502 0.11238 0.98231 0.0
C1401 C 0.9002 0.1036 0.99704 0.0
C1402 C 0.88726 0.12748 0.00735 0.0
C1403 C 0.44839 0.46716 0.0965 0.0
C1404 C 0.41956 0.46977 0.08406 0.0
C1405 C 0.47603 0.48828 0.09237 0.0
C1406 C 0.47622 0.51309 0.07573 0.0
H1407 H 0.44972 0.44832 0.10909 0.0
H1408 H 0.49747 0.48476 0.10216 0.0
S1409 S 0.407 0.53133 0.03967 0.0
N1410 N 0.39292 0.49996 0.05527 0.0
N1411 N 0.44487 0.53962 0.04758 0.0
C1412 C 0.44757 0.5165 0.06379 0.0
C1413 C 0.41934 0.49487 0.06795 0.0
C1414 C 0.39604 0.62216 0.7655 0.0
C1415 C 0.41341 0.61344 0.79034 0.0
C1416 C 0.37757 0.64097 0.77276 0.0
C1417 C 0.37567 0.65169 0.80513 0.0
H1418 H 0.39674 0.61446 0.7402 0.0
H1419 H 0.36483 0.64737 0.75287 0.0
S1420 S 0.41488 0.63391 0.87907 0.0
N1421 N 0.42662 0.6162 0.84871 0.0
N1422 N 0.39158 0.65114 0.86216 0.0
C1423 C 0.3927 0.64299 0.8302 0.0
C1424 C 0.41164 0.62398 0.82286 0.0
C1425 C 0.18789 0.60495 0.55452 0.0
C1426 C 0.20356 0.61894 0.58655 0.0
C1427 C 0.15575 0.5939 0.54698 0.0
C1428 C 0.13792 0.596 0.57119 0.0
H1429 H 0.20042 0.60339 0.53472 0.0
H1430 H 0.14484 0.58388 0.52182 0.0
S1431 S 0.16748 0.62838 0.65928 0.0
N1432 N 0.19881 0.63279 0.64306 0.0
N1433 N 0.13805 0.61158 0.62882 0.0
C1434 C 0.15314 0.60872 0.60358 0.0
C1435 C 0.18605 0.6203 0.61127 0.0
C1436 C 0.77722 0.01779 0.84584 0.0
C1437 C 0.78188 0.03718 0.82264 0.0
C1438 C 0.80015 1.00574 0.85777 0.0
C1439 C 0.82857 1.01282 0.84706 0.0
H1440 H 0.7552 1.01058 0.8537 0.0
H1441 H 0.7947 0.98902 0.87374 0.0
S1442 S 0.85438 0.06716 0.79137 0.0
N1443 N 0.8185 0.06633 0.79269 0.0
N1444 N 0.86178 0.04367 0.81553 0.0
C1445 C 0.83446 0.03417 0.82593 0.0
C1446 C 0.81103 0.04631 0.81355 0.0
C1447 C 0.75376 0.97668 0.55031 0.0
C1448 C 0.74199 0.94397 0.53872 0.0
C1449 C 0.73596 0.99631 0.54426 0.0
C1450 C 0.70555 0.98406 0.5266 0.0
H1451 H 0.77709 0.9874 0.56393 0.0
H1452 H 0.74602 0.02129 0.55383 0.0
S1453 S 0.66349 0.90014 0.49098 0.0
N1454 N 0.69764 0.90024 0.50878 0.0
N1455 N 0.66435 0.93718 0.49742 0.0
C1456 C 0.69333 0.95141 0.51504 0.0
C1457 C 0.7115 0.93139 0.52105 0.0
C1458 C 0.38792 0.4596 0.78359 0.0
C1459 C 0.41778 0.46008 0.77901 0.0
C1460 C 0.36643 0.43234 0.78865 0.0
C1461 C 0.37433 0.40486 0.79016 0.0
H1462 H 0.38116 0.48054 0.78348 0.0
H1463 H 0.34381 0.43307 0.79231 0.0
S1464 S 0.44906 0.3934 0.77858 0.0
N1465 N 0.45365 0.4302 0.77517 0.0
N1466 N 0.4136 0.37931 0.78531 0.0
C1467 C 0.40391 0.40486 0.7851 0.0
C1468 C 0.42555 0.43237 0.77933 0.0
C1469 C 0.27619 0.69081 0.2874 0.0
C1470 C 0.25683 0.67568 0.25718 0.0
C1471 C 0.28775 0.72341 0.29585 0.0
C1472 C 0.2811 0.7421 0.27409 0.0
H1473 H 0.28177 0.67749 0.3053 0.0
H1474 H 0.30218 0.73402 0.31957 0.0
S1475 S 0.2334 0.71445 0.19122 0.0
N1476 N 0.23237 0.68193 0.20498 0.0
N1477 N 0.25523 0.74372 0.22061 0.0
C1478 C 0.26279 0.72752 0.24333 0.0
C1479 C 0.25037 0.69414 0.23493 0.0
C1480 C 0.50981 0.6758 0.49344 0.0
C1481 C 0.52542 0.70794 0.5075 0.0
C1482 C 0.51664 0.6506 0.50598 0.0
C1483 C 0.53994 0.65547 0.53344 0.0
H1484 H 0.49205 0.6698 0.4719 0.0
H1485 H 0.50371 0.62686 0.4934 0.0
S1486 S 0.58772 0.73476 0.58078 0.0
N1487 N 0.56511 0.74272 0.55173 0.0
N1488 N 0.57819 0.69606 0.57496 0.0
C1489 C 0.55542 0.68751 0.54831 0.0
C1490 C 0.54816 0.71332 0.53559 0.0
C1491 C 0.70089 0.31056 0.69671 0.0
C1492 C 0.69024 0.33678 0.6975 0.0
C1493 C 0.72841 0.31185 0.71683 0.0
C1494 C 0.7462 0.33915 0.73959 0.0
H1495 H 0.68756 0.28854 0.68056 0.0
H1496 H 0.73512 0.29079 0.71541 0.0
S1497 S 0.72934 0.41478 0.75096 0.0
N1498 N 0.70068 0.39144 0.72212 0.0
N1499 N 0.75161 0.39357 0.7608 0.0
C1500 C 0.73614 0.36576 0.74034 0.0
C1501 C 0.70847 0.36468 0.71911 0.0
C1502 C 1.01137 0.41713 0.03711 0.0
C1503 C 0.03113 0.4023 0.02336 0.0
C1504 C 1.01928 0.45025 0.04587 0.0
C1505 C 0.04712 0.4707 0.04063 0.0
H1506 H 0.98914 0.40294 0.04078 0.0
H1507 H 1.00283 0.4599 0.05593 0.0
S1508 S 0.10773 0.44451 1.00603 0.0
N1509 N 0.08061 0.41129 1.00602 0.0
N1510 N 0.09505 0.47297 0.02133 0.0
C1511 C 0.06737 0.4562 0.02732 0.0
C1512 C 0.05956 0.42236 0.01906 0.0
C1513 C 0.03027 0.83892 0.20049 0.0
C1514 C 0.03465 0.81184 0.18366 0.0
C1515 C 1.00879 0.83676 0.22158 0.0
C1516 C 0.9912 0.80749 0.22714 0.0
H1517 H 0.04324 0.86197 0.19704 0.0
H1518 H 1.00615 0.85821 0.23391 0.0
S1519 S 0.99396 0.72946 0.18951 0.0
N1520 N 1.01951 0.75472 0.17443 0.0
N1521 N 0.97939 0.75085 0.2138 0.0
C1522 C 0.99545 0.78029 0.21062 0.0
C1523 C 1.01706 0.78241 0.18898 0.0
C1524 C 0.60027 0.37661 0.18716 0.0
C1525 C 0.57179 0.3543 0.18782 0.0
C1526 C 0.60264 0.3978 0.16575 0.0
C1527 C 0.57668 0.39782 0.14415 0.0
H1528 H 0.62109 0.37768 0.2032 0.0
H1529 H 0.62511 0.41415 0.16584 0.0
S1530 S 0.49646 0.34527 0.13687 0.0
N1531 N 0.51684 0.33401 0.16513 0.0
N1532 N 0.52133 0.37421 0.1253 0.0
C1533 C 0.54802 0.37573 0.1445 0.0
C1534 C 0.54558 0.35395 0.16622 0.0
C1535 C 0.95395 0.32151 0.35955 0.0
C1536 C 0.97777 0.34027 0.34625 0.0
C1537 C 0.92251 0.31863 0.35 0.0
C1538 C 0.9124 0.33467 0.32666 0.0
H1539 H 0.95967 0.30895 0.37816 0.0
H1540 H 0.90598 0.30383 0.36171 0.0
S1541 S 0.96492 0.38694 0.28345 0.0
N1542 N 0.98859 0.37501 0.30761 0.0
N1543 N 0.92976 0.36995 0.2898 0.0
C1544 C 0.93588 0.35324 0.31256 0.0
C1545 C 0.96824 0.35592 0.32221 0.0
C1546 C 0.04153 0.69479 0.62332 0.0
C1547 C 0.02743 0.69269 0.65086 0.0
C1548 C 0.04397 0.6682 0.6037 0.0
C1549 C 0.0321 0.63763 0.61008 0.0
H1550 H 0.05112 0.71744 0.61682 0.0
H1551 H 0.05529 0.67193 0.58306 0.0
S1552 S 0.99124 0.61873 0.67839 0.0
N1553 N 1.0007 0.65737 0.68331 0.0
N1554 N 1.00462 0.60707 0.64605 0.0
C1555 C 1.0177 0.63503 0.63756 0.0
C1556 C 1.01558 0.66251 0.65798 0.0
C1557 C 0.6674 0.8281 0.82624 0.0
C1558 C 0.66983 0.85683 0.84656 0.0
C1559 C 0.69382 0.82118 0.81645 0.0
C1560 C 0.72449 0.84249 0.82623 0.0
H1561 H 0.64499 0.81028 0.81857 0.0
H1562 H 0.69013 0.79845 0.80151 0.0
S1563 S 0.74391 0.92236 0.87691 0.0
N1564 N 0.70622 0.90755 0.87409 0.0
N1565 N 0.75444 0.8948 0.85615 0.0
C1566 C 0.72693 0.87161 0.84564 0.0
C1567 C 0.70025 0.87861 0.85557 0.0
C1568 C 0.50062 0.55708 0.68745 0.0
C1569 C 0.51266 0.58413 0.71224 0.0
C1570 C 0.50892 0.5567 0.6565 0.0
C1571 C 0.53009 0.58315 0.64924 0.0
H1572 H 0.48444 0.53604 0.69187 0.0
H1573 H 0.49932 0.5352 0.63842 0.0
S1574 S 0.56803 0.66004 0.7053 0.0
N1575 N 0.54644 0.63831 0.72696 0.0
N1576 N 0.56243 0.63736 0.66933 0.0
C1577 C 0.54216 0.61037 0.67374 0.0
C1578 C 0.53336 0.61093 0.70503 0.0
C1579 C 0.79396 0.23171 0.99973 0.0
C1580 C 0.76897 0.212 0.01041 0.0
C1581 C 0.78921 0.25044 0.97738 0.0
C1582 C 0.75937 0.2502 0.96497 0.0
H1583 H 0.81747 0.233 0.0089 0.0
H1584 H 0.80906 0.26541 0.96985 0.0
S1585 S 0.68593 0.20139 0.98271 0.0
N1586 N 0.71295 0.19228 1.00528 0.0
N1587 N 0.70438 0.22802 0.96321 0.0
C1588 C 0.73409 0.23044 0.9748 0.0
C1589 C 0.73881 0.21116 0.99756 0.0
C1590 C 0.12217 0.5621 0.20517 0.0
C1591 C 0.1481 0.55178 0.20508 0.0
C1592 C 0.10537 0.56469 0.1762 0.0
C1593 C 0.11378 0.55687 0.14607 0.0
H1594 H 0.11572 0.56992 0.22787 0.0
H1595 H 0.08638 0.57402 0.1777 0.0
S1596 S 0.17664 0.52322 0.13247 0.0
N1597 N 0.17921 0.53005 0.17235 0.0
N1598 N 0.14742 0.53433 0.1177 0.0
C1599 C 0.13835 0.54429 0.1455 0.0
C1600 C 0.15554 0.54187 0.17507 0.0
C1601 C 0.85085 0.84967 0.46219 0.0
C1602 C 0.82786 0.85975 0.47513 0.0
C1603 C 0.84847 0.84002 0.42845 0.0
C1604 C 0.82321 0.84049 0.40605 0.0
H1605 H 0.87131 0.84982 0.47822 0.0
H1606 H 0.86709 0.83313 0.41985 0.0
S1607 S 0.75534 0.86225 0.427 0.0
N1608 N 0.77787 0.86748 0.4625 0.0
N1609 N 0.77358 0.84985 0.39947 0.0
C1610 C 0.79954 0.84948 0.41867 0.0
C1611 C 0.80177 0.85892 0.45303 0.0
C1612 C 0.52726 0.57429 0.90765 0.0
C1613 C 0.51892 0.54441 0.88759 0.0
C1614 C 0.53717 0.57882 0.94146 0.0
C1615 C 0.53927 0.55368 0.95684 0.0
H1616 H 0.5252 0.5943 0.89739 0.0
H1617 H 0.54256 0.60222 0.95568 0.0
S1618 S 0.52297 0.47115 0.91494 0.0
N1619 N 0.51557 0.48958 0.88544 0.0
N1620 N 0.53408 0.49805 0.94868 0.0
C1621 C 0.53218 0.52388 0.93687 0.0
C1622 C 0.52207 0.51927 0.90242 0.0
C1623 C 0.83186 0.23091 0.18295 0.0
C1624 C 0.83253 0.24507 0.15541 0.0
C1625 C 0.82854 0.24638 0.21273 0.0
C1626 C 0.8257 0.27669 0.21619 0.0
H1627 H 0.83292 0.20718 0.18137 0.0
H1628 H 0.82744 0.23409 0.2329 0.0
S1629 S 0.82949 0.32558 0.15243 0.0
N1630 N 0.8326 0.29224 0.13422 0.0
N1631 N 0.82634 0.32135 0.19008 0.0
C1632 C 0.82775 0.29171 0.18924 0.0
C1633 C 0.83122 0.27597 0.1589 0.0
C1634 C 0.16073 0.59442 0.35132 0.0
C1635 C 0.18426 0.6215 0.349 0.0
C1636 C 0.13901 0.5962 0.37091 0.0
C1637 C 0.14 0.62507 0.38901 0.0
H1638 H 0.15881 0.57157 0.33774 0.0
H1639 H 0.12127 0.57473 0.37195 0.0
S1640 S 0.1972 0.70282 0.39241 0.0
N1641 N 0.20745 0.6782 0.36692 0.0
N1642 N 0.16641 0.68126 0.40414 0.0
C1643 C 0.16322 0.65239 0.38702 0.0
C1644 C 0.18547 0.65066 0.36697 0.0
C1645 C 0.77456 0.84767 0.66006 0.0
C1646 C 0.79824 0.87252 0.65356 0.0
C1647 C 0.77566 0.83926 0.69088 0.0
C1648 C 0.80013 0.85577 0.717 0.0
H1649 H 0.75512 0.83416 0.64096 0.0
H1650 H 0.7571 0.81952 0.69422 0.0
S1651 S 0.86746 0.92364 0.71348 0.0
N1652 N 0.84676 0.91403 0.67629 0.0
N1653 N 0.84846 0.89872 0.73429 0.0
C1654 C 0.82366 0.88116 0.71112 0.0
C1655 C 0.82285 0.88934 0.67945 0.0
C1656 C 0.76849 0.54356 0.59727 0.0
C1657 C 0.77879 0.54008 0.56759 0.0
C1658 C 0.75594 0.56753 0.60586 0.0
C1659 C 0.75392 0.58891 0.58523 0.0
H1660 H 0.76818 0.52646 0.61278 0.0
H1661 H 0.74567 0.56776 0.62749 0.0
S1662 S 0.78462 0.59367 0.50867 0.0
N1663 N 0.79064 0.56228 0.52004 0.0
N1664 N 0.7683 0.60828 0.53688 0.0
C1665 C 0.76727 0.58752 0.55725 0.0
C1666 C 0.77933 0.56275 0.54818 0.0
C1667 C 0.19651 0.14027 0.54329 0.0
C1668 C 0.19624 0.16062 0.52101 0.0
C1669 C 0.16915 0.1186 0.5474 0.0
C1670 C 0.14047 0.11646 0.52942 0.0
H1671 H 0.21793 0.14167 0.55846 0.0
H1672 H 0.17041 0.10425 0.56562 0.0
S1673 S 0.12745 0.16104 0.4646 0.0
N1674 N 0.165 0.17497 0.47854 0.0
N1675 N 0.11373 0.13406 0.48591 0.0
C1676 C 0.14001 0.13548 0.50585 0.0
C1677 C 0.16783 0.15759 0.50175 0.0
C1678 C 0.20824 1.00893 0.80288 0.0
C1679 C 0.19765 0.02064 0.77605 0.0
C1680 C 0.22567 0.98834 0.79967 0.0
C1681 C 0.23313 0.97857 0.76951 0.0
H1682 H 0.20375 0.01634 0.82677 0.0
H1683 H 0.23404 0.98063 0.82117 0.0
S1684 S 0.20775 0.99917 0.69094 0.0
N1685 N 0.19383 0.01883 0.71774 0.0
N1686 N 0.22628 0.97991 0.71176 0.0
C1687 C 0.22173 0.98914 0.74226 0.0
C1688 C 0.20406 1.01019 0.74552 0.0
C1689 C 0.42778 1.00431 0.06807 0.0
C1690 C 0.4067 1.01335 0.04766 0.0
C1691 C 0.45905 0.01367 0.06634 0.0
C1692 C 0.47044 0.03288 0.04453 0.0
H1693 H 0.42006 0.98944 0.08522 0.0
H1694 H 0.47447 1.00626 0.08273 0.0
S1695 S 0.42474 0.06335 0.98614 0.0
N1696 N 0.39912 0.0425 1.00492 0.0
N1697 N 0.4584 0.06081 1.00218 0.0
C1698 C 0.44969 0.04235 0.02412 0.0
C1699 C 0.41765 0.03236 0.02552 0.0
C1700 C 0.86489 0.6319 0.76105 0.0
C1701 C 0.86652 0.61657 0.78751 0.0
C1702 C 0.83931 0.64156 0.75197 0.0
C1703 C 0.81447 0.63581 0.76885 0.0
H1704 H 0.8842 0.63805 0.74849 0.0
H1705 H 0.83998 0.65545 0.7331 0.0
S1706 S 0.80467 0.5901 0.83488 0.0
N1707 N 0.83923 0.59172 0.82713 0.0
N1708 N 0.79084 0.6093 0.8095 0.0
C1709 C 0.81462 0.61787 0.79327 0.0
C1710 C 0.84077 0.60844 0.8028 0.0
C1711 C 0.86478 0.65824 0.0483 0.0
C1712 C 0.87594 0.69064 0.06178 0.0
C1713 C 0.88308 0.63879 0.05284 0.0
C1714 C 0.9132 0.65088 0.07118 0.0
H1715 H 0.84149 0.64758 0.03458 0.0
H1716 H 0.87328 0.61392 0.04258 0.0
S1717 S 0.95481 0.73437 0.10868 0.0
N1718 N 0.92019 0.73422 0.09224 0.0
N1719 N 0.95434 0.6975 0.10081 0.0
C1720 C 0.92506 0.68329 0.08397 0.0
C1721 C 0.90652 0.70319 0.07923 0.0
C1722 C 0.2358 0.17953 0.81567 0.0
C1723 C 0.2052 0.17881 0.81722 0.0
C1724 C 0.25864 0.20741 0.81392 0.0
C1725 C 0.25182 0.23566 0.81398 0.0
H1726 H 0.24212 0.15832 0.81539 0.0
H1727 H 0.2818 0.20682 0.81272 0.0
S1728 S 0.17516 0.24638 0.81719 0.0
N1729 N 0.16948 0.20903 0.81864 0.0
N1730 N 0.2119 0.2609 0.81495 0.0
C1731 C 0.22129 0.2352 0.81553 0.0
C1732 C 0.19815 0.20694 0.81726 0.0
C1733 C 0.37446 0.98605 0.3421 0.0
C1734 C 0.40696 0.99684 0.34948 0.0
C1735 C 0.35795 0.95396 0.3353 0.0
C1736 C 0.37332 0.93144 0.33533 0.0
H1737 H 0.36156 1.00246 0.34078 0.0
H1738 H 0.33301 0.94682 0.32883 0.0
S1739 S 0.45796 0.94726 0.35656 0.0
N1740 N 0.4538 0.98238 0.359 0.0
N1741 N 0.42271 0.92197 0.34607 0.0
C1742 C 0.40573 0.94183 0.34411 0.0
C1743 C 0.42256 0.97457 0.35129 0.0
C1744 C 0.57537 0.43382 0.58798 0.0
C1745 C 0.60484 0.43714 0.60573 0.0
C1746 C 0.56773 0.45982 0.57759 0.0
C1747 C 0.58908 0.49084 0.58394 0.0
H1748 H 0.55759 0.41116 0.58304 0.0
H1749 H 0.54448 0.45552 0.56481 0.0
S1750 S 0.67044 0.51222 0.627 0.0
N1751 N 0.65604 0.47442 0.62736 0.0
N1752 N 0.64205 0.522 0.6079 0.0
C1753 C 0.61891 0.49409 0.60066 0.0
C1754 C 0.62658 0.46781 0.61143 0.0
C1755 C 0.43719 0.80362 0.38894 0.0
C1756 C 0.4334 0.80418 0.42165 0.0
C1757 C 0.41503 0.8085 0.36527 0.0
C1758 C 0.38797 0.81419 0.37309 0.0
H1759 H 0.45797 0.80051 0.38177 0.0
H1760 H 0.41963 0.80865 0.3408 0.0
S1761 S 0.36501 0.81418 0.45426 0.0
N1762 N 0.39882 0.80824 0.45963 0.0
N1763 N 0.35778 0.81722 0.41578 0.0
C1764 C 0.38337 0.81342 0.40539 0.0
C1765 C 0.40582 0.80848 0.42937 0.0
C1766 C 0.12701 0.72676 0.10392 0.0
C1767 C 0.10459 0.74231 0.10017 0.0
C1768 C 0.11973 0.69377 0.0944 0.0
C1769 C 0.08932 0.67393 0.08122 0.0
H1770 H 0.15067 0.74029 0.11492 0.0
H1771 H 0.13815 0.68366 0.0984 0.0
S1772 S 1.02144 0.70205 0.06563 0.0
N1773 N 0.05036 0.73466 0.08128 0.0
N1774 N 0.03644 0.67307 0.06424 0.0
C1775 C 0.06659 0.68913 0.07686 0.0
C1776 C 0.07421 0.72299 0.08601 0.0
C1777 C 0.10309 0.30939 0.90675 0.0
C1778 C 0.09557 0.33571 0.92068 0.0
C1779 C 0.12649 0.31246 0.88794 0.0
C1780 C 0.14334 0.34198 0.88229 0.0
H1781 H 0.09047 0.28611 0.90992 0.0
H1782 H 0.131 0.29147 0.8772 0.0
S1783 S 0.1355 0.41873 0.91641 0.0
N1784 N 0.10881 0.39268 0.92941 0.0
N1785 N 0.15266 0.39828 0.89443 0.0
C1786 C 0.13675 0.36856 0.89687 0.0
C1787 C 0.11294 0.36548 0.91595 0.0
C1788 C 0.59814 0.77855 0.95207 0.0
C1789 C 0.576 0.79067 0.93733 0.0
C1790 C 0.59031 0.75582 0.97153 0.0
C1791 C 0.56005 0.74434 0.97738 0.0
H1792 H 0.62182 0.78657 0.94852 0.0
H1793 H 0.60822 0.74735 0.98235 0.0
S1794 S 0.49308 0.76743 0.94414 0.0
N1795 N 0.52215 0.78885 0.92981 0.0
N1796 N 0.50761 0.74618 0.96629 0.0
C1797 C 0.53764 0.75614 0.96288 0.0
C1798 C 0.54555 0.77921 0.94288 0.0
C1799 C 0.15758 0.80829 0.76076 0.0
C1800 C 0.13717 0.77927 0.76414 0.0
C1801 C 0.19037 0.81522 0.76731 0.0
C1802 C 0.20471 0.79375 0.77812 0.0
H1803 H 0.14816 0.82528 0.75152 0.0
H1804 H 0.20463 0.83763 0.76358 0.0
S1805 S 0.1619 0.7147 0.79178 0.0
N1806 N 0.13432 0.7291 0.77937 0.0
N1807 N 0.19479 0.74222 0.79248 0.0
C1808 C 0.18444 0.76508 0.78245 0.0
C1809 C 0.15122 0.75786 0.77523 0.0
C1810 C 0.07276 0.44229 0.46116 0.0
C1811 C 0.07395 0.44572 0.42862 0.0
C1812 C 0.06758 0.46543 0.48404 0.0
C1813 C 0.06336 0.49309 0.47548 0.0
H1814 H 0.07486 0.4211 0.4688 0.0
H1815 H 0.06617 0.46118 0.50846 0.0
S1816 S 0.06814 0.51527 0.39438 0.0
N1817 N 0.07303 0.48041 0.38996 0.0
N1818 N 0.06343 0.52335 0.43233 0.0
C1819 C 0.06576 0.49726 0.4433 0.0
C1820 C 0.07099 0.4738 0.42014 0.0
C1821 C 0.45581 0.32596 0.29014 0.0
C1822 C 0.45976 0.2978 0.27482 0.0
C1823 C 0.42715 0.32771 0.29787 0.0
C1824 C 0.39981 0.30157 0.29023 0.0
H1825 H 0.47525 0.34742 0.29599 0.0
H1826 H 0.42635 0.35035 0.30925 0.0
S1827 S 0.39638 0.22141 0.25058 0.0
N1828 N 0.43289 0.24244 0.25313 0.0
N1829 N 0.37934 0.24575 0.2667 0.0
C1830 C 0.4033 0.27297 0.27523 0.0
C1831 C 0.43291 0.27107 0.26788 0.0
C1832 C 0.6211 0.58676 0.42925 0.0
C1833 C 0.6134 0.55797 0.40732 0.0
C1834 C 0.61292 0.58827 0.46024 0.0
C1835 C 0.59624 0.56111 0.47058 0.0
H1836 H 0.63397 0.60838 0.42265 0.0
H1837 H 0.61944 0.61109 0.47603 0.0
S1838 S 0.56997 0.4798 0.4223 0.0
N1839 N 0.58797 0.50154 0.39825 0.0
N1840 N 0.57225 0.50442 0.45605 0.0
C1841 C 0.58821 0.53216 0.44881 0.0
C1842 C 0.59687 0.53058 0.41738 0.0
C1843 C 0.29805 0.86513 0.06877 0.0
C1844 C 0.3079 0.89821 0.07665 0.0
C1845 C 0.31092 0.84763 0.08788 0.0
C1846 C 0.33445 0.86267 0.11507 0.0
H1847 H 0.2805 0.85262 0.04754 0.0
H1848 H 0.30244 0.82222 0.08142 0.0
S1849 S 0.36629 0.9483 0.14818 0.0
N1850 N 0.34098 0.94499 0.11531 0.0
N1851 N 0.36561 0.91212 0.15038 0.0
C1852 C 0.34426 0.8956 0.12344 0.0
C1853 C 0.33081 0.91335 0.1045 0.0
C1854 C 0.99747 0.61556 0.94867 0.0
C1855 C 0.96723 0.59449 0.93858 0.0
C1856 C 1.01989 0.60823 0.96898 0.0
C1857 C 1.01287 0.57943 0.97959 0.0
H1858 H 1.00396 0.63771 0.94039 0.0
H1859 H 0.0427 0.62537 0.97666 0.0
S1860 S 0.93756 0.51536 0.95864 0.0
N1861 N 0.93171 0.5433 0.94015 0.0
N1862 N 0.97382 0.52924 0.97767 0.0
C1863 C 0.98275 0.55807 0.96951 0.0
C1864 C 0.95989 0.56571 0.94927 0.0
C1865 C 0.33739 0.29593 0.65873 0.0
C1866 C 0.31064 0.27771 0.63617 0.0
C1867 C 0.33614 0.30676 0.69116 0.0
C1868 C 0.30811 0.29966 0.70291 0.0
H1869 H 0.35979 0.30127 0.65155 0.0
H1870 H 0.35768 0.32025 0.70735 0.0
S1871 S 0.23084 0.25471 0.6533 0.0
N1872 N 0.25473 0.25476 0.62738 0.0
N1873 N 0.2525 0.27483 0.68857 0.0
C1874 C 0.28088 0.28281 0.68029 0.0
C1875 C 0.28212 0.27189 0.64695 0.0
C1876 C 0.60442 0.56693 0.21004 0.0
C1877 C 0.60307 0.5928 0.23192 0.0
C1878 C 0.59506 0.56339 0.17632 0.0
C1879 C 0.58349 0.58529 0.16282 0.0
H1880 H 0.61376 0.5497 0.21887 0.0
H1881 H 0.5972 0.54331 0.16066 0.0
S1882 S 0.57303 0.65606 0.20945 0.0
N1883 N 0.58778 0.64002 0.23758 0.0
N1884 N 0.56981 0.63302 0.17427 0.0
C1885 C 0.58082 0.61061 0.18442 0.0
C1886 C 0.59073 0.61446 0.21886 0.0
C1887 C 0.28978 0.90717 0.91756 0.0
C1888 C 0.30533 0.9031 0.94665 0.0
C1889 C 0.28744 0.88747 0.88802 0.0
C1890 C 0.30037 0.86285 0.88658 0.0
H1891 H 0.28041 0.92645 0.91736 0.0
H1892 H 0.27609 0.8922 0.86607 0.0
S1893 S 0.33982 0.83991 0.95697 0.0
N1894 N 0.33119 0.87094 0.97299 0.0
N1895 N 0.3268 0.83382 0.91749 0.0
C1896 C 0.31444 0.85746 0.91587 0.0
C1897 C 0.31695 0.87765 0.94591 0.0
C1898 C 1.00325 0.53775 0.7934 0.0
C1899 C 1.00235 0.56861 0.80148 0.0
C1900 C 1.01522 0.52864 0.76619 0.0
C1901 C 0.02686 0.55029 0.74672 0.0
H1902 H 0.99241 0.51994 0.80649 0.0
H1903 H 1.01303 0.50409 0.75888 0.0
S1904 S 0.03647 0.63541 0.76243 0.0
N1905 N 1.01862 0.62183 0.79131 0.0
N1906 N 0.04191 0.60488 0.74059 0.0
C1907 C 0.02922 0.58192 0.75677 0.0
C1908 C 1.01667 0.59106 0.78408 0.0
C1909 C 0.29705 0.24832 0.43179 0.0
C1910 C 0.31742 0.26785 0.45997 0.0
C1911 C 0.29826 0.25614 0.4007 0.0
C1912 C 0.31972 0.28397 0.39646 0.0
H1913 H 0.27972 0.22693 0.43373 0.0
H1914 H 0.28156 0.24077 0.38003 0.0
S1915 S 0.37988 0.34207 0.46158 0.0
N1916 N 0.36099 0.31553 0.48081 0.0
N1917 N 0.36312 0.33008 0.42294 0.0
C1918 C 0.34079 0.30319 0.42424 0.0
C1919 C 0.33968 0.2952 0.45576 0.0
C1920 C 0.3393 0.58844 0.51771 0.0
C1921 C 0.34789 0.61996 0.51385 0.0
C1922 C 0.35712 0.56933 0.5094 0.0
C1923 C 0.38423 0.58132 0.49738 0.0
H1924 H 0.31927 0.57878 0.52832 0.0
H1925 H 0.35089 0.54581 0.51461 0.0
S1926 S 0.41544 0.6612 0.48012 0.0
N1927 N 0.38395 0.66146 0.49468 0.0
N1928 N 0.4178 0.62552 0.47968 0.0
C1929 C 0.39208 0.61211 0.49153 0.0
C1930 C 0.37378 0.63148 0.49961 0.0
C1931 C 0.92042 0.99449 0.57688 0.0
C1932 C 0.9155 0.96214 0.57494 0.0
C1933 C 0.94778 0.01425 0.57027 0.0
C1934 C 0.9708 1.0022 0.56051 0.0
H1935 H 0.90313 1.00465 0.58389 0.0
H1936 H 0.95074 0.03909 0.57259 0.0
S1937 S 0.9677 0.9184 0.5496 0.0
N1938 N 0.93526 0.9187 0.5619 0.0
N1939 N 0.98583 0.95519 0.54798 0.0
C1940 C 0.96563 0.96962 0.55774 0.0
C1941 C 0.93823 0.94977 0.56537 0.0
C1942 C 0.90361 0.11977 0.34823 0.0
C1943 C 0.91573 0.11536 0.31963 0.0
C1944 C 0.8858 0.13985 0.35235 0.0
C1945 C 0.87942 0.15643 0.32809 0.0
H1946 H 0.90781 0.10755 0.36771 0.0
H1947 H 0.87713 0.14258 0.37485 0.0
S1948 S 0.90453 0.15253 0.2481 0.0
N1949 N 0.91949 0.12907 0.26632 0.0
N1950 N 0.88575 0.16651 0.27403 0.0
C1951 C 0.89131 0.15231 0.29935 0.0
C1952 C 0.9095 0.13187 0.29513 0.0
C1953 C 0.70788 0.1287 0.12137 0.0
C1954 C 0.72539 0.12215 0.09802 0.0
C1955 C 0.6756 0.1177 0.11421 0.0
C1956 C 0.65983 0.10007 0.08338 0.0
H1957 H 0.71908 0.14347 0.14491 0.0
H1958 H 0.66297 0.12408 0.13251 0.0
S1959 S 0.69462 0.07249 0.01533 0.0
N1960 N 0.72432 0.09366 0.04403 0.0
N1961 N 0.66372 0.07356 0.03057 0.0
C1962 C 0.67693 0.09181 0.06047 0.0
C1963 C 0.70973 0.10263 0.06783 0.0
C1964 C 0.30245 0.55095 0.35765 0.0
C1965 C 0.29926 0.55988 0.32725 0.0
C1966 C 0.32099 0.53227 0.36438 0.0
C1967 C 0.33708 0.52253 0.34101 0.0
H1968 H 0.28879 0.55638 0.37529 0.0
H1969 H 0.32074 0.5234 0.38685 0.0
S1970 S 0.34193 0.54644 0.2611 0.0
N1971 N 0.31728 0.56221 0.27588 0.0
N1972 N 0.35308 0.52801 0.289 0.0
C1973 C 0.33671 0.53441 0.3121 0.0
C1974 C 0.31744 0.55284 0.30504 0.0
C1975 C 0.25508 0.47563 0.06248 0.0
C1976 C 0.26373 0.46073 0.03539 0.0
C1977 C 0.23548 0.49396 0.05871 0.0
C1978 C 0.22373 0.49805 0.02771 0.0
H1979 H 0.26404 0.47373 0.08687 0.0
H1980 H 0.22998 0.50554 0.0803 0.0
S1981 S 0.23608 0.46087 0.94871 0.0
N1982 N 0.25689 0.4493 0.97627 0.0
N1983 N 0.21994 0.48348 0.96933 0.0
C1984 C 0.23133 0.48245 1.00038 0.0
C1985 C 0.25132 0.46385 1.00418 0.0
C1986 C 0.91741 0.93231 0.27254 0.0
C1987 C 0.9095 0.96003 0.27349 0.0
C1988 C 0.89732 0.9052 0.27932 0.0
C1989 C 0.86825 0.90448 0.28667 0.0
H1990 H 0.93973 0.93175 0.26757 0.0
H1991 H 0.90472 0.88459 0.27887 0.0
S1992 S 0.83549 0.97006 0.29014 0.0
N1993 N 0.87001 0.98478 0.28118 0.0
N1994 N 0.83187 0.93328 0.29305 0.0
C1995 C 0.85946 0.93157 0.28647 0.0
C1996 C 0.88021 0.95949 0.28017 0.0
C1997 C 0.7758 0.18188 0.76316 0.0
C1998 C 0.74379 0.16951 0.76157 0.0
C1999 C 0.79136 0.2139 0.77387 0.0
C2000 C 0.77553 0.23486 0.78352 0.0
H2001 H 0.78918 0.16662 0.75671 0.0
H2002 H 0.8161 0.22213 0.77496 0.0
S2003 S 0.6912 0.21461 0.78239 0.0
N2004 N 0.69644 0.18081 0.76936 0.0
N2005 N 0.72572 0.24121 0.7895 0.0
C2006 C 0.74333 0.22298 0.7813 0.0
C2007 C 0.72742 0.19027 0.7702 0.0
loop_
_geom_bond_atom_site_label_1
_geom_bond_atom_site_label_2
_geom_bond_distance
_geom_bond_site_symmetry_2
_ccdc_geom_bond_type
C0 O1 1.160 . S
C0 O7 1.185 . S
O1 C0 1.160 . S
O2 Zn3 1.899 . S
O2 C10 1.284 . S
Zn3 O2 1.899 . S
Zn3 O4 2.032 . S
Zn3 O7 2.086 . S
Zn3 O12 1.977 . S
O4 Zn3 2.032 . S
O4 C8 1.278 . S
C5 O6 1.203 . S
C5 O12 1.267 1_655 S
O6 C5 1.203 . S
O7 C0 1.185 . S
O7 Zn3 2.086 . S
C8 O4 1.278 . S
C8 O9 1.211 . S
O9 C8 1.211 . S
C10 O2 1.284 . S
C10 O11 1.273 . S
O11 C10 1.273 . S
O12 Zn3 1.977 . S
O12 C5 1.267 1_455 S
C13 O14 1.160 . S
C13 O20 1.185 1_655 S
O14 C13 1.160 . S
O15 Zn16 1.899 . S
O15 C23 1.284 . S
Zn16 O15 1.899 . S
Zn16 O17 2.032 . S
Zn16 O20 2.086 . S
Zn16 O25 1.977 . S
O17 Zn16 2.032 . S
O17 C21 1.278 . S
C18 O19 1.203 . S
C18 O25 1.267 . S
O19 C18 1.203 . S
O20 C13 1.185 1_455 S
O20 Zn16 2.086 . S
C21 O17 1.278 . S
C21 O22 1.211 . S
O22 C21 1.211 . S
C23 O15 1.284 . S
C23 O24 1.273 . S
O24 C23 1.273 . S
O25 Zn16 1.977 . S
O25 C18 1.267 . S
C26 O27 1.160 . S
C26 O33 1.185 . S
O27 C26 1.160 . S
O28 Zn29 1.899 . S
O28 C36 1.284 . S
Zn29 O28 1.899 . S
Zn29 O30 2.032 . S
Zn29 O33 2.086 . S
Zn29 O38 1.977 . S
O30 Zn29 2.032 . S
O30 C34 1.278 . S
C31 O32 1.203 . S
C31 O38 1.267 . S
O32 C31 1.203 . S
O33 C26 1.185 . S
O33 Zn29 2.086 . S
C34 O30 1.278 . S
C34 O35 1.211 . S
O35 C34 1.211 . S
C36 O28 1.284 . S
C36 O37 1.273 . S
O37 C36 1.273 . S
O38 Zn29 1.977 . S
O38 C31 1.267 . S
C39 O40 1.160 . S
C39 O46 1.185 . S
O40 C39 1.160 . S
O41 Zn42 1.899 . S
O41 C49 1.284 . S
Zn42 O41 1.899 . S
Zn42 O43 2.032 . S
Zn42 O46 2.086 . S
Zn42 O51 1.977 . S
O43 Zn42 2.032 . S
O43 C47 1.278 . S
C44 O45 1.203 . S
C44 O51 1.267 . S
O45 C44 1.203 . S
O46 C39 1.185 . S
O46 Zn42 2.086 . S
C47 O43 1.278 . S
C47 O48 1.211 . S
O48 C47 1.211 . S
C49 O41 1.284 . S
C49 O50 1.273 . S
O50 C49 1.273 . S
O51 Zn42 1.977 . S
O51 C44 1.267 . S
C52 O53 1.160 . S
C52 O59 1.185 . S
O53 C52 1.160 . S
O54 Zn55 1.899 . S
O54 C62 1.284 . S
Zn55 O54 1.899 . S
Zn55 O56 2.032 . S
Zn55 O59 2.086 . S
Zn55 O64 1.977 . S
O56 Zn55 2.032 . S
O56 C60 1.278 . S
C57 O58 1.203 . S
C57 O64 1.267 . S
O58 C57 1.203 . S
O59 C52 1.185 . S
O59 Zn55 2.086 . S
C60 O56 1.278 . S
C60 O61 1.211 . S
O61 C60 1.211 . S
C62 O54 1.284 . S
C62 O63 1.273 . S
O63 C62 1.273 . S
O64 Zn55 1.977 . S
O64 C57 1.267 . S
C65 O66 1.160 . S
C65 O72 1.185 . S
O66 C65 1.160 . S
O67 Zn68 1.899 . S
O67 C75 1.284 . S
Zn68 O67 1.899 . S
Zn68 O69 2.032 . S
Zn68 O72 2.086 . S
Zn68 O77 1.977 . S
O69 Zn68 2.032 . S
O69 C73 1.278 . S
C70 O71 1.203 . S
C70 O77 1.267 . S
O71 C70 1.203 . S
O72 C65 1.185 . S
O72 Zn68 2.086 . S
C73 O69 1.278 . S
C73 O74 1.211 . S
O74 C73 1.211 . S
C75 O67 1.284 . S
C75 O76 1.273 . S
O76 C75 1.273 . S
O77 Zn68 1.977 . S
O77 C70 1.267 . S
C78 O79 1.160 . S
C78 O85 1.185 . S
O79 C78 1.160 . S
O80 Zn81 1.899 . S
O80 C88 1.284 . S
Zn81 O80 1.899 . S
Zn81 O82 2.032 . S
Zn81 O85 2.086 . S
Zn81 O90 1.977 . S
O82 Zn81 2.032 . S
O82 C86 1.278 . S
C83 O84 1.203 . S
C83 O90 1.267 . S
O84 C83 1.203 . S
O85 C78 1.185 . S
O85 Zn81 2.086 . S
C86 O82 1.278 . S
C86 O87 1.211 . S
O87 C86 1.211 . S
C88 O80 1.284 . S
C88 O89 1.273 . S
O89 C88 1.273 . S
O90 Zn81 1.977 . S
O90 C83 1.267 . S
C91 O92 1.160 . S
C91 O98 1.185 . S
O92 C91 1.160 . S
O93 Zn94 1.902 1_655 S
O93 C101 1.288 1_556 S
Zn94 O93 1.902 1_455 S
Zn94 O95 2.032 1_556 S
Zn94 O98 2.086 . S
Zn94 O103 1.977 1_455 S
O95 Zn94 2.032 1_554 S
O95 C99 1.278 . S
C96 O97 1.203 . S
C96 O103 1.267 . S
O97 C96 1.203 . S
O98 C91 1.185 . S
O98 Zn94 2.086 . S
C99 O95 1.278 . S
C99 O100 1.211 1_455 S
O100 C99 1.211 1_655 S
C101 O93 1.288 1_554 S
C101 O102 1.273 . S
O102 C101 1.273 . S
O103 Zn94 1.977 1_655 S
O103 C96 1.267 . S
C104 O105 1.160 . S
C104 O111 1.185 . S
O105 C104 1.160 . S
O106 Zn107 1.899 . S
O106 C114 1.284 . S
Zn107 O106 1.899 . S
Zn107 O108 2.032 . S
Zn107 O111 2.086 . S
Zn107 O116 1.977 1_545 S
O108 Zn107 2.032 . S
O108 C112 1.278 . S
C109 O110 1.203 . S
C109 O116 1.267 . S
O110 C109 1.203 . S
O111 C104 1.185 . S
O111 Zn107 2.086 . S
C112 O108 1.278 . S
C112 O113 1.211 1_545 S
O113 C112 1.211 1_565 S
C114 O106 1.284 . S
C114 O115 1.273 1_545 S
O115 C114 1.273 1_565 S
O116 Zn107 1.977 1_565 S
O116 C109 1.267 . S
C117 O118 1.160 . S
C117 O124 1.185 . S
O118 C117 1.160 . S
O119 Zn120 1.899 . S
O119 C127 1.284 . S
Zn120 O119 1.899 . S
Zn120 O121 2.032 . S
Zn120 O124 2.086 . S
Zn120 O129 1.977 . S
O121 Zn120 2.032 . S
O121 C125 1.278 . S
C122 O123 1.203 . S
C122 O129 1.267 . S
O123 C122 1.203 . S
O124 C117 1.185 . S
O124 Zn120 2.086 . S
C125 O121 1.278 . S
C125 O126 1.211 . S
O126 C125 1.211 . S
C127 O119 1.284 . S
C127 O128 1.273 . S
O128 C127 1.273 . S
O129 Zn120 1.977 . S
O129 C122 1.267 . S
C130 O131 1.160 . S
C130 O137 1.185 . S
O131 C130 1.160 . S
O132 Zn133 1.899 . S
O132 C140 1.284 . S
Zn133 O132 1.899 . S
Zn133 O134 2.032 . S
Zn133 O137 2.086 . S
Zn133 O142 1.977 . S
O134 Zn133 2.032 . S
O134 C138 1.278 . S
C135 O136 1.203 . S
C135 O142 1.267 . S
O136 C135 1.203 . S
O137 C130 1.185 . S
O137 Zn133 2.086 . S
C138 O134 1.278 . S
C138 O139 1.211 . S
O139 C138 1.211 . S
C140 O132 1.284 . S
C140 O141 1.273 . S
O141 C140 1.273 . S
O142 Zn133 1.977 . S
O142 C135 1.267 . S
C143 O144 1.160 . S
C143 O150 1.185 1_554 S
O144 C143 1.160 . S
O145 Zn146 1.899 . S
O145 C153 1.284 . S
Zn146 O145 1.899 . S
Zn146 O147 2.032 1_554 S
Zn146 O150 2.086 1_554 S
Zn146 O155 1.977 . S
O147 Zn146 2.032 1_556 S
O147 C151 1.278 . S
C148 O149 1.203 . S
C148 O155 1.267 . S
O149 C148 1.203 . S
O150 C143 1.185 1_556 S
O150 Zn146 2.086 1_556 S
C151 O147 1.278 . S
C151 O152 1.211 . S
O152 C151 1.211 . S
C153 O145 1.284 . S
C153 O154 1.273 . S
O154 C153 1.273 . S
O155 Zn146 1.977 . S
O155 C148 1.267 . S
C156 O157 1.160 . S
C156 O163 1.185 . S
O157 C156 1.160 . S
O158 Zn159 1.899 . S
O158 C166 1.284 . S
Zn159 O158 1.899 . S
Zn159 O160 2.032 . S
Zn159 O163 2.086 . S
Zn159 O168 1.977 . S
O160 Zn159 2.032 . S
O160 C164 1.278 1_554 S
C161 O162 1.203 . S
C161 O168 1.267 . S
O162 C161 1.203 . S
O163 C156 1.185 . S
O163 Zn159 2.086 . S
C164 O160 1.278 1_556 S
C164 O165 1.211 1_556 S
O165 C164 1.211 1_554 S
C166 O158 1.284 . S
C166 O167 1.273 . S
O167 C166 1.273 . S
O168 Zn159 1.977 . S
O168 C161 1.267 . S
C169 O170 1.160 . S
C169 O176 1.185 . S
O170 C169 1.160 . S
O171 Zn172 1.899 . S
O171 C179 1.284 . S
Zn172 O171 1.899 . S
Zn172 O173 2.032 . S
Zn172 O176 2.086 . S
Zn172 O181 1.977 . S
O173 Zn172 2.032 . S
O173 C177 1.278 . S
C174 O175 1.203 . S
C174 O181 1.267 . S
O175 C174 1.203 . S
O176 C169 1.185 . S
O176 Zn172 2.086 . S
C177 O173 1.278 . S
C177 O178 1.211 . S
O178 C177 1.211 . S
C179 O171 1.284 . S
C179 O180 1.273 . S
O180 C179 1.273 . S
O181 Zn172 1.977 . S
O181 C174 1.267 . S
C182 O183 1.160 . S
C182 O189 1.185 . S
O183 C182 1.160 . S
O184 Zn185 1.899 . S
O184 C192 1.284 . S
Zn185 O184 1.899 . S
Zn185 O186 2.032 . S
Zn185 O189 2.086 . S
Zn185 O194 1.977 . S
O186 Zn185 2.032 . S
O186 C190 1.278 . S
C187 O188 1.203 . S
C187 O194 1.267 . S
O188 C187 1.203 . S
O189 C182 1.185 . S
O189 Zn185 2.086 . S
C190 O186 1.278 . S
C190 O191 1.211 . S
O191 C190 1.211 . S
C192 O184 1.284 . S
C192 O193 1.273 . S
O193 C192 1.273 . S
O194 Zn185 1.977 . S
O194 C187 1.267 . S
C195 O196 1.160 . S
C195 O202 1.185 . S
O196 C195 1.160 . S
O197 Zn198 1.899 . S
O197 C205 1.284 . S
Zn198 O197 1.899 . S
Zn198 O199 2.032 . S
Zn198 O202 2.086 . S
Zn198 O207 1.977 . S
O199 Zn198 2.032 . S
O199 C203 1.278 . S
C200 O201 1.203 . S
C200 O207 1.267 . S
O201 C200 1.203 . S
O202 C195 1.185 . S
O202 Zn198 2.086 . S
C203 O199 1.278 . S
C203 O204 1.211 . S
O204 C203 1.211 . S
C205 O197 1.284 . S
C205 O206 1.273 . S
O206 C205 1.273 . S
O207 Zn198 1.977 . S
O207 C200 1.267 . S
C208 O209 1.160 . S
C208 O215 1.185 . S
O209 C208 1.160 . S
O210 Zn211 1.899 . S
O210 C218 1.284 . S
Zn211 O210 1.899 . S
Zn211 O212 2.032 . S
Zn211 O215 2.086 . S
Zn211 O220 1.958 1_545 S
O212 Zn211 2.032 . S
O212 C216 1.278 . S
C213 O214 1.203 . S
C213 O220 1.292 . S
O214 C213 1.203 . S
O215 C208 1.185 . S
O215 Zn211 2.086 . S
C216 O212 1.278 . S
C216 O217 1.211 . S
O217 C216 1.211 . S
C218 O210 1.284 . S
C218 O219 1.273 1_655 S
O219 C218 1.273 1_455 S
O220 Zn211 1.958 1_565 S
O220 C213 1.292 . S
C221 O222 1.160 . S
C221 O228 1.185 . S
O222 C221 1.160 . S
O223 Zn224 1.899 . S
O223 C231 1.284 . S
Zn224 O223 1.899 . S
Zn224 O225 2.032 . S
Zn224 O228 2.086 . S
Zn224 O233 1.977 . S
O225 Zn224 2.032 . S
O225 C229 1.278 . S
C226 O227 1.203 . S
C226 O233 1.267 . S
O227 C226 1.203 . S
O228 C221 1.185 . S
O228 Zn224 2.086 . S
C229 O225 1.278 . S
C229 O230 1.211 . S
O230 C229 1.211 . S
C231 O223 1.284 . S
C231 O232 1.273 . S
O232 C231 1.273 . S
O233 Zn224 1.977 . S
O233 C226 1.267 . S
C234 O235 1.160 . S
C234 O241 1.185 . S
O235 C234 1.160 . S
O236 Zn237 1.899 . S
O236 C244 1.284 . S
Zn237 O236 1.899 . S
Zn237 O238 2.032 . S
Zn237 O241 2.086 . S
Zn237 O246 1.977 . S
O238 Zn237 2.032 . S
O238 C242 1.278 . S
C239 O240 1.203 . S
C239 O246 1.267 . S
O240 C239 1.203 . S
O241 C234 1.185 . S
O241 Zn237 2.086 . S
C242 O238 1.278 . S
C242 O243 1.211 . S
O243 C242 1.211 . S
C244 O236 1.284 . S
C244 O245 1.273 . S
O245 C244 1.273 . S
O246 Zn237 1.977 . S
O246 C239 1.267 . S
C247 O248 1.160 . S
C247 O254 1.185 . S
O248 C247 1.160 . S
O249 Zn250 1.899 . S
O249 C257 1.284 . S
Zn250 O249 1.899 . S
Zn250 O251 2.032 . S
Zn250 O254 2.086 . S
Zn250 O259 1.977 . S
O251 Zn250 2.032 . S
O251 C255 1.278 . S
C252 O253 1.203 . S
C252 O259 1.267 . S
O253 C252 1.203 . S
O254 C247 1.185 . S
O254 Zn250 2.086 . S
C255 O251 1.278 . S
C255 O256 1.211 . S
O256 C255 1.211 . S
C257 O249 1.284 . S
C257 O258 1.273 . S
O258 C257 1.273 . S
O259 Zn250 1.977 . S
O259 C252 1.267 . S
C260 O261 1.160 . S
C260 O267 1.185 . S
O261 C260 1.160 . S
O262 Zn263 1.899 . S
O262 C270 1.284 . S
Zn263 O262 1.899 . S
Zn263 O264 2.032 . S
Zn263 O267 2.086 . S
Zn263 O272 1.977 . S
O264 Zn263 2.032 . S
O264 C268 1.278 1_554 S
C265 O266 1.203 . S
C265 O272 1.267 . S
O266 C265 1.203 . S
O267 C260 1.185 . S
O267 Zn263 2.086 . S
C268 O264 1.278 1_556 S
C268 O269 1.211 . S
O269 C268 1.211 . S
C270 O262 1.284 . S
C270 O271 1.273 . S
O271 C270 1.273 . S
O272 Zn263 1.977 . S
O272 C265 1.267 . S
C273 O274 1.160 . S
C273 O280 1.185 . S
O274 C273 1.160 . S
O275 Zn276 1.899 . S
O275 C283 1.284 . S
Zn276 O275 1.899 . S
Zn276 O277 2.032 . S
Zn276 O280 2.086 . S
Zn276 O285 1.977 . S
O277 Zn276 2.032 . S
O277 C281 1.278 . S
C278 O279 1.203 . S
C278 O285 1.267 . S
O279 C278 1.203 . S
O280 C273 1.185 . S
O280 Zn276 2.086 . S
C281 O277 1.278 . S
C281 O282 1.211 . S
O282 C281 1.211 . S
C283 O275 1.284 . S
C283 O284 1.273 . S
O284 C283 1.273 . S
O285 Zn276 1.977 . S
O285 C278 1.267 . S
C286 O287 1.160 . S
C286 O293 1.185 . S
O287 C286 1.160 . S
O288 Zn289 1.899 . S
O288 C296 1.284 . S
Zn289 O288 1.899 . S
Zn289 O290 2.032 . S
Zn289 O293 2.086 . S
Zn289 O298 1.977 . S
O290 Zn289 2.032 . S
O290 C294 1.278 . S
C291 O292 1.203 . S
C291 O298 1.267 . S
O292 C291 1.203 . S
O293 C286 1.185 . S
O293 Zn289 2.086 . S
C294 O290 1.278 . S
C294 O295 1.211 . S
O295 C294 1.211 . S
C296 O288 1.284 . S
C296 O297 1.273 . S
O297 C296 1.273 . S
O298 Zn289 1.977 . S
O298 C291 1.267 . S
C299 O300 1.160 . S
C299 O306 1.185 . S
O300 C299 1.160 . S
O301 Zn302 1.899 . S
O301 C309 1.284 . S
Zn302 O301 1.899 . S
Zn302 O303 2.032 . S
Zn302 O306 2.086 . S
Zn302 O311 1.977 . S
O303 Zn302 2.032 . S
O303 C307 1.278 . S
C304 O305 1.203 . S
C304 O311 1.267 . S
O305 C304 1.203 . S
O306 C299 1.185 . S
O306 Zn302 2.086 . S
C307 O303 1.278 . S
C307 O308 1.211 . S
O308 C307 1.211 . S
C309 O301 1.284 . S
C309 O310 1.273 . S
O310 C309 1.273 . S
O311 Zn302 1.977 . S
O311 C304 1.267 . S
Dy312 O315 2.307 . S
Dy312 O317 2.395 . S
Dy312 O318 2.379 . S
Dy312 O320 2.339 . S
Dy312 O322 2.298 . S
Dy312 O326 2.275 . S
Dy312 C334 2.738 . S
Dy313 O316 2.298 1_655 S
Dy313 O319 2.275 1_655 S
Dy313 O321 2.334 1_655 S
Dy313 O323 2.395 . S
Dy313 O324 2.379 1_554 S
Dy313 O327 2.339 1_654 S
Dy313 C343 2.738 . S
C314 O326 1.254 1_556 S
C314 O327 1.257 . S
O315 Dy312 2.307 . S
O315 C325 1.266 . S
O316 Dy313 2.298 1_455 S
O316 C325 1.236 . S
O317 Dy312 2.395 . S
O317 C334 1.255 . S
O318 Dy312 2.379 . S
O318 C334 1.249 . S
O319 Dy313 2.275 1_455 S
O319 C335 1.254 . S
O320 Dy312 2.339 . S
O320 C335 1.257 . S
O321 Dy313 2.334 1_455 S
O321 C336 1.253 1_545 S
O322 Dy312 2.298 . S
O322 C336 1.236 1_545 S
O323 Dy313 2.395 . S
O323 C343 1.255 . S
O324 Dy313 2.379 1_556 S
O324 C343 1.249 1_556 S
C325 O315 1.266 . S
C325 O316 1.236 . S
O326 Dy312 2.275 . S
O326 C314 1.254 1_554 S
O327 Dy313 2.339 1_456 S
O327 C314 1.257 . S
C328 C331 1.344 . S
C328 C332 1.328 . S
C328 C334 1.516 . S
C329 C330 1.304 . S
C329 C333 1.323 . S
C330 C329 1.304 . S
C330 C331 1.371 . S
C330 H344 0.930 . S
C331 C328 1.344 . S
C331 C330 1.371 . S
C331 H345 0.931 . S
C332 C328 1.328 . S
C332 C333 1.433 . S
C332 H346 0.931 . S
C333 C329 1.323 . S
C333 C332 1.433 . S
C333 H347 0.933 . S
C334 Dy312 2.738 . S
C334 O317 1.255 . S
C334 O318 1.249 . S
C334 C328 1.516 . S
C335 O319 1.254 . S
C335 O320 1.257 . S
C336 O321 1.253 1_565 S
C336 O322 1.236 1_565 S
C337 C340 1.344 . S
C337 C341 1.328 1_554 S
C337 C343 1.516 . S
C338 C339 1.304 . S
C338 C342 1.323 1_554 S
C339 C338 1.304 . S
C339 C340 1.371 . S
C339 H348 0.930 . S
C340 C337 1.344 . S
C340 C339 1.371 . S
C340 H349 0.931 . S
C341 C337 1.328 1_556 S
C341 C342 1.433 . S
C341 H350 0.931 . S
C342 C338 1.323 1_556 S
C342 C341 1.433 . S
C342 H351 0.933 . S
C343 Dy313 2.738 . S
C343 O323 1.255 . S
C343 O324 1.249 1_554 S
C343 C337 1.516 . S
H344 C330 0.930 . S
H345 C331 0.931 . S
H346 C332 0.931 . S
H347 C333 0.933 . S
H348 C339 0.930 . S
H349 C340 0.931 . S
H350 C341 0.931 . S
H351 C342 0.933 . S
Dy352 O355 2.307 . S
Dy352 O357 2.395 . S
Dy352 O358 2.379 . S
Dy352 O360 2.339 . S
Dy352 O362 2.298 . S
Dy352 O366 2.275 . S
Dy352 C374 2.738 . S
Dy353 O356 2.298 . S
Dy353 O359 2.275 . S
Dy353 O361 2.307 . S
Dy353 O363 2.395 . S
Dy353 O364 2.379 . S
Dy353 O367 2.339 . S
Dy353 C383 2.738 . S
C354 O366 1.254 . S
C354 O367 1.257 . S
O355 Dy352 2.307 . S
O355 C365 1.266 . S
O356 Dy353 2.298 . S
O356 C365 1.236 . S
O357 Dy352 2.395 . S
O357 C374 1.255 . S
O358 Dy352 2.379 . S
O358 C374 1.249 . S
O359 Dy353 2.275 . S
O359 C375 1.254 . S
O360 Dy352 2.339 . S
O360 C375 1.257 . S
O361 Dy353 2.307 . S
O361 C376 1.266 . S
O362 Dy352 2.298 . S
O362 C376 1.236 . S
O363 Dy353 2.395 . S
O363 C383 1.255 . S
O364 Dy353 2.379 . S
O364 C383 1.249 . S
C365 O355 1.266 . S
C365 O356 1.236 . S
O366 Dy352 2.275 . S
O366 C354 1.254 . S
O367 Dy353 2.339 . S
O367 C354 1.257 . S
C368 C371 1.344 . S
C368 C372 1.328 . S
C368 C374 1.516 . S
C369 C370 1.304 . S
C369 C373 1.323 . S
C370 C369 1.304 . S
C370 C371 1.371 . S
C370 H384 0.930 . S
C371 C368 1.344 . S
C371 C370 1.371 . S
C371 H385 0.931 . S
C372 C368 1.328 . S
C372 C373 1.433 . S
C372 H386 0.931 . S
C373 C369 1.323 . S
C373 C372 1.433 . S
C373 H387 0.933 . S
C374 Dy352 2.738 . S
C374 O357 1.255 . S
C374 O358 1.249 . S
C374 C368 1.516 . S
C375 O359 1.254 . S
C375 O360 1.257 . S
C376 O361 1.266 . S
C376 O362 1.236 . S
C377 C380 1.344 . S
C377 C381 1.328 . S
C377 C383 1.516 . S
C378 C379 1.304 . S
C378 C382 1.323 . S
C379 C378 1.304 . S
C379 C380 1.371 . S
C379 H388 0.930 . S
C380 C377 1.344 . S
C380 C379 1.371 . S
C380 H389 0.931 . S
C381 C377 1.328 . S
C381 C382 1.433 . S
C381 H390 0.931 . S
C382 C378 1.323 . S
C382 C381 1.433 . S
C382 H391 0.933 . S
C383 Dy353 2.738 . S
C383 O363 1.255 . S
C383 O364 1.249 . S
C383 C377 1.516 . S
H384 C370 0.930 . S
H385 C371 0.931 . S
H386 C372 0.931 . S
H387 C373 0.933 . S
H388 C379 0.930 . S
H389 C380 0.931 . S
H390 C381 0.931 . S
H391 C382 0.933 . S
Dy392 O395 2.307 . S
Dy392 O397 2.395 . S
Dy392 O398 2.379 . S
Dy392 O400 2.339 . S
Dy392 O402 2.298 . S
Dy392 O406 2.275 . S
Dy392 C414 2.738 . S
Dy393 O396 2.298 . S
Dy393 O399 2.275 . S
Dy393 O401 2.307 . S
Dy393 O403 2.395 . S
Dy393 O404 2.379 . S
Dy393 O407 2.339 . S
Dy393 C423 2.738 . S
C394 O406 1.254 . S
C394 O407 1.257 . S
O395 Dy392 2.307 . S
O395 C405 1.275 . S
O396 Dy393 2.298 . S
O396 C405 1.241 . S
O397 Dy392 2.395 . S
O397 C414 1.255 . S
O398 Dy392 2.379 . S
O398 C414 1.249 . S
O399 Dy393 2.275 . S
O399 C415 1.254 . S
O400 Dy392 2.339 . S
O400 C415 1.257 . S
O401 Dy393 2.307 . S
O401 C416 1.266 . S
O402 Dy392 2.298 . S
O402 C416 1.236 . S
O403 Dy393 2.395 . S
O403 C423 1.255 . S
O404 Dy393 2.379 . S
O404 C423 1.249 . S
C405 O395 1.275 . S
C405 O396 1.241 . S
O406 Dy392 2.275 . S
O406 C394 1.254 . S
O407 Dy393 2.339 . S
O407 C394 1.257 . S
C408 C411 1.344 . S
C408 C412 1.328 . S
C408 C414 1.516 . S
C409 C410 1.304 . S
C409 C413 1.323 . S
C410 C409 1.304 . S
C410 C411 1.371 . S
C410 H424 0.930 . S
C411 C408 1.344 . S
C411 C410 1.371 . S
C411 H425 0.931 . S
C412 C408 1.328 . S
C412 C413 1.433 . S
C412 H426 0.931 . S
C413 C409 1.323 . S
C413 C412 1.433 . S
C413 H427 0.933 . S
C414 Dy392 2.738 . S
C414 O397 1.255 . S
C414 O398 1.249 . S
C414 C408 1.516 . S
C415 O399 1.254 . S
C415 O400 1.257 . S
C416 O401 1.266 . S
C416 O402 1.236 . S
C417 C420 1.344 . S
C417 C421 1.328 . S
C417 C423 1.516 . S
C418 C419 1.304 . S
C418 C422 1.323 . S
C419 C418 1.304 . S
C419 C420 1.371 1_565 S
C419 H428 0.930 . S
C420 C417 1.344 . S
C420 C419 1.371 1_545 S
C420 H429 0.931 . S
C421 C417 1.328 . S
C421 C422 1.433 1_545 S
C421 H430 0.931 . S
C422 C418 1.323 . S
C422 C421 1.433 1_565 S
C422 H431 0.933 . S
C423 Dy393 2.738 . S
C423 O403 1.255 . S
C423 O404 1.249 . S
C423 C417 1.516 . S
H424 C410 0.930 . S
H425 C411 0.931 . S
H426 C412 0.931 . S
H427 C413 0.933 . S
H428 C419 0.930 . S
H429 C420 0.931 . S
H430 C421 0.931 . S
H431 C422 0.933 . S
Dy432 O435 2.307 . S
Dy432 O437 2.395 . S
Dy432 O438 2.379 . S
Dy432 O440 2.339 . S
Dy432 O442 2.298 . S
Dy432 O446 2.275 . S
Dy432 C454 2.738 . S
Dy433 O436 2.298 . S
Dy433 O439 2.275 . S
Dy433 O441 2.307 . S
Dy433 O443 2.395 . S
Dy433 O444 2.379 . S
Dy433 O447 2.339 . S
Dy433 C463 2.738 . S
C434 O446 1.254 . S
C434 O447 1.257 . S
O435 Dy432 2.307 . S
O435 C445 1.266 . S
O436 Dy433 2.298 . S
O436 C445 1.236 . S
O437 Dy432 2.395 . S
O437 C454 1.255 . S
O438 Dy432 2.379 . S
O438 C454 1.249 . S
O439 Dy433 2.275 . S
O439 C455 1.254 . S
O440 Dy432 2.339 . S
O440 C455 1.257 . S
O441 Dy433 2.307 . S
O441 C456 1.266 . S
O442 Dy432 2.298 . S
O442 C456 1.236 . S
O443 Dy433 2.395 . S
O443 C463 1.255 . S
O444 Dy433 2.379 . S
O444 C463 1.249 . S
C445 O435 1.266 . S
C445 O436 1.236 . S
O446 Dy432 2.275 . S
O446 C434 1.254 . S
O447 Dy433 2.339 . S
O447 C434 1.257 . S
C448 C451 1.344 . S
C448 C452 1.328 . S
C448 C454 1.516 . S
C449 C450 1.304 . S
C449 C453 1.323 . S
C450 C449 1.304 . S
C450 C451 1.371 . S
C450 H464 0.930 . S
C451 C448 1.344 . S
C451 C450 1.371 . S
C451 H465 0.931 . S
C452 C448 1.328 . S
C452 C453 1.433 . S
C452 H466 0.931 . S
C453 C449 1.323 . S
C453 C452 1.433 . S
C453 H467 0.933 . S
C454 Dy432 2.738 . S
C454 O437 1.255 . S
C454 O438 1.249 . S
C454 C448 1.516 . S
C455 O439 1.254 . S
C455 O440 1.257 . S
C456 O441 1.266 . S
C456 O442 1.236 . S
C457 C460 1.344 . S
C457 C461 1.328 . S
C457 C463 1.516 . S
C458 C459 1.304 . S
C458 C462 1.323 . S
C459 C458 1.304 . S
C459 C460 1.371 . S
C459 H468 0.930 . S
C460 C457 1.344 . S
C460 C459 1.371 . S
C460 H469 0.931 . S
C461 C457 1.328 . S
C461 C462 1.433 . S
C461 H470 0.931 . S
C462 C458 1.323 . S
C462 C461 1.433 . S
C462 H471 0.933 . S
C463 Dy433 2.738 . S
C463 O443 1.255 . S
C463 O444 1.249 . S
C463 C457 1.516 . S
H464 C450 0.930 . S
H465 C451 0.931 . S
H466 C452 0.931 . S
H467 C453 0.933 . S
H468 C459 0.930 . S
H469 C460 0.931 . S
H470 C461 0.931 . S
H471 C462 0.933 . S
Dy472 O475 2.307 . S
Dy472 O477 2.395 1_545 S
Dy472 O478 2.379 1_545 S
Dy472 O480 2.339 . S
Dy472 O482 2.298 . S
Dy472 O486 2.275 . S
Dy472 C494 2.738 1_545 S
Dy473 O476 2.298 . S
Dy473 O479 2.275 . S
Dy473 O481 2.307 . S
Dy473 O483 2.395 . S
Dy473 O484 2.379 1_455 S
Dy473 O487 2.339 1_455 S
Dy473 C503 2.738 . S
C474 O486 1.254 1_655 S
C474 O487 1.257 . S
O475 Dy472 2.307 . S
O475 C485 1.266 . S
O476 Dy473 2.298 . S
O476 C485 1.236 . S
O477 Dy472 2.395 1_565 S
O477 C494 1.255 . S
O478 Dy472 2.379 1_565 S
O478 C494 1.249 . S
O479 Dy473 2.275 . S
O479 C495 1.254 . S
O480 Dy472 2.339 . S
O480 C495 1.257 . S
O481 Dy473 2.307 . S
O481 C496 1.266 . S
O482 Dy472 2.298 . S
O482 C496 1.236 . S
O483 Dy473 2.395 . S
O483 C503 1.255 . S
O484 Dy473 2.379 1_655 S
O484 C503 1.249 1_655 S
C485 O475 1.266 . S
C485 O476 1.236 . S
O486 Dy472 2.275 . S
O486 C474 1.254 1_455 S
O487 Dy473 2.339 1_655 S
O487 C474 1.257 . S
C488 C491 1.344 . S
C488 C492 1.328 . S
C488 C494 1.516 . S
C489 C490 1.304 . S
C489 C493 1.323 . S
C490 C489 1.304 . S
C490 C491 1.371 . S
C490 H504 0.930 . S
C491 C488 1.344 . S
C491 C490 1.371 . S
C491 H505 0.931 . S
C492 C488 1.328 . S
C492 C493 1.433 . S
C492 H506 0.931 . S
C493 C489 1.323 . S
C493 C492 1.433 . S
C493 H507 0.933 . S
C494 Dy472 2.738 1_565 S
C494 O477 1.255 . S
C494 O478 1.249 . S
C494 C488 1.516 . S
C495 O479 1.254 . S
C495 O480 1.257 . S
C496 O481 1.266 . S
C496 O482 1.236 . S
C497 C500 1.344 . S
C497 C501 1.328 1_455 S
C497 C503 1.516 . S
C498 C499 1.304 . S
C498 C502 1.323 1_455 S
C499 C498 1.304 . S
C499 C500 1.371 . S
C499 H508 0.930 . S
C500 C497 1.344 . S
C500 C499 1.371 . S
C500 H509 0.931 . S
C501 C497 1.328 1_655 S
C501 C502 1.433 . S
C501 H510 0.931 . S
C502 C498 1.323 1_655 S
C502 C501 1.433 . S
C502 H511 0.933 . S
C503 Dy473 2.738 . S
C503 O483 1.255 . S
C503 O484 1.249 1_455 S
C503 C497 1.516 . S
H504 C490 0.930 . S
H505 C491 0.931 . S
H506 C492 0.931 . S
H507 C493 0.933 . S
H508 C499 0.930 . S
H509 C500 0.931 . S
H510 C501 0.931 . S
H511 C502 0.933 . S
Dy512 O515 2.307 . S
Dy512 O517 2.395 . S
Dy512 O518 2.379 . S
Dy512 O520 2.339 . S
Dy512 O522 2.298 . S
Dy512 O526 2.275 . S
Dy512 C534 2.738 . S
Dy513 O516 2.298 . S
Dy513 O519 2.275 . S
Dy513 O521 2.307 . S
Dy513 O523 2.395 . S
Dy513 O524 2.379 . S
Dy513 O527 2.339 . S
Dy513 C543 2.738 . S
C514 O526 1.254 . S
C514 O527 1.257 . S
O515 Dy512 2.307 . S
O515 C525 1.266 . S
O516 Dy513 2.298 . S
O516 C525 1.236 . S
O517 Dy512 2.395 . S
O517 C534 1.255 . S
O518 Dy512 2.379 . S
O518 C534 1.249 . S
O519 Dy513 2.275 . S
O519 C535 1.254 . S
O520 Dy512 2.339 . S
O520 C535 1.257 . S
O521 Dy513 2.307 . S
O521 C536 1.266 . S
O522 Dy512 2.298 . S
O522 C536 1.236 . S
O523 Dy513 2.395 . S
O523 C543 1.255 . S
O524 Dy513 2.379 . S
O524 C543 1.249 . S
C525 O515 1.266 . S
C525 O516 1.236 . S
O526 Dy512 2.275 . S
O526 C514 1.254 . S
O527 Dy513 2.339 . S
O527 C514 1.257 . S
C528 C531 1.344 . S
C528 C532 1.328 . S
C528 C534 1.516 . S
C529 C530 1.304 . S
C529 C533 1.323 . S
C530 C529 1.304 . S
C530 C531 1.371 . S
C530 H544 0.930 . S
C531 C528 1.344 . S
C531 C530 1.371 . S
C531 H545 0.931 . S
C532 C528 1.328 . S
C532 C533 1.433 . S
C532 H546 0.931 . S
C533 C529 1.323 . S
C533 C532 1.433 . S
C533 H547 0.933 . S
C534 Dy512 2.738 . S
C534 O517 1.255 . S
C534 O518 1.249 . S
C534 C528 1.516 . S
C535 O519 1.254 . S
C535 O520 1.257 . S
C536 O521 1.266 . S
C536 O522 1.236 . S
C537 C540 1.344 . S
C537 C541 1.328 . S
C537 C543 1.516 . S
C538 C539 1.304 . S
C538 C542 1.323 . S
C539 C538 1.304 . S
C539 C540 1.371 . S
C539 H548 0.930 . S
C540 C537 1.344 . S
C540 C539 1.371 . S
C540 H549 0.931 . S
C541 C537 1.328 . S
C541 C542 1.433 . S
C541 H550 0.931 . S
C542 C538 1.323 . S
C542 C541 1.433 . S
C542 H551 0.933 . S
C543 Dy513 2.738 . S
C543 O523 1.255 . S
C543 O524 1.249 . S
C543 C537 1.516 . S
H544 C530 0.930 . S
H545 C531 0.931 . S
H546 C532 0.931 . S
H547 C533 0.933 . S
H548 C539 0.930 . S
H549 C540 0.931 . S
H550 C541 0.931 . S
H551 C542 0.933 . S
Dy552 O555 2.307 . S
Dy552 O557 2.395 1_554 S
Dy552 O558 2.379 1_554 S
Dy552 O560 2.339 . S
Dy552 O562 2.298 . S
Dy552 O566 2.275 . S
Dy552 C574 2.738 1_554 S
Dy553 O556 2.298 . S
Dy553 O559 2.275 . S
Dy553 O561 2.307 . S
Dy553 O563 2.395 . S
Dy553 O564 2.379 1_545 S
Dy553 O567 2.339 1_545 S
Dy553 C583 2.738 . S
C554 O566 1.254 . S
C554 O567 1.257 1_545 S
O555 Dy552 2.307 . S
O555 C565 1.266 . S
O556 Dy553 2.298 . S
O556 C565 1.236 . S
O557 Dy552 2.395 1_556 S
O557 C574 1.255 . S
O558 Dy552 2.379 1_556 S
O558 C574 1.249 . S
O559 Dy553 2.275 . S
O559 C575 1.254 . S
O560 Dy552 2.339 . S
O560 C575 1.257 . S
O561 Dy553 2.307 . S
O561 C576 1.266 . S
O562 Dy552 2.298 . S
O562 C576 1.236 . S
O563 Dy553 2.395 . S
O563 C583 1.255 . S
O564 Dy553 2.379 1_565 S
O564 C583 1.249 1_565 S
C565 O555 1.266 . S
C565 O556 1.236 . S
O566 Dy552 2.275 . S
O566 C554 1.254 . S
O567 Dy553 2.339 1_565 S
O567 C554 1.257 1_565 S
C568 C571 1.344 . S
C568 C572 1.328 . S
C568 C574 1.516 . S
C569 C570 1.304 . S
C569 C573 1.323 . S
C570 C569 1.304 . S
C570 C571 1.371 . S
C570 H584 0.930 . S
C571 C568 1.344 . S
C571 C570 1.371 . S
C571 H585 0.931 . S
C572 C568 1.328 . S
C572 C573 1.433 . S
C572 H586 0.931 . S
C573 C569 1.323 . S
C573 C572 1.433 . S
C573 H587 0.933 . S
C574 Dy552 2.738 1_556 S
C574 O557 1.255 . S
C574 O558 1.249 . S
C574 C568 1.516 . S
C575 O559 1.254 . S
C575 O560 1.257 . S
C576 O561 1.266 . S
C576 O562 1.236 . S
C577 C580 1.344 . S
C577 C581 1.328 1_545 S
C577 C583 1.516 . S
C578 C579 1.304 1_565 S
C578 C582 1.323 . S
C579 C578 1.304 1_545 S
C579 C580 1.371 . S
C579 H588 0.930 . S
C580 C577 1.344 . S
C580 C579 1.371 . S
C580 H589 0.931 . S
C581 C577 1.328 1_565 S
C581 C582 1.433 . S
C581 H590 0.931 . S
C582 C578 1.323 . S
C582 C581 1.433 . S
C582 H591 0.933 . S
C583 Dy553 2.738 . S
C583 O563 1.255 . S
C583 O564 1.249 1_545 S
C583 C577 1.516 . S
H584 C570 0.930 . S
H585 C571 0.931 . S
H586 C572 0.931 . S
H587 C573 0.933 . S
H588 C579 0.930 . S
H589 C580 0.931 . S
H590 C581 0.931 . S
H591 C582 0.933 . S
Dy592 O595 2.307 . S
Dy592 O597 2.395 . S
Dy592 O598 2.379 . S
Dy592 O600 2.339 . S
Dy592 O602 2.298 . S
Dy592 O606 2.275 . S
Dy592 C614 2.738 . S
Dy593 O596 2.298 . S
Dy593 O599 2.275 . S
Dy593 O601 2.307 . S
Dy593 O603 2.395 . S
Dy593 O604 2.379 . S
Dy593 O607 2.339 . S
Dy593 C623 2.738 . S
C594 O606 1.254 . S
C594 O607 1.257 . S
O595 Dy592 2.307 . S
O595 C605 1.266 . S
O596 Dy593 2.298 . S
O596 C605 1.236 . S
O597 Dy592 2.395 . S
O597 C614 1.255 . S
O598 Dy592 2.379 . S
O598 C614 1.249 . S
O599 Dy593 2.275 . S
O599 C615 1.254 . S
O600 Dy592 2.339 . S
O600 C615 1.257 . S
O601 Dy593 2.307 . S
O601 C616 1.266 . S
O602 Dy592 2.298 . S
O602 C616 1.236 . S
O603 Dy593 2.395 . S
O603 C623 1.255 . S
O604 Dy593 2.379 . S
O604 C623 1.249 . S
C605 O595 1.266 . S
C605 O596 1.236 . S
O606 Dy592 2.275 . S
O606 C594 1.254 . S
O607 Dy593 2.339 . S
O607 C594 1.257 . S
C608 C611 1.344 . S
C608 C612 1.328 . S
C608 C614 1.516 . S
C609 C610 1.304 . S
C609 C613 1.323 . S
C610 C609 1.304 . S
C610 C611 1.371 . S
C610 H624 0.930 . S
C611 C608 1.344 . S
C611 C610 1.371 . S
C611 H625 0.931 . S
C612 C608 1.328 . S
C612 C613 1.433 . S
C612 H626 0.931 . S
C613 C609 1.323 . S
C613 C612 1.433 . S
C613 H627 0.933 . S
C614 Dy592 2.738 . S
C614 O597 1.255 . S
C614 O598 1.249 . S
C614 C608 1.516 . S
C615 O599 1.254 . S
C615 O600 1.257 . S
C616 O601 1.266 . S
C616 O602 1.236 . S
C617 C620 1.344 . S
C617 C621 1.328 . S
C617 C623 1.516 . S
C618 C619 1.304 . S
C618 C622 1.323 . S
C619 C618 1.304 . S
C619 C620 1.371 . S
C619 H628 0.930 . S
C620 C617 1.344 . S
C620 C619 1.371 . S
C620 H629 0.931 . S
C621 C617 1.328 . S
C621 C622 1.433 . S
C621 H630 0.931 . S
C622 C618 1.323 . S
C622 C621 1.433 . S
C622 H631 0.933 . S
C623 Dy593 2.738 . S
C623 O603 1.255 . S
C623 O604 1.249 . S
C623 C617 1.516 . S
H624 C610 0.930 . S
H625 C611 0.931 . S
H626 C612 0.931 . S
H627 C613 0.933 . S
H628 C619 0.930 . S
H629 C620 0.931 . S
H630 C621 0.931 . S
H631 C622 0.933 . S
Dy632 O635 2.307 1_554 S
Dy632 O637 2.395 . S
Dy632 O638 2.379 . S
Dy632 O640 2.339 . S
Dy632 O642 2.298 . S
Dy632 O646 2.275 . S
Dy632 C654 2.738 . S
Dy633 O636 2.325 . S
Dy633 O639 2.275 . S
Dy633 O641 2.307 . S
Dy633 O643 2.395 . S
Dy633 O644 2.379 . S
Dy633 O647 2.339 . S
Dy633 C663 2.738 . S
C634 O646 1.254 . S
C634 O647 1.257 . S
O635 Dy632 2.307 1_556 S
O635 C645 1.266 . S
O636 Dy633 2.325 . S
O636 C645 1.220 1_554 S
O637 Dy632 2.395 . S
O637 C654 1.255 . S
O638 Dy632 2.379 . S
O638 C654 1.249 . S
O639 Dy633 2.275 . S
O639 C655 1.254 . S
O640 Dy632 2.339 . S
O640 C655 1.257 . S
O641 Dy633 2.307 . S
O641 C656 1.266 . S
O642 Dy632 2.298 . S
O642 C656 1.236 . S
O643 Dy633 2.395 . S
O643 C663 1.255 . S
O644 Dy633 2.379 . S
O644 C663 1.249 . S
C645 O635 1.266 . S
C645 O636 1.220 1_556 S
O646 Dy632 2.275 . S
O646 C634 1.254 . S
O647 Dy633 2.339 . S
O647 C634 1.257 . S
C648 C651 1.344 . S
C648 C652 1.328 . S
C648 C654 1.516 . S
C649 C650 1.304 . S
C649 C653 1.323 . S
C650 C649 1.304 . S
C650 C651 1.371 . S
C650 H664 0.930 . S
C651 C648 1.344 . S
C651 C650 1.371 . S
C651 H665 0.931 . S
C652 C648 1.328 . S
C652 C653 1.433 . S
C652 H666 0.931 . S
C653 C649 1.323 . S
C653 C652 1.433 . S
C653 H667 0.933 . S
C654 Dy632 2.738 . S
C654 O637 1.255 . S
C654 O638 1.249 . S
C654 C648 1.516 . S
C655 O639 1.254 . S
C655 O640 1.257 . S
C656 O641 1.266 . S
C656 O642 1.236 . S
C657 C660 1.322 1_554 S
C657 C661 1.328 . S
C657 C663 1.535 . S
C658 C659 1.304 . S
C658 C662 1.323 . S
C659 C658 1.304 . S
C659 C660 1.371 . S
C659 H668 0.930 . S
C660 C657 1.322 1_556 S
C660 C659 1.371 . S
C660 H669 0.931 . S
C661 C657 1.328 . S
C661 C662 1.419 1_554 S
C661 H670 0.947 . S
C662 C658 1.323 . S
C662 C661 1.419 1_556 S
C662 H671 0.933 . S
C663 Dy633 2.738 . S
C663 O643 1.255 . S
C663 O644 1.249 . S
C663 C657 1.535 . S
H664 C650 0.930 . S
H665 C651 0.931 . S
H666 C652 0.931 . S
H667 C653 0.933 . S
H668 C659 0.930 . S
H669 C660 0.931 . S
H670 C661 0.947 . S
H671 C662 0.933 . S
Dy672 O675 2.307 . S
Dy672 O677 2.395 . S
Dy672 O678 2.379 . S
Dy672 O680 2.339 . S
Dy672 O682 2.298 . S
Dy672 O686 2.275 . S
Dy672 C694 2.738 . S
Dy673 O676 2.298 . S
Dy673 O679 2.275 . S
Dy673 O681 2.307 . S
Dy673 O683 2.395 . S
Dy673 O684 2.379 . S
Dy673 O687 2.339 . S
Dy673 C703 2.738 . S
C674 O686 1.254 . S
C674 O687 1.257 . S
O675 Dy672 2.307 . S
O675 C685 1.266 . S
O676 Dy673 2.298 . S
O676 C685 1.236 . S
O677 Dy672 2.395 . S
O677 C694 1.255 . S
O678 Dy672 2.379 . S
O678 C694 1.249 . S
O679 Dy673 2.275 . S
O679 C695 1.254 . S
O680 Dy672 2.339 . S
O680 C695 1.257 . S
O681 Dy673 2.307 . S
O681 C696 1.266 . S
O682 Dy672 2.298 . S
O682 C696 1.236 . S
O683 Dy673 2.395 . S
O683 C703 1.255 . S
O684 Dy673 2.379 . S
O684 C703 1.249 . S
C685 O675 1.266 . S
C685 O676 1.236 . S
O686 Dy672 2.275 . S
O686 C674 1.254 . S
O687 Dy673 2.339 . S
O687 C674 1.257 . S
C688 C691 1.344 . S
C688 C692 1.328 . S
C688 C694 1.516 . S
C689 C690 1.304 . S
C689 C693 1.323 . S
C690 C689 1.304 . S
C690 C691 1.371 . S
C690 H704 0.930 . S
C691 C688 1.344 . S
C691 C690 1.371 . S
C691 H705 0.931 . S
C692 C688 1.328 . S
C692 C693 1.433 . S
C692 H706 0.931 . S
C693 C689 1.323 . S
C693 C692 1.433 . S
C693 H707 0.933 . S
C694 Dy672 2.738 . S
C694 O677 1.255 . S
C694 O678 1.249 . S
C694 C688 1.516 . S
C695 O679 1.254 . S
C695 O680 1.257 . S
C696 O681 1.266 . S
C696 O682 1.236 . S
C697 C700 1.344 . S
C697 C701 1.328 . S
C697 C703 1.516 . S
C698 C699 1.304 . S
C698 C702 1.323 . S
C699 C698 1.304 . S
C699 C700 1.371 . S
C699 H708 0.930 . S
C700 C697 1.344 . S
C700 C699 1.371 . S
C700 H709 0.931 . S
C701 C697 1.328 . S
C701 C702 1.433 . S
C701 H710 0.931 . S
C702 C698 1.323 . S
C702 C701 1.433 . S
C702 H711 0.933 . S
C703 Dy673 2.738 . S
C703 O683 1.255 . S
C703 O684 1.249 . S
C703 C697 1.516 . S
H704 C690 0.930 . S
H705 C691 0.931 . S
H706 C692 0.931 . S
H707 C693 0.933 . S
H708 C699 0.930 . S
H709 C700 0.931 . S
H710 C701 0.931 . S
H711 C702 0.933 . S
Dy712 O715 2.307 1_455 S
Dy712 O717 2.395 . S
Dy712 O718 2.379 . S
Dy712 O720 2.339 . S
Dy712 O722 2.298 . S
Dy712 O726 2.275 . S
Dy712 C734 2.738 . S
Dy713 O716 2.298 1_455 S
Dy713 O719 2.275 . S
Dy713 O721 2.307 . S
Dy713 O723 2.395 . S
Dy713 O724 2.379 . S
Dy713 O727 2.339 . S
Dy713 C743 2.738 . S
C714 O726 1.254 . S
C714 O727 1.257 . S
O715 Dy712 2.307 1_655 S
O715 C725 1.266 . S
O716 Dy713 2.298 1_655 S
O716 C725 1.236 . S
O717 Dy712 2.395 . S
O717 C734 1.255 . S
O718 Dy712 2.379 . S
O718 C734 1.249 . S
O719 Dy713 2.275 . S
O719 C735 1.254 . S
O720 Dy712 2.339 . S
O720 C735 1.257 . S
O721 Dy713 2.307 . S
O721 C736 1.266 . S
O722 Dy712 2.298 . S
O722 C736 1.236 . S
O723 Dy713 2.395 . S
O723 C743 1.255 . S
O724 Dy713 2.379 . S
O724 C743 1.249 . S
C725 O715 1.266 . S
C725 O716 1.236 . S
O726 Dy712 2.275 . S
O726 C714 1.254 . S
O727 Dy713 2.339 . S
O727 C714 1.257 . S
C728 C731 1.344 . S
C728 C732 1.328 . S
C728 C734 1.516 . S
C729 C730 1.304 . S
C729 C733 1.323 . S
C730 C729 1.304 . S
C730 C731 1.371 . S
C730 H744 0.930 . S
C731 C728 1.344 . S
C731 C730 1.371 . S
C731 H745 0.931 . S
C732 C728 1.328 . S
C732 C733 1.433 . S
C732 H746 0.931 . S
C733 C729 1.323 . S
C733 C732 1.433 . S
C733 H747 0.933 . S
C734 Dy712 2.738 . S
C734 O717 1.255 . S
C734 O718 1.249 . S
C734 C728 1.516 . S
C735 O719 1.254 . S
C735 O720 1.257 . S
C736 O721 1.266 . S
C736 O722 1.236 . S
C737 C740 1.344 . S
C737 C741 1.328 . S
C737 C743 1.516 1_655 S
C738 C739 1.304 . S
C738 C742 1.323 . S
C739 C738 1.304 . S
C739 C740 1.371 . S
C739 H748 0.930 . S
C740 C737 1.344 . S
C740 C739 1.371 . S
C740 H749 0.931 . S
C741 C737 1.328 . S
C741 C742 1.433 . S
C741 H750 0.931 . S
C742 C738 1.323 . S
C742 C741 1.433 . S
C742 H751 0.933 . S
C743 Dy713 2.738 . S
C743 O723 1.255 . S
C743 O724 1.249 . S
C743 C737 1.516 1_455 S
H744 C730 0.930 . S
H745 C731 0.931 . S
H746 C732 0.931 . S
H747 C733 0.933 . S
H748 C739 0.930 . S
H749 C740 0.931 . S
H750 C741 0.931 . S
H751 C742 0.933 . S
Dy752 O755 2.307 . S
Dy752 O757 2.395 . S
Dy752 O758 2.379 . S
Dy752 O760 2.339 . S
Dy752 O762 2.298 . S
Dy752 O766 2.275 . S
Dy752 C774 2.738 . S
Dy753 O756 2.298 . S
Dy753 O759 2.275 . S
Dy753 O761 2.307 . S
Dy753 O763 2.395 . S
Dy753 O764 2.379 . S
Dy753 O767 2.339 . S
Dy753 C783 2.738 . S
C754 O766 1.254 . S
C754 O767 1.257 . S
O755 Dy752 2.307 . S
O755 C765 1.266 . S
O756 Dy753 2.298 . S
O756 C765 1.236 . S
O757 Dy752 2.395 . S
O757 C774 1.255 . S
O758 Dy752 2.379 . S
O758 C774 1.249 . S
O759 Dy753 2.275 . S
O759 C775 1.254 . S
O760 Dy752 2.339 . S
O760 C775 1.257 . S
O761 Dy753 2.307 . S
O761 C776 1.266 . S
O762 Dy752 2.298 . S
O762 C776 1.236 . S
O763 Dy753 2.395 . S
O763 C783 1.255 . S
O764 Dy753 2.379 . S
O764 C783 1.249 . S
C765 O755 1.266 . S
C765 O756 1.236 . S
O766 Dy752 2.275 . S
O766 C754 1.254 . S
O767 Dy753 2.339 . S
O767 C754 1.257 . S
C768 C771 1.344 . S
C768 C772 1.328 . S
C768 C774 1.516 . S
C769 C770 1.304 . S
C769 C773 1.323 . S
C770 C769 1.304 . S
C770 C771 1.371 . S
C770 H784 0.930 . S
C771 C768 1.344 . S
C771 C770 1.371 . S
C771 H785 0.931 . S
C772 C768 1.328 . S
C772 C773 1.433 . S
C772 H786 0.931 . S
C773 C769 1.323 . S
C773 C772 1.433 . S
C773 H787 0.933 . S
C774 Dy752 2.738 . S
C774 O757 1.255 . S
C774 O758 1.249 . S
C774 C768 1.516 . S
C775 O759 1.254 . S
C775 O760 1.257 . S
C776 O761 1.266 . S
C776 O762 1.236 . S
C777 C780 1.344 . S
C777 C781 1.328 . S
C777 C783 1.516 . S
C778 C779 1.304 . S
C778 C782 1.323 . S
C779 C778 1.304 . S
C779 C780 1.371 . S
C779 H788 0.930 . S
C780 C777 1.344 . S
C780 C779 1.371 . S
C780 H789 0.931 . S
C781 C777 1.328 . S
C781 C782 1.433 . S
C781 H790 0.931 . S
C782 C778 1.323 . S
C782 C781 1.433 . S
C782 H791 0.933 . S
C783 Dy753 2.738 . S
C783 O763 1.255 . S
C783 O764 1.249 . S
C783 C777 1.516 . S
H784 C770 0.930 . S
H785 C771 0.931 . S
H786 C772 0.931 . S
H787 C773 0.933 . S
H788 C779 0.930 . S
H789 C780 0.931 . S
H790 C781 0.931 . S
H791 C782 0.933 . S
Dy792 O795 2.307 . S
Dy792 O797 2.395 . S
Dy792 O798 2.379 . S
Dy792 O800 2.339 . S
Dy792 O802 2.298 . S
Dy792 O806 2.275 . S
Dy792 C814 2.738 . S
Dy793 O796 2.298 . S
Dy793 O799 2.275 . S
Dy793 O801 2.307 . S
Dy793 O803 2.395 . S
Dy793 O804 2.379 . S
Dy793 O807 2.339 . S
Dy793 C823 2.738 . S
C794 O806 1.254 . S
C794 O807 1.257 . S
O795 Dy792 2.307 . S
O795 C805 1.266 . S
O796 Dy793 2.298 . S
O796 C805 1.236 . S
O797 Dy792 2.395 . S
O797 C814 1.255 . S
O798 Dy792 2.379 . S
O798 C814 1.249 . S
O799 Dy793 2.275 . S
O799 C815 1.254 . S
O800 Dy792 2.339 . S
O800 C815 1.257 . S
O801 Dy793 2.307 . S
O801 C816 1.266 . S
O802 Dy792 2.298 . S
O802 C816 1.236 . S
O803 Dy793 2.395 . S
O803 C823 1.255 . S
O804 Dy793 2.379 . S
O804 C823 1.249 . S
C805 O795 1.266 . S
C805 O796 1.236 . S
O806 Dy792 2.275 . S
O806 C794 1.254 . S
O807 Dy793 2.339 . S
O807 C794 1.257 . S
C808 C811 1.344 . S
C808 C812 1.328 . S
C808 C814 1.516 . S
C809 C810 1.304 . S
C809 C813 1.323 . S
C810 C809 1.304 . S
C810 C811 1.371 . S
C810 H824 0.930 . S
C811 C808 1.344 . S
C811 C810 1.371 . S
C811 H825 0.931 . S
C812 C808 1.328 . S
C812 C813 1.433 . S
C812 H826 0.931 . S
C813 C809 1.323 . S
C813 C812 1.433 . S
C813 H827 0.933 . S
C814 Dy792 2.738 . S
C814 O797 1.255 . S
C814 O798 1.249 . S
C814 C808 1.516 . S
C815 O799 1.254 . S
C815 O800 1.257 . S
C816 O801 1.266 . S
C816 O802 1.236 . S
C817 C820 1.344 . S
C817 C821 1.328 . S
C817 C823 1.516 . S
C818 C819 1.304 . S
C818 C822 1.323 . S
C819 C818 1.304 . S
C819 C820 1.371 . S
C819 H828 0.930 . S
C820 C817 1.344 . S
C820 C819 1.371 . S
C820 H829 0.931 . S
C821 C817 1.328 . S
C821 C822 1.433 . S
C821 H830 0.931 . S
C822 C818 1.323 . S
C822 C821 1.433 . S
C822 H831 0.933 . S
C823 Dy793 2.738 . S
C823 O803 1.255 . S
C823 O804 1.249 . S
C823 C817 1.516 . S
H824 C810 0.930 . S
H825 C811 0.931 . S
H826 C812 0.931 . S
H827 C813 0.933 . S
H828 C819 0.930 . S
H829 C820 0.931 . S
H830 C821 0.931 . S
H831 C822 0.933 . S
Dy832 O835 2.307 . S
Dy832 O837 2.395 . S
Dy832 O838 2.379 . S
Dy832 O840 2.339 . S
Dy832 O842 2.298 . S
Dy832 O846 2.275 . S
Dy832 C854 2.738 . S
Dy833 O836 2.298 . S
Dy833 O839 2.275 . S
Dy833 O841 2.307 . S
Dy833 O843 2.395 . S
Dy833 O844 2.379 . S
Dy833 O847 2.339 . S
Dy833 C863 2.738 . S
C834 O846 1.254 . S
C834 O847 1.257 . S
O835 Dy832 2.307 . S
O835 C845 1.266 . S
O836 Dy833 2.298 . S
O836 C845 1.236 . S
O837 Dy832 2.395 . S
O837 C854 1.255 . S
O838 Dy832 2.379 . S
O838 C854 1.249 . S
O839 Dy833 2.275 . S
O839 C855 1.254 . S
O840 Dy832 2.339 . S
O840 C855 1.257 . S
O841 Dy833 2.307 . S
O841 C856 1.266 . S
O842 Dy832 2.298 . S
O842 C856 1.236 . S
O843 Dy833 2.395 . S
O843 C863 1.255 . S
O844 Dy833 2.379 . S
O844 C863 1.249 . S
C845 O835 1.266 . S
C845 O836 1.236 . S
O846 Dy832 2.275 . S
O846 C834 1.254 . S
O847 Dy833 2.339 . S
O847 C834 1.257 . S
C848 C851 1.344 . S
C848 C852 1.328 . S
C848 C854 1.516 . S
C849 C850 1.304 . S
C849 C853 1.323 . S
C850 C849 1.304 . S
C850 C851 1.371 . S
C850 H864 0.930 . S
C851 C848 1.344 . S
C851 C850 1.371 . S
C851 H865 0.931 . S
C852 C848 1.328 . S
C852 C853 1.433 . S
C852 H866 0.931 . S
C853 C849 1.323 . S
C853 C852 1.433 . S
C853 H867 0.933 . S
C854 Dy832 2.738 . S
C854 O837 1.255 . S
C854 O838 1.249 . S
C854 C848 1.516 . S
C855 O839 1.254 . S
C855 O840 1.257 . S
C856 O841 1.266 . S
C856 O842 1.236 . S
C857 C860 1.344 . S
C857 C861 1.328 . S
C857 C863 1.516 . S
C858 C859 1.304 . S
C858 C862 1.323 . S
C859 C858 1.304 . S
C859 C860 1.371 . S
C859 H868 0.930 . S
C860 C857 1.344 . S
C860 C859 1.371 . S
C860 H869 0.931 . S
C861 C857 1.328 . S
C861 C862 1.433 . S
C861 H870 0.931 . S
C862 C858 1.323 . S
C862 C861 1.433 . S
C862 H871 0.933 . S
C863 Dy833 2.738 . S
C863 O843 1.255 . S
C863 O844 1.249 . S
C863 C857 1.516 . S
H864 C850 0.930 . S
H865 C851 0.931 . S
H866 C852 0.931 . S
H867 C853 0.933 . S
H868 C859 0.930 . S
H869 C860 0.931 . S
H870 C861 0.931 . S
H871 C862 0.933 . S
Dy872 O875 2.307 . S
Dy872 O877 2.395 . S
Dy872 O878 2.379 . S
Dy872 O880 2.339 . S
Dy872 O882 2.298 . S
Dy872 O886 2.275 . S
Dy872 C894 2.738 . S
Dy873 O876 2.298 . S
Dy873 O879 2.275 . S
Dy873 O881 2.307 . S
Dy873 O883 2.395 . S
Dy873 O884 2.379 . S
Dy873 O887 2.339 . S
Dy873 C903 2.738 . S
C874 O886 1.254 . S
C874 O887 1.257 . S
O875 Dy872 2.307 . S
O875 C885 1.266 . S
O876 Dy873 2.298 . S
O876 C885 1.236 . S
O877 Dy872 2.395 . S
O877 C894 1.255 . S
O878 Dy872 2.379 . S
O878 C894 1.249 . S
O879 Dy873 2.275 . S
O879 C895 1.254 . S
O880 Dy872 2.339 . S
O880 C895 1.257 . S
O881 Dy873 2.307 . S
O881 C896 1.266 . S
O882 Dy872 2.298 . S
O882 C896 1.236 . S
O883 Dy873 2.395 . S
O883 C903 1.255 . S
O884 Dy873 2.379 . S
O884 C903 1.249 . S
C885 O875 1.266 . S
C885 O876 1.236 . S
O886 Dy872 2.275 . S
O886 C874 1.254 . S
O887 Dy873 2.339 . S
O887 C874 1.257 . S
C888 C891 1.344 . S
C888 C892 1.328 . S
C888 C894 1.516 . S
C889 C890 1.304 . S
C889 C893 1.323 . S
C890 C889 1.304 . S
C890 C891 1.371 . S
C890 H904 0.930 . S
C891 C888 1.344 . S
C891 C890 1.371 . S
C891 H905 0.931 . S
C892 C888 1.328 . S
C892 C893 1.433 . S
C892 H906 0.931 . S
C893 C889 1.323 . S
C893 C892 1.433 . S
C893 H907 0.933 . S
C894 Dy872 2.738 . S
C894 O877 1.255 . S
C894 O878 1.249 . S
C894 C888 1.516 . S
C895 O879 1.254 . S
C895 O880 1.257 . S
C896 O881 1.266 . S
C896 O882 1.236 . S
C897 C900 1.344 . S
C897 C901 1.328 . S
C897 C903 1.516 . S
C898 C899 1.304 . S
C898 C902 1.323 . S
C899 C898 1.304 . S
C899 C900 1.371 . S
C899 H908 0.930 . S
C900 C897 1.344 . S
C900 C899 1.371 . S
C900 H909 0.931 . S
C901 C897 1.328 . S
C901 C902 1.433 . S
C901 H910 0.931 . S
C902 C898 1.323 . S
C902 C901 1.433 . S
C902 H911 0.933 . S
C903 Dy873 2.738 . S
C903 O883 1.255 . S
C903 O884 1.249 . S
C903 C897 1.516 . S
H904 C890 0.930 . S
H905 C891 0.931 . S
H906 C892 0.931 . S
H907 C893 0.933 . S
H908 C899 0.930 . S
H909 C900 0.931 . S
H910 C901 0.931 . S
H911 C902 0.933 . S
Dy912 O915 2.307 . S
Dy912 O917 2.395 1_455 S
Dy912 O918 2.379 1_455 S
Dy912 O920 2.339 . S
Dy912 O922 2.298 . S
Dy912 O926 2.275 . S
Dy912 C934 2.738 1_455 S
Dy913 O916 2.298 . S
Dy913 O919 2.275 . S
Dy913 O921 2.307 . S
Dy913 O923 2.395 . S
Dy913 O924 2.379 1_554 S
Dy913 O927 2.339 1_554 S
Dy913 C943 2.738 . S
C914 O926 1.254 1_556 S
C914 O927 1.257 . S
O915 Dy912 2.307 . S
O915 C925 1.266 . S
O916 Dy913 2.298 . S
O916 C925 1.236 . S
O917 Dy912 2.395 1_655 S
O917 C934 1.255 . S
O918 Dy912 2.379 1_655 S
O918 C934 1.249 . S
O919 Dy913 2.275 . S
O919 C935 1.254 . S
O920 Dy912 2.339 . S
O920 C935 1.257 . S
O921 Dy913 2.307 . S
O921 C936 1.266 . S
O922 Dy912 2.298 . S
O922 C936 1.236 . S
O923 Dy913 2.395 . S
O923 C943 1.255 . S
O924 Dy913 2.379 1_556 S
O924 C943 1.249 1_556 S
C925 O915 1.266 . S
C925 O916 1.236 . S
O926 Dy912 2.275 . S
O926 C914 1.254 1_554 S
O927 Dy913 2.339 1_556 S
O927 C914 1.257 . S
C928 C931 1.344 . S
C928 C932 1.328 . S
C928 C934 1.516 . S
C929 C930 1.304 . S
C929 C933 1.323 . S
C930 C929 1.304 . S
C930 C931 1.371 . S
C930 H944 0.930 . S
C931 C928 1.344 . S
C931 C930 1.371 . S
C931 H945 0.931 . S
C932 C928 1.328 . S
C932 C933 1.433 . S
C932 H946 0.931 . S
C933 C929 1.323 . S
C933 C932 1.433 . S
C933 H947 0.933 . S
C934 Dy912 2.738 1_655 S
C934 O917 1.255 . S
C934 O918 1.249 . S
C934 C928 1.516 . S
C935 O919 1.254 . S
C935 O920 1.257 . S
C936 O921 1.266 . S
C936 O922 1.236 . S
C937 C940 1.344 . S
C937 C941 1.328 1_554 S
C937 C943 1.516 . S
C938 C939 1.304 1_556 S
C938 C942 1.323 . S
C939 C938 1.304 1_554 S
C939 C940 1.371 . S
C939 H948 0.930 . S
C940 C937 1.344 . S
C940 C939 1.371 . S
C940 H949 0.931 . S
C941 C937 1.328 1_556 S
C941 C942 1.433 . S
C941 H950 0.931 . S
C942 C938 1.323 . S
C942 C941 1.433 . S
C942 H951 0.933 . S
C943 Dy913 2.738 . S
C943 O923 1.255 . S
C943 O924 1.249 1_554 S
C943 C937 1.516 . S
H944 C930 0.930 . S
H945 C931 0.931 . S
H946 C932 0.931 . S
H947 C933 0.933 . S
H948 C939 0.930 . S
H949 C940 0.931 . S
H950 C941 0.931 . S
H951 C942 0.933 . S
C952 C953 1.369 . S
C952 C954 1.419 . S
C952 H956 0.930 1_554 S
C953 C952 1.369 . S
C953 C962 1.429 . S
C954 C952 1.419 . S
C954 C955 1.363 . S
C954 H957 0.934 . S
C955 C954 1.363 . S
C955 C961 1.428 . S
H956 C952 0.930 1_556 S
H957 C954 0.934 . S
S958 N959 1.613 . S
S958 N960 1.610 1_655 S
N959 S958 1.613 . S
N959 C962 1.350 1_655 S
N960 S958 1.610 1_455 S
N960 C961 1.351 . S
C961 C955 1.428 . S
C961 N960 1.351 . S
C961 C962 1.434 . S
C962 C953 1.429 . S
C962 N959 1.350 1_455 S
C962 C961 1.434 . S
C963 C964 1.369 . S
C963 C965 1.419 . S
C963 H967 0.930 . S
C964 C963 1.369 . S
C964 C973 1.429 . S
C965 C963 1.419 . S
C965 C966 1.363 . S
C965 H968 0.929 . S
C966 C965 1.363 . S
C966 C972 1.428 . S
H967 C963 0.930 . S
H968 C965 0.929 . S
S969 N970 1.613 . S
S969 N971 1.610 . S
N970 S969 1.613 . S
N970 C973 1.350 . S
N971 S969 1.610 . S
N971 C972 1.351 . S
C972 C966 1.428 . S
C972 N971 1.351 . S
C972 C973 1.434 . S
C973 C964 1.429 . S
C973 N970 1.350 . S
C973 C972 1.434 . S
C974 C975 1.369 . S
C974 C976 1.419 . S
C974 H978 0.930 . S
C975 C974 1.369 . S
C975 C984 1.429 . S
C976 C974 1.419 . S
C976 C977 1.363 . S
C976 H979 0.929 . S
C977 C976 1.363 . S
C977 C983 1.428 . S
H978 C974 0.930 . S
H979 C976 0.929 . S
S980 N981 1.613 . S
S980 N982 1.610 . S
N981 S980 1.613 . S
N981 C984 1.350 . S
N982 S980 1.610 . S
N982 C983 1.351 . S
C983 C977 1.428 . S
C983 N982 1.351 . S
C983 C984 1.434 . S
C984 C975 1.429 . S
C984 N981 1.350 . S
C984 C983 1.434 . S
C985 C986 1.369 . S
C985 C987 1.419 . S
C985 H989 0.930 . S
C986 C985 1.369 . S
C986 C995 1.429 . S
C987 C985 1.419 . S
C987 C988 1.363 . S
C987 H990 0.929 . S
C988 C987 1.363 . S
C988 C994 1.428 . S
H989 C985 0.930 . S
H990 C987 0.929 . S
S991 N992 1.613 . S
S991 N993 1.610 . S
N992 S991 1.613 . S
N992 C995 1.350 . S
N993 S991 1.610 . S
N993 C994 1.351 . S
C994 C988 1.428 . S
C994 N993 1.351 . S
C994 C995 1.434 . S
C995 C986 1.429 . S
C995 N992 1.350 . S
C995 C994 1.434 . S
C996 C997 1.369 . S
C996 C998 1.419 . S
C996 H1000 0.930 . S
C997 C996 1.369 . S
C997 C1006 1.429 . S
C998 C996 1.419 . S
C998 C999 1.363 . S
C998 H1001 0.929 . S
C999 C998 1.363 . S
C999 C1005 1.428 . S
H1000 C996 0.930 . S
H1001 C998 0.929 . S
S1002 N1003 1.613 . S
S1002 N1004 1.610 . S
N1003 S1002 1.613 . S
N1003 C1006 1.350 . S
N1004 S1002 1.610 . S
N1004 C1005 1.351 . S
C1005 C999 1.428 . S
C1005 N1004 1.351 . S
C1005 C1006 1.434 . S
C1006 C997 1.429 . S
C1006 N1003 1.350 . S
C1006 C1005 1.434 . S
C1007 C1008 1.369 . S
C1007 C1009 1.419 . S
C1007 H1011 0.930 . S
C1008 C1007 1.369 . S
C1008 C1017 1.429 . S
C1009 C1007 1.419 . S
C1009 C1010 1.363 . S
C1009 H1012 0.929 . S
C1010 C1009 1.363 . S
C1010 C1016 1.428 . S
H1011 C1007 0.930 . S
H1012 C1009 0.929 . S
S1013 N1014 1.613 . S
S1013 N1015 1.610 . S
N1014 S1013 1.613 . S
N1014 C1017 1.350 . S
N1015 S1013 1.610 . S
N1015 C1016 1.351 . S
C1016 C1010 1.428 . S
C1016 N1015 1.351 . S
C1016 C1017 1.434 . S
C1017 C1008 1.429 . S
C1017 N1014 1.350 . S
C1017 C1016 1.434 . S
C1018 C1019 1.369 . S
C1018 C1020 1.419 . S
C1018 H1022 0.930 . S
C1019 C1018 1.369 . S
C1019 C1028 1.429 . S
C1020 C1018 1.419 . S
C1020 C1021 1.363 . S
C1020 H1023 0.929 . S
C1021 C1020 1.363 . S
C1021 C1027 1.428 . S
H1022 C1018 0.930 . S
H1023 C1020 0.929 . S
S1024 N1025 1.613 . S
S1024 N1026 1.610 . S
N1025 S1024 1.613 . S
N1025 C1028 1.350 . S
N1026 S1024 1.610 . S
N1026 C1027 1.351 . S
C1027 C1021 1.428 . S
C1027 N1026 1.351 . S
C1027 C1028 1.434 . S
C1028 C1019 1.429 . S
C1028 N1025 1.350 . S
C1028 C1027 1.434 . S
C1029 C1030 1.369 . S
C1029 C1031 1.419 . S
C1029 H1033 0.930 . S
C1030 C1029 1.369 . S
C1030 C1039 1.429 . S
C1031 C1029 1.419 . S
C1031 C1032 1.363 . S
C1031 H1034 0.929 . S
C1032 C1031 1.363 . S
C1032 C1038 1.428 . S
H1033 C1029 0.930 . S
H1034 C1031 0.929 . S
S1035 N1036 1.613 . S
S1035 N1037 1.610 . S
N1036 S1035 1.613 . S
N1036 C1039 1.350 . S
N1037 S1035 1.610 . S
N1037 C1038 1.351 . S
C1038 C1032 1.428 . S
C1038 N1037 1.351 . S
C1038 C1039 1.434 . S
C1039 C1030 1.429 . S
C1039 N1036 1.350 . S
C1039 C1038 1.434 . S
C1040 C1041 1.369 1_455 S
C1040 C1042 1.419 . S
C1040 H1044 0.930 . S
C1041 C1040 1.369 1_655 S
C1041 C1050 1.429 . S
C1042 C1040 1.419 . S
C1042 C1043 1.363 . S
C1042 H1045 0.929 . S
C1043 C1042 1.363 . S
C1043 C1049 1.428 . S
H1044 C1040 0.930 . S
H1045 C1042 0.929 . S
S1046 N1047 1.613 . S
S1046 N1048 1.610 . S
N1047 S1046 1.613 . S
N1047 C1050 1.350 . S
N1048 S1046 1.610 . S
N1048 C1049 1.351 1_655 S
C1049 C1043 1.428 . S
C1049 N1048 1.351 1_455 S
C1049 C1050 1.434 1_455 S
C1050 C1041 1.429 . S
C1050 N1047 1.350 . S
C1050 C1049 1.434 1_655 S
C1051 C1052 1.369 . S
C1051 C1053 1.419 . S
C1051 H1055 0.930 . S
C1052 C1051 1.369 . S
C1052 C1061 1.429 . S
C1053 C1051 1.419 . S
C1053 C1054 1.363 . S
C1053 H1056 0.929 . S
C1054 C1053 1.363 . S
C1054 C1060 1.428 . S
H1055 C1051 0.930 . S
H1056 C1053 0.929 . S
S1057 N1058 1.613 . S
S1057 N1059 1.610 . S
N1058 S1057 1.613 . S
N1058 C1061 1.350 . S
N1059 S1057 1.610 . S
N1059 C1060 1.351 . S
C1060 C1054 1.428 . S
C1060 N1059 1.351 . S
C1060 C1061 1.434 . S
C1061 C1052 1.429 . S
C1061 N1058 1.350 . S
C1061 C1060 1.434 . S
C1062 C1063 1.369 . S
C1062 C1064 1.419 . S
C1062 H1066 0.930 . S
C1063 C1062 1.369 . S
C1063 C1072 1.429 . S
C1064 C1062 1.419 . S
C1064 C1065 1.363 . S
C1064 H1067 0.929 . S
C1065 C1064 1.363 . S
C1065 C1071 1.428 . S
H1066 C1062 0.930 . S
H1067 C1064 0.929 . S
S1068 N1069 1.613 . S
S1068 N1070 1.610 . S
N1069 S1068 1.613 . S
N1069 C1072 1.350 . S
N1070 S1068 1.610 . S
N1070 C1071 1.351 . S
C1071 C1065 1.428 . S
C1071 N1070 1.351 . S
C1071 C1072 1.434 . S
C1072 C1063 1.429 . S
C1072 N1069 1.350 . S
C1072 C1071 1.434 . S
C1073 C1074 1.369 . S
C1073 C1075 1.419 . S
C1073 H1077 0.930 . S
C1074 C1073 1.369 . S
C1074 C1083 1.429 . S
C1075 C1073 1.419 . S
C1075 C1076 1.363 . S
C1075 H1078 0.929 . S
C1076 C1075 1.363 . S
C1076 C1082 1.428 . S
H1077 C1073 0.930 . S
H1078 C1075 0.929 . S
S1079 N1080 1.613 . S
S1079 N1081 1.610 . S
N1080 S1079 1.613 . S
N1080 C1083 1.350 . S
N1081 S1079 1.610 . S
N1081 C1082 1.351 . S
C1082 C1076 1.428 . S
C1082 N1081 1.351 . S
C1082 C1083 1.434 . S
C1083 C1074 1.429 . S
C1083 N1080 1.350 . S
C1083 C1082 1.434 . S
C1084 C1085 1.369 1_655 S
C1084 C1086 1.419 1_655 S
C1084 H1088 0.930 . S
C1085 C1084 1.369 1_455 S
C1085 C1094 1.429 . S
C1086 C1084 1.419 1_455 S
C1086 C1087 1.363 . S
C1086 H1089 0.929 . S
C1087 C1086 1.363 . S
C1087 C1093 1.428 . S
H1088 C1084 0.930 . S
H1089 C1086 0.929 . S
S1090 N1091 1.613 1_565 S
S1090 N1092 1.610 1_565 S
N1091 S1090 1.613 1_545 S
N1091 C1094 1.350 . S
N1092 S1090 1.610 1_545 S
N1092 C1093 1.351 . S
C1093 C1087 1.428 . S
C1093 N1092 1.351 . S
C1093 C1094 1.434 . S
C1094 C1085 1.429 . S
C1094 N1091 1.350 . S
C1094 C1093 1.434 . S
C1095 C1096 1.369 . S
C1095 C1097 1.419 . S
C1095 H1099 0.930 . S
C1096 C1095 1.369 . S
C1096 C1105 1.429 . S
C1097 C1095 1.419 . S
C1097 C1098 1.363 . S
C1097 H1100 0.929 . S
C1098 C1097 1.363 . S
C1098 C1104 1.428 . S
H1099 C1095 0.930 . S
H1100 C1097 0.929 . S
S1101 N1102 1.613 . S
S1101 N1103 1.610 . S
N1102 S1101 1.613 . S
N1102 C1105 1.350 . S
N1103 S1101 1.610 . S
N1103 C1104 1.351 . S
C1104 C1098 1.428 . S
C1104 N1103 1.351 . S
C1104 C1105 1.434 . S
C1105 C1096 1.429 . S
C1105 N1102 1.350 . S
C1105 C1104 1.434 . S
C1106 C1107 1.369 . S
C1106 C1108 1.419 . S
C1106 H1110 0.930 . S
C1107 C1106 1.369 . S
C1107 C1116 1.429 . S
C1108 C1106 1.419 . S
C1108 C1109 1.363 . S
C1108 H1111 0.929 . S
C1109 C1108 1.363 . S
C1109 C1115 1.428 . S
H1110 C1106 0.930 . S
H1111 C1108 0.929 . S
S1112 N1113 1.613 . S
S1112 N1114 1.610 . S
N1113 S1112 1.613 . S
N1113 C1116 1.350 . S
N1114 S1112 1.610 . S
N1114 C1115 1.351 . S
C1115 C1109 1.428 . S
C1115 N1114 1.351 . S
C1115 C1116 1.434 . S
C1116 C1107 1.429 . S
C1116 N1113 1.350 . S
C1116 C1115 1.434 . S
C1117 C1118 1.369 . S
C1117 C1119 1.419 . S
C1117 H1121 0.930 . S
C1118 C1117 1.369 . S
C1118 C1127 1.429 . S
C1119 C1117 1.419 . S
C1119 C1120 1.363 . S
C1119 H1122 0.929 . S
C1120 C1119 1.363 . S
C1120 C1126 1.428 . S
H1121 C1117 0.930 . S
H1122 C1119 0.929 . S
S1123 N1124 1.613 . S
S1123 N1125 1.610 . S
N1124 S1123 1.613 . S
N1124 C1127 1.350 . S
N1125 S1123 1.610 . S
N1125 C1126 1.351 . S
C1126 C1120 1.428 . S
C1126 N1125 1.351 . S
C1126 C1127 1.434 . S
C1127 C1118 1.429 . S
C1127 N1124 1.350 . S
C1127 C1126 1.434 . S
C1128 C1129 1.369 1_545 S
C1128 C1130 1.419 . S
C1128 H1132 0.930 . S
C1129 C1128 1.369 1_565 S
C1129 C1138 1.429 . S
C1130 C1128 1.419 . S
C1130 C1131 1.363 . S
C1130 H1133 0.929 . S
C1131 C1130 1.363 . S
C1131 C1137 1.428 1_545 S
H1132 C1128 0.930 . S
H1133 C1130 0.929 . S
S1134 N1135 1.613 1_554 S
S1134 N1136 1.610 . S
N1135 S1134 1.613 1_556 S
N1135 C1138 1.350 1_556 S
N1136 S1134 1.610 . S
N1136 C1137 1.351 . S
C1137 C1131 1.428 1_565 S
C1137 N1136 1.351 . S
C1137 C1138 1.434 . S
C1138 C1129 1.429 . S
C1138 N1135 1.350 1_554 S
C1138 C1137 1.434 . S
C1139 C1140 1.369 . S
C1139 C1141 1.419 . S
C1139 H1143 0.930 . S
C1140 C1139 1.369 . S
C1140 C1149 1.429 . S
C1141 C1139 1.419 . S
C1141 C1142 1.363 . S
C1141 H1144 0.929 . S
C1142 C1141 1.363 . S
C1142 C1148 1.428 . S
H1143 C1139 0.930 . S
H1144 C1141 0.929 . S
S1145 N1146 1.613 . S
S1145 N1147 1.610 . S
N1146 S1145 1.613 . S
N1146 C1149 1.350 . S
N1147 S1145 1.610 . S
N1147 C1148 1.351 . S
C1148 C1142 1.428 . S
C1148 N1147 1.351 . S
C1148 C1149 1.434 . S
C1149 C1140 1.429 . S
C1149 N1146 1.350 . S
C1149 C1148 1.434 . S
C1150 C1151 1.369 . S
C1150 C1152 1.419 . S
C1150 H1154 0.930 . S
C1151 C1150 1.369 . S
C1151 C1160 1.429 . S
C1152 C1150 1.419 . S
C1152 C1153 1.363 . S
C1152 H1155 0.929 . S
C1153 C1152 1.363 . S
C1153 C1159 1.428 . S
H1154 C1150 0.930 . S
H1155 C1152 0.929 . S
S1156 N1157 1.613 . S
S1156 N1158 1.610 . S
N1157 S1156 1.613 . S
N1157 C1160 1.350 . S
N1158 S1156 1.610 . S
N1158 C1159 1.351 . S
C1159 C1153 1.428 . S
C1159 N1158 1.351 . S
C1159 C1160 1.434 . S
C1160 C1151 1.429 . S
C1160 N1157 1.350 . S
C1160 C1159 1.434 . S
C1161 C1162 1.369 . S
C1161 C1163 1.419 . S
C1161 H1165 0.930 . S
C1162 C1161 1.369 . S
C1162 C1171 1.429 . S
C1163 C1161 1.419 . S
C1163 C1164 1.363 . S
C1163 H1166 0.929 . S
C1164 C1163 1.363 . S
C1164 C1170 1.428 . S
H1165 C1161 0.930 . S
H1166 C1163 0.929 . S
S1167 N1168 1.613 . S
S1167 N1169 1.610 . S
N1168 S1167 1.613 . S
N1168 C1171 1.350 . S
N1169 S1167 1.610 . S
N1169 C1170 1.351 . S
C1170 C1164 1.428 . S
C1170 N1169 1.351 . S
C1170 C1171 1.434 . S
C1171 C1162 1.429 . S
C1171 N1168 1.350 . S
C1171 C1170 1.434 . S
C1172 C1173 1.369 . S
C1172 C1174 1.419 . S
C1172 H1176 0.930 . S
C1173 C1172 1.369 . S
C1173 C1182 1.429 . S
C1174 C1172 1.419 . S
C1174 C1175 1.363 . S
C1174 H1177 0.929 . S
C1175 C1174 1.363 . S
C1175 C1181 1.428 . S
H1176 C1172 0.930 . S
H1177 C1174 0.929 . S
S1178 N1179 1.613 . S
S1178 N1180 1.610 . S
N1179 S1178 1.613 . S
N1179 C1182 1.350 . S
N1180 S1178 1.610 . S
N1180 C1181 1.351 . S
C1181 C1175 1.428 . S
C1181 N1180 1.351 . S
C1181 C1182 1.434 . S
C1182 C1173 1.429 . S
C1182 N1179 1.350 . S
C1182 C1181 1.434 . S
C1183 C1184 1.369 . S
C1183 C1185 1.419 . S
C1183 H1187 0.930 . S
C1184 C1183 1.369 . S
C1184 C1193 1.429 . S
C1185 C1183 1.419 . S
C1185 C1186 1.363 . S
C1185 H1188 0.929 . S
C1186 C1185 1.363 . S
C1186 C1192 1.428 . S
H1187 C1183 0.930 . S
H1188 C1185 0.929 . S
S1189 N1190 1.613 . S
S1189 N1191 1.610 . S
N1190 S1189 1.613 . S
N1190 C1193 1.350 . S
N1191 S1189 1.610 . S
N1191 C1192 1.351 . S
C1192 C1186 1.428 . S
C1192 N1191 1.351 . S
C1192 C1193 1.434 . S
C1193 C1184 1.429 . S
C1193 N1190 1.350 . S
C1193 C1192 1.434 . S
C1194 C1195 1.369 . S
C1194 C1196 1.419 . S
C1194 H1198 0.930 . S
C1195 C1194 1.369 . S
C1195 C1204 1.429 . S
C1196 C1194 1.419 . S
C1196 C1197 1.363 . S
C1196 H1199 0.929 . S
C1197 C1196 1.363 . S
C1197 C1203 1.428 . S
H1198 C1194 0.930 . S
H1199 C1196 0.929 . S
S1200 N1201 1.613 . S
S1200 N1202 1.610 . S
N1201 S1200 1.613 . S
N1201 C1204 1.350 . S
N1202 S1200 1.610 . S
N1202 C1203 1.351 . S
C1203 C1197 1.428 . S
C1203 N1202 1.351 . S
C1203 C1204 1.434 . S
C1204 C1195 1.429 . S
C1204 N1201 1.350 . S
C1204 C1203 1.434 . S
C1205 C1206 1.369 . S
C1205 C1207 1.419 . S
C1205 H1209 0.930 . S
C1206 C1205 1.369 . S
C1206 C1215 1.429 . S
C1207 C1205 1.419 . S
C1207 C1208 1.363 . S
C1207 H1210 0.929 . S
C1208 C1207 1.363 . S
C1208 C1214 1.428 . S
H1209 C1205 0.930 . S
H1210 C1207 0.929 . S
S1211 N1212 1.613 . S
S1211 N1213 1.610 . S
N1212 S1211 1.613 . S
N1212 C1215 1.350 . S
N1213 S1211 1.610 . S
N1213 C1214 1.351 . S
C1214 C1208 1.428 . S
C1214 N1213 1.351 . S
C1214 C1215 1.434 . S
C1215 C1206 1.429 . S
C1215 N1212 1.350 . S
C1215 C1214 1.434 . S
C1216 C1217 1.369 . S
C1216 C1218 1.419 . S
C1216 H1220 0.930 . S
C1217 C1216 1.369 . S
C1217 C1226 1.429 . S
C1218 C1216 1.419 . S
C1218 C1219 1.363 . S
C1218 H1221 0.929 . S
C1219 C1218 1.363 . S
C1219 C1225 1.428 . S
H1220 C1216 0.930 . S
H1221 C1218 0.929 . S
S1222 N1223 1.613 . S
S1222 N1224 1.610 . S
N1223 S1222 1.613 . S
N1223 C1226 1.350 . S
N1224 S1222 1.610 . S
N1224 C1225 1.351 . S
C1225 C1219 1.428 . S
C1225 N1224 1.351 . S
C1225 C1226 1.434 . S
C1226 C1217 1.429 . S
C1226 N1223 1.350 . S
C1226 C1225 1.434 . S
C1227 C1228 1.369 . S
C1227 C1229 1.419 . S
C1227 H1231 0.930 . S
C1228 C1227 1.369 . S
C1228 C1237 1.429 . S
C1229 C1227 1.419 . S
C1229 C1230 1.363 . S
C1229 H1232 0.929 . S
C1230 C1229 1.363 . S
C1230 C1236 1.428 . S
H1231 C1227 0.930 . S
H1232 C1229 0.929 . S
S1233 N1234 1.613 . S
S1233 N1235 1.610 . S
N1234 S1233 1.613 . S
N1234 C1237 1.350 . S
N1235 S1233 1.610 . S
N1235 C1236 1.351 . S
C1236 C1230 1.428 . S
C1236 N1235 1.351 . S
C1236 C1237 1.434 . S
C1237 C1228 1.429 . S
C1237 N1234 1.350 . S
C1237 C1236 1.434 . S
C1238 C1239 1.369 . S
C1238 C1240 1.419 . S
C1238 H1242 0.930 . S
C1239 C1238 1.369 . S
C1239 C1248 1.429 . S
C1240 C1238 1.419 . S
C1240 C1241 1.363 . S
C1240 H1243 0.929 . S
C1241 C1240 1.363 . S
C1241 C1247 1.428 . S
H1242 C1238 0.930 . S
H1243 C1240 0.929 . S
S1244 N1245 1.613 . S
S1244 N1246 1.610 . S
N1245 S1244 1.613 . S
N1245 C1248 1.350 . S
N1246 S1244 1.610 . S
N1246 C1247 1.351 . S
C1247 C1241 1.428 . S
C1247 N1246 1.351 . S
C1247 C1248 1.434 . S
C1248 C1239 1.429 . S
C1248 N1245 1.350 . S
C1248 C1247 1.434 . S
C1249 C1250 1.369 . S
C1249 C1251 1.419 . S
C1249 H1253 0.930 . S
C1250 C1249 1.369 . S
C1250 C1259 1.429 . S
C1251 C1249 1.419 . S
C1251 C1252 1.363 . S
C1251 H1254 0.929 . S
C1252 C1251 1.363 . S
C1252 C1258 1.428 . S
H1253 C1249 0.930 . S
H1254 C1251 0.929 . S
S1255 N1256 1.613 . S
S1255 N1257 1.610 . S
N1256 S1255 1.613 . S
N1256 C1259 1.350 . S
N1257 S1255 1.610 . S
N1257 C1258 1.351 . S
C1258 C1252 1.428 . S
C1258 N1257 1.351 . S
C1258 C1259 1.434 . S
C1259 C1250 1.429 . S
C1259 N1256 1.350 . S
C1259 C1258 1.434 . S
C1260 C1261 1.369 . S
C1260 C1262 1.419 1_455 S
C1260 H1264 0.930 . S
C1261 C1260 1.369 . S
C1261 C1270 1.429 . S
C1262 C1260 1.419 1_655 S
C1262 C1263 1.363 1_655 S
C1262 H1265 0.929 . S
C1263 C1262 1.363 1_455 S
C1263 C1269 1.428 . S
H1264 C1260 0.930 . S
H1265 C1262 0.929 . S
S1266 N1267 1.613 . S
S1266 N1268 1.610 . S
N1267 S1266 1.613 . S
N1267 C1270 1.350 . S
N1268 S1266 1.610 . S
N1268 C1269 1.351 . S
C1269 C1263 1.428 . S
C1269 N1268 1.351 . S
C1269 C1270 1.434 . S
C1270 C1261 1.429 . S
C1270 N1267 1.350 . S
C1270 C1269 1.434 . S
C1271 C1272 1.369 . S
C1271 C1273 1.419 . S
C1271 H1275 0.930 . S
C1272 C1271 1.369 . S
C1272 C1281 1.429 . S
C1273 C1271 1.419 . S
C1273 C1274 1.363 . S
C1273 H1276 0.929 . S
C1274 C1273 1.363 . S
C1274 C1280 1.428 . S
H1275 C1271 0.930 . S
H1276 C1273 0.929 . S
S1277 N1278 1.613 . S
S1277 N1279 1.610 . S
N1278 S1277 1.613 . S
N1278 C1281 1.350 . S
N1279 S1277 1.610 . S
N1279 C1280 1.351 . S
C1280 C1274 1.428 . S
C1280 N1279 1.351 . S
C1280 C1281 1.434 . S
C1281 C1272 1.429 . S
C1281 N1278 1.350 . S
C1281 C1280 1.434 . S
C1282 C1283 1.369 . S
C1282 C1284 1.419 . S
C1282 H1286 0.930 . S
C1283 C1282 1.369 . S
C1283 C1292 1.429 . S
C1284 C1282 1.419 . S
C1284 C1285 1.363 . S
C1284 H1287 0.929 . S
C1285 C1284 1.363 . S
C1285 C1291 1.428 . S
H1286 C1282 0.930 . S
H1287 C1284 0.929 . S
S1288 N1289 1.613 1_545 S
S1288 N1290 1.610 . S
N1289 S1288 1.613 1_565 S
N1289 C1292 1.350 . S
N1290 S1288 1.610 . S
N1290 C1291 1.351 1_545 S
C1291 C1285 1.428 . S
C1291 N1290 1.351 1_565 S
C1291 C1292 1.434 . S
C1292 C1283 1.429 . S
C1292 N1289 1.350 . S
C1292 C1291 1.434 . S
C1293 C1294 1.369 . S
C1293 C1295 1.419 . S
C1293 H1297 0.930 . S
C1294 C1293 1.369 . S
C1294 C1303 1.429 . S
C1295 C1293 1.419 . S
C1295 C1296 1.363 . S
C1295 H1298 0.929 . S
C1296 C1295 1.363 . S
C1296 C1302 1.428 . S
H1297 C1293 0.930 . S
H1298 C1295 0.929 . S
S1299 N1300 1.613 . S
S1299 N1301 1.610 . S
N1300 S1299 1.613 . S
N1300 C1303 1.350 . S
N1301 S1299 1.610 . S
N1301 C1302 1.351 . S
C1302 C1296 1.428 . S
C1302 N1301 1.351 . S
C1302 C1303 1.434 . S
C1303 C1294 1.429 . S
C1303 N1300 1.350 . S
C1303 C1302 1.434 . S
C1304 C1305 1.369 . S
C1304 C1306 1.419 . S
C1304 H1308 0.930 . S
C1305 C1304 1.369 . S
C1305 C1314 1.429 . S
C1306 C1304 1.419 . S
C1306 C1307 1.363 . S
C1306 H1309 0.929 . S
C1307 C1306 1.363 . S
C1307 C1313 1.428 . S
H1308 C1304 0.930 . S
H1309 C1306 0.929 . S
S1310 N1311 1.613 1_655 S
S1310 N1312 1.610 1_655 S
N1311 S1310 1.613 1_455 S
N1311 C1314 1.350 . S
N1312 S1310 1.610 1_455 S
N1312 C1313 1.351 . S
C1313 C1307 1.428 . S
C1313 N1312 1.351 . S
C1313 C1314 1.434 . S
C1314 C1305 1.429 . S
C1314 N1311 1.350 . S
C1314 C1313 1.434 . S
C1315 C1316 1.369 . S
C1315 C1317 1.419 . S
C1315 H1319 0.930 . S
C1316 C1315 1.369 . S
C1316 C1325 1.429 . S
C1317 C1315 1.419 . S
C1317 C1318 1.363 . S
C1317 H1320 0.929 . S
C1318 C1317 1.363 . S
C1318 C1324 1.428 . S
H1319 C1315 0.930 . S
H1320 C1317 0.929 . S
S1321 N1322 1.613 . S
S1321 N1323 1.610 . S
N1322 S1321 1.613 . S
N1322 C1325 1.350 . S
N1323 S1321 1.610 . S
N1323 C1324 1.351 . S
C1324 C1318 1.428 . S
C1324 N1323 1.351 . S
C1324 C1325 1.434 . S
C1325 C1316 1.429 . S
C1325 N1322 1.350 . S
C1325 C1324 1.434 . S
C1326 C1327 1.369 . S
C1326 C1328 1.419 . S
C1326 H1330 0.930 1_545 S
C1327 C1326 1.369 . S
C1327 C1336 1.429 . S
C1328 C1326 1.419 . S
C1328 C1329 1.363 . S
C1328 H1331 0.929 . S
C1329 C1328 1.363 . S
C1329 C1335 1.428 . S
H1330 C1326 0.930 1_565 S
H1331 C1328 0.929 . S
S1332 N1333 1.613 . S
S1332 N1334 1.610 . S
N1333 S1332 1.613 . S
N1333 C1336 1.350 . S
N1334 S1332 1.610 . S
N1334 C1335 1.351 . S
C1335 C1329 1.428 . S
C1335 N1334 1.351 . S
C1335 C1336 1.434 . S
C1336 C1327 1.429 . S
C1336 N1333 1.350 . S
C1336 C1335 1.434 . S
C1337 C1338 1.369 . S
C1337 C1339 1.419 . S
C1337 H1341 0.930 . S
C1338 C1337 1.369 . S
C1338 C1347 1.429 . S
C1339 C1337 1.419 . S
C1339 C1340 1.363 . S
C1339 H1342 0.929 . S
C1340 C1339 1.363 . S
C1340 C1346 1.428 . S
H1341 C1337 0.930 . S
H1342 C1339 0.929 . S
S1343 N1344 1.613 . S
S1343 N1345 1.610 . S
N1344 S1343 1.613 . S
N1344 C1347 1.350 . S
N1345 S1343 1.610 . S
N1345 C1346 1.351 . S
C1346 C1340 1.428 . S
C1346 N1345 1.351 . S
C1346 C1347 1.434 . S
C1347 C1338 1.429 . S
C1347 N1344 1.350 . S
C1347 C1346 1.434 . S
C1348 C1349 1.369 . S
C1348 C1350 1.419 . S
C1348 H1352 0.930 . S
C1349 C1348 1.369 . S
C1349 C1358 1.429 . S
C1350 C1348 1.419 . S
C1350 C1351 1.363 . S
C1350 H1353 0.929 . S
C1351 C1350 1.363 . S
C1351 C1357 1.428 . S
H1352 C1348 0.930 . S
H1353 C1350 0.929 . S
S1354 N1355 1.613 1_565 S
S1354 N1356 1.610 1_565 S
N1355 S1354 1.613 1_545 S
N1355 C1358 1.350 . S
N1356 S1354 1.610 1_545 S
N1356 C1357 1.351 . S
C1357 C1351 1.428 . S
C1357 N1356 1.351 . S
C1357 C1358 1.434 . S
C1358 C1349 1.429 . S
C1358 N1355 1.350 . S
C1358 C1357 1.434 . S
C1359 C1360 1.369 . S
C1359 C1361 1.419 . S
C1359 H1363 0.930 . S
C1360 C1359 1.369 . S
C1360 C1369 1.429 . S
C1361 C1359 1.419 . S
C1361 C1362 1.363 . S
C1361 H1364 0.929 . S
C1362 C1361 1.363 . S
C1362 C1368 1.428 . S
H1363 C1359 0.930 . S
H1364 C1361 0.929 . S
S1365 N1366 1.613 . S
S1365 N1367 1.610 . S
N1366 S1365 1.613 . S
N1366 C1369 1.350 . S
N1367 S1365 1.610 . S
N1367 C1368 1.351 . S
C1368 C1362 1.428 . S
C1368 N1367 1.351 . S
C1368 C1369 1.434 . S
C1369 C1360 1.429 . S
C1369 N1366 1.350 . S
C1369 C1368 1.434 . S
C1370 C1371 1.399 . S
C1370 C1372 1.419 . S
C1370 H1374 0.930 . S
C1371 C1370 1.399 . S
C1371 C1380 1.412 1_565 S
C1372 C1370 1.419 . S
C1372 C1373 1.363 . S
C1372 H1375 0.929 . S
C1373 C1372 1.363 . S
C1373 C1379 1.428 1_565 S
H1374 C1370 0.930 . S
H1375 C1372 0.929 . S
S1376 N1377 1.613 . S
S1376 N1378 1.610 . S
N1377 S1376 1.613 . S
N1377 C1380 1.350 . S
N1378 S1376 1.610 . S
N1378 C1379 1.351 . S
C1379 C1373 1.428 1_545 S
C1379 N1378 1.351 . S
C1379 C1380 1.434 . S
C1380 C1371 1.412 1_545 S
C1380 N1377 1.350 . S
C1380 C1379 1.434 . S
C1381 C1382 1.369 . S
C1381 C1383 1.419 . S
C1381 H1385 0.930 . S
C1382 C1381 1.369 . S
C1382 C1391 1.429 . S
C1383 C1381 1.419 . S
C1383 C1384 1.363 . S
C1383 H1386 0.929 . S
C1384 C1383 1.363 . S
C1384 C1390 1.428 . S
H1385 C1381 0.930 . S
H1386 C1383 0.929 . S
S1387 N1388 1.613 . S
S1387 N1389 1.610 . S
N1388 S1387 1.613 . S
N1388 C1391 1.350 . S
N1389 S1387 1.610 . S
N1389 C1390 1.351 . S
C1390 C1384 1.428 . S
C1390 N1389 1.351 . S
C1390 C1391 1.434 . S
C1391 C1382 1.429 . S
C1391 N1388 1.350 . S
C1391 C1390 1.434 . S
C1392 C1393 1.369 . S
C1392 C1394 1.419 . S
C1392 H1396 0.930 . S
C1393 C1392 1.369 . S
C1393 C1402 1.429 . S
C1394 C1392 1.419 . S
C1394 C1395 1.363 . S
C1394 H1397 0.929 . S
C1395 C1394 1.363 . S
C1395 C1401 1.428 . S
H1396 C1392 0.930 . S
H1397 C1394 0.929 . S
S1398 N1399 1.613 . S
S1398 N1400 1.610 . S
N1399 S1398 1.613 . S
N1399 C1402 1.350 . S
N1400 S1398 1.610 . S
N1400 C1401 1.351 . S
C1401 C1395 1.428 . S
C1401 N1400 1.351 . S
C1401 C1402 1.434 . S
C1402 C1393 1.429 . S
C1402 N1399 1.350 . S
C1402 C1401 1.434 . S
C1403 C1404 1.369 . S
C1403 C1405 1.419 . S
C1403 H1407 0.930 . S
C1404 C1403 1.369 . S
C1404 C1413 1.429 . S
C1405 C1403 1.419 . S
C1405 C1406 1.363 . S
C1405 H1408 0.929 . S
C1406 C1405 1.363 . S
C1406 C1412 1.428 . S
H1407 C1403 0.930 . S
H1408 C1405 0.929 . S
S1409 N1410 1.613 . S
S1409 N1411 1.610 . S
N1410 S1409 1.613 . S
N1410 C1413 1.350 . S
N1411 S1409 1.610 . S
N1411 C1412 1.351 . S
C1412 C1406 1.428 . S
C1412 N1411 1.351 . S
C1412 C1413 1.434 . S
C1413 C1404 1.429 . S
C1413 N1410 1.350 . S
C1413 C1412 1.434 . S
C1414 C1415 1.369 . S
C1414 C1416 1.419 . S
C1414 H1418 0.930 . S
C1415 C1414 1.369 . S
C1415 C1424 1.429 . S
C1416 C1414 1.419 . S
C1416 C1417 1.363 . S
C1416 H1419 0.929 . S
C1417 C1416 1.363 . S
C1417 C1423 1.428 . S
H1418 C1414 0.930 . S
H1419 C1416 0.929 . S
S1420 N1421 1.613 . S
S1420 N1422 1.610 . S
N1421 S1420 1.613 . S
N1421 C1424 1.350 . S
N1422 S1420 1.610 . S
N1422 C1423 1.351 . S
C1423 C1417 1.428 . S
C1423 N1422 1.351 . S
C1423 C1424 1.434 . S
C1424 C1415 1.429 . S
C1424 N1421 1.350 . S
C1424 C1423 1.434 . S
C1425 C1426 1.369 . S
C1425 C1427 1.419 . S
C1425 H1429 0.930 . S
C1426 C1425 1.369 . S
C1426 C1435 1.429 . S
C1427 C1425 1.419 . S
C1427 C1428 1.363 . S
C1427 H1430 0.929 . S
C1428 C1427 1.363 . S
C1428 C1434 1.428 . S
H1429 C1425 0.930 . S
H1430 C1427 0.929 . S
S1431 N1432 1.613 . S
S1431 N1433 1.610 . S
N1432 S1431 1.613 . S
N1432 C1435 1.350 . S
N1433 S1431 1.610 . S
N1433 C1434 1.351 . S
C1434 C1428 1.428 . S
C1434 N1433 1.351 . S
C1434 C1435 1.434 . S
C1435 C1426 1.429 . S
C1435 N1432 1.350 . S
C1435 C1434 1.434 . S
C1436 C1437 1.369 . S
C1436 C1438 1.419 . S
C1436 H1440 0.930 . S
C1437 C1436 1.369 . S
C1437 C1446 1.429 . S
C1438 C1436 1.419 . S
C1438 C1439 1.363 . S
C1438 H1441 0.929 1_545 S
C1439 C1438 1.363 . S
C1439 C1445 1.428 . S
H1440 C1436 0.930 . S
H1441 C1438 0.929 1_565 S
S1442 N1443 1.613 . S
S1442 N1444 1.610 . S
N1443 S1442 1.613 . S
N1443 C1446 1.350 . S
N1444 S1442 1.610 . S
N1444 C1445 1.351 . S
C1445 C1439 1.428 . S
C1445 N1444 1.351 . S
C1445 C1446 1.434 . S
C1446 C1437 1.429 . S
C1446 N1443 1.350 . S
C1446 C1445 1.434 . S
C1447 C1448 1.369 . S
C1447 C1449 1.419 . S
C1447 H1451 0.930 . S
C1448 C1447 1.369 . S
C1448 C1457 1.429 . S
C1449 C1447 1.419 . S
C1449 C1450 1.363 . S
C1449 H1452 0.929 1_565 S
C1450 C1449 1.363 . S
C1450 C1456 1.428 . S
H1451 C1447 0.930 . S
H1452 C1449 0.929 1_545 S
S1453 N1454 1.613 . S
S1453 N1455 1.610 . S
N1454 S1453 1.613 . S
N1454 C1457 1.350 . S
N1455 S1453 1.610 . S
N1455 C1456 1.351 . S
C1456 C1450 1.428 . S
C1456 N1455 1.351 . S
C1456 C1457 1.434 . S
C1457 C1448 1.429 . S
C1457 N1454 1.350 . S
C1457 C1456 1.434 . S
C1458 C1459 1.369 . S
C1458 C1460 1.419 . S
C1458 H1462 0.930 . S
C1459 C1458 1.369 . S
C1459 C1468 1.429 . S
C1460 C1458 1.419 . S
C1460 C1461 1.363 . S
C1460 H1463 0.929 . S
C1461 C1460 1.363 . S
C1461 C1467 1.428 . S
H1462 C1458 0.930 . S
H1463 C1460 0.929 . S
S1464 N1465 1.613 . S
S1464 N1466 1.610 . S
N1465 S1464 1.613 . S
N1465 C1468 1.350 . S
N1466 S1464 1.610 . S
N1466 C1467 1.351 . S
C1467 C1461 1.428 . S
C1467 N1466 1.351 . S
C1467 C1468 1.434 . S
C1468 C1459 1.429 . S
C1468 N1465 1.350 . S
C1468 C1467 1.434 . S
C1469 C1470 1.369 . S
C1469 C1471 1.419 . S
C1469 H1473 0.930 . S
C1470 C1469 1.369 . S
C1470 C1479 1.429 . S
C1471 C1469 1.419 . S
C1471 C1472 1.363 . S
C1471 H1474 0.929 . S
C1472 C1471 1.363 . S
C1472 C1478 1.428 . S
H1473 C1469 0.930 . S
H1474 C1471 0.929 . S
S1475 N1476 1.613 . S
S1475 N1477 1.610 . S
N1476 S1475 1.613 . S
N1476 C1479 1.350 . S
N1477 S1475 1.610 . S
N1477 C1478 1.351 . S
C1478 C1472 1.428 . S
C1478 N1477 1.351 . S
C1478 C1479 1.434 . S
C1479 C1470 1.429 . S
C1479 N1476 1.350 . S
C1479 C1478 1.434 . S
C1480 C1481 1.369 . S
C1480 C1482 1.419 . S
C1480 H1484 0.930 . S
C1481 C1480 1.369 . S
C1481 C1490 1.429 . S
C1482 C1480 1.419 . S
C1482 C1483 1.363 . S
C1482 H1485 0.929 . S
C1483 C1482 1.363 . S
C1483 C1489 1.428 . S
H1484 C1480 0.930 . S
H1485 C1482 0.929 . S
S1486 N1487 1.613 . S
S1486 N1488 1.610 . S
N1487 S1486 1.613 . S
N1487 C1490 1.350 . S
N1488 S1486 1.610 . S
N1488 C1489 1.351 . S
C1489 C1483 1.428 . S
C1489 N1488 1.351 . S
C1489 C1490 1.434 . S
C1490 C1481 1.429 . S
C1490 N1487 1.350 . S
C1490 C1489 1.434 . S
C1491 C1492 1.369 . S
C1491 C1493 1.419 . S
C1491 H1495 0.930 . S
C1492 C1491 1.369 . S
C1492 C1501 1.429 . S
C1493 C1491 1.419 . S
C1493 C1494 1.363 . S
C1493 H1496 0.929 . S
C1494 C1493 1.363 . S
C1494 C1500 1.428 . S
H1495 C1491 0.930 . S
H1496 C1493 0.929 . S
S1497 N1498 1.613 . S
S1497 N1499 1.610 . S
N1498 S1497 1.613 . S
N1498 C1501 1.350 . S
N1499 S1497 1.610 . S
N1499 C1500 1.351 . S
C1500 C1494 1.428 . S
C1500 N1499 1.351 . S
C1500 C1501 1.434 . S
C1501 C1492 1.429 . S
C1501 N1498 1.350 . S
C1501 C1500 1.434 . S
C1502 C1503 1.369 . S
C1502 C1504 1.419 . S
C1502 H1506 0.930 1_455 S
C1503 C1502 1.369 . S
C1503 C1512 1.429 . S
C1504 C1502 1.419 . S
C1504 C1505 1.363 . S
C1504 H1507 0.929 1_455 S
C1505 C1504 1.363 . S
C1505 C1511 1.428 . S
H1506 C1502 0.930 1_655 S
H1507 C1504 0.929 1_655 S
S1508 N1509 1.608 1_556 S
S1508 N1510 1.610 1_556 S
N1509 S1508 1.608 1_554 S
N1509 C1512 1.355 . S
N1510 S1508 1.610 1_554 S
N1510 C1511 1.351 . S
C1511 C1505 1.428 . S
C1511 N1510 1.351 . S
C1511 C1512 1.434 . S
C1512 C1503 1.429 . S
C1512 N1509 1.355 . S
C1512 C1511 1.434 . S
C1513 C1514 1.391 . S
C1513 C1515 1.419 . S
C1513 H1517 0.930 . S
C1514 C1513 1.391 . S
C1514 C1523 1.427 . S
C1515 C1513 1.419 . S
C1515 C1516 1.363 . S
C1515 H1518 0.929 . S
C1516 C1515 1.363 . S
C1516 C1522 1.428 . S
H1517 C1513 0.930 . S
H1518 C1515 0.929 . S
S1519 N1520 1.613 1_655 S
S1519 N1521 1.610 . S
N1520 S1519 1.613 1_455 S
N1520 C1523 1.350 1_455 S
N1521 S1519 1.610 . S
N1521 C1522 1.351 . S
C1522 C1516 1.428 . S
C1522 N1521 1.351 . S
C1522 C1523 1.434 . S
C1523 C1514 1.427 . S
C1523 N1520 1.350 1_655 S
C1523 C1522 1.434 . S
C1524 C1525 1.369 . S
C1524 C1526 1.419 . S
C1524 H1528 0.930 . S
C1525 C1524 1.369 . S
C1525 C1534 1.429 . S
C1526 C1524 1.419 . S
C1526 C1527 1.363 . S
C1526 H1529 0.929 . S
C1527 C1526 1.363 . S
C1527 C1533 1.428 . S
H1528 C1524 0.930 . S
H1529 C1526 0.929 . S
S1530 N1531 1.613 . S
S1530 N1532 1.610 . S
N1531 S1530 1.613 . S
N1531 C1534 1.350 . S
N1532 S1530 1.610 . S
N1532 C1533 1.351 . S
C1533 C1527 1.428 . S
C1533 N1532 1.351 . S
C1533 C1534 1.434 . S
C1534 C1525 1.429 . S
C1534 N1531 1.350 . S
C1534 C1533 1.434 . S
C1535 C1536 1.369 . S
C1535 C1537 1.419 . S
C1535 H1539 0.930 . S
C1536 C1535 1.369 . S
C1536 C1545 1.429 . S
C1537 C1535 1.419 . S
C1537 C1538 1.363 . S
C1537 H1540 0.929 . S
C1538 C1537 1.363 . S
C1538 C1544 1.428 . S
H1539 C1535 0.930 . S
H1540 C1537 0.929 . S
S1541 N1542 1.613 . S
S1541 N1543 1.610 . S
N1542 S1541 1.613 . S
N1542 C1545 1.350 . S
N1543 S1541 1.610 . S
N1543 C1544 1.351 . S
C1544 C1538 1.428 . S
C1544 N1543 1.351 . S
C1544 C1545 1.434 . S
C1545 C1536 1.429 . S
C1545 N1542 1.350 . S
C1545 C1544 1.434 . S
C1546 C1547 1.369 . S
C1546 C1548 1.419 . S
C1546 H1550 0.930 . S
C1547 C1546 1.369 . S
C1547 C1556 1.429 . S
C1548 C1546 1.419 . S
C1548 C1549 1.363 . S
C1548 H1551 0.929 . S
C1549 C1548 1.363 . S
C1549 C1555 1.428 . S
H1550 C1546 0.930 . S
H1551 C1548 0.929 . S
S1552 N1553 1.613 . S
S1552 N1554 1.610 . S
N1553 S1552 1.613 . S
N1553 C1556 1.350 . S
N1554 S1552 1.610 . S
N1554 C1555 1.351 . S
C1555 C1549 1.428 . S
C1555 N1554 1.351 . S
C1555 C1556 1.434 . S
C1556 C1547 1.429 . S
C1556 N1553 1.350 . S
C1556 C1555 1.434 . S
C1557 C1558 1.369 . S
C1557 C1559 1.419 . S
C1557 H1561 0.930 . S
C1558 C1557 1.369 . S
C1558 C1567 1.429 . S
C1559 C1557 1.419 . S
C1559 C1560 1.363 . S
C1559 H1562 0.929 . S
C1560 C1559 1.363 . S
C1560 C1566 1.428 . S
H1561 C1557 0.930 . S
H1562 C1559 0.929 . S
S1563 N1564 1.613 . S
S1563 N1565 1.610 . S
N1564 S1563 1.613 . S
N1564 C1567 1.350 . S
N1565 S1563 1.610 . S
N1565 C1566 1.351 . S
C1566 C1560 1.428 . S
C1566 N1565 1.351 . S
C1566 C1567 1.434 . S
C1567 C1558 1.429 . S
C1567 N1564 1.350 . S
C1567 C1566 1.434 . S
C1568 C1569 1.369 . S
C1568 C1570 1.419 . S
C1568 H1572 0.930 . S
C1569 C1568 1.369 . S
C1569 C1578 1.429 . S
C1570 C1568 1.419 . S
C1570 C1571 1.363 . S
C1570 H1573 0.929 . S
C1571 C1570 1.363 . S
C1571 C1577 1.428 . S
H1572 C1568 0.930 . S
H1573 C1570 0.929 . S
S1574 N1575 1.613 . S
S1574 N1576 1.610 . S
N1575 S1574 1.613 . S
N1575 C1578 1.350 . S
N1576 S1574 1.610 . S
N1576 C1577 1.351 . S
C1577 C1571 1.428 . S
C1577 N1576 1.351 . S
C1577 C1578 1.434 . S
C1578 C1569 1.429 . S
C1578 N1575 1.350 . S
C1578 C1577 1.434 . S
C1579 C1580 1.369 . S
C1579 C1581 1.419 . S
C1579 H1583 0.930 . S
C1580 C1579 1.369 . S
C1580 C1589 1.429 . S
C1581 C1579 1.419 . S
C1581 C1582 1.363 1_554 S
C1581 H1584 0.929 . S
C1582 C1581 1.363 1_556 S
C1582 C1588 1.428 . S
H1583 C1579 0.930 . S
H1584 C1581 0.929 . S
S1585 N1586 1.613 1_556 S
S1585 N1587 1.610 . S
N1586 S1585 1.613 1_554 S
N1586 C1589 1.350 . S
N1587 S1585 1.610 . S
N1587 C1588 1.351 . S
C1588 C1582 1.428 . S
C1588 N1587 1.351 . S
C1588 C1589 1.434 1_556 S
C1589 C1580 1.429 . S
C1589 N1586 1.350 . S
C1589 C1588 1.434 1_554 S
C1590 C1591 1.369 . S
C1590 C1592 1.419 . S
C1590 H1594 0.930 . S
C1591 C1590 1.369 . S
C1591 C1600 1.429 . S
C1592 C1590 1.419 . S
C1592 C1593 1.363 . S
C1592 H1595 0.929 . S
C1593 C1592 1.363 . S
C1593 C1599 1.428 . S
H1594 C1590 0.930 . S
H1595 C1592 0.929 . S
S1596 N1597 1.613 . S
S1596 N1598 1.610 . S
N1597 S1596 1.613 . S
N1597 C1600 1.350 . S
N1598 S1596 1.610 . S
N1598 C1599 1.351 . S
C1599 C1593 1.428 . S
C1599 N1598 1.351 . S
C1599 C1600 1.434 . S
C1600 C1591 1.429 . S
C1600 N1597 1.350 . S
C1600 C1599 1.434 . S
C1601 C1602 1.369 . S
C1601 C1603 1.419 . S
C1601 H1605 0.930 . S
C1602 C1601 1.369 . S
C1602 C1611 1.429 . S
C1603 C1601 1.419 . S
C1603 C1604 1.363 . S
C1603 H1606 0.929 . S
C1604 C1603 1.363 . S
C1604 C1610 1.428 . S
H1605 C1601 0.930 . S
H1606 C1603 0.929 . S
S1607 N1608 1.613 . S
S1607 N1609 1.610 . S
N1608 S1607 1.613 . S
N1608 C1611 1.350 . S
N1609 S1607 1.610 . S
N1609 C1610 1.351 . S
C1610 C1604 1.428 . S
C1610 N1609 1.351 . S
C1610 C1611 1.434 . S
C1611 C1602 1.429 . S
C1611 N1608 1.350 . S
C1611 C1610 1.434 . S
C1612 C1613 1.369 . S
C1612 C1614 1.419 . S
C1612 H1616 0.930 . S
C1613 C1612 1.369 . S
C1613 C1622 1.429 . S
C1614 C1612 1.419 . S
C1614 C1615 1.363 . S
C1614 H1617 0.929 . S
C1615 C1614 1.363 . S
C1615 C1621 1.428 . S
H1616 C1612 0.930 . S
H1617 C1614 0.929 . S
S1618 N1619 1.613 . S
S1618 N1620 1.610 . S
N1619 S1618 1.613 . S
N1619 C1622 1.350 . S
N1620 S1618 1.610 . S
N1620 C1621 1.351 . S
C1621 C1615 1.428 . S
C1621 N1620 1.351 . S
C1621 C1622 1.434 . S
C1622 C1613 1.429 . S
C1622 N1619 1.350 . S
C1622 C1621 1.434 . S
C1623 C1624 1.369 . S
C1623 C1625 1.419 . S
C1623 H1627 0.930 . S
C1624 C1623 1.369 . S
C1624 C1633 1.429 . S
C1625 C1623 1.419 . S
C1625 C1626 1.363 . S
C1625 H1628 0.929 . S
C1626 C1625 1.363 . S
C1626 C1632 1.428 . S
H1627 C1623 0.930 . S
H1628 C1625 0.929 . S
S1629 N1630 1.613 . S
S1629 N1631 1.610 . S
N1630 S1629 1.613 . S
N1630 C1633 1.350 . S
N1631 S1629 1.610 . S
N1631 C1632 1.351 . S
C1632 C1626 1.428 . S
C1632 N1631 1.351 . S
C1632 C1633 1.434 . S
C1633 C1624 1.429 . S
C1633 N1630 1.350 . S
C1633 C1632 1.434 . S
C1634 C1635 1.369 . S
C1634 C1636 1.419 . S
C1634 H1638 0.930 . S
C1635 C1634 1.369 . S
C1635 C1644 1.429 . S
C1636 C1634 1.419 . S
C1636 C1637 1.363 . S
C1636 H1639 0.929 . S
C1637 C1636 1.363 . S
C1637 C1643 1.428 . S
H1638 C1634 0.930 . S
H1639 C1636 0.929 . S
S1640 N1641 1.613 . S
S1640 N1642 1.610 . S
N1641 S1640 1.613 . S
N1641 C1644 1.350 . S
N1642 S1640 1.610 . S
N1642 C1643 1.351 . S
C1643 C1637 1.428 . S
C1643 N1642 1.351 . S
C1643 C1644 1.434 . S
C1644 C1635 1.429 . S
C1644 N1641 1.350 . S
C1644 C1643 1.434 . S
C1645 C1646 1.369 . S
C1645 C1647 1.419 . S
C1645 H1649 0.930 . S
C1646 C1645 1.369 . S
C1646 C1655 1.429 . S
C1647 C1645 1.419 . S
C1647 C1648 1.363 . S
C1647 H1650 0.929 . S
C1648 C1647 1.363 . S
C1648 C1654 1.428 . S
H1649 C1645 0.930 . S
H1650 C1647 0.929 . S
S1651 N1652 1.613 . S
S1651 N1653 1.610 . S
N1652 S1651 1.613 . S
N1652 C1655 1.350 . S
N1653 S1651 1.610 . S
N1653 C1654 1.351 . S
C1654 C1648 1.428 . S
C1654 N1653 1.351 . S
C1654 C1655 1.434 . S
C1655 C1646 1.429 . S
C1655 N1652 1.350 . S
C1655 C1654 1.434 . S
C1656 C1657 1.369 . S
C1656 C1658 1.419 . S
C1656 H1660 0.930 . S
C1657 C1656 1.369 . S
C1657 C1666 1.429 . S
C1658 C1656 1.419 . S
C1658 C1659 1.363 . S
C1658 H1661 0.929 . S
C1659 C1658 1.363 . S
C1659 C1665 1.428 . S
H1660 C1656 0.930 . S
H1661 C1658 0.929 . S
S1662 N1663 1.613 . S
S1662 N1664 1.610 . S
N1663 S1662 1.613 . S
N1663 C1666 1.350 . S
N1664 S1662 1.610 . S
N1664 C1665 1.351 . S
C1665 C1659 1.428 . S
C1665 N1664 1.351 . S
C1665 C1666 1.434 . S
C1666 C1657 1.429 . S
C1666 N1663 1.350 . S
C1666 C1665 1.434 . S
C1667 C1668 1.369 . S
C1667 C1669 1.419 . S
C1667 H1671 0.930 . S
C1668 C1667 1.369 . S
C1668 C1677 1.429 . S
C1669 C1667 1.419 . S
C1669 C1670 1.363 . S
C1669 H1672 0.929 . S
C1670 C1669 1.363 . S
C1670 C1676 1.428 . S
H1671 C1667 0.930 . S
H1672 C1669 0.929 . S
S1673 N1674 1.613 . S
S1673 N1675 1.610 . S
N1674 S1673 1.613 . S
N1674 C1677 1.350 . S
N1675 S1673 1.610 . S
N1675 C1676 1.351 . S
C1676 C1670 1.428 . S
C1676 N1675 1.351 . S
C1676 C1677 1.434 . S
C1677 C1668 1.429 . S
C1677 N1674 1.350 . S
C1677 C1676 1.434 . S
C1678 C1679 1.369 . S
C1678 C1680 1.419 1_545 S
C1678 H1682 0.930 . S
C1679 C1678 1.369 . S
C1679 C1688 1.429 1_545 S
C1680 C1678 1.419 1_565 S
C1680 C1681 1.363 . S
C1680 H1683 0.929 1_565 S
C1681 C1680 1.363 . S
C1681 C1687 1.428 . S
H1682 C1678 0.930 . S
H1683 C1680 0.929 1_545 S
S1684 N1685 1.613 . S
S1684 N1686 1.610 . S
N1685 S1684 1.613 . S
N1685 C1688 1.350 . S
N1686 S1684 1.610 . S
N1686 C1687 1.351 . S
C1687 C1681 1.428 . S
C1687 N1686 1.351 . S
C1687 C1688 1.434 . S
C1688 C1679 1.429 1_565 S
C1688 N1685 1.350 . S
C1688 C1687 1.434 . S
C1689 C1690 1.369 . S
C1689 C1691 1.419 . S
C1689 H1693 0.931 . S
C1690 C1689 1.369 . S
C1690 C1699 1.429 1_565 S
C1691 C1689 1.419 . S
C1691 C1692 1.363 1_565 S
C1691 H1694 0.929 . S
C1692 C1691 1.363 1_545 S
C1692 C1698 1.428 . S
H1693 C1689 0.931 . S
H1694 C1691 0.929 . S
S1695 N1696 1.613 . S
S1695 N1697 1.610 . S
N1696 S1695 1.613 . S
N1696 C1699 1.350 . S
N1697 S1695 1.610 . S
N1697 C1698 1.351 . S
C1698 C1692 1.428 . S
C1698 N1697 1.351 . S
C1698 C1699 1.434 . S
C1699 C1690 1.429 1_545 S
C1699 N1696 1.350 . S
C1699 C1698 1.434 . S
C1700 C1701 1.369 . S
C1700 C1702 1.419 . S
C1700 H1704 0.930 . S
C1701 C1700 1.369 . S
C1701 C1710 1.429 . S
C1702 C1700 1.419 . S
C1702 C1703 1.363 . S
C1702 H1705 0.929 . S
C1703 C1702 1.363 . S
C1703 C1709 1.428 . S
H1704 C1700 0.930 . S
H1705 C1702 0.929 . S
S1706 N1707 1.613 . S
S1706 N1708 1.610 . S
N1707 S1706 1.613 . S
N1707 C1710 1.350 . S
N1708 S1706 1.610 . S
N1708 C1709 1.351 . S
C1709 C1703 1.428 . S
C1709 N1708 1.351 . S
C1709 C1710 1.434 . S
C1710 C1701 1.429 . S
C1710 N1707 1.350 . S
C1710 C1709 1.434 . S
C1711 C1712 1.369 . S
C1711 C1713 1.419 . S
C1711 H1715 0.930 . S
C1712 C1711 1.369 . S
C1712 C1721 1.429 . S
C1713 C1711 1.419 . S
C1713 C1714 1.363 . S
C1713 H1716 0.929 . S
C1714 C1713 1.363 . S
C1714 C1720 1.428 . S
H1715 C1711 0.930 . S
H1716 C1713 0.929 . S
S1717 N1718 1.613 . S
S1717 N1719 1.610 . S
N1718 S1717 1.613 . S
N1718 C1721 1.350 . S
N1719 S1717 1.610 . S
N1719 C1720 1.351 . S
C1720 C1714 1.428 . S
C1720 N1719 1.351 . S
C1720 C1721 1.434 . S
C1721 C1712 1.429 . S
C1721 N1718 1.350 . S
C1721 C1720 1.434 . S
C1722 C1723 1.369 . S
C1722 C1724 1.419 . S
C1722 H1726 0.930 . S
C1723 C1722 1.369 . S
C1723 C1732 1.429 . S
C1724 C1722 1.419 . S
C1724 C1725 1.363 . S
C1724 H1727 0.929 . S
C1725 C1724 1.363 . S
C1725 C1731 1.428 . S
H1726 C1722 0.930 . S
H1727 C1724 0.929 . S
S1728 N1729 1.613 . S
S1728 N1730 1.610 . S
N1729 S1728 1.613 . S
N1729 C1732 1.350 . S
N1730 S1728 1.610 . S
N1730 C1731 1.351 . S
C1731 C1725 1.428 . S
C1731 N1730 1.351 . S
C1731 C1732 1.434 . S
C1732 C1723 1.429 . S
C1732 N1729 1.350 . S
C1732 C1731 1.434 . S
C1733 C1734 1.369 . S
C1733 C1735 1.419 . S
C1733 H1737 0.930 . S
C1734 C1733 1.369 . S
C1734 C1743 1.429 . S
C1735 C1733 1.419 . S
C1735 C1736 1.363 . S
C1735 H1738 0.929 . S
C1736 C1735 1.363 . S
C1736 C1742 1.428 . S
H1737 C1733 0.930 . S
H1738 C1735 0.929 . S
S1739 N1740 1.613 . S
S1739 N1741 1.610 . S
N1740 S1739 1.613 . S
N1740 C1743 1.350 . S
N1741 S1739 1.610 . S
N1741 C1742 1.351 . S
C1742 C1736 1.428 . S
C1742 N1741 1.351 . S
C1742 C1743 1.434 . S
C1743 C1734 1.429 . S
C1743 N1740 1.350 . S
C1743 C1742 1.434 . S
C1744 C1745 1.369 . S
C1744 C1746 1.419 . S
C1744 H1748 0.930 . S
C1745 C1744 1.369 . S
C1745 C1754 1.429 . S
C1746 C1744 1.419 . S
C1746 C1747 1.363 . S
C1746 H1749 0.929 . S
C1747 C1746 1.363 . S
C1747 C1753 1.428 . S
H1748 C1744 0.930 . S
H1749 C1746 0.929 . S
S1750 N1751 1.613 . S
S1750 N1752 1.610 . S
N1751 S1750 1.613 . S
N1751 C1754 1.350 . S
N1752 S1750 1.610 . S
N1752 C1753 1.351 . S
C1753 C1747 1.428 . S
C1753 N1752 1.351 . S
C1753 C1754 1.434 . S
C1754 C1745 1.429 . S
C1754 N1751 1.350 . S
C1754 C1753 1.434 . S
C1755 C1756 1.369 . S
C1755 C1757 1.419 . S
C1755 H1759 0.930 . S
C1756 C1755 1.369 . S
C1756 C1765 1.429 . S
C1757 C1755 1.419 . S
C1757 C1758 1.363 . S
C1757 H1760 0.929 . S
C1758 C1757 1.363 . S
C1758 C1764 1.428 . S
H1759 C1755 0.930 . S
H1760 C1757 0.929 . S
S1761 N1762 1.613 . S
S1761 N1763 1.610 . S
N1762 S1761 1.613 . S
N1762 C1765 1.350 . S
N1763 S1761 1.610 . S
N1763 C1764 1.351 . S
C1764 C1758 1.428 . S
C1764 N1763 1.351 . S
C1764 C1765 1.434 . S
C1765 C1756 1.429 . S
C1765 N1762 1.350 . S
C1765 C1764 1.434 . S
C1766 C1767 1.369 . S
C1766 C1768 1.419 . S
C1766 H1770 0.930 . S
C1767 C1766 1.369 . S
C1767 C1776 1.429 . S
C1768 C1766 1.419 . S
C1768 C1769 1.363 . S
C1768 H1771 0.906 1_554 S
C1769 C1768 1.363 . S
C1769 C1775 1.428 . S
H1770 C1766 0.930 . S
H1771 C1768 0.906 1_556 S
S1772 N1773 1.613 . S
S1772 N1774 1.610 . S
N1773 S1772 1.613 . S
N1773 C1776 1.350 . S
N1774 S1772 1.610 . S
N1774 C1775 1.351 . S
C1775 C1769 1.428 . S
C1775 N1774 1.351 . S
C1775 C1776 1.434 . S
C1776 C1767 1.429 . S
C1776 N1773 1.350 . S
C1776 C1775 1.434 . S
C1777 C1778 1.369 . S
C1777 C1779 1.419 . S
C1777 H1781 0.930 . S
C1778 C1777 1.369 . S
C1778 C1787 1.429 . S
C1779 C1777 1.419 . S
C1779 C1780 1.363 . S
C1779 H1782 0.929 . S
C1780 C1779 1.363 . S
C1780 C1786 1.428 . S
H1781 C1777 0.930 . S
H1782 C1779 0.929 . S
S1783 N1784 1.613 . S
S1783 N1785 1.610 . S
N1784 S1783 1.613 . S
N1784 C1787 1.350 . S
N1785 S1783 1.610 . S
N1785 C1786 1.351 . S
C1786 C1780 1.428 . S
C1786 N1785 1.351 . S
C1786 C1787 1.434 . S
C1787 C1778 1.429 . S
C1787 N1784 1.350 . S
C1787 C1786 1.434 . S
C1788 C1789 1.369 . S
C1788 C1790 1.419 . S
C1788 H1792 0.930 . S
C1789 C1788 1.369 . S
C1789 C1798 1.429 . S
C1790 C1788 1.419 . S
C1790 C1791 1.363 . S
C1790 H1793 0.929 . S
C1791 C1790 1.363 . S
C1791 C1797 1.428 . S
H1792 C1788 0.930 . S
H1793 C1790 0.929 . S
S1794 N1795 1.613 . S
S1794 N1796 1.610 . S
N1795 S1794 1.613 . S
N1795 C1798 1.350 . S
N1796 S1794 1.610 . S
N1796 C1797 1.351 . S
C1797 C1791 1.428 . S
C1797 N1796 1.351 . S
C1797 C1798 1.434 . S
C1798 C1789 1.429 . S
C1798 N1795 1.350 . S
C1798 C1797 1.434 . S
C1799 C1800 1.369 . S
C1799 C1801 1.419 . S
C1799 H1803 0.930 . S
C1800 C1799 1.369 . S
C1800 C1809 1.429 . S
C1801 C1799 1.419 . S
C1801 C1802 1.363 . S
C1801 H1804 0.929 . S
C1802 C1801 1.363 . S
C1802 C1808 1.428 . S
H1803 C1799 0.930 . S
H1804 C1801 0.929 . S
S1805 N1806 1.613 . S
S1805 N1807 1.610 . S
N1806 S1805 1.613 . S
N1806 C1809 1.350 . S
N1807 S1805 1.610 . S
N1807 C1808 1.351 . S
C1808 C1802 1.428 . S
C1808 N1807 1.351 . S
C1808 C1809 1.434 . S
C1809 C1800 1.429 . S
C1809 N1806 1.350 . S
C1809 C1808 1.434 . S
C1810 C1811 1.369 . S
C1810 C1812 1.419 . S
C1810 H1814 0.930 . S
C1811 C1810 1.369 . S
C1811 C1820 1.429 . S
C1812 C1810 1.419 . S
C1812 C1813 1.363 . S
C1812 H1815 0.929 . S
C1813 C1812 1.363 . S
C1813 C1819 1.428 . S
H1814 C1810 0.930 . S
H1815 C1812 0.929 . S
S1816 N1817 1.613 . S
S1816 N1818 1.610 . S
N1817 S1816 1.613 . S
N1817 C1820 1.350 . S
N1818 S1816 1.610 . S
N1818 C1819 1.351 . S
C1819 C1813 1.428 . S
C1819 N1818 1.351 . S
C1819 C1820 1.434 . S
C1820 C1811 1.429 . S
C1820 N1817 1.350 . S
C1820 C1819 1.434 . S
C1821 C1822 1.369 . S
C1821 C1823 1.419 . S
C1821 H1825 0.930 . S
C1822 C1821 1.369 . S
C1822 C1831 1.429 . S
C1823 C1821 1.419 . S
C1823 C1824 1.363 . S
C1823 H1826 0.929 . S
C1824 C1823 1.363 . S
C1824 C1830 1.428 . S
H1825 C1821 0.930 . S
H1826 C1823 0.929 . S
S1827 N1828 1.613 . S
S1827 N1829 1.610 . S
N1828 S1827 1.613 . S
N1828 C1831 1.350 . S
N1829 S1827 1.610 . S
N1829 C1830 1.351 . S
C1830 C1824 1.428 . S
C1830 N1829 1.351 . S
C1830 C1831 1.434 . S
C1831 C1822 1.429 . S
C1831 N1828 1.350 . S
C1831 C1830 1.434 . S
C1832 C1833 1.369 . S
C1832 C1834 1.419 . S
C1832 H1836 0.930 . S
C1833 C1832 1.369 . S
C1833 C1842 1.429 . S
C1834 C1832 1.419 . S
C1834 C1835 1.363 . S
C1834 H1837 0.929 . S
C1835 C1834 1.363 . S
C1835 C1841 1.428 . S
H1836 C1832 0.930 . S
H1837 C1834 0.929 . S
S1838 N1839 1.613 . S
S1838 N1840 1.610 . S
N1839 S1838 1.613 . S
N1839 C1842 1.350 . S
N1840 S1838 1.610 . S
N1840 C1841 1.351 . S
C1841 C1835 1.428 . S
C1841 N1840 1.351 . S
C1841 C1842 1.434 . S
C1842 C1833 1.429 . S
C1842 N1839 1.350 . S
C1842 C1841 1.434 . S
C1843 C1844 1.369 . S
C1843 C1845 1.419 . S
C1843 H1847 0.930 . S
C1844 C1843 1.369 . S
C1844 C1853 1.429 . S
C1845 C1843 1.419 . S
C1845 C1846 1.363 . S
C1845 H1848 0.929 . S
C1846 C1845 1.363 . S
C1846 C1852 1.428 . S
H1847 C1843 0.930 . S
H1848 C1845 0.929 . S
S1849 N1850 1.613 . S
S1849 N1851 1.610 . S
N1850 S1849 1.613 . S
N1850 C1853 1.350 . S
N1851 S1849 1.610 . S
N1851 C1852 1.351 . S
C1852 C1846 1.428 . S
C1852 N1851 1.351 . S
C1852 C1853 1.434 . S
C1853 C1844 1.429 . S
C1853 N1850 1.350 . S
C1853 C1852 1.434 . S
C1854 C1855 1.369 . S
C1854 C1856 1.419 . S
C1854 H1858 0.930 . S
C1855 C1854 1.369 . S
C1855 C1864 1.429 . S
C1856 C1854 1.419 . S
C1856 C1857 1.363 . S
C1856 H1859 0.929 1_655 S
C1857 C1856 1.363 . S
C1857 C1863 1.428 . S
H1858 C1854 0.930 . S
H1859 C1856 0.929 1_455 S
S1860 N1861 1.613 . S
S1860 N1862 1.612 1_556 S
N1861 S1860 1.613 . S
N1861 C1864 1.350 . S
N1862 S1860 1.612 1_554 S
N1862 C1863 1.337 1_554 S
C1863 C1857 1.428 . S
C1863 N1862 1.337 1_556 S
C1863 C1864 1.434 . S
C1864 C1855 1.429 . S
C1864 N1861 1.350 . S
C1864 C1863 1.434 . S
C1865 C1866 1.369 . S
C1865 C1867 1.419 . S
C1865 H1869 0.930 . S
C1866 C1865 1.369 . S
C1866 C1875 1.429 . S
C1867 C1865 1.419 . S
C1867 C1868 1.363 . S
C1867 H1870 0.929 . S
C1868 C1867 1.363 . S
C1868 C1874 1.428 . S
H1869 C1865 0.930 . S
H1870 C1867 0.929 . S
S1871 N1872 1.613 . S
S1871 N1873 1.610 . S
N1872 S1871 1.613 . S
N1872 C1875 1.350 . S
N1873 S1871 1.610 . S
N1873 C1874 1.351 . S
C1874 C1868 1.428 . S
C1874 N1873 1.351 . S
C1874 C1875 1.434 . S
C1875 C1866 1.429 . S
C1875 N1872 1.350 . S
C1875 C1874 1.434 . S
C1876 C1877 1.369 . S
C1876 C1878 1.419 . S
C1876 H1880 0.930 . S
C1877 C1876 1.369 . S
C1877 C1886 1.429 . S
C1878 C1876 1.419 . S
C1878 C1879 1.363 . S
C1878 H1881 0.929 . S
C1879 C1878 1.363 . S
C1879 C1885 1.428 . S
H1880 C1876 0.930 . S
H1881 C1878 0.929 . S
S1882 N1883 1.613 . S
S1882 N1884 1.610 . S
N1883 S1882 1.613 . S
N1883 C1886 1.350 . S
N1884 S1882 1.610 . S
N1884 C1885 1.351 . S
C1885 C1879 1.428 . S
C1885 N1884 1.351 . S
C1885 C1886 1.434 . S
C1886 C1877 1.429 . S
C1886 N1883 1.350 . S
C1886 C1885 1.434 . S
C1887 C1888 1.369 . S
C1887 C1889 1.419 . S
C1887 H1891 0.930 . S
C1888 C1887 1.369 . S
C1888 C1897 1.429 . S
C1889 C1887 1.419 . S
C1889 C1890 1.363 . S
C1889 H1892 0.929 . S
C1890 C1889 1.363 . S
C1890 C1896 1.428 . S
H1891 C1887 0.930 . S
H1892 C1889 0.929 . S
S1893 N1894 1.613 . S
S1893 N1895 1.610 . S
N1894 S1893 1.613 . S
N1894 C1897 1.350 . S
N1895 S1893 1.610 . S
N1895 C1896 1.351 . S
C1896 C1890 1.428 . S
C1896 N1895 1.351 . S
C1896 C1897 1.434 . S
C1897 C1888 1.429 . S
C1897 N1894 1.350 . S
C1897 C1896 1.434 . S
C1898 C1899 1.369 . S
C1898 C1900 1.419 . S
C1898 H1902 0.930 . S
C1899 C1898 1.369 . S
C1899 C1908 1.429 . S
C1900 C1898 1.419 . S
C1900 C1901 1.363 . S
C1900 H1903 0.929 . S
C1901 C1900 1.363 . S
C1901 C1907 1.428 . S
H1902 C1898 0.930 . S
H1903 C1900 0.929 . S
S1904 N1905 1.613 . S
S1904 N1906 1.610 . S
N1905 S1904 1.613 . S
N1905 C1908 1.350 . S
N1906 S1904 1.610 . S
N1906 C1907 1.351 . S
C1907 C1901 1.428 . S
C1907 N1906 1.351 . S
C1907 C1908 1.434 . S
C1908 C1899 1.429 . S
C1908 N1905 1.350 . S
C1908 C1907 1.434 . S
C1909 C1910 1.369 . S
C1909 C1911 1.419 . S
C1909 H1913 0.930 . S
C1910 C1909 1.369 . S
C1910 C1919 1.429 . S
C1911 C1909 1.419 . S
C1911 C1912 1.363 . S
C1911 H1914 0.929 . S
C1912 C1911 1.363 . S
C1912 C1918 1.428 . S
H1913 C1909 0.930 . S
H1914 C1911 0.929 . S
S1915 N1916 1.613 . S
S1915 N1917 1.610 . S
N1916 S1915 1.613 . S
N1916 C1919 1.350 . S
N1917 S1915 1.610 . S
N1917 C1918 1.351 . S
C1918 C1912 1.428 . S
C1918 N1917 1.351 . S
C1918 C1919 1.434 . S
C1919 C1910 1.429 . S
C1919 N1916 1.350 . S
C1919 C1918 1.434 . S
C1920 C1921 1.369 . S
C1920 C1922 1.419 . S
C1920 H1924 0.930 . S
C1921 C1920 1.369 . S
C1921 C1930 1.429 . S
C1922 C1920 1.419 . S
C1922 C1923 1.363 . S
C1922 H1925 0.929 . S
C1923 C1922 1.363 . S
C1923 C1929 1.428 . S
H1924 C1920 0.930 . S
H1925 C1922 0.929 . S
S1926 N1927 1.613 . S
S1926 N1928 1.610 . S
N1927 S1926 1.613 . S
N1927 C1930 1.350 . S
N1928 S1926 1.610 . S
N1928 C1929 1.351 . S
C1929 C1923 1.428 . S
C1929 N1928 1.351 . S
C1929 C1930 1.434 . S
C1930 C1921 1.429 . S
C1930 N1927 1.350 . S
C1930 C1929 1.434 . S
C1931 C1932 1.369 . S
C1931 C1933 1.419 1_565 S
C1931 H1935 0.930 . S
C1932 C1931 1.369 . S
C1932 C1941 1.429 . S
C1933 C1931 1.419 1_545 S
C1933 C1934 1.363 . S
C1933 H1936 0.929 . S
C1934 C1933 1.363 . S
C1934 C1940 1.428 1_545 S
H1935 C1931 0.930 . S
H1936 C1933 0.929 . S
S1937 N1938 1.613 . S
S1937 N1939 1.610 . S
N1938 S1937 1.613 . S
N1938 C1941 1.350 . S
N1939 S1937 1.610 . S
N1939 C1940 1.351 . S
C1940 C1934 1.428 1_565 S
C1940 N1939 1.351 . S
C1940 C1941 1.434 . S
C1941 C1932 1.429 . S
C1941 N1938 1.350 . S
C1941 C1940 1.434 . S
C1942 C1943 1.369 . S
C1942 C1944 1.419 . S
C1942 H1946 0.930 . S
C1943 C1942 1.369 . S
C1943 C1952 1.429 . S
C1944 C1942 1.419 . S
C1944 C1945 1.363 . S
C1944 H1947 0.929 . S
C1945 C1944 1.363 . S
C1945 C1951 1.428 . S
H1946 C1942 0.930 . S
H1947 C1944 0.929 . S
S1948 N1949 1.613 . S
S1948 N1950 1.610 . S
N1949 S1948 1.613 . S
N1949 C1952 1.350 . S
N1950 S1948 1.610 . S
N1950 C1951 1.351 . S
C1951 C1945 1.428 . S
C1951 N1950 1.351 . S
C1951 C1952 1.434 . S
C1952 C1943 1.429 . S
C1952 N1949 1.350 . S
C1952 C1951 1.434 . S
C1953 C1954 1.369 . S
C1953 C1955 1.419 . S
C1953 H1957 0.930 . S
C1954 C1953 1.369 . S
C1954 C1963 1.429 . S
C1955 C1953 1.419 . S
C1955 C1956 1.363 . S
C1955 H1958 0.929 . S
C1956 C1955 1.363 . S
C1956 C1962 1.428 . S
H1957 C1953 0.930 . S
H1958 C1955 0.929 . S
S1959 N1960 1.613 . S
S1959 N1961 1.610 . S
N1960 S1959 1.613 . S
N1960 C1963 1.350 . S
N1961 S1959 1.610 . S
N1961 C1962 1.351 . S
C1962 C1956 1.428 . S
C1962 N1961 1.351 . S
C1962 C1963 1.434 . S
C1963 C1954 1.429 . S
C1963 N1960 1.350 . S
C1963 C1962 1.434 . S
C1964 C1965 1.369 . S
C1964 C1966 1.419 . S
C1964 H1968 0.930 . S
C1965 C1964 1.369 . S
C1965 C1974 1.429 . S
C1966 C1964 1.419 . S
C1966 C1967 1.363 . S
C1966 H1969 0.929 . S
C1967 C1966 1.363 . S
C1967 C1973 1.428 . S
H1968 C1964 0.930 . S
H1969 C1966 0.929 . S
S1970 N1971 1.613 . S
S1970 N1972 1.610 . S
N1971 S1970 1.613 . S
N1971 C1974 1.350 . S
N1972 S1970 1.610 . S
N1972 C1973 1.351 . S
C1973 C1967 1.428 . S
C1973 N1972 1.351 . S
C1973 C1974 1.434 . S
C1974 C1965 1.429 . S
C1974 N1971 1.350 . S
C1974 C1973 1.434 . S
C1975 C1976 1.369 . S
C1975 C1977 1.419 . S
C1975 H1979 0.930 . S
C1976 C1975 1.369 . S
C1976 C1985 1.429 . S
C1977 C1975 1.419 . S
C1977 C1978 1.363 . S
C1977 H1980 0.929 . S
C1978 C1977 1.363 . S
C1978 C1984 1.428 1_554 S
H1979 C1975 0.930 . S
H1980 C1977 0.929 . S
S1981 N1982 1.622 . S
S1981 N1983 1.610 . S
N1982 S1981 1.622 . S
N1982 C1985 1.348 1_556 S
N1983 S1981 1.610 . S
N1983 C1984 1.351 . S
C1984 C1978 1.428 1_556 S
C1984 N1983 1.351 . S
C1984 C1985 1.434 1_556 S
C1985 C1976 1.429 . S
C1985 N1982 1.348 1_554 S
C1985 C1984 1.434 1_554 S
C1986 C1987 1.369 . S
C1986 C1988 1.419 . S
C1986 H1990 0.930 . S
C1987 C1986 1.369 . S
C1987 C1996 1.429 . S
C1988 C1986 1.419 . S
C1988 C1989 1.363 . S
C1988 H1991 0.929 . S
C1989 C1988 1.363 . S
C1989 C1995 1.428 . S
H1990 C1986 0.930 . S
H1991 C1988 0.929 . S
S1992 N1993 1.613 . S
S1992 N1994 1.610 . S
N1993 S1992 1.613 . S
N1993 C1996 1.350 . S
N1994 S1992 1.610 . S
N1994 C1995 1.351 . S
C1995 C1989 1.428 . S
C1995 N1994 1.351 . S
C1995 C1996 1.434 . S
C1996 C1987 1.429 . S
C1996 N1993 1.350 . S
C1996 C1995 1.434 . S
C1997 C1998 1.369 . S
C1997 C1999 1.419 . S
C1997 H2001 0.930 . S
C1998 C1997 1.369 . S
C1998 C2007 1.429 . S
C1999 C1997 1.419 . S
C1999 C2000 1.363 . S
C1999 H2002 0.929 . S
C2000 C1999 1.363 . S
C2000 C2006 1.428 . S
H2001 C1997 0.930 . S
H2002 C1999 0.929 . S
S2003 N2004 1.613 . S
S2003 N2005 1.610 . S
N2004 S2003 1.613 . S
N2004 C2007 1.350 . S
N2005 S2003 1.610 . S
N2005 C2006 1.351 . S
C2006 C2000 1.428 . S
C2006 N2005 1.351 . S
C2006 C2007 1.434 . S
C2007 C1998 1.429 . S
C2007 N2004 1.350 . S
C2007 C2006 1.434 . S
C953 C101 2.484 1_455 S
C955 C325 2.508 . S
C964 C57 2.099 . S
C966 C376 2.131 . S
C975 C73 1.819 . S
C977 C405 1.950 1_565 S
C988 C449 1.401 . S
C986 C78 1.411 . S
C997 C21 1.358 . S
C999 C489 1.348 . S
C1010 C525 1.867 . S
C1008 C31 1.740 . S
C1021 C575 1.999 . S
C1019 C49 1.941 . S
C1030 C0 2.313 . S
C1032 C605 2.481 . S
C1043 C335 2.076 . S
C1041 C218 2.108 . S
C1052 C229 0.784 . S
C1054 C378 0.772 . S
C1065 C415 1.331 . S
C1063 C257 1.310 . S
C1076 C445 1.569 . S
C1074 C164 1.465 . S
C1085 C216 1.484 1_455 S
C1087 C485 1.588 . S
C1098 C535 0.964 . S
C1096 C231 0.953 . S
C1109 C569 0.956 . S
C1107 C255 0.974 . S
C1120 C615 2.040 . S
C1118 C166 2.082 . S
C1131 C329 1.364 . S
C1129 C143 1.330 . S
C1140 C265 1.720 . S
C1142 C655 1.748 . S
C1153 C689 1.462 . S
C1151 C299 1.469 . S
C1164 C725 0.835 . S
C1162 C291 0.823 . S
C1173 C104 1.410 . S
C1175 C609 1.490 . S
C1184 C117 1.519 . S
C1186 C409 1.527 . S
C1195 C304 1.612 . S
C1197 C775 1.637 . S
C1208 C794 0.329 . S
C1206 C278 0.452 . S
C1219 C336 2.456 . S
C1217 C60 2.460 . S
C1230 C805 2.052 . S
C1228 C96 2.073 . S
C1239 C88 1.844 . S
C1241 C416 1.850 . S
C1250 C65 1.490 . S
C1252 C778 1.371 . S
C1263 C498 1.305 . S
C1261 C10 1.370 . S
C1272 C44 1.669 . S
C1274 C696 1.777 . S
C1285 C554 1.940 1_566 S
C1283 C34 1.840 . S
C1296 C856 2.427 . S
C1294 C13 2.438 . S
C1307 C314 2.015 . S
C1305 C138 2.042 . S
C1318 C809 0.799 . S
C1316 C296 0.789 . S
C1327 C112 1.292 . S
C1329 C394 1.291 . S
C1338 C270 1.479 . S
C1340 C776 1.477 . S
C1349 C140 1.493 . S
C1351 C496 1.489 . S
C1362 C674 0.912 . S
C1360 C294 0.907 . S
C1371 C114 0.986 1_565 S
C1373 C578 0.934 . S
C1382 C268 2.010 . S
C1384 C834 1.985 . S
C1393 C169 1.586 . S
C1395 C338 1.385 . S
C1404 C161 1.701 . S
C1406 C634 1.700 . S
C1415 C234 1.649 . S
C1417 C538 1.495 . S
C1426 C226 0.787 . S
C1428 C736 0.781 . S
C1439 C858 1.486 1_545 S
C1437 C247 1.656 . S
C1448 C195 1.713 . S
C1450 C418 1.544 . S
C1461 C434 1.586 . S
C1459 C239 1.585 . S
C1472 C375 0.245 . S
C1470 C187 0.301 . S
C1481 C75 2.485 . S
C1483 C885 2.507 . S
C1494 C816 2.134 . S
C1492 C83 2.104 . S
C1503 C99 1.817 . S
C1505 C925 1.964 . S
C1514 C52 1.387 1_655 S
C1516 C769 1.401 . S
C1525 C47 1.359 . S
C1527 C649 1.347 . S
C1538 C685 1.867 . S
C1536 C5 1.738 . S
C1549 C735 2.000 . S
C1547 C23 1.945 . S
C1560 C845 2.481 . S
C1558 C26 2.312 . S
C1571 C895 2.075 . S
C1569 C244 2.108 . S
C1580 C177 0.782 . S
C1582 C818 0.774 . S
C1593 C935 1.331 . S
C1591 C192 1.310 . S
C1604 C765 1.569 . S
C1602 C203 1.465 . S
C1615 C645 1.587 . S
C1613 C242 1.482 . S
C1624 C179 0.953 . S
C1626 C695 0.964 . S
C1637 C729 0.963 . S
C1635 C190 0.962 . S
C1646 C205 2.080 . S
C1648 C855 2.044 . S
C1659 C889 1.365 . S
C1657 C286 1.334 . S
C1668 C122 1.724 . S
C1670 C495 1.749 . S
C1681 C529 1.462 . S
C1679 C130 1.468 . S
C1692 C565 0.841 . S
C1690 C148 0.836 . S
C1703 C849 1.487 . S
C1701 C273 1.417 . S
C1712 C260 1.522 . S
C1714 C929 1.523 . S
C1725 C455 1.637 . S
C1723 C135 1.607 . S
C1736 C354 0.329 . S
C1734 C109 0.453 . S
C1745 C86 2.460 . S
C1747 C896 2.456 . S
C1758 C365 2.050 . S
C1756 C70 2.073 . S
C1767 C62 1.844 . S
C1769 C936 1.850 . S
C1778 C91 1.490 . S
C1780 C458 1.370 . S
C1789 C36 1.364 . S
C1791 C658 1.313 . S
C1802 C536 1.777 . S
C1800 C18 1.669 . S
C1811 C8 1.836 . S
C1813 C714 1.940 . S
C1822 C39 2.438 . S
C1824 C616 2.427 . S
C1835 C874 2.014 . S
C1833 C307 2.042 . S
C1844 C153 0.805 . S
C1846 C369 0.779 . S
C1857 C914 1.289 1_655 S
C1855 C281 1.296 . S
C1866 C127 1.476 . S
C1868 C456 1.477 . S
C1877 C309 1.494 . S
C1879 C656 1.489 . S
C1890 C514 0.911 . S
C1888 C151 0.906 . S
C1899 C283 0.988 . S
C1901 C738 0.934 . S
C1912 C594 1.986 . S
C1910 C125 2.010 . S
C1923 C898 1.384 . S
C1921 C221 1.587 . S
C1934 C474 1.702 . S
C1932 C200 1.701 . S
C1943 C208 1.650 . S
C1945 C698 1.487 . S
C1956 C576 0.788 . S
C1954 C174 0.786 . S
C1965 C182 1.656 . S
C1967 C618 1.487 . S
C1976 C156 1.713 . S
C1978 C938 1.546 1_554 S
C1989 C754 1.586 . S
C1987 C213 1.586 . S
C2000 C815 0.245 . S
C1998 C252 0.288 . S
