# Generated by pormake.
# Topology ocu, (6,8)-cn, num edge types: 1
# Building blocks:
#     Node 0, Type 0, BuildingBlock: KUMBUR_clean_sbu_1, # of connection points: 6
#     Node 1, Type 0, BuildingBlock: KUMBUR_clean_sbu_1, # of connection points: 6
#     Node 2, Type 0, BuildingBlock: KUMBUR_clean_sbu_1, # of connection points: 6
#     Node 3, Type 0, BuildingBlock: KUMBUR_clean_sbu_1, # of connection points: 6
#     Node 4, Type 0, BuildingBlock: KUMBUR_clean_sbu_1, # of connection points: 6
#     Node 5, Type 0, BuildingBlock: KUMBUR_clean_sbu_1, # of connection points: 6
#     Node 6, Type 0, BuildingBlock: KUMBUR_clean_sbu_1, # of connection points: 6
#     Node 7, Type 0, BuildingBlock: KUMBUR_clean_sbu_1, # of connection points: 6
#     Node 8, Type 1, BuildingBlock: VETTIZ_charged_sbu_0, # of connection points: 8
#     Node 9, Type 1, BuildingBlock: VETTIZ_charged_sbu_0, # of connection points: 8
#     Node 10, Type 1, BuildingBlock: VETTIZ_charged_sbu_0, # of connection points: 8
#     Node 11, Type 1, BuildingBlock: VETTIZ_charged_sbu_0, # of connection points: 8
#     Node 12, Type 1, BuildingBlock: VETTIZ_charged_sbu_0, # of connection points: 8
#     Node 13, Type 1, BuildingBlock: VETTIZ_charged_sbu_0, # of connection points: 8
#     Edge 14, Type (0, 1), BuildingBlock: UVAHIK_clean_linker_0, # of connection points: 2
#     Edge 15, Type (0, 1), BuildingBlock: UVAHIK_clean_linker_0, # of connection points: 2
#     Edge 16, Type (0, 1), BuildingBlock: UVAHIK_clean_linker_0, # of connection points: 2
#     Edge 17, Type (0, 1), BuildingBlock: UVAHIK_clean_linker_0, # of connection points: 2
#     Edge 18, Type (0, 1), BuildingBlock: UVAHIK_clean_linker_0, # of connection points: 2
#     Edge 19, Type (0, 1), BuildingBlock: UVAHIK_clean_linker_0, # of connection points: 2
#     Edge 20, Type (0, 1), BuildingBlock: UVAHIK_clean_linker_0, # of connection points: 2
#     Edge 21, Type (0, 1), BuildingBlock: UVAHIK_clean_linker_0, # of connection points: 2
#     Edge 22, Type (0, 1), BuildingBlock: UVAHIK_clean_linker_0, # of connection points: 2
#     Edge 23, Type (0, 1), BuildingBlock: UVAHIK_clean_linker_0, # of connection points: 2
#     Edge 24, Type (0, 1), BuildingBlock: UVAHIK_clean_linker_0, # of connection points: 2
#     Edge 25, Type (0, 1), BuildingBlock: UVAHIK_clean_linker_0, # of connection points: 2
#     Edge 26, Type (0, 1), BuildingBlock: UVAHIK_clean_linker_0, # of connection points: 2
#     Edge 27, Type (0, 1), BuildingBlock: UVAHIK_clean_linker_0, # of connection points: 2
#     Edge 28, Type (0, 1), BuildingBlock: UVAHIK_clean_linker_0, # of connection points: 2
#     Edge 29, Type (0, 1), BuildingBlock: UVAHIK_clean_linker_0, # of connection points: 2
#     Edge 30, Type (0, 1), BuildingBlock: UVAHIK_clean_linker_0, # of connection points: 2
#     Edge 31, Type (0, 1), BuildingBlock: UVAHIK_clean_linker_0, # of connection points: 2
#     Edge 32, Type (0, 1), BuildingBlock: UVAHIK_clean_linker_0, # of connection points: 2
#     Edge 33, Type (0, 1), BuildingBlock: UVAHIK_clean_linker_0, # of connection points: 2
#     Edge 34, Type (0, 1), BuildingBlock: UVAHIK_clean_linker_0, # of connection points: 2
#     Edge 35, Type (0, 1), BuildingBlock: UVAHIK_clean_linker_0, # of connection points: 2
#     Edge 36, Type (0, 1), BuildingBlock: UVAHIK_clean_linker_0, # of connection points: 2
#     Edge 37, Type (0, 1), BuildingBlock: UVAHIK_clean_linker_0, # of connection points: 2
#     Edge 38, Type (0, 1), BuildingBlock: UVAHIK_clean_linker_0, # of connection points: 2
#     Edge 39, Type (0, 1), BuildingBlock: UVAHIK_clean_linker_0, # of connection points: 2
#     Edge 40, Type (0, 1), BuildingBlock: UVAHIK_clean_linker_0, # of connection points: 2
#     Edge 41, Type (0, 1), BuildingBlock: UVAHIK_clean_linker_0, # of connection points: 2
#     Edge 42, Type (0, 1), BuildingBlock: UVAHIK_clean_linker_0, # of connection points: 2
#     Edge 43, Type (0, 1), BuildingBlock: UVAHIK_clean_linker_0, # of connection points: 2
#     Edge 44, Type (0, 1), BuildingBlock: UVAHIK_clean_linker_0, # of connection points: 2
#     Edge 45, Type (0, 1), BuildingBlock: UVAHIK_clean_linker_0, # of connection points: 2
#     Edge 46, Type (0, 1), BuildingBlock: UVAHIK_clean_linker_0, # of connection points: 2
#     Edge 47, Type (0, 1), BuildingBlock: UVAHIK_clean_linker_0, # of connection points: 2
#     Edge 48, Type (0, 1), BuildingBlock: UVAHIK_clean_linker_0, # of connection points: 2
#     Edge 49, Type (0, 1), BuildingBlock: UVAHIK_clean_linker_0, # of connection points: 2
#     Edge 50, Type (0, 1), BuildingBlock: UVAHIK_clean_linker_0, # of connection points: 2
#     Edge 51, Type (0, 1), BuildingBlock: UVAHIK_clean_linker_0, # of connection points: 2
#     Edge 52, Type (0, 1), BuildingBlock: UVAHIK_clean_linker_0, # of connection points: 2
#     Edge 53, Type (0, 1), BuildingBlock: UVAHIK_clean_linker_0, # of connection points: 2
#     Edge 54, Type (0, 1), BuildingBlock: UVAHIK_clean_linker_0, # of connection points: 2
#     Edge 55, Type (0, 1), BuildingBlock: UVAHIK_clean_linker_0, # of connection points: 2
#     Edge 56, Type (0, 1), BuildingBlock: UVAHIK_clean_linker_0, # of connection points: 2
#     Edge 57, Type (0, 1), BuildingBlock: UVAHIK_clean_linker_0, # of connection points: 2
#     Edge 58, Type (0, 1), BuildingBlock: UVAHIK_clean_linker_0, # of connection points: 2
#     Edge 59, Type (0, 1), BuildingBlock: UVAHIK_clean_linker_0, # of connection points: 2
#     Edge 60, Type (0, 1), BuildingBlock: UVAHIK_clean_linker_0, # of connection points: 2
#     Edge 61, Type (0, 1), BuildingBlock: UVAHIK_clean_linker_0, # of connection points: 2
# Relax obj value: 0.058
# Max RMSD: 0.136
# Mean RMSD: 0.097
data_MOF--net-ocu--node1-KUMBUR_clean_sbu_1--node2-VETTIZ_charged_sbu_0--edge1-UVAHIK_clean_linker_0
_symmetry_space_group_name_H-M    P1
_symmetry_Int_Tables_number       1
_symmetry_cell_setting            triclinic
loop_
_symmetry_equiv_pos_as_xyz
'x, y, z'
_cell_length_a     49.246361
_cell_length_b     49.848162
_cell_length_c     51.890514
_cell_angle_alpha  98.15044
_cell_angle_beta   82.393079
_cell_angle_gamma 101.49971
loop_
_atom_site_label
_atom_site_type_symbol
_atom_site_fract_x
_atom_site_fract_y
_atom_site_fract_z
_atom_type_partial_charge
Tb0 Tb 0.24367 0.25718 0.2291 0.0
C1 C 0.3024 0.31584 0.32391 0.0
N2 N 0.31384 0.3054 0.30025 0.0
C3 C 0.34781 0.34723 0.29832 0.0
C4 C 0.31251 0.34282 0.33523 0.0
C5 C 0.3374 0.32013 0.28821 0.0
C6 C 0.335 0.35882 0.3217 0.0
C7 C 0.271 0.30758 0.36328 0.0
C8 C 0.28192 0.29861 0.33775 0.0
C9 C 0.27998 0.33487 0.37415 0.0
C10 C 0.30065 0.35249 0.36011 0.0
Tb11 Tb 0.29367 0.26125 0.28524 0.0
N12 N 0.27354 0.27249 0.32647 0.0
C13 C 0.25204 0.28859 0.37732 0.0
C14 C 0.25649 0.25341 0.34061 0.0
C15 C 0.24512 0.26124 0.36608 0.0
H16 H 0.34868 0.31101 0.27103 0.0
H17 H 0.23119 0.24618 0.37706 0.0
H18 H 0.20915 0.19385 0.23375 0.0
H19 H 0.30429 0.30579 0.14747 0.0
H20 H 0.25189 0.2322 0.33223 0.0
H21 H 0.24325 0.29461 0.39706 0.0
H22 H 0.2786 0.30507 0.19133 0.0
H23 H 0.36607 0.35896 0.28833 0.0
H24 H 0.27163 0.34231 0.39364 0.0
H25 H 0.30796 0.37325 0.36902 0.0
H26 H 0.20193 0.14945 0.20526 0.0
H27 H 0.34338 0.37966 0.3297 0.0
H28 H 0.30384 0.26245 0.11754 0.0
N29 N 0.23704 0.21492 0.20513 0.0
C30 C 0.24896 0.21377 0.17993 0.0
C31 C 0.2154 0.16734 0.19797 0.0
C32 C 0.24538 0.18893 0.16295 0.0
C33 C 0.2197 0.19244 0.21414 0.0
C34 C 0.22843 0.16551 0.17232 0.0
N35 N 0.26718 0.2613 0.18823 0.0
C36 C 0.27992 0.28577 0.17941 0.0
C37 C 0.27835 0.23717 0.14558 0.0
C38 C 0.2652 0.23758 0.17145 0.0
C39 C 0.29338 0.26188 0.13724 0.0
C40 C 0.29381 0.28636 0.15412 0.0
H41 H 0.22513 0.14602 0.15989 0.0
H42 H 0.25667 0.16933 0.12406 0.0
H43 H 0.28556 0.21157 0.10883 0.0
O44 O 0.22224 0.27366 0.20424 0.0
O45 O 0.27145 0.22606 0.22612 0.0
O46 O 0.31052 0.24942 0.24474 0.0
O47 O 0.19992 0.25037 0.23462 0.0
O48 O 0.27428 0.29565 0.23573 0.0
O49 O 0.31118 0.28221 0.25062 0.0
O50 O 0.30143 0.22421 0.29544 0.0
O51 O 0.25366 0.27661 0.29586 0.0
O52 O 0.24704 0.29361 0.25881 0.0
O53 O 0.33088 0.26188 0.30127 0.0
O54 O 0.26232 0.22405 0.27696 0.0
O55 O 0.2247 0.23762 0.26419 0.0
C56 C 0.29868 0.23035 0.22731 0.0
C57 C 0.18099 0.28776 0.22537 0.0
C58 C 0.15751 0.32279 0.21399 0.0
C59 C 0.14842 0.32877 0.24069 0.0
C60 C 0.17144 0.29409 0.25187 0.0
C61 C 0.15531 0.31448 0.2594 0.0
C62 C 0.17396 0.30222 0.2065 0.0
C63 C 0.30101 0.29887 0.23848 0.0
C64 C 0.19814 0.26613 0.21719 0.0
C65 C 0.25895 0.18827 0.13736 0.0
C66 C 0.27548 0.21231 0.12873 0.0
C67 C 0.24301 0.29352 0.28437 0.0
C68 C 0.32923 0.22879 0.33009 0.0
C69 C 0.34631 0.19858 0.35489 0.0
C70 C 0.33804 0.21437 0.37823 0.0
C71 C 0.32175 0.24462 0.35358 0.0
C72 C 0.34168 0.20591 0.33083 0.0
C73 C 0.32592 0.23726 0.37751 0.0
C74 C 0.23529 0.22274 0.27795 0.0
C75 C 0.32477 0.23597 0.30461 0.0
H76 H 0.13619 0.34475 0.24719 0.0
H77 H 0.17651 0.28341 0.26687 0.0
H78 H 0.1482 0.31931 0.27987 0.0
H79 H 0.18097 0.29718 0.18601 0.0
H80 H 0.34157 0.20942 0.39704 0.0
H81 H 0.31297 0.26279 0.3535 0.0
H82 H 0.3477 0.19379 0.31268 0.0
H83 H 0.32003 0.24953 0.39556 0.0
Tb84 Tb 0.74052 0.28694 0.26849 0.0
C85 C 0.82557 0.22256 0.19644 0.0
N86 N 0.80125 0.21223 0.2103 0.0
C87 C 0.78954 0.17827 0.1739 0.0
C88 C 0.83264 0.21136 0.1705 0.0
C89 C 0.78341 0.19009 0.19958 0.0
C90 C 0.81421 0.189 0.15925 0.0
C91 C 0.86839 0.25648 0.19441 0.0
C92 C 0.84319 0.24484 0.20824 0.0
C93 C 0.87554 0.24542 0.16853 0.0
C94 C 0.85772 0.22291 0.15661 0.0
Tb95 Tb 0.79336 0.23372 0.25172 0.0
N96 N 0.83504 0.2557 0.23296 0.0
C97 C 0.88548 0.27906 0.20692 0.0
C98 C 0.85228 0.27688 0.24566 0.0
C99 C 0.8775 0.28912 0.23274 0.0
H100 H 0.76471 0.1811 0.21098 0.0
H101 H 0.89085 0.30622 0.24278 0.0
H102 H 0.75858 0.32307 0.32421 0.0
H103 H 0.6437 0.22036 0.24384 0.0
H104 H 0.84698 0.28437 0.26575 0.0
H105 H 0.90496 0.28869 0.19695 0.0
H106 H 0.689 0.24996 0.23431 0.0
H107 H 0.77531 0.16078 0.16548 0.0
H108 H 0.89476 0.25417 0.15754 0.0
H109 H 0.8635 0.21463 0.13663 0.0
H110 H 0.73876 0.32785 0.37056 0.0
H111 H 0.81888 0.17979 0.13936 0.0
H112 H 0.62306 0.21762 0.28971 0.0
N113 N 0.7241 0.29327 0.31175 0.0
C114 C 0.69832 0.27879 0.31867 0.0
C115 C 0.72724 0.31389 0.35617 0.0
C116 C 0.68626 0.28078 0.34489 0.0
C117 C 0.73849 0.31102 0.32994 0.0
C118 C 0.70107 0.29861 0.36372 0.0
N119 N 0.69698 0.25998 0.27429 0.0
C120 C 0.68166 0.24716 0.2544 0.0
C121 C 0.65789 0.24566 0.30583 0.0
C122 C 0.68459 0.26116 0.2994 0.0
C123 C 0.64362 0.22981 0.28563 0.0
C124 C 0.6553 0.23112 0.25974 0.0
H125 H 0.69252 0.30073 0.38408 0.0
H126 H 0.65055 0.26571 0.37158 0.0
H127 H 0.62556 0.23516 0.33733 0.0
O128 O 0.71742 0.30405 0.245 0.0
O129 O 0.7444 0.25963 0.29759 0.0
O130 O 0.75289 0.21964 0.2731 0.0
O131 O 0.73397 0.32749 0.27985 0.0
O132 O 0.73891 0.25833 0.23171 0.0
O133 O 0.75051 0.21907 0.24251 0.0
O134 O 0.81698 0.22568 0.27973 0.0
O135 O 0.79354 0.26239 0.22325 0.0
O136 O 0.78031 0.30191 0.24593 0.0
O137 O 0.80416 0.19458 0.24834 0.0
O138 O 0.79975 0.2654 0.28592 0.0
O139 O 0.7822 0.30404 0.28039 0.0
C140 C 0.74168 0.23263 0.29438 0.0
C141 C 0.70752 0.35107 0.25698 0.0
C142 C 0.68232 0.37466 0.2322 0.0
C143 C 0.68233 0.39599 0.25303 0.0
C144 C 0.70739 0.3729 0.27736 0.0
C145 C 0.69492 0.39516 0.27533 0.0
C146 C 0.69516 0.35219 0.23414 0.0
C147 C 0.73782 0.2314 0.22817 0.0
C148 C 0.71957 0.32704 0.26057 0.0
C149 C 0.66009 0.26466 0.3515 0.0
C150 C 0.64594 0.24714 0.33201 0.0
C151 C 0.79444 0.28912 0.22631 0.0
C152 C 0.80745 0.17965 0.2886 0.0
C153 C 0.81992 0.15435 0.32078 0.0
C154 C 0.79171 0.14204 0.3256 0.0
C155 C 0.77947 0.16691 0.29335 0.0
C156 C 0.82759 0.17324 0.30223 0.0
C157 C 0.77165 0.14828 0.31188 0.0
C158 C 0.79871 0.29198 0.29118 0.0
C159 C 0.81595 0.20002 0.26989 0.0
H160 H 0.67278 0.41353 0.25191 0.0
H161 H 0.71663 0.37264 0.29512 0.0
H162 H 0.69487 0.41178 0.29121 0.0
H163 H 0.69504 0.33555 0.21824 0.0
H164 H 0.78523 0.12731 0.33969 0.0
H165 H 0.76378 0.1713 0.28267 0.0
H166 H 0.84917 0.18328 0.29866 0.0
H167 H 0.75002 0.13859 0.31556 0.0
Tb168 Tb 0.77403 0.74225 0.28285 0.0
C169 C 0.83835 0.81669 0.19611 0.0
N170 N 0.82531 0.82544 0.21967 0.0
C171 C 0.86184 0.86497 0.22459 0.0
C172 C 0.86398 0.83165 0.18601 0.0
C173 C 0.8364 0.84946 0.23381 0.0
C174 C 0.87577 0.85598 0.20066 0.0
C175 C 0.83863 0.78289 0.15749 0.0
C176 C 0.82586 0.79263 0.182 0.0
C177 C 0.8643 0.79762 0.14743 0.0
C178 C 0.87694 0.82193 0.16165 0.0
Tb179 Tb 0.78415 0.79811 0.23221 0.0
N180 N 0.80148 0.77839 0.19273 0.0
C181 C 0.82519 0.75863 0.14388 0.0
C182 C 0.78759 0.75551 0.17902 0.0
C183 C 0.79944 0.74504 0.15459 0.0
H184 H 0.82546 0.857 0.252 0.0
H185 H 0.78866 0.72655 0.14401 0.0
H186 H 0.73085 0.68557 0.25988 0.0
H187 H 0.77342 0.80315 0.37743 0.0
H188 H 0.76756 0.74518 0.18696 0.0
H189 H 0.83435 0.75041 0.125 0.0
H190 H 0.79382 0.787 0.33328 0.0
H191 H 0.87061 0.88396 0.23587 0.0
H192 H 0.87452 0.79042 0.12866 0.0
H193 H 0.8967 0.83311 0.15359 0.0
H194 H 0.68377 0.66067 0.2731 0.0
H195 H 0.89544 0.86809 0.19357 0.0
H196 H 0.7256 0.78168 0.39375 0.0
N197 N 0.7312 0.71606 0.29313 0.0
C198 C 0.71809 0.72369 0.31703 0.0
C199 C 0.69304 0.67859 0.28549 0.0
C200 C 0.69151 0.70947 0.32579 0.0
C201 C 0.71953 0.69315 0.27778 0.0
C202 C 0.67881 0.68696 0.30946 0.0
N203 N 0.75739 0.75865 0.32393 0.0
C204 C 0.77277 0.77831 0.33987 0.0
C205 C 0.71944 0.75335 0.3584 0.0
C206 C 0.73185 0.74529 0.33319 0.0
C207 C 0.7344 0.77483 0.37424 0.0
C208 C 0.76134 0.78711 0.36505 0.0
H209 H 0.65839 0.67548 0.31546 0.0
H210 H 0.65823 0.70722 0.3577 0.0
H211 H 0.68267 0.74568 0.38623 0.0
O212 O 0.80995 0.73604 0.2977 0.0
O213 O 0.74746 0.77487 0.29266 0.0
O214 O 0.76638 0.81351 0.27118 0.0
O215 O 0.77325 0.70469 0.29708 0.0
O216 O 0.81181 0.77422 0.27988 0.0
O217 O 0.8019 0.81421 0.26909 0.0
O218 O 0.75294 0.79818 0.20833 0.0
O219 O 0.81452 0.76945 0.22746 0.0
O220 O 0.79063 0.72894 0.24247 0.0
O221 O 0.77951 0.83605 0.2214 0.0
O222 O 0.74523 0.76852 0.23923 0.0
O223 O 0.75688 0.7282 0.24563 0.0
C224 C 0.74874 0.801 0.28915 0.0
C225 C 0.81607 0.68967 0.28921 0.0
C226 C 0.85043 0.66123 0.29201 0.0
C227 C 0.84725 0.64946 0.26605 0.0
C228 C 0.81256 0.67686 0.2637 0.0
C229 C 0.82834 0.65718 0.25208 0.0
C230 C 0.83489 0.68165 0.30343 0.0
C231 C 0.81417 0.80116 0.28324 0.0
C232 C 0.79931 0.71055 0.30115 0.0
C233 C 0.67872 0.71781 0.35069 0.0
C234 C 0.69266 0.73968 0.36697 0.0
C235 C 0.81152 0.74257 0.22802 0.0
C236 C 0.73296 0.83787 0.2163 0.0
C237 C 0.69885 0.86219 0.20431 0.0
C238 C 0.68466 0.86078 0.22964 0.0
C239 C 0.71787 0.83594 0.24103 0.0
C240 C 0.72336 0.85093 0.1979 0.0
C241 C 0.69411 0.84767 0.24779 0.0
C242 C 0.74178 0.74164 0.23503 0.0
C243 C 0.75776 0.82493 0.20923 0.0
H244 H 0.85859 0.63348 0.25686 0.0
H245 H 0.79719 0.68175 0.25298 0.0
H246 H 0.82546 0.64742 0.23238 0.0
H247 H 0.83721 0.69105 0.32337 0.0
H248 H 0.66617 0.86976 0.23544 0.0
H249 H 0.72423 0.82502 0.25496 0.0
H250 H 0.73449 0.85155 0.17846 0.0
H251 H 0.68282 0.84632 0.26708 0.0
Tb252 Tb 0.26929 0.77341 0.2638 0.0
C253 C 0.32691 0.66241 0.26 0.0
N254 N 0.32821 0.68721 0.27471 0.0
C255 C 0.33196 0.66643 0.31278 0.0
C256 C 0.32722 0.6383 0.27111 0.0
C257 C 0.3319 0.68978 0.30066 0.0
C258 C 0.32921 0.64049 0.29801 0.0
C259 C 0.32787 0.63696 0.21676 0.0
C260 C 0.32724 0.66176 0.23345 0.0
C261 C 0.3268 0.61246 0.22767 0.0
C262 C 0.32647 0.61313 0.25485 0.0
Tb263 Tb 0.32512 0.72378 0.25382 0.0
N264 N 0.32884 0.68595 0.2239 0.0
C265 C 0.33042 0.63779 0.18968 0.0
C266 C 0.3326 0.68714 0.19749 0.0
C267 C 0.33315 0.66309 0.18 0.0
H268 H 0.33411 0.70977 0.31217 0.0
H269 H 0.33568 0.66409 0.15909 0.0
H270 H 0.21919 0.73983 0.22578 0.0
H271 H 0.32381 0.87827 0.26185 0.0
H272 H 0.33463 0.70658 0.18984 0.0
H273 H 0.33099 0.61921 0.17612 0.0
H274 H 0.30163 0.8364 0.28267 0.0
H275 H 0.33419 0.66847 0.33348 0.0
H276 H 0.32699 0.59309 0.21524 0.0
H277 H 0.32641 0.59427 0.26299 0.0
H278 H 0.2104 0.73777 0.17985 0.0
H279 H 0.32946 0.62246 0.30739 0.0
H280 H 0.32147 0.8793 0.21462 0.0
N281 N 0.25539 0.77132 0.22273 0.0
C282 C 0.26836 0.79243 0.20897 0.0
C283 C 0.22735 0.75283 0.18753 0.0
C284 C 0.26317 0.79315 0.18302 0.0
C285 C 0.23298 0.75349 0.21337 0.0
C286 C 0.24318 0.77223 0.17196 0.0
N287 N 0.28754 0.81405 0.2474 0.0
C288 C 0.30044 0.8368 0.26208 0.0
C289 C 0.29692 0.83813 0.20919 0.0
C290 C 0.28461 0.81482 0.22191 0.0
C291 C 0.31163 0.861 0.22368 0.0
C292 C 0.31299 0.86049 0.25036 0.0
H293 H 0.23851 0.77199 0.15209 0.0
H294 H 0.27348 0.81619 0.1495 0.0
H295 H 0.30341 0.85548 0.17237 0.0
O296 O 0.25005 0.78693 0.30076 0.0
O297 O 0.31334 0.78415 0.24923 0.0
O298 O 0.31939 0.74604 0.22231 0.0
O299 O 0.23592 0.79409 0.26543 0.0
O300 O 0.30279 0.78702 0.28886 0.0
O301 O 0.31861 0.74709 0.29315 0.0
O302 O 0.36753 0.72092 0.24517 0.0
O303 O 0.29054 0.70969 0.2829 0.0
O304 O 0.25692 0.7379 0.28665 0.0
O305 O 0.35533 0.75951 0.26101 0.0
O306 O 0.29407 0.71724 0.22541 0.0
O307 O 0.25466 0.73027 0.24843 0.0
C308 C 0.32255 0.7728 0.22634 0.0
C309 C 0.20182 0.78362 0.29952 0.0
C310 C 0.15508 0.79207 0.31385 0.0
C311 C 0.14515 0.76359 0.31327 0.0
C312 C 0.19169 0.75509 0.29798 0.0
C313 C 0.16348 0.74516 0.30521 0.0
C314 C 0.18349 0.80189 0.3073 0.0
C315 C 0.31641 0.77314 0.30083 0.0
C316 C 0.23071 0.79487 0.29057 0.0
C317 C 0.2768 0.81553 0.16961 0.0
C318 C 0.29369 0.83798 0.18268 0.0
C319 C 0.26648 0.7168 0.29284 0.0
C320 C 0.39441 0.76197 0.23017 0.0
C321 C 0.40981 0.76663 0.18408 0.0
C322 C 0.42663 0.79214 0.19141 0.0
C323 C 0.41124 0.7875 0.23718 0.0
C324 C 0.39388 0.75166 0.20366 0.0
C325 C 0.4273 0.80246 0.21785 0.0
C326 C 0.26676 0.7135 0.23076 0.0
C327 C 0.37581 0.74746 0.25045 0.0
H328 H 0.1233 0.7557 0.31865 0.0
H329 H 0.20535 0.74055 0.29087 0.0
H330 H 0.15577 0.72317 0.30425 0.0
H331 H 0.1914 0.82391 0.30816 0.0
H332 H 0.439 0.80418 0.17672 0.0
H333 H 0.4116 0.79603 0.25756 0.0
H334 H 0.38119 0.7318 0.19827 0.0
H335 H 0.4401 0.82224 0.22337 0.0
Tb336 Tb 0.23627 0.78908 0.76241 0.0
C337 C 0.3143 0.70372 0.70279 0.0
N338 N 0.29421 0.70169 0.72329 0.0
C339 C 0.27545 0.65565 0.70558 0.0
C340 C 0.31528 0.6821 0.68224 0.0
C341 C 0.27577 0.67759 0.72571 0.0
C342 C 0.29499 0.6581 0.68349 0.0
C343 C 0.35859 0.72822 0.68472 0.0
C344 C 0.33547 0.72639 0.70395 0.0
C345 C 0.3589 0.70766 0.66318 0.0
C346 C 0.33722 0.68462 0.66192 0.0
Tb347 Tb 0.29494 0.73933 0.75397 0.0
N348 N 0.33459 0.74533 0.72536 0.0
C349 C 0.38119 0.74988 0.68845 0.0
C350 C 0.35748 0.76517 0.73019 0.0
C351 C 0.38084 0.76815 0.71154 0.0
H352 H 0.26093 0.67555 0.74297 0.0
H353 H 0.39855 0.78446 0.715 0.0
H354 H 0.24024 0.8263 0.81991 0.0
H355 H 0.15207 0.71169 0.72473 0.0
H356 H 0.3572 0.77927 0.74801 0.0
H357 H 0.39939 0.75207 0.67414 0.0
H358 H 0.19324 0.74856 0.7214 0.0
H359 H 0.26026 0.63685 0.70719 0.0
H360 H 0.37629 0.70883 0.64797 0.0
H361 H 0.33823 0.66838 0.64575 0.0
H362 H 0.21407 0.82649 0.86402 0.0
H363 H 0.29494 0.64098 0.66808 0.0
H364 H 0.12754 0.70254 0.76828 0.0
N365 N 0.21319 0.79117 0.80352 0.0
C366 C 0.18946 0.77237 0.80733 0.0
C367 C 0.20698 0.81107 0.84827 0.0
C368 C 0.1739 0.77156 0.83213 0.0
C369 C 0.2218 0.81089 0.82332 0.0
C370 C 0.18305 0.79117 0.85277 0.0
N371 N 0.19603 0.75627 0.76247 0.0
C372 C 0.18457 0.74298 0.74046 0.0
C373 C 0.15609 0.73428 0.78919 0.0
C374 C 0.18092 0.75389 0.78621 0.0
C375 C 0.1465 0.71787 0.76688 0.0
C376 C 0.1604 0.72281 0.74231 0.0
H377 H 0.17173 0.79122 0.87215 0.0
H378 H 0.13795 0.7499 0.85451 0.0
H379 H 0.12221 0.71732 0.81682 0.0
O380 O 0.20585 0.80362 0.74542 0.0
O381 O 0.24608 0.76748 0.79329 0.0
O382 O 0.2525 0.72615 0.77149 0.0
O383 O 0.23514 0.83168 0.76902 0.0
O384 O 0.24262 0.76256 0.72505 0.0
O385 O 0.25405 0.72551 0.73953 0.0
O386 O 0.3021 0.74011 0.79331 0.0
O387 O 0.30592 0.77378 0.72988 0.0
O388 O 0.27081 0.80024 0.73266 0.0
O389 O 0.31873 0.71194 0.76312 0.0
O390 O 0.30651 0.78055 0.77514 0.0
O391 O 0.27369 0.81009 0.78088 0.0
C392 C 0.24194 0.74054 0.79206 0.0
C393 C 0.20164 0.85222 0.75137 0.0
C394 C 0.17747 0.8753 0.72501 0.0
C395 C 0.17781 0.8973 0.74534 0.0
C396 C 0.20206 0.87472 0.77098 0.0
C397 C 0.19002 0.89697 0.76803 0.0
C398 C 0.18911 0.85244 0.72843 0.0
C399 C 0.24545 0.73651 0.7213 0.0
C400 C 0.21436 0.82882 0.75525 0.0
C401 C 0.14995 0.75118 0.83551 0.0
C402 C 0.14109 0.73252 0.81408 0.0
C403 C 0.29538 0.79404 0.72341 0.0
C404 C 0.30692 0.69715 0.80489 0.0
C405 C 0.31825 0.66857 0.83536 0.0
C406 C 0.29074 0.6536 0.83574 0.0
C407 C 0.27978 0.68177 0.80559 0.0
C408 C 0.32616 0.69048 0.81972 0.0
C409 C 0.27174 0.66023 0.82104 0.0
C410 C 0.29791 0.80399 0.78428 0.0
C411 C 0.31551 0.71961 0.78814 0.0
H412 H 0.16848 0.91485 0.7438 0.0
H413 H 0.21144 0.87495 0.78878 0.0
H414 H 0.19017 0.9141 0.78341 0.0
H415 H 0.18917 0.83531 0.71304 0.0
H416 H 0.28395 0.63633 0.84702 0.0
H417 H 0.26488 0.68623 0.79401 0.0
H418 H 0.34713 0.70244 0.81917 0.0
H419 H 0.25073 0.64841 0.82142 0.0
Tb420 Tb 0.26402 0.22935 0.79139 0.0
C421 C 0.32396 0.28967 0.69984 0.0
N422 N 0.31323 0.30048 0.72365 0.0
C423 C 0.35552 0.33387 0.72722 0.0
C424 C 0.35139 0.29974 0.68929 0.0
C425 C 0.32799 0.3235 0.73654 0.0
C426 C 0.36748 0.32159 0.70372 0.0
C427 C 0.31592 0.25962 0.65946 0.0
C428 C 0.30659 0.26994 0.68508 0.0
C429 C 0.34366 0.26851 0.64935 0.0
C430 C 0.36139 0.2885 0.66427 0.0
Tb431 Tb 0.26844 0.28044 0.73728 0.0
N432 N 0.28005 0.26154 0.69567 0.0
C433 C 0.29684 0.24128 0.6446 0.0
C434 C 0.26089 0.24502 0.68082 0.0
C435 C 0.26908 0.2343 0.65519 0.0
H436 H 0.31854 0.33434 0.75381 0.0
H437 H 0.25401 0.2207 0.64364 0.0
H438 H 0.19942 0.19605 0.79065 0.0
H439 H 0.3201 0.28683 0.87098 0.0
H440 H 0.23942 0.23988 0.68893 0.0
H441 H 0.30314 0.23293 0.62477 0.0
H442 H 0.31573 0.25938 0.82794 0.0
H443 H 0.36731 0.35167 0.7379 0.0
H444 H 0.35138 0.26061 0.62979 0.0
H445 H 0.3825 0.29578 0.65594 0.0
H446 H 0.15554 0.19245 0.82057 0.0
H447 H 0.38866 0.32993 0.69634 0.0
H448 H 0.27784 0.29233 0.90133 0.0
N449 N 0.22262 0.2253 0.81723 0.0
C450 C 0.22298 0.23901 0.84175 0.0
C451 C 0.17432 0.2058 0.82668 0.0
C452 C 0.19857 0.23777 0.8594 0.0
C453 C 0.19909 0.20791 0.80978 0.0
C454 C 0.17397 0.22107 0.85148 0.0
N455 N 0.27138 0.25295 0.83191 0.0
C456 C 0.29708 0.2632 0.84012 0.0
C457 C 0.24961 0.26819 0.8745 0.0
C458 C 0.24813 0.25394 0.8491 0.0
C459 C 0.27577 0.28111 0.88201 0.0
C460 C 0.29966 0.27813 0.8649 0.0
H461 H 0.15474 0.2195 0.86448 0.0
H462 H 0.18106 0.25256 0.89811 0.0
H463 H 0.22579 0.27925 0.91137 0.0
O464 O 0.27841 0.20518 0.81543 0.0
O465 O 0.23156 0.25499 0.79264 0.0
O466 O 0.25554 0.29518 0.7783 0.0
O467 O 0.25626 0.18637 0.78177 0.0
O468 O 0.30315 0.25889 0.7847 0.0
O469 O 0.28907 0.29645 0.77286 0.0
O470 O 0.23145 0.28931 0.72702 0.0
O471 O 0.28327 0.2404 0.72545 0.0
O472 O 0.3007 0.23228 0.76194 0.0
O473 O 0.27021 0.31698 0.72063 0.0
O474 O 0.23049 0.24915 0.74181 0.0
O475 O 0.24345 0.2122 0.75639 0.0
C476 C 0.23551 0.28203 0.79382 0.0
C477 C 0.27039 0.1548 0.80667 0.0
C478 C 0.29118 0.12456 0.82814 0.0
C479 C 0.27306 0.1017 0.81695 0.0
C480 C 0.25262 0.13166 0.79554 0.0
C481 C 0.25397 0.10528 0.80071 0.0
C482 C 0.28977 0.15115 0.82289 0.0
C483 C 0.3066 0.28556 0.78335 0.0
C484 C 0.26845 0.18256 0.80132 0.0
C485 C 0.19966 0.25292 0.88434 0.0
C486 C 0.22512 0.26819 0.89185 0.0
C487 C 0.30022 0.22893 0.73635 0.0
C488 C 0.22987 0.33661 0.73161 0.0
C489 C 0.1989 0.36855 0.72851 0.0
C490 C 0.20309 0.38029 0.75431 0.0
C491 C 0.23421 0.34912 0.75705 0.0
C492 C 0.21234 0.34647 0.71731 0.0
C493 C 0.22068 0.37065 0.7684 0.0
C494 C 0.22794 0.22255 0.74302 0.0
C495 C 0.24344 0.31323 0.72003 0.0
H496 H 0.27388 0.081 0.82053 0.0
H497 H 0.23752 0.13394 0.78298 0.0
H498 H 0.24017 0.08755 0.7921 0.0
H499 H 0.30352 0.16891 0.8316 0.0
H500 H 0.19335 0.39745 0.76338 0.0
H501 H 0.24822 0.34234 0.76802 0.0
H502 H 0.20909 0.33691 0.69759 0.0
H503 H 0.22407 0.38011 0.78809 0.0
Tb504 Tb 0.73384 0.29695 0.7667 0.0
C505 C 0.80166 0.23583 0.8113 0.0
N506 N 0.81246 0.25758 0.79773 0.0
C507 C 0.83962 0.27855 0.83301 0.0
C508 C 0.80761 0.23555 0.83708 0.0
C509 C 0.83332 0.27744 0.80731 0.0
C510 C 0.82604 0.25791 0.84828 0.0
C511 C 0.77723 0.18852 0.81045 0.0
C512 C 0.78715 0.21256 0.79817 0.0
C513 C 0.78104 0.18882 0.83686 0.0
C514 C 0.79629 0.21232 0.85016 0.0
Tb515 Tb 0.79694 0.25503 0.75725 0.0
N516 N 0.78406 0.21317 0.77274 0.0
C517 C 0.76454 0.16479 0.79556 0.0
C518 C 0.77331 0.18971 0.75764 0.0
C519 C 0.76304 0.16526 0.7689 0.0
H520 H 0.84519 0.29256 0.79525 0.0
H521 H 0.75386 0.14686 0.75707 0.0
H522 H 0.72307 0.31149 0.7091 0.0
H523 H 0.71566 0.3527 0.8625 0.0
H524 H 0.772 0.19007 0.73709 0.0
H525 H 0.75656 0.14586 0.80425 0.0
H526 H 0.72015 0.31154 0.8307 0.0
H527 H 0.85527 0.29506 0.84083 0.0
H528 H 0.77321 0.1707 0.84684 0.0
H529 H 0.80019 0.21189 0.87015 0.0
H530 H 0.72075 0.35279 0.68875 0.0
H531 H 0.83121 0.25857 0.86805 0.0
H532 H 0.7191 0.39806 0.84678 0.0
N533 N 0.72824 0.33347 0.74687 0.0
C534 C 0.72818 0.35782 0.76209 0.0
C535 C 0.72301 0.35457 0.70942 0.0
C536 C 0.72651 0.38192 0.75157 0.0
C537 C 0.72432 0.3312 0.72101 0.0
C538 C 0.72458 0.38017 0.7247 0.0
N539 N 0.72668 0.33344 0.79741 0.0
C540 C 0.72158 0.33121 0.82365 0.0
C541 C 0.72477 0.38186 0.80584 0.0
C542 C 0.72732 0.3578 0.78856 0.0
C543 C 0.72117 0.38008 0.83279 0.0
C544 C 0.71913 0.3545 0.84172 0.0
H545 H 0.72332 0.3982 0.71577 0.0
H546 H 0.72474 0.4254 0.76074 0.0
H547 H 0.72319 0.42535 0.80845 0.0
O548 O 0.69045 0.29568 0.77236 0.0
O549 O 0.76575 0.30855 0.73425 0.0
O550 O 0.8067 0.29532 0.7416 0.0
O551 O 0.70692 0.25854 0.76128 0.0
O552 O 0.76421 0.3087 0.79616 0.0
O553 O 0.80581 0.29823 0.77499 0.0
O554 O 0.81632 0.24647 0.71904 0.0
O555 O 0.75377 0.23916 0.77217 0.0
O556 O 0.7432 0.27645 0.79798 0.0
O557 O 0.83418 0.2395 0.75241 0.0
O558 O 0.76347 0.23773 0.73226 0.0
O559 O 0.74452 0.27536 0.7276 0.0
C560 C 0.79297 0.30961 0.72996 0.0
C561 C 0.66565 0.25482 0.78929 0.0
C562 C 0.64576 0.25345 0.83478 0.0
C563 C 0.63123 0.2266 0.82824 0.0
C564 C 0.65126 0.22788 0.78307 0.0
C565 C 0.63412 0.21387 0.80249 0.0
C566 C 0.66285 0.26742 0.81514 0.0
C567 C 0.7917 0.31321 0.79279 0.0
C568 C 0.68469 0.26883 0.76899 0.0
C569 C 0.72568 0.40653 0.76841 0.0
C570 C 0.72479 0.4065 0.79557 0.0
C571 C 0.74266 0.24998 0.79456 0.0
C572 C 0.86468 0.26077 0.71979 0.0
C573 C 0.90848 0.27035 0.69209 0.0
C574 C 0.91339 0.29748 0.70445 0.0
C575 C 0.8704 0.28775 0.73265 0.0
C576 C 0.884 0.25201 0.69968 0.0
C577 C 0.89446 0.30604 0.72484 0.0
C578 C 0.74712 0.24937 0.72094 0.0
C579 C 0.83857 0.2422 0.72763 0.0
H580 H 0.61786 0.21544 0.84302 0.0
H581 H 0.65349 0.21762 0.76326 0.0
H582 H 0.62312 0.19307 0.79759 0.0
H583 H 0.67362 0.28832 0.81993 0.0
H584 H 0.93219 0.31173 0.69876 0.0
H585 H 0.8563 0.29475 0.74878 0.0
H586 H 0.88009 0.23107 0.68998 0.0
H587 H 0.8985 0.32684 0.73474 0.0
Tb588 Tb 0.75224 0.75854 0.73384 0.0
C589 C 0.80711 0.81768 0.83284 0.0
N590 N 0.81989 0.80834 0.80936 0.0
C591 C 0.85418 0.84999 0.81044 0.0
C592 C 0.81711 0.84391 0.84581 0.0
C593 C 0.84349 0.82384 0.79828 0.0
C594 C 0.84087 0.86014 0.83422 0.0
C595 C 0.76958 0.81001 0.86789 0.0
C596 C 0.78361 0.80093 0.84375 0.0
C597 C 0.77941 0.83618 0.88083 0.0
C598 C 0.80311 0.85308 0.86982 0.0
Tb599 Tb 0.80001 0.76549 0.79159 0.0
N600 N 0.77406 0.7761 0.83021 0.0
C601 C 0.74602 0.79253 0.87823 0.0
C602 C 0.75205 0.75841 0.84092 0.0
C603 C 0.73742 0.7665 0.86481 0.0
H604 H 0.8546 0.81585 0.78045 0.0
H605 H 0.71968 0.75253 0.873 0.0
H606 H 0.69815 0.70733 0.74231 0.0
H607 H 0.83131 0.77701 0.65212 0.0
H608 H 0.74592 0.73792 0.83148 0.0
H609 H 0.73461 0.79874 0.89671 0.0
H610 H 0.80381 0.78974 0.69345 0.0
H611 H 0.87283 0.8622 0.80155 0.0
H612 H 0.76884 0.84356 0.89935 0.0
H613 H 0.81045 0.87321 0.88005 0.0
H614 H 0.68121 0.66117 0.71996 0.0
H615 H 0.84923 0.88041 0.84358 0.0
H616 H 0.81906 0.73058 0.62788 0.0
N617 N 0.73326 0.71619 0.71422 0.0
C618 C 0.7467 0.70772 0.69078 0.0
C619 C 0.69982 0.67395 0.71166 0.0
C620 C 0.73753 0.68165 0.6771 0.0
C621 C 0.70975 0.69996 0.72454 0.0
C622 C 0.71388 0.66465 0.68793 0.0
N623 N 0.77841 0.75008 0.69473 0.0
C624 C 0.79928 0.769 0.68413 0.0
C625 C 0.7845 0.71729 0.6564 0.0
C626 C 0.76995 0.72528 0.68063 0.0
C627 C 0.80732 0.73589 0.64645 0.0
C628 C 0.81444 0.76204 0.66018 0.0
H629 H 0.70613 0.64447 0.67801 0.0
H630 H 0.74559 0.65341 0.64239 0.0
H631 H 0.78667 0.68463 0.62424 0.0
O632 O 0.7445 0.79382 0.71989 0.0
O633 O 0.78015 0.72783 0.73137 0.0
O634 O 0.8183 0.7493 0.75282 0.0
O635 O 0.71563 0.75558 0.71608 0.0
O636 O 0.78427 0.7961 0.74049 0.0
O637 O 0.82062 0.78291 0.75635 0.0
O638 O 0.80597 0.73156 0.80898 0.0
O639 O 0.7715 0.79551 0.7934 0.0
O640 O 0.73339 0.77226 0.7732 0.0
O641 O 0.8367 0.7687 0.80919 0.0
O642 O 0.76877 0.72745 0.78521 0.0
O643 O 0.73214 0.73908 0.76825 0.0
C644 C 0.80654 0.73024 0.73527 0.0
C645 C 0.69655 0.79593 0.7251 0.0
C646 C 0.66678 0.82933 0.72289 0.0
C647 C 0.65271 0.82299 0.74735 0.0
C648 C 0.68139 0.78934 0.74894 0.0
C649 C 0.65988 0.80304 0.76012 0.0
C650 C 0.68912 0.81588 0.71203 0.0
C651 C 0.81092 0.7993 0.7436 0.0
C652 C 0.71979 0.78171 0.71388 0.0
C653 C 0.75224 0.67342 0.65315 0.0
C654 C 0.77566 0.69119 0.64282 0.0
C655 C 0.74466 0.79147 0.79081 0.0
C656 C 0.85324 0.72718 0.8061 0.0
C657 C 0.88085 0.69453 0.81534 0.0
C658 C 0.89745 0.69849 0.79138 0.0
C659 C 0.87013 0.7307 0.78242 0.0
C660 C 0.85844 0.7089 0.82236 0.0
C661 C 0.89194 0.71624 0.77503 0.0
C662 C 0.74233 0.72305 0.78106 0.0
C663 C 0.83094 0.74337 0.81443 0.0
H664 H 0.63603 0.83341 0.75669 0.0
H665 H 0.68604 0.7734 0.75884 0.0
H666 H 0.64856 0.79804 0.77869 0.0
H667 H 0.70029 0.82035 0.69324 0.0
H668 H 0.91524 0.68847 0.78546 0.0
H669 H 0.86679 0.74507 0.7699 0.0
H670 H 0.84509 0.7061 0.84049 0.0
H671 H 0.90498 0.71923 0.75678 0.0
Fe672 Fe 1.0194 0.05125 0.51576 0.0
O673 O 0.98689 0.01907 0.52813 0.0
Fe674 Fe 0.07448 1.00882 0.50088 0.0
Fe675 Fe 0.94347 0.01379 0.53288 0.0
O676 O 0.03391 0.01439 0.50999 0.0
O677 O 0.03378 1.00964 0.51457 0.0
O678 O 0.97983 1.00805 0.51433 0.0
Fe679 Fe 0.99845 0.97751 0.51675 0.0
C680 C 0.97544 0.05921 0.55904 0.0
O681 O 0.99193 0.04729 0.4864 0.0
O682 O 0.94567 0.03734 0.50296 0.0
O683 O 1.00279 0.9689 0.47632 0.0
O684 O 0.03471 1.00017 0.49036 0.0
O685 O 0.08263 0.04314 0.48092 0.0
O686 O 0.05095 0.07084 0.49072 0.0
O687 O 0.93408 0.97738 0.50831 0.0
O688 O 0.96204 0.94884 0.51498 0.0
C689 C 0.07352 0.06474 0.47829 0.0
O690 O 0.0227 0.94881 0.52118 0.0
O691 O 0.06728 0.97345 0.51957 0.0
O692 O 0.9903 0.04245 0.54688 0.0
O693 O 0.94994 0.05037 0.558 0.0
C694 C 0.96554 0.04715 0.486 0.0
C695 C 0.94071 0.9534 0.50566 0.0
C696 C 0.96548 0.98312 0.57103 0.0
O697 O 0.94539 0.99103 0.56246 0.0
O698 O 0.98963 0.98278 0.5578 0.0
C699 C 0.02564 0.98362 0.47018 0.0
O700 O 0.08026 0.03415 0.53571 0.0
O701 O 0.04544 0.05901 0.54532 0.0
C702 C 0.04876 0.95212 0.52464 0.0
C703 C 0.06772 0.05199 0.55035 0.0
Fe704 Fe 0.52193 0.98129 1.00316 0.0
O705 O 0.54226 0.0147 0.9868 0.0
Fe706 Fe 0.45957 1.00207 0.03105 0.0
Fe707 Fe 0.58319 0.0246 0.98185 0.0
O708 O 0.50035 1.00846 0.02469 0.0
O709 O 0.50039 1.01154 0.02536 0.0
O710 O 0.54224 0.01783 0.98741 0.0
Fe711 Fe 0.52061 0.04495 1.009 0.0
C712 C 0.57502 0.9899 0.02795 0.0
O713 O 0.54874 0.95738 0.97768 0.0
O714 O 0.57874 0.98966 0.9547 0.0
O715 O 0.49331 0.03846 0.981 0.0
O716 O 0.45325 0.02852 1.00627 0.0
O717 O 0.45418 0.9705 1.0006 0.0
O718 O 0.49451 0.97286 0.97485 0.0
O719 O 0.57603 0.05261 0.95916 0.0
O720 O 0.54555 0.07606 0.98722 0.0
C721 C 0.46802 0.9661 0.97832 0.0
O722 O 0.49392 0.06876 0.03493 0.0
O723 O 0.46491 0.03652 0.05878 0.0
O724 O 0.54872 0.98806 0.03143 0.0
O725 O 0.5896 0.99899 1.00776 0.0
C726 C 0.56806 0.96433 0.95856 0.0
C727 C 0.56347 0.07349 0.96634 0.0
C728 C 0.57404 0.0622 0.03329 0.0
O729 O 0.58789 0.05742 1.01116 0.0
O730 O 0.54798 0.05314 0.03731 0.0
C731 C 0.46702 0.03677 0.98541 0.0
O732 O 0.46669 0.97318 0.05291 0.0
O733 O 0.49726 0.95012 0.02466 0.0
C734 C 0.47525 0.06184 0.05458 0.0
C735 C 0.47948 0.9525 0.04558 0.0
Fe736 Fe 0.02988 0.54631 0.01784 0.0
O737 O 1.00557 0.51339 0.03216 0.0
Fe738 Fe 0.08937 0.51893 0.99148 0.0
Fe739 Fe 0.96455 0.50785 0.03596 0.0
O740 O 0.04894 0.51731 0.99592 0.0
O741 O 0.04829 0.51398 0.99452 0.0
O742 O 1.00492 0.51011 0.03078 0.0
Fe743 Fe 0.02365 0.48109 1.00872 0.0
C744 C 0.98439 0.5658 0.06199 0.0
O745 O 1.00457 0.54362 0.98861 0.0
O746 O 0.9628 0.53688 0.0117 0.0
O747 O 0.04842 0.45517 0.98276 0.0
O748 O 0.08208 0.4866 0.96221 0.0
O749 O 0.08832 0.55114 0.97095 0.0
O750 O 0.05858 0.57637 0.99799 0.0
O751 O 0.95737 0.47729 1.00514 0.0
O752 O 0.9973 0.47669 0.97943 0.0
C753 C 0.07816 0.57347 0.97864 0.0
O754 O 0.04856 0.48336 0.03796 0.0
O755 O 0.09038 0.4891 0.01534 0.0
O756 O 1.00488 0.57224 0.04362 0.0
O757 O 0.97191 0.54068 0.06467 0.0
C758 C 0.97879 0.54492 0.9918 0.0
C759 C 0.97067 0.47111 0.98303 0.0
C760 C 0.9777 0.45466 0.04963 0.0
O761 O 0.96715 0.47676 0.05713 0.0
O762 O 0.99524 0.45096 0.02874 0.0
C763 C 0.06906 0.46155 0.96452 0.0
O764 O 0.09633 0.54873 0.02278 0.0
O765 O 0.05604 0.55116 0.04744 0.0
C766 C 0.074 0.48099 0.03499 0.0
C767 C 0.0827 0.55587 0.04441 0.0
Fe768 Fe 0.5235 0.50844 0.98112 0.0
O769 O 0.54462 0.53312 1.00855 0.0
Fe770 Fe 0.45723 0.49065 0.01345 0.0
Fe771 Fe 0.58518 0.53664 1.00952 0.0
O772 O 0.4977 0.49495 0.01148 0.0
O773 O 0.49785 0.49469 0.01408 0.0
O774 O 0.54476 0.53285 1.0111 0.0
Fe775 Fe 0.51859 0.5199 0.04146 0.0
C776 C 0.57137 0.47891 0.98135 0.0
O777 O 0.55385 0.52607 0.95275 0.0
O778 O 0.5863 0.55592 0.97667 0.0
O779 O 0.49675 0.55 0.0384 0.0
O780 O 0.4538 0.52533 0.03951 0.0
O781 O 0.4581 0.5141 0.98345 0.0
O782 O 0.50114 0.53864 0.97784 0.0
O783 O 0.58021 0.56912 0.03807 0.0
O784 O 0.54379 0.54902 0.06611 0.0
C785 C 0.4751 0.53493 0.97568 0.0
O786 O 0.48816 0.50247 0.06988 0.0
O787 O 0.45698 0.47091 0.04591 0.0
O788 O 0.54522 0.4779 0.98313 0.0
O789 O 0.58856 0.50158 0.98399 0.0
C790 C 0.57509 0.54629 0.95513 0.0
C791 C 0.5651 0.56837 0.0606 0.0
C792 C 0.56639 0.49336 0.04817 0.0
O793 O 0.58381 0.51372 0.04005 0.0
O794 O 0.54054 0.48985 0.04554 0.0
C795 C 0.47052 0.54838 0.04027 0.0
O796 O 0.46229 0.45869 0.98422 0.0
O797 O 0.49814 0.47997 0.95638 0.0
C798 C 0.46821 0.48101 0.06735 0.0
C799 C 0.47705 0.46033 0.96156 0.0
Fe800 Fe 0.03181 0.45183 0.50909 0.0
O801 O 0.03695 0.49209 0.51032 0.0
Fe802 Fe 0.02935 0.50758 0.47655 0.0
Fe803 Fe 1.01832 0.5163 0.53885 0.0
O804 O 0.03818 0.49181 0.50716 0.0
O805 O 1.0104 0.53154 0.50504 0.0
O806 O 1.0092 0.53184 0.50823 0.0
Fe807 Fe 1.01538 0.57174 0.506 0.0
C808 C 0.97789 0.46329 0.54332 0.0
O809 O 0.05442 0.46318 0.54087 0.0
O810 O 0.03237 0.4962 0.5666 0.0
O811 O 0.0497 0.57428 0.47862 0.0
O812 O 0.06664 0.53564 0.47598 0.0
O813 O 0.05177 0.47933 0.451 0.0
O814 O 0.0646 0.45417 0.47984 0.0
O815 O 0.05533 0.54395 0.54045 0.0
O816 O 0.0418 0.5827 0.53535 0.0
C817 C 0.06648 0.46211 0.45679 0.0
O818 O 0.9924 0.55996 0.47458 0.0
O819 O 1.01548 0.52772 0.44883 0.0
O820 O 0.99701 0.44916 0.53607 0.0
O821 O 0.98108 0.48855 0.53975 0.0
C822 C 0.04949 0.47866 0.56271 0.0
C823 C 0.05847 0.57011 0.5436 0.0
C824 C 0.98185 0.56243 0.5589 0.0
O825 O 0.9963 0.54488 0.56452 0.0
O826 O 0.98302 0.56973 0.53568 0.0
C827 C 0.06942 0.56079 0.4721 0.0
O828 O 0.99233 0.47978 0.4744 0.0
O829 O 1.00612 0.44113 0.47909 0.0
C830 C 0.99784 0.54473 0.45272 0.0
C831 C 0.98959 0.45366 0.47055 0.0
Fe832 Fe 0.5392 0.9565 0.5157 0.0
O833 O 0.54032 0.99618 0.51633 0.0
Fe834 Fe 0.53033 1.00967 0.48245 0.0
Fe835 Fe 0.51945 0.01853 0.54472 0.0
O836 O 0.54147 0.99592 0.51318 0.0
O837 O 0.50947 0.03211 0.51091 0.0
O838 O 0.50843 0.03246 0.51407 0.0
Fe839 Fe 0.51081 0.07199 0.51215 0.0
C840 C 0.48365 0.96287 0.54913 0.0
O841 O 0.56186 0.97075 0.54718 0.0
O842 O 0.53555 1.0005 0.57259 0.0
O843 O 0.54561 0.07755 0.48537 0.0
O844 O 0.56549 0.04039 0.48137 0.0
O845 O 0.55488 0.98325 0.45701 0.0
O846 O 0.57146 0.96097 0.486 0.0
O847 O 0.55451 0.04903 0.54633 0.0
O848 O 0.53639 0.08537 0.54213 0.0
C849 C 0.5716 0.96794 0.46279 0.0
O850 O 0.48867 0.05817 0.48021 0.0
O851 O 0.51405 0.0276 0.45466 0.0
O852 O 0.50486 0.95138 0.54299 0.0
O853 O 0.48423 0.98777 0.54546 0.0
C854 C 0.55471 0.98515 0.56904 0.0
C855 C 0.55496 0.07488 0.55002 0.0
C856 C 0.47787 0.05998 0.56457 0.0
O857 O 0.4948 0.04486 0.57027 0.0
O858 O 0.47805 0.06714 0.54143 0.0
C859 C 0.56631 0.06549 0.47825 0.0
O860 O 0.49544 0.97896 0.48061 0.0
O861 O 0.51301 0.94265 0.48639 0.0
C862 C 0.49517 0.04328 0.45841 0.0
C863 C 0.49487 0.95307 0.47774 0.0
C864 C 0.18977 0.21054 0.30582 0.0
C865 C 0.21641 0.20503 0.29615 0.0
C866 C 0.17312 0.19555 0.32498 0.0
C867 C 0.16406 0.13046 0.35499 0.0
H868 H 0.12498 0.16945 0.41375 0.0
C869 C 0.11583 0.07787 0.44662 0.0
C870 C 0.08969 0.08282 0.45876 0.0
C871 C 0.13041 0.09332 0.42697 0.0
C872 C 0.13545 0.15815 0.39734 0.0
H873 H 0.24609 0.17894 0.29859 0.0
H874 H 0.21713 0.15281 0.33177 0.0
H875 H 0.15136 0.19463 0.37855 0.0
H876 H 0.05875 0.10853 0.45978 0.0
H877 H 0.08415 0.13538 0.42528 0.0
H878 H 0.14826 0.09402 0.37362 0.0
C879 C 0.20897 0.16861 0.32455 0.0
C880 C 0.1506 0.17261 0.37711 0.0
C881 C 0.22566 0.18367 0.30554 0.0
C882 C 0.07885 0.10416 0.45101 0.0
C883 C 0.09348 0.11963 0.43122 0.0
C884 C 0.1489 0.11602 0.37513 0.0
C885 C 0.18258 0.17451 0.33475 0.0
C886 C 0.16534 0.159 0.35577 0.0
C887 C 0.11932 0.11417 0.41867 0.0
C888 C 0.1346 0.12967 0.39677 0.0
H889 H 0.18208 0.22697 0.29914 0.0
H890 H 0.1528 0.20047 0.33215 0.0
H891 H 0.17467 0.11916 0.33867 0.0
H892 H 0.12507 0.06181 0.45209 0.0
H893 H 0.1505 0.08887 0.41827 0.0
C894 C 0.83612 0.14661 0.36235 0.0
C895 C 0.84125 0.14767 0.33523 0.0
C896 C 0.85592 0.1399 0.37599 0.0
C897 C 0.91344 0.10215 0.36771 0.0
H898 H 0.9235 0.13783 0.43811 0.0
C899 C 0.97457 0.06551 0.44209 0.0
C900 C 0.95711 0.06042 0.46532 0.0
C901 C 0.96629 0.0793 0.42351 0.0
C902 C 0.92117 0.12789 0.41835 0.0
H903 H 0.87117 0.14262 0.30108 0.0
H904 H 0.90592 0.13078 0.32506 0.0
H905 H 0.89793 0.15711 0.41031 0.0
H906 H 0.91754 0.06624 0.48735 0.0
H907 H 0.90354 0.09019 0.45538 0.0
H908 H 0.93584 0.07227 0.37637 0.0
C909 C 0.88654 0.13519 0.33569 0.0
C910 C 0.90642 0.13881 0.40252 0.0
C911 C 0.86675 0.14212 0.32204 0.0
C912 C 0.93143 0.06947 0.4696 0.0
C913 C 0.92348 0.08351 0.45141 0.0
C914 C 0.92834 0.09124 0.38361 0.0
C915 C 0.88129 0.13399 0.36282 0.0
C916 C 0.90137 0.1254 0.37746 0.0
C917 C 0.94081 0.08871 0.4283 0.0
C918 C 0.93128 0.10343 0.40942 0.0
H919 H 0.81678 0.15105 0.37306 0.0
H920 H 0.85107 0.13873 0.39683 0.0
H921 H 0.90984 0.09135 0.34849 0.0
H922 H 0.99451 0.05886 0.43827 0.0
H923 H 0.9799 0.08301 0.4057 0.0
C924 C 0.85131 0.80593 0.31312 0.0
C925 C 0.83107 0.81722 0.30373 0.0
C926 C 0.86414 0.81903 0.33524 0.0
C927 C 0.8501 0.86328 0.39565 0.0
H928 H 0.92985 0.87729 0.39958 0.0
C929 C 0.90044 0.93573 0.47946 0.0
C930 C 0.92544 0.93173 0.48736 0.0
C931 C 0.88846 0.91875 0.45861 0.0
C932 C 0.90748 0.87303 0.39906 0.0
H933 H 0.80896 0.85147 0.3097 0.0
H934 H 0.8312 0.87423 0.34851 0.0
H935 H 0.91117 0.85492 0.35895 0.0
H936 H 0.95656 0.90554 0.48034 0.0
H937 H 0.93509 0.8752 0.44431 0.0
H938 H 0.84609 0.88078 0.4357 0.0
C939 C 0.83715 0.85526 0.33869 0.0
C940 C 0.89684 0.86041 0.37567 0.0
C941 C 0.82467 0.84241 0.31631 0.0
C942 C 0.93725 0.90917 0.47485 0.0
C943 C 0.92513 0.89201 0.45393 0.0
C944 C 0.86066 0.87551 0.4191 0.0
C945 C 0.85664 0.84345 0.34864 0.0
C946 C 0.86808 0.8559 0.37361 0.0
C947 C 0.90094 0.89703 0.4451 0.0
C948 C 0.88955 0.88109 0.42102 0.0
H949 H 0.85662 0.78649 0.30385 0.0
H950 H 0.87904 0.80945 0.34251 0.0
H951 H 0.82778 0.85949 0.39479 0.0
H952 H 0.89067 0.95284 0.48862 0.0
H953 H 0.87008 0.92362 0.45233 0.0
C954 C 0.12132 0.81216 0.34709 0.0
C955 C 0.13668 0.81222 0.32238 0.0
C956 C 0.10973 0.83503 0.35806 0.0
C957 C 0.09073 0.89923 0.34613 0.0
H958 H 0.11009 0.92266 0.41696 0.0
C959 C 0.02947 0.96054 0.42489 0.0
C960 C 0.04279 0.97602 0.44594 0.0
C961 C 0.04486 0.94819 0.40373 0.0
C962 C 0.1051 0.9169 0.39697 0.0
H963 H 0.14973 0.83448 0.28853 0.0
H964 H 0.12928 0.87457 0.30776 0.0
H965 H 0.12593 0.8826 0.39224 0.0
H966 H 0.08283 0.9933 0.46006 0.0
H967 H 0.10984 0.97198 0.42297 0.0
H968 H 0.06927 0.93334 0.35125 0.0
C969 C 0.12641 0.85706 0.3187 0.0
C970 C 0.11368 0.8936 0.38304 0.0
C971 C 0.1381 0.83423 0.30777 0.0
C972 C 0.07196 0.9814 0.44428 0.0
C973 C 0.08743 0.96909 0.42303 0.0
C974 C 0.08201 0.92262 0.36016 0.0
C975 C 0.11329 0.85811 0.34438 0.0
C976 C 0.10576 0.88403 0.3579 0.0
C977 C 0.07384 0.95112 0.40334 0.0
C978 C 0.0884 0.93112 0.38602 0.0
H979 H 0.12005 0.7954 0.35867 0.0
H980 H 0.09915 0.83525 0.37776 0.0
H981 H 0.08472 0.89236 0.32659 0.0
H982 H 1.00695 0.9565 0.42554 0.0
H983 H 0.03373 0.93438 0.38896 0.0
C984 C 0.16998 0.90236 0.69006 0.0
C985 C 0.16546 0.87703 0.70039 0.0
C986 C 0.1574 0.90505 0.6682 0.0
C987 C 0.14001 0.90428 0.6147 0.0
H988 H 0.06375 0.868 0.60705 0.0
C989 C 0.08628 0.92765 0.53162 0.0
C990 C 0.0586 0.93166 0.53765 0.0
C991 C 0.09849 0.91462 0.54801 0.0
C992 C 0.08501 0.87844 0.6089 0.0
H993 H 0.14457 0.83435 0.69505 0.0
H994 H 0.12309 0.83885 0.65624 0.0
H995 H 0.08719 0.85876 0.6426 0.0
H996 H 1.02126 0.92268 0.56427 0.0
H997 H 0.0428 0.90128 0.59385 0.0
H998 H 0.13763 0.92529 0.58234 0.0
C999 C 0.13601 0.85683 0.66553 0.0
C1000 C 0.09863 0.87282 0.62916 0.0
C1001 C 0.1486 0.85415 0.68761 0.0
C1002 C 0.0427 0.9202 0.5593 0.0
C1003 C 0.05514 0.90777 0.5762 0.0
C1004 C 0.1264 0.9101 0.59474 0.0
C1005 C 0.1401 0.88242 0.65561 0.0
C1006 C 0.12619 0.88608 0.63264 0.0
C1007 C 0.08364 0.90589 0.5714 0.0
C1008 C 0.09855 0.89754 0.5916 0.0
H1009 H 0.18318 0.92036 0.69901 0.0
H1010 H 0.16084 0.92521 0.66157 0.0
H1011 H 0.16139 0.91452 0.61628 0.0
H1012 H 0.09901 0.93585 0.51481 0.0
H1013 H 0.12007 0.91254 0.54283 0.0
C1014 C 0.20988 0.17509 0.72223 0.0
C1015 C 0.20786 0.20312 0.72735 0.0
C1016 C 0.19251 0.15702 0.70572 0.0
C1017 C 0.12682 0.14703 0.67634 0.0
H1018 H 0.16363 0.10207 0.62072 0.0
C1019 C 0.07361 0.09179 0.58571 0.0
C1020 C 0.08044 0.06643 0.57401 0.0
C1021 C 0.08726 0.10667 0.60665 0.0
C1022 C 0.15286 0.11403 0.63639 0.0
H1023 H 0.18527 0.23395 0.71996 0.0
H1024 H 0.15474 0.20221 0.69117 0.0
H1025 H 0.19065 0.13138 0.65348 0.0
H1026 H 0.10606 0.03621 0.57595 0.0
H1027 H 0.12939 0.06185 0.61292 0.0
H1028 H 0.08897 0.12965 0.65933 0.0
C1029 C 0.16984 0.19432 0.69996 0.0
C1030 C 0.16841 0.13091 0.65511 0.0
C1031 C 0.18741 0.21249 0.71633 0.0
C1032 C 0.10053 0.05583 0.58434 0.0
C1033 C 0.114 0.07061 0.60545 0.0
C1034 C 0.11117 0.12992 0.65773 0.0
C1035 C 0.17256 0.16651 0.69417 0.0
C1036 C 0.1556 0.14775 0.67513 0.0
C1037 C 0.10792 0.09647 0.61655 0.0
C1038 C 0.12406 0.11339 0.63737 0.0
H1039 H 0.2254 0.16716 0.7304 0.0
H1040 H 0.19484 0.13562 0.70178 0.0
H1041 H 0.1164 0.15962 0.69174 0.0
H1042 H 0.05845 0.10071 0.57809 0.0
H1043 H 0.08229 0.12667 0.6144 0.0
C1044 C 0.9437 0.24075 0.6773 0.0
C1045 C 0.92952 0.26075 0.6721 0.0
C1046 C 0.96235 0.23006 0.65793 0.0
C1047 C 1.00594 0.21444 0.61462 0.0
H1048 H 0.96036 0.17538 0.56082 0.0
C1049 C 0.9828 0.10498 0.54296 0.0
C1050 C 0.98604 0.08883 0.56194 0.0
C1051 C 0.98926 0.13368 0.54771 0.0
C1052 C 0.97414 0.18659 0.57491 0.0
H1053 H 0.92418 0.28638 0.64349 0.0
H1054 H 0.95616 0.26658 0.60881 0.0
H1055 H 0.94711 0.21564 0.58712 0.0
H1056 H 1.00048 0.089 0.59948 0.0
H1057 H 1.0104 0.13894 0.60865 0.0
H1058 H 0.03214 0.1844 0.60339 0.0
C1059 C 0.95328 0.2597 0.62803 0.0
C1060 C 0.96641 0.20979 0.59008 0.0
C1061 C 0.93497 0.27082 0.64768 0.0
C1062 C 0.99764 0.10134 0.58479 0.0
C1063 C 1.00369 0.12999 0.58977 0.0
C1064 C 1.01397 0.19146 0.59914 0.0
C1065 C 0.96674 0.23887 0.63291 0.0
C1066 C 0.98104 0.22256 0.6113 0.0
C1067 C 0.99837 0.14656 0.5718 0.0
C1068 C 0.99684 0.17597 0.58058 0.0
H1069 H 0.93981 0.23294 0.69616 0.0
H1070 H 0.972 0.21362 0.66205 0.0
H1071 H 1.0178 0.22433 0.63065 0.0
H1072 H 0.97418 0.09547 0.525 0.0
H1073 H 0.98552 0.14575 0.53319 0.0
C1074 C 0.82239 0.84408 0.72411 0.0
C1075 C 0.83111 0.82107 0.73086 0.0
C1076 C 0.84127 0.86386 0.71095 0.0
C1077 C 0.9061 0.87211 0.66669 0.0
H1078 H 0.90606 0.95023 0.6851 0.0
C1079 C 0.97318 0.95183 0.60254 0.0
C1080 C 0.95854 0.97106 0.59623 0.0
C1081 C 0.96236 0.93586 0.62307 0.0
C1082 C 0.9063 0.92849 0.6796 0.0
H1083 H 0.86648 0.8007 0.72899 0.0
H1084 H 0.89935 0.83514 0.70588 0.0
H1085 H 0.87683 0.91719 0.7123 0.0
H1086 H 0.92246 0.99055 0.60834 0.0
H1087 H 0.90371 0.96299 0.64353 0.0
H1088 H 0.93457 0.88316 0.63337 0.0
C1089 C 0.87795 0.83795 0.71088 0.0
C1090 C 0.88953 0.90957 0.69522 0.0
C1091 C 0.85916 0.81834 0.72429 0.0
C1092 C 0.9342 0.97567 0.61236 0.0
C1093 C 0.92347 0.9599 0.6328 0.0
C1094 C 0.9227 0.89101 0.65091 0.0
C1095 C 0.86921 0.86088 0.70397 0.0
C1096 C 0.88882 0.88113 0.68867 0.0
C1097 C 0.93681 0.93908 0.63789 0.0
C1098 C 0.92256 0.91943 0.65682 0.0
H1099 H 0.80091 0.8467 0.72884 0.0
H1100 H 0.83381 0.88113 0.70563 0.0
H1101 H 0.90588 0.8503 0.66101 0.0
H1102 H 0.99212 0.94804 0.59076 0.0
H1103 H 0.97353 0.92041 0.62678 0.0
C1104 C 0.34643 0.22216 0.20692 0.0
C1105 C 0.31718 0.21384 0.20869 0.0
C1106 C 0.3642 0.20698 0.19002 0.0
C1107 C 0.36805 0.15692 0.12993 0.0
H1108 H 0.43247 0.14143 0.15669 0.0
C1109 C 0.45489 0.1058 0.06297 0.0
C1110 C 0.46238 0.0835 0.07252 0.0
C1111 C 0.43816 0.12292 0.07909 0.0
C1112 C 0.41464 0.14558 0.1488 0.0
H1113 H 0.28427 0.18184 0.19435 0.0
H1114 H 0.3151 0.15623 0.16374 0.0
H1115 H 0.40096 0.16787 0.18518 0.0
H1116 H 0.45864 0.06253 0.10699 0.0
H1117 H 0.43075 0.09278 0.13513 0.0
H1118 H 0.38197 0.13477 0.09343 0.0
C1119 C 0.32423 0.17475 0.17547 0.0
C1120 C 0.39656 0.16091 0.16517 0.0
C1121 C 0.30643 0.18966 0.19288 0.0
C1122 C 0.45358 0.07959 0.09893 0.0
C1123 C 0.43747 0.09699 0.11513 0.0
C1124 C 0.38649 0.14203 0.11336 0.0
C1125 C 0.35348 0.18305 0.1739 0.0
C1126 C 0.37283 0.16671 0.15611 0.0
C1127 C 0.42895 0.11862 0.1054 0.0
C1128 C 0.41 0.1359 0.12258 0.0
H1129 H 0.35578 0.24056 0.21868 0.0
H1130 H 0.3865 0.21422 0.18935 0.0
H1131 H 0.35017 0.16106 0.12213 0.0
H1132 H 0.46079 0.10921 0.04267 0.0
H1133 H 0.43224 0.13943 0.07087 0.0
C1134 C 0.82025 0.29296 0.18171 0.0
C1135 C 0.81344 0.30531 0.20722 0.0
C1136 C 0.83998 0.30731 0.1642 0.0
C1137 C 0.87587 0.37818 0.15284 0.0
H1138 H 0.92745 0.34047 0.10495 0.0
C1139 C 0.96611 0.43978 0.09382 0.0
C1140 C 0.96794 0.4325 0.06658 0.0
C1141 C 0.9503 0.42175 0.11064 0.0
C1142 C 0.91307 0.35118 0.11813 0.0
H1143 H 0.82193 0.34236 0.2344 0.0
H1144 H 0.85654 0.36744 0.20401 0.0
H1145 H 0.89307 0.31463 0.13532 0.0
H1146 H 0.95643 0.39992 0.03557 0.0
H1147 H 0.92856 0.36792 0.06527 0.0
H1148 H 0.89603 0.41471 0.13601 0.0
C1149 C 0.84632 0.3468 0.19729 0.0
C1150 C 0.89329 0.33641 0.13547 0.0
C1151 C 0.82645 0.33247 0.21475 0.0
C1152 C 0.95554 0.40587 0.05653 0.0
C1153 C 0.93952 0.38768 0.0735 0.0
C1154 C 0.89573 0.39289 0.13578 0.0
C1155 C 0.85342 0.33439 0.17178 0.0
C1156 C 0.87448 0.34979 0.15313 0.0
C1157 C 0.93576 0.39602 0.10064 0.0
C1158 C 0.91468 0.37965 0.11835 0.0
H1159 H 0.81041 0.27207 0.1753 0.0
H1160 H 0.8445 0.29719 0.14466 0.0
H1161 H 0.86136 0.38909 0.1656 0.0
H1162 H 0.97563 0.46016 0.10205 0.0
H1163 H 0.94831 0.4285 0.13148 0.0
C1164 C 0.70516 0.89173 0.16751 0.0
C1165 C 0.68749 0.8748 0.18467 0.0
C1166 C 0.69409 0.9042 0.14975 0.0
C1167 C 0.62964 0.89978 0.11793 0.0
H1168 H 0.66071 0.97561 0.10683 0.0
C1169 C 0.57276 0.96372 0.06631 0.0
C1170 C 0.58879 0.97903 0.04697 0.0
C1171 C 0.5856 0.95156 0.08289 0.0
C1172 C 0.65196 0.95435 0.10957 0.0
H1173 H 0.64433 0.857 0.19591 0.0
H1174 H 0.62511 0.87927 0.16571 0.0
H1175 H 0.6819 0.95266 0.13542 0.0
H1176 H 0.63102 0.99426 0.03056 0.0
H1177 H 0.65339 0.97315 0.05971 0.0
H1178 H 0.59944 0.90163 0.09243 0.0
C1179 C 0.64753 0.88277 0.16568 0.0
C1180 C 0.66416 0.94114 0.12587 0.0
C1181 C 0.65857 0.87028 0.18331 0.0
C1182 C 0.61802 0.98256 0.04518 0.0
C1183 C 0.63087 0.97057 0.06194 0.0
C1184 C 0.61736 0.91303 0.10181 0.0
C1185 C 0.6651 0.89999 0.14872 0.0
C1186 C 0.65302 0.91374 0.13042 0.0
C1187 C 0.61478 0.95458 0.08071 0.0
C1188 C 0.62825 0.94052 0.09757 0.0
H1189 H 0.72751 0.89577 0.16812 0.0
H1190 H 0.70827 0.91707 0.13677 0.0
H1191 H 0.62083 0.8785 0.12051 0.0
H1192 H 0.5502 0.96056 0.0683 0.0
H1193 H 0.57265 0.9397 0.09742 0.0
C1194 C 0.25776 0.68518 0.18729 0.0
C1195 C 0.24838 0.69345 0.21342 0.0
C1196 C 0.23915 0.66929 0.17025 0.0
C1197 C 0.16736 0.62594 0.16816 0.0
H1198 H 0.17768 0.64325 0.09665 0.0
C1199 C 0.0874 0.57983 0.09098 0.0
C1200 C 0.0995 0.5711 0.06581 0.0
C1201 C 0.10425 0.59458 0.11024 0.0
C1202 C 0.17453 0.63799 0.11652 0.0
H1203 H 0.21229 0.69022 0.24243 0.0
H1204 H 0.17991 0.6631 0.21285 0.0
H1205 H 0.21002 0.66791 0.1273 0.0
H1206 H 0.13918 0.57103 0.04169 0.0
H1207 H 0.16778 0.59626 0.07468 0.0
H1208 H 0.13155 0.5961 0.15715 0.0
C1209 C 0.20161 0.6686 0.20536 0.0
C1210 C 0.19327 0.65207 0.13413 0.0
C1211 C 0.22022 0.68434 0.22237 0.0
C1212 C 0.12878 0.57737 0.06065 0.0
C1213 C 0.14539 0.59212 0.07963 0.0
C1214 C 0.14846 0.61191 0.1505 0.0
C1215 C 0.21062 0.66122 0.17887 0.0
C1216 C 0.19025 0.64609 0.16019 0.0
C1217 C 0.1335 0.60118 0.10464 0.0
C1218 C 0.15202 0.61749 0.12431 0.0
H1219 H 0.27923 0.69187 0.17967 0.0
H1220 H 0.24713 0.6636 0.15018 0.0
H1221 H 0.16433 0.62051 0.18795 0.0
H1222 H 0.06501 0.5754 0.09575 0.0
H1223 H 0.09436 0.60128 0.12932 0.0
C1224 C 0.34384 0.82001 0.80314 0.0
C1225 C 0.31692 0.82446 0.80081 0.0
C1226 C 0.36095 0.83762 0.82035 0.0
C1227 C 0.35722 0.88373 0.88167 0.0
H1228 H 0.43616 0.90895 0.86296 0.0
C1229 C 0.42446 0.95521 0.95594 0.0
C1230 C 0.45222 0.9522 0.95608 0.0
C1231 C 0.40877 0.94152 0.93579 0.0
C1232 C 0.41425 0.90181 0.86872 0.0
H1233 H 0.28752 0.85186 0.81455 0.0
H1234 H 0.31721 0.88221 0.84502 0.0
H1235 H 0.40745 0.88206 0.82996 0.0
H1236 H 0.48543 0.93271 0.93484 0.0
H1237 H 0.45776 0.9078 0.90014 0.0
H1238 H 0.36389 0.90229 0.92055 0.0
C1239 C 0.32495 0.86495 0.83338 0.0
C1240 C 0.39775 0.88651 0.84968 0.0
C1241 C 0.30795 0.84755 0.81582 0.0
C1242 C 0.4641 0.93549 0.93526 0.0
C1243 C 0.4482 0.92132 0.91527 0.0
C1244 C 0.37375 0.89866 0.90079 0.0
C1245 C 0.35156 0.86002 0.83605 0.0
C1246 C 0.36901 0.8773 0.85592 0.0
C1247 C 0.42014 0.92391 0.91534 0.0
C1248 C 0.40256 0.90802 0.89467 0.0
H1249 H 0.35164 0.80251 0.7921 0.0
H1250 H 0.3812 0.83308 0.82205 0.0
H1251 H 0.33527 0.87654 0.88727 0.0
H1252 H 0.41482 0.96836 0.97141 0.0
H1253 H 0.38765 0.94488 0.93632 0.0
C1254 C 0.18985 0.28589 0.82214 0.0
C1255 C 0.21683 0.29818 0.81238 0.0
C1256 C 0.17251 0.30123 0.83955 0.0
C1257 C 0.1743 0.36987 0.88241 0.0
H1258 H 0.0939 0.35134 0.88332 0.0
C1259 C 0.10372 0.44753 0.92723 0.0
C1260 C 0.08123 0.43949 0.94617 0.0
C1261 C 0.11825 0.42835 0.91201 0.0
C1262 C 0.11631 0.35662 0.88351 0.0
H1263 H 0.24645 0.33664 0.81352 0.0
H1264 H 0.2161 0.36364 0.84207 0.0
H1265 H 0.1232 0.32259 0.85468 0.0
H1266 H 0.05597 0.40383 0.96257 0.0
H1267 H 0.08105 0.36992 0.93503 0.0
H1268 H 0.16733 0.40458 0.91034 0.0
C1269 C 0.20832 0.34186 0.83729 0.0
C1270 C 0.13329 0.34004 0.86706 0.0
C1271 C 0.22577 0.32638 0.82035 0.0
C1272 C 0.07302 0.41102 0.9483 0.0
C1273 C 0.08747 0.39155 0.93253 0.0
C1274 C 0.1574 0.38661 0.8984 0.0
C1275 C 0.18133 0.32963 0.84745 0.0
C1276 C 0.16273 0.34652 0.86592 0.0
C1277 C 0.11076 0.40012 0.91461 0.0
C1278 C 0.12817 0.38047 0.89905 0.0
H1279 H 0.18196 0.26439 0.81612 0.0
H1280 H 0.15221 0.29061 0.84689 0.0
H1281 H 0.1966 0.37544 0.88311 0.0
H1282 H 0.11088 0.46903 0.92447 0.0
H1283 H 0.13569 0.43575 0.89818 0.0
C1284 C 0.70992 0.20604 0.80374 0.0
C1285 C 0.72357 0.23255 0.81271 0.0
C1286 C 0.69088 0.19028 0.82078 0.0
C1287 C 0.64664 0.19622 0.88492 0.0
H1288 H 0.64234 0.11711 0.87746 0.0
C1289 C 0.58419 0.12278 0.96016 0.0
C1290 C 0.57232 0.09611 0.94967 0.0
C1291 C 0.60003 0.14156 0.94361 0.0
C1292 C 0.64292 0.13914 0.87962 0.0
H1293 H 0.72877 0.26301 0.84666 0.0
H1294 H 0.69603 0.23533 0.87661 0.0
H1295 H 0.67622 0.14472 0.84885 0.0
H1296 H 0.56574 0.06891 0.91377 0.0
H1297 H 0.59232 0.10169 0.88502 0.0
H1298 H 0.61344 0.1904 0.91612 0.0
C1299 C 0.69939 0.2269 0.85628 0.0
C1300 C 0.66244 0.15504 0.86314 0.0
C1301 C 0.71825 0.24274 0.83917 0.0
C1302 C 0.57466 0.08936 0.92236 0.0
C1303 C 0.59022 0.10803 0.90592 0.0
C1304 C 0.62708 0.18025 0.90154 0.0
C1305 C 0.68519 0.20054 0.8473 0.0
C1306 C 0.66452 0.18379 0.86538 0.0
C1307 C 0.60419 0.13391 0.91635 0.0
C1308 C 0.62482 0.15144 0.89894 0.0
H1309 H 0.71339 0.19774 0.78339 0.0
H1310 H 0.68011 0.17028 0.81295 0.0
H1311 H 0.64738 0.21827 0.88712 0.0
H1312 H 0.58312 0.12832 0.98118 0.0
H1313 H 0.61049 0.16131 0.95232 0.0
C1314 C 0.8837 0.68275 0.86062 0.0
C1315 C 0.88773 0.67634 0.8332 0.0
C1316 C 0.89178 0.66665 0.87722 0.0
C1317 C 0.94302 0.62575 0.8813 0.0
H1318 H 0.89196 0.5914 0.93576 0.0
C1319 C 0.97935 0.55786 0.94668 0.0
C1320 C 0.96731 0.55793 0.97276 0.0
C1321 C 0.96863 0.57066 0.92896 0.0
C1322 C 0.90671 0.60121 0.921 0.0
H1323 H 0.90245 0.64688 0.80209 0.0
H1324 H 0.91779 0.61984 0.83115 0.0
H1325 H 0.87494 0.61739 0.90686 0.0
H1326 H 0.93491 0.57188 1.00088 0.0
H1327 H 0.91716 0.59533 0.97062 0.0
H1328 H 0.97515 0.61107 0.89594 0.0
C1329 C 0.90825 0.63735 0.83959 0.0
C1330 C 0.8968 0.61592 0.90432 0.0
C1331 C 0.89962 0.65303 0.82298 0.0
C1332 C 0.94443 0.57116 0.9808 0.0
C1333 C 0.93411 0.58449 0.96329 0.0
C1334 C 0.9531 0.61161 0.89832 0.0
C1335 C 0.90456 0.64412 0.86682 0.0
C1336 C 0.91486 0.62825 0.88431 0.0
C1337 C 0.94599 0.58443 0.93705 0.0
C1338 C 0.9351 0.59908 0.91847 0.0
H1339 H 0.8751 0.7007 0.86936 0.0
H1340 H 0.88888 0.67234 0.89821 0.0
H1341 H 0.95739 0.63535 0.86612 0.0
H1342 H 0.99688 0.54763 0.93988 0.0
H1343 H 0.97805 0.56956 0.90887 0.0
C1344 C 0.12265 0.34402 0.19638 0.0
C1345 C 0.14968 0.33811 0.19425 0.0
C1346 C 0.11551 0.35969 0.17889 0.0
C1347 C 0.13673 0.38459 0.11387 0.0
H1348 H 0.09045 0.43864 0.14205 0.0
C1349 C 0.11184 0.46216 0.05081 0.0
C1350 C 0.0842 0.46664 0.05401 0.0
C1351 C 0.12089 0.44731 0.06798 0.0
C1352 C 0.10317 0.42348 0.13379 0.0
H1353 H 0.19029 0.34381 0.17169 0.0
H1354 H 0.17782 0.37126 0.14108 0.0
H1355 H 0.10407 0.41071 0.17127 0.0
H1356 H 0.04452 0.45911 0.07811 0.0
H1357 H 0.06023 0.43324 0.10779 0.0
H1358 H 0.13571 0.39737 0.07633 0.0
C1359 C 0.16206 0.36352 0.15621 0.0
C1360 C 0.11097 0.40741 0.15056 0.0
C1361 C 0.16922 0.34776 0.17375 0.0
C1362 C 0.06599 0.45623 0.07505 0.0
C1363 C 0.07505 0.44145 0.09219 0.0
C1364 C 0.12892 0.4007 0.09706 0.0
C1365 C 0.13519 0.36996 0.15876 0.0
C1366 C 0.12765 0.38757 0.14082 0.0
C1367 C 0.10256 0.43664 0.08882 0.0
C1368 C 0.11185 0.42021 0.10678 0.0
H1369 H 0.10691 0.33645 0.2116 0.0
H1370 H 0.09444 0.36367 0.1811 0.0
H1371 H 0.14934 0.36933 0.10563 0.0
H1372 H 0.12647 0.46988 0.03488 0.0
H1373 H 0.14231 0.4443 0.06499 0.0
C1374 C 0.22344 0.7391 0.83927 0.0
C1375 C 0.22448 0.72633 0.81335 0.0
C1376 C 0.20566 0.72636 0.85916 0.0
C1377 C 0.14313 0.67171 0.87034 0.0
H1378 H 0.17057 0.67337 0.9373 0.0
C1379 C 0.07735 0.61401 0.9547 0.0
C1380 C 0.09219 0.59755 0.96514 0.0
C1381 C 0.09156 0.63387 0.93847 0.0
C1382 C 0.16251 0.67279 0.91875 0.0
H1383 H 0.20833 0.68996 0.7879 0.0
H1384 H 0.17764 0.6674 0.82264 0.0
H1385 H 0.19954 0.69865 0.90361 0.0
H1386 H 0.13336 0.58978 0.96806 0.0
H1387 H 0.15792 0.62424 0.94041 0.0
H1388 H 0.10656 0.64479 0.88523 0.0
C1389 C 0.19007 0.68754 0.82761 0.0
C1390 C 0.17906 0.68749 0.89947 0.0
C1391 C 0.20792 0.70026 0.80775 0.0
C1392 C 0.12138 0.60218 0.96022 0.0
C1393 C 0.1355 0.62209 0.94447 0.0
C1394 C 0.12653 0.65699 0.88968 0.0
C1395 C 0.18858 0.70048 0.85357 0.0
C1396 C 0.16987 0.68667 0.87479 0.0
C1397 C 0.12083 0.63784 0.93292 0.0
C1398 C 0.13632 0.65681 0.91391 0.0
H1399 H 0.23613 0.75914 0.84412 0.0
H1400 H 0.20494 0.73705 0.87884 0.0
H1401 H 0.13517 0.67104 0.85173 0.0
H1402 H 0.05481 0.61066 0.95804 0.0
H1403 H 0.07967 0.64579 0.92996 0.0
C1404 C 0.30256 0.10316 0.86513 0.0
C1405 C 0.31139 0.1204 0.84529 0.0
C1406 C 0.32165 0.0979 0.8805 0.0
C1407 C 0.39506 0.09445 0.87959 0.0
H1408 H 0.37524 0.09168 0.95413 0.0
C1409 C 0.46589 0.0639 0.94827 0.0
C1410 C 0.45183 0.04669 0.96698 0.0
C1411 C 0.45085 0.07531 0.93286 0.0
C1412 C 0.38102 0.09218 0.9333 0.0
H1413 H 0.34703 0.14593 0.82611 0.0
H1414 H 0.38066 0.13652 0.85303 0.0
H1415 H 0.34508 0.1085 0.929 0.0
H1416 H 0.41107 0.02671 0.98308 0.0
H1417 H 0.38511 0.04615 0.95613 0.0
H1418 H 0.43069 0.07739 0.88386 0.0
C1419 C 0.35891 0.12713 0.85662 0.0
C1420 C 0.36378 0.1019 0.91895 0.0
C1421 C 0.33968 0.13267 0.84139 0.0
C1422 C 0.42257 0.04025 0.96918 0.0
C1423 C 0.40764 0.05154 0.95383 0.0
C1424 C 0.41233 0.08459 0.89398 0.0
C1425 C 0.35006 0.10959 0.87625 0.0
C1426 C 0.37024 0.10252 0.89184 0.0
C1427 C 0.42152 0.06967 0.9359 0.0
C1428 C 0.40507 0.0827 0.92088 0.0
H1429 H 0.28085 0.09361 0.86867 0.0
H1430 H 0.31425 0.08408 0.8953 0.0
H1431 H 0.40048 0.09458 0.85868 0.0
H1432 H 0.48843 0.06927 0.94612 0.0
H1433 H 0.46212 0.08919 0.91918 0.0
C1434 C 0.79813 0.33991 0.83742 0.0
C1435 C 0.80824 0.33395 0.81105 0.0
C1436 C 0.81573 0.35613 0.85523 0.0
C1437 C 0.88483 0.40427 0.85953 0.0
H1438 H 0.87774 0.38149 0.92881 0.0
C1439 C 0.96539 0.44967 0.93584 0.0
C1440 C 0.95372 0.45578 0.96179 0.0
C1441 C 0.94847 0.43521 0.91655 0.0
C1442 C 0.87994 0.38831 0.90961 0.0
H1443 H 0.84427 0.34175 0.78241 0.0
H1444 H 0.87482 0.36946 0.8132 0.0
H1445 H 0.8459 0.35712 0.89756 0.0
H1446 H 0.91477 0.45128 0.9874 0.0
H1447 H 0.88596 0.42654 0.95429 0.0
H1448 H 0.91919 0.43532 0.87171 0.0
C1449 C 0.85339 0.36189 0.82037 0.0
C1450 C 0.86148 0.37437 0.89166 0.0
C1451 C 0.83583 0.34582 0.80265 0.0
C1452 C 0.92479 0.44703 0.96777 0.0
C1453 C 0.9081 0.43256 0.94872 0.0
C1454 C 0.90342 0.41814 0.8775 0.0
C1455 C 0.84385 0.36687 0.84708 0.0
C1456 C 0.86345 0.38221 0.86636 0.0
C1457 C 0.91958 0.42628 0.92285 0.0
C1458 C 0.90108 0.41052 0.9029 0.0
H1459 H 0.77703 0.33107 0.84456 0.0
H1460 H 0.80735 0.35991 0.8755 0.0
H1461 H 0.88697 0.41119 0.84039 0.0
H1462 H 0.98751 0.45606 0.93043 0.0
H1463 H 0.95806 0.43065 0.89682 0.0
C1464 C 0.69736 0.79779 0.81412 0.0
C1465 C 0.72614 0.80793 0.80927 0.0
C1466 C 0.67976 0.81329 0.83092 0.0
C1467 C 0.67665 0.88557 0.86268 0.0
H1468 H 0.61046 0.84976 0.90251 0.0
C1469 C 0.5947 0.94885 0.91595 0.0
C1470 C 0.5811 0.94269 0.94066 0.0
C1471 C 0.61099 0.93125 0.90045 0.0
C1472 C 0.62893 0.86025 0.89174 0.0
H1473 H 0.75892 0.84233 0.81937 0.0
H1474 H 0.72868 0.86892 0.84916 0.0
H1475 H 0.64202 0.82206 0.87605 0.0
H1476 H 0.57368 0.91215 0.96781 0.0
H1477 H 0.60228 0.88135 0.94081 0.0
H1478 H 0.66412 0.92374 0.87882 0.0
C1479 C 0.71934 0.84926 0.83937 0.0
C1480 C 0.64701 0.84422 0.87616 0.0
C1481 C 0.73689 0.83381 0.82239 0.0
C1482 C 0.5835 0.91756 0.94884 0.0
C1483 C 0.60008 0.89988 0.93328 0.0
C1484 C 0.65866 0.90154 0.87824 0.0
C1485 C 0.69032 0.83945 0.84379 0.0
C1486 C 0.67119 0.85656 0.86118 0.0
C1487 C 0.6147 0.90676 0.90902 0.0
C1488 C 0.63427 0.88925 0.89292 0.0
H1489 H 0.6883 0.77768 0.80499 0.0
H1490 H 0.65769 0.80482 0.83339 0.0
H1491 H 0.69468 0.89614 0.85141 0.0
H1492 H 0.59328 0.96782 0.90871 0.0
H1493 H 0.62096 0.93714 0.88169 0.0
C1494 C 0.85727 0.74021 0.19929 0.0
C1495 C 0.83095 0.72687 0.20983 0.0
C1496 C 0.87566 0.72527 0.18278 0.0
C1497 C 0.89384 0.65629 0.16975 0.0
H1498 H 0.92933 0.67574 0.10197 0.0
C1499 C 0.95001 0.5793 0.09968 0.0
C1500 C 0.97181 0.58768 0.08027 0.0
C1501 C 0.93526 0.59806 0.11526 0.0
C1502 C 0.92011 0.67014 0.12103 0.0
H1503 H 0.80289 0.68741 0.20915 0.0
H1504 H 0.83543 0.66126 0.18198 0.0
H1505 H 0.89901 0.70493 0.12875 0.0
H1506 H 0.9952 0.62355 0.06297 0.0
H1507 H 0.97015 0.65681 0.09116 0.0
H1508 H 0.91539 0.6224 0.16311 0.0
C1509 C 0.84195 0.6833 0.18667 0.0
C1510 C 0.9025 0.68691 0.13635 0.0
C1511 C 0.82335 0.6983 0.2026 0.0
C1512 C 0.97877 0.6161 0.07768 0.0
C1513 C 0.96405 0.6352 0.09376 0.0
C1514 C 0.91182 0.63995 0.15481 0.0
C1515 C 0.86849 0.69647 0.17668 0.0
C1516 C 0.88866 0.67987 0.16071 0.0
C1517 C 0.94181 0.62644 0.1128 0.0
C1518 C 0.92482 0.64603 0.12979 0.0
H1519 H 0.86387 0.76221 0.20411 0.0
H1520 H 0.89586 0.73616 0.17541 0.0
H1521 H 0.88405 0.65049 0.18861 0.0
H1522 H 0.94351 0.55778 0.10259 0.0
H1523 H 0.91801 0.58981 0.12881 0.0
C1524 C 0.33952 0.78181 0.18023 0.0
C1525 C 0.34026 0.78981 0.20719 0.0
C1526 C 0.35633 0.79793 0.16206 0.0
C1527 C 0.39373 0.86857 0.15513 0.0
H1528 H 0.4366 0.83502 0.09545 0.0
C1529 C 0.47181 0.93701 0.08971 0.0
C1530 C 0.47196 0.93013 0.06253 0.0
C1531 C 0.45862 0.91802 0.10683 0.0
C1532 C 0.42459 0.84469 0.11187 0.0
H1533 H 0.35849 0.82117 0.23645 0.0
H1534 H 0.38773 0.84945 0.20485 0.0
H1535 H 0.40658 0.80594 0.12621 0.0
H1536 H 0.4596 0.89759 0.03178 0.0
H1537 H 0.43595 0.86422 0.06178 0.0
H1538 H 0.41103 0.90713 0.14087 0.0
C1539 C 0.37425 0.83072 0.19763 0.0
C1540 C 0.40739 0.82803 0.12949 0.0
C1541 C 0.35758 0.81452 0.21574 0.0
C1542 C 0.4601 0.90324 0.05268 0.0
C1543 C 0.44646 0.88421 0.06991 0.0
C1544 C 0.41072 0.88513 0.13755 0.0
C1545 C 0.37401 0.82252 0.17056 0.0
C1546 C 0.3919 0.83984 0.15141 0.0
C1547 C 0.44466 0.89176 0.09725 0.0
C1548 C 0.42663 0.87353 0.11578 0.0
H1549 H 0.32575 0.76317 0.17322 0.0
H1550 H 0.35529 0.79131 0.14136 0.0
H1551 H 0.38166 0.87826 0.17151 0.0
H1552 H 0.48088 0.95762 0.09778 0.0
H1553 H 0.45847 0.92435 0.12769 0.0
C1554 C 0.70582 0.1879 0.21337 0.0
C1555 C 0.72061 0.21418 0.20847 0.0
C1556 C 0.68901 0.17174 0.19509 0.0
C1557 C 0.68174 0.15779 0.12582 0.0
H1558 H 0.60359 0.12964 0.14545 0.0
C1559 C 0.61099 0.10151 0.04759 0.0
C1560 C 0.58886 0.08028 0.05424 0.0
C1561 C 0.62604 0.11813 0.06686 0.0
C1562 C 0.62546 0.13685 0.13962 0.0
H1563 H 0.7297 0.24408 0.18061 0.0
H1564 H 0.70107 0.2153 0.14809 0.0
H1565 H 0.63212 0.15748 0.17815 0.0
H1566 H 0.56506 0.05977 0.08634 0.0
H1567 H 0.59218 0.08784 0.12003 0.0
H1568 H 0.6759 0.13639 0.08778 0.0
C1569 C 0.7022 0.20745 0.16627 0.0
C1570 C 0.64174 0.15299 0.1584 0.0
C1571 C 0.71849 0.22391 0.18485 0.0
C1572 C 0.58191 0.07614 0.08069 0.0
C1573 C 0.59745 0.09239 0.1 0.0
C1574 C 0.6657 0.14118 0.1072 0.0
C1575 C 0.68719 0.18128 0.17129 0.0
C1576 C 0.66996 0.16382 0.15159 0.0
C1577 C 0.61992 0.11357 0.09336 0.0
C1578 C 0.63718 0.13067 0.11367 0.0
H1579 H 0.70693 0.18002 0.23155 0.0
H1580 H 0.67775 0.1516 0.19937 0.0
H1581 H 0.70357 0.16557 0.12017 0.0
H1582 H 0.61658 0.10546 0.02738 0.0
H1583 H 0.64245 0.13466 0.06082 0.0
C1584 C 0.69377 0.70017 0.79593 0.0
C1585 C 0.72266 0.70085 0.79362 0.0
C1586 C 0.67523 0.68006 0.80883 0.0
C1587 C 0.67093 0.61358 0.83601 0.0
H1588 H 0.60784 0.63664 0.88036 0.0
C1589 C 0.61809 0.5651 0.92796 0.0
C1590 C 0.58886 0.55868 0.93154 0.0
C1591 C 0.63176 0.57873 0.90692 0.0
C1592 C 0.62507 0.62977 0.86768 0.0
H1593 H 0.75472 0.68101 0.80335 0.0
H1594 H 0.72259 0.64673 0.82682 0.0
H1595 H 0.63738 0.66829 0.85207 0.0
H1596 H 0.5509 0.56093 0.9158 0.0
H1597 H 0.57504 0.58599 0.87915 0.0
H1598 H 0.65943 0.57567 0.85314 0.0
C1599 C 0.71406 0.66108 0.81784 0.0
C1600 C 0.64204 0.64787 0.8514 0.0
C1601 C 0.73258 0.68095 0.80458 0.0
C1602 C 0.57347 0.56562 0.91334 0.0
C1603 C 0.58721 0.57995 0.89253 0.0
C1604 C 0.65422 0.59569 0.8526 0.0
C1605 C 0.68512 0.66042 0.82026 0.0
C1606 C 0.66554 0.64022 0.83571 0.0
C1607 C 0.61649 0.58673 0.8893 0.0
C1608 C 0.63145 0.60382 0.86891 0.0
H1609 H 0.68537 0.71551 0.78822 0.0
H1610 H 0.65312 0.68008 0.80998 0.0
H1611 H 0.68838 0.60666 0.82377 0.0
H1612 H 0.63042 0.55982 0.94167 0.0
H1613 H 0.65432 0.58395 0.905 0.0
C1614 C 0.32925 0.652 0.87586 0.0
C1615 C 0.33836 0.66079 0.85103 0.0
C1616 C 0.34723 0.64265 0.88984 0.0
C1617 C 0.41293 0.61453 0.88086 0.0
H1618 H 0.40387 0.6244 0.95678 0.0
C1619 C 0.47958 0.56997 0.94382 0.0
C1620 C 0.4636 0.55471 0.9632 0.0
C1621 C 0.46732 0.58648 0.93061 0.0
C1622 C 0.40668 0.62146 0.93557 0.0
H1623 H 0.37414 0.6672 0.82188 0.0
H1624 H 0.40579 0.65167 0.84662 0.0
H1625 H 0.37731 0.64701 0.93286 0.0
H1626 H 0.42261 0.54587 0.98471 0.0
H1627 H 0.4016 0.57493 0.96229 0.0
H1628 H 0.44236 0.58887 0.8838 0.0
C1629 C 0.38445 0.65149 0.85506 0.0
C1630 C 0.39131 0.63432 0.92179 0.0
C1631 C 0.36636 0.66077 0.84098 0.0
C1632 C 0.4355 0.55722 0.96979 0.0
C1633 C 0.42346 0.57403 0.95702 0.0
C1634 C 0.42853 0.60187 0.89469 0.0
C1635 C 0.37507 0.64199 0.87961 0.0
C1636 C 0.39367 0.63055 0.89421 0.0
C1637 C 0.43903 0.58855 0.93697 0.0
C1638 C 0.42513 0.60467 0.92222 0.0
H1639 H 0.30801 0.65209 0.88451 0.0
H1640 H 0.33895 0.63523 0.90844 0.0
H1641 H 0.41521 0.61082 0.85969 0.0
H1642 H 0.50125 0.56844 0.93827 0.0
H1643 H 0.47992 0.59755 0.91536 0.0
C1644 C 0.35419 0.29442 0.79815 0.0
C1645 C 0.3297 0.30396 0.79601 0.0
C1646 C 0.37506 0.31097 0.81211 0.0
C1647 C 0.40371 0.3415 0.85898 0.0
H1648 H 0.42245 0.42079 0.85857 0.0
C1649 C 0.44801 0.41567 0.94482 0.0
C1650 C 0.46744 0.4396 0.93967 0.0
C1651 C 0.43608 0.39781 0.92443 0.0
C1652 C 0.41781 0.39862 0.85864 0.0
H1653 H 0.30814 0.33852 0.80598 0.0
H1654 H 0.34451 0.36744 0.83043 0.0
H1655 H 0.39251 0.39293 0.82705 0.0
H1656 H 0.49054 0.46277 0.90879 0.0
H1657 H 0.46964 0.43144 0.87312 0.0
H1658 H 0.42868 0.34722 0.89079 0.0
C1659 C 0.34778 0.3473 0.82114 0.0
C1660 C 0.4004 0.38271 0.84078 0.0
C1661 C 0.3269 0.33073 0.8072 0.0
C1662 C 0.47562 0.44455 0.91348 0.0
C1663 C 0.46351 0.42672 0.89305 0.0
C1664 C 0.42106 0.35741 0.87686 0.0
C1665 C 0.37189 0.33743 0.82413 0.0
C1666 C 0.3927 0.35404 0.8411 0.0
C1667 C 0.44319 0.40346 0.89837 0.0
C1668 C 0.42783 0.38621 0.87725 0.0
H1669 H 0.35696 0.27394 0.78943 0.0
H1670 H 0.39355 0.30293 0.81375 0.0
H1671 H 0.39802 0.31949 0.85989 0.0
H1672 H 0.44134 0.41109 0.96472 0.0
H1673 H 0.42032 0.38022 0.92923 0.0
C1674 C 0.66519 0.28435 0.87288 0.0
C1675 C 0.64213 0.26796 0.86156 0.0
C1676 C 0.66137 0.30265 0.89539 0.0
C1677 C 0.60751 0.328 0.9455 0.0
H1678 H 0.64924 0.39939 0.92955 0.0
C1679 C 0.56407 0.42775 0.96971 0.0
C1680 C 0.58215 0.45286 0.97571 0.0
C1681 C 0.57435 0.40324 0.96366 0.0
C1682 C 0.63784 0.37965 0.93481 0.0
H1683 H 0.59716 0.25602 0.86614 0.0
H1684 H 0.59031 0.28854 0.90498 0.0
H1685 H 0.66261 0.35796 0.90557 0.0
H1686 H 0.62494 0.47168 0.98163 0.0
H1687 H 0.64287 0.42881 0.9709 0.0
H1688 H 0.58168 0.35016 0.97371 0.0
C1689 C 0.61143 0.28699 0.89684 0.0
C1690 C 0.64556 0.35577 0.92107 0.0
C1691 C 0.61531 0.2684 0.87447 0.0
C1692 C 0.61054 0.45276 0.97658 0.0
C1693 C 0.62081 0.42822 0.97056 0.0
C1694 C 0.59972 0.35198 0.95922 0.0
C1695 C 0.63437 0.30525 0.90676 0.0
C1696 C 0.62985 0.3297 0.92554 0.0
C1697 C 0.6029 0.40329 0.96357 0.0
C1698 C 0.6142 0.37803 0.95327 0.0
H1699 H 0.68614 0.28416 0.86354 0.0
H1700 H 0.67951 0.31598 0.9029 0.0
H1701 H 0.5953 0.3082 0.94968 0.0
H1702 H 0.54204 0.42705 0.96906 0.0
H1703 H 0.56009 0.38444 0.95796 0.0
C1704 C 0.68454 0.37899 0.18429 0.0
C1705 C 0.66883 0.37669 0.20877 0.0
C1706 C 0.67302 0.38631 0.16354 0.0
C1707 C 0.60679 0.39237 0.13977 0.0
H1708 H 0.65151 0.45522 0.10867 0.0
C1709 C 0.55957 0.46055 0.08218 0.0
C1710 C 0.57675 0.47428 0.06242 0.0
C1711 C 0.5705 0.44493 0.09737 0.0
C1712 C 0.63882 0.4373 0.1166 0.0
H1713 H 0.62844 0.37872 0.23042 0.0
H1714 H 0.6081 0.3908 0.19413 0.0
H1715 H 0.67113 0.43322 0.13886 0.0
H1716 H 0.61837 0.48085 0.04191 0.0
H1717 H 0.63712 0.45289 0.06747 0.0
H1718 H 0.57444 0.39637 0.11752 0.0
C1719 C 0.6293 0.38711 0.19088 0.0
C1720 C 0.65015 0.4247 0.13404 0.0
C1721 C 0.64094 0.38024 0.21167 0.0
C1722 C 0.6047 0.47092 0.05731 0.0
C1723 C 0.6155 0.45499 0.07215 0.0
C1724 C 0.59553 0.40476 0.12204 0.0
C1725 C 0.64543 0.39104 0.16679 0.0
C1726 C 0.63417 0.40234 0.14614 0.0
C1727 C 0.5988 0.44232 0.09288 0.0
C1728 C 0.61123 0.42771 0.11046 0.0
H1729 H 0.70616 0.37662 0.18165 0.0
H1730 H 0.68591 0.38899 0.14516 0.0
H1731 H 0.594 0.37504 0.14862 0.0
H1732 H 0.53798 0.46284 0.08667 0.0
H1733 H 0.55694 0.43581 0.11325 0.0
C1734 C 0.69685 0.7379 0.21569 0.0
C1735 C 0.71905 0.7258 0.21999 0.0
C1736 C 0.67531 0.72257 0.20169 0.0
C1737 C 0.64278 0.69059 0.15736 0.0
H1738 H 0.61925 0.61245 0.16309 0.0
C1739 C 0.59394 0.61375 0.07566 0.0
C1740 C 0.57461 0.5901 0.08184 0.0
C1741 C 0.60621 0.63247 0.09532 0.0
C1742 C 0.62514 0.63433 0.16154 0.0
H1743 H 0.73663 0.68853 0.2122 0.0
H1744 H 0.69939 0.66197 0.18768 0.0
H1745 H 0.65101 0.64061 0.19269 0.0
H1746 H 0.55178 0.56851 0.11383 0.0
H1747 H 0.57313 0.60146 0.14831 0.0
H1748 H 0.61695 0.68427 0.12615 0.0
C1749 C 0.69805 0.68298 0.19574 0.0
C1750 C 0.6437 0.65042 0.17827 0.0
C1751 C 0.71948 0.69825 0.20973 0.0
C1752 C 0.56665 0.58646 0.10835 0.0
C1753 C 0.57905 0.60523 0.1281 0.0
C1754 C 0.62414 0.67451 0.14067 0.0
C1755 C 0.67563 0.69488 0.19159 0.0
C1756 C 0.65336 0.67859 0.17592 0.0
C1757 C 0.59949 0.6281 0.12175 0.0
C1758 C 0.61568 0.64603 0.14207 0.0
H1759 H 0.69596 0.75912 0.22336 0.0
H1760 H 0.65829 0.73234 0.19897 0.0
H1761 H 0.64981 0.71218 0.15493 0.0
H1762 H 0.60041 0.6174 0.05548 0.0
H1763 H 0.62204 0.64964 0.08962 0.0
C1764 C 0.38476 0.73991 0.1469 0.0
C1765 C 0.40963 0.75459 0.1563 0.0
C1766 C 0.38519 0.72381 0.1227 0.0
C1767 C 0.43317 0.69832 0.06633 0.0
H1768 H 0.39167 0.62758 0.08426 0.0
C1769 C 0.47696 0.59977 0.04648 0.0
C1770 C 0.45919 0.57402 0.04314 0.0
C1771 C 0.46623 0.62401 0.04989 0.0
C1772 C 0.40287 0.64711 0.07831 0.0
H1773 H 0.45429 0.76569 0.14667 0.0
H1774 H 0.4554 0.73629 0.10519 0.0
H1775 H 0.38026 0.66919 0.10894 0.0
H1776 H 0.41651 0.55355 0.03875 0.0
H1777 H 0.39777 0.59601 0.04482 0.0
H1778 H 0.45725 0.67554 0.03692 0.0
C1779 C 0.43531 0.73791 0.11601 0.0
C1780 C 0.39627 0.6712 0.09252 0.0
C1781 C 0.43475 0.75466 0.13997 0.0
C1782 C 0.43067 0.57306 0.0419 0.0
C1783 C 0.41995 0.59736 0.04516 0.0
C1784 C 0.43987 0.67409 0.05213 0.0
C1785 C 0.41068 0.72111 0.10783 0.0
C1786 C 0.41233 0.69704 0.08767 0.0
C1787 C 0.43751 0.62304 0.04989 0.0
C1788 C 0.42575 0.64826 0.059 0.0
H1789 H 0.36505 0.73939 0.1589 0.0
H1790 H 0.36575 0.71173 0.11668 0.0
H1791 H 0.4455 0.71793 0.06172 0.0
H1792 H 0.4991 0.60125 0.04722 0.0
H1793 H 0.48027 0.64343 0.05392 0.0
C1794 C 0.34774 0.31559 0.21532 0.0
C1795 C 0.32087 0.3202 0.22513 0.0
C1796 C 0.36611 0.33478 0.20121 0.0
C1797 C 0.3805 0.4072 0.18742 0.0
H1798 H 0.41832 0.37809 0.12222 0.0
C1799 C 0.43273 0.4741 0.10561 0.0
C1800 C 0.45665 0.46715 0.09053 0.0
C1801 C 0.41878 0.45793 0.12496 0.0
C1802 C 0.40839 0.3866 0.1406 0.0
H1803 H 0.29242 0.34883 0.2287 0.0
H1804 H 0.32461 0.38254 0.20391 0.0
H1805 H 0.3887 0.34654 0.15042 0.0
H1806 H 0.4854 0.43868 0.08382 0.0
H1807 H 0.46145 0.41058 0.11805 0.0
H1808 H 0.40004 0.44732 0.17741 0.0
C1809 C 0.33146 0.36409 0.20721 0.0
C1810 C 0.39132 0.36848 0.15673 0.0
C1811 C 0.31299 0.34476 0.22122 0.0
C1812 C 0.4671 0.44447 0.09553 0.0
C1813 C 0.4532 0.42829 0.11489 0.0
C1814 C 0.39771 0.42537 0.1713 0.0
C1815 C 0.35809 0.3591 0.19673 0.0
C1816 C 0.37702 0.37855 0.18023 0.0
C1817 C 0.42846 0.43442 0.1294 0.0
C1818 C 0.4117 0.41529 0.14758 0.0
H1819 H 0.35435 0.29679 0.21798 0.0
H1820 H 0.38658 0.3305 0.19364 0.0
H1821 H 0.37 0.41555 0.20556 0.0
H1822 H 0.42419 0.49135 0.10168 0.0
H1823 H 0.39966 0.46309 0.1355 0.0
C1824 C 0.8535 0.71951 0.71534 0.0
C1825 C 0.82427 0.71175 0.71839 0.0
C1826 C 0.87041 0.70229 0.70003 0.0
C1827 C 0.87095 0.62953 0.66815 0.0
H1828 H 0.93709 0.66444 0.62775 0.0
C1829 C 0.95427 0.5686 0.60466 0.0
C1830 C 0.96396 0.57737 0.57984 0.0
C1831 C 0.9372 0.5836 0.62315 0.0
C1832 C 0.91871 0.65417 0.63882 0.0
H1833 H 0.79008 0.67942 0.70698 0.0
H1834 H 0.81944 0.64965 0.6798 0.0
H1835 H 0.90722 0.69271 0.65531 0.0
H1836 H 0.96306 0.60952 0.55577 0.0
H1837 H 0.93418 0.63478 0.58718 0.0
H1838 H 0.88245 0.59084 0.65089 0.0
C1839 C 0.82943 0.66892 0.68979 0.0
C1840 C 0.90157 0.67054 0.65498 0.0
C1841 C 0.81247 0.68621 0.70522 0.0
C1842 C 0.95618 0.60162 0.5744 0.0
C1843 C 0.93961 0.61653 0.59271 0.0
C1844 C 0.88829 0.61306 0.65198 0.0
C1845 C 0.85877 0.67664 0.68689 0.0
C1846 C 0.87723 0.65863 0.66987 0.0
C1847 C 0.92983 0.60802 0.61747 0.0
C1848 C 0.91231 0.62512 0.63674 0.0
H1849 H 0.86347 0.73921 0.72455 0.0
H1850 H 0.89278 0.70913 0.6987 0.0
H1851 H 0.85267 0.6194 0.67943 0.0
H1852 H 0.95962 0.5501 0.60971 0.0
H1853 H 0.93016 0.57633 0.64203 0.0
C1854 C 0.30938 0.83939 0.70521 0.0
C1855 C 0.31257 0.81183 0.70435 0.0
C1856 C 0.3255 0.85644 0.68746 0.0
C1857 C 0.36669 0.85453 0.62258 0.0
H1858 H 0.40095 0.92913 0.6473 0.0
C1859 C 0.45575 0.9179 0.56095 0.0
C1860 C 0.45873 0.94677 0.5631 0.0
C1861 C 0.43504 0.90236 0.57664 0.0
C1862 C 0.39113 0.90856 0.63991 0.0
H1863 H 0.33471 0.78045 0.68362 0.0
H1864 H 0.36308 0.81023 0.65275 0.0
H1865 H 0.37132 0.90012 0.67802 0.0
H1866 H 0.44126 0.98181 0.58274 0.0
H1867 H 0.40453 0.95449 0.61009 0.0
H1868 H 0.38638 0.86284 0.58452 0.0
C1869 C 0.3481 0.81867 0.66722 0.0
C1870 C 0.37422 0.89185 0.65759 0.0
C1871 C 0.3321 0.80167 0.68513 0.0
C1872 C 0.4395 0.95962 0.58055 0.0
C1873 C 0.41867 0.94396 0.59642 0.0
C1874 C 0.38341 0.87127 0.60488 0.0
C1875 C 0.34503 0.8463 0.6682 0.0
C1876 C 0.36212 0.86449 0.64922 0.0
C1877 C 0.41651 0.91514 0.595 0.0
C1878 C 0.39627 0.89839 0.61335 0.0
H1879 H 0.29455 0.84792 0.7198 0.0
H1880 H 0.32239 0.8775 0.68863 0.0
H1881 H 0.35725 0.83376 0.61535 0.0
H1882 H 0.47007 0.90725 0.54762 0.0
H1883 H 0.4344 0.88036 0.57508 0.0
C1884 C 0.19077 0.38539 0.68728 0.0
C1885 C 0.18145 0.38021 0.7132 0.0
C1886 C 0.17561 0.39855 0.67361 0.0
C1887 C 0.10613 0.41494 0.67146 0.0
H1888 H 0.14799 0.47203 0.63072 0.0
C1889 C 0.05227 0.47417 0.61009 0.0
C1890 C 0.06494 0.47527 0.58427 0.0
C1891 C 0.06608 0.46618 0.629 0.0
C1892 C 0.13595 0.4561 0.64194 0.0
H1893 H 0.14826 0.38379 0.74471 0.0
H1894 H 0.12173 0.40671 0.72077 0.0
H1895 H 0.17231 0.44911 0.6565 0.0
H1896 H 0.10245 0.47057 0.55838 0.0
H1897 H 0.12633 0.45698 0.59095 0.0
H1898 H 0.06982 0.42146 0.65626 0.0
C1899 C 0.14085 0.4007 0.71108 0.0
C1900 C 0.14993 0.44289 0.65665 0.0
C1901 C 0.15614 0.38773 0.72484 0.0
C1902 C 0.0921 0.4698 0.57811 0.0
C1903 C 0.1059 0.46216 0.59689 0.0
C1904 C 0.09211 0.42809 0.65659 0.0
C1905 C 0.15064 0.40667 0.68545 0.0
C1906 C 0.13529 0.42177 0.67117 0.0
C1907 C 0.0929 0.45962 0.62243 0.0
C1908 C 0.10696 0.44843 0.64119 0.0
H1909 H 0.21025 0.38005 0.6778 0.0
H1910 H 0.18351 0.40247 0.65374 0.0
H1911 H 0.09425 0.3987 0.6824 0.0
H1912 H 0.03127 0.47811 0.61531 0.0
H1913 H 0.05559 0.46463 0.64858 0.0
C1914 C 0.7324 0.20447 0.69266 0.0
C1915 C 0.7299 0.23214 0.70079 0.0
C1916 C 0.7148 0.18769 0.67525 0.0
C1917 C 0.66646 0.18993 0.62626 0.0
H1918 H 0.63684 0.11451 0.63956 0.0
C1919 C 0.57665 0.12155 0.57151 0.0
C1920 C 0.5767 0.09312 0.56538 0.0
C1921 C 0.59617 0.13845 0.58702 0.0
C1922 C 0.64517 0.13537 0.63523 0.0
H1923 H 0.7066 0.26359 0.69656 0.0
H1924 H 0.67619 0.23453 0.66625 0.0
H1925 H 0.66925 0.14381 0.66794 0.0
H1926 H 0.598 0.06045 0.5706 0.0
H1927 H 0.63221 0.08989 0.59712 0.0
H1928 H 0.64241 0.18151 0.59354 0.0
C1929 C 0.692 0.22584 0.67312 0.0
C1930 C 0.66383 0.15226 0.65161 0.0
C1931 C 0.70953 0.24259 0.6906 0.0
C1932 C 0.59716 0.0822 0.57491 0.0
C1933 C 0.61673 0.09912 0.59036 0.0
C1934 C 0.64786 0.17301 0.60982 0.0
C1935 C 0.69418 0.19804 0.66535 0.0
C1936 C 0.6747 0.17984 0.64745 0.0
C1937 C 0.61644 0.1275 0.59685 0.0
C1938 C 0.63682 0.14547 0.61408 0.0
H1939 H 0.74779 0.19559 0.69994 0.0
H1940 H 0.71744 0.16654 0.66949 0.0
H1941 H 0.67465 0.21089 0.62213 0.0
H1942 H 0.56121 0.13079 0.56468 0.0
H1943 H 0.5949 0.16006 0.59178 0.0
C1944 C 0.83299 0.29669 0.32436 0.0
C1945 C 0.81737 0.30913 0.31023 0.0
C1946 C 0.85081 0.31262 0.34199 0.0
C1947 C 0.86593 0.38177 0.38095 0.0
H1948 H 0.93689 0.36089 0.38471 0.0
C1949 C 0.95169 0.45065 0.44118 0.0
C1950 C 0.96785 0.43742 0.45401 0.0
C1951 C 0.93268 0.43537 0.42422 0.0
C1952 C 0.91702 0.36688 0.38424 0.0
H1953 H 0.80853 0.34844 0.3038 0.0
H1954 H 0.83967 0.37619 0.33441 0.0
H1955 H 0.90551 0.33398 0.35416 0.0
H1956 H 0.97586 0.39743 0.45937 0.0
H1957 H 0.94262 0.37095 0.4303 0.0
H1958 H 0.87754 0.41474 0.41107 0.0
C1959 C 0.83787 0.35399 0.33208 0.0
C1960 C 0.89895 0.35138 0.36662 0.0
C1961 C 0.82005 0.33803 0.31438 0.0
C1962 C 0.96397 0.40845 0.4498 0.0
C1963 C 0.94498 0.3932 0.43289 0.0
C1964 C 0.88404 0.3973 0.39862 0.0
C1965 C 0.85363 0.34153 0.34609 0.0
C1966 C 0.87305 0.35848 0.36474 0.0
C1967 C 0.92925 0.40641 0.41958 0.0
C1968 C 0.90984 0.39003 0.40063 0.0
H1969 H 0.83147 0.27452 0.32189 0.0
H1970 H 0.86217 0.30214 0.35265 0.0
H1971 H 0.84607 0.38774 0.38038 0.0
H1972 H 0.95412 0.47292 0.44377 0.0
H1973 H 0.92122 0.44639 0.4142 0.0
C1974 C 0.70628 0.80597 0.3222 0.0
C1975 C 0.73012 0.81807 0.30682 0.0
C1976 C 0.68851 0.8223 0.33778 0.0
C1977 C 0.66832 0.89209 0.34579 0.0
H1978 H 0.63912 0.87522 0.41585 0.0
C1979 C 0.587 0.95011 0.41528 0.0
C1980 C 0.59134 0.95536 0.44199 0.0
C1981 C 0.60347 0.93411 0.3973 0.0
C1982 C 0.64709 0.88036 0.39635 0.0
H1983 H 0.75351 0.85735 0.29605 0.0
H1984 H 0.72265 0.88544 0.32271 0.0
H1985 H 0.66811 0.8458 0.38817 0.0
H1986 H 0.61796 0.94901 0.46995 0.0
H1987 H 0.64601 0.92175 0.43916 0.0
H1988 H 0.64738 0.92689 0.35421 0.0
C1989 C 0.71754 0.86329 0.32276 0.0
C1990 C 0.66359 0.86322 0.3803 0.0
C1991 C 0.73545 0.84705 0.30751 0.0
C1992 C 0.61345 0.94524 0.44974 0.0
C1993 C 0.6296 0.92929 0.43201 0.0
C1994 C 0.65151 0.90912 0.36178 0.0
C1995 C 0.69373 0.85126 0.33819 0.0
C1996 C 0.67482 0.86893 0.35484 0.0
C1997 C 0.62454 0.9228 0.40561 0.0
C1998 C 0.64096 0.90378 0.38751 0.0
H1999 H 0.70092 0.78382 0.32178 0.0
H2000 H 0.67028 0.8121 0.34909 0.0
H2001 H 0.67621 0.89709 0.32622 0.0
H2002 H 0.57017 0.95731 0.40848 0.0
H2003 H 0.59894 0.92969 0.37711 0.0
C2004 C 0.22798 0.71025 0.32952 0.0
C2005 C 0.24843 0.69948 0.31186 0.0
C2006 C 0.21051 0.69394 0.3471 0.0
C2007 C 0.20224 0.62887 0.37783 0.0
H2008 H 0.12591 0.64019 0.39368 0.0
C2009 C 0.11238 0.56002 0.4393 0.0
C2010 C 0.09493 0.57479 0.45709 0.0
C2011 C 0.13327 0.57388 0.42206 0.0
C2012 C 0.14722 0.63687 0.38961 0.0
H2013 H 0.26674 0.66304 0.29914 0.0
H2014 H 0.23591 0.63439 0.32948 0.0
H2015 H 0.1573 0.66653 0.36229 0.0
H2016 H 0.08731 0.61588 0.47202 0.0
H2017 H 0.12333 0.63966 0.44229 0.0
H2018 H 0.19157 0.59866 0.40507 0.0
C2019 C 0.2336 0.65562 0.33003 0.0
C2020 C 0.16534 0.65211 0.37165 0.0
C2021 C 0.25125 0.67205 0.31252 0.0
C2022 C 0.1 0.60373 0.45832 0.0
C2023 C 0.12062 0.61742 0.44117 0.0
C2024 C 0.18392 0.61335 0.3957 0.0
C2025 C 0.21279 0.66626 0.34746 0.0
C2026 C 0.19328 0.64875 0.36577 0.0
C2027 C 0.13693 0.60268 0.42228 0.0
C2028 C 0.15632 0.61755 0.40213 0.0
H2029 H 0.22565 0.73146 0.33003 0.0
H2030 H 0.19533 0.70323 0.36062 0.0
H2031 H 0.22361 0.62577 0.374 0.0
H2032 H 0.10899 0.53773 0.43778 0.0
H2033 H 0.1456 0.56196 0.40774 0.0
C2034 C 0.35026 0.15638 0.37425 0.0
C2035 C 0.36044 0.1751 0.35585 0.0
C2036 C 0.36482 0.13571 0.37683 0.0
C2037 C 0.43566 0.12192 0.36832 0.0
H2038 H 0.39832 0.04978 0.38622 0.0
C2039 C 0.49421 0.05371 0.41274 0.0
C2040 C 0.47997 0.04564 0.43647 0.0
C2041 C 0.48008 0.06303 0.39497 0.0
C2042 C 0.40912 0.06978 0.38111 0.0
H2043 H 0.3935 0.18635 0.3252 0.0
H2044 H 0.41908 0.1502 0.32978 0.0
H2045 H 0.37211 0.07948 0.37007 0.0
H2046 H 0.43973 0.03875 0.45942 0.0
H2047 H 0.4151 0.05449 0.4286 0.0
H2048 H 0.47228 0.11292 0.38071 0.0
C2049 C 0.3998 0.15158 0.34221 0.0
C2050 C 0.39409 0.0868 0.37191 0.0
C2051 C 0.38507 0.17213 0.33947 0.0
C2052 C 0.45112 0.04482 0.44118 0.0
C2053 C 0.437 0.05375 0.42341 0.0
C2054 C 0.45068 0.10493 0.37764 0.0
C2055 C 0.39003 0.13337 0.36118 0.0
C2056 C 0.40695 0.11345 0.36631 0.0
C2057 C 0.45147 0.06406 0.40059 0.0
C2058 C 0.43733 0.07908 0.3851 0.0
H2059 H 0.33122 0.158 0.38699 0.0
H2060 H 0.35687 0.12226 0.39184 0.0
H2061 H 0.44616 0.1424 0.36435 0.0
H2062 H 0.51654 0.05476 0.40885 0.0
H2063 H 0.49176 0.07061 0.37745 0.0
C2064 C 0.62892 0.85027 0.70994 0.0
C2065 C 0.65748 0.84945 0.70881 0.0
C2066 C 0.61991 0.86952 0.69757 0.0
C2067 C 0.63953 0.91186 0.64372 0.0
H2068 H 0.5815 0.95065 0.67886 0.0
C2069 C 0.59733 0.98382 0.58904 0.0
C2070 C 0.56826 0.98134 0.59155 0.0
C2071 C 0.6102 0.97316 0.60669 0.0
C2072 C 0.59758 0.93988 0.66867 0.0
H2073 H 0.69892 0.86837 0.69341 0.0
H2074 H 0.68302 0.90161 0.67117 0.0
H2075 H 0.60018 0.92049 0.70238 0.0
H2076 H 0.52981 0.96703 0.61502 0.0
H2077 H 0.55206 0.94764 0.64562 0.0
H2078 H 0.63628 0.93007 0.60971 0.0
C2079 C 0.66769 0.88731 0.68186 0.0
C2080 C 0.60832 0.92264 0.68219 0.0
C2081 C 0.67677 0.86817 0.6945 0.0
C2082 C 0.55234 0.96961 0.613 0.0
C2083 C 0.56517 0.95843 0.63046 0.0
C2084 C 0.62863 0.92885 0.63013 0.0
C2085 C 0.63915 0.8883 0.68343 0.0
C2086 C 0.6292 0.9082 0.66976 0.0
C2087 C 0.59419 0.95909 0.62689 0.0
C2088 C 0.60729 0.94292 0.64231 0.0
H2089 H 0.61335 0.83576 0.72017 0.0
H2090 H 0.59776 0.86933 0.69865 0.0
H2091 H 0.65533 0.90074 0.63349 0.0
H2092 H 0.61 0.99278 0.57257 0.0
H2093 H 0.63263 0.97484 0.60374 0.0
C2094 C 0.72128 0.22738 0.34098 0.0
C2095 C 0.72518 0.21602 0.31468 0.0
C2096 C 0.70595 0.21128 0.35996 0.0
C2097 C 0.68387 0.1394 0.37438 0.0
H2098 H 0.62503 0.16658 0.42169 0.0
C2099 C 0.6034 0.06886 0.43999 0.0
C2100 C 0.59077 0.08105 0.46339 0.0
C2101 C 0.62224 0.0852 0.42314 0.0
C2102 C 0.64175 0.15874 0.4091 0.0
H2103 H 0.71559 0.1789 0.28766 0.0
H2104 H 0.68987 0.15064 0.32084 0.0
H2105 H 0.65281 0.19563 0.39024 0.0
H2106 H 0.58939 0.11948 0.48841 0.0
H2107 H 0.62328 0.14764 0.46008 0.0
H2108 H 0.67328 0.1027 0.39338 0.0
C2109 C 0.69862 0.17199 0.32682 0.0
C2110 C 0.65759 0.17546 0.39091 0.0
C2111 C 0.71343 0.1882 0.30782 0.0
C2112 C 0.59871 0.10954 0.47041 0.0
C2113 C 0.61789 0.12576 0.4539 0.0
C2114 C 0.6683 0.12279 0.39285 0.0
C2115 C 0.6947 0.18329 0.35312 0.0
C2116 C 0.67867 0.16592 0.37319 0.0
C2117 C 0.6292 0.11406 0.42952 0.0
C2118 C 0.64683 0.13211 0.41042 0.0
H2119 H 0.73043 0.24859 0.34697 0.0
H2120 H 0.70338 0.22057 0.38009 0.0
H2121 H 0.7002 0.13157 0.36114 0.0
H2122 H 0.59735 0.047 0.4339 0.0
H2123 H 0.63021 0.07529 0.40454 0.0
C2124 C 0.89461 0.64497 0.29618 0.0
C2125 C 0.86839 0.65049 0.30742 0.0
C2126 C 0.90996 0.63162 0.30944 0.0
C2127 C 0.89974 0.58406 0.35926 0.0
H2128 H 0.97902 0.60745 0.36421 0.0
C2129 C 0.95498 0.55172 0.43661 0.0
C2130 C 0.98276 0.54806 0.431 0.0
C2131 C 0.94153 0.56011 0.41803 0.0
C2132 C 0.95701 0.60028 0.36252 0.0
H2133 H 0.83813 0.64707 0.34169 0.0
H2134 H 0.86502 0.62399 0.36496 0.0
H2135 H 0.95513 0.63244 0.33972 0.0
H2136 H 1.01797 0.54896 0.40116 0.0
H2137 H 0.99428 0.56376 0.36822 0.0
H2138 H 0.90141 0.55215 0.38221 0.0
C2139 C 0.87357 0.62975 0.34576 0.0
C2140 C 0.9433 0.61472 0.34864 0.0
C2141 C 0.85833 0.64329 0.3326 0.0
C2142 C 0.99646 0.55147 0.40585 0.0
C2143 C 0.983 0.56022 0.38718 0.0
C2144 C 0.91342 0.56958 0.37297 0.0
C2145 C 0.89929 0.62329 0.33411 0.0
C2146 C 0.91439 0.60713 0.34739 0.0
C2147 C 0.95557 0.56524 0.39334 0.0
C2148 C 0.94209 0.5779 0.37532 0.0
H2149 H 0.90298 0.65048 0.27687 0.0
H2150 H 0.92971 0.62693 0.29997 0.0
H2151 H 0.87757 0.5773 0.35809 0.0
H2152 H 0.94394 0.54917 0.45587 0.0
H2153 H 0.92056 0.56403 0.4236 0.0
C2154 C 0.32343 0.81171 0.3376 0.0
C2155 C 0.33237 0.7887 0.32244 0.0
C2156 C 0.33979 0.82817 0.35618 0.0
C2157 C 0.41049 0.85519 0.36806 0.0
H2158 H 0.3853 0.86747 0.44213 0.0
C2159 C 0.46408 0.94375 0.44119 0.0
C2160 C 0.47379 0.9345 0.46207 0.0
C2161 C 0.44618 0.92558 0.42493 0.0
C2162 C 0.39255 0.86424 0.42149 0.0
H2163 H 0.36559 0.76496 0.3151 0.0
H2164 H 0.39465 0.79443 0.34689 0.0
H2165 H 0.35508 0.83579 0.41245 0.0
H2166 H 0.47144 0.89913 0.48274 0.0
H2167 H 0.43915 0.86773 0.45497 0.0
H2168 H 0.4475 0.88437 0.37687 0.0
C2169 C 0.37467 0.7993 0.34465 0.0
C2170 C 0.37528 0.84618 0.40454 0.0
C2171 C 0.35794 0.78236 0.32658 0.0
C2172 C 0.4644 0.90688 0.4668 0.0
C2173 C 0.44589 0.88892 0.45096 0.0
C2174 C 0.42741 0.8738 0.38486 0.0
C2175 C 0.36583 0.82247 0.35953 0.0
C2176 C 0.38417 0.84134 0.37768 0.0
C2177 C 0.43695 0.89795 0.42959 0.0
C2178 C 0.41869 0.87844 0.41177 0.0
H2179 H 0.30389 0.81721 0.33487 0.0
H2180 H 0.33252 0.84595 0.36732 0.0
H2181 H 0.41777 0.85196 0.34742 0.0
H2182 H 0.47104 0.96483 0.43689 0.0
H2183 H 0.43955 0.93311 0.40864 0.0
C2184 C 0.21818 0.33439 0.28998 0.0
C2185 C 0.2252 0.3124 0.30048 0.0
C2186 C 0.20087 0.3516 0.30489 0.0
C2187 C 0.15025 0.3548 0.36632 0.0
H2188 H 0.15885 0.43197 0.35693 0.0
C2189 C 0.10155 0.43073 0.4438 0.0
C2190 C 0.08589 0.44863 0.4362 0.0
C2191 C 0.11784 0.41558 0.42547 0.0
C2192 C 0.15595 0.41039 0.3596 0.0
H2193 H 0.21882 0.29143 0.3351 0.0
H2194 H 0.1903 0.32185 0.36141 0.0
H2195 H 0.1888 0.40302 0.32935 0.0
H2196 H 0.07668 0.46502 0.40249 0.0
H2197 H 0.106 0.43869 0.37017 0.0
H2198 H 0.11811 0.3624 0.3971 0.0
C2199 C 0.19747 0.32567 0.34141 0.0
C2200 C 0.17317 0.39363 0.34371 0.0
C2201 C 0.21447 0.30835 0.3264 0.0
C2202 C 0.08824 0.45155 0.40929 0.0
C2203 C 0.10507 0.43641 0.39073 0.0
C2204 C 0.1334 0.37157 0.38231 0.0
C2205 C 0.19003 0.34752 0.33092 0.0
C2206 C 0.17092 0.36554 0.34702 0.0
C2207 C 0.11962 0.41772 0.39861 0.0
C2208 C 0.13616 0.39971 0.37951 0.0
H2209 H 0.22584 0.3382 0.27003 0.0
H2210 H 0.19554 0.36774 0.29568 0.0
H2211 H 0.14689 0.33327 0.36921 0.0
H2212 H 0.10095 0.42783 0.46417 0.0
H2213 H 0.1291 0.40194 0.43245 0.0
C2214 C 0.34077 0.20322 0.72985 0.0
C2215 C 0.31866 0.21094 0.71966 0.0
C2216 C 0.35792 0.18618 0.71439 0.0
C2217 C 0.37869 0.1599 0.64428 0.0
H2218 H 0.40773 0.10629 0.67486 0.0
C2219 C 0.43378 0.07902 0.57791 0.0
C2220 C 0.45774 0.07198 0.58538 0.0
C2221 C 0.41694 0.09459 0.59537 0.0
C2222 C 0.4001 0.12131 0.66595 0.0
H2223 H 0.29695 0.20541 0.68516 0.0
H2224 H 0.32666 0.17624 0.65823 0.0
H2225 H 0.3787 0.13598 0.70248 0.0
H2226 H 0.48182 0.07532 0.61806 0.0
H2227 H 0.45229 0.10257 0.6488 0.0
H2228 H 0.4 0.14543 0.60784 0.0
C2229 C 0.33131 0.18381 0.67806 0.0
C2230 C 0.38334 0.13848 0.68189 0.0
C2231 C 0.31415 0.20076 0.69356 0.0
C2232 C 0.46348 0.08003 0.61155 0.0
C2233 C 0.44651 0.09583 0.62919 0.0
C2234 C 0.39536 0.14278 0.62841 0.0
C2235 C 0.3536 0.17617 0.68813 0.0
C2236 C 0.3721 0.158 0.67132 0.0
C2237 C 0.42332 0.10403 0.62114 0.0
C2238 C 0.4062 0.12293 0.63881 0.0
H2239 H 0.34503 0.21052 0.74985 0.0
H2240 H 0.37488 0.18123 0.72301 0.0
H2241 H 0.37124 0.17495 0.63525 0.0
H2242 H 0.42832 0.07307 0.55808 0.0
H2243 H 0.39896 0.09952 0.5884 0.0
C2244 C 0.79675 0.33365 0.68995 0.0
C2245 C 0.80911 0.32807 0.71103 0.0
C2246 C 0.81223 0.35024 0.6715 0.0
C2247 C 0.8763 0.40271 0.66087 0.0
H2248 H 0.86953 0.37811 0.58729 0.0
C2249 C 0.93826 0.46572 0.57913 0.0
C2250 C 0.9526 0.45017 0.55907 0.0
C2251 C 0.91768 0.4525 0.59693 0.0
C2252 C 0.87162 0.38532 0.60776 0.0
H2253 H 0.84712 0.33638 0.72981 0.0
H2254 H 0.87437 0.36489 0.69741 0.0
H2255 H 0.84057 0.35182 0.62045 0.0
H2256 H 0.95543 0.4087 0.54105 0.0
H2257 H 0.91947 0.38582 0.57164 0.0
H2258 H 0.9079 0.43582 0.64811 0.0
C2259 C 0.85266 0.35654 0.69514 0.0
C2260 C 0.85486 0.37035 0.62679 0.0
C2261 C 0.83717 0.33986 0.71352 0.0
C2262 C 0.94481 0.42128 0.55631 0.0
C2263 C 0.92409 0.40814 0.57382 0.0
C2264 C 0.89293 0.4178 0.64182 0.0
C2265 C 0.84044 0.36178 0.67376 0.0
C2266 C 0.85724 0.37864 0.65359 0.0
C2267 C 0.91075 0.42351 0.59476 0.0
C2268 C 0.89108 0.40908 0.61501 0.0
H2269 H 0.77524 0.3247 0.68733 0.0
H2270 H 0.80207 0.35404 0.65545 0.0
H2271 H 0.87848 0.40984 0.68133 0.0
H2272 H 0.94392 0.488 0.58191 0.0
H2273 H 0.90759 0.46495 0.6127 0.0
C2274 C 0.22626 0.72844 0.67763 0.0
C2275 C 0.23095 0.71804 0.70014 0.0
C2276 C 0.20963 0.71191 0.65929 0.0
C2277 C 0.15542 0.64745 0.65328 0.0
H2278 H 0.16702 0.65727 0.57959 0.0
C2279 C 0.09322 0.57368 0.57598 0.0
C2280 C 0.08098 0.58634 0.55905 0.0
C2281 C 0.11284 0.5893 0.59204 0.0
C2282 C 0.16348 0.65437 0.60014 0.0
H2283 H 0.2215 0.68197 0.72092 0.0
H2284 H 0.19461 0.65269 0.68832 0.0
H2285 H 0.19935 0.6847 0.60931 0.0
H2286 H 0.08063 0.62531 0.54519 0.0
H2287 H 0.11535 0.65243 0.57286 0.0
H2288 H 0.1199 0.61668 0.64386 0.0
C2289 C 0.20305 0.67382 0.68495 0.0
C2290 C 0.18195 0.67021 0.61729 0.0
C2291 C 0.21923 0.69048 0.70345 0.0
C2292 C 0.08955 0.61489 0.55804 0.0
C2293 C 0.10954 0.63043 0.5738 0.0
C2294 C 0.13728 0.63136 0.63608 0.0
C2295 C 0.19744 0.68438 0.66282 0.0
C2296 C 0.17818 0.66709 0.64419 0.0
C2297 C 0.12111 0.61789 0.59129 0.0
C2298 C 0.14099 0.63468 0.60933 0.0
H2299 H 0.23473 0.74969 0.67462 0.0
H2300 H 0.20561 0.72109 0.64282 0.0
H2301 H 0.15117 0.64478 0.67385 0.0
H2302 H 0.08709 0.55178 0.57736 0.0
H2303 H 0.12154 0.57899 0.60514 0.0
loop_
_geom_bond_atom_site_label_1
_geom_bond_atom_site_label_2
_geom_bond_distance
_geom_bond_site_symmetry_2
_ccdc_geom_bond_type
Tb0 N29 2.617 . S
Tb0 N35 2.572 . S
Tb0 O44 2.465 . S
Tb0 O45 2.387 . S
Tb0 O47 2.428 . S
Tb0 O48 2.308 . S
Tb0 O52 2.349 . S
Tb0 O55 2.393 . S
Tb0 C64 2.802 . S
C1 N2 1.379 . S
C1 C4 1.416 . S
C1 C8 1.424 . S
N2 C1 1.379 . S
N2 C5 1.334 . S
N2 Tb11 2.617 . S
C3 C5 1.390 . S
C3 C6 1.339 . S
C3 H23 0.930 . S
C4 C1 1.416 . S
C4 C6 1.416 . S
C4 C10 1.448 . S
C5 N2 1.334 . S
C5 C3 1.390 . S
C5 H16 0.930 . S
C6 C3 1.339 . S
C6 C4 1.416 . S
C6 H27 0.930 . S
C7 C8 1.413 . S
C7 C9 1.427 . S
C7 C13 1.416 . S
C8 C1 1.424 . S
C8 C7 1.413 . S
C8 N12 1.361 . S
C9 C7 1.427 . S
C9 C10 1.328 . S
C9 H24 0.929 . S
C10 C4 1.448 . S
C10 C9 1.328 . S
C10 H25 0.930 . S
Tb11 N2 2.617 . S
Tb11 N12 2.572 . S
Tb11 O46 2.349 . S
Tb11 O49 2.393 . S
Tb11 O50 2.465 . S
Tb11 O51 2.387 . S
Tb11 O53 2.428 . S
Tb11 O54 2.308 . S
Tb11 C75 2.802 . S
N12 C8 1.361 . S
N12 Tb11 2.572 . S
N12 C14 1.340 . S
C13 C7 1.416 . S
C13 C15 1.332 . S
C13 H21 0.931 . S
C14 N12 1.340 . S
C14 C15 1.407 . S
C14 H20 0.930 . S
C15 C13 1.332 . S
C15 C14 1.407 . S
C15 H17 0.929 . S
H16 C5 0.930 . S
H17 C15 0.929 . S
H18 C33 0.930 . S
H19 C40 0.929 . S
H20 C14 0.930 . S
H21 C13 0.931 . S
H22 C36 0.930 . S
H23 C3 0.930 . S
H24 C9 0.929 . S
H25 C10 0.930 . S
H26 C31 0.930 . S
H27 C6 0.930 . S
H28 C39 0.931 . S
N29 Tb0 2.617 . S
N29 C30 1.379 . S
N29 C33 1.334 . S
C30 N29 1.379 . S
C30 C32 1.416 . S
C30 C38 1.424 . S
C31 H26 0.930 . S
C31 C33 1.390 . S
C31 C34 1.339 . S
C32 C30 1.416 . S
C32 C34 1.416 . S
C32 C65 1.448 . S
C33 H18 0.930 . S
C33 N29 1.334 . S
C33 C31 1.390 . S
C34 C31 1.339 . S
C34 C32 1.416 . S
C34 H41 0.930 . S
N35 Tb0 2.572 . S
N35 C36 1.340 . S
N35 C38 1.361 . S
C36 H22 0.930 . S
C36 N35 1.340 . S
C36 C40 1.407 . S
C37 C38 1.413 . S
C37 C39 1.416 . S
C37 C66 1.427 . S
C38 C30 1.424 . S
C38 N35 1.361 . S
C38 C37 1.413 . S
C39 H28 0.931 . S
C39 C37 1.416 . S
C39 C40 1.332 . S
C40 H19 0.929 . S
C40 C36 1.407 . S
C40 C39 1.332 . S
H41 C34 0.930 . S
H42 C65 0.930 . S
H43 C66 0.929 . S
O44 Tb0 2.465 . S
O44 C64 1.264 . S
O45 Tb0 2.387 . S
O45 C56 1.264 . S
O46 Tb11 2.349 . S
O46 C56 1.243 . S
O47 Tb0 2.428 . S
O47 C64 1.256 . S
O48 Tb0 2.308 . S
O48 C63 1.266 . S
O49 Tb11 2.393 . S
O49 C63 1.248 . S
O50 Tb11 2.465 . S
O50 C75 1.264 . S
O51 Tb11 2.387 . S
O51 C67 1.264 . S
O52 Tb0 2.349 . S
O52 C67 1.243 . S
O53 Tb11 2.428 . S
O53 C75 1.256 . S
O54 Tb11 2.308 . S
O54 C74 1.266 . S
O55 Tb0 2.393 . S
O55 C74 1.248 . S
C56 O45 1.264 . S
C56 O46 1.243 . S
C57 C60 1.399 . S
C57 C62 1.383 . S
C57 C64 1.496 . S
C58 C59 1.399 . S
C58 C62 1.389 . S
C59 C58 1.399 . S
C59 C61 1.380 . S
C59 H76 0.929 . S
C60 C57 1.399 . S
C60 C61 1.392 . S
C60 H77 0.929 . S
C61 C59 1.380 . S
C61 C60 1.392 . S
C61 H78 0.929 . S
C62 C57 1.383 . S
C62 C58 1.389 . S
C62 H79 0.931 . S
C63 O48 1.266 . S
C63 O49 1.248 . S
C64 Tb0 2.802 . S
C64 O44 1.264 . S
C64 O47 1.256 . S
C64 C57 1.496 . S
C65 C32 1.448 . S
C65 H42 0.930 . S
C65 C66 1.328 . S
C66 C37 1.427 . S
C66 H43 0.929 . S
C66 C65 1.328 . S
C67 O51 1.264 . S
C67 O52 1.243 . S
C68 C71 1.399 . S
C68 C72 1.383 . S
C68 C75 1.496 . S
C69 C70 1.399 . S
C69 C72 1.389 . S
C70 C69 1.399 . S
C70 C73 1.380 . S
C70 H80 0.929 . S
C71 C68 1.399 . S
C71 C73 1.392 . S
C71 H81 0.929 . S
C72 C68 1.383 . S
C72 C69 1.389 . S
C72 H82 0.931 . S
C73 C70 1.380 . S
C73 C71 1.392 . S
C73 H83 0.929 . S
C74 O54 1.266 . S
C74 O55 1.248 . S
C75 Tb11 2.802 . S
C75 O50 1.264 . S
C75 O53 1.256 . S
C75 C68 1.496 . S
H76 C59 0.929 . S
H77 C60 0.929 . S
H78 C61 0.929 . S
H79 C62 0.931 . S
H80 C70 0.929 . S
H81 C71 0.929 . S
H82 C72 0.931 . S
H83 C73 0.929 . S
Tb84 N113 2.617 . S
Tb84 N119 2.572 . S
Tb84 O128 2.465 . S
Tb84 O129 2.387 . S
Tb84 O131 2.428 . S
Tb84 O132 2.308 . S
Tb84 O136 2.349 . S
Tb84 O139 2.393 . S
Tb84 C148 2.802 . S
C85 N86 1.379 . S
C85 C88 1.416 . S
C85 C92 1.424 . S
N86 C85 1.379 . S
N86 C89 1.334 . S
N86 Tb95 2.617 . S
C87 C89 1.390 . S
C87 C90 1.339 . S
C87 H107 0.930 . S
C88 C85 1.416 . S
C88 C90 1.416 . S
C88 C94 1.448 . S
C89 N86 1.334 . S
C89 C87 1.390 . S
C89 H100 0.930 . S
C90 C87 1.339 . S
C90 C88 1.416 . S
C90 H111 0.930 . S
C91 C92 1.413 . S
C91 C93 1.427 . S
C91 C97 1.416 . S
C92 C85 1.424 . S
C92 C91 1.413 . S
C92 N96 1.361 . S
C93 C91 1.427 . S
C93 C94 1.328 . S
C93 H108 0.929 . S
C94 C88 1.448 . S
C94 C93 1.328 . S
C94 H109 0.930 . S
Tb95 N86 2.617 . S
Tb95 N96 2.572 . S
Tb95 O130 2.349 . S
Tb95 O133 2.393 . S
Tb95 O134 2.465 . S
Tb95 O135 2.387 . S
Tb95 O137 2.428 . S
Tb95 O138 2.308 . S
Tb95 C159 2.802 . S
N96 C92 1.361 . S
N96 Tb95 2.572 . S
N96 C98 1.340 . S
C97 C91 1.416 . S
C97 C99 1.332 . S
C97 H105 0.931 . S
C98 N96 1.340 . S
C98 C99 1.407 . S
C98 H104 0.930 . S
C99 C97 1.332 . S
C99 C98 1.407 . S
C99 H101 0.929 . S
H100 C89 0.930 . S
H101 C99 0.929 . S
H102 C117 0.930 . S
H103 C124 0.929 . S
H104 C98 0.930 . S
H105 C97 0.931 . S
H106 C120 0.930 . S
H107 C87 0.930 . S
H108 C93 0.929 . S
H109 C94 0.930 . S
H110 C115 0.930 . S
H111 C90 0.930 . S
H112 C123 0.931 . S
N113 Tb84 2.617 . S
N113 C114 1.379 . S
N113 C117 1.334 . S
C114 N113 1.379 . S
C114 C116 1.416 . S
C114 C122 1.424 . S
C115 H110 0.930 . S
C115 C117 1.390 . S
C115 C118 1.339 . S
C116 C114 1.416 . S
C116 C118 1.416 . S
C116 C149 1.448 . S
C117 H102 0.930 . S
C117 N113 1.334 . S
C117 C115 1.390 . S
C118 C115 1.339 . S
C118 C116 1.416 . S
C118 H125 0.930 . S
N119 Tb84 2.572 . S
N119 C120 1.340 . S
N119 C122 1.361 . S
C120 H106 0.930 . S
C120 N119 1.340 . S
C120 C124 1.407 . S
C121 C122 1.413 . S
C121 C123 1.416 . S
C121 C150 1.427 . S
C122 C114 1.424 . S
C122 N119 1.361 . S
C122 C121 1.413 . S
C123 H112 0.931 . S
C123 C121 1.416 . S
C123 C124 1.332 . S
C124 H103 0.929 . S
C124 C120 1.407 . S
C124 C123 1.332 . S
H125 C118 0.930 . S
H126 C149 0.930 . S
H127 C150 0.929 . S
O128 Tb84 2.465 . S
O128 C148 1.264 . S
O129 Tb84 2.387 . S
O129 C140 1.264 . S
O130 Tb95 2.349 . S
O130 C140 1.243 . S
O131 Tb84 2.428 . S
O131 C148 1.256 . S
O132 Tb84 2.308 . S
O132 C147 1.266 . S
O133 Tb95 2.393 . S
O133 C147 1.248 . S
O134 Tb95 2.465 . S
O134 C159 1.264 . S
O135 Tb95 2.387 . S
O135 C151 1.264 . S
O136 Tb84 2.349 . S
O136 C151 1.243 . S
O137 Tb95 2.428 . S
O137 C159 1.256 . S
O138 Tb95 2.308 . S
O138 C158 1.266 . S
O139 Tb84 2.393 . S
O139 C158 1.248 . S
C140 O129 1.264 . S
C140 O130 1.243 . S
C141 C144 1.399 . S
C141 C146 1.383 . S
C141 C148 1.496 . S
C142 C143 1.399 . S
C142 C146 1.389 . S
C143 C142 1.399 . S
C143 C145 1.380 . S
C143 H160 0.929 . S
C144 C141 1.399 . S
C144 C145 1.392 . S
C144 H161 0.929 . S
C145 C143 1.380 . S
C145 C144 1.392 . S
C145 H162 0.929 . S
C146 C141 1.383 . S
C146 C142 1.389 . S
C146 H163 0.931 . S
C147 O132 1.266 . S
C147 O133 1.248 . S
C148 Tb84 2.802 . S
C148 O128 1.264 . S
C148 O131 1.256 . S
C148 C141 1.496 . S
C149 C116 1.448 . S
C149 H126 0.930 . S
C149 C150 1.328 . S
C150 C121 1.427 . S
C150 H127 0.929 . S
C150 C149 1.328 . S
C151 O135 1.264 . S
C151 O136 1.243 . S
C152 C155 1.399 . S
C152 C156 1.383 . S
C152 C159 1.496 . S
C153 C154 1.399 . S
C153 C156 1.389 . S
C154 C153 1.399 . S
C154 C157 1.380 . S
C154 H164 0.929 . S
C155 C152 1.399 . S
C155 C157 1.392 . S
C155 H165 0.929 . S
C156 C152 1.383 . S
C156 C153 1.389 . S
C156 H166 0.931 . S
C157 C154 1.380 . S
C157 C155 1.392 . S
C157 H167 0.929 . S
C158 O138 1.266 . S
C158 O139 1.248 . S
C159 Tb95 2.802 . S
C159 O134 1.264 . S
C159 O137 1.256 . S
C159 C152 1.496 . S
H160 C143 0.929 . S
H161 C144 0.929 . S
H162 C145 0.929 . S
H163 C146 0.931 . S
H164 C154 0.929 . S
H165 C155 0.929 . S
H166 C156 0.931 . S
H167 C157 0.929 . S
Tb168 N197 2.617 . S
Tb168 N203 2.572 . S
Tb168 O212 2.465 . S
Tb168 O213 2.387 . S
Tb168 O215 2.428 . S
Tb168 O216 2.308 . S
Tb168 O220 2.349 . S
Tb168 O223 2.393 . S
Tb168 C232 2.802 . S
C169 N170 1.379 . S
C169 C172 1.416 . S
C169 C176 1.424 . S
N170 C169 1.379 . S
N170 C173 1.334 . S
N170 Tb179 2.617 . S
C171 C173 1.390 . S
C171 C174 1.339 . S
C171 H191 0.930 . S
C172 C169 1.416 . S
C172 C174 1.416 . S
C172 C178 1.448 . S
C173 N170 1.334 . S
C173 C171 1.390 . S
C173 H184 0.930 . S
C174 C171 1.339 . S
C174 C172 1.416 . S
C174 H195 0.930 . S
C175 C176 1.413 . S
C175 C177 1.427 . S
C175 C181 1.416 . S
C176 C169 1.424 . S
C176 C175 1.413 . S
C176 N180 1.361 . S
C177 C175 1.427 . S
C177 C178 1.328 . S
C177 H192 0.929 . S
C178 C172 1.448 . S
C178 C177 1.328 . S
C178 H193 0.930 . S
Tb179 N170 2.617 . S
Tb179 N180 2.572 . S
Tb179 O214 2.349 . S
Tb179 O217 2.393 . S
Tb179 O218 2.465 . S
Tb179 O219 2.387 . S
Tb179 O221 2.428 . S
Tb179 O222 2.308 . S
Tb179 C243 2.802 . S
N180 C176 1.361 . S
N180 Tb179 2.572 . S
N180 C182 1.340 . S
C181 C175 1.416 . S
C181 C183 1.332 . S
C181 H189 0.931 . S
C182 N180 1.340 . S
C182 C183 1.407 . S
C182 H188 0.930 . S
C183 C181 1.332 . S
C183 C182 1.407 . S
C183 H185 0.929 . S
H184 C173 0.930 . S
H185 C183 0.929 . S
H186 C201 0.930 . S
H187 C208 0.929 . S
H188 C182 0.930 . S
H189 C181 0.931 . S
H190 C204 0.930 . S
H191 C171 0.930 . S
H192 C177 0.929 . S
H193 C178 0.930 . S
H194 C199 0.930 . S
H195 C174 0.930 . S
H196 C207 0.931 . S
N197 Tb168 2.617 . S
N197 C198 1.379 . S
N197 C201 1.334 . S
C198 N197 1.379 . S
C198 C200 1.416 . S
C198 C206 1.424 . S
C199 H194 0.930 . S
C199 C201 1.390 . S
C199 C202 1.339 . S
C200 C198 1.416 . S
C200 C202 1.416 . S
C200 C233 1.448 . S
C201 H186 0.930 . S
C201 N197 1.334 . S
C201 C199 1.390 . S
C202 C199 1.339 . S
C202 C200 1.416 . S
C202 H209 0.930 . S
N203 Tb168 2.572 . S
N203 C204 1.340 . S
N203 C206 1.361 . S
C204 H190 0.930 . S
C204 N203 1.340 . S
C204 C208 1.407 . S
C205 C206 1.413 . S
C205 C207 1.416 . S
C205 C234 1.427 . S
C206 C198 1.424 . S
C206 N203 1.361 . S
C206 C205 1.413 . S
C207 H196 0.931 . S
C207 C205 1.416 . S
C207 C208 1.332 . S
C208 H187 0.929 . S
C208 C204 1.407 . S
C208 C207 1.332 . S
H209 C202 0.930 . S
H210 C233 0.930 . S
H211 C234 0.929 . S
O212 Tb168 2.465 . S
O212 C232 1.264 . S
O213 Tb168 2.387 . S
O213 C224 1.264 . S
O214 Tb179 2.349 . S
O214 C224 1.243 . S
O215 Tb168 2.428 . S
O215 C232 1.256 . S
O216 Tb168 2.308 . S
O216 C231 1.266 . S
O217 Tb179 2.393 . S
O217 C231 1.248 . S
O218 Tb179 2.465 . S
O218 C243 1.264 . S
O219 Tb179 2.387 . S
O219 C235 1.264 . S
O220 Tb168 2.349 . S
O220 C235 1.243 . S
O221 Tb179 2.428 . S
O221 C243 1.256 . S
O222 Tb179 2.308 . S
O222 C242 1.266 . S
O223 Tb168 2.393 . S
O223 C242 1.248 . S
C224 O213 1.264 . S
C224 O214 1.243 . S
C225 C228 1.399 . S
C225 C230 1.383 . S
C225 C232 1.496 . S
C226 C227 1.399 . S
C226 C230 1.389 . S
C227 C226 1.399 . S
C227 C229 1.380 . S
C227 H244 0.929 . S
C228 C225 1.399 . S
C228 C229 1.392 . S
C228 H245 0.929 . S
C229 C227 1.380 . S
C229 C228 1.392 . S
C229 H246 0.929 . S
C230 C225 1.383 . S
C230 C226 1.389 . S
C230 H247 0.931 . S
C231 O216 1.266 . S
C231 O217 1.248 . S
C232 Tb168 2.802 . S
C232 O212 1.264 . S
C232 O215 1.256 . S
C232 C225 1.496 . S
C233 C200 1.448 . S
C233 H210 0.930 . S
C233 C234 1.328 . S
C234 C205 1.427 . S
C234 H211 0.929 . S
C234 C233 1.328 . S
C235 O219 1.264 . S
C235 O220 1.243 . S
C236 C239 1.399 . S
C236 C240 1.383 . S
C236 C243 1.496 . S
C237 C238 1.399 . S
C237 C240 1.389 . S
C238 C237 1.399 . S
C238 C241 1.380 . S
C238 H248 0.929 . S
C239 C236 1.399 . S
C239 C241 1.392 . S
C239 H249 0.929 . S
C240 C236 1.383 . S
C240 C237 1.389 . S
C240 H250 0.931 . S
C241 C238 1.380 . S
C241 C239 1.392 . S
C241 H251 0.929 . S
C242 O222 1.266 . S
C242 O223 1.248 . S
C243 Tb179 2.802 . S
C243 O218 1.264 . S
C243 O221 1.256 . S
C243 C236 1.496 . S
H244 C227 0.929 . S
H245 C228 0.929 . S
H246 C229 0.929 . S
H247 C230 0.931 . S
H248 C238 0.929 . S
H249 C239 0.929 . S
H250 C240 0.931 . S
H251 C241 0.929 . S
Tb252 N281 2.617 . S
Tb252 N287 2.572 . S
Tb252 O296 2.465 . S
Tb252 O297 2.387 . S
Tb252 O299 2.428 . S
Tb252 O300 2.308 . S
Tb252 O304 2.349 . S
Tb252 O307 2.393 . S
Tb252 C316 2.802 . S
C253 N254 1.379 . S
C253 C256 1.416 . S
C253 C260 1.424 . S
N254 C253 1.379 . S
N254 C257 1.334 . S
N254 Tb263 2.617 . S
C255 C257 1.390 . S
C255 C258 1.339 . S
C255 H275 0.930 . S
C256 C253 1.416 . S
C256 C258 1.416 . S
C256 C262 1.448 . S
C257 N254 1.334 . S
C257 C255 1.390 . S
C257 H268 0.930 . S
C258 C255 1.339 . S
C258 C256 1.416 . S
C258 H279 0.930 . S
C259 C260 1.413 . S
C259 C261 1.427 . S
C259 C265 1.416 . S
C260 C253 1.424 . S
C260 C259 1.413 . S
C260 N264 1.361 . S
C261 C259 1.427 . S
C261 C262 1.328 . S
C261 H276 0.929 . S
C262 C256 1.448 . S
C262 C261 1.328 . S
C262 H277 0.930 . S
Tb263 N254 2.617 . S
Tb263 N264 2.572 . S
Tb263 O298 2.349 . S
Tb263 O301 2.393 . S
Tb263 O302 2.465 . S
Tb263 O303 2.387 . S
Tb263 O305 2.428 . S
Tb263 O306 2.308 . S
Tb263 C327 2.802 . S
N264 C260 1.361 . S
N264 Tb263 2.572 . S
N264 C266 1.340 . S
C265 C259 1.416 . S
C265 C267 1.332 . S
C265 H273 0.931 . S
C266 N264 1.340 . S
C266 C267 1.407 . S
C266 H272 0.930 . S
C267 C265 1.332 . S
C267 C266 1.407 . S
C267 H269 0.929 . S
H268 C257 0.930 . S
H269 C267 0.929 . S
H270 C285 0.930 . S
H271 C292 0.929 . S
H272 C266 0.930 . S
H273 C265 0.931 . S
H274 C288 0.930 . S
H275 C255 0.930 . S
H276 C261 0.929 . S
H277 C262 0.930 . S
H278 C283 0.930 . S
H279 C258 0.930 . S
H280 C291 0.931 . S
N281 Tb252 2.617 . S
N281 C282 1.379 . S
N281 C285 1.334 . S
C282 N281 1.379 . S
C282 C284 1.416 . S
C282 C290 1.424 . S
C283 H278 0.930 . S
C283 C285 1.390 . S
C283 C286 1.339 . S
C284 C282 1.416 . S
C284 C286 1.416 . S
C284 C317 1.448 . S
C285 H270 0.930 . S
C285 N281 1.334 . S
C285 C283 1.390 . S
C286 C283 1.339 . S
C286 C284 1.416 . S
C286 H293 0.930 . S
N287 Tb252 2.572 . S
N287 C288 1.340 . S
N287 C290 1.361 . S
C288 H274 0.930 . S
C288 N287 1.340 . S
C288 C292 1.407 . S
C289 C290 1.413 . S
C289 C291 1.416 . S
C289 C318 1.427 . S
C290 C282 1.424 . S
C290 N287 1.361 . S
C290 C289 1.413 . S
C291 H280 0.931 . S
C291 C289 1.416 . S
C291 C292 1.332 . S
C292 H271 0.929 . S
C292 C288 1.407 . S
C292 C291 1.332 . S
H293 C286 0.930 . S
H294 C317 0.930 . S
H295 C318 0.929 . S
O296 Tb252 2.465 . S
O296 C316 1.264 . S
O297 Tb252 2.387 . S
O297 C308 1.264 . S
O298 Tb263 2.349 . S
O298 C308 1.243 . S
O299 Tb252 2.428 . S
O299 C316 1.256 . S
O300 Tb252 2.308 . S
O300 C315 1.266 . S
O301 Tb263 2.393 . S
O301 C315 1.248 . S
O302 Tb263 2.465 . S
O302 C327 1.264 . S
O303 Tb263 2.387 . S
O303 C319 1.264 . S
O304 Tb252 2.349 . S
O304 C319 1.243 . S
O305 Tb263 2.428 . S
O305 C327 1.256 . S
O306 Tb263 2.308 . S
O306 C326 1.266 . S
O307 Tb252 2.393 . S
O307 C326 1.248 . S
C308 O297 1.264 . S
C308 O298 1.243 . S
C309 C312 1.399 . S
C309 C314 1.383 . S
C309 C316 1.496 . S
C310 C311 1.399 . S
C310 C314 1.389 . S
C311 C310 1.399 . S
C311 C313 1.380 . S
C311 H328 0.929 . S
C312 C309 1.399 . S
C312 C313 1.392 . S
C312 H329 0.929 . S
C313 C311 1.380 . S
C313 C312 1.392 . S
C313 H330 0.929 . S
C314 C309 1.383 . S
C314 C310 1.389 . S
C314 H331 0.931 . S
C315 O300 1.266 . S
C315 O301 1.248 . S
C316 Tb252 2.802 . S
C316 O296 1.264 . S
C316 O299 1.256 . S
C316 C309 1.496 . S
C317 C284 1.448 . S
C317 H294 0.930 . S
C317 C318 1.328 . S
C318 C289 1.427 . S
C318 H295 0.929 . S
C318 C317 1.328 . S
C319 O303 1.264 . S
C319 O304 1.243 . S
C320 C323 1.399 . S
C320 C324 1.383 . S
C320 C327 1.496 . S
C321 C322 1.399 . S
C321 C324 1.389 . S
C322 C321 1.399 . S
C322 C325 1.380 . S
C322 H332 0.929 . S
C323 C320 1.399 . S
C323 C325 1.392 . S
C323 H333 0.929 . S
C324 C320 1.383 . S
C324 C321 1.389 . S
C324 H334 0.931 . S
C325 C322 1.380 . S
C325 C323 1.392 . S
C325 H335 0.929 . S
C326 O306 1.266 . S
C326 O307 1.248 . S
C327 Tb263 2.802 . S
C327 O302 1.264 . S
C327 O305 1.256 . S
C327 C320 1.496 . S
H328 C311 0.929 . S
H329 C312 0.929 . S
H330 C313 0.929 . S
H331 C314 0.931 . S
H332 C322 0.929 . S
H333 C323 0.929 . S
H334 C324 0.931 . S
H335 C325 0.929 . S
Tb336 N365 2.617 . S
Tb336 N371 2.572 . S
Tb336 O380 2.465 . S
Tb336 O381 2.387 . S
Tb336 O383 2.428 . S
Tb336 O384 2.308 . S
Tb336 O388 2.349 . S
Tb336 O391 2.393 . S
Tb336 C400 2.802 . S
C337 N338 1.379 . S
C337 C340 1.416 . S
C337 C344 1.424 . S
N338 C337 1.379 . S
N338 C341 1.334 . S
N338 Tb347 2.617 . S
C339 C341 1.390 . S
C339 C342 1.339 . S
C339 H359 0.930 . S
C340 C337 1.416 . S
C340 C342 1.416 . S
C340 C346 1.448 . S
C341 N338 1.334 . S
C341 C339 1.390 . S
C341 H352 0.930 . S
C342 C339 1.339 . S
C342 C340 1.416 . S
C342 H363 0.930 . S
C343 C344 1.413 . S
C343 C345 1.427 . S
C343 C349 1.416 . S
C344 C337 1.424 . S
C344 C343 1.413 . S
C344 N348 1.361 . S
C345 C343 1.427 . S
C345 C346 1.328 . S
C345 H360 0.929 . S
C346 C340 1.448 . S
C346 C345 1.328 . S
C346 H361 0.930 . S
Tb347 N338 2.617 . S
Tb347 N348 2.572 . S
Tb347 O382 2.349 . S
Tb347 O385 2.393 . S
Tb347 O386 2.465 . S
Tb347 O387 2.387 . S
Tb347 O389 2.428 . S
Tb347 O390 2.308 . S
Tb347 C411 2.802 . S
N348 C344 1.361 . S
N348 Tb347 2.572 . S
N348 C350 1.340 . S
C349 C343 1.416 . S
C349 C351 1.332 . S
C349 H357 0.931 . S
C350 N348 1.340 . S
C350 C351 1.407 . S
C350 H356 0.930 . S
C351 C349 1.332 . S
C351 C350 1.407 . S
C351 H353 0.929 . S
H352 C341 0.930 . S
H353 C351 0.929 . S
H354 C369 0.930 . S
H355 C376 0.929 . S
H356 C350 0.930 . S
H357 C349 0.931 . S
H358 C372 0.930 . S
H359 C339 0.930 . S
H360 C345 0.929 . S
H361 C346 0.930 . S
H362 C367 0.930 . S
H363 C342 0.930 . S
H364 C375 0.931 . S
N365 Tb336 2.617 . S
N365 C366 1.379 . S
N365 C369 1.334 . S
C366 N365 1.379 . S
C366 C368 1.416 . S
C366 C374 1.424 . S
C367 H362 0.930 . S
C367 C369 1.390 . S
C367 C370 1.339 . S
C368 C366 1.416 . S
C368 C370 1.416 . S
C368 C401 1.448 . S
C369 H354 0.930 . S
C369 N365 1.334 . S
C369 C367 1.390 . S
C370 C367 1.339 . S
C370 C368 1.416 . S
C370 H377 0.930 . S
N371 Tb336 2.572 . S
N371 C372 1.340 . S
N371 C374 1.361 . S
C372 H358 0.930 . S
C372 N371 1.340 . S
C372 C376 1.407 . S
C373 C374 1.413 . S
C373 C375 1.416 . S
C373 C402 1.427 . S
C374 C366 1.424 . S
C374 N371 1.361 . S
C374 C373 1.413 . S
C375 H364 0.931 . S
C375 C373 1.416 . S
C375 C376 1.332 . S
C376 H355 0.929 . S
C376 C372 1.407 . S
C376 C375 1.332 . S
H377 C370 0.930 . S
H378 C401 0.930 . S
H379 C402 0.929 . S
O380 Tb336 2.465 . S
O380 C400 1.264 . S
O381 Tb336 2.387 . S
O381 C392 1.264 . S
O382 Tb347 2.349 . S
O382 C392 1.243 . S
O383 Tb336 2.428 . S
O383 C400 1.256 . S
O384 Tb336 2.308 . S
O384 C399 1.266 . S
O385 Tb347 2.393 . S
O385 C399 1.248 . S
O386 Tb347 2.465 . S
O386 C411 1.264 . S
O387 Tb347 2.387 . S
O387 C403 1.264 . S
O388 Tb336 2.349 . S
O388 C403 1.243 . S
O389 Tb347 2.428 . S
O389 C411 1.256 . S
O390 Tb347 2.308 . S
O390 C410 1.266 . S
O391 Tb336 2.393 . S
O391 C410 1.248 . S
C392 O381 1.264 . S
C392 O382 1.243 . S
C393 C396 1.399 . S
C393 C398 1.383 . S
C393 C400 1.496 . S
C394 C395 1.399 . S
C394 C398 1.389 . S
C395 C394 1.399 . S
C395 C397 1.380 . S
C395 H412 0.929 . S
C396 C393 1.399 . S
C396 C397 1.392 . S
C396 H413 0.929 . S
C397 C395 1.380 . S
C397 C396 1.392 . S
C397 H414 0.929 . S
C398 C393 1.383 . S
C398 C394 1.389 . S
C398 H415 0.931 . S
C399 O384 1.266 . S
C399 O385 1.248 . S
C400 Tb336 2.802 . S
C400 O380 1.264 . S
C400 O383 1.256 . S
C400 C393 1.496 . S
C401 C368 1.448 . S
C401 H378 0.930 . S
C401 C402 1.328 . S
C402 C373 1.427 . S
C402 H379 0.929 . S
C402 C401 1.328 . S
C403 O387 1.264 . S
C403 O388 1.243 . S
C404 C407 1.399 . S
C404 C408 1.383 . S
C404 C411 1.496 . S
C405 C406 1.399 . S
C405 C408 1.389 . S
C406 C405 1.399 . S
C406 C409 1.380 . S
C406 H416 0.929 . S
C407 C404 1.399 . S
C407 C409 1.392 . S
C407 H417 0.929 . S
C408 C404 1.383 . S
C408 C405 1.389 . S
C408 H418 0.931 . S
C409 C406 1.380 . S
C409 C407 1.392 . S
C409 H419 0.929 . S
C410 O390 1.266 . S
C410 O391 1.248 . S
C411 Tb347 2.802 . S
C411 O386 1.264 . S
C411 O389 1.256 . S
C411 C404 1.496 . S
H412 C395 0.929 . S
H413 C396 0.929 . S
H414 C397 0.929 . S
H415 C398 0.931 . S
H416 C406 0.929 . S
H417 C407 0.929 . S
H418 C408 0.931 . S
H419 C409 0.929 . S
Tb420 N449 2.617 . S
Tb420 N455 2.572 . S
Tb420 O464 2.465 . S
Tb420 O465 2.387 . S
Tb420 O467 2.428 . S
Tb420 O468 2.308 . S
Tb420 O472 2.349 . S
Tb420 O475 2.393 . S
Tb420 C484 2.802 . S
C421 N422 1.379 . S
C421 C424 1.416 . S
C421 C428 1.424 . S
N422 C421 1.379 . S
N422 C425 1.334 . S
N422 Tb431 2.617 . S
C423 C425 1.390 . S
C423 C426 1.339 . S
C423 H443 0.930 . S
C424 C421 1.416 . S
C424 C426 1.416 . S
C424 C430 1.448 . S
C425 N422 1.334 . S
C425 C423 1.390 . S
C425 H436 0.930 . S
C426 C423 1.339 . S
C426 C424 1.416 . S
C426 H447 0.930 . S
C427 C428 1.413 . S
C427 C429 1.427 . S
C427 C433 1.416 . S
C428 C421 1.424 . S
C428 C427 1.413 . S
C428 N432 1.361 . S
C429 C427 1.427 . S
C429 C430 1.328 . S
C429 H444 0.929 . S
C430 C424 1.448 . S
C430 C429 1.328 . S
C430 H445 0.930 . S
Tb431 N422 2.617 . S
Tb431 N432 2.572 . S
Tb431 O466 2.349 . S
Tb431 O469 2.393 . S
Tb431 O470 2.465 . S
Tb431 O471 2.387 . S
Tb431 O473 2.428 . S
Tb431 O474 2.308 . S
Tb431 C495 2.802 . S
N432 C428 1.361 . S
N432 Tb431 2.572 . S
N432 C434 1.340 . S
C433 C427 1.416 . S
C433 C435 1.332 . S
C433 H441 0.931 . S
C434 N432 1.340 . S
C434 C435 1.407 . S
C434 H440 0.930 . S
C435 C433 1.332 . S
C435 C434 1.407 . S
C435 H437 0.929 . S
H436 C425 0.930 . S
H437 C435 0.929 . S
H438 C453 0.930 . S
H439 C460 0.929 . S
H440 C434 0.930 . S
H441 C433 0.931 . S
H442 C456 0.930 . S
H443 C423 0.930 . S
H444 C429 0.929 . S
H445 C430 0.930 . S
H446 C451 0.930 . S
H447 C426 0.930 . S
H448 C459 0.931 . S
N449 Tb420 2.617 . S
N449 C450 1.379 . S
N449 C453 1.334 . S
C450 N449 1.379 . S
C450 C452 1.416 . S
C450 C458 1.424 . S
C451 H446 0.930 . S
C451 C453 1.390 . S
C451 C454 1.339 . S
C452 C450 1.416 . S
C452 C454 1.416 . S
C452 C485 1.448 . S
C453 H438 0.930 . S
C453 N449 1.334 . S
C453 C451 1.390 . S
C454 C451 1.339 . S
C454 C452 1.416 . S
C454 H461 0.930 . S
N455 Tb420 2.572 . S
N455 C456 1.340 . S
N455 C458 1.361 . S
C456 H442 0.930 . S
C456 N455 1.340 . S
C456 C460 1.407 . S
C457 C458 1.413 . S
C457 C459 1.416 . S
C457 C486 1.427 . S
C458 C450 1.424 . S
C458 N455 1.361 . S
C458 C457 1.413 . S
C459 H448 0.931 . S
C459 C457 1.416 . S
C459 C460 1.332 . S
C460 H439 0.929 . S
C460 C456 1.407 . S
C460 C459 1.332 . S
H461 C454 0.930 . S
H462 C485 0.930 . S
H463 C486 0.929 . S
O464 Tb420 2.465 . S
O464 C484 1.264 . S
O465 Tb420 2.387 . S
O465 C476 1.264 . S
O466 Tb431 2.349 . S
O466 C476 1.243 . S
O467 Tb420 2.428 . S
O467 C484 1.256 . S
O468 Tb420 2.308 . S
O468 C483 1.266 . S
O469 Tb431 2.393 . S
O469 C483 1.248 . S
O470 Tb431 2.465 . S
O470 C495 1.264 . S
O471 Tb431 2.387 . S
O471 C487 1.264 . S
O472 Tb420 2.349 . S
O472 C487 1.243 . S
O473 Tb431 2.428 . S
O473 C495 1.256 . S
O474 Tb431 2.308 . S
O474 C494 1.266 . S
O475 Tb420 2.393 . S
O475 C494 1.248 . S
C476 O465 1.264 . S
C476 O466 1.243 . S
C477 C480 1.399 . S
C477 C482 1.383 . S
C477 C484 1.496 . S
C478 C479 1.399 . S
C478 C482 1.389 . S
C479 C478 1.399 . S
C479 C481 1.380 . S
C479 H496 0.929 . S
C480 C477 1.399 . S
C480 C481 1.392 . S
C480 H497 0.929 . S
C481 C479 1.380 . S
C481 C480 1.392 . S
C481 H498 0.929 . S
C482 C477 1.383 . S
C482 C478 1.389 . S
C482 H499 0.931 . S
C483 O468 1.266 . S
C483 O469 1.248 . S
C484 Tb420 2.802 . S
C484 O464 1.264 . S
C484 O467 1.256 . S
C484 C477 1.496 . S
C485 C452 1.448 . S
C485 H462 0.930 . S
C485 C486 1.328 . S
C486 C457 1.427 . S
C486 H463 0.929 . S
C486 C485 1.328 . S
C487 O471 1.264 . S
C487 O472 1.243 . S
C488 C491 1.399 . S
C488 C492 1.383 . S
C488 C495 1.496 . S
C489 C490 1.399 . S
C489 C492 1.389 . S
C490 C489 1.399 . S
C490 C493 1.380 . S
C490 H500 0.929 . S
C491 C488 1.399 . S
C491 C493 1.392 . S
C491 H501 0.929 . S
C492 C488 1.383 . S
C492 C489 1.389 . S
C492 H502 0.931 . S
C493 C490 1.380 . S
C493 C491 1.392 . S
C493 H503 0.929 . S
C494 O474 1.266 . S
C494 O475 1.248 . S
C495 Tb431 2.802 . S
C495 O470 1.264 . S
C495 O473 1.256 . S
C495 C488 1.496 . S
H496 C479 0.929 . S
H497 C480 0.929 . S
H498 C481 0.929 . S
H499 C482 0.931 . S
H500 C490 0.929 . S
H501 C491 0.929 . S
H502 C492 0.931 . S
H503 C493 0.929 . S
Tb504 N533 2.617 . S
Tb504 N539 2.572 . S
Tb504 O548 2.465 . S
Tb504 O549 2.387 . S
Tb504 O551 2.428 . S
Tb504 O552 2.308 . S
Tb504 O556 2.349 . S
Tb504 O559 2.393 . S
Tb504 C568 2.802 . S
C505 N506 1.379 . S
C505 C508 1.416 . S
C505 C512 1.424 . S
N506 C505 1.379 . S
N506 C509 1.334 . S
N506 Tb515 2.617 . S
C507 C509 1.390 . S
C507 C510 1.339 . S
C507 H527 0.930 . S
C508 C505 1.416 . S
C508 C510 1.416 . S
C508 C514 1.448 . S
C509 N506 1.334 . S
C509 C507 1.390 . S
C509 H520 0.930 . S
C510 C507 1.339 . S
C510 C508 1.416 . S
C510 H531 0.930 . S
C511 C512 1.413 . S
C511 C513 1.427 . S
C511 C517 1.416 . S
C512 C505 1.424 . S
C512 C511 1.413 . S
C512 N516 1.361 . S
C513 C511 1.427 . S
C513 C514 1.328 . S
C513 H528 0.929 . S
C514 C508 1.448 . S
C514 C513 1.328 . S
C514 H529 0.930 . S
Tb515 N506 2.617 . S
Tb515 N516 2.572 . S
Tb515 O550 2.349 . S
Tb515 O553 2.393 . S
Tb515 O554 2.465 . S
Tb515 O555 2.387 . S
Tb515 O557 2.428 . S
Tb515 O558 2.308 . S
Tb515 C579 2.802 . S
N516 C512 1.361 . S
N516 Tb515 2.572 . S
N516 C518 1.340 . S
C517 C511 1.416 . S
C517 C519 1.332 . S
C517 H525 0.931 . S
C518 N516 1.340 . S
C518 C519 1.407 . S
C518 H524 0.930 . S
C519 C517 1.332 . S
C519 C518 1.407 . S
C519 H521 0.929 . S
H520 C509 0.930 . S
H521 C519 0.929 . S
H522 C537 0.930 . S
H523 C544 0.929 . S
H524 C518 0.930 . S
H525 C517 0.931 . S
H526 C540 0.930 . S
H527 C507 0.930 . S
H528 C513 0.929 . S
H529 C514 0.930 . S
H530 C535 0.930 . S
H531 C510 0.930 . S
H532 C543 0.931 . S
N533 Tb504 2.617 . S
N533 C534 1.379 . S
N533 C537 1.334 . S
C534 N533 1.379 . S
C534 C536 1.416 . S
C534 C542 1.424 . S
C535 H530 0.930 . S
C535 C537 1.390 . S
C535 C538 1.339 . S
C536 C534 1.416 . S
C536 C538 1.416 . S
C536 C569 1.448 . S
C537 H522 0.930 . S
C537 N533 1.334 . S
C537 C535 1.390 . S
C538 C535 1.339 . S
C538 C536 1.416 . S
C538 H545 0.930 . S
N539 Tb504 2.572 . S
N539 C540 1.340 . S
N539 C542 1.361 . S
C540 H526 0.930 . S
C540 N539 1.340 . S
C540 C544 1.407 . S
C541 C542 1.413 . S
C541 C543 1.416 . S
C541 C570 1.427 . S
C542 C534 1.424 . S
C542 N539 1.361 . S
C542 C541 1.413 . S
C543 H532 0.931 . S
C543 C541 1.416 . S
C543 C544 1.332 . S
C544 H523 0.929 . S
C544 C540 1.407 . S
C544 C543 1.332 . S
H545 C538 0.930 . S
H546 C569 0.930 . S
H547 C570 0.929 . S
O548 Tb504 2.465 . S
O548 C568 1.264 . S
O549 Tb504 2.387 . S
O549 C560 1.264 . S
O550 Tb515 2.349 . S
O550 C560 1.243 . S
O551 Tb504 2.428 . S
O551 C568 1.256 . S
O552 Tb504 2.308 . S
O552 C567 1.266 . S
O553 Tb515 2.393 . S
O553 C567 1.248 . S
O554 Tb515 2.465 . S
O554 C579 1.264 . S
O555 Tb515 2.387 . S
O555 C571 1.264 . S
O556 Tb504 2.349 . S
O556 C571 1.243 . S
O557 Tb515 2.428 . S
O557 C579 1.256 . S
O558 Tb515 2.308 . S
O558 C578 1.266 . S
O559 Tb504 2.393 . S
O559 C578 1.248 . S
C560 O549 1.264 . S
C560 O550 1.243 . S
C561 C564 1.399 . S
C561 C566 1.383 . S
C561 C568 1.496 . S
C562 C563 1.399 . S
C562 C566 1.389 . S
C563 C562 1.399 . S
C563 C565 1.380 . S
C563 H580 0.929 . S
C564 C561 1.399 . S
C564 C565 1.392 . S
C564 H581 0.929 . S
C565 C563 1.380 . S
C565 C564 1.392 . S
C565 H582 0.929 . S
C566 C561 1.383 . S
C566 C562 1.389 . S
C566 H583 0.931 . S
C567 O552 1.266 . S
C567 O553 1.248 . S
C568 Tb504 2.802 . S
C568 O548 1.264 . S
C568 O551 1.256 . S
C568 C561 1.496 . S
C569 C536 1.448 . S
C569 H546 0.930 . S
C569 C570 1.328 . S
C570 C541 1.427 . S
C570 H547 0.929 . S
C570 C569 1.328 . S
C571 O555 1.264 . S
C571 O556 1.243 . S
C572 C575 1.399 . S
C572 C576 1.383 . S
C572 C579 1.496 . S
C573 C574 1.399 . S
C573 C576 1.389 . S
C574 C573 1.399 . S
C574 C577 1.380 . S
C574 H584 0.929 . S
C575 C572 1.399 . S
C575 C577 1.392 . S
C575 H585 0.929 . S
C576 C572 1.383 . S
C576 C573 1.389 . S
C576 H586 0.931 . S
C577 C574 1.380 . S
C577 C575 1.392 . S
C577 H587 0.929 . S
C578 O558 1.266 . S
C578 O559 1.248 . S
C579 Tb515 2.802 . S
C579 O554 1.264 . S
C579 O557 1.256 . S
C579 C572 1.496 . S
H580 C563 0.929 . S
H581 C564 0.929 . S
H582 C565 0.929 . S
H583 C566 0.931 . S
H584 C574 0.929 . S
H585 C575 0.929 . S
H586 C576 0.931 . S
H587 C577 0.929 . S
Tb588 N617 2.617 . S
Tb588 N623 2.572 . S
Tb588 O632 2.465 . S
Tb588 O633 2.387 . S
Tb588 O635 2.428 . S
Tb588 O636 2.308 . S
Tb588 O640 2.349 . S
Tb588 O643 2.393 . S
Tb588 C652 2.802 . S
C589 N590 1.379 . S
C589 C592 1.416 . S
C589 C596 1.424 . S
N590 C589 1.379 . S
N590 C593 1.334 . S
N590 Tb599 2.617 . S
C591 C593 1.390 . S
C591 C594 1.339 . S
C591 H611 0.930 . S
C592 C589 1.416 . S
C592 C594 1.416 . S
C592 C598 1.448 . S
C593 N590 1.334 . S
C593 C591 1.390 . S
C593 H604 0.930 . S
C594 C591 1.339 . S
C594 C592 1.416 . S
C594 H615 0.930 . S
C595 C596 1.413 . S
C595 C597 1.427 . S
C595 C601 1.416 . S
C596 C589 1.424 . S
C596 C595 1.413 . S
C596 N600 1.361 . S
C597 C595 1.427 . S
C597 C598 1.328 . S
C597 H612 0.929 . S
C598 C592 1.448 . S
C598 C597 1.328 . S
C598 H613 0.930 . S
Tb599 N590 2.617 . S
Tb599 N600 2.572 . S
Tb599 O634 2.349 . S
Tb599 O637 2.393 . S
Tb599 O638 2.465 . S
Tb599 O639 2.387 . S
Tb599 O641 2.428 . S
Tb599 O642 2.308 . S
Tb599 C663 2.802 . S
N600 C596 1.361 . S
N600 Tb599 2.572 . S
N600 C602 1.340 . S
C601 C595 1.416 . S
C601 C603 1.332 . S
C601 H609 0.931 . S
C602 N600 1.340 . S
C602 C603 1.407 . S
C602 H608 0.930 . S
C603 C601 1.332 . S
C603 C602 1.407 . S
C603 H605 0.929 . S
H604 C593 0.930 . S
H605 C603 0.929 . S
H606 C621 0.930 . S
H607 C628 0.929 . S
H608 C602 0.930 . S
H609 C601 0.931 . S
H610 C624 0.930 . S
H611 C591 0.930 . S
H612 C597 0.929 . S
H613 C598 0.930 . S
H614 C619 0.930 . S
H615 C594 0.930 . S
H616 C627 0.931 . S
N617 Tb588 2.617 . S
N617 C618 1.379 . S
N617 C621 1.334 . S
C618 N617 1.379 . S
C618 C620 1.416 . S
C618 C626 1.424 . S
C619 H614 0.930 . S
C619 C621 1.390 . S
C619 C622 1.339 . S
C620 C618 1.416 . S
C620 C622 1.416 . S
C620 C653 1.448 . S
C621 H606 0.930 . S
C621 N617 1.334 . S
C621 C619 1.390 . S
C622 C619 1.339 . S
C622 C620 1.416 . S
C622 H629 0.930 . S
N623 Tb588 2.572 . S
N623 C624 1.340 . S
N623 C626 1.361 . S
C624 H610 0.930 . S
C624 N623 1.340 . S
C624 C628 1.407 . S
C625 C626 1.413 . S
C625 C627 1.416 . S
C625 C654 1.427 . S
C626 C618 1.424 . S
C626 N623 1.361 . S
C626 C625 1.413 . S
C627 H616 0.931 . S
C627 C625 1.416 . S
C627 C628 1.332 . S
C628 H607 0.929 . S
C628 C624 1.407 . S
C628 C627 1.332 . S
H629 C622 0.930 . S
H630 C653 0.930 . S
H631 C654 0.929 . S
O632 Tb588 2.465 . S
O632 C652 1.264 . S
O633 Tb588 2.387 . S
O633 C644 1.264 . S
O634 Tb599 2.349 . S
O634 C644 1.243 . S
O635 Tb588 2.428 . S
O635 C652 1.256 . S
O636 Tb588 2.308 . S
O636 C651 1.266 . S
O637 Tb599 2.393 . S
O637 C651 1.248 . S
O638 Tb599 2.465 . S
O638 C663 1.264 . S
O639 Tb599 2.387 . S
O639 C655 1.264 . S
O640 Tb588 2.349 . S
O640 C655 1.243 . S
O641 Tb599 2.428 . S
O641 C663 1.256 . S
O642 Tb599 2.308 . S
O642 C662 1.266 . S
O643 Tb588 2.393 . S
O643 C662 1.248 . S
C644 O633 1.264 . S
C644 O634 1.243 . S
C645 C648 1.399 . S
C645 C650 1.383 . S
C645 C652 1.496 . S
C646 C647 1.399 . S
C646 C650 1.389 . S
C647 C646 1.399 . S
C647 C649 1.380 . S
C647 H664 0.929 . S
C648 C645 1.399 . S
C648 C649 1.392 . S
C648 H665 0.929 . S
C649 C647 1.380 . S
C649 C648 1.392 . S
C649 H666 0.929 . S
C650 C645 1.383 . S
C650 C646 1.389 . S
C650 H667 0.931 . S
C651 O636 1.266 . S
C651 O637 1.248 . S
C652 Tb588 2.802 . S
C652 O632 1.264 . S
C652 O635 1.256 . S
C652 C645 1.496 . S
C653 C620 1.448 . S
C653 H630 0.930 . S
C653 C654 1.328 . S
C654 C625 1.427 . S
C654 H631 0.929 . S
C654 C653 1.328 . S
C655 O639 1.264 . S
C655 O640 1.243 . S
C656 C659 1.399 . S
C656 C660 1.383 . S
C656 C663 1.496 . S
C657 C658 1.399 . S
C657 C660 1.389 . S
C658 C657 1.399 . S
C658 C661 1.380 . S
C658 H668 0.929 . S
C659 C656 1.399 . S
C659 C661 1.392 . S
C659 H669 0.929 . S
C660 C656 1.383 . S
C660 C657 1.389 . S
C660 H670 0.931 . S
C661 C658 1.380 . S
C661 C659 1.392 . S
C661 H671 0.929 . S
C662 O642 1.266 . S
C662 O643 1.248 . S
C663 Tb599 2.802 . S
C663 O638 1.264 . S
C663 O641 1.256 . S
C663 C656 1.496 . S
H664 C647 0.929 . S
H665 C648 0.929 . S
H666 C649 0.929 . S
H667 C650 0.931 . S
H668 C658 0.929 . S
H669 C659 0.929 . S
H670 C660 0.931 . S
H671 C661 0.929 . S
Fe672 O673 1.886 1_455 S
Fe672 O676 1.715 . S
Fe672 O681 2.077 1_455 S
Fe672 O686 1.935 . S
Fe672 O692 2.077 1_455 S
Fe672 O701 1.935 . S
O673 Fe672 1.886 1_655 S
O673 Fe675 1.715 1_545 S
Fe674 O676 1.886 . S
Fe674 O677 1.715 1_545 S
Fe674 O684 1.935 1_545 S
Fe674 O685 2.077 . S
Fe674 O691 1.935 1_545 S
Fe674 O700 2.077 . S
Fe675 O673 1.715 1_565 S
Fe675 O678 1.886 . S
Fe675 O682 1.935 1_565 S
Fe675 O687 2.077 . S
Fe675 O693 1.935 1_565 S
Fe675 O697 2.077 . S
O676 Fe672 1.715 . S
O676 Fe674 1.886 . S
O677 Fe674 1.715 1_565 S
O677 Fe679 1.886 1_455 S
O678 Fe675 1.886 . S
O678 Fe679 1.715 . S
Fe679 O677 1.886 1_655 S
Fe679 O678 1.715 . S
Fe679 O683 2.077 1_655 S
Fe679 O688 1.935 . S
Fe679 O690 2.077 1_655 S
Fe679 O698 1.935 . S
C680 O692 1.381 . S
C680 O693 1.421 . S
O681 Fe672 2.077 1_655 S
O681 C694 1.381 . S
O682 Fe675 1.935 1_545 S
O682 C694 1.421 . S
O683 Fe679 2.077 1_455 S
O683 C699 1.381 . S
O684 Fe674 1.935 1_565 S
O684 C699 1.421 . S
O685 Fe674 2.077 . S
O685 C689 1.381 . S
O686 Fe672 1.935 . S
O686 C689 1.421 . S
O687 Fe675 2.077 . S
O687 C695 1.381 . S
O688 Fe679 1.935 . S
O688 C695 1.421 . S
C689 O685 1.381 . S
C689 O686 1.421 . S
O690 Fe679 2.077 1_455 S
O690 C702 1.381 . S
O691 Fe674 1.935 1_565 S
O691 C702 1.421 . S
O692 Fe672 2.077 1_655 S
O692 C680 1.381 . S
O693 Fe675 1.935 1_545 S
O693 C680 1.421 . S
C694 O681 1.381 . S
C694 O682 1.421 . S
C695 O687 1.381 . S
C695 O688 1.421 . S
C696 O697 1.381 . S
C696 O698 1.421 . S
O697 Fe675 2.077 . S
O697 C696 1.381 . S
O698 Fe679 1.935 . S
O698 C696 1.421 . S
C699 O683 1.381 . S
C699 O684 1.421 . S
O700 Fe674 2.077 . S
O700 C703 1.381 . S
O701 Fe672 1.935 . S
O701 C703 1.421 . S
C702 O690 1.381 . S
C702 O691 1.421 . S
C703 O700 1.381 . S
C703 O701 1.421 . S
Fe704 O705 1.886 . S
Fe704 O708 1.715 . S
Fe704 O713 2.077 . S
Fe704 O718 1.935 . S
Fe704 O724 2.077 1_556 S
Fe704 O733 1.935 1_556 S
O705 Fe704 1.886 . S
O705 Fe707 1.715 1_565 S
Fe706 O708 1.886 1_554 S
Fe706 O709 1.715 1_565 S
Fe706 O716 1.935 1_564 S
Fe706 O717 2.077 1_554 S
Fe706 O723 1.935 1_565 S
Fe706 O732 2.077 . S
Fe707 O705 1.715 1_545 S
Fe707 O710 1.886 1_556 S
Fe707 O714 1.935 1_545 S
Fe707 O719 2.077 . S
Fe707 O725 1.935 1_546 S
Fe707 O729 2.077 1_556 S
O708 Fe704 1.715 . S
O708 Fe706 1.886 1_556 S
O709 Fe706 1.715 1_545 S
O709 Fe711 1.886 . S
O710 Fe707 1.886 1_554 S
O710 Fe711 1.714 . S
Fe711 O709 1.886 . S
Fe711 O710 1.714 . S
Fe711 O715 2.077 1_554 S
Fe711 O720 1.935 1_554 S
Fe711 O722 2.077 . S
Fe711 O730 1.935 . S
C712 O724 1.381 . S
C712 O725 1.421 . S
O713 Fe704 2.077 . S
O713 C726 1.381 . S
O714 Fe707 1.935 1_565 S
O714 C726 1.421 . S
O715 Fe711 2.077 1_556 S
O715 C731 1.381 . S
O716 Fe706 1.935 1_546 S
O716 C731 1.421 . S
O717 Fe706 2.077 1_556 S
O717 C721 1.381 . S
O718 Fe704 1.935 . S
O718 C721 1.421 . S
O719 Fe707 2.077 . S
O719 C727 1.381 . S
O720 Fe711 1.935 1_556 S
O720 C727 1.421 . S
C721 O717 1.381 . S
C721 O718 1.421 . S
O722 Fe711 2.077 . S
O722 C734 1.381 . S
O723 Fe706 1.935 1_545 S
O723 C734 1.421 . S
O724 Fe704 2.077 1_554 S
O724 C712 1.381 . S
O725 Fe707 1.935 1_564 S
O725 C712 1.421 . S
C726 O713 1.381 . S
C726 O714 1.421 . S
C727 O719 1.381 . S
C727 O720 1.421 . S
C728 O729 1.381 . S
C728 O730 1.421 . S
O729 Fe707 2.077 1_554 S
O729 C728 1.381 . S
O730 Fe711 1.935 . S
O730 C728 1.421 . S
C731 O715 1.381 . S
C731 O716 1.421 . S
O732 Fe706 2.077 . S
O732 C735 1.381 . S
O733 Fe704 1.935 1_554 S
O733 C735 1.421 . S
C734 O722 1.381 . S
C734 O723 1.421 . S
C735 O732 1.381 . S
C735 O733 1.421 . S
Fe736 O737 1.886 1_455 S
Fe736 O740 1.714 . S
Fe736 O745 2.077 1_454 S
Fe736 O750 1.935 1_554 S
Fe736 O756 2.077 1_455 S
Fe736 O765 1.935 . S
O737 Fe736 1.886 1_655 S
O737 Fe739 1.715 . S
Fe738 O740 1.886 1_556 S
Fe738 O741 1.715 . S
Fe738 O748 1.935 . S
Fe738 O749 2.077 . S
Fe738 O755 1.935 1_556 S
Fe738 O764 2.077 1_556 S
Fe739 O737 1.715 . S
Fe739 O742 1.886 1_554 S
Fe739 O746 1.935 1_554 S
Fe739 O751 2.077 1_554 S
Fe739 O757 1.935 . S
Fe739 O761 2.077 . S
O740 Fe736 1.714 . S
O740 Fe738 1.886 1_554 S
O741 Fe738 1.715 . S
O741 Fe743 1.886 1_455 S
O742 Fe739 1.886 1_556 S
O742 Fe743 1.715 . S
Fe743 O741 1.886 1_655 S
Fe743 O742 1.715 . S
Fe743 O747 2.077 1_655 S
Fe743 O752 1.935 . S
Fe743 O754 2.077 1_656 S
Fe743 O762 1.935 1_556 S
C744 O756 1.381 . S
C744 O757 1.421 . S
O745 Fe736 2.077 1_656 S
O745 C758 1.381 . S
O746 Fe739 1.935 1_556 S
O746 C758 1.421 . S
O747 Fe743 2.077 1_455 S
O747 C763 1.381 . S
O748 Fe738 1.935 . S
O748 C763 1.421 . S
O749 Fe738 2.077 . S
O749 C753 1.381 . S
O750 Fe736 1.935 1_556 S
O750 C753 1.421 . S
O751 Fe739 2.077 1_556 S
O751 C759 1.381 . S
O752 Fe743 1.935 . S
O752 C759 1.421 . S
C753 O749 1.381 . S
C753 O750 1.421 . S
O754 Fe743 2.077 1_454 S
O754 C766 1.381 . S
O755 Fe738 1.935 1_554 S
O755 C766 1.421 . S
O756 Fe736 2.077 1_655 S
O756 C744 1.381 . S
O757 Fe739 1.935 . S
O757 C744 1.421 . S
C758 O745 1.381 . S
C758 O746 1.421 . S
C759 O751 1.381 . S
C759 O752 1.421 . S
C760 O761 1.381 . S
C760 O762 1.421 . S
O761 Fe739 2.077 . S
O761 C760 1.381 . S
O762 Fe743 1.935 1_554 S
O762 C760 1.421 . S
C763 O747 1.381 . S
C763 O748 1.421 . S
O764 Fe738 2.077 1_554 S
O764 C767 1.381 . S
O765 Fe736 1.935 . S
O765 C767 1.421 . S
C766 O754 1.381 . S
C766 O755 1.421 . S
C767 O764 1.381 . S
C767 O765 1.421 . S
Fe768 O769 1.886 . S
Fe768 O772 1.715 . S
Fe768 O777 2.077 . S
Fe768 O782 1.935 . S
Fe768 O788 2.077 . S
Fe768 O797 1.935 . S
O769 Fe768 1.886 . S
O769 Fe771 1.715 . S
Fe770 O772 1.886 1_554 S
Fe770 O773 1.715 . S
Fe770 O780 1.935 . S
Fe770 O781 2.077 1_554 S
Fe770 O787 1.935 . S
Fe770 O796 2.077 1_554 S
Fe771 O769 1.715 . S
Fe771 O774 1.886 1_556 S
Fe771 O778 1.935 . S
Fe771 O783 2.077 1_556 S
Fe771 O789 1.935 . S
Fe771 O793 2.077 1_556 S
O772 Fe768 1.715 . S
O772 Fe770 1.886 1_556 S
O773 Fe770 1.715 . S
O773 Fe775 1.886 . S
O774 Fe771 1.886 1_554 S
O774 Fe775 1.715 . S
Fe775 O773 1.886 . S
Fe775 O774 1.715 . S
Fe775 O779 2.077 . S
Fe775 O784 1.935 . S
Fe775 O786 2.077 . S
Fe775 O794 1.935 . S
C776 O788 1.381 . S
C776 O789 1.421 . S
O777 Fe768 2.077 . S
O777 C790 1.381 . S
O778 Fe771 1.935 . S
O778 C790 1.421 . S
O779 Fe775 2.077 . S
O779 C795 1.381 . S
O780 Fe770 1.935 . S
O780 C795 1.421 . S
O781 Fe770 2.077 1_556 S
O781 C785 1.381 . S
O782 Fe768 1.935 . S
O782 C785 1.421 . S
O783 Fe771 2.077 1_554 S
O783 C791 1.381 . S
O784 Fe775 1.935 . S
O784 C791 1.421 . S
C785 O781 1.381 . S
C785 O782 1.421 . S
O786 Fe775 2.077 . S
O786 C798 1.381 . S
O787 Fe770 1.935 . S
O787 C798 1.421 . S
O788 Fe768 2.077 . S
O788 C776 1.381 . S
O789 Fe771 1.935 . S
O789 C776 1.421 . S
C790 O777 1.381 . S
C790 O778 1.421 . S
C791 O783 1.381 . S
C791 O784 1.421 . S
C792 O793 1.381 . S
C792 O794 1.421 . S
O793 Fe771 2.077 1_554 S
O793 C792 1.381 . S
O794 Fe775 1.935 . S
O794 C792 1.421 . S
C795 O779 1.381 . S
C795 O780 1.421 . S
O796 Fe770 2.077 1_556 S
O796 C799 1.381 . S
O797 Fe768 1.935 . S
O797 C799 1.421 . S
C798 O786 1.381 . S
C798 O787 1.421 . S
C799 O796 1.381 . S
C799 O797 1.421 . S
Fe800 O801 1.886 . S
Fe800 O804 1.715 . S
Fe800 O809 2.077 1_655 S
Fe800 O814 1.935 1_655 S
Fe800 O820 2.077 . S
Fe800 O829 1.935 . S
O801 Fe800 1.886 . S
O801 Fe803 1.715 . S
Fe802 O804 1.886 1_455 S
Fe802 O805 1.715 . S
Fe802 O812 1.935 . S
Fe802 O813 2.077 . S
Fe802 O819 1.935 1_455 S
Fe802 O828 2.077 1_455 S
Fe803 O801 1.715 . S
Fe803 O806 1.886 1_655 S
Fe803 O810 1.935 1_655 S
Fe803 O815 2.077 1_655 S
Fe803 O821 1.935 . S
Fe803 O825 2.077 . S
O804 Fe800 1.715 . S
O804 Fe802 1.886 1_655 S
O805 Fe802 1.715 . S
O805 Fe807 1.886 . S
O806 Fe803 1.886 1_455 S
O806 Fe807 1.715 . S
Fe807 O805 1.886 . S
Fe807 O806 1.715 . S
Fe807 O811 2.077 . S
Fe807 O816 1.935 . S
Fe807 O818 2.077 1_455 S
Fe807 O826 1.935 1_455 S
C808 O820 1.381 . S
C808 O821 1.421 . S
O809 Fe800 2.077 1_455 S
O809 C822 1.381 . S
O810 Fe803 1.935 1_455 S
O810 C822 1.421 . S
O811 Fe807 2.077 . S
O811 C827 1.381 . S
O812 Fe802 1.935 . S
O812 C827 1.421 . S
O813 Fe802 2.077 . S
O813 C817 1.381 . S
O814 Fe800 1.935 1_455 S
O814 C817 1.421 . S
O815 Fe803 2.077 1_455 S
O815 C823 1.381 . S
O816 Fe807 1.935 . S
O816 C823 1.421 . S
C817 O813 1.381 . S
C817 O814 1.421 . S
O818 Fe807 2.077 1_655 S
O818 C830 1.381 . S
O819 Fe802 1.935 1_655 S
O819 C830 1.421 . S
O820 Fe800 2.077 . S
O820 C808 1.381 . S
O821 Fe803 1.935 . S
O821 C808 1.421 . S
C822 O809 1.381 . S
C822 O810 1.421 . S
C823 O815 1.381 . S
C823 O816 1.421 . S
C824 O825 1.381 . S
C824 O826 1.421 . S
O825 Fe803 2.077 . S
O825 C824 1.381 . S
O826 Fe807 1.935 1_655 S
O826 C824 1.421 . S
C827 O811 1.381 . S
C827 O812 1.421 . S
O828 Fe802 2.077 1_655 S
O828 C831 1.381 . S
O829 Fe800 1.935 . S
O829 C831 1.421 . S
C830 O818 1.381 . S
C830 O819 1.421 . S
C831 O828 1.381 . S
C831 O829 1.421 . S
Fe832 O833 1.886 . S
Fe832 O836 1.715 . S
Fe832 O841 2.077 . S
Fe832 O846 1.935 . S
Fe832 O852 2.077 . S
Fe832 O861 1.935 . S
O833 Fe832 1.886 . S
O833 Fe835 1.715 1_565 S
Fe834 O836 1.886 . S
Fe834 O837 1.715 1_565 S
Fe834 O844 1.935 1_565 S
Fe834 O845 2.077 . S
Fe834 O851 1.935 1_565 S
Fe834 O860 2.077 . S
Fe835 O833 1.715 1_545 S
Fe835 O838 1.886 . S
Fe835 O842 1.935 1_545 S
Fe835 O847 2.077 . S
Fe835 O853 1.935 1_545 S
Fe835 O857 2.077 . S
O836 Fe832 1.715 . S
O836 Fe834 1.886 . S
O837 Fe834 1.715 1_545 S
O837 Fe839 1.886 . S
O838 Fe835 1.886 . S
O838 Fe839 1.715 . S
Fe839 O837 1.886 . S
Fe839 O838 1.715 . S
Fe839 O843 2.077 . S
Fe839 O848 1.935 . S
Fe839 O850 2.077 . S
Fe839 O858 1.935 . S
C840 O852 1.381 . S
C840 O853 1.421 . S
O841 Fe832 2.077 . S
O841 C854 1.381 . S
O842 Fe835 1.935 1_565 S
O842 C854 1.421 . S
O843 Fe839 2.077 . S
O843 C859 1.381 . S
O844 Fe834 1.935 1_545 S
O844 C859 1.421 . S
O845 Fe834 2.077 . S
O845 C849 1.381 . S
O846 Fe832 1.935 . S
O846 C849 1.421 . S
O847 Fe835 2.077 . S
O847 C855 1.381 . S
O848 Fe839 1.935 . S
O848 C855 1.421 . S
C849 O845 1.381 . S
C849 O846 1.421 . S
O850 Fe839 2.077 . S
O850 C862 1.381 . S
O851 Fe834 1.935 1_545 S
O851 C862 1.421 . S
O852 Fe832 2.077 . S
O852 C840 1.381 . S
O853 Fe835 1.935 1_565 S
O853 C840 1.421 . S
C854 O841 1.381 . S
C854 O842 1.421 . S
C855 O847 1.381 . S
C855 O848 1.421 . S
C856 O857 1.381 . S
C856 O858 1.421 . S
O857 Fe835 2.077 . S
O857 C856 1.381 . S
O858 Fe839 1.935 . S
O858 C856 1.421 . S
C859 O843 1.381 . S
C859 O844 1.421 . S
O860 Fe834 2.077 . S
O860 C863 1.381 . S
O861 Fe832 1.935 . S
O861 C863 1.421 . S
C862 O850 1.381 . S
C862 O851 1.421 . S
C863 O860 1.381 . S
C863 O861 1.421 . S
C864 C865 1.349 . S
C864 C866 1.327 . S
C864 H889 0.950 . S
C865 C864 1.349 . S
C865 C881 1.349 . S
C866 C864 1.327 . S
C866 C885 1.429 . S
C866 H890 0.950 . S
C867 C884 1.574 . S
C867 C886 1.368 . S
C867 H891 0.949 . S
H868 C872 0.949 . S
C869 C870 1.349 . S
C869 C871 1.327 . S
C869 H892 0.950 . S
C870 C869 1.349 . S
C870 C882 1.349 . S
C871 C869 1.327 . S
C871 C887 1.429 . S
C871 H893 0.950 . S
C872 H868 0.949 . S
C872 C880 1.574 . S
C872 C888 1.368 . S
H873 C881 0.950 . S
H874 C879 0.950 . S
H875 C880 0.949 . S
H876 C882 0.950 . S
H877 C883 0.950 . S
H878 C884 0.949 . S
C879 H874 0.950 . S
C879 C881 1.327 . S
C879 C885 1.429 . S
C880 C872 1.574 . S
C880 H875 0.949 . S
C880 C886 1.368 . S
C881 C865 1.349 . S
C881 H873 0.950 . S
C881 C879 1.327 . S
C882 C870 1.349 . S
C882 H876 0.950 . S
C882 C883 1.327 . S
C883 H877 0.950 . S
C883 C882 1.327 . S
C883 C887 1.429 . S
C884 C867 1.574 . S
C884 H878 0.949 . S
C884 C888 1.368 . S
C885 C866 1.429 . S
C885 C879 1.429 . S
C885 C886 1.523 . S
C886 C867 1.368 . S
C886 C880 1.368 . S
C886 C885 1.523 . S
C887 C871 1.429 . S
C887 C883 1.429 . S
C887 C888 1.523 . S
C888 C872 1.368 . S
C888 C884 1.368 . S
C888 C887 1.523 . S
H889 C864 0.950 . S
H890 C866 0.950 . S
H891 C867 0.949 . S
H892 C869 0.950 . S
H893 C871 0.950 . S
C894 C895 1.349 . S
C894 C896 1.327 . S
C894 H919 0.950 . S
C895 C894 1.349 . S
C895 C911 1.349 . S
C896 C894 1.327 . S
C896 C915 1.429 . S
C896 H920 0.950 . S
C897 C914 1.574 . S
C897 C916 1.368 . S
C897 H921 0.949 . S
H898 C902 0.949 . S
C899 C900 1.349 . S
C899 C901 1.327 . S
C899 H922 0.950 . S
C900 C899 1.349 . S
C900 C912 1.349 . S
C901 C899 1.327 . S
C901 C917 1.429 . S
C901 H923 0.950 . S
C902 H898 0.949 . S
C902 C910 1.574 . S
C902 C918 1.368 . S
H903 C911 0.950 . S
H904 C909 0.950 . S
H905 C910 0.949 . S
H906 C912 0.950 . S
H907 C913 0.950 . S
H908 C914 0.949 . S
C909 H904 0.950 . S
C909 C911 1.327 . S
C909 C915 1.429 . S
C910 C902 1.574 . S
C910 H905 0.949 . S
C910 C916 1.368 . S
C911 C895 1.349 . S
C911 H903 0.950 . S
C911 C909 1.327 . S
C912 C900 1.349 . S
C912 H906 0.950 . S
C912 C913 1.327 . S
C913 H907 0.950 . S
C913 C912 1.327 . S
C913 C917 1.429 . S
C914 C897 1.574 . S
C914 H908 0.949 . S
C914 C918 1.368 . S
C915 C896 1.429 . S
C915 C909 1.429 . S
C915 C916 1.523 . S
C916 C897 1.368 . S
C916 C910 1.368 . S
C916 C915 1.523 . S
C917 C901 1.429 . S
C917 C913 1.429 . S
C917 C918 1.523 . S
C918 C902 1.368 . S
C918 C914 1.368 . S
C918 C917 1.523 . S
H919 C894 0.950 . S
H920 C896 0.950 . S
H921 C897 0.949 . S
H922 C899 0.950 . S
H923 C901 0.950 . S
C924 C925 1.349 . S
C924 C926 1.327 . S
C924 H949 0.950 . S
C925 C924 1.349 . S
C925 C941 1.349 . S
C926 C924 1.327 . S
C926 C945 1.429 . S
C926 H950 0.950 . S
C927 C944 1.574 . S
C927 C946 1.368 . S
C927 H951 0.949 . S
H928 C932 0.949 . S
C929 C930 1.349 . S
C929 C931 1.327 . S
C929 H952 0.950 . S
C930 C929 1.349 . S
C930 C942 1.349 . S
C931 C929 1.327 . S
C931 C947 1.429 . S
C931 H953 0.950 . S
C932 H928 0.949 . S
C932 C940 1.574 . S
C932 C948 1.368 . S
H933 C941 0.950 . S
H934 C939 0.950 . S
H935 C940 0.949 . S
H936 C942 0.950 . S
H937 C943 0.950 . S
H938 C944 0.949 . S
C939 H934 0.950 . S
C939 C941 1.327 . S
C939 C945 1.429 . S
C940 C932 1.574 . S
C940 H935 0.949 . S
C940 C946 1.368 . S
C941 C925 1.349 . S
C941 H933 0.950 . S
C941 C939 1.327 . S
C942 C930 1.349 . S
C942 H936 0.950 . S
C942 C943 1.327 . S
C943 H937 0.950 . S
C943 C942 1.327 . S
C943 C947 1.429 . S
C944 C927 1.574 . S
C944 H938 0.949 . S
C944 C948 1.368 . S
C945 C926 1.429 . S
C945 C939 1.429 . S
C945 C946 1.523 . S
C946 C927 1.368 . S
C946 C940 1.368 . S
C946 C945 1.523 . S
C947 C931 1.429 . S
C947 C943 1.429 . S
C947 C948 1.523 . S
C948 C932 1.368 . S
C948 C944 1.368 . S
C948 C947 1.523 . S
H949 C924 0.950 . S
H950 C926 0.950 . S
H951 C927 0.949 . S
H952 C929 0.950 . S
H953 C931 0.950 . S
C954 C955 1.349 . S
C954 C956 1.327 . S
C954 H979 0.950 . S
C955 C954 1.349 . S
C955 C971 1.349 . S
C956 C954 1.327 . S
C956 C975 1.429 . S
C956 H980 0.950 . S
C957 C974 1.574 . S
C957 C976 1.368 . S
C957 H981 0.949 . S
H958 C962 0.949 . S
C959 C960 1.349 . S
C959 C961 1.327 . S
C959 H982 0.950 . S
C960 C959 1.349 . S
C960 C972 1.349 . S
C961 C959 1.327 . S
C961 C977 1.429 . S
C961 H983 0.950 . S
C962 H958 0.949 . S
C962 C970 1.574 . S
C962 C978 1.368 . S
H963 C971 0.950 . S
H964 C969 0.950 . S
H965 C970 0.949 . S
H966 C972 0.950 . S
H967 C973 0.950 . S
H968 C974 0.949 . S
C969 H964 0.950 . S
C969 C971 1.327 . S
C969 C975 1.429 . S
C970 C962 1.574 . S
C970 H965 0.949 . S
C970 C976 1.368 . S
C971 C955 1.349 . S
C971 H963 0.950 . S
C971 C969 1.327 . S
C972 C960 1.349 . S
C972 H966 0.950 . S
C972 C973 1.327 . S
C973 H967 0.950 . S
C973 C972 1.327 . S
C973 C977 1.429 . S
C974 C957 1.574 . S
C974 H968 0.949 . S
C974 C978 1.368 . S
C975 C956 1.429 . S
C975 C969 1.429 . S
C975 C976 1.523 . S
C976 C957 1.368 . S
C976 C970 1.368 . S
C976 C975 1.523 . S
C977 C961 1.429 . S
C977 C973 1.429 . S
C977 C978 1.523 . S
C978 C962 1.368 . S
C978 C974 1.368 . S
C978 C977 1.523 . S
H979 C954 0.950 . S
H980 C956 0.950 . S
H981 C957 0.949 . S
H982 C959 0.950 . S
H983 C961 0.950 . S
C984 C985 1.349 . S
C984 C986 1.327 . S
C984 H1009 0.950 . S
C985 C984 1.349 . S
C985 C1001 1.349 . S
C986 C984 1.327 . S
C986 C1005 1.429 . S
C986 H1010 0.950 . S
C987 C1004 1.574 . S
C987 C1006 1.368 . S
C987 H1011 0.949 . S
H988 C992 0.949 . S
C989 C990 1.349 . S
C989 C991 1.327 . S
C989 H1012 0.950 . S
C990 C989 1.349 . S
C990 C1002 1.349 . S
C991 C989 1.327 . S
C991 C1007 1.429 . S
C991 H1013 0.950 . S
C992 H988 0.949 . S
C992 C1000 1.574 . S
C992 C1008 1.368 . S
H993 C1001 0.950 . S
H994 C999 0.950 . S
H995 C1000 0.949 . S
H996 C1002 0.950 . S
H997 C1003 0.950 . S
H998 C1004 0.949 . S
C999 H994 0.950 . S
C999 C1001 1.327 . S
C999 C1005 1.429 . S
C1000 C992 1.574 . S
C1000 H995 0.949 . S
C1000 C1006 1.368 . S
C1001 C985 1.349 . S
C1001 H993 0.950 . S
C1001 C999 1.327 . S
C1002 C990 1.349 . S
C1002 H996 0.950 . S
C1002 C1003 1.327 . S
C1003 H997 0.950 . S
C1003 C1002 1.327 . S
C1003 C1007 1.429 . S
C1004 C987 1.574 . S
C1004 H998 0.949 . S
C1004 C1008 1.368 . S
C1005 C986 1.429 . S
C1005 C999 1.429 . S
C1005 C1006 1.523 . S
C1006 C987 1.368 . S
C1006 C1000 1.368 . S
C1006 C1005 1.523 . S
C1007 C991 1.429 . S
C1007 C1003 1.429 . S
C1007 C1008 1.523 . S
C1008 C992 1.368 . S
C1008 C1004 1.368 . S
C1008 C1007 1.523 . S
H1009 C984 0.950 . S
H1010 C986 0.950 . S
H1011 C987 0.949 . S
H1012 C989 0.950 . S
H1013 C991 0.950 . S
C1014 C1015 1.349 . S
C1014 C1016 1.327 . S
C1014 H1039 0.950 . S
C1015 C1014 1.349 . S
C1015 C1031 1.349 . S
C1016 C1014 1.327 . S
C1016 C1035 1.429 . S
C1016 H1040 0.950 . S
C1017 C1034 1.574 . S
C1017 C1036 1.368 . S
C1017 H1041 0.949 . S
H1018 C1022 0.949 . S
C1019 C1020 1.349 . S
C1019 C1021 1.327 . S
C1019 H1042 0.950 . S
C1020 C1019 1.349 . S
C1020 C1032 1.349 . S
C1021 C1019 1.327 . S
C1021 C1037 1.429 . S
C1021 H1043 0.950 . S
C1022 H1018 0.949 . S
C1022 C1030 1.574 . S
C1022 C1038 1.368 . S
H1023 C1031 0.950 . S
H1024 C1029 0.950 . S
H1025 C1030 0.949 . S
H1026 C1032 0.950 . S
H1027 C1033 0.950 . S
H1028 C1034 0.949 . S
C1029 H1024 0.950 . S
C1029 C1031 1.327 . S
C1029 C1035 1.429 . S
C1030 C1022 1.574 . S
C1030 H1025 0.949 . S
C1030 C1036 1.368 . S
C1031 C1015 1.349 . S
C1031 H1023 0.950 . S
C1031 C1029 1.327 . S
C1032 C1020 1.349 . S
C1032 H1026 0.950 . S
C1032 C1033 1.327 . S
C1033 H1027 0.950 . S
C1033 C1032 1.327 . S
C1033 C1037 1.429 . S
C1034 C1017 1.574 . S
C1034 H1028 0.949 . S
C1034 C1038 1.368 . S
C1035 C1016 1.429 . S
C1035 C1029 1.429 . S
C1035 C1036 1.523 . S
C1036 C1017 1.368 . S
C1036 C1030 1.368 . S
C1036 C1035 1.523 . S
C1037 C1021 1.429 . S
C1037 C1033 1.429 . S
C1037 C1038 1.523 . S
C1038 C1022 1.368 . S
C1038 C1034 1.368 . S
C1038 C1037 1.523 . S
H1039 C1014 0.950 . S
H1040 C1016 0.950 . S
H1041 C1017 0.949 . S
H1042 C1019 0.950 . S
H1043 C1021 0.950 . S
C1044 C1045 1.349 . S
C1044 C1046 1.327 . S
C1044 H1069 0.950 . S
C1045 C1044 1.349 . S
C1045 C1061 1.349 . S
C1046 C1044 1.327 . S
C1046 C1065 1.429 . S
C1046 H1070 0.950 . S
C1047 C1064 1.574 . S
C1047 C1066 1.368 . S
C1047 H1071 0.949 . S
H1048 C1052 0.949 . S
C1049 C1050 1.349 . S
C1049 C1051 1.327 . S
C1049 H1072 0.950 . S
C1050 C1049 1.349 . S
C1050 C1062 1.349 . S
C1051 C1049 1.327 . S
C1051 C1067 1.429 . S
C1051 H1073 0.950 . S
C1052 H1048 0.949 . S
C1052 C1060 1.574 . S
C1052 C1068 1.368 . S
H1053 C1061 0.950 . S
H1054 C1059 0.950 . S
H1055 C1060 0.949 . S
H1056 C1062 0.950 . S
H1057 C1063 0.950 . S
H1058 C1064 0.949 . S
C1059 H1054 0.950 . S
C1059 C1061 1.327 . S
C1059 C1065 1.429 . S
C1060 C1052 1.574 . S
C1060 H1055 0.949 . S
C1060 C1066 1.368 . S
C1061 C1045 1.349 . S
C1061 H1053 0.950 . S
C1061 C1059 1.327 . S
C1062 C1050 1.349 . S
C1062 H1056 0.950 . S
C1062 C1063 1.327 . S
C1063 H1057 0.950 . S
C1063 C1062 1.327 . S
C1063 C1067 1.429 . S
C1064 C1047 1.574 . S
C1064 H1058 0.949 . S
C1064 C1068 1.368 . S
C1065 C1046 1.429 . S
C1065 C1059 1.429 . S
C1065 C1066 1.523 . S
C1066 C1047 1.368 . S
C1066 C1060 1.368 . S
C1066 C1065 1.523 . S
C1067 C1051 1.429 . S
C1067 C1063 1.429 . S
C1067 C1068 1.523 . S
C1068 C1052 1.368 . S
C1068 C1064 1.368 . S
C1068 C1067 1.523 . S
H1069 C1044 0.950 . S
H1070 C1046 0.950 . S
H1071 C1047 0.949 . S
H1072 C1049 0.950 . S
H1073 C1051 0.950 . S
C1074 C1075 1.349 . S
C1074 C1076 1.327 . S
C1074 H1099 0.950 . S
C1075 C1074 1.349 . S
C1075 C1091 1.349 . S
C1076 C1074 1.327 . S
C1076 C1095 1.429 . S
C1076 H1100 0.950 . S
C1077 C1094 1.574 . S
C1077 C1096 1.368 . S
C1077 H1101 0.949 . S
H1078 C1082 0.949 . S
C1079 C1080 1.349 . S
C1079 C1081 1.327 . S
C1079 H1102 0.950 . S
C1080 C1079 1.349 . S
C1080 C1092 1.349 . S
C1081 C1079 1.327 . S
C1081 C1097 1.429 . S
C1081 H1103 0.950 . S
C1082 H1078 0.949 . S
C1082 C1090 1.574 . S
C1082 C1098 1.368 . S
H1083 C1091 0.950 . S
H1084 C1089 0.950 . S
H1085 C1090 0.949 . S
H1086 C1092 0.950 . S
H1087 C1093 0.950 . S
H1088 C1094 0.949 . S
C1089 H1084 0.950 . S
C1089 C1091 1.327 . S
C1089 C1095 1.429 . S
C1090 C1082 1.574 . S
C1090 H1085 0.949 . S
C1090 C1096 1.368 . S
C1091 C1075 1.349 . S
C1091 H1083 0.950 . S
C1091 C1089 1.327 . S
C1092 C1080 1.349 . S
C1092 H1086 0.950 . S
C1092 C1093 1.327 . S
C1093 H1087 0.950 . S
C1093 C1092 1.327 . S
C1093 C1097 1.429 . S
C1094 C1077 1.574 . S
C1094 H1088 0.949 . S
C1094 C1098 1.368 . S
C1095 C1076 1.429 . S
C1095 C1089 1.429 . S
C1095 C1096 1.523 . S
C1096 C1077 1.368 . S
C1096 C1090 1.368 . S
C1096 C1095 1.523 . S
C1097 C1081 1.429 . S
C1097 C1093 1.429 . S
C1097 C1098 1.523 . S
C1098 C1082 1.368 . S
C1098 C1094 1.368 . S
C1098 C1097 1.523 . S
H1099 C1074 0.950 . S
H1100 C1076 0.950 . S
H1101 C1077 0.949 . S
H1102 C1079 0.950 . S
H1103 C1081 0.950 . S
C1104 C1105 1.349 . S
C1104 C1106 1.327 . S
C1104 H1129 0.950 . S
C1105 C1104 1.349 . S
C1105 C1121 1.349 . S
C1106 C1104 1.327 . S
C1106 C1125 1.429 . S
C1106 H1130 0.950 . S
C1107 C1124 1.574 . S
C1107 C1126 1.368 . S
C1107 H1131 0.949 . S
H1108 C1112 0.949 . S
C1109 C1110 1.349 . S
C1109 C1111 1.327 . S
C1109 H1132 0.950 . S
C1110 C1109 1.349 . S
C1110 C1122 1.349 . S
C1111 C1109 1.327 . S
C1111 C1127 1.429 . S
C1111 H1133 0.950 . S
C1112 H1108 0.949 . S
C1112 C1120 1.574 . S
C1112 C1128 1.368 . S
H1113 C1121 0.950 . S
H1114 C1119 0.950 . S
H1115 C1120 0.949 . S
H1116 C1122 0.950 . S
H1117 C1123 0.950 . S
H1118 C1124 0.949 . S
C1119 H1114 0.950 . S
C1119 C1121 1.327 . S
C1119 C1125 1.429 . S
C1120 C1112 1.574 . S
C1120 H1115 0.949 . S
C1120 C1126 1.368 . S
C1121 C1105 1.349 . S
C1121 H1113 0.950 . S
C1121 C1119 1.327 . S
C1122 C1110 1.349 . S
C1122 H1116 0.950 . S
C1122 C1123 1.327 . S
C1123 H1117 0.950 . S
C1123 C1122 1.327 . S
C1123 C1127 1.429 . S
C1124 C1107 1.574 . S
C1124 H1118 0.949 . S
C1124 C1128 1.368 . S
C1125 C1106 1.429 . S
C1125 C1119 1.429 . S
C1125 C1126 1.523 . S
C1126 C1107 1.368 . S
C1126 C1120 1.368 . S
C1126 C1125 1.523 . S
C1127 C1111 1.429 . S
C1127 C1123 1.429 . S
C1127 C1128 1.523 . S
C1128 C1112 1.368 . S
C1128 C1124 1.368 . S
C1128 C1127 1.523 . S
H1129 C1104 0.950 . S
H1130 C1106 0.950 . S
H1131 C1107 0.949 . S
H1132 C1109 0.950 . S
H1133 C1111 0.950 . S
C1134 C1135 1.349 . S
C1134 C1136 1.327 . S
C1134 H1159 0.950 . S
C1135 C1134 1.349 . S
C1135 C1151 1.349 . S
C1136 C1134 1.327 . S
C1136 C1155 1.429 . S
C1136 H1160 0.950 . S
C1137 C1154 1.574 . S
C1137 C1156 1.368 . S
C1137 H1161 0.949 . S
H1138 C1142 0.949 . S
C1139 C1140 1.349 . S
C1139 C1141 1.327 . S
C1139 H1162 0.950 . S
C1140 C1139 1.349 . S
C1140 C1152 1.349 . S
C1141 C1139 1.327 . S
C1141 C1157 1.429 . S
C1141 H1163 0.950 . S
C1142 H1138 0.949 . S
C1142 C1150 1.574 . S
C1142 C1158 1.368 . S
H1143 C1151 0.950 . S
H1144 C1149 0.950 . S
H1145 C1150 0.949 . S
H1146 C1152 0.950 . S
H1147 C1153 0.950 . S
H1148 C1154 0.949 . S
C1149 H1144 0.950 . S
C1149 C1151 1.327 . S
C1149 C1155 1.429 . S
C1150 C1142 1.574 . S
C1150 H1145 0.949 . S
C1150 C1156 1.368 . S
C1151 C1135 1.349 . S
C1151 H1143 0.950 . S
C1151 C1149 1.327 . S
C1152 C1140 1.349 . S
C1152 H1146 0.950 . S
C1152 C1153 1.327 . S
C1153 H1147 0.950 . S
C1153 C1152 1.327 . S
C1153 C1157 1.429 . S
C1154 C1137 1.574 . S
C1154 H1148 0.949 . S
C1154 C1158 1.368 . S
C1155 C1136 1.429 . S
C1155 C1149 1.429 . S
C1155 C1156 1.523 . S
C1156 C1137 1.368 . S
C1156 C1150 1.368 . S
C1156 C1155 1.523 . S
C1157 C1141 1.429 . S
C1157 C1153 1.429 . S
C1157 C1158 1.523 . S
C1158 C1142 1.368 . S
C1158 C1154 1.368 . S
C1158 C1157 1.523 . S
H1159 C1134 0.950 . S
H1160 C1136 0.950 . S
H1161 C1137 0.949 . S
H1162 C1139 0.950 . S
H1163 C1141 0.950 . S
C1164 C1165 1.349 . S
C1164 C1166 1.327 . S
C1164 H1189 0.950 . S
C1165 C1164 1.349 . S
C1165 C1181 1.349 . S
C1166 C1164 1.327 . S
C1166 C1185 1.429 . S
C1166 H1190 0.950 . S
C1167 C1184 1.574 . S
C1167 C1186 1.368 . S
C1167 H1191 0.949 . S
H1168 C1172 0.949 . S
C1169 C1170 1.349 . S
C1169 C1171 1.327 . S
C1169 H1192 0.950 . S
C1170 C1169 1.349 . S
C1170 C1182 1.349 . S
C1171 C1169 1.327 . S
C1171 C1187 1.429 . S
C1171 H1193 0.950 . S
C1172 H1168 0.949 . S
C1172 C1180 1.574 . S
C1172 C1188 1.368 . S
H1173 C1181 0.950 . S
H1174 C1179 0.950 . S
H1175 C1180 0.949 . S
H1176 C1182 0.950 . S
H1177 C1183 0.950 . S
H1178 C1184 0.949 . S
C1179 H1174 0.950 . S
C1179 C1181 1.327 . S
C1179 C1185 1.429 . S
C1180 C1172 1.574 . S
C1180 H1175 0.949 . S
C1180 C1186 1.368 . S
C1181 C1165 1.349 . S
C1181 H1173 0.950 . S
C1181 C1179 1.327 . S
C1182 C1170 1.349 . S
C1182 H1176 0.950 . S
C1182 C1183 1.327 . S
C1183 H1177 0.950 . S
C1183 C1182 1.327 . S
C1183 C1187 1.429 . S
C1184 C1167 1.574 . S
C1184 H1178 0.949 . S
C1184 C1188 1.368 . S
C1185 C1166 1.429 . S
C1185 C1179 1.429 . S
C1185 C1186 1.523 . S
C1186 C1167 1.368 . S
C1186 C1180 1.368 . S
C1186 C1185 1.523 . S
C1187 C1171 1.429 . S
C1187 C1183 1.429 . S
C1187 C1188 1.523 . S
C1188 C1172 1.368 . S
C1188 C1184 1.368 . S
C1188 C1187 1.523 . S
H1189 C1164 0.950 . S
H1190 C1166 0.950 . S
H1191 C1167 0.949 . S
H1192 C1169 0.950 . S
H1193 C1171 0.950 . S
C1194 C1195 1.349 . S
C1194 C1196 1.327 . S
C1194 H1219 0.950 . S
C1195 C1194 1.349 . S
C1195 C1211 1.349 . S
C1196 C1194 1.327 . S
C1196 C1215 1.429 . S
C1196 H1220 0.950 . S
C1197 C1214 1.574 . S
C1197 C1216 1.368 . S
C1197 H1221 0.949 . S
H1198 C1202 0.949 . S
C1199 C1200 1.349 . S
C1199 C1201 1.327 . S
C1199 H1222 0.950 . S
C1200 C1199 1.349 . S
C1200 C1212 1.349 . S
C1201 C1199 1.327 . S
C1201 C1217 1.429 . S
C1201 H1223 0.950 . S
C1202 H1198 0.949 . S
C1202 C1210 1.574 . S
C1202 C1218 1.368 . S
H1203 C1211 0.950 . S
H1204 C1209 0.950 . S
H1205 C1210 0.949 . S
H1206 C1212 0.950 . S
H1207 C1213 0.950 . S
H1208 C1214 0.949 . S
C1209 H1204 0.950 . S
C1209 C1211 1.327 . S
C1209 C1215 1.429 . S
C1210 C1202 1.574 . S
C1210 H1205 0.949 . S
C1210 C1216 1.368 . S
C1211 C1195 1.349 . S
C1211 H1203 0.950 . S
C1211 C1209 1.327 . S
C1212 C1200 1.349 . S
C1212 H1206 0.950 . S
C1212 C1213 1.327 . S
C1213 H1207 0.950 . S
C1213 C1212 1.327 . S
C1213 C1217 1.429 . S
C1214 C1197 1.574 . S
C1214 H1208 0.949 . S
C1214 C1218 1.368 . S
C1215 C1196 1.429 . S
C1215 C1209 1.429 . S
C1215 C1216 1.523 . S
C1216 C1197 1.368 . S
C1216 C1210 1.368 . S
C1216 C1215 1.523 . S
C1217 C1201 1.429 . S
C1217 C1213 1.429 . S
C1217 C1218 1.523 . S
C1218 C1202 1.368 . S
C1218 C1214 1.368 . S
C1218 C1217 1.523 . S
H1219 C1194 0.950 . S
H1220 C1196 0.950 . S
H1221 C1197 0.949 . S
H1222 C1199 0.950 . S
H1223 C1201 0.950 . S
C1224 C1225 1.349 . S
C1224 C1226 1.327 . S
C1224 H1249 0.950 . S
C1225 C1224 1.349 . S
C1225 C1241 1.349 . S
C1226 C1224 1.327 . S
C1226 C1245 1.429 . S
C1226 H1250 0.950 . S
C1227 C1244 1.574 . S
C1227 C1246 1.368 . S
C1227 H1251 0.949 . S
H1228 C1232 0.949 . S
C1229 C1230 1.349 . S
C1229 C1231 1.327 . S
C1229 H1252 0.950 . S
C1230 C1229 1.349 . S
C1230 C1242 1.349 . S
C1231 C1229 1.327 . S
C1231 C1247 1.429 . S
C1231 H1253 0.950 . S
C1232 H1228 0.949 . S
C1232 C1240 1.574 . S
C1232 C1248 1.368 . S
H1233 C1241 0.950 . S
H1234 C1239 0.950 . S
H1235 C1240 0.949 . S
H1236 C1242 0.950 . S
H1237 C1243 0.950 . S
H1238 C1244 0.949 . S
C1239 H1234 0.950 . S
C1239 C1241 1.327 . S
C1239 C1245 1.429 . S
C1240 C1232 1.574 . S
C1240 H1235 0.949 . S
C1240 C1246 1.368 . S
C1241 C1225 1.349 . S
C1241 H1233 0.950 . S
C1241 C1239 1.327 . S
C1242 C1230 1.349 . S
C1242 H1236 0.950 . S
C1242 C1243 1.327 . S
C1243 H1237 0.950 . S
C1243 C1242 1.327 . S
C1243 C1247 1.429 . S
C1244 C1227 1.574 . S
C1244 H1238 0.949 . S
C1244 C1248 1.368 . S
C1245 C1226 1.429 . S
C1245 C1239 1.429 . S
C1245 C1246 1.523 . S
C1246 C1227 1.368 . S
C1246 C1240 1.368 . S
C1246 C1245 1.523 . S
C1247 C1231 1.429 . S
C1247 C1243 1.429 . S
C1247 C1248 1.523 . S
C1248 C1232 1.368 . S
C1248 C1244 1.368 . S
C1248 C1247 1.523 . S
H1249 C1224 0.950 . S
H1250 C1226 0.950 . S
H1251 C1227 0.949 . S
H1252 C1229 0.950 . S
H1253 C1231 0.950 . S
C1254 C1255 1.349 . S
C1254 C1256 1.327 . S
C1254 H1279 0.950 . S
C1255 C1254 1.349 . S
C1255 C1271 1.349 . S
C1256 C1254 1.327 . S
C1256 C1275 1.429 . S
C1256 H1280 0.950 . S
C1257 C1274 1.574 . S
C1257 C1276 1.368 . S
C1257 H1281 0.949 . S
H1258 C1262 0.949 . S
C1259 C1260 1.349 . S
C1259 C1261 1.327 . S
C1259 H1282 0.950 . S
C1260 C1259 1.349 . S
C1260 C1272 1.349 . S
C1261 C1259 1.327 . S
C1261 C1277 1.429 . S
C1261 H1283 0.950 . S
C1262 H1258 0.949 . S
C1262 C1270 1.574 . S
C1262 C1278 1.368 . S
H1263 C1271 0.950 . S
H1264 C1269 0.950 . S
H1265 C1270 0.949 . S
H1266 C1272 0.950 . S
H1267 C1273 0.950 . S
H1268 C1274 0.949 . S
C1269 H1264 0.950 . S
C1269 C1271 1.327 . S
C1269 C1275 1.429 . S
C1270 C1262 1.574 . S
C1270 H1265 0.949 . S
C1270 C1276 1.368 . S
C1271 C1255 1.349 . S
C1271 H1263 0.950 . S
C1271 C1269 1.327 . S
C1272 C1260 1.349 . S
C1272 H1266 0.950 . S
C1272 C1273 1.327 . S
C1273 H1267 0.950 . S
C1273 C1272 1.327 . S
C1273 C1277 1.429 . S
C1274 C1257 1.574 . S
C1274 H1268 0.949 . S
C1274 C1278 1.368 . S
C1275 C1256 1.429 . S
C1275 C1269 1.429 . S
C1275 C1276 1.523 . S
C1276 C1257 1.368 . S
C1276 C1270 1.368 . S
C1276 C1275 1.523 . S
C1277 C1261 1.429 . S
C1277 C1273 1.429 . S
C1277 C1278 1.523 . S
C1278 C1262 1.368 . S
C1278 C1274 1.368 . S
C1278 C1277 1.523 . S
H1279 C1254 0.950 . S
H1280 C1256 0.950 . S
H1281 C1257 0.949 . S
H1282 C1259 0.950 . S
H1283 C1261 0.950 . S
C1284 C1285 1.349 . S
C1284 C1286 1.327 . S
C1284 H1309 0.950 . S
C1285 C1284 1.349 . S
C1285 C1301 1.349 . S
C1286 C1284 1.327 . S
C1286 C1305 1.429 . S
C1286 H1310 0.950 . S
C1287 C1304 1.574 . S
C1287 C1306 1.368 . S
C1287 H1311 0.949 . S
H1288 C1292 0.949 . S
C1289 C1290 1.349 . S
C1289 C1291 1.327 . S
C1289 H1312 0.950 . S
C1290 C1289 1.349 . S
C1290 C1302 1.349 . S
C1291 C1289 1.327 . S
C1291 C1307 1.429 . S
C1291 H1313 0.950 . S
C1292 H1288 0.949 . S
C1292 C1300 1.574 . S
C1292 C1308 1.368 . S
H1293 C1301 0.950 . S
H1294 C1299 0.950 . S
H1295 C1300 0.949 . S
H1296 C1302 0.950 . S
H1297 C1303 0.950 . S
H1298 C1304 0.949 . S
C1299 H1294 0.950 . S
C1299 C1301 1.327 . S
C1299 C1305 1.429 . S
C1300 C1292 1.574 . S
C1300 H1295 0.949 . S
C1300 C1306 1.368 . S
C1301 C1285 1.349 . S
C1301 H1293 0.950 . S
C1301 C1299 1.327 . S
C1302 C1290 1.349 . S
C1302 H1296 0.950 . S
C1302 C1303 1.327 . S
C1303 H1297 0.950 . S
C1303 C1302 1.327 . S
C1303 C1307 1.429 . S
C1304 C1287 1.574 . S
C1304 H1298 0.949 . S
C1304 C1308 1.368 . S
C1305 C1286 1.429 . S
C1305 C1299 1.429 . S
C1305 C1306 1.523 . S
C1306 C1287 1.368 . S
C1306 C1300 1.368 . S
C1306 C1305 1.523 . S
C1307 C1291 1.429 . S
C1307 C1303 1.429 . S
C1307 C1308 1.523 . S
C1308 C1292 1.368 . S
C1308 C1304 1.368 . S
C1308 C1307 1.523 . S
H1309 C1284 0.950 . S
H1310 C1286 0.950 . S
H1311 C1287 0.949 . S
H1312 C1289 0.950 . S
H1313 C1291 0.950 . S
C1314 C1315 1.349 . S
C1314 C1316 1.327 . S
C1314 H1339 0.950 . S
C1315 C1314 1.349 . S
C1315 C1331 1.349 . S
C1316 C1314 1.327 . S
C1316 C1335 1.429 . S
C1316 H1340 0.950 . S
C1317 C1334 1.574 . S
C1317 C1336 1.368 . S
C1317 H1341 0.949 . S
H1318 C1322 0.949 . S
C1319 C1320 1.349 . S
C1319 C1321 1.327 . S
C1319 H1342 0.950 . S
C1320 C1319 1.349 . S
C1320 C1332 1.349 . S
C1321 C1319 1.327 . S
C1321 C1337 1.429 . S
C1321 H1343 0.950 . S
C1322 H1318 0.949 . S
C1322 C1330 1.574 . S
C1322 C1338 1.368 . S
H1323 C1331 0.950 . S
H1324 C1329 0.950 . S
H1325 C1330 0.949 . S
H1326 C1332 0.950 . S
H1327 C1333 0.950 . S
H1328 C1334 0.949 . S
C1329 H1324 0.950 . S
C1329 C1331 1.327 . S
C1329 C1335 1.429 . S
C1330 C1322 1.574 . S
C1330 H1325 0.949 . S
C1330 C1336 1.368 . S
C1331 C1315 1.349 . S
C1331 H1323 0.950 . S
C1331 C1329 1.327 . S
C1332 C1320 1.349 . S
C1332 H1326 0.950 . S
C1332 C1333 1.327 . S
C1333 H1327 0.950 . S
C1333 C1332 1.327 . S
C1333 C1337 1.429 . S
C1334 C1317 1.574 . S
C1334 H1328 0.949 . S
C1334 C1338 1.368 . S
C1335 C1316 1.429 . S
C1335 C1329 1.429 . S
C1335 C1336 1.523 . S
C1336 C1317 1.368 . S
C1336 C1330 1.368 . S
C1336 C1335 1.523 . S
C1337 C1321 1.429 . S
C1337 C1333 1.429 . S
C1337 C1338 1.523 . S
C1338 C1322 1.368 . S
C1338 C1334 1.368 . S
C1338 C1337 1.523 . S
H1339 C1314 0.950 . S
H1340 C1316 0.950 . S
H1341 C1317 0.949 . S
H1342 C1319 0.950 . S
H1343 C1321 0.950 . S
C1344 C1345 1.349 . S
C1344 C1346 1.327 . S
C1344 H1369 0.950 . S
C1345 C1344 1.349 . S
C1345 C1361 1.349 . S
C1346 C1344 1.327 . S
C1346 C1365 1.429 . S
C1346 H1370 0.950 . S
C1347 C1364 1.574 . S
C1347 C1366 1.368 . S
C1347 H1371 0.949 . S
H1348 C1352 0.949 . S
C1349 C1350 1.349 . S
C1349 C1351 1.327 . S
C1349 H1372 0.950 . S
C1350 C1349 1.349 . S
C1350 C1362 1.349 . S
C1351 C1349 1.327 . S
C1351 C1367 1.429 . S
C1351 H1373 0.950 . S
C1352 H1348 0.949 . S
C1352 C1360 1.574 . S
C1352 C1368 1.368 . S
H1353 C1361 0.950 . S
H1354 C1359 0.950 . S
H1355 C1360 0.949 . S
H1356 C1362 0.950 . S
H1357 C1363 0.950 . S
H1358 C1364 0.949 . S
C1359 H1354 0.950 . S
C1359 C1361 1.327 . S
C1359 C1365 1.429 . S
C1360 C1352 1.574 . S
C1360 H1355 0.949 . S
C1360 C1366 1.368 . S
C1361 C1345 1.349 . S
C1361 H1353 0.950 . S
C1361 C1359 1.327 . S
C1362 C1350 1.349 . S
C1362 H1356 0.950 . S
C1362 C1363 1.327 . S
C1363 H1357 0.950 . S
C1363 C1362 1.327 . S
C1363 C1367 1.429 . S
C1364 C1347 1.574 . S
C1364 H1358 0.949 . S
C1364 C1368 1.368 . S
C1365 C1346 1.429 . S
C1365 C1359 1.429 . S
C1365 C1366 1.523 . S
C1366 C1347 1.368 . S
C1366 C1360 1.368 . S
C1366 C1365 1.523 . S
C1367 C1351 1.429 . S
C1367 C1363 1.429 . S
C1367 C1368 1.523 . S
C1368 C1352 1.368 . S
C1368 C1364 1.368 . S
C1368 C1367 1.523 . S
H1369 C1344 0.950 . S
H1370 C1346 0.950 . S
H1371 C1347 0.949 . S
H1372 C1349 0.950 . S
H1373 C1351 0.950 . S
C1374 C1375 1.349 . S
C1374 C1376 1.327 . S
C1374 H1399 0.950 . S
C1375 C1374 1.349 . S
C1375 C1391 1.349 . S
C1376 C1374 1.327 . S
C1376 C1395 1.429 . S
C1376 H1400 0.950 . S
C1377 C1394 1.574 . S
C1377 C1396 1.368 . S
C1377 H1401 0.949 . S
H1378 C1382 0.949 . S
C1379 C1380 1.349 . S
C1379 C1381 1.327 . S
C1379 H1402 0.950 . S
C1380 C1379 1.349 . S
C1380 C1392 1.349 . S
C1381 C1379 1.327 . S
C1381 C1397 1.429 . S
C1381 H1403 0.950 . S
C1382 H1378 0.949 . S
C1382 C1390 1.574 . S
C1382 C1398 1.368 . S
H1383 C1391 0.950 . S
H1384 C1389 0.950 . S
H1385 C1390 0.949 . S
H1386 C1392 0.950 . S
H1387 C1393 0.950 . S
H1388 C1394 0.949 . S
C1389 H1384 0.950 . S
C1389 C1391 1.327 . S
C1389 C1395 1.429 . S
C1390 C1382 1.574 . S
C1390 H1385 0.949 . S
C1390 C1396 1.368 . S
C1391 C1375 1.349 . S
C1391 H1383 0.950 . S
C1391 C1389 1.327 . S
C1392 C1380 1.349 . S
C1392 H1386 0.950 . S
C1392 C1393 1.327 . S
C1393 H1387 0.950 . S
C1393 C1392 1.327 . S
C1393 C1397 1.429 . S
C1394 C1377 1.574 . S
C1394 H1388 0.949 . S
C1394 C1398 1.368 . S
C1395 C1376 1.429 . S
C1395 C1389 1.429 . S
C1395 C1396 1.523 . S
C1396 C1377 1.368 . S
C1396 C1390 1.368 . S
C1396 C1395 1.523 . S
C1397 C1381 1.429 . S
C1397 C1393 1.429 . S
C1397 C1398 1.523 . S
C1398 C1382 1.368 . S
C1398 C1394 1.368 . S
C1398 C1397 1.523 . S
H1399 C1374 0.950 . S
H1400 C1376 0.950 . S
H1401 C1377 0.949 . S
H1402 C1379 0.950 . S
H1403 C1381 0.950 . S
C1404 C1405 1.349 . S
C1404 C1406 1.327 . S
C1404 H1429 0.950 . S
C1405 C1404 1.349 . S
C1405 C1421 1.349 . S
C1406 C1404 1.327 . S
C1406 C1425 1.429 . S
C1406 H1430 0.950 . S
C1407 C1424 1.574 . S
C1407 C1426 1.368 . S
C1407 H1431 0.949 . S
H1408 C1412 0.949 . S
C1409 C1410 1.349 . S
C1409 C1411 1.327 . S
C1409 H1432 0.950 . S
C1410 C1409 1.349 . S
C1410 C1422 1.349 . S
C1411 C1409 1.327 . S
C1411 C1427 1.429 . S
C1411 H1433 0.950 . S
C1412 H1408 0.949 . S
C1412 C1420 1.574 . S
C1412 C1428 1.368 . S
H1413 C1421 0.950 . S
H1414 C1419 0.950 . S
H1415 C1420 0.949 . S
H1416 C1422 0.950 . S
H1417 C1423 0.950 . S
H1418 C1424 0.949 . S
C1419 H1414 0.950 . S
C1419 C1421 1.327 . S
C1419 C1425 1.429 . S
C1420 C1412 1.574 . S
C1420 H1415 0.949 . S
C1420 C1426 1.368 . S
C1421 C1405 1.349 . S
C1421 H1413 0.950 . S
C1421 C1419 1.327 . S
C1422 C1410 1.349 . S
C1422 H1416 0.950 . S
C1422 C1423 1.327 . S
C1423 H1417 0.950 . S
C1423 C1422 1.327 . S
C1423 C1427 1.429 . S
C1424 C1407 1.574 . S
C1424 H1418 0.949 . S
C1424 C1428 1.368 . S
C1425 C1406 1.429 . S
C1425 C1419 1.429 . S
C1425 C1426 1.523 . S
C1426 C1407 1.368 . S
C1426 C1420 1.368 . S
C1426 C1425 1.523 . S
C1427 C1411 1.429 . S
C1427 C1423 1.429 . S
C1427 C1428 1.523 . S
C1428 C1412 1.368 . S
C1428 C1424 1.368 . S
C1428 C1427 1.523 . S
H1429 C1404 0.950 . S
H1430 C1406 0.950 . S
H1431 C1407 0.949 . S
H1432 C1409 0.950 . S
H1433 C1411 0.950 . S
C1434 C1435 1.349 . S
C1434 C1436 1.327 . S
C1434 H1459 0.950 . S
C1435 C1434 1.349 . S
C1435 C1451 1.349 . S
C1436 C1434 1.327 . S
C1436 C1455 1.429 . S
C1436 H1460 0.950 . S
C1437 C1454 1.574 . S
C1437 C1456 1.368 . S
C1437 H1461 0.949 . S
H1438 C1442 0.949 . S
C1439 C1440 1.349 . S
C1439 C1441 1.327 . S
C1439 H1462 0.950 . S
C1440 C1439 1.349 . S
C1440 C1452 1.349 . S
C1441 C1439 1.327 . S
C1441 C1457 1.429 . S
C1441 H1463 0.950 . S
C1442 H1438 0.949 . S
C1442 C1450 1.574 . S
C1442 C1458 1.368 . S
H1443 C1451 0.950 . S
H1444 C1449 0.950 . S
H1445 C1450 0.949 . S
H1446 C1452 0.950 . S
H1447 C1453 0.950 . S
H1448 C1454 0.949 . S
C1449 H1444 0.950 . S
C1449 C1451 1.327 . S
C1449 C1455 1.429 . S
C1450 C1442 1.574 . S
C1450 H1445 0.949 . S
C1450 C1456 1.368 . S
C1451 C1435 1.349 . S
C1451 H1443 0.950 . S
C1451 C1449 1.327 . S
C1452 C1440 1.349 . S
C1452 H1446 0.950 . S
C1452 C1453 1.327 . S
C1453 H1447 0.950 . S
C1453 C1452 1.327 . S
C1453 C1457 1.429 . S
C1454 C1437 1.574 . S
C1454 H1448 0.949 . S
C1454 C1458 1.368 . S
C1455 C1436 1.429 . S
C1455 C1449 1.429 . S
C1455 C1456 1.523 . S
C1456 C1437 1.368 . S
C1456 C1450 1.368 . S
C1456 C1455 1.523 . S
C1457 C1441 1.429 . S
C1457 C1453 1.429 . S
C1457 C1458 1.523 . S
C1458 C1442 1.368 . S
C1458 C1454 1.368 . S
C1458 C1457 1.523 . S
H1459 C1434 0.950 . S
H1460 C1436 0.950 . S
H1461 C1437 0.949 . S
H1462 C1439 0.950 . S
H1463 C1441 0.950 . S
C1464 C1465 1.349 . S
C1464 C1466 1.327 . S
C1464 H1489 0.950 . S
C1465 C1464 1.349 . S
C1465 C1481 1.349 . S
C1466 C1464 1.327 . S
C1466 C1485 1.429 . S
C1466 H1490 0.950 . S
C1467 C1484 1.574 . S
C1467 C1486 1.368 . S
C1467 H1491 0.949 . S
H1468 C1472 0.949 . S
C1469 C1470 1.349 . S
C1469 C1471 1.327 . S
C1469 H1492 0.950 . S
C1470 C1469 1.349 . S
C1470 C1482 1.349 . S
C1471 C1469 1.327 . S
C1471 C1487 1.429 . S
C1471 H1493 0.950 . S
C1472 H1468 0.949 . S
C1472 C1480 1.574 . S
C1472 C1488 1.368 . S
H1473 C1481 0.950 . S
H1474 C1479 0.950 . S
H1475 C1480 0.949 . S
H1476 C1482 0.950 . S
H1477 C1483 0.950 . S
H1478 C1484 0.949 . S
C1479 H1474 0.950 . S
C1479 C1481 1.327 . S
C1479 C1485 1.429 . S
C1480 C1472 1.574 . S
C1480 H1475 0.949 . S
C1480 C1486 1.368 . S
C1481 C1465 1.349 . S
C1481 H1473 0.950 . S
C1481 C1479 1.327 . S
C1482 C1470 1.349 . S
C1482 H1476 0.950 . S
C1482 C1483 1.327 . S
C1483 H1477 0.950 . S
C1483 C1482 1.327 . S
C1483 C1487 1.429 . S
C1484 C1467 1.574 . S
C1484 H1478 0.949 . S
C1484 C1488 1.368 . S
C1485 C1466 1.429 . S
C1485 C1479 1.429 . S
C1485 C1486 1.523 . S
C1486 C1467 1.368 . S
C1486 C1480 1.368 . S
C1486 C1485 1.523 . S
C1487 C1471 1.429 . S
C1487 C1483 1.429 . S
C1487 C1488 1.523 . S
C1488 C1472 1.368 . S
C1488 C1484 1.368 . S
C1488 C1487 1.523 . S
H1489 C1464 0.950 . S
H1490 C1466 0.950 . S
H1491 C1467 0.949 . S
H1492 C1469 0.950 . S
H1493 C1471 0.950 . S
C1494 C1495 1.349 . S
C1494 C1496 1.327 . S
C1494 H1519 0.950 . S
C1495 C1494 1.349 . S
C1495 C1511 1.349 . S
C1496 C1494 1.327 . S
C1496 C1515 1.429 . S
C1496 H1520 0.950 . S
C1497 C1514 1.574 . S
C1497 C1516 1.368 . S
C1497 H1521 0.949 . S
H1498 C1502 0.949 . S
C1499 C1500 1.349 . S
C1499 C1501 1.327 . S
C1499 H1522 0.950 . S
C1500 C1499 1.349 . S
C1500 C1512 1.349 . S
C1501 C1499 1.327 . S
C1501 C1517 1.429 . S
C1501 H1523 0.950 . S
C1502 H1498 0.949 . S
C1502 C1510 1.574 . S
C1502 C1518 1.368 . S
H1503 C1511 0.950 . S
H1504 C1509 0.950 . S
H1505 C1510 0.949 . S
H1506 C1512 0.950 . S
H1507 C1513 0.950 . S
H1508 C1514 0.949 . S
C1509 H1504 0.950 . S
C1509 C1511 1.327 . S
C1509 C1515 1.429 . S
C1510 C1502 1.574 . S
C1510 H1505 0.949 . S
C1510 C1516 1.368 . S
C1511 C1495 1.349 . S
C1511 H1503 0.950 . S
C1511 C1509 1.327 . S
C1512 C1500 1.349 . S
C1512 H1506 0.950 . S
C1512 C1513 1.327 . S
C1513 H1507 0.950 . S
C1513 C1512 1.327 . S
C1513 C1517 1.429 . S
C1514 C1497 1.574 . S
C1514 H1508 0.949 . S
C1514 C1518 1.368 . S
C1515 C1496 1.429 . S
C1515 C1509 1.429 . S
C1515 C1516 1.523 . S
C1516 C1497 1.368 . S
C1516 C1510 1.368 . S
C1516 C1515 1.523 . S
C1517 C1501 1.429 . S
C1517 C1513 1.429 . S
C1517 C1518 1.523 . S
C1518 C1502 1.368 . S
C1518 C1514 1.368 . S
C1518 C1517 1.523 . S
H1519 C1494 0.950 . S
H1520 C1496 0.950 . S
H1521 C1497 0.949 . S
H1522 C1499 0.950 . S
H1523 C1501 0.950 . S
C1524 C1525 1.349 . S
C1524 C1526 1.327 . S
C1524 H1549 0.950 . S
C1525 C1524 1.349 . S
C1525 C1541 1.349 . S
C1526 C1524 1.327 . S
C1526 C1545 1.429 . S
C1526 H1550 0.950 . S
C1527 C1544 1.574 . S
C1527 C1546 1.368 . S
C1527 H1551 0.949 . S
H1528 C1532 0.949 . S
C1529 C1530 1.349 . S
C1529 C1531 1.327 . S
C1529 H1552 0.950 . S
C1530 C1529 1.349 . S
C1530 C1542 1.349 . S
C1531 C1529 1.327 . S
C1531 C1547 1.429 . S
C1531 H1553 0.950 . S
C1532 H1528 0.949 . S
C1532 C1540 1.574 . S
C1532 C1548 1.368 . S
H1533 C1541 0.950 . S
H1534 C1539 0.950 . S
H1535 C1540 0.949 . S
H1536 C1542 0.950 . S
H1537 C1543 0.950 . S
H1538 C1544 0.949 . S
C1539 H1534 0.950 . S
C1539 C1541 1.327 . S
C1539 C1545 1.429 . S
C1540 C1532 1.574 . S
C1540 H1535 0.949 . S
C1540 C1546 1.368 . S
C1541 C1525 1.349 . S
C1541 H1533 0.950 . S
C1541 C1539 1.327 . S
C1542 C1530 1.349 . S
C1542 H1536 0.950 . S
C1542 C1543 1.327 . S
C1543 H1537 0.950 . S
C1543 C1542 1.327 . S
C1543 C1547 1.429 . S
C1544 C1527 1.574 . S
C1544 H1538 0.949 . S
C1544 C1548 1.368 . S
C1545 C1526 1.429 . S
C1545 C1539 1.429 . S
C1545 C1546 1.523 . S
C1546 C1527 1.368 . S
C1546 C1540 1.368 . S
C1546 C1545 1.523 . S
C1547 C1531 1.429 . S
C1547 C1543 1.429 . S
C1547 C1548 1.523 . S
C1548 C1532 1.368 . S
C1548 C1544 1.368 . S
C1548 C1547 1.523 . S
H1549 C1524 0.950 . S
H1550 C1526 0.950 . S
H1551 C1527 0.949 . S
H1552 C1529 0.950 . S
H1553 C1531 0.950 . S
C1554 C1555 1.349 . S
C1554 C1556 1.327 . S
C1554 H1579 0.950 . S
C1555 C1554 1.349 . S
C1555 C1571 1.349 . S
C1556 C1554 1.327 . S
C1556 C1575 1.429 . S
C1556 H1580 0.950 . S
C1557 C1574 1.574 . S
C1557 C1576 1.368 . S
C1557 H1581 0.949 . S
H1558 C1562 0.949 . S
C1559 C1560 1.349 . S
C1559 C1561 1.327 . S
C1559 H1582 0.950 . S
C1560 C1559 1.349 . S
C1560 C1572 1.349 . S
C1561 C1559 1.327 . S
C1561 C1577 1.429 . S
C1561 H1583 0.950 . S
C1562 H1558 0.949 . S
C1562 C1570 1.574 . S
C1562 C1578 1.368 . S
H1563 C1571 0.950 . S
H1564 C1569 0.950 . S
H1565 C1570 0.949 . S
H1566 C1572 0.950 . S
H1567 C1573 0.950 . S
H1568 C1574 0.949 . S
C1569 H1564 0.950 . S
C1569 C1571 1.327 . S
C1569 C1575 1.429 . S
C1570 C1562 1.574 . S
C1570 H1565 0.949 . S
C1570 C1576 1.368 . S
C1571 C1555 1.349 . S
C1571 H1563 0.950 . S
C1571 C1569 1.327 . S
C1572 C1560 1.349 . S
C1572 H1566 0.950 . S
C1572 C1573 1.327 . S
C1573 H1567 0.950 . S
C1573 C1572 1.327 . S
C1573 C1577 1.429 . S
C1574 C1557 1.574 . S
C1574 H1568 0.949 . S
C1574 C1578 1.368 . S
C1575 C1556 1.429 . S
C1575 C1569 1.429 . S
C1575 C1576 1.523 . S
C1576 C1557 1.368 . S
C1576 C1570 1.368 . S
C1576 C1575 1.523 . S
C1577 C1561 1.429 . S
C1577 C1573 1.429 . S
C1577 C1578 1.523 . S
C1578 C1562 1.368 . S
C1578 C1574 1.368 . S
C1578 C1577 1.523 . S
H1579 C1554 0.950 . S
H1580 C1556 0.950 . S
H1581 C1557 0.949 . S
H1582 C1559 0.950 . S
H1583 C1561 0.950 . S
C1584 C1585 1.349 . S
C1584 C1586 1.327 . S
C1584 H1609 0.950 . S
C1585 C1584 1.349 . S
C1585 C1601 1.349 . S
C1586 C1584 1.327 . S
C1586 C1605 1.429 . S
C1586 H1610 0.950 . S
C1587 C1604 1.574 . S
C1587 C1606 1.368 . S
C1587 H1611 0.949 . S
H1588 C1592 0.949 . S
C1589 C1590 1.349 . S
C1589 C1591 1.327 . S
C1589 H1612 0.950 . S
C1590 C1589 1.349 . S
C1590 C1602 1.349 . S
C1591 C1589 1.327 . S
C1591 C1607 1.429 . S
C1591 H1613 0.950 . S
C1592 H1588 0.949 . S
C1592 C1600 1.574 . S
C1592 C1608 1.368 . S
H1593 C1601 0.950 . S
H1594 C1599 0.950 . S
H1595 C1600 0.949 . S
H1596 C1602 0.950 . S
H1597 C1603 0.950 . S
H1598 C1604 0.949 . S
C1599 H1594 0.950 . S
C1599 C1601 1.327 . S
C1599 C1605 1.429 . S
C1600 C1592 1.574 . S
C1600 H1595 0.949 . S
C1600 C1606 1.368 . S
C1601 C1585 1.349 . S
C1601 H1593 0.950 . S
C1601 C1599 1.327 . S
C1602 C1590 1.349 . S
C1602 H1596 0.950 . S
C1602 C1603 1.327 . S
C1603 H1597 0.950 . S
C1603 C1602 1.327 . S
C1603 C1607 1.429 . S
C1604 C1587 1.574 . S
C1604 H1598 0.949 . S
C1604 C1608 1.368 . S
C1605 C1586 1.429 . S
C1605 C1599 1.429 . S
C1605 C1606 1.523 . S
C1606 C1587 1.368 . S
C1606 C1600 1.368 . S
C1606 C1605 1.523 . S
C1607 C1591 1.429 . S
C1607 C1603 1.429 . S
C1607 C1608 1.523 . S
C1608 C1592 1.368 . S
C1608 C1604 1.368 . S
C1608 C1607 1.523 . S
H1609 C1584 0.950 . S
H1610 C1586 0.950 . S
H1611 C1587 0.949 . S
H1612 C1589 0.950 . S
H1613 C1591 0.950 . S
C1614 C1615 1.349 . S
C1614 C1616 1.327 . S
C1614 H1639 0.950 . S
C1615 C1614 1.349 . S
C1615 C1631 1.349 . S
C1616 C1614 1.327 . S
C1616 C1635 1.429 . S
C1616 H1640 0.950 . S
C1617 C1634 1.574 . S
C1617 C1636 1.368 . S
C1617 H1641 0.949 . S
H1618 C1622 0.949 . S
C1619 C1620 1.349 . S
C1619 C1621 1.327 . S
C1619 H1642 0.950 . S
C1620 C1619 1.349 . S
C1620 C1632 1.349 . S
C1621 C1619 1.327 . S
C1621 C1637 1.429 . S
C1621 H1643 0.950 . S
C1622 H1618 0.949 . S
C1622 C1630 1.574 . S
C1622 C1638 1.368 . S
H1623 C1631 0.950 . S
H1624 C1629 0.950 . S
H1625 C1630 0.949 . S
H1626 C1632 0.950 . S
H1627 C1633 0.950 . S
H1628 C1634 0.949 . S
C1629 H1624 0.950 . S
C1629 C1631 1.327 . S
C1629 C1635 1.429 . S
C1630 C1622 1.574 . S
C1630 H1625 0.949 . S
C1630 C1636 1.368 . S
C1631 C1615 1.349 . S
C1631 H1623 0.950 . S
C1631 C1629 1.327 . S
C1632 C1620 1.349 . S
C1632 H1626 0.950 . S
C1632 C1633 1.327 . S
C1633 H1627 0.950 . S
C1633 C1632 1.327 . S
C1633 C1637 1.429 . S
C1634 C1617 1.574 . S
C1634 H1628 0.949 . S
C1634 C1638 1.368 . S
C1635 C1616 1.429 . S
C1635 C1629 1.429 . S
C1635 C1636 1.523 . S
C1636 C1617 1.368 . S
C1636 C1630 1.368 . S
C1636 C1635 1.523 . S
C1637 C1621 1.429 . S
C1637 C1633 1.429 . S
C1637 C1638 1.523 . S
C1638 C1622 1.368 . S
C1638 C1634 1.368 . S
C1638 C1637 1.523 . S
H1639 C1614 0.950 . S
H1640 C1616 0.950 . S
H1641 C1617 0.949 . S
H1642 C1619 0.950 . S
H1643 C1621 0.950 . S
C1644 C1645 1.349 . S
C1644 C1646 1.327 . S
C1644 H1669 0.950 . S
C1645 C1644 1.349 . S
C1645 C1661 1.349 . S
C1646 C1644 1.327 . S
C1646 C1665 1.429 . S
C1646 H1670 0.950 . S
C1647 C1664 1.574 . S
C1647 C1666 1.368 . S
C1647 H1671 0.949 . S
H1648 C1652 0.949 . S
C1649 C1650 1.349 . S
C1649 C1651 1.327 . S
C1649 H1672 0.950 . S
C1650 C1649 1.349 . S
C1650 C1662 1.349 . S
C1651 C1649 1.327 . S
C1651 C1667 1.429 . S
C1651 H1673 0.950 . S
C1652 H1648 0.949 . S
C1652 C1660 1.574 . S
C1652 C1668 1.368 . S
H1653 C1661 0.950 . S
H1654 C1659 0.950 . S
H1655 C1660 0.949 . S
H1656 C1662 0.950 . S
H1657 C1663 0.950 . S
H1658 C1664 0.949 . S
C1659 H1654 0.950 . S
C1659 C1661 1.327 . S
C1659 C1665 1.429 . S
C1660 C1652 1.574 . S
C1660 H1655 0.949 . S
C1660 C1666 1.368 . S
C1661 C1645 1.349 . S
C1661 H1653 0.950 . S
C1661 C1659 1.327 . S
C1662 C1650 1.349 . S
C1662 H1656 0.950 . S
C1662 C1663 1.327 . S
C1663 H1657 0.950 . S
C1663 C1662 1.327 . S
C1663 C1667 1.429 . S
C1664 C1647 1.574 . S
C1664 H1658 0.949 . S
C1664 C1668 1.368 . S
C1665 C1646 1.429 . S
C1665 C1659 1.429 . S
C1665 C1666 1.523 . S
C1666 C1647 1.368 . S
C1666 C1660 1.368 . S
C1666 C1665 1.523 . S
C1667 C1651 1.429 . S
C1667 C1663 1.429 . S
C1667 C1668 1.523 . S
C1668 C1652 1.368 . S
C1668 C1664 1.368 . S
C1668 C1667 1.523 . S
H1669 C1644 0.950 . S
H1670 C1646 0.950 . S
H1671 C1647 0.949 . S
H1672 C1649 0.950 . S
H1673 C1651 0.950 . S
C1674 C1675 1.349 . S
C1674 C1676 1.327 . S
C1674 H1699 0.950 . S
C1675 C1674 1.349 . S
C1675 C1691 1.349 . S
C1676 C1674 1.327 . S
C1676 C1695 1.429 . S
C1676 H1700 0.950 . S
C1677 C1694 1.574 . S
C1677 C1696 1.368 . S
C1677 H1701 0.949 . S
H1678 C1682 0.949 . S
C1679 C1680 1.349 . S
C1679 C1681 1.327 . S
C1679 H1702 0.950 . S
C1680 C1679 1.349 . S
C1680 C1692 1.349 . S
C1681 C1679 1.327 . S
C1681 C1697 1.429 . S
C1681 H1703 0.950 . S
C1682 H1678 0.949 . S
C1682 C1690 1.574 . S
C1682 C1698 1.368 . S
H1683 C1691 0.950 . S
H1684 C1689 0.950 . S
H1685 C1690 0.949 . S
H1686 C1692 0.950 . S
H1687 C1693 0.950 . S
H1688 C1694 0.949 . S
C1689 H1684 0.950 . S
C1689 C1691 1.327 . S
C1689 C1695 1.429 . S
C1690 C1682 1.574 . S
C1690 H1685 0.949 . S
C1690 C1696 1.368 . S
C1691 C1675 1.349 . S
C1691 H1683 0.950 . S
C1691 C1689 1.327 . S
C1692 C1680 1.349 . S
C1692 H1686 0.950 . S
C1692 C1693 1.327 . S
C1693 H1687 0.950 . S
C1693 C1692 1.327 . S
C1693 C1697 1.429 . S
C1694 C1677 1.574 . S
C1694 H1688 0.949 . S
C1694 C1698 1.368 . S
C1695 C1676 1.429 . S
C1695 C1689 1.429 . S
C1695 C1696 1.523 . S
C1696 C1677 1.368 . S
C1696 C1690 1.368 . S
C1696 C1695 1.523 . S
C1697 C1681 1.429 . S
C1697 C1693 1.429 . S
C1697 C1698 1.523 . S
C1698 C1682 1.368 . S
C1698 C1694 1.368 . S
C1698 C1697 1.523 . S
H1699 C1674 0.950 . S
H1700 C1676 0.950 . S
H1701 C1677 0.949 . S
H1702 C1679 0.950 . S
H1703 C1681 0.950 . S
C1704 C1705 1.349 . S
C1704 C1706 1.327 . S
C1704 H1729 0.950 . S
C1705 C1704 1.349 . S
C1705 C1721 1.349 . S
C1706 C1704 1.327 . S
C1706 C1725 1.429 . S
C1706 H1730 0.950 . S
C1707 C1724 1.574 . S
C1707 C1726 1.368 . S
C1707 H1731 0.949 . S
H1708 C1712 0.949 . S
C1709 C1710 1.349 . S
C1709 C1711 1.327 . S
C1709 H1732 0.950 . S
C1710 C1709 1.349 . S
C1710 C1722 1.349 . S
C1711 C1709 1.327 . S
C1711 C1727 1.429 . S
C1711 H1733 0.950 . S
C1712 H1708 0.949 . S
C1712 C1720 1.574 . S
C1712 C1728 1.368 . S
H1713 C1721 0.950 . S
H1714 C1719 0.950 . S
H1715 C1720 0.949 . S
H1716 C1722 0.950 . S
H1717 C1723 0.950 . S
H1718 C1724 0.949 . S
C1719 H1714 0.950 . S
C1719 C1721 1.327 . S
C1719 C1725 1.429 . S
C1720 C1712 1.574 . S
C1720 H1715 0.949 . S
C1720 C1726 1.368 . S
C1721 C1705 1.349 . S
C1721 H1713 0.950 . S
C1721 C1719 1.327 . S
C1722 C1710 1.349 . S
C1722 H1716 0.950 . S
C1722 C1723 1.327 . S
C1723 H1717 0.950 . S
C1723 C1722 1.327 . S
C1723 C1727 1.429 . S
C1724 C1707 1.574 . S
C1724 H1718 0.949 . S
C1724 C1728 1.368 . S
C1725 C1706 1.429 . S
C1725 C1719 1.429 . S
C1725 C1726 1.523 . S
C1726 C1707 1.368 . S
C1726 C1720 1.368 . S
C1726 C1725 1.523 . S
C1727 C1711 1.429 . S
C1727 C1723 1.429 . S
C1727 C1728 1.523 . S
C1728 C1712 1.368 . S
C1728 C1724 1.368 . S
C1728 C1727 1.523 . S
H1729 C1704 0.950 . S
H1730 C1706 0.950 . S
H1731 C1707 0.949 . S
H1732 C1709 0.950 . S
H1733 C1711 0.950 . S
C1734 C1735 1.349 . S
C1734 C1736 1.327 . S
C1734 H1759 0.950 . S
C1735 C1734 1.349 . S
C1735 C1751 1.349 . S
C1736 C1734 1.327 . S
C1736 C1755 1.429 . S
C1736 H1760 0.950 . S
C1737 C1754 1.574 . S
C1737 C1756 1.368 . S
C1737 H1761 0.949 . S
H1738 C1742 0.949 . S
C1739 C1740 1.349 . S
C1739 C1741 1.327 . S
C1739 H1762 0.950 . S
C1740 C1739 1.349 . S
C1740 C1752 1.349 . S
C1741 C1739 1.327 . S
C1741 C1757 1.429 . S
C1741 H1763 0.950 . S
C1742 H1738 0.949 . S
C1742 C1750 1.574 . S
C1742 C1758 1.368 . S
H1743 C1751 0.950 . S
H1744 C1749 0.950 . S
H1745 C1750 0.949 . S
H1746 C1752 0.950 . S
H1747 C1753 0.950 . S
H1748 C1754 0.949 . S
C1749 H1744 0.950 . S
C1749 C1751 1.327 . S
C1749 C1755 1.429 . S
C1750 C1742 1.574 . S
C1750 H1745 0.949 . S
C1750 C1756 1.368 . S
C1751 C1735 1.349 . S
C1751 H1743 0.950 . S
C1751 C1749 1.327 . S
C1752 C1740 1.349 . S
C1752 H1746 0.950 . S
C1752 C1753 1.327 . S
C1753 H1747 0.950 . S
C1753 C1752 1.327 . S
C1753 C1757 1.429 . S
C1754 C1737 1.574 . S
C1754 H1748 0.949 . S
C1754 C1758 1.368 . S
C1755 C1736 1.429 . S
C1755 C1749 1.429 . S
C1755 C1756 1.523 . S
C1756 C1737 1.368 . S
C1756 C1750 1.368 . S
C1756 C1755 1.523 . S
C1757 C1741 1.429 . S
C1757 C1753 1.429 . S
C1757 C1758 1.523 . S
C1758 C1742 1.368 . S
C1758 C1754 1.368 . S
C1758 C1757 1.523 . S
H1759 C1734 0.950 . S
H1760 C1736 0.950 . S
H1761 C1737 0.949 . S
H1762 C1739 0.950 . S
H1763 C1741 0.950 . S
C1764 C1765 1.349 . S
C1764 C1766 1.327 . S
C1764 H1789 0.950 . S
C1765 C1764 1.349 . S
C1765 C1781 1.349 . S
C1766 C1764 1.327 . S
C1766 C1785 1.429 . S
C1766 H1790 0.950 . S
C1767 C1784 1.574 . S
C1767 C1786 1.368 . S
C1767 H1791 0.949 . S
H1768 C1772 0.949 . S
C1769 C1770 1.349 . S
C1769 C1771 1.327 . S
C1769 H1792 0.950 . S
C1770 C1769 1.349 . S
C1770 C1782 1.349 . S
C1771 C1769 1.327 . S
C1771 C1787 1.429 . S
C1771 H1793 0.950 . S
C1772 H1768 0.949 . S
C1772 C1780 1.574 . S
C1772 C1788 1.368 . S
H1773 C1781 0.950 . S
H1774 C1779 0.950 . S
H1775 C1780 0.949 . S
H1776 C1782 0.950 . S
H1777 C1783 0.950 . S
H1778 C1784 0.949 . S
C1779 H1774 0.950 . S
C1779 C1781 1.327 . S
C1779 C1785 1.429 . S
C1780 C1772 1.574 . S
C1780 H1775 0.949 . S
C1780 C1786 1.368 . S
C1781 C1765 1.349 . S
C1781 H1773 0.950 . S
C1781 C1779 1.327 . S
C1782 C1770 1.349 . S
C1782 H1776 0.950 . S
C1782 C1783 1.327 . S
C1783 H1777 0.950 . S
C1783 C1782 1.327 . S
C1783 C1787 1.429 . S
C1784 C1767 1.574 . S
C1784 H1778 0.949 . S
C1784 C1788 1.368 . S
C1785 C1766 1.429 . S
C1785 C1779 1.429 . S
C1785 C1786 1.523 . S
C1786 C1767 1.368 . S
C1786 C1780 1.368 . S
C1786 C1785 1.523 . S
C1787 C1771 1.429 . S
C1787 C1783 1.429 . S
C1787 C1788 1.523 . S
C1788 C1772 1.368 . S
C1788 C1784 1.368 . S
C1788 C1787 1.523 . S
H1789 C1764 0.950 . S
H1790 C1766 0.950 . S
H1791 C1767 0.949 . S
H1792 C1769 0.950 . S
H1793 C1771 0.950 . S
C1794 C1795 1.349 . S
C1794 C1796 1.327 . S
C1794 H1819 0.950 . S
C1795 C1794 1.349 . S
C1795 C1811 1.349 . S
C1796 C1794 1.327 . S
C1796 C1815 1.429 . S
C1796 H1820 0.950 . S
C1797 C1814 1.574 . S
C1797 C1816 1.368 . S
C1797 H1821 0.949 . S
H1798 C1802 0.949 . S
C1799 C1800 1.349 . S
C1799 C1801 1.327 . S
C1799 H1822 0.950 . S
C1800 C1799 1.349 . S
C1800 C1812 1.349 . S
C1801 C1799 1.327 . S
C1801 C1817 1.429 . S
C1801 H1823 0.950 . S
C1802 H1798 0.949 . S
C1802 C1810 1.574 . S
C1802 C1818 1.368 . S
H1803 C1811 0.950 . S
H1804 C1809 0.950 . S
H1805 C1810 0.949 . S
H1806 C1812 0.950 . S
H1807 C1813 0.950 . S
H1808 C1814 0.949 . S
C1809 H1804 0.950 . S
C1809 C1811 1.327 . S
C1809 C1815 1.429 . S
C1810 C1802 1.574 . S
C1810 H1805 0.949 . S
C1810 C1816 1.368 . S
C1811 C1795 1.349 . S
C1811 H1803 0.950 . S
C1811 C1809 1.327 . S
C1812 C1800 1.349 . S
C1812 H1806 0.950 . S
C1812 C1813 1.327 . S
C1813 H1807 0.950 . S
C1813 C1812 1.327 . S
C1813 C1817 1.429 . S
C1814 C1797 1.574 . S
C1814 H1808 0.949 . S
C1814 C1818 1.368 . S
C1815 C1796 1.429 . S
C1815 C1809 1.429 . S
C1815 C1816 1.523 . S
C1816 C1797 1.368 . S
C1816 C1810 1.368 . S
C1816 C1815 1.523 . S
C1817 C1801 1.429 . S
C1817 C1813 1.429 . S
C1817 C1818 1.523 . S
C1818 C1802 1.368 . S
C1818 C1814 1.368 . S
C1818 C1817 1.523 . S
H1819 C1794 0.950 . S
H1820 C1796 0.950 . S
H1821 C1797 0.949 . S
H1822 C1799 0.950 . S
H1823 C1801 0.950 . S
C1824 C1825 1.349 . S
C1824 C1826 1.327 . S
C1824 H1849 0.950 . S
C1825 C1824 1.349 . S
C1825 C1841 1.349 . S
C1826 C1824 1.327 . S
C1826 C1845 1.429 . S
C1826 H1850 0.950 . S
C1827 C1844 1.574 . S
C1827 C1846 1.368 . S
C1827 H1851 0.949 . S
H1828 C1832 0.949 . S
C1829 C1830 1.349 . S
C1829 C1831 1.327 . S
C1829 H1852 0.950 . S
C1830 C1829 1.349 . S
C1830 C1842 1.349 . S
C1831 C1829 1.327 . S
C1831 C1847 1.429 . S
C1831 H1853 0.950 . S
C1832 H1828 0.949 . S
C1832 C1840 1.574 . S
C1832 C1848 1.368 . S
H1833 C1841 0.950 . S
H1834 C1839 0.950 . S
H1835 C1840 0.949 . S
H1836 C1842 0.950 . S
H1837 C1843 0.950 . S
H1838 C1844 0.949 . S
C1839 H1834 0.950 . S
C1839 C1841 1.327 . S
C1839 C1845 1.429 . S
C1840 C1832 1.574 . S
C1840 H1835 0.949 . S
C1840 C1846 1.368 . S
C1841 C1825 1.349 . S
C1841 H1833 0.950 . S
C1841 C1839 1.327 . S
C1842 C1830 1.349 . S
C1842 H1836 0.950 . S
C1842 C1843 1.327 . S
C1843 H1837 0.950 . S
C1843 C1842 1.327 . S
C1843 C1847 1.429 . S
C1844 C1827 1.574 . S
C1844 H1838 0.949 . S
C1844 C1848 1.368 . S
C1845 C1826 1.429 . S
C1845 C1839 1.429 . S
C1845 C1846 1.523 . S
C1846 C1827 1.368 . S
C1846 C1840 1.368 . S
C1846 C1845 1.523 . S
C1847 C1831 1.429 . S
C1847 C1843 1.429 . S
C1847 C1848 1.523 . S
C1848 C1832 1.368 . S
C1848 C1844 1.368 . S
C1848 C1847 1.523 . S
H1849 C1824 0.950 . S
H1850 C1826 0.950 . S
H1851 C1827 0.949 . S
H1852 C1829 0.950 . S
H1853 C1831 0.950 . S
C1854 C1855 1.349 . S
C1854 C1856 1.327 . S
C1854 H1879 0.950 . S
C1855 C1854 1.349 . S
C1855 C1871 1.349 . S
C1856 C1854 1.327 . S
C1856 C1875 1.429 . S
C1856 H1880 0.950 . S
C1857 C1874 1.574 . S
C1857 C1876 1.368 . S
C1857 H1881 0.949 . S
H1858 C1862 0.949 . S
C1859 C1860 1.349 . S
C1859 C1861 1.327 . S
C1859 H1882 0.950 . S
C1860 C1859 1.349 . S
C1860 C1872 1.349 . S
C1861 C1859 1.327 . S
C1861 C1877 1.429 . S
C1861 H1883 0.950 . S
C1862 H1858 0.949 . S
C1862 C1870 1.574 . S
C1862 C1878 1.368 . S
H1863 C1871 0.950 . S
H1864 C1869 0.950 . S
H1865 C1870 0.949 . S
H1866 C1872 0.950 . S
H1867 C1873 0.950 . S
H1868 C1874 0.949 . S
C1869 H1864 0.950 . S
C1869 C1871 1.327 . S
C1869 C1875 1.429 . S
C1870 C1862 1.574 . S
C1870 H1865 0.949 . S
C1870 C1876 1.368 . S
C1871 C1855 1.349 . S
C1871 H1863 0.950 . S
C1871 C1869 1.327 . S
C1872 C1860 1.349 . S
C1872 H1866 0.950 . S
C1872 C1873 1.327 . S
C1873 H1867 0.950 . S
C1873 C1872 1.327 . S
C1873 C1877 1.429 . S
C1874 C1857 1.574 . S
C1874 H1868 0.949 . S
C1874 C1878 1.368 . S
C1875 C1856 1.429 . S
C1875 C1869 1.429 . S
C1875 C1876 1.523 . S
C1876 C1857 1.368 . S
C1876 C1870 1.368 . S
C1876 C1875 1.523 . S
C1877 C1861 1.429 . S
C1877 C1873 1.429 . S
C1877 C1878 1.523 . S
C1878 C1862 1.368 . S
C1878 C1874 1.368 . S
C1878 C1877 1.523 . S
H1879 C1854 0.950 . S
H1880 C1856 0.950 . S
H1881 C1857 0.949 . S
H1882 C1859 0.950 . S
H1883 C1861 0.950 . S
C1884 C1885 1.349 . S
C1884 C1886 1.327 . S
C1884 H1909 0.950 . S
C1885 C1884 1.349 . S
C1885 C1901 1.349 . S
C1886 C1884 1.327 . S
C1886 C1905 1.429 . S
C1886 H1910 0.950 . S
C1887 C1904 1.574 . S
C1887 C1906 1.368 . S
C1887 H1911 0.949 . S
H1888 C1892 0.949 . S
C1889 C1890 1.349 . S
C1889 C1891 1.327 . S
C1889 H1912 0.950 . S
C1890 C1889 1.349 . S
C1890 C1902 1.349 . S
C1891 C1889 1.327 . S
C1891 C1907 1.429 . S
C1891 H1913 0.950 . S
C1892 H1888 0.949 . S
C1892 C1900 1.574 . S
C1892 C1908 1.368 . S
H1893 C1901 0.950 . S
H1894 C1899 0.950 . S
H1895 C1900 0.949 . S
H1896 C1902 0.950 . S
H1897 C1903 0.950 . S
H1898 C1904 0.949 . S
C1899 H1894 0.950 . S
C1899 C1901 1.327 . S
C1899 C1905 1.429 . S
C1900 C1892 1.574 . S
C1900 H1895 0.949 . S
C1900 C1906 1.368 . S
C1901 C1885 1.349 . S
C1901 H1893 0.950 . S
C1901 C1899 1.327 . S
C1902 C1890 1.349 . S
C1902 H1896 0.950 . S
C1902 C1903 1.327 . S
C1903 H1897 0.950 . S
C1903 C1902 1.327 . S
C1903 C1907 1.429 . S
C1904 C1887 1.574 . S
C1904 H1898 0.949 . S
C1904 C1908 1.368 . S
C1905 C1886 1.429 . S
C1905 C1899 1.429 . S
C1905 C1906 1.523 . S
C1906 C1887 1.368 . S
C1906 C1900 1.368 . S
C1906 C1905 1.523 . S
C1907 C1891 1.429 . S
C1907 C1903 1.429 . S
C1907 C1908 1.523 . S
C1908 C1892 1.368 . S
C1908 C1904 1.368 . S
C1908 C1907 1.523 . S
H1909 C1884 0.950 . S
H1910 C1886 0.950 . S
H1911 C1887 0.949 . S
H1912 C1889 0.950 . S
H1913 C1891 0.950 . S
C1914 C1915 1.349 . S
C1914 C1916 1.327 . S
C1914 H1939 0.950 . S
C1915 C1914 1.349 . S
C1915 C1931 1.349 . S
C1916 C1914 1.327 . S
C1916 C1935 1.429 . S
C1916 H1940 0.950 . S
C1917 C1934 1.574 . S
C1917 C1936 1.368 . S
C1917 H1941 0.949 . S
H1918 C1922 0.949 . S
C1919 C1920 1.349 . S
C1919 C1921 1.327 . S
C1919 H1942 0.950 . S
C1920 C1919 1.349 . S
C1920 C1932 1.349 . S
C1921 C1919 1.327 . S
C1921 C1937 1.429 . S
C1921 H1943 0.950 . S
C1922 H1918 0.949 . S
C1922 C1930 1.574 . S
C1922 C1938 1.368 . S
H1923 C1931 0.950 . S
H1924 C1929 0.950 . S
H1925 C1930 0.949 . S
H1926 C1932 0.950 . S
H1927 C1933 0.950 . S
H1928 C1934 0.949 . S
C1929 H1924 0.950 . S
C1929 C1931 1.327 . S
C1929 C1935 1.429 . S
C1930 C1922 1.574 . S
C1930 H1925 0.949 . S
C1930 C1936 1.368 . S
C1931 C1915 1.349 . S
C1931 H1923 0.950 . S
C1931 C1929 1.327 . S
C1932 C1920 1.349 . S
C1932 H1926 0.950 . S
C1932 C1933 1.327 . S
C1933 H1927 0.950 . S
C1933 C1932 1.327 . S
C1933 C1937 1.429 . S
C1934 C1917 1.574 . S
C1934 H1928 0.949 . S
C1934 C1938 1.368 . S
C1935 C1916 1.429 . S
C1935 C1929 1.429 . S
C1935 C1936 1.523 . S
C1936 C1917 1.368 . S
C1936 C1930 1.368 . S
C1936 C1935 1.523 . S
C1937 C1921 1.429 . S
C1937 C1933 1.429 . S
C1937 C1938 1.523 . S
C1938 C1922 1.368 . S
C1938 C1934 1.368 . S
C1938 C1937 1.523 . S
H1939 C1914 0.950 . S
H1940 C1916 0.950 . S
H1941 C1917 0.949 . S
H1942 C1919 0.950 . S
H1943 C1921 0.950 . S
C1944 C1945 1.349 . S
C1944 C1946 1.327 . S
C1944 H1969 0.950 . S
C1945 C1944 1.349 . S
C1945 C1961 1.349 . S
C1946 C1944 1.327 . S
C1946 C1965 1.429 . S
C1946 H1970 0.950 . S
C1947 C1964 1.574 . S
C1947 C1966 1.368 . S
C1947 H1971 0.949 . S
H1948 C1952 0.949 . S
C1949 C1950 1.349 . S
C1949 C1951 1.327 . S
C1949 H1972 0.950 . S
C1950 C1949 1.349 . S
C1950 C1962 1.349 . S
C1951 C1949 1.327 . S
C1951 C1967 1.429 . S
C1951 H1973 0.950 . S
C1952 H1948 0.949 . S
C1952 C1960 1.574 . S
C1952 C1968 1.368 . S
H1953 C1961 0.950 . S
H1954 C1959 0.950 . S
H1955 C1960 0.949 . S
H1956 C1962 0.950 . S
H1957 C1963 0.950 . S
H1958 C1964 0.949 . S
C1959 H1954 0.950 . S
C1959 C1961 1.327 . S
C1959 C1965 1.429 . S
C1960 C1952 1.574 . S
C1960 H1955 0.949 . S
C1960 C1966 1.368 . S
C1961 C1945 1.349 . S
C1961 H1953 0.950 . S
C1961 C1959 1.327 . S
C1962 C1950 1.349 . S
C1962 H1956 0.950 . S
C1962 C1963 1.327 . S
C1963 H1957 0.950 . S
C1963 C1962 1.327 . S
C1963 C1967 1.429 . S
C1964 C1947 1.574 . S
C1964 H1958 0.949 . S
C1964 C1968 1.368 . S
C1965 C1946 1.429 . S
C1965 C1959 1.429 . S
C1965 C1966 1.523 . S
C1966 C1947 1.368 . S
C1966 C1960 1.368 . S
C1966 C1965 1.523 . S
C1967 C1951 1.429 . S
C1967 C1963 1.429 . S
C1967 C1968 1.523 . S
C1968 C1952 1.368 . S
C1968 C1964 1.368 . S
C1968 C1967 1.523 . S
H1969 C1944 0.950 . S
H1970 C1946 0.950 . S
H1971 C1947 0.949 . S
H1972 C1949 0.950 . S
H1973 C1951 0.950 . S
C1974 C1975 1.349 . S
C1974 C1976 1.327 . S
C1974 H1999 0.950 . S
C1975 C1974 1.349 . S
C1975 C1991 1.349 . S
C1976 C1974 1.327 . S
C1976 C1995 1.429 . S
C1976 H2000 0.950 . S
C1977 C1994 1.574 . S
C1977 C1996 1.368 . S
C1977 H2001 0.949 . S
H1978 C1982 0.949 . S
C1979 C1980 1.349 . S
C1979 C1981 1.327 . S
C1979 H2002 0.950 . S
C1980 C1979 1.349 . S
C1980 C1992 1.349 . S
C1981 C1979 1.327 . S
C1981 C1997 1.429 . S
C1981 H2003 0.950 . S
C1982 H1978 0.949 . S
C1982 C1990 1.574 . S
C1982 C1998 1.368 . S
H1983 C1991 0.950 . S
H1984 C1989 0.950 . S
H1985 C1990 0.949 . S
H1986 C1992 0.950 . S
H1987 C1993 0.950 . S
H1988 C1994 0.949 . S
C1989 H1984 0.950 . S
C1989 C1991 1.327 . S
C1989 C1995 1.429 . S
C1990 C1982 1.574 . S
C1990 H1985 0.949 . S
C1990 C1996 1.368 . S
C1991 C1975 1.349 . S
C1991 H1983 0.950 . S
C1991 C1989 1.327 . S
C1992 C1980 1.349 . S
C1992 H1986 0.950 . S
C1992 C1993 1.327 . S
C1993 H1987 0.950 . S
C1993 C1992 1.327 . S
C1993 C1997 1.429 . S
C1994 C1977 1.574 . S
C1994 H1988 0.949 . S
C1994 C1998 1.368 . S
C1995 C1976 1.429 . S
C1995 C1989 1.429 . S
C1995 C1996 1.523 . S
C1996 C1977 1.368 . S
C1996 C1990 1.368 . S
C1996 C1995 1.523 . S
C1997 C1981 1.429 . S
C1997 C1993 1.429 . S
C1997 C1998 1.523 . S
C1998 C1982 1.368 . S
C1998 C1994 1.368 . S
C1998 C1997 1.523 . S
H1999 C1974 0.950 . S
H2000 C1976 0.950 . S
H2001 C1977 0.949 . S
H2002 C1979 0.950 . S
H2003 C1981 0.950 . S
C2004 C2005 1.349 . S
C2004 C2006 1.327 . S
C2004 H2029 0.950 . S
C2005 C2004 1.349 . S
C2005 C2021 1.349 . S
C2006 C2004 1.327 . S
C2006 C2025 1.429 . S
C2006 H2030 0.950 . S
C2007 C2024 1.574 . S
C2007 C2026 1.368 . S
C2007 H2031 0.949 . S
H2008 C2012 0.949 . S
C2009 C2010 1.349 . S
C2009 C2011 1.327 . S
C2009 H2032 0.950 . S
C2010 C2009 1.349 . S
C2010 C2022 1.349 . S
C2011 C2009 1.327 . S
C2011 C2027 1.429 . S
C2011 H2033 0.950 . S
C2012 H2008 0.949 . S
C2012 C2020 1.574 . S
C2012 C2028 1.368 . S
H2013 C2021 0.950 . S
H2014 C2019 0.950 . S
H2015 C2020 0.949 . S
H2016 C2022 0.950 . S
H2017 C2023 0.950 . S
H2018 C2024 0.949 . S
C2019 H2014 0.950 . S
C2019 C2021 1.327 . S
C2019 C2025 1.429 . S
C2020 C2012 1.574 . S
C2020 H2015 0.949 . S
C2020 C2026 1.368 . S
C2021 C2005 1.349 . S
C2021 H2013 0.950 . S
C2021 C2019 1.327 . S
C2022 C2010 1.349 . S
C2022 H2016 0.950 . S
C2022 C2023 1.327 . S
C2023 H2017 0.950 . S
C2023 C2022 1.327 . S
C2023 C2027 1.429 . S
C2024 C2007 1.574 . S
C2024 H2018 0.949 . S
C2024 C2028 1.368 . S
C2025 C2006 1.429 . S
C2025 C2019 1.429 . S
C2025 C2026 1.523 . S
C2026 C2007 1.368 . S
C2026 C2020 1.368 . S
C2026 C2025 1.523 . S
C2027 C2011 1.429 . S
C2027 C2023 1.429 . S
C2027 C2028 1.523 . S
C2028 C2012 1.368 . S
C2028 C2024 1.368 . S
C2028 C2027 1.523 . S
H2029 C2004 0.950 . S
H2030 C2006 0.950 . S
H2031 C2007 0.949 . S
H2032 C2009 0.950 . S
H2033 C2011 0.950 . S
C2034 C2035 1.349 . S
C2034 C2036 1.327 . S
C2034 H2059 0.950 . S
C2035 C2034 1.349 . S
C2035 C2051 1.349 . S
C2036 C2034 1.327 . S
C2036 C2055 1.429 . S
C2036 H2060 0.950 . S
C2037 C2054 1.574 . S
C2037 C2056 1.368 . S
C2037 H2061 0.949 . S
H2038 C2042 0.949 . S
C2039 C2040 1.349 . S
C2039 C2041 1.327 . S
C2039 H2062 0.950 . S
C2040 C2039 1.349 . S
C2040 C2052 1.349 . S
C2041 C2039 1.327 . S
C2041 C2057 1.429 . S
C2041 H2063 0.950 . S
C2042 H2038 0.949 . S
C2042 C2050 1.574 . S
C2042 C2058 1.368 . S
H2043 C2051 0.950 . S
H2044 C2049 0.950 . S
H2045 C2050 0.949 . S
H2046 C2052 0.950 . S
H2047 C2053 0.950 . S
H2048 C2054 0.949 . S
C2049 H2044 0.950 . S
C2049 C2051 1.327 . S
C2049 C2055 1.429 . S
C2050 C2042 1.574 . S
C2050 H2045 0.949 . S
C2050 C2056 1.368 . S
C2051 C2035 1.349 . S
C2051 H2043 0.950 . S
C2051 C2049 1.327 . S
C2052 C2040 1.349 . S
C2052 H2046 0.950 . S
C2052 C2053 1.327 . S
C2053 H2047 0.950 . S
C2053 C2052 1.327 . S
C2053 C2057 1.429 . S
C2054 C2037 1.574 . S
C2054 H2048 0.949 . S
C2054 C2058 1.368 . S
C2055 C2036 1.429 . S
C2055 C2049 1.429 . S
C2055 C2056 1.523 . S
C2056 C2037 1.368 . S
C2056 C2050 1.368 . S
C2056 C2055 1.523 . S
C2057 C2041 1.429 . S
C2057 C2053 1.429 . S
C2057 C2058 1.523 . S
C2058 C2042 1.368 . S
C2058 C2054 1.368 . S
C2058 C2057 1.523 . S
H2059 C2034 0.950 . S
H2060 C2036 0.950 . S
H2061 C2037 0.949 . S
H2062 C2039 0.950 . S
H2063 C2041 0.950 . S
C2064 C2065 1.349 . S
C2064 C2066 1.327 . S
C2064 H2089 0.950 . S
C2065 C2064 1.349 . S
C2065 C2081 1.349 . S
C2066 C2064 1.327 . S
C2066 C2085 1.429 . S
C2066 H2090 0.950 . S
C2067 C2084 1.574 . S
C2067 C2086 1.368 . S
C2067 H2091 0.949 . S
H2068 C2072 0.949 . S
C2069 C2070 1.349 . S
C2069 C2071 1.327 . S
C2069 H2092 0.950 . S
C2070 C2069 1.349 . S
C2070 C2082 1.349 . S
C2071 C2069 1.327 . S
C2071 C2087 1.429 . S
C2071 H2093 0.950 . S
C2072 H2068 0.949 . S
C2072 C2080 1.574 . S
C2072 C2088 1.368 . S
H2073 C2081 0.950 . S
H2074 C2079 0.950 . S
H2075 C2080 0.949 . S
H2076 C2082 0.950 . S
H2077 C2083 0.950 . S
H2078 C2084 0.949 . S
C2079 H2074 0.950 . S
C2079 C2081 1.327 . S
C2079 C2085 1.429 . S
C2080 C2072 1.574 . S
C2080 H2075 0.949 . S
C2080 C2086 1.368 . S
C2081 C2065 1.349 . S
C2081 H2073 0.950 . S
C2081 C2079 1.327 . S
C2082 C2070 1.349 . S
C2082 H2076 0.950 . S
C2082 C2083 1.327 . S
C2083 H2077 0.950 . S
C2083 C2082 1.327 . S
C2083 C2087 1.429 . S
C2084 C2067 1.574 . S
C2084 H2078 0.949 . S
C2084 C2088 1.368 . S
C2085 C2066 1.429 . S
C2085 C2079 1.429 . S
C2085 C2086 1.523 . S
C2086 C2067 1.368 . S
C2086 C2080 1.368 . S
C2086 C2085 1.523 . S
C2087 C2071 1.429 . S
C2087 C2083 1.429 . S
C2087 C2088 1.523 . S
C2088 C2072 1.368 . S
C2088 C2084 1.368 . S
C2088 C2087 1.523 . S
H2089 C2064 0.950 . S
H2090 C2066 0.950 . S
H2091 C2067 0.949 . S
H2092 C2069 0.950 . S
H2093 C2071 0.950 . S
C2094 C2095 1.349 . S
C2094 C2096 1.327 . S
C2094 H2119 0.950 . S
C2095 C2094 1.349 . S
C2095 C2111 1.349 . S
C2096 C2094 1.327 . S
C2096 C2115 1.429 . S
C2096 H2120 0.950 . S
C2097 C2114 1.574 . S
C2097 C2116 1.368 . S
C2097 H2121 0.949 . S
H2098 C2102 0.949 . S
C2099 C2100 1.349 . S
C2099 C2101 1.327 . S
C2099 H2122 0.950 . S
C2100 C2099 1.349 . S
C2100 C2112 1.349 . S
C2101 C2099 1.327 . S
C2101 C2117 1.429 . S
C2101 H2123 0.950 . S
C2102 H2098 0.949 . S
C2102 C2110 1.574 . S
C2102 C2118 1.368 . S
H2103 C2111 0.950 . S
H2104 C2109 0.950 . S
H2105 C2110 0.949 . S
H2106 C2112 0.950 . S
H2107 C2113 0.950 . S
H2108 C2114 0.949 . S
C2109 H2104 0.950 . S
C2109 C2111 1.327 . S
C2109 C2115 1.429 . S
C2110 C2102 1.574 . S
C2110 H2105 0.949 . S
C2110 C2116 1.368 . S
C2111 C2095 1.349 . S
C2111 H2103 0.950 . S
C2111 C2109 1.327 . S
C2112 C2100 1.349 . S
C2112 H2106 0.950 . S
C2112 C2113 1.327 . S
C2113 H2107 0.950 . S
C2113 C2112 1.327 . S
C2113 C2117 1.429 . S
C2114 C2097 1.574 . S
C2114 H2108 0.949 . S
C2114 C2118 1.368 . S
C2115 C2096 1.429 . S
C2115 C2109 1.429 . S
C2115 C2116 1.523 . S
C2116 C2097 1.368 . S
C2116 C2110 1.368 . S
C2116 C2115 1.523 . S
C2117 C2101 1.429 . S
C2117 C2113 1.429 . S
C2117 C2118 1.523 . S
C2118 C2102 1.368 . S
C2118 C2114 1.368 . S
C2118 C2117 1.523 . S
H2119 C2094 0.950 . S
H2120 C2096 0.950 . S
H2121 C2097 0.949 . S
H2122 C2099 0.950 . S
H2123 C2101 0.950 . S
C2124 C2125 1.349 . S
C2124 C2126 1.327 . S
C2124 H2149 0.950 . S
C2125 C2124 1.349 . S
C2125 C2141 1.349 . S
C2126 C2124 1.327 . S
C2126 C2145 1.429 . S
C2126 H2150 0.950 . S
C2127 C2144 1.574 . S
C2127 C2146 1.368 . S
C2127 H2151 0.949 . S
H2128 C2132 0.949 . S
C2129 C2130 1.349 . S
C2129 C2131 1.327 . S
C2129 H2152 0.950 . S
C2130 C2129 1.349 . S
C2130 C2142 1.349 . S
C2131 C2129 1.327 . S
C2131 C2147 1.429 . S
C2131 H2153 0.950 . S
C2132 H2128 0.949 . S
C2132 C2140 1.574 . S
C2132 C2148 1.368 . S
H2133 C2141 0.950 . S
H2134 C2139 0.950 . S
H2135 C2140 0.949 . S
H2136 C2142 0.950 . S
H2137 C2143 0.950 . S
H2138 C2144 0.949 . S
C2139 H2134 0.950 . S
C2139 C2141 1.327 . S
C2139 C2145 1.429 . S
C2140 C2132 1.574 . S
C2140 H2135 0.949 . S
C2140 C2146 1.368 . S
C2141 C2125 1.349 . S
C2141 H2133 0.950 . S
C2141 C2139 1.327 . S
C2142 C2130 1.349 . S
C2142 H2136 0.950 . S
C2142 C2143 1.327 . S
C2143 H2137 0.950 . S
C2143 C2142 1.327 . S
C2143 C2147 1.429 . S
C2144 C2127 1.574 . S
C2144 H2138 0.949 . S
C2144 C2148 1.368 . S
C2145 C2126 1.429 . S
C2145 C2139 1.429 . S
C2145 C2146 1.523 . S
C2146 C2127 1.368 . S
C2146 C2140 1.368 . S
C2146 C2145 1.523 . S
C2147 C2131 1.429 . S
C2147 C2143 1.429 . S
C2147 C2148 1.523 . S
C2148 C2132 1.368 . S
C2148 C2144 1.368 . S
C2148 C2147 1.523 . S
H2149 C2124 0.950 . S
H2150 C2126 0.950 . S
H2151 C2127 0.949 . S
H2152 C2129 0.950 . S
H2153 C2131 0.950 . S
C2154 C2155 1.349 . S
C2154 C2156 1.327 . S
C2154 H2179 0.950 . S
C2155 C2154 1.349 . S
C2155 C2171 1.349 . S
C2156 C2154 1.327 . S
C2156 C2175 1.429 . S
C2156 H2180 0.950 . S
C2157 C2174 1.574 . S
C2157 C2176 1.368 . S
C2157 H2181 0.949 . S
H2158 C2162 0.949 . S
C2159 C2160 1.349 . S
C2159 C2161 1.327 . S
C2159 H2182 0.950 . S
C2160 C2159 1.349 . S
C2160 C2172 1.349 . S
C2161 C2159 1.327 . S
C2161 C2177 1.429 . S
C2161 H2183 0.950 . S
C2162 H2158 0.949 . S
C2162 C2170 1.574 . S
C2162 C2178 1.368 . S
H2163 C2171 0.950 . S
H2164 C2169 0.950 . S
H2165 C2170 0.949 . S
H2166 C2172 0.950 . S
H2167 C2173 0.950 . S
H2168 C2174 0.949 . S
C2169 H2164 0.950 . S
C2169 C2171 1.327 . S
C2169 C2175 1.429 . S
C2170 C2162 1.574 . S
C2170 H2165 0.949 . S
C2170 C2176 1.368 . S
C2171 C2155 1.349 . S
C2171 H2163 0.950 . S
C2171 C2169 1.327 . S
C2172 C2160 1.349 . S
C2172 H2166 0.950 . S
C2172 C2173 1.327 . S
C2173 H2167 0.950 . S
C2173 C2172 1.327 . S
C2173 C2177 1.429 . S
C2174 C2157 1.574 . S
C2174 H2168 0.949 . S
C2174 C2178 1.368 . S
C2175 C2156 1.429 . S
C2175 C2169 1.429 . S
C2175 C2176 1.523 . S
C2176 C2157 1.368 . S
C2176 C2170 1.368 . S
C2176 C2175 1.523 . S
C2177 C2161 1.429 . S
C2177 C2173 1.429 . S
C2177 C2178 1.523 . S
C2178 C2162 1.368 . S
C2178 C2174 1.368 . S
C2178 C2177 1.523 . S
H2179 C2154 0.950 . S
H2180 C2156 0.950 . S
H2181 C2157 0.949 . S
H2182 C2159 0.950 . S
H2183 C2161 0.950 . S
C2184 C2185 1.349 . S
C2184 C2186 1.327 . S
C2184 H2209 0.950 . S
C2185 C2184 1.349 . S
C2185 C2201 1.349 . S
C2186 C2184 1.327 . S
C2186 C2205 1.429 . S
C2186 H2210 0.950 . S
C2187 C2204 1.574 . S
C2187 C2206 1.368 . S
C2187 H2211 0.949 . S
H2188 C2192 0.949 . S
C2189 C2190 1.349 . S
C2189 C2191 1.327 . S
C2189 H2212 0.950 . S
C2190 C2189 1.349 . S
C2190 C2202 1.349 . S
C2191 C2189 1.327 . S
C2191 C2207 1.429 . S
C2191 H2213 0.950 . S
C2192 H2188 0.949 . S
C2192 C2200 1.574 . S
C2192 C2208 1.368 . S
H2193 C2201 0.950 . S
H2194 C2199 0.950 . S
H2195 C2200 0.949 . S
H2196 C2202 0.950 . S
H2197 C2203 0.950 . S
H2198 C2204 0.949 . S
C2199 H2194 0.950 . S
C2199 C2201 1.327 . S
C2199 C2205 1.429 . S
C2200 C2192 1.574 . S
C2200 H2195 0.949 . S
C2200 C2206 1.368 . S
C2201 C2185 1.349 . S
C2201 H2193 0.950 . S
C2201 C2199 1.327 . S
C2202 C2190 1.349 . S
C2202 H2196 0.950 . S
C2202 C2203 1.327 . S
C2203 H2197 0.950 . S
C2203 C2202 1.327 . S
C2203 C2207 1.429 . S
C2204 C2187 1.574 . S
C2204 H2198 0.949 . S
C2204 C2208 1.368 . S
C2205 C2186 1.429 . S
C2205 C2199 1.429 . S
C2205 C2206 1.523 . S
C2206 C2187 1.368 . S
C2206 C2200 1.368 . S
C2206 C2205 1.523 . S
C2207 C2191 1.429 . S
C2207 C2203 1.429 . S
C2207 C2208 1.523 . S
C2208 C2192 1.368 . S
C2208 C2204 1.368 . S
C2208 C2207 1.523 . S
H2209 C2184 0.950 . S
H2210 C2186 0.950 . S
H2211 C2187 0.949 . S
H2212 C2189 0.950 . S
H2213 C2191 0.950 . S
C2214 C2215 1.349 . S
C2214 C2216 1.327 . S
C2214 H2239 0.950 . S
C2215 C2214 1.349 . S
C2215 C2231 1.349 . S
C2216 C2214 1.327 . S
C2216 C2235 1.429 . S
C2216 H2240 0.950 . S
C2217 C2234 1.574 . S
C2217 C2236 1.368 . S
C2217 H2241 0.949 . S
H2218 C2222 0.949 . S
C2219 C2220 1.349 . S
C2219 C2221 1.327 . S
C2219 H2242 0.950 . S
C2220 C2219 1.349 . S
C2220 C2232 1.349 . S
C2221 C2219 1.327 . S
C2221 C2237 1.429 . S
C2221 H2243 0.950 . S
C2222 H2218 0.949 . S
C2222 C2230 1.574 . S
C2222 C2238 1.368 . S
H2223 C2231 0.950 . S
H2224 C2229 0.950 . S
H2225 C2230 0.949 . S
H2226 C2232 0.950 . S
H2227 C2233 0.950 . S
H2228 C2234 0.949 . S
C2229 H2224 0.950 . S
C2229 C2231 1.327 . S
C2229 C2235 1.429 . S
C2230 C2222 1.574 . S
C2230 H2225 0.949 . S
C2230 C2236 1.368 . S
C2231 C2215 1.349 . S
C2231 H2223 0.950 . S
C2231 C2229 1.327 . S
C2232 C2220 1.349 . S
C2232 H2226 0.950 . S
C2232 C2233 1.327 . S
C2233 H2227 0.950 . S
C2233 C2232 1.327 . S
C2233 C2237 1.429 . S
C2234 C2217 1.574 . S
C2234 H2228 0.949 . S
C2234 C2238 1.368 . S
C2235 C2216 1.429 . S
C2235 C2229 1.429 . S
C2235 C2236 1.523 . S
C2236 C2217 1.368 . S
C2236 C2230 1.368 . S
C2236 C2235 1.523 . S
C2237 C2221 1.429 . S
C2237 C2233 1.429 . S
C2237 C2238 1.523 . S
C2238 C2222 1.368 . S
C2238 C2234 1.368 . S
C2238 C2237 1.523 . S
H2239 C2214 0.950 . S
H2240 C2216 0.950 . S
H2241 C2217 0.949 . S
H2242 C2219 0.950 . S
H2243 C2221 0.950 . S
C2244 C2245 1.349 . S
C2244 C2246 1.327 . S
C2244 H2269 0.950 . S
C2245 C2244 1.349 . S
C2245 C2261 1.349 . S
C2246 C2244 1.327 . S
C2246 C2265 1.429 . S
C2246 H2270 0.950 . S
C2247 C2264 1.574 . S
C2247 C2266 1.368 . S
C2247 H2271 0.949 . S
H2248 C2252 0.949 . S
C2249 C2250 1.349 . S
C2249 C2251 1.327 . S
C2249 H2272 0.950 . S
C2250 C2249 1.349 . S
C2250 C2262 1.349 . S
C2251 C2249 1.327 . S
C2251 C2267 1.429 . S
C2251 H2273 0.950 . S
C2252 H2248 0.949 . S
C2252 C2260 1.574 . S
C2252 C2268 1.368 . S
H2253 C2261 0.950 . S
H2254 C2259 0.950 . S
H2255 C2260 0.949 . S
H2256 C2262 0.950 . S
H2257 C2263 0.950 . S
H2258 C2264 0.949 . S
C2259 H2254 0.950 . S
C2259 C2261 1.327 . S
C2259 C2265 1.429 . S
C2260 C2252 1.574 . S
C2260 H2255 0.949 . S
C2260 C2266 1.368 . S
C2261 C2245 1.349 . S
C2261 H2253 0.950 . S
C2261 C2259 1.327 . S
C2262 C2250 1.349 . S
C2262 H2256 0.950 . S
C2262 C2263 1.327 . S
C2263 H2257 0.950 . S
C2263 C2262 1.327 . S
C2263 C2267 1.429 . S
C2264 C2247 1.574 . S
C2264 H2258 0.949 . S
C2264 C2268 1.368 . S
C2265 C2246 1.429 . S
C2265 C2259 1.429 . S
C2265 C2266 1.523 . S
C2266 C2247 1.368 . S
C2266 C2260 1.368 . S
C2266 C2265 1.523 . S
C2267 C2251 1.429 . S
C2267 C2263 1.429 . S
C2267 C2268 1.523 . S
C2268 C2252 1.368 . S
C2268 C2264 1.368 . S
C2268 C2267 1.523 . S
H2269 C2244 0.950 . S
H2270 C2246 0.950 . S
H2271 C2247 0.949 . S
H2272 C2249 0.950 . S
H2273 C2251 0.950 . S
C2274 C2275 1.349 . S
C2274 C2276 1.327 . S
C2274 H2299 0.950 . S
C2275 C2274 1.349 . S
C2275 C2291 1.349 . S
C2276 C2274 1.327 . S
C2276 C2295 1.429 . S
C2276 H2300 0.950 . S
C2277 C2294 1.574 . S
C2277 C2296 1.368 . S
C2277 H2301 0.949 . S
H2278 C2282 0.949 . S
C2279 C2280 1.349 . S
C2279 C2281 1.327 . S
C2279 H2302 0.950 . S
C2280 C2279 1.349 . S
C2280 C2292 1.349 . S
C2281 C2279 1.327 . S
C2281 C2297 1.429 . S
C2281 H2303 0.950 . S
C2282 H2278 0.949 . S
C2282 C2290 1.574 . S
C2282 C2298 1.368 . S
H2283 C2291 0.950 . S
H2284 C2289 0.950 . S
H2285 C2290 0.949 . S
H2286 C2292 0.950 . S
H2287 C2293 0.950 . S
H2288 C2294 0.949 . S
C2289 H2284 0.950 . S
C2289 C2291 1.327 . S
C2289 C2295 1.429 . S
C2290 C2282 1.574 . S
C2290 H2285 0.949 . S
C2290 C2296 1.368 . S
C2291 C2275 1.349 . S
C2291 H2283 0.950 . S
C2291 C2289 1.327 . S
C2292 C2280 1.349 . S
C2292 H2286 0.950 . S
C2292 C2293 1.327 . S
C2293 H2287 0.950 . S
C2293 C2292 1.327 . S
C2293 C2297 1.429 . S
C2294 C2277 1.574 . S
C2294 H2288 0.949 . S
C2294 C2298 1.368 . S
C2295 C2276 1.429 . S
C2295 C2289 1.429 . S
C2295 C2296 1.523 . S
C2296 C2277 1.368 . S
C2296 C2290 1.368 . S
C2296 C2295 1.523 . S
C2297 C2281 1.429 . S
C2297 C2293 1.429 . S
C2297 C2298 1.523 . S
C2298 C2282 1.368 . S
C2298 C2294 1.368 . S
C2298 C2297 1.523 . S
H2299 C2274 0.950 . S
H2300 C2276 0.950 . S
H2301 C2277 0.949 . S
H2302 C2279 0.950 . S
H2303 C2281 0.950 . S
C870 C689 1.592 . S
C865 C74 1.578 . S
C900 C694 1.308 . S
C895 C153 1.233 . S
C930 C695 1.537 . S
C925 C231 1.527 . S
C955 C310 0.796 . S
C960 C699 0.550 . S
C985 C394 1.232 . S
C990 C702 1.309 . S
C1020 C703 1.537 . S
C1015 C494 1.521 . S
C1045 C573 0.796 . S
C1050 C680 0.550 . S
C1075 C651 1.581 . S
C1080 C696 1.595 . S
C1110 C734 2.342 . S
C1105 C56 2.422 . S
C1135 C151 1.528 . S
C1140 C760 1.489 . S
C1170 C712 1.291 . S
C1165 C237 1.228 . S
C1200 C767 1.490 . S
C1195 C326 1.480 . S
C1225 C410 1.511 . S
C1230 C721 1.509 . S
C1260 C763 2.329 . S
C1255 C476 2.409 . S
C1285 C571 1.549 . S
C1290 C727 1.512 . S
C1315 C657 1.220 . S
C1320 C758 1.287 . S
C1345 C58 1.220 . S
C1350 C766 1.277 . S
C1375 C392 1.528 . S
C1380 C753 1.492 . S
C1410 C731 1.291 . S
C1405 C478 1.230 . S
C1440 C759 1.490 . S
C1435 C567 1.488 . S
C1465 C655 2.426 . S
C1470 C726 2.346 . S
C1495 C235 2.409 . S
C1500 C744 2.328 . S
C1530 C735 1.510 . S
C1525 C308 1.548 . S
C1555 C147 1.511 . S
C1560 C728 1.501 . S
C1585 C662 1.548 . S
C1590 C790 1.534 . S
C1615 C405 1.201 . S
C1620 C785 1.278 . S
C1650 C799 1.467 . S
C1645 C483 1.502 . S
C1680 C776 0.416 . S
C1675 C562 0.818 . S
C1705 C142 1.201 . S
C1710 C792 1.275 . S
C1740 C791 1.468 . S
C1735 C242 1.497 . S
C1765 C321 0.817 . S
C1770 C795 0.417 . S
C1795 C63 1.548 . S
C1800 C798 1.530 . S
C1825 C644 2.432 . S
C1830 C824 2.384 . S
C1860 C840 1.475 . S
C1855 C403 1.545 . S
C1885 C489 1.235 . S
C1890 C822 1.304 . S
C1915 C578 1.506 . S
C1920 C855 1.503 . S
C1950 C831 1.480 . S
C1945 C158 1.496 . S
C1975 C224 2.447 . S
C1980 C849 2.380 . S
C2010 C827 1.463 . S
C2005 C319 1.531 . S
C2040 C862 1.311 . S
C2035 C69 1.243 . S
C2070 C854 1.311 . S
C2065 C646 1.249 . S
C2095 C140 1.543 . S
C2100 C859 1.473 . S
C2125 C226 1.235 . S
C2130 C830 1.310 . S
C2160 C863 1.504 . S
C2155 C315 1.507 . S
C2185 C67 2.432 . S
C2190 C817 2.379 . S
C2215 C487 2.447 . S
C2220 C856 2.376 . S
C2250 C808 1.463 . S
C2245 C560 1.534 . S
C2280 C823 1.480 . S
C2275 C399 1.492 . S
