# Generated by pormake.
# Topology tsx, (6,3)-cn, num edge types: 1
# Building blocks:
#     Node 0, Type 0, BuildingBlock: FUNLAD_clean_sbu_0, # of connection points: 6
#     Node 1, Type 0, BuildingBlock: FUNLAD_clean_sbu_0, # of connection points: 6
#     Node 2, Type 1, BuildingBlock: WUSLED_clean_sbu_0, # of connection points: 3
#     Node 3, Type 1, BuildingBlock: WUSLED_clean_sbu_0, # of connection points: 3
#     Node 4, Type 1, BuildingBlock: WUSLED_clean_sbu_0, # of connection points: 3
#     Node 5, Type 1, BuildingBlock: WUSLED_clean_sbu_0, # of connection points: 3
#     Edge 6, Type (0, 1), BuildingBlock: XUDNAN_clean_linker_2, # of connection points: 2
#     Edge 7, Type (0, 1), BuildingBlock: XUDNAN_clean_linker_2, # of connection points: 2
#     Edge 8, Type (0, 1), BuildingBlock: XUDNAN_clean_linker_2, # of connection points: 2
#     Edge 9, Type (0, 1), BuildingBlock: XUDNAN_clean_linker_2, # of connection points: 2
#     Edge 10, Type (0, 1), BuildingBlock: XUDNAN_clean_linker_2, # of connection points: 2
#     Edge 11, Type (0, 1), BuildingBlock: XUDNAN_clean_linker_2, # of connection points: 2
#     Edge 12, Type (0, 1), BuildingBlock: XUDNAN_clean_linker_2, # of connection points: 2
#     Edge 13, Type (0, 1), BuildingBlock: XUDNAN_clean_linker_2, # of connection points: 2
#     Edge 14, Type (0, 1), BuildingBlock: XUDNAN_clean_linker_2, # of connection points: 2
#     Edge 15, Type (0, 1), BuildingBlock: XUDNAN_clean_linker_2, # of connection points: 2
#     Edge 16, Type (0, 1), BuildingBlock: XUDNAN_clean_linker_2, # of connection points: 2
#     Edge 17, Type (0, 1), BuildingBlock: XUDNAN_clean_linker_2, # of connection points: 2
# Relax obj value: 0.157
# Max RMSD: 0.152
# Mean RMSD: 0.086
data_MOF--net-tsx--node1-FUNLAD_clean_sbu_0--node2-WUSLED_clean_sbu_0--edge1-XUDNAN_clean_linker_2
_symmetry_space_group_name_H-M    P1
_symmetry_Int_Tables_number       1
_symmetry_cell_setting            triclinic
loop_
_symmetry_equiv_pos_as_xyz
'x, y, z'
_cell_length_a     24.711165
_cell_length_b     27.143644
_cell_length_c     52.386234
_cell_angle_alpha  91.507811
_cell_angle_beta   92.105825
_cell_angle_gamma 89.699996
loop_
_atom_site_label
_atom_site_type_symbol
_atom_site_fract_x
_atom_site_fract_y
_atom_site_fract_z
_atom_type_partial_charge
C0 C 0.95198 0.93555 1.00173 0.0
N1 N 0.02612 1.00658 0.06572 0.0
C2 C 0.97997 1.00835 0.07914 0.0
C3 C 0.98284 0.01293 0.10585 0.0
C4 C 0.03369 0.01586 0.11875 0.0
C5 C 0.08043 0.01161 0.10441 0.0
C6 C 0.07573 1.0072 0.07788 0.0
Zn7 Zn 0.02448 1.00915 0.02663 0.0
C8 C 0.11096 0.94754 1.00359 0.0
N9 N 0.02732 0.01989 0.94533 0.0
C10 C 0.98292 0.01093 0.92976 0.0
C11 C 0.07664 0.02771 0.93548 0.0
C12 C 0.08321 0.02499 0.90919 0.0
C13 C 0.03877 0.01366 0.89265 0.0
C14 C 0.98775 1.00771 0.90319 0.0
Zn15 Zn 0.02477 0.01683 0.98438 0.0
O16 O 0.96939 0.95194 0.0234 0.0
C17 C 0.93872 0.07893 0.00623 0.0
O18 O 0.96914 0.95456 0.98152 0.0
H19 H 0.11155 0.03457 0.94809 0.0
H20 H 0.94093 1.00792 0.0691 0.0
H21 H 0.94409 1.00473 0.93797 0.0
O22 O 0.95862 0.06156 0.02693 0.0
O23 O 0.95858 0.06551 0.98509 0.0
H24 H 0.11197 1.00598 0.06694 0.0
O25 O 0.07924 0.0793 0.98872 0.0
O26 O 0.07883 0.06758 0.0299 0.0
O27 O 0.09133 0.96842 0.98394 0.0
O28 O 0.09027 0.95641 0.02511 0.0
C29 C 0.09484 0.09199 0.01135 0.0
H30 H 0.94576 0.01633 0.11617 0.0
H31 H 0.12044 0.0128 0.11357 0.0
H32 H 0.12309 0.03079 0.90192 0.0
H33 H 0.95245 0.99866 0.89116 0.0
C34 C 0.45163 0.43657 0.50594 0.0
N35 N 0.52108 0.51383 0.56959 0.0
C36 C 0.47409 0.5155 0.5824 0.0
C37 C 0.47535 0.52109 0.60912 0.0
C38 C 0.52542 0.52526 0.62265 0.0
C39 C 0.57304 0.52158 0.60892 0.0
C40 C 0.56996 0.51602 0.5824 0.0
Zn41 Zn 0.5227 0.51205 0.53031 0.0
C42 C 0.60911 0.44298 0.51202 0.0
N43 N 0.53491 0.51111 0.44873 0.0
C44 C 0.49021 0.50534 0.43297 0.0
C45 C 0.5851 0.51444 0.4391 0.0
C46 C 0.59199 0.511 0.4128 0.0
C47 C 0.5469 0.50363 0.39602 0.0
C48 C 0.49531 0.50152 0.40642 0.0
Zn49 Zn 0.5296 0.5124 0.48786 0.0
O50 O 0.467 0.45478 0.52758 0.0
C51 C 0.44268 0.58078 0.50618 0.0
O52 O 0.47115 0.45333 0.48571 0.0
H53 H 0.62016 0.51905 0.45189 0.0
H54 H 0.43563 0.51376 0.57188 0.0
H55 H 0.45065 0.50274 0.44099 0.0
O56 O 0.45851 0.56422 0.52772 0.0
O57 O 0.46542 0.56534 0.48603 0.0
H58 H 0.60692 0.51468 0.57199 0.0
O59 O 0.58747 0.57215 0.49132 0.0
O60 O 0.57751 0.57002 0.53266 0.0
O61 O 0.59334 0.45903 0.4904 0.0
O62 O 0.58687 0.45951 0.532 0.0
C63 C 0.5986 0.58948 0.5137 0.0
H64 H 0.43763 0.52397 0.61896 0.0
H65 H 0.61253 0.52371 0.61856 0.0
H66 H 0.63245 0.51381 0.40571 0.0
H67 H 0.45942 0.49548 0.39429 0.0
C68 C 0.93191 0.0856 0.47766 0.0
C69 C 0.92806 0.12804 0.46291 0.0
C70 C 0.86374 0.1648 0.49213 0.0
C71 C 0.89444 0.16727 0.47009 0.0
C72 C 0.86718 0.1218 0.50661 0.0
C73 C 0.90086 0.08259 0.4994 0.0
U74 U 1.00393 0.01382 0.42616 0.0
O75 O 0.08654 0.98406 0.4245 0.0
O76 O 0.01705 0.93407 0.4195 0.0
C77 C 0.07004 0.93822 0.42147 0.0
C78 C 0.96745 0.04421 0.47026 0.0
C79 C 0.0997 0.90088 0.43652 0.0
C80 C 0.15763 0.87723 0.47279 0.0
C81 C 0.12454 0.91215 0.4605 0.0
C82 C 0.13988 0.81898 0.43771 0.0
C83 C 0.1665 0.8305 0.4613 0.0
C84 C 0.10696 0.85382 0.42548 0.0
C85 C 0.98488 0.05857 0.35766 0.0
C86 C 1.00005 0.01136 0.31842 0.0
C87 C 1.00311 0.10058 0.31857 0.0
C88 C 0.99175 0.10222 0.34449 0.0
C89 C 0.00753 0.05516 0.30527 0.0
C90 C 0.98915 0.01302 0.34447 0.0
C91 C 0.97395 0.06171 0.38511 0.0
O92 O 0.94395 1.00919 0.4561 0.0
O93 O 0.01508 0.0567 0.46213 0.0
O94 O 0.01522 0.0751 0.40019 0.0
O95 O 0.94569 0.02558 0.39415 0.0
H96 H 0.95128 0.13095 0.44587 0.0
H97 H 0.89323 0.19987 0.45861 0.0
H98 H 0.84339 0.11818 0.52341 0.0
H99 H 0.9025 0.04983 0.51076 0.0
H100 H 0.17771 0.88747 0.49086 0.0
H101 H 0.11959 0.94829 0.4694 0.0
H102 H 0.14487 0.7831 0.42854 0.0
H103 H 0.08816 0.84436 0.40699 0.0
H104 H 1.00372 0.97585 0.3087 0.0
H105 H 0.00808 0.13494 0.30887 0.0
H106 H 0.98854 0.1377 0.35432 0.0
H107 H 0.9844 0.97877 0.3543 0.0
C108 C 0.94514 0.93062 0.53408 0.0
C109 C 0.9374 0.89868 0.55422 0.0
C110 C 0.86416 0.85788 0.52988 0.0
C111 C 0.8975 0.86263 0.55211 0.0
C112 C 0.87339 0.88846 0.50923 0.0
C113 C 0.91354 0.92489 0.5114 0.0
U114 U 0.02433 1.00878 0.58119 0.0
O115 O 0.10717 0.0378 0.58255 0.0
O116 O 0.03797 0.08884 0.58497 0.0
C117 C 0.09071 0.08397 0.58331 0.0
C118 C 0.9828 0.97211 0.53808 0.0
C119 C 0.1176 0.11846 0.56658 0.0
C120 C 0.17977 0.13547 0.53292 0.0
C121 C 0.14861 0.10205 0.54601 0.0
C122 C 0.14708 0.20219 0.55992 0.0
C123 C 0.18049 0.18571 0.54025 0.0
C124 C 0.11615 0.16889 0.57297 0.0
C125 C 0.00923 0.97305 0.65144 0.0
C126 C 0.01213 0.02114 0.6914 0.0
C127 C 0.03744 0.93481 0.69122 0.0
C128 C 0.02688 0.93159 0.66487 0.0
C129 C 0.03022 0.97959 0.7048 0.0
C130 C 1.00193 0.01799 0.66491 0.0
C131 C 0.99726 0.96762 0.62367 0.0
O132 O 0.96211 0.01053 0.55008 0.0
O133 O 0.03127 0.96009 0.54718 0.0
O134 O 0.03748 0.95171 0.60989 0.0
O135 O 0.96871 1.00284 0.61278 0.0
H136 H 0.96116 0.90264 0.57195 0.0
H137 H 0.89171 0.8392 0.56821 0.0
H138 H 0.84803 0.88569 0.49195 0.0
H139 H 0.91872 0.94949 0.49575 0.0
H140 H 0.20521 0.12161 0.51792 0.0
H141 H 0.15035 0.06329 0.54063 0.0
H142 H 0.14592 0.24078 0.5657 0.0
H143 H 0.09245 0.18239 0.58871 0.0
H144 H 0.00659 0.0562 0.70133 0.0
H145 H 0.05058 0.90198 0.70105 0.0
H146 H 0.03228 0.89646 0.65495 0.0
H147 H 0.98832 0.05063 0.65506 0.0
C148 C 0.44035 0.59224 0.9835 0.0
C149 C 0.46581 0.63847 0.98574 0.0
C150 C 0.37898 0.67918 0.99185 0.0
C151 C 0.43546 0.68137 0.98975 0.0
C152 C 0.35394 0.63277 0.99143 0.0
C153 C 0.38433 0.58971 0.98731 0.0
U154 U 0.50198 0.51239 0.93145 0.0
O155 O 0.58191 0.47755 0.92869 0.0
O156 O 0.50873 0.43172 0.9258 0.0
C157 C 0.56197 0.43272 0.92697 0.0
C158 C 0.47137 0.54747 0.97585 0.0
C159 C 0.58976 0.39528 0.94268 0.0
C160 C 0.64966 0.37243 0.97842 0.0
C161 C 0.61751 0.40766 0.96585 0.0
C162 C 0.62454 0.31165 0.94549 0.0
C163 C 0.65463 0.32432 0.96801 0.0
C164 C 0.5926 0.34679 0.93296 0.0
C165 C 0.48212 0.55852 0.86274 0.0
C166 C 0.49503 0.51259 0.82284 0.0
C167 C 0.49687 0.60184 0.82364 0.0
C168 C 0.48736 0.6026 0.84975 0.0
C169 C 0.50119 0.55688 0.80989 0.0
C170 C 0.48588 0.51338 0.84912 0.0
C171 C 0.47337 0.56118 0.89043 0.0
O172 O 0.44407 0.51355 0.96247 0.0
O173 O 0.51962 0.55518 0.96697 0.0
O174 O 0.51632 0.57213 0.90495 0.0
O175 O 0.44348 0.52648 0.89975 0.0
H176 H 0.50903 0.64189 0.98354 0.0
H177 H 0.4561 0.71652 0.99054 0.0
H178 H 0.3105 0.62988 0.99302 0.0
H179 H 0.36363 0.5546 0.98618 0.0
H180 H 0.67244 0.3835 0.99566 0.0
H181 H 0.61585 0.44489 0.97376 0.0
H182 H 0.62654 0.27471 0.93723 0.0
H183 H 0.57141 0.33644 0.91516 0.0
H184 H 0.49857 0.47741 0.81278 0.0
H185 H 0.50069 0.63658 0.81417 0.0
H186 H 0.48441 0.63779 0.85988 0.0
H187 H 0.4822 0.47885 0.8588 0.0
C188 C 0.4402 0.43394 0.03729 0.0
C189 C 0.43263 0.40147 0.05722 0.0
C190 C 0.35792 0.36212 0.03313 0.0
C191 C 0.39219 0.36585 0.05512 0.0
C192 C 0.3665 0.39371 0.01281 0.0
C193 C 0.40729 0.42958 0.01495 0.0
U194 U 0.52634 0.5094 0.08319 0.0
O195 O 0.54908 0.58769 0.08545 0.0
O196 O 0.6123 0.53042 0.08381 0.0
C197 C 0.60114 0.57782 0.08428 0.0
C198 C 0.48056 0.47352 0.04079 0.0
C199 C 0.63342 0.60874 0.0679 0.0
C200 C 0.64351 0.66219 0.03174 0.0
C201 C 0.61228 0.62924 0.04523 0.0
C202 C 0.71731 0.65299 0.06301 0.0
C203 C 0.69595 0.67525 0.04088 0.0
C204 C 0.68638 0.62022 0.07634 0.0
C205 C 0.51113 0.47633 0.15417 0.0
C206 C 0.51637 0.52242 0.19478 0.0
C207 C 0.53984 0.43572 0.19327 0.0
C208 C 0.52837 0.43396 0.16697 0.0
C209 C 0.53402 0.47993 0.20753 0.0
C210 C 0.50517 0.5207 0.16832 0.0
C211 C 0.49738 0.47214 0.12644 0.0
O212 O 0.46304 0.51361 0.05253 0.0
O213 O 0.52835 0.45904 0.04966 0.0
O214 O 0.53479 0.45235 0.11217 0.0
O215 O 0.47238 0.50966 0.11575 0.0
H216 H 0.45746 0.40423 0.07468 0.0
H217 H 0.38722 0.34159 0.07096 0.0
H218 H 0.34052 0.39187 0.99571 0.0
H219 H 0.41231 0.45452 0.99944 0.0
H220 H 0.62599 0.67877 0.01475 0.0
H221 H 0.57145 0.62072 0.03832 0.0
H222 H 0.75789 0.66151 0.07028 0.0
H223 H 0.7035 0.60467 0.09371 0.0
H224 H 0.51183 0.55709 0.2052 0.0
H225 H 0.55246 0.40213 0.20254 0.0
H226 H 0.53257 0.39916 0.15659 0.0
H227 H 0.49171 0.55401 0.15903 0.0
H228 H 0.1673 0.139 0.98063 0.0
H229 H 0.09708 0.14551 0.05548 0.0
H230 H 0.15225 0.21788 0.06738 0.0
H231 H 0.30141 0.17012 1.00302 0.0
H232 H 0.31692 0.20713 0.97619 0.0
H233 H 0.26872 0.15774 0.9722 0.0
H234 H 0.1967 0.21896 0.95462 0.0
H235 H 0.24472 0.26859 0.95859 0.0
H236 H 0.18011 0.27321 0.97339 0.0
H237 H 0.21548 0.2866 0.07245 0.0
H238 H 0.28832 0.34767 0.07111 0.0
H239 H 0.32276 0.298 0.99388 0.0
C240 C 0.16322 0.15617 0.99936 0.0
C241 C 0.12777 0.13659 0.0171 0.0
C242 C 0.12408 0.15959 0.04159 0.0
C243 C 0.15505 0.20097 0.04853 0.0
C244 C 0.18996 0.21907 0.03087 0.0
C245 C 0.19466 0.19758 0.00683 0.0
C246 C 0.23805 0.22337 0.9923 0.0
C247 C 0.284 0.18744 0.98554 0.0
C248 C 0.21341 0.24746 0.9683 0.0
C249 C 0.25713 0.26204 0.01213 0.0
C250 C 0.22817 0.25893 0.03408 0.0
C251 C 0.23855 0.2895 0.05539 0.0
C252 C 0.28027 0.32386 0.0545 0.0
C253 C 0.31163 0.32729 0.03252 0.0
C254 C 0.29925 0.29641 0.01088 0.0
H255 H 0.13776 0.86388 0.0305 0.0
H256 H 0.19 0.95619 0.96973 0.0
H257 H 0.26643 0.89981 0.96208 0.0
H258 H 0.27335 0.82523 0.054 0.0
H259 H 0.25272 0.76294 0.05955 0.0
H260 H 0.20455 0.81277 0.06208 0.0
H261 H 0.1405 0.76791 0.02895 0.0
H262 H 0.18852 0.71808 0.02623 0.0
H263 H 0.16538 0.75003 0.99811 0.0
H264 H 0.33476 0.83332 0.95965 0.0
H265 H 0.38993 0.75764 0.96129 0.0
H266 H 0.29311 0.70452 0.02228 0.0
C267 C 0.16597 0.8725 0.01593 0.0
C268 C 0.15835 0.91461 1.00084 0.0
C269 C 0.19521 0.92418 0.98152 0.0
C270 C 0.23883 0.89247 0.97708 0.0
C271 C 0.24488 0.85092 0.99193 0.0
C272 C 0.20949 0.84053 0.01088 0.0
C273 C 0.22362 0.79144 0.0228 0.0
C274 C 0.23951 0.79854 0.0513 0.0
C275 C 0.17671 0.7547 0.01877 0.0
C276 C 0.27209 0.77592 0.00741 0.0
C277 C 0.28386 0.81123 0.98996 0.0
C278 C 0.32627 0.80551 0.97336 0.0
C279 C 0.35757 0.76247 0.97454 0.0
C280 C 0.34624 0.72533 0.99206 0.0
C281 C 0.30276 0.73226 0.0087 0.0
H282 H 0.90059 0.89893 0.04202 0.0
H283 H 0.9099 0.88235 0.95968 0.0
H284 H 0.84146 0.81557 0.95982 0.0
H285 H 0.88956 0.77319 0.05562 0.0
H286 H 0.84312 0.78358 0.08097 0.0
H287 H 0.89078 0.83062 0.07372 0.0
H288 H 0.81201 0.89311 0.0674 0.0
H289 H 0.764 0.84622 0.07461 0.0
H290 H 0.75696 0.87841 0.045 0.0
H291 H 0.77243 0.7478 0.97017 0.0
H292 H 0.71321 0.68633 0.98951 0.0
H293 H 0.75109 0.75109 0.06453 0.0
C294 C 0.88845 0.88147 0.0239 0.0
C295 C 0.9109 0.89578 1.00082 0.0
C296 C 0.89333 0.87196 0.97761 0.0
C297 C 0.85442 0.83408 0.97752 0.0
C298 C 0.83333 0.82087 1.00077 0.0
C299 C 0.84986 0.84417 0.02348 0.0
C300 C 0.82231 0.82335 0.04605 0.0
C301 C 0.86393 0.80137 0.06521 0.0
C302 C 0.78671 0.86261 0.05902 0.0
C303 C 0.7883 0.78375 0.03272 0.0
C304 C 0.79453 0.78286 0.00659 0.0
C305 C 0.76726 0.74844 0.9906 0.0
C306 C 0.73356 0.71381 1.00171 0.0
C307 C 0.72794 0.71367 0.02853 0.0
C308 C 0.75514 0.74973 0.044 0.0
H309 H 0.88644 0.11955 0.96494 0.0
H310 H 0.8889 0.12058 0.04785 0.0
H311 H 0.81516 0.18278 0.0475 0.0
H312 H 0.86398 0.2481 0.95781 0.0
H313 H 0.82036 0.24028 0.92967 0.0
H314 H 0.87212 0.19523 0.93672 0.0
H315 H 0.79971 0.12634 0.93518 0.0
H316 H 0.74768 0.17119 0.92813 0.0
H317 H 0.7421 0.13212 0.9552 0.0
H318 H 0.74179 0.24718 0.03757 0.0
H319 H 0.67521 0.30606 0.01905 0.0
H320 H 0.72303 0.26173 0.94292 0.0
C321 C 0.87147 0.1326 0.98309 0.0
C322 C 0.89353 0.11512 0.00644 0.0
C323 C 0.87261 0.13334 0.02971 0.0
C324 C 0.83075 0.1687 0.0297 0.0
C325 C 0.81019 0.1853 0.00627 0.0
C326 C 0.82988 0.16764 0.98342 0.0
C327 C 0.8016 0.19151 0.9608 0.0
C328 C 0.84192 0.2205 0.94535 0.0
C329 C 0.77095 0.15299 0.94383 0.0
C330 C 0.76293 0.22562 0.97441 0.0
C331 C 0.76832 0.22167 1.00063 0.0
C332 C 0.7372 0.25039 0.01706 0.0
C333 C 0.69967 0.2839 0.00638 0.0
C334 C 0.69349 0.28831 0.97952 0.0
C335 C 0.72582 0.25864 0.9635 0.0
H336 H 0.67593 0.62955 0.48298 0.0
H337 H 0.59712 0.6501 0.55534 0.0
H338 H 0.65221 0.72336 0.56522 0.0
H339 H 0.80812 0.66313 0.50725 0.0
H340 H 0.82719 0.69497 0.47921 0.0
H341 H 0.77876 0.6456 0.47635 0.0
H342 H 0.70954 0.7039 0.45413 0.0
H343 H 0.75778 0.75352 0.45697 0.0
H344 H 0.69151 0.76126 0.46982 0.0
H345 H 0.71617 0.79145 0.56879 0.0
H346 H 0.79052 0.85087 0.56656 0.0
H347 H 0.83228 0.78836 0.49269 0.0
C348 C 0.67005 0.64989 0.50073 0.0
C349 C 0.63217 0.63402 0.51837 0.0
C350 C 0.62604 0.66123 0.54157 0.0
C351 C 0.65693 0.70317 0.54735 0.0
C352 C 0.69415 0.71763 0.52982 0.0
C353 C 0.70129 0.69198 0.50704 0.0
C354 C 0.74666 0.71464 0.49246 0.0
C355 C 0.79292 0.67736 0.4886 0.0
C356 C 0.72507 0.73451 0.46682 0.0
C357 C 0.76401 0.75639 0.51085 0.0
C358 C 0.73255 0.7574 0.53212 0.0
C359 C 0.74112 0.79121 0.55224 0.0
C360 C 0.78361 0.82462 0.55086 0.0
C361 C 0.81734 0.82392 0.52958 0.0
C362 C 0.80683 0.78985 0.50909 0.0
H363 H 0.65355 0.38803 0.47301 0.0
H364 H 0.6596 0.40915 0.55552 0.0
H365 H 0.72647 0.34167 0.55927 0.0
H366 H 0.66129 0.25675 0.47277 0.0
H367 H 0.70288 0.25177 0.44526 0.0
H368 H 0.6574 0.30333 0.44885 0.0
H369 H 0.73738 0.3637 0.44506 0.0
H370 H 0.78312 0.31231 0.44138 0.0
H371 H 0.79609 0.35828 0.46628 0.0
H372 H 0.79097 0.27055 0.55425 0.0
H373 H 0.84904 0.2011 0.54078 0.0
H374 H 0.79945 0.22449 0.46162 0.0
C375 C 0.66934 0.37882 0.49186 0.0
C376 C 0.65138 0.40408 0.51398 0.0
C377 C 0.67269 0.39044 0.53829 0.0
C378 C 0.71075 0.35215 0.54063 0.0
C379 C 0.72713 0.32767 0.51849 0.0
C380 C 0.70719 0.34046 0.49456 0.0
C381 C 0.73039 0.30728 0.47389 0.0
C382 C 0.6853 0.27805 0.45934 0.0
C383 C 0.76373 0.33719 0.45557 0.0
C384 C 0.76633 0.2738 0.48995 0.0
C385 C 0.76392 0.28628 0.51562 0.0
C386 C 0.79314 0.2604 0.5342 0.0
C387 C 0.82572 0.22072 0.52635 0.0
C388 C 0.82883 0.20704 0.50013 0.0
C389 C 0.7986 0.23423 0.48178 0.0
H390 H 0.39959 0.39893 0.54593 0.0
H391 H 0.41099 0.38418 0.46359 0.0
H392 H 0.3422 0.31783 0.46283 0.0
H393 H 0.38476 0.271 0.5582 0.0
H394 H 0.33792 0.28193 0.58333 0.0
H395 H 0.38782 0.32764 0.57695 0.0
H396 H 0.31183 0.39299 0.57094 0.0
H397 H 0.26163 0.34747 0.57723 0.0
H398 H 0.25695 0.3811 0.54801 0.0
H399 H 0.27161 0.25175 0.47188 0.0
H400 H 0.20587 0.19424 0.48965 0.0
H401 H 0.24313 0.2547 0.56571 0.0
C402 C 0.38788 0.38183 0.52766 0.0
C403 C 0.41082 0.3967 0.50481 0.0
C404 C 0.394 0.37335 0.48135 0.0
C405 C 0.35498 0.33566 0.48075 0.0
C406 C 0.33322 0.32199 0.50374 0.0
C407 C 0.34919 0.34458 0.52672 0.0
C408 C 0.31994 0.32382 0.54882 0.0
C409 C 0.36 0.29965 0.56794 0.0
C410 C 0.28555 0.36372 0.56201 0.0
C411 C 0.2848 0.28585 0.5348 0.0
C412 C 0.29289 0.28504 0.50882 0.0
C413 C 0.26497 0.25225 0.49219 0.0
C414 C 0.22789 0.21962 0.50244 0.0
C415 C 0.21894 0.22032 0.52902 0.0
C416 C 0.2481 0.25389 0.54525 0.0
H417 H 0.39969 0.62499 0.46331 0.0
H418 H 0.38616 0.62151 0.54565 0.0
H419 H 0.31398 0.68466 0.54329 0.0
H420 H 0.37965 0.75528 0.45755 0.0
H421 H 0.34098 0.74964 0.42778 0.0
H422 H 0.39112 0.70376 0.43597 0.0
H423 H 0.3185 0.63543 0.43026 0.0
H424 H 0.26811 0.6811 0.42206 0.0
H425 H 0.25739 0.64022 0.44795 0.0
H426 H 0.24335 0.74915 0.53188 0.0
H427 H 0.17948 0.80881 0.51221 0.0
H428 H 0.24035 0.77055 0.43754 0.0
C429 C 0.38152 0.63737 0.48086 0.0
C430 C 0.39869 0.61817 0.50467 0.0
C431 C 0.37377 0.63556 0.52717 0.0
C432 C 0.3327 0.67147 0.52603 0.0
C433 C 0.31688 0.68969 0.50227 0.0
C434 C 0.34049 0.67318 0.48009 0.0
C435 C 0.31633 0.69886 0.45698 0.0
C436 C 0.3596 0.72865 0.4438 0.0
C437 C 0.28842 0.66168 0.43821 0.0
C438 C 0.27544 0.73239 0.4696 0.0
C439 C 0.27635 0.72663 0.49573 0.0
C440 C 0.24232 0.75396 0.51143 0.0
C441 C 0.20637 0.78797 0.5001 0.0
C442 C 0.20462 0.79437 0.47331 0.0
C443 C 0.2399 0.76608 0.45801 0.0
H444 H 0.97401 0.97713 0.157 0.0
H445 H 0.10371 0.07964 0.1437 0.0
H446 H 0.1127 0.09846 0.18988 0.0
H447 H 0.9124 0.04959 0.20656 0.0
H448 H 0.89518 0.99731 0.22511 0.0
H449 H 0.89973 0.99056 0.19096 0.0
H450 H 0.96957 0.91989 0.19695 0.0
H451 H 0.96534 0.92652 0.23113 0.0
H452 H 0.03006 0.93064 0.21656 0.0
H453 H 0.1065 0.10821 0.23701 0.0
H454 H 0.08552 0.10785 0.28271 0.0
H455 H 0.95958 0.99963 0.26603 0.0
C456 C 1.0042 1.00359 0.16382 0.0
C457 C 0.03852 0.02653 0.14671 0.0
C458 C 0.07768 0.06083 0.15644 0.0
C459 C 0.08292 0.07201 0.18264 0.0
C460 C 0.04872 0.04865 0.19896 0.0
C461 C 0.01013 0.01514 0.19002 0.0
C462 C 0.97816 0.99578 0.21177 0.0
C463 C 0.91779 1.00912 0.20839 0.0
C464 C 0.98629 0.93989 0.21424 0.0
C465 C 1.00463 0.02395 0.23424 0.0
C466 C 0.04522 0.05422 0.22636 0.0
C467 C 0.07485 0.08464 0.24345 0.0
C468 C 0.06247 0.08436 0.26932 0.0
C469 C 0.0209 0.05381 0.27788 0.0
C470 C 0.99195 0.02297 0.26007 0.0
H471 H 0.97319 0.04288 0.85179 0.0
H472 H 0.1223 0.96429 0.87064 0.0
H473 H 0.13745 0.95003 0.82487 0.0
H474 H 0.93142 0.96355 0.79859 0.0
H475 H 0.90373 0.01283 0.77967 0.0
H476 H 0.90503 0.01827 0.81403 0.0
H477 H 0.95776 0.10026 0.81214 0.0
H478 H 0.95683 0.09495 0.77777 0.0
H479 H 0.02034 0.10156 0.79553 0.0
H480 H 0.13619 0.94254 0.77747 0.0
H481 H 0.11786 0.94162 0.73085 0.0
H482 H 0.96912 0.02391 0.74201 0.0
C483 C 0.00892 0.02256 0.84627 0.0
C484 C 0.04686 1.0052 0.86487 0.0
C485 C 0.09322 0.9789 0.85681 0.0
C486 C 0.10207 0.97033 0.83083 0.0
C487 C 0.06421 0.9882 0.81303 0.0
C488 C 0.01851 0.0137 0.82031 0.0
C489 C 0.98395 0.02824 0.79715 0.0
C490 C 0.92771 1.00428 0.79738 0.0
C491 C 0.97948 0.08461 0.79556 0.0
C492 C 0.01728 1.00661 0.7758 0.0
C493 C 0.06343 0.98376 0.78546 0.0
C494 C 0.10019 0.9603 0.76964 0.0
C495 C 0.08931 0.95978 0.74321 0.0
C496 C 0.04204 0.98255 0.7328 0.0
C497 C 1.00587 1.00665 0.74939 0.0
H498 H 0.466 0.48453 0.66056 0.0
H499 H 0.59209 0.59115 0.64806 0.0
H500 H 0.60073 0.60866 0.69437 0.0
H501 H 0.40274 0.55342 0.71157 0.0
H502 H 0.38781 0.49965 0.72948 0.0
H503 H 0.39154 0.49488 0.69522 0.0
H504 H 0.46368 0.42579 0.69984 0.0
H505 H 0.46038 0.43054 0.73412 0.0
H506 H 0.5244 0.4372 0.71918 0.0
H507 H 0.59597 0.61549 0.74156 0.0
H508 H 0.57699 0.61203 0.78734 0.0
H509 H 0.45354 0.50163 0.7702 0.0
C510 C 0.49517 0.51174 0.66759 0.0
C511 C 0.52875 0.53612 0.65065 0.0
C512 C 0.56663 0.57132 0.66065 0.0
C513 C 0.57169 0.58173 0.68693 0.0
C514 C 0.53855 0.55673 0.70309 0.0
C515 C 0.50093 0.52255 0.69391 0.0
C516 C 0.47031 0.50116 0.71562 0.0
C517 C 0.4095 0.513 0.7128 0.0
C518 C 0.48031 0.44536 0.71728 0.0
C519 C 0.49653 0.52888 0.73835 0.0
C520 C 0.53578 0.56071 0.7306 0.0
C521 C 0.56525 0.5908 0.7479 0.0
C522 C 0.55401 0.58873 0.77384 0.0
C523 C 0.51363 0.55678 0.78234 0.0
C524 C 0.48493 0.52612 0.7643 0.0
H525 H 0.48282 0.53802 0.35572 0.0
H526 H 0.62746 0.45159 0.37283 0.0
H527 H 0.64139 0.4394 0.32682 0.0
H528 H 0.43616 0.46326 0.30158 0.0
H529 H 0.41079 0.51468 0.28356 0.0
H530 H 0.41289 0.51818 0.31796 0.0
H531 H 0.46976 0.59798 0.31708 0.0
H532 H 0.46807 0.59458 0.28267 0.0
H533 H 0.53211 0.59755 0.30025 0.0
H534 H 0.63939 0.43503 0.2792 0.0
H535 H 0.62039 0.43747 0.23271 0.0
H536 H 0.47595 0.5249 0.24579 0.0
C537 C 0.5173 0.51636 0.34981 0.0
C538 C 0.55436 0.49624 0.36804 0.0
C539 C 0.59911 0.46834 0.35937 0.0
C540 C 0.60724 0.46092 0.33322 0.0
C541 C 0.57025 0.48147 0.31583 0.0
C542 C 0.52607 0.5085 0.32369 0.0
C543 C 0.49197 0.52574 0.3009 0.0
C544 C 0.43456 0.50417 0.30101 0.0
C545 C 0.49041 0.58233 0.30019 0.0
C546 C 0.5238 0.50391 0.27907 0.0
C547 C 0.56887 0.47864 0.28818 0.0
C548 C 0.60418 0.45465 0.27182 0.0
C549 C 0.59289 0.45605 0.24544 0.0
C550 C 0.54659 0.48118 0.23556 0.0
C551 C 0.51196 0.50582 0.25271 0.0
loop_
_geom_bond_atom_site_label_1
_geom_bond_atom_site_label_2
_geom_bond_distance
_geom_bond_site_symmetry_2
_ccdc_geom_bond_type
C0 O16 1.251 . S
C0 O18 1.254 1_554 S
N1 C2 1.333 1_445 S
N1 C6 1.307 . S
N1 Zn7 2.020 . S
C2 N1 1.333 1_665 S
C2 C3 1.379 . S
C2 H20 0.952 . S
C3 C2 1.379 . S
C3 C4 1.390 1_665 S
C3 H30 0.949 . S
C4 C3 1.390 1_445 S
C4 C5 1.357 . S
C5 C4 1.357 . S
C5 C6 1.370 . S
C5 H31 0.950 . S
C6 N1 1.307 . S
C6 C5 1.370 . S
C6 H24 0.948 . S
Zn7 N1 2.020 . S
Zn7 O16 2.039 1_445 S
Zn7 O22 2.034 1_455 S
Zn7 O26 2.025 . S
Zn7 O28 2.024 1_545 S
C8 O27 1.246 1_554 S
C8 O28 1.249 . S
N9 C10 1.307 1_445 S
N9 C11 1.333 . S
N9 Zn15 2.020 . S
C10 N9 1.307 1_665 S
C10 C14 1.370 . S
C10 H21 0.948 . S
C11 N9 1.333 . S
C11 C12 1.379 . S
C11 H19 0.952 . S
C12 C11 1.379 . S
C12 C13 1.390 . S
C12 H32 0.949 . S
C13 C12 1.390 . S
C13 C14 1.357 1_445 S
C14 C10 1.370 . S
C14 C13 1.357 1_665 S
C14 H33 0.950 . S
Zn15 N9 2.020 . S
Zn15 O18 2.025 1_445 S
Zn15 O23 2.024 1_455 S
Zn15 O25 2.039 . S
Zn15 O27 2.034 1_545 S
O16 C0 1.251 . S
O16 Zn7 2.039 1_665 S
C17 O22 1.246 . S
C17 O23 1.249 1_554 S
O18 C0 1.254 1_556 S
O18 Zn15 2.025 1_665 S
H19 C11 0.952 . S
H20 C2 0.952 . S
H21 C10 0.948 . S
O22 Zn7 2.034 1_655 S
O22 C17 1.246 . S
O23 Zn15 2.024 1_655 S
O23 C17 1.249 1_556 S
H24 C6 0.948 . S
O25 Zn15 2.039 . S
O25 C29 1.251 1_556 S
O26 Zn7 2.025 . S
O26 C29 1.254 . S
O27 C8 1.246 1_556 S
O27 Zn15 2.034 1_565 S
O28 Zn7 2.024 1_565 S
O28 C8 1.249 . S
C29 O25 1.251 1_554 S
C29 O26 1.254 . S
H30 C3 0.949 . S
H31 C5 0.950 . S
H32 C12 0.949 . S
H33 C14 0.950 . S
C34 O50 1.251 . S
C34 O52 1.254 . S
N35 C36 1.333 . S
N35 C40 1.307 . S
N35 Zn41 2.020 . S
C36 N35 1.333 . S
C36 C37 1.379 . S
C36 H54 0.952 . S
C37 C36 1.379 . S
C37 C38 1.390 . S
C37 H64 0.949 . S
C38 C37 1.390 . S
C38 C39 1.357 . S
C39 C38 1.357 . S
C39 C40 1.370 . S
C39 H65 0.950 . S
C40 N35 1.307 . S
C40 C39 1.370 . S
C40 H58 0.948 . S
Zn41 N35 2.020 . S
Zn41 O50 2.039 . S
Zn41 O56 2.034 . S
Zn41 O60 2.025 . S
Zn41 O62 2.024 . S
C42 O61 1.246 . S
C42 O62 1.249 . S
N43 C44 1.307 . S
N43 C45 1.333 . S
N43 Zn49 2.020 . S
C44 N43 1.307 . S
C44 C48 1.370 . S
C44 H55 0.948 . S
C45 N43 1.333 . S
C45 C46 1.379 . S
C45 H53 0.952 . S
C46 C45 1.379 . S
C46 C47 1.390 . S
C46 H66 0.949 . S
C47 C46 1.390 . S
C47 C48 1.357 . S
C48 C44 1.370 . S
C48 C47 1.357 . S
C48 H67 0.950 . S
Zn49 N43 2.020 . S
Zn49 O52 2.025 . S
Zn49 O57 2.024 . S
Zn49 O59 2.039 . S
Zn49 O61 2.034 . S
O50 C34 1.251 . S
O50 Zn41 2.039 . S
C51 O56 1.246 . S
C51 O57 1.249 . S
O52 C34 1.254 . S
O52 Zn49 2.025 . S
H53 C45 0.952 . S
H54 C36 0.952 . S
H55 C44 0.948 . S
O56 Zn41 2.034 . S
O56 C51 1.246 . S
O57 Zn49 2.024 . S
O57 C51 1.249 . S
H58 C40 0.948 . S
O59 Zn49 2.039 . S
O59 C63 1.251 . S
O60 Zn41 2.025 . S
O60 C63 1.254 . S
O61 C42 1.246 . S
O61 Zn49 2.034 . S
O62 Zn41 2.024 . S
O62 C42 1.249 . S
C63 O59 1.251 . S
C63 O60 1.254 . S
H64 C37 0.949 . S
H65 C39 0.950 . S
H66 C46 0.949 . S
H67 C48 0.950 . S
C68 C69 1.264 . S
C68 C73 1.479 . S
C68 C78 1.465 . S
C69 C68 1.264 . S
C69 C71 1.339 . S
C69 H96 0.931 . S
C70 C71 1.395 . S
C70 C72 1.320 . S
C71 C69 1.339 . S
C71 C70 1.395 . S
C71 H97 0.929 . S
C72 C70 1.320 . S
C72 C73 1.405 . S
C72 H98 0.930 . S
C73 C68 1.479 . S
C73 C72 1.405 . S
C73 H99 0.931 . S
U74 O75 2.454 1_545 S
U74 O76 2.458 1_545 S
U74 C77 2.984 1_545 S
U74 C78 2.847 1_455 S
U74 C91 2.882 . S
U74 O92 2.441 1_455 S
U74 O93 2.420 1_455 S
U74 O94 2.455 1_545 S
U74 O95 2.449 . S
O75 U74 2.454 1_565 S
O75 C77 1.353 . S
O76 U74 2.458 1_565 S
O76 C77 1.286 . S
C77 U74 2.984 1_565 S
C77 O75 1.353 . S
C77 O76 1.286 . S
C77 C79 1.363 . S
C78 C68 1.465 . S
C78 U74 2.847 1_655 S
C78 O92 1.249 . S
C78 O93 1.202 . S
C79 C77 1.363 . S
C79 C81 1.408 . S
C79 C84 1.342 . S
C80 C81 1.310 . S
C80 C83 1.461 . S
C80 H100 0.932 . S
C81 C79 1.408 . S
C81 C80 1.310 . S
C81 H101 0.930 . S
C82 C83 1.474 . S
C82 C84 1.285 . S
C82 H102 0.929 . S
C83 C80 1.461 . S
C83 C82 1.474 . S
C84 C79 1.342 . S
C84 C82 1.285 . S
C84 H103 0.930 . S
C85 C88 1.424 1_455 S
C85 C90 1.245 1_545 S
C85 C91 1.428 . S
C86 C89 1.260 1_565 S
C86 C90 1.477 . S
C86 H104 0.932 . S
C87 C88 1.384 . S
C87 C89 1.479 1_655 S
C87 H105 0.929 . S
C88 C85 1.424 1_655 S
C88 C87 1.384 . S
C88 H106 0.928 . S
C89 C86 1.260 1_545 S
C89 C87 1.479 1_455 S
C90 C85 1.245 1_565 S
C90 C86 1.477 . S
C90 H107 0.932 . S
C91 U74 2.882 . S
C91 C85 1.428 . S
C91 O94 1.301 1_545 S
C91 O95 1.282 . S
O92 U74 2.441 1_655 S
O92 C78 1.249 . S
O93 U74 2.420 1_655 S
O93 C78 1.202 . S
O94 U74 2.455 1_565 S
O94 C91 1.301 1_565 S
O95 U74 2.449 . S
O95 C91 1.282 . S
H96 C69 0.931 . S
H97 C71 0.929 . S
H98 C72 0.930 . S
H99 C73 0.931 . S
H100 C80 0.932 . S
H101 C81 0.930 . S
H102 C82 0.929 . S
H103 C84 0.930 . S
H104 C86 0.932 . S
H105 C87 0.929 . S
H106 C88 0.928 . S
H107 C90 0.932 . S
C108 C109 1.264 . S
C108 C113 1.479 . S
C108 C118 1.465 . S
C109 C108 1.264 . S
C109 C111 1.339 . S
C109 H136 0.931 . S
C110 C111 1.395 . S
C110 C112 1.320 . S
C111 C109 1.339 . S
C111 C110 1.395 . S
C111 H137 0.929 . S
C112 C110 1.320 . S
C112 C113 1.405 . S
C112 H138 0.930 . S
C113 C108 1.479 . S
C113 C112 1.405 . S
C113 H139 0.931 . S
U114 O115 2.454 1_565 S
U114 O116 2.458 1_565 S
U114 C117 2.984 1_565 S
U114 C118 2.847 1_455 S
U114 C131 2.882 . S
U114 O132 2.441 . S
U114 O133 2.420 1_455 S
U114 O134 2.455 1_565 S
U114 O135 2.449 . S
O115 U114 2.454 1_545 S
O115 C117 1.353 . S
O116 U114 2.458 1_545 S
O116 C117 1.286 . S
C117 U114 2.984 1_545 S
C117 O115 1.353 . S
C117 O116 1.286 . S
C117 C119 1.363 . S
C118 C108 1.465 . S
C118 U114 2.847 1_655 S
C118 O132 1.249 1_655 S
C118 O133 1.202 . S
C119 C117 1.363 . S
C119 C121 1.408 . S
C119 C124 1.342 . S
C120 C121 1.310 . S
C120 C123 1.461 . S
C120 H140 0.932 . S
C121 C119 1.408 . S
C121 C120 1.310 . S
C121 H141 0.930 . S
C122 C123 1.474 . S
C122 C124 1.285 . S
C122 H142 0.929 . S
C123 C120 1.461 . S
C123 C122 1.474 . S
C124 C119 1.342 . S
C124 C122 1.285 . S
C124 H143 0.930 . S
C125 C128 1.424 . S
C125 C130 1.245 1_565 S
C125 C131 1.428 . S
C126 C129 1.260 . S
C126 C130 1.477 . S
C126 H144 0.932 . S
C127 C128 1.384 1_655 S
C127 C129 1.479 1_665 S
C127 H145 0.929 . S
C128 C125 1.424 . S
C128 C127 1.384 1_455 S
C128 H146 0.928 1_455 S
C129 C126 1.260 . S
C129 C127 1.479 1_445 S
C130 C125 1.245 1_545 S
C130 C126 1.477 . S
C130 H147 0.932 . S
C131 U114 2.882 . S
C131 C125 1.428 . S
C131 O134 1.301 1_565 S
C131 O135 1.282 . S
O132 U114 2.441 . S
O132 C118 1.249 1_455 S
O133 U114 2.420 1_655 S
O133 C118 1.202 . S
O134 U114 2.455 1_545 S
O134 C131 1.301 1_545 S
O135 U114 2.449 . S
O135 C131 1.282 . S
H136 C109 0.931 . S
H137 C111 0.929 . S
H138 C112 0.930 . S
H139 C113 0.931 . S
H140 C120 0.932 . S
H141 C121 0.930 . S
H142 C122 0.929 . S
H143 C124 0.930 . S
H144 C126 0.932 . S
H145 C127 0.929 . S
H146 C128 0.928 1_655 S
H147 C130 0.932 . S
C148 C149 1.264 . S
C148 C153 1.479 1_556 S
C148 C158 1.465 . S
C149 C148 1.264 . S
C149 C151 1.339 . S
C149 H176 0.931 . S
C150 C151 1.395 1_554 S
C150 C152 1.320 . S
C151 C149 1.339 . S
C151 C150 1.395 1_556 S
C151 H177 0.929 . S
C152 C150 1.320 . S
C152 C153 1.405 . S
C152 H178 0.930 . S
C153 C148 1.479 1_554 S
C153 C152 1.405 . S
C153 H179 0.931 . S
U154 O155 2.454 . S
U154 O156 2.458 . S
U154 C157 2.984 . S
U154 C158 2.847 . S
U154 C171 2.882 . S
U154 O172 2.441 . S
U154 O173 2.420 . S
U154 O174 2.455 . S
U154 O175 2.449 . S
O155 U154 2.454 . S
O155 C157 1.353 . S
O156 U154 2.458 . S
O156 C157 1.286 . S
C157 U154 2.984 . S
C157 O155 1.353 . S
C157 O156 1.286 . S
C157 C159 1.363 . S
C158 C148 1.465 . S
C158 U154 2.847 . S
C158 O172 1.249 . S
C158 O173 1.202 . S
C159 C157 1.363 . S
C159 C161 1.408 1_556 S
C159 C164 1.342 . S
C160 C161 1.310 . S
C160 C163 1.461 . S
C160 H180 0.932 . S
C161 C159 1.408 1_554 S
C161 C160 1.310 . S
C161 H181 0.930 . S
C162 C163 1.474 1_556 S
C162 C164 1.285 . S
C162 H182 0.929 . S
C163 C160 1.461 . S
C163 C162 1.474 1_554 S
C164 C159 1.342 . S
C164 C162 1.285 . S
C164 H183 0.930 . S
C165 C168 1.424 . S
C165 C170 1.245 . S
C165 C171 1.428 . S
C166 C169 1.260 . S
C166 C170 1.477 . S
C166 H184 0.932 . S
C167 C168 1.384 . S
C167 C169 1.479 . S
C167 H185 0.929 . S
C168 C165 1.424 . S
C168 C167 1.384 . S
C168 H186 0.928 . S
C169 C166 1.260 . S
C169 C167 1.479 . S
C170 C165 1.245 . S
C170 C166 1.477 . S
C170 H187 0.932 . S
C171 U154 2.882 . S
C171 C165 1.428 . S
C171 O174 1.301 . S
C171 O175 1.282 . S
O172 U154 2.441 . S
O172 C158 1.249 . S
O173 U154 2.420 . S
O173 C158 1.202 . S
O174 U154 2.455 . S
O174 C171 1.301 . S
O175 U154 2.449 . S
O175 C171 1.282 . S
H176 C149 0.931 . S
H177 C151 0.929 . S
H178 C152 0.930 . S
H179 C153 0.931 . S
H180 C160 0.932 . S
H181 C161 0.930 . S
H182 C162 0.929 . S
H183 C164 0.930 . S
H184 C166 0.932 . S
H185 C167 0.929 . S
H186 C168 0.928 . S
H187 C170 0.932 . S
C188 C189 1.264 . S
C188 C193 1.479 1_554 S
C188 C198 1.465 . S
C189 C188 1.264 . S
C189 C191 1.339 . S
C189 H216 0.931 . S
C190 C191 1.426 . S
C190 C192 1.302 1_554 S
C191 C189 1.339 . S
C191 C190 1.426 . S
C191 H217 0.929 . S
C192 C190 1.302 1_556 S
C192 C193 1.405 . S
C192 H218 0.930 . S
C193 C188 1.479 1_556 S
C193 C192 1.405 . S
C193 H219 0.931 . S
U194 O195 2.454 . S
U194 O196 2.458 . S
U194 C197 2.984 . S
U194 C198 2.847 . S
U194 C211 2.882 . S
U194 O212 2.441 . S
U194 O213 2.420 . S
U194 O214 2.455 . S
U194 O215 2.449 . S
O195 U194 2.454 . S
O195 C197 1.353 . S
O196 U194 2.458 . S
O196 C197 1.286 . S
C197 U194 2.984 . S
C197 O195 1.353 . S
C197 O196 1.286 . S
C197 C199 1.363 . S
C198 C188 1.465 . S
C198 U194 2.847 . S
C198 O212 1.249 . S
C198 O213 1.202 . S
C199 C197 1.363 . S
C199 C201 1.408 . S
C199 C204 1.342 . S
C200 C201 1.310 1_556 S
C200 C203 1.461 1_556 S
C200 H220 0.932 . S
C201 C199 1.408 . S
C201 C200 1.310 1_554 S
C201 H221 0.930 1_554 S
C202 C203 1.474 . S
C202 C204 1.285 . S
C202 H222 0.929 . S
C203 C200 1.461 1_554 S
C203 C202 1.474 . S
C204 C199 1.342 . S
C204 C202 1.285 . S
C204 H223 0.930 . S
C205 C208 1.424 . S
C205 C210 1.245 . S
C205 C211 1.428 . S
C206 C209 1.260 . S
C206 C210 1.477 . S
C206 H224 0.932 . S
C207 C208 1.384 . S
C207 C209 1.479 . S
C207 H225 0.929 . S
C208 C205 1.424 . S
C208 C207 1.384 . S
C208 H226 0.928 . S
C209 C206 1.260 . S
C209 C207 1.479 . S
C210 C205 1.245 . S
C210 C206 1.477 . S
C210 H227 0.932 . S
C211 U194 2.882 . S
C211 C205 1.428 . S
C211 O214 1.301 . S
C211 O215 1.282 . S
O212 U194 2.441 . S
O212 C198 1.249 . S
O213 U194 2.420 . S
O213 C198 1.202 . S
O214 U194 2.455 . S
O214 C211 1.301 . S
O215 U194 2.449 . S
O215 C211 1.282 . S
H216 C189 0.931 . S
H217 C191 0.929 . S
H218 C192 0.930 . S
H219 C193 0.931 . S
H220 C200 0.932 . S
H221 C201 0.930 1_556 S
H222 C202 0.929 . S
H223 C204 0.930 . S
H224 C206 0.932 . S
H225 C207 0.929 . S
H226 C208 0.928 . S
H227 C210 0.932 . S
H228 C240 0.930 . S
H229 C242 0.930 . S
H230 C243 0.930 . S
H231 C247 0.959 . S
H232 C247 0.959 . S
H233 C247 0.961 . S
H234 C248 0.960 . S
H235 C248 0.961 . S
H236 C248 0.959 . S
H237 C251 0.929 . S
H238 C252 0.931 . S
H239 C254 0.930 . S
C240 H228 0.930 . S
C240 C241 1.399 1_556 S
C240 C245 1.399 . S
C241 C240 1.399 1_554 S
C241 C242 1.376 . S
C242 H229 0.930 . S
C242 C241 1.376 . S
C242 C243 1.388 . S
C243 H230 0.930 . S
C243 C242 1.388 . S
C243 C244 1.390 . S
C244 C243 1.390 . S
C244 C245 1.394 1_554 S
C244 C250 1.465 . S
C245 C240 1.399 . S
C245 C244 1.394 1_556 S
C245 C246 1.516 . S
C246 C245 1.516 . S
C246 C247 1.502 . S
C246 C248 1.561 . S
C246 C249 1.526 . S
C247 H231 0.959 . S
C247 H232 0.959 . S
C247 H233 0.961 . S
C247 C246 1.502 . S
C248 H234 0.960 . S
C248 H235 0.961 . S
C248 H236 0.959 . S
C248 C246 1.561 . S
C249 C246 1.526 . S
C249 C250 1.396 1_556 S
C249 C254 1.390 . S
C250 C244 1.465 . S
C250 C249 1.396 1_554 S
C250 C251 1.399 . S
C251 H237 0.929 . S
C251 C250 1.399 . S
C251 C252 1.385 . S
C252 H238 0.931 . S
C252 C251 1.385 . S
C252 C253 1.389 1_554 S
C253 C252 1.389 1_556 S
C253 C254 1.387 . S
C254 H239 0.930 . S
C254 C249 1.390 . S
C254 C253 1.387 . S
H255 C267 0.930 . S
H256 C269 0.930 . S
H257 C270 0.930 . S
H258 C274 0.959 . S
H259 C274 0.959 . S
H260 C274 0.961 . S
H261 C275 0.960 . S
H262 C275 0.961 . S
H263 C275 0.959 . S
H264 C278 0.929 . S
H265 C279 0.931 . S
H266 C281 0.930 . S
C267 H255 0.930 . S
C267 C268 1.401 . S
C267 C272 1.399 . S
C268 C267 1.401 . S
C268 C269 1.374 1_554 S
C269 H256 0.930 . S
C269 C268 1.374 1_556 S
C269 C270 1.388 . S
C270 H257 0.930 . S
C270 C269 1.388 . S
C270 C271 1.390 . S
C271 C270 1.390 . S
C271 C272 1.394 1_556 S
C271 C277 1.465 . S
C272 C267 1.399 . S
C272 C271 1.394 1_554 S
C272 C273 1.516 . S
C273 C272 1.516 . S
C273 C274 1.502 . S
C273 C275 1.561 . S
C273 C276 1.526 . S
C274 H258 0.959 . S
C274 H259 0.959 . S
C274 H260 0.961 . S
C274 C273 1.502 . S
C275 H261 0.960 . S
C275 H262 0.961 . S
C275 H263 0.959 . S
C275 C273 1.561 . S
C276 C273 1.526 . S
C276 C277 1.396 1_554 S
C276 C281 1.390 . S
C277 C271 1.465 . S
C277 C276 1.396 1_556 S
C277 C278 1.399 . S
C278 H264 0.929 . S
C278 C277 1.399 . S
C278 C279 1.385 . S
C279 H265 0.931 . S
C279 C278 1.385 . S
C279 C280 1.389 1_556 S
C280 C279 1.389 1_554 S
C280 C281 1.387 . S
C281 H266 0.930 . S
C281 C276 1.390 . S
C281 C280 1.387 . S
H282 C294 0.930 . S
H283 C296 0.930 . S
H284 C297 0.930 . S
H285 C301 0.959 . S
H286 C301 0.959 . S
H287 C301 0.961 . S
H288 C302 0.960 . S
H289 C302 0.961 . S
H290 C302 0.959 . S
H291 C305 0.929 . S
H292 C306 0.931 . S
H293 C308 0.930 . S
C294 H282 0.930 . S
C294 C295 1.399 1_556 S
C294 C299 1.399 . S
C295 C294 1.399 1_554 S
C295 C296 1.376 . S
C296 H283 0.930 . S
C296 C295 1.376 . S
C296 C297 1.388 . S
C297 H284 0.930 . S
C297 C296 1.388 . S
C297 C298 1.390 . S
C298 C297 1.390 . S
C298 C299 1.394 1_554 S
C298 C304 1.465 . S
C299 C294 1.399 . S
C299 C298 1.394 1_556 S
C299 C300 1.516 . S
C300 C299 1.516 . S
C300 C301 1.502 . S
C300 C302 1.561 . S
C300 C303 1.526 . S
C301 H285 0.959 . S
C301 H286 0.959 . S
C301 H287 0.961 . S
C301 C300 1.502 . S
C302 H288 0.960 . S
C302 H289 0.961 . S
C302 H290 0.959 . S
C302 C300 1.561 . S
C303 C300 1.526 . S
C303 C304 1.396 1_556 S
C303 C308 1.390 . S
C304 C298 1.465 . S
C304 C303 1.396 1_554 S
C304 C305 1.399 . S
C305 H291 0.929 . S
C305 C304 1.399 . S
C305 C306 1.385 . S
C306 H292 0.931 . S
C306 C305 1.385 . S
C306 C307 1.397 . S
C307 C306 1.397 . S
C307 C308 1.380 1_554 S
C308 H293 0.930 . S
C308 C303 1.390 . S
C308 C307 1.380 1_556 S
H309 C321 0.930 . S
H310 C323 0.930 . S
H311 C324 0.930 . S
H312 C328 0.959 . S
H313 C328 0.959 . S
H314 C328 0.961 . S
H315 C329 0.960 . S
H316 C329 0.961 . S
H317 C329 0.959 . S
H318 C332 0.929 . S
H319 C333 0.931 . S
H320 C335 0.930 . S
C321 H309 0.930 . S
C321 C322 1.399 1_556 S
C321 C326 1.399 . S
C322 C321 1.399 1_554 S
C322 C323 1.376 . S
C323 H310 0.930 . S
C323 C322 1.376 . S
C323 C324 1.388 . S
C324 H311 0.930 . S
C324 C323 1.388 . S
C324 C325 1.390 . S
C325 C324 1.390 . S
C325 C326 1.394 1_554 S
C325 C331 1.465 . S
C326 C321 1.399 . S
C326 C325 1.394 1_556 S
C326 C327 1.516 . S
C327 C326 1.516 . S
C327 C328 1.502 . S
C327 C329 1.561 . S
C327 C330 1.526 . S
C328 H312 0.959 . S
C328 H313 0.959 . S
C328 H314 0.961 . S
C328 C327 1.502 . S
C329 H315 0.960 . S
C329 H316 0.961 . S
C329 H317 0.959 . S
C329 C327 1.561 . S
C330 C327 1.526 . S
C330 C331 1.396 1_556 S
C330 C335 1.390 . S
C331 C325 1.465 . S
C331 C330 1.396 1_554 S
C331 C332 1.399 . S
C332 H318 0.929 . S
C332 C331 1.399 . S
C332 C333 1.385 . S
C333 H319 0.931 . S
C333 C332 1.385 . S
C333 C334 1.389 . S
C334 C333 1.389 . S
C334 C335 1.387 1_554 S
C335 H320 0.930 . S
C335 C330 1.390 . S
C335 C334 1.387 1_556 S
H336 C348 0.930 . S
H337 C350 0.930 . S
H338 C351 0.930 . S
H339 C355 0.959 . S
H340 C355 0.959 . S
H341 C355 0.961 . S
H342 C356 0.960 . S
H343 C356 0.961 . S
H344 C356 0.959 . S
H345 C359 0.929 . S
H346 C360 0.931 . S
H347 C362 0.930 . S
C348 H336 0.930 . S
C348 C349 1.399 . S
C348 C353 1.399 . S
C349 C348 1.399 . S
C349 C350 1.376 . S
C350 H337 0.930 . S
C350 C349 1.376 . S
C350 C351 1.388 . S
C351 H338 0.930 . S
C351 C350 1.388 . S
C351 C352 1.390 . S
C352 C351 1.390 . S
C352 C353 1.394 . S
C352 C358 1.465 . S
C353 C348 1.399 . S
C353 C352 1.394 . S
C353 C354 1.516 . S
C354 C353 1.516 . S
C354 C355 1.502 . S
C354 C356 1.561 . S
C354 C357 1.526 . S
C355 H339 0.959 . S
C355 H340 0.959 . S
C355 H341 0.961 . S
C355 C354 1.502 . S
C356 H342 0.960 . S
C356 H343 0.961 . S
C356 H344 0.959 . S
C356 C354 1.561 . S
C357 C354 1.526 . S
C357 C358 1.396 . S
C357 C362 1.390 . S
C358 C352 1.465 . S
C358 C357 1.396 . S
C358 C359 1.399 . S
C359 H345 0.929 . S
C359 C358 1.399 . S
C359 C360 1.385 . S
C360 H346 0.931 . S
C360 C359 1.385 . S
C360 C361 1.389 . S
C361 C360 1.389 . S
C361 C362 1.387 . S
C362 H347 0.930 . S
C362 C357 1.390 . S
C362 C361 1.387 . S
H363 C375 0.930 . S
H364 C377 0.930 . S
H365 C378 0.930 . S
H366 C382 0.959 . S
H367 C382 0.959 . S
H368 C382 0.961 . S
H369 C383 0.960 . S
H370 C383 0.961 . S
H371 C383 0.959 . S
H372 C386 0.929 . S
H373 C387 0.931 . S
H374 C389 0.930 . S
C375 H363 0.930 . S
C375 C376 1.399 . S
C375 C380 1.399 . S
C376 C375 1.399 . S
C376 C377 1.376 . S
C377 H364 0.930 . S
C377 C376 1.376 . S
C377 C378 1.388 . S
C378 H365 0.930 . S
C378 C377 1.388 . S
C378 C379 1.390 . S
C379 C378 1.390 . S
C379 C380 1.394 . S
C379 C385 1.465 . S
C380 C375 1.399 . S
C380 C379 1.394 . S
C380 C381 1.516 . S
C381 C380 1.516 . S
C381 C382 1.502 . S
C381 C383 1.561 . S
C381 C384 1.526 . S
C382 H366 0.959 . S
C382 H367 0.959 . S
C382 H368 0.961 . S
C382 C381 1.502 . S
C383 H369 0.960 . S
C383 H370 0.961 . S
C383 H371 0.959 . S
C383 C381 1.561 . S
C384 C381 1.526 . S
C384 C385 1.396 . S
C384 C389 1.390 . S
C385 C379 1.465 . S
C385 C384 1.396 . S
C385 C386 1.399 . S
C386 H372 0.929 . S
C386 C385 1.399 . S
C386 C387 1.385 . S
C387 H373 0.931 . S
C387 C386 1.385 . S
C387 C388 1.389 . S
C388 C387 1.389 . S
C388 C389 1.387 . S
C389 H374 0.930 . S
C389 C384 1.390 . S
C389 C388 1.387 . S
H390 C402 0.930 . S
H391 C404 0.930 . S
H392 C405 0.930 . S
H393 C409 0.959 . S
H394 C409 0.959 . S
H395 C409 0.961 . S
H396 C410 0.960 . S
H397 C410 0.961 . S
H398 C410 0.959 . S
H399 C413 0.929 . S
H400 C414 0.931 . S
H401 C416 0.930 . S
C402 H390 0.930 . S
C402 C403 1.399 . S
C402 C407 1.399 . S
C403 C402 1.399 . S
C403 C404 1.376 . S
C404 H391 0.930 . S
C404 C403 1.376 . S
C404 C405 1.388 . S
C405 H392 0.930 . S
C405 C404 1.388 . S
C405 C406 1.390 . S
C406 C405 1.390 . S
C406 C407 1.394 . S
C406 C412 1.465 . S
C407 C402 1.399 . S
C407 C406 1.394 . S
C407 C408 1.516 . S
C408 C407 1.516 . S
C408 C409 1.502 . S
C408 C410 1.561 . S
C408 C411 1.526 . S
C409 H393 0.959 . S
C409 H394 0.959 . S
C409 H395 0.961 . S
C409 C408 1.502 . S
C410 H396 0.960 . S
C410 H397 0.961 . S
C410 H398 0.959 . S
C410 C408 1.561 . S
C411 C408 1.526 . S
C411 C412 1.396 . S
C411 C416 1.390 . S
C412 C406 1.465 . S
C412 C411 1.396 . S
C412 C413 1.399 . S
C413 H399 0.929 . S
C413 C412 1.399 . S
C413 C414 1.385 . S
C414 H400 0.931 . S
C414 C413 1.385 . S
C414 C415 1.389 . S
C415 C414 1.389 . S
C415 C416 1.387 . S
C416 H401 0.930 . S
C416 C411 1.390 . S
C416 C415 1.387 . S
H417 C429 0.930 . S
H418 C431 0.930 . S
H419 C432 0.930 . S
H420 C436 0.959 . S
H421 C436 0.959 . S
H422 C436 0.961 . S
H423 C437 0.960 . S
H424 C437 0.961 . S
H425 C437 0.959 . S
H426 C440 0.929 . S
H427 C441 0.931 . S
H428 C443 0.930 . S
C429 H417 0.930 . S
C429 C430 1.399 . S
C429 C434 1.399 . S
C430 C429 1.399 . S
C430 C431 1.376 . S
C431 H418 0.930 . S
C431 C430 1.376 . S
C431 C432 1.388 . S
C432 H419 0.930 . S
C432 C431 1.388 . S
C432 C433 1.390 . S
C433 C432 1.390 . S
C433 C434 1.394 . S
C433 C439 1.465 . S
C434 C429 1.399 . S
C434 C433 1.394 . S
C434 C435 1.516 . S
C435 C434 1.516 . S
C435 C436 1.502 . S
C435 C437 1.561 . S
C435 C438 1.526 . S
C436 H420 0.959 . S
C436 H421 0.959 . S
C436 H422 0.961 . S
C436 C435 1.502 . S
C437 H423 0.960 . S
C437 H424 0.961 . S
C437 H425 0.959 . S
C437 C435 1.561 . S
C438 C435 1.526 . S
C438 C439 1.396 . S
C438 C443 1.390 . S
C439 C433 1.465 . S
C439 C438 1.396 . S
C439 C440 1.399 . S
C440 H426 0.929 . S
C440 C439 1.399 . S
C440 C441 1.385 . S
C441 H427 0.931 . S
C441 C440 1.385 . S
C441 C442 1.389 . S
C442 C441 1.389 . S
C442 C443 1.387 . S
C443 H428 0.930 . S
C443 C438 1.390 . S
C443 C442 1.387 . S
H444 C456 0.930 . S
H445 C458 0.930 . S
H446 C459 0.930 . S
H447 C463 0.959 . S
H448 C463 0.959 . S
H449 C463 0.961 . S
H450 C464 0.960 . S
H451 C464 0.961 . S
H452 C464 0.959 . S
H453 C467 0.929 . S
H454 C468 0.931 . S
H455 C470 0.930 . S
C456 H444 0.930 . S
C456 C457 1.399 1_665 S
C456 C461 1.399 . S
C457 C456 1.399 1_445 S
C457 C458 1.376 . S
C458 H445 0.930 . S
C458 C457 1.376 . S
C458 C459 1.388 . S
C459 H446 0.930 . S
C459 C458 1.388 . S
C459 C460 1.390 . S
C460 C459 1.390 . S
C460 C461 1.394 1_445 S
C460 C466 1.465 . S
C461 C456 1.399 . S
C461 C460 1.394 1_665 S
C461 C462 1.516 . S
C462 C461 1.516 . S
C462 C463 1.502 . S
C462 C464 1.561 1_655 S
C462 C465 1.526 . S
C463 H447 0.959 . S
C463 H448 0.959 . S
C463 H449 0.961 . S
C463 C462 1.502 . S
C464 H450 0.960 . S
C464 H451 0.961 . S
C464 H452 0.959 . S
C464 C462 1.561 1_455 S
C465 C462 1.526 . S
C465 C466 1.396 1_665 S
C465 C470 1.390 . S
C466 C460 1.465 . S
C466 C465 1.396 1_445 S
C466 C467 1.399 . S
C467 H453 0.929 . S
C467 C466 1.399 . S
C467 C468 1.385 . S
C468 H454 0.931 . S
C468 C467 1.385 . S
C468 C469 1.389 . S
C469 C468 1.389 . S
C469 C470 1.387 1_445 S
C470 H455 0.930 . S
C470 C465 1.390 . S
C470 C469 1.387 1_665 S
H471 C483 0.930 1_655 S
H472 C485 0.930 . S
H473 C486 0.930 . S
H474 C490 0.959 . S
H475 C490 0.959 . S
H476 C490 0.961 . S
H477 C491 0.960 . S
H478 C491 0.961 . S
H479 C491 0.959 . S
H480 C494 0.929 . S
H481 C495 0.931 . S
H482 C497 0.934 . S
C483 H471 0.930 1_455 S
C483 C484 1.399 . S
C483 C488 1.399 . S
C484 C483 1.399 . S
C484 C485 1.376 1_545 S
C485 H472 0.930 . S
C485 C484 1.376 1_565 S
C485 C486 1.388 . S
C486 H473 0.930 . S
C486 C485 1.388 . S
C486 C487 1.390 . S
C487 C486 1.390 . S
C487 C488 1.394 1_565 S
C487 C493 1.465 . S
C488 C483 1.399 . S
C488 C487 1.394 1_545 S
C488 C489 1.516 . S
C489 C488 1.516 . S
C489 C490 1.502 1_455 S
C489 C491 1.561 . S
C489 C492 1.526 . S
C490 H474 0.959 . S
C490 H475 0.959 . S
C490 H476 0.961 . S
C490 C489 1.502 1_655 S
C491 H477 0.960 . S
C491 H478 0.961 . S
C491 H479 0.959 . S
C491 C489 1.561 . S
C492 C489 1.526 . S
C492 C493 1.396 1_545 S
C492 C497 1.390 . S
C493 C487 1.465 . S
C493 C492 1.396 1_565 S
C493 C494 1.399 . S
C494 H480 0.929 . S
C494 C493 1.399 . S
C494 C495 1.385 . S
C495 H481 0.931 . S
C495 C494 1.385 . S
C495 C496 1.389 1_565 S
C496 C495 1.389 1_545 S
C496 C497 1.387 . S
C497 H482 0.934 . S
C497 C492 1.390 . S
C497 C496 1.387 . S
H498 C510 0.930 . S
H499 C512 0.930 . S
H500 C513 0.930 . S
H501 C517 0.959 . S
H502 C517 0.959 . S
H503 C517 0.961 . S
H504 C518 0.960 . S
H505 C518 0.961 . S
H506 C518 0.959 . S
H507 C521 0.929 . S
H508 C522 0.931 . S
H509 C524 0.930 . S
C510 H498 0.930 . S
C510 C511 1.399 . S
C510 C515 1.399 . S
C511 C510 1.399 . S
C511 C512 1.376 . S
C512 H499 0.930 . S
C512 C511 1.376 . S
C512 C513 1.388 . S
C513 H500 0.930 . S
C513 C512 1.388 . S
C513 C514 1.390 . S
C514 C513 1.390 . S
C514 C515 1.394 . S
C514 C520 1.465 . S
C515 C510 1.399 . S
C515 C514 1.394 . S
C515 C516 1.516 . S
C516 C515 1.516 . S
C516 C517 1.502 . S
C516 C518 1.561 . S
C516 C519 1.526 . S
C517 H501 0.959 . S
C517 H502 0.959 . S
C517 H503 0.961 . S
C517 C516 1.502 . S
C518 H504 0.960 . S
C518 H505 0.961 . S
C518 H506 0.959 . S
C518 C516 1.561 . S
C519 C516 1.526 . S
C519 C520 1.396 . S
C519 C524 1.390 . S
C520 C514 1.465 . S
C520 C519 1.396 . S
C520 C521 1.399 . S
C521 H507 0.929 . S
C521 C520 1.399 . S
C521 C522 1.385 . S
C522 H508 0.931 . S
C522 C521 1.385 . S
C522 C523 1.389 . S
C523 C522 1.389 . S
C523 C524 1.387 . S
C524 H509 0.930 . S
C524 C519 1.390 . S
C524 C523 1.387 . S
H525 C537 0.930 . S
H526 C539 0.930 . S
H527 C540 0.930 . S
H528 C544 0.959 . S
H529 C544 0.959 . S
H530 C544 0.961 . S
H531 C545 0.960 . S
H532 C545 0.961 . S
H533 C545 0.959 . S
H534 C548 0.929 . S
H535 C549 0.931 . S
H536 C551 0.930 . S
C537 H525 0.930 . S
C537 C538 1.399 . S
C537 C542 1.399 . S
C538 C537 1.399 . S
C538 C539 1.376 . S
C539 H526 0.930 . S
C539 C538 1.376 . S
C539 C540 1.388 . S
C540 H527 0.930 . S
C540 C539 1.388 . S
C540 C541 1.390 . S
C541 C540 1.390 . S
C541 C542 1.394 . S
C541 C547 1.465 . S
C542 C537 1.399 . S
C542 C541 1.394 . S
C542 C543 1.516 . S
C543 C542 1.516 . S
C543 C544 1.502 . S
C543 C545 1.561 . S
C543 C546 1.526 . S
C544 H528 0.959 . S
C544 H529 0.959 . S
C544 H530 0.961 . S
C544 C543 1.502 . S
C545 H531 0.960 . S
C545 H532 0.961 . S
C545 H533 0.959 . S
C545 C543 1.561 . S
C546 C543 1.526 . S
C546 C547 1.396 . S
C546 C551 1.390 . S
C547 C541 1.465 . S
C547 C546 1.396 . S
C547 C548 1.399 . S
C548 H534 0.929 . S
C548 C547 1.399 . S
C548 C549 1.385 . S
C549 H535 0.931 . S
C549 C548 1.385 . S
C549 C550 1.389 . S
C550 C549 1.389 . S
C550 C551 1.387 . S
C551 H536 0.930 . S
C551 C546 1.390 . S
C551 C550 1.387 . S
C253 C190 1.509 1_556 S
C241 C29 1.562 . S
C268 C8 1.539 . S
C280 C150 1.469 . S
C295 C0 1.527 . S
C307 C203 1.458 . S
C322 C17 1.547 . S
C334 C163 1.534 . S
C349 C63 1.562 . S
C361 C110 1.525 . S
C376 C42 1.525 . S
C388 C70 1.497 . S
C415 C123 1.507 . S
C403 C34 1.524 . S
C442 C83 1.504 . S
C430 C51 1.543 . S
C457 C4 1.472 . S
C469 C89 1.448 . S
C484 C13 1.475 . S
C496 C129 1.450 . S
C523 C169 1.450 . S
C511 C38 1.472 . S
C538 C47 1.475 . S
C550 C209 1.450 . S
