# Generated by pormake.
# Topology gar, (4,6)-cn, num edge types: 1
# Building blocks:
#     Node 0, Type 0, BuildingBlock: GALJAG_clean_sbu_0, # of connection points: 4
#     Node 1, Type 0, BuildingBlock: GALJAG_clean_sbu_0, # of connection points: 4
#     Node 2, Type 0, BuildingBlock: GALJAG_clean_sbu_0, # of connection points: 4
#     Node 3, Type 0, BuildingBlock: GALJAG_clean_sbu_0, # of connection points: 4
#     Node 4, Type 0, BuildingBlock: GALJAG_clean_sbu_0, # of connection points: 4
#     Node 5, Type 0, BuildingBlock: GALJAG_clean_sbu_0, # of connection points: 4
#     Node 6, Type 0, BuildingBlock: GALJAG_clean_sbu_0, # of connection points: 4
#     Node 7, Type 0, BuildingBlock: GALJAG_clean_sbu_0, # of connection points: 4
#     Node 8, Type 0, BuildingBlock: GALJAG_clean_sbu_0, # of connection points: 4
#     Node 9, Type 0, BuildingBlock: GALJAG_clean_sbu_0, # of connection points: 4
#     Node 10, Type 0, BuildingBlock: GALJAG_clean_sbu_0, # of connection points: 4
#     Node 11, Type 0, BuildingBlock: GALJAG_clean_sbu_0, # of connection points: 4
#     Node 12, Type 0, BuildingBlock: GALJAG_clean_sbu_0, # of connection points: 4
#     Node 13, Type 0, BuildingBlock: GALJAG_clean_sbu_0, # of connection points: 4
#     Node 14, Type 0, BuildingBlock: GALJAG_clean_sbu_0, # of connection points: 4
#     Node 15, Type 0, BuildingBlock: GALJAG_clean_sbu_0, # of connection points: 4
#     Node 16, Type 0, BuildingBlock: GALJAG_clean_sbu_0, # of connection points: 4
#     Node 17, Type 0, BuildingBlock: GALJAG_clean_sbu_0, # of connection points: 4
#     Node 18, Type 0, BuildingBlock: GALJAG_clean_sbu_0, # of connection points: 4
#     Node 19, Type 0, BuildingBlock: GALJAG_clean_sbu_0, # of connection points: 4
#     Node 20, Type 0, BuildingBlock: GALJAG_clean_sbu_0, # of connection points: 4
#     Node 21, Type 0, BuildingBlock: GALJAG_clean_sbu_0, # of connection points: 4
#     Node 22, Type 0, BuildingBlock: GALJAG_clean_sbu_0, # of connection points: 4
#     Node 23, Type 0, BuildingBlock: GALJAG_clean_sbu_0, # of connection points: 4
#     Node 24, Type 1, BuildingBlock: KUMJIN_clean_sbu_1, # of connection points: 6
#     Node 25, Type 1, BuildingBlock: KUMJIN_clean_sbu_1, # of connection points: 6
#     Node 26, Type 1, BuildingBlock: KUMJIN_clean_sbu_1, # of connection points: 6
#     Node 27, Type 1, BuildingBlock: KUMJIN_clean_sbu_1, # of connection points: 6
#     Node 28, Type 1, BuildingBlock: KUMJIN_clean_sbu_1, # of connection points: 6
#     Node 29, Type 1, BuildingBlock: KUMJIN_clean_sbu_1, # of connection points: 6
#     Node 30, Type 1, BuildingBlock: KUMJIN_clean_sbu_1, # of connection points: 6
#     Node 31, Type 1, BuildingBlock: KUMJIN_clean_sbu_1, # of connection points: 6
#     Node 32, Type 1, BuildingBlock: KUMJIN_clean_sbu_1, # of connection points: 6
#     Node 33, Type 1, BuildingBlock: KUMJIN_clean_sbu_1, # of connection points: 6
#     Node 34, Type 1, BuildingBlock: KUMJIN_clean_sbu_1, # of connection points: 6
#     Node 35, Type 1, BuildingBlock: KUMJIN_clean_sbu_1, # of connection points: 6
#     Node 36, Type 1, BuildingBlock: KUMJIN_clean_sbu_1, # of connection points: 6
#     Node 37, Type 1, BuildingBlock: KUMJIN_clean_sbu_1, # of connection points: 6
#     Node 38, Type 1, BuildingBlock: KUMJIN_clean_sbu_1, # of connection points: 6
#     Node 39, Type 1, BuildingBlock: KUMJIN_clean_sbu_1, # of connection points: 6
#     Edge 40, Type (0, 1), BuildingBlock: EZIPEK_clean_linker_0, # of connection points: 2
#     Edge 41, Type (0, 1), BuildingBlock: EZIPEK_clean_linker_0, # of connection points: 2
#     Edge 42, Type (0, 1), BuildingBlock: EZIPEK_clean_linker_0, # of connection points: 2
#     Edge 43, Type (0, 1), BuildingBlock: EZIPEK_clean_linker_0, # of connection points: 2
#     Edge 44, Type (0, 1), BuildingBlock: EZIPEK_clean_linker_0, # of connection points: 2
#     Edge 45, Type (0, 1), BuildingBlock: EZIPEK_clean_linker_0, # of connection points: 2
#     Edge 46, Type (0, 1), BuildingBlock: EZIPEK_clean_linker_0, # of connection points: 2
#     Edge 47, Type (0, 1), BuildingBlock: EZIPEK_clean_linker_0, # of connection points: 2
#     Edge 48, Type (0, 1), BuildingBlock: EZIPEK_clean_linker_0, # of connection points: 2
#     Edge 49, Type (0, 1), BuildingBlock: EZIPEK_clean_linker_0, # of connection points: 2
#     Edge 50, Type (0, 1), BuildingBlock: EZIPEK_clean_linker_0, # of connection points: 2
#     Edge 51, Type (0, 1), BuildingBlock: EZIPEK_clean_linker_0, # of connection points: 2
#     Edge 52, Type (0, 1), BuildingBlock: EZIPEK_clean_linker_0, # of connection points: 2
#     Edge 53, Type (0, 1), BuildingBlock: EZIPEK_clean_linker_0, # of connection points: 2
#     Edge 54, Type (0, 1), BuildingBlock: EZIPEK_clean_linker_0, # of connection points: 2
#     Edge 55, Type (0, 1), BuildingBlock: EZIPEK_clean_linker_0, # of connection points: 2
#     Edge 56, Type (0, 1), BuildingBlock: EZIPEK_clean_linker_0, # of connection points: 2
#     Edge 57, Type (0, 1), BuildingBlock: EZIPEK_clean_linker_0, # of connection points: 2
#     Edge 58, Type (0, 1), BuildingBlock: EZIPEK_clean_linker_0, # of connection points: 2
#     Edge 59, Type (0, 1), BuildingBlock: EZIPEK_clean_linker_0, # of connection points: 2
#     Edge 60, Type (0, 1), BuildingBlock: EZIPEK_clean_linker_0, # of connection points: 2
#     Edge 61, Type (0, 1), BuildingBlock: EZIPEK_clean_linker_0, # of connection points: 2
#     Edge 62, Type (0, 1), BuildingBlock: EZIPEK_clean_linker_0, # of connection points: 2
#     Edge 63, Type (0, 1), BuildingBlock: EZIPEK_clean_linker_0, # of connection points: 2
#     Edge 64, Type (0, 1), BuildingBlock: EZIPEK_clean_linker_0, # of connection points: 2
#     Edge 65, Type (0, 1), BuildingBlock: EZIPEK_clean_linker_0, # of connection points: 2
#     Edge 66, Type (0, 1), BuildingBlock: EZIPEK_clean_linker_0, # of connection points: 2
#     Edge 67, Type (0, 1), BuildingBlock: EZIPEK_clean_linker_0, # of connection points: 2
#     Edge 68, Type (0, 1), BuildingBlock: EZIPEK_clean_linker_0, # of connection points: 2
#     Edge 69, Type (0, 1), BuildingBlock: EZIPEK_clean_linker_0, # of connection points: 2
#     Edge 70, Type (0, 1), BuildingBlock: EZIPEK_clean_linker_0, # of connection points: 2
#     Edge 71, Type (0, 1), BuildingBlock: EZIPEK_clean_linker_0, # of connection points: 2
#     Edge 72, Type (0, 1), BuildingBlock: EZIPEK_clean_linker_0, # of connection points: 2
#     Edge 73, Type (0, 1), BuildingBlock: EZIPEK_clean_linker_0, # of connection points: 2
#     Edge 74, Type (0, 1), BuildingBlock: EZIPEK_clean_linker_0, # of connection points: 2
#     Edge 75, Type (0, 1), BuildingBlock: EZIPEK_clean_linker_0, # of connection points: 2
#     Edge 76, Type (0, 1), BuildingBlock: EZIPEK_clean_linker_0, # of connection points: 2
#     Edge 77, Type (0, 1), BuildingBlock: EZIPEK_clean_linker_0, # of connection points: 2
#     Edge 78, Type (0, 1), BuildingBlock: EZIPEK_clean_linker_0, # of connection points: 2
#     Edge 79, Type (0, 1), BuildingBlock: EZIPEK_clean_linker_0, # of connection points: 2
#     Edge 80, Type (0, 1), BuildingBlock: EZIPEK_clean_linker_0, # of connection points: 2
#     Edge 81, Type (0, 1), BuildingBlock: EZIPEK_clean_linker_0, # of connection points: 2
#     Edge 82, Type (0, 1), BuildingBlock: EZIPEK_clean_linker_0, # of connection points: 2
#     Edge 83, Type (0, 1), BuildingBlock: EZIPEK_clean_linker_0, # of connection points: 2
#     Edge 84, Type (0, 1), BuildingBlock: EZIPEK_clean_linker_0, # of connection points: 2
#     Edge 85, Type (0, 1), BuildingBlock: EZIPEK_clean_linker_0, # of connection points: 2
#     Edge 86, Type (0, 1), BuildingBlock: EZIPEK_clean_linker_0, # of connection points: 2
#     Edge 87, Type (0, 1), BuildingBlock: EZIPEK_clean_linker_0, # of connection points: 2
#     Edge 88, Type (0, 1), BuildingBlock: EZIPEK_clean_linker_0, # of connection points: 2
#     Edge 89, Type (0, 1), BuildingBlock: EZIPEK_clean_linker_0, # of connection points: 2
#     Edge 90, Type (0, 1), BuildingBlock: EZIPEK_clean_linker_0, # of connection points: 2
#     Edge 91, Type (0, 1), BuildingBlock: EZIPEK_clean_linker_0, # of connection points: 2
#     Edge 92, Type (0, 1), BuildingBlock: EZIPEK_clean_linker_0, # of connection points: 2
#     Edge 93, Type (0, 1), BuildingBlock: EZIPEK_clean_linker_0, # of connection points: 2
#     Edge 94, Type (0, 1), BuildingBlock: EZIPEK_clean_linker_0, # of connection points: 2
#     Edge 95, Type (0, 1), BuildingBlock: EZIPEK_clean_linker_0, # of connection points: 2
#     Edge 96, Type (0, 1), BuildingBlock: EZIPEK_clean_linker_0, # of connection points: 2
#     Edge 97, Type (0, 1), BuildingBlock: EZIPEK_clean_linker_0, # of connection points: 2
#     Edge 98, Type (0, 1), BuildingBlock: EZIPEK_clean_linker_0, # of connection points: 2
#     Edge 99, Type (0, 1), BuildingBlock: EZIPEK_clean_linker_0, # of connection points: 2
#     Edge 100, Type (0, 1), BuildingBlock: EZIPEK_clean_linker_0, # of connection points: 2
#     Edge 101, Type (0, 1), BuildingBlock: EZIPEK_clean_linker_0, # of connection points: 2
#     Edge 102, Type (0, 1), BuildingBlock: EZIPEK_clean_linker_0, # of connection points: 2
#     Edge 103, Type (0, 1), BuildingBlock: EZIPEK_clean_linker_0, # of connection points: 2
#     Edge 104, Type (0, 1), BuildingBlock: EZIPEK_clean_linker_0, # of connection points: 2
#     Edge 105, Type (0, 1), BuildingBlock: EZIPEK_clean_linker_0, # of connection points: 2
#     Edge 106, Type (0, 1), BuildingBlock: EZIPEK_clean_linker_0, # of connection points: 2
#     Edge 107, Type (0, 1), BuildingBlock: EZIPEK_clean_linker_0, # of connection points: 2
#     Edge 108, Type (0, 1), BuildingBlock: EZIPEK_clean_linker_0, # of connection points: 2
#     Edge 109, Type (0, 1), BuildingBlock: EZIPEK_clean_linker_0, # of connection points: 2
#     Edge 110, Type (0, 1), BuildingBlock: EZIPEK_clean_linker_0, # of connection points: 2
#     Edge 111, Type (0, 1), BuildingBlock: EZIPEK_clean_linker_0, # of connection points: 2
#     Edge 112, Type (0, 1), BuildingBlock: EZIPEK_clean_linker_0, # of connection points: 2
#     Edge 113, Type (0, 1), BuildingBlock: EZIPEK_clean_linker_0, # of connection points: 2
#     Edge 114, Type (0, 1), BuildingBlock: EZIPEK_clean_linker_0, # of connection points: 2
#     Edge 115, Type (0, 1), BuildingBlock: EZIPEK_clean_linker_0, # of connection points: 2
#     Edge 116, Type (0, 1), BuildingBlock: EZIPEK_clean_linker_0, # of connection points: 2
#     Edge 117, Type (0, 1), BuildingBlock: EZIPEK_clean_linker_0, # of connection points: 2
#     Edge 118, Type (0, 1), BuildingBlock: EZIPEK_clean_linker_0, # of connection points: 2
#     Edge 119, Type (0, 1), BuildingBlock: EZIPEK_clean_linker_0, # of connection points: 2
#     Edge 120, Type (0, 1), BuildingBlock: EZIPEK_clean_linker_0, # of connection points: 2
#     Edge 121, Type (0, 1), BuildingBlock: EZIPEK_clean_linker_0, # of connection points: 2
#     Edge 122, Type (0, 1), BuildingBlock: EZIPEK_clean_linker_0, # of connection points: 2
#     Edge 123, Type (0, 1), BuildingBlock: EZIPEK_clean_linker_0, # of connection points: 2
#     Edge 124, Type (0, 1), BuildingBlock: EZIPEK_clean_linker_0, # of connection points: 2
#     Edge 125, Type (0, 1), BuildingBlock: EZIPEK_clean_linker_0, # of connection points: 2
#     Edge 126, Type (0, 1), BuildingBlock: EZIPEK_clean_linker_0, # of connection points: 2
#     Edge 127, Type (0, 1), BuildingBlock: EZIPEK_clean_linker_0, # of connection points: 2
#     Edge 128, Type (0, 1), BuildingBlock: EZIPEK_clean_linker_0, # of connection points: 2
#     Edge 129, Type (0, 1), BuildingBlock: EZIPEK_clean_linker_0, # of connection points: 2
#     Edge 130, Type (0, 1), BuildingBlock: EZIPEK_clean_linker_0, # of connection points: 2
#     Edge 131, Type (0, 1), BuildingBlock: EZIPEK_clean_linker_0, # of connection points: 2
#     Edge 132, Type (0, 1), BuildingBlock: EZIPEK_clean_linker_0, # of connection points: 2
#     Edge 133, Type (0, 1), BuildingBlock: EZIPEK_clean_linker_0, # of connection points: 2
#     Edge 134, Type (0, 1), BuildingBlock: EZIPEK_clean_linker_0, # of connection points: 2
#     Edge 135, Type (0, 1), BuildingBlock: EZIPEK_clean_linker_0, # of connection points: 2
# Relax obj value: 0.109
# Max RMSD: 0.190
# Mean RMSD: 0.134
data_MOF--net-gar--node1-GALJAG_clean_sbu_0--node2-KUMJIN_clean_sbu_1--edge1-EZIPEK_clean_linker_0
_symmetry_space_group_name_H-M    P1
_symmetry_Int_Tables_number       1
_symmetry_cell_setting            triclinic
loop_
_symmetry_equiv_pos_as_xyz
'x, y, z'
_cell_length_a     45.702134
_cell_length_b     45.730381
_cell_length_c     42.019125
_cell_angle_alpha  97.190341
_cell_angle_beta   97.233077
_cell_angle_gamma 102.28527
loop_
_atom_site_label
_atom_site_type_symbol
_atom_site_fract_x
_atom_site_fract_y
_atom_site_fract_z
_atom_type_partial_charge
In0 In 0.07071 0.34094 0.36783 0.0
O1 O 0.1028 0.33336 0.32562 0.0
O2 O 0.12458 0.34322 0.37333 0.0
C3 C 1.00691 0.32945 0.34044 0.0
C4 C 0.071 0.29213 0.3986 0.0
C5 C 0.07447 0.39593 0.40827 0.0
O6 O 0.02801 0.34687 0.3299 0.0
O7 O 0.01801 0.31683 0.36253 0.0
O8 O 0.06966 0.3703 0.41735 0.0
O9 O 0.07879 0.39431 0.37892 0.0
C10 C 0.12801 0.33627 0.34415 0.0
O11 O 0.07694 0.31904 0.4134 0.0
O12 O 0.06276 0.29002 0.36832 0.0
In13 In 0.04073 0.76434 0.71272 0.0
O14 O 0.03899 0.78552 0.66633 0.0
O15 O 0.05399 0.81536 0.71155 0.0
C16 C 0.035 0.70928 0.67029 0.0
C17 C 0.10437 0.77553 0.74165 0.0
C18 C 0.98461 0.77144 0.73872 0.0
O19 O 0.03428 0.73437 0.66121 0.0
O20 O 0.03663 0.71107 0.70083 0.0
O21 O 1.00697 0.76427 0.75471 0.0
O22 O 0.99028 0.77437 0.71049 0.0
C23 C 0.04903 0.81247 0.68081 0.0
O24 O 0.08269 0.7591 0.75231 0.0
O25 O 0.09391 0.78732 0.71855 0.0
In26 In 0.57008 0.84326 0.86777 0.0
O27 O 0.60287 0.83601 0.82634 0.0
O28 O 0.62364 0.84323 0.87434 0.0
C29 C 0.50692 0.8336 0.83955 0.0
C30 C 0.56217 0.79313 0.89724 0.0
C31 C 0.57397 0.89876 0.90713 0.0
O32 O 0.52859 0.84988 0.82871 0.0
O33 O 0.51713 0.82112 0.86217 0.0
O34 O 0.57334 0.87402 0.91768 0.0
O35 O 0.57482 0.89638 0.87691 0.0
C36 C 0.62754 0.83733 0.84511 0.0
O37 O 0.56751 0.81976 0.91277 0.0
O38 O 0.56189 0.79191 0.86692 0.0
In39 In 0.54144 0.26279 0.21365 0.0
O40 O 0.535 0.23282 0.1628 0.0
O41 O 0.53538 0.20945 0.2027 0.0
C42 C 0.55158 0.31365 0.18644 0.0
C43 C 0.48441 0.26858 0.23834 0.0
C44 C 0.6058 0.27292 0.23814 0.0
O45 O 0.53872 0.28795 0.17016 0.0
O46 O 0.5579 0.31404 0.21673 0.0
O47 O 0.58547 0.27121 0.25661 0.0
O48 O 0.59355 0.26897 0.20887 0.0
C49 C 0.53484 0.20766 0.17222 0.0
O50 O 0.50532 0.25844 0.25337 0.0
O51 O 0.49207 0.27515 0.2117 0.0
In52 In 0.09603 0.81991 0.12781 0.0
O53 O 0.09792 0.77698 0.08737 0.0
O54 O 0.07856 0.767 0.1282 0.0
C55 C 0.09082 0.87725 0.10401 0.0
C56 C 0.04569 0.81262 0.15614 0.0
C57 C 0.15038 0.82525 0.16984 0.0
O58 O 0.08818 0.85202 0.0857 0.0
O59 O 0.09778 0.87383 0.13325 0.0
O60 O 0.12551 0.82717 0.17896 0.0
O61 O 0.14891 0.82314 0.13922 0.0
C62 C 0.08607 0.75589 0.10233 0.0
O63 O 0.07218 0.8189 0.172 0.0
O64 O 0.04451 0.81125 0.12573 0.0
In65 In 0.51365 0.78963 0.47303 0.0
O66 O 0.5356 0.78608 0.42727 0.0
O67 O 0.56463 0.80538 0.47213 0.0
C68 C 0.45697 0.786 0.43554 0.0
C69 C 0.52154 0.73158 0.49442 0.0
C70 C 0.52424 0.85358 0.49999 0.0
O71 O 0.48124 0.78599 0.42425 0.0
O72 O 0.46014 0.78515 0.46586 0.0
O73 O 0.52255 0.83253 0.51756 0.0
O74 O 0.52089 0.84212 0.47053 0.0
C75 C 0.5622 0.79823 0.44165 0.0
O76 O 0.51561 0.75355 0.51256 0.0
O77 O 0.52243 0.73872 0.46634 0.0
In78 In 0.59636 0.32113 0.62896 0.0
O79 O 0.60233 0.27751 0.59188 0.0
O80 O 0.57421 0.26839 0.62622 0.0
C81 C 0.59178 0.37786 0.60395 0.0
C82 C 0.54589 0.31444 0.65721 0.0
C83 C 0.65052 0.32799 0.67176 0.0
O84 O 0.59161 0.35307 0.58603 0.0
O85 O 0.59563 0.37429 0.63344 0.0
O86 O 0.62546 0.3296 0.68056 0.0
O87 O 0.64917 0.32482 0.64117 0.0
C88 C 0.58615 0.25664 0.60398 0.0
O89 O 0.57233 0.31975 0.67316 0.0
O90 O 0.54489 0.31351 0.62683 0.0
In91 In 1.01582 0.29076 0.97746 0.0
O92 O 0.02264 0.25758 0.01893 0.0
O93 O 0.01741 0.23748 0.97097 0.0
C94 C 0.02607 0.35386 0.00616 0.0
C95 C 0.066 0.298 0.94805 0.0
C96 C 0.95961 0.28763 0.93846 0.0
O97 O 1.01229 0.33196 0.01884 0.0
O98 O 0.03543 0.3439 0.98096 0.0
O99 O 0.98503 0.29243 0.92886 0.0
O100 O 0.96198 0.28247 0.96753 0.0
C101 C 0.02224 0.23317 1.00018 0.0
O102 O 0.0396 0.28642 0.93257 0.0
O103 O 0.06712 0.30524 0.97833 0.0
In104 In 0.4137 0.03689 0.33109 0.0
O105 O 0.45414 0.06106 0.31074 0.0
O106 O 0.41989 0.02607 0.27992 0.0
C107 C 0.44499 0.04337 0.38923 0.0
C108 C 0.37952 0.07491 0.31973 0.0
C109 C 0.38705 0.97913 0.32496 0.0
O110 O 0.45644 0.03907 0.36383 0.0
O111 O 0.41755 0.04483 0.38559 0.0
O112 O 0.37517 0.99952 0.33711 0.0
O113 O 0.41249 0.98778 0.3164 0.0
C114 C 0.44491 0.04496 0.28318 0.0
O115 O 0.3722 0.04752 0.30685 0.0
O116 O 0.40361 0.0831 0.34003 0.0
In117 In 0.27687 0.20829 0.53194 0.0
O118 O 0.26462 0.24092 0.57352 0.0
O119 O 0.3021 0.22199 0.58491 0.0
C120 C 0.28256 0.23418 0.47534 0.0
C121 C 0.32281 0.18011 0.53844 0.0
C122 C 0.22259 0.16778 0.52802 0.0
O123 O 0.28846 0.24957 0.50354 0.0
O124 O 0.27215 0.20639 0.47551 0.0
O125 O 0.24549 0.16048 0.51849 0.0
O126 O 0.2263 0.19573 0.53805 0.0
C127 C 0.285 0.23788 0.59541 0.0
O128 O 0.29583 0.16741 0.54012 0.0
O129 O 0.32667 0.20695 0.53249 0.0
In130 In 0.14939 0.0788 0.81228 0.0
O131 O 0.10691 0.06799 0.77072 0.0
O132 O 0.15041 0.08029 0.75794 0.0
C133 C 0.1262 0.07391 0.87022 0.0
C134 C 0.17221 0.0292 0.80443 0.0
C135 C 0.18841 0.13407 0.81887 0.0
O136 O 0.11268 0.08263 0.8462 0.0
O137 O 0.1514 0.06869 0.86543 0.0
O138 O 0.19692 0.1098 0.8206 0.0
O139 O 0.16001 0.13116 0.81613 0.0
C140 C 0.12238 0.07246 0.74802 0.0
O141 O 0.18849 0.05581 0.81104 0.0
O142 O 0.14407 0.02738 0.80272 0.0
In143 In 0.32363 0.95574 0.00865 0.0
O144 O 0.33041 0.91716 0.03515 0.0
O145 O 0.33297 0.96035 0.06312 0.0
C146 C 0.30515 0.92158 0.95128 0.0
C147 C 0.28546 0.98907 0.02147 0.0
C148 C 0.38003 0.98426 0.01017 0.0
O149 O 0.29407 0.91445 0.97596 0.0
O150 O 0.32433 0.94638 0.95535 0.0
O151 O 0.35858 0.99748 0.00653 0.0
O152 O 0.37307 0.9566 0.01279 0.0
C153 C 0.33489 0.93322 0.06283 0.0
O154 O 0.30641 0.99788 0.00566 0.0
O155 O 0.2819 0.9623 0.02737 0.0
In156 In 0.33916 0.40197 0.06409 0.0
O157 O 0.32159 0.36089 0.09022 0.0
O158 O 0.34758 0.4007 0.11991 0.0
C159 C 0.33082 0.37459 1.00012 0.0
C160 C 0.29309 0.43011 0.06298 0.0
C161 C 0.39515 0.4391 0.06667 0.0
O162 O 0.3456 0.36546 0.02292 0.0
O163 O 0.31971 0.39642 0.00968 0.0
O164 O 0.37185 0.44879 0.07075 0.0
O165 O 0.39078 0.41054 0.06243 0.0
C166 C 0.33222 0.37411 0.11885 0.0
O167 O 0.32046 0.44448 0.07007 0.0
O168 O 0.28889 0.40164 0.05736 0.0
In169 In 0.78494 0.14848 0.09338 0.0
O170 O 0.80354 0.10718 0.09864 0.0
O171 O 0.8266 0.14196 0.07491 0.0
C172 C 0.72702 0.12111 0.08509 0.0
C173 C 0.80035 0.18119 0.15157 0.0
C174 C 0.78031 0.18241 0.04723 0.0
O175 O 0.74518 0.11148 0.06861 0.0
O176 O 0.73828 0.14403 0.1065 0.0
O177 O 0.79851 0.19212 0.07338 0.0
O178 O 0.76549 0.15535 0.04383 0.0
C179 C 0.82495 0.1165 0.08368 0.0
O180 O 0.80164 0.1924 0.12581 0.0
O181 O 0.79185 0.1527 0.14837 0.0
In182 In 0.21845 0.58046 0.25808 0.0
O183 O 0.2566 0.5576 0.24974 0.0
O184 O 0.22183 0.53777 0.2756 0.0
C185 C 0.2526 0.63579 0.26487 0.0
C186 C 0.17979 0.55983 0.20461 0.0
C187 C 0.18553 0.59478 0.3026 0.0
O188 O 0.25539 0.61866 0.28573 0.0
O189 O 0.23392 0.62439 0.23943 0.0
O190 O 0.17779 0.59541 0.27292 0.0
O191 O 0.20983 0.5866 0.31007 0.0
C192 C 0.2462 0.53678 0.26511 0.0
O193 O 0.17436 0.55276 0.23162 0.0
O194 O 0.20586 0.57582 0.204 0.0
In195 In 0.8368 0.901 0.56409 0.0
O196 O 0.83818 0.86122 0.59407 0.0
O197 O 0.82671 0.90005 0.61687 0.0
C198 C 0.83112 0.8715 0.50135 0.0
C199 C 0.79038 0.9284 0.56056 0.0
C200 C 0.89242 0.93931 0.57052 0.0
O201 O 0.8202 0.85845 0.5235 0.0
O202 O 0.84527 0.89853 0.51103 0.0
O203 O 0.86811 0.94611 0.56004 0.0
O204 O 0.88883 0.91321 0.57877 0.0
C205 C 0.83027 0.87376 0.61918 0.0
O206 O 0.81645 0.94164 0.57528 0.0
O207 O 0.78737 0.90124 0.54783 0.0
In208 In 0.95695 0.02092 0.28148 0.0
O209 O 0.99775 0.03777 0.25458 0.0
O210 O 0.95678 0.01376 0.22536 0.0
C211 C 0.98343 0.02726 0.34574 0.0
C212 C 0.93065 0.06793 0.28114 0.0
C213 C 0.91931 0.96554 0.2785 0.0
O214 O 0.99548 0.0172 0.32237 0.0
O215 O 0.95905 0.03463 0.33669 0.0
O216 O 0.91036 0.98982 0.28015 0.0
O217 O 0.94727 0.96874 0.27696 0.0
C218 C 0.98354 0.02858 0.226 0.0
O219 O 0.91621 0.0411 0.2702 0.0
O220 O 0.95846 0.0712 0.29161 0.0
In221 In 0.28272 0.64904 0.59294 0.0
O222 O 0.30362 0.60988 0.58318 0.0
O223 O 0.33248 0.65447 0.59396 0.0
C224 C 0.22561 0.62019 0.58647 0.0
C225 C 0.29121 0.67718 0.65209 0.0
C226 C 0.27541 0.67912 0.54387 0.0
O227 O 0.2449 0.60761 0.57502 0.0
O228 O 0.23557 0.6464 0.60244 0.0
O229 O 0.29042 0.69196 0.571 0.0
O230 O 0.26605 0.65087 0.54075 0.0
C231 C 0.32964 0.62667 0.58489 0.0
O232 O 0.29245 0.69057 0.62771 0.0
O233 O 0.28613 0.64855 0.64708 0.0
In234 In 0.45703 0.52377 0.77795 0.0
O235 O 0.41516 0.54367 0.77298 0.0
O236 O 0.45862 0.57415 0.78651 0.0
C237 C 0.41653 0.46949 0.77576 0.0
C238 C 0.48283 0.53065 0.72179 0.0
C239 C 0.49033 0.52949 0.83921 0.0
O240 O 0.41167 0.49459 0.78693 0.0
O241 O 0.44158 0.47164 0.76535 0.0
O242 O 0.4901 0.50858 0.81639 0.0
O243 O 0.47467 0.54766 0.83109 0.0
C244 C 0.43022 0.57074 0.78103 0.0
O245 O 0.49819 0.53507 0.74989 0.0
O246 O 0.45479 0.52141 0.72173 0.0
In247 In 0.70984 0.07708 0.75347 0.0
O248 O 0.74983 0.05634 0.74966 0.0
O249 O 0.71083 0.03211 0.76688 0.0
C250 C 0.73912 0.13435 0.76232 0.0
C251 C 0.67963 0.06138 0.69427 0.0
C252 C 0.68083 0.08688 0.80329 0.0
O253 O 0.74994 0.11489 0.77552 0.0
O254 O 0.71466 0.1245 0.74295 0.0
O255 O 0.66885 0.08584 0.77432 0.0
O256 O 0.70666 0.08107 0.80704 0.0
C257 C 0.73767 0.03374 0.76171 0.0
O258 O 0.66749 0.05583 0.71888 0.0
O259 O 0.70778 0.07281 0.69931 0.0
In260 In 0.77815 0.70856 0.0327 0.0
O261 O 0.79989 0.66885 0.03515 0.0
O262 O 0.82964 0.71234 0.04234 0.0
C263 C 0.72326 0.66925 0.02563 0.0
C264 C 0.78258 0.73542 0.09679 0.0
C265 C 0.78405 0.73293 0.97521 0.0
O266 O 0.74743 0.66108 0.02225 0.0
O267 O 0.72594 0.69769 0.03 0.0
O268 O 0.78342 0.74864 1.00207 0.0
O269 O 0.78015 0.70506 0.97694 0.0
C270 C 0.82679 0.68419 0.04155 0.0
O271 O 0.78583 0.75085 0.07389 0.0
O272 O 0.77668 0.70736 0.08718 0.0
In273 In 0.907 0.53495 0.83497 0.0
O274 O 0.86223 0.54791 0.82842 0.0
O275 O 0.90258 0.58275 0.83881 0.0
C276 C 0.87712 0.47801 0.82743 0.0
C277 C 0.93463 0.5423 0.78423 0.0
C278 C 0.94447 0.53947 0.88931 0.0
O279 O 0.87371 0.49743 0.8499 0.0
O280 O 0.89527 0.48725 0.8088 0.0
O281 O 0.94732 0.52471 0.86301 0.0
O282 O 0.92234 0.5519 0.88861 0.0
C283 C 0.874 0.57594 0.83307 0.0
O284 O 0.94871 0.55177 0.81271 0.0
O285 O 0.90662 0.53096 0.78158 0.0
In286 In 0.81987 0.44938 0.50825 0.0
O287 O 0.81354 0.40996 0.53619 0.0
O288 O 0.83331 0.45444 0.56224 0.0
C289 C 0.80771 0.41619 0.44991 0.0
C290 C 0.77923 0.48306 0.51198 0.0
C291 C 0.87791 0.47433 0.51268 0.0
O292 O 0.79661 0.4069 0.47372 0.0
O293 O 0.82412 0.44261 0.45512 0.0
O294 O 0.85793 0.48944 0.50936 0.0
O295 O 0.86864 0.44646 0.51355 0.0
C296 C 0.82587 0.42638 0.56287 0.0
O297 O 0.80598 0.49335 0.50779 0.0
O298 O 0.77323 0.45534 0.51452 0.0
In299 In 0.65107 0.58157 0.30831 0.0
O300 O 0.69277 0.56273 0.31249 0.0
O301 O 0.65172 0.53309 0.28709 0.0
C302 C 0.69182 0.63534 0.31484 0.0
C303 C 0.62189 0.57653 0.24502 0.0
C304 C 0.628 0.57533 0.36646 0.0
O305 O 0.69924 0.61061 0.31693 0.0
O306 O 0.66352 0.63364 0.3117 0.0
O307 O 0.61446 0.58512 0.34329 0.0
O308 O 0.65238 0.5691 0.36032 0.0
C309 C 0.67983 0.53717 0.29647 0.0
O310 O 0.61029 0.5616 0.26566 0.0
O311 O 0.64687 0.59461 0.25677 0.0
Eu312 Eu 0.09648 0.07403 0.07257 0.0
C313 C 1.00739 0.96732 0.98633 0.0
N314 N 0.01847 0.99643 0.98188 0.0
C315 C 0.02044 0.97921 0.92596 0.0
C316 C 1.00321 0.943 0.96069 0.0
C317 C 0.02401 1.00264 0.95188 0.0
C318 C 1.0102 0.94927 0.93041 0.0
C319 C 0.98853 0.93176 0.02173 0.0
C320 C 0.99982 0.96168 0.01656 0.0
C321 C 0.98458 0.90764 0.99623 0.0
C322 C 0.99187 0.91324 0.96586 0.0
Eu323 Eu 0.02075 0.03385 0.02719 0.0
N324 N 1.00436 0.98537 0.0412 0.0
C325 C 0.98152 0.92691 0.05242 0.0
C326 C 0.99639 0.98085 0.07073 0.0
C327 C 0.98532 0.95158 0.07695 0.0
H328 H 0.02988 0.02558 0.94714 0.0
H329 H 0.97947 0.9481 0.10059 0.0
H330 H 0.07073 0.10327 0.13959 0.0
H331 H 0.17499 0.13035 0.99913 0.0
H332 H 0.99817 0.99965 0.08954 0.0
H333 H 0.97286 0.90423 0.05732 0.0
H334 H 0.14081 0.08725 0.01448 0.0
H335 H 0.02502 0.98434 0.90236 0.0
H336 H 0.97584 0.88451 0.99975 0.0
H337 H 0.98863 0.89432 0.9465 0.0
H338 H 0.07877 0.15212 0.17456 0.0
H339 H 1.00721 0.9312 0.91013 0.0
H340 H 0.18484 0.18111 0.03211 0.0
N341 N 0.09975 0.12007 0.10688 0.0
C342 C 0.11977 0.14448 0.10034 0.0
C343 C 0.09024 0.15033 0.15362 0.0
C344 C 0.12526 0.17296 0.12017 0.0
C345 C 0.08542 0.12255 0.13336 0.0
C346 C 0.11014 0.17565 0.14696 0.0
N347 N 0.12868 0.11361 0.05415 0.0
C348 C 0.14355 0.10941 0.02831 0.0
C349 C 0.15484 0.16628 0.06589 0.0
C350 C 0.13448 0.14115 0.07334 0.0
C351 C 0.16916 0.16232 0.03864 0.0
C352 C 0.16356 0.13375 0.01986 0.0
H353 H 0.11377 0.19716 0.1627 0.0
H354 H 0.15002 0.21986 0.12771 0.0
H355 H 0.17587 0.21404 0.08034 0.0
O356 O 0.1384 0.06044 0.06911 0.0
O357 O 0.07074 0.11083 0.05661 0.0
O358 O 0.0264 0.08586 0.02316 0.0
O359 O 0.13144 0.08417 0.1157 0.0
O360 O 0.09439 0.0534 0.01907 0.0
O361 O 0.04975 0.06029 0.99566 0.0
O362 O 0.97522 0.03208 0.03764 0.0
O363 O 0.05312 1.00092 0.0389 0.0
O364 O 0.08396 0.02493 0.08549 0.0
O365 O 0.98296 0.02569 0.98769 0.0
O366 O 0.01888 0.05212 0.0805 0.0
O367 O 0.06583 0.05338 0.10615 0.0
C368 C 0.04582 0.11187 0.03701 0.0
C369 C 0.17951 0.07044 0.11359 0.0
C370 C 0.22393 0.05247 0.10474 0.0
C371 C 0.23278 0.05505 0.13836 0.0
C372 C 0.18815 0.0735 0.1473 0.0
C373 C 0.21504 0.06609 0.15963 0.0
C374 C 0.19837 0.06173 0.09264 0.0
C375 C 0.07794 0.05969 0.99386 0.0
C376 C 0.14936 0.0719 0.09943 0.0
C377 C 0.14558 0.19786 0.11275 0.0
C378 C 0.16029 0.19454 0.08572 0.0
C379 C 0.07081 0.99916 0.06595 0.0
C380 C 0.94773 0.05366 1.00081 0.0
C381 C 0.91141 0.08084 0.01749 0.0
C382 C 0.91994 0.10217 0.99717 0.0
C383 C 0.95693 0.07516 0.98064 0.0
C384 C 0.9247 0.0564 0.01872 0.0
C385 C 0.94272 0.09921 0.97861 0.0
C386 C 0.03739 0.05292 0.10756 0.0
C387 C 0.96405 0.03051 0.00719 0.0
H388 H 0.2529 0.04808 0.14794 0.0
H389 H 0.17368 0.08039 0.16389 0.0
H390 H 0.22163 0.068 0.1856 0.0
H391 H 0.1919 0.05952 0.06651 0.0
H392 H 0.90929 0.12111 0.99604 0.0
H393 H 0.97539 0.07382 0.96711 0.0
H394 H 0.91791 0.04019 0.03477 0.0
H395 H 0.94979 0.11586 0.96325 0.0
Eu396 Eu 0.27643 0.81585 0.34964 0.0
C397 C 0.34743 0.76122 0.2298 0.0
N398 N 0.35928 0.78259 0.25619 0.0
C399 C 0.4013 0.75974 0.26701 0.0
C400 C 0.36163 0.73751 0.22141 0.0
C401 C 0.38628 0.78275 0.27433 0.0
C402 C 0.38868 0.73672 0.2407 0.0
C403 C 0.31009 0.74371 0.18126 0.0
C404 C 0.32193 0.76418 0.21027 0.0
C405 C 0.32307 0.71899 0.17361 0.0
C406 C 0.34882 0.71589 0.19368 0.0
Eu407 Eu 0.32987 0.81706 0.27098 0.0
N408 N 0.3103 0.78852 0.21833 0.0
C409 C 0.28649 0.74946 0.16017 0.0
C410 C 0.28946 0.79587 0.19625 0.0
C411 C 0.27669 0.7761 0.16731 0.0
H412 H 0.39623 0.80045 0.29468 0.0
H413 H 0.25943 0.78153 0.15046 0.0
H414 H 0.20904 0.83022 0.32125 0.0
H415 H 0.35466 0.86716 0.46253 0.0
H416 H 0.28237 0.81688 0.20075 0.0
H417 H 0.27671 0.73428 0.13766 0.0
H418 H 0.33491 0.83021 0.41325 0.0
H419 H 0.42249 0.7597 0.28173 0.0
H420 H 0.31403 0.70276 0.15167 0.0
H421 H 0.35916 0.69724 0.18702 0.0
H422 H 0.17881 0.86702 0.33456 0.0
H423 H 0.40034 0.71888 0.23508 0.0
H424 H 0.32774 0.90695 0.4779 0.0
N425 N 0.2456 0.85036 0.35979 0.0
C426 C 0.25511 0.87091 0.38754 0.0
C427 C 0.20042 0.86867 0.3494 0.0
C428 C 0.23802 0.89207 0.39641 0.0
C429 C 0.21803 0.84815 0.34157 0.0
C430 C 0.21061 0.89097 0.3767 0.0
N431 N 0.29811 0.85005 0.39835 0.0
C432 C 0.32321 0.84787 0.41856 0.0
C433 C 0.29228 0.89196 0.43611 0.0
C434 C 0.28195 0.87072 0.40738 0.0
C435 C 0.31905 0.89096 0.45571 0.0
C436 C 0.33438 0.86863 0.44706 0.0
H437 H 0.19683 0.9068 0.38275 0.0
H438 H 0.23569 0.92986 0.43186 0.0
H439 H 0.28321 0.92987 0.46647 0.0
O440 O 0.27285 0.78778 0.38778 0.0
O441 O 0.29906 0.86404 0.3485 0.0
O442 O 0.30958 0.83576 0.30966 0.0
O443 O 0.23175 0.79323 0.35829 0.0
O444 O 0.3242 0.80485 0.36019 0.0
O445 O 0.35614 0.8154 0.32102 0.0
O446 O 0.33419 0.8564 0.24681 0.0
O447 O 0.31907 0.77243 0.28742 0.0
O448 O 0.27672 0.77999 0.30603 0.0
O449 O 0.37393 0.84868 0.27475 0.0
O450 O 0.27965 0.81817 0.25659 0.0
O451 O 0.24949 0.81546 0.29841 0.0
C452 C 0.31374 0.86307 0.32481 0.0
C453 C 0.22468 0.76439 0.40193 0.0
C454 C 0.22194 0.73453 0.44506 0.0
C455 C 0.19018 0.72771 0.43843 0.0
C456 C 0.19289 0.75708 0.39449 0.0
C457 C 0.17568 0.7389 0.41297 0.0
C458 C 0.239 0.75361 0.42761 0.0
C459 C 0.35115 0.80788 0.34987 0.0
C460 C 0.24334 0.78292 0.38311 0.0
C461 C 0.2485 0.91338 0.4248 0.0
C462 C 0.27555 0.91337 0.44454 0.0
C463 C 0.29655 0.76301 0.30276 0.0
C464 C 0.37891 0.86792 0.22541 0.0
C465 C 0.37791 0.88296 0.17221 0.0
C466 C 0.4031 0.87096 0.16761 0.0
C467 C 0.40401 0.85558 0.22068 0.0
C468 C 0.36625 0.88195 0.20118 0.0
C469 C 0.41615 0.85735 0.1919 0.0
C470 C 0.25349 0.81748 0.26767 0.0
C471 C 0.36357 0.86399 0.25365 0.0
H472 H 0.17681 0.71358 0.45271 0.0
H473 H 0.18144 0.76539 0.37458 0.0
H474 H 0.15118 0.73333 0.40744 0.0
H475 H 0.26356 0.7592 0.43364 0.0
H476 H 0.41243 0.87196 0.14521 0.0
H477 H 0.41392 0.84419 0.23886 0.0
H478 H 0.34677 0.89144 0.20442 0.0
H479 H 0.43543 0.84783 0.18824 0.0
Eu480 Eu 0.51415 0.05038 0.57812 0.0
C481 C 0.61107 0.10466 0.48373 0.0
N482 N 0.59515 0.07559 0.48223 0.0
C483 C 0.58247 0.07094 0.42439 0.0
C484 C 0.61189 0.11842 0.45555 0.0
C485 C 0.58276 0.05807 0.45283 0.0
C486 C 0.59655 0.10142 0.42584 0.0
C487 C 0.6463 0.14969 0.51498 0.0
C488 C 0.62813 0.12031 0.51318 0.0
C489 C 0.646 0.16384 0.48722 0.0
C490 C 0.62877 0.1483 0.45764 0.0
Eu491 Eu 0.59476 0.05879 0.53322 0.0
N492 N 0.62753 0.1066 0.53998 0.0
C493 C 0.66457 0.1638 0.54456 0.0
C494 C 0.64723 0.1189 0.56793 0.0
C495 C 0.6655 0.14806 0.57099 0.0
H496 H 0.57293 0.03412 0.45105 0.0
H497 H 0.68033 0.15828 0.59358 0.0
H498 H 0.52607 0.05591 0.66171 0.0
H499 H 0.42678 0.96823 0.4926 0.0
H500 H 0.64829 0.1063 0.58785 0.0
H501 H 0.67875 0.18643 0.54694 0.0
H502 H 0.46241 0.01796 0.51319 0.0
H503 H 0.57172 0.05725 0.40131 0.0
H504 H 0.65948 0.18659 0.48822 0.0
H505 H 0.62934 0.15931 0.43628 0.0
H506 H 0.51766 0.02167 0.7019 0.0
H507 H 0.59652 0.11125 0.40368 0.0
H508 H 0.41996 0.9289 0.52821 0.0
N509 N 0.50471 0.02187 0.62094 0.0
C510 C 0.48621 0.99373 0.61133 0.0
C511 C 0.50914 0.01334 0.67644 0.0
C512 C 0.48008 0.97365 0.63385 0.0
C513 C 0.51433 0.03254 0.65334 0.0
C514 C 0.49254 0.98354 0.66657 0.0
N515 N 0.47702 1.00561 0.55824 0.0
C516 C 0.46014 1.00042 0.52817 0.0
C517 C 0.45145 0.95703 0.56893 0.0
C518 C 0.47183 0.98547 0.57922 0.0
C519 C 0.43584 0.95048 0.53703 0.0
C520 C 0.43969 0.97256 0.5168 0.0
H521 H 0.48836 0.96879 0.68458 0.0
H522 H 0.45629 0.92894 0.64022 0.0
H523 H 0.43137 0.91437 0.58335 0.0
O524 O 0.47261 0.064 0.55921 0.0
O525 O 0.52462 1.00389 0.55431 0.0
O526 O 0.56845 1.00835 0.52923 0.0
O527 O 0.49225 0.0757 0.61067 0.0
O528 O 0.52604 0.0638 0.53047 0.0
O529 O 0.55154 0.03813 0.49918 0.0
O530 O 0.62872 0.04287 0.56367 0.0
O531 O 0.58581 0.10595 0.55596 0.0
O532 O 0.54068 0.10076 0.57839 0.0
O533 O 0.63215 0.04498 0.51325 0.0
O534 O 0.57034 0.05649 0.57362 0.0
O535 O 0.554 0.05917 0.61846 0.0
C536 C 0.54404 0.99142 0.53831 0.0
C537 C 0.44316 0.08458 0.59654 0.0
C538 C 0.40369 0.11204 0.5876 0.0
C539 C 0.3949 0.10634 0.61745 0.0
C540 C 0.434 0.07866 0.62624 0.0
C541 C 0.40991 0.08954 0.63658 0.0
C542 C 0.42775 0.10107 0.57712 0.0
C543 C 0.52599 0.04487 0.50431 0.0
C544 C 0.47134 0.07817 0.58774 0.0
C545 C 0.46092 0.94475 0.6233 0.0
C546 C 0.44668 0.93646 0.59092 0.0
C547 C 0.56536 0.11813 0.57023 0.0
C548 C 0.64837 1.00562 0.53493 0.0
C549 C 0.68326 0.97258 0.53856 0.0
C550 C 0.6608 0.94849 0.52037 0.0
C551 C 0.62629 0.98144 0.51609 0.0
C552 C 0.67688 1.00105 0.54653 0.0
C553 C 0.63235 0.95292 0.50939 0.0
C554 C 0.5773 0.05912 0.6047 0.0
C555 C 0.64274 0.0361 0.53967 0.0
H556 H 0.37655 0.11508 0.62596 0.0
H557 H 0.44599 0.06643 0.64183 0.0
H558 H 0.40319 0.08541 0.65971 0.0
H559 H 0.43515 0.10639 0.55454 0.0
H560 H 0.6655 0.92639 0.51432 0.0
H561 H 0.60481 0.98481 0.50551 0.0
H562 H 0.69435 0.0197 0.5605 0.0
H563 H 0.61532 0.93441 0.49495 0.0
Eu564 Eu 0.34152 0.284 0.8035 0.0
C565 C 0.23915 0.34576 0.73613 0.0
N566 N 0.2559 0.35534 0.76617 0.0
C567 C 0.25735 0.40703 0.76064 0.0
C568 C 0.23124 0.36676 0.7168 0.0
C569 C 0.26477 0.38536 0.7789 0.0
C570 C 0.24078 0.39772 0.72934 0.0
C571 C 0.21053 0.30413 0.69464 0.0
C572 C 0.22895 0.31479 0.72511 0.0
C573 C 0.20339 0.32502 0.67488 0.0
C574 C 0.21371 0.35623 0.68593 0.0
Eu575 Eu 0.26826 0.31724 0.79399 0.0
N576 N 0.23647 0.29509 0.74458 0.0
C577 C 0.19929 0.27281 0.68528 0.0
C578 C 0.22378 0.26478 0.73676 0.0
C579 C 0.20553 0.2531 0.70669 0.0
H580 H 0.2777 0.39243 0.80307 0.0
H581 H 0.19623 0.22894 0.70011 0.0
H582 H 0.32567 0.20904 0.80969 0.0
H583 H 0.40797 0.38091 0.89352 0.0
H584 H 0.22806 0.24953 0.75343 0.0
H585 H 0.1851 0.2637 0.662 0.0
H586 H 0.3729 0.35609 0.84402 0.0
H587 H 0.26461 0.43087 0.7706 0.0
H588 H 0.18943 0.31727 0.65126 0.0
H589 H 0.20757 0.37205 0.67061 0.0
H590 H 0.33751 0.17627 0.84902 0.0
H591 H 0.23516 0.41458 0.71522 0.0
H592 H 0.42564 0.35006 0.93278 0.0
N593 N 0.35089 0.25002 0.83963 0.0
C594 C 0.37004 0.26262 0.86783 0.0
C595 C 0.34657 0.20052 0.85475 0.0
C596 C 0.37793 0.24435 0.89072 0.0
C597 C 0.3394 0.21934 0.83274 0.0
C598 C 0.36585 0.21305 0.88389 0.0
N599 N 0.37266 0.31136 0.85252 0.0
C600 C 0.38177 0.34222 0.85955 0.0
C601 C 0.40084 0.30739 0.90378 0.0
C602 C 0.38159 0.29393 0.87422 0.0
C603 C 0.41092 0.33894 0.91035 0.0
C604 C 0.40113 0.35643 0.88823 0.0
H605 H 0.37142 0.19834 0.90086 0.0
H606 H 0.40382 0.24399 0.93749 0.0
H607 H 0.42375 0.29911 0.94895 0.0
O608 O 0.37795 0.29611 0.77384 0.0
O609 O 0.32467 0.30105 0.85028 0.0
O610 O 0.30046 0.33873 0.84004 0.0
O611 O 0.37169 0.2543 0.79441 0.0
O612 O 0.34512 0.32698 0.78049 0.0
O613 O 0.31322 0.35398 0.80221 0.0
O614 O 0.23652 0.29739 0.82462 0.0
O615 O 0.2849 0.30253 0.74643 0.0
O616 O 0.30812 0.26403 0.7568 0.0
O617 O 0.23214 0.33883 0.80688 0.0
O618 O 0.26153 0.26965 0.80697 0.0
O619 O 0.29935 0.24638 0.79431 0.0
C620 C 0.3137 0.32439 0.86062 0.0
C621 C 0.41336 0.26336 0.76423 0.0
C622 C 0.45456 0.27207 0.73229 0.0
C623 C 0.46262 0.24568 0.74039 0.0
C624 C 0.42197 0.23703 0.77195 0.0
C625 C 0.4464 0.2283 0.76008 0.0
C626 C 0.42974 0.28097 0.74417 0.0
C627 C 0.33847 0.35292 0.78987 0.0
C628 C 0.38752 0.27181 0.77778 0.0
C629 C 0.39752 0.25773 0.91974 0.0
C630 C 0.40895 0.28912 0.92624 0.0
C631 C 0.29598 0.2793 0.73622 0.0
C632 C 0.21391 0.33044 0.85602 0.0
C633 C 0.17692 0.33034 0.89334 0.0
C634 C 0.19735 0.35471 0.9139 0.0
C635 C 0.23415 0.35444 0.87718 0.0
C636 C 0.18547 0.31801 0.86444 0.0
C637 C 0.22584 0.36646 0.90598 0.0
C638 C 0.27289 0.24552 0.80354 0.0
C639 C 0.22176 0.31885 0.82469 0.0
H640 H 0.48153 0.23848 0.73131 0.0
H641 H 0.40987 0.22307 0.78733 0.0
H642 H 0.45278 0.20797 0.76617 0.0
H643 H 0.42337 0.30127 0.73783 0.0
H644 H 0.19128 0.36441 0.93631 0.0
H645 H 0.2562 0.36407 0.87125 0.0
H646 H 0.16987 0.2992 0.8484 0.0
H647 H 0.24148 0.38507 0.92217 0.0
Eu648 Eu 0.07603 0.01328 0.53758 0.0
C649 C 0.02505 0.12472 0.60996 0.0
N650 N 1.01139 0.10401 0.58334 0.0
C651 C 0.96264 0.10413 0.59874 0.0
C652 C 1.00802 0.13477 0.63301 0.0
C653 C 0.98052 0.09443 0.57683 0.0
C654 C 0.97649 0.12387 0.6273 0.0
C655 C 0.0708 0.15903 0.64034 0.0
C656 C 0.05603 0.13676 0.61359 0.0
C657 C 0.0542 0.16789 0.66426 0.0
C658 C 0.02287 0.15585 0.66056 0.0
Eu659 Eu 0.04382 0.08858 0.54841 0.0
N660 N 0.0715 0.12768 0.59014 0.0
C661 C 0.10158 0.17244 0.64164 0.0
C662 C 0.10048 0.14288 0.58952 0.0
C663 C 0.1163 0.16482 0.6157 0.0
H664 H 0.96973 0.0791 0.55474 0.0
H665 H 0.13966 0.17608 0.61566 0.0
H666 H 0.14888 0.03766 0.52727 0.0
H667 H 0.98092 0.93531 0.45598 0.0
H668 H 0.11133 0.1381 0.56887 0.0
H669 H 0.11378 0.1896 0.66182 0.0
H670 H 1.00638 0.96857 0.5068 0.0
H671 H 0.93822 0.0961 0.59373 0.0
H672 H 0.06521 0.18471 0.68521 0.0
H673 H 1.0102 0.16353 0.67875 0.0
H674 H 0.1797 0.03381 0.48366 0.0
H675 H 0.96258 0.13113 0.64437 0.0
H676 H 1.00895 0.92909 0.40992 0.0
N677 N 0.10801 1.01135 0.49807 0.0
C678 C 0.0951 0.99316 0.46937 0.0
C679 C 0.15589 0.02251 0.47922 0.0
C680 C 0.11216 0.98987 0.44398 0.0
C681 C 0.1382 0.02502 0.50375 0.0
C682 C 0.14277 1.00511 0.44911 0.0
N683 N 0.04853 0.98134 0.48999 0.0
C684 C 0.01901 0.96604 0.48713 0.0
C685 C 0.05088 0.95887 0.43565 0.0
C686 C 0.06471 0.9776 0.46529 0.0
C687 C 0.02038 0.94365 0.43233 0.0
C688 C 1.00446 0.9471 0.45826 0.0
H689 H 0.1566 1.00316 0.43017 0.0
H690 H 0.1111 0.96859 0.39467 0.0
H691 H 0.05753 0.94161 0.38735 0.0
O692 O 0.06799 0.96647 0.54763 0.0
O693 O 0.05954 0.03367 0.49275 0.0
O694 O 0.01924 0.05061 0.50785 0.0
O695 O 0.11354 0.99391 0.55479 0.0
O696 O 0.03081 1.00531 0.55443 0.0
O697 O 1.00855 0.04648 0.55618 0.0
O698 O 0.05634 0.11851 0.51148 0.0
O699 O 0.07406 0.08276 0.5942 0.0
O700 O 0.07311 0.03145 0.59022 0.0
O701 O 1.01496 0.11713 0.53256 0.0
O702 O 0.08701 0.08769 0.52671 0.0
O703 O 0.11135 0.05736 0.55408 0.0
C704 C 0.03312 0.04036 0.48491 0.0
C705 C 0.10321 0.95757 0.59029 0.0
C706 C 0.09332 0.91974 0.62644 0.0
C707 C 0.11941 0.93555 0.64801 0.0
C708 C 0.12957 0.97258 0.61221 0.0
C709 C 0.13737 0.96177 0.6409 0.0
C710 C 0.08496 0.93093 0.59765 0.0
C711 C 1.00857 0.01808 0.56036 0.0
C712 C 0.0963 0.96851 0.55895 0.0
C713 C 0.09833 0.97131 0.41444 0.0
C714 C 0.06781 0.95589 0.41029 0.0
C715 C 0.07764 0.05872 0.6074 0.0
C716 C 0.02124 0.14966 0.49231 0.0
C717 C 0.02984 0.1918 0.46151 0.0
C718 C 0.99867 0.19062 0.45713 0.0
C719 C 0.99005 0.14891 0.48726 0.0
C720 C 0.04127 0.17109 0.47902 0.0
C721 C 0.97893 0.16922 0.46982 0.0
C722 C 0.11207 0.08182 0.54059 0.0
C723 C 0.03187 0.1287 0.51268 0.0
H724 H 0.12622 0.92713 0.67011 0.0
H725 H 0.14466 0.99239 0.60692 0.0
H726 H 0.15786 0.97337 0.65737 0.0
H727 H 0.06498 0.91851 0.58076 0.0
H728 H 0.98962 0.20635 0.44373 0.0
H729 H 0.97409 0.13263 0.49701 0.0
H730 H 0.06538 0.17206 0.48268 0.0
H731 H 0.95489 0.16846 0.46627 0.0
Eu732 Eu 0.31132 0.84387 0.76859 0.0
C733 C 0.26119 0.74225 0.86146 0.0
N734 N 0.28759 0.76333 0.86316 0.0
C735 C 0.29193 0.77445 0.92096 0.0
C736 C 0.24866 0.73729 0.88985 0.0
C737 C 0.30387 0.77817 0.89235 0.0
C738 C 0.26397 0.7543 0.91965 0.0
C739 C 0.2229 0.69918 0.83063 0.0
C740 C 0.24797 0.72356 0.83179 0.0
C741 C 0.20938 0.69555 0.85851 0.0
C742 C 0.22211 0.71463 0.88795 0.0
Eu743 Eu 0.30325 0.76772 0.8127 0.0
N744 N 0.26117 0.72736 0.80485 0.0
C745 C 0.21325 0.67809 0.80199 0.0
C746 C 0.25371 0.70565 0.77798 0.0
C747 C 0.22933 0.68084 0.77591 0.0
H748 H 0.32575 0.79324 0.89328 0.0
H749 H 0.22275 0.6641 0.75413 0.0
H750 H 0.30491 0.81433 0.6868 0.0
H751 H 0.39256 0.94144 0.83901 0.0
H752 H 0.26619 0.70784 0.75795 0.0
H753 H 0.19421 0.65894 0.80025 0.0
H754 H 0.34518 0.90119 0.82671 0.0
H755 H 0.30439 0.78688 0.94402 0.0
H756 H 0.18976 0.67726 0.85787 0.0
H757 H 0.212 0.71077 0.90948 0.0
H758 H 0.33712 0.81715 0.64487 0.0
H759 H 0.25497 0.75116 0.94196 0.0
H760 H 0.4287 0.94554 0.79968 0.0
N761 N 0.33803 0.84504 0.72349 0.0
C762 C 0.36516 0.86581 0.72917 0.0
C763 C 0.34547 0.8306 0.66863 0.0
C764 C 0.38393 0.86877 0.70498 0.0
C765 C 0.32743 0.82865 0.69309 0.0
C766 C 0.37402 0.85037 0.67472 0.0
N767 N 0.35506 0.88281 0.78142 0.0
C768 C 0.36091 0.90298 0.80948 0.0
C769 C 0.40096 0.90788 0.76475 0.0
C770 C 0.3737 0.88536 0.75873 0.0
C771 C 0.40795 0.92795 0.79418 0.0
C772 C 0.3876 0.92576 0.81644 0.0
H773 H 0.38779 0.85201 0.65554 0.0
H774 H 0.4263 0.89296 0.69303 0.0
H775 H 0.44121 0.92707 0.74534 0.0
O776 O 0.28923 0.87959 0.78833 0.0
O777 O 0.35841 0.83287 0.78758 0.0
O778 O 0.35302 0.79773 0.82418 0.0
O779 O 0.29863 0.87467 0.73803 0.0
O780 O 0.32285 0.84357 0.82168 0.0
O781 O 0.29295 0.80718 0.84219 0.0
O782 O 0.31982 0.73065 0.78805 0.0
O783 O 0.25472 0.77175 0.78901 0.0
O784 O 0.26104 0.81728 0.76816 0.0
O785 O 0.32371 0.7388 0.84081 0.0
O786 O 0.3171 0.78359 0.76859 0.0
O787 O 0.28937 0.80191 0.73394 0.0
C788 C 0.37034 0.81732 0.80895 0.0
C789 C 0.27676 0.91625 0.75346 0.0
C790 C 0.2452 0.95197 0.76281 0.0
C791 C 0.25526 0.96621 0.73719 0.0
C792 C 0.28675 0.93093 0.72798 0.0
C793 C 0.27599 0.95572 0.71991 0.0
C794 C 0.25592 0.92686 0.77104 0.0
C795 C 0.30318 0.8356 0.84056 0.0
C796 C 0.28791 0.88961 0.76047 0.0
C797 C 0.41158 0.89056 0.71131 0.0
C798 C 0.42007 0.91003 0.74109 0.0
C799 C 0.24284 0.79284 0.77569 0.0
C800 C 0.36022 0.71668 0.81952 0.0
C801 C 0.39166 0.68044 0.8129 0.0
C802 C 0.41597 0.70109 0.83322 0.0
C803 C 0.38467 0.73708 0.84009 0.0
C804 C 0.36397 0.68854 0.80544 0.0
C805 C 0.41252 0.7294 0.84654 0.0
C806 C 0.29793 0.77853 0.7421 0.0
C807 C 0.32995 0.72294 0.81559 0.0
H808 H 0.24701 0.9855 0.73059 0.0
H809 H 0.3029 0.92321 0.71417 0.0
H810 H 0.2837 0.9668 0.70017 0.0
H811 H 0.24788 0.91565 0.79062 0.0
H812 H 0.43754 0.69514 0.83889 0.0
H813 H 0.3822 0.75883 0.85143 0.0
H814 H 0.3451 0.67248 0.78994 0.0
H815 H 0.43132 0.74524 0.86225 0.0
Eu816 Eu 0.55667 0.08307 0.99836 0.0
C817 C 0.60232 1.00496 0.11053 0.0
N818 N 0.5822 0.99551 0.08255 0.0
C819 C 0.60645 0.9551 0.06836 0.0
C820 C 0.62659 0.99102 0.11742 0.0
C821 C 0.58274 0.96961 0.06267 0.0
C822 C 0.62894 0.96633 0.09541 0.0
C823 C 0.61696 0.03677 0.16332 0.0
C824 C 0.59745 0.02731 0.13334 0.0
C825 C 0.64224 0.02426 0.16944 0.0
C826 C 0.64703 1.0014 0.14654 0.0
Eu827 Eu 0.54696 0.02602 0.07273 0.0
N828 N 0.57299 0.03914 0.12657 0.0
C829 C 0.61014 0.05811 0.18644 0.0
C830 C 0.56525 0.05866 0.14961 0.0
C831 C 0.58387 0.06868 0.17975 0.0
H832 H 0.56492 0.95971 0.04241 0.0
H833 H 0.57804 0.0847 0.1977 0.0
H834 H 0.53564 0.14695 0.02113 0.0
H835 H 0.53201 0.0164 0.87525 0.0
H836 H 0.54503 0.06702 0.14468 0.0
H837 H 0.62459 0.06599 0.20976 0.0
H838 H 0.56349 0.03875 0.92797 0.0
H839 H 0.6072 0.9351 0.05201 0.0
H840 H 0.65776 0.03151 0.19215 0.0
H841 H 0.66609 0.99128 0.152 0.0
H842 H 0.49468 0.17212 0.00501 0.0
H843 H 0.64723 0.95497 0.09981 0.0
H844 H 0.48446 0.03201 0.85882 0.0
N845 N 0.52148 0.111 0.9812 0.0
C846 C 0.5025 0.09962 0.95289 0.0
C847 C 0.49647 0.15163 0.9902 0.0
C848 C 0.47875 0.1132 0.94265 0.0
C849 C 0.5196 0.13727 0.99929 0.0
C850 C 0.47561 0.13927 0.962 0.0
N851 N 0.53231 0.06427 0.94357 0.0
C852 C 0.54212 0.04487 0.92205 0.0
C853 C 0.48969 0.0638 0.90303 0.0
C854 C 0.50786 0.07519 0.93359 0.0
C855 C 0.49783 0.04141 0.88248 0.0
C856 C 0.52461 0.0325 0.89169 0.0
H857 H 0.45768 0.15042 0.95498 0.0
H858 H 0.44083 0.11065 0.90503 0.0
H859 H 0.45045 0.06735 0.8702 0.0
O860 O 0.59788 0.09199 0.97726 0.0
O861 O 0.50886 0.0714 0.00818 0.0
O862 O 0.52529 0.03448 0.02611 0.0
O863 O 0.58386 0.12939 1.00213 0.0
O864 O 0.55979 0.03312 0.98195 0.0
O865 O 0.55511 1.00274 0.02319 0.0
O866 O 0.50255 0.02143 0.08711 0.0
O867 O 0.58979 0.06239 0.08415 0.0
O868 O 0.58351 0.06109 0.03168 0.0
O869 O 0.52121 0.98202 0.07972 0.0
O870 O 0.54202 0.07503 0.08867 0.0
O871 O 0.55171 0.10692 0.04911 0.0
C872 C 0.50343 0.0484 0.02317 0.0
C873 C 0.60302 0.13531 0.95293 0.0
C874 C 0.61766 0.13373 0.8995 0.0
C875 C 0.60229 0.15625 0.89297 0.0
C876 C 0.58723 0.15768 0.9463 0.0
C877 C 0.5871 0.16821 0.91644 0.0
C878 C 0.61836 0.12367 0.92943 0.0
C879 C 0.55931 1.00685 0.99303 0.0
C880 C 0.60124 0.12117 0.98228 0.0
C881 C 0.45946 0.10078 0.91317 0.0
C882 C 0.46489 0.07608 0.8934 0.0
C883 C 0.59893 0.07431 0.05973 0.0
C884 C 0.48874 0.98294 0.11821 0.0
C885 C 0.47846 0.99454 0.17266 0.0
C886 C 0.46798 0.96352 0.17342 0.0
C887 C 0.4774 0.95199 0.11854 0.0
C888 C 0.48974 1.00413 0.14556 0.0
C889 C 0.46731 0.9423 0.14627 0.0
C890 C 0.54562 0.10197 0.07856 0.0
C891 C 0.49908 0.99279 0.0891 0.0
H892 H 0.60206 0.16443 0.86986 0.0
H893 H 0.57466 0.16666 0.96383 0.0
H894 H 0.57498 0.18543 0.91136 0.0
H895 H 0.63049 0.10627 0.9341 0.0
H896 H 0.45977 0.95589 0.19474 0.0
H897 H 0.47645 0.9354 0.0974 0.0
H898 H 0.49819 0.02816 0.1456 0.0
H899 H 0.45867 0.91842 0.14661 0.0
Eu900 Eu 0.28629 0.26232 0.27407 0.0
C901 C 0.39655 0.35356 0.3523 0.0
N902 N 0.36843 0.33982 0.35783 0.0
C903 C 0.39034 0.33103 0.40982 0.0
C904 C 0.42269 0.3549 0.37477 0.0
C905 C 0.36508 0.3304 0.38709 0.0
C906 C 0.4193 0.34279 0.40339 0.0
C907 C 0.42811 0.38205 0.3187 0.0
C908 C 0.39936 0.36723 0.32452 0.0
C909 C 0.45406 0.38253 0.34065 0.0
C910 C 0.45136 0.36887 0.36847 0.0
Eu911 Eu 0.32784 0.34138 0.31711 0.0
N912 N 0.37404 0.36556 0.30286 0.0
C913 C 0.42995 0.3961 0.29102 0.0
C914 C 0.37556 0.38008 0.27641 0.0
C915 C 0.40352 0.39546 0.27003 0.0
H916 H 0.34323 0.32372 0.39423 0.0
H917 H 0.40467 0.40655 0.24878 0.0
H918 H 0.26358 0.28451 0.20108 0.0
H919 H 0.21905 0.19425 0.34861 0.0
H920 H 0.35524 0.37977 0.26008 0.0
H921 H 0.45163 0.40774 0.28579 0.0
H922 H 0.2658 0.22217 0.33291 0.0
H923 H 0.38739 0.32308 0.43268 0.0
H924 H 0.47635 0.39363 0.33646 0.0
H925 H 0.47163 0.36959 0.38525 0.0
H926 H 0.21636 0.28178 0.16564 0.0
H927 H 0.43882 0.34342 0.42122 0.0
H928 H 0.16952 0.19016 0.3149 0.0
N929 N 0.24251 0.26233 0.23697 0.0
C930 C 0.21588 0.24634 0.24405 0.0
C931 C 0.21587 0.27212 0.18786 0.0
C932 C 0.18815 0.24369 0.22362 0.0
C933 C 0.24283 0.27421 0.20869 0.0
C934 C 0.18841 0.25711 0.19551 0.0
N935 N 0.24297 0.23565 0.2918 0.0
C936 C 0.24435 0.22139 0.31844 0.0
C937 C 0.18888 0.21629 0.2799 0.0
C938 C 0.21616 0.23254 0.27197 0.0
C939 C 0.19001 0.20275 0.30799 0.0
C940 C 0.21789 0.2051 0.32717 0.0
H941 H 0.16757 0.2556 0.17929 0.0
H942 H 0.13957 0.2256 0.21632 0.0
H943 H 0.14022 0.20166 0.26543 0.0
O944 O 0.29484 0.21897 0.28064 0.0
O945 O 0.25194 0.28784 0.29567 0.0
O946 O 0.27544 0.33716 0.31728 0.0
O947 O 0.27479 0.22554 0.23228 0.0
O948 O 0.30591 0.26506 0.32756 0.0
O949 O 0.30388 0.31199 0.3503 0.0
O950 O 0.32711 0.3871 0.31007 0.0
O951 O 0.36206 0.31509 0.2952 0.0
O952 O 0.33759 0.26751 0.26867 0.0
O953 O 0.33511 0.37703 0.35897 0.0
O954 O 0.30892 0.33983 0.26389 0.0
O955 O 0.30761 0.29204 0.23956 0.0
C956 C 0.25031 0.31499 0.30964 0.0
C957 C 0.28382 0.17597 0.23863 0.0
C958 C 0.30236 0.13178 0.24745 0.0
C959 C 0.28702 0.11661 0.21692 0.0
C960 C 0.26835 0.16117 0.20797 0.0
C961 C 0.27004 0.13148 0.19717 0.0
C962 C 0.30057 0.1611 0.25824 0.0
C963 C 0.30168 0.2833 0.35252 0.0
C964 C 0.28403 0.20721 0.25046 0.0
C965 C 0.16102 0.22764 0.23165 0.0
C966 C 0.16138 0.214 0.25966 0.0
C967 C 0.36313 0.28873 0.27839 0.0
C968 C 0.30669 0.41322 0.3488 0.0
C969 C 0.27872 0.44966 0.33374 0.0
C970 C 0.25933 0.44209 0.35625 0.0
C971 C 0.28724 0.40513 0.37128 0.0
C972 C 0.3023 0.43548 0.33028 0.0
C973 C 0.2637 0.4198 0.37509 0.0
C974 C 0.31122 0.32111 0.23832 0.0
C975 C 0.32954 0.39692 0.34091 0.0
H976 H 0.28874 0.09381 0.20827 0.0
H977 H 0.25535 0.17257 0.19238 0.0
H978 H 0.25868 0.12031 0.17326 0.0
H979 H 0.31317 0.17253 0.28176 0.0
H980 H 0.24079 0.45308 0.35886 0.0
H981 H 0.28981 0.38726 0.3853 0.0
H982 H 0.31683 0.44134 0.31234 0.0
H983 H 0.24859 0.41359 0.39225 0.0
Eu984 Eu 0.57156 0.51292 0.03847 0.0
C985 C 0.51994 0.6164 0.10965 0.0
N986 N 0.50828 0.59487 0.08306 0.0
C987 C 0.46155 0.58147 0.10388 0.0
C988 C 0.50308 0.62027 0.13513 0.0
C989 C 0.4789 0.57875 0.07907 0.0
C990 C 0.47387 0.60194 0.1323 0.0
C991 C 0.56006 0.65922 0.13723 0.0
C992 C 0.54832 0.63556 0.11082 0.0
C993 C 0.54382 0.66227 0.16318 0.0
C994 C 0.51546 0.64282 0.16217 0.0
Eu995 Eu 0.54088 0.5903 0.04422 0.0
N996 N 0.56382 0.63192 0.08559 0.0
C997 C 0.58739 0.67968 0.13639 0.0
C998 C 0.58951 0.653 0.08373 0.0
C999 C 0.60186 0.67687 0.10925 0.0
H1000 H 0.46838 0.56412 0.05661 0.0
H1001 H 0.62254 0.6931 0.10793 0.0
H1002 H 0.64412 0.52828 0.0211 0.0
H1003 H 0.47738 0.4192 0.9819 0.0
H1004 H 0.6007 0.65177 0.06263 0.0
H1005 H 0.59708 0.69818 0.15617 0.0
H1006 H 0.50616 0.46113 0.02478 0.0
H1007 H 0.43852 0.56807 0.10087 0.0
H1008 H 0.55269 0.68009 0.18381 0.0
H1009 H 0.5029 0.64593 0.18206 0.0
H1010 H 0.67013 0.51706 0.97503 0.0
H1011 H 0.46024 0.6042 0.15137 0.0
H1012 H 0.49884 0.4071 0.93196 0.0
N1013 N 0.60054 0.50244 0.99714 0.0
C1014 C 0.58536 0.4811 0.97149 0.0
C1015 C 0.64616 0.5072 0.97346 0.0
C1016 C 0.59986 0.47305 0.9451 0.0
C1017 C 0.63105 0.51404 0.9993 0.0
C1018 C 0.63038 0.48706 0.94597 0.0
N1019 N 0.54257 0.47323 0.99856 0.0
C1020 C 0.51546 0.45608 1.00293 0.0
C1021 C 0.54028 0.44197 0.94746 0.0
C1022 C 0.55583 0.46565 0.97252 0.0
C1023 C 0.51148 0.42552 0.95067 0.0
C1024 C 0.49927 0.43225 0.97882 0.0
H1025 H 0.64229 0.48149 0.92616 0.0
H1026 H 0.59465 0.44419 0.89877 0.0
H1027 H 0.54254 0.41698 0.90087 0.0
O1028 O 0.55884 0.47611 0.0663 0.0
O1029 O 0.53922 0.51719 0.99408 0.0
O1030 O 0.54722 0.56835 0.99389 0.0
O1031 O 0.60363 0.48604 0.05317 0.0
O1032 O 0.53013 0.51702 0.06193 0.0
O1033 O 0.50613 0.54533 0.03135 0.0
O1034 O 0.55005 0.63025 0.01956 0.0
O1035 O 0.55685 0.57573 0.09322 0.0
O1036 O 0.59217 0.54713 0.08428 0.0
O1037 O 0.50356 0.60909 0.02449 0.0
O1038 O 0.59049 0.59929 0.04277 0.0
O1039 O 0.60724 0.55489 0.03325 0.0
C1040 C 0.53798 0.54021 0.97851 0.0
C1041 C 0.5972 0.46115 0.09911 0.0
C1042 C 0.59549 0.42415 0.13623 0.0
C1043 C 0.62187 0.44249 0.15552 0.0
C1044 C 0.62334 0.47951 0.11888 0.0
C1045 C 0.63559 0.47011 0.14695 0.0
C1046 C 0.58308 0.43366 0.10814 0.0
C1047 C 0.50503 0.52263 0.04785 0.0
C1048 C 0.58503 0.46914 0.06815 0.0
C1049 C 0.5839 0.45047 0.91932 0.0
C1050 C 0.55423 0.43493 0.92052 0.0
C1051 C 0.57871 0.56275 0.10397 0.0
C1052 C 0.51034 0.65384 0.99761 0.0
C1053 C 0.51767 0.69622 0.96679 0.0
C1054 C 0.48802 0.69889 0.96958 0.0
C1055 C 0.48073 0.65699 0.99968 0.0
C1056 C 0.52891 0.6735 0.98088 0.0
C1057 C 0.46973 0.67938 0.98579 0.0
C1058 C 0.61109 0.58462 0.03614 0.0
C1059 C 0.5216 0.63092 0.01439 0.0
H1060 H 0.63173 0.43543 0.17726 0.0
H1061 H 0.63442 0.50088 0.11248 0.0
H1062 H 0.65586 0.48421 0.16205 0.0
H1063 H 0.56283 0.41938 0.09304 0.0
H1064 H 0.47891 0.71608 0.95888 0.0
H1065 H 0.46612 0.64238 0.0125 0.0
H1066 H 0.55176 0.67124 0.97881 0.0
H1067 H 0.4469 0.68166 0.98767 0.0
Eu1068 Eu 0.81338 0.34654 0.27002 0.0
C1069 C 0.76283 0.24115 0.36085 0.0
N1070 N 0.79145 0.25676 0.3594 0.0
C1071 C 0.80446 0.26333 0.41718 0.0
C1072 C 0.75358 0.23738 0.39112 0.0
C1073 C 0.81281 0.26613 0.38664 0.0
C1074 C 0.77458 0.24942 0.41946 0.0
C1075 C 0.7146 0.20855 0.33326 0.0
C1076 C 0.7433 0.22689 0.33203 0.0
C1077 C 0.70478 0.2064 0.36338 0.0
C1078 C 0.72416 0.2208 0.39218 0.0
Eu1079 Eu 0.8001 0.26249 0.30654 0.0
N1080 N 0.75304 0.22924 0.30299 0.0
C1081 C 0.69703 0.19206 0.30421 0.0
C1082 C 0.73754 0.211 0.27517 0.0
C1083 C 0.70886 0.19276 0.27514 0.0
H1084 H 0.83588 0.27671 0.38466 0.0
H1085 H 0.69602 0.17915 0.25282 0.0
H1086 H 0.77976 0.34015 0.19064 0.0
H1087 H 0.91381 0.42911 0.33262 0.0
H1088 H 0.74713 0.21122 0.25306 0.0
H1089 H 0.67481 0.17781 0.30416 0.0
H1090 H 0.86337 0.39381 0.3275 0.0
H1091 H 0.82104 0.27181 0.43893 0.0
H1092 H 0.68257 0.19283 0.36473 0.0
H1093 H 0.71653 0.21805 0.41525 0.0
H1094 H 0.79556 0.35304 0.13912 0.0
H1095 H 0.76826 0.24709 0.44318 0.0
H1096 H 0.93665 0.43803 0.28329 0.0
N1097 N 0.82361 0.35867 0.21856 0.0
C1098 C 0.85204 0.3758 0.2191 0.0
C1099 C 0.81171 0.35937 0.16139 0.0
C1100 C 0.86177 0.38411 0.19026 0.0
C1101 C 0.80284 0.35223 0.19063 0.0
C1102 C 0.84147 0.37486 0.16108 0.0
N1103 N 0.85954 0.38182 0.27655 0.0
C1104 C 0.87389 0.39721 0.30618 0.0
C1105 C 0.89875 0.40796 0.2505 0.0
C1106 C 0.8705 0.38766 0.24893 0.0
C1107 C 0.9149 0.42222 0.28108 0.0
C1108 C 0.90209 0.41732 0.30901 0.0
H1109 H 0.84816 0.3807 0.13841 0.0
H1110 H 0.89876 0.40897 0.16963 0.0
H1111 H 0.93103 0.42988 0.22234 0.0
O1112 O 0.81378 0.39458 0.27333 0.0
O1113 O 0.85837 0.33182 0.29144 0.0
O1114 O 0.85152 0.28873 0.31818 0.0
O1115 O 0.77711 0.36418 0.28842 0.0
O1116 O 0.82508 0.33654 0.32017 0.0
O1117 O 0.79812 0.30098 0.34379 0.0
O1118 O 0.82376 0.23662 0.27557 0.0
O1119 O 0.75457 0.27148 0.28125 0.0
O1120 O 0.76196 0.32025 0.26604 0.0
O1121 O 0.80565 0.21794 0.31531 0.0
O1122 O 0.804 0.29031 0.26883 0.0
O1123 O 0.80611 0.31049 0.22622 0.0
C1124 C 0.86958 0.31169 0.30762 0.0
C1125 C 0.76601 0.40465 0.26388 0.0
C1126 C 0.74239 0.44731 0.25908 0.0
C1127 C 0.72694 0.43194 0.22815 0.0
C1128 C 0.75146 0.39054 0.23279 0.0
C1129 C 0.7319 0.40417 0.21499 0.0
C1130 C 0.76148 0.43259 0.27687 0.0
C1131 C 0.80578 0.32923 0.33983 0.0
C1132 C 0.78746 0.39141 0.28259 0.0
C1133 C 0.89082 0.40265 0.19161 0.0
C1134 C 0.90924 0.41458 0.22164 0.0
C1135 C 0.74372 0.29437 0.27086 0.0
C1136 C 0.85189 0.20878 0.30532 0.0
C1137 C 0.88579 0.17472 0.30529 0.0
C1138 C 0.9053 0.19409 0.33154 0.0
C1139 C 0.87105 0.22751 0.33237 0.0
C1140 C 0.85951 0.18252 0.29152 0.0
C1141 C 0.898 0.22055 0.34487 0.0
C1142 C 0.80334 0.28573 0.23772 0.0
C1143 C 0.82287 0.2153 0.29337 0.0
H1144 H 0.71079 0.44126 0.2139 0.0
H1145 H 0.75506 0.369 0.22251 0.0
H1146 H 0.72037 0.39313 0.19103 0.0
H1147 H 0.77367 0.44207 0.30059 0.0
H1148 H 0.92585 0.18837 0.34204 0.0
H1149 H 0.86502 0.24725 0.34421 0.0
H1150 H 0.84444 0.16752 0.27123 0.0
H1151 H 0.91286 0.23527 0.3654 0.0
Eu1152 Eu 0.05183 0.5788 0.49865 0.0
C1153 C 0.09388 0.49925 0.61554 0.0
N1154 N 0.0718 0.48978 0.5893 0.0
C1155 C 0.08422 0.44132 0.58208 0.0
C1156 C 0.11377 0.481 0.62454 0.0
C1157 C 0.06592 0.46085 0.57323 0.0
C1158 C 0.10891 0.45179 0.60711 0.0
C1159 C 0.11703 0.53678 0.66283 0.0
C1160 C 0.09512 0.52636 0.63468 0.0
C1161 C 0.13874 0.52006 0.67034 0.0
C1162 C 0.13695 0.49204 0.65135 0.0
Eu1163 Eu 0.0444 0.52552 0.57401 0.0
N1164 N 0.07346 0.54147 0.62686 0.0
C1165 C 0.1157 0.56301 0.68314 0.0
C1166 C 0.07023 0.56528 0.64826 0.0
C1167 C 0.0917 0.57686 0.67625 0.0
H1168 H 0.04741 0.45298 0.55318 0.0
H1169 H 0.08971 0.59646 0.69245 0.0
H1170 H 0.05005 0.65108 0.5237 0.0
H1171 H 0.97766 0.49477 0.40085 0.0
H1172 H 0.05159 0.57598 0.64367 0.0
H1173 H 0.13224 0.57193 0.70488 0.0
H1174 H 0.01803 0.51282 0.44763 0.0
H1175 H 0.07974 0.41849 0.56901 0.0
H1176 H 0.15613 0.52793 0.69153 0.0
H1177 H 0.15294 0.47866 0.65823 0.0
H1178 H 0.01962 0.6873 0.50959 0.0
H1179 H 0.12342 0.43684 0.61347 0.0
H1180 H 0.94741 0.5296 0.3812 0.0
N1181 N 0.02463 0.61536 0.48666 0.0
C1182 C 1.00211 0.60688 0.46061 0.0
C1183 C 1.01434 0.66472 0.49574 0.0
C1184 C 0.98432 0.62708 0.45157 0.0
C1185 C 0.03133 0.64397 0.50386 0.0
C1186 C 0.99064 0.65622 0.46958 0.0
N1187 N 1.01281 0.55814 0.45364 0.0
C1188 C 1.00614 0.52869 0.43879 0.0
C1189 C 0.97209 0.5679 0.41718 0.0
C1190 C 0.99621 0.57762 0.44343 0.0
C1191 C 0.96575 0.53791 0.40143 0.0
C1192 C 0.98277 0.51819 0.41241 0.0
H1193 H 0.97744 0.67235 0.46341 0.0
H1194 H 0.94674 0.63279 0.41789 0.0
H1195 H 0.93597 0.581 0.38788 0.0
O1196 O 0.07776 0.58043 0.45924 0.0
O1197 O 1.00343 0.56172 0.50445 0.0
O1198 O 0.02552 0.52953 0.52506 0.0
O1199 O 0.0855 0.62008 0.49624 0.0
O1200 O 0.06336 0.53177 0.48556 0.0
O1201 O 0.05786 0.50087 0.52623 0.0
O1202 O 1.00118 0.52817 0.58819 0.0
O1203 O 0.08586 0.56338 0.58447 0.0
O1204 O 0.08429 0.56125 0.53154 0.0
O1205 O 1.01254 0.4846 0.5813 0.0
O1206 O 0.03765 0.57449 0.58748 0.0
O1207 O 0.05036 0.60594 0.54856 0.0
C1208 C 1.00057 0.53817 0.51848 0.0
C1209 C 0.09379 0.62676 0.44256 0.0
C1210 C 0.11173 0.63333 0.3918 0.0
C1211 C 0.09754 0.6574 0.38908 0.0
C1212 C 0.07923 0.65066 0.43997 0.0
C1213 C 0.08115 0.66594 0.41319 0.0
C1214 C 0.10987 0.61822 0.41842 0.0
C1215 C 0.0646 0.50574 0.49653 0.0
C1216 C 0.09181 0.60865 0.46865 0.0
C1217 C 0.96066 0.61757 0.42512 0.0
C1218 C 0.95457 0.5881 0.40798 0.0
C1219 C 0.0973 0.57446 0.56057 0.0
C1220 C 0.97278 0.4894 0.61087 0.0
C1221 C 0.95541 0.49835 0.66217 0.0
C1222 C 0.93086 0.47325 0.65208 0.0
C1223 C 0.94834 0.46425 0.60074 0.0
C1224 C 0.97652 0.50638 0.64171 0.0
C1225 C 0.92747 0.45615 0.62141 0.0
C1226 C 0.04268 0.60147 0.57741 0.0
C1227 C 0.99201 0.4992 0.58754 0.0
H1228 H 0.09929 0.66949 0.36857 0.0
H1229 H 0.06651 0.65753 0.45835 0.0
H1230 H 0.07002 0.68442 0.41116 0.0
H1231 H 0.12114 0.5997 0.42032 0.0
H1232 H 0.91434 0.46706 0.66789 0.0
H1233 H 0.94507 0.45133 0.57659 0.0
H1234 H 0.99525 0.52607 0.64953 0.0
H1235 H 0.90852 0.4369 0.61348 0.0
Eu1236 Eu 0.84724 0.78728 0.30507 0.0
C1237 C 0.73519 0.83585 0.2396 0.0
N1238 N 0.75761 0.84827 0.26524 0.0
C1239 C 0.76227 0.89713 0.24873 0.0
C1240 C 0.72661 0.85359 0.21651 0.0
C1241 C 0.77019 0.87869 0.27088 0.0
C1242 C 0.74069 0.88448 0.22121 0.0
C1243 C 0.69864 0.79154 0.20888 0.0
C1244 C 0.72102 0.80516 0.23597 0.0
C1245 C 0.69058 0.80909 0.18558 0.0
C1246 C 0.7044 0.84002 0.18946 0.0
Eu1247 Eu 0.76868 0.81474 0.3007 0.0
N1248 N 0.72966 0.78843 0.25846 0.0
C1249 C 0.68507 0.76062 0.20595 0.0
C1250 C 0.71557 0.75866 0.25657 0.0
C1251 C 0.6934 0.74418 0.23005 0.0
H1252 H 0.78605 0.88909 0.29263 0.0
H1253 H 0.68268 0.7204 0.22827 0.0
H1254 H 0.82236 0.71391 0.31779 0.0
H1255 H 0.94135 0.87477 0.37443 0.0
H1256 H 0.72146 0.74607 0.2754 0.0
H1257 H 0.6679 0.74932 0.18539 0.0
H1258 H 0.90285 0.84955 0.32643 0.0
H1259 H 0.77267 0.92115 0.25303 0.0
H1260 H 0.67354 0.79898 0.16452 0.0
H1261 H 0.69776 0.85327 0.17136 0.0
H1262 H 0.82671 0.68459 0.36229 0.0
H1263 H 0.73471 0.89884 0.20402 0.0
H1264 H 0.94602 0.84975 0.42313 0.0
N1265 N 0.85033 0.75518 0.345 0.0
C1266 C 0.87103 0.76761 0.37221 0.0
C1267 C 0.83886 0.70809 0.36566 0.0
C1268 C 0.87511 0.75103 0.39795 0.0
C1269 C 0.83577 0.72523 0.34069 0.0
C1270 C 0.8582 0.72118 0.39463 0.0
N1271 N 0.88503 0.81215 0.34895 0.0
C1272 C 0.90451 0.839 0.34798 0.0
C1273 C 0.91048 0.81008 0.402 0.0
C1274 C 0.8887 0.79683 0.37429 0.0
C1275 C 0.92902 0.83881 0.40229 0.0
C1276 C 0.92641 0.85307 0.37489 0.0
H1277 H 0.86061 0.70777 0.41389 0.0
H1278 H 0.89899 0.75234 0.44624 0.0
H1279 H 0.92991 0.80402 0.44978 0.0
O1280 O 0.88874 0.79828 0.28342 0.0
O1281 O 0.84174 0.8206 0.34884 0.0
O1282 O 0.79127 0.80442 0.34791 0.0
O1283 O 0.86972 0.75155 0.28945 0.0
O1284 O 0.8474 0.82983 0.28299 0.0
O1285 O 0.81246 0.85175 0.30627 0.0
O1286 O 0.7246 0.80706 0.31881 0.0
O1287 O 0.7755 0.7896 0.25147 0.0
O1288 O 0.82534 0.78497 0.2532 0.0
O1289 O 0.75736 0.85085 0.33166 0.0
O1290 O 0.76864 0.77152 0.32023 0.0
O1291 O 0.80238 0.75061 0.29413 0.0
C1292 C 0.81776 0.81972 0.36333 0.0
C1293 C 0.91574 0.76042 0.26531 0.0
C1294 C 0.95616 0.76803 0.23239 0.0
C1295 C 0.96268 0.74052 0.23888 0.0
C1296 C 0.92257 0.73295 0.27141 0.0
C1297 C 0.94597 0.72313 0.25829 0.0
C1298 C 0.93257 0.77801 0.24563 0.0
C1299 C 0.83754 0.85359 0.29345 0.0
C1300 C 0.89105 0.77029 0.27957 0.0
C1301 C 0.89596 0.76461 0.42609 0.0
C1302 C 0.91355 0.79407 0.42813 0.0
C1303 C 0.79807 0.78266 0.23732 0.0
C1304 C 0.71167 0.84675 0.35601 0.0
C1305 C 0.66858 0.8406 0.38564 0.0
C1306 C 0.67857 0.87104 0.40022 0.0
C1307 C 0.72113 0.87717 0.37107 0.0
C1308 C 0.68511 0.82837 0.36331 0.0
C1309 C 0.70464 0.88916 0.39293 0.0
C1310 C 0.77775 0.74791 0.30811 0.0
C1311 C 0.73159 0.8342 0.33568 0.0
H1312 H 0.9807 0.73246 0.22875 0.0
H1313 H 0.90994 0.71912 0.28651 0.0
H1314 H 0.95113 0.70195 0.26314 0.0
H1315 H 0.92731 0.79911 0.24041 0.0
H1316 H 0.66608 0.88079 0.41735 0.0
H1317 H 0.74164 0.89171 0.3664 0.0
H1318 H 0.67766 0.80475 0.3523 0.0
H1319 H 0.71225 0.91257 0.40447 0.0
Eu1320 Eu 0.77346 0.30748 0.84751 0.0
C1321 C 0.86399 0.2745 0.7308 0.0
N1322 N 0.87082 0.29611 0.75752 0.0
C1323 C 0.92261 0.29219 0.76437 0.0
C1324 C 0.88646 0.26069 0.71983 0.0
C1325 C 0.89955 0.30503 0.77448 0.0
C1326 C 0.91606 0.26993 0.73689 0.0
C1327 C 0.82625 0.24203 0.68795 0.0
C1328 C 0.83429 0.26551 0.71493 0.0
C1329 C 0.84862 0.22846 0.67674 0.0
C1330 C 0.87865 0.23781 0.69259 0.0
Eu1331 Eu 0.83083 0.31597 0.77404 0.0
N1332 N 0.81305 0.27874 0.72666 0.0
C1333 C 0.79586 0.23234 0.67343 0.0
C1334 C 0.78323 0.26881 0.71281 0.0
C1335 C 0.77425 0.24569 0.68608 0.0
H1336 H 0.90469 0.32179 0.79618 0.0
H1337 H 0.75055 0.23796 0.67548 0.0
H1338 H 0.71331 0.33369 0.81345 0.0
H1339 H 0.82522 0.32668 0.97466 0.0
H1340 H 0.76583 0.27779 0.72242 0.0
H1341 H 0.78878 0.21426 0.65283 0.0
H1342 H 0.81179 0.29986 0.91812 0.0
H1343 H 0.94534 0.29926 0.77796 0.0
H1344 H 0.84285 0.21046 0.65604 0.0
H1345 H 0.89561 0.22693 0.68383 0.0
H1346 H 0.68887 0.37518 0.82641 0.0
H1347 H 0.93393 0.25982 0.72925 0.0
H1348 H 0.80488 0.37137 0.99096 0.0
N1349 N 0.74458 0.34413 0.85797 0.0
C1350 C 0.7515 0.36053 0.88842 0.0
C1351 C 0.70681 0.37164 0.84389 0.0
C1352 C 0.73718 0.38413 0.89716 0.0
C1353 C 0.72141 0.34837 0.83637 0.0
C1354 C 0.71507 0.38996 0.87419 0.0
N1355 N 0.7857 0.33014 0.90238 0.0
C1356 C 0.8032 0.31961 0.92492 0.0
C1357 C 0.77927 0.36904 0.94331 0.0
C1358 C 0.77242 0.35317 0.9113 0.0
C1359 C 0.79905 0.35976 0.96611 0.0
C1360 C 0.81061 0.33458 0.957 0.0
H1361 H 0.70356 0.40789 0.87998 0.0
H1362 H 0.73425 0.41911 0.93568 0.0
H1363 H 0.77102 0.40586 0.97609 0.0
O1364 O 0.76498 0.26403 0.8648 0.0
O1365 O 0.80212 0.35533 0.85833 0.0
O1366 O 0.81359 0.33157 0.81689 0.0
O1367 O 0.72808 0.28627 0.85484 0.0
O1368 O 0.82229 0.29765 0.86131 0.0
O1369 O 0.85579 0.31077 0.82367 0.0
O1370 O 0.82875 0.35314 0.74735 0.0
O1371 O 0.81451 0.2675 0.78069 0.0
O1372 O 0.77659 0.28273 0.79909 0.0
O1373 O 0.86981 0.35431 0.77998 0.0
O1374 O 0.78376 0.32401 0.75656 0.0
O1375 O 0.7515 0.31407 0.79556 0.0
C1376 C 0.81818 0.35732 0.83561 0.0
C1377 C 0.72522 0.25662 0.89629 0.0
C1378 C 0.7322 0.23893 0.94784 0.0
C1379 C 0.70108 0.23515 0.94906 0.0
C1380 C 0.69411 0.25285 0.89754 0.0
C1381 C 0.68219 0.24257 0.92414 0.0
C1382 C 0.74444 0.25102 0.92227 0.0
C1383 C 0.84979 0.30133 0.85158 0.0
C1384 C 0.73667 0.26401 0.86672 0.0
C1385 C 0.74486 0.40075 0.92867 0.0
C1386 C 0.7658 0.3932 0.95169 0.0
C1387 C 0.79056 0.26104 0.79475 0.0
C1388 C 0.87495 0.37806 0.73344 0.0
C1389 C 0.87671 0.39482 0.68116 0.0
C1390 C 0.90847 0.40276 0.68784 0.0
C1391 C 0.90678 0.38644 0.74028 0.0
C1392 C 0.8601 0.38208 0.70366 0.0
C1393 C 0.92343 0.39856 0.71738 0.0
C1394 C 0.75692 0.32162 0.76649 0.0
C1395 C 0.85698 0.36707 0.75784 0.0
H1396 H 0.69141 0.22598 0.96897 0.0
H1397 H 0.67898 0.25727 0.87765 0.0
H1398 H 0.65817 0.23948 0.92495 0.0
H1399 H 0.76853 0.25392 0.92174 0.0
H1400 H 0.92157 0.41234 0.67034 0.0
H1401 H 0.91873 0.38389 0.76334 0.0
H1402 H 0.83553 0.37619 0.69809 0.0
H1403 H 0.94793 0.40501 0.72268 0.0
Eu1404 Eu 0.78614 0.76184 0.77426 0.0
C1405 C 0.89482 0.85698 0.85364 0.0
N1406 N 0.86695 0.84205 0.85871 0.0
C1407 C 0.88888 0.83475 0.91138 0.0
C1408 C 0.92088 0.86008 0.87691 0.0
C1409 C 0.86364 0.83265 0.888 0.0
C1410 C 0.91767 0.84811 0.90564 0.0
C1411 C 0.9257 0.88699 0.82063 0.0
C1412 C 0.89734 0.87051 0.82574 0.0
C1413 C 0.95161 0.88929 0.84341 0.0
C1414 C 0.94922 0.87581 0.87136 0.0
Eu1415 Eu 0.82632 0.84185 0.81722 0.0
N1416 N 0.87207 0.8676 0.80358 0.0
C1417 C 0.92716 0.90109 0.79295 0.0
C1418 C 0.87314 0.88222 0.77718 0.0
C1419 C 0.90071 0.89898 0.77134 0.0
H1420 H 0.84176 0.8249 0.89467 0.0
H1421 H 0.90154 0.91013 0.75011 0.0
H1422 H 0.76569 0.78209 0.69971 0.0
H1423 H 0.71601 0.69619 0.84846 0.0
H1424 H 0.85275 0.88082 0.76042 0.0
H1425 H 0.94854 0.91399 0.78826 0.0
H1426 H 0.76346 0.72429 0.83435 0.0
H1427 H 0.88597 0.82683 0.93426 0.0
H1428 H 0.97359 0.90178 0.83983 0.0
H1429 H 0.96942 0.87813 0.88884 0.0
H1430 H 0.7194 0.77906 0.6626 0.0
H1431 H 0.93713 0.85014 0.9241 0.0
H1432 H 0.6674 0.69118 0.81262 0.0
N1433 N 0.74327 0.76218 0.73607 0.0
C1434 C 0.71627 0.74647 0.74261 0.0
C1435 C 0.71813 0.77032 0.6853 0.0
C1436 C 0.68907 0.74327 0.72105 0.0
C1437 C 0.74454 0.77282 0.70716 0.0
C1438 C 0.69025 0.75577 0.69239 0.0
N1439 N 0.74192 0.73685 0.79187 0.0
C1440 C 0.74239 0.72311 0.81894 0.0
C1441 C 0.68799 0.717 0.77805 0.0
C1442 C 0.71564 0.73326 0.77094 0.0
C1443 C 0.6882 0.70385 0.8064 0.0
C1444 C 0.71555 0.70671 0.82677 0.0
H1445 H 0.66986 0.75366 0.6752 0.0
H1446 H 0.64049 0.72507 0.71243 0.0
H1447 H 0.63959 0.70188 0.76185 0.0
O1448 O 0.78752 0.71613 0.78031 0.0
O1449 O 0.75126 0.78817 0.79444 0.0
O1450 O 0.77434 0.83675 0.81921 0.0
O1451 O 0.77754 0.72632 0.73179 0.0
O1452 O 0.8066 0.76466 0.82749 0.0
O1453 O 0.80314 0.8113 0.85008 0.0
O1454 O 0.82258 0.88651 0.80865 0.0
O1455 O 0.86143 0.81699 0.79523 0.0
O1456 O 0.83841 0.76787 0.77167 0.0
O1457 O 0.83347 0.8785 0.85805 0.0
O1458 O 0.80709 0.83888 0.76369 0.0
O1459 O 0.80856 0.79158 0.7403 0.0
C1460 C 0.74931 0.81478 0.80988 0.0
C1461 C 0.79895 0.68393 0.73809 0.0
C1462 C 0.82399 0.64428 0.75033 0.0
C1463 C 0.82751 0.63796 0.71774 0.0
C1464 C 0.80224 0.67767 0.70531 0.0
C1465 C 0.81661 0.65475 0.69525 0.0
C1466 C 0.80986 0.66705 0.76033 0.0
C1467 C 0.80206 0.78275 0.85244 0.0
C1468 C 0.78176 0.70565 0.74937 0.0
C1469 C 0.66157 0.72739 0.72845 0.0
C1470 C 0.66104 0.71423 0.75672 0.0
C1471 C 0.86339 0.79028 0.77992 0.0
C1472 C 0.80366 0.91367 0.84814 0.0
C1473 C 0.77488 0.94988 0.83426 0.0
C1474 C 0.75788 0.94386 0.85919 0.0
C1475 C 0.78658 0.90715 0.87303 0.0
C1476 C 0.79766 0.93499 0.82894 0.0
C1477 C 0.7638 0.92245 0.87859 0.0
C1478 C 0.81085 0.82045 0.73862 0.0
C1479 C 0.82629 0.89738 0.8394 0.0
H1480 H 0.83855 0.6202 0.70988 0.0
H1481 H 0.79341 0.69009 0.68751 0.0
H1482 H 0.81906 0.64985 0.66999 0.0
H1483 H 0.80704 0.67114 0.78566 0.0
H1484 H 0.73999 0.95541 0.86327 0.0
H1485 H 0.79051 0.89015 0.88778 0.0
H1486 H 0.81042 0.93976 0.8093 0.0
H1487 H 0.75056 0.91747 0.89767 0.0
Eu1488 Eu 0.59718 0.57704 0.57335 0.0
C1489 C 0.49629 0.46468 0.491 0.0
N1490 N 0.50904 0.49159 0.48222 0.0
C1491 C 0.50251 0.46755 0.42679 0.0
C1492 C 0.48818 0.43776 0.46822 0.0
C1493 C 0.51035 0.49358 0.45022 0.0
C1494 C 0.49234 0.4394 0.43603 0.0
C1495 C 0.4722 0.43756 0.5305 0.0
C1496 C 0.4882 0.46457 0.52179 0.0
C1497 C 0.46646 0.41032 0.5088 0.0
C1498 C 0.4744 0.41042 0.4777 0.0
Eu1499 Eu 0.52126 0.53432 0.52396 0.0
N1500 N 0.49383 0.49132 0.54225 0.0
C1501 C 0.4609 0.43904 0.55996 0.0
C1502 C 0.47999 0.4933 0.56917 0.0
C1503 C 0.46401 0.46719 0.57889 0.0
H1504 H 0.51666 0.51548 0.44262 0.0
H1505 H 0.45398 0.46883 0.60085 0.0
H1506 H 0.58511 0.58082 0.65289 0.0
H1507 H 0.64441 0.66906 0.51012 0.0
H1508 H 0.48081 0.5149 0.58317 0.0
H1509 H 0.44842 0.41883 0.56748 0.0
H1510 H 0.62346 0.61647 0.51616 0.0
H1511 H 0.50398 0.46929 0.40156 0.0
H1512 H 0.45459 0.38928 0.51527 0.0
H1513 H 0.46849 0.38948 0.46065 0.0
H1514 H 0.58253 0.61939 0.69756 0.0
H1515 H 0.48615 0.41933 0.41779 0.0
H1516 H 0.64627 0.71056 0.55464 0.0
N1517 N 0.59607 0.61208 0.62001 0.0
C1518 C 0.60579 0.64192 0.6175 0.0
C1519 C 0.58858 0.62605 0.67498 0.0
C1520 C 0.60604 0.66492 0.64338 0.0
C1521 C 0.58914 0.60404 0.64897 0.0
C1522 C 0.59662 0.65662 0.67203 0.0
N1523 N 0.61454 0.62728 0.56402 0.0
C1524 C 0.62467 0.634 0.53601 0.0
C1525 C 0.62698 0.68035 0.58629 0.0
C1526 C 0.61607 0.64968 0.58918 0.0
C1527 C 0.63746 0.68729 0.55762 0.0
C1528 C 0.63639 0.66397 0.53242 0.0
H1529 H 0.59644 0.67362 0.69238 0.0
H1530 H 0.6157 0.71339 0.65935 0.0
H1531 H 0.63485 0.72683 0.60992 0.0
O1532 O 0.6407 0.57139 0.56352 0.0
O1533 O 0.56587 0.60922 0.55671 0.0
O1534 O 0.53409 0.58342 0.51102 0.0
O1535 O 0.6357 0.5873 0.61361 0.0
O1536 O 0.60183 0.56493 0.51982 0.0
O1537 O 0.55512 0.54513 0.48841 0.0
O1538 O 0.48252 0.55195 0.53539 0.0
O1539 O 0.54589 0.49847 0.54401 0.0
O1540 O 0.5906 0.52467 0.57658 0.0
O1541 O 0.48168 0.52683 0.487 0.0
O1542 O 0.52301 0.55482 0.57741 0.0
O1543 O 0.56733 0.54947 0.60255 0.0
C1544 C 0.54702 0.60975 0.52999 0.0
C1545 C 0.68509 0.57964 0.6035 0.0
C1546 C 0.72709 0.55834 0.59148 0.0
C1547 C 0.7422 0.56908 0.6233 0.0
C1548 C 0.70004 0.59068 0.63539 0.0
C1549 C 0.72879 0.58569 0.6451 0.0
C1550 C 0.69921 0.56445 0.58149 0.0
C1551 C 0.58488 0.55488 0.49115 0.0
C1552 C 0.65334 0.57953 0.59381 0.0
C1553 C 0.61605 0.69546 0.6401 0.0
C1554 C 0.62684 0.70315 0.61185 0.0
C1555 C 0.57107 0.49838 0.56372 0.0
C1556 C 0.43673 0.54298 0.49625 0.0
C1557 C 0.39381 0.56132 0.50942 0.0
C1558 C 0.37699 0.54715 0.47916 0.0
C1559 C 0.42019 0.52834 0.46587 0.0
C1560 C 0.42348 0.55943 0.51782 0.0
C1561 C 0.39028 0.53054 0.45736 0.0
C1562 C 0.53889 0.54885 0.60321 0.0
C1563 C 0.46719 0.54009 0.5066 0.0
H1564 H 0.764 0.56442 0.63116 0.0
H1565 H 0.68922 0.60229 0.6529 0.0
H1566 H 0.74027 0.59396 0.66974 0.0
H1567 H 0.68774 0.55545 0.55687 0.0
H1568 H 0.35391 0.54916 0.4725 0.0
H1569 H 0.43021 0.51514 0.44894 0.0
H1570 H 0.43611 0.57092 0.5413 0.0
H1571 H 0.37747 0.51943 0.43397 0.0
Eu1572 Eu 0.01721 0.55329 0.07194 0.0
C1573 C 0.11768 0.6054 0.98869 0.0
N1574 N 0.10063 0.57663 0.98627 0.0
C1575 C 0.09098 0.57292 0.92825 0.0
C1576 C 0.12092 0.61942 0.9609 0.0
C1577 C 0.08891 0.55973 0.95639 0.0
C1578 C 0.10657 0.60305 0.93055 0.0
C1579 C 0.15298 0.64923 0.02194 0.0
C1580 C 0.13359 0.62029 0.01882 0.0
C1581 C 0.15519 0.66371 0.99452 0.0
C1582 C 0.13915 0.64888 0.9641 0.0
Eu1583 Eu 0.0964 0.55927 0.0368 0.0
N1584 N 0.13081 0.60605 0.04505 0.0
C1585 C 0.17006 0.6624 0.05243 0.0
C1586 C 0.14858 0.6177 0.07428 0.0
C1587 C 0.16824 0.64631 0.07859 0.0
H1588 H 0.07801 0.53598 0.95385 0.0
H1589 H 0.18183 0.65595 0.10203 0.0
H1590 H 0.03144 0.56535 0.15408 0.0
H1591 H 0.91991 0.47961 0.99098 0.0
H1592 H 0.14706 0.60505 0.09436 0.0
H1593 H 0.18525 0.68462 0.05583 0.0
H1594 H 0.96509 0.52236 0.00639 0.0
H1595 H 0.08088 0.55969 0.90474 0.0
H1596 H 0.16975 0.6861 0.99644 0.0
H1597 H 0.14167 0.66008 0.94303 0.0
H1598 H 1.01429 0.53953 0.19904 0.0
H1599 H 0.10839 0.61308 0.90864 0.0
H1600 H 0.90323 0.44768 0.03177 0.0
N1601 N 1.00215 0.53214 0.11722 0.0
C1602 C 0.97895 0.50704 0.11008 0.0
C1603 C 1.00435 0.53003 0.17415 0.0
C1604 C 0.96812 0.49189 0.13502 0.0
C1605 C 1.0141 0.5445 0.14871 0.0
C1606 C 0.98155 0.50337 0.16726 0.0
N1607 N 0.97405 0.51377 0.05466 0.0
C1608 C 0.95789 0.5084 0.02413 0.0
C1609 C 0.93874 0.47327 0.07043 0.0
C1610 C 0.96437 0.49777 0.07803 0.0
C1611 C 0.92303 0.46634 0.03856 0.0
C1612 C 0.93229 0.48436 0.01547 0.0
H1613 H 0.97384 0.49235 0.18707 0.0
H1614 H 0.93515 0.45442 0.14601 0.0
H1615 H 0.90947 0.43814 0.08955 0.0
O1616 O 0.98039 0.57138 0.05002 0.0
O1617 O 0.02269 0.5042 0.05211 0.0
O1618 O 0.06914 0.50868 0.03288 0.0
O1619 O 0.99847 0.58455 0.10181 0.0
O1620 O 0.03004 0.56581 0.02512 0.0
O1621 O 0.05566 0.53568 1.00098 0.0
O1622 O 0.12714 0.53767 0.06489 0.0
O1623 O 0.08313 0.60637 0.04945 0.0
O1624 O 0.04936 0.60166 0.08664 0.0
O1625 O 0.13691 0.55093 0.01905 0.0
O1626 O 0.09077 0.57188 0.08786 0.0
O1627 O 0.05318 0.54186 0.10577 0.0
C1628 C 0.04382 0.4915 0.04005 0.0
C1629 C 0.94763 0.58583 0.08501 0.0
C1630 C 0.90392 0.60787 0.08044 0.0
C1631 C 0.89096 0.58934 0.10158 0.0
C1632 C 0.93458 0.56716 0.10604 0.0
C1633 C 0.90623 0.56889 0.11417 0.0
C1634 C 0.93209 0.60587 0.07194 0.0
C1635 C 0.03115 0.54561 1.00093 0.0
C1636 C 0.97813 0.58649 0.07781 0.0
C1637 C 0.94358 0.46649 0.12719 0.0
C1638 C 0.92894 0.45722 0.09501 0.0
C1639 C 0.06783 0.61884 0.07053 0.0
C1640 C 0.15123 0.50746 0.0322 0.0
C1641 C 0.18614 0.4743 0.03374 0.0
C1642 C 0.16616 0.45328 0.00913 0.0
C1643 C 0.13151 0.48644 0.00728 0.0
C1644 C 0.17847 0.50126 0.04561 0.0
C1645 C 0.13889 0.45933 0.99604 0.0
C1646 C 0.08189 0.55193 0.10604 0.0
C1647 C 0.14446 0.53671 0.04258 0.0
H1648 H 0.86916 0.59083 0.10835 0.0
H1649 H 0.94643 0.55177 0.11662 0.0
H1650 H 0.89627 0.55465 0.13057 0.0
H1651 H 0.9422 0.62051 0.05586 0.0
H1652 H 0.17187 0.43235 0.99988 0.0
H1653 H 0.11049 0.49104 0.99649 0.0
H1654 H 0.19403 0.51764 0.06445 0.0
H1655 H 0.12358 0.44311 0.97697 0.0
C1656 C 1.00871 0.18364 0.028 0.0
C1657 C 0.02848 0.20244 0.01082 0.0
C1658 C 0.06139 0.16439 0.01476 0.0
C1659 C 0.04012 0.14372 0.02875 0.0
N1660 N 0.99158 0.13496 0.04664 0.0
N1661 N 0.07126 0.2051 0.98238 0.0
C1662 C 1.01325 0.15388 0.03458 0.0
C1663 C 0.05405 0.19107 1.00282 0.0
N1664 N 0.98528 0.19431 0.03842 0.0
N1665 N 0.08929 0.15892 0.01275 0.0
H1666 H 0.06671 0.22377 0.9727 0.0
H1667 H 0.08794 0.19639 0.97235 0.0
H1668 H 0.09474 0.13891 0.01771 0.0
H1669 H 0.10738 0.17487 0.00773 0.0
H1670 H 0.97189 0.18434 0.05421 0.0
H1671 H 0.98052 0.21459 0.03294 0.0
H1672 H 0.97001 0.13855 0.04777 0.0
H1673 H 0.99459 0.11464 0.05379 0.0
C1674 C 0.19165 0.79864 0.19094 0.0
C1675 C 0.17818 0.82415 0.19379 0.0
C1676 C 0.21373 0.84526 0.24562 0.0
C1677 C 0.22656 0.81934 0.24308 0.0
N1678 N 0.22368 0.76893 0.21644 0.0
N1679 N 0.17898 0.87353 0.2219 0.0
C1680 C 0.21452 0.79553 0.2164 0.0
C1681 C 0.18979 0.84777 0.22089 0.0
N1682 N 0.18291 0.77735 0.16358 0.0
N1683 N 0.22442 0.86754 0.27193 0.0
H1684 H 0.16263 0.87665 0.20379 0.0
H1685 H 0.18718 0.8928 0.23924 0.0
H1686 H 0.24249 0.86718 0.2895 0.0
H1687 H 0.21489 0.88582 0.27769 0.0
H1688 H 0.19419 0.76036 0.15783 0.0
H1689 H 0.16563 0.77778 0.14513 0.0
H1690 H 0.21364 0.74923 0.20013 0.0
H1691 H 0.23988 0.76563 0.23462 0.0
C1692 C 0.54422 0.90999 0.49224 0.0
C1693 C 0.52995 0.88887 0.51138 0.0
C1694 C 0.52743 0.93487 0.55003 0.0
C1695 C 0.53802 0.95576 0.52873 0.0
N1696 N 0.54882 0.95885 0.47404 0.0
N1697 N 0.50158 0.88384 0.5559 0.0
C1698 C 0.54408 0.94194 0.49829 0.0
C1699 C 0.51981 0.90215 0.53951 0.0
N1700 N 0.55965 0.90007 0.46884 0.0
N1701 N 0.52602 0.94586 0.58134 0.0
H1702 H 0.49462 0.86046 0.54898 0.0
H1703 H 0.49073 0.89226 0.57416 0.0
H1704 H 0.53231 0.96879 0.59072 0.0
H1705 H 0.52175 0.93198 0.5989 0.0
H1706 H 0.57186 0.91439 0.45525 0.0
H1707 H 0.56396 0.87851 0.46601 0.0
H1708 H 0.54934 0.94932 0.45032 0.0
H1709 H 0.54908 0.98177 0.47635 0.0
C1710 C 0.49429 0.28196 0.66064 0.0
C1711 C 0.51843 0.30774 0.67324 0.0
C1712 C 0.49637 0.31452 0.72333 0.0
C1713 C 0.47234 0.28904 0.71039 0.0
N1714 N 0.44311 0.25522 0.66347 0.0
N1715 N 0.53709 0.35355 0.71223 0.0
C1716 C 0.46946 0.27527 0.67778 0.0
C1717 C 0.51773 0.32566 0.70324 0.0
N1718 N 0.49604 0.26219 0.63409 0.0
N1719 N 0.49962 0.32719 0.75516 0.0
H1720 H 0.55214 0.36289 0.69748 0.0
H1721 H 0.53596 0.36866 0.73251 0.0
H1722 H 0.48382 0.32026 0.77018 0.0
H1723 H 0.51879 0.34334 0.76707 0.0
H1724 H 0.48063 0.24136 0.62658 0.0
H1725 H 0.51424 0.26477 0.62134 0.0
H1726 H 0.4386 0.24684 0.63871 0.0
H1727 H 0.42462 0.24979 0.67568 0.0
C1728 C 0.07895 0.83878 0.64186 0.0
C1729 C 0.05696 0.83852 0.66302 0.0
C1730 C 0.0549 0.89058 0.6557 0.0
C1731 C 0.07644 0.89053 0.63417 0.0
N1732 N 0.10358 0.86275 0.60074 0.0
N1733 N 0.01914 0.86124 0.68443 0.0
C1734 C 0.0865 0.86388 0.62514 0.0
C1735 C 0.04345 0.86359 0.66824 0.0
N1736 N 0.09426 0.81614 0.63946 0.0
N1737 N 0.04617 0.91674 0.66493 0.0
H1738 H 1.00987 0.84152 0.69316 0.0
H1739 H 1.00647 0.87758 0.68661 0.0
H1740 H 0.05286 0.93635 0.65482 0.0
H1741 H 0.03358 0.9195 0.68362 0.0
H1742 H 0.11296 0.81693 0.6275 0.0
H1743 H 0.09013 0.79765 0.6518 0.0
H1744 H 0.10912 0.84302 0.59073 0.0
H1745 H 0.10985 0.88095 0.58837 0.0
C1746 C 0.45261 0.80173 0.81415 0.0
C1747 C 0.4722 0.83029 0.82887 0.0
C1748 C 0.42513 0.84995 0.83262 0.0
C1749 C 0.40566 0.82197 0.81604 0.0
N1750 N 0.40279 0.77282 0.78619 0.0
N1751 N 0.476 0.88298 0.84805 0.0
C1752 C 0.4201 0.79839 0.80558 0.0
C1753 C 0.45801 0.85477 0.83661 0.0
N1754 N 0.46506 0.77732 0.8085 0.0
N1755 N 0.41218 0.87157 0.84648 0.0
H1756 H 0.4996 0.8872 0.85255 0.0
H1757 H 0.46777 0.90255 0.85068 0.0
H1758 H 0.38878 0.8685 0.84482 0.0
H1759 H 0.42433 0.89111 0.86197 0.0
H1760 H 0.45233 0.75514 0.80168 0.0
H1761 H 0.48841 0.77908 0.81225 0.0
H1762 H 0.4117 0.75627 0.77411 0.0
H1763 H 0.37928 0.76893 0.78074 0.0
C1764 C 0.51641 0.16993 0.11886 0.0
C1765 C 0.53644 0.17936 0.14915 0.0
C1766 C 0.56382 0.13971 0.13199 0.0
C1767 C 0.54272 0.1291 0.10261 0.0
N1768 N 0.49716 0.13314 0.06959 0.0
N1769 N 0.57855 0.17126 0.18511 0.0
C1770 C 0.51873 0.1442 0.09644 0.0
C1771 C 0.55972 0.16345 0.15589 0.0
N1772 N 0.49486 0.18568 0.11133 0.0
N1773 N 0.58925 0.12853 0.13617 0.0
H1774 H 0.57937 0.19046 0.20165 0.0
H1775 H 0.59255 0.15786 0.19385 0.0
H1776 H 0.59334 0.1117 0.11947 0.0
H1777 H 0.60761 0.13752 0.15459 0.0
H1778 H 0.48278 0.18364 0.08814 0.0
H1779 H 0.48963 0.20182 0.1281 0.0
H1780 H 0.47682 0.13985 0.06549 0.0
H1781 H 0.49863 0.11565 0.05195 0.0
C1782 C 0.17486 0.34663 0.31197 0.0
C1783 C 0.15867 0.32992 0.33368 0.0
C1784 C 0.20163 0.30266 0.3387 0.0
C1785 C 0.21857 0.32029 0.31811 0.0
N1786 N 0.21633 0.3547 0.27976 0.0
N1787 N 0.15973 0.29327 0.36995 0.0
C1788 C 0.20374 0.34123 0.3036 0.0
C1789 C 0.1731 0.30834 0.34748 0.0
N1790 N 0.16342 0.36922 0.30051 0.0
N1791 N 0.21212 0.27913 0.34905 0.0
H1792 H 0.13803 0.29396 0.37469 0.0
H1793 H 0.17065 0.28129 0.38521 0.0
H1794 H 0.23294 0.27504 0.34497 0.0
H1795 H 0.1996 0.2625 0.35992 0.0
H1796 H 0.17514 0.38507 0.28812 0.0
H1797 H 0.1428 0.3735 0.30544 0.0
H1798 H 0.20526 0.36642 0.26437 0.0
H1799 H 0.23702 0.35193 0.27343 0.0
C1800 C 0.98268 0.04958 0.17191 0.0
C1801 C 0.99716 0.0354 0.19578 0.0
C1802 C 0.04132 0.04032 0.16676 0.0
C1803 C 0.02542 0.05065 0.14021 0.0
N1804 N 0.98667 0.07718 0.1261 0.0
N1805 N 0.03748 1.01121 0.21111 0.0
C1806 C 0.99737 0.05825 0.14495 0.0
C1807 C 0.02563 0.0291 0.19174 0.0
N1808 N 0.95479 0.05497 0.17496 0.0
N1809 N 0.07209 0.04382 0.17054 0.0
H1810 H 0.02662 1.00195 0.22917 0.0
H1811 H 0.0563 1.00274 0.20679 0.0
H1812 H 0.08616 0.05708 0.1577 0.0
H1813 H 0.08452 0.0384 0.19058 0.0
H1814 H 0.94084 0.06083 0.15646 0.0
H1815 H 0.9446 0.05207 0.19552 0.0
H1816 H 0.96784 0.08583 0.12945 0.0
H1817 H 0.99908 0.08796 0.10997 0.0
C1818 C 0.24715 0.71686 0.5275 0.0
C1819 C 0.2651 0.69605 0.51937 0.0
C1820 C 0.25512 0.70063 0.46218 0.0
C1821 C 0.23792 0.7221 0.47059 0.0
N1822 N 0.22538 0.75743 0.51134 0.0
N1823 N 0.2912 0.67228 0.48095 0.0
C1824 C 0.23639 0.73238 0.50332 0.0
C1825 C 0.27065 0.68919 0.48725 0.0
N1826 N 0.23864 0.72042 0.55757 0.0
N1827 N 0.25596 0.69059 0.43031 0.0
H1828 H 0.30273 0.66329 0.49889 0.0
H1829 H 0.29878 0.66924 0.45869 0.0
H1830 H 0.246 0.6993 0.41109 0.0
H1831 H 0.26476 0.67218 0.42264 0.0
H1832 H 0.22259 0.73258 0.56309 0.0
H1833 H 0.2451 0.70898 0.57621 0.0
H1834 H 0.22687 0.76777 0.53523 0.0
H1835 H 0.21755 0.76972 0.49414 0.0
C1836 C 0.65415 0.08836 0.6568 0.0
C1837 C 0.66057 0.06072 0.66359 0.0
C1838 C 0.61528 0.03203 0.62686 0.0
C1839 C 0.60713 0.05985 0.62283 0.0
N1840 N 0.61589 0.11393 0.63846 0.0
N1841 N 0.65207 1.00677 0.65176 0.0
C1842 C 0.62582 0.08789 0.63891 0.0
C1843 C 0.64259 0.0326 0.64735 0.0
N1844 N 0.67513 0.11508 0.66745 0.0
N1845 N 0.59612 1.00524 0.61223 0.0
H1846 H 0.67257 1.00735 0.66626 0.0
H1847 H 0.64106 0.98514 0.63996 0.0
H1848 H 0.57597 1.0044 0.59735 0.0
H1849 H 0.59939 0.98389 0.6152 0.0
H1850 H 0.67272 0.13567 0.66063 0.0
H1851 H 0.69661 0.11624 0.6799 0.0
H1852 H 0.62668 0.13446 0.65309 0.0
H1853 H 0.59542 0.11437 0.62515 0.0
C1854 C 0.3156 0.33009 0.95389 0.0
C1855 C 0.32733 0.36157 0.96465 0.0
C1856 C 0.33021 0.36896 0.90762 0.0
C1857 C 0.31978 0.33701 0.89677 0.0
N1858 N 0.30864 0.28672 0.91219 0.0
N1859 N 0.35004 0.41054 0.95215 0.0
C1860 C 0.31453 0.31749 0.92067 0.0
C1861 C 0.33554 0.38085 0.94156 0.0
N1862 N 0.30349 0.31226 0.97501 0.0
N1863 N 0.3356 0.38836 0.88566 0.0
H1864 H 0.35325 0.42081 0.97624 0.0
H1865 H 0.36103 0.42467 0.93757 0.0
H1866 H 0.33785 0.38157 0.86176 0.0
H1867 H 0.33739 0.41159 0.89102 0.0
H1868 H 0.29094 0.29004 0.96784 0.0
H1869 H 0.30321 0.32049 0.99923 0.0
H1870 H 0.30924 0.27202 0.92917 0.0
H1871 H 0.30542 0.27549 0.88858 0.0
C1872 C 0.97969 0.01392 0.40236 0.0
C1873 C 0.99644 0.0304 0.38125 0.0
C1874 C 0.03633 0.05449 0.42818 0.0
C1875 C 0.01977 0.0378 0.44935 0.0
N1876 N 0.97309 1.00536 0.45725 0.0
N1877 N 0.03857 0.06948 0.37461 0.0
C1878 C 0.99071 0.0186 0.43657 0.0
C1879 C 0.0244 0.05127 0.3943 0.0
N1880 N 0.95347 0.99293 0.38947 0.0
N1881 N 0.06308 0.07456 0.44091 0.0
H1882 H 0.03035 0.06806 0.35003 0.0
H1883 H 0.05748 0.08727 0.38253 0.0
H1884 H 0.06954 0.08142 0.46577 0.0
H1885 H 0.07878 0.08452 0.42727 0.0
H1886 H 0.94245 0.97675 0.40197 0.0
H1887 H 0.94341 0.99044 0.36535 0.0
H1888 H 0.95038 0.99422 0.4505 0.0
H1889 H 0.98045 1.00691 0.482 0.0
C1890 C 0.32022 0.7122 0.69861 0.0
C1891 C 0.29165 0.6949 0.68312 0.0
C1892 C 0.26697 0.73406 0.70263 0.0
C1893 C 0.29565 0.75179 0.71822 0.0
N1894 N 0.3501 0.76228 0.72134 0.0
N1895 N 0.2373 0.68631 0.67363 0.0
C1896 C 0.32258 0.74203 0.71392 0.0
C1897 C 0.26491 0.70475 0.68674 0.0
N1898 N 0.34501 0.7001 0.69769 0.0
N1899 N 0.24131 0.74471 0.70112 0.0
H1900 H 0.23505 0.66388 0.66311 0.0
H1901 H 0.21697 0.69299 0.6751 0.0
H1902 H 0.24053 0.76667 0.7105 0.0
H1903 H 0.24053 0.76667 0.7105 0.0
H1904 H 0.36634 0.71054 0.71088 0.0
H1905 H 0.34323 0.6781 0.68598 0.0
H1906 H 0.37023 0.7572 0.71587 0.0
H1907 H 0.35242 0.78523 0.7297 0.0
C1908 C 0.6811 0.12311 0.85308 0.0
C1909 C 0.66635 0.09655 0.8307 0.0
C1910 C 0.61939 0.09447 0.8533 0.0
C1911 C 0.6342 0.12092 0.87563 0.0
N1912 N 0.68019 0.1563 0.90234 0.0
N1913 N 0.62469 0.05285 0.81424 0.0
C1914 C 0.66542 0.13391 0.87728 0.0
C1915 C 0.63637 0.08098 0.8322 0.0
N1916 N 0.70931 0.13911 0.85018 0.0
N1917 N 0.58908 0.08258 0.85209 0.0
H1918 H 0.63702 0.04207 0.79921 0.0
H1919 H 0.60404 0.03898 0.81641 0.0
H1920 H 0.57619 0.09133 0.86803 0.0
H1921 H 0.57623 0.06527 0.83411 0.0
H1922 H 0.71917 0.16071 0.86295 0.0
H1923 H 0.72215 0.13216 0.8332 0.0
H1924 H 0.70364 0.16345 0.90739 0.0
H1925 H 0.66933 0.16605 0.91981 0.0
C1926 C 0.31056 0.37268 0.172 0.0
C1927 C 0.32637 0.35984 0.14884 0.0
C1928 C 0.33217 0.32063 0.18338 0.0
C1929 C 0.31496 0.33271 0.20599 0.0
N1930 N 0.27846 0.36324 0.21303 0.0
N1931 N 0.34738 0.3181 0.12983 0.0
C1932 C 0.30167 0.35689 0.19789 0.0
C1933 C 0.33537 0.33262 0.15364 0.0
N1934 N 0.30339 0.39986 0.16921 0.0
N1935 N 0.34696 0.29868 0.1905 0.0
H1936 H 0.35295 0.32727 0.10929 0.0
H1937 H 0.35 0.29598 0.12933 0.0
H1938 H 0.34582 0.28847 0.21109 0.0
H1939 H 0.36311 0.29239 0.17739 0.0
H1940 H 0.29516 0.41192 0.18741 0.0
H1941 H 0.30779 0.41152 0.14994 0.0
H1942 H 0.26609 0.37876 0.20628 0.0
H1943 H 0.26859 0.34997 0.22903 0.0
C1944 C 0.23785 0.99892 0.03554 0.0
C1945 C 0.26937 1.00954 0.03712 0.0
C1946 C 0.26953 0.05203 0.07836 0.0
C1947 C 0.23962 0.03787 0.08135 0.0
N1948 N 0.19609 0.99524 0.06568 0.0
N1949 N 0.31676 0.04371 0.06435 0.0
C1950 C 0.22377 1.01066 0.06055 0.0
C1951 C 0.28576 0.0357 0.05931 0.0
N1952 N 0.22163 0.97738 0.01037 0.0
N1953 N 0.28232 0.08105 0.09339 0.0
H1954 H 0.3303 0.03213 0.05206 0.0
H1955 H 0.32926 0.06049 0.08313 0.0
H1956 H 0.27088 0.09389 0.10744 0.0
H1957 H 0.30312 0.09325 0.08921 0.0
H1958 H 0.19804 0.97058 0.0066 0.0
H1959 H 0.23165 0.96871 0.99141 0.0
H1960 H 0.18505 0.97391 0.05288 0.0
H1961 H 0.18548 1.00224 0.08486 0.0
C1962 C 0.66853 0.64391 1.00458 0.0
C1963 C 0.69479 0.64688 0.02755 0.0
C1964 C 0.66781 0.60519 0.0527 0.0
C1965 C 0.64062 0.60404 0.03149 0.0
N1966 N 0.61439 0.62525 0.98948 0.0
N1967 N 0.71861 0.63365 0.07659 0.0
C1968 C 0.64082 0.62426 0.00811 0.0
C1969 C 0.69432 0.62817 0.05225 0.0
N1970 N 0.67033 0.65895 0.97846 0.0
N1971 N 0.66828 0.58479 0.07382 0.0
H1972 H 0.7382 0.65051 0.07764 0.0
H1973 H 0.71852 0.62342 0.09736 0.0
H1974 H 0.64905 0.56938 0.07719 0.0
H1975 H 0.68814 0.58177 0.08669 0.0
H1976 H 0.65306 0.65495 0.95866 0.0
H1977 H 0.69016 0.6736 0.97509 0.0
H1978 H 0.61233 0.64241 0.97582 0.0
H1979 H 0.59388 0.61003 0.989 0.0
C1980 C 0.70977 0.50028 0.31141 0.0
C1981 C 0.69752 0.51513 0.28723 0.0
C1982 C 0.72824 0.49607 0.24954 0.0
C1983 C 0.73661 0.47755 0.27203 0.0
N1984 N 0.75387 0.48291 0.3296 0.0
N1985 N 0.69498 0.52816 0.23316 0.0
C1986 C 0.73247 0.48477 0.30474 0.0
C1987 C 0.70698 0.51362 0.25628 0.0
N1988 N 0.70012 0.50134 0.34092 0.0
N1989 N 0.74226 0.49795 0.22277 0.0
H1990 H 0.67977 0.54173 0.23748 0.0
H1991 H 0.69845 0.52518 0.20907 0.0
H1992 H 0.75936 0.48654 0.219 0.0
H1993 H 0.73936 0.51283 0.20645 0.0
H1994 H 0.70648 0.48841 0.35819 0.0
H1995 H 0.6838 0.51302 0.34694 0.0
H1996 H 0.75218 0.48853 0.354 0.0
H1997 H 0.77606 0.4835 0.32586 0.0
C1998 C 0.92802 0.47778 0.49461 0.0
C1999 C 0.91 0.48865 0.51617 0.0
C2000 C 0.95127 0.53181 0.53948 0.0
C2001 C 0.97043 0.51964 0.5201 0.0
N2002 N 0.9785 0.477 0.48443 0.0
N2003 N 0.90676 0.52063 0.56521 0.0
C2004 C 0.95939 0.49122 0.49948 0.0
C2005 C 0.92224 0.51412 0.54043 0.0
N2006 N 0.915 0.45594 0.46839 0.0
N2007 N 0.96088 0.56003 0.5574 0.0
H2008 H 0.88573 0.50735 0.5674 0.0
H2009 H 0.91623 0.53716 0.58539 0.0
H2010 H 0.98303 0.57248 0.55976 0.0
H2011 H 0.94656 0.57131 0.56883 0.0
H2012 H 0.92669 0.44982 0.44983 0.0
H2013 H 0.89183 0.44604 0.46334 0.0
H2014 H 0.97169 0.455 0.4717 0.0
H2015 H 1.00172 0.4857 0.48722 0.0
C2016 C 0.37423 0.11563 0.28793 0.0
C2017 C 0.36203 0.09578 0.30872 0.0
C2018 C 0.31134 0.10304 0.29262 0.0
C2019 C 0.32265 0.11866 0.26804 0.0
N2020 N 0.36423 0.14141 0.24218 0.0
N2021 N 0.3204 0.07112 0.33294 0.0
C2022 C 0.35404 0.12576 0.2659 0.0
C2023 C 0.33101 0.08998 0.31201 0.0
N2024 N 0.40495 0.12432 0.28898 0.0
N2025 N 0.28206 0.10126 0.29769 0.0
H2026 H 0.33481 0.06296 0.34912 0.0
H2027 H 0.29749 0.06276 0.33362 0.0
H2028 H 0.2667 0.10987 0.28321 0.0
H2029 H 0.27345 0.09303 0.31745 0.0
H2030 H 0.41547 0.14093 0.27666 0.0
H2031 H 0.42049 0.11672 0.30425 0.0
H2032 H 0.38624 0.14461 0.23699 0.0
H2033 H 0.35013 0.14987 0.22602 0.0
C2034 C 0.37332 0.17896 0.56966 0.0
C2035 C 0.34791 0.1649 0.54535 0.0
C2036 C 0.36315 0.11656 0.54373 0.0
C2037 C 0.38805 0.13068 0.56829 0.0
N2038 N 0.42274 0.17645 0.59623 0.0
N2039 N 0.32367 0.12313 0.50281 0.0
C2040 C 0.39518 0.16236 0.57825 0.0
C2041 C 0.34449 0.13454 0.53024 0.0
N2042 N 0.37541 0.20701 0.58671 0.0
N2043 N 0.35662 0.08587 0.53435 0.0
H2044 H 0.31024 0.13608 0.4919 0.0
H2045 H 0.32182 0.10202 0.48911 0.0
H2046 H 0.37059 0.07227 0.54281 0.0
H2047 H 0.33664 0.07372 0.51955 0.0
H2048 H 0.39136 0.21622 0.60741 0.0
H2049 H 0.35979 0.22013 0.58228 0.0
H2050 H 0.43039 0.19993 0.60129 0.0
H2051 H 0.43913 0.16466 0.603 0.0
C2052 C 0.71993 0.68865 0.33844 0.0
C2053 C 0.71471 0.66349 0.31351 0.0
C2054 C 0.75063 0.69326 0.2841 0.0
C2055 C 0.75837 0.71747 0.31069 0.0
N2056 N 0.75532 0.73381 0.36705 0.0
N2057 N 0.72961 0.63978 0.26525 0.0
C2058 C 0.74437 0.71389 0.33895 0.0
C2059 C 0.73188 0.66498 0.28749 0.0
N2060 N 0.70176 0.68853 0.36192 0.0
N2061 N 0.7584 0.69794 0.25451 0.0
H2062 H 0.71429 0.61923 0.26479 0.0
H2063 H 0.74451 0.63884 0.24849 0.0
H2064 H 0.76807 0.71928 0.24962 0.0
H2065 H 0.75137 0.68171 0.23368 0.0
H2066 H 0.70209 0.70784 0.37815 0.0
H2067 H 0.68481 0.66982 0.36373 0.0
H2068 H 0.7479 0.73076 0.38911 0.0
H2069 H 0.77429 0.75145 0.36929 0.0
C2070 C 0.83245 0.43516 0.81142 0.0
C2071 C 0.86322 0.44609 0.82519 0.0
C2072 C 0.86599 0.39749 0.84139 0.0
C2073 C 0.83458 0.38664 0.8291 0.0
N2074 N 0.7866 0.39651 0.80769 0.0
N2075 N 0.91144 0.43743 0.84701 0.0
C2076 C 0.81747 0.4057 0.81512 0.0
C2077 C 0.88071 0.42713 0.83815 0.0
N2078 N 0.81792 0.45268 0.79397 0.0
N2079 N 0.8812 0.38034 0.85838 0.0
H2080 H 0.92297 0.45952 0.84618 0.0
H2081 H 0.92608 0.42366 0.85292 0.0
H2082 H 0.87122 0.35854 0.86092 0.0
H2083 H 0.90278 0.3882 0.87194 0.0
H2084 H 0.79653 0.44466 0.77998 0.0
H2085 H 0.82841 0.47459 0.79107 0.0
H2086 H 0.77256 0.41079 0.80153 0.0
H2087 H 0.77459 0.37492 0.80954 0.0
C2088 C 0.09473 0.91931 0.06481 0.0
C2089 C 0.08489 0.90804 0.09313 0.0
C2090 C 0.06726 0.95692 0.10437 0.0
C2091 C 0.07536 0.96734 0.07505 0.0
N2092 N 0.09298 0.95394 0.02489 0.0
N2093 N 0.05435 0.91513 0.13495 0.0
C2094 C 0.08769 0.94696 0.05459 0.0
C2095 C 0.06937 0.92684 0.11157 0.0
N2096 N 0.1126 0.90458 0.04831 0.0
N2097 N 0.05687 0.97571 0.12573 0.0
H2098 H 0.05346 0.89321 0.13985 0.0
H2099 H 0.03978 0.92562 0.14687 0.0
H2100 H 0.05193 0.99583 0.12023 0.0
H2101 H 0.05473 0.97215 0.1494 0.0
H2102 H 0.12369 0.91302 0.03005 0.0
H2103 H 0.11881 0.88528 0.05495 0.0
H2104 H 0.09792 0.93881 0.00684 0.0
H2105 H 0.09032 0.97422 0.01743 0.0
C2106 C 0.92344 0.2756 0.88371 0.0
C2107 C 0.93003 0.28915 0.91715 0.0
C2108 C 0.88525 0.31201 0.90731 0.0
C2109 C 0.87726 0.29675 0.87448 0.0
N2110 N 0.88976 0.26303 0.83189 0.0
N2111 N 0.91421 0.31811 0.96127 0.0
C2112 C 0.89688 0.27856 0.86287 0.0
C2113 C 0.90985 0.30639 0.92904 0.0
N2114 N 0.94273 0.25959 0.87153 0.0
N2115 N 0.87121 0.33432 0.9172 0.0
H2116 H 0.93317 0.31787 0.97763 0.0
H2117 H 0.89795 0.3266 0.97237 0.0
H2118 H 0.85398 0.33997 0.90235 0.0
H2119 H 0.87854 0.34935 0.9389 0.0
H2120 H 0.94324 0.25401 0.84686 0.0
H2121 H 0.95907 0.25237 0.88618 0.0
H2122 H 0.8997 0.24582 0.82319 0.0
H2123 H 0.8726 0.26594 0.81479 0.0
C2124 C 0.57908 0.2063 0.56221 0.0
C2125 C 0.58197 0.22129 0.59482 0.0
C2126 C 0.56983 0.16904 0.61062 0.0
C2127 C 0.57087 0.15393 0.57872 0.0
N2128 N 0.57974 0.16162 0.52459 0.0
N2129 N 0.58799 0.21443 0.65109 0.0
C2130 C 0.57681 0.17375 0.55494 0.0
C2131 C 0.57941 0.20184 0.61914 0.0
N2132 N 0.57657 0.22275 0.53744 0.0
N2133 N 0.55924 0.15254 0.63344 0.0
H2134 H 0.597 0.23751 0.65869 0.0
H2135 H 0.58994 0.20159 0.66974 0.0
H2136 H 0.55239 0.12907 0.62981 0.0
H2137 H 0.55455 0.16252 0.65533 0.0
H2138 H 0.57064 0.21305 0.51307 0.0
H2139 H 0.57722 0.24583 0.54125 0.0
H2140 H 0.58783 0.17452 0.50745 0.0
H2141 H 0.57611 0.13855 0.51727 0.0
C2142 C 0.61453 0.79378 0.43217 0.0
C2143 C 0.58837 0.80504 0.42384 0.0
C2144 C 0.61242 0.82946 0.38188 0.0
C2145 C 0.64013 0.82275 0.39405 0.0
N2146 N 0.66845 0.79918 0.43136 0.0
N2147 N 0.56378 0.837 0.3933 0.0
C2148 C 0.64137 0.80472 0.41911 0.0
C2149 C 0.58744 0.82342 0.39899 0.0
N2150 N 0.61346 0.77216 0.45199 0.0
N2151 N 0.61021 0.84198 0.35405 0.0
H2152 H 0.54546 0.83424 0.406 0.0
H2153 H 0.56365 0.85334 0.37813 0.0
H2154 H 0.62826 0.84656 0.34107 0.0
H2155 H 0.58986 0.84493 0.3422 0.0
H2156 H 0.63075 0.76092 0.4565 0.0
H2157 H 0.59407 0.76342 0.46161 0.0
H2158 H 0.6717 0.78944 0.45226 0.0
H2159 H 0.6882 0.80584 0.4215 0.0
C2160 C 0.07614 0.26826 0.45015 0.0
C2161 C 0.07054 0.26493 0.41565 0.0
C2162 C 0.04963 0.21039 0.41299 0.0
C2163 C 0.04959 0.21509 0.44699 0.0
N2164 N 0.06349 0.24793 0.49865 0.0
N2165 N 0.06807 0.2303 0.3666 0.0
C2166 C 0.06359 0.24375 0.46588 0.0
C2167 C 0.06203 0.23517 0.3976 0.0
N2168 N 0.09532 0.29384 0.46772 0.0
N2169 N 0.03659 0.18245 0.39526 0.0
H2170 H 0.0813 0.24711 0.35648 0.0
H2171 H 0.06407 0.20894 0.35271 0.0
H2172 H 0.02918 0.1634 0.40602 0.0
H2173 H 0.0318 0.17842 0.37 0.0
H2174 H 0.10185 0.2968 0.49277 0.0
H2175 H 0.10841 0.31011 0.45683 0.0
H2176 H 0.06948 0.26914 0.51316 0.0
H2177 H 0.05576 0.23021 0.51113 0.0
C2178 C 0.66112 0.29851 0.23125 0.0
C2179 C 0.6412 0.27997 0.24849 0.0
C2180 C 0.6885 0.27603 0.28372 0.0
C2181 C 0.70826 0.29005 0.26309 0.0
N2182 N 0.70998 0.31063 0.21281 0.0
N2183 N 0.63855 0.24678 0.28885 0.0
C2184 C 0.69353 0.30016 0.2357 0.0
C2185 C 0.65573 0.26759 0.27407 0.0
N2186 N 0.6495 0.31633 0.21167 0.0
N2187 N 0.70069 0.27258 0.31396 0.0
H2188 H 0.61509 0.23957 0.28251 0.0
H2189 H 0.648 0.23457 0.30507 0.0
H2190 H 0.72366 0.28068 0.32321 0.0
H2191 H 0.68753 0.26526 0.33124 0.0
H2192 H 0.66301 0.33262 0.20115 0.0
H2193 H 0.62691 0.31778 0.20935 0.0
H2194 H 0.69999 0.31469 0.19061 0.0
H2195 H 0.73318 0.31254 0.21428 0.0
C2196 C 0.59349 0.95416 0.93524 0.0
C2197 C 0.57005 0.92712 0.928 0.0
C2198 C 0.5398 0.95204 0.9635 0.0
C2199 C 0.56277 0.9796 0.96989 0.0
N2200 N 0.61071 1.00745 0.95938 0.0
N2201 N 0.51857 0.9024 0.93068 0.0
C2202 C 0.58924 0.98081 0.95478 0.0
C2203 C 0.54267 0.92665 0.94109 0.0
N2204 N 0.62056 0.9539 0.92475 0.0
N2205 N 0.51494 0.94994 0.97887 0.0
H2206 H 0.51952 0.88362 0.91432 0.0
H2207 H 0.49679 0.90184 0.93582 0.0
H2208 H 0.51016 0.96833 0.99277 0.0
H2209 H 0.49968 0.92959 0.97928 0.0
H2210 H 0.63998 0.97126 0.93192 0.0
H2211 H 0.62432 0.93515 0.91039 0.0
H2212 H 0.62833 1.01146 0.94589 0.0
H2213 H 0.61025 0.02636 0.97579 0.0
C2214 C 0.94444 0.8042 0.74873 0.0
C2215 C 0.95445 0.77681 0.75136 0.0
C2216 C 0.90715 0.75999 0.77657 0.0
C2217 C 0.89521 0.78573 0.77028 0.0
N2218 N 0.90336 0.83046 0.74477 0.0
N2219 N 0.94139 0.72683 0.76482 0.0
C2220 C 0.91439 0.80731 0.75507 0.0
C2221 C 0.93467 0.75443 0.76467 0.0
N2222 N 0.96436 0.82827 0.74143 0.0
N2223 N 0.89324 0.74136 0.79584 0.0
H2224 H 0.96078 0.72182 0.75697 0.0
H2225 H 0.92636 0.70821 0.76985 0.0
H2226 H 0.87378 0.74435 0.80511 0.0
H2227 H 0.9031 0.72532 0.8057 0.0
H2228 H 0.96049 0.85 0.74266 0.0
H2229 H 0.98628 0.82731 0.73773 0.0
H2230 H 0.91396 0.84493 0.73024 0.0
H2231 H 0.8817 0.8328 0.74745 0.0
C2232 C 0.11064 0.04188 0.914 0.0
C2233 C 0.11365 0.06988 0.90164 0.0
C2234 C 0.08898 0.08892 0.94634 0.0
C2235 C 0.08978 0.06275 0.96157 0.0
N2236 N 0.10221 0.01386 0.95889 0.0
N2237 N 0.11157 0.12234 0.91106 0.0
C2238 C 0.10121 0.03927 0.94522 0.0
C2239 C 0.10445 0.09397 0.91924 0.0
N2240 N 0.11498 0.01711 0.89501 0.0
N2241 N 0.07241 0.10872 0.95661 0.0
H2242 H 0.12331 0.12725 0.89191 0.0
H2243 H 0.1087 0.14151 0.92541 0.0
H2244 H 0.05981 0.10591 0.9753 0.0
H2245 H 0.06856 0.12627 0.94425 0.0
H2246 H 0.10983 0.99524 0.90062 0.0
H2247 H 0.12105 0.01781 0.87196 0.0
H2248 H 0.11375 0.9978 0.95069 0.0
H2249 H 0.09242 1.00932 0.97934 0.0
C2250 C 0.82729 0.42696 0.62197 0.0
C2251 C 0.83417 0.41397 0.59229 0.0
C2252 C 0.86243 0.383 0.62102 0.0
C2253 C 0.86047 0.40023 0.65073 0.0
N2254 N 0.84316 0.44069 0.67995 0.0
N2255 N 0.86248 0.38281 0.56371 0.0
C2256 C 0.84322 0.42264 0.65145 0.0
C2257 C 0.85247 0.39245 0.59162 0.0
N2258 N 0.80528 0.44308 0.62186 0.0
N2259 N 0.87361 0.35755 0.62088 0.0
H2260 H 0.85706 0.3899 0.54157 0.0
H2261 H 0.87871 0.36991 0.56323 0.0
H2262 H 0.88096 0.34983 0.64214 0.0
H2263 H 0.87269 0.34256 0.59975 0.0
H2264 H 0.79734 0.45073 0.64279 0.0
H2265 H 0.79274 0.44605 0.60045 0.0
H2266 H 0.83347 0.45938 0.68117 0.0
H2267 H 0.85504 0.4387 0.70214 0.0
C2268 C 0.46175 0.01825 0.43395 0.0
C2269 C 0.46269 0.04525 0.42084 0.0
C2270 C 0.50483 0.07245 0.46253 0.0
C2271 C 0.50488 0.04486 0.47484 0.0
N2272 N 0.48868 0.99027 0.46708 0.0
N2273 N 0.48585 0.09738 0.41931 0.0
C2274 C 0.48513 0.01732 0.45877 0.0
C2275 C 0.48433 0.0723 0.4343 0.0
N2276 N 0.43799 0.99374 0.42327 0.0
N2277 N 0.52501 0.09852 0.47732 0.0
H2278 H 0.47004 0.09834 0.39947 0.0
H2279 H 0.5033 0.11682 0.42544 0.0
H2280 H 0.54309 0.09845 0.49488 0.0
H2281 H 0.52379 0.12006 0.4726 0.0
H2282 H 0.43474 0.9742 0.43398 0.0
H2283 H 0.41983 0.99414 0.40574 0.0
H2284 H 0.47764 0.96938 0.45328 0.0
H2285 H 0.50364 0.98881 0.48719 0.0
C2286 C 0.80456 0.73662 0.1558 0.0
C2287 C 0.78682 0.74845 0.13249 0.0
C2288 C 0.77883 0.78488 0.17736 0.0
C2289 C 0.79303 0.77039 0.20107 0.0
N2290 N 0.81462 0.72768 0.21112 0.0
N2291 N 0.75205 0.78047 0.12269 0.0
C2292 C 0.80451 0.74492 0.18975 0.0
C2293 C 0.77252 0.77161 0.14374 0.0
N2294 N 0.82281 0.71836 0.14576 0.0
N2295 N 0.77323 0.81253 0.18637 0.0
H2296 H 0.74634 0.77113 0.09817 0.0
H2297 H 0.73857 0.7949 0.1303 0.0
H2298 H 0.77928 0.8237 0.21008 0.0
H2299 H 0.76596 0.82568 0.16984 0.0
H2300 H 0.83911 0.71229 0.16163 0.0
H2301 H 0.82407 0.71193 0.12144 0.0
H2302 H 0.81961 0.70693 0.20373 0.0
H2303 H 0.81519 0.73221 0.23607 0.0
C2304 C 0.12346 0.05252 0.68902 0.0
C2305 C 0.10964 0.06808 0.71225 0.0
C2306 C 0.07301 0.07509 0.66697 0.0
C2307 C 0.08889 0.06254 0.64365 0.0
N2308 N 0.13405 0.04578 0.63397 0.0
N2309 N 0.07493 0.10005 0.72193 0.0
C2310 C 0.11544 0.05307 0.65514 0.0
C2311 C 0.08539 0.08098 0.70084 0.0
N2312 N 0.14349 0.03596 0.69904 0.0
N2313 N 0.04524 0.0801 0.65704 0.0
H2314 H 0.0837 0.10557 0.74661 0.0
H2315 H 0.05968 0.11273 0.71434 0.0
H2316 H 0.03532 0.07514 0.63281 0.0
H2317 H 0.03106 0.08622 0.67297 0.0
H2318 H 0.15195 0.02183 0.68301 0.0
H2319 H 0.14931 0.0338 0.72324 0.0
H2320 H 0.15571 0.0429 0.64158 0.0
H2321 H 0.12922 0.04551 0.60908 0.0
C2322 C 0.83051 0.37807 0.422 0.0
C2323 C 0.80801 0.39517 0.42117 0.0
C2324 C 0.7821 0.36599 0.36935 0.0
C2325 C 0.80637 0.35137 0.36818 0.0
N2326 N 0.85434 0.3434 0.39238 0.0
N2327 N 0.7656 0.40965 0.39255 0.0
C2328 C 0.83089 0.35746 0.39419 0.0
C2329 C 0.78481 0.39054 0.3943 0.0
N2330 N 0.85081 0.38084 0.44974 0.0
N2331 N 0.75579 0.35525 0.34789 0.0
H2332 H 0.76684 0.42773 0.41088 0.0
H2333 H 0.75031 0.40913 0.37175 0.0
H2334 H 0.75235 0.33591 0.3306 0.0
H2335 H 0.73641 0.36358 0.3494 0.0
H2336 H 0.86533 0.36641 0.4532 0.0
H2337 H 0.85187 0.39635 0.47047 0.0
H2338 H 0.8746 0.34971 0.4086 0.0
H2339 H 0.85444 0.32649 0.37339 0.0
C2340 C 0.44851 0.04973 0.22669 0.0
C2341 C 0.46272 0.04514 0.25682 0.0
C2342 C 0.49606 0.01895 0.22985 0.0
C2343 C 0.47684 0.017 0.20018 0.0
N2344 N 0.4358 0.03196 0.16891 0.0
N2345 N 0.50086 0.02678 0.2884 0.0
C2346 C 0.45383 0.03352 0.19792 0.0
C2347 C 0.48746 0.03102 0.25892 0.0
N2348 N 0.42908 0.06867 0.2261 0.0
N2349 N 0.52213 1.00884 0.23003 0.0
H2350 H 0.49587 0.03625 0.31036 0.0
H2351 H 0.51602 0.01284 0.29108 0.0
H2352 H 0.52886 1.00002 0.20873 0.0
H2353 H 0.53834 1.01187 0.25067 0.0
H2354 H 0.4194 0.07487 0.20494 0.0
H2355 H 0.42495 0.08038 0.24742 0.0
H2356 H 0.41636 0.04044 0.16662 0.0
H2357 H 0.4393 0.02082 0.14706 0.0
C2358 C 0.81198 0.73925 0.926 0.0
C2359 C 0.78925 0.74615 0.9442 0.0
C2360 C 0.77756 0.78021 0.90523 0.0
C2361 C 0.79855 0.77153 0.88521 0.0
N2362 N 0.84244 0.75036 0.88351 0.0
N2363 N 0.74602 0.76805 0.94632 0.0
C2364 C 0.81728 0.75269 0.89731 0.0
C2365 C 0.77115 0.76544 0.93263 0.0
N2366 N 0.82877 0.71976 0.93616 0.0
N2367 N 0.76443 0.80365 0.89958 0.0
H2368 H 0.73982 0.75723 0.96569 0.0
H2369 H 0.72942 0.77815 0.93622 0.0
H2370 H 0.76622 0.81486 0.87973 0.0
H2371 H 0.75308 0.81374 0.91626 0.0
H2372 H 0.84197 0.70965 0.92179 0.0
H2373 H 0.82859 0.71244 0.95865 0.0
H2374 H 0.8589 0.73966 0.89259 0.0
H2375 H 0.84915 0.76223 0.86505 0.0
C2376 C 0.83513 0.08083 0.0406 0.0
C2377 C 0.84418 0.09763 0.07225 0.0
C2378 C 0.89697 0.09781 0.07061 0.0
C2379 C 0.88824 0.0836 0.03775 0.0
N2380 N 0.84989 0.05323 0.99465 0.0
N2381 N 0.88055 0.1161 0.1207 0.0
C2382 C 0.85749 0.07218 0.0238 0.0
C2383 C 0.87419 0.10385 0.0885 0.0
N2384 N 0.80559 0.07523 0.02596 0.0
N2385 N 0.92692 0.10631 0.08405 0.0
H2386 H 0.86364 0.12049 0.1339 0.0
H2387 H 0.90174 0.11991 0.13492 0.0
H2388 H 0.9439 0.09998 0.07235 0.0
H2389 H 0.93516 0.11994 0.10647 0.0
H2390 H 0.79827 0.06681 1.0014 0.0
H2391 H 0.78838 0.0802 0.03831 0.0
H2392 H 0.82775 0.04195 0.98467 0.0
H2393 H 0.86601 0.04675 0.98152 0.0
C2394 C 0.44355 0.47858 0.09023 0.0
C2395 C 0.42413 0.45983 0.06289 0.0
C2396 C 0.4522 0.48938 0.02705 0.0
C2397 C 0.47506 0.50442 0.05361 0.0
N2398 N 0.49142 0.51453 0.11168 0.0
N2399 N 0.4146 0.44329 0.00503 0.0
C2400 C 0.47048 0.4992 0.08561 0.0
C2401 C 0.42998 0.46391 0.03127 0.0
N2402 N 0.43597 0.47709 0.12051 0.0
N2403 N 0.45024 0.50013 0.99823 0.0
H2404 H 0.39897 0.42372 0.00726 0.0
H2405 H 0.42006 0.4439 0.98171 0.0
H2406 H 0.46398 0.52026 0.99457 0.0
H2407 H 0.4324 0.49101 0.97917 0.0
H2408 H 0.44714 0.49241 0.14108 0.0
H2409 H 0.41718 0.46146 0.12474 0.0
H2410 H 0.49176 0.50886 0.13494 0.0
H2411 H 0.50892 0.53276 0.10993 0.0
C2412 C 0.42228 0.62017 0.76647 0.0
C2413 C 0.41586 0.59674 0.78551 0.0
C2414 C 0.38578 0.62523 0.81592 0.0
C2415 C 0.39579 0.65023 0.79997 0.0
N2416 N 0.42257 0.67217 0.75969 0.0
N2417 N 0.39375 0.57751 0.83022 0.0
C2418 C 0.41348 0.64774 0.77483 0.0
C2419 C 0.3977 0.59911 0.81035 0.0
N2420 N 0.43637 0.61573 0.74007 0.0
N2421 N 0.36519 0.62665 0.8367 0.0
H2422 H 0.40237 0.55816 0.82735 0.0
H2423 H 0.38395 0.57977 0.85118 0.0
H2424 H 0.35694 0.64589 0.84251 0.0
H2425 H 0.35439 0.60804 0.8462 0.0
H2426 H 0.43902 0.63041 0.72308 0.0
H2427 H 0.44356 0.59599 0.7338 0.0
H2428 H 0.43874 0.67348 0.74426 0.0
H2429 H 0.41471 0.69194 0.76361 0.0
C2430 C 0.17455 0.62568 0.56526 0.0
C2431 C 0.19316 0.60739 0.57794 0.0
C2432 C 0.14915 0.56595 0.57372 0.0
C2433 C 0.13025 0.5859 0.56615 0.0
N2434 N 0.12531 0.63676 0.56111 0.0
N2435 N 0.19823 0.56148 0.59866 0.0
C2436 C 0.14298 0.61637 0.56369 0.0
C2437 C 0.18058 0.57778 0.58327 0.0
N2438 N 0.18687 0.65127 0.55341 0.0
N2439 N 0.13717 0.53564 0.57114 0.0
H2440 H 0.22143 0.5696 0.60661 0.0
H2441 H 0.18934 0.54102 0.60622 0.0
H2442 H 0.11411 0.5263 0.56438 0.0
H2443 H 0.15025 0.51966 0.57294 0.0
H2444 H 0.17383 0.66381 0.54128 0.0
H2445 H 0.20989 0.65788 0.55212 0.0
H2446 H 0.13415 0.65996 0.5627 0.0
H2447 H 0.10208 0.63101 0.56081 0.0
C2448 C 0.77823 0.02232 0.79975 0.0
C2449 C 0.75413 1.01222 0.77321 0.0
C2450 C 0.74564 0.96066 0.78484 0.0
C2451 C 0.76861 0.97102 0.81236 0.0
N2452 N 0.81285 1.00849 0.84043 0.0
N2453 N 0.72087 0.97194 0.73475 0.0
C2454 C 0.78707 1.00079 0.81784 0.0
C2455 C 0.73997 0.98124 0.76375 0.0
N2456 N 0.79089 0.05255 0.80948 0.0
N2457 N 0.72887 0.93147 0.77953 0.0
H2458 H 0.71683 0.98704 0.71892 0.0
H2459 H 0.71124 0.94936 0.72504 0.0
H2460 H 0.73318 0.91561 0.79416 0.0
H2461 H 0.70978 0.92336 0.76182 0.0
H2462 H 0.8053 0.06122 0.83141 0.0
H2463 H 0.78595 0.06942 0.7967 0.0
H2464 H 0.82908 0.02872 0.84249 0.0
H2465 H 0.81932 0.99377 0.85553 0.0
C2466 C 0.76131 0.96036 0.53193 0.0
C2467 C 0.76528 0.94383 0.55789 0.0
C2468 C 0.71783 0.95128 0.57488 0.0
C2469 C 0.71353 0.96728 0.54854 0.0
N2470 N 0.7332 0.99287 0.50623 0.0
N2471 N 0.75187 0.92911 0.60815 0.0
C2472 C 0.73608 0.97386 0.52852 0.0
C2473 C 0.74492 0.94105 0.5807 0.0
N2474 N 0.78096 0.96201 0.50985 0.0
N2475 N 0.69553 0.94517 0.5936 0.0
H2476 H 0.77196 0.92209 0.61329 0.0
H2477 H 0.73926 0.92853 0.62711 0.0
H2478 H 0.67631 0.95412 0.59132 0.0
H2479 H 0.6953 0.93028 0.61042 0.0
H2480 H 0.77742 0.97054 0.48822 0.0
H2481 H 0.80027 0.95322 0.51225 0.0
H2482 H 0.75021 1.00101 0.49311 0.0
H2483 H 0.71458 1.00252 0.50257 0.0
C2484 C 0.36522 0.43145 0.76415 0.0
C2485 C 0.39637 0.43961 0.77833 0.0
C2486 C 0.39137 0.38919 0.79444 0.0
C2487 C 0.35924 0.3819 0.78384 0.0
N2488 N 0.32009 0.39108 0.74538 0.0
N2489 N 0.43704 0.42822 0.81341 0.0
C2490 C 0.34721 0.40191 0.76539 0.0
C2491 C 0.40882 0.41899 0.79505 0.0
N2492 N 0.35263 0.45193 0.74961 0.0
N2493 N 0.40633 0.36746 0.80152 0.0
H2494 H 0.45092 0.44977 0.81506 0.0
H2495 H 0.44541 0.41548 0.82977 0.0
H2496 H 0.39575 0.34518 0.80121 0.0
H2497 H 0.42988 0.37096 0.80462 0.0
H2498 H 0.32935 0.44904 0.74282 0.0
H2499 H 0.36532 0.47274 0.74605 0.0
H2500 H 0.3114 0.40285 0.72822 0.0
H2501 H 0.30802 0.36867 0.7431 0.0
C2502 C 0.24461 0.68545 0.28652 0.0
C2503 C 0.26407 0.66833 0.2738 0.0
C2504 C 0.30736 0.71124 0.29082 0.0
C2505 C 0.28726 0.72937 0.30033 0.0
N2506 N 0.24205 0.72875 0.32356 0.0
N2507 N 0.31285 0.66464 0.26025 0.0
C2508 C 0.25717 0.71515 0.30263 0.0
C2509 C 0.29523 0.68105 0.27512 0.0
N2510 N 0.21407 0.67353 0.2831 0.0
N2511 N 0.33799 0.72208 0.29931 0.0
H2512 H 0.30437 0.64235 0.24853 0.0
H2513 H 0.33492 0.67392 0.25697 0.0
H2514 H 0.34746 0.74278 0.31426 0.0
H2515 H 0.35374 0.70916 0.29522 0.0
H2516 H 0.19864 0.6863 0.28911 0.0
H2517 H 0.20369 0.65155 0.27181 0.0
H2518 H 0.22095 0.71878 0.32902 0.0
H2519 H 0.25386 0.74765 0.33968 0.0
C2520 C 0.54003 0.69692 0.53649 0.0
C2521 C 0.52745 0.70021 0.50428 0.0
C2522 C 0.53235 0.64608 0.48826 0.0
C2523 C 0.54043 0.64123 0.52113 0.0
N2524 N 0.54404 0.66373 0.5772 0.0
N2525 N 0.50468 0.67155 0.4514 0.0
C2526 C 0.54211 0.66724 0.54529 0.0
C2527 C 0.52172 0.67291 0.48087 0.0
N2528 N 0.5514 0.7223 0.55906 0.0
N2529 N 0.53625 0.62588 0.46326 0.0
H2530 H 0.49448 0.68885 0.44541 0.0
H2531 H 0.49733 0.65166 0.43463 0.0
H2532 H 0.54618 0.60782 0.46679 0.0
H2533 H 0.5335 0.62948 0.43916 0.0
H2534 H 0.56383 0.72194 0.58152 0.0
H2535 H 0.55157 0.74404 0.55404 0.0
H2536 H 0.54289 0.68083 0.59557 0.0
H2537 H 0.54267 0.64282 0.58494 0.0
C2538 C 0.67724 0.30205 0.71317 0.0
C2539 C 0.67824 0.32677 0.69551 0.0
C2540 C 0.73107 0.34899 0.72425 0.0
C2541 C 0.73005 0.32375 0.7415 0.0
N2542 N 0.70579 0.27172 0.74146 0.0
N2543 N 0.70575 0.37434 0.68458 0.0
C2544 C 0.70392 0.29924 0.73327 0.0
C2545 C 0.7053 0.35022 0.70092 0.0
N2546 N 0.65076 0.28067 0.71053 0.0
N2547 N 0.75685 0.37167 0.72992 0.0
H2548 H 0.68734 0.37601 0.6681 0.0
H2549 H 0.72371 0.39315 0.68735 0.0
H2550 H 0.77545 0.37213 0.74711 0.0
H2551 H 0.76061 0.39008 0.71758 0.0
H2552 H 0.64746 0.26456 0.72602 0.0
H2553 H 0.63132 0.28019 0.69442 0.0
H2554 H 0.68878 0.25202 0.73393 0.0
H2555 H 0.72629 0.26772 0.75131 0.0
C2556 C 0.05984 0.40858 0.02632 0.0
C2557 C 0.03039 0.38859 0.01813 0.0
C2558 C 1.00961 0.43535 0.02154 0.0
C2559 C 0.03889 0.4556 0.03285 0.0
N2560 N 0.09119 0.45719 0.05352 0.0
N2561 N 0.9767 0.38454 0.01394 0.0
C2562 C 0.06375 0.44089 0.03712 0.0
C2563 C 1.00526 0.40257 0.01807 0.0
N2564 N 0.08469 0.39679 0.02402 0.0
N2565 N 0.98587 0.44709 0.01107 0.0
H2566 H 0.97235 0.36097 0.0098 0.0
H2567 H 0.95768 0.39295 0.01748 0.0
H2568 H 0.98868 0.46991 0.00986 0.0
H2569 H 0.96488 0.434 0.99932 0.0
H2570 H 0.10648 0.41015 0.0255 0.0
H2571 H 0.08331 0.3736 0.01868 0.0
H2572 H 0.10893 0.44737 0.06105 0.0
H2573 H 0.09552 0.48011 0.06256 0.0
C2574 C 0.01811 0.82285 0.20278 0.0
C2575 C 0.01853 0.80536 0.17243 0.0
C2576 C 0.9703 0.77212 0.17762 0.0
C2577 C 0.97389 0.78515 0.21058 0.0
N2578 N 1.00173 0.82298 0.25547 0.0
N2579 N 0.99613 0.75989 0.13307 0.0
C2580 C 0.99771 0.81086 0.22339 0.0
C2581 C 0.99462 0.77937 0.15996 0.0
N2582 N 0.03682 0.85109 0.2116 0.0
N2583 N 0.94372 0.75243 0.16333 0.0
H2584 H 1.01423 0.76261 0.12014 0.0
H2585 H 0.98067 0.73909 0.12551 0.0
H2586 H 0.92555 0.74655 0.17588 0.0
H2587 H 0.93871 0.74504 0.13835 0.0
H2588 H 0.03576 0.86583 0.23222 0.0
H2589 H 0.05104 0.86107 0.19641 0.0
H2590 H 0.02084 0.83942 0.26699 0.0
H2591 H 0.98682 0.81525 0.27108 0.0
C2592 C 0.58059 0.34153 0.14791 0.0
C2593 C 0.56033 0.34108 0.171 0.0
C2594 C 0.56153 0.39485 0.16961 0.0
C2595 C 0.58103 0.39497 0.14588 0.0
N2596 N 0.60391 0.36735 0.1072 0.0
N2597 N 0.52654 0.36509 0.19864 0.0
C2598 C 0.58877 0.36788 0.13325 0.0
C2599 C 0.54939 0.36716 0.18039 0.0
N2600 N 0.59361 0.31756 0.14151 0.0
N2601 N 0.55508 0.42136 0.18227 0.0
H2602 H 0.51671 0.3449 0.20608 0.0
H2603 H 0.5154 0.38233 0.20381 0.0
H2604 H 0.56207 0.44171 0.17359 0.0
H2605 H 0.54427 0.42364 0.2025 0.0
H2606 H 0.61123 0.31807 0.12795 0.0
H2607 H 0.5888 0.29799 0.15205 0.0
H2608 H 0.6072 0.34752 0.09457 0.0
H2609 H 0.61101 0.38644 0.09641 0.0
C2610 C 0.95706 0.34929 0.33777 0.0
C2611 C 0.97188 0.32529 0.33009 0.0
C2612 C 0.92008 0.29297 0.3059 0.0
C2613 C 0.90502 0.31624 0.31597 0.0
N2614 N 0.91109 0.36411 0.34991 0.0
N2615 N 0.96509 0.27205 0.31113 0.0
C2616 C 0.92419 0.34381 0.33393 0.0
C2617 C 0.95254 0.29651 0.31557 0.0
N2618 N 0.97438 0.37772 0.34928 0.0
N2619 N 0.90358 0.26756 0.28569 0.0
H2620 H 0.9884 0.27378 0.31593 0.0
H2621 H 0.95227 0.24984 0.30484 0.0
H2622 H 0.88031 0.26387 0.27852 0.0
H2623 H 0.91318 0.25128 0.27414 0.0
H2624 H 0.96548 0.3969 0.35178 0.0
H2625 H 0.99794 0.38235 0.35384 0.0
H2626 H 0.92327 0.38291 0.36654 0.0
H2627 H 0.88775 0.36025 0.34905 0.0
C2628 C 1.01382 0.66932 0.61889 0.0
C2629 C 0.03644 0.68107 0.64689 0.0
C2630 C 0.06394 0.64199 0.62835 0.0
C2631 C 0.04073 0.62938 0.60105 0.0
N2632 N 0.99707 0.63601 0.56675 0.0
N2633 N 0.08244 0.6769 0.679 0.0
C2634 C 0.01666 0.64451 0.5954 0.0
C2635 C 0.06118 0.66675 0.65177 0.0
N2636 N 0.98857 0.68091 0.61559 0.0
N2637 N 0.09019 0.63214 0.63043 0.0
H2638 H 0.08351 0.69679 0.69449 0.0
H2639 H 0.09817 0.66497 0.68716 0.0
H2640 H 0.09353 0.61502 0.61362 0.0
H2641 H 0.10973 0.64251 0.64687 0.0
H2642 H 0.9695 0.67166 0.59813 0.0
H2643 H 0.98544 0.69849 0.63218 0.0
H2644 H 0.98104 0.64773 0.55898 0.0
H2645 H 0.99856 0.61862 0.54898 0.0
C2646 C 0.67464 0.84759 0.81332 0.0
C2647 C 0.65804 0.8306 0.83452 0.0
C2648 C 0.70018 0.8022 0.83844 0.0
C2649 C 0.71741 0.81995 0.81817 0.0
N2650 N 0.71551 0.85483 0.78034 0.0
N2651 N 0.65763 0.79226 0.86886 0.0
C2652 C 0.70304 0.84147 0.80429 0.0
C2653 C 0.67171 0.80807 0.84732 0.0
N2654 N 0.66418 0.87118 0.80305 0.0
N2655 N 0.71043 0.77845 0.8484 0.0
H2656 H 0.63596 0.79324 0.87349 0.0
H2657 H 0.66777 0.77919 0.88338 0.0
H2658 H 0.73128 0.77455 0.84425 0.0
H2659 H 0.69795 0.76173 0.85918 0.0
H2660 H 0.67639 0.88705 0.79106 0.0
H2661 H 0.64408 0.87628 0.80871 0.0
H2662 H 0.70422 0.86645 0.765 0.0
H2663 H 0.73603 0.85181 0.77371 0.0
C2664 C 0.51937 0.51949 0.68354 0.0
C2665 C 0.49689 0.53511 0.69132 0.0
C2666 C 0.50448 0.56193 0.64405 0.0
C2667 C 0.52586 0.54507 0.63487 0.0
N2668 N 0.55998 0.51404 0.6536 0.0
N2669 N 0.46398 0.56718 0.6749 0.0
C2670 C 0.53513 0.52569 0.65677 0.0
C2671 C 0.48823 0.55503 0.6703 0.0
N2672 N 0.524 0.49652 0.70013 0.0
N2673 N 0.502 0.58694 0.63008 0.0
H2674 H 0.45182 0.56338 0.69385 0.0
H2675 H 0.45409 0.57862 0.65818 0.0
H2676 H 0.51598 0.59528 0.61393 0.0
H2677 H 0.48931 0.60207 0.63789 0.0
H2678 H 0.53646 0.48101 0.69275 0.0
H2679 H 0.51272 0.49067 0.71931 0.0
H2680 H 0.57082 0.50507 0.67207 0.0
H2681 H 0.57139 0.51442 0.63387 0.0
C2682 C 0.77813 0.19126 0.99043 0.0
C2683 C 0.77516 0.20147 0.02274 0.0
C2684 C 0.75478 0.24295 0.00546 0.0
C2685 C 0.75161 0.22888 0.97289 0.0
N2686 N 0.76022 0.18926 0.93355 0.0
N2687 N 0.75839 0.2356 0.06153 0.0
C2688 C 0.76378 0.20323 0.96497 0.0
C2689 C 0.76344 0.22731 0.03064 0.0
N2690 N 0.79476 0.1702 0.98425 0.0
N2691 N 0.74942 0.27119 0.01215 0.0
H2692 H 0.76377 0.22447 0.08085 0.0
H2693 H 0.74653 0.25208 0.06747 0.0
H2694 H 0.74343 0.28333 0.99389 0.0
H2695 H 0.75401 0.28367 0.03544 0.0
H2696 H 0.80017 0.16391 0.96142 0.0
H2697 H 0.80576 0.16123 1.00268 0.0
H2698 H 0.76499 0.16822 0.92712 0.0
H2699 H 0.75052 0.19739 0.91376 0.0
C2700 C 0.14066 0.52864 0.1604 0.0
C2701 C 0.15466 0.55732 0.179 0.0
C2702 C 0.11428 0.5793 0.15648 0.0
C2703 C 0.10236 0.55177 0.1353 0.0
N2704 N 0.09652 0.49799 0.12365 0.0
N2705 N 0.1565 0.61073 0.1943 0.0
C2706 C 0.11324 0.52562 0.13918 0.0
C2707 C 0.14193 0.58291 0.17706 0.0
N2708 N 0.15432 0.50491 0.16219 0.0
N2709 N 0.09793 0.60107 0.15828 0.0
H2710 H 0.17618 0.61442 0.21112 0.0
H2711 H 0.15024 0.63074 0.19033 0.0
H2712 H 0.07686 0.59829 0.144 0.0
H2713 H 0.10368 0.62045 0.17576 0.0
H2714 H 0.14686 0.48413 0.14698 0.0
H2715 H 0.17461 0.50669 0.17761 0.0
H2716 H 0.10191 0.4775 0.12704 0.0
H2717 H 0.07549 0.49544 0.10933 0.0
C2718 C 0.81597 0.87304 0.44158 0.0
C2719 C 0.82646 0.85734 0.46622 0.0
C2720 C 0.8268 0.81526 0.42362 0.0
C2721 C 0.82099 0.83283 0.39888 0.0
N2722 N 0.81273 0.88052 0.38543 0.0
N2723 N 0.84664 0.81508 0.47985 0.0
C2724 C 0.81646 0.86236 0.40825 0.0
C2725 C 0.83311 0.82883 0.45701 0.0
N2726 N 0.80377 0.89724 0.44977 0.0
N2727 N 0.82496 0.78511 0.41546 0.0
H2728 H 0.85218 0.82438 0.50438 0.0
H2729 H 0.85498 0.79592 0.47391 0.0
H2730 H 0.82014 0.77446 0.39148 0.0
H2731 H 0.82541 0.7704 0.43247 0.0
H2732 H 0.7927 0.90753 0.4327 0.0
H2733 H 0.80151 0.90489 0.47357 0.0
H2734 H 0.81321 0.90348 0.39114 0.0
H2735 H 0.8115 0.87324 0.36085 0.0
C2736 C 0.53091 0.55201 0.8885 0.0
C2737 C 0.50393 0.53032 0.87396 0.0
C2738 C 0.50049 0.51196 0.9266 0.0
C2739 C 0.52708 0.53457 0.94178 0.0
N2740 N 0.57307 0.56722 0.93295 0.0
N2741 N 0.46057 0.49238 0.88003 0.0
C2742 C 0.54368 0.55233 0.92153 0.0
C2743 C 0.48839 0.5107 0.89315 0.0
N2744 N 0.54412 0.57288 0.8709 0.0
N2745 N 0.48691 0.49094 0.94366 0.0
H2746 H 0.45075 0.49098 0.85596 0.0
H2747 H 0.44584 0.48043 0.89339 0.0
H2748 H 0.49259 0.49215 0.96839 0.0
H2749 H 0.47113 0.47107 0.93306 0.0
H2750 H 0.56145 0.5917 0.88114 0.0
H2751 H 0.53623 0.5726 0.84642 0.0
H2752 H 0.58743 0.57869 0.91888 0.0
H2753 H 0.58435 0.56451 0.95516 0.0
C2754 C 0.77558 0.20702 0.19037 0.0
C2755 C 0.80293 0.2013 0.18195 0.0
C2756 C 0.8312 0.25082 0.21124 0.0
C2757 C 0.80323 0.25702 0.21793 0.0
N2758 N 0.74831 0.24355 0.20535 0.0
N2759 N 0.85699 0.21476 0.18582 0.0
C2760 C 0.77547 0.23596 0.20558 0.0
C2761 C 0.83097 0.22232 0.19319 0.0
N2762 N 0.74897 0.18556 0.18153 0.0
N2763 N 0.85752 0.2726 0.22118 0.0
H2764 H 0.85679 0.19347 0.1733 0.0
H2765 H 0.87866 0.22853 0.19286 0.0
H2766 H 0.85828 0.29381 0.23412 0.0
H2767 H 0.87875 0.27024 0.21651 0.0
H2768 H 0.72826 0.18952 0.18671 0.0
H2769 H 0.74799 0.16344 0.17099 0.0
H2770 H 0.74607 0.26543 0.21263 0.0
H2771 H 0.74607 0.26543 0.21263 0.0
C2772 C 0.13696 0.58719 0.32419 0.0
C2773 C 0.16738 0.6036 0.32668 0.0
C2774 C 0.16159 0.63825 0.37307 0.0
C2775 C 0.13028 0.6243 0.36803 0.0
N2776 N 0.08706 0.58675 0.33828 0.0
N2777 N 0.20804 0.6469 0.3504 0.0
C2778 C 0.11758 0.59909 0.34336 0.0
C2779 C 0.17966 0.62964 0.35036 0.0
N2780 N 0.12709 0.55973 0.30446 0.0
N2781 N 0.17432 0.65873 0.40038 0.0
H2782 H 0.22261 0.64102 0.33483 0.0
H2783 H 0.21611 0.6684 0.36406 0.0
H2784 H 0.16178 0.66581 0.41767 0.0
H2785 H 0.19761 0.6665 0.40732 0.0
H2786 H 0.10609 0.54521 0.30398 0.0
H2787 H 0.14102 0.55008 0.29057 0.0
H2788 H 0.07597 0.57025 0.31864 0.0
H2789 H 0.07232 0.59463 0.35246 0.0
C2790 C 0.79756 0.85942 0.66254 0.0
C2791 C 0.82435 0.85864 0.64867 0.0
C2792 C 0.8373 0.82579 0.68798 0.0
C2793 C 0.8141 0.83168 0.70612 0.0
N2794 N 0.77064 0.85374 0.70846 0.0
N2795 N 0.87278 0.84529 0.65324 0.0
C2796 C 0.79407 0.84878 0.69293 0.0
C2797 C 0.84498 0.84291 0.66274 0.0
N2798 N 0.77424 0.86804 0.64539 0.0
N2799 N 0.85158 0.80315 0.69352 0.0
H2800 H 0.87994 0.85838 0.63583 0.0
H2801 H 0.88989 0.83694 0.66524 0.0
H2802 H 0.8474 0.78958 0.71122 0.0
H2803 H 0.8661 0.79619 0.67846 0.0
H2804 H 0.75302 0.86652 0.65249 0.0
H2805 H 0.77482 0.87317 0.62197 0.0
H2806 H 0.75818 0.86955 0.7029 0.0
H2807 H 0.76399 0.84255 0.7274 0.0
C2808 C 0.77105 0.53495 0.52627 0.0
C2809 C 0.75942 0.50321 0.5213 0.0
C2810 C 0.72391 0.5082 0.55883 0.0
C2811 C 0.73897 0.53929 0.56796 0.0
N2812 N 0.77511 0.58338 0.55952 0.0
N2813 N 0.71538 0.46306 0.51871 0.0
C2814 C 0.7619 0.55313 0.55121 0.0
C2815 C 0.73275 0.49081 0.53314 0.0
N2816 N 0.78925 0.54751 0.50576 0.0
N2817 N 0.70218 0.49509 0.5756 0.0
H2818 H 0.72031 0.45146 0.49776 0.0
H2819 H 0.69438 0.45351 0.52465 0.0
H2820 H 0.69527 0.50701 0.59499 0.0
H2821 H 0.69278 0.47188 0.57212 0.0
H2822 H 0.79743 0.57069 0.50673 0.0
H2823 H 0.79308 0.53464 0.48503 0.0
H2824 H 0.79431 0.5941 0.55091 0.0
H2825 H 0.76784 0.59774 0.57653 0.0
C2826 C 0.17269 0.13177 0.50343 0.0
C2827 C 0.19497 0.1447 0.53098 0.0
C2828 C 0.16389 0.11528 0.56512 0.0
C2829 C 0.14201 0.10144 0.53724 0.0
N2830 N 0.13109 0.08959 0.47888 0.0
N2831 N 0.21542 0.14321 0.58629 0.0
C2832 C 0.14793 0.1078 0.50608 0.0
C2833 C 0.19165 0.13473 0.56131 0.0
N2834 N 0.17491 0.14262 0.47477 0.0
N2835 N 0.15764 0.11116 0.59543 0.0
H2836 H 0.23607 0.15705 0.58406 0.0
H2837 H 0.21571 0.13426 0.6079 0.0
H2838 H 0.13746 0.09768 0.59945 0.0
H2839 H 0.17114 0.12338 0.61676 0.0
H2840 H 0.1576 0.1364 0.45485 0.0
H2841 H 0.1931 0.15966 0.47177 0.0
H2842 H 0.136 0.09124 0.45554 0.0
H2843 H 0.11457 0.07037 0.48009 0.0
C2844 C 0.17532 0.98002 0.77108 0.0
C2845 C 0.18598 1.00271 0.79904 0.0
C2846 C 0.23306 0.98541 0.80869 0.0
C2847 C 0.22293 0.96389 0.78007 0.0
N2848 N 0.18157 0.93359 0.74063 0.0
N2849 N 0.21954 0.01959 0.8502 0.0
C2850 C 0.19291 0.95869 0.76369 0.0
C2851 C 0.21311 1.00289 0.8198 0.0
N2852 N 0.1499 0.98003 0.75015 0.0
N2853 N 0.26221 0.9903 0.8242 0.0
H2854 H 0.20468 0.03168 0.85943 0.0
H2855 H 0.23778 0.0188 0.86738 0.0
H2856 H 0.27706 0.97708 0.81737 0.0
H2857 H 0.27212 1.0084 0.8427 0.0
H2858 H 0.14393 0.96684 0.72722 0.0
H2859 H 0.13554 0.9944 0.75445 0.0
H2860 H 0.15893 0.92697 0.72973 0.0
H2861 H 0.19426 0.91773 0.73493 0.0
C2862 C 0.42897 0.99275 0.98965 0.0
C2863 C 0.41136 1.00057 0.01332 0.0
C2864 C 0.45398 0.03924 0.04387 0.0
C2865 C 0.47195 0.03149 0.0204 0.0
N2866 N 0.47566 1.00545 0.96776 0.0
N2867 N 0.40701 0.02704 0.06533 0.0
C2868 C 0.45932 1.00926 0.99251 0.0
C2869 C 0.42369 0.02288 0.04092 0.0
N2870 N 0.41673 0.9693 0.96472 0.0
N2871 N 0.46569 0.06274 0.06862 0.0
H2872 H 0.38437 0.01594 0.064 0.0
H2873 H 0.41603 0.03972 0.08812 0.0
H2874 H 0.48852 0.07313 0.07356 0.0
H2875 H 0.45281 0.07275 0.08349 0.0
H2876 H 0.42942 0.95963 0.94932 0.0
H2877 H 0.39385 0.95816 0.96029 0.0
H2878 H 0.46663 0.99238 0.94518 0.0
H2879 H 0.49802 0.01707 0.96867 0.0
C2880 C 0.87326 0.62712 0.82096 0.0
C2881 C 0.85672 0.59814 0.82377 0.0
C2882 C 0.81545 0.60222 0.78304 0.0
C2883 C 0.8352 0.62782 0.77521 0.0
N2884 N 0.88288 0.66491 0.78623 0.0
N2885 N 0.80753 0.56534 0.82003 0.0
C2886 C 0.86393 0.64067 0.79436 0.0
C2887 C 0.82616 0.58785 0.80868 0.0
N2888 N 0.89725 0.64177 0.84431 0.0
N2889 N 0.78707 0.59139 0.76539 0.0
H2890 H 0.81475 0.55698 0.84092 0.0
H2891 H 0.78453 0.55723 0.81126 0.0
H2892 H 0.77848 0.60187 0.74683 0.0
H2893 H 0.77243 0.57134 0.76794 0.0
H2894 H 0.90904 0.66404 0.84494 0.0
H2895 H 0.9027 0.63272 0.8653 0.0
H2896 H 0.90549 0.67225 0.79701 0.0
H2897 H 0.87677 0.67588 0.76698 0.0
C2898 C 0.85106 0.64174 0.02704 0.0
C2899 C 0.85227 0.6692 0.04763 0.0
C2900 C 0.89358 0.65954 0.08504 0.0
C2901 C 0.88812 0.62987 0.06754 0.0
N2902 N 0.86193 0.59189 0.02211 0.0
N2903 N 0.87501 0.70475 0.09667 0.0
C2904 C 0.86714 0.6208 0.03839 0.0
C2905 C 0.87405 0.67863 0.07644 0.0
N2906 N 0.83503 0.63613 0.99631 0.0
N2907 N 0.91754 0.66947 0.1098 0.0
H2908 H 0.86314 0.72079 0.09059 0.0
H2909 H 0.88662 0.70994 0.12037 0.0
H2910 H 0.93192 0.65586 0.11724 0.0
H2911 H 0.92472 0.69186 0.12125 0.0
H2912 H 0.83522 0.61773 0.97909 0.0
H2913 H 0.82407 0.65174 0.98687 0.0
H2914 H 0.8442 0.58272 1.00301 0.0
H2915 H 0.87425 0.57632 0.02897 0.0
C2916 C 0.2258 0.16305 0.78856 0.0
C2917 C 0.21003 0.16261 0.81553 0.0
C2918 C 0.23663 0.21565 0.83578 0.0
C2919 C 0.25359 0.21585 0.80923 0.0
N2920 N 0.26962 0.18483 0.76601 0.0
N2921 N 0.2034 0.18655 0.86743 0.0
C2922 C 0.24993 0.18818 0.78742 0.0
C2923 C 0.21613 0.18846 0.83976 0.0
N2924 N 0.21682 0.13988 0.76289 0.0
N2925 N 0.24053 0.24132 0.85785 0.0
H2926 H 0.18811 0.16719 0.87091 0.0
H2927 H 0.20945 0.20315 0.88795 0.0
H2928 H 0.25855 0.25997 0.85982 0.0
H2929 H 0.22553 0.24445 0.87397 0.0
H2930 H 0.2245 0.14086 0.74064 0.0
H2931 H 0.19936 0.12098 0.76247 0.0
H2932 H 0.26992 0.16388 0.75321 0.0
H2933 H 0.28766 0.20152 0.76271 0.0
C2934 C 0.3462 0.93613 0.296 0.0
C2935 C 0.37176 0.94733 0.32048 0.0
C2936 C 0.36181 0.90136 0.34422 0.0
C2937 C 0.33582 0.88975 0.32004 0.0
N2938 N 0.30118 0.89659 0.27486 0.0
N2939 N 0.40925 0.93828 0.36139 0.0
C2940 C 0.32764 0.90712 0.29609 0.0
C2941 C 0.38132 0.92916 0.34247 0.0
N2942 N 0.34046 0.95297 0.27222 0.0
N2943 N 0.36659 0.88707 0.37038 0.0
H2944 H 0.42444 0.95856 0.36044 0.0
H2945 H 0.4186 0.92439 0.37553 0.0
H2946 H 0.35395 0.86573 0.37193 0.0
H2947 H 0.3822 0.89696 0.3912 0.0
H2948 H 0.32391 0.94518 0.25178 0.0
H2949 H 0.35394 0.97435 0.27162 0.0
H2950 H 0.29157 0.90938 0.25955 0.0
H2951 H 0.28824 0.8747 0.27306 0.0
C2952 C 0.6055 0.42539 0.57338 0.0
C2953 C 0.586 0.40821 0.59219 0.0
C2954 C 0.55712 0.4499 0.59263 0.0
C2955 C 0.57659 0.46724 0.57391 0.0
N2956 N 0.61825 0.46883 0.54425 0.0
N2957 N 0.54419 0.40685 0.62186 0.0
C2958 C 0.60058 0.45414 0.56396 0.0
C2959 C 0.56214 0.42143 0.60226 0.0
N2960 N 0.62994 0.41484 0.56571 0.0
N2961 N 0.53299 0.4605 0.60094 0.0
H2962 H 0.54473 0.38515 0.62669 0.0
H2963 H 0.52954 0.4164 0.63458 0.0
H2964 H 0.53 0.48162 0.59665 0.0
H2965 H 0.51555 0.4485 0.61115 0.0
H2966 H 0.64706 0.42655 0.55487 0.0
H2967 H 0.63408 0.39454 0.57186 0.0
H2968 H 0.63435 0.46025 0.53307 0.0
H2969 H 0.61568 0.48943 0.53748 0.0
C2970 C 0.40111 0.76951 0.40725 0.0
C2971 C 0.42895 0.79174 0.41539 0.0
C2972 C 0.40724 0.82317 0.37874 0.0
C2973 C 0.37815 0.80217 0.37241 0.0
N2974 N 0.34782 0.75522 0.38319 0.0
N2975 N 0.45548 0.84291 0.41436 0.0
C2976 C 0.37523 0.77549 0.38771 0.0
C2977 C 0.43105 0.81934 0.40256 0.0
N2978 N 0.3998 0.74185 0.41683 0.0
N2979 N 0.41296 0.84683 0.36175 0.0
H2980 H 0.47308 0.84138 0.43189 0.0
H2981 H 0.45673 0.8649 0.40952 0.0
H2982 H 0.39698 0.8524 0.34529 0.0
H2983 H 0.43468 0.85991 0.36204 0.0
H2984 H 0.38187 0.72308 0.40858 0.0
H2985 H 0.41786 0.73699 0.43136 0.0
H2986 H 0.34283 0.7381 0.39717 0.0
H2987 H 0.32945 0.75589 0.36619 0.0
C2988 C 0.09831 0.70431 0.11308 0.0
C2989 C 0.08277 0.72092 0.09261 0.0
C2990 C 0.05586 0.67046 0.05914 0.0
C2991 C 0.07324 0.65423 0.07804 0.0
N2992 N 0.11432 0.65772 0.12098 0.0
N2993 N 0.04848 0.71859 0.04358 0.0
C2994 C 0.09535 0.67189 0.10439 0.0
C2995 C 0.06224 0.70351 0.06479 0.0
N2996 N 0.11576 0.71944 0.14158 0.0
N2997 N 0.03206 0.65412 0.03647 0.0
H2998 H 0.05145 0.74208 0.04753 0.0
H2999 H 0.03594 0.70819 0.02108 0.0
H3000 H 0.02655 0.63049 0.03217 0.0
H3001 H 1.01623 0.66363 0.02401 0.0
H3002 H 0.12462 0.70871 0.15967 0.0
H3003 H 0.11977 0.74282 0.14829 0.0
H3004 H 0.13337 0.66905 0.13772 0.0
H3005 H 0.11238 0.6345 0.11582 0.0
C3006 C 0.0945 0.32121 0.90594 0.0
C3007 C 0.0936 0.30388 0.93186 0.0
C3008 C 0.14651 0.30076 0.92956 0.0
C3009 C 0.14714 0.31763 0.9034 0.0
N3010 N 0.12033 0.33878 0.86235 0.0
N3011 N 0.11727 0.27361 0.96546 0.0
C3012 C 0.12057 0.32599 0.89007 0.0
C3013 C 0.11922 0.29266 0.94283 0.0
N3014 N 0.07146 0.33511 0.89809 0.0
N3015 N 0.17242 0.29317 0.94231 0.0
H3016 H 0.09858 0.26858 0.97726 0.0
H3017 H 0.13334 0.26129 0.97132 0.0
H3018 H 0.19203 0.29645 0.93162 0.0
H3019 H 0.17508 0.28482 0.96416 0.0
H3020 H 0.0723 0.35079 0.88208 0.0
H3021 H 0.05252 0.33334 0.90982 0.0
H3022 H 0.10075 0.34214 0.84922 0.0
H3023 H 0.13931 0.34383 0.85086 0.0
C3024 C 0.53019 0.74062 0.89858 0.0
C3025 C 0.55458 0.76555 0.91325 0.0
C3026 C 0.55884 0.74207 0.96282 0.0
C3027 C 0.53531 0.71687 0.94743 0.0
N3028 N 0.50614 0.68784 0.89757 0.0
N3029 N 0.59766 0.78503 0.95585 0.0
C3030 C 0.52382 0.71467 0.91413 0.0
C3031 C 0.57068 0.76473 0.94433 0.0
N3032 N 0.51123 0.74243 0.87139 0.0
N3033 N 0.56899 0.74513 0.99532 0.0
H3034 H 0.60778 0.80091 0.94238 0.0
H3035 H 0.61157 0.78389 0.97708 0.0
H3036 H 0.56141 0.72873 0.00943 0.0
H3037 H 0.58345 0.7648 0.00861 0.0
H3038 H 0.49142 0.72601 0.86203 0.0
H3039 H 0.51297 0.76164 0.86028 0.0
H3040 H 0.4992 0.68413 0.87251 0.0
H3041 H 0.50128 0.66842 0.90846 0.0
C3042 C 0.15923 0.80932 0.76084 0.0
C3043 C 0.13935 0.77983 0.75316 0.0
C3044 C 0.18621 0.75897 0.75973 0.0
C3045 C 0.20676 0.78855 0.76733 0.0
N3046 N 0.20951 0.84265 0.77072 0.0
N3047 N 0.13503 0.72622 0.7444 0.0
C3048 C 0.1922 0.81377 0.76651 0.0
C3049 C 0.15332 0.75471 0.75306 0.0
N3050 N 0.14642 0.8337 0.76514 0.0
N3051 N 0.19816 0.73422 0.7571 0.0
H3052 H 0.11155 0.72199 0.74194 0.0
H3053 H 0.14247 0.70656 0.73862 0.0
H3054 H 0.2198 0.73559 0.75176 0.0
H3055 H 0.18639 0.71241 0.75829 0.0
H3056 H 0.15855 0.85561 0.7749 0.0
H3057 H 0.12303 0.83164 0.76197 0.0
H3058 H 0.20146 0.86064 0.76294 0.0
H3059 H 0.23203 0.84914 0.78135 0.0
C3060 C 0.08972 0.43167 0.46331 0.0
C3061 C 0.07458 0.42527 0.43047 0.0
C3062 C 0.0637 0.47622 0.43848 0.0
C3063 C 0.07197 0.47987 0.47311 0.0
N3064 N 0.10125 0.46366 0.51622 0.0
N3065 N 0.04236 0.44111 0.38911 0.0
C3066 C 0.08702 0.45795 0.4849 0.0
C3067 C 0.06009 0.44736 0.4189 0.0
N3068 N 0.10833 0.41365 0.4733 0.0
N3069 N 0.06277 0.50062 0.42305 0.0
H3070 H 0.03901 0.42073 0.37358 0.0
H3071 H 0.02874 0.45529 0.38132 0.0
H3072 H 0.07151 0.52285 0.43425 0.0
H3073 H 0.05858 0.49883 0.39782 0.0
H3074 H 0.12174 0.41731 0.49594 0.0
H3075 H 0.11265 0.39597 0.4578 0.0
H3076 H 0.1105 0.44831 0.52799 0.0
H3077 H 0.10465 0.48467 0.53038 0.0
C3078 C 0.43314 0.25092 0.26261 0.0
C3079 C 0.45383 0.27369 0.25049 0.0
C3080 C 0.41398 0.30453 0.25358 0.0
C3081 C 0.39453 0.28326 0.26867 0.0
N3082 N 0.39006 0.2372 0.29164 0.0
N3083 N 0.46466 0.32586 0.24265 0.0
C3084 C 0.40549 0.25673 0.27414 0.0
C3085 C 0.4442 0.30139 0.24827 0.0
N3086 N 0.4391 0.22289 0.26197 0.0
N3087 N 0.40299 0.32729 0.24219 0.0
H3088 H 0.48706 0.32526 0.24095 0.0
H3089 H 0.46059 0.34752 0.24389 0.0
H3090 H 0.38117 0.32967 0.24417 0.0
H3091 H 0.41399 0.34132 0.22749 0.0
H3092 H 0.42375 0.20412 0.26651 0.0
H3093 H 0.45842 0.21777 0.25406 0.0
H3094 H 0.39801 0.2193 0.29976 0.0
H3095 H 0.37062 0.24058 0.3007 0.0
C3096 C 0.59091 0.5474 0.39945 0.0
C3097 C 0.61678 0.57063 0.39842 0.0
C3098 C 0.62805 0.57657 0.45862 0.0
C3099 C 0.59943 0.557 0.45981 0.0
N3100 N 0.56944 0.50991 0.43079 0.0
N3101 N 0.65906 0.60923 0.42821 0.0
C3102 C 0.58462 0.5387 0.42995 0.0
C3103 C 0.63507 0.58566 0.42839 0.0
N3104 N 0.57243 0.53293 0.37134 0.0
N3105 N 0.65053 0.5826 0.48479 0.0
H3106 H 0.66497 0.61659 0.40686 0.0
H3107 H 0.67115 0.62324 0.44933 0.0
H3108 H 0.64882 0.57128 0.50465 0.0
H3109 H 0.67258 0.59455 0.48451 0.0
H3110 H 0.55168 0.51798 0.37118 0.0
H3111 H 0.57675 0.53751 0.34846 0.0
H3112 H 0.5613 0.49376 0.41 0.0
H3113 H 0.56938 0.50125 0.45265 0.0
C3114 C 0.32625 0.89401 0.09898 0.0
C3115 C 0.34373 0.9216 0.09264 0.0
C3116 C 0.37749 0.92708 0.14374 0.0
C3117 C 0.36387 0.89706 0.14668 0.0
N3118 N 0.32537 0.85098 0.12745 0.0
N3119 N 0.38961 0.96163 0.1062 0.0
C3120 C 0.33807 0.88021 0.1245 0.0
C3121 C 0.37016 0.93769 0.11442 0.0
N3122 N 0.2981 0.88162 0.08134 0.0
N3123 N 0.3971 0.94557 0.16906 0.0
H3124 H 0.38647 0.96902 0.08385 0.0
H3125 H 0.41074 0.97171 0.12007 0.0
H3126 H 0.40291 0.93843 0.19115 0.0
H3127 H 0.40497 0.96872 0.16914 0.0
H3128 H 0.2832 0.86302 0.08687 0.0
H3129 H 0.28839 0.89173 0.0631 0.0
H3130 H 0.30861 0.83655 0.10993 0.0
H3131 H 0.33292 0.84051 0.14654 0.0
C3132 C 0.98638 0.57019 0.93142 0.0
C3133 C 0.96612 0.54197 0.91854 0.0
C3134 C 0.99494 0.5158 0.95301 0.0
C3135 C 1.0123 0.54421 0.96958 0.0
N3136 N 0.02836 0.59844 0.97237 0.0
N3137 N 0.94734 0.48888 0.92032 0.0
C3138 C 1.00906 0.57152 0.95821 0.0
C3139 C 0.96936 0.51501 0.93018 0.0
N3140 N 0.98477 0.5952 0.91705 0.0
N3141 N 1.00322 0.48965 0.95833 0.0
H3142 H 0.92766 0.48772 0.90418 0.0
H3143 H 0.94709 0.46932 0.93072 0.0
H3144 H 0.02257 0.48927 0.97404 0.0
H3145 H 0.99266 0.46859 0.94461 0.0
H3146 H 1.00058 0.61583 0.92317 0.0
H3147 H 0.96831 0.59504 0.8974 0.0
H3148 H 0.025 0.61957 0.96845 0.0
H3149 H 0.04807 0.59969 0.98844 0.0
C3150 C 0.2962 0.28029 0.64406 0.0
C3151 C 0.28696 0.24891 0.63124 0.0
C3152 C 0.27962 0.2381 0.68624 0.0
C3153 C 0.2925 0.26892 0.69988 0.0
N3154 N 0.31794 0.31862 0.69139 0.0
N3155 N 0.27502 0.19734 0.64196 0.0
C3156 C 0.30188 0.2899 0.6786 0.0
C3157 C 0.28037 0.22768 0.65293 0.0
N3158 N 0.30002 0.30101 0.62329 0.0
N3159 N 0.26485 0.21894 0.70451 0.0
H3160 H 0.27499 0.18853 0.61792 0.0
H3161 H 0.27338 0.18106 0.65734 0.0
H3162 H 0.26221 0.22611 0.7282 0.0
H3163 H 0.25213 0.19714 0.69504 0.0
H3164 H 0.30336 0.32423 0.63072 0.0
H3165 H 0.29763 0.29482 0.59818 0.0
H3166 H 0.32795 0.33411 0.67751 0.0
H3167 H 0.32408 0.32604 0.71627 0.0
C3168 C 0.60964 0.59846 0.19342 0.0
C3169 C 0.60866 0.57261 0.20934 0.0
C3170 C 0.58451 0.54049 0.15684 0.0
C3171 C 0.58903 0.5661 0.14035 0.0
N3172 N 0.6148 0.61815 0.14307 0.0
N3173 N 0.60162 0.51814 0.20303 0.0
C3174 C 0.60396 0.59477 0.15873 0.0
C3175 C 0.59778 0.54333 0.1902 0.0
N3176 N 0.6152 0.62668 0.21131 0.0
N3177 N 0.56689 0.51344 0.14098 0.0
H3178 H 0.61244 0.51901 0.22658 0.0
H3179 H 0.59693 0.49667 0.18917 0.0
H3180 H 0.55634 0.51073 0.11706 0.0
H3181 H 0.56038 0.49473 0.15248 0.0
H3182 H 0.61344 0.64587 0.20086 0.0
H3183 H 0.61812 0.63037 0.23663 0.0
H3184 H 0.62839 0.63878 0.1552 0.0
H3185 H 0.61345 0.61533 0.11789 0.0
C3186 C 0.27943 0.8931 0.89746 0.0
C3187 C 0.30371 0.89895 0.92341 0.0
C3188 C 0.32854 0.8642 0.89459 0.0
C3189 C 0.30321 0.85679 0.86943 0.0
N3190 N 0.25185 0.85852 0.84969 0.0
N3191 N 0.34868 0.88682 0.95018 0.0
C3192 C 0.27779 0.86958 0.87164 0.0
C3193 C 0.32757 0.88361 0.92301 0.0
N3194 N 0.25845 0.9104 0.89723 0.0
N3195 N 0.35353 0.85282 0.89135 0.0
H3196 H 0.34904 0.90108 0.97167 0.0
H3197 H 0.36443 0.87347 0.95252 0.0
H3198 H 0.3542 0.83634 0.87224 0.0
H3199 H 0.37422 0.86087 0.90669 0.0
H3200 H 0.24217 0.90937 0.87715 0.0
H3201 H 0.2588 0.92748 0.91634 0.0
H3202 H 0.23173 0.86539 0.8515 0.0
H3203 H 0.24959 0.8402 0.83143 0.0
C3204 C 0.96557 0.51533 0.75247 0.0
C3205 C 0.94997 0.53896 0.75612 0.0
C3206 C 0.94487 0.54118 0.69817 0.0
C3207 C 0.95868 0.51627 0.69437 0.0
N3208 N 0.99042 0.48592 0.71723 0.0
N3209 N 0.9316 0.57948 0.73561 0.0
C3210 C 0.97205 0.50564 0.72144 0.0
C3211 C 0.94216 0.5538 0.7299 0.0
N3212 N 0.97176 0.50038 0.77784 0.0
N3213 N 0.93308 0.55155 0.67141 0.0
H3214 H 0.92955 0.58888 0.75897 0.0
H3215 H 0.92725 0.59276 0.718 0.0
H3216 H 0.9357 0.54335 0.64789 0.0
H3217 H 0.91979 0.56741 0.67222 0.0
H3218 H 0.97904 0.48025 0.77527 0.0
H3219 H 0.96805 0.50704 0.80132 0.0
H3220 H 1.00307 0.47949 0.7364 0.0
H3221 H 0.99522 0.47819 0.69447 0.0
C3222 C 0.27284 0.26974 0.43496 0.0
C3223 C 0.28805 0.24747 0.44453 0.0
C3224 C 0.31427 0.25106 0.3962 0.0
C3225 C 0.29771 0.27214 0.38525 0.0
N3226 N 0.26692 0.30745 0.40075 0.0
N3227 N 0.32095 0.2143 0.432 0.0
C3228 C 0.2787 0.28319 0.40651 0.0
C3229 C 0.30792 0.23732 0.42435 0.0
N3230 N 0.25072 0.2765 0.45175 0.0
N3231 N 0.33863 0.24665 0.38194 0.0
H3232 H 0.31953 0.20557 0.45365 0.0
H3233 H 0.33164 0.20255 0.41599 0.0
H3234 H 0.34664 0.25879 0.36419 0.0
H3235 H 0.35359 0.23412 0.39054 0.0
H3236 H 0.23538 0.28884 0.4436 0.0
H3237 H 0.24561 0.26737 0.47247 0.0
H3238 H 0.25805 0.31977 0.41813 0.0
H3239 H 0.26704 0.31681 0.37955 0.0
C3240 C 0.35974 0.58848 0.58126 0.0
C3241 C 0.35304 0.61491 0.57107 0.0
C3242 C 0.38097 0.60985 0.52604 0.0
C3243 C 0.38156 0.58032 0.53203 0.0
N3244 N 0.37339 0.54102 0.56559 0.0
N3245 N 0.35461 0.64976 0.53161 0.0
C3246 C 0.37191 0.56955 0.56004 0.0
C3247 C 0.36344 0.62585 0.54332 0.0
N3248 N 0.3542 0.58167 0.61103 0.0
N3249 N 0.39721 0.62258 0.504 0.0
H3250 H 0.3416 0.66271 0.54287 0.0
H3251 H 0.35838 0.65542 0.50896 0.0
H3252 H 0.41038 0.6113 0.49062 0.0
H3253 H 0.40001 0.64534 0.50142 0.0
H3254 H 0.36075 0.56392 0.62106 0.0
H3255 H 0.34547 0.59568 0.62705 0.0
H3256 H 0.36384 0.53085 0.58385 0.0
H3257 H 0.38263 0.52665 0.55061 0.0
C3258 C 0.94558 0.94749 0.55768 0.0
C3259 C 0.92282 0.95961 0.57078 0.0
C3260 C 0.95902 1.00951 0.58474 0.0
C3261 C 0.98076 0.9976 0.56921 0.0
N3262 N 0.99905 0.95134 0.56464 0.0
N3263 N 0.90776 1.00301 0.597 0.0
C3264 C 0.97554 0.96542 0.56225 0.0
C3265 C 0.92949 0.9909 0.58436 0.0
N3266 N 0.93873 0.91916 0.53976 0.0
N3267 N 0.96827 0.0368 0.60445 0.0
H3268 H 0.88729 0.98993 0.6009 0.0
H3269 H 0.90961 0.02625 0.60248 0.0
H3270 H 0.99084 0.04853 0.60875 0.0
H3271 H 0.9551 0.04556 0.61994 0.0
H3272 H 0.95443 0.91084 0.52743 0.0
H3273 H 0.9168 0.90553 0.53409 0.0
H3274 H 0.99583 0.92782 0.56109 0.0
H3275 H 0.02063 0.96245 0.57664 0.0
C3276 C 0.89244 0.09382 0.30239 0.0
C3277 C 0.91588 0.09362 0.28321 0.0
C3278 C 0.91626 0.14557 0.27433 0.0
C3279 C 0.89286 0.14567 0.29343 0.0
N3280 N 0.85377 0.11841 0.31946 0.0
N3281 N 0.94576 0.11616 0.24538 0.0
C3282 C 0.87916 0.11917 0.30519 0.0
C3283 C 0.92649 0.11859 0.26746 0.0
N3284 N 0.88446 0.07089 0.31993 0.0
N3285 N 0.92922 0.17158 0.26359 0.0
H3286 H 0.95362 0.09664 0.23973 0.0
H3287 H 0.95204 0.13239 0.23069 0.0
H3288 H 0.9209 0.19116 0.26637 0.0
H3289 H 0.94898 0.1743 0.25327 0.0
H3290 H 0.87018 0.07158 0.33732 0.0
H3291 H 0.89405 0.05213 0.31932 0.0
H3292 H 0.84076 0.09866 0.32506 0.0
H3293 H 0.84411 0.13699 0.32333 0.0
C3294 C 0.67548 0.12898 0.07023 0.0
C3295 C 0.69441 0.10898 0.07684 0.0
C3296 C 0.65098 0.06602 0.0634 0.0
C3297 C 0.63163 0.08651 0.06252 0.0
N3298 N 0.62571 0.13814 0.07022 0.0
N3299 N 0.70016 0.05893 0.08458 0.0
C3300 C 0.64387 0.1182 0.06732 0.0
C3301 C 0.68225 0.07754 0.07461 0.0
N3302 N 0.68748 0.15785 0.06539 0.0
N3303 N 0.63962 0.03567 0.05321 0.0
H3304 H 0.7232 0.06668 0.09374 0.0
H3305 H 0.69153 0.03638 0.08675 0.0
H3306 H 0.61684 0.0263 0.04414 0.0
H3307 H 0.65328 0.02022 0.05064 0.0
H3308 H 0.67418 0.17216 0.05727 0.0
H3309 H 0.7106 0.16642 0.06585 0.0
H3310 H 0.63409 0.16139 0.07751 0.0
H3311 H 0.60241 0.13125 0.0682 0.0
C3312 C 0.24778 0.48388 0.26344 0.0
C3313 C 0.26248 0.51452 0.27436 0.0
C3314 C 0.2929 0.50134 0.3197 0.0
C3315 C 0.27416 0.47164 0.3123 0.0
N3316 N 0.23645 0.43272 0.27586 0.0
N3317 N 0.29929 0.55356 0.31148 0.0
C3318 C 0.25259 0.46217 0.28345 0.0
C3319 C 0.28583 0.52353 0.30152 0.0
N3320 N 0.22876 0.47618 0.23431 0.0
N3321 N 0.31718 0.50832 0.3442 0.0
H3322 H 0.29555 0.57041 0.29796 0.0
H3323 H 0.31321 0.56204 0.33373 0.0
H3324 H 0.32213 0.49313 0.35947 0.0
H3325 H 0.33368 0.52852 0.34811 0.0
H3326 H 0.21808 0.45409 0.22366 0.0
H3327 H 0.22537 0.49228 0.2195 0.0
H3328 H 0.21849 0.42478 0.25681 0.0
H3329 H 0.24048 0.41604 0.28948 0.0
C3330 C 0.26586 0.46397 0.03454 0.0
C3331 C 0.2677 0.44535 0.05903 0.0
C3332 C 0.21727 0.44942 0.07033 0.0
C3333 C 0.2156 0.46804 0.04595 0.0
N3334 N 0.2404 0.4992 0.01049 0.0
N3335 N 0.2485 0.42524 0.10461 0.0
C3336 C 0.24072 0.47747 0.03005 0.0
C3337 C 0.24438 0.43959 0.07831 0.0
N3338 N 0.28693 0.46701 0.01401 0.0
N3339 N 0.19255 0.44043 0.08507 0.0
H3340 H 0.26806 0.41766 0.11095 0.0
H3341 H 0.23379 0.42296 0.12162 0.0
H3342 H 0.17295 0.44858 0.08102 0.0
H3343 H 0.19079 0.42389 0.10008 0.0
H3344 H 0.28473 0.47722 0.99332 0.0
H3345 H 0.3055 0.45712 0.01592 0.0
H3346 H 0.25928 0.50936 1.00096 0.0
H3347 H 0.22201 0.50908 0.00611 0.0
C3348 C 0.90227 0.92373 0.3103 0.0
C3349 C 0.8987 0.93623 0.28121 0.0
C3350 C 0.85373 0.89486 0.26006 0.0
C3351 C 0.85604 0.88397 0.29027 0.0
N3352 N 0.87731 0.89418 0.34707 0.0
N3353 N 0.86809 0.93642 0.23013 0.0
C3354 C 0.87865 0.90036 0.31631 0.0
C3355 C 0.87337 0.92272 0.25668 0.0
N3356 N 0.92852 0.93349 0.332 0.0
N3357 N 0.83318 0.87823 0.23439 0.0
H3358 H 0.88294 0.95572 0.22582 0.0
H3359 H 0.84815 0.92969 0.21339 0.0
H3360 H 0.81808 0.85838 0.2366 0.0
H3361 H 0.83235 0.88304 0.21076 0.0
H3362 H 0.93329 0.92307 0.3521 0.0
H3363 H 0.94681 0.94994 0.32829 0.0
H3364 H 0.8913 0.90762 0.36751 0.0
H3365 H 0.86061 0.87699 0.35231 0.0
C3366 C 0.7325 0.18504 0.78445 0.0
C3367 C 0.75149 0.16664 0.77296 0.0
C3368 C 0.795 0.2081 0.79193 0.0
C3369 C 0.77596 0.22862 0.79476 0.0
N3370 N 0.72402 0.23487 0.79451 0.0
N3371 N 0.80101 0.16212 0.76166 0.0
C3372 C 0.74395 0.21677 0.79158 0.0
C3373 C 0.78285 0.17855 0.77542 0.0
N3374 N 0.70402 0.17235 0.79 0.0
N3375 N 0.82433 0.21644 0.80686 0.0
H3376 H 0.79262 0.14048 0.74824 0.0
H3377 H 0.82378 0.17144 0.76095 0.0
H3378 H 0.83159 0.23617 0.82382 0.0
H3379 H 0.83902 0.20183 0.80656 0.0
H3380 H 0.69106 0.18456 0.80257 0.0
H3381 H 0.69453 0.14915 0.78563 0.0
H3382 H 0.70068 0.22695 0.78738 0.0
H3383 H 0.73007 0.25788 0.80243 0.0
loop_
_geom_bond_atom_site_label_1
_geom_bond_atom_site_label_2
_geom_bond_distance
_geom_bond_site_symmetry_2
_ccdc_geom_bond_type
In0 O1 2.294 . S
In0 O2 2.326 . S
In0 O6 2.266 . S
In0 O7 2.326 . S
In0 O8 2.266 . S
In0 O9 2.326 . S
In0 O11 2.294 . S
In0 O12 2.326 . S
O1 In0 2.294 . S
O1 C10 1.240 . S
O2 In0 2.326 . S
O2 C10 1.252 . S
C3 O6 1.252 1_655 S
C3 O7 1.260 1_655 S
C4 O11 1.240 . S
C4 O12 1.252 . S
C5 O8 1.252 . S
C5 O9 1.260 . S
O6 In0 2.266 . S
O6 C3 1.252 1_455 S
O7 In0 2.326 . S
O7 C3 1.260 1_455 S
O8 In0 2.266 . S
O8 C5 1.252 . S
O9 In0 2.326 . S
O9 C5 1.260 . S
C10 O1 1.240 . S
C10 O2 1.252 . S
O11 In0 2.294 . S
O11 C4 1.240 . S
O12 In0 2.326 . S
O12 C4 1.252 . S
In13 O14 2.294 . S
In13 O15 2.326 . S
In13 O19 2.266 . S
In13 O20 2.326 . S
In13 O21 2.276 . S
In13 O22 2.326 1_455 S
In13 O24 2.294 . S
In13 O25 2.326 . S
O14 In13 2.294 . S
O14 C23 1.240 . S
O15 In13 2.326 . S
O15 C23 1.252 . S
C16 O19 1.252 . S
C16 O20 1.260 . S
C17 O24 1.240 . S
C17 O25 1.252 . S
C18 O21 1.241 1_655 S
C18 O22 1.260 . S
O19 In13 2.266 . S
O19 C16 1.252 . S
O20 In13 2.326 . S
O20 C16 1.260 . S
O21 In13 2.276 . S
O21 C18 1.241 1_455 S
O22 In13 2.326 1_655 S
O22 C18 1.260 . S
C23 O14 1.240 . S
C23 O15 1.252 . S
O24 In13 2.294 . S
O24 C17 1.240 . S
O25 In13 2.326 . S
O25 C17 1.252 . S
In26 O27 2.294 . S
In26 O28 2.326 . S
In26 O32 2.266 . S
In26 O33 2.326 . S
In26 O34 2.266 . S
In26 O35 2.326 . S
In26 O37 2.294 . S
In26 O38 2.326 . S
O27 In26 2.294 . S
O27 C36 1.240 . S
O28 In26 2.326 . S
O28 C36 1.252 . S
C29 O32 1.252 . S
C29 O33 1.260 . S
C30 O37 1.240 . S
C30 O38 1.252 . S
C31 O34 1.252 . S
C31 O35 1.260 . S
O32 In26 2.266 . S
O32 C29 1.252 . S
O33 In26 2.326 . S
O33 C29 1.260 . S
O34 In26 2.266 . S
O34 C31 1.252 . S
O35 In26 2.326 . S
O35 C31 1.260 . S
C36 O27 1.240 . S
C36 O28 1.252 . S
O37 In26 2.294 . S
O37 C30 1.240 . S
O38 In26 2.326 . S
O38 C30 1.252 . S
In39 O40 2.294 . S
In39 O41 2.326 . S
In39 O45 2.266 . S
In39 O46 2.326 . S
In39 O47 2.266 . S
In39 O48 2.326 . S
In39 O50 2.294 . S
In39 O51 2.326 . S
O40 In39 2.294 . S
O40 C49 1.240 . S
O41 In39 2.326 . S
O41 C49 1.252 . S
C42 O45 1.252 . S
C42 O46 1.260 . S
C43 O50 1.240 . S
C43 O51 1.252 . S
C44 O47 1.252 . S
C44 O48 1.260 . S
O45 In39 2.266 . S
O45 C42 1.252 . S
O46 In39 2.326 . S
O46 C42 1.260 . S
O47 In39 2.266 . S
O47 C44 1.252 . S
O48 In39 2.326 . S
O48 C44 1.260 . S
C49 O40 1.240 . S
C49 O41 1.252 . S
O50 In39 2.294 . S
O50 C43 1.240 . S
O51 In39 2.326 . S
O51 C43 1.252 . S
In52 O53 2.294 . S
In52 O54 2.326 . S
In52 O58 2.266 . S
In52 O59 2.326 . S
In52 O60 2.266 . S
In52 O61 2.326 . S
In52 O63 2.294 . S
In52 O64 2.326 . S
O53 In52 2.294 . S
O53 C62 1.240 . S
O54 In52 2.326 . S
O54 C62 1.252 . S
C55 O58 1.252 . S
C55 O59 1.260 . S
C56 O63 1.240 . S
C56 O64 1.252 . S
C57 O60 1.252 . S
C57 O61 1.260 . S
O58 In52 2.266 . S
O58 C55 1.252 . S
O59 In52 2.326 . S
O59 C55 1.260 . S
O60 In52 2.266 . S
O60 C57 1.252 . S
O61 In52 2.326 . S
O61 C57 1.260 . S
C62 O53 1.240 . S
C62 O54 1.252 . S
O63 In52 2.294 . S
O63 C56 1.240 . S
O64 In52 2.326 . S
O64 C56 1.252 . S
In65 O66 2.294 . S
In65 O67 2.326 . S
In65 O71 2.266 . S
In65 O72 2.326 . S
In65 O73 2.266 . S
In65 O74 2.326 . S
In65 O76 2.294 . S
In65 O77 2.326 . S
O66 In65 2.294 . S
O66 C75 1.240 . S
O67 In65 2.326 . S
O67 C75 1.252 . S
C68 O71 1.252 . S
C68 O72 1.260 . S
C69 O76 1.240 . S
C69 O77 1.252 . S
C70 O73 1.252 . S
C70 O74 1.260 . S
O71 In65 2.266 . S
O71 C68 1.252 . S
O72 In65 2.326 . S
O72 C68 1.260 . S
O73 In65 2.266 . S
O73 C70 1.252 . S
O74 In65 2.326 . S
O74 C70 1.260 . S
C75 O66 1.240 . S
C75 O67 1.252 . S
O76 In65 2.294 . S
O76 C69 1.240 . S
O77 In65 2.326 . S
O77 C69 1.252 . S
In78 O79 2.294 . S
In78 O80 2.326 . S
In78 O84 2.266 . S
In78 O85 2.326 . S
In78 O86 2.266 . S
In78 O87 2.326 . S
In78 O89 2.294 . S
In78 O90 2.326 . S
O79 In78 2.294 . S
O79 C88 1.240 . S
O80 In78 2.326 . S
O80 C88 1.252 . S
C81 O84 1.252 . S
C81 O85 1.260 . S
C82 O89 1.240 . S
C82 O90 1.252 . S
C83 O86 1.252 . S
C83 O87 1.260 . S
O84 In78 2.266 . S
O84 C81 1.252 . S
O85 In78 2.326 . S
O85 C81 1.260 . S
O86 In78 2.266 . S
O86 C83 1.252 . S
O87 In78 2.326 . S
O87 C83 1.260 . S
C88 O79 1.240 . S
C88 O80 1.252 . S
O89 In78 2.294 . S
O89 C82 1.240 . S
O90 In78 2.326 . S
O90 C82 1.252 . S
In91 O92 2.294 1_556 S
In91 O93 2.327 . S
In91 O97 2.266 1_556 S
In91 O98 2.326 . S
In91 O99 2.266 1_455 S
In91 O100 2.326 1_455 S
In91 O102 2.294 . S
In91 O103 2.326 . S
O92 In91 2.294 1_554 S
O92 C101 1.240 1_554 S
O93 In91 2.327 . S
O93 C101 1.252 . S
C94 O97 1.252 1_556 S
C94 O98 1.260 . S
C95 O102 1.240 . S
C95 O103 1.252 . S
C96 O99 1.252 . S
C96 O100 1.260 . S
O97 In91 2.266 1_554 S
O97 C94 1.252 1_554 S
O98 In91 2.326 . S
O98 C94 1.260 . S
O99 In91 2.266 1_655 S
O99 C96 1.252 . S
O100 In91 2.326 1_655 S
O100 C96 1.260 . S
C101 O92 1.240 1_556 S
C101 O93 1.252 . S
O102 In91 2.294 . S
O102 C95 1.240 . S
O103 In91 2.326 . S
O103 C95 1.252 . S
In104 O105 2.294 . S
In104 O106 2.326 . S
In104 O110 2.266 . S
In104 O111 2.326 . S
In104 O112 2.266 1_545 S
In104 O113 2.326 1_545 S
In104 O115 2.294 . S
In104 O116 2.326 . S
O105 In104 2.294 . S
O105 C114 1.240 . S
O106 In104 2.326 . S
O106 C114 1.252 . S
C107 O110 1.252 . S
C107 O111 1.260 . S
C108 O115 1.240 . S
C108 O116 1.252 . S
C109 O112 1.252 . S
C109 O113 1.260 . S
O110 In104 2.266 . S
O110 C107 1.252 . S
O111 In104 2.326 . S
O111 C107 1.260 . S
O112 In104 2.266 1_565 S
O112 C109 1.252 . S
O113 In104 2.326 1_565 S
O113 C109 1.260 . S
C114 O105 1.240 . S
C114 O106 1.252 . S
O115 In104 2.294 . S
O115 C108 1.240 . S
O116 In104 2.326 . S
O116 C108 1.252 . S
In117 O118 2.294 . S
In117 O119 2.326 . S
In117 O123 2.266 . S
In117 O124 2.326 . S
In117 O125 2.266 . S
In117 O126 2.326 . S
In117 O128 2.294 . S
In117 O129 2.326 . S
O118 In117 2.294 . S
O118 C127 1.240 . S
O119 In117 2.326 . S
O119 C127 1.252 . S
C120 O123 1.252 . S
C120 O124 1.260 . S
C121 O128 1.240 . S
C121 O129 1.252 . S
C122 O125 1.252 . S
C122 O126 1.260 . S
O123 In117 2.266 . S
O123 C120 1.252 . S
O124 In117 2.326 . S
O124 C120 1.260 . S
O125 In117 2.266 . S
O125 C122 1.252 . S
O126 In117 2.326 . S
O126 C122 1.260 . S
C127 O118 1.240 . S
C127 O119 1.252 . S
O128 In117 2.294 . S
O128 C121 1.240 . S
O129 In117 2.326 . S
O129 C121 1.252 . S
In130 O131 2.294 . S
In130 O132 2.326 . S
In130 O136 2.266 . S
In130 O137 2.326 . S
In130 O138 2.266 . S
In130 O139 2.326 . S
In130 O141 2.294 . S
In130 O142 2.326 . S
O131 In130 2.294 . S
O131 C140 1.240 . S
O132 In130 2.326 . S
O132 C140 1.252 . S
C133 O136 1.252 . S
C133 O137 1.260 . S
C134 O141 1.240 . S
C134 O142 1.252 . S
C135 O138 1.252 . S
C135 O139 1.260 . S
O136 In130 2.266 . S
O136 C133 1.252 . S
O137 In130 2.326 . S
O137 C133 1.260 . S
O138 In130 2.266 . S
O138 C135 1.252 . S
O139 In130 2.326 . S
O139 C135 1.260 . S
C140 O131 1.240 . S
C140 O132 1.252 . S
O141 In130 2.294 . S
O141 C134 1.240 . S
O142 In130 2.326 . S
O142 C134 1.252 . S
In143 O144 2.298 . S
In143 O145 2.333 . S
In143 O149 2.262 1_554 S
In143 O150 2.319 1_554 S
In143 O151 2.262 1_554 S
In143 O152 2.325 . S
In143 O154 2.295 . S
In143 O155 2.323 . S
O144 In143 2.298 . S
O144 C153 1.240 . S
O145 In143 2.333 . S
O145 C153 1.252 . S
C146 O149 1.252 . S
C146 O150 1.260 . S
C147 O154 1.240 . S
C147 O155 1.253 . S
C148 O151 1.252 1_554 S
C148 O152 1.260 . S
O149 In143 2.262 1_556 S
O149 C146 1.252 . S
O150 In143 2.319 1_556 S
O150 C146 1.260 . S
O151 In143 2.262 1_556 S
O151 C148 1.252 1_556 S
O152 In143 2.325 . S
O152 C148 1.260 . S
C153 O144 1.240 . S
C153 O145 1.252 . S
O154 In143 2.295 . S
O154 C147 1.240 . S
O155 In143 2.323 . S
O155 C147 1.253 . S
In156 O157 2.294 . S
In156 O158 2.326 . S
In156 O162 2.266 . S
In156 O163 2.326 . S
In156 O164 2.266 . S
In156 O165 2.326 . S
In156 O167 2.294 . S
In156 O168 2.326 . S
O157 In156 2.294 . S
O157 C166 1.240 . S
O158 In156 2.326 . S
O158 C166 1.252 . S
C159 O162 1.252 1_556 S
C159 O163 1.260 1_556 S
C160 O167 1.240 . S
C160 O168 1.252 . S
C161 O164 1.252 . S
C161 O165 1.260 . S
O162 In156 2.266 . S
O162 C159 1.252 1_554 S
O163 In156 2.326 . S
O163 C159 1.260 1_554 S
O164 In156 2.266 . S
O164 C161 1.252 . S
O165 In156 2.326 . S
O165 C161 1.260 . S
C166 O157 1.240 . S
C166 O158 1.252 . S
O167 In156 2.294 . S
O167 C160 1.240 . S
O168 In156 2.326 . S
O168 C160 1.252 . S
In169 O170 2.294 . S
In169 O171 2.326 . S
In169 O175 2.266 . S
In169 O176 2.326 . S
In169 O177 2.266 . S
In169 O178 2.326 . S
In169 O180 2.294 . S
In169 O181 2.326 . S
O170 In169 2.294 . S
O170 C179 1.240 . S
O171 In169 2.326 . S
O171 C179 1.252 . S
C172 O175 1.252 . S
C172 O176 1.260 . S
C173 O180 1.240 . S
C173 O181 1.252 . S
C174 O177 1.252 . S
C174 O178 1.260 . S
O175 In169 2.266 . S
O175 C172 1.252 . S
O176 In169 2.326 . S
O176 C172 1.260 . S
O177 In169 2.266 . S
O177 C174 1.252 . S
O178 In169 2.326 . S
O178 C174 1.260 . S
C179 O170 1.240 . S
C179 O171 1.252 . S
O180 In169 2.294 . S
O180 C173 1.240 . S
O181 In169 2.326 . S
O181 C173 1.252 . S
In182 O183 2.294 . S
In182 O184 2.326 . S
In182 O188 2.266 . S
In182 O189 2.326 . S
In182 O190 2.266 . S
In182 O191 2.326 . S
In182 O193 2.294 . S
In182 O194 2.326 . S
O183 In182 2.294 . S
O183 C192 1.240 . S
O184 In182 2.326 . S
O184 C192 1.252 . S
C185 O188 1.252 . S
C185 O189 1.260 . S
C186 O193 1.240 . S
C186 O194 1.252 . S
C187 O190 1.252 . S
C187 O191 1.260 . S
O188 In182 2.266 . S
O188 C185 1.252 . S
O189 In182 2.326 . S
O189 C185 1.260 . S
O190 In182 2.266 . S
O190 C187 1.252 . S
O191 In182 2.326 . S
O191 C187 1.260 . S
C192 O183 1.240 . S
C192 O184 1.252 . S
O193 In182 2.294 . S
O193 C186 1.240 . S
O194 In182 2.326 . S
O194 C186 1.252 . S
In195 O196 2.294 . S
In195 O197 2.326 . S
In195 O201 2.266 . S
In195 O202 2.326 . S
In195 O203 2.266 . S
In195 O204 2.326 . S
In195 O206 2.294 . S
In195 O207 2.326 . S
O196 In195 2.294 . S
O196 C205 1.240 . S
O197 In195 2.326 . S
O197 C205 1.252 . S
C198 O201 1.252 . S
C198 O202 1.260 . S
C199 O206 1.240 . S
C199 O207 1.252 . S
C200 O203 1.252 . S
C200 O204 1.260 . S
O201 In195 2.266 . S
O201 C198 1.252 . S
O202 In195 2.326 . S
O202 C198 1.260 . S
O203 In195 2.266 . S
O203 C200 1.252 . S
O204 In195 2.326 . S
O204 C200 1.260 . S
C205 O196 1.240 . S
C205 O197 1.252 . S
O206 In195 2.294 . S
O206 C199 1.240 . S
O207 In195 2.326 . S
O207 C199 1.252 . S
In208 O209 2.294 . S
In208 O210 2.326 . S
In208 O214 2.266 . S
In208 O215 2.326 . S
In208 O216 2.266 1_545 S
In208 O217 2.326 1_545 S
In208 O219 2.294 . S
In208 O220 2.326 . S
O209 In208 2.294 . S
O209 C218 1.240 . S
O210 In208 2.326 . S
O210 C218 1.252 . S
C211 O214 1.252 . S
C211 O215 1.260 . S
C212 O219 1.240 . S
C212 O220 1.252 . S
C213 O216 1.252 . S
C213 O217 1.260 . S
O214 In208 2.266 . S
O214 C211 1.252 . S
O215 In208 2.326 . S
O215 C211 1.260 . S
O216 In208 2.266 1_565 S
O216 C213 1.252 . S
O217 In208 2.326 1_565 S
O217 C213 1.260 . S
C218 O209 1.240 . S
C218 O210 1.252 . S
O219 In208 2.294 . S
O219 C212 1.240 . S
O220 In208 2.326 . S
O220 C212 1.252 . S
In221 O222 2.294 . S
In221 O223 2.326 . S
In221 O227 2.266 . S
In221 O228 2.326 . S
In221 O229 2.266 . S
In221 O230 2.326 . S
In221 O232 2.294 . S
In221 O233 2.326 . S
O222 In221 2.294 . S
O222 C231 1.240 . S
O223 In221 2.326 . S
O223 C231 1.252 . S
C224 O227 1.252 . S
C224 O228 1.260 . S
C225 O232 1.240 . S
C225 O233 1.252 . S
C226 O229 1.252 . S
C226 O230 1.260 . S
O227 In221 2.266 . S
O227 C224 1.252 . S
O228 In221 2.326 . S
O228 C224 1.260 . S
O229 In221 2.266 . S
O229 C226 1.252 . S
O230 In221 2.326 . S
O230 C226 1.260 . S
C231 O222 1.240 . S
C231 O223 1.252 . S
O232 In221 2.294 . S
O232 C225 1.240 . S
O233 In221 2.326 . S
O233 C225 1.252 . S
In234 O235 2.294 . S
In234 O236 2.326 . S
In234 O240 2.266 . S
In234 O241 2.326 . S
In234 O242 2.266 . S
In234 O243 2.326 . S
In234 O245 2.294 . S
In234 O246 2.326 . S
O235 In234 2.294 . S
O235 C244 1.240 . S
O236 In234 2.326 . S
O236 C244 1.252 . S
C237 O240 1.252 . S
C237 O241 1.260 . S
C238 O245 1.240 . S
C238 O246 1.252 . S
C239 O242 1.252 . S
C239 O243 1.260 . S
O240 In234 2.266 . S
O240 C237 1.252 . S
O241 In234 2.326 . S
O241 C237 1.260 . S
O242 In234 2.266 . S
O242 C239 1.252 . S
O243 In234 2.326 . S
O243 C239 1.260 . S
C244 O235 1.240 . S
C244 O236 1.252 . S
O245 In234 2.294 . S
O245 C238 1.240 . S
O246 In234 2.326 . S
O246 C238 1.252 . S
In247 O248 2.294 . S
In247 O249 2.326 . S
In247 O253 2.266 . S
In247 O254 2.326 . S
In247 O255 2.266 . S
In247 O256 2.326 . S
In247 O258 2.294 . S
In247 O259 2.326 . S
O248 In247 2.294 . S
O248 C257 1.240 . S
O249 In247 2.326 . S
O249 C257 1.252 . S
C250 O253 1.252 . S
C250 O254 1.260 . S
C251 O258 1.240 . S
C251 O259 1.252 . S
C252 O255 1.252 . S
C252 O256 1.260 . S
O253 In247 2.266 . S
O253 C250 1.252 . S
O254 In247 2.326 . S
O254 C250 1.260 . S
O255 In247 2.266 . S
O255 C252 1.252 . S
O256 In247 2.326 . S
O256 C252 1.260 . S
C257 O248 1.240 . S
C257 O249 1.252 . S
O258 In247 2.294 . S
O258 C251 1.240 . S
O259 In247 2.326 . S
O259 C251 1.252 . S
In260 O261 2.294 . S
In260 O262 2.326 . S
In260 O266 2.266 . S
In260 O267 2.326 . S
In260 O268 2.266 1_554 S
In260 O269 2.326 1_554 S
In260 O271 2.294 . S
In260 O272 2.326 . S
O261 In260 2.294 . S
O261 C270 1.240 . S
O262 In260 2.326 . S
O262 C270 1.252 . S
C263 O266 1.252 . S
C263 O267 1.260 . S
C264 O271 1.240 . S
C264 O272 1.252 . S
C265 O268 1.252 . S
C265 O269 1.260 . S
O266 In260 2.266 . S
O266 C263 1.252 . S
O267 In260 2.326 . S
O267 C263 1.260 . S
O268 In260 2.266 1_556 S
O268 C265 1.252 . S
O269 In260 2.326 1_556 S
O269 C265 1.260 . S
C270 O261 1.240 . S
C270 O262 1.252 . S
O271 In260 2.294 . S
O271 C264 1.240 . S
O272 In260 2.326 . S
O272 C264 1.252 . S
In273 O274 2.294 . S
In273 O275 2.326 . S
In273 O279 2.266 . S
In273 O280 2.326 . S
In273 O281 2.266 . S
In273 O282 2.326 . S
In273 O284 2.294 . S
In273 O285 2.326 . S
O274 In273 2.294 . S
O274 C283 1.240 . S
O275 In273 2.326 . S
O275 C283 1.252 . S
C276 O279 1.252 . S
C276 O280 1.260 . S
C277 O284 1.240 . S
C277 O285 1.252 . S
C278 O281 1.252 . S
C278 O282 1.260 . S
O279 In273 2.266 . S
O279 C276 1.252 . S
O280 In273 2.326 . S
O280 C276 1.260 . S
O281 In273 2.266 . S
O281 C278 1.252 . S
O282 In273 2.326 . S
O282 C278 1.260 . S
C283 O274 1.240 . S
C283 O275 1.252 . S
O284 In273 2.294 . S
O284 C277 1.240 . S
O285 In273 2.326 . S
O285 C277 1.252 . S
In286 O287 2.294 . S
In286 O288 2.326 . S
In286 O292 2.266 . S
In286 O293 2.326 . S
In286 O294 2.266 . S
In286 O295 2.326 . S
In286 O297 2.294 . S
In286 O298 2.326 . S
O287 In286 2.294 . S
O287 C296 1.240 . S
O288 In286 2.326 . S
O288 C296 1.252 . S
C289 O292 1.252 . S
C289 O293 1.260 . S
C290 O297 1.240 . S
C290 O298 1.252 . S
C291 O294 1.252 . S
C291 O295 1.260 . S
O292 In286 2.266 . S
O292 C289 1.252 . S
O293 In286 2.326 . S
O293 C289 1.260 . S
O294 In286 2.266 . S
O294 C291 1.252 . S
O295 In286 2.326 . S
O295 C291 1.260 . S
C296 O287 1.240 . S
C296 O288 1.252 . S
O297 In286 2.294 . S
O297 C290 1.240 . S
O298 In286 2.326 . S
O298 C290 1.252 . S
In299 O300 2.294 . S
In299 O301 2.326 . S
In299 O305 2.266 . S
In299 O306 2.326 . S
In299 O307 2.266 . S
In299 O308 2.326 . S
In299 O310 2.294 . S
In299 O311 2.326 . S
O300 In299 2.294 . S
O300 C309 1.240 . S
O301 In299 2.326 . S
O301 C309 1.252 . S
C302 O305 1.252 . S
C302 O306 1.260 . S
C303 O310 1.240 . S
C303 O311 1.252 . S
C304 O307 1.252 . S
C304 O308 1.260 . S
O305 In299 2.266 . S
O305 C302 1.252 . S
O306 In299 2.326 . S
O306 C302 1.260 . S
O307 In299 2.266 . S
O307 C304 1.252 . S
O308 In299 2.326 . S
O308 C304 1.260 . S
C309 O300 1.240 . S
C309 O301 1.252 . S
O310 In299 2.294 . S
O310 C303 1.240 . S
O311 In299 2.326 . S
O311 C303 1.252 . S
Eu312 N341 2.600 . S
Eu312 N347 2.562 . S
Eu312 O356 2.462 . S
Eu312 O357 2.373 . S
Eu312 O359 2.432 . S
Eu312 O360 2.291 . S
Eu312 O364 2.335 . S
Eu312 O367 2.372 . S
Eu312 C376 2.787 . S
C313 N314 1.365 . S
C313 C316 1.405 . S
C313 C320 1.448 1_556 S
N314 C313 1.365 . S
N314 C317 1.319 . S
N314 Eu323 2.600 1_666 S
C315 C317 1.397 . S
C315 C318 1.367 . S
C315 H335 0.931 . S
C316 C313 1.405 . S
C316 C318 1.403 . S
C316 C322 1.439 . S
C317 N314 1.319 . S
C317 C315 1.397 . S
C317 H328 0.930 1_565 S
C318 C315 1.367 . S
C318 C316 1.403 . S
C318 H339 0.929 . S
C319 C320 1.430 . S
C319 C321 1.387 . S
C319 C325 1.404 . S
C320 C313 1.448 1_554 S
C320 C319 1.430 . S
C320 N324 1.351 . S
C321 C319 1.387 . S
C321 C322 1.374 1_554 S
C321 H336 0.931 . S
C322 C316 1.439 . S
C322 C321 1.374 1_556 S
C322 H337 0.931 . S
Eu323 N314 2.600 1_444 S
Eu323 N324 2.562 1_445 S
Eu323 O358 2.335 . S
Eu323 O361 2.372 1_554 S
Eu323 O362 2.462 1_455 S
Eu323 O363 2.373 1_545 S
Eu323 O365 2.439 1_455 S
Eu323 O366 2.291 . S
Eu323 C387 2.787 1_455 S
N324 C320 1.351 . S
N324 Eu323 2.562 1_665 S
N324 C326 1.325 . S
C325 C319 1.404 . S
C325 C327 1.366 . S
C325 H333 0.930 . S
C326 N324 1.325 . S
C326 C327 1.416 . S
C326 H332 0.929 1_565 S
C327 C325 1.366 . S
C327 C326 1.416 . S
C327 H329 0.930 . S
H328 C317 0.930 1_545 S
H329 C327 0.930 . S
H330 C345 0.930 . S
H331 C352 0.930 . S
H332 C326 0.929 1_545 S
H333 C325 0.930 . S
H334 C348 0.929 . S
H335 C315 0.931 . S
H336 C321 0.931 . S
H337 C322 0.931 . S
H338 C343 0.931 . S
H339 C318 0.929 . S
H340 C351 0.930 . S
N341 Eu312 2.600 . S
N341 C342 1.365 . S
N341 C345 1.319 . S
C342 N341 1.365 . S
C342 C344 1.405 . S
C342 C350 1.448 . S
C343 H338 0.931 . S
C343 C345 1.397 . S
C343 C346 1.367 . S
C344 C342 1.405 . S
C344 C346 1.403 . S
C344 C377 1.439 . S
C345 H330 0.930 . S
C345 N341 1.319 . S
C345 C343 1.397 . S
C346 C343 1.367 . S
C346 C344 1.403 . S
C346 H353 0.929 . S
N347 Eu312 2.562 . S
N347 C348 1.325 . S
N347 C350 1.351 . S
C348 H334 0.929 . S
C348 N347 1.325 . S
C348 C352 1.416 . S
C349 C350 1.430 . S
C349 C351 1.404 . S
C349 C378 1.387 . S
C350 C342 1.448 . S
C350 N347 1.351 . S
C350 C349 1.430 . S
C351 H340 0.930 . S
C351 C349 1.404 . S
C351 C352 1.366 . S
C352 H331 0.930 . S
C352 C348 1.416 . S
C352 C351 1.366 . S
H353 C346 0.929 . S
H354 C377 0.931 . S
H355 C378 0.931 . S
O356 Eu312 2.462 . S
O356 C376 1.252 . S
O357 Eu312 2.373 . S
O357 C368 1.249 . S
O358 Eu323 2.335 . S
O358 C368 1.264 . S
O359 Eu312 2.432 . S
O359 C376 1.268 . S
O360 Eu312 2.291 . S
O360 C375 1.247 1_554 S
O361 Eu323 2.372 1_556 S
O361 C375 1.258 . S
O362 Eu323 2.462 1_655 S
O362 C387 1.252 . S
O363 Eu323 2.373 1_565 S
O363 C379 1.249 . S
O364 Eu312 2.335 . S
O364 C379 1.264 1_545 S
O365 Eu323 2.439 1_655 S
O365 C387 1.281 . S
O366 Eu323 2.291 . S
O366 C386 1.255 . S
O367 Eu312 2.372 . S
O367 C386 1.257 . S
C368 O357 1.249 . S
C368 O358 1.264 . S
C369 C372 1.382 . S
C369 C374 1.390 . S
C369 C376 1.506 . S
C370 C371 1.398 . S
C370 C374 1.392 . S
C371 C370 1.398 . S
C371 C373 1.372 . S
C371 H388 0.931 . S
C372 C369 1.382 . S
C372 C373 1.390 . S
C372 H389 0.931 . S
C373 C371 1.372 . S
C373 C372 1.390 . S
C373 H390 0.929 . S
C374 C369 1.390 . S
C374 C370 1.392 . S
C374 H391 0.930 . S
C375 O360 1.247 1_556 S
C375 O361 1.258 . S
C376 Eu312 2.787 . S
C376 O356 1.252 . S
C376 O359 1.268 . S
C376 C369 1.506 . S
C377 C344 1.439 . S
C377 H354 0.931 . S
C377 C378 1.374 . S
C378 C349 1.387 . S
C378 H355 0.931 . S
C378 C377 1.374 . S
C379 O363 1.249 . S
C379 O364 1.264 1_565 S
C380 C383 1.382 1_554 S
C380 C384 1.390 . S
C380 C387 1.506 . S
C381 C382 1.398 . S
C381 C384 1.392 . S
C382 C381 1.398 . S
C382 C385 1.372 1_554 S
C382 H392 0.931 . S
C383 C380 1.382 1_556 S
C383 C385 1.390 . S
C383 H393 0.931 . S
C384 C380 1.390 . S
C384 C381 1.392 . S
C384 H394 0.930 . S
C385 C382 1.372 1_556 S
C385 C383 1.390 . S
C385 H395 0.929 . S
C386 O366 1.255 . S
C386 O367 1.257 . S
C387 Eu323 2.787 1_655 S
C387 O362 1.252 . S
C387 O365 1.281 . S
C387 C380 1.506 . S
H388 C371 0.931 . S
H389 C372 0.931 . S
H390 C373 0.929 . S
H391 C374 0.930 . S
H392 C382 0.931 . S
H393 C383 0.931 . S
H394 C384 0.930 . S
H395 C385 0.929 . S
Eu396 N425 2.600 . S
Eu396 N431 2.562 . S
Eu396 O440 2.462 . S
Eu396 O441 2.373 . S
Eu396 O443 2.432 . S
Eu396 O444 2.291 . S
Eu396 O448 2.335 . S
Eu396 O451 2.372 . S
Eu396 C460 2.787 . S
C397 N398 1.365 . S
C397 C400 1.405 . S
C397 C404 1.448 . S
N398 C397 1.365 . S
N398 C401 1.319 . S
N398 Eu407 2.600 . S
C399 C401 1.397 . S
C399 C402 1.367 . S
C399 H419 0.931 . S
C400 C397 1.405 . S
C400 C402 1.403 . S
C400 C406 1.439 . S
C401 N398 1.319 . S
C401 C399 1.397 . S
C401 H412 0.930 . S
C402 C399 1.367 . S
C402 C400 1.403 . S
C402 H423 0.929 . S
C403 C404 1.430 . S
C403 C405 1.387 . S
C403 C409 1.404 . S
C404 C397 1.448 . S
C404 C403 1.430 . S
C404 N408 1.351 . S
C405 C403 1.387 . S
C405 C406 1.374 . S
C405 H420 0.931 . S
C406 C400 1.439 . S
C406 C405 1.374 . S
C406 H421 0.931 . S
Eu407 N398 2.600 . S
Eu407 N408 2.562 . S
Eu407 O442 2.335 . S
Eu407 O445 2.372 . S
Eu407 O446 2.462 . S
Eu407 O447 2.373 . S
Eu407 O449 2.432 . S
Eu407 O450 2.291 . S
Eu407 C471 2.787 . S
N408 C404 1.351 . S
N408 Eu407 2.562 . S
N408 C410 1.325 . S
C409 C403 1.404 . S
C409 C411 1.366 . S
C409 H417 0.930 . S
C410 N408 1.325 . S
C410 C411 1.416 . S
C410 H416 0.929 . S
C411 C409 1.366 . S
C411 C410 1.416 . S
C411 H413 0.930 . S
H412 C401 0.930 . S
H413 C411 0.930 . S
H414 C429 0.930 . S
H415 C436 0.930 . S
H416 C410 0.929 . S
H417 C409 0.930 . S
H418 C432 0.929 . S
H419 C399 0.931 . S
H420 C405 0.931 . S
H421 C406 0.931 . S
H422 C427 0.931 . S
H423 C402 0.929 . S
H424 C435 0.930 . S
N425 Eu396 2.600 . S
N425 C426 1.365 . S
N425 C429 1.319 . S
C426 N425 1.365 . S
C426 C428 1.405 . S
C426 C434 1.448 . S
C427 H422 0.931 . S
C427 C429 1.397 . S
C427 C430 1.367 . S
C428 C426 1.405 . S
C428 C430 1.403 . S
C428 C461 1.439 . S
C429 H414 0.930 . S
C429 N425 1.319 . S
C429 C427 1.397 . S
C430 C427 1.367 . S
C430 C428 1.403 . S
C430 H437 0.929 . S
N431 Eu396 2.562 . S
N431 C432 1.325 . S
N431 C434 1.351 . S
C432 H418 0.929 . S
C432 N431 1.325 . S
C432 C436 1.416 . S
C433 C434 1.430 . S
C433 C435 1.404 . S
C433 C462 1.387 . S
C434 C426 1.448 . S
C434 N431 1.351 . S
C434 C433 1.430 . S
C435 H424 0.930 . S
C435 C433 1.404 . S
C435 C436 1.366 . S
C436 H415 0.930 . S
C436 C432 1.416 . S
C436 C435 1.366 . S
H437 C430 0.929 . S
H438 C461 0.931 . S
H439 C462 0.931 . S
O440 Eu396 2.462 . S
O440 C460 1.252 . S
O441 Eu396 2.373 . S
O441 C452 1.249 . S
O442 Eu407 2.335 . S
O442 C452 1.264 . S
O443 Eu396 2.432 . S
O443 C460 1.268 . S
O444 Eu396 2.291 . S
O444 C459 1.255 . S
O445 Eu407 2.372 . S
O445 C459 1.257 . S
O446 Eu407 2.462 . S
O446 C471 1.252 . S
O447 Eu407 2.373 . S
O447 C463 1.249 . S
O448 Eu396 2.335 . S
O448 C463 1.264 . S
O449 Eu407 2.432 . S
O449 C471 1.268 . S
O450 Eu407 2.291 . S
O450 C470 1.255 . S
O451 Eu396 2.372 . S
O451 C470 1.257 . S
C452 O441 1.249 . S
C452 O442 1.264 . S
C453 C456 1.382 . S
C453 C458 1.390 . S
C453 C460 1.506 . S
C454 C455 1.398 . S
C454 C458 1.392 . S
C455 C454 1.398 . S
C455 C457 1.372 . S
C455 H472 0.931 . S
C456 C453 1.382 . S
C456 C457 1.390 . S
C456 H473 0.931 . S
C457 C455 1.372 . S
C457 C456 1.390 . S
C457 H474 0.929 . S
C458 C453 1.390 . S
C458 C454 1.392 . S
C458 H475 0.930 . S
C459 O444 1.255 . S
C459 O445 1.257 . S
C460 Eu396 2.787 . S
C460 O440 1.252 . S
C460 O443 1.268 . S
C460 C453 1.506 . S
C461 C428 1.439 . S
C461 H438 0.931 . S
C461 C462 1.374 . S
C462 C433 1.387 . S
C462 H439 0.931 . S
C462 C461 1.374 . S
C463 O447 1.249 . S
C463 O448 1.264 . S
C464 C467 1.382 . S
C464 C468 1.390 . S
C464 C471 1.506 . S
C465 C466 1.398 . S
C465 C468 1.392 . S
C466 C465 1.398 . S
C466 C469 1.372 . S
C466 H476 0.931 . S
C467 C464 1.382 . S
C467 C469 1.390 . S
C467 H477 0.931 . S
C468 C464 1.390 . S
C468 C465 1.392 . S
C468 H478 0.930 . S
C469 C466 1.372 . S
C469 C467 1.390 . S
C469 H479 0.929 . S
C470 O450 1.255 . S
C470 O451 1.257 . S
C471 Eu407 2.787 . S
C471 O446 1.252 . S
C471 O449 1.268 . S
C471 C464 1.506 . S
H472 C455 0.931 . S
H473 C456 0.931 . S
H474 C457 0.929 . S
H475 C458 0.930 . S
H476 C466 0.931 . S
H477 C467 0.931 . S
H478 C468 0.930 . S
H479 C469 0.929 . S
Eu480 N509 2.601 . S
Eu480 N515 2.562 1_545 S
Eu480 O524 2.462 . S
Eu480 O525 2.373 1_545 S
Eu480 O527 2.432 . S
Eu480 O528 2.291 . S
Eu480 O532 2.335 . S
Eu480 O535 2.372 . S
Eu480 C544 2.787 . S
C481 N482 1.365 . S
C481 C484 1.405 . S
C481 C488 1.448 . S
N482 C481 1.365 . S
N482 C485 1.319 . S
N482 Eu491 2.600 . S
C483 C485 1.397 . S
C483 C486 1.367 . S
C483 H503 0.931 . S
C484 C481 1.405 . S
C484 C486 1.403 . S
C484 C490 1.439 . S
C485 N482 1.319 . S
C485 C483 1.397 . S
C485 H496 0.930 . S
C486 C483 1.367 . S
C486 C484 1.403 . S
C486 H507 0.929 . S
C487 C488 1.430 . S
C487 C489 1.387 . S
C487 C493 1.404 . S
C488 C481 1.448 . S
C488 C487 1.430 . S
C488 N492 1.351 . S
C489 C487 1.387 . S
C489 C490 1.374 . S
C489 H504 0.931 . S
C490 C484 1.439 . S
C490 C489 1.374 . S
C490 H505 0.931 . S
Eu491 N482 2.600 . S
Eu491 N492 2.562 . S
Eu491 O526 2.335 1_545 S
Eu491 O529 2.372 . S
Eu491 O530 2.462 . S
Eu491 O531 2.373 . S
Eu491 O533 2.432 . S
Eu491 O534 2.291 . S
Eu491 C555 2.787 . S
N492 C488 1.351 . S
N492 Eu491 2.562 . S
N492 C494 1.325 . S
C493 C487 1.404 . S
C493 C495 1.366 . S
C493 H501 0.930 . S
C494 N492 1.325 . S
C494 C495 1.416 . S
C494 H500 0.929 . S
C495 C493 1.366 . S
C495 C494 1.416 . S
C495 H497 0.930 . S
H496 C485 0.930 . S
H497 C495 0.930 . S
H498 C513 0.930 . S
H499 C520 0.930 . S
H500 C494 0.929 . S
H501 C493 0.930 . S
H502 C516 0.929 . S
H503 C483 0.931 . S
H504 C489 0.931 . S
H505 C490 0.931 . S
H506 C511 0.931 . S
H507 C486 0.929 . S
H508 C519 0.930 . S
N509 Eu480 2.601 . S
N509 C510 1.364 1_545 S
N509 C513 1.319 . S
C510 N509 1.364 1_565 S
C510 C512 1.405 . S
C510 C518 1.448 . S
C511 H506 0.931 . S
C511 C513 1.397 1_565 S
C511 C514 1.367 . S
C512 C510 1.405 . S
C512 C514 1.403 . S
C512 C545 1.439 . S
C513 H498 0.930 . S
C513 N509 1.319 . S
C513 C511 1.397 1_545 S
C514 C511 1.367 . S
C514 C512 1.403 . S
C514 H521 0.929 . S
N515 Eu480 2.562 1_565 S
N515 C516 1.325 . S
N515 C518 1.351 . S
C516 H502 0.929 . S
C516 N515 1.325 . S
C516 C520 1.416 . S
C517 C518 1.430 . S
C517 C519 1.404 . S
C517 C546 1.387 . S
C518 C510 1.448 . S
C518 N515 1.351 . S
C518 C517 1.430 . S
C519 H508 0.930 . S
C519 C517 1.404 . S
C519 C520 1.366 . S
C520 H499 0.930 . S
C520 C516 1.416 . S
C520 C519 1.366 . S
H521 C514 0.929 . S
H522 C545 0.931 . S
H523 C546 0.931 . S
O524 Eu480 2.462 . S
O524 C544 1.252 . S
O525 Eu480 2.373 1_565 S
O525 C536 1.249 . S
O526 Eu491 2.335 1_565 S
O526 C536 1.264 . S
O527 Eu480 2.432 . S
O527 C544 1.268 . S
O528 Eu480 2.291 . S
O528 C543 1.255 . S
O529 Eu491 2.372 . S
O529 C543 1.257 . S
O530 Eu491 2.462 . S
O530 C555 1.252 . S
O531 Eu491 2.373 . S
O531 C547 1.249 . S
O532 Eu480 2.335 . S
O532 C547 1.264 . S
O533 Eu491 2.432 . S
O533 C555 1.268 . S
O534 Eu491 2.291 . S
O534 C554 1.255 . S
O535 Eu480 2.372 . S
O535 C554 1.257 . S
C536 O525 1.249 . S
C536 O526 1.264 . S
C537 C540 1.382 . S
C537 C542 1.390 . S
C537 C544 1.506 . S
C538 C539 1.398 . S
C538 C542 1.392 . S
C539 C538 1.398 . S
C539 C541 1.372 . S
C539 H556 0.931 . S
C540 C537 1.382 . S
C540 C541 1.390 . S
C540 H557 0.931 . S
C541 C539 1.372 . S
C541 C540 1.390 . S
C541 H558 0.929 . S
C542 C537 1.390 . S
C542 C538 1.392 . S
C542 H559 0.930 . S
C543 O528 1.255 . S
C543 O529 1.257 . S
C544 Eu480 2.787 . S
C544 O524 1.252 . S
C544 O527 1.268 . S
C544 C537 1.506 . S
C545 C512 1.439 . S
C545 H522 0.931 . S
C545 C546 1.374 . S
C546 C517 1.387 . S
C546 H523 0.931 . S
C546 C545 1.374 . S
C547 O531 1.249 . S
C547 O532 1.264 . S
C548 C551 1.382 . S
C548 C552 1.390 . S
C548 C555 1.506 1_565 S
C549 C550 1.398 . S
C549 C552 1.392 . S
C550 C549 1.398 . S
C550 C553 1.372 . S
C550 H560 0.931 . S
C551 C548 1.382 . S
C551 C553 1.390 . S
C551 H561 0.931 . S
C552 C548 1.390 . S
C552 C549 1.392 . S
C552 H562 0.930 . S
C553 C550 1.372 . S
C553 C551 1.390 . S
C553 H563 0.929 . S
C554 O534 1.255 . S
C554 O535 1.257 . S
C555 Eu491 2.787 . S
C555 O530 1.252 . S
C555 O533 1.268 . S
C555 C548 1.506 1_545 S
H556 C539 0.931 . S
H557 C540 0.931 . S
H558 C541 0.929 . S
H559 C542 0.930 . S
H560 C550 0.931 . S
H561 C551 0.931 . S
H562 C552 0.930 . S
H563 C553 0.929 . S
Eu564 N593 2.600 . S
Eu564 N599 2.562 . S
Eu564 O608 2.462 . S
Eu564 O609 2.373 . S
Eu564 O611 2.432 . S
Eu564 O612 2.291 . S
Eu564 O616 2.335 . S
Eu564 O619 2.372 . S
Eu564 C628 2.787 . S
C565 N566 1.365 . S
C565 C568 1.405 . S
C565 C572 1.448 . S
N566 C565 1.365 . S
N566 C569 1.319 . S
N566 Eu575 2.600 . S
C567 C569 1.397 . S
C567 C570 1.367 . S
C567 H587 0.931 . S
C568 C565 1.405 . S
C568 C570 1.403 . S
C568 C574 1.439 . S
C569 N566 1.319 . S
C569 C567 1.397 . S
C569 H580 0.930 . S
C570 C567 1.367 . S
C570 C568 1.403 . S
C570 H591 0.929 . S
C571 C572 1.430 . S
C571 C573 1.387 . S
C571 C577 1.404 . S
C572 C565 1.448 . S
C572 C571 1.430 . S
C572 N576 1.351 . S
C573 C571 1.387 . S
C573 C574 1.374 . S
C573 H588 0.931 . S
C574 C568 1.439 . S
C574 C573 1.374 . S
C574 H589 0.931 . S
Eu575 N566 2.600 . S
Eu575 N576 2.562 . S
Eu575 O610 2.335 . S
Eu575 O613 2.372 . S
Eu575 O614 2.462 . S
Eu575 O615 2.373 . S
Eu575 O617 2.432 . S
Eu575 O618 2.291 . S
Eu575 C639 2.787 . S
N576 C572 1.351 . S
N576 Eu575 2.562 . S
N576 C578 1.325 . S
C577 C571 1.404 . S
C577 C579 1.366 . S
C577 H585 0.930 . S
C578 N576 1.325 . S
C578 C579 1.416 . S
C578 H584 0.929 . S
C579 C577 1.366 . S
C579 C578 1.416 . S
C579 H581 0.930 . S
H580 C569 0.930 . S
H581 C579 0.930 . S
H582 C597 0.930 . S
H583 C604 0.930 . S
H584 C578 0.929 . S
H585 C577 0.930 . S
H586 C600 0.929 . S
H587 C567 0.931 . S
H588 C573 0.931 . S
H589 C574 0.931 . S
H590 C595 0.931 . S
H591 C570 0.929 . S
H592 C603 0.930 . S
N593 Eu564 2.600 . S
N593 C594 1.365 . S
N593 C597 1.319 . S
C594 N593 1.365 . S
C594 C596 1.405 . S
C594 C602 1.448 . S
C595 H590 0.931 . S
C595 C597 1.397 . S
C595 C598 1.367 . S
C596 C594 1.405 . S
C596 C598 1.403 . S
C596 C629 1.439 . S
C597 H582 0.930 . S
C597 N593 1.319 . S
C597 C595 1.397 . S
C598 C595 1.367 . S
C598 C596 1.403 . S
C598 H605 0.929 . S
N599 Eu564 2.562 . S
N599 C600 1.325 . S
N599 C602 1.351 . S
C600 H586 0.929 . S
C600 N599 1.325 . S
C600 C604 1.416 . S
C601 C602 1.430 . S
C601 C603 1.404 . S
C601 C630 1.387 . S
C602 C594 1.448 . S
C602 N599 1.351 . S
C602 C601 1.430 . S
C603 H592 0.930 . S
C603 C601 1.404 . S
C603 C604 1.366 . S
C604 H583 0.930 . S
C604 C600 1.416 . S
C604 C603 1.366 . S
H605 C598 0.929 . S
H606 C629 0.931 . S
H607 C630 0.931 . S
O608 Eu564 2.462 . S
O608 C628 1.252 . S
O609 Eu564 2.373 . S
O609 C620 1.249 . S
O610 Eu575 2.335 . S
O610 C620 1.264 . S
O611 Eu564 2.432 . S
O611 C628 1.268 . S
O612 Eu564 2.291 . S
O612 C627 1.255 . S
O613 Eu575 2.372 . S
O613 C627 1.257 . S
O614 Eu575 2.462 . S
O614 C639 1.252 . S
O615 Eu575 2.373 . S
O615 C631 1.249 . S
O616 Eu564 2.335 . S
O616 C631 1.264 . S
O617 Eu575 2.432 . S
O617 C639 1.268 . S
O618 Eu575 2.291 . S
O618 C638 1.255 . S
O619 Eu564 2.372 . S
O619 C638 1.257 . S
C620 O609 1.249 . S
C620 O610 1.264 . S
C621 C624 1.382 . S
C621 C626 1.390 . S
C621 C628 1.506 . S
C622 C623 1.398 . S
C622 C626 1.392 . S
C623 C622 1.398 . S
C623 C625 1.372 . S
C623 H640 0.931 . S
C624 C621 1.382 . S
C624 C625 1.390 . S
C624 H641 0.931 . S
C625 C623 1.372 . S
C625 C624 1.390 . S
C625 H642 0.929 . S
C626 C621 1.390 . S
C626 C622 1.392 . S
C626 H643 0.930 . S
C627 O612 1.255 . S
C627 O613 1.257 . S
C628 Eu564 2.787 . S
C628 O608 1.252 . S
C628 O611 1.268 . S
C628 C621 1.506 . S
C629 C596 1.439 . S
C629 H606 0.931 . S
C629 C630 1.374 . S
C630 C601 1.387 . S
C630 H607 0.931 . S
C630 C629 1.374 . S
C631 O615 1.249 . S
C631 O616 1.264 . S
C632 C635 1.382 . S
C632 C636 1.390 . S
C632 C639 1.506 . S
C633 C634 1.398 . S
C633 C636 1.392 . S
C634 C633 1.398 . S
C634 C637 1.372 . S
C634 H644 0.931 . S
C635 C632 1.382 . S
C635 C637 1.390 . S
C635 H645 0.931 . S
C636 C632 1.390 . S
C636 C633 1.392 . S
C636 H646 0.930 . S
C637 C634 1.372 . S
C637 C635 1.390 . S
C637 H647 0.929 . S
C638 O618 1.255 . S
C638 O619 1.257 . S
C639 Eu575 2.787 . S
C639 O614 1.252 . S
C639 O617 1.268 . S
C639 C632 1.506 . S
H640 C623 0.931 . S
H641 C624 0.931 . S
H642 C625 0.929 . S
H643 C626 0.930 . S
H644 C634 0.931 . S
H645 C635 0.931 . S
H646 C636 0.930 . S
H647 C637 0.929 . S
Eu648 N677 2.600 . S
Eu648 N683 2.562 . S
Eu648 O692 2.462 . S
Eu648 O693 2.373 1_565 S
Eu648 O695 2.432 . S
Eu648 O696 2.292 . S
Eu648 O700 2.335 1_565 S
Eu648 O703 2.372 1_565 S
Eu648 C712 2.787 . S
C649 N650 1.369 . S
C649 C652 1.389 1_455 S
C649 C656 1.448 . S
N650 C649 1.369 . S
N650 C653 1.301 1_455 S
N650 Eu659 2.614 . S
C651 C653 1.397 . S
C651 C654 1.367 . S
C651 H671 0.931 . S
C652 C649 1.389 1_655 S
C652 C654 1.426 . S
C652 C658 1.433 1_655 S
C653 N650 1.301 1_655 S
C653 C651 1.397 . S
C653 H664 0.930 . S
C654 C651 1.367 . S
C654 C652 1.426 . S
C654 H675 0.929 . S
C655 C656 1.430 . S
C655 C657 1.387 . S
C655 C661 1.404 . S
C656 C649 1.448 . S
C656 C655 1.430 . S
C656 N660 1.351 . S
C657 C655 1.387 . S
C657 C658 1.374 . S
C657 H672 0.931 . S
C658 C652 1.433 1_455 S
C658 C657 1.374 . S
C658 H673 0.931 . S
Eu659 N650 2.614 . S
Eu659 N660 2.562 . S
Eu659 O694 2.335 . S
Eu659 O697 2.372 1_455 S
Eu659 O698 2.462 . S
Eu659 O699 2.373 . S
Eu659 O701 2.434 . S
Eu659 O702 2.291 . S
Eu659 C723 2.787 . S
N660 C656 1.351 . S
N660 Eu659 2.562 . S
N660 C662 1.325 . S
C661 C655 1.404 . S
C661 C663 1.366 . S
C661 H669 0.930 . S
C662 N660 1.325 . S
C662 C663 1.416 . S
C662 H668 0.929 . S
C663 C661 1.366 . S
C663 C662 1.416 . S
C663 H665 0.930 . S
H664 C653 0.930 . S
H665 C663 0.930 . S
H666 C681 0.930 1_545 S
H667 C688 0.930 . S
H668 C662 0.929 . S
H669 C661 0.930 . S
H670 C684 0.931 1_655 S
H671 C651 0.931 . S
H672 C657 0.931 . S
H673 C658 0.931 . S
H674 C679 0.931 . S
H675 C654 0.929 . S
H676 C687 0.930 1_655 S
N677 Eu648 2.600 . S
N677 C678 1.365 . S
N677 C681 1.319 . S
C678 N677 1.365 . S
C678 C680 1.405 . S
C678 C686 1.448 . S
C679 H674 0.931 . S
C679 C681 1.397 . S
C679 C682 1.367 . S
C680 C678 1.405 . S
C680 C682 1.403 . S
C680 C713 1.439 . S
C681 H666 0.930 1_565 S
C681 N677 1.319 . S
C681 C679 1.397 . S
C682 C679 1.367 . S
C682 C680 1.403 . S
C682 H689 0.929 . S
N683 Eu648 2.562 . S
N683 C684 1.325 . S
N683 C686 1.351 . S
C684 H670 0.931 1_455 S
C684 N683 1.325 . S
C684 C688 1.416 1_455 S
C685 C686 1.430 . S
C685 C687 1.404 . S
C685 C714 1.387 . S
C686 C678 1.448 . S
C686 N683 1.351 . S
C686 C685 1.430 . S
C687 H676 0.930 1_455 S
C687 C685 1.404 . S
C687 C688 1.366 1_455 S
C688 H667 0.930 . S
C688 C684 1.416 1_655 S
C688 C687 1.366 1_655 S
H689 C682 0.929 . S
H690 C713 0.931 . S
H691 C714 0.931 . S
O692 Eu648 2.462 . S
O692 C712 1.252 . S
O693 Eu648 2.373 1_545 S
O693 C704 1.249 . S
O694 Eu659 2.335 . S
O694 C704 1.264 . S
O695 Eu648 2.432 . S
O695 C712 1.268 . S
O696 Eu648 2.292 . S
O696 C711 1.255 1_465 S
O697 Eu659 2.372 1_655 S
O697 C711 1.257 . S
O698 Eu659 2.462 . S
O698 C723 1.252 . S
O699 Eu659 2.373 . S
O699 C715 1.249 . S
O700 Eu648 2.335 1_545 S
O700 C715 1.264 . S
O701 Eu659 2.434 . S
O701 C723 1.271 . S
O702 Eu659 2.291 . S
O702 C722 1.255 . S
O703 Eu648 2.372 1_545 S
O703 C722 1.257 . S
C704 O693 1.249 . S
C704 O694 1.264 . S
C705 C708 1.382 . S
C705 C710 1.390 . S
C705 C712 1.506 . S
C706 C707 1.398 . S
C706 C710 1.392 . S
C707 C706 1.398 . S
C707 C709 1.372 . S
C707 H724 0.931 . S
C708 C705 1.382 . S
C708 C709 1.390 . S
C708 H725 0.931 . S
C709 C707 1.372 . S
C709 C708 1.390 . S
C709 H726 0.929 . S
C710 C705 1.390 . S
C710 C706 1.392 . S
C710 H727 0.930 . S
C711 O696 1.255 1_645 S
C711 O697 1.257 . S
C712 Eu648 2.787 . S
C712 O692 1.252 . S
C712 O695 1.268 . S
C712 C705 1.506 . S
C713 C680 1.439 . S
C713 H690 0.931 . S
C713 C714 1.374 . S
C714 C685 1.387 . S
C714 H691 0.931 . S
C714 C713 1.374 . S
C715 O699 1.249 . S
C715 O700 1.264 . S
C716 C719 1.382 1_455 S
C716 C720 1.390 . S
C716 C723 1.506 . S
C717 C718 1.398 . S
C717 C720 1.392 . S
C718 C717 1.398 . S
C718 C721 1.372 1_455 S
C718 H728 0.936 . S
C719 C716 1.382 1_655 S
C719 C721 1.390 . S
C719 H729 0.931 . S
C720 C716 1.390 . S
C720 C717 1.392 . S
C720 H730 0.930 . S
C721 C718 1.372 1_655 S
C721 C719 1.390 . S
C721 H731 0.929 . S
C722 O702 1.255 . S
C722 O703 1.257 . S
C723 Eu659 2.787 . S
C723 O698 1.252 . S
C723 O701 1.271 . S
C723 C716 1.506 . S
H724 C707 0.931 . S
H725 C708 0.931 . S
H726 C709 0.929 . S
H727 C710 0.930 . S
H728 C718 0.936 . S
H729 C719 0.931 . S
H730 C720 0.930 . S
H731 C721 0.929 . S
Eu732 N761 2.600 . S
Eu732 N767 2.562 . S
Eu732 O776 2.462 . S
Eu732 O777 2.373 . S
Eu732 O779 2.432 . S
Eu732 O780 2.291 . S
Eu732 O784 2.335 . S
Eu732 O787 2.372 . S
Eu732 C796 2.787 . S
C733 N734 1.365 . S
C733 C736 1.405 . S
C733 C740 1.448 . S
N734 C733 1.365 . S
N734 C737 1.319 . S
N734 Eu743 2.600 . S
C735 C737 1.397 . S
C735 C738 1.367 . S
C735 H755 0.931 . S
C736 C733 1.405 . S
C736 C738 1.403 . S
C736 C742 1.439 . S
C737 N734 1.319 . S
C737 C735 1.397 . S
C737 H748 0.930 . S
C738 C735 1.367 . S
C738 C736 1.403 . S
C738 H759 0.929 . S
C739 C740 1.430 . S
C739 C741 1.387 . S
C739 C745 1.404 . S
C740 C733 1.448 . S
C740 C739 1.430 . S
C740 N744 1.351 . S
C741 C739 1.387 . S
C741 C742 1.374 . S
C741 H756 0.931 . S
C742 C736 1.439 . S
C742 C741 1.374 . S
C742 H757 0.931 . S
Eu743 N734 2.600 . S
Eu743 N744 2.562 . S
Eu743 O778 2.335 . S
Eu743 O781 2.372 . S
Eu743 O782 2.462 . S
Eu743 O783 2.373 . S
Eu743 O785 2.432 . S
Eu743 O786 2.291 . S
Eu743 C807 2.787 . S
N744 C740 1.351 . S
N744 Eu743 2.562 . S
N744 C746 1.325 . S
C745 C739 1.404 . S
C745 C747 1.366 . S
C745 H753 0.930 . S
C746 N744 1.325 . S
C746 C747 1.416 . S
C746 H752 0.929 . S
C747 C745 1.366 . S
C747 C746 1.416 . S
C747 H749 0.930 . S
H748 C737 0.930 . S
H749 C747 0.930 . S
H750 C765 0.930 . S
H751 C772 0.930 . S
H752 C746 0.929 . S
H753 C745 0.930 . S
H754 C768 0.929 . S
H755 C735 0.931 . S
H756 C741 0.931 . S
H757 C742 0.931 . S
H758 C763 0.931 . S
H759 C738 0.929 . S
H760 C771 0.930 . S
N761 Eu732 2.600 . S
N761 C762 1.365 . S
N761 C765 1.319 . S
C762 N761 1.365 . S
C762 C764 1.405 . S
C762 C770 1.448 . S
C763 H758 0.931 . S
C763 C765 1.397 . S
C763 C766 1.367 . S
C764 C762 1.405 . S
C764 C766 1.403 . S
C764 C797 1.439 . S
C765 H750 0.930 . S
C765 N761 1.319 . S
C765 C763 1.397 . S
C766 C763 1.367 . S
C766 C764 1.403 . S
C766 H773 0.929 . S
N767 Eu732 2.562 . S
N767 C768 1.325 . S
N767 C770 1.351 . S
C768 H754 0.929 . S
C768 N767 1.325 . S
C768 C772 1.416 . S
C769 C770 1.430 . S
C769 C771 1.404 . S
C769 C798 1.387 . S
C770 C762 1.448 . S
C770 N767 1.351 . S
C770 C769 1.430 . S
C771 H760 0.930 . S
C771 C769 1.404 . S
C771 C772 1.366 . S
C772 H751 0.930 . S
C772 C768 1.416 . S
C772 C771 1.366 . S
H773 C766 0.929 . S
H774 C797 0.931 . S
H775 C798 0.931 . S
O776 Eu732 2.462 . S
O776 C796 1.252 . S
O777 Eu732 2.373 . S
O777 C788 1.249 . S
O778 Eu743 2.335 . S
O778 C788 1.264 . S
O779 Eu732 2.432 . S
O779 C796 1.268 . S
O780 Eu732 2.291 . S
O780 C795 1.255 . S
O781 Eu743 2.372 . S
O781 C795 1.257 . S
O782 Eu743 2.462 . S
O782 C807 1.252 . S
O783 Eu743 2.373 . S
O783 C799 1.249 . S
O784 Eu732 2.335 . S
O784 C799 1.264 . S
O785 Eu743 2.432 . S
O785 C807 1.268 . S
O786 Eu743 2.291 . S
O786 C806 1.255 . S
O787 Eu732 2.372 . S
O787 C806 1.257 . S
C788 O777 1.249 . S
C788 O778 1.264 . S
C789 C792 1.382 . S
C789 C794 1.390 . S
C789 C796 1.506 . S
C790 C791 1.398 . S
C790 C794 1.392 . S
C791 C790 1.398 . S
C791 C793 1.372 . S
C791 H808 0.931 . S
C792 C789 1.382 . S
C792 C793 1.390 . S
C792 H809 0.931 . S
C793 C791 1.372 . S
C793 C792 1.390 . S
C793 H810 0.929 . S
C794 C789 1.390 . S
C794 C790 1.392 . S
C794 H811 0.930 . S
C795 O780 1.255 . S
C795 O781 1.257 . S
C796 Eu732 2.787 . S
C796 O776 1.252 . S
C796 O779 1.268 . S
C796 C789 1.506 . S
C797 C764 1.439 . S
C797 H774 0.931 . S
C797 C798 1.374 . S
C798 C769 1.387 . S
C798 H775 0.931 . S
C798 C797 1.374 . S
C799 O783 1.249 . S
C799 O784 1.264 . S
C800 C803 1.382 . S
C800 C804 1.390 . S
C800 C807 1.506 . S
C801 C802 1.398 . S
C801 C804 1.392 . S
C802 C801 1.398 . S
C802 C805 1.372 . S
C802 H812 0.931 . S
C803 C800 1.382 . S
C803 C805 1.390 . S
C803 H813 0.931 . S
C804 C800 1.390 . S
C804 C801 1.392 . S
C804 H814 0.930 . S
C805 C802 1.372 . S
C805 C803 1.390 . S
C805 H815 0.929 . S
C806 O786 1.255 . S
C806 O787 1.257 . S
C807 Eu743 2.787 . S
C807 O782 1.252 . S
C807 O785 1.268 . S
C807 C800 1.506 . S
H808 C791 0.931 . S
H809 C792 0.931 . S
H810 C793 0.929 . S
H811 C794 0.930 . S
H812 C802 0.931 . S
H813 C803 0.931 . S
H814 C804 0.930 . S
H815 C805 0.929 . S
Eu816 N845 2.600 . S
Eu816 N851 2.562 . S
Eu816 O860 2.462 . S
Eu816 O861 2.373 1_556 S
Eu816 O863 2.432 . S
Eu816 O864 2.291 . S
Eu816 O868 2.335 1_556 S
Eu816 O871 2.372 1_556 S
Eu816 C880 2.787 . S
C817 N818 1.360 1_545 S
C817 C820 1.405 1_545 S
C817 C824 1.448 . S
N818 C817 1.360 1_565 S
N818 C821 1.356 . S
N818 Eu827 2.568 1_565 S
C819 C821 1.397 . S
C819 C822 1.367 . S
C819 H839 0.931 . S
C820 C817 1.405 1_565 S
C820 C822 1.403 . S
C820 C826 1.439 1_565 S
C821 N818 1.356 . S
C821 C819 1.397 . S
C821 H832 0.930 . S
C822 C819 1.367 . S
C822 C820 1.403 . S
C822 H843 0.929 . S
C823 C824 1.430 . S
C823 C825 1.387 . S
C823 C829 1.404 . S
C824 C817 1.448 . S
C824 C823 1.430 . S
C824 N828 1.351 . S
C825 C823 1.387 . S
C825 C826 1.374 . S
C825 H840 0.931 . S
C826 C820 1.439 1_545 S
C826 C825 1.374 . S
C826 H841 0.943 . S
Eu827 N818 2.568 1_545 S
Eu827 N828 2.562 . S
Eu827 O862 2.335 . S
Eu827 O865 2.372 1_545 S
Eu827 O866 2.462 . S
Eu827 O867 2.373 . S
Eu827 O869 2.432 1_545 S
Eu827 O870 2.291 . S
Eu827 C891 2.787 . S
N828 C824 1.351 . S
N828 Eu827 2.562 . S
N828 C830 1.325 . S
C829 C823 1.404 . S
C829 C831 1.366 . S
C829 H837 0.930 . S
C830 N828 1.325 . S
C830 C831 1.416 . S
C830 H836 0.929 . S
C831 C829 1.366 . S
C831 C830 1.416 . S
C831 H833 0.930 . S
H832 C821 0.930 . S
H833 C831 0.930 . S
H834 C849 0.930 1_554 S
H835 C856 0.930 1_565 S
H836 C830 0.929 . S
H837 C829 0.930 . S
H838 C852 0.929 . S
H839 C819 0.931 . S
H840 C825 0.931 . S
H841 C826 0.943 . S
H842 C847 0.931 . S
H843 C822 0.929 . S
H844 C855 0.930 . S
N845 Eu816 2.600 . S
N845 C846 1.365 . S
N845 C849 1.319 . S
C846 N845 1.365 . S
C846 C848 1.405 . S
C846 C854 1.448 . S
C847 H842 0.931 . S
C847 C849 1.397 . S
C847 C850 1.367 . S
C848 C846 1.405 . S
C848 C850 1.403 . S
C848 C881 1.439 . S
C849 H834 0.930 1_556 S
C849 N845 1.319 . S
C849 C847 1.397 . S
C850 C847 1.367 . S
C850 C848 1.403 . S
C850 H857 0.929 . S
N851 Eu816 2.562 . S
N851 C852 1.325 . S
N851 C854 1.351 . S
C852 H838 0.929 . S
C852 N851 1.325 . S
C852 C856 1.416 . S
C853 C854 1.430 . S
C853 C855 1.404 . S
C853 C882 1.387 . S
C854 C846 1.448 . S
C854 N851 1.351 . S
C854 C853 1.430 . S
C855 H844 0.930 . S
C855 C853 1.404 . S
C855 C856 1.366 . S
C856 H835 0.930 1_545 S
C856 C852 1.416 . S
C856 C855 1.366 . S
H857 C850 0.929 . S
H858 C881 0.931 . S
H859 C882 0.931 . S
O860 Eu816 2.462 . S
O860 C880 1.252 . S
O861 Eu816 2.373 1_554 S
O861 C872 1.249 . S
O862 Eu827 2.335 . S
O862 C872 1.264 . S
O863 Eu816 2.432 . S
O863 C880 1.268 . S
O864 Eu816 2.291 . S
O864 C879 1.255 . S
O865 Eu827 2.372 1_565 S
O865 C879 1.257 1_564 S
O866 Eu827 2.462 . S
O866 C891 1.252 . S
O867 Eu827 2.373 . S
O867 C883 1.249 . S
O868 Eu816 2.335 1_554 S
O868 C883 1.264 . S
O869 Eu827 2.432 1_565 S
O869 C891 1.268 1_565 S
O870 Eu827 2.291 . S
O870 C890 1.255 . S
O871 Eu816 2.372 1_554 S
O871 C890 1.257 . S
C872 O861 1.249 . S
C872 O862 1.264 . S
C873 C876 1.382 . S
C873 C878 1.390 . S
C873 C880 1.506 . S
C874 C875 1.398 . S
C874 C878 1.392 . S
C875 C874 1.398 . S
C875 C877 1.372 . S
C875 H892 0.931 . S
C876 C873 1.382 . S
C876 C877 1.390 . S
C876 H893 0.931 . S
C877 C875 1.372 . S
C877 C876 1.390 . S
C877 H894 0.929 . S
C878 C873 1.390 . S
C878 C874 1.392 . S
C878 H895 0.930 . S
C879 O864 1.255 . S
C879 O865 1.257 1_546 S
C880 Eu816 2.787 . S
C880 O860 1.252 . S
C880 O863 1.268 . S
C880 C873 1.506 . S
C881 C848 1.439 . S
C881 H858 0.931 . S
C881 C882 1.374 . S
C882 C853 1.387 . S
C882 H859 0.931 . S
C882 C881 1.374 . S
C883 O867 1.249 . S
C883 O868 1.264 . S
C884 C887 1.382 1_545 S
C884 C888 1.390 . S
C884 C891 1.506 . S
C885 C886 1.398 1_545 S
C885 C888 1.392 . S
C886 C885 1.398 1_565 S
C886 C889 1.372 . S
C886 H896 0.931 . S
C887 C884 1.382 1_565 S
C887 C889 1.390 . S
C887 H897 0.931 . S
C888 C884 1.390 . S
C888 C885 1.392 . S
C888 H898 0.930 . S
C889 C886 1.372 . S
C889 C887 1.390 . S
C889 H899 0.929 . S
C890 O870 1.255 . S
C890 O871 1.257 . S
C891 Eu827 2.787 . S
C891 O866 1.252 . S
C891 O869 1.268 1_545 S
C891 C884 1.506 . S
H892 C875 0.931 . S
H893 C876 0.931 . S
H894 C877 0.929 . S
H895 C878 0.930 . S
H896 C886 0.931 . S
H897 C887 0.931 . S
H898 C888 0.930 . S
H899 C889 0.929 . S
Eu900 N929 2.600 . S
Eu900 N935 2.562 . S
Eu900 O944 2.462 . S
Eu900 O945 2.373 . S
Eu900 O947 2.432 . S
Eu900 O948 2.291 . S
Eu900 O952 2.335 . S
Eu900 O955 2.372 . S
Eu900 C964 2.787 . S
C901 N902 1.365 . S
C901 C904 1.405 . S
C901 C908 1.448 . S
N902 C901 1.365 . S
N902 C905 1.319 . S
N902 Eu911 2.600 . S
C903 C905 1.397 . S
C903 C906 1.367 . S
C903 H923 0.931 . S
C904 C901 1.405 . S
C904 C906 1.403 . S
C904 C910 1.439 . S
C905 N902 1.319 . S
C905 C903 1.397 . S
C905 H916 0.930 . S
C906 C903 1.367 . S
C906 C904 1.403 . S
C906 H927 0.929 . S
C907 C908 1.430 . S
C907 C909 1.387 . S
C907 C913 1.404 . S
C908 C901 1.448 . S
C908 C907 1.430 . S
C908 N912 1.351 . S
C909 C907 1.387 . S
C909 C910 1.374 . S
C909 H924 0.931 . S
C910 C904 1.439 . S
C910 C909 1.374 . S
C910 H925 0.931 . S
Eu911 N902 2.600 . S
Eu911 N912 2.562 . S
Eu911 O946 2.335 . S
Eu911 O949 2.372 . S
Eu911 O950 2.462 . S
Eu911 O951 2.373 . S
Eu911 O953 2.432 . S
Eu911 O954 2.291 . S
Eu911 C975 2.787 . S
N912 C908 1.351 . S
N912 Eu911 2.562 . S
N912 C914 1.325 . S
C913 C907 1.404 . S
C913 C915 1.366 . S
C913 H921 0.930 . S
C914 N912 1.325 . S
C914 C915 1.416 . S
C914 H920 0.929 . S
C915 C913 1.366 . S
C915 C914 1.416 . S
C915 H917 0.930 . S
H916 C905 0.930 . S
H917 C915 0.930 . S
H918 C933 0.930 . S
H919 C940 0.930 . S
H920 C914 0.929 . S
H921 C913 0.930 . S
H922 C936 0.929 . S
H923 C903 0.931 . S
H924 C909 0.931 . S
H925 C910 0.931 . S
H926 C931 0.931 . S
H927 C906 0.929 . S
H928 C939 0.930 . S
N929 Eu900 2.600 . S
N929 C930 1.365 . S
N929 C933 1.319 . S
C930 N929 1.365 . S
C930 C932 1.405 . S
C930 C938 1.448 . S
C931 H926 0.931 . S
C931 C933 1.397 . S
C931 C934 1.367 . S
C932 C930 1.405 . S
C932 C934 1.403 . S
C932 C965 1.439 . S
C933 H918 0.930 . S
C933 N929 1.319 . S
C933 C931 1.397 . S
C934 C931 1.367 . S
C934 C932 1.403 . S
C934 H941 0.929 . S
N935 Eu900 2.562 . S
N935 C936 1.325 . S
N935 C938 1.351 . S
C936 H922 0.929 . S
C936 N935 1.325 . S
C936 C940 1.416 . S
C937 C938 1.430 . S
C937 C939 1.404 . S
C937 C966 1.387 . S
C938 C930 1.448 . S
C938 N935 1.351 . S
C938 C937 1.430 . S
C939 H928 0.930 . S
C939 C937 1.404 . S
C939 C940 1.366 . S
C940 H919 0.930 . S
C940 C936 1.416 . S
C940 C939 1.366 . S
H941 C934 0.929 . S
H942 C965 0.931 . S
H943 C966 0.931 . S
O944 Eu900 2.462 . S
O944 C964 1.252 . S
O945 Eu900 2.373 . S
O945 C956 1.249 . S
O946 Eu911 2.335 . S
O946 C956 1.264 . S
O947 Eu900 2.432 . S
O947 C964 1.268 . S
O948 Eu900 2.291 . S
O948 C963 1.255 . S
O949 Eu911 2.372 . S
O949 C963 1.257 . S
O950 Eu911 2.462 . S
O950 C975 1.252 . S
O951 Eu911 2.373 . S
O951 C967 1.249 . S
O952 Eu900 2.335 . S
O952 C967 1.264 . S
O953 Eu911 2.432 . S
O953 C975 1.268 . S
O954 Eu911 2.291 . S
O954 C974 1.255 . S
O955 Eu900 2.372 . S
O955 C974 1.257 . S
C956 O945 1.249 . S
C956 O946 1.264 . S
C957 C960 1.382 . S
C957 C962 1.390 . S
C957 C964 1.506 . S
C958 C959 1.398 . S
C958 C962 1.392 . S
C959 C958 1.398 . S
C959 C961 1.372 . S
C959 H976 0.931 . S
C960 C957 1.382 . S
C960 C961 1.390 . S
C960 H977 0.931 . S
C961 C959 1.372 . S
C961 C960 1.390 . S
C961 H978 0.929 . S
C962 C957 1.390 . S
C962 C958 1.392 . S
C962 H979 0.930 . S
C963 O948 1.255 . S
C963 O949 1.257 . S
C964 Eu900 2.787 . S
C964 O944 1.252 . S
C964 O947 1.268 . S
C964 C957 1.506 . S
C965 C932 1.439 . S
C965 H942 0.931 . S
C965 C966 1.374 . S
C966 C937 1.387 . S
C966 H943 0.931 . S
C966 C965 1.374 . S
C967 O951 1.249 . S
C967 O952 1.264 . S
C968 C971 1.382 . S
C968 C972 1.390 . S
C968 C975 1.506 . S
C969 C970 1.398 . S
C969 C972 1.392 . S
C970 C969 1.398 . S
C970 C973 1.372 . S
C970 H980 0.931 . S
C971 C968 1.382 . S
C971 C973 1.390 . S
C971 H981 0.931 . S
C972 C968 1.390 . S
C972 C969 1.392 . S
C972 H982 0.930 . S
C973 C970 1.372 . S
C973 C971 1.390 . S
C973 H983 0.929 . S
C974 O954 1.255 . S
C974 O955 1.257 . S
C975 Eu911 2.787 . S
C975 O950 1.252 . S
C975 O953 1.268 . S
C975 C968 1.506 . S
H976 C959 0.931 . S
H977 C960 0.931 . S
H978 C961 0.929 . S
H979 C962 0.930 . S
H980 C970 0.931 . S
H981 C971 0.931 . S
H982 C972 0.930 . S
H983 C973 0.929 . S
Eu984 N1013 2.600 1_554 S
Eu984 N1019 2.562 1_554 S
Eu984 O1028 2.462 . S
Eu984 O1029 2.373 1_554 S
Eu984 O1031 2.432 . S
Eu984 O1032 2.291 . S
Eu984 O1036 2.335 . S
Eu984 O1039 2.372 . S
Eu984 C1048 2.787 . S
C985 N986 1.365 . S
C985 C988 1.405 . S
C985 C992 1.448 . S
N986 C985 1.365 . S
N986 C989 1.319 . S
N986 Eu995 2.600 . S
C987 C989 1.397 . S
C987 C990 1.367 . S
C987 H1007 0.931 . S
C988 C985 1.405 . S
C988 C990 1.403 . S
C988 C994 1.439 . S
C989 N986 1.319 . S
C989 C987 1.397 . S
C989 H1000 0.930 . S
C990 C987 1.367 . S
C990 C988 1.403 . S
C990 H1011 0.929 . S
C991 C992 1.430 . S
C991 C993 1.387 . S
C991 C997 1.404 . S
C992 C985 1.448 . S
C992 C991 1.430 . S
C992 N996 1.351 . S
C993 C991 1.387 . S
C993 C994 1.374 . S
C993 H1008 0.931 . S
C994 C988 1.439 . S
C994 C993 1.374 . S
C994 H1009 0.931 . S
Eu995 N986 2.600 . S
Eu995 N996 2.562 . S
Eu995 O1030 2.335 1_554 S
Eu995 O1033 2.372 . S
Eu995 O1034 2.462 . S
Eu995 O1035 2.373 . S
Eu995 O1037 2.432 . S
Eu995 O1038 2.291 . S
Eu995 C1059 2.787 . S
N996 C992 1.351 . S
N996 Eu995 2.562 . S
N996 C998 1.325 . S
C997 C991 1.404 . S
C997 C999 1.366 . S
C997 H1005 0.930 . S
C998 N996 1.325 . S
C998 C999 1.416 . S
C998 H1004 0.929 . S
C999 C997 1.366 . S
C999 C998 1.416 . S
C999 H1001 0.930 . S
H1000 C989 0.930 . S
H1001 C999 0.930 . S
H1002 C1017 0.930 1_554 S
H1003 C1024 0.930 . S
H1004 C998 0.929 . S
H1005 C997 0.930 . S
H1006 C1020 0.929 . S
H1007 C987 0.931 . S
H1008 C993 0.931 . S
H1009 C994 0.931 . S
H1010 C1015 0.931 . S
H1011 C990 0.929 . S
H1012 C1023 0.930 . S
N1013 Eu984 2.600 1_556 S
N1013 C1014 1.365 . S
N1013 C1017 1.319 . S
C1014 N1013 1.365 . S
C1014 C1016 1.405 . S
C1014 C1022 1.448 . S
C1015 H1010 0.931 . S
C1015 C1017 1.397 . S
C1015 C1018 1.367 . S
C1016 C1014 1.405 . S
C1016 C1018 1.403 . S
C1016 C1049 1.439 . S
C1017 H1002 0.930 1_556 S
C1017 N1013 1.319 . S
C1017 C1015 1.397 . S
C1018 C1015 1.367 . S
C1018 C1016 1.403 . S
C1018 H1025 0.929 . S
N1019 Eu984 2.562 1_556 S
N1019 C1020 1.325 . S
N1019 C1022 1.351 . S
C1020 H1006 0.929 . S
C1020 N1019 1.325 . S
C1020 C1024 1.416 . S
C1021 C1022 1.430 . S
C1021 C1023 1.404 . S
C1021 C1050 1.387 . S
C1022 C1014 1.448 . S
C1022 N1019 1.351 . S
C1022 C1021 1.430 . S
C1023 H1012 0.930 . S
C1023 C1021 1.404 . S
C1023 C1024 1.366 . S
C1024 H1003 0.930 . S
C1024 C1020 1.416 . S
C1024 C1023 1.366 . S
H1025 C1018 0.929 . S
H1026 C1049 0.931 . S
H1027 C1050 0.931 . S
O1028 Eu984 2.462 . S
O1028 C1048 1.252 . S
O1029 Eu984 2.373 1_556 S
O1029 C1040 1.249 . S
O1030 Eu995 2.335 1_556 S
O1030 C1040 1.264 . S
O1031 Eu984 2.432 . S
O1031 C1048 1.268 . S
O1032 Eu984 2.291 . S
O1032 C1047 1.255 . S
O1033 Eu995 2.372 . S
O1033 C1047 1.257 . S
O1034 Eu995 2.462 . S
O1034 C1059 1.252 . S
O1035 Eu995 2.373 . S
O1035 C1051 1.249 . S
O1036 Eu984 2.335 . S
O1036 C1051 1.264 . S
O1037 Eu995 2.432 . S
O1037 C1059 1.268 . S
O1038 Eu995 2.291 . S
O1038 C1058 1.255 . S
O1039 Eu984 2.372 . S
O1039 C1058 1.257 . S
C1040 O1029 1.249 . S
C1040 O1030 1.264 . S
C1041 C1044 1.382 . S
C1041 C1046 1.390 . S
C1041 C1048 1.506 . S
C1042 C1043 1.398 . S
C1042 C1046 1.392 . S
C1043 C1042 1.398 . S
C1043 C1045 1.372 . S
C1043 H1060 0.931 . S
C1044 C1041 1.382 . S
C1044 C1045 1.390 . S
C1044 H1061 0.931 . S
C1045 C1043 1.372 . S
C1045 C1044 1.390 . S
C1045 H1062 0.929 . S
C1046 C1041 1.390 . S
C1046 C1042 1.392 . S
C1046 H1063 0.930 . S
C1047 O1032 1.255 . S
C1047 O1033 1.257 . S
C1048 Eu984 2.787 . S
C1048 O1028 1.252 . S
C1048 O1031 1.268 . S
C1048 C1041 1.506 . S
C1049 C1016 1.439 . S
C1049 H1026 0.931 . S
C1049 C1050 1.374 . S
C1050 C1021 1.387 . S
C1050 H1027 0.931 . S
C1050 C1049 1.374 . S
C1051 O1035 1.249 . S
C1051 O1036 1.264 . S
C1052 C1055 1.382 . S
C1052 C1056 1.390 . S
C1052 C1059 1.506 1_556 S
C1053 C1054 1.398 . S
C1053 C1056 1.392 . S
C1054 C1053 1.398 . S
C1054 C1057 1.372 . S
C1054 H1064 0.931 . S
C1055 C1052 1.382 . S
C1055 C1057 1.390 . S
C1055 H1065 0.931 . S
C1056 C1052 1.390 . S
C1056 C1053 1.392 . S
C1056 H1066 0.930 . S
C1057 C1054 1.372 . S
C1057 C1055 1.390 . S
C1057 H1067 0.929 . S
C1058 O1038 1.255 . S
C1058 O1039 1.257 . S
C1059 Eu995 2.787 . S
C1059 O1034 1.252 . S
C1059 O1037 1.268 . S
C1059 C1052 1.506 1_554 S
H1060 C1043 0.931 . S
H1061 C1044 0.931 . S
H1062 C1045 0.929 . S
H1063 C1046 0.930 . S
H1064 C1054 0.931 . S
H1065 C1055 0.931 . S
H1066 C1056 0.930 . S
H1067 C1057 0.929 . S
Eu1068 N1097 2.600 . S
Eu1068 N1103 2.562 . S
Eu1068 O1112 2.462 . S
Eu1068 O1113 2.373 . S
Eu1068 O1115 2.432 . S
Eu1068 O1116 2.291 . S
Eu1068 O1120 2.335 . S
Eu1068 O1123 2.372 . S
Eu1068 C1132 2.787 . S
C1069 N1070 1.365 . S
C1069 C1072 1.405 . S
C1069 C1076 1.448 . S
N1070 C1069 1.365 . S
N1070 C1073 1.319 . S
N1070 Eu1079 2.600 . S
C1071 C1073 1.397 . S
C1071 C1074 1.367 . S
C1071 H1091 0.931 . S
C1072 C1069 1.405 . S
C1072 C1074 1.403 . S
C1072 C1078 1.439 . S
C1073 N1070 1.319 . S
C1073 C1071 1.397 . S
C1073 H1084 0.930 . S
C1074 C1071 1.367 . S
C1074 C1072 1.403 . S
C1074 H1095 0.929 . S
C1075 C1076 1.430 . S
C1075 C1077 1.387 . S
C1075 C1081 1.404 . S
C1076 C1069 1.448 . S
C1076 C1075 1.430 . S
C1076 N1080 1.351 . S
C1077 C1075 1.387 . S
C1077 C1078 1.374 . S
C1077 H1092 0.931 . S
C1078 C1072 1.439 . S
C1078 C1077 1.374 . S
C1078 H1093 0.931 . S
Eu1079 N1070 2.600 . S
Eu1079 N1080 2.562 . S
Eu1079 O1114 2.335 . S
Eu1079 O1117 2.372 . S
Eu1079 O1118 2.462 . S
Eu1079 O1119 2.373 . S
Eu1079 O1121 2.432 . S
Eu1079 O1122 2.291 . S
Eu1079 C1143 2.787 . S
N1080 C1076 1.351 . S
N1080 Eu1079 2.562 . S
N1080 C1082 1.325 . S
C1081 C1075 1.404 . S
C1081 C1083 1.366 . S
C1081 H1089 0.930 . S
C1082 N1080 1.325 . S
C1082 C1083 1.416 . S
C1082 H1088 0.929 . S
C1083 C1081 1.366 . S
C1083 C1082 1.416 . S
C1083 H1085 0.930 . S
H1084 C1073 0.930 . S
H1085 C1083 0.930 . S
H1086 C1101 0.930 . S
H1087 C1108 0.930 . S
H1088 C1082 0.929 . S
H1089 C1081 0.930 . S
H1090 C1104 0.929 . S
H1091 C1071 0.931 . S
H1092 C1077 0.931 . S
H1093 C1078 0.931 . S
H1094 C1099 0.931 . S
H1095 C1074 0.929 . S
H1096 C1107 0.930 . S
N1097 Eu1068 2.600 . S
N1097 C1098 1.365 . S
N1097 C1101 1.319 . S
C1098 N1097 1.365 . S
C1098 C1100 1.405 . S
C1098 C1106 1.448 . S
C1099 H1094 0.931 . S
C1099 C1101 1.397 . S
C1099 C1102 1.367 . S
C1100 C1098 1.405 . S
C1100 C1102 1.403 . S
C1100 C1133 1.439 . S
C1101 H1086 0.930 . S
C1101 N1097 1.319 . S
C1101 C1099 1.397 . S
C1102 C1099 1.367 . S
C1102 C1100 1.403 . S
C1102 H1109 0.929 . S
N1103 Eu1068 2.562 . S
N1103 C1104 1.325 . S
N1103 C1106 1.351 . S
C1104 H1090 0.929 . S
C1104 N1103 1.325 . S
C1104 C1108 1.416 . S
C1105 C1106 1.430 . S
C1105 C1107 1.404 . S
C1105 C1134 1.387 . S
C1106 C1098 1.448 . S
C1106 N1103 1.351 . S
C1106 C1105 1.430 . S
C1107 H1096 0.930 . S
C1107 C1105 1.404 . S
C1107 C1108 1.366 . S
C1108 H1087 0.930 . S
C1108 C1104 1.416 . S
C1108 C1107 1.366 . S
H1109 C1102 0.929 . S
H1110 C1133 0.931 . S
H1111 C1134 0.931 . S
O1112 Eu1068 2.462 . S
O1112 C1132 1.252 . S
O1113 Eu1068 2.373 . S
O1113 C1124 1.249 . S
O1114 Eu1079 2.335 . S
O1114 C1124 1.264 . S
O1115 Eu1068 2.432 . S
O1115 C1132 1.268 . S
O1116 Eu1068 2.291 . S
O1116 C1131 1.255 . S
O1117 Eu1079 2.372 . S
O1117 C1131 1.257 . S
O1118 Eu1079 2.462 . S
O1118 C1143 1.252 . S
O1119 Eu1079 2.373 . S
O1119 C1135 1.249 . S
O1120 Eu1068 2.335 . S
O1120 C1135 1.264 . S
O1121 Eu1079 2.432 . S
O1121 C1143 1.268 . S
O1122 Eu1079 2.291 . S
O1122 C1142 1.255 . S
O1123 Eu1068 2.372 . S
O1123 C1142 1.257 . S
C1124 O1113 1.249 . S
C1124 O1114 1.264 . S
C1125 C1128 1.382 . S
C1125 C1130 1.390 . S
C1125 C1132 1.506 . S
C1126 C1127 1.398 . S
C1126 C1130 1.392 . S
C1127 C1126 1.398 . S
C1127 C1129 1.372 . S
C1127 H1144 0.931 . S
C1128 C1125 1.382 . S
C1128 C1129 1.390 . S
C1128 H1145 0.931 . S
C1129 C1127 1.372 . S
C1129 C1128 1.390 . S
C1129 H1146 0.929 . S
C1130 C1125 1.390 . S
C1130 C1126 1.392 . S
C1130 H1147 0.930 . S
C1131 O1116 1.255 . S
C1131 O1117 1.257 . S
C1132 Eu1068 2.787 . S
C1132 O1112 1.252 . S
C1132 O1115 1.268 . S
C1132 C1125 1.506 . S
C1133 C1100 1.439 . S
C1133 H1110 0.931 . S
C1133 C1134 1.374 . S
C1134 C1105 1.387 . S
C1134 H1111 0.931 . S
C1134 C1133 1.374 . S
C1135 O1119 1.249 . S
C1135 O1120 1.264 . S
C1136 C1139 1.382 . S
C1136 C1140 1.390 . S
C1136 C1143 1.506 . S
C1137 C1138 1.398 . S
C1137 C1140 1.392 . S
C1138 C1137 1.398 . S
C1138 C1141 1.372 . S
C1138 H1148 0.931 . S
C1139 C1136 1.382 . S
C1139 C1141 1.390 . S
C1139 H1149 0.931 . S
C1140 C1136 1.390 . S
C1140 C1137 1.392 . S
C1140 H1150 0.930 . S
C1141 C1138 1.372 . S
C1141 C1139 1.390 . S
C1141 H1151 0.929 . S
C1142 O1122 1.255 . S
C1142 O1123 1.257 . S
C1143 Eu1079 2.787 . S
C1143 O1118 1.252 . S
C1143 O1121 1.268 . S
C1143 C1136 1.506 . S
H1144 C1127 0.931 . S
H1145 C1128 0.931 . S
H1146 C1129 0.929 . S
H1147 C1130 0.930 . S
H1148 C1138 0.931 . S
H1149 C1139 0.931 . S
H1150 C1140 0.930 . S
H1151 C1141 0.929 . S
Eu1152 N1181 2.600 1_455 S
Eu1152 N1187 2.562 1_455 S
Eu1152 O1196 2.462 . S
Eu1152 O1197 2.373 1_455 S
Eu1152 O1199 2.432 . S
Eu1152 O1200 2.291 . S
Eu1152 O1204 2.335 . S
Eu1152 O1207 2.372 . S
Eu1152 C1216 2.787 . S
C1153 N1154 1.365 . S
C1153 C1156 1.405 . S
C1153 C1160 1.448 . S
N1154 C1153 1.365 . S
N1154 C1157 1.319 . S
N1154 Eu1163 2.600 . S
C1155 C1157 1.397 . S
C1155 C1158 1.367 . S
C1155 H1175 0.931 . S
C1156 C1153 1.405 . S
C1156 C1158 1.403 . S
C1156 C1162 1.439 . S
C1157 N1154 1.319 . S
C1157 C1155 1.397 . S
C1157 H1168 0.930 . S
C1158 C1155 1.367 . S
C1158 C1156 1.403 . S
C1158 H1179 0.929 . S
C1159 C1160 1.430 . S
C1159 C1161 1.387 . S
C1159 C1165 1.404 . S
C1160 C1153 1.448 . S
C1160 C1159 1.430 . S
C1160 N1164 1.351 . S
C1161 C1159 1.387 . S
C1161 C1162 1.374 . S
C1161 H1176 0.931 . S
C1162 C1156 1.439 . S
C1162 C1161 1.374 . S
C1162 H1177 0.931 . S
Eu1163 N1154 2.600 . S
Eu1163 N1164 2.562 . S
Eu1163 O1198 2.335 1_455 S
Eu1163 O1201 2.372 . S
Eu1163 O1202 2.462 . S
Eu1163 O1203 2.373 . S
Eu1163 O1205 2.432 . S
Eu1163 O1206 2.291 . S
Eu1163 C1227 2.787 1_455 S
N1164 C1160 1.351 . S
N1164 Eu1163 2.562 . S
N1164 C1166 1.325 . S
C1165 C1159 1.404 . S
C1165 C1167 1.366 . S
C1165 H1173 0.930 . S
C1166 N1164 1.325 . S
C1166 C1167 1.416 . S
C1166 H1172 0.929 . S
C1167 C1165 1.366 . S
C1167 C1166 1.416 . S
C1167 H1169 0.930 . S
H1168 C1157 0.930 . S
H1169 C1167 0.930 . S
H1170 C1185 0.930 1_455 S
H1171 C1192 0.930 . S
H1172 C1166 0.929 . S
H1173 C1165 0.930 . S
H1174 C1188 0.929 . S
H1175 C1155 0.931 . S
H1176 C1161 0.931 . S
H1177 C1162 0.931 . S
H1178 C1183 0.931 . S
H1179 C1158 0.929 . S
H1180 C1191 0.930 . S
N1181 Eu1152 2.600 1_655 S
N1181 C1182 1.365 . S
N1181 C1185 1.319 . S
C1182 N1181 1.365 . S
C1182 C1184 1.405 . S
C1182 C1190 1.448 . S
C1183 H1178 0.931 . S
C1183 C1185 1.397 . S
C1183 C1186 1.367 . S
C1184 C1182 1.405 . S
C1184 C1186 1.403 . S
C1184 C1217 1.439 . S
C1185 H1170 0.930 1_655 S
C1185 N1181 1.319 . S
C1185 C1183 1.397 . S
C1186 C1183 1.367 . S
C1186 C1184 1.403 . S
C1186 H1193 0.929 . S
N1187 Eu1152 2.562 1_655 S
N1187 C1188 1.325 . S
N1187 C1190 1.351 . S
C1188 H1174 0.929 . S
C1188 N1187 1.325 . S
C1188 C1192 1.416 . S
C1189 C1190 1.430 . S
C1189 C1191 1.404 . S
C1189 C1218 1.387 . S
C1190 C1182 1.448 . S
C1190 N1187 1.351 . S
C1190 C1189 1.430 . S
C1191 H1180 0.930 . S
C1191 C1189 1.404 . S
C1191 C1192 1.366 . S
C1192 H1171 0.930 . S
C1192 C1188 1.416 . S
C1192 C1191 1.366 . S
H1193 C1186 0.929 . S
H1194 C1217 0.931 . S
H1195 C1218 0.931 . S
O1196 Eu1152 2.462 . S
O1196 C1216 1.252 . S
O1197 Eu1152 2.373 1_655 S
O1197 C1208 1.249 . S
O1198 Eu1163 2.335 1_655 S
O1198 C1208 1.264 . S
O1199 Eu1152 2.432 . S
O1199 C1216 1.268 . S
O1200 Eu1152 2.291 . S
O1200 C1215 1.255 . S
O1201 Eu1163 2.372 . S
O1201 C1215 1.257 . S
O1202 Eu1163 2.462 . S
O1202 C1227 1.252 1_455 S
O1203 Eu1163 2.373 . S
O1203 C1219 1.249 . S
O1204 Eu1152 2.335 . S
O1204 C1219 1.264 . S
O1205 Eu1163 2.432 . S
O1205 C1227 1.268 1_455 S
O1206 Eu1163 2.291 . S
O1206 C1226 1.255 . S
O1207 Eu1152 2.372 . S
O1207 C1226 1.257 . S
C1208 O1197 1.249 . S
C1208 O1198 1.264 . S
C1209 C1212 1.382 . S
C1209 C1214 1.390 . S
C1209 C1216 1.506 . S
C1210 C1211 1.398 . S
C1210 C1214 1.392 . S
C1211 C1210 1.398 . S
C1211 C1213 1.372 . S
C1211 H1228 0.931 . S
C1212 C1209 1.382 . S
C1212 C1213 1.390 . S
C1212 H1229 0.931 . S
C1213 C1211 1.372 . S
C1213 C1212 1.390 . S
C1213 H1230 0.929 . S
C1214 C1209 1.390 . S
C1214 C1210 1.392 . S
C1214 H1231 0.930 . S
C1215 O1200 1.255 . S
C1215 O1201 1.257 . S
C1216 Eu1152 2.787 . S
C1216 O1196 1.252 . S
C1216 O1199 1.268 . S
C1216 C1209 1.506 . S
C1217 C1184 1.439 . S
C1217 H1194 0.931 . S
C1217 C1218 1.374 . S
C1218 C1189 1.387 . S
C1218 H1195 0.931 . S
C1218 C1217 1.374 . S
C1219 O1203 1.249 . S
C1219 O1204 1.264 . S
C1220 C1223 1.382 . S
C1220 C1224 1.390 . S
C1220 C1227 1.506 . S
C1221 C1222 1.398 . S
C1221 C1224 1.392 . S
C1222 C1221 1.398 . S
C1222 C1225 1.372 . S
C1222 H1232 0.931 . S
C1223 C1220 1.382 . S
C1223 C1225 1.390 . S
C1223 H1233 0.931 . S
C1224 C1220 1.390 . S
C1224 C1221 1.392 . S
C1224 H1234 0.930 . S
C1225 C1222 1.372 . S
C1225 C1223 1.390 . S
C1225 H1235 0.929 . S
C1226 O1206 1.255 . S
C1226 O1207 1.257 . S
C1227 Eu1163 2.787 1_655 S
C1227 O1202 1.252 1_655 S
C1227 O1205 1.268 1_655 S
C1227 C1220 1.506 . S
H1228 C1211 0.931 . S
H1229 C1212 0.931 . S
H1230 C1213 0.929 . S
H1231 C1214 0.930 . S
H1232 C1222 0.931 . S
H1233 C1223 0.931 . S
H1234 C1224 0.930 . S
H1235 C1225 0.929 . S
Eu1236 N1265 2.600 . S
Eu1236 N1271 2.562 . S
Eu1236 O1280 2.462 . S
Eu1236 O1281 2.373 . S
Eu1236 O1283 2.432 . S
Eu1236 O1284 2.291 . S
Eu1236 O1288 2.335 . S
Eu1236 O1291 2.372 . S
Eu1236 C1300 2.787 . S
C1237 N1238 1.365 . S
C1237 C1240 1.405 . S
C1237 C1244 1.448 . S
N1238 C1237 1.365 . S
N1238 C1241 1.319 . S
N1238 Eu1247 2.600 . S
C1239 C1241 1.397 . S
C1239 C1242 1.367 . S
C1239 H1259 0.931 . S
C1240 C1237 1.405 . S
C1240 C1242 1.403 . S
C1240 C1246 1.439 . S
C1241 N1238 1.319 . S
C1241 C1239 1.397 . S
C1241 H1252 0.930 . S
C1242 C1239 1.367 . S
C1242 C1240 1.403 . S
C1242 H1263 0.929 . S
C1243 C1244 1.430 . S
C1243 C1245 1.387 . S
C1243 C1249 1.404 . S
C1244 C1237 1.448 . S
C1244 C1243 1.430 . S
C1244 N1248 1.351 . S
C1245 C1243 1.387 . S
C1245 C1246 1.374 . S
C1245 H1260 0.931 . S
C1246 C1240 1.439 . S
C1246 C1245 1.374 . S
C1246 H1261 0.931 . S
Eu1247 N1238 2.600 . S
Eu1247 N1248 2.562 . S
Eu1247 O1282 2.335 . S
Eu1247 O1285 2.372 . S
Eu1247 O1286 2.462 . S
Eu1247 O1287 2.373 . S
Eu1247 O1289 2.432 . S
Eu1247 O1290 2.291 . S
Eu1247 C1311 2.787 . S
N1248 C1244 1.351 . S
N1248 Eu1247 2.562 . S
N1248 C1250 1.325 . S
C1249 C1243 1.404 . S
C1249 C1251 1.366 . S
C1249 H1257 0.930 . S
C1250 N1248 1.325 . S
C1250 C1251 1.416 . S
C1250 H1256 0.929 . S
C1251 C1249 1.366 . S
C1251 C1250 1.416 . S
C1251 H1253 0.930 . S
H1252 C1241 0.930 . S
H1253 C1251 0.930 . S
H1254 C1269 0.930 . S
H1255 C1276 0.930 . S
H1256 C1250 0.929 . S
H1257 C1249 0.930 . S
H1258 C1272 0.929 . S
H1259 C1239 0.931 . S
H1260 C1245 0.931 . S
H1261 C1246 0.931 . S
H1262 C1267 0.931 . S
H1263 C1242 0.929 . S
H1264 C1275 0.930 . S
N1265 Eu1236 2.600 . S
N1265 C1266 1.365 . S
N1265 C1269 1.319 . S
C1266 N1265 1.365 . S
C1266 C1268 1.405 . S
C1266 C1274 1.448 . S
C1267 H1262 0.931 . S
C1267 C1269 1.397 . S
C1267 C1270 1.367 . S
C1268 C1266 1.405 . S
C1268 C1270 1.403 . S
C1268 C1301 1.439 . S
C1269 H1254 0.930 . S
C1269 N1265 1.319 . S
C1269 C1267 1.397 . S
C1270 C1267 1.367 . S
C1270 C1268 1.403 . S
C1270 H1277 0.929 . S
N1271 Eu1236 2.562 . S
N1271 C1272 1.325 . S
N1271 C1274 1.351 . S
C1272 H1258 0.929 . S
C1272 N1271 1.325 . S
C1272 C1276 1.416 . S
C1273 C1274 1.430 . S
C1273 C1275 1.404 . S
C1273 C1302 1.387 . S
C1274 C1266 1.448 . S
C1274 N1271 1.351 . S
C1274 C1273 1.430 . S
C1275 H1264 0.930 . S
C1275 C1273 1.404 . S
C1275 C1276 1.366 . S
C1276 H1255 0.930 . S
C1276 C1272 1.416 . S
C1276 C1275 1.366 . S
H1277 C1270 0.929 . S
H1278 C1301 0.931 . S
H1279 C1302 0.931 . S
O1280 Eu1236 2.462 . S
O1280 C1300 1.252 . S
O1281 Eu1236 2.373 . S
O1281 C1292 1.249 . S
O1282 Eu1247 2.335 . S
O1282 C1292 1.264 . S
O1283 Eu1236 2.432 . S
O1283 C1300 1.268 . S
O1284 Eu1236 2.291 . S
O1284 C1299 1.255 . S
O1285 Eu1247 2.372 . S
O1285 C1299 1.257 . S
O1286 Eu1247 2.462 . S
O1286 C1311 1.252 . S
O1287 Eu1247 2.373 . S
O1287 C1303 1.249 . S
O1288 Eu1236 2.335 . S
O1288 C1303 1.264 . S
O1289 Eu1247 2.432 . S
O1289 C1311 1.268 . S
O1290 Eu1247 2.291 . S
O1290 C1310 1.255 . S
O1291 Eu1236 2.372 . S
O1291 C1310 1.257 . S
C1292 O1281 1.249 . S
C1292 O1282 1.264 . S
C1293 C1296 1.382 . S
C1293 C1298 1.390 . S
C1293 C1300 1.506 . S
C1294 C1295 1.398 . S
C1294 C1298 1.392 . S
C1295 C1294 1.398 . S
C1295 C1297 1.372 . S
C1295 H1312 0.931 . S
C1296 C1293 1.382 . S
C1296 C1297 1.390 . S
C1296 H1313 0.931 . S
C1297 C1295 1.372 . S
C1297 C1296 1.390 . S
C1297 H1314 0.929 . S
C1298 C1293 1.390 . S
C1298 C1294 1.392 . S
C1298 H1315 0.930 . S
C1299 O1284 1.255 . S
C1299 O1285 1.257 . S
C1300 Eu1236 2.787 . S
C1300 O1280 1.252 . S
C1300 O1283 1.268 . S
C1300 C1293 1.506 . S
C1301 C1268 1.439 . S
C1301 H1278 0.931 . S
C1301 C1302 1.374 . S
C1302 C1273 1.387 . S
C1302 H1279 0.931 . S
C1302 C1301 1.374 . S
C1303 O1287 1.249 . S
C1303 O1288 1.264 . S
C1304 C1307 1.382 . S
C1304 C1308 1.390 . S
C1304 C1311 1.506 . S
C1305 C1306 1.398 . S
C1305 C1308 1.392 . S
C1306 C1305 1.398 . S
C1306 C1309 1.372 . S
C1306 H1316 0.931 . S
C1307 C1304 1.382 . S
C1307 C1309 1.390 . S
C1307 H1317 0.931 . S
C1308 C1304 1.390 . S
C1308 C1305 1.392 . S
C1308 H1318 0.930 . S
C1309 C1306 1.372 . S
C1309 C1307 1.390 . S
C1309 H1319 0.929 . S
C1310 O1290 1.255 . S
C1310 O1291 1.257 . S
C1311 Eu1247 2.787 . S
C1311 O1286 1.252 . S
C1311 O1289 1.268 . S
C1311 C1304 1.506 . S
H1312 C1295 0.931 . S
H1313 C1296 0.931 . S
H1314 C1297 0.929 . S
H1315 C1298 0.930 . S
H1316 C1306 0.931 . S
H1317 C1307 0.931 . S
H1318 C1308 0.930 . S
H1319 C1309 0.929 . S
Eu1320 N1349 2.600 . S
Eu1320 N1355 2.562 . S
Eu1320 O1364 2.462 . S
Eu1320 O1365 2.373 . S
Eu1320 O1367 2.432 . S
Eu1320 O1368 2.291 . S
Eu1320 O1372 2.335 . S
Eu1320 O1375 2.372 . S
Eu1320 C1384 2.787 . S
C1321 N1322 1.365 . S
C1321 C1324 1.405 . S
C1321 C1328 1.448 . S
N1322 C1321 1.365 . S
N1322 C1325 1.319 . S
N1322 Eu1331 2.600 . S
C1323 C1325 1.397 . S
C1323 C1326 1.367 . S
C1323 H1343 0.931 . S
C1324 C1321 1.405 . S
C1324 C1326 1.403 . S
C1324 C1330 1.439 . S
C1325 N1322 1.319 . S
C1325 C1323 1.397 . S
C1325 H1336 0.930 . S
C1326 C1323 1.367 . S
C1326 C1324 1.403 . S
C1326 H1347 0.929 . S
C1327 C1328 1.430 . S
C1327 C1329 1.387 . S
C1327 C1333 1.404 . S
C1328 C1321 1.448 . S
C1328 C1327 1.430 . S
C1328 N1332 1.351 . S
C1329 C1327 1.387 . S
C1329 C1330 1.374 . S
C1329 H1344 0.931 . S
C1330 C1324 1.439 . S
C1330 C1329 1.374 . S
C1330 H1345 0.931 . S
Eu1331 N1322 2.600 . S
Eu1331 N1332 2.562 . S
Eu1331 O1366 2.335 . S
Eu1331 O1369 2.372 . S
Eu1331 O1370 2.462 . S
Eu1331 O1371 2.373 . S
Eu1331 O1373 2.432 . S
Eu1331 O1374 2.291 . S
Eu1331 C1395 2.787 . S
N1332 C1328 1.351 . S
N1332 Eu1331 2.562 . S
N1332 C1334 1.325 . S
C1333 C1327 1.404 . S
C1333 C1335 1.366 . S
C1333 H1341 0.930 . S
C1334 N1332 1.325 . S
C1334 C1335 1.416 . S
C1334 H1340 0.929 . S
C1335 C1333 1.366 . S
C1335 C1334 1.416 . S
C1335 H1337 0.930 . S
H1336 C1325 0.930 . S
H1337 C1335 0.930 . S
H1338 C1353 0.930 . S
H1339 C1360 0.930 . S
H1340 C1334 0.929 . S
H1341 C1333 0.930 . S
H1342 C1356 0.929 . S
H1343 C1323 0.931 . S
H1344 C1329 0.931 . S
H1345 C1330 0.931 . S
H1346 C1351 0.931 . S
H1347 C1326 0.929 . S
H1348 C1359 0.930 . S
N1349 Eu1320 2.600 . S
N1349 C1350 1.365 . S
N1349 C1353 1.319 . S
C1350 N1349 1.365 . S
C1350 C1352 1.405 . S
C1350 C1358 1.448 . S
C1351 H1346 0.931 . S
C1351 C1353 1.397 . S
C1351 C1354 1.367 . S
C1352 C1350 1.405 . S
C1352 C1354 1.403 . S
C1352 C1385 1.439 . S
C1353 H1338 0.930 . S
C1353 N1349 1.319 . S
C1353 C1351 1.397 . S
C1354 C1351 1.367 . S
C1354 C1352 1.403 . S
C1354 H1361 0.929 . S
N1355 Eu1320 2.562 . S
N1355 C1356 1.325 . S
N1355 C1358 1.351 . S
C1356 H1342 0.929 . S
C1356 N1355 1.325 . S
C1356 C1360 1.416 . S
C1357 C1358 1.430 . S
C1357 C1359 1.404 . S
C1357 C1386 1.387 . S
C1358 C1350 1.448 . S
C1358 N1355 1.351 . S
C1358 C1357 1.430 . S
C1359 H1348 0.930 . S
C1359 C1357 1.404 . S
C1359 C1360 1.366 . S
C1360 H1339 0.930 . S
C1360 C1356 1.416 . S
C1360 C1359 1.366 . S
H1361 C1354 0.929 . S
H1362 C1385 0.931 . S
H1363 C1386 0.931 . S
O1364 Eu1320 2.462 . S
O1364 C1384 1.252 . S
O1365 Eu1320 2.373 . S
O1365 C1376 1.249 . S
O1366 Eu1331 2.335 . S
O1366 C1376 1.264 . S
O1367 Eu1320 2.432 . S
O1367 C1384 1.268 . S
O1368 Eu1320 2.291 . S
O1368 C1383 1.255 . S
O1369 Eu1331 2.372 . S
O1369 C1383 1.257 . S
O1370 Eu1331 2.462 . S
O1370 C1395 1.252 . S
O1371 Eu1331 2.373 . S
O1371 C1387 1.249 . S
O1372 Eu1320 2.335 . S
O1372 C1387 1.264 . S
O1373 Eu1331 2.432 . S
O1373 C1395 1.268 . S
O1374 Eu1331 2.291 . S
O1374 C1394 1.255 . S
O1375 Eu1320 2.372 . S
O1375 C1394 1.257 . S
C1376 O1365 1.249 . S
C1376 O1366 1.264 . S
C1377 C1380 1.382 . S
C1377 C1382 1.390 . S
C1377 C1384 1.506 . S
C1378 C1379 1.398 . S
C1378 C1382 1.392 . S
C1379 C1378 1.398 . S
C1379 C1381 1.372 . S
C1379 H1396 0.931 . S
C1380 C1377 1.382 . S
C1380 C1381 1.390 . S
C1380 H1397 0.931 . S
C1381 C1379 1.372 . S
C1381 C1380 1.390 . S
C1381 H1398 0.929 . S
C1382 C1377 1.390 . S
C1382 C1378 1.392 . S
C1382 H1399 0.930 . S
C1383 O1368 1.255 . S
C1383 O1369 1.257 . S
C1384 Eu1320 2.787 . S
C1384 O1364 1.252 . S
C1384 O1367 1.268 . S
C1384 C1377 1.506 . S
C1385 C1352 1.439 . S
C1385 H1362 0.931 . S
C1385 C1386 1.374 . S
C1386 C1357 1.387 . S
C1386 H1363 0.931 . S
C1386 C1385 1.374 . S
C1387 O1371 1.249 . S
C1387 O1372 1.264 . S
C1388 C1391 1.382 . S
C1388 C1392 1.390 . S
C1388 C1395 1.506 . S
C1389 C1390 1.398 . S
C1389 C1392 1.392 . S
C1390 C1389 1.398 . S
C1390 C1393 1.372 . S
C1390 H1400 0.931 . S
C1391 C1388 1.382 . S
C1391 C1393 1.390 . S
C1391 H1401 0.931 . S
C1392 C1388 1.390 . S
C1392 C1389 1.392 . S
C1392 H1402 0.930 . S
C1393 C1390 1.372 . S
C1393 C1391 1.390 . S
C1393 H1403 0.929 . S
C1394 O1374 1.255 . S
C1394 O1375 1.257 . S
C1395 Eu1331 2.787 . S
C1395 O1370 1.252 . S
C1395 O1373 1.268 . S
C1395 C1388 1.506 . S
H1396 C1379 0.931 . S
H1397 C1380 0.931 . S
H1398 C1381 0.929 . S
H1399 C1382 0.930 . S
H1400 C1390 0.931 . S
H1401 C1391 0.931 . S
H1402 C1392 0.930 . S
H1403 C1393 0.929 . S
Eu1404 N1433 2.600 . S
Eu1404 N1439 2.562 . S
Eu1404 O1448 2.462 . S
Eu1404 O1449 2.373 . S
Eu1404 O1451 2.432 . S
Eu1404 O1452 2.291 . S
Eu1404 O1456 2.335 . S
Eu1404 O1459 2.372 . S
Eu1404 C1468 2.787 . S
C1405 N1406 1.365 . S
C1405 C1408 1.405 . S
C1405 C1412 1.448 . S
N1406 C1405 1.365 . S
N1406 C1409 1.319 . S
N1406 Eu1415 2.600 . S
C1407 C1409 1.397 . S
C1407 C1410 1.367 . S
C1407 H1427 0.931 . S
C1408 C1405 1.405 . S
C1408 C1410 1.403 . S
C1408 C1414 1.439 . S
C1409 N1406 1.319 . S
C1409 C1407 1.397 . S
C1409 H1420 0.930 . S
C1410 C1407 1.367 . S
C1410 C1408 1.403 . S
C1410 H1431 0.929 . S
C1411 C1412 1.430 . S
C1411 C1413 1.387 . S
C1411 C1417 1.404 . S
C1412 C1405 1.448 . S
C1412 C1411 1.430 . S
C1412 N1416 1.351 . S
C1413 C1411 1.387 . S
C1413 C1414 1.374 . S
C1413 H1428 0.931 . S
C1414 C1408 1.439 . S
C1414 C1413 1.374 . S
C1414 H1429 0.931 . S
Eu1415 N1406 2.600 . S
Eu1415 N1416 2.562 . S
Eu1415 O1450 2.335 . S
Eu1415 O1453 2.372 . S
Eu1415 O1454 2.462 . S
Eu1415 O1455 2.373 . S
Eu1415 O1457 2.432 . S
Eu1415 O1458 2.291 . S
Eu1415 C1479 2.787 . S
N1416 C1412 1.351 . S
N1416 Eu1415 2.562 . S
N1416 C1418 1.325 . S
C1417 C1411 1.404 . S
C1417 C1419 1.366 . S
C1417 H1425 0.930 . S
C1418 N1416 1.325 . S
C1418 C1419 1.416 . S
C1418 H1424 0.929 . S
C1419 C1417 1.366 . S
C1419 C1418 1.416 . S
C1419 H1421 0.930 . S
H1420 C1409 0.930 . S
H1421 C1419 0.930 . S
H1422 C1437 0.930 . S
H1423 C1444 0.930 . S
H1424 C1418 0.929 . S
H1425 C1417 0.930 . S
H1426 C1440 0.929 . S
H1427 C1407 0.931 . S
H1428 C1413 0.931 . S
H1429 C1414 0.931 . S
H1430 C1435 0.931 . S
H1431 C1410 0.929 . S
H1432 C1443 0.930 . S
N1433 Eu1404 2.600 . S
N1433 C1434 1.365 . S
N1433 C1437 1.319 . S
C1434 N1433 1.365 . S
C1434 C1436 1.405 . S
C1434 C1442 1.448 . S
C1435 H1430 0.931 . S
C1435 C1437 1.397 . S
C1435 C1438 1.367 . S
C1436 C1434 1.405 . S
C1436 C1438 1.403 . S
C1436 C1469 1.439 . S
C1437 H1422 0.930 . S
C1437 N1433 1.319 . S
C1437 C1435 1.397 . S
C1438 C1435 1.367 . S
C1438 C1436 1.403 . S
C1438 H1445 0.929 . S
N1439 Eu1404 2.562 . S
N1439 C1440 1.325 . S
N1439 C1442 1.351 . S
C1440 H1426 0.929 . S
C1440 N1439 1.325 . S
C1440 C1444 1.416 . S
C1441 C1442 1.430 . S
C1441 C1443 1.404 . S
C1441 C1470 1.387 . S
C1442 C1434 1.448 . S
C1442 N1439 1.351 . S
C1442 C1441 1.430 . S
C1443 H1432 0.930 . S
C1443 C1441 1.404 . S
C1443 C1444 1.366 . S
C1444 H1423 0.930 . S
C1444 C1440 1.416 . S
C1444 C1443 1.366 . S
H1445 C1438 0.929 . S
H1446 C1469 0.931 . S
H1447 C1470 0.931 . S
O1448 Eu1404 2.462 . S
O1448 C1468 1.252 . S
O1449 Eu1404 2.373 . S
O1449 C1460 1.249 . S
O1450 Eu1415 2.335 . S
O1450 C1460 1.264 . S
O1451 Eu1404 2.432 . S
O1451 C1468 1.268 . S
O1452 Eu1404 2.291 . S
O1452 C1467 1.255 . S
O1453 Eu1415 2.372 . S
O1453 C1467 1.257 . S
O1454 Eu1415 2.462 . S
O1454 C1479 1.252 . S
O1455 Eu1415 2.373 . S
O1455 C1471 1.249 . S
O1456 Eu1404 2.335 . S
O1456 C1471 1.264 . S
O1457 Eu1415 2.432 . S
O1457 C1479 1.268 . S
O1458 Eu1415 2.291 . S
O1458 C1478 1.255 . S
O1459 Eu1404 2.372 . S
O1459 C1478 1.257 . S
C1460 O1449 1.249 . S
C1460 O1450 1.264 . S
C1461 C1464 1.382 . S
C1461 C1466 1.390 . S
C1461 C1468 1.506 . S
C1462 C1463 1.398 . S
C1462 C1466 1.392 . S
C1463 C1462 1.398 . S
C1463 C1465 1.372 . S
C1463 H1480 0.931 . S
C1464 C1461 1.382 . S
C1464 C1465 1.390 . S
C1464 H1481 0.931 . S
C1465 C1463 1.372 . S
C1465 C1464 1.390 . S
C1465 H1482 0.929 . S
C1466 C1461 1.390 . S
C1466 C1462 1.392 . S
C1466 H1483 0.930 . S
C1467 O1452 1.255 . S
C1467 O1453 1.257 . S
C1468 Eu1404 2.787 . S
C1468 O1448 1.252 . S
C1468 O1451 1.268 . S
C1468 C1461 1.506 . S
C1469 C1436 1.439 . S
C1469 H1446 0.931 . S
C1469 C1470 1.374 . S
C1470 C1441 1.387 . S
C1470 H1447 0.931 . S
C1470 C1469 1.374 . S
C1471 O1455 1.249 . S
C1471 O1456 1.264 . S
C1472 C1475 1.382 . S
C1472 C1476 1.390 . S
C1472 C1479 1.506 . S
C1473 C1474 1.398 . S
C1473 C1476 1.392 . S
C1474 C1473 1.398 . S
C1474 C1477 1.372 . S
C1474 H1484 0.931 . S
C1475 C1472 1.382 . S
C1475 C1477 1.390 . S
C1475 H1485 0.931 . S
C1476 C1472 1.390 . S
C1476 C1473 1.392 . S
C1476 H1486 0.930 . S
C1477 C1474 1.372 . S
C1477 C1475 1.390 . S
C1477 H1487 0.929 . S
C1478 O1458 1.255 . S
C1478 O1459 1.257 . S
C1479 Eu1415 2.787 . S
C1479 O1454 1.252 . S
C1479 O1457 1.268 . S
C1479 C1472 1.506 . S
H1480 C1463 0.931 . S
H1481 C1464 0.931 . S
H1482 C1465 0.929 . S
H1483 C1466 0.930 . S
H1484 C1474 0.931 . S
H1485 C1475 0.931 . S
H1486 C1476 0.930 . S
H1487 C1477 0.929 . S
Eu1488 N1517 2.600 . S
Eu1488 N1523 2.562 . S
Eu1488 O1532 2.462 . S
Eu1488 O1533 2.373 . S
Eu1488 O1535 2.432 . S
Eu1488 O1536 2.291 . S
Eu1488 O1540 2.335 . S
Eu1488 O1543 2.372 . S
Eu1488 C1552 2.787 . S
C1489 N1490 1.365 . S
C1489 C1492 1.405 . S
C1489 C1496 1.448 . S
N1490 C1489 1.365 . S
N1490 C1493 1.319 . S
N1490 Eu1499 2.600 . S
C1491 C1493 1.397 . S
C1491 C1494 1.367 . S
C1491 H1511 0.931 . S
C1492 C1489 1.405 . S
C1492 C1494 1.403 . S
C1492 C1498 1.439 . S
C1493 N1490 1.319 . S
C1493 C1491 1.397 . S
C1493 H1504 0.930 . S
C1494 C1491 1.367 . S
C1494 C1492 1.403 . S
C1494 H1515 0.929 . S
C1495 C1496 1.430 . S
C1495 C1497 1.387 . S
C1495 C1501 1.404 . S
C1496 C1489 1.448 . S
C1496 C1495 1.430 . S
C1496 N1500 1.351 . S
C1497 C1495 1.387 . S
C1497 C1498 1.374 . S
C1497 H1512 0.931 . S
C1498 C1492 1.439 . S
C1498 C1497 1.374 . S
C1498 H1513 0.931 . S
Eu1499 N1490 2.600 . S
Eu1499 N1500 2.562 . S
Eu1499 O1534 2.335 . S
Eu1499 O1537 2.372 . S
Eu1499 O1538 2.462 . S
Eu1499 O1539 2.373 . S
Eu1499 O1541 2.432 . S
Eu1499 O1542 2.291 . S
Eu1499 C1563 2.787 . S
N1500 C1496 1.351 . S
N1500 Eu1499 2.562 . S
N1500 C1502 1.325 . S
C1501 C1495 1.404 . S
C1501 C1503 1.366 . S
C1501 H1509 0.930 . S
C1502 N1500 1.325 . S
C1502 C1503 1.416 . S
C1502 H1508 0.929 . S
C1503 C1501 1.366 . S
C1503 C1502 1.416 . S
C1503 H1505 0.930 . S
H1504 C1493 0.930 . S
H1505 C1503 0.930 . S
H1506 C1521 0.930 . S
H1507 C1528 0.930 . S
H1508 C1502 0.929 . S
H1509 C1501 0.930 . S
H1510 C1524 0.929 . S
H1511 C1491 0.931 . S
H1512 C1497 0.931 . S
H1513 C1498 0.931 . S
H1514 C1519 0.931 . S
H1515 C1494 0.929 . S
H1516 C1527 0.930 . S
N1517 Eu1488 2.600 . S
N1517 C1518 1.365 . S
N1517 C1521 1.319 . S
C1518 N1517 1.365 . S
C1518 C1520 1.405 . S
C1518 C1526 1.448 . S
C1519 H1514 0.931 . S
C1519 C1521 1.397 . S
C1519 C1522 1.367 . S
C1520 C1518 1.405 . S
C1520 C1522 1.403 . S
C1520 C1553 1.439 . S
C1521 H1506 0.930 . S
C1521 N1517 1.319 . S
C1521 C1519 1.397 . S
C1522 C1519 1.367 . S
C1522 C1520 1.403 . S
C1522 H1529 0.929 . S
N1523 Eu1488 2.562 . S
N1523 C1524 1.325 . S
N1523 C1526 1.351 . S
C1524 H1510 0.929 . S
C1524 N1523 1.325 . S
C1524 C1528 1.416 . S
C1525 C1526 1.430 . S
C1525 C1527 1.404 . S
C1525 C1554 1.387 . S
C1526 C1518 1.448 . S
C1526 N1523 1.351 . S
C1526 C1525 1.430 . S
C1527 H1516 0.930 . S
C1527 C1525 1.404 . S
C1527 C1528 1.366 . S
C1528 H1507 0.930 . S
C1528 C1524 1.416 . S
C1528 C1527 1.366 . S
H1529 C1522 0.929 . S
H1530 C1553 0.931 . S
H1531 C1554 0.931 . S
O1532 Eu1488 2.462 . S
O1532 C1552 1.252 . S
O1533 Eu1488 2.373 . S
O1533 C1544 1.249 . S
O1534 Eu1499 2.335 . S
O1534 C1544 1.264 . S
O1535 Eu1488 2.432 . S
O1535 C1552 1.268 . S
O1536 Eu1488 2.291 . S
O1536 C1551 1.255 . S
O1537 Eu1499 2.372 . S
O1537 C1551 1.257 . S
O1538 Eu1499 2.462 . S
O1538 C1563 1.252 . S
O1539 Eu1499 2.373 . S
O1539 C1555 1.249 . S
O1540 Eu1488 2.335 . S
O1540 C1555 1.264 . S
O1541 Eu1499 2.432 . S
O1541 C1563 1.268 . S
O1542 Eu1499 2.291 . S
O1542 C1562 1.255 . S
O1543 Eu1488 2.372 . S
O1543 C1562 1.257 . S
C1544 O1533 1.249 . S
C1544 O1534 1.264 . S
C1545 C1548 1.382 . S
C1545 C1550 1.390 . S
C1545 C1552 1.506 . S
C1546 C1547 1.398 . S
C1546 C1550 1.392 . S
C1547 C1546 1.398 . S
C1547 C1549 1.372 . S
C1547 H1564 0.931 . S
C1548 C1545 1.382 . S
C1548 C1549 1.390 . S
C1548 H1565 0.931 . S
C1549 C1547 1.372 . S
C1549 C1548 1.390 . S
C1549 H1566 0.929 . S
C1550 C1545 1.390 . S
C1550 C1546 1.392 . S
C1550 H1567 0.930 . S
C1551 O1536 1.255 . S
C1551 O1537 1.257 . S
C1552 Eu1488 2.787 . S
C1552 O1532 1.252 . S
C1552 O1535 1.268 . S
C1552 C1545 1.506 . S
C1553 C1520 1.439 . S
C1553 H1530 0.931 . S
C1553 C1554 1.374 . S
C1554 C1525 1.387 . S
C1554 H1531 0.931 . S
C1554 C1553 1.374 . S
C1555 O1539 1.249 . S
C1555 O1540 1.264 . S
C1556 C1559 1.382 . S
C1556 C1560 1.390 . S
C1556 C1563 1.506 . S
C1557 C1558 1.398 . S
C1557 C1560 1.392 . S
C1558 C1557 1.398 . S
C1558 C1561 1.372 . S
C1558 H1568 0.931 . S
C1559 C1556 1.382 . S
C1559 C1561 1.390 . S
C1559 H1569 0.931 . S
C1560 C1556 1.390 . S
C1560 C1557 1.392 . S
C1560 H1570 0.930 . S
C1561 C1558 1.372 . S
C1561 C1559 1.390 . S
C1561 H1571 0.929 . S
C1562 O1542 1.255 . S
C1562 O1543 1.257 . S
C1563 Eu1499 2.787 . S
C1563 O1538 1.252 . S
C1563 O1541 1.268 . S
C1563 C1556 1.506 . S
H1564 C1547 0.931 . S
H1565 C1548 0.931 . S
H1566 C1549 0.929 . S
H1567 C1550 0.930 . S
H1568 C1558 0.931 . S
H1569 C1559 0.931 . S
H1570 C1560 0.930 . S
H1571 C1561 0.929 . S
Eu1572 N1601 2.600 . S
Eu1572 N1607 2.562 . S
Eu1572 O1616 2.462 . S
Eu1572 O1617 2.373 1_655 S
Eu1572 O1619 2.432 . S
Eu1572 O1620 2.291 . S
Eu1572 O1624 2.335 1_655 S
Eu1572 O1627 2.372 1_655 S
Eu1572 C1636 2.787 . S
C1573 N1574 1.365 . S
C1573 C1576 1.405 . S
C1573 C1580 1.448 1_556 S
N1574 C1573 1.365 . S
N1574 C1577 1.319 . S
N1574 Eu1583 2.600 1_556 S
C1575 C1577 1.397 . S
C1575 C1578 1.367 . S
C1575 H1595 0.931 . S
C1576 C1573 1.405 . S
C1576 C1578 1.403 . S
C1576 C1582 1.439 . S
C1577 N1574 1.319 . S
C1577 C1575 1.397 . S
C1577 H1588 0.930 . S
C1578 C1575 1.367 . S
C1578 C1576 1.403 . S
C1578 H1599 0.929 . S
C1579 C1580 1.430 . S
C1579 C1581 1.387 . S
C1579 C1585 1.404 . S
C1580 C1573 1.448 1_554 S
C1580 C1579 1.430 . S
C1580 N1584 1.351 . S
C1581 C1579 1.387 . S
C1581 C1582 1.374 1_554 S
C1581 H1596 0.931 . S
C1582 C1576 1.439 . S
C1582 C1581 1.374 1_556 S
C1582 H1597 0.931 . S
Eu1583 N1574 2.600 1_554 S
Eu1583 N1584 2.562 . S
Eu1583 O1618 2.335 . S
Eu1583 O1621 2.372 1_554 S
Eu1583 O1622 2.462 . S
Eu1583 O1623 2.373 . S
Eu1583 O1625 2.432 1_554 S
Eu1583 O1626 2.291 . S
Eu1583 C1647 2.787 . S
N1584 C1580 1.351 . S
N1584 Eu1583 2.562 . S
N1584 C1586 1.325 . S
C1585 C1579 1.404 . S
C1585 C1587 1.366 . S
C1585 H1593 0.930 . S
C1586 N1584 1.325 . S
C1586 C1587 1.416 . S
C1586 H1592 0.929 . S
C1587 C1585 1.366 . S
C1587 C1586 1.416 . S
C1587 H1589 0.930 . S
H1588 C1577 0.930 . S
H1589 C1587 0.930 . S
H1590 C1605 0.930 1_455 S
H1591 C1612 0.930 . S
H1592 C1586 0.929 . S
H1593 C1585 0.930 . S
H1594 C1608 0.929 . S
H1595 C1575 0.931 . S
H1596 C1581 0.931 . S
H1597 C1582 0.931 . S
H1598 C1603 0.931 1_455 S
H1599 C1578 0.929 . S
H1600 C1611 0.930 . S
N1601 Eu1572 2.600 . S
N1601 C1602 1.365 . S
N1601 C1605 1.319 . S
C1602 N1601 1.365 . S
C1602 C1604 1.405 . S
C1602 C1610 1.448 . S
C1603 H1598 0.931 1_655 S
C1603 C1605 1.397 . S
C1603 C1606 1.367 . S
C1604 C1602 1.405 . S
C1604 C1606 1.403 . S
C1604 C1637 1.439 . S
C1605 H1590 0.930 1_655 S
C1605 N1601 1.319 . S
C1605 C1603 1.397 . S
C1606 C1603 1.367 . S
C1606 C1604 1.403 . S
C1606 H1613 0.929 . S
N1607 Eu1572 2.562 . S
N1607 C1608 1.325 . S
N1607 C1610 1.351 . S
C1608 H1594 0.929 . S
C1608 N1607 1.325 . S
C1608 C1612 1.416 . S
C1609 C1610 1.430 . S
C1609 C1611 1.404 . S
C1609 C1638 1.387 . S
C1610 C1602 1.448 . S
C1610 N1607 1.351 . S
C1610 C1609 1.430 . S
C1611 H1600 0.930 . S
C1611 C1609 1.404 . S
C1611 C1612 1.366 . S
C1612 H1591 0.930 . S
C1612 C1608 1.416 . S
C1612 C1611 1.366 . S
H1613 C1606 0.929 . S
H1614 C1637 0.931 . S
H1615 C1638 0.931 . S
O1616 Eu1572 2.462 . S
O1616 C1636 1.252 . S
O1617 Eu1572 2.373 1_455 S
O1617 C1628 1.249 . S
O1618 Eu1583 2.335 . S
O1618 C1628 1.264 . S
O1619 Eu1572 2.432 . S
O1619 C1636 1.268 . S
O1620 Eu1572 2.291 . S
O1620 C1635 1.272 1_655 S
O1621 Eu1583 2.372 1_556 S
O1621 C1635 1.251 1_556 S
O1622 Eu1583 2.462 . S
O1622 C1647 1.252 . S
O1623 Eu1583 2.373 . S
O1623 C1639 1.249 . S
O1624 Eu1572 2.335 1_455 S
O1624 C1639 1.264 . S
O1625 Eu1583 2.432 1_556 S
O1625 C1647 1.268 1_556 S
O1626 Eu1583 2.291 . S
O1626 C1646 1.255 . S
O1627 Eu1572 2.372 1_455 S
O1627 C1646 1.257 . S
C1628 O1617 1.249 . S
C1628 O1618 1.264 . S
C1629 C1632 1.382 . S
C1629 C1634 1.390 . S
C1629 C1636 1.506 . S
C1630 C1631 1.398 . S
C1630 C1634 1.392 . S
C1631 C1630 1.398 . S
C1631 C1633 1.372 . S
C1631 H1648 0.931 . S
C1632 C1629 1.382 . S
C1632 C1633 1.390 . S
C1632 H1649 0.931 . S
C1633 C1631 1.372 . S
C1633 C1632 1.390 . S
C1633 H1650 0.929 . S
C1634 C1629 1.390 . S
C1634 C1630 1.392 . S
C1634 H1651 0.930 . S
C1635 O1620 1.272 1_455 S
C1635 O1621 1.251 1_554 S
C1636 Eu1572 2.787 . S
C1636 O1616 1.252 . S
C1636 O1619 1.268 . S
C1636 C1629 1.506 . S
C1637 C1604 1.439 . S
C1637 H1614 0.931 . S
C1637 C1638 1.374 . S
C1638 C1609 1.387 . S
C1638 H1615 0.931 . S
C1638 C1637 1.374 . S
C1639 O1623 1.249 . S
C1639 O1624 1.264 . S
C1640 C1643 1.382 1_554 S
C1640 C1644 1.390 . S
C1640 C1647 1.506 . S
C1641 C1642 1.386 1_554 S
C1641 C1644 1.392 . S
C1642 C1641 1.386 1_556 S
C1642 C1645 1.381 . S
C1642 H1652 0.934 . S
C1643 C1640 1.382 1_556 S
C1643 C1645 1.390 . S
C1643 H1653 0.931 . S
C1644 C1640 1.390 . S
C1644 C1641 1.392 . S
C1644 H1654 0.930 . S
C1645 C1642 1.381 . S
C1645 C1643 1.390 . S
C1645 H1655 0.929 . S
C1646 O1626 1.255 . S
C1646 O1627 1.257 . S
C1647 Eu1583 2.787 . S
C1647 O1622 1.252 . S
C1647 O1625 1.268 1_554 S
C1647 C1640 1.506 . S
H1648 C1631 0.931 . S
H1649 C1632 0.931 . S
H1650 C1633 0.929 . S
H1651 C1634 0.930 . S
H1652 C1642 0.934 . S
H1653 C1643 0.931 . S
H1654 C1644 0.930 . S
H1655 C1645 0.929 . S
C1656 C1657 1.363 . S
C1656 C1662 1.379 . S
C1656 N1664 1.356 1_455 S
C1657 C1656 1.363 . S
C1657 C1663 1.363 1_554 S
C1658 C1659 1.363 . S
C1658 C1663 1.379 1_554 S
C1658 N1665 1.356 . S
C1659 C1658 1.363 . S
C1659 C1662 1.363 . S
N1660 C1662 1.356 . S
N1660 H1672 0.984 1_455 S
N1660 H1673 0.985 . S
N1661 C1663 1.356 . S
N1661 H1666 0.984 . S
N1661 H1667 0.985 . S
C1662 C1656 1.379 . S
C1662 C1659 1.363 . S
C1662 N1660 1.356 . S
C1663 C1657 1.363 1_556 S
C1663 C1658 1.379 1_556 S
C1663 N1661 1.356 . S
N1664 C1656 1.356 1_655 S
N1664 H1670 0.984 . S
N1664 H1671 0.984 . S
N1665 C1658 1.356 . S
N1665 H1668 0.984 . S
N1665 H1669 0.985 1_554 S
H1666 N1661 0.984 . S
H1667 N1661 0.985 . S
H1668 N1665 0.984 . S
H1669 N1665 0.985 1_556 S
H1670 N1664 0.984 . S
H1671 N1664 0.984 . S
H1672 N1660 0.984 1_655 S
H1673 N1660 0.985 . S
C1674 C1675 1.363 . S
C1674 C1680 1.379 . S
C1674 N1682 1.356 . S
C1675 C1674 1.363 . S
C1675 C1681 1.363 . S
C1676 C1677 1.363 . S
C1676 C1681 1.379 . S
C1676 N1683 1.356 . S
C1677 C1676 1.363 . S
C1677 C1680 1.363 . S
N1678 C1680 1.356 . S
N1678 H1690 0.984 . S
N1678 H1691 0.985 . S
N1679 C1681 1.356 . S
N1679 H1684 0.984 . S
N1679 H1685 0.985 . S
C1680 C1674 1.379 . S
C1680 C1677 1.363 . S
C1680 N1678 1.356 . S
C1681 C1675 1.363 . S
C1681 C1676 1.379 . S
C1681 N1679 1.356 . S
N1682 C1674 1.356 . S
N1682 H1688 0.984 . S
N1682 H1689 0.984 . S
N1683 C1676 1.356 . S
N1683 H1686 0.984 . S
N1683 H1687 0.985 . S
H1684 N1679 0.984 . S
H1685 N1679 0.985 . S
H1686 N1683 0.984 . S
H1687 N1683 0.985 . S
H1688 N1682 0.984 . S
H1689 N1682 0.984 . S
H1690 N1678 0.984 . S
H1691 N1678 0.985 . S
C1692 C1693 1.363 . S
C1692 C1698 1.379 . S
C1692 N1700 1.356 . S
C1693 C1692 1.363 . S
C1693 C1699 1.363 . S
C1694 C1695 1.363 . S
C1694 C1699 1.379 . S
C1694 N1701 1.356 . S
C1695 C1694 1.363 . S
C1695 C1698 1.363 . S
N1696 C1698 1.356 . S
N1696 H1708 0.984 . S
N1696 H1709 0.985 . S
N1697 C1699 1.356 . S
N1697 H1702 0.984 . S
N1697 H1703 0.985 . S
C1698 C1692 1.379 . S
C1698 C1695 1.363 . S
C1698 N1696 1.356 . S
C1699 C1693 1.363 . S
C1699 C1694 1.379 . S
C1699 N1697 1.356 . S
N1700 C1692 1.356 . S
N1700 H1706 0.984 . S
N1700 H1707 0.984 . S
N1701 C1694 1.356 . S
N1701 H1704 0.984 . S
N1701 H1705 0.985 . S
H1702 N1697 0.984 . S
H1703 N1697 0.985 . S
H1704 N1701 0.984 . S
H1705 N1701 0.985 . S
H1706 N1700 0.984 . S
H1707 N1700 0.984 . S
H1708 N1696 0.984 . S
H1709 N1696 0.985 . S
C1710 C1711 1.363 . S
C1710 C1716 1.379 . S
C1710 N1718 1.356 . S
C1711 C1710 1.363 . S
C1711 C1717 1.363 . S
C1712 C1713 1.363 . S
C1712 C1717 1.379 . S
C1712 N1719 1.356 . S
C1713 C1712 1.363 . S
C1713 C1716 1.363 . S
N1714 C1716 1.356 . S
N1714 H1726 0.984 . S
N1714 H1727 0.985 . S
N1715 C1717 1.356 . S
N1715 H1720 0.984 . S
N1715 H1721 0.985 . S
C1716 C1710 1.379 . S
C1716 C1713 1.363 . S
C1716 N1714 1.356 . S
C1717 C1711 1.363 . S
C1717 C1712 1.379 . S
C1717 N1715 1.356 . S
N1718 C1710 1.356 . S
N1718 H1724 0.984 . S
N1718 H1725 0.984 . S
N1719 C1712 1.356 . S
N1719 H1722 0.984 . S
N1719 H1723 0.985 . S
H1720 N1715 0.984 . S
H1721 N1715 0.985 . S
H1722 N1719 0.984 . S
H1723 N1719 0.985 . S
H1724 N1718 0.984 . S
H1725 N1718 0.984 . S
H1726 N1714 0.984 . S
H1727 N1714 0.985 . S
C1728 C1729 1.363 . S
C1728 C1734 1.379 . S
C1728 N1736 1.356 . S
C1729 C1728 1.363 . S
C1729 C1735 1.363 . S
C1730 C1731 1.363 . S
C1730 C1735 1.379 . S
C1730 N1737 1.356 . S
C1731 C1730 1.363 . S
C1731 C1734 1.363 . S
N1732 C1734 1.356 . S
N1732 H1744 0.984 . S
N1732 H1745 0.985 . S
N1733 C1735 1.356 . S
N1733 H1738 0.984 . S
N1733 H1739 0.985 1_455 S
C1734 C1728 1.379 . S
C1734 C1731 1.363 . S
C1734 N1732 1.356 . S
C1735 C1729 1.363 . S
C1735 C1730 1.379 . S
C1735 N1733 1.356 . S
N1736 C1728 1.356 . S
N1736 H1742 0.984 . S
N1736 H1743 0.984 . S
N1737 C1730 1.356 . S
N1737 H1740 0.984 . S
N1737 H1741 0.985 1_455 S
H1738 N1733 0.984 . S
H1739 N1733 0.985 1_655 S
H1740 N1737 0.984 . S
H1741 N1737 0.985 1_655 S
H1742 N1736 0.984 . S
H1743 N1736 0.984 . S
H1744 N1732 0.984 . S
H1745 N1732 0.985 . S
C1746 C1747 1.363 . S
C1746 C1752 1.379 . S
C1746 N1754 1.356 . S
C1747 C1746 1.363 . S
C1747 C1753 1.363 . S
C1748 C1749 1.363 . S
C1748 C1753 1.379 . S
C1748 N1755 1.356 . S
C1749 C1748 1.363 . S
C1749 C1752 1.363 . S
N1750 C1752 1.356 . S
N1750 H1762 0.984 . S
N1750 H1763 0.985 . S
N1751 C1753 1.356 . S
N1751 H1756 0.984 . S
N1751 H1757 0.985 . S
C1752 C1746 1.379 . S
C1752 C1749 1.363 . S
C1752 N1750 1.356 . S
C1753 C1747 1.363 . S
C1753 C1748 1.379 . S
C1753 N1751 1.356 . S
N1754 C1746 1.356 . S
N1754 H1760 0.984 . S
N1754 H1761 0.984 . S
N1755 C1748 1.356 . S
N1755 H1758 0.984 . S
N1755 H1759 0.985 . S
H1756 N1751 0.984 . S
H1757 N1751 0.985 . S
H1758 N1755 0.984 . S
H1759 N1755 0.985 . S
H1760 N1754 0.984 . S
H1761 N1754 0.984 . S
H1762 N1750 0.984 . S
H1763 N1750 0.985 . S
C1764 C1765 1.363 . S
C1764 C1770 1.379 . S
C1764 N1772 1.356 . S
C1765 C1764 1.363 . S
C1765 C1771 1.363 . S
C1766 C1767 1.363 . S
C1766 C1771 1.379 . S
C1766 N1773 1.356 . S
C1767 C1766 1.363 . S
C1767 C1770 1.363 . S
N1768 C1770 1.356 . S
N1768 H1780 0.984 . S
N1768 H1781 0.985 . S
N1769 C1771 1.356 . S
N1769 H1774 0.984 . S
N1769 H1775 0.985 . S
C1770 C1764 1.379 . S
C1770 C1767 1.363 . S
C1770 N1768 1.356 . S
C1771 C1765 1.363 . S
C1771 C1766 1.379 . S
C1771 N1769 1.356 . S
N1772 C1764 1.356 . S
N1772 H1778 0.984 . S
N1772 H1779 0.984 . S
N1773 C1766 1.356 . S
N1773 H1776 0.984 . S
N1773 H1777 0.985 . S
H1774 N1769 0.984 . S
H1775 N1769 0.985 . S
H1776 N1773 0.984 . S
H1777 N1773 0.985 . S
H1778 N1772 0.984 . S
H1779 N1772 0.984 . S
H1780 N1768 0.984 . S
H1781 N1768 0.985 . S
C1782 C1783 1.363 . S
C1782 C1788 1.379 . S
C1782 N1790 1.356 . S
C1783 C1782 1.363 . S
C1783 C1789 1.363 . S
C1784 C1785 1.363 . S
C1784 C1789 1.379 . S
C1784 N1791 1.356 . S
C1785 C1784 1.363 . S
C1785 C1788 1.363 . S
N1786 C1788 1.356 . S
N1786 H1798 0.984 . S
N1786 H1799 0.985 . S
N1787 C1789 1.356 . S
N1787 H1792 0.984 . S
N1787 H1793 0.985 . S
C1788 C1782 1.379 . S
C1788 C1785 1.363 . S
C1788 N1786 1.356 . S
C1789 C1783 1.363 . S
C1789 C1784 1.379 . S
C1789 N1787 1.356 . S
N1790 C1782 1.356 . S
N1790 H1796 0.984 . S
N1790 H1797 0.984 . S
N1791 C1784 1.356 . S
N1791 H1794 0.984 . S
N1791 H1795 0.985 . S
H1792 N1787 0.984 . S
H1793 N1787 0.985 . S
H1794 N1791 0.984 . S
H1795 N1791 0.985 . S
H1796 N1790 0.984 . S
H1797 N1790 0.984 . S
H1798 N1786 0.984 . S
H1799 N1786 0.985 . S
C1800 C1801 1.363 . S
C1800 C1806 1.379 . S
C1800 N1808 1.356 . S
C1801 C1800 1.363 . S
C1801 C1807 1.363 1_655 S
C1802 C1803 1.363 . S
C1802 C1807 1.379 . S
C1802 N1809 1.356 . S
C1803 C1802 1.363 . S
C1803 C1806 1.363 1_455 S
N1804 C1806 1.356 . S
N1804 H1816 0.984 . S
N1804 H1817 0.985 . S
N1805 C1807 1.356 . S
N1805 H1810 0.984 1_455 S
N1805 H1811 0.985 . S
C1806 C1800 1.379 . S
C1806 C1803 1.363 1_655 S
C1806 N1804 1.356 . S
C1807 C1801 1.363 1_455 S
C1807 C1802 1.379 . S
C1807 N1805 1.356 . S
N1808 C1800 1.356 . S
N1808 H1814 0.984 . S
N1808 H1815 0.984 . S
N1809 C1802 1.356 . S
N1809 H1812 0.984 . S
N1809 H1813 0.985 . S
H1810 N1805 0.984 1_655 S
H1811 N1805 0.985 . S
H1812 N1809 0.984 . S
H1813 N1809 0.985 . S
H1814 N1808 0.984 . S
H1815 N1808 0.984 . S
H1816 N1804 0.984 . S
H1817 N1804 0.985 . S
C1818 C1819 1.363 . S
C1818 C1824 1.379 . S
C1818 N1826 1.356 . S
C1819 C1818 1.363 . S
C1819 C1825 1.363 . S
C1820 C1821 1.363 . S
C1820 C1825 1.379 . S
C1820 N1827 1.356 . S
C1821 C1820 1.363 . S
C1821 C1824 1.363 . S
N1822 C1824 1.356 . S
N1822 H1834 0.984 . S
N1822 H1835 0.985 . S
N1823 C1825 1.356 . S
N1823 H1828 0.984 . S
N1823 H1829 0.985 . S
C1824 C1818 1.379 . S
C1824 C1821 1.363 . S
C1824 N1822 1.356 . S
C1825 C1819 1.363 . S
C1825 C1820 1.379 . S
C1825 N1823 1.356 . S
N1826 C1818 1.356 . S
N1826 H1832 0.984 . S
N1826 H1833 0.984 . S
N1827 C1820 1.356 . S
N1827 H1830 0.984 . S
N1827 H1831 0.985 . S
H1828 N1823 0.984 . S
H1829 N1823 0.985 . S
H1830 N1827 0.984 . S
H1831 N1827 0.985 . S
H1832 N1826 0.984 . S
H1833 N1826 0.984 . S
H1834 N1822 0.984 . S
H1835 N1822 0.985 . S
C1836 C1837 1.363 . S
C1836 C1842 1.379 . S
C1836 N1844 1.356 . S
C1837 C1836 1.363 . S
C1837 C1843 1.363 . S
C1838 C1839 1.363 . S
C1838 C1843 1.379 . S
C1838 N1845 1.356 1_545 S
C1839 C1838 1.363 . S
C1839 C1842 1.363 . S
N1840 C1842 1.356 . S
N1840 H1852 0.984 . S
N1840 H1853 0.985 . S
N1841 C1843 1.356 . S
N1841 H1846 0.984 . S
N1841 H1847 0.985 1_545 S
C1842 C1836 1.379 . S
C1842 C1839 1.363 . S
C1842 N1840 1.356 . S
C1843 C1837 1.363 . S
C1843 C1838 1.379 . S
C1843 N1841 1.356 . S
N1844 C1836 1.356 . S
N1844 H1850 0.984 . S
N1844 H1851 0.984 . S
N1845 C1838 1.356 1_565 S
N1845 H1848 0.984 . S
N1845 H1849 0.985 . S
H1846 N1841 0.984 . S
H1847 N1841 0.985 1_565 S
H1848 N1845 0.984 . S
H1849 N1845 0.985 . S
H1850 N1844 0.984 . S
H1851 N1844 0.984 . S
H1852 N1840 0.984 . S
H1853 N1840 0.985 . S
C1854 C1855 1.363 . S
C1854 C1860 1.379 . S
C1854 N1862 1.356 . S
C1855 C1854 1.363 . S
C1855 C1861 1.363 . S
C1856 C1857 1.363 . S
C1856 C1861 1.379 . S
C1856 N1863 1.356 . S
C1857 C1856 1.363 . S
C1857 C1860 1.363 . S
N1858 C1860 1.356 . S
N1858 H1870 0.984 . S
N1858 H1871 0.985 . S
N1859 C1861 1.356 . S
N1859 H1864 0.984 . S
N1859 H1865 0.985 . S
C1860 C1854 1.379 . S
C1860 C1857 1.363 . S
C1860 N1858 1.356 . S
C1861 C1855 1.363 . S
C1861 C1856 1.379 . S
C1861 N1859 1.356 . S
N1862 C1854 1.356 . S
N1862 H1868 0.984 . S
N1862 H1869 0.984 . S
N1863 C1856 1.356 . S
N1863 H1866 0.984 . S
N1863 H1867 0.985 . S
H1864 N1859 0.984 . S
H1865 N1859 0.985 . S
H1866 N1863 0.984 . S
H1867 N1863 0.985 . S
H1868 N1862 0.984 . S
H1869 N1862 0.984 . S
H1870 N1858 0.984 . S
H1871 N1858 0.985 . S
C1872 C1873 1.363 1_565 S
C1872 C1878 1.384 1_565 S
C1872 N1880 1.356 . S
C1873 C1872 1.363 1_545 S
C1873 C1879 1.363 1_655 S
C1874 C1875 1.363 . S
C1874 C1879 1.379 . S
C1874 N1881 1.356 . S
C1875 C1874 1.363 . S
C1875 C1878 1.382 1_455 S
N1876 C1878 1.337 1_565 S
N1876 H1888 0.984 . S
N1876 H1889 0.985 1_655 S
N1877 C1879 1.358 . S
N1877 H1882 0.970 1_455 S
N1877 H1883 0.998 . S
C1878 C1872 1.384 1_545 S
C1878 C1875 1.382 1_655 S
C1878 N1876 1.337 1_545 S
C1879 C1873 1.363 1_455 S
C1879 C1874 1.379 . S
C1879 N1877 1.358 . S
N1880 C1872 1.356 . S
N1880 H1886 0.984 . S
N1880 H1887 0.984 . S
N1881 C1874 1.356 . S
N1881 H1884 0.984 . S
N1881 H1885 0.985 . S
H1882 N1877 0.970 1_655 S
H1883 N1877 0.998 . S
H1884 N1881 0.984 . S
H1885 N1881 0.985 . S
H1886 N1880 0.984 . S
H1887 N1880 0.984 . S
H1888 N1876 0.984 . S
H1889 N1876 0.985 1_455 S
C1890 C1891 1.363 . S
C1890 C1896 1.379 . S
C1890 N1898 1.356 . S
C1891 C1890 1.363 . S
C1891 C1897 1.363 . S
C1892 C1893 1.363 . S
C1892 C1897 1.379 . S
C1892 N1899 1.356 . S
C1893 C1892 1.363 . S
C1893 C1896 1.363 . S
N1894 C1896 1.356 . S
N1894 H1906 0.984 . S
N1894 H1907 0.985 . S
N1895 C1897 1.356 . S
N1895 H1900 0.984 . S
N1895 H1901 0.985 . S
C1896 C1890 1.379 . S
C1896 C1893 1.363 . S
C1896 N1894 1.356 . S
C1897 C1891 1.363 . S
C1897 C1892 1.379 . S
C1897 N1895 1.356 . S
N1898 C1890 1.356 . S
N1898 H1904 0.984 . S
N1898 H1905 0.984 . S
N1899 C1892 1.356 . S
N1899 H1902 0.984 . S
N1899 H1903 0.985 . S
H1900 N1895 0.984 . S
H1901 N1895 0.985 . S
H1902 N1899 0.984 . S
H1903 N1899 0.985 . S
H1904 N1898 0.984 . S
H1905 N1898 0.984 . S
H1906 N1894 0.984 . S
H1907 N1894 0.985 . S
C1908 C1909 1.363 . S
C1908 C1914 1.379 . S
C1908 N1916 1.356 . S
C1909 C1908 1.363 . S
C1909 C1915 1.363 . S
C1910 C1911 1.363 . S
C1910 C1915 1.379 . S
C1910 N1917 1.356 . S
C1911 C1910 1.363 . S
C1911 C1914 1.363 . S
N1912 C1914 1.356 . S
N1912 H1924 0.984 . S
N1912 H1925 0.985 . S
N1913 C1915 1.356 . S
N1913 H1918 0.984 . S
N1913 H1919 0.985 . S
C1914 C1908 1.379 . S
C1914 C1911 1.363 . S
C1914 N1912 1.356 . S
C1915 C1909 1.363 . S
C1915 C1910 1.379 . S
C1915 N1913 1.356 . S
N1916 C1908 1.356 . S
N1916 H1922 0.984 . S
N1916 H1923 0.984 . S
N1917 C1910 1.356 . S
N1917 H1920 0.984 . S
N1917 H1921 0.985 . S
H1918 N1913 0.984 . S
H1919 N1913 0.985 . S
H1920 N1917 0.984 . S
H1921 N1917 0.985 . S
H1922 N1916 0.984 . S
H1923 N1916 0.984 . S
H1924 N1912 0.984 . S
H1925 N1912 0.985 . S
C1926 C1927 1.363 . S
C1926 C1932 1.379 . S
C1926 N1934 1.356 . S
C1927 C1926 1.363 . S
C1927 C1933 1.363 . S
C1928 C1929 1.363 . S
C1928 C1933 1.379 . S
C1928 N1935 1.356 . S
C1929 C1928 1.363 . S
C1929 C1932 1.363 . S
N1930 C1932 1.356 . S
N1930 H1942 0.984 . S
N1930 H1943 0.985 . S
N1931 C1933 1.356 . S
N1931 H1936 0.984 . S
N1931 H1937 0.985 . S
C1932 C1926 1.379 . S
C1932 C1929 1.363 . S
C1932 N1930 1.356 . S
C1933 C1927 1.363 . S
C1933 C1928 1.379 . S
C1933 N1931 1.356 . S
N1934 C1926 1.356 . S
N1934 H1940 0.984 . S
N1934 H1941 0.984 . S
N1935 C1928 1.356 . S
N1935 H1938 0.984 . S
N1935 H1939 0.985 . S
H1936 N1931 0.984 . S
H1937 N1931 0.985 . S
H1938 N1935 0.984 . S
H1939 N1935 0.985 . S
H1940 N1934 0.984 . S
H1941 N1934 0.984 . S
H1942 N1930 0.984 . S
H1943 N1930 0.985 . S
C1944 C1945 1.363 . S
C1944 C1950 1.379 . S
C1944 N1952 1.356 1_554 S
C1945 C1944 1.363 . S
C1945 C1951 1.363 . S
C1946 C1947 1.363 . S
C1946 C1951 1.379 1_545 S
C1946 N1953 1.356 . S
C1947 C1946 1.363 . S
C1947 C1950 1.363 1_545 S
N1948 C1950 1.356 . S
N1948 H1960 0.984 . S
N1948 H1961 0.985 1_565 S
N1949 C1951 1.356 . S
N1949 H1954 0.984 . S
N1949 H1955 0.985 1_565 S
C1950 C1944 1.379 . S
C1950 C1947 1.363 1_565 S
C1950 N1948 1.356 . S
C1951 C1945 1.363 . S
C1951 C1946 1.379 1_565 S
C1951 N1949 1.356 . S
N1952 C1944 1.356 1_556 S
N1952 H1958 0.984 . S
N1952 H1959 0.984 . S
N1953 C1946 1.356 . S
N1953 H1956 0.984 . S
N1953 H1957 0.985 . S
H1954 N1949 0.984 . S
H1955 N1949 0.985 1_545 S
H1956 N1953 0.984 . S
H1957 N1953 0.985 . S
H1958 N1952 0.984 . S
H1959 N1952 0.984 . S
H1960 N1948 0.984 . S
H1961 N1948 0.985 1_545 S
C1962 C1963 1.363 1_556 S
C1962 C1968 1.384 . S
C1962 N1970 1.356 . S
C1963 C1962 1.363 1_554 S
C1963 C1969 1.363 . S
C1964 C1965 1.363 . S
C1964 C1969 1.379 . S
C1964 N1971 1.356 . S
C1965 C1964 1.363 . S
C1965 C1968 1.351 1_554 S
N1966 C1968 1.359 . S
N1966 H1978 0.984 . S
N1966 H1979 0.985 . S
N1967 C1969 1.356 . S
N1967 H1972 0.984 . S
N1967 H1973 0.985 . S
C1968 C1962 1.384 . S
C1968 C1965 1.351 1_556 S
C1968 N1966 1.359 . S
C1969 C1963 1.363 . S
C1969 C1964 1.379 . S
C1969 N1967 1.356 . S
N1970 C1962 1.356 . S
N1970 H1976 0.984 . S
N1970 H1977 0.984 . S
N1971 C1964 1.356 . S
N1971 H1974 0.984 . S
N1971 H1975 0.985 . S
H1972 N1967 0.984 . S
H1973 N1967 0.985 . S
H1974 N1971 0.984 . S
H1975 N1971 0.985 . S
H1976 N1970 0.984 . S
H1977 N1970 0.984 . S
H1978 N1966 0.984 . S
H1979 N1966 0.985 . S
C1980 C1981 1.363 . S
C1980 C1986 1.379 . S
C1980 N1988 1.356 . S
C1981 C1980 1.363 . S
C1981 C1987 1.363 . S
C1982 C1983 1.363 . S
C1982 C1987 1.379 . S
C1982 N1989 1.356 . S
C1983 C1982 1.363 . S
C1983 C1986 1.363 . S
N1984 C1986 1.356 . S
N1984 H1996 0.984 . S
N1984 H1997 0.985 . S
N1985 C1987 1.356 . S
N1985 H1990 0.984 . S
N1985 H1991 0.985 . S
C1986 C1980 1.379 . S
C1986 C1983 1.363 . S
C1986 N1984 1.356 . S
C1987 C1981 1.363 . S
C1987 C1982 1.379 . S
C1987 N1985 1.356 . S
N1988 C1980 1.356 . S
N1988 H1994 0.984 . S
N1988 H1995 0.984 . S
N1989 C1982 1.356 . S
N1989 H1992 0.984 . S
N1989 H1993 0.985 . S
H1990 N1985 0.984 . S
H1991 N1985 0.985 . S
H1992 N1989 0.984 . S
H1993 N1989 0.985 . S
H1994 N1988 0.984 . S
H1995 N1988 0.984 . S
H1996 N1984 0.984 . S
H1997 N1984 0.985 . S
C1998 C1999 1.363 . S
C1998 C2004 1.379 . S
C1998 N2006 1.356 . S
C1999 C1998 1.363 . S
C1999 C2005 1.363 . S
C2000 C2001 1.363 . S
C2000 C2005 1.379 . S
C2000 N2007 1.356 . S
C2001 C2000 1.363 . S
C2001 C2004 1.363 . S
N2002 C2004 1.356 . S
N2002 H2014 0.984 . S
N2002 H2015 0.985 . S
N2003 C2005 1.356 . S
N2003 H2008 0.984 . S
N2003 H2009 0.985 . S
C2004 C1998 1.379 . S
C2004 C2001 1.363 . S
C2004 N2002 1.356 . S
C2005 C1999 1.363 . S
C2005 C2000 1.379 . S
C2005 N2003 1.356 . S
N2006 C1998 1.356 . S
N2006 H2012 0.984 . S
N2006 H2013 0.984 . S
N2007 C2000 1.356 . S
N2007 H2010 0.984 . S
N2007 H2011 0.985 . S
H2008 N2003 0.984 . S
H2009 N2003 0.985 . S
H2010 N2007 0.984 . S
H2011 N2007 0.985 . S
H2012 N2006 0.984 . S
H2013 N2006 0.984 . S
H2014 N2002 0.984 . S
H2015 N2002 0.985 . S
C2016 C2017 1.363 . S
C2016 C2022 1.379 . S
C2016 N2024 1.356 . S
C2017 C2016 1.363 . S
C2017 C2023 1.363 . S
C2018 C2019 1.363 . S
C2018 C2023 1.379 . S
C2018 N2025 1.356 . S
C2019 C2018 1.363 . S
C2019 C2022 1.363 . S
N2020 C2022 1.356 . S
N2020 H2032 0.984 . S
N2020 H2033 0.985 . S
N2021 C2023 1.356 . S
N2021 H2026 0.984 . S
N2021 H2027 0.985 . S
C2022 C2016 1.379 . S
C2022 C2019 1.363 . S
C2022 N2020 1.356 . S
C2023 C2017 1.363 . S
C2023 C2018 1.379 . S
C2023 N2021 1.356 . S
N2024 C2016 1.356 . S
N2024 H2030 0.984 . S
N2024 H2031 0.984 . S
N2025 C2018 1.356 . S
N2025 H2028 0.984 . S
N2025 H2029 0.985 . S
H2026 N2021 0.984 . S
H2027 N2021 0.985 . S
H2028 N2025 0.984 . S
H2029 N2025 0.985 . S
H2030 N2024 0.984 . S
H2031 N2024 0.984 . S
H2032 N2020 0.984 . S
H2033 N2020 0.985 . S
C2034 C2035 1.363 . S
C2034 C2040 1.379 . S
C2034 N2042 1.356 . S
C2035 C2034 1.363 . S
C2035 C2041 1.363 . S
C2036 C2037 1.363 . S
C2036 C2041 1.379 . S
C2036 N2043 1.356 . S
C2037 C2036 1.363 . S
C2037 C2040 1.363 . S
N2038 C2040 1.356 . S
N2038 H2050 0.984 . S
N2038 H2051 0.985 . S
N2039 C2041 1.356 . S
N2039 H2044 0.984 . S
N2039 H2045 0.985 . S
C2040 C2034 1.379 . S
C2040 C2037 1.363 . S
C2040 N2038 1.356 . S
C2041 C2035 1.363 . S
C2041 C2036 1.379 . S
C2041 N2039 1.356 . S
N2042 C2034 1.356 . S
N2042 H2048 0.984 . S
N2042 H2049 0.984 . S
N2043 C2036 1.356 . S
N2043 H2046 0.984 . S
N2043 H2047 0.985 . S
H2044 N2039 0.984 . S
H2045 N2039 0.985 . S
H2046 N2043 0.984 . S
H2047 N2043 0.985 . S
H2048 N2042 0.984 . S
H2049 N2042 0.984 . S
H2050 N2038 0.984 . S
H2051 N2038 0.985 . S
C2052 C2053 1.363 . S
C2052 C2058 1.379 . S
C2052 N2060 1.356 . S
C2053 C2052 1.363 . S
C2053 C2059 1.363 . S
C2054 C2055 1.363 . S
C2054 C2059 1.379 . S
C2054 N2061 1.356 . S
C2055 C2054 1.363 . S
C2055 C2058 1.363 . S
N2056 C2058 1.356 . S
N2056 H2068 0.984 . S
N2056 H2069 0.985 . S
N2057 C2059 1.356 . S
N2057 H2062 0.984 . S
N2057 H2063 0.985 . S
C2058 C2052 1.379 . S
C2058 C2055 1.363 . S
C2058 N2056 1.356 . S
C2059 C2053 1.363 . S
C2059 C2054 1.379 . S
C2059 N2057 1.356 . S
N2060 C2052 1.356 . S
N2060 H2066 0.984 . S
N2060 H2067 0.984 . S
N2061 C2054 1.356 . S
N2061 H2064 0.984 . S
N2061 H2065 0.985 . S
H2062 N2057 0.984 . S
H2063 N2057 0.985 . S
H2064 N2061 0.984 . S
H2065 N2061 0.985 . S
H2066 N2060 0.984 . S
H2067 N2060 0.984 . S
H2068 N2056 0.984 . S
H2069 N2056 0.985 . S
C2070 C2071 1.363 . S
C2070 C2076 1.379 . S
C2070 N2078 1.356 . S
C2071 C2070 1.363 . S
C2071 C2077 1.363 . S
C2072 C2073 1.363 . S
C2072 C2077 1.379 . S
C2072 N2079 1.356 . S
C2073 C2072 1.363 . S
C2073 C2076 1.363 . S
N2074 C2076 1.356 . S
N2074 H2086 0.984 . S
N2074 H2087 0.985 . S
N2075 C2077 1.356 . S
N2075 H2080 0.984 . S
N2075 H2081 0.985 . S
C2076 C2070 1.379 . S
C2076 C2073 1.363 . S
C2076 N2074 1.356 . S
C2077 C2071 1.363 . S
C2077 C2072 1.379 . S
C2077 N2075 1.356 . S
N2078 C2070 1.356 . S
N2078 H2084 0.984 . S
N2078 H2085 0.984 . S
N2079 C2072 1.356 . S
N2079 H2082 0.984 . S
N2079 H2083 0.985 . S
H2080 N2075 0.984 . S
H2081 N2075 0.985 . S
H2082 N2079 0.984 . S
H2083 N2079 0.985 . S
H2084 N2078 0.984 . S
H2085 N2078 0.984 . S
H2086 N2074 0.984 . S
H2087 N2074 0.985 . S
C2088 C2089 1.363 . S
C2088 C2094 1.379 . S
C2088 N2096 1.356 . S
C2089 C2088 1.363 . S
C2089 C2095 1.363 . S
C2090 C2091 1.363 . S
C2090 C2095 1.379 . S
C2090 N2097 1.356 . S
C2091 C2090 1.363 . S
C2091 C2094 1.363 . S
N2092 C2094 1.356 . S
N2092 H2104 0.984 . S
N2092 H2105 0.985 . S
N2093 C2095 1.356 . S
N2093 H2098 0.984 . S
N2093 H2099 0.985 . S
C2094 C2088 1.379 . S
C2094 C2091 1.363 . S
C2094 N2092 1.356 . S
C2095 C2089 1.363 . S
C2095 C2090 1.379 . S
C2095 N2093 1.356 . S
N2096 C2088 1.356 . S
N2096 H2102 0.984 . S
N2096 H2103 0.984 . S
N2097 C2090 1.356 . S
N2097 H2100 0.984 . S
N2097 H2101 0.985 . S
H2098 N2093 0.984 . S
H2099 N2093 0.985 . S
H2100 N2097 0.984 . S
H2101 N2097 0.985 . S
H2102 N2096 0.984 . S
H2103 N2096 0.984 . S
H2104 N2092 0.984 . S
H2105 N2092 0.985 . S
C2106 C2107 1.363 . S
C2106 C2112 1.379 . S
C2106 N2114 1.356 . S
C2107 C2106 1.363 . S
C2107 C2113 1.363 . S
C2108 C2109 1.363 . S
C2108 C2113 1.379 . S
C2108 N2115 1.356 . S
C2109 C2108 1.363 . S
C2109 C2112 1.363 . S
N2110 C2112 1.356 . S
N2110 H2122 0.984 . S
N2110 H2123 0.985 . S
N2111 C2113 1.356 . S
N2111 H2116 0.984 . S
N2111 H2117 0.985 . S
C2112 C2106 1.379 . S
C2112 C2109 1.363 . S
C2112 N2110 1.356 . S
C2113 C2107 1.363 . S
C2113 C2108 1.379 . S
C2113 N2111 1.356 . S
N2114 C2106 1.356 . S
N2114 H2120 0.984 . S
N2114 H2121 0.984 . S
N2115 C2108 1.356 . S
N2115 H2118 0.984 . S
N2115 H2119 0.985 . S
H2116 N2111 0.984 . S
H2117 N2111 0.985 . S
H2118 N2115 0.984 . S
H2119 N2115 0.985 . S
H2120 N2114 0.984 . S
H2121 N2114 0.984 . S
H2122 N2110 0.984 . S
H2123 N2110 0.985 . S
C2124 C2125 1.363 . S
C2124 C2130 1.379 . S
C2124 N2132 1.356 . S
C2125 C2124 1.363 . S
C2125 C2131 1.363 . S
C2126 C2127 1.363 . S
C2126 C2131 1.379 . S
C2126 N2133 1.356 . S
C2127 C2126 1.363 . S
C2127 C2130 1.363 . S
N2128 C2130 1.356 . S
N2128 H2140 0.984 . S
N2128 H2141 0.985 . S
N2129 C2131 1.356 . S
N2129 H2134 0.984 . S
N2129 H2135 0.985 . S
C2130 C2124 1.379 . S
C2130 C2127 1.363 . S
C2130 N2128 1.356 . S
C2131 C2125 1.363 . S
C2131 C2126 1.379 . S
C2131 N2129 1.356 . S
N2132 C2124 1.356 . S
N2132 H2138 0.984 . S
N2132 H2139 0.984 . S
N2133 C2126 1.356 . S
N2133 H2136 0.984 . S
N2133 H2137 0.985 . S
H2134 N2129 0.984 . S
H2135 N2129 0.985 . S
H2136 N2133 0.984 . S
H2137 N2133 0.985 . S
H2138 N2132 0.984 . S
H2139 N2132 0.984 . S
H2140 N2128 0.984 . S
H2141 N2128 0.985 . S
C2142 C2143 1.363 . S
C2142 C2148 1.379 . S
C2142 N2150 1.356 . S
C2143 C2142 1.363 . S
C2143 C2149 1.363 . S
C2144 C2145 1.363 . S
C2144 C2149 1.379 . S
C2144 N2151 1.356 . S
C2145 C2144 1.363 . S
C2145 C2148 1.363 . S
N2146 C2148 1.356 . S
N2146 H2158 0.984 . S
N2146 H2159 0.985 . S
N2147 C2149 1.356 . S
N2147 H2152 0.984 . S
N2147 H2153 0.985 . S
C2148 C2142 1.379 . S
C2148 C2145 1.363 . S
C2148 N2146 1.356 . S
C2149 C2143 1.363 . S
C2149 C2144 1.379 . S
C2149 N2147 1.356 . S
N2150 C2142 1.356 . S
N2150 H2156 0.984 . S
N2150 H2157 0.984 . S
N2151 C2144 1.356 . S
N2151 H2154 0.984 . S
N2151 H2155 0.985 . S
H2152 N2147 0.984 . S
H2153 N2147 0.985 . S
H2154 N2151 0.984 . S
H2155 N2151 0.985 . S
H2156 N2150 0.984 . S
H2157 N2150 0.984 . S
H2158 N2146 0.984 . S
H2159 N2146 0.985 . S
C2160 C2161 1.363 . S
C2160 C2166 1.379 . S
C2160 N2168 1.356 . S
C2161 C2160 1.363 . S
C2161 C2167 1.363 . S
C2162 C2163 1.363 . S
C2162 C2167 1.379 . S
C2162 N2169 1.356 . S
C2163 C2162 1.363 . S
C2163 C2166 1.363 . S
N2164 C2166 1.356 . S
N2164 H2176 0.984 . S
N2164 H2177 0.985 . S
N2165 C2167 1.356 . S
N2165 H2170 0.984 . S
N2165 H2171 0.985 . S
C2166 C2160 1.379 . S
C2166 C2163 1.363 . S
C2166 N2164 1.356 . S
C2167 C2161 1.363 . S
C2167 C2162 1.379 . S
C2167 N2165 1.356 . S
N2168 C2160 1.356 . S
N2168 H2174 0.984 . S
N2168 H2175 0.984 . S
N2169 C2162 1.356 . S
N2169 H2172 0.984 . S
N2169 H2173 0.985 . S
H2170 N2165 0.984 . S
H2171 N2165 0.985 . S
H2172 N2169 0.984 . S
H2173 N2169 0.985 . S
H2174 N2168 0.984 . S
H2175 N2168 0.984 . S
H2176 N2164 0.984 . S
H2177 N2164 0.985 . S
C2178 C2179 1.363 . S
C2178 C2184 1.379 . S
C2178 N2186 1.356 . S
C2179 C2178 1.363 . S
C2179 C2185 1.363 . S
C2180 C2181 1.363 . S
C2180 C2185 1.379 . S
C2180 N2187 1.356 . S
C2181 C2180 1.363 . S
C2181 C2184 1.363 . S
N2182 C2184 1.356 . S
N2182 H2194 0.984 . S
N2182 H2195 0.985 . S
N2183 C2185 1.356 . S
N2183 H2188 0.984 . S
N2183 H2189 0.985 . S
C2184 C2178 1.379 . S
C2184 C2181 1.363 . S
C2184 N2182 1.356 . S
C2185 C2179 1.363 . S
C2185 C2180 1.379 . S
C2185 N2183 1.356 . S
N2186 C2178 1.356 . S
N2186 H2192 0.984 . S
N2186 H2193 0.984 . S
N2187 C2180 1.356 . S
N2187 H2190 0.984 . S
N2187 H2191 0.985 . S
H2188 N2183 0.984 . S
H2189 N2183 0.985 . S
H2190 N2187 0.984 . S
H2191 N2187 0.985 . S
H2192 N2186 0.984 . S
H2193 N2186 0.984 . S
H2194 N2182 0.984 . S
H2195 N2182 0.985 . S
C2196 C2197 1.363 . S
C2196 C2202 1.379 . S
C2196 N2204 1.356 . S
C2197 C2196 1.363 . S
C2197 C2203 1.363 . S
C2198 C2199 1.363 . S
C2198 C2203 1.379 . S
C2198 N2205 1.356 . S
C2199 C2198 1.363 . S
C2199 C2202 1.363 . S
N2200 C2202 1.356 . S
N2200 H2212 0.983 1_565 S
N2200 H2213 0.985 1_565 S
N2201 C2203 1.356 . S
N2201 H2206 0.984 . S
N2201 H2207 0.985 . S
C2202 C2196 1.379 . S
C2202 C2199 1.363 . S
C2202 N2200 1.356 . S
C2203 C2197 1.363 . S
C2203 C2198 1.379 . S
C2203 N2201 1.356 . S
N2204 C2196 1.356 . S
N2204 H2210 0.984 . S
N2204 H2211 0.984 . S
N2205 C2198 1.356 . S
N2205 H2208 0.984 . S
N2205 H2209 0.985 . S
H2206 N2201 0.984 . S
H2207 N2201 0.985 . S
H2208 N2205 0.984 . S
H2209 N2205 0.985 . S
H2210 N2204 0.984 . S
H2211 N2204 0.984 . S
H2212 N2200 0.983 1_545 S
H2213 N2200 0.985 1_545 S
C2214 C2215 1.363 . S
C2214 C2220 1.379 . S
C2214 N2222 1.356 . S
C2215 C2214 1.363 . S
C2215 C2221 1.363 . S
C2216 C2217 1.363 . S
C2216 C2221 1.379 . S
C2216 N2223 1.356 . S
C2217 C2216 1.363 . S
C2217 C2220 1.363 . S
N2218 C2220 1.356 . S
N2218 H2230 0.984 . S
N2218 H2231 0.985 . S
N2219 C2221 1.356 . S
N2219 H2224 0.984 . S
N2219 H2225 0.985 . S
C2220 C2214 1.379 . S
C2220 C2217 1.363 . S
C2220 N2218 1.356 . S
C2221 C2215 1.363 . S
C2221 C2216 1.379 . S
C2221 N2219 1.356 . S
N2222 C2214 1.356 . S
N2222 H2228 0.984 . S
N2222 H2229 0.984 . S
N2223 C2216 1.356 . S
N2223 H2226 0.984 . S
N2223 H2227 0.985 . S
H2224 N2219 0.984 . S
H2225 N2219 0.985 . S
H2226 N2223 0.984 . S
H2227 N2223 0.985 . S
H2228 N2222 0.984 . S
H2229 N2222 0.984 . S
H2230 N2218 0.984 . S
H2231 N2218 0.985 . S
C2232 C2233 1.363 . S
C2232 C2238 1.379 . S
C2232 N2240 1.356 . S
C2233 C2232 1.363 . S
C2233 C2239 1.363 . S
C2234 C2235 1.363 . S
C2234 C2239 1.379 . S
C2234 N2241 1.356 . S
C2235 C2234 1.363 . S
C2235 C2238 1.363 . S
N2236 C2238 1.356 . S
N2236 H2248 0.984 1_545 S
N2236 H2249 0.985 . S
N2237 C2239 1.356 . S
N2237 H2242 0.984 . S
N2237 H2243 0.985 . S
C2238 C2232 1.379 . S
C2238 C2235 1.363 . S
C2238 N2236 1.356 . S
C2239 C2233 1.363 . S
C2239 C2234 1.379 . S
C2239 N2237 1.356 . S
N2240 C2232 1.356 . S
N2240 H2246 0.984 . S
N2240 H2247 0.984 . S
N2241 C2234 1.356 . S
N2241 H2244 0.984 1_556 S
N2241 H2245 0.984 1_556 S
H2242 N2237 0.984 . S
H2243 N2237 0.985 . S
H2244 N2241 0.984 1_554 S
H2245 N2241 0.984 1_554 S
H2246 N2240 0.984 . S
H2247 N2240 0.984 . S
H2248 N2236 0.984 1_565 S
H2249 N2236 0.985 . S
C2250 C2251 1.363 . S
C2250 C2256 1.379 . S
C2250 N2258 1.356 . S
C2251 C2250 1.363 . S
C2251 C2257 1.363 . S
C2252 C2253 1.363 . S
C2252 C2257 1.379 . S
C2252 N2259 1.356 . S
C2253 C2252 1.363 . S
C2253 C2256 1.363 . S
N2254 C2256 1.356 . S
N2254 H2266 0.984 . S
N2254 H2267 0.985 . S
N2255 C2257 1.356 . S
N2255 H2260 0.984 . S
N2255 H2261 0.985 . S
C2256 C2250 1.379 . S
C2256 C2253 1.363 . S
C2256 N2254 1.356 . S
C2257 C2251 1.363 . S
C2257 C2252 1.379 . S
C2257 N2255 1.356 . S
N2258 C2250 1.356 . S
N2258 H2264 0.984 . S
N2258 H2265 0.984 . S
N2259 C2252 1.356 . S
N2259 H2262 0.984 . S
N2259 H2263 0.985 . S
H2260 N2255 0.984 . S
H2261 N2255 0.985 . S
H2262 N2259 0.984 . S
H2263 N2259 0.985 . S
H2264 N2258 0.984 . S
H2265 N2258 0.984 . S
H2266 N2254 0.984 . S
H2267 N2254 0.985 . S
C2268 C2269 1.363 1_565 S
C2268 C2274 1.379 1_565 S
C2268 N2276 1.356 . S
C2269 C2268 1.363 1_545 S
C2269 C2275 1.363 . S
C2270 C2271 1.363 . S
C2270 C2275 1.379 . S
C2270 N2277 1.356 . S
C2271 C2270 1.363 . S
C2271 C2274 1.363 . S
N2272 C2274 1.356 1_565 S
N2272 H2284 0.984 . S
N2272 H2285 0.985 1_565 S
N2273 C2275 1.356 . S
N2273 H2278 0.984 . S
N2273 H2279 0.985 . S
C2274 C2268 1.379 1_545 S
C2274 C2271 1.363 . S
C2274 N2272 1.356 1_545 S
C2275 C2269 1.363 . S
C2275 C2270 1.379 . S
C2275 N2273 1.356 . S
N2276 C2268 1.356 . S
N2276 H2282 0.984 . S
N2276 H2283 0.984 . S
N2277 C2270 1.356 . S
N2277 H2280 0.984 . S
N2277 H2281 0.985 . S
H2278 N2273 0.984 . S
H2279 N2273 0.985 . S
H2280 N2277 0.984 . S
H2281 N2277 0.985 . S
H2282 N2276 0.984 . S
H2283 N2276 0.984 . S
H2284 N2272 0.984 . S
H2285 N2272 0.985 1_545 S
C2286 C2287 1.363 . S
C2286 C2292 1.379 . S
C2286 N2294 1.356 . S
C2287 C2286 1.363 . S
C2287 C2293 1.363 . S
C2288 C2289 1.363 . S
C2288 C2293 1.379 . S
C2288 N2295 1.356 . S
C2289 C2288 1.363 . S
C2289 C2292 1.363 . S
N2290 C2292 1.356 . S
N2290 H2302 0.984 . S
N2290 H2303 0.985 . S
N2291 C2293 1.356 . S
N2291 H2296 0.984 . S
N2291 H2297 0.985 . S
C2292 C2286 1.379 . S
C2292 C2289 1.363 . S
C2292 N2290 1.356 . S
C2293 C2287 1.363 . S
C2293 C2288 1.379 . S
C2293 N2291 1.356 . S
N2294 C2286 1.356 . S
N2294 H2300 0.984 . S
N2294 H2301 0.984 . S
N2295 C2288 1.356 . S
N2295 H2298 0.984 . S
N2295 H2299 0.985 . S
H2296 N2291 0.984 . S
H2297 N2291 0.985 . S
H2298 N2295 0.984 . S
H2299 N2295 0.985 . S
H2300 N2294 0.984 . S
H2301 N2294 0.984 . S
H2302 N2290 0.984 . S
H2303 N2290 0.985 . S
C2304 C2305 1.363 . S
C2304 C2310 1.379 . S
C2304 N2312 1.356 . S
C2305 C2304 1.363 . S
C2305 C2311 1.363 . S
C2306 C2307 1.363 . S
C2306 C2311 1.379 . S
C2306 N2313 1.356 . S
C2307 C2306 1.363 . S
C2307 C2310 1.363 . S
N2308 C2310 1.356 . S
N2308 H2320 0.984 1_545 S
N2308 H2321 0.985 . S
N2309 C2311 1.356 . S
N2309 H2314 0.984 . S
N2309 H2315 0.985 . S
C2310 C2304 1.379 . S
C2310 C2307 1.363 . S
C2310 N2308 1.356 . S
C2311 C2305 1.363 . S
C2311 C2306 1.379 . S
C2311 N2309 1.356 . S
N2312 C2304 1.356 . S
N2312 H2318 0.984 1_545 S
N2312 H2319 0.984 . S
N2313 C2306 1.356 . S
N2313 H2316 0.984 . S
N2313 H2317 0.985 . S
H2314 N2309 0.984 . S
H2315 N2309 0.985 . S
H2316 N2313 0.984 . S
H2317 N2313 0.985 . S
H2318 N2312 0.984 1_565 S
H2319 N2312 0.984 . S
H2320 N2308 0.984 1_565 S
H2321 N2308 0.985 . S
C2322 C2323 1.363 . S
C2322 C2328 1.379 . S
C2322 N2330 1.356 . S
C2323 C2322 1.363 . S
C2323 C2329 1.363 . S
C2324 C2325 1.363 . S
C2324 C2329 1.379 . S
C2324 N2331 1.356 . S
C2325 C2324 1.363 . S
C2325 C2328 1.363 . S
N2326 C2328 1.356 . S
N2326 H2338 0.984 . S
N2326 H2339 0.985 . S
N2327 C2329 1.356 . S
N2327 H2332 0.984 . S
N2327 H2333 0.985 . S
C2328 C2322 1.379 . S
C2328 C2325 1.363 . S
C2328 N2326 1.356 . S
C2329 C2323 1.363 . S
C2329 C2324 1.379 . S
C2329 N2327 1.356 . S
N2330 C2322 1.356 . S
N2330 H2336 0.984 . S
N2330 H2337 0.984 . S
N2331 C2324 1.356 . S
N2331 H2334 0.984 . S
N2331 H2335 0.985 . S
H2332 N2327 0.984 . S
H2333 N2327 0.985 . S
H2334 N2331 0.984 . S
H2335 N2331 0.985 . S
H2336 N2330 0.984 . S
H2337 N2330 0.984 . S
H2338 N2326 0.984 . S
H2339 N2326 0.985 . S
C2340 C2341 1.363 . S
C2340 C2346 1.379 . S
C2340 N2348 1.356 . S
C2341 C2340 1.363 . S
C2341 C2347 1.363 1_545 S
C2342 C2343 1.360 1_565 S
C2342 C2347 1.379 . S
C2342 N2349 1.358 . S
C2343 C2342 1.360 1_545 S
C2343 C2346 1.363 . S
N2344 C2346 1.356 . S
N2344 H2356 0.984 . S
N2344 H2357 0.985 . S
N2345 C2347 1.356 . S
N2345 H2350 0.984 . S
N2345 H2351 0.985 . S
C2346 C2340 1.379 . S
C2346 C2343 1.363 . S
C2346 N2344 1.356 . S
C2347 C2341 1.363 1_565 S
C2347 C2342 1.379 . S
C2347 N2345 1.356 . S
N2348 C2340 1.356 . S
N2348 H2354 0.984 . S
N2348 H2355 0.984 . S
N2349 C2342 1.358 . S
N2349 H2352 0.984 . S
N2349 H2353 0.985 . S
H2350 N2345 0.984 . S
H2351 N2345 0.985 . S
H2352 N2349 0.984 . S
H2353 N2349 0.985 . S
H2354 N2348 0.984 . S
H2355 N2348 0.984 . S
H2356 N2344 0.984 . S
H2357 N2344 0.985 . S
C2358 C2359 1.363 . S
C2358 C2364 1.379 . S
C2358 N2366 1.356 . S
C2359 C2358 1.363 . S
C2359 C2365 1.363 . S
C2360 C2361 1.363 . S
C2360 C2365 1.379 . S
C2360 N2367 1.356 . S
C2361 C2360 1.363 . S
C2361 C2364 1.363 . S
N2362 C2364 1.356 . S
N2362 H2374 0.984 . S
N2362 H2375 0.985 . S
N2363 C2365 1.356 . S
N2363 H2368 0.984 . S
N2363 H2369 0.985 . S
C2364 C2358 1.379 . S
C2364 C2361 1.363 . S
C2364 N2362 1.356 . S
C2365 C2359 1.363 . S
C2365 C2360 1.379 . S
C2365 N2363 1.356 . S
N2366 C2358 1.356 . S
N2366 H2372 0.984 . S
N2366 H2373 0.984 . S
N2367 C2360 1.356 . S
N2367 H2370 0.984 . S
N2367 H2371 0.985 . S
H2368 N2363 0.984 . S
H2369 N2363 0.985 . S
H2370 N2367 0.984 . S
H2371 N2367 0.985 . S
H2372 N2366 0.984 . S
H2373 N2366 0.984 . S
H2374 N2362 0.984 . S
H2375 N2362 0.985 . S
C2376 C2377 1.363 . S
C2376 C2382 1.379 . S
C2376 N2384 1.356 . S
C2377 C2376 1.363 . S
C2377 C2383 1.363 . S
C2378 C2379 1.363 . S
C2378 C2383 1.379 . S
C2378 N2385 1.356 . S
C2379 C2378 1.363 . S
C2379 C2382 1.363 . S
N2380 C2382 1.356 . S
N2380 H2392 0.984 1_554 S
N2380 H2393 0.985 . S
N2381 C2383 1.356 . S
N2381 H2386 0.984 . S
N2381 H2387 0.985 . S
C2382 C2376 1.379 . S
C2382 C2379 1.363 . S
C2382 N2380 1.356 . S
C2383 C2377 1.363 . S
C2383 C2378 1.379 . S
C2383 N2381 1.356 . S
N2384 C2376 1.356 . S
N2384 H2390 0.984 . S
N2384 H2391 0.984 . S
N2385 C2378 1.356 . S
N2385 H2388 0.984 . S
N2385 H2389 0.985 . S
H2386 N2381 0.984 . S
H2387 N2381 0.985 . S
H2388 N2385 0.984 . S
H2389 N2385 0.985 . S
H2390 N2384 0.984 . S
H2391 N2384 0.984 . S
H2392 N2380 0.984 1_556 S
H2393 N2380 0.985 . S
C2394 C2395 1.363 . S
C2394 C2400 1.379 . S
C2394 N2402 1.356 . S
C2395 C2394 1.363 . S
C2395 C2401 1.363 . S
C2396 C2397 1.363 . S
C2396 C2401 1.379 . S
C2396 N2403 1.356 . S
C2397 C2396 1.363 . S
C2397 C2400 1.363 . S
N2398 C2400 1.356 . S
N2398 H2410 0.984 . S
N2398 H2411 0.985 . S
N2399 C2401 1.356 . S
N2399 H2404 0.984 . S
N2399 H2405 0.985 1_554 S
C2400 C2394 1.379 . S
C2400 C2397 1.363 . S
C2400 N2398 1.356 . S
C2401 C2395 1.363 . S
C2401 C2396 1.379 . S
C2401 N2399 1.356 . S
N2402 C2394 1.356 . S
N2402 H2408 0.984 . S
N2402 H2409 0.984 . S
N2403 C2396 1.356 . S
N2403 H2406 0.984 . S
N2403 H2407 0.985 1_554 S
H2404 N2399 0.984 . S
H2405 N2399 0.985 1_556 S
H2406 N2403 0.984 . S
H2407 N2403 0.985 1_556 S
H2408 N2402 0.984 . S
H2409 N2402 0.984 . S
H2410 N2398 0.984 . S
H2411 N2398 0.985 . S
C2412 C2413 1.363 . S
C2412 C2418 1.379 . S
C2412 N2420 1.356 . S
C2413 C2412 1.363 . S
C2413 C2419 1.363 . S
C2414 C2415 1.363 . S
C2414 C2419 1.379 . S
C2414 N2421 1.356 . S
C2415 C2414 1.363 . S
C2415 C2418 1.363 . S
N2416 C2418 1.356 . S
N2416 H2428 0.984 . S
N2416 H2429 0.985 . S
N2417 C2419 1.356 . S
N2417 H2422 0.984 . S
N2417 H2423 0.985 . S
C2418 C2412 1.379 . S
C2418 C2415 1.363 . S
C2418 N2416 1.356 . S
C2419 C2413 1.363 . S
C2419 C2414 1.379 . S
C2419 N2417 1.356 . S
N2420 C2412 1.356 . S
N2420 H2426 0.984 . S
N2420 H2427 0.984 . S
N2421 C2414 1.356 . S
N2421 H2424 0.984 . S
N2421 H2425 0.985 . S
H2422 N2417 0.984 . S
H2423 N2417 0.985 . S
H2424 N2421 0.984 . S
H2425 N2421 0.985 . S
H2426 N2420 0.984 . S
H2427 N2420 0.984 . S
H2428 N2416 0.984 . S
H2429 N2416 0.985 . S
C2430 C2431 1.363 . S
C2430 C2436 1.379 . S
C2430 N2438 1.356 . S
C2431 C2430 1.363 . S
C2431 C2437 1.363 . S
C2432 C2433 1.363 . S
C2432 C2437 1.379 . S
C2432 N2439 1.356 . S
C2433 C2432 1.363 . S
C2433 C2436 1.363 . S
N2434 C2436 1.356 . S
N2434 H2446 0.984 . S
N2434 H2447 0.985 . S
N2435 C2437 1.356 . S
N2435 H2440 0.984 . S
N2435 H2441 0.985 . S
C2436 C2430 1.379 . S
C2436 C2433 1.363 . S
C2436 N2434 1.356 . S
C2437 C2431 1.363 . S
C2437 C2432 1.379 . S
C2437 N2435 1.356 . S
N2438 C2430 1.356 . S
N2438 H2444 0.984 . S
N2438 H2445 0.984 . S
N2439 C2432 1.356 . S
N2439 H2442 0.984 . S
N2439 H2443 0.985 . S
H2440 N2435 0.984 . S
H2441 N2435 0.985 . S
H2442 N2439 0.984 . S
H2443 N2439 0.985 . S
H2444 N2438 0.984 . S
H2445 N2438 0.984 . S
H2446 N2434 0.984 . S
H2447 N2434 0.985 . S
C2448 C2449 1.363 . S
C2448 C2454 1.379 1_545 S
C2448 N2456 1.356 . S
C2449 C2448 1.363 . S
C2449 C2455 1.363 1_545 S
C2450 C2451 1.363 . S
C2450 C2455 1.379 . S
C2450 N2457 1.356 . S
C2451 C2450 1.363 . S
C2451 C2454 1.363 . S
N2452 C2454 1.356 . S
N2452 H2464 0.984 1_565 S
N2452 H2465 0.985 . S
N2453 C2455 1.356 . S
N2453 H2458 0.984 . S
N2453 H2459 0.985 . S
C2454 C2448 1.379 1_565 S
C2454 C2451 1.363 . S
C2454 N2452 1.356 . S
C2455 C2449 1.363 1_565 S
C2455 C2450 1.379 . S
C2455 N2453 1.356 . S
N2456 C2448 1.356 . S
N2456 H2462 0.984 . S
N2456 H2463 0.984 . S
N2457 C2450 1.356 . S
N2457 H2460 0.984 . S
N2457 H2461 0.985 . S
H2458 N2453 0.984 . S
H2459 N2453 0.985 . S
H2460 N2457 0.984 . S
H2461 N2457 0.985 . S
H2462 N2456 0.984 . S
H2463 N2456 0.984 . S
H2464 N2452 0.984 1_545 S
H2465 N2452 0.985 . S
C2466 C2467 1.363 . S
C2466 C2472 1.379 . S
C2466 N2474 1.356 . S
C2467 C2466 1.363 . S
C2467 C2473 1.363 . S
C2468 C2469 1.363 . S
C2468 C2473 1.379 . S
C2468 N2475 1.356 . S
C2469 C2468 1.363 . S
C2469 C2472 1.363 . S
N2470 C2472 1.356 . S
N2470 H2482 0.984 . S
N2470 H2483 0.985 . S
N2471 C2473 1.356 . S
N2471 H2476 0.984 . S
N2471 H2477 0.985 . S
C2472 C2466 1.379 . S
C2472 C2469 1.363 . S
C2472 N2470 1.356 . S
C2473 C2467 1.363 . S
C2473 C2468 1.379 . S
C2473 N2471 1.356 . S
N2474 C2466 1.356 . S
N2474 H2480 0.984 . S
N2474 H2481 0.984 . S
N2475 C2468 1.356 . S
N2475 H2478 0.984 . S
N2475 H2479 0.985 . S
H2476 N2471 0.984 . S
H2477 N2471 0.985 . S
H2478 N2475 0.984 . S
H2479 N2475 0.985 . S
H2480 N2474 0.984 . S
H2481 N2474 0.984 . S
H2482 N2470 0.984 . S
H2483 N2470 0.985 . S
C2484 C2485 1.363 . S
C2484 C2490 1.379 . S
C2484 N2492 1.356 . S
C2485 C2484 1.363 . S
C2485 C2491 1.363 . S
C2486 C2487 1.363 . S
C2486 C2491 1.379 . S
C2486 N2493 1.356 . S
C2487 C2486 1.363 . S
C2487 C2490 1.363 . S
N2488 C2490 1.356 . S
N2488 H2500 0.984 . S
N2488 H2501 0.985 . S
N2489 C2491 1.356 . S
N2489 H2494 0.984 . S
N2489 H2495 0.985 . S
C2490 C2484 1.379 . S
C2490 C2487 1.363 . S
C2490 N2488 1.356 . S
C2491 C2485 1.363 . S
C2491 C2486 1.379 . S
C2491 N2489 1.356 . S
N2492 C2484 1.356 . S
N2492 H2498 0.984 . S
N2492 H2499 0.984 . S
N2493 C2486 1.356 . S
N2493 H2496 0.984 . S
N2493 H2497 0.985 . S
H2494 N2489 0.984 . S
H2495 N2489 0.985 . S
H2496 N2493 0.984 . S
H2497 N2493 0.985 . S
H2498 N2492 0.984 . S
H2499 N2492 0.984 . S
H2500 N2488 0.984 . S
H2501 N2488 0.985 . S
C2502 C2503 1.363 . S
C2502 C2508 1.379 . S
C2502 N2510 1.356 . S
C2503 C2502 1.363 . S
C2503 C2509 1.363 . S
C2504 C2505 1.363 . S
C2504 C2509 1.379 . S
C2504 N2511 1.356 . S
C2505 C2504 1.363 . S
C2505 C2508 1.363 . S
N2506 C2508 1.356 . S
N2506 H2518 0.984 . S
N2506 H2519 0.985 . S
N2507 C2509 1.356 . S
N2507 H2512 0.984 . S
N2507 H2513 0.985 . S
C2508 C2502 1.379 . S
C2508 C2505 1.363 . S
C2508 N2506 1.356 . S
C2509 C2503 1.363 . S
C2509 C2504 1.379 . S
C2509 N2507 1.356 . S
N2510 C2502 1.356 . S
N2510 H2516 0.984 . S
N2510 H2517 0.984 . S
N2511 C2504 1.356 . S
N2511 H2514 0.984 . S
N2511 H2515 0.985 . S
H2512 N2507 0.984 . S
H2513 N2507 0.985 . S
H2514 N2511 0.984 . S
H2515 N2511 0.985 . S
H2516 N2510 0.984 . S
H2517 N2510 0.984 . S
H2518 N2506 0.984 . S
H2519 N2506 0.985 . S
C2520 C2521 1.363 . S
C2520 C2526 1.379 . S
C2520 N2528 1.356 . S
C2521 C2520 1.363 . S
C2521 C2527 1.363 . S
C2522 C2523 1.363 . S
C2522 C2527 1.379 . S
C2522 N2529 1.356 . S
C2523 C2522 1.363 . S
C2523 C2526 1.363 . S
N2524 C2526 1.356 . S
N2524 H2536 0.984 . S
N2524 H2537 0.985 . S
N2525 C2527 1.356 . S
N2525 H2530 0.984 . S
N2525 H2531 0.985 . S
C2526 C2520 1.379 . S
C2526 C2523 1.363 . S
C2526 N2524 1.356 . S
C2527 C2521 1.363 . S
C2527 C2522 1.379 . S
C2527 N2525 1.356 . S
N2528 C2520 1.356 . S
N2528 H2534 0.984 . S
N2528 H2535 0.984 . S
N2529 C2522 1.356 . S
N2529 H2532 0.984 . S
N2529 H2533 0.985 . S
H2530 N2525 0.984 . S
H2531 N2525 0.985 . S
H2532 N2529 0.984 . S
H2533 N2529 0.985 . S
H2534 N2528 0.984 . S
H2535 N2528 0.984 . S
H2536 N2524 0.984 . S
H2537 N2524 0.985 . S
C2538 C2539 1.363 . S
C2538 C2544 1.379 . S
C2538 N2546 1.356 . S
C2539 C2538 1.363 . S
C2539 C2545 1.363 . S
C2540 C2541 1.363 . S
C2540 C2545 1.379 . S
C2540 N2547 1.356 . S
C2541 C2540 1.363 . S
C2541 C2544 1.363 . S
N2542 C2544 1.356 . S
N2542 H2554 0.984 . S
N2542 H2555 0.985 . S
N2543 C2545 1.356 . S
N2543 H2548 0.984 . S
N2543 H2549 0.985 . S
C2544 C2538 1.379 . S
C2544 C2541 1.363 . S
C2544 N2542 1.356 . S
C2545 C2539 1.363 . S
C2545 C2540 1.379 . S
C2545 N2543 1.356 . S
N2546 C2538 1.356 . S
N2546 H2552 0.984 . S
N2546 H2553 0.984 . S
N2547 C2540 1.356 . S
N2547 H2550 0.984 . S
N2547 H2551 0.985 . S
H2548 N2543 0.984 . S
H2549 N2543 0.985 . S
H2550 N2547 0.984 . S
H2551 N2547 0.985 . S
H2552 N2546 0.984 . S
H2553 N2546 0.984 . S
H2554 N2542 0.984 . S
H2555 N2542 0.985 . S
C2556 C2557 1.363 . S
C2556 C2562 1.379 . S
C2556 N2564 1.356 . S
C2557 C2556 1.363 . S
C2557 C2563 1.363 1_455 S
C2558 C2559 1.363 1_655 S
C2558 C2563 1.379 . S
C2558 N2565 1.356 . S
C2559 C2558 1.363 1_455 S
C2559 C2562 1.363 . S
N2560 C2562 1.356 . S
N2560 H2572 0.984 . S
N2560 H2573 0.985 . S
N2561 C2563 1.356 . S
N2561 H2566 0.984 . S
N2561 H2567 0.985 . S
C2562 C2556 1.379 . S
C2562 C2559 1.363 . S
C2562 N2560 1.356 . S
C2563 C2557 1.363 1_655 S
C2563 C2558 1.379 . S
C2563 N2561 1.356 . S
N2564 C2556 1.356 . S
N2564 H2570 0.984 . S
N2564 H2571 0.984 1_554 S
N2565 C2558 1.356 . S
N2565 H2568 0.984 . S
N2565 H2569 0.985 . S
H2566 N2561 0.984 . S
H2567 N2561 0.985 . S
H2568 N2565 0.984 . S
H2569 N2565 0.985 . S
H2570 N2564 0.984 . S
H2571 N2564 0.984 1_556 S
H2572 N2560 0.984 . S
H2573 N2560 0.985 . S
C2574 C2575 1.364 1_455 S
C2574 C2580 1.379 1_455 S
C2574 N2582 1.356 . S
C2575 C2574 1.364 1_655 S
C2575 C2581 1.371 . S
C2576 C2577 1.363 . S
C2576 C2581 1.379 . S
C2576 N2583 1.356 . S
C2577 C2576 1.363 . S
C2577 C2580 1.363 . S
N2578 C2580 1.356 . S
N2578 H2590 0.984 1_655 S
N2578 H2591 0.985 . S
N2579 C2581 1.356 . S
N2579 H2584 0.984 . S
N2579 H2585 0.985 . S
C2580 C2574 1.379 1_655 S
C2580 C2577 1.363 . S
C2580 N2578 1.356 . S
C2581 C2575 1.371 . S
C2581 C2576 1.379 . S
C2581 N2579 1.356 . S
N2582 C2574 1.356 . S
N2582 H2588 0.984 . S
N2582 H2589 0.984 . S
N2583 C2576 1.356 . S
N2583 H2586 0.984 . S
N2583 H2587 0.985 . S
H2584 N2579 0.984 . S
H2585 N2579 0.985 . S
H2586 N2583 0.984 . S
H2587 N2583 0.985 . S
H2588 N2582 0.984 . S
H2589 N2582 0.984 . S
H2590 N2578 0.984 1_455 S
H2591 N2578 0.985 . S
C2592 C2593 1.363 . S
C2592 C2598 1.379 . S
C2592 N2600 1.356 . S
C2593 C2592 1.363 . S
C2593 C2599 1.363 . S
C2594 C2595 1.363 . S
C2594 C2599 1.379 . S
C2594 N2601 1.356 . S
C2595 C2594 1.363 . S
C2595 C2598 1.363 . S
N2596 C2598 1.356 . S
N2596 H2608 0.984 . S
N2596 H2609 0.985 . S
N2597 C2599 1.356 . S
N2597 H2602 0.984 . S
N2597 H2603 0.985 . S
C2598 C2592 1.379 . S
C2598 C2595 1.363 . S
C2598 N2596 1.356 . S
C2599 C2593 1.363 . S
C2599 C2594 1.379 . S
C2599 N2597 1.356 . S
N2600 C2592 1.356 . S
N2600 H2606 0.984 . S
N2600 H2607 0.984 . S
N2601 C2594 1.356 . S
N2601 H2604 0.984 . S
N2601 H2605 0.985 . S
H2602 N2597 0.984 . S
H2603 N2597 0.985 . S
H2604 N2601 0.984 . S
H2605 N2601 0.985 . S
H2606 N2600 0.984 . S
H2607 N2600 0.984 . S
H2608 N2596 0.984 . S
H2609 N2596 0.985 . S
C2610 C2611 1.363 . S
C2610 C2616 1.379 . S
C2610 N2618 1.356 . S
C2611 C2610 1.363 . S
C2611 C2617 1.363 . S
C2612 C2613 1.363 . S
C2612 C2617 1.379 . S
C2612 N2619 1.356 . S
C2613 C2612 1.363 . S
C2613 C2616 1.363 . S
N2614 C2616 1.356 . S
N2614 H2626 0.984 . S
N2614 H2627 0.985 . S
N2615 C2617 1.356 . S
N2615 H2620 0.984 . S
N2615 H2621 0.985 . S
C2616 C2610 1.379 . S
C2616 C2613 1.363 . S
C2616 N2614 1.356 . S
C2617 C2611 1.363 . S
C2617 C2612 1.379 . S
C2617 N2615 1.356 . S
N2618 C2610 1.356 . S
N2618 H2624 0.984 . S
N2618 H2625 0.984 . S
N2619 C2612 1.356 . S
N2619 H2622 0.984 . S
N2619 H2623 0.985 . S
H2620 N2615 0.984 . S
H2621 N2615 0.985 . S
H2622 N2619 0.984 . S
H2623 N2619 0.985 . S
H2624 N2618 0.984 . S
H2625 N2618 0.984 . S
H2626 N2614 0.984 . S
H2627 N2614 0.985 . S
C2628 C2629 1.363 1_655 S
C2628 C2634 1.379 . S
C2628 N2636 1.356 . S
C2629 C2628 1.363 1_455 S
C2629 C2635 1.363 . S
C2630 C2631 1.363 . S
C2630 C2635 1.379 . S
C2630 N2637 1.356 . S
C2631 C2630 1.363 . S
C2631 C2634 1.363 1_455 S
N2632 C2634 1.356 . S
N2632 H2644 0.984 . S
N2632 H2645 0.985 . S
N2633 C2635 1.356 . S
N2633 H2638 0.984 . S
N2633 H2639 0.985 . S
C2634 C2628 1.379 . S
C2634 C2631 1.363 1_655 S
C2634 N2632 1.356 . S
C2635 C2629 1.363 . S
C2635 C2630 1.379 . S
C2635 N2633 1.356 . S
N2636 C2628 1.356 . S
N2636 H2642 0.984 . S
N2636 H2643 0.984 . S
N2637 C2630 1.356 . S
N2637 H2640 0.984 . S
N2637 H2641 0.985 . S
H2638 N2633 0.984 . S
H2639 N2633 0.985 . S
H2640 N2637 0.984 . S
H2641 N2637 0.985 . S
H2642 N2636 0.984 . S
H2643 N2636 0.984 . S
H2644 N2632 0.984 . S
H2645 N2632 0.985 . S
C2646 C2647 1.363 . S
C2646 C2652 1.379 . S
C2646 N2654 1.356 . S
C2647 C2646 1.363 . S
C2647 C2653 1.363 . S
C2648 C2649 1.363 . S
C2648 C2653 1.379 . S
C2648 N2655 1.356 . S
C2649 C2648 1.363 . S
C2649 C2652 1.363 . S
N2650 C2652 1.356 . S
N2650 H2662 0.984 . S
N2650 H2663 0.985 . S
N2651 C2653 1.356 . S
N2651 H2656 0.984 . S
N2651 H2657 0.985 . S
C2652 C2646 1.379 . S
C2652 C2649 1.363 . S
C2652 N2650 1.356 . S
C2653 C2647 1.363 . S
C2653 C2648 1.379 . S
C2653 N2651 1.356 . S
N2654 C2646 1.356 . S
N2654 H2660 0.984 . S
N2654 H2661 0.984 . S
N2655 C2648 1.356 . S
N2655 H2658 0.984 . S
N2655 H2659 0.985 . S
H2656 N2651 0.984 . S
H2657 N2651 0.985 . S
H2658 N2655 0.984 . S
H2659 N2655 0.985 . S
H2660 N2654 0.984 . S
H2661 N2654 0.984 . S
H2662 N2650 0.984 . S
H2663 N2650 0.985 . S
C2664 C2665 1.363 . S
C2664 C2670 1.379 . S
C2664 N2672 1.356 . S
C2665 C2664 1.363 . S
C2665 C2671 1.363 . S
C2666 C2667 1.363 . S
C2666 C2671 1.379 . S
C2666 N2673 1.356 . S
C2667 C2666 1.363 . S
C2667 C2670 1.363 . S
N2668 C2670 1.356 . S
N2668 H2680 0.984 . S
N2668 H2681 0.985 . S
N2669 C2671 1.356 . S
N2669 H2674 0.984 . S
N2669 H2675 0.985 . S
C2670 C2664 1.379 . S
C2670 C2667 1.363 . S
C2670 N2668 1.356 . S
C2671 C2665 1.363 . S
C2671 C2666 1.379 . S
C2671 N2669 1.356 . S
N2672 C2664 1.356 . S
N2672 H2678 0.984 . S
N2672 H2679 0.984 . S
N2673 C2666 1.356 . S
N2673 H2676 0.984 . S
N2673 H2677 0.985 . S
H2674 N2669 0.984 . S
H2675 N2669 0.985 . S
H2676 N2673 0.984 . S
H2677 N2673 0.985 . S
H2678 N2672 0.984 . S
H2679 N2672 0.984 . S
H2680 N2668 0.984 . S
H2681 N2668 0.985 . S
C2682 C2683 1.363 1_556 S
C2682 C2688 1.379 . S
C2682 N2690 1.356 . S
C2683 C2682 1.363 1_554 S
C2683 C2689 1.363 . S
C2684 C2685 1.363 1_554 S
C2684 C2689 1.379 . S
C2684 N2691 1.356 . S
C2685 C2684 1.363 1_556 S
C2685 C2688 1.363 . S
N2686 C2688 1.356 . S
N2686 H2698 0.984 . S
N2686 H2699 0.985 . S
N2687 C2689 1.356 . S
N2687 H2692 0.984 . S
N2687 H2693 0.985 . S
C2688 C2682 1.379 . S
C2688 C2685 1.363 . S
C2688 N2686 1.356 . S
C2689 C2683 1.363 . S
C2689 C2684 1.379 . S
C2689 N2687 1.356 . S
N2690 C2682 1.356 . S
N2690 H2696 0.984 . S
N2690 H2697 0.984 . S
N2691 C2684 1.356 . S
N2691 H2694 0.984 1_554 S
N2691 H2695 0.985 . S
H2692 N2687 0.984 . S
H2693 N2687 0.985 . S
H2694 N2691 0.984 1_556 S
H2695 N2691 0.985 . S
H2696 N2690 0.984 . S
H2697 N2690 0.984 . S
H2698 N2686 0.984 . S
H2699 N2686 0.985 . S
C2700 C2701 1.363 . S
C2700 C2706 1.379 . S
C2700 N2708 1.356 . S
C2701 C2700 1.363 . S
C2701 C2707 1.363 . S
C2702 C2703 1.363 . S
C2702 C2707 1.379 . S
C2702 N2709 1.356 . S
C2703 C2702 1.363 . S
C2703 C2706 1.363 . S
N2704 C2706 1.356 . S
N2704 H2716 0.984 . S
N2704 H2717 0.985 . S
N2705 C2707 1.356 . S
N2705 H2710 0.984 . S
N2705 H2711 0.985 . S
C2706 C2700 1.379 . S
C2706 C2703 1.363 . S
C2706 N2704 1.356 . S
C2707 C2701 1.363 . S
C2707 C2702 1.379 . S
C2707 N2705 1.356 . S
N2708 C2700 1.356 . S
N2708 H2714 0.984 . S
N2708 H2715 0.984 . S
N2709 C2702 1.356 . S
N2709 H2712 0.984 . S
N2709 H2713 0.985 . S
H2710 N2705 0.984 . S
H2711 N2705 0.985 . S
H2712 N2709 0.984 . S
H2713 N2709 0.985 . S
H2714 N2708 0.984 . S
H2715 N2708 0.984 . S
H2716 N2704 0.984 . S
H2717 N2704 0.985 . S
C2718 C2719 1.363 . S
C2718 C2724 1.379 . S
C2718 N2726 1.356 . S
C2719 C2718 1.363 . S
C2719 C2725 1.363 . S
C2720 C2721 1.363 . S
C2720 C2725 1.379 . S
C2720 N2727 1.356 . S
C2721 C2720 1.363 . S
C2721 C2724 1.363 . S
N2722 C2724 1.356 . S
N2722 H2734 0.984 . S
N2722 H2735 0.985 . S
N2723 C2725 1.356 . S
N2723 H2728 0.984 . S
N2723 H2729 0.985 . S
C2724 C2718 1.379 . S
C2724 C2721 1.363 . S
C2724 N2722 1.356 . S
C2725 C2719 1.363 . S
C2725 C2720 1.379 . S
C2725 N2723 1.356 . S
N2726 C2718 1.356 . S
N2726 H2732 0.984 . S
N2726 H2733 0.984 . S
N2727 C2720 1.356 . S
N2727 H2730 0.984 . S
N2727 H2731 0.985 . S
H2728 N2723 0.984 . S
H2729 N2723 0.985 . S
H2730 N2727 0.984 . S
H2731 N2727 0.985 . S
H2732 N2726 0.984 . S
H2733 N2726 0.984 . S
H2734 N2722 0.984 . S
H2735 N2722 0.985 . S
C2736 C2737 1.363 . S
C2736 C2742 1.379 . S
C2736 N2744 1.356 . S
C2737 C2736 1.363 . S
C2737 C2743 1.363 . S
C2738 C2739 1.363 . S
C2738 C2743 1.379 . S
C2738 N2745 1.356 . S
C2739 C2738 1.363 . S
C2739 C2742 1.363 . S
N2740 C2742 1.356 . S
N2740 H2752 0.984 . S
N2740 H2753 0.985 . S
N2741 C2743 1.356 . S
N2741 H2746 0.984 . S
N2741 H2747 0.985 . S
C2742 C2736 1.379 . S
C2742 C2739 1.363 . S
C2742 N2740 1.356 . S
C2743 C2737 1.363 . S
C2743 C2738 1.379 . S
C2743 N2741 1.356 . S
N2744 C2736 1.356 . S
N2744 H2750 0.984 . S
N2744 H2751 0.984 . S
N2745 C2738 1.356 . S
N2745 H2748 0.984 . S
N2745 H2749 0.985 . S
H2746 N2741 0.984 . S
H2747 N2741 0.985 . S
H2748 N2745 0.984 . S
H2749 N2745 0.985 . S
H2750 N2744 0.984 . S
H2751 N2744 0.984 . S
H2752 N2740 0.984 . S
H2753 N2740 0.985 . S
C2754 C2755 1.363 . S
C2754 C2760 1.379 . S
C2754 N2762 1.356 . S
C2755 C2754 1.363 . S
C2755 C2761 1.363 . S
C2756 C2757 1.363 . S
C2756 C2761 1.379 . S
C2756 N2763 1.356 . S
C2757 C2756 1.363 . S
C2757 C2760 1.363 . S
N2758 C2760 1.356 . S
N2758 H2770 0.984 . S
N2758 H2771 0.985 . S
N2759 C2761 1.356 . S
N2759 H2764 0.984 . S
N2759 H2765 0.985 . S
C2760 C2754 1.379 . S
C2760 C2757 1.363 . S
C2760 N2758 1.356 . S
C2761 C2755 1.363 . S
C2761 C2756 1.379 . S
C2761 N2759 1.356 . S
N2762 C2754 1.356 . S
N2762 H2768 0.984 . S
N2762 H2769 0.984 . S
N2763 C2756 1.356 . S
N2763 H2766 0.984 . S
N2763 H2767 0.985 . S
H2764 N2759 0.984 . S
H2765 N2759 0.985 . S
H2766 N2763 0.984 . S
H2767 N2763 0.985 . S
H2768 N2762 0.984 . S
H2769 N2762 0.984 . S
H2770 N2758 0.984 . S
H2771 N2758 0.985 . S
C2772 C2773 1.363 . S
C2772 C2778 1.379 . S
C2772 N2780 1.356 . S
C2773 C2772 1.363 . S
C2773 C2779 1.363 . S
C2774 C2775 1.363 . S
C2774 C2779 1.379 . S
C2774 N2781 1.356 . S
C2775 C2774 1.363 . S
C2775 C2778 1.363 . S
N2776 C2778 1.356 . S
N2776 H2788 0.984 . S
N2776 H2789 0.985 . S
N2777 C2779 1.356 . S
N2777 H2782 0.984 . S
N2777 H2783 0.985 . S
C2778 C2772 1.379 . S
C2778 C2775 1.363 . S
C2778 N2776 1.356 . S
C2779 C2773 1.363 . S
C2779 C2774 1.379 . S
C2779 N2777 1.356 . S
N2780 C2772 1.356 . S
N2780 H2786 0.984 . S
N2780 H2787 0.984 . S
N2781 C2774 1.356 . S
N2781 H2784 0.984 . S
N2781 H2785 0.985 . S
H2782 N2777 0.984 . S
H2783 N2777 0.985 . S
H2784 N2781 0.984 . S
H2785 N2781 0.985 . S
H2786 N2780 0.984 . S
H2787 N2780 0.984 . S
H2788 N2776 0.984 . S
H2789 N2776 0.985 . S
C2790 C2791 1.363 . S
C2790 C2796 1.379 . S
C2790 N2798 1.356 . S
C2791 C2790 1.363 . S
C2791 C2797 1.363 . S
C2792 C2793 1.363 . S
C2792 C2797 1.379 . S
C2792 N2799 1.356 . S
C2793 C2792 1.363 . S
C2793 C2796 1.363 . S
N2794 C2796 1.356 . S
N2794 H2806 0.984 . S
N2794 H2807 0.985 . S
N2795 C2797 1.356 . S
N2795 H2800 0.984 . S
N2795 H2801 0.985 . S
C2796 C2790 1.379 . S
C2796 C2793 1.363 . S
C2796 N2794 1.356 . S
C2797 C2791 1.363 . S
C2797 C2792 1.379 . S
C2797 N2795 1.356 . S
N2798 C2790 1.356 . S
N2798 H2804 0.984 . S
N2798 H2805 0.984 . S
N2799 C2792 1.356 . S
N2799 H2802 0.984 . S
N2799 H2803 0.985 . S
H2800 N2795 0.984 . S
H2801 N2795 0.985 . S
H2802 N2799 0.984 . S
H2803 N2799 0.985 . S
H2804 N2798 0.984 . S
H2805 N2798 0.984 . S
H2806 N2794 0.984 . S
H2807 N2794 0.985 . S
C2808 C2809 1.363 . S
C2808 C2814 1.379 . S
C2808 N2816 1.356 . S
C2809 C2808 1.363 . S
C2809 C2815 1.363 . S
C2810 C2811 1.363 . S
C2810 C2815 1.379 . S
C2810 N2817 1.356 . S
C2811 C2810 1.363 . S
C2811 C2814 1.363 . S
N2812 C2814 1.356 . S
N2812 H2824 0.984 . S
N2812 H2825 0.985 . S
N2813 C2815 1.356 . S
N2813 H2818 0.984 . S
N2813 H2819 0.985 . S
C2814 C2808 1.379 . S
C2814 C2811 1.363 . S
C2814 N2812 1.356 . S
C2815 C2809 1.363 . S
C2815 C2810 1.379 . S
C2815 N2813 1.356 . S
N2816 C2808 1.356 . S
N2816 H2822 0.984 . S
N2816 H2823 0.984 . S
N2817 C2810 1.356 . S
N2817 H2820 0.984 . S
N2817 H2821 0.985 . S
H2818 N2813 0.984 . S
H2819 N2813 0.985 . S
H2820 N2817 0.984 . S
H2821 N2817 0.985 . S
H2822 N2816 0.984 . S
H2823 N2816 0.984 . S
H2824 N2812 0.984 . S
H2825 N2812 0.985 . S
C2826 C2827 1.363 . S
C2826 C2832 1.379 . S
C2826 N2834 1.356 . S
C2827 C2826 1.363 . S
C2827 C2833 1.363 . S
C2828 C2829 1.363 . S
C2828 C2833 1.379 . S
C2828 N2835 1.356 . S
C2829 C2828 1.363 . S
C2829 C2832 1.363 . S
N2830 C2832 1.356 . S
N2830 H2842 0.984 . S
N2830 H2843 0.985 . S
N2831 C2833 1.356 . S
N2831 H2836 0.984 . S
N2831 H2837 0.985 . S
C2832 C2826 1.379 . S
C2832 C2829 1.363 . S
C2832 N2830 1.356 . S
C2833 C2827 1.363 . S
C2833 C2828 1.379 . S
C2833 N2831 1.356 . S
N2834 C2826 1.356 . S
N2834 H2840 0.984 . S
N2834 H2841 0.984 . S
N2835 C2828 1.356 . S
N2835 H2838 0.984 . S
N2835 H2839 0.985 . S
H2836 N2831 0.984 . S
H2837 N2831 0.985 . S
H2838 N2835 0.984 . S
H2839 N2835 0.985 . S
H2840 N2834 0.984 . S
H2841 N2834 0.984 . S
H2842 N2830 0.984 . S
H2843 N2830 0.985 . S
C2844 C2845 1.363 . S
C2844 C2850 1.379 . S
C2844 N2852 1.356 . S
C2845 C2844 1.363 . S
C2845 C2851 1.363 . S
C2846 C2847 1.363 . S
C2846 C2851 1.379 . S
C2846 N2853 1.356 . S
C2847 C2846 1.363 . S
C2847 C2850 1.363 . S
N2848 C2850 1.356 . S
N2848 H2860 0.984 . S
N2848 H2861 0.985 . S
N2849 C2851 1.356 1_545 S
N2849 H2854 0.984 . S
N2849 H2855 0.985 . S
C2850 C2844 1.379 . S
C2850 C2847 1.363 . S
C2850 N2848 1.356 . S
C2851 C2845 1.363 . S
C2851 C2846 1.379 . S
C2851 N2849 1.356 1_565 S
N2852 C2844 1.356 . S
N2852 H2858 0.984 . S
N2852 H2859 0.984 . S
N2853 C2846 1.356 . S
N2853 H2856 0.984 . S
N2853 H2857 0.985 . S
H2854 N2849 0.984 . S
H2855 N2849 0.985 . S
H2856 N2853 0.984 . S
H2857 N2853 0.985 . S
H2858 N2852 0.984 . S
H2859 N2852 0.984 . S
H2860 N2848 0.984 . S
H2861 N2848 0.985 . S
C2862 C2863 1.363 1_556 S
C2862 C2868 1.379 1_565 S
C2862 N2870 1.356 . S
C2863 C2862 1.363 1_554 S
C2863 C2869 1.363 1_565 S
C2864 C2865 1.363 . S
C2864 C2869 1.379 . S
C2864 N2871 1.356 . S
C2865 C2864 1.363 . S
C2865 C2868 1.363 1_554 S
N2866 C2868 1.356 . S
N2866 H2878 0.990 . S
N2866 H2879 0.985 . S
N2867 C2869 1.356 1_565 S
N2867 H2872 0.984 . S
N2867 H2873 0.985 1_565 S
C2868 C2862 1.379 1_545 S
C2868 C2865 1.363 1_556 S
C2868 N2866 1.356 . S
C2869 C2863 1.363 1_545 S
C2869 C2864 1.379 . S
C2869 N2867 1.356 1_545 S
N2870 C2862 1.356 . S
N2870 H2876 0.984 . S
N2870 H2877 0.984 . S
N2871 C2864 1.356 . S
N2871 H2874 0.984 . S
N2871 H2875 0.985 . S
H2872 N2867 0.984 . S
H2873 N2867 0.985 1_545 S
H2874 N2871 0.984 . S
H2875 N2871 0.985 . S
H2876 N2870 0.984 . S
H2877 N2870 0.984 . S
H2878 N2866 0.990 . S
H2879 N2866 0.985 . S
C2880 C2881 1.363 . S
C2880 C2886 1.379 . S
C2880 N2888 1.356 . S
C2881 C2880 1.363 . S
C2881 C2887 1.363 . S
C2882 C2883 1.363 . S
C2882 C2887 1.379 . S
C2882 N2889 1.356 . S
C2883 C2882 1.363 . S
C2883 C2886 1.363 . S
N2884 C2886 1.356 . S
N2884 H2896 0.984 . S
N2884 H2897 0.985 . S
N2885 C2887 1.356 . S
N2885 H2890 0.984 . S
N2885 H2891 0.985 . S
C2886 C2880 1.379 . S
C2886 C2883 1.363 . S
C2886 N2884 1.356 . S
C2887 C2881 1.363 . S
C2887 C2882 1.379 . S
C2887 N2885 1.356 . S
N2888 C2880 1.356 . S
N2888 H2894 0.984 . S
N2888 H2895 0.984 . S
N2889 C2882 1.356 . S
N2889 H2892 0.984 . S
N2889 H2893 0.985 . S
H2890 N2885 0.984 . S
H2891 N2885 0.985 . S
H2892 N2889 0.984 . S
H2893 N2889 0.985 . S
H2894 N2888 0.984 . S
H2895 N2888 0.984 . S
H2896 N2884 0.984 . S
H2897 N2884 0.985 . S
C2898 C2899 1.363 . S
C2898 C2904 1.379 . S
C2898 N2906 1.356 . S
C2899 C2898 1.363 . S
C2899 C2905 1.363 . S
C2900 C2901 1.363 . S
C2900 C2905 1.379 . S
C2900 N2907 1.356 . S
C2901 C2900 1.363 . S
C2901 C2904 1.363 . S
N2902 C2904 1.356 . S
N2902 H2914 0.984 . S
N2902 H2915 0.985 . S
N2903 C2905 1.356 . S
N2903 H2908 0.984 . S
N2903 H2909 0.985 . S
C2904 C2898 1.379 . S
C2904 C2901 1.363 . S
C2904 N2902 1.356 . S
C2905 C2899 1.363 . S
C2905 C2900 1.379 . S
C2905 N2903 1.356 . S
N2906 C2898 1.356 . S
N2906 H2912 0.984 1_554 S
N2906 H2913 0.984 . S
N2907 C2900 1.356 . S
N2907 H2910 0.984 . S
N2907 H2911 0.985 . S
H2908 N2903 0.984 . S
H2909 N2903 0.985 . S
H2910 N2907 0.984 . S
H2911 N2907 0.985 . S
H2912 N2906 0.984 1_556 S
H2913 N2906 0.984 . S
H2914 N2902 0.984 . S
H2915 N2902 0.985 . S
C2916 C2917 1.363 . S
C2916 C2922 1.379 . S
C2916 N2924 1.356 . S
C2917 C2916 1.363 . S
C2917 C2923 1.363 . S
C2918 C2919 1.363 . S
C2918 C2923 1.379 . S
C2918 N2925 1.356 . S
C2919 C2918 1.363 . S
C2919 C2922 1.363 . S
N2920 C2922 1.356 . S
N2920 H2932 0.984 . S
N2920 H2933 0.985 . S
N2921 C2923 1.356 . S
N2921 H2926 0.984 . S
N2921 H2927 0.985 . S
C2922 C2916 1.379 . S
C2922 C2919 1.363 . S
C2922 N2920 1.356 . S
C2923 C2917 1.363 . S
C2923 C2918 1.379 . S
C2923 N2921 1.356 . S
N2924 C2916 1.356 . S
N2924 H2930 0.984 . S
N2924 H2931 0.984 . S
N2925 C2918 1.356 . S
N2925 H2928 0.984 . S
N2925 H2929 0.985 . S
H2926 N2921 0.984 . S
H2927 N2921 0.985 . S
H2928 N2925 0.984 . S
H2929 N2925 0.985 . S
H2930 N2924 0.984 . S
H2931 N2924 0.984 . S
H2932 N2920 0.984 . S
H2933 N2920 0.985 . S
C2934 C2935 1.363 . S
C2934 C2940 1.379 . S
C2934 N2942 1.356 . S
C2935 C2934 1.363 . S
C2935 C2941 1.363 . S
C2936 C2937 1.363 . S
C2936 C2941 1.379 . S
C2936 N2943 1.356 . S
C2937 C2936 1.363 . S
C2937 C2940 1.363 . S
N2938 C2940 1.356 . S
N2938 H2950 0.984 . S
N2938 H2951 0.985 . S
N2939 C2941 1.356 . S
N2939 H2944 0.984 . S
N2939 H2945 0.985 . S
C2940 C2934 1.379 . S
C2940 C2937 1.363 . S
C2940 N2938 1.356 . S
C2941 C2935 1.363 . S
C2941 C2936 1.379 . S
C2941 N2939 1.356 . S
N2942 C2934 1.356 . S
N2942 H2948 0.984 . S
N2942 H2949 0.984 . S
N2943 C2936 1.356 . S
N2943 H2946 0.984 . S
N2943 H2947 0.985 . S
H2944 N2939 0.984 . S
H2945 N2939 0.985 . S
H2946 N2943 0.984 . S
H2947 N2943 0.985 . S
H2948 N2942 0.984 . S
H2949 N2942 0.984 . S
H2950 N2938 0.984 . S
H2951 N2938 0.985 . S
C2952 C2953 1.363 . S
C2952 C2958 1.379 . S
C2952 N2960 1.356 . S
C2953 C2952 1.363 . S
C2953 C2959 1.363 . S
C2954 C2955 1.363 . S
C2954 C2959 1.379 . S
C2954 N2961 1.356 . S
C2955 C2954 1.363 . S
C2955 C2958 1.363 . S
N2956 C2958 1.356 . S
N2956 H2968 0.984 . S
N2956 H2969 0.985 . S
N2957 C2959 1.356 . S
N2957 H2962 0.984 . S
N2957 H2963 0.985 . S
C2958 C2952 1.379 . S
C2958 C2955 1.363 . S
C2958 N2956 1.356 . S
C2959 C2953 1.363 . S
C2959 C2954 1.379 . S
C2959 N2957 1.356 . S
N2960 C2952 1.356 . S
N2960 H2966 0.984 . S
N2960 H2967 0.984 . S
N2961 C2954 1.356 . S
N2961 H2964 0.984 . S
N2961 H2965 0.985 . S
H2962 N2957 0.984 . S
H2963 N2957 0.985 . S
H2964 N2961 0.984 . S
H2965 N2961 0.985 . S
H2966 N2960 0.984 . S
H2967 N2960 0.984 . S
H2968 N2956 0.984 . S
H2969 N2956 0.985 . S
C2970 C2971 1.363 . S
C2970 C2976 1.379 . S
C2970 N2978 1.356 . S
C2971 C2970 1.363 . S
C2971 C2977 1.363 . S
C2972 C2973 1.363 . S
C2972 C2977 1.379 . S
C2972 N2979 1.356 . S
C2973 C2972 1.363 . S
C2973 C2976 1.363 . S
N2974 C2976 1.356 . S
N2974 H2986 0.984 . S
N2974 H2987 0.985 . S
N2975 C2977 1.356 . S
N2975 H2980 0.984 . S
N2975 H2981 0.985 . S
C2976 C2970 1.379 . S
C2976 C2973 1.363 . S
C2976 N2974 1.356 . S
C2977 C2971 1.363 . S
C2977 C2972 1.379 . S
C2977 N2975 1.356 . S
N2978 C2970 1.356 . S
N2978 H2984 0.984 . S
N2978 H2985 0.984 . S
N2979 C2972 1.356 . S
N2979 H2982 0.984 . S
N2979 H2983 0.985 . S
H2980 N2975 0.984 . S
H2981 N2975 0.985 . S
H2982 N2979 0.984 . S
H2983 N2979 0.985 . S
H2984 N2978 0.984 . S
H2985 N2978 0.984 . S
H2986 N2974 0.984 . S
H2987 N2974 0.985 . S
C2988 C2989 1.363 . S
C2988 C2994 1.379 . S
C2988 N2996 1.356 . S
C2989 C2988 1.363 . S
C2989 C2995 1.363 . S
C2990 C2991 1.363 . S
C2990 C2995 1.379 . S
C2990 N2997 1.356 . S
C2991 C2990 1.363 . S
C2991 C2994 1.363 . S
N2992 C2994 1.356 . S
N2992 H3004 0.984 . S
N2992 H3005 0.985 . S
N2993 C2995 1.356 . S
N2993 H2998 0.984 . S
N2993 H2999 0.985 . S
C2994 C2988 1.379 . S
C2994 C2991 1.363 . S
C2994 N2992 1.356 . S
C2995 C2989 1.363 . S
C2995 C2990 1.379 . S
C2995 N2993 1.356 . S
N2996 C2988 1.356 . S
N2996 H3002 0.984 . S
N2996 H3003 0.984 . S
N2997 C2990 1.356 . S
N2997 H3000 0.984 . S
N2997 H3001 0.985 . S
H2998 N2993 0.984 . S
H2999 N2993 0.985 . S
H3000 N2997 0.984 . S
H3001 N2997 0.985 . S
H3002 N2996 0.984 . S
H3003 N2996 0.984 . S
H3004 N2992 0.984 . S
H3005 N2992 0.985 . S
C3006 C3007 1.363 . S
C3006 C3012 1.379 . S
C3006 N3014 1.356 . S
C3007 C3006 1.363 . S
C3007 C3013 1.363 . S
C3008 C3009 1.363 . S
C3008 C3013 1.379 . S
C3008 N3015 1.356 . S
C3009 C3008 1.363 . S
C3009 C3012 1.363 . S
N3010 C3012 1.356 . S
N3010 H3022 0.984 . S
N3010 H3023 0.985 . S
N3011 C3013 1.356 . S
N3011 H3016 0.984 . S
N3011 H3017 0.985 . S
C3012 C3006 1.379 . S
C3012 C3009 1.363 . S
C3012 N3010 1.356 . S
C3013 C3007 1.363 . S
C3013 C3008 1.379 . S
C3013 N3011 1.356 . S
N3014 C3006 1.356 . S
N3014 H3020 0.984 . S
N3014 H3021 0.984 . S
N3015 C3008 1.356 . S
N3015 H3018 0.984 . S
N3015 H3019 0.985 . S
H3016 N3011 0.984 . S
H3017 N3011 0.985 . S
H3018 N3015 0.984 . S
H3019 N3015 0.985 . S
H3020 N3014 0.984 . S
H3021 N3014 0.984 . S
H3022 N3010 0.984 . S
H3023 N3010 0.985 . S
C3024 C3025 1.363 . S
C3024 C3030 1.379 . S
C3024 N3032 1.356 . S
C3025 C3024 1.363 . S
C3025 C3031 1.363 . S
C3026 C3027 1.363 . S
C3026 C3031 1.379 . S
C3026 N3033 1.356 . S
C3027 C3026 1.363 . S
C3027 C3030 1.363 . S
N3028 C3030 1.356 . S
N3028 H3040 0.984 . S
N3028 H3041 0.985 . S
N3029 C3031 1.356 . S
N3029 H3034 0.984 . S
N3029 H3035 0.985 . S
C3030 C3024 1.379 . S
C3030 C3027 1.363 . S
C3030 N3028 1.356 . S
C3031 C3025 1.363 . S
C3031 C3026 1.379 . S
C3031 N3029 1.356 . S
N3032 C3024 1.356 . S
N3032 H3038 0.984 . S
N3032 H3039 0.984 . S
N3033 C3026 1.356 . S
N3033 H3036 0.984 . S
N3033 H3037 0.979 1_556 S
H3034 N3029 0.984 . S
H3035 N3029 0.985 . S
H3036 N3033 0.984 . S
H3037 N3033 0.979 1_554 S
H3038 N3032 0.984 . S
H3039 N3032 0.984 . S
H3040 N3028 0.984 . S
H3041 N3028 0.985 . S
C3042 C3043 1.363 . S
C3042 C3048 1.379 . S
C3042 N3050 1.356 . S
C3043 C3042 1.363 . S
C3043 C3049 1.363 . S
C3044 C3045 1.363 . S
C3044 C3049 1.379 . S
C3044 N3051 1.356 . S
C3045 C3044 1.363 . S
C3045 C3048 1.363 . S
N3046 C3048 1.356 . S
N3046 H3058 0.984 . S
N3046 H3059 0.985 . S
N3047 C3049 1.356 . S
N3047 H3052 0.984 . S
N3047 H3053 0.985 . S
C3048 C3042 1.379 . S
C3048 C3045 1.363 . S
C3048 N3046 1.356 . S
C3049 C3043 1.363 . S
C3049 C3044 1.379 . S
C3049 N3047 1.356 . S
N3050 C3042 1.356 . S
N3050 H3056 0.984 . S
N3050 H3057 0.984 . S
N3051 C3044 1.356 . S
N3051 H3054 0.984 . S
N3051 H3055 0.985 . S
H3052 N3047 0.984 . S
H3053 N3047 0.985 . S
H3054 N3051 0.984 . S
H3055 N3051 0.985 . S
H3056 N3050 0.984 . S
H3057 N3050 0.984 . S
H3058 N3046 0.984 . S
H3059 N3046 0.985 . S
C3060 C3061 1.363 . S
C3060 C3066 1.379 . S
C3060 N3068 1.356 . S
C3061 C3060 1.363 . S
C3061 C3067 1.363 . S
C3062 C3063 1.363 . S
C3062 C3067 1.379 . S
C3062 N3069 1.356 . S
C3063 C3062 1.363 . S
C3063 C3066 1.363 . S
N3064 C3066 1.356 . S
N3064 H3076 0.984 . S
N3064 H3077 0.985 . S
N3065 C3067 1.356 . S
N3065 H3070 0.984 . S
N3065 H3071 0.985 . S
C3066 C3060 1.379 . S
C3066 C3063 1.363 . S
C3066 N3064 1.356 . S
C3067 C3061 1.363 . S
C3067 C3062 1.379 . S
C3067 N3065 1.356 . S
N3068 C3060 1.356 . S
N3068 H3074 0.984 . S
N3068 H3075 0.984 . S
N3069 C3062 1.356 . S
N3069 H3072 0.984 . S
N3069 H3073 0.985 . S
H3070 N3065 0.984 . S
H3071 N3065 0.985 . S
H3072 N3069 0.984 . S
H3073 N3069 0.985 . S
H3074 N3068 0.984 . S
H3075 N3068 0.984 . S
H3076 N3064 0.984 . S
H3077 N3064 0.985 . S
C3078 C3079 1.363 . S
C3078 C3084 1.379 . S
C3078 N3086 1.356 . S
C3079 C3078 1.363 . S
C3079 C3085 1.363 . S
C3080 C3081 1.363 . S
C3080 C3085 1.379 . S
C3080 N3087 1.356 . S
C3081 C3080 1.363 . S
C3081 C3084 1.363 . S
N3082 C3084 1.356 . S
N3082 H3094 0.984 . S
N3082 H3095 0.985 . S
N3083 C3085 1.356 . S
N3083 H3088 0.984 . S
N3083 H3089 0.985 . S
C3084 C3078 1.379 . S
C3084 C3081 1.363 . S
C3084 N3082 1.356 . S
C3085 C3079 1.363 . S
C3085 C3080 1.379 . S
C3085 N3083 1.356 . S
N3086 C3078 1.356 . S
N3086 H3092 0.984 . S
N3086 H3093 0.984 . S
N3087 C3080 1.356 . S
N3087 H3090 0.984 . S
N3087 H3091 0.985 . S
H3088 N3083 0.984 . S
H3089 N3083 0.985 . S
H3090 N3087 0.984 . S
H3091 N3087 0.985 . S
H3092 N3086 0.984 . S
H3093 N3086 0.984 . S
H3094 N3082 0.984 . S
H3095 N3082 0.985 . S
C3096 C3097 1.363 . S
C3096 C3102 1.379 . S
C3096 N3104 1.356 . S
C3097 C3096 1.363 . S
C3097 C3103 1.363 . S
C3098 C3099 1.363 . S
C3098 C3103 1.379 . S
C3098 N3105 1.356 . S
C3099 C3098 1.363 . S
C3099 C3102 1.363 . S
N3100 C3102 1.356 . S
N3100 H3112 0.984 . S
N3100 H3113 0.985 . S
N3101 C3103 1.356 . S
N3101 H3106 0.984 . S
N3101 H3107 0.985 . S
C3102 C3096 1.379 . S
C3102 C3099 1.363 . S
C3102 N3100 1.356 . S
C3103 C3097 1.363 . S
C3103 C3098 1.379 . S
C3103 N3101 1.356 . S
N3104 C3096 1.356 . S
N3104 H3110 0.984 . S
N3104 H3111 0.984 . S
N3105 C3098 1.356 . S
N3105 H3108 0.984 . S
N3105 H3109 0.985 . S
H3106 N3101 0.984 . S
H3107 N3101 0.985 . S
H3108 N3105 0.984 . S
H3109 N3105 0.985 . S
H3110 N3104 0.984 . S
H3111 N3104 0.984 . S
H3112 N3100 0.984 . S
H3113 N3100 0.985 . S
C3114 C3115 1.363 . S
C3114 C3120 1.379 . S
C3114 N3122 1.356 . S
C3115 C3114 1.363 . S
C3115 C3121 1.363 . S
C3116 C3117 1.363 . S
C3116 C3121 1.379 . S
C3116 N3123 1.356 . S
C3117 C3116 1.363 . S
C3117 C3120 1.363 . S
N3118 C3120 1.356 . S
N3118 H3130 0.984 . S
N3118 H3131 0.985 . S
N3119 C3121 1.356 . S
N3119 H3124 0.984 . S
N3119 H3125 0.985 . S
C3120 C3114 1.379 . S
C3120 C3117 1.363 . S
C3120 N3118 1.356 . S
C3121 C3115 1.363 . S
C3121 C3116 1.379 . S
C3121 N3119 1.356 . S
N3122 C3114 1.356 . S
N3122 H3128 0.984 . S
N3122 H3129 0.984 . S
N3123 C3116 1.356 . S
N3123 H3126 0.984 . S
N3123 H3127 0.985 . S
H3124 N3119 0.984 . S
H3125 N3119 0.985 . S
H3126 N3123 0.984 . S
H3127 N3123 0.985 . S
H3128 N3122 0.984 . S
H3129 N3122 0.984 . S
H3130 N3118 0.984 . S
H3131 N3118 0.985 . S
C3132 C3133 1.363 . S
C3132 C3138 1.379 . S
C3132 N3140 1.356 . S
C3133 C3132 1.363 . S
C3133 C3139 1.363 . S
C3134 C3135 1.363 . S
C3134 C3139 1.379 . S
C3134 N3141 1.379 . S
C3135 C3134 1.363 . S
C3135 C3138 1.363 . S
N3136 C3138 1.356 1_455 S
N3136 H3148 0.984 . S
N3136 H3149 0.985 . S
N3137 C3139 1.356 . S
N3137 H3142 0.984 . S
N3137 H3143 0.985 . S
C3138 C3132 1.379 . S
C3138 C3135 1.363 . S
C3138 N3136 1.356 1_655 S
C3139 C3133 1.363 . S
C3139 C3134 1.379 . S
C3139 N3137 1.356 . S
N3140 C3132 1.356 . S
N3140 H3146 0.984 . S
N3140 H3147 0.984 . S
N3141 C3134 1.379 . S
N3141 H3144 0.973 1_556 S
N3141 H3145 0.974 1_556 S
H3142 N3137 0.984 . S
H3143 N3137 0.985 . S
H3144 N3141 0.973 1_554 S
H3145 N3141 0.974 1_554 S
H3146 N3140 0.984 . S
H3147 N3140 0.984 . S
H3148 N3136 0.984 . S
H3149 N3136 0.985 . S
C3150 C3151 1.363 . S
C3150 C3156 1.379 . S
C3150 N3158 1.356 . S
C3151 C3150 1.363 . S
C3151 C3157 1.363 . S
C3152 C3153 1.363 . S
C3152 C3157 1.379 . S
C3152 N3159 1.356 . S
C3153 C3152 1.363 . S
C3153 C3156 1.363 . S
N3154 C3156 1.356 . S
N3154 H3166 0.984 . S
N3154 H3167 0.985 . S
N3155 C3157 1.356 . S
N3155 H3160 0.984 . S
N3155 H3161 0.985 . S
C3156 C3150 1.379 . S
C3156 C3153 1.363 . S
C3156 N3154 1.356 . S
C3157 C3151 1.363 . S
C3157 C3152 1.379 . S
C3157 N3155 1.356 . S
N3158 C3150 1.356 . S
N3158 H3164 0.984 . S
N3158 H3165 0.984 . S
N3159 C3152 1.356 . S
N3159 H3162 0.984 . S
N3159 H3163 0.985 . S
H3160 N3155 0.984 . S
H3161 N3155 0.985 . S
H3162 N3159 0.984 . S
H3163 N3159 0.985 . S
H3164 N3158 0.984 . S
H3165 N3158 0.984 . S
H3166 N3154 0.984 . S
H3167 N3154 0.985 . S
C3168 C3169 1.363 . S
C3168 C3174 1.379 . S
C3168 N3176 1.356 . S
C3169 C3168 1.363 . S
C3169 C3175 1.363 . S
C3170 C3171 1.363 . S
C3170 C3175 1.379 . S
C3170 N3177 1.356 . S
C3171 C3170 1.363 . S
C3171 C3174 1.363 . S
N3172 C3174 1.356 . S
N3172 H3184 0.984 . S
N3172 H3185 0.985 . S
N3173 C3175 1.356 . S
N3173 H3178 0.984 . S
N3173 H3179 0.985 . S
C3174 C3168 1.379 . S
C3174 C3171 1.363 . S
C3174 N3172 1.356 . S
C3175 C3169 1.363 . S
C3175 C3170 1.379 . S
C3175 N3173 1.356 . S
N3176 C3168 1.356 . S
N3176 H3182 0.984 . S
N3176 H3183 0.984 . S
N3177 C3170 1.356 . S
N3177 H3180 0.984 . S
N3177 H3181 0.985 . S
H3178 N3173 0.984 . S
H3179 N3173 0.985 . S
H3180 N3177 0.984 . S
H3181 N3177 0.985 . S
H3182 N3176 0.984 . S
H3183 N3176 0.984 . S
H3184 N3172 0.984 . S
H3185 N3172 0.985 . S
C3186 C3187 1.363 . S
C3186 C3192 1.379 . S
C3186 N3194 1.356 . S
C3187 C3186 1.363 . S
C3187 C3193 1.363 . S
C3188 C3189 1.363 . S
C3188 C3193 1.379 . S
C3188 N3195 1.356 . S
C3189 C3188 1.363 . S
C3189 C3192 1.363 . S
N3190 C3192 1.356 . S
N3190 H3202 0.984 . S
N3190 H3203 0.985 . S
N3191 C3193 1.356 . S
N3191 H3196 0.984 . S
N3191 H3197 0.985 . S
C3192 C3186 1.379 . S
C3192 C3189 1.363 . S
C3192 N3190 1.356 . S
C3193 C3187 1.363 . S
C3193 C3188 1.379 . S
C3193 N3191 1.356 . S
N3194 C3186 1.356 . S
N3194 H3200 0.984 . S
N3194 H3201 0.984 . S
N3195 C3188 1.356 . S
N3195 H3198 0.984 . S
N3195 H3199 0.985 . S
H3196 N3191 0.984 . S
H3197 N3191 0.985 . S
H3198 N3195 0.984 . S
H3199 N3195 0.985 . S
H3200 N3194 0.984 . S
H3201 N3194 0.984 . S
H3202 N3190 0.984 . S
H3203 N3190 0.985 . S
C3204 C3205 1.363 . S
C3204 C3210 1.379 . S
C3204 N3212 1.356 . S
C3205 C3204 1.363 . S
C3205 C3211 1.363 . S
C3206 C3207 1.363 . S
C3206 C3211 1.379 . S
C3206 N3213 1.356 . S
C3207 C3206 1.363 . S
C3207 C3210 1.363 . S
N3208 C3210 1.356 . S
N3208 H3220 0.984 . S
N3208 H3221 0.985 . S
N3209 C3211 1.356 . S
N3209 H3214 0.984 . S
N3209 H3215 0.985 . S
C3210 C3204 1.379 . S
C3210 C3207 1.363 . S
C3210 N3208 1.356 . S
C3211 C3205 1.363 . S
C3211 C3206 1.379 . S
C3211 N3209 1.356 . S
N3212 C3204 1.356 . S
N3212 H3218 0.984 . S
N3212 H3219 0.984 . S
N3213 C3206 1.356 . S
N3213 H3216 0.984 . S
N3213 H3217 0.985 . S
H3214 N3209 0.984 . S
H3215 N3209 0.985 . S
H3216 N3213 0.984 . S
H3217 N3213 0.985 . S
H3218 N3212 0.984 . S
H3219 N3212 0.984 . S
H3220 N3208 0.984 . S
H3221 N3208 0.985 . S
C3222 C3223 1.363 . S
C3222 C3228 1.379 . S
C3222 N3230 1.356 . S
C3223 C3222 1.363 . S
C3223 C3229 1.363 . S
C3224 C3225 1.363 . S
C3224 C3229 1.379 . S
C3224 N3231 1.356 . S
C3225 C3224 1.363 . S
C3225 C3228 1.363 . S
N3226 C3228 1.356 . S
N3226 H3238 0.984 . S
N3226 H3239 0.985 . S
N3227 C3229 1.356 . S
N3227 H3232 0.984 . S
N3227 H3233 0.985 . S
C3228 C3222 1.379 . S
C3228 C3225 1.363 . S
C3228 N3226 1.356 . S
C3229 C3223 1.363 . S
C3229 C3224 1.379 . S
C3229 N3227 1.356 . S
N3230 C3222 1.356 . S
N3230 H3236 0.984 . S
N3230 H3237 0.984 . S
N3231 C3224 1.356 . S
N3231 H3234 0.984 . S
N3231 H3235 0.985 . S
H3232 N3227 0.984 . S
H3233 N3227 0.985 . S
H3234 N3231 0.984 . S
H3235 N3231 0.985 . S
H3236 N3230 0.984 . S
H3237 N3230 0.984 . S
H3238 N3226 0.984 . S
H3239 N3226 0.985 . S
C3240 C3241 1.363 . S
C3240 C3246 1.379 . S
C3240 N3248 1.356 . S
C3241 C3240 1.363 . S
C3241 C3247 1.363 . S
C3242 C3243 1.363 . S
C3242 C3247 1.379 . S
C3242 N3249 1.356 . S
C3243 C3242 1.363 . S
C3243 C3246 1.363 . S
N3244 C3246 1.356 . S
N3244 H3256 0.984 . S
N3244 H3257 0.985 . S
N3245 C3247 1.356 . S
N3245 H3250 0.984 . S
N3245 H3251 0.985 . S
C3246 C3240 1.379 . S
C3246 C3243 1.363 . S
C3246 N3244 1.356 . S
C3247 C3241 1.363 . S
C3247 C3242 1.379 . S
C3247 N3245 1.356 . S
N3248 C3240 1.356 . S
N3248 H3254 0.984 . S
N3248 H3255 0.984 . S
N3249 C3242 1.356 . S
N3249 H3252 0.984 . S
N3249 H3253 0.985 . S
H3250 N3245 0.984 . S
H3251 N3245 0.985 . S
H3252 N3249 0.984 . S
H3253 N3249 0.985 . S
H3254 N3248 0.984 . S
H3255 N3248 0.984 . S
H3256 N3244 0.984 . S
H3257 N3244 0.985 . S
C3258 C3259 1.363 . S
C3258 C3264 1.379 . S
C3258 N3266 1.356 . S
C3259 C3258 1.363 . S
C3259 C3265 1.363 . S
C3260 C3261 1.363 . S
C3260 C3265 1.379 . S
C3260 N3267 1.356 1_565 S
C3261 C3260 1.363 . S
C3261 C3264 1.363 . S
N3262 C3264 1.356 . S
N3262 H3274 0.984 . S
N3262 H3275 0.997 . S
N3263 C3265 1.356 . S
N3263 H3268 0.984 . S
N3263 H3269 0.985 . S
C3264 C3258 1.379 . S
C3264 C3261 1.363 . S
C3264 N3262 1.356 . S
C3265 C3259 1.363 . S
C3265 C3260 1.379 . S
C3265 N3263 1.356 . S
N3266 C3258 1.356 . S
N3266 H3272 0.984 . S
N3266 H3273 0.984 . S
N3267 C3260 1.356 1_545 S
N3267 H3270 0.984 . S
N3267 H3271 0.985 . S
H3268 N3263 0.984 . S
H3269 N3263 0.985 . S
H3270 N3267 0.984 . S
H3271 N3267 0.985 . S
H3272 N3266 0.984 . S
H3273 N3266 0.984 . S
H3274 N3262 0.984 . S
H3275 N3262 0.997 . S
C3276 C3277 1.363 . S
C3276 C3282 1.379 . S
C3276 N3284 1.356 . S
C3277 C3276 1.363 . S
C3277 C3283 1.363 . S
C3278 C3279 1.363 . S
C3278 C3283 1.379 . S
C3278 N3285 1.356 . S
C3279 C3278 1.363 . S
C3279 C3282 1.363 . S
N3280 C3282 1.356 . S
N3280 H3292 0.984 . S
N3280 H3293 0.985 . S
N3281 C3283 1.356 . S
N3281 H3286 0.984 . S
N3281 H3287 0.985 . S
C3282 C3276 1.379 . S
C3282 C3279 1.363 . S
C3282 N3280 1.356 . S
C3283 C3277 1.363 . S
C3283 C3278 1.379 . S
C3283 N3281 1.356 . S
N3284 C3276 1.356 . S
N3284 H3290 0.984 . S
N3284 H3291 0.984 . S
N3285 C3278 1.356 . S
N3285 H3288 0.984 . S
N3285 H3289 0.985 . S
H3286 N3281 0.984 . S
H3287 N3281 0.985 . S
H3288 N3285 0.984 . S
H3289 N3285 0.985 . S
H3290 N3284 0.984 . S
H3291 N3284 0.984 . S
H3292 N3280 0.984 . S
H3293 N3280 0.985 . S
C3294 C3295 1.363 . S
C3294 C3300 1.379 . S
C3294 N3302 1.356 . S
C3295 C3294 1.363 . S
C3295 C3301 1.363 . S
C3296 C3297 1.363 . S
C3296 C3301 1.379 . S
C3296 N3303 1.356 . S
C3297 C3296 1.363 . S
C3297 C3300 1.363 . S
N3298 C3300 1.356 . S
N3298 H3310 0.984 . S
N3298 H3311 0.985 . S
N3299 C3301 1.356 . S
N3299 H3304 0.984 . S
N3299 H3305 0.985 . S
C3300 C3294 1.379 . S
C3300 C3297 1.363 . S
C3300 N3298 1.356 . S
C3301 C3295 1.363 . S
C3301 C3296 1.379 . S
C3301 N3299 1.356 . S
N3302 C3294 1.356 . S
N3302 H3308 0.984 . S
N3302 H3309 0.984 . S
N3303 C3296 1.356 . S
N3303 H3306 0.984 . S
N3303 H3307 0.985 . S
H3304 N3299 0.984 . S
H3305 N3299 0.985 . S
H3306 N3303 0.984 . S
H3307 N3303 0.985 . S
H3308 N3302 0.984 . S
H3309 N3302 0.984 . S
H3310 N3298 0.984 . S
H3311 N3298 0.985 . S
C3312 C3313 1.363 . S
C3312 C3318 1.379 . S
C3312 N3320 1.356 . S
C3313 C3312 1.363 . S
C3313 C3319 1.363 . S
C3314 C3315 1.363 . S
C3314 C3319 1.379 . S
C3314 N3321 1.356 . S
C3315 C3314 1.363 . S
C3315 C3318 1.363 . S
N3316 C3318 1.356 . S
N3316 H3328 0.984 . S
N3316 H3329 0.985 . S
N3317 C3319 1.356 . S
N3317 H3322 0.984 . S
N3317 H3323 0.985 . S
C3318 C3312 1.379 . S
C3318 C3315 1.363 . S
C3318 N3316 1.356 . S
C3319 C3313 1.363 . S
C3319 C3314 1.379 . S
C3319 N3317 1.356 . S
N3320 C3312 1.356 . S
N3320 H3326 0.984 . S
N3320 H3327 0.984 . S
N3321 C3314 1.356 . S
N3321 H3324 0.984 . S
N3321 H3325 0.985 . S
H3322 N3317 0.984 . S
H3323 N3317 0.985 . S
H3324 N3321 0.984 . S
H3325 N3321 0.985 . S
H3326 N3320 0.984 . S
H3327 N3320 0.984 . S
H3328 N3316 0.984 . S
H3329 N3316 0.985 . S
C3330 C3331 1.363 . S
C3330 C3336 1.379 . S
C3330 N3338 1.356 . S
C3331 C3330 1.363 . S
C3331 C3337 1.363 . S
C3332 C3333 1.363 . S
C3332 C3337 1.379 . S
C3332 N3339 1.356 . S
C3333 C3332 1.363 . S
C3333 C3336 1.363 . S
N3334 C3336 1.356 . S
N3334 H3346 0.984 1_554 S
N3334 H3347 0.985 . S
N3335 C3337 1.356 . S
N3335 H3340 0.984 . S
N3335 H3341 0.985 . S
C3336 C3330 1.379 . S
C3336 C3333 1.363 . S
C3336 N3334 1.356 . S
C3337 C3331 1.363 . S
C3337 C3332 1.379 . S
C3337 N3335 1.356 . S
N3338 C3330 1.356 . S
N3338 H3344 1.009 . S
N3338 H3345 0.984 . S
N3339 C3332 1.356 . S
N3339 H3342 0.984 . S
N3339 H3343 0.985 . S
H3340 N3335 0.984 . S
H3341 N3335 0.985 . S
H3342 N3339 0.984 . S
H3343 N3339 0.985 . S
H3344 N3338 1.009 . S
H3345 N3338 0.984 . S
H3346 N3334 0.984 1_556 S
H3347 N3334 0.985 . S
C3348 C3349 1.363 . S
C3348 C3354 1.379 . S
C3348 N3356 1.356 . S
C3349 C3348 1.363 . S
C3349 C3355 1.363 . S
C3350 C3351 1.363 . S
C3350 C3355 1.379 . S
C3350 N3357 1.356 . S
C3351 C3350 1.363 . S
C3351 C3354 1.363 . S
N3352 C3354 1.356 . S
N3352 H3364 0.984 . S
N3352 H3365 0.985 . S
N3353 C3355 1.356 . S
N3353 H3358 0.984 . S
N3353 H3359 0.985 . S
C3354 C3348 1.379 . S
C3354 C3351 1.363 . S
C3354 N3352 1.356 . S
C3355 C3349 1.363 . S
C3355 C3350 1.379 . S
C3355 N3353 1.356 . S
N3356 C3348 1.356 . S
N3356 H3362 0.984 . S
N3356 H3363 0.984 . S
N3357 C3350 1.356 . S
N3357 H3360 0.984 . S
N3357 H3361 0.985 . S
H3358 N3353 0.984 . S
H3359 N3353 0.985 . S
H3360 N3357 0.984 . S
H3361 N3357 0.985 . S
H3362 N3356 0.984 . S
H3363 N3356 0.984 . S
H3364 N3352 0.984 . S
H3365 N3352 0.985 . S
C3366 C3367 1.363 . S
C3366 C3372 1.379 . S
C3366 N3374 1.356 . S
C3367 C3366 1.363 . S
C3367 C3373 1.363 . S
C3368 C3369 1.363 . S
C3368 C3373 1.379 . S
C3368 N3375 1.356 . S
C3369 C3368 1.363 . S
C3369 C3372 1.363 . S
N3370 C3372 1.356 . S
N3370 H3382 0.984 . S
N3370 H3383 0.985 . S
N3371 C3373 1.356 . S
N3371 H3376 0.984 . S
N3371 H3377 0.985 . S
C3372 C3366 1.379 . S
C3372 C3369 1.363 . S
C3372 N3370 1.356 . S
C3373 C3367 1.363 . S
C3373 C3368 1.379 . S
C3373 N3371 1.356 . S
N3374 C3366 1.356 . S
N3374 H3380 0.984 . S
N3374 H3381 0.984 . S
N3375 C3368 1.356 . S
N3375 H3378 0.984 . S
N3375 H3379 0.985 . S
H3376 N3371 0.984 . S
H3377 N3371 0.985 . S
H3378 N3375 0.984 . S
H3379 N3375 0.985 . S
H3380 N3374 0.984 . S
H3381 N3374 0.984 . S
H3382 N3370 0.984 . S
H3383 N3370 0.985 . S
C1657 C101 2.211 1_554 S
C1659 C368 2.213 . S
C1675 C57 1.879 . S
C1677 C470 1.955 . S
C1693 C70 1.823 . S
C1695 C536 1.822 . S
C1713 C622 1.385 . S
C1711 C82 1.433 . S
C1729 C23 1.432 . S
C1731 C706 1.385 . S
C1749 C788 1.822 . S
C1747 C29 1.823 . S
C1767 C890 1.947 . S
C1765 C49 1.873 . S
C1783 C10 2.211 . S
C1785 C956 2.213 . S
C1803 C386 1.793 . S
C1801 C218 1.834 . S
C1819 C226 1.045 . S
C1821 C454 1.018 . S
C1839 C554 1.350 . S
C1837 C251 1.296 . S
C1857 C620 1.603 . S
C1855 C159 1.606 . S
C1873 C211 1.605 . S
C1875 C704 1.603 . S
C1893 C806 1.350 . S
C1891 C225 1.296 . S
C1911 C874 1.017 . S
C1909 C252 1.043 . S
C1929 C974 1.792 . S
C1927 C166 1.833 . S
C1947 C370 1.322 . S
C1945 C147 1.278 . S
C1963 C263 1.665 . S
C1965 C1058 1.715 . S
C1983 C1126 1.499 . S
C1981 C309 1.505 . S
C2001 C1208 0.828 . S
C1999 C291 0.827 . S
C2017 C108 1.277 . S
C2019 C958 1.320 . S
C2035 C121 1.506 . S
C2037 C538 1.499 . S
C2053 C302 1.666 . S
C2055 C1310 1.717 . S
C2073 C1376 0.829 . S
C2071 C276 0.827 . S
C2091 C379 2.375 . S
C2089 C55 2.339 . S
C2109 C1383 2.135 . S
C2107 C96 2.114 . S
C2125 C88 2.074 . S
C2127 C547 2.088 . S
C2143 C75 1.545 . S
C2145 C1305 1.457 . S
C2163 C717 1.456 . S
C2161 C4 1.544 . S
C2179 C44 2.078 . S
C2181 C1135 2.096 . S
C2199 C879 2.134 1_565 S
C2197 C31 2.113 . S
C2217 C1471 2.375 . S
C2215 C18 2.339 . S
C2235 C375 2.004 . S
C2233 C133 2.039 . S
C2253 C1389 1.049 . S
C2251 C296 1.133 . S
C2269 C107 1.414 . S
C2271 C543 1.419 . S
C2287 C264 1.831 . S
C2289 C1303 1.828 . S
C2305 C140 1.830 . S
C2307 C715 1.828 . S
C2325 C1131 1.420 . S
C2323 C289 1.415 . S
C2341 C114 1.135 . S
C2343 C885 1.051 . S
C2359 C265 2.040 . S
C2361 C1467 1.996 . S
C2377 C179 1.220 . S
C2379 C381 1.227 . S
C2395 C161 1.833 . S
C2397 C1047 1.834 . S
C2413 C244 1.491 . S
C2415 C801 1.433 . S
C2431 C224 1.070 . S
C2433 C1219 1.071 . S
C2451 C1473 1.227 . S
C2449 C257 1.219 . S
C2467 C199 1.490 . S
C2469 C549 1.432 . S
C2487 C627 1.834 . S
C2485 C237 1.832 . S
C2505 C463 1.070 . S
C2503 C185 1.069 . S
C2521 C69 2.211 . S
C2523 C1544 2.213 . S
C2541 C1394 1.955 . S
C2539 C83 1.879 . S
C2557 C94 1.824 1_554 S
C2559 C1628 1.823 . S
C2575 C56 1.422 1_655 S
C2577 C1294 1.385 . S
C2593 C42 1.443 . S
C2595 C1042 1.390 . S
C2613 C1124 1.822 . S
C2611 C3 1.823 . S
C2631 C1226 1.956 . S
C2629 C16 1.879 . S
C2649 C1460 2.212 . S
C2647 C36 2.211 . S
C2667 C1562 1.793 . S
C2665 C238 1.834 . S
C2683 C174 1.043 . S
C2685 C1378 1.016 . S
C2703 C1646 1.349 . S
C2701 C186 1.296 . S
C2721 C1292 1.602 . S
C2719 C198 1.605 . S
C2739 C1040 1.604 . S
C2737 C239 1.606 . S
C2755 C173 1.297 . S
C2757 C1142 1.351 . S
C2775 C1210 1.018 . S
C2773 C187 1.044 . S
C2791 C205 1.833 . S
C2793 C1478 1.793 . S
C2811 C1546 1.320 . S
C2809 C290 1.276 . S
C2827 C122 1.666 . S
C2829 C722 1.716 . S
C2847 C790 1.500 . S
C2845 C134 1.506 1_565 S
C2865 C872 0.828 . S
C2863 C148 0.827 . S
C2883 C1462 1.320 . S
C2881 C283 1.276 . S
C2899 C270 1.504 . S
C2901 C1630 1.497 . S
C2919 C638 1.716 . S
C2917 C135 1.666 . S
C2937 C452 0.828 . S
C2935 C109 0.826 . S
C2953 C81 2.339 . S
C2955 C1555 2.375 . S
C2973 C459 2.135 . S
C2971 C68 2.114 . S
C2989 C62 2.074 . S
C2991 C1639 2.088 . S
C3007 C95 1.544 . S
C3009 C633 1.456 . S
C3025 C30 1.544 . S
C3027 C1053 1.456 . S
C3045 C799 2.088 . S
C3043 C17 2.074 . S
C3061 C5 2.114 . S
C3063 C1215 2.135 . S
C3079 C43 2.340 . S
C3081 C967 2.366 . S
C3099 C1551 1.995 . S
C3097 C304 2.039 . S
C3115 C153 1.133 . S
C3117 C465 1.048 . S
C3135 C1635 1.409 1_656 S
C3133 C278 1.415 . S
C3151 C127 1.830 . S
C3153 C631 1.828 . S
C3169 C303 1.827 . S
C3171 C1051 1.825 . S
C3189 C795 1.419 . S
C3187 C146 1.414 . S
C3205 C277 1.133 . S
C3207 C1221 1.048 . S
C3225 C963 1.994 . S
C3223 C120 2.039 . S
C3243 C1557 1.227 . S
C3241 C231 1.220 . S
C3261 C711 1.834 1_565 S
C3259 C200 1.833 . S
C3277 C212 1.491 . S
C3279 C1137 1.433 . S
C3297 C883 1.070 . S
C3295 C172 1.069 . S
C3313 C192 1.219 . S
C3315 C969 1.226 . S
C3331 C160 1.490 . S
C3333 C1641 1.432 . S
C3351 C1299 1.835 . S
C3349 C213 1.834 . S
C3369 C1387 1.071 . S
C3367 C250 1.070 . S
