# Generated by pormake.
# Topology tsx, (6,3)-cn, num edge types: 1
# Building blocks:
#     Node 0, Type 0, BuildingBlock: CIFDUS_clean_sbu_1, # of connection points: 6
#     Node 1, Type 0, BuildingBlock: CIFDUS_clean_sbu_1, # of connection points: 6
#     Node 2, Type 1, BuildingBlock: OLANEW_clean_sbu_2, # of connection points: 3
#     Node 3, Type 1, BuildingBlock: OLANEW_clean_sbu_2, # of connection points: 3
#     Node 4, Type 1, BuildingBlock: OLANEW_clean_sbu_2, # of connection points: 3
#     Node 5, Type 1, BuildingBlock: OLANEW_clean_sbu_2, # of connection points: 3
#     Edge 6, Type (0, 1), BuildingBlock: XUDNAN_clean_linker_2, # of connection points: 2
#     Edge 7, Type (0, 1), BuildingBlock: XUDNAN_clean_linker_2, # of connection points: 2
#     Edge 8, Type (0, 1), BuildingBlock: XUDNAN_clean_linker_2, # of connection points: 2
#     Edge 9, Type (0, 1), BuildingBlock: XUDNAN_clean_linker_2, # of connection points: 2
#     Edge 10, Type (0, 1), BuildingBlock: XUDNAN_clean_linker_2, # of connection points: 2
#     Edge 11, Type (0, 1), BuildingBlock: XUDNAN_clean_linker_2, # of connection points: 2
#     Edge 12, Type (0, 1), BuildingBlock: XUDNAN_clean_linker_2, # of connection points: 2
#     Edge 13, Type (0, 1), BuildingBlock: XUDNAN_clean_linker_2, # of connection points: 2
#     Edge 14, Type (0, 1), BuildingBlock: XUDNAN_clean_linker_2, # of connection points: 2
#     Edge 15, Type (0, 1), BuildingBlock: XUDNAN_clean_linker_2, # of connection points: 2
#     Edge 16, Type (0, 1), BuildingBlock: XUDNAN_clean_linker_2, # of connection points: 2
#     Edge 17, Type (0, 1), BuildingBlock: XUDNAN_clean_linker_2, # of connection points: 2
# Relax obj value: 0.039
# Max RMSD: 0.094
# Mean RMSD: 0.050
data_MOF--net-tsx--node1-CIFDUS_clean_sbu_1--node2-OLANEW_clean_sbu_2--edge1-XUDNAN_clean_linker_2
_symmetry_space_group_name_H-M    P1
_symmetry_Int_Tables_number       1
_symmetry_cell_setting            triclinic
loop_
_symmetry_equiv_pos_as_xyz
'x, y, z'
_cell_length_a     20.487218
_cell_length_b     24.720503
_cell_length_c     34.881468
_cell_angle_alpha  102.16725
_cell_angle_beta   91.503312
_cell_angle_gamma 90.993414
loop_
_atom_site_label
_atom_site_type_symbol
_atom_site_fract_x
_atom_site_fract_y
_atom_site_fract_z
_atom_type_partial_charge
O0 O 0.98679 0.08921 0.02356 0.0
Mn1 Mn 0.02376 0.0084 0.01253 0.0
O2 O 0.88342 0.0821 0.99943 0.0
Mn3 Mn 0.89213 0.01284 0.96805 0.0
O4 O 0.06162 0.92897 0.00058 0.0
O5 O 0.11286 0.04157 0.02734 0.0
Mn6 Mn 0.15539 0.00593 0.05847 0.0
O7 O 0.00761 0.00306 0.07094 0.0
O8 O 0.16128 0.93396 0.03011 0.0
O9 O 0.04045 0.01227 0.95448 0.0
O10 O 0.94183 0.01089 0.92398 0.0
O11 O 0.21084 0.06259 0.05095 0.0
O12 O 0.1057 0.01291 0.10266 0.0
C13 C 0.88432 0.94072 0.99328 0.0
C14 C 0.93094 0.11027 0.01846 0.0
C15 C 0.11532 0.90697 0.00849 0.0
C16 C 0.16299 0.07422 0.02938 0.0
C17 C 0.04369 0.00688 0.10229 0.0
C18 C 0.00414 0.01198 0.92387 0.0
O19 O 0.93449 0.97411 0.99734 0.0
O20 O 0.83703 0.95472 0.97229 0.0
O21 O 0.47601 0.60989 0.51757 0.0
Mn22 Mn 0.52904 0.53574 0.51074 0.0
O23 O 0.3774 0.58423 0.48769 0.0
Mn24 Mn 0.39671 0.51263 0.46351 0.0
O25 O 0.57682 0.45975 0.5024 0.0
O26 O 0.61393 0.5805 0.5219 0.0
Mn27 Mn 0.66565 0.54487 0.54901 0.0
O28 O 0.52009 0.53502 0.57052 0.0
O29 O 0.68252 0.47658 0.51831 0.0
O30 O 0.54075 0.53524 0.45133 0.0
O31 O 0.44614 0.50561 0.41912 0.0
O32 O 0.71361 0.60559 0.54352 0.0
O33 O 0.62376 0.5422 0.59489 0.0
C34 C 0.40392 0.45218 0.49952 0.0
C35 C 0.41678 0.62047 0.50801 0.0
C36 C 0.63584 0.44354 0.50383 0.0
C37 C 0.66199 0.61615 0.52439 0.0
C38 C 0.56241 0.53633 0.59875 0.0
C39 C 0.50619 0.52018 0.41946 0.0
O40 O 0.44636 0.49081 0.49878 0.0
O41 O 0.35427 0.4519 0.47582 0.0
O42 O 0.00708 0.96535 0.38901 0.0
Cd43 Cd 0.01781 0.97189 0.46043 0.0
O44 O 0.90197 0.9435 0.38213 0.0
Cd45 Cd 0.881 0.96508 0.44433 0.0
O46 O 0.81889 0.03357 0.46984 0.0
C47 C 0.83795 0.0804 0.46421 0.0
O48 O 0.89424 0.08396 0.44757 0.0
C49 C 0.95614 0.95174 0.36709 0.0
C50 C 0.12436 0.91402 0.4829 0.0
O51 O 0.06706 0.89165 0.47685 0.0
O52 O 0.1317 0.96375 0.47814 0.0
O53 O 0.07145 0.06834 0.6432 0.0
Cd54 Cd 0.06885 0.0958 0.58019 0.0
O55 O 0.06624 0.9773 0.62381 0.0
Cd56 Cd 0.02581 0.97495 0.56455 0.0
O57 O 0.94505 0.93023 0.52768 0.0
C58 C 0.88642 0.94571 0.53294 0.0
O59 O 0.87568 0.99239 0.55775 0.0
C60 C 0.0745 0.02043 0.65086 0.0
C61 C 0.17204 0.17182 0.58092 0.0
O62 O 0.11841 0.18658 0.59769 0.0
O63 O 0.17689 0.12124 0.56299 0.0
O64 O 0.62369 0.50533 0.88244 0.0
Cd65 Cd 0.65496 0.51933 0.9525 0.0
O66 O 0.52168 0.49251 0.89638 0.0
Cd67 Cd 0.41617 0.48247 0.88516 0.0
O68 O 0.32343 0.52451 0.89225 0.0
C69 C 0.31554 0.55118 0.92706 0.0
O70 O 0.35938 0.54651 0.9543 0.0
C71 C 0.56389 0.49829 0.87135 0.0
C72 C 0.73897 0.44332 0.97549 0.0
O73 O 0.67677 0.43606 0.97462 0.0
O74 O 0.76184 0.4858 0.96423 0.0
O75 O 0.66846 0.49336 0.12686 0.0
Cd76 Cd 0.69327 0.48398 0.058 0.0
O77 O 0.56351 0.46935 0.12248 0.0
Cd78 Cd 0.54179 0.44326 0.05937 0.0
O79 O 0.46687 0.39112 0.02195 0.0
C80 C 0.40997 0.39261 0.03591 0.0
O81 O 0.39991 0.42722 0.06927 0.0
C82 C 0.61505 0.48616 0.14305 0.0
C83 C 0.75704 0.58092 0.04835 0.0
O84 O 0.69524 0.57358 0.0422 0.0
O85 O 0.78924 0.54195 0.05849 0.0
H86 H 0.14059 0.17991 0.06311 0.0
H87 H 0.207 0.07477 0.95698 0.0
H88 H 0.26102 0.15545 0.93868 0.0
H89 H 0.12944 0.31573 0.02158 0.0
H90 H 0.15803 0.35552 0.06859 0.0
H91 H 0.10641 0.29489 0.06594 0.0
H92 H 0.19315 0.25541 0.10711 0.0
H93 H 0.24576 0.3146 0.1091 0.0
H94 H 0.27526 0.24626 0.08979 0.0
H95 H 0.33403 0.23822 0.94271 0.0
H96 H 0.41061 0.31751 0.96539 0.0
H97 H 0.29541 0.37084 0.0685 0.0
C98 C 0.16254 0.17503 0.03471 0.0
C99 C 0.16811 0.12194 0.01076 0.0
C100 C 0.20037 0.11569 0.97488 0.0
C101 C 0.23153 0.16131 0.96446 0.0
C102 C 0.22925 0.21286 0.99013 0.0
C103 C 0.19377 0.22029 0.02405 0.0
C104 C 0.20753 0.27703 0.04985 0.0
C105 C 0.14674 0.31293 0.05158 0.0
C106 C 0.23191 0.273 0.09136 0.0
C107 C 0.26087 0.29817 0.02716 0.0
C108 C 0.27159 0.26131 0.99228 0.0
C109 C 0.32456 0.26829 0.96924 0.0
C110 C 0.36816 0.3133 0.98248 0.0
C111 C 0.35883 0.35064 0.0186 0.0
C112 C 0.30322 0.34371 0.04038 0.0
H113 H 0.19255 0.83866 0.04001 0.0
H114 H 0.06029 0.84141 0.94134 0.0
H115 H 0.08666 0.74397 0.91256 0.0
H116 H 0.31468 0.76624 0.98855 0.0
H117 H 0.33575 0.72699 0.02498 0.0
H118 H 0.29963 0.79358 0.0396 0.0
H119 H 0.20689 0.74974 0.07308 0.0
H120 H 0.24284 0.68276 0.05855 0.0
H121 H 0.15893 0.69232 0.04511 0.0
H122 H 0.14099 0.65101 0.89055 0.0
H123 H 0.21409 0.57082 0.87876 0.0
H124 H 0.30535 0.62954 0.99405 0.0
C125 C 0.16834 0.81857 0.0126 0.0
C126 C 0.12491 0.84753 0.99266 0.0
C127 C 0.09375 0.81976 0.95706 0.0
C128 C 0.10836 0.7645 0.94058 0.0
C129 C 0.15294 0.73756 0.96063 0.0
C130 C 0.18157 0.76361 0.99621 0.0
C131 C 0.23072 0.7274 0.01099 0.0
C132 C 0.29921 0.75521 0.0163 0.0
C133 C 0.20849 0.71215 0.04919 0.0
C134 C 0.22771 0.67767 0.97735 0.0
C135 C 0.18224 0.68382 0.94866 0.0
C136 C 0.17565 0.64523 0.91321 0.0
C137 C 0.21744 0.59989 0.90674 0.0
C138 C 0.26508 0.59372 0.93561 0.0
C139 C 0.26876 0.63247 0.97165 0.0
H140 H 0.78148 0.86873 0.98278 0.0
H141 H 0.97405 0.89627 0.0389 0.0
H142 H 0.96447 0.80576 0.05837 0.0
H143 H 0.7094 0.80624 0.05649 0.0
H144 H 0.65839 0.75924 0.02114 0.0
H145 H 0.6821 0.82564 0.01182 0.0
H146 H 0.73012 0.77717 0.94565 0.0
H147 H 0.70703 0.7106 0.95487 0.0
H148 H 0.79081 0.72511 0.94518 0.0
H149 H 0.93316 0.70841 0.0688 0.0
H150 H 0.88086 0.61914 0.07393 0.0
H151 H 0.70706 0.66095 0.01365 0.0
C152 C 0.82187 0.85609 0.99927 0.0
C153 C 0.87943 0.8891 0.00837 0.0
C154 C 0.93042 0.87108 0.03049 0.0
C155 C 0.92507 0.81983 0.04193 0.0
C156 C 0.86791 0.78779 0.03155 0.0
C157 C 0.81693 0.80587 0.01119 0.0
C158 C 0.76 0.76496 0.00401 0.0
C159 C 0.69888 0.79055 0.0246 0.0
C160 C 0.74623 0.74318 0.9598 0.0
C161 C 0.78683 0.72034 0.02314 0.0
C162 C 0.84923 0.73384 0.03874 0.0
C163 C 0.88414 0.69781 0.05696 0.0
C164 C 0.85414 0.64713 0.0596 0.0
C165 C 0.78974 0.63325 0.04438 0.0
C166 C 0.75609 0.67049 0.02588 0.0
H167 H 0.8182 0.16283 0.03854 0.0
H168 H 0.02201 0.19315 0.0184 0.0
H169 H 0.99711 0.28944 0.01431 0.0
H170 H 0.75705 0.22255 0.96967 0.0
H171 H 0.68649 0.25259 0.99501 0.0
H172 H 0.72203 0.1925 0.0075 0.0
H173 H 0.73717 0.24349 0.08017 0.0
H174 H 0.6999 0.30364 0.06821 0.0
H175 H 0.77962 0.30967 0.09204 0.0
H176 H 0.94517 0.37498 0.99828 0.0
H177 H 0.87332 0.44336 0.97708 0.0
H178 H 0.70344 0.35453 0.00609 0.0
C179 C 0.85813 0.19057 0.03515 0.0
C180 C 0.92209 0.17078 0.02914 0.0
C181 C 0.97295 0.20781 0.02393 0.0
C182 C 0.95904 0.26249 0.02126 0.0
C183 C 0.89431 0.27948 0.02451 0.0
C184 C 0.84494 0.24481 0.03228 0.0
C185 C 0.77842 0.26972 0.02956 0.0
C186 C 0.73344 0.2321 0.99859 0.0
C187 C 0.74693 0.2824 0.0699 0.0
C188 C 0.79744 0.32236 0.01676 0.0
C189 C 0.86447 0.32801 0.01471 0.0
C190 C 0.89276 0.37145 0.00061 0.0
C191 C 0.85153 0.40989 0.98837 0.0
C192 C 0.78272 0.40418 0.98978 0.0
C193 C 0.7558 0.36017 0.00469 0.0
H194 H 0.75221 0.64317 0.47742 0.0
H195 H 0.57927 0.70279 0.53928 0.0
H196 H 0.60725 0.79808 0.53242 0.0
H197 H 0.85103 0.73653 0.52656 0.0
H198 H 0.90443 0.746 0.48811 0.0
H199 H 0.85961 0.68206 0.48368 0.0
H200 H 0.8075 0.69279 0.41737 0.0
H201 H 0.85349 0.75667 0.42106 0.0
H202 H 0.76592 0.75544 0.41419 0.0
H203 H 0.66927 0.8872 0.53538 0.0
H204 H 0.75608 0.95965 0.54749 0.0
H205 H 0.89238 0.84204 0.48618 0.0
C206 C 0.71817 0.67596 0.48709 0.0
C207 C 0.66229 0.66578 0.50746 0.0
C208 C 0.62034 0.70959 0.52183 0.0
C209 C 0.63656 0.76392 0.51843 0.0
C210 C 0.69479 0.77335 0.50049 0.0
C211 C 0.73441 0.73015 0.48435 0.0
C212 C 0.79997 0.7512 0.47362 0.0
C213 C 0.85701 0.72758 0.49426 0.0
C214 C 0.80711 0.73827 0.4289 0.0
C215 C 0.7935 0.8127 0.48926 0.0
C216 C 0.7318 0.82498 0.50341 0.0
C217 C 0.71706 0.87817 0.52346 0.0
C218 C 0.76692 0.91913 0.53034 0.0
C219 C 0.83124 0.90652 0.51788 0.0
C220 C 0.84362 0.85317 0.49571 0.0
H221 H 0.75316 0.39741 0.48338 0.0
H222 H 0.55129 0.35504 0.50086 0.0
H223 H 0.58018 0.25644 0.49252 0.0
H224 H 0.78585 0.27244 0.40936 0.0
H225 H 0.86851 0.26927 0.42763 0.0
H226 H 0.82993 0.33516 0.4323 0.0
H227 H 0.85463 0.35559 0.5073 0.0
H228 H 0.89222 0.28941 0.503 0.0
H229 H 0.82581 0.30757 0.53581 0.0
H230 H 0.63489 0.16322 0.48826 0.0
H231 H 0.70728 0.08266 0.48078 0.0
H232 H 0.87177 0.18779 0.46473 0.0
C233 C 0.71473 0.36732 0.48482 0.0
C234 C 0.65 0.38386 0.49278 0.0
C235 C 0.60112 0.3432 0.49442 0.0
C236 C 0.61719 0.28718 0.49 0.0
C237 C 0.68212 0.27259 0.48344 0.0
C238 C 0.72976 0.31149 0.48013 0.0
C239 C 0.79603 0.28573 0.47347 0.0
C240 C 0.82156 0.29095 0.4333 0.0
C241 C 0.84503 0.31109 0.5069 0.0
C242 C 0.77872 0.22633 0.47429 0.0
C243 C 0.71292 0.2194 0.48021 0.0
C244 C 0.68633 0.16815 0.48318 0.0
C245 C 0.72789 0.12273 0.47917 0.0
C246 C 0.79513 0.1289 0.47205 0.0
C247 C 0.82056 0.18159 0.46994 0.0
H248 H 0.40551 0.34176 0.47576 0.0
H249 H 0.40045 0.47338 0.57903 0.0
H250 H 0.3583 0.40717 0.61707 0.0
H251 H 0.26562 0.2856 0.48253 0.0
H252 H 0.28401 0.21333 0.46726 0.0
H253 H 0.33398 0.26445 0.45175 0.0
H254 H 0.43762 0.22918 0.4817 0.0
H255 H 0.38836 0.17622 0.49631 0.0
H256 H 0.4391 0.22265 0.5322 0.0
H257 H 0.28447 0.33668 0.63594 0.0
H258 H 0.20222 0.26314 0.63807 0.0
H259 H 0.26041 0.17382 0.52404 0.0
C260 C 0.39962 0.35548 0.50705 0.0
C261 C 0.40733 0.41198 0.5249 0.0
C262 C 0.39672 0.42978 0.56536 0.0
C263 C 0.37221 0.39244 0.58701 0.0
C264 C 0.36024 0.33743 0.56779 0.0
C265 C 0.37603 0.31847 0.52899 0.0
C266 C 0.35044 0.25979 0.51351 0.0
C267 C 0.30587 0.25565 0.47663 0.0
C268 C 0.40726 0.21957 0.50547 0.0
C269 C 0.31225 0.25064 0.54823 0.0
C270 C 0.31934 0.2955 0.57951 0.0
C271 C 0.28066 0.3004 0.61234 0.0
C272 C 0.2336 0.25874 0.61314 0.0
C273 C 0.22584 0.21257 0.58146 0.0
C274 C 0.26682 0.20793 0.54912 0.0
H275 H 0.29335 0.64771 0.52782 0.0
H276 H 0.47972 0.71968 0.50692 0.0
H277 H 0.42653 0.809 0.50702 0.0
H278 H 0.20663 0.70095 0.46179 0.0
H279 H 0.13266 0.71263 0.4889 0.0
H280 H 0.18708 0.65971 0.49704 0.0
H281 H 0.1962 0.70421 0.57125 0.0
H282 H 0.14057 0.75689 0.56353 0.0
H283 H 0.21958 0.77631 0.5868 0.0
H284 H 0.34829 0.88564 0.49871 0.0
H285 H 0.25521 0.94148 0.48424 0.0
H286 H 0.12026 0.81547 0.50674 0.0
C287 C 0.3235 0.68295 0.52487 0.0
C288 C 0.39106 0.67718 0.51831 0.0
C289 C 0.42856 0.72373 0.51348 0.0
C290 C 0.39839 0.77444 0.51303 0.0
C291 C 0.33083 0.77777 0.5176 0.0
C292 C 0.2941 0.73321 0.52393 0.0
C293 C 0.22168 0.74436 0.52321 0.0
C294 C 0.18492 0.7019 0.4908 0.0
C295 C 0.19282 0.74553 0.56361 0.0
C296 C 0.2228 0.80132 0.51386 0.0
C297 C 0.28607 0.82055 0.51147 0.0
C298 C 0.29871 0.87117 0.50111 0.0
C299 C 0.24548 0.90256 0.49282 0.0
C300 C 0.18039 0.88282 0.49428 0.0
C301 C 0.16935 0.8318 0.50541 0.0
H302 H 0.10277 0.02569 0.17513 0.0
H303 H 0.91918 0.96935 0.1133 0.0
H304 H 0.87689 0.94688 0.17416 0.0
H305 H 0.11212 0.92112 0.22993 0.0
H306 H 0.14737 0.96596 0.27332 0.0
H307 H 0.16141 0.98061 0.22576 0.0
H308 H 0.11549 0.07891 0.24829 0.0
H309 H 0.10229 0.06492 0.29614 0.0
H310 H 0.03545 0.08667 0.26877 0.0
H311 H 0.85701 0.9276 0.24202 0.0
H312 H 0.85841 0.91854 0.31123 0.0
H313 H 0.05687 0.98565 0.32672 0.0
C314 C 0.05331 0.00919 0.17426 0.0
C315 C 0.01423 -0.00053 0.13932 0.0
C316 C 0.94986 0.97771 0.13974 0.0
C317 C 0.92562 0.96447 0.17411 0.0
C318 C 0.96635 0.97331 0.20771 0.0
C319 C 0.02864 -0.00436 0.20801 0.0
C320 C 0.06335 0.00048 0.24747 0.0
C321 C 0.12467 0.96491 0.24388 0.0
C322 C 0.08009 0.06136 0.26627 0.0
C323 C 0.01097 0.97722 0.26953 0.0
C324 C 0.95536 0.96171 0.24619 0.0
C325 C 0.90031 0.93967 0.2605 0.0
C326 C 0.90171 0.9345 0.29985 0.0
C327 C 0.95787 0.95117 0.32449 0.0
C328 C 0.01339 0.97203 0.30871 0.0
H329 H 0.97603 0.07836 0.87329 0.0
H330 H 0.09963 0.94418 0.88973 0.0
H331 H 0.13876 0.93512 0.82194 0.0
H332 H 0.92574 0.02621 0.77749 0.0
H333 H 0.92834 0.09122 0.76188 0.0
H334 H 0.91525 0.09021 0.81249 0.0
H335 H 0.01488 0.15682 0.83381 0.0
H336 H 0.028 0.15851 0.78318 0.0
H337 H 0.09316 0.13895 0.81287 0.0
H338 H 0.14917 0.93152 0.74889 0.0
H339 H 0.14234 0.94226 0.67974 0.0
H340 H 0.02097 0.08516 0.71419 0.0
C341 C 0.01242 0.04792 0.86278 0.0
C342 C 0.03496 0.01185 0.88629 0.0
C343 C 0.08241 0.97239 0.87196 0.0
C344 C 0.10461 0.96689 0.83358 0.0
C345 C 0.08009 0.00229 0.81061 0.0
C346 C 0.03634 0.04302 0.82512 0.0
C347 C 0.01631 0.07513 0.79449 0.0
C348 C 0.94202 0.07036 0.78611 0.0
C349 C 0.0395 0.13596 0.80683 0.0
C350 C 0.05343 0.04472 0.75992 0.0
C351 C 0.08973 0.0026 0.7696 0.0
C352 C 0.12248 0.96534 0.74125 0.0
C353 C 0.11811 0.97151 0.70212 0.0
C354 C 0.08226 0.01515 0.69201 0.0
C355 C 0.05028 0.05242 0.72141 0.0
H356 H 0.63348 0.4887 0.64832 0.0
H357 H 0.44598 0.56318 0.63633 0.0
H358 H 0.42054 0.55453 0.7042 0.0
H359 H 0.57837 0.39111 0.70757 0.0
H360 H 0.65412 0.3988 0.73587 0.0
H361 H 0.65332 0.40625 0.68557 0.0
H362 H 0.70856 0.50345 0.70734 0.0
H363 H 0.70928 0.49651 0.75762 0.0
H364 H 0.67086 0.55501 0.74394 0.0
H365 H 0.42387 0.54812 0.77681 0.0
H366 H 0.4518 0.54012 0.84461 0.0
H367 H 0.63514 0.46546 0.80616 0.0
C368 C 0.58667 0.50286 0.65972 0.0
C369 C 0.54193 0.52729 0.63732 0.0
C370 C 0.48091 0.54442 0.6531 0.0
C371 C 0.46622 0.53966 0.69155 0.0
C372 C 0.51263 0.51672 0.71323 0.0
C373 C 0.57122 0.4979 0.69746 0.0
C374 C 0.61442 0.47693 0.72672 0.0
C375 C 0.62569 0.41457 0.71312 0.0
C376 C 0.67959 0.50997 0.73435 0.0
C377 C 0.57219 0.48857 0.76218 0.0
C378 C 0.51341 0.51111 0.75392 0.0
C379 C 0.46877 0.52886 0.78316 0.0
C380 C 0.48467 0.52338 0.8216 0.0
C381 C 0.54444 0.49991 0.83042 0.0
C382 C 0.58846 0.48239 0.80016 0.0
H383 H 0.44782 0.49042 0.34649 0.0
H384 H 0.63277 0.54928 0.40574 0.0
H385 H 0.68142 0.54818 0.34138 0.0
H386 H 0.51376 0.3981 0.2649 0.0
H387 H 0.45298 0.41271 0.23041 0.0
H388 H 0.43337 0.41882 0.28112 0.0
H389 H 0.39909 0.52025 0.28493 0.0
H390 H 0.41865 0.51449 0.23422 0.0
H391 H 0.45606 0.56885 0.27135 0.0
H392 H 0.70945 0.53947 0.26958 0.0
H393 H 0.71435 0.52401 0.19731 0.0
H394 H 0.51008 0.47152 0.18697 0.0
C395 C 0.4986 0.50318 0.34618 0.0
C396 C 0.53643 0.51989 0.38129 0.0
C397 C 0.60274 0.53622 0.37927 0.0
C398 C 0.63079 0.53578 0.34285 0.0
C399 C 0.59185 0.51898 0.30885 0.0
C400 C 0.52718 0.50303 0.31033 0.0
C401 C 0.49554 0.48649 0.26982 0.0
C402 C 0.47259 0.42541 0.26106 0.0
C403 C 0.43901 0.52482 0.2648 0.0
C404 C 0.55254 0.49543 0.24511 0.0
C405 C 0.60773 0.5142 0.26801 0.0
C406 C 0.66646 0.52487 0.2514 0.0
C407 C 0.66874 0.51596 0.21033 0.0
C408 C 0.61259 0.49658 0.18639 0.0
C409 C 0.55389 0.48645 0.20429 0.0
loop_
_geom_bond_atom_site_label_1
_geom_bond_atom_site_label_2
_geom_bond_distance
_geom_bond_site_symmetry_2
_ccdc_geom_bond_type
O0 Mn1 2.163 1_655 S
O0 C14 1.244 . S
Mn1 O0 2.163 1_455 S
Mn1 O4 2.160 1_544 S
Mn1 O5 2.221 . S
Mn1 O7 2.163 . S
Mn1 O9 2.160 1_554 S
Mn1 O19 2.221 1_444 S
O2 Mn3 2.087 1_545 S
O2 C14 1.256 1_556 S
Mn3 O2 2.087 1_565 S
Mn3 O10 2.089 1_565 S
Mn3 O19 2.290 . S
Mn3 O20 2.251 . S
O4 Mn1 2.160 1_566 S
O4 C15 1.239 1_556 S
O5 Mn1 2.221 . S
O5 Mn6 2.290 . S
O5 C16 1.278 . S
Mn6 O5 2.290 . S
Mn6 O8 2.089 1_545 S
Mn6 O11 2.251 . S
Mn6 O12 2.087 . S
O7 Mn1 2.163 . S
O7 C17 1.244 . S
O8 Mn6 2.089 1_565 S
O8 C15 1.256 . S
O9 Mn1 2.160 1_556 S
O9 C18 1.239 . S
O10 Mn3 2.089 1_545 S
O10 C18 1.256 1_655 S
O11 Mn6 2.251 . S
O11 C16 1.241 . S
O12 Mn6 2.087 . S
O12 C17 1.256 . S
C13 O19 1.278 1_554 S
C13 O20 1.241 1_554 S
C14 O0 1.244 . S
C14 O2 1.256 1_554 S
C15 O4 1.239 1_554 S
C15 O8 1.256 . S
C16 O5 1.278 . S
C16 O11 1.241 . S
C17 O7 1.244 . S
C17 O12 1.256 . S
C18 O9 1.239 . S
C18 O10 1.256 1_455 S
O19 Mn1 2.221 1_666 S
O19 Mn3 2.290 . S
O19 C13 1.278 1_556 S
O20 Mn3 2.251 . S
O20 C13 1.241 1_556 S
O21 Mn22 2.163 . S
O21 C35 1.244 . S
Mn22 O21 2.163 . S
Mn22 O25 2.160 . S
Mn22 O26 2.221 . S
Mn22 O28 2.163 . S
Mn22 O30 2.160 . S
Mn22 O40 2.221 . S
O23 Mn24 2.087 . S
O23 C35 1.256 . S
Mn24 O23 2.087 . S
Mn24 O31 2.089 . S
Mn24 O40 2.290 . S
Mn24 O41 2.251 . S
O25 Mn22 2.160 . S
O25 C36 1.239 . S
O26 Mn22 2.221 . S
O26 Mn27 2.290 . S
O26 C37 1.278 . S
Mn27 O26 2.290 . S
Mn27 O29 2.089 . S
Mn27 O32 2.251 . S
Mn27 O33 2.087 . S
O28 Mn22 2.163 . S
O28 C38 1.244 . S
O29 Mn27 2.089 . S
O29 C36 1.256 . S
O30 Mn22 2.160 . S
O30 C39 1.239 . S
O31 Mn24 2.089 . S
O31 C39 1.256 . S
O32 Mn27 2.251 . S
O32 C37 1.241 . S
O33 Mn27 2.087 . S
O33 C38 1.256 . S
C34 O40 1.278 . S
C34 O41 1.241 . S
C35 O21 1.244 . S
C35 O23 1.256 . S
C36 O25 1.239 . S
C36 O29 1.256 . S
C37 O26 1.278 . S
C37 O32 1.241 . S
C38 O28 1.244 . S
C38 O33 1.256 . S
C39 O30 1.239 . S
C39 O31 1.256 . S
O40 Mn22 2.221 . S
O40 Mn24 2.290 . S
O40 C34 1.278 . S
O41 Mn24 2.251 . S
O41 C34 1.241 . S
O42 Cd43 2.300 . S
O42 C49 1.275 1_565 S
Cd43 O42 2.300 . S
Cd43 O51 2.381 . S
Cd43 O52 2.378 . S
O44 Cd45 2.385 . S
O44 C49 1.255 . S
Cd45 O44 2.385 . S
Cd45 O46 2.317 1_455 S
O46 Cd45 2.317 1_655 S
O46 C47 1.232 . S
C47 O46 1.232 . S
C47 O48 1.218 . S
O48 C47 1.218 . S
C49 O42 1.275 1_545 S
C49 O44 1.255 . S
C50 O51 1.258 . S
C50 O52 1.256 . S
O51 Cd43 2.381 . S
O51 C50 1.258 . S
O52 Cd43 2.378 . S
O52 C50 1.256 . S
O53 Cd54 2.300 . S
O53 C60 1.275 . S
Cd54 O53 2.300 . S
Cd54 O62 2.381 . S
Cd54 O63 2.378 . S
O55 Cd56 2.385 . S
O55 C60 1.255 1_565 S
Cd56 O55 2.385 . S
Cd56 O57 2.317 1_455 S
O57 Cd56 2.317 1_655 S
O57 C58 1.232 . S
C58 O57 1.232 . S
C58 O59 1.218 . S
O59 C58 1.218 . S
C60 O53 1.275 . S
C60 O55 1.255 1_545 S
C61 O62 1.258 . S
C61 O63 1.256 . S
O62 Cd54 2.381 . S
O62 C61 1.258 . S
O63 Cd54 2.378 . S
O63 C61 1.256 . S
O64 Cd65 2.300 . S
O64 C71 1.275 . S
Cd65 O64 2.300 . S
Cd65 O73 2.381 . S
Cd65 O74 2.378 . S
O66 Cd67 2.385 . S
O66 C71 1.255 . S
Cd67 O66 2.385 . S
Cd67 O68 2.317 . S
O68 Cd67 2.317 . S
O68 C69 1.232 . S
C69 O68 1.232 . S
C69 O70 1.218 . S
O70 C69 1.218 . S
C71 O64 1.275 . S
C71 O66 1.255 . S
C72 O73 1.258 . S
C72 O74 1.256 . S
O73 Cd65 2.381 . S
O73 C72 1.258 . S
O74 Cd65 2.378 . S
O74 C72 1.256 . S
O75 Cd76 2.300 . S
O75 C82 1.275 . S
Cd76 O75 2.300 . S
Cd76 O84 2.381 . S
Cd76 O85 2.378 . S
O77 Cd78 2.385 . S
O77 C82 1.255 . S
Cd78 O77 2.385 . S
Cd78 O79 2.317 . S
O79 Cd78 2.317 . S
O79 C80 1.232 . S
C80 O79 1.232 . S
C80 O81 1.218 . S
O81 C80 1.218 . S
C82 O75 1.275 . S
C82 O77 1.255 . S
C83 O84 1.258 . S
C83 O85 1.256 . S
O84 Cd76 2.381 . S
O84 C83 1.258 . S
O85 Cd76 2.378 . S
O85 C83 1.256 . S
H86 C98 0.930 . S
H87 C100 0.930 . S
H88 C101 0.930 . S
H89 C105 0.959 . S
H90 C105 0.959 . S
H91 C105 0.961 . S
H92 C106 0.960 . S
H93 C106 0.961 . S
H94 C106 0.959 . S
H95 C109 0.929 . S
H96 C110 0.931 . S
H97 C112 0.930 . S
C98 H86 0.930 . S
C98 C99 1.399 . S
C98 C103 1.399 . S
C99 C98 1.399 . S
C99 C100 1.376 1_554 S
C100 H87 0.930 . S
C100 C99 1.376 1_556 S
C100 C101 1.388 . S
C101 H88 0.930 . S
C101 C100 1.388 . S
C101 C102 1.390 1_556 S
C102 C101 1.390 1_554 S
C102 C103 1.394 . S
C102 C108 1.465 . S
C103 C98 1.399 . S
C103 C102 1.394 . S
C103 C104 1.516 . S
C104 C103 1.516 . S
C104 C105 1.502 . S
C104 C106 1.561 . S
C104 C107 1.526 . S
C105 H89 0.959 . S
C105 H90 0.959 . S
C105 H91 0.961 . S
C105 C104 1.502 . S
C106 H92 0.960 . S
C106 H93 0.961 . S
C106 H94 0.959 . S
C106 C104 1.561 . S
C107 C104 1.526 . S
C107 C108 1.396 . S
C107 C112 1.390 . S
C108 C102 1.465 . S
C108 C107 1.396 . S
C108 C109 1.399 1_554 S
C109 H95 0.929 . S
C109 C108 1.399 1_556 S
C109 C110 1.385 . S
C110 H96 0.931 . S
C110 C109 1.385 . S
C110 C111 1.389 1_556 S
C111 C110 1.389 1_554 S
C111 C112 1.387 . S
C112 H97 0.930 . S
C112 C107 1.390 . S
C112 C111 1.387 . S
H113 C125 0.930 . S
H114 C127 0.930 . S
H115 C128 0.930 . S
H116 C132 0.959 . S
H117 C132 0.959 . S
H118 C132 0.961 . S
H119 C133 0.960 . S
H120 C133 0.961 . S
H121 C133 0.959 . S
H122 C136 0.929 . S
H123 C137 0.931 . S
H124 C139 0.930 . S
C125 H113 0.930 . S
C125 C126 1.399 1_554 S
C125 C130 1.399 . S
C126 C125 1.399 1_556 S
C126 C127 1.376 . S
C127 H114 0.930 . S
C127 C126 1.376 . S
C127 C128 1.388 . S
C128 H115 0.930 . S
C128 C127 1.388 . S
C128 C129 1.390 . S
C129 C128 1.390 . S
C129 C130 1.394 1_556 S
C129 C135 1.465 . S
C130 C125 1.399 . S
C130 C129 1.394 1_554 S
C130 C131 1.516 . S
C131 C130 1.516 . S
C131 C132 1.502 . S
C131 C133 1.561 . S
C131 C134 1.526 . S
C132 H116 0.959 . S
C132 H117 0.959 . S
C132 H118 0.961 . S
C132 C131 1.502 . S
C133 H119 0.960 . S
C133 H120 0.961 . S
C133 H121 0.959 . S
C133 C131 1.561 . S
C134 C131 1.526 . S
C134 C135 1.396 1_554 S
C134 C139 1.390 . S
C135 C129 1.465 . S
C135 C134 1.396 1_556 S
C135 C136 1.399 . S
C136 H122 0.929 . S
C136 C135 1.399 . S
C136 C137 1.385 . S
C137 H123 0.931 . S
C137 C136 1.385 . S
C137 C138 1.389 . S
C138 C137 1.389 . S
C138 C139 1.387 1_556 S
C139 H124 0.930 . S
C139 C134 1.390 . S
C139 C138 1.387 1_554 S
H140 C152 0.930 . S
H141 C154 0.930 . S
H142 C155 0.930 . S
H143 C159 0.959 . S
H144 C159 0.959 . S
H145 C159 0.961 . S
H146 C160 0.960 . S
H147 C160 0.961 . S
H148 C160 0.959 . S
H149 C163 0.929 . S
H150 C164 0.931 . S
H151 C166 0.930 . S
C152 H140 0.930 . S
C152 C153 1.399 . S
C152 C157 1.399 . S
C153 C152 1.399 . S
C153 C154 1.376 1_554 S
C154 H141 0.930 . S
C154 C153 1.376 1_556 S
C154 C155 1.388 . S
C155 H142 0.930 . S
C155 C154 1.388 . S
C155 C156 1.390 1_556 S
C156 C155 1.390 1_554 S
C156 C157 1.394 . S
C156 C162 1.465 . S
C157 C152 1.399 . S
C157 C156 1.394 . S
C157 C158 1.516 . S
C158 C157 1.516 . S
C158 C159 1.502 . S
C158 C160 1.561 . S
C158 C161 1.526 . S
C159 H143 0.959 . S
C159 H144 0.959 . S
C159 H145 0.961 . S
C159 C158 1.502 . S
C160 H146 0.960 . S
C160 H147 0.961 . S
C160 H148 0.959 . S
C160 C158 1.561 . S
C161 C158 1.526 . S
C161 C162 1.396 . S
C161 C166 1.390 . S
C162 C156 1.465 . S
C162 C161 1.396 . S
C162 C163 1.399 1_554 S
C163 H149 0.929 . S
C163 C162 1.399 1_556 S
C163 C164 1.385 . S
C164 H150 0.931 . S
C164 C163 1.385 . S
C164 C165 1.389 1_556 S
C165 C164 1.389 1_554 S
C165 C166 1.387 . S
C166 H151 0.930 . S
C166 C161 1.390 . S
C166 C165 1.387 . S
H167 C179 0.930 . S
H168 C181 0.930 . S
H169 C182 0.930 . S
H170 C186 0.959 . S
H171 C186 0.959 . S
H172 C186 0.961 . S
H173 C187 0.960 . S
H174 C187 0.961 . S
H175 C187 0.959 . S
H176 C190 0.929 . S
H177 C191 0.931 . S
H178 C193 0.930 . S
C179 H167 0.930 . S
C179 C180 1.399 . S
C179 C184 1.399 . S
C180 C179 1.399 . S
C180 C181 1.376 1_554 S
C181 H168 0.930 . S
C181 C180 1.376 1_556 S
C181 C182 1.388 . S
C182 H169 0.930 . S
C182 C181 1.388 . S
C182 C183 1.390 . S
C183 C182 1.390 . S
C183 C184 1.394 1_556 S
C183 C189 1.465 . S
C184 C179 1.399 . S
C184 C183 1.394 1_554 S
C184 C185 1.516 . S
C185 C184 1.516 . S
C185 C186 1.502 1_554 S
C185 C187 1.561 . S
C185 C188 1.526 1_554 S
C186 H170 0.959 . S
C186 H171 0.959 . S
C186 H172 0.961 . S
C186 C185 1.502 1_556 S
C187 H173 0.960 . S
C187 H174 0.961 . S
C187 H175 0.959 . S
C187 C185 1.561 . S
C188 C185 1.526 1_556 S
C188 C189 1.396 . S
C188 C193 1.390 . S
C189 C183 1.465 . S
C189 C188 1.396 . S
C189 C190 1.399 . S
C190 H176 0.929 . S
C190 C189 1.399 . S
C190 C191 1.385 . S
C191 H177 0.931 . S
C191 C190 1.385 . S
C191 C192 1.389 . S
C192 C191 1.389 . S
C192 C193 1.387 . S
C193 H178 0.930 . S
C193 C188 1.390 . S
C193 C192 1.387 . S
H194 C206 0.930 . S
H195 C208 0.930 . S
H196 C209 0.930 . S
H197 C213 0.959 . S
H198 C213 0.959 . S
H199 C213 0.961 . S
H200 C214 0.960 . S
H201 C214 0.961 . S
H202 C214 0.959 . S
H203 C217 0.929 . S
H204 C218 0.931 . S
H205 C220 0.930 . S
C206 H194 0.930 . S
C206 C207 1.399 . S
C206 C211 1.399 . S
C207 C206 1.399 . S
C207 C208 1.376 . S
C208 H195 0.930 . S
C208 C207 1.376 . S
C208 C209 1.388 . S
C209 H196 0.930 . S
C209 C208 1.388 . S
C209 C210 1.390 . S
C210 C209 1.390 . S
C210 C211 1.394 . S
C210 C216 1.465 . S
C211 C206 1.399 . S
C211 C210 1.394 . S
C211 C212 1.516 . S
C212 C211 1.516 . S
C212 C213 1.502 . S
C212 C214 1.561 . S
C212 C215 1.526 . S
C213 H197 0.959 . S
C213 H198 0.959 . S
C213 H199 0.961 . S
C213 C212 1.502 . S
C214 H200 0.960 . S
C214 H201 0.961 . S
C214 H202 0.959 . S
C214 C212 1.561 . S
C215 C212 1.526 . S
C215 C216 1.396 . S
C215 C220 1.390 . S
C216 C210 1.465 . S
C216 C215 1.396 . S
C216 C217 1.399 . S
C217 H203 0.929 . S
C217 C216 1.399 . S
C217 C218 1.385 . S
C218 H204 0.931 . S
C218 C217 1.385 . S
C218 C219 1.389 . S
C219 C218 1.389 . S
C219 C220 1.387 . S
C220 H205 0.930 . S
C220 C215 1.390 . S
C220 C219 1.387 . S
H221 C233 0.930 . S
H222 C235 0.930 . S
H223 C236 0.930 . S
H224 C240 0.959 . S
H225 C240 0.959 . S
H226 C240 0.961 . S
H227 C241 0.960 . S
H228 C241 0.961 . S
H229 C241 0.959 . S
H230 C244 0.929 . S
H231 C245 0.931 . S
H232 C247 0.930 . S
C233 H221 0.930 . S
C233 C234 1.399 . S
C233 C238 1.399 . S
C234 C233 1.399 . S
C234 C235 1.376 . S
C235 H222 0.930 . S
C235 C234 1.376 . S
C235 C236 1.388 . S
C236 H223 0.930 . S
C236 C235 1.388 . S
C236 C237 1.390 . S
C237 C236 1.390 . S
C237 C238 1.394 . S
C237 C243 1.465 . S
C238 C233 1.399 . S
C238 C237 1.394 . S
C238 C239 1.516 . S
C239 C238 1.516 . S
C239 C240 1.502 . S
C239 C241 1.561 . S
C239 C242 1.526 . S
C240 H224 0.959 . S
C240 H225 0.959 . S
C240 H226 0.961 . S
C240 C239 1.502 . S
C241 H227 0.960 . S
C241 H228 0.961 . S
C241 H229 0.959 . S
C241 C239 1.561 . S
C242 C239 1.526 . S
C242 C243 1.396 . S
C242 C247 1.390 . S
C243 C237 1.465 . S
C243 C242 1.396 . S
C243 C244 1.399 . S
C244 H230 0.929 . S
C244 C243 1.399 . S
C244 C245 1.385 . S
C245 H231 0.931 . S
C245 C244 1.385 . S
C245 C246 1.389 . S
C246 C245 1.389 . S
C246 C247 1.387 . S
C247 H232 0.930 . S
C247 C242 1.390 . S
C247 C246 1.387 . S
H248 C260 0.930 . S
H249 C262 0.930 . S
H250 C263 0.930 . S
H251 C267 0.959 . S
H252 C267 0.959 . S
H253 C267 0.961 . S
H254 C268 0.960 . S
H255 C268 0.961 . S
H256 C268 0.959 . S
H257 C271 0.929 . S
H258 C272 0.931 . S
H259 C274 0.930 . S
C260 H248 0.930 . S
C260 C261 1.399 . S
C260 C265 1.399 . S
C261 C260 1.399 . S
C261 C262 1.376 . S
C262 H249 0.930 . S
C262 C261 1.376 . S
C262 C263 1.388 . S
C263 H250 0.930 . S
C263 C262 1.388 . S
C263 C264 1.390 . S
C264 C263 1.390 . S
C264 C265 1.394 . S
C264 C270 1.465 . S
C265 C260 1.399 . S
C265 C264 1.394 . S
C265 C266 1.516 . S
C266 C265 1.516 . S
C266 C267 1.502 . S
C266 C268 1.561 . S
C266 C269 1.526 . S
C267 H251 0.959 . S
C267 H252 0.959 . S
C267 H253 0.961 . S
C267 C266 1.502 . S
C268 H254 0.960 . S
C268 H255 0.961 . S
C268 H256 0.959 . S
C268 C266 1.561 . S
C269 C266 1.526 . S
C269 C270 1.396 . S
C269 C274 1.390 . S
C270 C264 1.465 . S
C270 C269 1.396 . S
C270 C271 1.399 . S
C271 H257 0.929 . S
C271 C270 1.399 . S
C271 C272 1.385 . S
C272 H258 0.931 . S
C272 C271 1.385 . S
C272 C273 1.389 . S
C273 C272 1.389 . S
C273 C274 1.387 . S
C274 H259 0.930 . S
C274 C269 1.390 . S
C274 C273 1.387 . S
H275 C287 0.930 . S
H276 C289 0.930 . S
H277 C290 0.930 . S
H278 C294 0.959 . S
H279 C294 0.959 . S
H280 C294 0.961 . S
H281 C295 0.960 . S
H282 C295 0.961 . S
H283 C295 0.959 . S
H284 C298 0.929 . S
H285 C299 0.931 . S
H286 C301 0.930 . S
C287 H275 0.930 . S
C287 C288 1.399 . S
C287 C292 1.399 . S
C288 C287 1.399 . S
C288 C289 1.376 . S
C289 H276 0.930 . S
C289 C288 1.376 . S
C289 C290 1.388 . S
C290 H277 0.930 . S
C290 C289 1.388 . S
C290 C291 1.390 . S
C291 C290 1.390 . S
C291 C292 1.394 . S
C291 C297 1.465 . S
C292 C287 1.399 . S
C292 C291 1.394 . S
C292 C293 1.516 . S
C293 C292 1.516 . S
C293 C294 1.502 . S
C293 C295 1.561 . S
C293 C296 1.526 . S
C294 H278 0.959 . S
C294 H279 0.959 . S
C294 H280 0.961 . S
C294 C293 1.502 . S
C295 H281 0.960 . S
C295 H282 0.961 . S
C295 H283 0.959 . S
C295 C293 1.561 . S
C296 C293 1.526 . S
C296 C297 1.396 . S
C296 C301 1.390 . S
C297 C291 1.465 . S
C297 C296 1.396 . S
C297 C298 1.399 . S
C298 H284 0.929 . S
C298 C297 1.399 . S
C298 C299 1.385 . S
C299 H285 0.931 . S
C299 C298 1.385 . S
C299 C300 1.389 . S
C300 C299 1.389 . S
C300 C301 1.387 . S
C301 H286 0.930 . S
C301 C296 1.390 . S
C301 C300 1.387 . S
H302 C314 0.922 1_655 S
H303 C316 0.930 . S
H304 C317 0.930 . S
H305 C321 0.959 . S
H306 C321 0.959 . S
H307 C321 0.961 . S
H308 C322 0.960 . S
H309 C322 0.961 . S
H310 C322 0.959 . S
H311 C325 0.929 . S
H312 C326 0.931 . S
H313 C328 0.924 1_655 S
C314 H302 0.922 1_455 S
C314 C315 1.399 1_565 S
C314 C319 1.399 . S
C315 C314 1.399 1_545 S
C315 C316 1.376 . S
C316 H303 0.930 . S
C316 C315 1.376 . S
C316 C317 1.388 . S
C317 H304 0.930 . S
C317 C316 1.388 . S
C317 C318 1.390 . S
C318 C317 1.390 . S
C318 C319 1.394 1_545 S
C318 C324 1.465 . S
C319 C314 1.399 . S
C319 C318 1.394 1_565 S
C319 C320 1.516 . S
C320 C319 1.516 . S
C320 C321 1.502 1_455 S
C320 C322 1.561 . S
C320 C323 1.526 . S
C321 H305 0.959 . S
C321 H306 0.959 . S
C321 H307 0.961 . S
C321 C320 1.502 1_655 S
C322 H308 0.960 . S
C322 H309 0.961 . S
C322 H310 0.959 . S
C322 C320 1.561 . S
C323 C320 1.526 . S
C323 C324 1.396 1_565 S
C323 C328 1.390 . S
C324 C318 1.465 . S
C324 C323 1.396 1_545 S
C324 C325 1.399 . S
C325 H311 0.929 . S
C325 C324 1.399 . S
C325 C326 1.385 . S
C326 H312 0.931 . S
C326 C325 1.385 . S
C326 C327 1.389 . S
C327 C326 1.389 . S
C327 C328 1.387 1_545 S
C328 H313 0.924 1_455 S
C328 C323 1.390 . S
C328 C327 1.387 1_565 S
H329 C341 0.930 . S
H330 C343 0.930 . S
H331 C344 0.930 . S
H332 C348 0.959 . S
H333 C348 0.959 . S
H334 C348 0.961 . S
H335 C349 0.960 . S
H336 C349 0.961 . S
H337 C349 0.959 1_455 S
H338 C352 0.929 . S
H339 C353 0.931 . S
H340 C355 0.930 . S
C341 H329 0.930 . S
C341 C342 1.399 1_655 S
C341 C346 1.399 . S
C342 C341 1.399 1_455 S
C342 C343 1.376 1_545 S
C343 H330 0.930 . S
C343 C342 1.376 1_565 S
C343 C344 1.388 . S
C344 H331 0.930 . S
C344 C343 1.388 . S
C344 C345 1.390 1_565 S
C345 C344 1.390 1_545 S
C345 C346 1.394 1_455 S
C345 C351 1.465 . S
C346 C341 1.399 . S
C346 C345 1.394 1_655 S
C346 C347 1.516 . S
C347 C346 1.516 . S
C347 C348 1.502 . S
C347 C349 1.561 . S
C347 C350 1.526 . S
C348 H332 0.959 . S
C348 H333 0.959 . S
C348 H334 0.961 . S
C348 C347 1.502 . S
C349 H335 0.960 . S
C349 H336 0.961 . S
C349 H337 0.959 1_655 S
C349 C347 1.561 . S
C350 C347 1.526 . S
C350 C351 1.396 1_655 S
C350 C355 1.390 . S
C351 C345 1.465 . S
C351 C350 1.396 1_455 S
C351 C352 1.399 1_545 S
C352 H338 0.929 . S
C352 C351 1.399 1_565 S
C352 C353 1.385 . S
C353 H339 0.931 . S
C353 C352 1.385 . S
C353 C354 1.389 1_565 S
C354 C353 1.389 1_545 S
C354 C355 1.387 1_455 S
C355 H340 0.930 . S
C355 C350 1.390 . S
C355 C354 1.387 1_655 S
H356 C368 0.930 . S
H357 C370 0.930 . S
H358 C371 0.930 . S
H359 C375 0.959 . S
H360 C375 0.959 . S
H361 C375 0.961 . S
H362 C376 0.960 . S
H363 C376 0.961 . S
H364 C376 0.959 . S
H365 C379 0.929 . S
H366 C380 0.931 . S
H367 C382 0.930 . S
C368 H356 0.930 . S
C368 C369 1.399 . S
C368 C373 1.399 . S
C369 C368 1.399 . S
C369 C370 1.376 . S
C370 H357 0.930 . S
C370 C369 1.376 . S
C370 C371 1.388 . S
C371 H358 0.930 . S
C371 C370 1.388 . S
C371 C372 1.390 . S
C372 C371 1.390 . S
C372 C373 1.394 . S
C372 C378 1.465 . S
C373 C368 1.399 . S
C373 C372 1.394 . S
C373 C374 1.516 . S
C374 C373 1.516 . S
C374 C375 1.502 . S
C374 C376 1.561 . S
C374 C377 1.526 . S
C375 H359 0.959 . S
C375 H360 0.959 . S
C375 H361 0.961 . S
C375 C374 1.502 . S
C376 H362 0.960 . S
C376 H363 0.961 . S
C376 H364 0.959 . S
C376 C374 1.561 . S
C377 C374 1.526 . S
C377 C378 1.396 . S
C377 C382 1.390 . S
C378 C372 1.465 . S
C378 C377 1.396 . S
C378 C379 1.399 . S
C379 H365 0.929 . S
C379 C378 1.399 . S
C379 C380 1.385 . S
C380 H366 0.931 . S
C380 C379 1.385 . S
C380 C381 1.389 . S
C381 C380 1.389 . S
C381 C382 1.387 . S
C382 H367 0.930 . S
C382 C377 1.390 . S
C382 C381 1.387 . S
H383 C395 0.930 . S
H384 C397 0.930 . S
H385 C398 0.930 . S
H386 C402 0.959 . S
H387 C402 0.959 . S
H388 C402 0.961 . S
H389 C403 0.960 . S
H390 C403 0.961 . S
H391 C403 0.959 . S
H392 C406 0.929 . S
H393 C407 0.931 . S
H394 C409 0.930 . S
C395 H383 0.930 . S
C395 C396 1.399 . S
C395 C400 1.399 . S
C396 C395 1.399 . S
C396 C397 1.376 . S
C397 H384 0.930 . S
C397 C396 1.376 . S
C397 C398 1.388 . S
C398 H385 0.930 . S
C398 C397 1.388 . S
C398 C399 1.390 . S
C399 C398 1.390 . S
C399 C400 1.394 . S
C399 C405 1.465 . S
C400 C395 1.399 . S
C400 C399 1.394 . S
C400 C401 1.516 . S
C401 C400 1.516 . S
C401 C402 1.502 . S
C401 C403 1.561 . S
C401 C404 1.526 . S
C402 H386 0.959 . S
C402 H387 0.959 . S
C402 H388 0.961 . S
C402 C401 1.502 . S
C403 H389 0.960 . S
C403 H390 0.961 . S
C403 H391 0.959 . S
C403 C401 1.561 . S
C404 C401 1.526 . S
C404 C405 1.396 . S
C404 C409 1.390 . S
C405 C399 1.465 . S
C405 C404 1.396 . S
C405 C406 1.399 . S
C406 H392 0.929 . S
C406 C405 1.399 . S
C406 C407 1.385 . S
C407 H393 0.931 . S
C407 C406 1.385 . S
C407 C408 1.389 . S
C408 C407 1.389 . S
C408 C409 1.387 . S
C409 H394 0.930 . S
C409 C404 1.390 . S
C409 C408 1.387 . S
C111 C80 1.209 . S
C99 C16 1.288 . S
C126 C15 1.498 1_556 S
C138 C69 1.256 . S
C153 C13 1.212 . S
C165 C83 1.452 . S
C180 C14 1.396 . S
C192 C72 1.359 . S
C207 C37 1.250 . S
C219 C58 1.186 . S
C234 C36 1.444 . S
C246 C47 1.275 . S
C273 C61 1.402 . S
C261 C34 1.344 . S
C300 C50 1.352 . S
C288 C35 1.371 . S
C315 C17 1.480 . S
C327 C49 1.494 . S
C342 C18 1.413 . S
C354 C60 1.334 . S
C381 C71 1.495 . S
C369 C38 1.480 . S
C396 C39 1.354 . S
C408 C82 1.383 . S
