# Generated by pormake.
# Topology gar, (4,6)-cn, num edge types: 1
# Building blocks:
#     Node 0, Type 0, BuildingBlock: NAHDIM_clean_sbu_0, # of connection points: 4
#     Node 1, Type 0, BuildingBlock: NAHDIM_clean_sbu_0, # of connection points: 4
#     Node 2, Type 0, BuildingBlock: NAHDIM_clean_sbu_0, # of connection points: 4
#     Node 3, Type 0, BuildingBlock: NAHDIM_clean_sbu_0, # of connection points: 4
#     Node 4, Type 0, BuildingBlock: NAHDIM_clean_sbu_0, # of connection points: 4
#     Node 5, Type 0, BuildingBlock: NAHDIM_clean_sbu_0, # of connection points: 4
#     Node 6, Type 0, BuildingBlock: NAHDIM_clean_sbu_0, # of connection points: 4
#     Node 7, Type 0, BuildingBlock: NAHDIM_clean_sbu_0, # of connection points: 4
#     Node 8, Type 0, BuildingBlock: NAHDIM_clean_sbu_0, # of connection points: 4
#     Node 9, Type 0, BuildingBlock: NAHDIM_clean_sbu_0, # of connection points: 4
#     Node 10, Type 0, BuildingBlock: NAHDIM_clean_sbu_0, # of connection points: 4
#     Node 11, Type 0, BuildingBlock: NAHDIM_clean_sbu_0, # of connection points: 4
#     Node 12, Type 0, BuildingBlock: NAHDIM_clean_sbu_0, # of connection points: 4
#     Node 13, Type 0, BuildingBlock: NAHDIM_clean_sbu_0, # of connection points: 4
#     Node 14, Type 0, BuildingBlock: NAHDIM_clean_sbu_0, # of connection points: 4
#     Node 15, Type 0, BuildingBlock: NAHDIM_clean_sbu_0, # of connection points: 4
#     Node 16, Type 0, BuildingBlock: NAHDIM_clean_sbu_0, # of connection points: 4
#     Node 17, Type 0, BuildingBlock: NAHDIM_clean_sbu_0, # of connection points: 4
#     Node 18, Type 0, BuildingBlock: NAHDIM_clean_sbu_0, # of connection points: 4
#     Node 19, Type 0, BuildingBlock: NAHDIM_clean_sbu_0, # of connection points: 4
#     Node 20, Type 0, BuildingBlock: NAHDIM_clean_sbu_0, # of connection points: 4
#     Node 21, Type 0, BuildingBlock: NAHDIM_clean_sbu_0, # of connection points: 4
#     Node 22, Type 0, BuildingBlock: NAHDIM_clean_sbu_0, # of connection points: 4
#     Node 23, Type 0, BuildingBlock: NAHDIM_clean_sbu_0, # of connection points: 4
#     Node 24, Type 1, BuildingBlock: KUMBUR_clean_sbu_0, # of connection points: 6
#     Node 25, Type 1, BuildingBlock: KUMBUR_clean_sbu_0, # of connection points: 6
#     Node 26, Type 1, BuildingBlock: KUMBUR_clean_sbu_0, # of connection points: 6
#     Node 27, Type 1, BuildingBlock: KUMBUR_clean_sbu_0, # of connection points: 6
#     Node 28, Type 1, BuildingBlock: KUMBUR_clean_sbu_0, # of connection points: 6
#     Node 29, Type 1, BuildingBlock: KUMBUR_clean_sbu_0, # of connection points: 6
#     Node 30, Type 1, BuildingBlock: KUMBUR_clean_sbu_0, # of connection points: 6
#     Node 31, Type 1, BuildingBlock: KUMBUR_clean_sbu_0, # of connection points: 6
#     Node 32, Type 1, BuildingBlock: KUMBUR_clean_sbu_0, # of connection points: 6
#     Node 33, Type 1, BuildingBlock: KUMBUR_clean_sbu_0, # of connection points: 6
#     Node 34, Type 1, BuildingBlock: KUMBUR_clean_sbu_0, # of connection points: 6
#     Node 35, Type 1, BuildingBlock: KUMBUR_clean_sbu_0, # of connection points: 6
#     Node 36, Type 1, BuildingBlock: KUMBUR_clean_sbu_0, # of connection points: 6
#     Node 37, Type 1, BuildingBlock: KUMBUR_clean_sbu_0, # of connection points: 6
#     Node 38, Type 1, BuildingBlock: KUMBUR_clean_sbu_0, # of connection points: 6
#     Node 39, Type 1, BuildingBlock: KUMBUR_clean_sbu_0, # of connection points: 6
#     Edge 40, Type (0, 1), BuildingBlock: XIVTED_clean_linker_0, # of connection points: 2
#     Edge 41, Type (0, 1), BuildingBlock: XIVTED_clean_linker_0, # of connection points: 2
#     Edge 42, Type (0, 1), BuildingBlock: XIVTED_clean_linker_0, # of connection points: 2
#     Edge 43, Type (0, 1), BuildingBlock: XIVTED_clean_linker_0, # of connection points: 2
#     Edge 44, Type (0, 1), BuildingBlock: XIVTED_clean_linker_0, # of connection points: 2
#     Edge 45, Type (0, 1), BuildingBlock: XIVTED_clean_linker_0, # of connection points: 2
#     Edge 46, Type (0, 1), BuildingBlock: XIVTED_clean_linker_0, # of connection points: 2
#     Edge 47, Type (0, 1), BuildingBlock: XIVTED_clean_linker_0, # of connection points: 2
#     Edge 48, Type (0, 1), BuildingBlock: XIVTED_clean_linker_0, # of connection points: 2
#     Edge 49, Type (0, 1), BuildingBlock: XIVTED_clean_linker_0, # of connection points: 2
#     Edge 50, Type (0, 1), BuildingBlock: XIVTED_clean_linker_0, # of connection points: 2
#     Edge 51, Type (0, 1), BuildingBlock: XIVTED_clean_linker_0, # of connection points: 2
#     Edge 52, Type (0, 1), BuildingBlock: XIVTED_clean_linker_0, # of connection points: 2
#     Edge 53, Type (0, 1), BuildingBlock: XIVTED_clean_linker_0, # of connection points: 2
#     Edge 54, Type (0, 1), BuildingBlock: XIVTED_clean_linker_0, # of connection points: 2
#     Edge 55, Type (0, 1), BuildingBlock: XIVTED_clean_linker_0, # of connection points: 2
#     Edge 56, Type (0, 1), BuildingBlock: XIVTED_clean_linker_0, # of connection points: 2
#     Edge 57, Type (0, 1), BuildingBlock: XIVTED_clean_linker_0, # of connection points: 2
#     Edge 58, Type (0, 1), BuildingBlock: XIVTED_clean_linker_0, # of connection points: 2
#     Edge 59, Type (0, 1), BuildingBlock: XIVTED_clean_linker_0, # of connection points: 2
#     Edge 60, Type (0, 1), BuildingBlock: XIVTED_clean_linker_0, # of connection points: 2
#     Edge 61, Type (0, 1), BuildingBlock: XIVTED_clean_linker_0, # of connection points: 2
#     Edge 62, Type (0, 1), BuildingBlock: XIVTED_clean_linker_0, # of connection points: 2
#     Edge 63, Type (0, 1), BuildingBlock: XIVTED_clean_linker_0, # of connection points: 2
#     Edge 64, Type (0, 1), BuildingBlock: XIVTED_clean_linker_0, # of connection points: 2
#     Edge 65, Type (0, 1), BuildingBlock: XIVTED_clean_linker_0, # of connection points: 2
#     Edge 66, Type (0, 1), BuildingBlock: XIVTED_clean_linker_0, # of connection points: 2
#     Edge 67, Type (0, 1), BuildingBlock: XIVTED_clean_linker_0, # of connection points: 2
#     Edge 68, Type (0, 1), BuildingBlock: XIVTED_clean_linker_0, # of connection points: 2
#     Edge 69, Type (0, 1), BuildingBlock: XIVTED_clean_linker_0, # of connection points: 2
#     Edge 70, Type (0, 1), BuildingBlock: XIVTED_clean_linker_0, # of connection points: 2
#     Edge 71, Type (0, 1), BuildingBlock: XIVTED_clean_linker_0, # of connection points: 2
#     Edge 72, Type (0, 1), BuildingBlock: XIVTED_clean_linker_0, # of connection points: 2
#     Edge 73, Type (0, 1), BuildingBlock: XIVTED_clean_linker_0, # of connection points: 2
#     Edge 74, Type (0, 1), BuildingBlock: XIVTED_clean_linker_0, # of connection points: 2
#     Edge 75, Type (0, 1), BuildingBlock: XIVTED_clean_linker_0, # of connection points: 2
#     Edge 76, Type (0, 1), BuildingBlock: XIVTED_clean_linker_0, # of connection points: 2
#     Edge 77, Type (0, 1), BuildingBlock: XIVTED_clean_linker_0, # of connection points: 2
#     Edge 78, Type (0, 1), BuildingBlock: XIVTED_clean_linker_0, # of connection points: 2
#     Edge 79, Type (0, 1), BuildingBlock: XIVTED_clean_linker_0, # of connection points: 2
#     Edge 80, Type (0, 1), BuildingBlock: XIVTED_clean_linker_0, # of connection points: 2
#     Edge 81, Type (0, 1), BuildingBlock: XIVTED_clean_linker_0, # of connection points: 2
#     Edge 82, Type (0, 1), BuildingBlock: XIVTED_clean_linker_0, # of connection points: 2
#     Edge 83, Type (0, 1), BuildingBlock: XIVTED_clean_linker_0, # of connection points: 2
#     Edge 84, Type (0, 1), BuildingBlock: XIVTED_clean_linker_0, # of connection points: 2
#     Edge 85, Type (0, 1), BuildingBlock: XIVTED_clean_linker_0, # of connection points: 2
#     Edge 86, Type (0, 1), BuildingBlock: XIVTED_clean_linker_0, # of connection points: 2
#     Edge 87, Type (0, 1), BuildingBlock: XIVTED_clean_linker_0, # of connection points: 2
#     Edge 88, Type (0, 1), BuildingBlock: XIVTED_clean_linker_0, # of connection points: 2
#     Edge 89, Type (0, 1), BuildingBlock: XIVTED_clean_linker_0, # of connection points: 2
#     Edge 90, Type (0, 1), BuildingBlock: XIVTED_clean_linker_0, # of connection points: 2
#     Edge 91, Type (0, 1), BuildingBlock: XIVTED_clean_linker_0, # of connection points: 2
#     Edge 92, Type (0, 1), BuildingBlock: XIVTED_clean_linker_0, # of connection points: 2
#     Edge 93, Type (0, 1), BuildingBlock: XIVTED_clean_linker_0, # of connection points: 2
#     Edge 94, Type (0, 1), BuildingBlock: XIVTED_clean_linker_0, # of connection points: 2
#     Edge 95, Type (0, 1), BuildingBlock: XIVTED_clean_linker_0, # of connection points: 2
#     Edge 96, Type (0, 1), BuildingBlock: XIVTED_clean_linker_0, # of connection points: 2
#     Edge 97, Type (0, 1), BuildingBlock: XIVTED_clean_linker_0, # of connection points: 2
#     Edge 98, Type (0, 1), BuildingBlock: XIVTED_clean_linker_0, # of connection points: 2
#     Edge 99, Type (0, 1), BuildingBlock: XIVTED_clean_linker_0, # of connection points: 2
#     Edge 100, Type (0, 1), BuildingBlock: XIVTED_clean_linker_0, # of connection points: 2
#     Edge 101, Type (0, 1), BuildingBlock: XIVTED_clean_linker_0, # of connection points: 2
#     Edge 102, Type (0, 1), BuildingBlock: XIVTED_clean_linker_0, # of connection points: 2
#     Edge 103, Type (0, 1), BuildingBlock: XIVTED_clean_linker_0, # of connection points: 2
#     Edge 104, Type (0, 1), BuildingBlock: XIVTED_clean_linker_0, # of connection points: 2
#     Edge 105, Type (0, 1), BuildingBlock: XIVTED_clean_linker_0, # of connection points: 2
#     Edge 106, Type (0, 1), BuildingBlock: XIVTED_clean_linker_0, # of connection points: 2
#     Edge 107, Type (0, 1), BuildingBlock: XIVTED_clean_linker_0, # of connection points: 2
#     Edge 108, Type (0, 1), BuildingBlock: XIVTED_clean_linker_0, # of connection points: 2
#     Edge 109, Type (0, 1), BuildingBlock: XIVTED_clean_linker_0, # of connection points: 2
#     Edge 110, Type (0, 1), BuildingBlock: XIVTED_clean_linker_0, # of connection points: 2
#     Edge 111, Type (0, 1), BuildingBlock: XIVTED_clean_linker_0, # of connection points: 2
#     Edge 112, Type (0, 1), BuildingBlock: XIVTED_clean_linker_0, # of connection points: 2
#     Edge 113, Type (0, 1), BuildingBlock: XIVTED_clean_linker_0, # of connection points: 2
#     Edge 114, Type (0, 1), BuildingBlock: XIVTED_clean_linker_0, # of connection points: 2
#     Edge 115, Type (0, 1), BuildingBlock: XIVTED_clean_linker_0, # of connection points: 2
#     Edge 116, Type (0, 1), BuildingBlock: XIVTED_clean_linker_0, # of connection points: 2
#     Edge 117, Type (0, 1), BuildingBlock: XIVTED_clean_linker_0, # of connection points: 2
#     Edge 118, Type (0, 1), BuildingBlock: XIVTED_clean_linker_0, # of connection points: 2
#     Edge 119, Type (0, 1), BuildingBlock: XIVTED_clean_linker_0, # of connection points: 2
#     Edge 120, Type (0, 1), BuildingBlock: XIVTED_clean_linker_0, # of connection points: 2
#     Edge 121, Type (0, 1), BuildingBlock: XIVTED_clean_linker_0, # of connection points: 2
#     Edge 122, Type (0, 1), BuildingBlock: XIVTED_clean_linker_0, # of connection points: 2
#     Edge 123, Type (0, 1), BuildingBlock: XIVTED_clean_linker_0, # of connection points: 2
#     Edge 124, Type (0, 1), BuildingBlock: XIVTED_clean_linker_0, # of connection points: 2
#     Edge 125, Type (0, 1), BuildingBlock: XIVTED_clean_linker_0, # of connection points: 2
#     Edge 126, Type (0, 1), BuildingBlock: XIVTED_clean_linker_0, # of connection points: 2
#     Edge 127, Type (0, 1), BuildingBlock: XIVTED_clean_linker_0, # of connection points: 2
#     Edge 128, Type (0, 1), BuildingBlock: XIVTED_clean_linker_0, # of connection points: 2
#     Edge 129, Type (0, 1), BuildingBlock: XIVTED_clean_linker_0, # of connection points: 2
#     Edge 130, Type (0, 1), BuildingBlock: XIVTED_clean_linker_0, # of connection points: 2
#     Edge 131, Type (0, 1), BuildingBlock: XIVTED_clean_linker_0, # of connection points: 2
#     Edge 132, Type (0, 1), BuildingBlock: XIVTED_clean_linker_0, # of connection points: 2
#     Edge 133, Type (0, 1), BuildingBlock: XIVTED_clean_linker_0, # of connection points: 2
#     Edge 134, Type (0, 1), BuildingBlock: XIVTED_clean_linker_0, # of connection points: 2
#     Edge 135, Type (0, 1), BuildingBlock: XIVTED_clean_linker_0, # of connection points: 2
# Relax obj value: 0.134
# Max RMSD: 0.319
# Mean RMSD: 0.177
data_MOF--net-gar--node1-NAHDIM_clean_sbu_0--node2-KUMBUR_clean_sbu_0--edge1-XIVTED_clean_linker_0
_symmetry_space_group_name_H-M    P1
_symmetry_Int_Tables_number       1
_symmetry_cell_setting            triclinic
loop_
_symmetry_equiv_pos_as_xyz
'x, y, z'
_cell_length_a     62.531206
_cell_length_b     56.501718
_cell_length_c     55.352306
_cell_angle_alpha  100.91106
_cell_angle_beta   93.806179
_cell_angle_gamma 103.04318
loop_
_atom_site_label
_atom_site_type_symbol
_atom_site_fract_x
_atom_site_fract_y
_atom_site_fract_z
_atom_type_partial_charge
C0 C 0.14932 0.3328 0.34209 0.0
O1 O 0.14889 0.35617 0.34917 0.0
O2 O 0.11481 0.29733 0.39835 0.0
Zn3 Zn 0.11968 0.32396 0.37902 0.0
O4 O 0.134 0.35579 0.40263 0.0
C5 C 0.07269 0.31057 0.36284 0.0
O6 O 0.07317 0.28877 0.3676 0.0
O7 O 0.13813 0.31648 0.35222 0.0
C8 C 0.1306 0.37547 0.39704 0.0
O9 O 0.11965 0.37411 0.37554 0.0
C10 C 0.10569 0.30263 0.41778 0.0
O11 O 0.10056 0.3242 0.42303 0.0
O12 O 0.09049 0.32734 0.36544 0.0
C13 C 0.96666 0.74668 0.68853 0.0
O14 O 0.96251 0.72653 0.67099 0.0
O15 O 0.99405 0.72424 0.64318 0.0
Zn16 Zn 0.00365 0.75869 0.6631 0.0
O17 O 0.0037 0.78361 0.64205 0.0
C18 C 0.04556 0.74742 0.66836 0.0
O19 O 0.0366 0.73029 0.64858 0.0
O20 O 0.9841 0.76355 0.68942 0.0
C21 C 0.01821 0.78434 0.62711 0.0
O22 O 0.0304 0.76814 0.6255 0.0
C23 C 0.98471 0.71543 0.6213 0.0
O24 O 0.97859 0.73021 0.60799 0.0
O25 O 0.03463 0.76243 0.67819 0.0
C26 C 0.65145 0.83191 0.85381 0.0
O27 O 0.65736 0.84626 0.87593 0.0
O28 O 0.60918 0.78795 0.89167 0.0
Zn29 Zn 0.61262 0.81679 0.87553 0.0
O30 O 0.62194 0.84813 0.90142 0.0
C31 C 0.56953 0.82419 0.87382 0.0
O32 O 0.57553 0.83286 0.89764 0.0
O33 O 0.63304 0.81601 0.8494 0.0
C34 C 0.62341 0.86883 0.89512 0.0
O35 O 0.61992 0.86926 0.87154 0.0
C36 C 0.61978 0.78985 0.91256 0.0
O37 O 0.63502 0.81025 0.92222 0.0
O38 O 0.58294 0.81599 0.86023 0.0
C39 C 0.46701 0.24242 0.19803 0.0
O40 O 0.46417 0.2199 0.18461 0.0
O41 O 0.49223 0.22203 0.14612 0.0
Zn42 Zn 0.50019 0.25683 0.16602 0.0
O43 O 0.5001 0.28238 0.14525 0.0
C44 C 0.54442 0.2518 0.17054 0.0
O45 O 0.53779 0.23716 0.14865 0.0
O46 O 0.48085 0.26041 0.19281 0.0
C47 C 0.50844 0.2793 0.12494 0.0
O48 O 0.51582 0.25939 0.11794 0.0
C49 C 0.48146 0.21328 0.12485 0.0
O50 O 0.47231 0.22759 0.11354 0.0
O51 O 0.53103 0.26259 0.18176 0.0
C52 C 0.05434 0.81425 0.13136 0.0
O53 O 0.05071 0.8135 0.10754 0.0
O54 O 0.09349 0.77956 0.09839 0.0
Zn55 Zn 0.09927 0.81635 0.11787 0.0
O56 O 0.09461 0.84254 0.0958 0.0
C57 C 0.14479 0.81159 0.13424 0.0
O58 O 0.14084 0.79587 0.11278 0.0
O59 O 0.07403 0.81575 0.1406 0.0
C60 C 0.10819 0.8624 0.09329 0.0
O61 O 0.12858 0.86724 0.10387 0.0
C62 C 0.09783 0.77048 0.07685 0.0
O63 O 0.10655 0.78571 0.06292 0.0
O64 O 0.13029 0.82386 0.1403 0.0
C65 C 0.56174 0.76116 0.40949 0.0
O66 O 0.55696 0.74041 0.41761 0.0
O67 O 0.52111 0.73854 0.44696 0.0
Zn68 Zn 0.52156 0.77115 0.43211 0.0
O69 O 0.52692 0.8059 0.45684 0.0
C70 C 0.47485 0.75242 0.40144 0.0
O71 O 0.47197 0.73234 0.41075 0.0
O72 O 0.54899 0.77596 0.41288 0.0
C73 C 0.5129 0.81917 0.45571 0.0
O74 O 0.49375 0.80878 0.44241 0.0
C75 C 0.53052 0.73651 0.4676 0.0
O76 O 0.54048 0.75691 0.48372 0.0
O77 O 0.4933 0.76871 0.40731 0.0
C78 C 0.55529 0.31863 0.63235 0.0
O79 O 0.55228 0.32357 0.6103 0.0
O80 O 0.59583 0.28151 0.59812 0.0
Zn81 Zn 0.5999 0.31784 0.61747 0.0
O82 O 0.59565 0.34459 0.59619 0.0
C83 C 0.64775 0.3197 0.63231 0.0
O84 O 0.64766 0.31217 0.60834 0.0
O85 O 0.57421 0.31579 0.63972 0.0
C86 C 0.60946 0.36251 0.59031 0.0
O87 O 0.63064 0.36518 0.59655 0.0
C88 C 0.59363 0.26954 0.57572 0.0
O89 O 0.59323 0.28151 0.55759 0.0
O90 O 0.63023 0.32495 0.64031 0.0
C91 C 0.06662 0.27158 0.91763 0.0
O92 O 0.07087 0.2738 0.94162 0.0
O93 O 0.02037 0.23653 0.94688 0.0
Zn94 Zn 0.02096 0.26785 0.93024 0.0
O95 O 0.02851 0.30352 0.95367 0.0
C96 C 0.97191 0.26032 0.91104 0.0
O97 O 0.96778 0.25626 0.93307 0.0
O98 O 0.04668 0.26879 0.90851 0.0
C99 C 0.01398 0.316 0.95823 0.0
O100 O 0.99317 0.30486 0.95084 0.0
C101 C 0.03206 0.2354 0.96644 0.0
O102 O 0.04479 0.25611 0.97983 0.0
O103 O 0.99198 0.26432 0.90606 0.0
C104 C 0.41059 0.09448 0.33271 0.0
O105 O 0.43037 0.09902 0.32532 0.0
O106 O 0.4205 0.05 0.28476 0.0
Zn107 Zn 0.41139 0.04545 0.31772 0.0
O108 O 0.43662 0.03907 0.33515 0.0
C109 C 0.37269 1.00682 0.29471 0.0
O110 O 0.37368 0.01722 0.27536 0.0
O111 O 0.40292 0.07354 0.33765 0.0
C112 C 0.43584 0.02016 0.34445 0.0
O113 O 0.41698 1.00396 0.34376 0.0
C114 C 0.42469 0.03004 0.27362 0.0
O115 O 0.42173 0.01083 0.28428 0.0
O116 O 0.38639 0.01651 0.31382 0.0
C117 C 0.34073 0.17565 0.50455 0.0
O118 O 0.34701 0.19865 0.50165 0.0
O119 O 0.29879 0.20567 0.54244 0.0
Zn120 Zn 0.29756 0.18723 0.50697 0.0
O121 O 0.30509 0.21074 0.48318 0.0
C122 C 0.25034 0.17174 0.50631 0.0
O123 O 0.25431 0.19491 0.51849 0.0
O124 O 0.3205 0.16677 0.50675 0.0
C125 C 0.2934 0.20682 0.46247 0.0
O126 O 0.27552 0.18851 0.45749 0.0
C127 C 0.30181 0.22872 0.55183 0.0
O128 O 0.30556 0.245 0.53758 0.0
O129 O 0.26646 0.16364 0.4981 0.0
C130 C 0.2014 0.9589 0.76132 0.0
O131 O 0.18358 0.94873 0.74556 0.0
O132 O 0.1625 0.0086 0.73393 0.0
Zn133 Zn 0.18241 0.01137 0.7712 0.0
O134 O 0.16296 0.00951 0.80412 0.0
C135 C 0.20881 0.06276 0.7622 0.0
O136 O 0.20292 0.05172 0.73883 0.0
O137 O 0.20396 0.98228 0.77213 0.0
C138 C 0.14848 0.02113 0.81276 0.0
O139 O 0.1425 0.03647 0.80009 0.0
C140 C 0.1505 0.02336 0.72831 0.0
O141 O 0.14816 0.041 0.7464 0.0
O142 O 0.20303 0.04986 0.7787 0.0
C143 C 0.28715 0.95957 0.00403 0.0
O144 O 0.28741 0.93702 0.00668 0.0
O145 O 0.32951 0.94434 0.03557 0.0
Zn146 Zn 0.33179 0.96324 0.00844 0.0
O147 O 0.33247 0.93831 0.97823 0.0
C148 C 0.37036 0.99606 0.0366 0.0
O149 O 0.36118 0.98805 0.05515 0.0
O150 O 0.30518 0.97532 0.00416 0.0
C151 C 0.34977 0.93694 0.96788 0.0
O152 O 0.36806 0.95439 0.97537 0.0
C153 C 0.34273 0.93029 0.03527 0.0
O154 O 0.35728 0.93083 0.01924 0.0
O155 O 0.35957 0.98989 0.01521 0.0
C156 C 0.28463 0.41432 0.04372 0.0
O157 O 0.28383 0.4048 0.06362 0.0
O158 O 0.32011 0.38376 0.06918 0.0
Zn159 Zn 0.32431 0.3954 0.03681 0.0
O160 O 0.32101 0.36789 0.00578 0.0
C161 C 0.37051 0.42163 0.05542 0.0
O162 O 0.36796 0.40735 0.07171 0.0
O163 O 0.30036 0.4129 0.0305 0.0
C164 C 0.33788 0.36526 0.99487 0.0
O165 O 0.35751 0.37782 0.00584 0.0
C166 C 0.31902 0.36191 0.0725 0.0
O167 O 0.32117 0.34467 0.05388 0.0
O168 O 0.35429 0.42 0.0395 0.0
C169 C 0.83663 0.13165 0.04581 0.0
O170 O 0.83679 0.15298 0.03957 0.0
O171 O 0.78618 0.15418 0.06572 0.0
Zn172 Zn 0.79179 0.12791 0.039 0.0
O173 O 0.79526 0.14118 0.00868 0.0
C174 C 0.75385 0.09344 0.04695 0.0
O175 O 0.76201 0.1016 0.07032 0.0
O176 O 0.8184 0.11751 0.04825 0.0
C177 C 0.77857 0.14866 1.00232 0.0
O178 O 0.76178 0.1465 0.01551 0.0
C179 C 0.79264 0.17727 0.06616 0.0
O180 O 0.8046 0.1848 0.04918 0.0
O181 O 0.76526 0.10019 0.03033 0.0
C182 C 0.2068 0.4839 0.22232 0.0
O183 O 0.18672 0.48153 0.22885 0.0
O184 O 0.18079 0.53383 0.20527 0.0
Zn185 Zn 0.20467 0.53284 0.22963 0.0
O186 O 0.19185 0.52942 0.26129 0.0
C187 C 0.23404 0.57762 0.22209 0.0
O188 O 0.22367 0.57202 0.19956 0.0
O189 O 0.21666 0.50434 0.21755 0.0
C190 C 0.19256 0.54944 0.27656 0.0
O191 O 0.20255 0.57076 0.27164 0.0
C192 C 0.16646 0.54613 0.21044 0.0
O193 O 0.16825 0.56081 0.23227 0.0
O194 O 0.22888 0.56322 0.2368 0.0
C195 C 0.78131 0.90759 0.53058 0.0
O196 O 0.77672 0.8832 0.52476 0.0
O197 O 0.81777 0.88106 0.56612 0.0
Zn198 Zn 0.82369 0.89881 0.53785 0.0
O199 O 0.8203 0.87697 0.50344 0.0
C200 C 0.8673 0.93395 0.56115 0.0
O201 O 0.85947 0.93638 0.58269 0.0
O202 O 0.8013 0.91958 0.53724 0.0
C203 C 0.8166 0.85392 0.49374 0.0
O204 O 0.81315 0.83744 0.5078 0.0
C205 C 0.82793 0.86594 0.57296 0.0
O206 O 0.84361 0.85968 0.56037 0.0
O207 O 0.85512 0.92008 0.54208 0.0
C208 C 0.91599 0.12489 0.28642 0.0
O209 O 0.93092 0.13237 0.30587 0.0
O210 O 0.95306 0.06869 0.23871 0.0
Zn211 Zn 0.93544 0.07318 0.2734 0.0
O212 O 0.95565 0.07623 0.31039 0.0
C213 C 0.9167 0.01613 0.26164 0.0
O214 O 0.93583 0.01678 0.25297 0.0
O215 O 0.91537 0.10329 0.27231 0.0
C216 C 0.96881 0.06261 0.31588 0.0
O217 O 0.9727 0.04621 0.29757 0.0
C218 C 0.97111 0.08111 0.23215 0.0
O219 O 0.9829 0.10039 0.24851 0.0
O220 O 0.91227 0.03711 0.27039 0.0
C221 C 0.33628 0.6262 0.55024 0.0
O222 O 0.34233 0.65029 0.55155 0.0
O223 O 0.29443 0.66063 0.57147 0.0
Zn224 Zn 0.29453 0.6343 0.54243 0.0
O225 O 0.29997 0.64902 0.51292 0.0
C226 C 0.25022 0.62334 0.53322 0.0
O227 O 0.25627 0.64666 0.53127 0.0
O228 O 0.31598 0.61557 0.54798 0.0
C229 C 0.29054 0.63847 0.49133 0.0
O230 O 0.27795 0.61579 0.48746 0.0
C231 C 0.29439 0.68268 0.56966 0.0
O232 O 0.29738 0.6896 0.54854 0.0
O233 O 0.2649 0.61198 0.53733 0.0
C234 C 0.41371 0.62056 0.76464 0.0
O235 O 0.425 0.62007 0.74544 0.0
O236 O 0.45237 0.57068 0.73891 0.0
Zn237 Zn 0.43557 0.57378 0.77465 0.0
O238 O 0.45629 0.57579 0.81111 0.0
C239 C 0.4177 0.51676 0.76342 0.0
O240 O 0.43737 0.51793 0.756 0.0
O241 O 0.41568 0.60457 0.77844 0.0
C242 C 0.46879 0.56161 0.81691 0.0
O243 O 0.47201 0.54441 0.79892 0.0
C244 C 0.47192 0.58029 0.73338 0.0
O245 O 0.48603 0.59529 0.7515 0.0
O246 O 0.41251 0.53751 0.7712 0.0
C247 C 0.70836 0.98191 0.72024 0.0
O248 O 0.68937 0.98148 0.7292 0.0
O249 O 0.68312 0.03461 0.70573 0.0
Zn250 Zn 0.70924 0.03195 0.72575 0.0
O251 O 0.70122 0.03343 0.76025 0.0
C252 C 0.7322 0.07837 0.71717 0.0
O253 O 0.7138 0.0756 0.7029 0.0
O254 O 0.71798 1.00119 0.71312 0.0
C255 C 0.69743 0.05408 0.76999 0.0
O256 O 0.69948 0.07165 0.75722 0.0
C257 C 0.66341 0.02661 0.71003 0.0
O258 O 0.65921 0.01399 0.7275 0.0
O259 O 0.73476 0.06088 0.72747 0.0
C260 C 0.84086 0.67702 0.01234 0.0
O261 O 0.84499 0.70129 0.01965 0.0
O262 O 0.80344 0.7058 0.04202 0.0
Zn263 Zn 0.79807 0.68489 0.00721 0.0
O264 O 0.80464 0.70712 0.98247 0.0
C265 C 0.75056 0.67006 0.00885 0.0
O266 O 0.75452 0.69333 0.02066 0.0
O267 O 0.82099 0.66477 0.00536 0.0
C268 C 0.78996 0.71045 0.96739 0.0
O269 O 0.76914 0.69969 0.96808 0.0
C270 C 0.79964 0.72715 0.04844 0.0
O271 O 0.79102 0.73712 0.03178 0.0
O272 O 0.76663 0.66182 1.00066 0.0
C273 C 0.90555 0.59975 0.83268 0.0
O274 O 0.92672 0.60088 0.83675 0.0
O275 O 0.91835 0.54728 0.78495 0.0
Zn276 Zn 0.90284 0.54895 0.81569 0.0
O277 O 0.92425 0.54899 0.84281 0.0
C278 C 0.87112 0.50534 0.79186 0.0
O279 O 0.87697 0.51279 0.77165 0.0
O280 O 0.89209 0.57904 0.8236 0.0
C281 C 0.93209 0.53009 0.84188 0.0
O282 O 0.92411 0.51032 0.82417 0.0
C283 C 0.93903 0.5565 0.78647 0.0
O284 O 0.9499 0.56842 0.80806 0.0
O285 O 0.87898 0.51912 0.81279 0.0
C286 C 0.78709 0.46262 0.49728 0.0
O287 O 0.78423 0.43839 0.49369 0.0
O288 O 0.82645 0.44207 0.53644 0.0
Zn289 Zn 0.83027 0.46141 0.5097 0.0
O290 O 0.83022 0.43658 0.47908 0.0
C291 C 0.8712 0.48975 0.53613 0.0
O292 O 0.86334 0.48092 0.5549 0.0
O293 O 0.80607 0.47671 0.50493 0.0
C294 C 0.84745 0.43485 0.4687 0.0
O295 O 0.86606 0.45168 0.47661 0.0
C296 C 0.83972 0.42802 0.53579 0.0
O297 O 0.85442 0.42917 0.51992 0.0
O298 O 0.85871 0.48639 0.5162 0.0
C299 C 0.69957 0.45637 0.26432 0.0
O300 O 0.6789 0.44507 0.25612 0.0
O301 O 0.66467 0.51088 0.23342 0.0
Zn302 Zn 0.6836 0.5105 0.27038 0.0
O303 O 0.66549 0.51114 0.30468 0.0
C304 C 0.69979 0.5663 0.27135 0.0
O305 O 0.67881 0.56256 0.26325 0.0
O306 O 0.70438 0.48071 0.26999 0.0
C307 C 0.64647 0.51489 0.31017 0.0
O308 O 0.63351 0.51899 0.29258 0.0
C309 C 0.6441 0.50829 0.22509 0.0
O310 O 0.62911 0.50185 0.23971 0.0
O311 O 0.70634 0.54747 0.27634 0.0
Tb312 Tb 0.03079 0.02169 0.00445 0.0
C313 C 0.10126 0.11228 0.06364 0.0
C314 C 0.11153 0.13697 0.03311 0.0
C315 C 0.11978 0.15617 0.07683 0.0
C316 C 0.10191 0.11401 0.03922 0.0
C317 C 0.1105 0.13325 0.08279 0.0
C318 C 0.12025 0.15803 0.05202 0.0
C319 C 0.10272 0.10694 0.11231 0.0
N320 N 0.09274 0.08972 0.06868 0.0
C321 C 0.09409 0.08667 0.09271 0.0
C322 C 0.11086 0.13039 0.10734 0.0
Tb323 Tb 0.08173 0.05665 0.03555 0.0
N324 N 0.09388 0.09305 0.0215 0.0
C325 C 0.09577 0.09407 0.99708 0.0
C326 C 0.11265 0.138 0.00822 0.0
C327 C 0.10475 0.11643 0.99015 0.0
H328 H 0.08833 0.06845 0.09676 0.0
H329 H 0.10565 0.11694 0.97079 0.0
H330 H 0.12777 0.17574 0.04765 0.0
H331 H 0.10338 0.10438 0.13121 0.0
H332 H 0.08972 0.0781 0.98228 0.0
H333 H 0.00579 0.96117 0.06858 0.0
H334 H 0.11986 0.15525 1.00279 0.0
H335 H 0.02387 0.01051 0.94338 0.0
H336 H 0.02452 0.99923 0.05738 0.0
H337 H 0.00831 0.97517 0.90854 0.0
H338 H 0.127 0.17244 0.09126 0.0
H339 H 0.98797 0.9241 0.03628 0.0
H340 H 0.97862 0.90431 0.99129 0.0
H341 H 0.11788 0.14602 0.12253 0.0
H342 H 0.98015 0.90773 0.94777 0.0
N343 N 0.01787 0.98519 0.01801 0.0
C344 C 0.01689 0.98383 0.04248 0.0
C345 C 0.99631 0.94102 0.03098 0.0
C346 C 0.99721 0.94224 0.0061 0.0
C347 C 0.0063 0.96189 0.04922 0.0
C348 C 0.00821 0.9648 1.00016 0.0
H349 H 0.99166 0.93383 0.91676 0.0
N350 N 0.01907 0.98889 0.97107 0.0
C351 C 0.00873 0.97235 0.92736 0.0
C352 C 0.0092 0.96661 0.97584 0.0
C353 C 0.01797 0.99224 0.94715 0.0
C354 C 0.9993 0.9491 0.93207 0.0
C355 C 0.99901 0.94611 0.95655 0.0
O356 O 0.00787 0.03269 0.9824 0.0
O357 O 0.051 0.05946 0.01784 0.0
O358 O 0.05765 0.06638 0.06165 0.0
O359 O 0.02634 0.03546 0.04435 0.0
O360 O 0.03782 0.04917 0.98153 0.0
O361 O 0.99974 0.02248 0.01689 0.0
O362 O 0.10508 0.04754 0.05864 0.0
O363 O 0.06198 0.01852 0.02174 0.0
O364 O 0.05464 0.01347 0.97743 0.0
O365 O 0.08696 0.04226 0.9962 0.0
O366 O 0.07365 0.0289 0.05811 0.0
O367 O 0.11281 0.05587 0.02328 0.0
C368 C 0.04849 0.06782 0.9983 0.0
C369 C 0.9702 0.01899 0.98623 0.0
C370 C 0.93314 0.02493 0.9826 0.0
C371 C 0.95451 0.03146 0.99483 0.0
C372 C 0.92714 1.00541 0.96178 0.0
C373 C 0.9642 0.99911 0.96561 0.0
C374 C 0.94266 0.99229 0.9535 0.0
C375 C 0.03738 0.05328 0.06334 0.0
C376 C 0.99296 0.02973 0.99745 0.0
C377 C 0.98817 0.92361 0.9623 0.0
C378 C 0.98724 0.92169 0.98706 0.0
C379 C 0.06449 0.00972 0.04108 0.0
C380 C 0.14265 0.06092 0.05396 0.0
C381 C 0.15832 0.04846 0.04527 0.0
C382 C 0.1799 0.0555 0.05695 0.0
C383 C 0.18606 0.07557 0.07731 0.0
C384 C 0.1488 0.08135 0.07402 0.0
C385 C 0.17054 0.0887 0.08558 0.0
C386 C 0.07543 0.02568 0.97661 0.0
C387 C 0.11983 0.04976 0.04332 0.0
H388 H 0.95921 0.04713 0.0105 0.0
H389 H 0.91063 1.00042 0.95204 0.0
H390 H 0.97608 0.98929 0.9585 0.0
H391 H 0.93814 0.97717 0.93743 0.0
H392 H 0.15346 0.03239 0.03002 0.0
H393 H 0.20274 0.08101 0.08665 0.0
H394 H 0.13689 0.09122 0.08108 0.0
H395 H 0.17525 0.10425 0.10123 0.0
Tb396 Tb 0.32526 0.78381 0.2445 0.0
C397 C 0.2843 0.84931 0.31934 0.0
C398 C 0.3162 0.87991 0.34201 0.0
C399 C 0.2812 0.89113 0.3367 0.0
C400 C 0.30631 0.85575 0.32811 0.0
C401 C 0.2712 0.86658 0.32441 0.0
C402 C 0.30374 0.89782 0.34543 0.0
C403 C 0.23902 0.83313 0.30822 0.0
N404 N 0.27528 0.82537 0.30793 0.0
C405 C 0.25277 0.81675 0.30361 0.0
C406 C 0.24833 0.85829 0.31814 0.0
Tb407 Tb 0.29892 0.79979 0.29991 0.0
N408 N 0.31749 0.83764 0.32494 0.0
C409 C 0.3382 0.84221 0.33744 0.0
C410 C 0.3379 0.88498 0.35313 0.0
C411 C 0.34875 0.86585 0.35131 0.0
H412 H 0.2455 0.79734 0.29564 0.0
H413 H 0.36526 0.86925 0.36063 0.0
H414 H 0.31112 0.91655 0.35576 0.0
H415 H 0.22129 0.82635 0.304 0.0
H416 H 0.34707 0.82805 0.33716 0.0
H417 H 0.25417 0.71595 0.18967 0.0
H418 H 0.34607 0.90325 0.36398 0.0
H419 H 0.37767 0.78238 0.25292 0.0
H420 H 0.27226 0.75317 0.21995 0.0
H421 H 0.40169 0.75547 0.23629 0.0
H422 H 0.2715 0.90479 0.34045 0.0
H423 H 0.27571 0.68742 0.17018 0.0
H424 H 0.31237 0.67716 0.16616 0.0
H425 H 0.23767 0.87094 0.32179 0.0
H426 H 0.35238 0.68764 0.17904 0.0
N427 N 0.305 0.74734 0.21842 0.0
C428 C 0.28258 0.74177 0.21172 0.0
C429 C 0.28406 0.7041 0.18361 0.0
C430 C 0.30683 0.70963 0.19034 0.0
C431 C 0.27188 0.72017 0.1945 0.0
C432 C 0.31689 0.73153 0.20808 0.0
H433 H 0.38571 0.71652 0.20542 0.0
N434 N 0.34805 0.75799 0.2331 0.0
C435 C 0.38409 0.74991 0.23053 0.0
C436 C 0.33919 0.73707 0.21569 0.0
C437 C 0.37039 0.76495 0.24011 0.0
C438 C 0.37503 0.72801 0.21305 0.0
C439 C 0.35235 0.72139 0.2053 0.0
O440 O 0.35087 0.80697 0.23133 0.0
O441 O 0.31869 0.81166 0.27283 0.0
O442 O 0.28056 0.81134 0.27031 0.0
O443 O 0.2933 0.79265 0.23439 0.0
O444 O 0.35042 0.81667 0.26453 0.0
O445 O 0.31846 0.79352 0.21039 0.0
O446 O 0.27458 0.77555 0.31361 0.0
O447 O 0.30592 0.77147 0.2721 0.0
O448 O 0.34228 0.77036 0.27334 0.0
O449 O 0.33205 0.79249 0.3091 0.0
O450 O 0.27409 0.76693 0.28048 0.0
O451 O 0.30608 0.7929 0.33535 0.0
C452 C 0.33722 0.82662 0.27756 0.0
C453 C 0.34921 0.80374 0.18826 0.0
C454 C 0.35501 0.81743 0.14969 0.0
C455 C 0.34361 0.81656 0.17056 0.0
C456 C 0.37184 0.80467 0.14635 0.0
C457 C 0.36601 0.79105 0.18476 0.0
C458 C 0.37718 0.79142 0.16379 0.0
C459 C 0.27906 0.80403 0.24577 0.0
C460 C 0.33873 0.80637 0.21114 0.0
C461 C 0.34253 0.69984 0.18732 0.0
C462 C 0.31979 0.69392 0.17993 0.0
C463 C 0.28738 0.75637 0.26816 0.0
C464 C 0.27545 0.7784 0.35626 0.0
C465 C 0.27674 0.76022 0.36976 0.0
C466 C 0.26468 0.75817 0.38988 0.0
C467 C 0.2512 0.77451 0.39665 0.0
C468 C 0.26186 0.79469 0.36278 0.0
C469 C 0.24973 0.79267 0.38298 0.0
C470 C 0.34516 0.77942 0.2976 0.0
C471 C 0.28679 0.77772 0.33411 0.0
H472 H 0.33058 0.82631 0.17337 0.0
H473 H 0.38119 0.80539 0.13062 0.0
H474 H 0.37088 0.78135 0.19833 0.0
H475 H 0.39031 0.78187 0.16131 0.0
H476 H 0.2871 0.74747 0.36453 0.0
H477 H 0.24181 0.77311 0.41229 0.0
H478 H 0.26044 0.80863 0.35221 0.0
H479 H 0.23912 0.80511 0.38799 0.0
Tb480 Tb 0.58987 0.0478 0.50658 0.0
C481 C 0.51131 1.00163 0.55695 0.0
C482 C 0.48994 0.96767 0.52491 0.0
C483 C 0.48859 0.96529 0.5682 0.0
C484 C 0.50496 0.99115 0.53221 0.0
C485 C 0.5028 0.98915 0.5753 0.0
C486 C 0.48222 0.95453 0.54302 0.0
C487 C 0.52149 0.02563 0.60613 0.0
N488 N 0.52497 0.02472 0.56302 0.0
C489 C 0.52956 0.03722 0.58723 0.0
C490 C 0.5083 1.00136 0.60017 0.0
Tb491 Tb 0.53702 0.04223 0.53081 0.0
N492 N 0.51248 1.00464 0.51537 0.0
C493 C 0.50425 0.99643 0.49092 0.0
C494 C 0.48255 0.95853 0.49974 0.0
C495 C 0.48944 0.97319 0.48273 0.0
H496 H 0.53976 0.05596 0.59201 0.0
H497 H 0.48343 0.96657 0.46327 0.0
H498 H 0.47082 0.93637 0.53779 0.0
H499 H 0.52548 0.03541 0.62527 0.0
H500 H 0.50939 0.00739 0.47742 0.0
H501 H 0.6411 0.12812 0.57085 0.0
H502 H 0.47105 0.94056 0.49336 0.0
H503 H 0.5895 0.02972 0.44595 0.0
H504 H 0.61637 0.08643 0.55872 0.0
H505 H 0.60369 0.0479 0.41133 0.0
H506 H 0.48203 0.95527 0.58201 0.0
H507 H 0.65335 0.15181 0.53891 0.0
H508 H 0.65413 0.1528 0.49372 0.0
H509 H 0.50204 0.99244 0.61483 0.0
H510 H 0.64401 0.13088 0.45013 0.0
N511 N 0.61371 0.08628 0.52008 0.0
C512 C 0.62148 0.09629 0.54443 0.0
C513 C 0.64236 0.13343 0.53342 0.0
C514 C 0.63555 0.1225 0.50844 0.0
C515 C 0.63555 0.12009 0.55147 0.0
C516 C 0.62117 0.09857 0.50234 0.0
H517 H 0.6255 0.09153 0.41921 0.0
N518 N 0.60239 0.06299 0.4732 0.0
C519 C 0.60696 0.05903 0.42998 0.0
C520 C 0.61542 0.08642 0.47798 0.0
C521 C 0.59889 0.0488 0.44969 0.0
C522 C 0.61922 0.08367 0.43449 0.0
C523 C 0.62394 0.09757 0.4588 0.0
O524 O 0.60283 0.01769 0.49161 0.0
O525 O 0.55964 0.02319 0.51252 0.0
O526 O 0.55666 0.02527 0.55311 0.0
O527 O 0.59148 0.04607 0.54581 0.0
O528 O 0.5715 0.01423 0.47974 0.0
O529 O 0.62002 0.04463 0.5237 0.0
O530 O 0.52393 0.07123 0.54851 0.0
O531 O 0.56711 0.06695 0.52494 0.0
O532 O 0.57107 0.06428 0.48304 0.0
O533 O 0.53581 0.04634 0.49222 0.0
O534 O 0.55528 0.0753 0.55799 0.0
O535 O 0.50727 0.04727 0.51444 0.0
C536 C 0.55614 1.00669 0.49282 0.0
C537 C 0.64134 0.02346 0.49755 0.0
C538 C 0.67285 1.00479 0.49485 0.0
C539 C 0.65404 0.00848 0.50609 0.0
C540 C 0.67898 0.01628 0.47515 0.0
C541 C 0.64803 0.03534 0.47827 0.0
C542 C 0.66672 0.03167 0.46708 0.0
C543 C 0.57827 0.03309 0.55893 0.0
C544 C 0.62036 0.02472 0.50763 0.0
C545 C 0.63746 0.12186 0.46461 0.0
C546 C 0.64323 0.13433 0.48942 0.0
C547 C 0.57036 0.08333 0.54476 0.0
C548 C 0.48533 0.06575 0.54215 0.0
C549 C 0.47072 0.07821 0.53239 0.0
C550 C 0.45087 0.07951 0.54276 0.0
C551 C 0.4462 0.0686 0.56328 0.0
C552 C 0.47996 0.05464 0.56227 0.0
C553 C 0.4606 0.05622 0.57284 0.0
C554 C 0.54932 0.05918 0.47922 0.0
C555 C 0.50666 0.06576 0.53221 0.0
H556 H 0.64897 0.99917 0.52095 0.0
H557 H 0.69337 0.0135 0.4662 0.0
H558 H 0.63875 0.04715 0.47159 0.0
H559 H 0.6716 0.04064 0.45199 0.0
H560 H 0.47475 0.08671 0.51676 0.0
H561 H 0.43146 0.06984 0.57216 0.0
H562 H 0.49082 0.04507 0.57012 0.0
H563 H 0.4568 0.04794 0.58863 0.0
Tb564 Tb 0.28215 0.30101 0.77144 0.0
C565 C 0.35563 0.26664 0.81912 0.0
C566 C 0.37206 0.30246 0.85178 0.0
C567 C 0.37189 0.26112 0.85822 0.0
C568 C 0.36067 0.29195 0.8279 0.0
C569 C 0.36187 0.25095 0.83386 0.0
C570 C 0.37696 0.28686 0.86719 0.0
C571 C 0.35053 0.21692 0.79839 0.0
N572 N 0.34625 0.25763 0.79541 0.0
C573 C 0.3448 0.23327 0.7845 0.0
C574 C 0.35872 0.22571 0.82333 0.0
Tb575 Tb 0.33583 0.2858 0.77474 0.0
N576 N 0.3558 0.30638 0.81237 0.0
C577 C 0.36391 0.33169 0.81896 0.0
C578 C 0.37901 0.32831 0.85909 0.0
C579 C 0.3754 0.34294 0.84236 0.0
H580 H 0.33853 0.2264 0.76515 0.0
H581 H 0.38122 0.36296 0.84754 0.0
H582 H 0.38538 0.29458 0.88571 0.0
H583 H 0.34869 0.19759 0.78982 0.0
H584 H 0.36137 0.34373 0.80675 0.0
H585 H 0.23637 0.22494 0.69778 0.0
H586 H 0.38779 0.3371 0.87726 0.0
H587 H 0.27735 0.3593 0.7827 0.0
H588 H 0.25598 0.2436 0.73882 0.0
H589 H 0.26707 0.38885 0.75901 0.0
H590 H 0.37651 0.24933 0.86995 0.0
H591 H 0.23038 0.25133 0.66837 0.0
H592 H 0.23302 0.29421 0.66061 0.0
H593 H 0.36333 0.21307 0.83403 0.0
H594 H 0.24156 0.33931 0.67735 0.0
N595 N 0.26218 0.28109 0.73355 0.0
C596 C 0.25373 0.25585 0.72672 0.0
C597 C 0.23915 0.25985 0.6866 0.0
C598 C 0.24627 0.28565 0.69423 0.0
C599 C 0.24241 0.24492 0.70318 0.0
C600 C 0.25762 0.29577 0.71818 0.0
H601 H 0.25379 0.37478 0.71431 0.0
N602 N 0.27139 0.32931 0.75134 0.0
C603 C 0.26593 0.36985 0.74979 0.0
C604 C 0.2625 0.32092 0.72743 0.0
C605 C 0.27173 0.35309 0.76313 0.0
C606 C 0.25853 0.36187 0.72456 0.0
C607 C 0.25608 0.33694 0.71324 0.0
O608 O 0.26554 0.317 0.7998 0.0
O609 O 0.30994 0.29725 0.79473 0.0
O610 O 0.31228 0.25351 0.78347 0.0
O611 O 0.27767 0.2616 0.77579 0.0
O612 O 0.29746 0.32792 0.805 0.0
O613 O 0.25101 0.28077 0.77821 0.0
O614 O 0.3508 0.27158 0.74392 0.0
O615 O 0.30805 0.28961 0.75134 0.0
O616 O 0.30551 0.33365 0.76294 0.0
O617 O 0.33993 0.32489 0.76989 0.0
O618 O 0.31987 0.25809 0.74223 0.0
O619 O 0.3688 0.30343 0.77016 0.0
C620 C 0.31178 0.31651 0.81147 0.0
C621 C 0.22645 0.30442 0.79523 0.0
C622 C 0.19024 0.30256 0.81087 0.0
C623 C 0.21084 0.29597 0.81111 0.0
C624 C 0.18611 0.31849 0.79536 0.0
C625 C 0.22119 0.31935 0.77933 0.0
C626 C 0.20138 0.32667 0.77972 0.0
C627 C 0.2903 0.24659 0.78068 0.0
C628 C 0.24836 0.29833 0.79577 0.0
C629 C 0.2463 0.32727 0.68871 0.0
C630 C 0.24142 0.30161 0.67919 0.0
C631 C 0.3058 0.26969 0.73529 0.0
C632 C 0.38984 0.27849 0.74667 0.0
C633 C 0.40736 0.29006 0.73442 0.0
C634 C 0.42585 0.27963 0.73032 0.0
C635 C 0.42603 0.25729 0.73798 0.0
C636 C 0.39112 0.25653 0.75427 0.0
C637 C 0.4089 0.24597 0.74985 0.0
C638 C 0.32751 0.34023 0.76536 0.0
C639 C 0.36951 0.28797 0.74981 0.0
H640 H 0.21456 0.28407 0.82319 0.0
H641 H 0.17091 0.32464 0.79525 0.0
H642 H 0.23236 0.3255 0.76658 0.0
H643 H 0.19779 0.33867 0.76771 0.0
H644 H 0.40663 0.30699 0.72826 0.0
H645 H 0.43944 0.24831 0.73456 0.0
H646 H 0.37815 0.2471 0.7632 0.0
H647 H 0.40933 0.22875 0.75553 0.0
Tb648 Tb 0.0547 0.07228 0.53748 0.0
C649 C 0.07709 0.9949 0.45604 0.0
C650 C 0.0446 0.9825 0.42603 0.0
C651 C 0.07966 0.97624 0.41328 0.0
C652 C 0.05496 0.99316 0.45034 0.0
C653 C 0.08964 0.98594 0.43772 0.0
C654 C 0.05717 0.97454 0.40743 0.0
C655 C 0.12021 0.99414 0.46957 0.0
N656 N 0.08593 1.00366 0.47998 0.0
C657 C 0.10701 1.00253 0.4871 0.0
C658 C 0.11157 0.98606 0.44471 0.0
Tb659 Tb 0.06285 0.01566 0.50784 0.0
N660 N 0.0433 1.00032 0.469 0.0
C661 C 0.02073 0.99577 0.4646 0.0
C662 C 0.02178 0.97925 0.42131 0.0
C663 C 0.00977 0.98568 0.44077 0.0
H664 H 0.11388 0.00846 0.50628 0.0
H665 H 0.99201 0.98272 0.4375 0.0
H666 H 0.04951 0.96639 0.38866 0.0
H667 H 0.137 0.99376 0.47529 0.0
H668 H 0.01081 1.00024 0.47914 0.0
H669 H 0.12697 0.10795 0.60566 0.0
H670 H 0.0132 0.97115 0.40292 0.0
H671 H 1.00228 0.07387 0.5408 0.0
H672 H 0.10729 0.08762 0.56497 0.0
H673 H 0.97962 0.08896 0.57218 0.0
H674 H 0.08904 0.96934 0.39893 0.0
H675 H 0.10667 0.12241 0.64004 0.0
H676 H 0.07073 0.12787 0.6548 0.0
H677 H 0.12174 0.97929 0.43121 0.0
H678 H 0.03069 0.12268 0.64577 0.0
N679 N 0.07516 0.08908 0.57552 0.0
C680 C 0.09773 0.09333 0.57946 0.0
C681 C 0.09769 0.1131 0.62209 0.0
C682 C 0.0748 0.10953 0.6179 0.0
C683 C 0.1092 0.10502 0.60274 0.0
C684 C 0.06388 0.09728 0.59416 0.0
H685 H 0.99661 0.10816 0.61509 0.0
N686 N 0.03174 0.08319 0.56589 0.0
C687 C 0.99696 0.09044 0.57726 0.0
C688 C 0.04141 0.09424 0.58918 0.0
C689 C 0.00988 0.08184 0.55952 0.0
C690 C 0.00659 0.10123 0.60146 0.0
C691 C 0.02913 0.10352 0.60762 0.0
O692 O 0.04084 0.09667 0.52115 0.0
O693 O 0.05246 0.04832 0.50055 0.0
O694 O 0.08878 0.04254 0.49547 0.0
O695 O 0.08794 0.07675 0.52576 0.0
O696 O 0.0259 0.06178 0.50922 0.0
O697 O 0.07435 0.10834 0.53897 0.0
O698 O 0.07432 0.99012 0.52497 0.0
O699 O 0.06551 0.03985 0.54461 0.0
O700 O 0.03145 0.04493 0.55212 0.0
O701 O 0.02929 0.01241 0.51906 0.0
O702 O 0.09146 0.02538 0.53628 0.0
O703 O 0.04153 0.98042 0.50565 0.0
C704 C 0.03355 0.04979 0.49103 0.0
C705 C 0.05534 0.13947 0.53444 0.0
C706 C 0.05884 0.18002 0.5241 0.0
C707 C 0.0646 0.15714 0.52114 0.0
C708 C 0.04416 0.1853 0.54142 0.0
C709 C 0.04088 0.14498 0.55178 0.0
C710 C 0.03545 0.16793 0.55534 0.0
C711 C 0.09751 0.06556 0.5079 0.0
C712 C 0.05864 0.11451 0.52684 0.0
C713 C 0.03982 0.11539 0.63137 0.0
C714 C 0.06262 0.11836 0.63651 0.0
C715 C 0.08426 0.03812 0.55434 0.0
C716 C 0.05828 0.94785 0.51057 0.0
C717 C 0.05127 0.93129 0.52584 0.0
C718 C 0.05609 0.90801 0.52162 0.0
C719 C 0.06754 0.90104 0.50153 0.0
C720 C 0.06941 0.94078 0.49027 0.0
C721 C 0.07392 0.9173 0.48573 0.0
C722 C 0.02129 0.02279 0.5388 0.0
C723 C 0.05602 0.97315 0.51845 0.0
H724 H 0.07586 0.15264 0.50789 0.0
H725 H 0.03896 0.20254 0.54383 0.0
H726 H 0.03335 0.13143 0.562 0.0
H727 H 0.024 0.17203 0.56843 0.0
H728 H 0.04309 0.93703 0.54186 0.0
H729 H 0.07158 0.88312 0.49819 0.0
H730 H 0.07505 0.95345 0.47839 0.0
H731 H 0.08277 0.91192 0.47027 0.0
Tb732 Tb 0.33128 0.80996 0.76769 0.0
C733 C 0.27666 0.73766 0.82133 0.0
C734 C 0.28078 0.69792 0.79943 0.0
C735 C 0.2715 0.70255 0.84171 0.0
C736 C 0.28128 0.72318 0.80033 0.0
C737 C 0.27102 0.72734 0.84202 0.0
C738 C 0.27645 0.68788 0.82045 0.0
C739 C 0.26202 0.76567 0.86035 0.0
N740 N 0.27576 0.76127 0.82063 0.0
C741 C 0.26767 0.775 0.83934 0.0
C742 C 0.26403 0.74187 0.86187 0.0
Tb743 Tb 0.28409 0.77471 0.7851 0.0
N744 N 0.28446 0.73333 0.78014 0.0
C745 C 0.2858 0.71849 0.75789 0.0
C746 C 0.28364 0.68323 0.77713 0.0
C747 C 0.28588 0.6935 0.75619 0.0
H748 H 0.26603 0.79341 0.83835 0.0
H749 H 0.28753 0.68216 0.73865 0.0
H750 H 0.27609 0.66856 0.82015 0.0
H751 H 0.25609 0.77683 0.87533 0.0
H752 H 0.28735 0.7257 0.74126 0.0
H753 H 0.33033 0.90343 0.81347 0.0
H754 H 0.28341 0.66377 0.77569 0.0
H755 H 0.3453 0.78851 0.71249 0.0
H756 H 0.32895 0.85952 0.81114 0.0
H757 H 0.35419 0.80404 0.67481 0.0
H758 H 0.26737 0.69433 0.85748 0.0
H759 H 0.33507 0.92136 0.7762 0.0
H760 H 0.34163 0.91563 0.73147 0.0
H761 H 0.25945 0.73459 0.87806 0.0
H762 H 0.34826 0.88863 0.69372 0.0
N763 N 0.33191 0.85145 0.77231 0.0
C764 C 0.33084 0.8666 0.79446 0.0
C765 C 0.33424 0.90179 0.77491 0.0
C766 C 0.33647 0.88662 0.75261 0.0
C767 C 0.33164 0.89176 0.79598 0.0
C768 C 0.33523 0.86124 0.75192 0.0
H769 H 0.35325 0.8471 0.67253 0.0
N770 N 0.33866 0.8222 0.73135 0.0
C771 C 0.34978 0.81604 0.69035 0.0
C772 C 0.3388 0.84611 0.7307 0.0
C773 C 0.34471 0.80731 0.71181 0.0
C774 C 0.34916 0.84033 0.68911 0.0
C775 C 0.34393 0.85581 0.70955 0.0
O776 O 0.362 0.80202 0.76202 0.0
O777 O 0.31869 0.77476 0.7797 0.0
O778 O 0.30704 0.78508 0.81884 0.0
O779 O 0.33081 0.81813 0.80775 0.0
O780 O 0.33502 0.77318 0.74936 0.0
O781 O 0.3592 0.83184 0.79146 0.0
O782 O 0.25321 0.7827 0.7894 0.0
O783 O 0.29708 0.8097 0.77358 0.0
O784 O 0.30677 0.80227 0.73575 0.0
O785 O 0.2852 0.76698 0.74494 0.0
O786 O 0.27931 0.81178 0.80242 0.0
O787 O 0.25649 0.75222 0.76109 0.0
C788 C 0.32675 0.75977 0.76439 0.0
C789 C 0.39374 0.83435 0.77611 0.0
C790 C 0.43345 0.84513 0.78619 0.0
C791 C 0.41249 0.83238 0.78994 0.0
C792 C 0.43573 0.86004 0.7685 0.0
C793 C 0.39595 0.84914 0.75831 0.0
C794 C 0.41695 0.86197 0.75455 0.0
C795 C 0.32359 0.80507 0.82425 0.0
C796 C 0.37241 0.8198 0.78028 0.0
C797 C 0.34444 0.88084 0.70982 0.0
C798 C 0.34067 0.89621 0.73131 0.0
C799 C 0.28883 0.82516 0.78793 0.0
C800 C 0.2217 0.75007 0.77578 0.0
C801 C 0.20302 0.75223 0.76199 0.0
C802 C 0.18193 0.73958 0.76562 0.0
C803 C 0.17964 0.72456 0.78327 0.0
C804 C 0.21939 0.73518 0.79348 0.0
C805 C 0.19835 0.72248 0.79721 0.0
C806 C 0.29116 0.78153 0.72926 0.0
C807 C 0.24307 0.76443 0.7715 0.0
H808 H 0.41082 0.82068 0.80351 0.0
H809 H 0.45195 0.8698 0.76529 0.0
H810 H 0.38165 0.85066 0.74727 0.0
H811 H 0.41869 0.87327 0.74071 0.0
H812 H 0.20494 0.76368 0.74821 0.0
H813 H 0.16343 0.7147 0.78643 0.0
H814 H 0.23365 0.73337 0.80436 0.0
H815 H 0.19654 0.71106 0.81094 0.0
Tb816 Tb 0.56488 0.03015 0.05148 0.0
C817 C 0.51294 0.05608 0.96507 0.0
C818 C 0.48803 0.01623 0.94704 0.0
C819 C 0.47807 0.0542 0.94166 0.0
C820 C 0.50805 0.03053 0.96092 0.0
C821 C 0.49832 0.06825 0.9549 0.0
C822 C 0.4729 0.02822 0.9378 0.0
C823 C 0.52594 0.10687 0.96912 0.0
N824 N 0.53271 0.06894 0.97776 0.0
C825 C 0.5399 0.09388 0.97871 0.0
C826 C 0.5049 0.09406 0.95751 0.0
Tb827 Tb 0.55511 0.04628 0.99163 0.0
N828 N 0.52325 0.0197 0.96989 0.0
C829 C 0.51977 0.99433 0.96439 0.0
C830 C 0.48405 0.99033 0.94239 0.0
C831 C 0.50007 0.97936 0.95096 0.0
H832 H 0.55625 0.10381 0.98752 0.0
H833 H 0.49733 0.95933 0.94715 0.0
H834 H 0.45741 0.01756 0.92717 0.0
H835 H 0.53146 0.12673 0.9706 0.0
H836 H 0.53177 0.98521 0.9707 0.0
H837 H 0.62054 0.11771 0.09811 0.0
H838 H 0.46887 0.97868 0.93183 0.0
H839 H 0.56603 0.97217 0.05229 0.0
H840 H 0.58715 0.09134 0.0728 0.0
H841 H 0.59146 0.94982 0.06891 0.0
H842 H 0.46653 0.06321 0.93384 0.0
H843 H 0.64878 0.09897 0.11493 0.0
H844 H 0.66087 0.0605 0.11976 0.0
H845 H 0.49417 0.10411 0.94993 0.0
H846 H 0.65315 0.01484 0.11154 0.0
N847 N 0.59596 0.05715 0.07438 0.0
C848 C 0.59902 0.08247 0.07986 0.0
C849 C 0.63403 0.08709 0.1037 0.0
C850 C 0.63057 0.06124 0.0988 0.0
C851 C 0.61812 0.09772 0.09427 0.0
C852 C 0.6111 0.04664 0.08401 0.0
H853 H 0.62737 0.97341 0.09251 0.0
N854 N 0.58799 0.00787 0.06493 0.0
C855 C 0.59615 0.96987 0.07169 0.0
C856 C 0.60701 0.02109 0.07902 0.0
C857 C 0.58187 0.98255 0.06222 0.0
C858 C 0.61639 0.98324 0.08501 0.0
C859 C 0.62189 0.00921 0.08918 0.0
O860 O 0.54307 1.00703 0.06919 0.0
O861 O 0.54183 0.02983 0.02103 0.0
O862 O 0.54088 0.07115 0.01701 0.0
O863 O 0.55305 0.06455 0.05577 0.0
O864 O 0.53789 0.9982 0.03426 0.0
O865 O 0.55628 0.04593 0.0859 0.0
O866 O 0.57809 0.06781 0.9737 0.0
O867 O 0.57796 0.04685 0.02231 0.0
O868 O 0.57989 1.00637 0.02583 0.0
O869 O 0.56618 0.01172 0.98724 0.0
O870 O 0.58294 0.07789 0.00798 0.0
O871 O 0.56209 0.02968 0.95664 0.0
C872 C 0.52872 0.00905 0.01946 0.0
C873 C 0.54568 0.01826 0.11245 0.0
C874 C 0.52875 0.01388 0.14992 0.0
C875 C 0.52967 0.0226 0.12794 0.0
C876 C 0.5442 1.00103 0.15664 0.0
C877 C 0.56146 1.00595 0.1195 0.0
C878 C 0.56068 0.99736 0.14155 0.0
C879 C 0.54325 0.07647 0.04155 0.0
C880 C 0.54392 0.02478 0.08824 0.0
C881 C 0.64145 0.02361 0.10365 0.0
C882 C 0.64581 0.04959 0.10839 0.0
C883 C 0.59138 0.06738 0.02369 0.0
C884 C 0.57499 0.05719 0.93054 0.0
C885 C 0.59304 0.05664 0.9171 0.0
C886 C 0.59422 0.06599 0.89544 0.0
C887 C 0.57709 0.07592 0.88722 0.0
C888 C 0.55764 0.06651 0.92191 0.0
C889 C 0.55877 0.07595 0.90035 0.0
C890 C 0.57716 1.00089 1.00136 0.0
C891 C 0.57597 0.04994 0.95444 0.0
H892 H 0.5173 0.03186 0.12238 0.0
H893 H 0.54353 0.99398 0.17354 0.0
H894 H 0.57407 1.00257 0.10796 0.0
H895 H 0.57267 0.98755 0.14677 0.0
H896 H 0.60651 0.04954 0.92387 0.0
H897 H 0.57773 0.08324 0.87048 0.0
H898 H 0.54343 0.06677 0.93184 0.0
H899 H 0.54548 0.08339 0.89386 0.0
Tb900 Tb 0.32972 0.33223 0.29576 0.0
C901 C 0.25237 0.24844 0.23958 0.0
C902 C 0.23118 0.23807 0.27269 0.0
C903 C 0.21261 0.23115 0.23118 0.0
C904 C 0.25154 0.24759 0.26415 0.0
C905 C 0.23304 0.23933 0.22259 0.0
C906 C 0.21167 0.23059 0.25625 0.0
C907 C 0.25591 0.24299 0.18949 0.0
N908 N 0.27246 0.25581 0.2319 0.0
C909 C 0.27453 0.25158 0.20705 0.0
C910 C 0.23498 0.23733 0.19732 0.0
Tb911 Tb 0.30256 0.26965 0.26167 0.0
N912 N 0.27088 0.25426 0.27924 0.0
C913 C 0.27074 0.25027 0.303 0.0
C914 C 0.23109 0.23523 0.29718 0.0
C915 C 0.25102 0.24097 0.31225 0.0
H916 H 0.29065 0.25466 0.20075 0.0
H917 H 0.25124 0.23842 0.33115 0.0
H918 H 0.19592 0.22342 0.26253 0.0
H919 H 0.25776 0.24029 0.16993 0.0
H920 H 0.28543 0.25466 0.31569 0.0
H921 H 0.3805 0.36832 0.22789 0.0
H922 H 0.21584 0.22796 0.30441 0.0
H923 H 0.34 0.3442 0.35628 0.0
H924 H 0.34774 0.34578 0.24107 0.0
H925 H 0.3716 0.36305 0.38849 0.0
H926 H 0.19758 0.2243 0.21846 0.0
H927 H 0.41468 0.38521 0.25666 0.0
H928 H 0.43371 0.39289 0.2994 0.0
H929 H 0.22057 0.23026 0.18368 0.0
H930 H 0.4315 0.3911 0.34318 0.0
N931 N 0.36138 0.34944 0.27889 0.0
C932 C 0.36162 0.35307 0.25496 0.0
C933 C 0.39994 0.37526 0.26305 0.0
C934 C 0.39978 0.37231 0.28748 0.0
C935 C 0.38067 0.36594 0.24686 0.0
C936 C 0.38003 0.35938 0.29497 0.0
H937 H 0.40842 0.38017 0.37657 0.0
N938 N 0.35909 0.34796 0.32618 0.0
C939 C 0.37401 0.36156 0.36913 0.0
C940 C 0.37885 0.35845 0.31947 0.0
C941 C 0.35621 0.35058 0.3508 0.0
C942 C 0.39473 0.37118 0.36234 0.0
C943 C 0.39725 0.37028 0.33731 0.0
O944 O 0.31868 0.35745 0.32201 0.0
O945 O 0.29972 0.30411 0.28309 0.0
O946 O 0.29296 0.29377 0.23904 0.0
O947 O 0.31718 0.33203 0.25729 0.0
O948 O 0.30354 0.32287 0.31909 0.0
O949 O 0.32216 0.36325 0.28487 0.0
O950 O 0.31379 0.24505 0.23506 0.0
O951 O 0.33291 0.29746 0.27507 0.0
O952 O 0.33916 0.30767 0.31898 0.0
O953 O 0.31636 0.26905 0.29904 0.0
O954 O 0.32986 0.27913 0.23965 0.0
O955 O 0.30589 0.23603 0.27034 0.0
C956 C 0.29012 0.30654 0.30219 0.0
C957 C 0.32728 0.3989 0.3165 0.0
C958 C 0.32546 0.44056 0.3133 0.0
C959 C 0.3195 0.41495 0.30402 0.0
C960 C 0.33976 0.45039 0.33526 0.0
C961 C 0.34199 0.40865 0.33828 0.0
C962 C 0.34831 0.4344 0.34749 0.0
C963 C 0.30329 0.31681 0.23866 0.0
C964 C 0.31792 0.37232 0.30695 0.0
C965 C 0.4172 0.38198 0.32978 0.0
C966 C 0.41846 0.38302 0.30487 0.0
C967 C 0.34363 0.2948 0.25684 0.0
C968 C 0.30362 0.20246 0.23677 0.0
C969 C 0.31181 0.18593 0.24802 0.0
C970 C 0.31033 0.1618 0.23516 0.0
C971 C 0.29788 0.15299 0.21189 0.0
C972 C 0.29145 0.19405 0.21322 0.0
C973 C 0.28809 0.1691 0.20114 0.0
C974 C 0.32992 0.28387 0.31815 0.0
C975 C 0.31204 0.22859 0.24875 0.0
H976 H 0.30763 0.40729 0.28759 0.0
H977 H 0.34401 0.47017 0.343 0.0
H978 H 0.34816 0.39655 0.34842 0.0
H979 H 0.35938 0.44189 0.36446 0.0
H980 H 0.32143 0.19264 0.26612 0.0
H981 H 0.29662 0.13428 0.20171 0.0
H982 H 0.28522 0.20668 0.20389 0.0
H983 H 0.27891 0.16261 0.18291 0.0
Tb984 Tb 0.55428 0.57207 0.03859 0.0
C985 C 0.57705 0.49371 0.95809 0.0
C986 C 0.54456 0.48097 0.92809 0.0
C987 C 0.5797 0.47497 0.91538 0.0
C988 C 0.55491 0.49175 0.9524 0.0
C989 C 0.58966 0.48482 0.9398 0.0
C990 C 0.55717 0.47308 0.90952 0.0
C991 C 0.6203 0.49351 0.97166 0.0
N992 N 0.5859 0.50277 0.98198 0.0
C993 C 0.60705 0.50188 0.98914 0.0
C994 C 0.61165 0.48521 0.94682 0.0
Tb995 Tb 0.56294 0.51515 0.0098 0.0
N996 N 0.54325 0.49896 0.97104 0.0
C997 C 0.52067 0.4943 0.96659 0.0
C998 C 0.52174 0.4776 0.92336 0.0
C999 C 0.50972 0.48405 0.94278 0.0
H1000 H 0.61393 0.50804 0.0083 0.0
H1001 H 0.49195 0.48102 0.9395 0.0
H1002 H 0.54953 0.46485 0.89076 0.0
H1003 H 0.63714 0.49335 0.9774 0.0
H1004 H 0.51066 0.49873 0.981 0.0
H1005 H 0.62668 0.60905 0.10646 0.0
H1006 H 0.51317 0.46942 0.90497 0.0
H1007 H 0.50186 0.57336 0.04215 0.0
H1008 H 0.60709 0.58986 0.06543 0.0
H1009 H 0.4789 0.58672 0.0741 0.0
H1010 H 0.58913 0.46815 0.90105 0.0
H1011 H 0.60607 0.62054 0.14161 0.0
H1012 H 0.56982 0.62374 0.15702 0.0
H1013 H 0.62188 0.4785 0.93334 0.0
H1014 H 0.52966 0.61786 0.14824 0.0
N1015 N 0.5748 0.58897 0.07658 0.0
C1016 C 0.59744 0.59432 0.08026 0.0
C1017 C 0.59716 0.61174 0.12351 0.0
C1018 C 0.57417 0.60736 0.11953 0.0
C1019 C 0.60884 0.60535 0.10372 0.0
C1020 C 0.56335 0.59581 0.09559 0.0
H1021 H 0.49568 0.60423 0.11738 0.0
N1022 N 0.53126 0.58219 0.06724 0.0
C1023 C 0.49627 0.58828 0.07907 0.0
C1024 C 0.54083 0.59243 0.09072 0.0
C1025 C 0.50935 0.5807 0.06102 0.0
C1026 C 0.50579 0.59813 0.10348 0.0
C1027 C 0.52837 0.60058 0.10953 0.0
O1028 O 0.53962 0.59611 0.02265 0.0
O1029 O 0.55236 0.54763 1.00201 0.0
O1030 O 0.58877 0.54191 0.9972 0.0
O1031 O 0.58738 0.57692 0.02629 0.0
O1032 O 0.5257 0.56121 0.01001 0.0
O1033 O 0.57341 0.60832 0.03977 0.0
O1034 O 0.57503 0.49056 0.02786 0.0
O1035 O 0.56546 0.54005 0.04599 0.0
O1036 O 0.53147 0.54457 0.05347 0.0
O1037 O 0.52912 0.51218 0.02023 0.0
O1038 O 0.59179 0.526 0.03827 0.0
O1039 O 0.542 0.48002 0.00926 0.0
C1040 C 0.53354 0.549 0.99212 0.0
C1041 C 0.55395 0.63913 0.03514 0.0
C1042 C 0.55803 0.67944 0.02444 0.0
C1043 C 0.56375 0.65667 0.02198 0.0
C1044 C 0.54268 0.68496 0.04064 0.0
C1045 C 0.53889 0.64479 0.05172 0.0
C1046 C 0.53339 0.66775 0.05451 0.0
C1047 C 0.59717 0.56527 0.00892 0.0
C1048 C 0.55731 0.61414 0.02793 0.0
C1049 C 0.53894 0.61151 0.13353 0.0
C1050 C 0.5618 0.61486 0.13854 0.0
C1051 C 0.5844 0.53915 0.05583 0.0
C1052 C 0.55925 0.44798 0.01491 0.0
C1053 C 0.55074 0.43104 0.02935 0.0
C1054 C 0.55417 0.407 0.02459 0.0
C1055 C 0.56635 0.40015 0.00506 0.0
C1056 C 0.57115 0.4409 0.99535 0.0
C1057 C 0.5747 0.41702 0.99051 0.0
C1058 C 0.5212 0.52264 0.03994 0.0
C1059 C 0.55684 0.47336 0.02219 0.0
H1060 H 0.57504 0.6521 0.00876 0.0
H1061 H 0.53793 0.70245 0.0425 0.0
H1062 H 0.53097 0.63132 0.06186 0.0
H1063 H 0.52154 0.67199 0.06702 0.0
H1064 H 0.54141 0.43667 0.04433 0.0
H1065 H 0.56962 0.38186 1.0012 0.0
H1066 H 0.57791 0.45379 0.9841 0.0
H1067 H 0.58411 0.41164 0.97558 0.0
Tb1068 Tb 0.83255 0.30839 0.26677 0.0
C1069 C 0.77557 0.23833 0.3207 0.0
C1070 C 0.78065 0.19824 0.30109 0.0
C1071 C 0.76997 0.20448 0.34278 0.0
C1072 C 0.78105 0.22325 0.30069 0.0
C1073 C 0.76922 0.22891 0.34168 0.0
C1074 C 0.77573 0.18917 0.32253 0.0
C1075 C 0.75882 0.26713 0.35719 0.0
N1076 N 0.77439 0.26154 0.31857 0.0
C1077 C 0.76522 0.27558 0.33595 0.0
C1078 C 0.7612 0.24387 0.36028 0.0
Tb1079 Tb 0.7842 0.2735 0.28274 0.0
N1080 N 0.78474 0.23243 0.28002 0.0
C1081 C 0.78647 0.21678 0.25844 0.0
C1082 C 0.78406 0.18277 0.27956 0.0
C1083 C 0.78661 0.192 0.25803 0.0
H1084 H 0.7632 0.29355 0.33374 0.0
H1085 H 0.78857 0.18001 0.24102 0.0
H1086 H 0.77547 0.17007 0.32324 0.0
H1087 H 0.75203 0.27856 0.37112 0.0
H1088 H 0.78821 0.22323 0.24141 0.0
H1089 H 0.83449 0.40168 0.31592 0.0
H1090 H 0.78388 0.16347 0.2791 0.0
H1091 H 0.84708 0.28833 0.21175 0.0
H1092 H 0.83029 0.35711 0.31157 0.0
H1093 H 0.85765 0.30524 0.17514 0.0
H1094 H 0.76532 0.19695 0.35882 0.0
H1095 H 0.84129 0.42127 0.27998 0.0
H1096 H 0.84842 0.41691 0.23553 0.0
H1097 H 0.75605 0.23728 0.37663 0.0
H1098 H 0.85463 0.39065 0.1971 0.0
N1099 N 0.83409 0.35024 0.27287 0.0
C1100 C 0.83312 0.36483 0.29539 0.0
C1101 C 0.83926 0.40139 0.27776 0.0
C1102 C 0.8411 0.3867 0.25503 0.0
C1103 C 0.83551 0.39043 0.29809 0.0
C1104 C 0.83847 0.36091 0.25318 0.0
H1105 H 0.85835 0.34907 0.1745 0.0
N1106 N 0.84091 0.32194 0.23134 0.0
C1107 C 0.85316 0.31695 0.19085 0.0
C1108 C 0.84195 0.34622 0.23162 0.0
C1109 C 0.84716 0.30743 0.21165 0.0
C1110 C 0.85345 0.34166 0.19052 0.0
C1111 C 0.84819 0.35676 0.21123 0.0
O1112 O 0.86322 0.30034 0.26093 0.0
O1113 O 0.81897 0.27345 0.27842 0.0
O1114 O 0.80574 0.28413 0.31748 0.0
O1115 O 0.83151 0.31585 0.30677 0.0
O1116 O 0.83661 0.27143 0.24906 0.0
O1117 O 0.86028 0.32885 0.29167 0.0
O1118 O 0.75322 0.28204 0.28337 0.0
O1119 O 0.79809 0.30842 0.27136 0.0
O1120 O 0.80888 0.3 0.23382 0.0
O1121 O 0.78694 0.2649 0.24298 0.0
O1122 O 0.77938 0.31069 0.29932 0.0
O1123 O 0.75722 0.24942 0.2588 0.0
C1124 C 0.82735 0.25823 0.26378 0.0
C1125 C 0.8952 0.3319 0.27708 0.0
C1126 C 0.9349 0.34206 0.28882 0.0
C1127 C 0.91338 0.33011 0.29207 0.0
C1128 C 0.93789 0.35664 0.27075 0.0
C1129 C 0.89834 0.34633 0.25904 0.0
C1130 C 0.91966 0.3588 0.25604 0.0
C1131 C 0.8228 0.30354 0.32321 0.0
C1132 C 0.87351 0.31716 0.28004 0.0
C1133 C 0.84992 0.38221 0.21259 0.0
C1134 C 0.84639 0.39716 0.23446 0.0
C1135 C 0.78975 0.32411 0.28537 0.0
C1136 C 0.72191 0.24891 0.27168 0.0
C1137 C 0.70323 0.25086 0.25768 0.0
C1138 C 0.68208 0.24033 0.26304 0.0
C1139 C 0.67965 0.2276 0.28253 0.0
C1140 C 0.71943 0.23567 0.29077 0.0
C1141 C 0.69832 0.22509 0.29617 0.0
C1142 C 0.79345 0.27908 0.22715 0.0
C1143 C 0.74348 0.26239 0.2668 0.0
H1144 H 0.91072 0.31901 0.30608 0.0
H1145 H 0.9543 0.36579 0.26751 0.0
H1146 H 0.88451 0.34775 0.24717 0.0
H1147 H 0.92209 0.3698 0.24197 0.0
H1148 H 0.70515 0.26125 0.24302 0.0
H1149 H 0.66337 0.21945 0.28697 0.0
H1150 H 0.73362 0.23369 0.30159 0.0
H1151 H 0.69645 0.2151 0.31107 0.0
Tb1152 Tb 0.06272 0.52797 0.55112 0.0
C1153 C 0.00666 0.54887 0.46715 0.0
C1154 C 0.98623 0.50752 0.4462 0.0
C1155 C 0.96976 0.54246 0.4459 0.0
C1156 C 0.00553 0.52367 0.46024 0.0
C1157 C 0.98906 0.55857 0.45928 0.0
C1158 C 0.96831 0.51698 0.43949 0.0
C1159 C 0.01148 0.5998 0.47628 0.0
N1160 N 0.02524 0.56403 0.48074 0.0
C1161 C 0.02833 0.58941 0.48392 0.0
C1162 C 0.99155 0.5843 0.46439 0.0
Tb1163 Tb 0.05226 0.54483 0.49162 0.0
N1164 N 0.0232 0.51498 0.46707 0.0
C1165 C 0.02248 0.49017 0.45923 0.0
C1166 C 0.98544 0.4823 0.43904 0.0
C1167 C 0.00369 0.47366 0.44541 0.0
H1168 H 0.04347 0.60193 0.49351 0.0
H1169 H 1.00329 0.45413 0.43976 0.0
H1170 H 0.95338 0.50478 0.4289 0.0
H1171 H 0.01385 0.61977 0.47974 0.0
H1172 H 0.03578 0.48206 0.4637 0.0
H1173 H 0.11768 0.61486 0.59968 0.0
H1174 H 0.97091 0.46937 0.42835 0.0
H1175 H 0.06472 0.47 0.55046 0.0
H1176 H 0.08361 0.58837 0.57552 0.0
H1177 H 0.0918 0.44753 0.56328 0.0
H1178 H 0.95602 0.54957 0.44002 0.0
H1179 H 0.14824 0.59648 0.61113 0.0
H1180 H 0.16249 0.55821 0.61087 0.0
H1181 H 0.97844 0.59239 0.45856 0.0
H1182 H 0.15558 0.51257 0.60065 0.0
N1183 N 0.09405 0.55463 0.57345 0.0
C1184 C 0.09635 0.57971 0.58075 0.0
C1185 C 0.13309 0.58458 0.60075 0.0
C1186 C 0.13042 0.55887 0.59394 0.0
C1187 C 0.11585 0.59499 0.59441 0.0
C1188 C 0.11038 0.54426 0.58036 0.0
H1189 H 0.12911 0.47106 0.58318 0.0
N1190 N 0.08688 0.50566 0.56194 0.0
C1191 C 0.09631 0.4676 0.56626 0.0
C1192 C 0.10668 0.51882 0.57431 0.0
C1193 C 0.08105 0.48034 0.55898 0.0
C1194 C 0.11735 0.48094 0.57746 0.0
C1195 C 0.12264 0.50692 0.58204 0.0
O1196 O 0.03905 0.50511 0.56722 0.0
O1197 O 0.03994 0.52697 0.52009 0.0
O1198 O 0.03958 0.56915 0.51959 0.0
O1199 O 0.04956 0.56092 0.55806 0.0
O1200 O 0.03702 0.49493 0.53253 0.0
O1201 O 0.05654 0.54131 0.58766 0.0
O1202 O 0.07051 0.57838 0.4845 0.0
O1203 O 0.07338 0.55252 0.52648 0.0
O1204 O 0.0788 0.50634 0.52426 0.0
O1205 O 0.0644 0.51103 0.48529 0.0
O1206 O 0.08774 0.55058 0.49363 0.0
O1207 O 0.05889 0.54437 0.45492 0.0
C1208 C 0.02814 0.50534 0.51708 0.0
C1209 C 0.04171 0.51122 0.6106 0.0
C1210 C 0.02585 0.50815 0.64907 0.0
C1211 C 0.02906 0.51956 0.62881 0.0
C1212 C 0.03567 0.48858 0.65136 0.0
C1213 C 0.05181 0.4919 0.61323 0.0
C1214 C 0.04884 0.4807 0.6336 0.0
C1215 C 0.04036 0.57316 0.54396 0.0
C1216 C 0.0418 0.52113 0.58797 0.0
C1217 C 0.14299 0.52133 0.59478 0.0
C1218 C 0.1469 0.5473 0.60065 0.0
C1219 C 0.09146 0.55457 0.5172 0.0
C1220 C 0.07987 0.58134 0.44326 0.0
C1221 C 0.0887 0.56878 0.42361 0.0
C1222 C 0.09873 0.58163 0.4065 0.0
C1223 C 0.09994 0.60714 0.40913 0.0
C1224 C 0.0814 0.60689 0.44603 0.0
C1225 C 0.09137 0.61971 0.42891 0.0
C1226 C 0.0757 0.5006 0.49968 0.0
C1227 C 0.06964 0.56784 0.46118 0.0
H1228 H 0.021 0.5343 0.62676 0.0
H1229 H 0.03323 0.47954 0.66691 0.0
H1230 H 0.06149 0.48506 0.59939 0.0
H1231 H 0.05645 0.46562 0.6354 0.0
H1232 H 0.08783 0.5491 0.42161 0.0
H1233 H 0.10779 0.61735 0.39606 0.0
H1234 H 0.07477 0.61686 0.46128 0.0
H1235 H 0.0925 0.6394 0.43099 0.0
Tb1236 Tb 0.78154 0.80107 0.27034 0.0
C1237 C 0.85452 0.76593 0.31619 0.0
C1238 C 0.87122 0.80184 0.34859 0.0
C1239 C 0.87156 0.76062 0.35499 0.0
C1240 C 0.85952 0.79122 0.32486 0.0
C1241 C 0.86139 0.75039 0.3307 0.0
C1242 C 0.87641 0.78635 0.36396 0.0
C1243 C 0.85113 0.71673 0.29485 0.0
N1244 N 0.84505 0.75689 0.29253 0.0
C1245 C 0.8446 0.73291 0.28124 0.0
C1246 C 0.85903 0.72536 0.31988 0.0
Tb1247 Tb 0.83414 0.78468 0.27176 0.0
N1248 N 0.85467 0.80551 0.30918 0.0
C1249 C 0.8631 0.83079 0.3155 0.0
C1250 C 0.87832 0.82769 0.35568 0.0
C1251 C 0.87472 0.84217 0.3388 0.0
H1252 H 0.83834 0.72604 0.26189 0.0
H1253 H 0.88073 0.86218 0.34378 0.0
H1254 H 0.88508 0.79415 0.38236 0.0
H1255 H 0.84999 0.69762 0.28602 0.0
H1256 H 0.86069 0.84281 0.30323 0.0
H1257 H 0.73127 0.7235 0.20129 0.0
H1258 H 0.88733 0.83656 0.37371 0.0
H1259 H 0.7805 0.86027 0.2818 0.0
H1260 H 0.75971 0.74294 0.23558 0.0
H1261 H 0.76544 0.88916 0.26129 0.0
H1262 H 0.87662 0.74894 0.36657 0.0
H1263 H 0.71369 0.7491 0.17863 0.0
H1264 H 0.71106 0.79137 0.17318 0.0
H1265 H 0.86418 0.71284 0.33036 0.0
H1266 H 0.72186 0.83671 0.1882 0.0
N1267 N 0.75828 0.78042 0.23472 0.0
C1268 C 0.75206 0.75499 0.22712 0.0
C1269 C 0.72606 0.75804 0.1943 0.0
C1270 C 0.73247 0.7839 0.20175 0.0
C1271 C 0.7359 0.74355 0.20707 0.0
C1272 C 0.7486 0.79463 0.22241 0.0
H1273 H 0.74234 0.87343 0.2209 0.0
N1274 N 0.7687 0.82916 0.25181 0.0
C1275 C 0.76256 0.86982 0.25222 0.0
C1276 C 0.75477 0.81997 0.23062 0.0
C1277 C 0.77133 0.85347 0.2636 0.0
C1278 C 0.74956 0.86087 0.22944 0.0
C1279 C 0.74484 0.83551 0.21879 0.0
O1280 O 0.76625 0.81861 0.29918 0.0
O1281 O 0.80913 0.7962 0.29328 0.0
O1282 O 0.81073 0.75206 0.28035 0.0
O1283 O 0.77676 0.76167 0.27405 0.0
O1284 O 0.79845 0.82834 0.30271 0.0
O1285 O 0.75185 0.78112 0.28074 0.0
O1286 O 0.8513 0.76674 0.24541 0.0
O1287 O 0.8071 0.79063 0.24851 0.0
O1288 O 0.8047 0.83295 0.26014 0.0
O1289 O 0.83899 0.82386 0.26688 0.0
O1290 O 0.8171 0.75904 0.23796 0.0
O1291 O 0.86507 0.8044 0.2636 0.0
C1292 C 0.8119 0.81607 0.30951 0.0
C1293 C 0.72727 0.80493 0.29752 0.0
C1294 C 0.69263 0.80495 0.31622 0.0
C1295 C 0.71317 0.79829 0.31547 0.0
C1296 C 0.68633 0.81776 0.29861 0.0
C1297 C 0.7202 0.81756 0.28024 0.0
C1298 C 0.69996 0.82388 0.28074 0.0
C1299 C 0.78875 0.74583 0.27818 0.0
C1300 C 0.74956 0.79967 0.29741 0.0
C1301 C 0.72953 0.82507 0.19764 0.0
C1302 C 0.72327 0.79927 0.1892 0.0
C1303 C 0.80478 0.77229 0.23047 0.0
C1304 C 0.89045 0.78048 0.24886 0.0
C1305 C 0.90634 0.78952 0.23343 0.0
C1306 C 0.92717 0.78333 0.23399 0.0
C1307 C 0.9312 0.76722 0.24934 0.0
C1308 C 0.8957 0.76538 0.26459 0.0
C1309 C 0.91569 0.75849 0.2645 0.0
C1310 C 0.82673 0.83941 0.26248 0.0
C1311 C 0.8681 0.78568 0.24773 0.0
H1312 H 0.71835 0.78859 0.32905 0.0
H1313 H 0.67064 0.82289 0.29852 0.0
H1314 H 0.73031 0.82286 0.2664 0.0
H1315 H 0.69487 0.83371 0.26725 0.0
H1316 H 0.90264 0.80146 0.22138 0.0
H1317 H 0.94652 0.76131 0.24968 0.0
H1318 H 0.88431 0.75866 0.27689 0.0
H1319 H 0.91923 0.74632 0.27634 0.0
Tb1320 Tb 0.82392 0.28094 0.74297 0.0
C1321 C 0.78771 0.35076 0.81907 0.0
C1322 C 0.82135 0.37847 0.84125 0.0
C1323 C 0.7881 0.39349 0.83776 0.0
C1324 C 0.80969 0.35492 0.82725 0.0
C1325 C 0.77639 0.3697 0.82495 0.0
C1326 C 0.81059 0.39788 0.84587 0.0
C1327 C 0.74239 0.33934 0.80823 0.0
N1328 N 0.77701 0.32752 0.80704 0.0
C1329 C 0.7544 0.32123 0.80311 0.0
C1330 C 0.7535 0.36384 0.81875 0.0
Tb1331 Tb 0.79764 0.29875 0.79775 0.0
N1332 N 0.81934 0.33555 0.8225 0.0
C1333 C 0.84069 0.33861 0.83277 0.0
C1334 C 0.84326 0.38165 0.8508 0.0
C1335 C 0.85284 0.36151 0.84684 0.0
H1336 H 0.74564 0.30221 0.79534 0.0
H1337 H 0.86975 0.36365 0.85438 0.0
H1338 H 0.81935 0.41612 0.85633 0.0
H1339 H 0.72458 0.33433 0.80422 0.0
H1340 H 0.84925 0.32409 0.82995 0.0
H1341 H 0.75074 0.21303 0.69231 0.0
H1342 H 0.85276 0.3994 0.86164 0.0
H1343 H 0.87613 0.27877 0.74859 0.0
H1344 H 0.77033 0.25155 0.71986 0.0
H1345 H 0.89897 0.25013 0.7328 0.0
H1346 H 0.77977 0.40836 0.84218 0.0
H1347 H 0.77083 0.18221 0.67442 0.0
H1348 H 0.80678 0.1702 0.6703 0.0
H1349 H 0.74419 0.37783 0.82294 0.0
H1350 H 0.847 0.18007 0.6815 0.0
N1351 N 0.80246 0.24395 0.71867 0.0
C1352 C 0.78001 0.23901 0.71242 0.0
C1353 C 0.77983 0.1994 0.6867 0.0
C1354 C 0.80267 0.20443 0.69268 0.0
C1355 C 0.76847 0.21675 0.69671 0.0
C1356 C 0.81359 0.22703 0.70894 0.0
H1357 H 0.88143 0.20961 0.70503 0.0
N1358 N 0.84569 0.25392 0.73163 0.0
C1359 C 0.88123 0.24469 0.72805 0.0
C1360 C 0.836 0.23224 0.71566 0.0
C1361 C 0.86819 0.26072 0.7372 0.0
C1362 C 0.87129 0.2219 0.71232 0.0
C1363 C 0.84843 0.21549 0.70575 0.0
O1364 O 0.84972 0.30327 0.72932 0.0
O1365 O 0.81717 0.30961 0.77017 0.0
O1366 O 0.77858 0.30831 0.76753 0.0
O1367 O 0.79262 0.29097 0.73187 0.0
O1368 O 0.84913 0.31396 0.76237 0.0
O1369 O 0.81754 0.28901 0.70795 0.0
O1370 O 0.77094 0.27695 0.81038 0.0
O1371 O 0.80492 0.26951 0.77126 0.0
O1372 O 0.84248 0.26977 0.77264 0.0
O1373 O 0.82852 0.28764 0.80805 0.0
O1374 O 0.77272 0.26673 0.77764 0.0
O1375 O 0.8026 0.29028 0.83292 0.0
C1376 C 0.83577 0.3244 0.77464 0.0
C1377 C 0.84859 0.2995 0.68622 0.0
C1378 C 0.85514 0.31422 0.64835 0.0
C1379 C 0.84298 0.31225 0.66851 0.0
C1380 C 0.87258 0.30234 0.64552 0.0
C1381 C 0.86604 0.28772 0.68331 0.0
C1382 C 0.87786 0.28898 0.66289 0.0
C1383 C 0.7778 0.30158 0.74304 0.0
C1384 C 0.83776 0.30202 0.70882 0.0
C1385 C 0.83774 0.19313 0.68935 0.0
C1386 C 0.81486 0.18756 0.68291 0.0
C1387 C 0.7862 0.25481 0.76743 0.0
C1388 C 0.77077 0.27666 0.85261 0.0
C1389 C 0.77723 0.26312 0.86906 0.0
C1390 C 0.76478 0.25829 0.88824 0.0
C1391 C 0.74583 0.26739 0.89135 0.0
C1392 C 0.75169 0.28567 0.85542 0.0
C1393 C 0.7393 0.28107 0.87489 0.0
C1394 C 0.84324 0.27665 0.79716 0.0
C1395 C 0.78236 0.27699 0.83076 0.0
H1396 H 0.82948 0.32133 0.6709 0.0
H1397 H 0.88248 0.3039 0.63031 0.0
H1398 H 0.87098 0.27818 0.69696 0.0
H1399 H 0.89149 0.28016 0.66087 0.0
H1400 H 0.79167 0.25563 0.86651 0.0
H1401 H 0.73594 0.26349 0.90613 0.0
H1402 H 0.74606 0.29555 0.84232 0.0
H1403 H 0.72444 0.28768 0.87695 0.0
Tb1404 Tb 0.82873 0.82788 0.79156 0.0
C1405 C 0.74251 0.75125 0.74924 0.0
C1406 C 0.7258 0.74139 0.78544 0.0
C1407 C 0.70328 0.73095 0.74583 0.0
C1408 C 0.74465 0.75077 0.7741 0.0
C1409 C 0.72171 0.74135 0.73485 0.0
C1410 C 0.7053 0.73108 0.7711 0.0
C1411 C 0.73869 0.75158 0.69931 0.0
N1412 N 0.76074 0.7613 0.73913 0.0
C1413 C 0.75893 0.76085 0.71408 0.0
C1414 C 0.71998 0.74173 0.70969 0.0
Tb1415 Tb 0.79423 0.7678 0.76307 0.0
N1416 N 0.76492 0.76033 0.78731 0.0
C1417 C 0.76636 0.76339 0.81274 0.0
C1418 C 0.72791 0.743 0.81094 0.0
C1419 C 0.74817 0.75463 0.8247 0.0
H1420 H 0.77307 0.76603 0.70442 0.0
H1421 H 0.74981 0.75705 0.84467 0.0
H1422 H 0.69083 0.72342 0.77946 0.0
H1423 H 0.73772 0.75126 0.67964 0.0
H1424 H 0.78103 0.7735 0.8247 0.0
H1425 H 0.88669 0.83547 0.72348 0.0
H1426 H 0.71384 0.73612 0.82029 0.0
H1427 H 0.83584 0.84444 0.85219 0.0
H1428 H 0.85026 0.82516 0.73772 0.0
H1429 H 0.86679 0.86208 0.88553 0.0
H1430 H 0.68733 0.72297 0.73496 0.0
H1431 H 0.92018 0.85066 0.75376 0.0
H1432 H 0.93671 0.86383 0.79826 0.0
H1433 H 0.70438 0.7341 0.69805 0.0
H1434 H 0.93133 0.87091 0.84247 0.0
N1435 N 0.86233 0.83341 0.77609 0.0
C1436 C 0.86443 0.83162 0.75138 0.0
C1437 C 0.9041 0.84585 0.76021 0.0
C1438 C 0.90189 0.84862 0.78549 0.0
C1439 C 0.88525 0.8374 0.7431 0.0
C1440 C 0.88055 0.84205 0.79287 0.0
H1441 H 0.90532 0.87025 0.87523 0.0
N1442 N 0.85665 0.8404 0.82356 0.0
C1443 C 0.87011 0.85728 0.86651 0.0
C1444 C 0.87758 0.84571 0.81755 0.0
C1445 C 0.85264 0.84705 0.84761 0.0
C1446 C 0.89182 0.86186 0.86063 0.0
C1447 C 0.89578 0.85649 0.83584 0.0
O1448 O 0.81747 0.85717 0.8116 0.0
O1449 O 0.7951 0.80568 0.77921 0.0
O1450 O 0.79907 0.79035 0.73494 0.0
O1451 O 0.81676 0.83092 0.75442 0.0
O1452 O 0.80329 0.82406 0.81584 0.0
O1453 O 0.83648 0.86268 0.78114 0.0
O1454 O 0.79905 0.74787 0.72862 0.0
O1455 O 0.82635 0.79311 0.76679 0.0
O1456 O 0.83287 0.80316 0.81749 0.0
O1457 O 0.80722 0.76499 0.79991 0.0
O1458 O 0.82519 0.75737 0.77014 0.0
O1459 O 0.78332 0.72892 0.75556 0.0
C1460 C 0.7873 0.81165 0.7992 0.0
C1461 C 0.83404 0.89861 0.81032 0.0
C1462 C 0.82731 0.93945 0.81244 0.0
C1463 C 0.82554 0.91526 0.79944 0.0
C1464 C 0.83885 0.94757 0.83625 0.0
C1465 C 0.84599 0.90671 0.83397 0.0
C1466 C 0.84866 0.93132 0.84672 0.0
C1467 C 0.80669 0.81403 0.73471 0.0
C1468 C 0.82587 0.8725 0.79815 0.0
C1469 C 0.91715 0.86256 0.82872 0.0
C1470 C 0.92021 0.85857 0.80356 0.0
C1471 C 0.83825 0.7785 0.77005 0.0
C1472 C 0.80158 0.70681 0.72646 0.0
C1473 C 0.81481 0.70018 0.74409 0.0
C1474 C 0.82587 0.68151 0.73698 0.0
C1475 C 0.82352 0.66927 0.71203 0.0
C1476 C 0.79917 0.69447 0.70158 0.0
C1477 C 0.81009 0.67569 0.69442 0.0
C1478 C 0.82183 0.78013 0.81817 0.0
C1479 C 0.79014 0.72649 0.73364 0.0
H1480 H 0.81554 0.90862 0.78156 0.0
H1481 H 0.83979 0.96606 0.8468 0.0
H1482 H 0.85248 0.89399 0.84289 0.0
H1483 H 0.85749 0.93745 0.86516 0.0
H1484 H 0.81667 0.70964 0.76334 0.0
H1485 H 0.83181 0.65459 0.70628 0.0
H1486 H 0.78885 0.69935 0.68774 0.0
H1487 H 0.80813 0.66613 0.67523 0.0
Tb1488 Tb 0.53103 0.52323 0.50324 0.0
C1489 C 0.59956 0.61187 0.56532 0.0
C1490 C 0.60956 0.63747 0.53547 0.0
C1491 C 0.61573 0.65628 0.5793 0.0
C1492 C 0.6007 0.61405 0.54107 0.0
C1493 C 0.60759 0.63287 0.58479 0.0
C1494 C 0.61666 0.65859 0.55466 0.0
C1495 C 0.60134 0.60576 0.61374 0.0
N1496 N 0.59205 0.5889 0.56994 0.0
C1497 C 0.59378 0.58551 0.59385 0.0
C1498 C 0.60804 0.6296 0.6092 0.0
Tb1499 Tb 0.58177 0.55618 0.53626 0.0
N1500 N 0.59426 0.59309 0.52306 0.0
C1501 C 0.5975 0.59456 0.49898 0.0
C1502 C 0.61175 0.63894 0.51083 0.0
C1503 C 0.60585 0.61734 0.49256 0.0
H1504 H 0.58888 0.56707 0.59762 0.0
H1505 H 0.60771 0.61816 0.47341 0.0
H1506 H 0.62346 0.67667 0.55068 0.0
H1507 H 0.60217 0.6029 0.63253 0.0
H1508 H 0.59286 0.57866 0.48395 0.0
H1509 H 0.4996 0.46948 0.57108 0.0
H1510 H 0.61842 0.65655 0.5058 0.0
H1511 H 0.52585 0.50754 0.44223 0.0
H1512 H 0.52233 0.50444 0.55832 0.0
H1513 H 0.51133 0.47031 0.40918 0.0
H1514 H 0.62188 0.67261 0.59399 0.0
H1515 H 0.48136 0.43135 0.54031 0.0
H1516 H 0.47447 0.40829 0.49626 0.0
H1517 H 0.61416 0.64525 0.62462 0.0
H1518 H 0.47899 0.40788 0.45242 0.0
N1519 N 0.51595 0.48865 0.51921 0.0
C1520 C 0.51372 0.48912 0.54387 0.0
C1521 C 0.49097 0.4472 0.53423 0.0
C1522 C 0.4937 0.44624 0.50927 0.0
C1523 C 0.5011 0.46872 0.5516 0.0
C1524 C 0.50627 0.46751 0.50226 0.0
H1525 H 0.49312 0.43065 0.41987 0.0
N1526 N 0.51971 0.48848 0.47171 0.0
C1527 C 0.51087 0.46897 0.4284 0.0
C1528 C 0.50872 0.46725 0.47774 0.0
C1529 C 0.51971 0.48988 0.44724 0.0
C1530 C 0.50051 0.4467 0.43449 0.0
C1531 C 0.4988 0.44579 0.45935 0.0
O1532 O 0.50998 0.53224 0.47723 0.0
O1533 O 0.55168 0.5605 0.51807 0.0
O1534 O 0.55783 0.56466 0.56295 0.0
O1535 O 0.52491 0.53871 0.54229 0.0
O1536 O 0.53972 0.55133 0.48126 0.0
O1537 O 0.49976 0.5268 0.51276 0.0
O1538 O 0.60464 0.54673 0.55977 0.0
O1539 O 0.56148 0.51876 0.52061 0.0
O1540 O 0.55564 0.51486 0.4771 0.0
O1541 O 0.58806 0.54247 0.49705 0.0
O1542 O 0.57329 0.52623 0.5566 0.0
O1543 O 0.61315 0.55613 0.52488 0.0
C1544 C 0.55005 0.56947 0.49874 0.0
C1545 C 0.47169 0.51927 0.47947 0.0
C1546 C 0.43388 0.52289 0.47818 0.0
C1547 C 0.45502 0.52796 0.49078 0.0
C1548 C 0.42868 0.50644 0.45504 0.0
C1549 C 0.46671 0.50324 0.45603 0.0
C1550 C 0.44509 0.49636 0.44416 0.0
C1551 C 0.53651 0.55396 0.56278 0.0
C1552 C 0.49415 0.5311 0.49123 0.0
C1553 C 0.48675 0.42447 0.46626 0.0
C1554 C 0.48411 0.42474 0.49118 0.0
C1555 C 0.56326 0.50817 0.53879 0.0
C1556 C 0.64246 0.56034 0.55578 0.0
C1557 C 0.65784 0.5481 0.54605 0.0
C1558 C 0.67968 0.55483 0.55688 0.0
C1559 C 0.68642 0.5749 0.57724 0.0
C1560 C 0.64896 0.58027 0.57626 0.0
C1561 C 0.67102 0.5876 0.58686 0.0
C1562 C 0.57671 0.52657 0.4769 0.0
C1563 C 0.61973 0.54967 0.5449 0.0
H1564 H 0.45901 0.54045 0.50884 0.0
H1565 H 0.41236 0.50233 0.44498 0.0
H1566 H 0.47941 0.4967 0.44653 0.0
H1567 H 0.44131 0.48419 0.42602 0.0
H1568 H 0.6526 0.5328 0.53008 0.0
H1569 H 0.70335 0.5804 0.58587 0.0
H1570 H 0.63716 0.58989 0.58415 0.0
H1571 H 0.67611 0.60289 0.60275 0.0
Tb1572 Tb 0.08832 0.54277 0.00697 0.0
C1573 C 0.01363 0.49691 0.04585 0.0
C1574 C 0.99051 0.46662 0.01204 0.0
C1575 C 0.99527 0.45606 0.0522 0.0
C1576 C 0.00505 0.49019 0.02135 0.0
C1577 C 0.00798 0.48031 0.06187 0.0
C1578 C 0.98652 0.44921 0.02726 0.0
C1579 C 0.02354 0.51421 0.09633 0.0
N1580 N 0.02504 0.52078 0.05458 0.0
C1581 C 0.02832 0.52997 0.07974 0.0
C1582 C 0.01388 0.48906 0.08732 0.0
Tb1583 Tb 0.03501 0.54434 0.02514 0.0
N1584 N 0.00904 0.5077 0.00739 0.0
C1585 C 0.9965 0.50367 0.98499 0.0
C1586 C 0.97945 0.46173 0.98821 0.0
C1587 C 0.98202 0.48059 0.9749 0.0
H1588 H 0.0349 0.54954 0.08741 0.0
H1589 H 0.97268 0.47748 0.95693 0.0
H1590 H 0.97576 0.43088 0.02028 0.0
H1591 H 0.02701 0.5216 0.11609 0.0
H1592 H 0.99714 0.51816 0.97466 0.0
H1593 H 0.13133 0.62204 0.07773 0.0
H1594 H 0.9681 0.44393 0.98043 0.0
H1595 H 0.09552 0.52759 0.94741 0.0
H1596 H 0.10876 0.57947 0.06177 0.0
H1597 H 0.1122 0.54904 0.91562 0.0
H1598 H 0.99109 0.44295 0.06413 0.0
H1599 H 0.1458 0.64832 0.04857 0.0
H1600 H 0.15025 0.65225 0.00456 0.0
H1601 H 0.0098 0.47695 0.10023 0.0
H1602 H 0.14464 0.63248 0.96024 0.0
N1603 N 0.10965 0.58168 0.02389 0.0
C1604 C 0.11471 0.59072 0.04882 0.0
C1605 C 0.13577 0.62964 0.04145 0.0
C1606 C 0.13139 0.61986 0.01595 0.0
C1607 C 0.12766 0.61485 0.05796 0.0
C1608 C 0.11821 0.59546 0.00766 0.0
H1609 H 0.13068 0.59387 0.92689 0.0
N1610 N 0.10321 0.56043 0.97585 0.0
C1611 C 0.11283 0.5593 0.93437 0.0
C1612 C 0.11475 0.58451 0.98274 0.0
C1613 C 0.10345 0.54723 0.95236 0.0
C1614 C 0.12319 0.58462 0.94079 0.0
C1615 C 0.1248 0.59739 0.96538 0.0
O1616 O 0.10355 0.51443 0.99247 0.0
O1617 O 0.05709 0.52037 0.01422 0.0
O1618 O 0.05982 0.55465 0.05751 0.0
O1619 O 0.08491 0.53289 0.04284 0.0
O1620 O 0.07007 0.50816 0.98234 0.0
O1621 O 0.11859 0.54148 0.0253 0.0
O1622 O 0.02383 0.56864 0.0523 0.0
O1623 O 0.06852 0.56655 0.02521 0.0
O1624 O 0.07014 0.55127 0.97631 0.0
O1625 O 0.03384 0.53847 0.98494 0.0
O1626 O 0.04281 0.57878 0.01163 0.0
O1627 O 0.00631 0.55567 0.01565 0.0
C1628 C 0.05412 0.50256 0.99545 0.0
C1629 C 0.14221 0.52323 1.00015 0.0
C1630 C 0.17435 0.50565 0.99602 0.0
C1631 C 0.15399 0.50604 0.00531 0.0
C1632 C 0.18254 0.52246 0.98111 0.0
C1633 C 0.151 0.54029 0.98584 0.0
C1634 C 0.17092 0.53968 0.97613 0.0
C1635 C 0.07501 0.54251 0.06107 0.0
C1636 C 0.12054 0.52235 0.00919 0.0
C1637 C 0.13701 0.62215 0.97334 0.0
C1638 C 0.14027 0.63338 0.99859 0.0
C1639 C 0.06383 0.58465 0.01716 0.0
C1640 C 0.98577 0.56869 0.04767 0.0
C1641 C 0.97216 0.58278 0.03917 0.0
C1642 C 0.95253 0.58427 0.04952 0.0
C1643 C 0.94644 0.57146 0.06832 0.0
C1644 C 0.97937 0.55565 0.06624 0.0
C1645 C 0.95975 0.55708 0.07651 0.0
C1646 C 0.04872 0.54459 0.96997 0.0
C1647 C 0.00695 0.56921 0.03756 0.0
H1648 H 0.14722 0.49286 0.0164 0.0
H1649 H 0.19824 0.52279 0.97384 0.0
H1650 H 0.14265 0.5541 0.98219 0.0
H1651 H 0.17749 0.55278 0.96492 0.0
H1652 H 0.97705 0.59299 0.02489 0.0
H1653 H 0.93138 0.57258 0.07661 0.0
H1654 H 0.98954 0.54462 0.07298 0.0
H1655 H 0.95495 0.54718 0.09099 0.0
H1656 H 0.05355 0.22726 0.00826 0.0
H1657 H 0.03713 0.08169 0.95616 0.0
H1658 H 0.01338 0.18726 0.94015 0.0
H1659 H 0.05527 0.11286 0.03413 0.0
H1660 H 0.03178 0.12143 0.94985 0.0
H1661 H 0.05745 0.18758 0.01779 0.0
C1662 C 0.04536 0.21019 0.99532 0.0
C1663 C 0.03306 0.21092 0.97323 0.0
C1664 C 0.03706 0.11981 0.96837 0.0
C1665 C 0.03782 0.165 0.98412 0.0
C1666 C 0.04022 0.09697 0.97208 0.0
C1667 C 0.04693 0.0936 0.99576 0.0
C1668 C 0.04096 0.14023 0.98833 0.0
C1669 C 0.05047 0.11444 0.01548 0.0
C1670 C 0.04763 0.18746 1.00088 0.0
C1671 C 0.023 0.18793 0.95737 0.0
N1672 N 0.04766 0.13687 0.01129 0.0
N1673 N 0.02576 0.16615 0.963 0.0
H1674 H 0.17888 0.78996 0.12319 0.0
H1675 H 0.24838 0.83193 0.25857 0.0
H1676 H 0.15817 0.83636 0.18384 0.0
H1677 H 0.26612 0.78546 0.1958 0.0
H1678 H 0.21619 0.83511 0.23245 0.0
H1679 H 0.21123 0.78966 0.14992 0.0
C1680 C 0.1811 0.80027 0.14215 0.0
C1681 C 0.16544 0.81323 0.15102 0.0
C1682 C 0.22712 0.82419 0.22441 0.0
C1683 C 0.20324 0.81281 0.1824 0.0
C1684 C 0.24553 0.8222 0.23944 0.0
C1685 C 0.26004 0.80793 0.22981 0.0
C1686 C 0.22304 0.81196 0.19931 0.0
C1687 C 0.25555 0.7965 0.20445 0.0
C1688 C 0.19976 0.80004 0.15753 0.0
C1689 C 0.16966 0.82615 0.17597 0.0
N1690 N 0.2376 0.79868 0.19032 0.0
N1691 N 0.18802 0.82554 0.19072 0.0
H1692 H 0.54925 0.8497 0.48797 0.0
H1693 H 0.53577 0.97335 0.45141 0.0
H1694 H 0.48979 0.85224 0.44532 0.0
H1695 H 0.55742 0.97767 0.52796 0.0
H1696 H 0.52459 0.92791 0.4452 0.0
H1697 H 0.55851 0.89567 0.50003 0.0
C1698 C 0.53806 0.85975 0.48132 0.0
C1699 C 0.51867 0.84682 0.46553 0.0
C1700 C 0.53163 0.9388 0.46342 0.0
C1701 C 0.52946 0.89935 0.4788 0.0
C1702 C 0.53793 0.96472 0.46699 0.0
C1703 C 0.54698 0.97941 0.49037 0.0
C1704 C 0.53535 0.92715 0.48303 0.0
C1705 C 0.54994 0.96712 0.50979 0.0
C1706 C 0.54334 0.88597 0.48826 0.0
C1707 C 0.5049 0.86109 0.45748 0.0
N1708 N 0.54441 0.94167 0.50564 0.0
N1709 N 0.51072 0.88637 0.46383 0.0
H1710 H 0.51397 0.32634 0.62267 0.0
H1711 H 0.46964 0.286 0.74528 0.0
H1712 H 0.55331 0.30413 0.67729 0.0
H1713 H 0.42667 0.29845 0.68728 0.0
H1714 H 0.50102 0.29708 0.72235 0.0
H1715 H 0.48281 0.32023 0.6473 0.0
C1716 C 0.51614 0.32022 0.63987 0.0
C1717 C 0.53646 0.31572 0.64781 0.0
C1718 C 0.48482 0.29763 0.71462 0.0
C1719 C 0.50054 0.30869 0.67626 0.0
C1720 C 0.4668 0.29133 0.72777 0.0
C1721 C 0.44528 0.29097 0.71816 0.0
C1722 C 0.48163 0.30384 0.6915 0.0
C1723 C 0.44287 0.29848 0.69551 0.0
C1724 C 0.49825 0.31674 0.65394 0.0
C1725 C 0.5381 0.30791 0.67036 0.0
N1726 N 0.46076 0.3044 0.68286 0.0
N1727 N 0.52044 0.30461 0.68367 0.0
H1728 H 0.99074 0.8125 0.61384 0.0
H1729 H 0.08436 0.89074 0.54871 0.0
H1730 H 0.05693 0.8023 0.61048 0.0
H1731 H 0.01552 0.89027 0.53562 0.0
H1732 H 0.07519 0.86381 0.57812 0.0
H1733 H 1.0 0.84596 0.59081 0.0
C1734 C 0.00719 0.81739 0.60832 0.0
C1735 C 0.02304 0.80452 0.61365 0.0
C1736 C 0.06203 0.86943 0.56872 0.0
C1737 C 0.03376 0.84261 0.58798 0.0
C1738 C 0.06727 0.88463 0.5519 0.0
C1739 C 0.05055 0.89193 0.53937 0.0
C1740 C 0.03987 0.86125 0.57273 0.0
C1741 C 0.02874 0.88449 0.54472 0.0
C1742 C 0.01245 0.8364 0.59526 0.0
C1743 C 0.04413 0.81149 0.60631 0.0
N1744 N 0.02393 0.86921 0.56087 0.0
N1745 N 0.04886 0.83007 0.59385 0.0
H1746 H 0.54786 0.7975 0.82946 0.0
H1747 H 0.45837 0.87663 0.82659 0.0
H1748 H 0.54226 0.85296 0.89252 0.0
H1749 H 0.45139 0.80552 0.77786 0.0
H1750 H 0.49022 0.86978 0.85041 0.0
H1751 H 0.51326 0.80127 0.80942 0.0
C1752 C 0.53925 0.81038 0.83912 0.0
C1753 C 0.54791 0.82506 0.86256 0.0
C1754 C 0.48168 0.85567 0.83453 0.0
C1755 C 0.50854 0.82965 0.83969 0.0
C1756 C 0.46376 0.8597 0.82091 0.0
C1757 C 0.45283 0.84179 0.80016 0.0
C1758 C 0.48866 0.83373 0.827 0.0
C1759 C 0.45983 0.81986 0.79361 0.0
C1760 C 0.51949 0.81246 0.82773 0.0
C1761 C 0.53607 0.84132 0.8744 0.0
N1762 N 0.47749 0.81651 0.80689 0.0
N1763 N 0.51703 0.84342 0.86267 0.0
H1764 H 0.47908 0.19695 0.07469 0.0
H1765 H 0.53204 0.0833 0.08893 0.0
H1766 H 0.49115 0.17576 0.14434 0.0
H1767 H 0.52969 0.11272 0.0226 0.0
H1768 H 0.51265 0.11353 0.10837 0.0
H1769 H 0.49193 0.16147 0.05366 0.0
C1770 C 0.48389 0.18447 0.08546 0.0
C1771 C 0.48422 0.18933 0.11128 0.0
C1772 C 0.51637 0.11331 0.08951 0.0
C1773 C 0.49928 0.14916 0.08753 0.0
C1774 C 0.5276 0.09618 0.07845 0.0
C1775 C 0.53258 0.09547 0.054 0.0
C1776 C 0.51012 0.12985 0.07605 0.0
C1777 C 0.52608 0.11238 0.04128 0.0
C1778 C 0.49145 0.1644 0.07351 0.0
C1779 C 0.49083 0.17274 0.12439 0.0
N1780 N 0.51524 0.12891 0.05245 0.0
N1781 N 0.49831 0.15351 0.1124 0.0
H1782 H 0.1817 0.36378 0.32397 0.0
H1783 H 0.26492 0.2975 0.33858 0.0
H1784 H 0.15435 0.28637 0.32413 0.0
H1785 H 0.26247 0.31285 0.26514 0.0
H1786 H 0.22615 0.29934 0.33954 0.0
H1787 H 0.21367 0.35243 0.30593 0.0
C1788 C 0.18206 0.34437 0.31953 0.0
C1789 C 0.16565 0.326 0.32603 0.0
C1790 C 0.23411 0.30179 0.32307 0.0
C1791 C 0.20179 0.31327 0.30573 0.0
C1792 C 0.25603 0.30083 0.32256 0.0
C1793 C 0.26645 0.30448 0.30159 0.0
C1794 C 0.22316 0.30775 0.30302 0.0
C1795 C 0.25464 0.30935 0.28138 0.0
C1796 C 0.20018 0.33797 0.30915 0.0
C1797 C 0.16691 0.30114 0.31988 0.0
N1798 N 0.23355 0.31146 0.28279 0.0
N1799 N 0.18511 0.29554 0.31074 0.0
H1800 H 0.95263 0.04404 0.18851 0.0
H1801 H 0.05267 0.08936 0.10714 0.0
H1802 H 0.00954 0.10477 0.21598 0.0
H1803 H 0.99746 0.02748 0.0768 0.0
H1804 H 0.03665 0.09471 0.14653 0.0
H1805 H 0.96773 0.03716 0.14808 0.0
C1806 C 0.96824 0.05596 0.18631 0.0
C1807 C 0.97953 0.07515 0.20644 0.0
C1808 C 0.0279 0.07991 0.13134 0.0
C1809 C 0.99729 0.06725 0.15916 0.0
C1810 C 0.03722 0.07674 0.10853 0.0
C1811 C 0.02683 0.05775 0.08789 0.0
C1812 C 0.00764 0.06412 0.13433 0.0
C1813 C 0.00643 0.04246 0.0917 0.0
C1814 C 0.97694 0.05201 0.16297 0.0
C1815 C 0.99984 0.08973 0.2016 0.0
N1816 N 0.9977 0.04593 0.11406 0.0
N1817 N 0.00782 0.08554 0.17898 0.0
H1818 H 0.31642 0.68449 0.49282 0.0
H1819 H 0.24951 0.70803 0.3755 0.0
H1820 H 0.26318 0.62761 0.44779 0.0
H1821 H 0.2871 0.76602 0.43515 0.0
H1822 H 0.25811 0.67679 0.39756 0.0
H1823 H 0.3108 0.71291 0.4664 0.0
C1824 C 0.30374 0.67785 0.47714 0.0
C1825 C 0.29004 0.65377 0.47267 0.0
C1826 C 0.26431 0.69634 0.40587 0.0
C1827 C 0.28335 0.68633 0.44261 0.0
C1828 C 0.25927 0.71404 0.39346 0.0
C1829 C 0.26722 0.73938 0.40404 0.0
C1830 C 0.27774 0.70426 0.42863 0.0
C1831 C 0.28028 0.74655 0.42687 0.0
C1832 C 0.30046 0.69414 0.46217 0.0
C1833 C 0.27404 0.64608 0.45194 0.0
N1834 N 0.28522 0.72903 0.43842 0.0
N1835 N 0.27095 0.66246 0.43775 0.0
H1836 H 0.66426 0.067 0.69081 0.0
H1837 H 0.55926 1.00552 0.59157 0.0
H1838 H 0.62263 0.99548 0.69322 0.0
H1839 H 0.61995 0.05477 0.58061 0.0
H1840 H 0.57556 1.00675 0.63367 0.0
H1841 H 0.63925 0.06983 0.65655 0.0
C1842 C 0.64956 0.05209 0.68433 0.0
C1843 C 0.64564 0.03068 0.69416 0.0
C1844 C 0.58503 0.01735 0.6219 0.0
C1845 C 0.61746 0.03346 0.6548 0.0
C1846 C 0.57582 0.01673 0.59804 0.0
C1847 C 0.588 0.03073 0.5829 0.0
C1848 C 0.60638 0.03215 0.63032 0.0
C1849 C 0.60967 0.04416 0.59172 0.0
C1850 C 0.63537 0.05366 0.6648 0.0
C1851 C 0.6262 0.01209 0.68566 0.0
N1852 N 0.61807 0.04465 0.61489 0.0
N1853 N 0.61292 0.0136 0.66585 0.0
H1854 H 0.36907 0.36919 0.96282 0.0
H1855 H 0.30865 0.28052 0.83956 0.0
H1856 H 0.30108 0.33278 0.96624 0.0
H1857 H 0.32813 0.35957 0.84415 0.0
H1858 H 0.31509 0.28815 0.88536 0.0
H1859 H 0.36384 0.35351 0.91802 0.0
C1860 C 0.35317 0.35742 0.95432 0.0
C1861 C 0.33544 0.35244 0.96841 0.0
C1862 C 0.31817 0.30366 0.87613 0.0
C1863 C 0.32968 0.33408 0.91713 0.0
C1864 C 0.31477 0.29935 0.85016 0.0
C1865 C 0.31848 0.31948 0.83818 0.0
C1866 C 0.32565 0.32815 0.88984 0.0
C1867 C 0.32555 0.34359 0.85272 0.0
C1868 C 0.35027 0.34855 0.92875 0.0
C1869 C 0.31517 0.33717 0.95611 0.0
N1870 N 0.32921 0.34725 0.87774 0.0
N1871 N 0.31278 0.32858 0.93107 0.0
H1872 H 0.00564 0.04631 0.32879 0.0
H1873 H 0.99453 0.05918 0.47534 0.0
H1874 H 0.95721 0.07962 0.36418 0.0
H1875 H 0.05271 0.04403 0.44471 0.0
H1876 H 0.98005 0.06402 0.43491 0.0
H1877 H 0.0218 0.04323 0.36938 0.0
C1878 C 0.99833 0.05325 0.34502 0.0
C1879 C 0.97976 0.06349 0.34223 0.0
C1880 C 0.99595 0.05954 0.43675 0.0
C1881 C 0.99863 0.05935 0.39029 0.0
C1882 C 0.0044 0.05665 0.46015 0.0
C1883 C 0.02513 0.05093 0.46428 0.0
C1884 C 0.00784 0.05649 0.41614 0.0
C1885 C 0.03666 0.04813 0.44308 0.0
C1886 C 0.00775 0.05139 0.36849 0.0
C1887 C 0.97149 0.07184 0.3647 0.0
N1888 N 0.02788 0.05073 0.42028 0.0
N1889 N 0.98073 0.06939 0.38731 0.0
H1890 H 0.27253 0.66896 0.60732 0.0
H1891 H 0.3018 0.80273 0.68939 0.0
H1892 H 0.30102 0.73336 0.57835 0.0
H1893 H 0.2602 0.73879 0.70909 0.0
H1894 H 0.29619 0.78021 0.64629 0.0
H1895 H 0.26311 0.69579 0.6424 0.0
C1896 C 0.27683 0.68884 0.60839 0.0
C1897 C 0.28808 0.69908 0.59031 0.0
C1898 C 0.28794 0.77134 0.66 0.0
C1899 C 0.27728 0.73004 0.63049 0.0
C1900 C 0.29134 0.78407 0.68463 0.0
C1901 C 0.28275 0.77191 0.703 0.0
C1902 C 0.27571 0.74649 0.654 0.0
C1903 C 0.26809 0.74844 0.69568 0.0
C1904 C 0.27119 0.70418 0.6283 0.0
C1905 C 0.29268 0.72486 0.59223 0.0
N1906 N 0.26544 0.73624 0.67178 0.0
N1907 N 0.28764 0.7396 0.61233 0.0
H1908 H 0.69195 0.0971 0.79769 0.0
H1909 H 0.61072 0.02589 0.8795 0.0
H1910 H 0.6812 0.01855 0.79594 0.0
H1911 H 0.62106 0.10409 0.8801 0.0
H1912 H 0.64094 0.02402 0.85389 0.0
H1913 H 0.67102 0.10132 0.83318 0.0
C1914 C 0.6854 0.08078 0.80498 0.0
C1915 C 0.68794 0.05735 0.79364 0.0
C1916 C 0.63679 0.04166 0.85984 0.0
C1917 C 0.66378 0.06199 0.83401 0.0
C1918 C 0.61958 0.04271 0.8744 0.0
C1919 C 0.61328 0.06508 0.88141 0.0
C1920 C 0.64775 0.06318 0.85235 0.0
C1921 C 0.62518 0.08639 0.87449 0.0
C1922 C 0.67345 0.0832 0.82524 0.0
C1923 C 0.67941 0.03691 0.80403 0.0
N1924 N 0.6418 0.08488 0.86017 0.0
N1925 N 0.66739 0.03963 0.82345 0.0
H1926 H 0.31045 0.39197 0.11423 0.0
H1927 H 0.3108 0.28986 0.19615 0.0
H1928 H 0.31916 0.31833 0.0871 0.0
H1929 H 0.29861 0.36091 0.22626 0.0
H1930 H 0.31232 0.30023 0.15583 0.0
H1931 H 0.30501 0.3816 0.15486 0.0
C1932 C 0.31124 0.37364 0.11678 0.0
C1933 C 0.31539 0.35601 0.09717 0.0
C1934 C 0.30887 0.31352 0.17098 0.0
C1935 C 0.30916 0.34411 0.14363 0.0
C1936 C 0.3074 0.30725 0.19398 0.0
C1937 C 0.30313 0.32381 0.21424 0.0
C1938 C 0.30666 0.33699 0.16807 0.0
C1939 C 0.30127 0.34731 0.21087 0.0
C1940 C 0.30809 0.36775 0.13999 0.0
C1941 C 0.31606 0.33255 0.10157 0.0
N1942 N 0.30298 0.35322 0.18813 0.0
N1943 N 0.31305 0.32736 0.12426 0.0
H1944 H 0.27567 0.9943 0.98181 0.0
H1945 H 0.19787 0.02604 0.08136 0.0
H1946 H 0.25342 0.94493 0.03061 0.0
H1947 H 0.19476 0.04995 0.01201 0.0
H1948 H 0.21989 0.99732 0.06415 0.0
H1949 H 0.2464 0.01535 0.99226 0.0
C1950 C 0.26426 0.98762 0.99432 0.0
C1951 C 0.26692 0.96818 0.00564 0.0
C1952 C 0.21434 0.00886 0.05274 0.0
C1953 C 0.23413 0.9924 0.01817 0.0
C1954 C 0.20223 0.02546 0.06267 0.0
C1955 C 0.1952 0.04061 0.04815 0.0
C1956 C 0.21958 0.00786 0.02835 0.0
C1957 C 0.20043 0.03881 0.02379 0.0
C1958 C 0.24763 0.99958 1.00028 0.0
C1959 C 0.2518 0.95996 0.02161 0.0
N1960 N 0.21256 0.02284 0.01466 0.0
N1961 N 0.23624 0.97256 0.02792 0.0
H1962 H 0.71341 0.68403 0.0222 0.0
H1963 H 0.63089 0.54826 0.9859 0.0
H1964 H 0.73533 0.61951 0.98881 0.0
H1965 H 0.61388 0.6153 0.02137 0.0
H1966 H 0.66828 0.573 0.9837 0.0
H1967 H 0.67625 0.65831 0.01918 0.0
C1968 C 0.71044 0.66439 0.01413 0.0
C1969 C 0.72769 0.654 0.00585 0.0
C1970 C 0.65625 0.5822 0.99182 0.0
C1971 C 0.68459 0.624 1.00234 0.0
C1972 C 0.63484 0.56807 0.99303 0.0
C1973 C 0.61913 0.5795 0.00419 0.0
C1974 C 0.66187 0.60797 1.00163 0.0
C1975 C 0.62534 0.6054 0.01293 0.0
C1976 C 0.68907 0.64962 0.0124 0.0
C1977 C 0.72257 0.62834 0.99548 0.0
N1978 N 0.64607 0.61858 0.01155 0.0
N1979 N 0.70149 0.61418 0.99411 0.0
H1980 H 0.74216 0.46516 0.29243 0.0
H1981 H 0.76345 0.32705 0.2429 0.0
H1982 H 0.69478 0.407 0.24148 0.0
H1983 H 0.79125 0.37032 0.31514 0.0
H1984 H 0.74315 0.35904 0.23758 0.0
H1985 H 0.76491 0.43494 0.29647 0.0
C1986 C 0.73647 0.4463 0.28181 0.0
C1987 C 0.71601 0.43934 0.26644 0.0
C1988 C 0.75413 0.36197 0.25441 0.0
C1989 C 0.74285 0.40368 0.27095 0.0
C1990 C 0.76609 0.34362 0.25735 0.0
C1991 C 0.78028 0.34588 0.27917 0.0
C1992 C 0.75624 0.38364 0.27315 0.0
C1993 C 0.78147 0.36767 0.29753 0.0
C1994 C 0.74957 0.42877 0.28428 0.0
C1995 C 0.71014 0.41398 0.25359 0.0
N1996 N 0.77015 0.38543 0.29402 0.0
N1997 N 0.72323 0.39762 0.25597 0.0
H1998 H 0.89548 0.52296 0.51319 0.0
H1999 H 0.99787 0.46086 0.51156 0.0
H2000 H 0.89907 0.46382 0.55133 0.0
H2001 H 0.00369 0.53886 0.51439 0.0
H2002 H 0.95778 0.45545 0.5133 0.0
H2003 H 0.93273 0.52342 0.5017 0.0
C2004 C 0.90438 0.5105 0.51956 0.0
C2005 C 0.89472 0.4939 0.53381 0.0
C2006 C 0.968 0.47358 0.51289 0.0
C2007 C 0.9363 0.49335 0.51977 0.0
C2008 C 0.99067 0.47662 0.51177 0.0
C2009 C 0.00404 0.5003 0.5125 0.0
C2010 C 0.95901 0.49438 0.51454 0.0
C2011 C 0.9941 0.52025 0.51322 0.0
C2012 C 0.92532 0.51046 0.5127 0.0
C2013 C 0.90642 0.47747 0.54102 0.0
N2014 N 0.97219 0.51687 0.51422 0.0
N2015 N 0.9267 0.47751 0.5338 0.0
H2016 H 0.41679 0.14216 0.32655 0.0
H2017 H 0.29913 0.11599 0.24716 0.0
H2018 H 0.36758 0.07255 0.31542 0.0
H2019 H 0.3542 0.17779 0.24724 0.0
H2020 H 0.32292 0.09981 0.27379 0.0
H2021 H 0.39149 0.15782 0.30164 0.0
C2022 C 0.40057 0.13041 0.3192 0.0
C2023 C 0.3943 0.10616 0.32291 0.0
C2024 C 0.32975 0.11684 0.26779 0.0
C2025 C 0.36582 0.12325 0.29383 0.0
C2026 C 0.31631 0.12575 0.25237 0.0
C2027 C 0.32481 0.14821 0.24538 0.0
C2028 C 0.3515 0.13081 0.27623 0.0
C2029 C 0.34711 0.16043 0.25254 0.0
C2030 C 0.38625 0.13914 0.3048 0.0
C2031 C 0.37306 0.09152 0.31315 0.0
N2032 N 0.35961 0.15178 0.26792 0.0
N2033 N 0.35967 0.1002 0.29872 0.0
H2034 H 0.38537 0.18882 0.50102 0.0
H2035 H 0.4059 0.06368 0.53548 0.0
H2036 H 0.33388 0.12842 0.513 0.0
H2037 H 0.45912 0.12409 0.52712 0.0
H2038 H 0.37938 0.08614 0.52358 0.0
H2039 H 0.41252 0.16458 0.50694 0.0
C2040 C 0.37973 0.17043 0.50477 0.0
C2041 C 0.35726 0.16072 0.50666 0.0
C2042 C 0.39683 0.09452 0.52418 0.0
C2043 C 0.38831 0.1329 0.51347 0.0
C2044 C 0.41203 0.08171 0.53108 0.0
C2045 C 0.43483 0.09215 0.53271 0.0
C2046 C 0.40432 0.1181 0.5188 0.0
C2047 C 0.44172 0.11532 0.52615 0.0
C2048 C 0.39526 0.15661 0.50815 0.0
C2049 C 0.35097 0.13675 0.51145 0.0
N2050 N 0.42652 0.12764 0.5197 0.0
N2051 N 0.36639 0.12378 0.51479 0.0
H2052 H 0.74595 0.58511 0.28522 0.0
H2053 H 0.74362 0.72515 0.27144 0.0
H2054 H 0.68774 0.60812 0.26313 0.0
H2055 H 0.80471 0.70507 0.28729 0.0
H2056 H 0.72352 0.68255 0.27051 0.0
H2057 H 0.76806 0.62812 0.28794 0.0
C2058 C 0.73771 0.59901 0.28099 0.0
C2059 C 0.71466 0.59242 0.27394 0.0
C2060 C 0.74136 0.68731 0.2742 0.0
C2061 C 0.74017 0.6423 0.27707 0.0
C2062 C 0.75302 0.71195 0.27479 0.0
C2063 C 0.77631 0.71939 0.27922 0.0
C2064 C 0.7527 0.66921 0.27821 0.0
C2065 C 0.78699 0.70071 0.28351 0.0
C2066 C 0.75043 0.6237 0.28252 0.0
C2067 C 0.70529 0.61174 0.26869 0.0
N2068 N 0.77525 0.67677 0.28288 0.0
N2069 N 0.71788 0.63532 0.27037 0.0
H2070 H 0.86634 0.48188 0.83057 0.0
H2071 H 0.80507 0.3491 0.76383 0.0
H2072 H 0.85231 0.46928 0.75095 0.0
H2073 H 0.87281 0.3603 0.79433 0.0
H2074 H 0.81019 0.394 0.76966 0.0
H2075 H 0.85553 0.43703 0.82782 0.0
C2076 C 0.86052 0.46979 0.81258 0.0
C2077 C 0.8604 0.47924 0.79084 0.0
C2078 C 0.82375 0.38647 0.77527 0.0
C2079 C 0.848 0.42855 0.78797 0.0
C2080 C 0.8209 0.36101 0.77212 0.0
C2081 C 0.8385 0.35121 0.77912 0.0
C2082 C 0.84421 0.40196 0.78565 0.0
C2083 C 0.85888 0.36738 0.78902 0.0
C2084 C 0.85454 0.44435 0.81114 0.0
C2085 C 0.85271 0.4627 0.76808 0.0
N2086 N 0.86119 0.39225 0.79228 0.0
N2087 N 0.84685 0.43792 0.76718 0.0
H2088 H 0.06636 0.86264 0.07166 0.0
H2089 H 0.10041 1.0054 0.06924 0.0
H2090 H 0.13383 0.90604 0.08569 0.0
H2091 H 0.04656 0.95873 0.01653 0.0
H2092 H 0.11067 0.96888 0.07756 0.0
H2093 H 0.05587 0.8963 0.05436 0.0
C2094 C 0.07903 0.879 0.07091 0.0
C2095 C 0.1011 0.88131 0.08047 0.0
C2096 C 0.0964 0.96647 0.06432 0.0
C2097 C 0.08903 0.92017 0.0608 0.0
C2098 C 0.0904 0.98759 0.05932 0.0
C2099 C 0.07175 0.98592 0.04262 0.0
C2100 C 0.08342 0.94272 0.05338 0.0
C2101 C 0.06021 0.96159 0.03044 0.0
C2102 C 0.07299 0.89822 0.06094 0.0
C2103 C 0.11662 0.90318 0.0789 0.0
N2104 N 0.06583 0.94104 0.03649 0.0
N2105 N 0.11028 0.92162 0.06967 0.0
H2106 H 0.96996 0.2578 0.86019 0.0
H2107 H 0.84896 0.28482 0.84818 0.0
H2108 H 0.93122 0.26742 0.92127 0.0
H2109 H 0.88014 0.25912 0.78452 0.0
H2110 H 0.88 0.28087 0.87504 0.0
H2111 H 0.93874 0.26077 0.83219 0.0
C2112 C 0.95497 0.26056 0.86776 0.0
C2113 C 0.95333 0.26216 0.89324 0.0
C2114 C 0.88008 0.27605 0.85517 0.0
C2115 C 0.91742 0.2659 0.86119 0.0
C2116 C 0.86224 0.27829 0.83968 0.0
C2117 C 0.86168 0.27251 0.8137 0.0
C2118 C 0.89789 0.26805 0.8449 0.0
C2119 C 0.87965 0.26405 0.80421 0.0
C2120 C 0.93708 0.2622 0.85173 0.0
C2121 C 0.93334 0.26578 0.90183 0.0
N2122 N 0.89695 0.26224 0.81969 0.0
N2123 N 0.91639 0.26763 0.88599 0.0
H2124 H 0.59576 0.2396 0.60896 0.0
H2125 H 0.57493 0.1114 0.50827 0.0
H2126 H 0.58774 0.23665 0.53034 0.0
H2127 H 0.58279 0.11768 0.5873 0.0
H2128 H 0.58227 0.15701 0.51493 0.0
H2129 H 0.59301 0.19506 0.60053 0.0
C2130 C 0.59342 0.22963 0.58987 0.0
C2131 C 0.59194 0.24212 0.57039 0.0
C2132 C 0.58265 0.14841 0.5308 0.0
C2133 C 0.58878 0.19047 0.56046 0.0
C2134 C 0.57865 0.12235 0.52698 0.0
C2135 C 0.57842 0.11069 0.54729 0.0
C2136 C 0.58625 0.16285 0.5551 0.0
C2137 C 0.5829 0.12587 0.57113 0.0
C2138 C 0.59189 0.20405 0.58503 0.0
C2139 C 0.58896 0.22792 0.54601 0.0
N2140 N 0.58651 0.15098 0.57434 0.0
N2141 N 0.58741 0.20291 0.54175 0.0
H2142 H 0.58862 0.73077 0.39272 0.0
H2143 H 0.67465 0.83697 0.34686 0.0
H2144 H 0.58193 0.80593 0.39859 0.0
H2145 H 0.67466 0.75946 0.32719 0.0
H2146 H 0.64395 0.82658 0.37119 0.0
H2147 H 0.62249 0.74141 0.37312 0.0
C2148 C 0.59424 0.74954 0.38992 0.0
C2149 C 0.58222 0.76743 0.39723 0.0
C2150 C 0.65073 0.8118 0.36177 0.0
C2151 C 0.62133 0.77982 0.37498 0.0
C2152 C 0.66837 0.81775 0.348 0.0
C2153 C 0.6772 0.79904 0.33489 0.0
C2154 C 0.64161 0.78687 0.36247 0.0
C2155 C 0.66847 0.77447 0.33713 0.0
C2156 C 0.61364 0.75558 0.37872 0.0
C2157 C 0.59046 0.79144 0.39311 0.0
N2158 N 0.65102 0.76906 0.35044 0.0
N2159 N 0.60946 0.79691 0.38234 0.0
H2160 H 0.08988 0.31029 0.46245 0.0
H2161 H 0.06642 0.16975 0.47518 0.0
H2162 H 0.10909 0.25428 0.40973 0.0
H2163 H 0.07096 0.23085 0.53708 0.0
H2164 H 0.08002 0.19951 0.44973 0.0
H2165 H 0.08005 0.28036 0.48867 0.0
C2166 C 0.09211 0.2917 0.45643 0.0
C2167 C 0.1003 0.28473 0.4339 0.0
C2168 C 0.07812 0.20633 0.46893 0.0
C2169 C 0.08903 0.2504 0.46381 0.0
C2170 C 0.07047 0.18938 0.48357 0.0
C2171 C 0.06747 0.19779 0.50842 0.0
C2172 C 0.08242 0.23184 0.47907 0.0
C2173 C 0.07256 0.22348 0.51796 0.0
C2174 C 0.08657 0.27466 0.47146 0.0
C2175 C 0.10284 0.26039 0.427 0.0
N2176 N 0.07964 0.23958 0.50321 0.0
N2177 N 0.09707 0.24397 0.44188 0.0
H2178 H 0.563 0.27934 0.21621 0.0
H2179 H 0.67156 0.2271 0.21311 0.0
H2180 H 0.57612 0.22902 0.153 0.0
H2181 H 0.64932 0.26107 0.28016 0.0
H2182 H 0.63958 0.23313 0.1891 0.0
H2183 H 0.59811 0.27903 0.23805 0.0
C2184 C 0.57333 0.26835 0.20687 0.0
C2185 C 0.5665 0.25387 0.18292 0.0
C2186 C 0.64171 0.23929 0.20906 0.0
C2187 C 0.60653 0.25336 0.2078 0.0
C2188 C 0.65986 0.23583 0.22269 0.0
C2189 C 0.66271 0.24333 0.24854 0.0
C2190 C 0.62657 0.25063 0.22144 0.0
C2191 C 0.64734 0.25467 0.26024 0.0
C2192 C 0.59332 0.26814 0.21937 0.0
C2193 C 0.58065 0.24025 0.17156 0.0
N2194 N 0.62988 0.25802 0.24657 0.0
N2195 N 0.59996 0.24017 0.1842 0.0
H2196 H 0.62315 0.87267 0.94504 0.0
H2197 H 0.59704 1.00517 0.96004 0.0
H2198 H 0.62869 0.91643 0.88865 0.0
H2199 H 0.58599 0.95925 0.0142 0.0
H2200 H 0.61663 0.97688 0.93775 0.0
H2201 H 0.61847 0.90844 0.97473 0.0
C2202 C 0.62382 0.88995 0.93902 0.0
C2203 C 0.6256 0.89144 0.91418 0.0
C2204 C 0.61006 0.97302 0.95459 0.0
C2205 C 0.62011 0.93219 0.94792 0.0
C2206 C 0.59866 0.98899 0.96716 0.0
C2207 C 0.58944 0.98407 0.98861 0.0
C2208 C 0.61197 0.95179 0.96336 0.0
C2209 C 0.59272 0.9635 0.99762 0.0
C2210 C 0.62109 0.91033 0.95597 0.0
C2211 C 0.62675 0.91433 0.90748 0.0
N2212 N 0.60346 0.94781 0.98469 0.0
N2213 N 0.6236 0.93375 0.92419 0.0
H2214 H 0.97127 0.77986 0.73273 0.0
H2215 H 0.84411 0.77259 0.72235 0.0
H2216 H 0.92303 0.72477 0.67911 0.0
H2217 H 0.87863 0.78403 0.79526 0.0
H2218 H 0.8775 0.76648 0.70423 0.0
H2219 H 0.94092 0.79082 0.75516 0.0
C2220 C 0.95436 0.76998 0.72587 0.0
C2221 C 0.9495 0.75152 0.70405 0.0
C2222 C 0.87783 0.7706 0.7242 0.0
C2223 C 0.9154 0.76428 0.72886 0.0
C2224 C 0.85896 0.77418 0.73444 0.0
C2225 C 0.85907 0.77894 0.76011 0.0
C2226 C 0.89669 0.7715 0.73981 0.0
C2227 C 0.87835 0.78055 0.7753 0.0
C2228 C 0.93724 0.77622 0.7386 0.0
C2229 C 0.92748 0.73909 0.69586 0.0
N2230 N 0.89668 0.77679 0.76485 0.0
N2231 N 0.91118 0.74597 0.70812 0.0
H2232 H 0.16263 1.00418 0.855 0.0
H2233 H 0.05702 0.02175 0.9284 0.0
H2234 H 0.11005 0.03291 0.82698 0.0
H2235 H 0.11882 0.02307 0.96826 0.0
H2236 H 0.07442 0.01906 0.88985 0.0
H2237 H 0.14567 1.00416 0.89434 0.0
C2238 C 0.14748 0.01024 0.8568 0.0
C2239 C 0.13802 0.01854 0.83699 0.0
C2240 C 0.08423 0.01961 0.90691 0.0
C2241 C 0.11807 0.01842 0.88276 0.0
C2242 C 0.07411 0.02087 0.92917 0.0
C2243 C 0.08603 0.02217 0.95217 0.0
C2244 C 0.10673 0.01915 0.90683 0.0
C2245 C 0.10862 0.02192 0.9513 0.0
C2246 C 0.1378 0.01039 0.87953 0.0
C2247 C 0.11829 0.02632 0.84124 0.0
N2248 N 0.11803 0.02023 0.9293 0.0
N2249 N 0.10914 0.0259 0.86313 0.0
H2250 H 0.8223 0.42933 0.58009 0.0
H2251 H 0.85399 0.30411 0.59806 0.0
H2252 H 0.85518 0.38668 0.52832 0.0
H2253 H 0.84481 0.35934 0.65946 0.0
H2254 H 0.84697 0.33062 0.56993 0.0
H2255 H 0.8231 0.39991 0.6075 0.0
C2256 C 0.8295 0.41369 0.57447 0.0
C2257 C 0.83887 0.41041 0.55214 0.0
C2258 C 0.8464 0.33684 0.58958 0.0
C2259 C 0.8396 0.37697 0.58285 0.0
C2260 C 0.85053 0.32181 0.60559 0.0
C2261 C 0.85015 0.32962 0.63106 0.0
C2262 C 0.84185 0.35979 0.59913 0.0
C2263 C 0.84507 0.35251 0.63987 0.0
C2264 C 0.83 0.39704 0.59005 0.0
C2265 C 0.84802 0.38999 0.54556 0.0
N2266 N 0.84119 0.3669 0.62388 0.0
N2267 N 0.84815 0.37402 0.56087 0.0
H2268 H 0.43485 0.01492 0.39169 0.0
H2269 H 0.56026 0.05253 0.43194 0.0
H2270 H 0.47873 0.03066 0.3367 0.0
H2271 H 0.51355 0.07788 0.47796 0.0
H2272 H 0.53324 0.04415 0.39578 0.0
H2273 H 0.46595 0.03261 0.42399 0.0
C2274 C 0.45124 0.02122 0.38645 0.0
C2275 C 0.45455 0.0214 0.36181 0.0
C2276 C 0.52923 0.05234 0.41371 0.0
C2277 C 0.48953 0.04237 0.39814 0.0
C2278 C 0.54477 0.05746 0.43429 0.0
C2279 C 0.53873 0.0651 0.45783 0.0
C2280 C 0.50778 0.0546 0.41729 0.0
C2281 C 0.5184 0.07122 0.45998 0.0
C2282 C 0.46876 0.03192 0.40479 0.0
C2283 C 0.47586 0.03025 0.35572 0.0
N2284 N 0.50321 0.06502 0.43993 0.0
N2285 N 0.49275 0.04059 0.37392 0.0
H2286 H 0.83056 0.72357 0.08383 0.0
H2287 H 0.7725 0.77547 0.19427 0.0
H2288 H 0.7775 0.75912 0.07298 0.0
H2289 H 0.84082 0.77434 0.20445 0.0
H2290 H 0.7737 0.7702 0.15061 0.0
H2291 H 0.83467 0.74163 0.12826 0.0
C2292 C 0.81989 0.73534 0.09081 0.0
C2293 C 0.80356 0.73975 0.07481 0.0
C2294 C 0.78861 0.77158 0.16249 0.0
C2295 C 0.80797 0.76014 0.12551 0.0
C2296 C 0.78788 0.77473 0.18798 0.0
C2297 C 0.80621 0.77497 0.20407 0.0
C2298 C 0.80795 0.76817 0.15259 0.0
C2299 C 0.82587 0.77367 0.19331 0.0
C2300 C 0.82234 0.74576 0.1161 0.0
C2301 C 0.7903 0.75529 0.08473 0.0
N2302 N 0.82611 0.76982 0.16832 0.0
N2303 N 0.79251 0.76458 0.10954 0.0
H2304 H 0.15716 0.99933 0.68003 0.0
H2305 H 0.06693 0.04908 0.60129 0.0
H2306 H 0.11819 0.04666 0.7155 0.0
H2307 H 0.12014 0.02212 0.56952 0.0
H2308 H 0.08221 0.04489 0.64243 0.0
H2309 H 0.14054 1.00285 0.63931 0.0
C2310 C 0.14504 0.01026 0.67953 0.0
C2311 C 0.13943 0.02265 0.70203 0.0
C2312 C 0.09056 0.03985 0.62643 0.0
C2313 C 0.11981 0.02688 0.65428 0.0
C2314 C 0.08182 0.04248 0.60269 0.0
C2315 C 0.09223 0.03655 0.58115 0.0
C2316 C 0.10961 0.03036 0.62911 0.0
C2317 C 0.11131 0.02734 0.58504 0.0
C2318 C 0.13552 0.01242 0.65601 0.0
C2319 C 0.12343 0.03664 0.6992 0.0
N2320 N 0.11906 0.02446 0.60792 0.0
N2321 N 0.11437 0.03826 0.67631 0.0
H2322 H 0.87977 0.42524 0.44007 0.0
H2323 H 0.80269 0.29697 0.36511 0.0
H2324 H 0.81451 0.39246 0.45672 0.0
H2325 H 0.86252 0.33561 0.34115 0.0
H2326 H 0.81201 0.32566 0.40525 0.0
H2327 H 0.87816 0.38726 0.40953 0.0
C2328 C 0.86515 0.41005 0.43733 0.0
C2329 C 0.84705 0.41217 0.45047 0.0
C2330 C 0.82326 0.32758 0.39129 0.0
C2331 C 0.84524 0.36871 0.41605 0.0
C2332 C 0.81789 0.31119 0.36834 0.0
C2333 C 0.83115 0.31478 0.34931 0.0
C2334 C 0.84214 0.34741 0.39509 0.0
C2335 C 0.85128 0.33285 0.35497 0.0
C2336 C 0.86429 0.38834 0.42007 0.0
C2337 C 0.82865 0.39181 0.44656 0.0
N2338 N 0.85595 0.34887 0.3772 0.0
N2339 N 0.82814 0.37099 0.42954 0.0
H2340 H 0.42391 0.9885 0.23975 0.0
H2341 H 0.51885 0.05731 0.17024 0.0
H2342 H 0.44857 0.06821 0.25508 0.0
H2343 H 0.49787 0.97794 0.16284 0.0
H2344 H 0.489 0.06234 0.19593 0.0
H2345 H 0.44589 0.98505 0.20523 0.0
C2346 C 0.43378 1.00532 0.23559 0.0
C2347 C 0.43475 0.02863 0.2504 0.0
C2348 C 0.49084 0.04383 0.18854 0.0
C2349 C 0.46029 0.02482 0.21129 0.0
C2350 C 0.50784 0.041 0.17405 0.0
C2351 C 0.5109 0.01724 0.16507 0.0
C2352 C 0.47681 0.02268 0.19374 0.0
C2353 C 0.49625 0.99657 0.17005 0.0
C2354 C 0.44635 1.00335 0.21592 0.0
C2355 C 0.4475 0.04988 0.24408 0.0
N2356 N 0.47984 0.99979 0.18416 0.0
N2357 N 0.46015 0.04745 0.22516 0.0
H2358 H 0.76434 0.71034 0.92561 0.0
H2359 H 0.84125 0.80548 0.86551 0.0
H2360 H 0.83032 0.7408 0.96345 0.0
H2361 H 0.80659 0.73266 0.82391 0.0
H2362 H 0.83561 0.79038 0.90402 0.0
H2363 H 0.776 0.72848 0.89052 0.0
C2364 C 0.78122 0.72106 0.92669 0.0
C2365 C 0.79644 0.72377 0.94737 0.0
C2366 C 0.82961 0.77779 0.88632 0.0
C2367 C 0.80975 0.74468 0.9073 0.0
C2368 C 0.83287 0.78633 0.86431 0.0
C2369 C 0.82394 0.7706 0.84128 0.0
C2370 C 0.81705 0.75356 0.88509 0.0
C2371 C 0.81337 0.74578 0.8411 0.0
C2372 C 0.78785 0.73127 0.90661 0.0
C2373 C 0.81812 0.73804 0.94771 0.0
N2374 N 0.80978 0.73825 0.86261 0.0
N2375 N 0.8242 0.74805 0.92789 0.0
H2376 H 0.84537 0.09419 0.06589 0.0
H2377 H 0.92053 0.06008 0.9619 0.0
H2378 H 0.87034 0.14381 0.0182 0.0
H2379 H 0.91364 0.02499 0.02455 0.0
H2380 H 0.90076 0.09026 0.98133 0.0
H2381 H 0.87062 0.0688 0.05164 0.0
C2382 C 0.85662 0.10005 0.05289 0.0
C2383 C 0.85568 0.12084 0.04293 0.0
C2384 C 0.90347 0.07587 0.99075 0.0
C2385 C 0.88401 0.09168 0.0261 0.0
C2386 C 0.9143 0.05848 0.97947 0.0
C2387 C 0.91796 0.03988 0.9915 0.0
C2388 C 0.8963 0.07435 0.01405 0.0
C2389 C 0.91049 0.03884 0.01461 0.0
C2390 C 0.87092 0.08552 0.04466 0.0
C2391 C 0.87057 0.1278 0.02623 0.0
N2392 N 0.89987 0.05584 0.02515 0.0
N2393 N 0.88389 0.11289 0.01788 0.0
H2394 H 0.40793 0.43176 0.08822 0.0
H2395 H 0.48417 0.5126 0.00792 0.0
H2396 H 0.38317 0.44978 0.02108 0.0
H2397 H 0.50689 0.50609 0.08098 0.0
H2398 H 0.44704 0.48964 0.01259 0.0
H2399 H 0.44421 0.45839 0.08599 0.0
C2400 C 0.41006 0.4414 0.07306 0.0
C2401 C 0.3924 0.43849 0.05481 0.0
C2402 C 0.46005 0.49327 0.0277 0.0
C2403 C 0.43403 0.469 0.05212 0.0
C2404 C 0.48124 0.50632 0.025 0.0
C2405 C 0.49851 0.51105 0.04405 0.0
C2406 C 0.45614 0.48448 0.04951 0.0
C2407 C 0.49389 0.50286 0.06594 0.0
C2408 C 0.43081 0.45665 0.07184 0.0
C2409 C 0.39623 0.45146 0.0356 0.0
N2410 N 0.47317 0.48971 0.06799 0.0
N2411 N 0.41661 0.466 0.03471 0.0
H2412 H 0.39142 0.63986 0.80583 0.0
H2413 H 0.34206 0.72979 0.72875 0.0
H2414 H 0.40141 0.64665 0.73101 0.0
H2415 H 0.33521 0.73728 0.80644 0.0
H2416 H 0.36126 0.69707 0.73068 0.0
H2417 H 0.36958 0.67201 0.80806 0.0
C2418 C 0.38908 0.64771 0.78976 0.0
C2419 C 0.39879 0.63969 0.76808 0.0
C2420 C 0.35561 0.70555 0.74749 0.0
C2421 C 0.37307 0.67749 0.77057 0.0
C2422 C 0.34436 0.72455 0.7464 0.0
C2423 C 0.33652 0.7371 0.76734 0.0
C2424 C 0.35971 0.6979 0.76985 0.0
C2425 C 0.34053 0.7286 0.78951 0.0
C2426 C 0.3765 0.6664 0.79111 0.0
C2427 C 0.39474 0.65151 0.7483 0.0
N2428 N 0.35171 0.70987 0.79014 0.0
N2429 N 0.38254 0.66915 0.75005 0.0
H2430 H 0.23193 0.57631 0.53946 0.0
H2431 H 0.11179 0.60161 0.53727 0.0
H2432 H 0.21554 0.64379 0.52727 0.0
H2433 H 0.12178 0.52751 0.52079 0.0
H2434 H 0.15168 0.61824 0.54579 0.0
H2435 H 0.19277 0.55861 0.54214 0.0
C2436 C 0.22011 0.58733 0.53728 0.0
C2437 C 0.22688 0.61155 0.5332 0.0
C2438 C 0.14514 0.59829 0.54093 0.0
C2439 C 0.18269 0.59177 0.53677 0.0
C2440 C 0.12248 0.58887 0.53647 0.0
C2441 C 0.11377 0.56328 0.52939 0.0
C2442 C 0.15905 0.58193 0.5373 0.0
C2443 C 0.12807 0.54737 0.52709 0.0
C2444 C 0.19791 0.5773 0.53896 0.0
C2445 C 0.21104 0.6251 0.53053 0.0
N2446 N 0.15022 0.55699 0.53094 0.0
N2447 N 0.18965 0.61501 0.53243 0.0
H2448 H 0.70367 0.95735 0.75825 0.0
H2449 H 0.83137 0.95723 0.77047 0.0
H2450 H 0.74674 0.97519 0.70302 0.0
H2451 H 0.79023 0.94976 0.82933 0.0
H2452 H 0.80052 0.96334 0.7449 0.0
H2453 H 0.73435 0.94941 0.78234 0.0
C2454 C 0.71937 0.95875 0.75075 0.0
C2455 C 0.72287 0.96747 0.72891 0.0
C2456 C 0.79834 0.96094 0.76361 0.0
C2457 C 0.75807 0.95933 0.75671 0.0
C2458 C 0.81608 0.95806 0.77834 0.0
C2459 C 0.81328 0.95341 0.80203 0.0
C2460 C 0.77771 0.95887 0.77266 0.0
C2461 C 0.79304 0.95379 0.81128 0.0
C2462 C 0.737 0.95473 0.76477 0.0
C2463 C 0.74351 0.96887 0.72001 0.0
N2464 N 0.77583 0.95608 0.79639 0.0
N2465 N 0.76051 0.96534 0.73422 0.0
H2466 H 0.74002 0.88858 0.50553 0.0
H2467 H 0.69913 0.01373 0.53848 0.0
H2468 H 0.78196 0.95628 0.5501 0.0
H2469 H 0.67689 0.95998 0.47002 0.0
H2470 H 0.72438 0.9889 0.54999 0.0
H2471 H 0.71147 0.91086 0.49943 0.0
C2472 C 0.74318 0.90809 0.5142 0.0
C2473 C 0.76353 0.92068 0.5281 0.0
C2474 C 0.7138 0.98247 0.53257 0.0
C2475 C 0.73079 0.94612 0.52141 0.0
C2476 C 0.69939 0.9965 0.52611 0.0
C2477 C 0.68613 0.98879 0.50329 0.0
C2478 C 0.71456 0.96047 0.51623 0.0
C2479 C 0.68699 0.96646 0.48774 0.0
C2480 C 0.72689 0.92076 0.51065 0.0
C2481 C 0.76662 0.94594 0.53898 0.0
N2482 N 0.70098 0.95303 0.4945 0.0
N2483 N 0.75041 0.95787 0.53541 0.0
H2484 H 0.42524 0.47119 0.7448 0.0
H2485 H 0.31356 0.38434 0.7763 0.0
H2486 H 0.37606 0.50272 0.78095 0.0
H2487 H 0.36932 0.35731 0.75217 0.0
H2488 H 0.33396 0.42686 0.77564 0.0
H2489 H 0.40325 0.42971 0.7448 0.0
C2490 C 0.40976 0.46958 0.75278 0.0
C2491 C 0.40282 0.49111 0.76294 0.0
C2492 C 0.3417 0.41164 0.77029 0.0
C2493 C 0.37691 0.44226 0.76296 0.0
C2494 C 0.32988 0.3871 0.77038 0.0
C2495 C 0.33932 0.36661 0.76385 0.0
C2496 C 0.36332 0.41618 0.76339 0.0
C2497 C 0.36104 0.37211 0.75725 0.0
C2498 C 0.39712 0.44557 0.75278 0.0
C2499 C 0.38232 0.48703 0.77281 0.0
N2500 N 0.37206 0.39602 0.75707 0.0
N2501 N 0.37021 0.46329 0.77257 0.0
H2502 H 0.24458 0.60139 0.27047 0.0
H2503 H 0.31805 0.72856 0.2583 0.0
H2504 H 0.25667 0.60988 0.19624 0.0
H2505 H 0.25012 0.72279 0.27191 0.0
H2506 H 0.31102 0.68319 0.24997 0.0
H2507 H 0.26366 0.64504 0.28605 0.0
C2508 C 0.25179 0.6122 0.25753 0.0
C2509 C 0.24878 0.60224 0.23192 0.0
C2510 C 0.29789 0.69212 0.25513 0.0
C2511 C 0.27104 0.65138 0.24982 0.0
C2512 C 0.30169 0.71787 0.25935 0.0
C2513 C 0.28428 0.72933 0.26421 0.0
C2514 C 0.27693 0.67821 0.25742 0.0
C2515 C 0.26376 0.71462 0.26715 0.0
C2516 C 0.26271 0.63694 0.26651 0.0
C2517 C 0.25842 0.61704 0.21602 0.0
N2518 N 0.26061 0.68968 0.26365 0.0
N2519 N 0.269 0.64114 0.22525 0.0
H2520 H 0.52223 0.69063 0.4353 0.0
H2521 H 0.55194 0.61226 0.53573 0.0
H2522 H 0.54325 0.72527 0.51209 0.0
H2523 H 0.54553 0.58631 0.4566 0.0
H2524 H 0.54716 0.65301 0.52898 0.0
H2525 H 0.52787 0.65133 0.44404 0.0
C2526 C 0.52781 0.69001 0.45407 0.0
C2527 C 0.53219 0.71159 0.47289 0.0
C2528 C 0.54686 0.63836 0.51312 0.0
C2529 C 0.53886 0.66608 0.48322 0.0
C2530 C 0.54974 0.6151 0.51701 0.0
C2531 C 0.54924 0.59561 0.49673 0.0
C2532 C 0.54303 0.6421 0.48879 0.0
C2533 C 0.54601 0.60055 0.47289 0.0
C2534 C 0.5312 0.66748 0.45907 0.0
C2535 C 0.53964 0.7093 0.49685 0.0
N2536 N 0.54293 0.62294 0.46965 0.0
N2537 N 0.54266 0.68714 0.50131 0.0
H2538 H 0.68988 0.31971 0.62107 0.0
H2539 H 0.73609 0.30422 0.75493 0.0
H2540 H 0.65108 0.31891 0.68254 0.0
H2541 H 0.77546 0.30688 0.69414 0.0
H2542 H 0.70531 0.3101 0.72918 0.0
H2543 H 0.72137 0.31607 0.64764 0.0
C2544 C 0.68794 0.31891 0.64022 0.0
C2545 C 0.66758 0.31972 0.64943 0.0
C2546 C 0.72072 0.30967 0.72145 0.0
C2547 C 0.70399 0.31514 0.68024 0.0
C2548 C 0.73854 0.30653 0.73636 0.0
C2549 C 0.75886 0.30558 0.72716 0.0
C2550 C 0.72292 0.31192 0.69683 0.0
C2551 C 0.76031 0.30763 0.7023 0.0
C2552 C 0.70603 0.31676 0.65542 0.0
C2553 C 0.66636 0.31861 0.67453 0.0
N2554 N 0.74273 0.31077 0.68815 0.0
N2555 N 0.68416 0.31624 0.68891 0.0
H2556 H 0.05516 0.34784 0.97727 0.0
H2557 H 0.02416 0.46964 0.96019 0.0
H2558 H 0.98646 0.34748 0.96222 0.0
H2559 H 0.06507 0.47428 0.02738 0.0
H2560 H 0.01389 0.42419 0.95459 0.0
H2561 H 0.06377 0.39367 0.99018 0.0
C2562 C 0.04187 0.35723 0.97691 0.0
C2563 C 0.02002 0.34354 0.96852 0.0
C2564 C 0.02487 0.43516 0.97075 0.0
C2565 C 0.02988 0.39592 0.98277 0.0
C2566 C 0.03051 0.46109 0.97411 0.0
C2567 C 0.04464 0.47582 0.99486 0.0
C2568 C 0.0345 0.42363 0.98744 0.0
C2569 C 0.05339 0.46363 0.01166 0.0
C2570 C 0.04681 0.38336 0.98434 0.0
C2571 C 0.00356 0.35698 0.96839 0.0
N2572 N 0.04847 0.43821 0.0074 0.0
N2573 N 0.00886 0.38225 0.97494 0.0
H2574 H 0.01065 0.81041 0.11639 0.0
H2575 H 0.97105 0.80191 0.25014 0.0
H2576 H 0.05449 0.81439 0.18137 0.0
H2577 H 0.92505 0.78711 0.18441 0.0
H2578 H 1.00161 0.81145 0.22567 0.0
H2579 H 0.97948 0.80629 0.14113 0.0
C2580 C 0.01381 0.81049 0.13588 0.0
C2581 C 0.0354 0.81263 0.1467 0.0
C2582 C 0.98488 0.80629 0.21651 0.0
C2583 C 0.99945 0.80796 0.17529 0.0
C2584 C 0.96732 0.80083 0.23051 0.0
C2585 C 0.9453 0.79324 0.21935 0.0
C2586 C 0.98069 0.80435 0.1909 0.0
C2587 C 0.94167 0.79278 0.19387 0.0
C2588 C 0.9959 0.80812 0.15 0.0
C2589 C 0.03825 0.81272 0.17211 0.0
N2590 N 0.95916 0.79801 0.18049 0.0
N2591 N 0.02056 0.81037 0.18543 0.0
H2592 H 0.51044 0.27223 0.07552 0.0
H2593 H 0.55278 0.41565 0.07506 0.0
H2594 H 0.51295 0.32945 0.14022 0.0
H2595 H 0.53428 0.35773 0.00891 0.0
H2596 H 0.53803 0.3852 0.09964 0.0
H2597 H 0.51879 0.30395 0.051 0.0
C2598 C 0.51261 0.29154 0.0845 0.0
C2599 C 0.51113 0.29832 0.10986 0.0
C2600 C 0.53708 0.37925 0.07973 0.0
C2601 C 0.52105 0.33481 0.08205 0.0
C2602 C 0.54547 0.39659 0.06567 0.0
C2603 C 0.54497 0.38912 0.03988 0.0
C2604 C 0.5283 0.35431 0.06787 0.0
C2605 C 0.53548 0.36419 0.02876 0.0
C2606 C 0.51734 0.30965 0.0705 0.0
C2607 C 0.51391 0.32354 0.12062 0.0
N2608 N 0.52765 0.34769 0.04284 0.0
N2609 N 0.51905 0.34101 0.10668 0.0
H2610 H 0.06564 0.35546 0.3581 0.0
H2611 H 0.93982 0.29895 0.30171 0.0
H2612 H 0.03182 0.27838 0.35066 0.0
H2613 H 0.97368 0.37601 0.30902 0.0
H2614 H 0.97209 0.29213 0.32378 0.0
H2615 H 0.03107 0.36417 0.344 0.0
C2616 C 0.05093 0.34033 0.35346 0.0
C2617 C 0.05166 0.31605 0.35515 0.0
C2618 C 0.97244 0.31056 0.32068 0.0
C2619 C 0.01202 0.32595 0.33902 0.0
C2620 C 0.95394 0.31455 0.30821 0.0
C2621 C 0.95408 0.3381 0.30333 0.0
C2622 C 0.99133 0.33018 0.32816 0.0
C2623 C 0.973 0.35745 0.31192 0.0
C2624 C 0.03117 0.34536 0.34551 0.0
C2625 C 0.03202 0.29731 0.34935 0.0
N2626 N 0.99094 0.35302 0.32377 0.0
N2627 N 0.013 0.30262 0.34133 0.0
H2628 H 0.97502 0.69153 0.57232 0.0
H2629 H 0.04871 0.59921 0.5918 0.0
H2630 H 0.99696 0.6815 0.64457 0.0
H2631 H 0.00561 0.58773 0.52425 0.0
H2632 H 0.03009 0.6302 0.61131 0.0
H2633 H 0.98524 0.65331 0.55366 0.0
C2634 C 0.98153 0.68107 0.58426 0.0
C2635 C 0.98562 0.68999 0.60994 0.0
C2636 C 0.0247 0.62085 0.59219 0.0
C2637 C 0.99767 0.64687 0.58886 0.0
C2638 C 0.03541 0.60331 0.58103 0.0
C2639 C 0.02922 0.59163 0.5561 0.0
C2640 C 0.00778 0.62673 0.57823 0.0
C2641 C 0.01166 0.59729 0.54309 0.0
C2642 C 0.98743 0.65935 0.57363 0.0
C2643 C 0.99394 0.6756 0.62461 0.0
N2644 N 1.00167 0.61468 0.55423 0.0
N2645 N 1.0001 0.65501 0.61382 0.0
H2646 H 0.65413 0.79517 0.81485 0.0
H2647 H 0.77352 0.83497 0.83981 0.0
H2648 H 0.68401 0.87145 0.85063 0.0
H2649 H 0.75247 0.8025 0.76244 0.0
H2650 H 0.73865 0.84622 0.84358 0.0
H2651 H 0.68647 0.79464 0.79213 0.0
C2652 C 0.66712 0.81203 0.81724 0.0
C2653 C 0.66705 0.83307 0.8353 0.0
C2654 C 0.74162 0.83654 0.82573 0.0
C2655 C 0.70337 0.83258 0.80954 0.0
C2656 C 0.76138 0.82979 0.82363 0.0
C2657 C 0.76546 0.81676 0.80098 0.0
C2658 C 0.7254 0.82937 0.80535 0.0
C2659 C 0.74935 0.81119 0.78051 0.0
C2660 C 0.68538 0.81177 0.80413 0.0
C2661 C 0.68398 0.85456 0.83754 0.0
N2662 N 0.72951 0.81685 0.78331 0.0
N2663 N 0.70183 0.85359 0.82526 0.0
H2664 H 0.51213 0.60107 0.71895 0.0
H2665 H 0.49398 0.53172 0.57338 0.0
H2666 H 0.4509 0.54886 0.68675 0.0
H2667 H 0.55292 0.5859 0.60901 0.0
H2668 H 0.47763 0.53704 0.61292 0.0
H2669 H 0.52636 0.59496 0.67885 0.0
C2670 C 0.50143 0.58821 0.70355 0.0
C2671 C 0.47991 0.57561 0.70718 0.0
C2672 C 0.49416 0.54781 0.61218 0.0
C2673 C 0.49691 0.56829 0.6593 0.0
C2674 C 0.50364 0.54484 0.5893 0.0
C2675 C 0.52531 0.55821 0.58704 0.0
C2676 C 0.50613 0.56441 0.63372 0.0
C2677 C 0.53646 0.5748 0.6091 0.0
C2678 C 0.50978 0.58473 0.68027 0.0
C2679 C 0.46747 0.55924 0.68559 0.0
N2680 N 0.52693 0.57728 0.63097 0.0
N2681 N 0.47605 0.55612 0.66298 0.0
H2682 H 0.79172 0.14039 0.95606 0.0
H2683 H 0.7783 0.27289 0.93713 0.0
H2684 H 0.77012 0.19368 0.00938 0.0
H2685 H 0.76789 0.21037 0.87569 0.0
H2686 H 0.78829 0.24711 0.96482 0.0
H2687 H 0.79409 0.16886 0.927 0.0
C2688 C 0.78761 0.15813 0.96155 0.0
C2689 C 0.78028 0.16478 0.98465 0.0
C2690 C 0.78385 0.23907 0.94525 0.0
C2691 C 0.78375 0.1972 0.95261 0.0
C2692 C 0.77804 0.25365 0.92964 0.0
C2693 C 0.7716 0.24327 0.90458 0.0
C2694 C 0.78278 0.21394 0.93565 0.0
C2695 C 0.7723 0.21862 0.89522 0.0
C2696 C 0.78905 0.17425 0.94518 0.0
C2697 C 0.77534 0.18783 0.9914 0.0
N2698 N 0.77744 0.20449 0.91093 0.0
N2699 N 0.77721 0.20329 0.97541 0.0
H2700 H 0.1374 0.57583 0.20918 0.0
H2701 H 0.08728 0.50313 0.07284 0.0
H2702 H 0.15246 0.50884 0.17017 0.0
H2703 H 0.07731 0.575 0.10508 0.0
H2704 H 0.10329 0.50022 0.11303 0.0
H2705 H 0.10819 0.57145 0.1756 0.0
C2706 C 0.1344 0.56012 0.1937 0.0
C2707 C 0.14763 0.54302 0.19201 0.0
C2708 C 0.09741 0.51656 0.11149 0.0
C2709 C 0.11443 0.53777 0.15413 0.0
C2710 C 0.08838 0.51824 0.08857 0.0
C2711 C 0.08163 0.53961 0.08581 0.0
C2712 C 0.10013 0.53667 0.13162 0.0
C2713 C 0.08273 0.5584 0.10666 0.0
C2714 C 0.11775 0.5576 0.17466 0.0
C2715 C 0.14298 0.52279 0.17187 0.0
N2716 N 0.09233 0.55674 0.1288 0.0
N2717 N 0.12688 0.52087 0.15361 0.0
H2718 H 0.80897 0.80651 0.46452 0.0
H2719 H 0.82774 0.85955 0.34116 0.0
H2720 H 0.82622 0.8841 0.46097 0.0
H2721 H 0.80867 0.78092 0.33892 0.0
H2722 H 0.83096 0.8677 0.38607 0.0
H2723 H 0.81111 0.79557 0.41962 0.0
C2724 C 0.81322 0.82122 0.45439 0.0
C2725 C 0.81739 0.84629 0.46663 0.0
C2726 C 0.82632 0.84858 0.37599 0.0
C2727 C 0.82006 0.83391 0.41546 0.0
C2728 C 0.82465 0.84394 0.35029 0.0
C2729 C 0.81824 0.81957 0.33638 0.0
C2730 C 0.82094 0.82871 0.38815 0.0
C2731 C 0.81405 0.79999 0.34907 0.0
C2732 C 0.8145 0.81495 0.4288 0.0
C2733 C 0.82282 0.86453 0.45251 0.0
N2734 N 0.81526 0.80499 0.37434 0.0
N2735 N 0.82398 0.85797 0.42786 0.0
H2736 H 0.4588 0.58249 0.86469 0.0
H2737 H 0.55299 0.54136 0.94633 0.0
H2738 H 0.50343 0.54196 0.83066 0.0
H2739 H 0.49546 0.56012 0.97555 0.0
H2740 H 0.53803 0.54504 0.90486 0.0
H2741 H 0.47484 0.5792 0.90574 0.0
C2742 C 0.47209 0.57318 0.86561 0.0
C2743 C 0.47949 0.56261 0.84341 0.0
C2744 C 0.52865 0.54837 0.92036 0.0
C2745 C 0.49843 0.55866 0.89153 0.0
C2746 C 0.53723 0.54606 0.94426 0.0
C2747 C 0.52558 0.54997 0.96516 0.0
C2748 C 0.50841 0.55545 0.91689 0.0
C2749 C 0.50531 0.55666 0.96051 0.0
C2750 C 0.48126 0.57112 0.8893 0.0
C2751 C 0.49684 0.55054 0.84673 0.0
N2752 N 0.49767 0.55928 0.93748 0.0
N2753 N 0.50555 0.54903 0.86981 0.0
H2754 H 0.80787 0.22803 0.07696 0.0
H2755 H 0.76226 0.23646 0.20723 0.0
H2756 H 0.76444 0.16768 0.10043 0.0
H2757 H 0.80571 0.29857 0.18658 0.0
H2758 H 0.75577 0.21468 0.16435 0.0
H2759 H 0.8013 0.25686 0.11308 0.0
C2760 C 0.79678 0.2209 0.08955 0.0
C2761 C 0.78712 0.19537 0.08609 0.0
C2762 C 0.76667 0.23314 0.16908 0.0
C2763 C 0.77944 0.22811 0.12712 0.0
C2764 C 0.77041 0.24565 0.19366 0.0
C2765 C 0.78566 0.26879 0.20073 0.0
C2766 C 0.77849 0.24368 0.15147 0.0
C2767 C 0.79491 0.28012 0.18213 0.0
C2768 C 0.79297 0.23736 0.11008 0.0
C2769 C 0.77263 0.18714 0.10268 0.0
N2770 N 0.79167 0.26715 0.15832 0.0
N2771 N 0.76945 0.20343 0.12262 0.0
H2772 H 0.18527 0.5188 0.30969 0.0
H2773 H 0.08777 0.57774 0.35766 0.0
H2774 H 0.16505 0.5794 0.28536 0.0
H2775 H 0.13085 0.55614 0.40896 0.0
H2776 H 0.10791 0.56282 0.32393 0.0
H2777 H 0.15852 0.51958 0.34068 0.0
C2778 C 0.17514 0.53212 0.3109 0.0
C2779 C 0.1774 0.54933 0.29546 0.0
C2780 C 0.11274 0.56103 0.34254 0.0
C2781 C 0.14666 0.54952 0.32935 0.0
C2782 C 0.10133 0.56953 0.36166 0.0
C2783 C 0.10816 0.56867 0.38594 0.0
C2784 C 0.13124 0.55198 0.34791 0.0
C2785 C 0.12543 0.55735 0.39034 0.0
C2786 C 0.15997 0.53248 0.32834 0.0
C2787 C 0.16399 0.56615 0.29731 0.0
N2788 N 0.1368 0.54981 0.37145 0.0
N2789 N 0.14908 0.56572 0.31387 0.0
H2790 H 0.8425 0.82943 0.59049 0.0
H2791 H 0.80149 0.85769 0.72315 0.0
H2792 H 0.8022 0.8818 0.60785 0.0
H2793 H 0.81309 0.78655 0.69127 0.0
H2794 H 0.80473 0.86951 0.68271 0.0
H2795 H 0.83536 0.81599 0.62935 0.0
C2796 C 0.83208 0.83803 0.60239 0.0
C2797 C 0.82296 0.85679 0.59587 0.0
C2798 C 0.80638 0.85125 0.68459 0.0
C2799 C 0.81493 0.84167 0.64047 0.0
C2800 C 0.80457 0.84456 0.70759 0.0
C2801 C 0.80686 0.82109 0.71039 0.0
C2802 C 0.81119 0.83461 0.6646 0.0
C2803 C 0.81091 0.80471 0.68976 0.0
C2804 C 0.82796 0.8303 0.62452 0.0
C2805 C 0.80958 0.86727 0.61209 0.0
N2806 N 0.81322 0.81189 0.66782 0.0
N2807 N 0.80613 0.85974 0.63375 0.0
H2808 H 0.78767 0.50927 0.49179 0.0
H2809 H 0.67236 0.50455 0.54507 0.0
H2810 H 0.74422 0.44177 0.50233 0.0
H2811 H 0.72072 0.57215 0.54401 0.0
H2812 H 0.69543 0.4805 0.52275 0.0
H2813 H 0.75928 0.53142 0.50214 0.0
C2814 C 0.77192 0.49904 0.49583 0.0
C2815 C 0.76833 0.4739 0.49689 0.0
C2816 C 0.70101 0.50058 0.52741 0.0
C2817 C 0.73616 0.4991 0.50918 0.0
C2818 C 0.68797 0.51428 0.54024 0.0
C2819 C 0.69483 0.54032 0.5464 0.0
C2820 C 0.7211 0.51303 0.52091 0.0
C2821 C 0.71509 0.55209 0.53987 0.0
C2822 C 0.7558 0.5117 0.50184 0.0
C2823 C 0.74762 0.46128 0.50167 0.0
N2824 N 0.72759 0.5383 0.52742 0.0
N2825 N 0.73235 0.4742 0.50818 0.0
H2826 H 0.21391 0.18445 0.52363 0.0
H2827 H 0.13027 0.04952 0.48175 0.0
H2828 H 0.23468 0.12182 0.4835 0.0
H2829 H 0.1154 0.11504 0.52414 0.0
H2830 H 0.16765 0.07451 0.47943 0.0
H2831 H 0.17709 0.15833 0.52146 0.0
C2832 C 0.21073 0.16516 0.51418 0.0
C2833 C 0.22758 0.15544 0.50373 0.0
C2834 C 0.15607 0.0833 0.48914 0.0
C2835 C 0.1848 0.1249 0.50119 0.0
C2836 C 0.13469 0.06903 0.49044 0.0
C2837 C 0.11956 0.07994 0.50347 0.0
C2838 C 0.16221 0.10866 0.50076 0.0
C2839 C 0.12633 0.10548 0.51414 0.0
C2840 C 0.18955 0.15013 0.51297 0.0
C2841 C 0.22223 0.13015 0.49182 0.0
N2842 N 0.14697 0.11875 0.5126 0.0
N2843 N 0.20131 0.11571 0.49091 0.0
H2844 H 0.20534 0.91603 0.72999 0.0
H2845 H 0.28287 0.86544 0.82155 0.0
H2846 H 0.23407 0.96046 0.80164 0.0
H2847 H 0.2718 0.83615 0.74307 0.0
H2848 H 0.26431 0.89846 0.81571 0.0
H2849 H 0.22736 0.88618 0.73535 0.0
C2850 C 0.21637 0.9199 0.74694 0.0
C2851 C 0.21744 0.94175 0.76515 0.0
C2852 C 0.26601 0.88506 0.79961 0.0
C2853 C 0.24341 0.90573 0.7718 0.0
C2854 C 0.27683 0.86597 0.80292 0.0
C2855 C 0.27971 0.8476 0.78286 0.0
C2856 C 0.2568 0.88608 0.77592 0.0
C2857 C 0.27076 0.84974 0.75931 0.0
C2858 C 0.22913 0.90246 0.74996 0.0
C2859 C 0.23237 0.94455 0.78665 0.0
N2860 N 0.25973 0.86807 0.75666 0.0
N2861 N 0.24432 0.92696 0.78935 0.0
H2862 H 0.39424 0.0238 0.00796 0.0
H2863 H 0.49777 0.97083 0.02951 0.0
H2864 H 0.40097 0.98569 0.06763 0.0
H2865 H 0.50507 0.04258 0.01052 0.0
H2866 H 0.45962 0.97104 0.03713 0.0
H2867 H 0.43351 0.02773 0.0034 0.0
C2868 C 0.40414 0.01685 0.02049 0.0
C2869 C 0.39446 1.00439 0.03814 0.0
C2870 C 0.46967 0.98656 0.03097 0.0
C2871 C 0.43874 0.00787 0.03236 0.0
C2872 C 0.49126 0.98632 0.02629 0.0
C2873 C 0.50465 1.00657 0.01888 0.0
C2874 C 0.46135 1.00692 0.02765 0.0
C2875 C 0.49544 0.02635 0.01552 0.0
C2876 C 0.4264 0.01893 0.01776 0.0
C2877 C 0.40787 0.99552 0.05384 0.0
N2878 N 0.47431 0.02598 0.01974 0.0
N2879 N 0.42933 0.99696 0.05024 0.0
H2880 H 0.86624 0.60853 0.84374 0.0
H2881 H 0.86828 0.67722 0.73549 0.0
H2882 H 0.92711 0.64034 0.81694 0.0
H2883 H 0.81502 0.67175 0.78146 0.0
H2884 H 0.8911 0.66648 0.76738 0.0
H2885 H 0.84838 0.63626 0.8257 0.0
C2886 C 0.87603 0.62214 0.8349 0.0
C2887 C 0.89795 0.62204 0.83133 0.0
C2888 C 0.87455 0.66806 0.77068 0.0
C2889 C 0.87762 0.65289 0.80993 0.0
C2890 C 0.86147 0.67377 0.75235 0.0
C2891 C 0.83979 0.67505 0.75589 0.0
C2892 C 0.86567 0.66324 0.7924 0.0
C2893 C 0.83172 0.67087 0.77813 0.0
C2894 C 0.86584 0.63784 0.82447 0.0
C2895 C 0.91008 0.63987 0.81985 0.0
N2896 N 0.8446 0.66482 0.79548 0.0
N2897 N 0.89953 0.65416 0.80879 0.0
H2898 H 0.84076 0.62893 0.99125 0.0
H2899 H 0.95087 0.63071 0.07213 0.0
H2900 H 0.88213 0.69603 0.03745 0.0
H2901 H 0.92273 0.57255 0.00832 0.0
H2902 H 0.92551 0.65491 0.05999 0.0
H2903 H 0.87012 0.60756 0.99719 0.0
C2904 C 0.85604 0.63918 1.00254 0.0
C2905 C 0.85891 0.66421 0.01409 0.0
C2906 C 0.925 0.63697 0.04847 0.0
C2907 C 0.89241 0.63987 0.02115 0.0
C2908 C 0.9394 0.62322 0.05544 0.0
C2909 C 0.93862 0.5997 0.04122 0.0
C2910 C 0.90947 0.62686 0.02739 0.0
C2911 C 0.92361 0.59064 0.01974 0.0
C2912 C 0.87282 0.62702 0.00584 0.0
C2913 C 0.87914 0.67668 0.0283 0.0
N2914 N 0.90939 0.60412 0.01359 0.0
N2915 N 0.895 0.6643 0.03169 0.0
H2916 H 0.21458 0.10029 0.80571 0.0
H2917 H 0.29813 0.20453 0.75257 0.0
H2918 H 0.23284 0.08834 0.73149 0.0
H2919 H 0.25642 0.22644 0.80702 0.0
H2920 H 0.27908 0.16081 0.74962 0.0
H2921 H 0.23411 0.14478 0.81162 0.0
C2922 C 0.22281 0.10676 0.79073 0.0
C2923 C 0.2219 0.08998 0.76801 0.0
C2924 C 0.27417 0.17507 0.76246 0.0
C2925 C 0.24467 0.14143 0.77482 0.0
C2926 C 0.28522 0.20019 0.76429 0.0
C2927 C 0.2792 0.21955 0.78027 0.0
C2928 C 0.25706 0.1686 0.77715 0.0
C2929 C 0.26181 0.21236 0.79448 0.0
C2930 C 0.23387 0.13234 0.79408 0.0
C2931 C 0.23289 0.1001 0.74937 0.0
N2932 N 0.25159 0.18767 0.79279 0.0
N2933 N 0.24375 0.12468 0.75323 0.0
H2934 H 0.35293 0.97245 0.25271 0.0
H2935 H 0.37269 0.86251 0.30157 0.0
H2936 H 0.36507 0.98263 0.33226 0.0
H2937 H 0.30779 0.85105 0.26286 0.0
H2938 H 0.37679 0.90772 0.30742 0.0
H2939 H 0.34092 0.92741 0.24992 0.0
C2940 C 0.35245 0.96534 0.26956 0.0
C2941 C 0.36019 0.98115 0.29272 0.0
C2942 C 0.36161 0.89508 0.2979 0.0
C2943 C 0.34734 0.93041 0.28948 0.0
C2944 C 0.35933 0.86958 0.29455 0.0
C2945 C 0.33968 0.85338 0.28242 0.0
C2946 C 0.34453 0.90397 0.28795 0.0
C2947 C 0.32288 0.86308 0.27303 0.0
C2948 C 0.34577 0.93978 0.26792 0.0
C2949 C 0.35951 0.97098 0.31401 0.0
N2950 N 0.32578 0.88792 0.27573 0.0
N2951 N 0.35374 0.94608 0.31185 0.0
H2952 H 0.56675 0.36636 0.57742 0.0
H2953 H 0.60522 0.5008 0.54421 0.0
H2954 H 0.63493 0.40275 0.57565 0.0
H2955 H 0.53771 0.45851 0.53181 0.0
H2956 H 0.61637 0.46474 0.55398 0.0
H2957 H 0.55555 0.39945 0.56026 0.0
C2958 C 0.5794 0.38112 0.57328 0.0
C2959 C 0.60191 0.38156 0.57821 0.0
C2960 C 0.59902 0.46332 0.54904 0.0
C2961 C 0.58908 0.41994 0.55851 0.0
C2962 C 0.59253 0.48409 0.54328 0.0
C2963 C 0.57008 0.48375 0.53771 0.0
C2964 C 0.58299 0.44157 0.54961 0.0
C2965 C 0.55489 0.46082 0.53663 0.0
C2966 C 0.57297 0.40009 0.56344 0.0
C2967 C 0.6174 0.40145 0.57239 0.0
N2968 N 0.56149 0.44102 0.54284 0.0
N2969 N 0.61075 0.41973 0.56311 0.0
H2970 H 0.43696 0.71815 0.37853 0.0
H2971 H 0.37864 0.81481 0.32765 0.0
H2972 H 0.46971 0.79554 0.38703 0.0
H2973 H 0.35662 0.73569 0.30079 0.0
H2974 H 0.41039 0.80861 0.35215 0.0
H2975 H 0.40609 0.72457 0.353 0.0
C2976 C 0.43777 0.73653 0.37502 0.0
C2977 C 0.45624 0.75627 0.38502 0.0
C2978 C 0.39858 0.79256 0.34103 0.0
C2979 C 0.42036 0.76386 0.35571 0.0
C2980 C 0.38025 0.79607 0.32723 0.0
C2981 C 0.36457 0.77571 0.31254 0.0
C2982 C 0.40126 0.7684 0.34054 0.0
C2983 C 0.36814 0.75193 0.312 0.0
C2984 C 0.42005 0.74016 0.36033 0.0
C2985 C 0.45603 0.77966 0.37968 0.0
N2986 N 0.38588 0.74892 0.32594 0.0
N2987 N 0.43841 0.78281 0.36562 0.0
H2988 H 0.10259 0.74466 0.03089 0.0
H2989 H 0.07277 0.60977 0.06546 0.0
H2990 H 0.08546 0.73318 0.10272 0.0
H2991 H 0.07657 0.62056 0.99082 0.0
H2992 H 0.08252 0.6551 0.08057 0.0
H2993 H 0.09754 0.69976 0.01699 0.0
C2994 C 0.09775 0.73276 0.04379 0.0
C2995 C 0.09435 0.74294 0.06805 0.0
C2996 C 0.0816 0.64761 0.06091 0.0
C2997 C 0.08872 0.6911 0.05216 0.0
C2998 C 0.07631 0.62173 0.05233 0.0
C2999 C 0.07449 0.61141 0.0269 0.0
C3000 C 0.08487 0.66341 0.04393 0.0
C3001 C 0.07832 0.62777 0.01061 0.0
C3002 C 0.09488 0.70703 0.0358 0.0
C3003 C 0.08815 0.72633 0.08383 0.0
N3004 N 0.08335 0.65287 0.01936 0.0
N3005 N 0.08558 0.70136 0.07564 0.0
H3006 H 0.11078 0.27705 0.93164 0.0
H3007 H 0.14603 0.28488 0.79614 0.0
H3008 H 0.06485 0.26957 0.86736 0.0
H3009 H 0.19372 0.29869 0.86026 0.0
H3010 H 0.11633 0.2751 0.82162 0.0
H3011 H 0.14115 0.28121 0.90576 0.0
C3012 C 0.10701 0.27621 0.91207 0.0
C3013 C 0.0851 0.27311 0.90176 0.0
C3014 C 0.13325 0.28011 0.83021 0.0
C3015 C 0.12003 0.27785 0.87192 0.0
C3016 C 0.1503 0.28576 0.81564 0.0
C3017 C 0.17252 0.29308 0.82608 0.0
C3018 C 0.13819 0.28168 0.85565 0.0
C3019 C 0.1769 0.29323 0.85137 0.0
C3020 C 0.12443 0.27859 0.8973 0.0
C3021 C 0.08138 0.27202 0.87623 0.0
N3022 N 0.1599 0.28787 0.86534 0.0
N3023 N 0.09861 0.27447 0.86229 0.0
H3024 H 0.58336 0.75086 0.90173 0.0
H3025 H 0.60066 0.705 0.02749 0.0
H3026 H 0.63863 0.78684 0.95759 0.0
H3027 H 0.53697 0.69106 0.98542 0.0
H3028 H 0.61701 0.73053 0.999 0.0
H3029 H 0.56853 0.7234 0.9289 0.0
C3030 C 0.59254 0.75279 0.91958 0.0
C3031 C 0.61224 0.77125 0.92749 0.0
C3032 C 0.59943 0.72206 0.99613 0.0
C3033 C 0.59525 0.73998 0.9586 0.0
C3034 C 0.59015 0.70768 0.01238 0.0
C3035 C 0.56748 0.69658 0.00892 0.0
C3036 C 0.58595 0.72482 0.97608 0.0
C3037 C 0.55447 0.69991 0.98886 0.0
C3038 C 0.58396 0.73723 0.93512 0.0
C3039 C 0.62337 0.77292 0.95081 0.0
N3040 N 0.56393 0.71371 0.97304 0.0
N3041 N 0.61468 0.75748 0.96561 0.0
H3042 H 0.06752 0.71086 0.65999 0.0
H3043 H 0.17231 0.78218 0.75686 0.0
H3044 H 0.07339 0.7849 0.70265 0.0
H3045 H 0.14811 0.70239 0.73964 0.0
H3046 H 0.14065 0.78553 0.73023 0.0
H3047 H 0.10235 0.70998 0.68194 0.0
C3048 C 0.07626 0.72704 0.67382 0.0
C3049 C 0.06747 0.74785 0.67988 0.0
C3050 C 0.14232 0.76734 0.73239 0.0
C3051 C 0.10717 0.7469 0.70484 0.0
C3052 C 0.16028 0.7654 0.74748 0.0
C3053 C 0.16256 0.74196 0.75055 0.0
C3054 C 0.12682 0.74567 0.72011 0.0
C3055 C 0.14667 0.72078 0.73802 0.0
C3056 C 0.09604 0.72644 0.68637 0.0
C3057 C 0.0795 0.76835 0.6978 0.0
N3058 N 0.12944 0.72313 0.72324 0.0
N3059 N 0.09882 0.76735 0.70978 0.0
H3060 H 0.13184 0.37916 0.44705 0.0
H3061 H 0.09625 0.50644 0.45909 0.0
H3062 H 0.13531 0.42265 0.39055 0.0
H3063 H 0.08547 0.45928 0.51215 0.0
H3064 H 0.11889 0.4808 0.43846 0.0
H3065 H 0.12479 0.41394 0.47637 0.0
C3066 C 0.13187 0.39634 0.44106 0.0
C3067 C 0.13356 0.39798 0.41627 0.0
C3068 C 0.11177 0.47615 0.45477 0.0
C3069 C 0.12518 0.43737 0.44935 0.0
C3070 C 0.09862 0.49058 0.46634 0.0
C3071 C 0.08883 0.48469 0.48716 0.0
C3072 C 0.11485 0.45547 0.46388 0.0
C3073 C 0.09288 0.46446 0.49627 0.0
C3074 C 0.12766 0.41609 0.45773 0.0
C3075 C 0.13356 0.42057 0.40942 0.0
N3076 N 0.1054 0.4503 0.48435 0.0
N3077 N 0.12898 0.43929 0.42579 0.0
H3078 H 0.42777 0.21294 0.20582 0.0
H3079 H 0.38075 0.31804 0.23963 0.0
H3080 H 0.47375 0.28397 0.23427 0.0
H3081 H 0.35574 0.25912 0.27705 0.0
H3082 H 0.4155 0.30615 0.23849 0.0
H3083 H 0.40092 0.22663 0.23213 0.0
C3084 C 0.43246 0.23108 0.21811 0.0
C3085 C 0.45269 0.24769 0.21737 0.0
C3086 C 0.40271 0.29635 0.2478 0.0
C3087 C 0.42235 0.2632 0.24719 0.0
C3088 C 0.383 0.30362 0.24899 0.0
C3089 C 0.36588 0.2907 0.25987 0.0
C3090 C 0.40452 0.27458 0.25548 0.0
C3091 C 0.36895 0.27004 0.26917 0.0
C3092 C 0.41723 0.23877 0.23322 0.0
C3093 C 0.45803 0.2709 0.23375 0.0
N3094 N 0.3877 0.26201 0.266 0.0
N3095 N 0.4427 0.27826 0.24753 0.0
H3096 H 0.66894 0.51893 0.35799 0.0
H3097 H 0.55782 0.5068 0.42776 0.0
H3098 H 0.60384 0.51137 0.32197 0.0
H3099 H 0.62183 0.53815 0.46932 0.0
H3100 H 0.57507 0.50364 0.38949 0.0
H3101 H 0.65333 0.52123 0.39828 0.0
C3102 C 0.65141 0.51756 0.35829 0.0
C3103 C 0.63795 0.51493 0.33584 0.0
C3104 C 0.58553 0.51109 0.4069 0.0
C3105 C 0.6196 0.51745 0.3828 0.0
C3106 C 0.5755 0.51286 0.42921 0.0
C3107 C 0.58792 0.5228 0.45269 0.0
C3108 C 0.60866 0.51883 0.4072 0.0
C3109 C 0.61115 0.53033 0.45212 0.0
C3110 C 0.64245 0.51902 0.38153 0.0
C3111 C 0.61525 0.51344 0.33824 0.0
N3112 N 0.6206 0.52809 0.43011 0.0
N3113 N 0.60703 0.51458 0.36077 0.0
H3114 H 0.32537 0.93276 0.07956 0.0
H3115 H 0.35215 0.80567 0.09923 0.0
H3116 H 0.35649 0.8877 0.02798 0.0
H3117 H 0.34604 0.86333 0.16003 0.0
H3118 H 0.34554 0.83178 0.07047 0.0
H3119 H 0.32478 0.90335 0.10716 0.0
C3120 C 0.33193 0.91662 0.07404 0.0
C3121 C 0.3413 0.91272 0.05175 0.0
C3122 C 0.34553 0.8386 0.09012 0.0
C3123 C 0.34036 0.87919 0.08269 0.0
C3124 C 0.34943 0.82381 0.10651 0.0
C3125 C 0.34988 0.83245 0.13201 0.0
C3126 C 0.34203 0.86215 0.09933 0.0
C3127 C 0.34569 0.85587 0.14045 0.0
C3128 C 0.33161 0.89995 0.08972 0.0
C3129 C 0.34949 0.89156 0.04525 0.0
N3130 N 0.34204 0.87002 0.12411 0.0
N3131 N 0.34884 0.87556 0.06068 0.0
H3132 H 0.95646 0.57165 0.87326 0.0
H3133 H 0.0336 0.50308 0.93501 0.0
H3134 H 0.95389 0.49394 0.8465 0.0
H3135 H 0.04381 0.58265 0.94921 0.0
H3136 H 0.00833 0.4995 0.89814 0.0
H3137 H 0.99091 0.57623 0.89828 0.0
C3138 C 0.96314 0.55548 0.87269 0.0
C3139 C 0.95227 0.53231 0.85794 0.0
C3140 C 0.01659 0.51781 0.90882 0.0
C3141 C 0.9919 0.53752 0.88644 0.0
C3142 C 0.03105 0.5198 0.92965 0.0
C3143 C 0.04043 0.54314 0.94471 0.0
C3144 C 0.01129 0.53935 0.90375 0.0
C3145 C 0.03674 0.56439 0.93767 0.0
C3146 C 0.983 0.5582 0.88678 0.0
C3147 C 0.96176 0.51209 0.85777 0.0
N3148 N 0.022 0.56198 0.9178 0.0
N3149 N 0.98105 0.51512 0.87207 0.0
H3150 H 0.30901 0.27633 0.5802 0.0
H3151 H 0.28984 0.22571 0.70457 0.0
H3152 H 0.29064 0.19905 0.58474 0.0
H3153 H 0.3083 0.30406 0.70521 0.0
H3154 H 0.28609 0.2167 0.65961 0.0
H3155 H 0.30613 0.28797 0.62482 0.0
C3156 C 0.30432 0.26183 0.59049 0.0
C3157 C 0.30018 0.23664 0.57866 0.0
C3158 C 0.29069 0.23594 0.66936 0.0
C3159 C 0.29668 0.24982 0.6295 0.0
C3160 C 0.29267 0.24106 0.69507 0.0
C3161 C 0.29906 0.2656 0.7085 0.0
C3162 C 0.29581 0.25549 0.65676 0.0
C3163 C 0.30293 0.28486 0.6954 0.0
C3164 C 0.30263 0.2685 0.61593 0.0
C3165 C 0.29413 0.21868 0.59294 0.0
N3166 N 0.30148 0.27939 0.67013 0.0
N3167 N 0.29262 0.22563 0.61746 0.0
H3168 H 0.60118 0.49866 0.20277 0.0
H3169 H 0.62705 0.54948 0.07737 0.0
H3170 H 0.66739 0.52977 0.18847 0.0
H3171 H 0.561 0.52613 0.09593 0.0
H3172 H 0.64178 0.54287 0.1172 0.0
H3173 H 0.58672 0.50778 0.16427 0.0
C3174 C 0.61292 0.50739 0.19166 0.0
C3175 C 0.63591 0.51321 0.19972 0.0
C3176 C 0.62406 0.53935 0.11288 0.0
C3177 C 0.61869 0.52419 0.15402 0.0
C3178 C 0.6155 0.54333 0.08996 0.0
C3179 C 0.59253 0.53894 0.08282 0.0
C3180 C 0.60979 0.53015 0.12946 0.0
C3181 C 0.57876 0.53045 0.10031 0.0
C3182 C 0.60442 0.51271 0.16937 0.0
C3183 C 0.64966 0.52457 0.18362 0.0
N3184 N 0.58751 0.52623 0.12235 0.0
N3185 N 0.64094 0.52956 0.16195 0.0
H3186 H 0.38105 0.92861 0.93716 0.0
H3187 H 0.30539 0.79799 0.86716 0.0
H3188 H 0.31903 0.89284 0.9593 0.0
H3189 H 0.3636 0.83697 0.84059 0.0
H3190 H 0.31595 0.82666 0.90722 0.0
H3191 H 0.3799 0.89033 0.90724 0.0
C3192 C 0.36727 0.91268 0.93579 0.0
C3193 C 0.34985 0.91404 0.95021 0.0
C3194 C 0.3266 0.82866 0.89271 0.0
C3195 C 0.34856 0.87026 0.91649 0.0
C3196 C 0.32053 0.81226 0.86981 0.0
C3197 C 0.33289 0.81603 0.85011 0.0
C3198 C 0.34524 0.84872 0.89573 0.0
C3199 C 0.35299 0.83415 0.85497 0.0
C3200 C 0.36668 0.89081 0.91888 0.0
C3201 C 0.33253 0.89278 0.94804 0.0
N3202 N 0.3583 0.85023 0.87715 0.0
N3203 N 0.33223 0.87183 0.9313 0.0
H3204 H 0.9827 0.5752 0.78288 0.0
H3205 H 0.98548 0.48298 0.6573 0.0
H3206 H 0.92297 0.52694 0.74077 0.0
H3207 H 0.03462 0.55206 0.68223 0.0
H3208 H 0.9629 0.49671 0.6893 0.0
H3209 H 1.00302 0.56494 0.74777 0.0
C3210 C 0.97381 0.56265 0.76617 0.0
C3211 C 0.9511 0.55191 0.76474 0.0
C3212 C 0.97856 0.5089 0.68767 0.0
C3213 C 0.97431 0.53996 0.72468 0.0
C3214 C 0.99142 0.50103 0.6696 0.0
C3215 C 0.01187 0.51641 0.66756 0.0
C3216 C 0.98655 0.53203 0.70399 0.0
C3217 C 0.01893 0.53973 0.68353 0.0
C3218 C 0.98541 0.55687 0.74614 0.0
C3219 C 0.94046 0.53566 0.74265 0.0
N3220 N 0.00638 0.54676 0.70135 0.0
N3221 N 0.95222 0.52997 0.72353 0.0
H3222 H 0.32779 0.24848 0.4662 0.0
H3223 H 0.32138 0.23486 0.3202 0.0
H3224 H 0.27651 0.19612 0.41398 0.0
H3225 H 0.34273 0.30785 0.3675 0.0
H3226 H 0.31445 0.21728 0.3566 0.0
H3227 H 0.34109 0.26826 0.43208 0.0
C3228 C 0.31929 0.2412 0.44767 0.0
C3229 C 0.30102 0.2205 0.44295 0.0
C3230 C 0.3209 0.23716 0.35902 0.0
C3231 C 0.31651 0.24255 0.40405 0.0
C3232 C 0.32504 0.24727 0.33824 0.0
C3233 C 0.33209 0.27312 0.34054 0.0
C3234 C 0.32418 0.25282 0.38251 0.0
C3235 C 0.33695 0.28799 0.36463 0.0
C3236 C 0.32691 0.25248 0.42829 0.0
C3237 C 0.29065 0.21192 0.41858 0.0
N3238 N 0.33266 0.27768 0.38473 0.0
N3239 N 0.29866 0.22279 0.4001 0.0
H3240 H 0.38125 0.64098 0.55215 0.0
H3241 H 0.38993 0.50641 0.4828 0.0
H3242 H 0.32648 0.57597 0.53562 0.0
H3243 H 0.44354 0.57239 0.49682 0.0
H3244 H 0.36644 0.53119 0.50384 0.0
H3245 H 0.40547 0.61497 0.53566 0.0
C3246 C 0.37442 0.62123 0.54538 0.0
C3247 C 0.35187 0.61065 0.54497 0.0
C3248 C 0.38341 0.54015 0.5024 0.0
C3249 C 0.37909 0.58106 0.52564 0.0
C3250 C 0.39665 0.52608 0.49021 0.0
C3251 C 0.41865 0.53735 0.48852 0.0
C3252 C 0.39242 0.56549 0.51279 0.0
C3253 C 0.42672 0.5629 0.4983 0.0
C3254 C 0.38815 0.60642 0.53583 0.0
C3255 C 0.34379 0.58493 0.53618 0.0
N3256 N 0.41363 0.57609 0.51017 0.0
N3257 N 0.35737 0.57105 0.52654 0.0
H3258 H 0.89 0.92774 0.52087 0.0
H3259 H 0.99786 0.03588 0.57796 0.0
H3260 H 0.8971 0.96991 0.59585 0.0
H3261 H 0.9942 0.97956 0.51207 0.0
H3262 H 0.96047 0.01448 0.58436 0.0
H3263 H 0.92751 0.94919 0.51665 0.0
C3264 C 0.89944 0.94155 0.5365 0.0
C3265 C 0.89029 0.94701 0.55876 0.0
C3266 C 0.96797 1.00685 0.56856 0.0
C3267 C 0.93356 0.97186 0.55398 0.0
C3268 C 0.98927 0.01912 0.56483 0.0
C3269 C 0.99921 0.00978 0.54424 0.0
C3270 C 0.95651 0.98518 0.55153 0.0
C3271 C 0.98732 0.98773 0.52808 0.0
C3272 C 0.92095 0.95377 0.53408 0.0
C3273 C 0.90346 0.96508 0.57835 0.0
N3274 N 0.96667 0.97635 0.532 0.0
N3275 N 0.9244 0.97695 0.57547 0.0
H3276 H 0.9101 0.16567 0.31951 0.0
H3277 H 0.83463 0.21982 0.22917 0.0
H3278 H 0.88615 0.12625 0.24471 0.0
H3279 H 0.84352 0.24551 0.3082 0.0
H3280 H 0.85385 0.18711 0.23383 0.0
H3281 H 0.88776 0.19535 0.31505 0.0
C3282 C 0.90014 0.16291 0.30199 0.0
C3283 C 0.90051 0.14255 0.28258 0.0
C3284 C 0.85153 0.19963 0.25029 0.0
C3285 C 0.87403 0.17826 0.27718 0.0
C3286 C 0.84033 0.21853 0.24768 0.0
C3287 C 0.8367 0.23583 0.26825 0.0
C3288 C 0.8603 0.19771 0.27381 0.0
C3289 C 0.84519 0.23277 0.29159 0.0
C3290 C 0.88715 0.18024 0.29953 0.0
C3291 C 0.8868 0.14107 0.26051 0.0
N3292 N 0.85656 0.2146 0.2936 0.0
N3293 N 0.87453 0.15848 0.25846 0.0
H3294 H 0.72423 0.06961 0.07384 0.0
H3295 H 0.62359 0.10701 0.01833 0.0
H3296 H 0.72912 0.0961 0.00562 0.0
H3297 H 0.61443 0.03378 0.03393 0.0
H3298 H 0.66358 0.10992 0.02021 0.0
H3299 H 0.68382 0.0614 0.06623 0.0
C3300 C 0.7168 0.07327 0.05713 0.0
C3301 C 0.72994 0.08364 0.04044 0.0
C3302 C 0.65255 0.09336 0.02348 0.0
C3303 C 0.68439 0.07537 0.03232 0.0
C3304 C 0.6299 0.09178 0.02269 0.0
C3305 C 0.61555 0.07045 0.02706 0.0
C3306 C 0.66072 0.07372 0.02926 0.0
C3307 C 0.62457 0.0509 0.03156 0.0
C3308 C 0.69391 0.06871 0.05288 0.0
C3309 C 0.71957 0.08813 0.01901 0.0
N3310 N 0.6466 0.05315 0.03309 0.0
N3311 N 0.69731 0.08448 0.0158 0.0
H3312 H 0.20535 0.46823 0.26547 0.0
H3313 H 0.32683 0.44756 0.26635 0.0
H3314 H 0.24225 0.47143 0.20253 0.0
H3315 H 0.29533 0.4641 0.33228 0.0
H3316 H 0.2962 0.45544 0.24189 0.0
H3317 H 0.23715 0.46176 0.28891 0.0
C3318 C 0.21983 0.46642 0.25624 0.0
C3319 C 0.22129 0.47021 0.23206 0.0
C3320 C 0.29626 0.45803 0.26179 0.0
C3321 C 0.25786 0.4639 0.25895 0.0
C3322 C 0.31392 0.45406 0.27576 0.0
C3323 C 0.31352 0.45544 0.30126 0.0
C3324 C 0.27812 0.46314 0.27352 0.0
C3325 C 0.29626 0.46319 0.31266 0.0
C3326 C 0.23816 0.4634 0.26981 0.0
C3327 C 0.24059 0.46842 0.22114 0.0
N3328 N 0.27893 0.46632 0.2986 0.0
N3329 N 0.2583 0.46563 0.23479 0.0
H3330 H 0.2771 0.42792 0.99975 0.0
H3331 H 0.1818 0.49403 0.04124 0.0
H3332 H 0.25185 0.42688 0.07038 0.0
H3333 H 0.19711 0.4785 0.96584 0.0
H3334 H 0.20691 0.4694 0.05261 0.0
H3335 H 0.24807 0.44711 0.98748 0.0
C3336 C 0.26546 0.43175 0.01271 0.0
C3337 C 0.26699 0.42591 0.03619 0.0
C3338 C 0.2046 0.47118 0.03354 0.0
C3339 C 0.23363 0.44792 0.02221 0.0
C3340 C 0.19018 0.48513 0.027 0.0
C3341 C 0.18756 0.48857 1.00261 0.0
C3342 C 0.21656 0.46073 0.01557 0.0
C3343 C 0.199 0.4768 0.98498 0.0
C3344 C 0.24879 0.44259 0.00563 0.0
C3345 C 0.25131 0.43114 0.05212 0.0
N3346 N 0.21313 0.4636 0.99185 0.0
N3347 N 0.23535 0.44202 0.0449 0.0
H3348 H 0.8772 1.0033 0.28339 0.0
H3349 H 0.86695 0.85494 0.24532 0.0
H3350 H 0.92131 0.97011 0.23931 0.0
H3351 H 0.81495 0.88448 0.2769 0.0
H3352 H 0.88742 0.89734 0.24479 0.0
H3353 H 0.85473 0.96107 0.28314 0.0
C3354 C 0.88216 0.98732 0.27351 0.0
C3355 C 0.90143 0.99077 0.26134 0.0
C3356 C 0.87146 0.89466 0.25173 0.0
C3357 C 0.87558 0.9418 0.26111 0.0
C3358 C 0.85966 0.87025 0.25201 0.0
C3359 C 0.83876 0.86559 0.26073 0.0
C3360 C 0.86278 0.91521 0.26076 0.0
C3361 C 0.83057 0.88669 0.26935 0.0
C3362 C 0.86928 0.96307 0.27341 0.0
C3363 C 0.90682 0.96889 0.2491 0.0
N3364 N 0.84253 0.91032 0.26929 0.0
N3365 N 0.89419 0.94576 0.24938 0.0
H3366 H 0.77661 0.10004 0.72042 0.0
H3367 H 0.75197 0.22648 0.78424 0.0
H3368 H 0.71473 0.1126 0.74301 0.0
H3369 H 0.81463 0.22401 0.75717 0.0
H3370 H 0.74447 0.18253 0.7828 0.0
H3371 H 0.79522 0.14285 0.74252 0.0
C3372 C 0.76709 0.11179 0.73019 0.0
C3373 C 0.74416 0.10339 0.72952 0.0
C3374 C 0.75972 0.19139 0.77655 0.0
C3375 C 0.76505 0.15092 0.7555 0.0
C3376 C 0.76396 0.21656 0.77722 0.0
C3377 C 0.78297 0.22845 0.76822 0.0
C3378 C 0.77381 0.17768 0.76527 0.0
C3379 C 0.7987 0.21495 0.76153 0.0
C3380 C 0.77766 0.1359 0.74297 0.0
C3381 C 0.73238 0.11868 0.74271 0.0
N3382 N 0.79336 0.18985 0.759 0.0
N3383 N 0.74297 0.14167 0.75514 0.0
loop_
_geom_bond_atom_site_label_1
_geom_bond_atom_site_label_2
_geom_bond_distance
_geom_bond_site_symmetry_2
_ccdc_geom_bond_type
C0 O1 1.160 . S
C0 O7 1.185 . S
O1 C0 1.160 . S
O2 Zn3 1.899 . S
O2 C10 1.284 . S
Zn3 O2 1.899 . S
Zn3 O4 2.032 . S
Zn3 O7 2.086 . S
Zn3 O12 1.977 . S
O4 Zn3 2.032 . S
O4 C8 1.278 . S
C5 O6 1.203 . S
C5 O12 1.267 . S
O6 C5 1.203 . S
O7 C0 1.185 . S
O7 Zn3 2.086 . S
C8 O4 1.278 . S
C8 O9 1.211 . S
O9 C8 1.211 . S
C10 O2 1.284 . S
C10 O11 1.273 . S
O11 C10 1.273 . S
O12 Zn3 1.977 . S
O12 C5 1.267 . S
C13 O14 1.160 . S
C13 O20 1.185 . S
O14 C13 1.160 . S
O15 Zn16 1.899 . S
O15 C23 1.284 . S
Zn16 O15 1.899 . S
Zn16 O17 2.032 . S
Zn16 O20 2.086 . S
Zn16 O25 1.977 1_655 S
O17 Zn16 2.032 . S
O17 C21 1.278 1_655 S
C18 O19 1.203 . S
C18 O25 1.267 . S
O19 C18 1.203 . S
O20 C13 1.185 . S
O20 Zn16 2.086 . S
C21 O17 1.278 1_455 S
C21 O22 1.211 . S
O22 C21 1.211 . S
C23 O15 1.284 . S
C23 O24 1.273 1_655 S
O24 C23 1.273 1_455 S
O25 Zn16 1.977 1_455 S
O25 C18 1.267 . S
C26 O27 1.160 . S
C26 O33 1.185 . S
O27 C26 1.160 . S
O28 Zn29 1.899 . S
O28 C36 1.284 . S
Zn29 O28 1.899 . S
Zn29 O30 2.032 . S
Zn29 O33 2.086 . S
Zn29 O38 1.977 . S
O30 Zn29 2.032 . S
O30 C34 1.278 . S
C31 O32 1.203 . S
C31 O38 1.267 . S
O32 C31 1.203 . S
O33 C26 1.185 . S
O33 Zn29 2.086 . S
C34 O30 1.278 . S
C34 O35 1.211 . S
O35 C34 1.211 . S
C36 O28 1.284 . S
C36 O37 1.273 . S
O37 C36 1.273 . S
O38 Zn29 1.977 . S
O38 C31 1.267 . S
C39 O40 1.160 . S
C39 O46 1.185 . S
O40 C39 1.160 . S
O41 Zn42 1.899 . S
O41 C49 1.284 . S
Zn42 O41 1.899 . S
Zn42 O43 2.032 . S
Zn42 O46 2.086 . S
Zn42 O51 1.977 . S
O43 Zn42 2.032 . S
O43 C47 1.278 . S
C44 O45 1.203 . S
C44 O51 1.267 . S
O45 C44 1.203 . S
O46 C39 1.185 . S
O46 Zn42 2.086 . S
C47 O43 1.278 . S
C47 O48 1.211 . S
O48 C47 1.211 . S
C49 O41 1.284 . S
C49 O50 1.273 . S
O50 C49 1.273 . S
O51 Zn42 1.977 . S
O51 C44 1.267 . S
C52 O53 1.160 . S
C52 O59 1.185 . S
O53 C52 1.160 . S
O54 Zn55 1.899 . S
O54 C62 1.284 . S
Zn55 O54 1.899 . S
Zn55 O56 2.032 . S
Zn55 O59 2.086 . S
Zn55 O64 1.977 . S
O56 Zn55 2.032 . S
O56 C60 1.278 . S
C57 O58 1.203 . S
C57 O64 1.267 . S
O58 C57 1.203 . S
O59 C52 1.185 . S
O59 Zn55 2.086 . S
C60 O56 1.278 . S
C60 O61 1.211 . S
O61 C60 1.211 . S
C62 O54 1.284 . S
C62 O63 1.273 . S
O63 C62 1.273 . S
O64 Zn55 1.977 . S
O64 C57 1.267 . S
C65 O66 1.160 . S
C65 O72 1.185 . S
O66 C65 1.160 . S
O67 Zn68 1.899 . S
O67 C75 1.284 . S
Zn68 O67 1.899 . S
Zn68 O69 2.032 . S
Zn68 O72 2.086 . S
Zn68 O77 1.977 . S
O69 Zn68 2.032 . S
O69 C73 1.278 . S
C70 O71 1.203 . S
C70 O77 1.267 . S
O71 C70 1.203 . S
O72 C65 1.185 . S
O72 Zn68 2.086 . S
C73 O69 1.278 . S
C73 O74 1.211 . S
O74 C73 1.211 . S
C75 O67 1.284 . S
C75 O76 1.273 . S
O76 C75 1.273 . S
O77 Zn68 1.977 . S
O77 C70 1.267 . S
C78 O79 1.160 . S
C78 O85 1.185 . S
O79 C78 1.160 . S
O80 Zn81 1.899 . S
O80 C88 1.284 . S
Zn81 O80 1.899 . S
Zn81 O82 2.032 . S
Zn81 O85 2.086 . S
Zn81 O90 1.977 . S
O82 Zn81 2.032 . S
O82 C86 1.278 . S
C83 O84 1.203 . S
C83 O90 1.267 . S
O84 C83 1.203 . S
O85 C78 1.185 . S
O85 Zn81 2.086 . S
C86 O82 1.278 . S
C86 O87 1.211 . S
O87 C86 1.211 . S
C88 O80 1.284 . S
C88 O89 1.273 . S
O89 C88 1.273 . S
O90 Zn81 1.977 . S
O90 C83 1.267 . S
C91 O92 1.160 . S
C91 O98 1.185 . S
O92 C91 1.160 . S
O93 Zn94 1.899 . S
O93 C101 1.284 . S
Zn94 O93 1.899 . S
Zn94 O95 2.032 . S
Zn94 O98 2.086 . S
Zn94 O103 1.977 1_455 S
O95 Zn94 2.032 . S
O95 C99 1.278 . S
C96 O97 1.203 . S
C96 O103 1.267 . S
O97 C96 1.203 . S
O98 C91 1.185 . S
O98 Zn94 2.086 . S
C99 O95 1.278 . S
C99 O100 1.211 . S
O100 C99 1.211 . S
C101 O93 1.284 . S
C101 O102 1.273 . S
O102 C101 1.273 . S
O103 Zn94 1.977 1_655 S
O103 C96 1.267 . S
C104 O105 1.160 . S
C104 O111 1.185 . S
O105 C104 1.160 . S
O106 Zn107 1.899 . S
O106 C114 1.284 . S
Zn107 O106 1.899 . S
Zn107 O108 2.032 . S
Zn107 O111 2.086 . S
Zn107 O116 1.977 1_545 S
O108 Zn107 2.032 . S
O108 C112 1.278 . S
C109 O110 1.203 . S
C109 O116 1.267 . S
O110 C109 1.203 . S
O111 C104 1.185 . S
O111 Zn107 2.086 . S
C112 O108 1.278 . S
C112 O113 1.187 1_545 S
O113 C112 1.187 1_565 S
C114 O106 1.284 . S
C114 O115 1.273 . S
O115 C114 1.273 . S
O116 Zn107 1.977 1_565 S
O116 C109 1.267 . S
C117 O118 1.160 . S
C117 O124 1.185 . S
O118 C117 1.160 . S
O119 Zn120 1.899 . S
O119 C127 1.284 . S
Zn120 O119 1.899 . S
Zn120 O121 2.032 . S
Zn120 O124 2.086 . S
Zn120 O129 1.977 . S
O121 Zn120 2.032 . S
O121 C125 1.278 . S
C122 O123 1.203 . S
C122 O129 1.267 . S
O123 C122 1.203 . S
O124 C117 1.185 . S
O124 Zn120 2.086 . S
C125 O121 1.278 . S
C125 O126 1.211 . S
O126 C125 1.211 . S
C127 O119 1.284 . S
C127 O128 1.273 . S
O128 C127 1.273 . S
O129 Zn120 1.977 . S
O129 C122 1.267 . S
C130 O131 1.160 . S
C130 O137 1.185 . S
O131 C130 1.160 . S
O132 Zn133 1.899 . S
O132 C140 1.284 . S
Zn133 O132 1.899 . S
Zn133 O134 2.032 . S
Zn133 O137 2.086 . S
Zn133 O142 1.977 1_565 S
O134 Zn133 2.032 . S
O134 C138 1.278 1_565 S
C135 O136 1.203 . S
C135 O142 1.267 . S
O136 C135 1.203 . S
O137 C130 1.185 . S
O137 Zn133 2.086 . S
C138 O134 1.278 1_545 S
C138 O139 1.211 . S
O139 C138 1.211 . S
C140 O132 1.284 . S
C140 O141 1.273 1_565 S
O141 C140 1.273 1_545 S
O142 Zn133 1.977 1_545 S
O142 C135 1.267 . S
C143 O144 1.160 . S
C143 O150 1.185 . S
O144 C143 1.160 . S
O145 Zn146 1.899 . S
O145 C153 1.284 . S
Zn146 O145 1.899 . S
Zn146 O147 2.032 1_554 S
Zn146 O150 2.086 . S
Zn146 O155 1.977 . S
O147 Zn146 2.032 1_556 S
O147 C151 1.278 . S
C148 O149 1.203 . S
C148 O155 1.267 . S
O149 C148 1.203 . S
O150 C143 1.185 . S
O150 Zn146 2.086 . S
C151 O147 1.278 . S
C151 O152 1.211 . S
O152 C151 1.211 . S
C153 O145 1.284 . S
C153 O154 1.273 . S
O154 C153 1.273 . S
O155 Zn146 1.977 . S
O155 C148 1.267 . S
C156 O157 1.160 . S
C156 O163 1.185 . S
O157 C156 1.160 . S
O158 Zn159 1.899 . S
O158 C166 1.284 . S
Zn159 O158 1.899 . S
Zn159 O160 2.032 . S
Zn159 O163 2.086 . S
Zn159 O168 1.977 . S
O160 Zn159 2.032 . S
O160 C164 1.278 1_554 S
C161 O162 1.203 . S
C161 O168 1.267 . S
O162 C161 1.203 . S
O163 C156 1.185 . S
O163 Zn159 2.086 . S
C164 O160 1.278 1_556 S
C164 O165 1.209 1_556 S
O165 C164 1.209 1_554 S
C166 O158 1.284 . S
C166 O167 1.273 . S
O167 C166 1.273 . S
O168 Zn159 1.977 . S
O168 C161 1.267 . S
C169 O170 1.160 . S
C169 O176 1.185 . S
O170 C169 1.160 . S
O171 Zn172 1.899 . S
O171 C179 1.284 . S
Zn172 O171 1.899 . S
Zn172 O173 2.032 . S
Zn172 O176 2.086 . S
Zn172 O181 1.977 . S
O173 Zn172 2.032 . S
O173 C177 1.278 1_554 S
C174 O175 1.203 . S
C174 O181 1.267 . S
O175 C174 1.203 . S
O176 C169 1.185 . S
O176 Zn172 2.086 . S
C177 O173 1.278 1_556 S
C177 O178 1.211 . S
O178 C177 1.211 . S
C179 O171 1.284 . S
C179 O180 1.273 . S
O180 C179 1.273 . S
O181 Zn172 1.977 . S
O181 C174 1.267 . S
C182 O183 1.160 . S
C182 O189 1.185 . S
O183 C182 1.160 . S
O184 Zn185 1.899 . S
O184 C192 1.284 . S
Zn185 O184 1.899 . S
Zn185 O186 2.032 . S
Zn185 O189 2.086 . S
Zn185 O194 1.977 . S
O186 Zn185 2.032 . S
O186 C190 1.278 . S
C187 O188 1.203 . S
C187 O194 1.267 . S
O188 C187 1.203 . S
O189 C182 1.185 . S
O189 Zn185 2.086 . S
C190 O186 1.278 . S
C190 O191 1.211 . S
O191 C190 1.211 . S
C192 O184 1.284 . S
C192 O193 1.273 . S
O193 C192 1.273 . S
O194 Zn185 1.977 . S
O194 C187 1.267 . S
C195 O196 1.160 . S
C195 O202 1.185 . S
O196 C195 1.160 . S
O197 Zn198 1.899 . S
O197 C205 1.284 . S
Zn198 O197 1.899 . S
Zn198 O199 2.032 . S
Zn198 O202 2.086 . S
Zn198 O207 1.977 . S
O199 Zn198 2.032 . S
O199 C203 1.278 . S
C200 O201 1.203 . S
C200 O207 1.267 . S
O201 C200 1.203 . S
O202 C195 1.185 . S
O202 Zn198 2.086 . S
C203 O199 1.278 . S
C203 O204 1.211 . S
O204 C203 1.211 . S
C205 O197 1.284 . S
C205 O206 1.273 . S
O206 C205 1.273 . S
O207 Zn198 1.977 . S
O207 C200 1.267 . S
C208 O209 1.160 . S
C208 O215 1.185 . S
O209 C208 1.160 . S
O210 Zn211 1.899 . S
O210 C218 1.284 . S
Zn211 O210 1.899 . S
Zn211 O212 2.032 . S
Zn211 O215 2.086 . S
Zn211 O220 1.977 . S
O212 Zn211 2.032 . S
O212 C216 1.278 . S
C213 O214 1.203 . S
C213 O220 1.267 . S
O214 C213 1.203 . S
O215 C208 1.185 . S
O215 Zn211 2.086 . S
C216 O212 1.278 . S
C216 O217 1.211 . S
O217 C216 1.211 . S
C218 O210 1.284 . S
C218 O219 1.273 . S
O219 C218 1.273 . S
O220 Zn211 1.977 . S
O220 C213 1.267 . S
C221 O222 1.160 . S
C221 O228 1.185 . S
O222 C221 1.160 . S
O223 Zn224 1.899 . S
O223 C231 1.284 . S
Zn224 O223 1.899 . S
Zn224 O225 2.032 . S
Zn224 O228 2.086 . S
Zn224 O233 1.977 . S
O225 Zn224 2.032 . S
O225 C229 1.278 . S
C226 O227 1.203 . S
C226 O233 1.267 . S
O227 C226 1.203 . S
O228 C221 1.185 . S
O228 Zn224 2.086 . S
C229 O225 1.278 . S
C229 O230 1.211 . S
O230 C229 1.211 . S
C231 O223 1.284 . S
C231 O232 1.273 . S
O232 C231 1.273 . S
O233 Zn224 1.977 . S
O233 C226 1.267 . S
C234 O235 1.160 . S
C234 O241 1.185 . S
O235 C234 1.160 . S
O236 Zn237 1.899 . S
O236 C244 1.284 . S
Zn237 O236 1.899 . S
Zn237 O238 2.032 . S
Zn237 O241 2.086 . S
Zn237 O246 1.977 . S
O238 Zn237 2.032 . S
O238 C242 1.278 . S
C239 O240 1.203 . S
C239 O246 1.267 . S
O240 C239 1.203 . S
O241 C234 1.185 . S
O241 Zn237 2.086 . S
C242 O238 1.278 . S
C242 O243 1.211 . S
O243 C242 1.211 . S
C244 O236 1.284 . S
C244 O245 1.273 . S
O245 C244 1.273 . S
O246 Zn237 1.977 . S
O246 C239 1.267 . S
C247 O248 1.160 1_545 S
C247 O254 1.185 . S
O248 C247 1.160 1_565 S
O249 Zn250 1.899 . S
O249 C257 1.284 . S
Zn250 O249 1.899 . S
Zn250 O251 2.032 . S
Zn250 O254 2.086 . S
Zn250 O259 1.977 . S
O251 Zn250 2.032 . S
O251 C255 1.278 . S
C252 O253 1.203 . S
C252 O259 1.267 . S
O253 C252 1.203 . S
O254 C247 1.185 . S
O254 Zn250 2.086 . S
C255 O251 1.278 . S
C255 O256 1.211 . S
O256 C255 1.211 . S
C257 O249 1.284 . S
C257 O258 1.273 . S
O258 C257 1.273 . S
O259 Zn250 1.977 . S
O259 C252 1.267 . S
C260 O261 1.160 . S
C260 O267 1.185 1_554 S
O261 C260 1.160 . S
O262 Zn263 1.899 . S
O262 C270 1.284 . S
Zn263 O262 1.899 . S
Zn263 O264 2.032 1_554 S
Zn263 O267 2.086 1_554 S
Zn263 O272 1.977 1_554 S
O264 Zn263 2.032 1_556 S
O264 C268 1.278 . S
C265 O266 1.203 1_556 S
C265 O272 1.267 . S
O266 C265 1.203 1_554 S
O267 C260 1.185 1_556 S
O267 Zn263 2.086 1_556 S
C268 O264 1.278 . S
C268 O269 1.211 . S
O269 C268 1.211 . S
C270 O262 1.284 . S
C270 O271 1.273 . S
O271 C270 1.273 . S
O272 Zn263 1.977 1_556 S
O272 C265 1.267 . S
C273 O274 1.160 . S
C273 O280 1.185 . S
O274 C273 1.160 . S
O275 Zn276 1.899 . S
O275 C283 1.284 . S
Zn276 O275 1.899 . S
Zn276 O277 2.032 . S
Zn276 O280 2.086 . S
Zn276 O285 1.977 . S
O277 Zn276 2.032 . S
O277 C281 1.278 . S
C278 O279 1.203 . S
C278 O285 1.267 . S
O279 C278 1.203 . S
O280 C273 1.185 . S
O280 Zn276 2.086 . S
C281 O277 1.278 . S
C281 O282 1.211 . S
O282 C281 1.211 . S
C283 O275 1.284 . S
C283 O284 1.273 . S
O284 C283 1.273 . S
O285 Zn276 1.977 . S
O285 C278 1.267 . S
C286 O287 1.160 . S
C286 O293 1.185 . S
O287 C286 1.160 . S
O288 Zn289 1.899 . S
O288 C296 1.284 . S
Zn289 O288 1.899 . S
Zn289 O290 2.032 . S
Zn289 O293 2.086 . S
Zn289 O298 1.977 . S
O290 Zn289 2.032 . S
O290 C294 1.278 . S
C291 O292 1.203 . S
C291 O298 1.267 . S
O292 C291 1.203 . S
O293 C286 1.185 . S
O293 Zn289 2.086 . S
C294 O290 1.278 . S
C294 O295 1.211 . S
O295 C294 1.211 . S
C296 O288 1.284 . S
C296 O297 1.273 . S
O297 C296 1.273 . S
O298 Zn289 1.977 . S
O298 C291 1.267 . S
C299 O300 1.160 . S
C299 O306 1.185 . S
O300 C299 1.160 . S
O301 Zn302 1.899 . S
O301 C309 1.284 . S
Zn302 O301 1.899 . S
Zn302 O303 2.032 . S
Zn302 O306 2.086 . S
Zn302 O311 1.977 . S
O303 Zn302 2.032 . S
O303 C307 1.278 . S
C304 O305 1.203 . S
C304 O311 1.267 . S
O305 C304 1.203 . S
O306 C299 1.185 . S
O306 Zn302 2.086 . S
C307 O303 1.278 . S
C307 O308 1.211 . S
O308 C307 1.211 . S
C309 O301 1.284 . S
C309 O310 1.273 . S
O310 C309 1.273 . S
O311 Zn302 1.977 . S
O311 C304 1.267 . S
Tb312 N343 2.638 1_546 S
Tb312 N350 2.618 1_545 S
Tb312 O356 2.570 1_455 S
Tb312 O357 2.605 1_556 S
Tb312 O359 2.284 1_556 S
Tb312 O360 2.562 . S
Tb312 O361 2.405 1_456 S
Tb312 O363 2.348 1_556 S
Tb312 O364 2.450 . S
Tb312 C376 2.842 1_455 S
C313 C316 1.432 . S
C313 C317 1.414 . S
C313 N320 1.359 . S
C314 C316 1.417 . S
C314 C318 1.432 . S
C314 C326 1.410 1_554 S
C315 C317 1.444 . S
C315 C318 1.317 . S
C315 H338 0.929 . S
C316 C313 1.432 . S
C316 C314 1.417 . S
C316 N324 1.360 . S
C317 C313 1.414 . S
C317 C315 1.444 . S
C317 C322 1.385 . S
C318 C314 1.432 . S
C318 C315 1.317 . S
C318 H330 0.930 . S
C319 C321 1.392 . S
C319 C322 1.370 . S
C319 H331 0.931 . S
N320 C313 1.359 . S
N320 C321 1.327 . S
N320 Tb323 2.600 . S
C321 C319 1.392 . S
C321 N320 1.327 . S
C321 H328 0.930 . S
C322 C317 1.385 . S
C322 C319 1.370 . S
C322 H341 0.930 . S
Tb323 N320 2.600 . S
Tb323 N324 2.660 . S
Tb323 O357 2.362 . S
Tb323 O358 2.421 . S
Tb323 O362 2.546 . S
Tb323 O363 2.610 . S
Tb323 O365 2.320 1_554 S
Tb323 O366 2.552 . S
Tb323 O367 2.413 . S
Tb323 C387 2.833 . S
N324 C316 1.360 . S
N324 Tb323 2.660 . S
N324 C325 1.305 1_554 S
C325 N324 1.305 1_556 S
C325 C327 1.407 . S
C325 H332 0.930 . S
C326 C314 1.410 1_556 S
C326 C327 1.345 . S
C326 H334 0.930 . S
C327 C325 1.407 . S
C327 C326 1.345 . S
C327 H329 0.930 . S
H328 C321 0.930 . S
H329 C327 0.930 . S
H330 C318 0.930 . S
H331 C319 0.931 . S
H332 C325 0.930 . S
H333 C347 0.929 . S
H334 C326 0.930 . S
H335 C353 0.930 . S
H336 C344 0.930 . S
H337 C351 0.931 . S
H338 C315 0.929 . S
H339 C345 0.930 . S
H340 C378 0.930 . S
H341 C322 0.930 . S
H342 C377 0.929 . S
N343 Tb312 2.638 1_564 S
N343 C344 1.305 . S
N343 C348 1.360 1_455 S
C344 H336 0.930 . S
C344 N343 1.305 . S
C344 C347 1.407 1_455 S
C345 H339 0.930 . S
C345 C346 1.410 . S
C345 C347 1.345 . S
C346 C345 1.410 . S
C346 C348 1.417 . S
C346 C378 1.432 1_554 S
C347 H333 0.929 . S
C347 C344 1.407 1_655 S
C347 C345 1.345 . S
C348 N343 1.360 1_655 S
C348 C346 1.417 . S
C348 C352 1.432 1_554 S
H349 C354 0.930 . S
N350 Tb312 2.618 1_565 S
N350 C352 1.359 1_455 S
N350 C353 1.327 . S
C351 H337 0.931 . S
C351 C353 1.392 1_655 S
C351 C354 1.370 . S
C352 C348 1.432 1_556 S
C352 N350 1.359 1_655 S
C352 C355 1.414 . S
C353 H335 0.930 . S
C353 N350 1.327 . S
C353 C351 1.392 1_455 S
C354 H349 0.930 . S
C354 C351 1.370 . S
C354 C355 1.385 . S
C355 C352 1.414 . S
C355 C354 1.385 . S
C355 C377 1.444 . S
O356 Tb312 2.570 1_655 S
O356 C376 1.251 . S
O357 Tb312 2.605 1_554 S
O357 Tb323 2.362 . S
O357 C368 1.283 . S
O358 Tb323 2.421 . S
O358 C375 1.262 . S
O359 Tb312 2.284 1_554 S
O359 C375 1.260 . S
O360 Tb312 2.562 . S
O360 C368 1.243 1_556 S
O361 Tb312 2.405 1_654 S
O361 C376 1.256 1_554 S
O362 Tb323 2.546 . S
O362 C387 1.251 . S
O363 Tb312 2.348 1_554 S
O363 Tb323 2.610 . S
O363 C379 1.283 1_545 S
O364 Tb312 2.450 . S
O364 C386 1.262 . S
O365 Tb323 2.320 1_556 S
O365 C386 1.260 . S
O366 Tb323 2.552 . S
O366 C379 1.243 1_545 S
O367 Tb323 2.413 . S
O367 C387 1.256 . S
C368 O357 1.283 . S
C368 O360 1.243 1_554 S
C369 C371 1.382 . S
C369 C373 1.393 . S
C369 C376 1.500 . S
C370 C371 1.400 . S
C370 C372 1.384 . S
C371 C369 1.382 . S
C371 C370 1.400 . S
C371 H388 0.930 1_556 S
C372 C370 1.384 . S
C372 C374 1.392 . S
C372 H389 0.931 . S
C373 C369 1.393 . S
C373 C374 1.401 . S
C373 H390 0.930 . S
C374 C372 1.392 . S
C374 C373 1.401 . S
C374 H391 0.930 . S
C375 O358 1.262 . S
C375 O359 1.260 . S
C376 Tb312 2.842 1_655 S
C376 O356 1.251 . S
C376 O361 1.256 1_556 S
C376 C369 1.500 . S
C377 H342 0.929 . S
C377 C355 1.444 . S
C377 C378 1.317 . S
C378 H340 0.930 . S
C378 C346 1.432 1_556 S
C378 C377 1.317 . S
C379 O363 1.283 1_565 S
C379 O366 1.243 1_565 S
C380 C381 1.382 . S
C380 C384 1.393 . S
C380 C387 1.500 . S
C381 C380 1.382 . S
C381 C382 1.400 . S
C381 H392 0.930 . S
C382 C381 1.400 . S
C382 C383 1.384 . S
C383 C382 1.384 . S
C383 C385 1.392 . S
C383 H393 0.931 . S
C384 C380 1.393 . S
C384 C385 1.401 . S
C384 H394 0.930 . S
C385 C383 1.392 . S
C385 C384 1.401 . S
C385 H395 0.930 . S
C386 O364 1.262 . S
C386 O365 1.260 . S
C387 Tb323 2.833 . S
C387 O362 1.251 . S
C387 O367 1.256 . S
C387 C380 1.500 . S
H388 C371 0.930 1_554 S
H389 C372 0.931 . S
H390 C373 0.930 . S
H391 C374 0.930 . S
H392 C381 0.930 . S
H393 C383 0.931 . S
H394 C384 0.930 . S
H395 C385 0.930 . S
Tb396 N427 2.660 . S
Tb396 N434 2.600 . S
Tb396 O440 2.546 . S
Tb396 O441 2.610 . S
Tb396 O443 2.320 . S
Tb396 O444 2.552 . S
Tb396 O445 2.413 . S
Tb396 O447 2.362 . S
Tb396 O448 2.421 . S
Tb396 C460 2.833 . S
C397 C400 1.432 . S
C397 C401 1.414 . S
C397 N404 1.359 . S
C398 C400 1.417 . S
C398 C402 1.432 . S
C398 C410 1.410 . S
C399 C401 1.444 . S
C399 C402 1.317 . S
C399 H422 0.929 . S
C400 C397 1.432 . S
C400 C398 1.417 . S
C400 N408 1.360 . S
C401 C397 1.414 . S
C401 C399 1.444 . S
C401 C406 1.385 . S
C402 C398 1.432 . S
C402 C399 1.317 . S
C402 H414 0.930 . S
C403 C405 1.392 . S
C403 C406 1.370 . S
C403 H415 0.931 . S
N404 C397 1.359 . S
N404 C405 1.327 . S
N404 Tb407 2.600 . S
C405 C403 1.392 . S
C405 N404 1.327 . S
C405 H412 0.930 . S
C406 C401 1.385 . S
C406 C403 1.370 . S
C406 H425 0.930 . S
Tb407 N404 2.600 . S
Tb407 N408 2.660 . S
Tb407 O441 2.362 . S
Tb407 O442 2.421 . S
Tb407 O446 2.546 . S
Tb407 O447 2.610 . S
Tb407 O449 2.320 . S
Tb407 O450 2.552 . S
Tb407 O451 2.413 . S
Tb407 C471 2.833 . S
N408 C400 1.360 . S
N408 Tb407 2.660 . S
N408 C409 1.305 . S
C409 N408 1.305 . S
C409 C411 1.407 . S
C409 H416 0.930 . S
C410 C398 1.410 . S
C410 C411 1.345 . S
C410 H418 0.930 . S
C411 C409 1.407 . S
C411 C410 1.345 . S
C411 H413 0.930 . S
H412 C405 0.930 . S
H413 C411 0.930 . S
H414 C402 0.930 . S
H415 C403 0.931 . S
H416 C409 0.930 . S
H417 C431 0.930 . S
H418 C410 0.930 . S
H419 C437 0.930 . S
H420 C428 0.930 . S
H421 C435 0.931 . S
H422 C399 0.929 . S
H423 C429 0.930 . S
H424 C462 0.930 . S
H425 C406 0.930 . S
H426 C461 0.929 . S
N427 Tb396 2.660 . S
N427 C428 1.305 . S
N427 C432 1.360 . S
C428 H420 0.930 . S
C428 N427 1.305 . S
C428 C431 1.407 . S
C429 H423 0.930 . S
C429 C430 1.410 . S
C429 C431 1.345 . S
C430 C429 1.410 . S
C430 C432 1.417 . S
C430 C462 1.432 . S
C431 H417 0.930 . S
C431 C428 1.407 . S
C431 C429 1.345 . S
C432 N427 1.360 . S
C432 C430 1.417 . S
C432 C436 1.432 . S
H433 C438 0.930 . S
N434 Tb396 2.600 . S
N434 C436 1.359 . S
N434 C437 1.327 . S
C435 H421 0.931 . S
C435 C437 1.392 . S
C435 C438 1.370 . S
C436 C432 1.432 . S
C436 N434 1.359 . S
C436 C439 1.414 . S
C437 H419 0.930 . S
C437 N434 1.327 . S
C437 C435 1.392 . S
C438 H433 0.930 . S
C438 C435 1.370 . S
C438 C439 1.385 . S
C439 C436 1.414 . S
C439 C438 1.385 . S
C439 C461 1.444 . S
O440 Tb396 2.546 . S
O440 C460 1.251 . S
O441 Tb396 2.610 . S
O441 Tb407 2.362 . S
O441 C452 1.283 . S
O442 Tb407 2.421 . S
O442 C459 1.262 . S
O443 Tb396 2.320 . S
O443 C459 1.260 . S
O444 Tb396 2.552 . S
O444 C452 1.243 . S
O445 Tb396 2.413 . S
O445 C460 1.256 . S
O446 Tb407 2.546 . S
O446 C471 1.251 . S
O447 Tb396 2.362 . S
O447 Tb407 2.610 . S
O447 C463 1.283 . S
O448 Tb396 2.421 . S
O448 C470 1.262 . S
O449 Tb407 2.320 . S
O449 C470 1.260 . S
O450 Tb407 2.552 . S
O450 C463 1.243 . S
O451 Tb407 2.413 . S
O451 C471 1.256 . S
C452 O441 1.283 . S
C452 O444 1.243 . S
C453 C455 1.382 . S
C453 C457 1.393 . S
C453 C460 1.500 . S
C454 C455 1.400 . S
C454 C456 1.384 . S
C455 C453 1.382 . S
C455 C454 1.400 . S
C455 H472 0.930 . S
C456 C454 1.384 . S
C456 C458 1.392 . S
C456 H473 0.931 . S
C457 C453 1.393 . S
C457 C458 1.401 . S
C457 H474 0.930 . S
C458 C456 1.392 . S
C458 C457 1.401 . S
C458 H475 0.930 . S
C459 O442 1.262 . S
C459 O443 1.260 . S
C460 Tb396 2.833 . S
C460 O440 1.251 . S
C460 O445 1.256 . S
C460 C453 1.500 . S
C461 H426 0.929 . S
C461 C439 1.444 . S
C461 C462 1.317 . S
C462 H424 0.930 . S
C462 C430 1.432 . S
C462 C461 1.317 . S
C463 O447 1.283 . S
C463 O450 1.243 . S
C464 C465 1.382 . S
C464 C468 1.393 . S
C464 C471 1.500 . S
C465 C464 1.382 . S
C465 C466 1.400 . S
C465 H476 0.930 . S
C466 C465 1.400 . S
C466 C467 1.384 . S
C467 C466 1.384 . S
C467 C469 1.392 . S
C467 H477 0.931 . S
C468 C464 1.393 . S
C468 C469 1.401 . S
C468 H478 0.930 . S
C469 C467 1.392 . S
C469 C468 1.401 . S
C469 H479 0.930 . S
C470 O448 1.262 . S
C470 O449 1.260 . S
C471 Tb407 2.833 . S
C471 O446 1.251 . S
C471 O451 1.256 . S
C471 C464 1.500 . S
H472 C455 0.930 . S
H473 C456 0.931 . S
H474 C457 0.930 . S
H475 C458 0.930 . S
H476 C465 0.930 . S
H477 C467 0.931 . S
H478 C468 0.930 . S
H479 C469 0.930 . S
Tb480 N511 2.660 . S
Tb480 N518 2.600 . S
Tb480 O524 2.546 . S
Tb480 O525 2.610 . S
Tb480 O527 2.320 . S
Tb480 O528 2.552 1_545 S
Tb480 O529 2.413 . S
Tb480 O531 2.362 . S
Tb480 O532 2.421 . S
Tb480 C544 2.833 . S
C481 C484 1.432 . S
C481 C485 1.414 . S
C481 N488 1.359 1_565 S
C482 C484 1.417 . S
C482 C486 1.432 . S
C482 C494 1.410 . S
C483 C485 1.444 . S
C483 C486 1.317 . S
C483 H506 0.929 . S
C484 C481 1.432 . S
C484 C482 1.417 . S
C484 N492 1.360 . S
C485 C481 1.414 . S
C485 C483 1.444 . S
C485 C490 1.385 . S
C486 C482 1.432 . S
C486 C483 1.317 . S
C486 H498 0.930 . S
C487 C489 1.392 . S
C487 C490 1.370 1_545 S
C487 H499 0.931 . S
N488 C481 1.359 1_545 S
N488 C489 1.327 . S
N488 Tb491 2.600 . S
C489 C487 1.392 . S
C489 N488 1.327 . S
C489 H496 0.930 . S
C490 C485 1.385 . S
C490 C487 1.370 1_565 S
C490 H509 0.930 . S
Tb491 N488 2.600 . S
Tb491 N492 2.660 1_545 S
Tb491 O525 2.362 . S
Tb491 O526 2.421 . S
Tb491 O530 2.546 . S
Tb491 O531 2.610 . S
Tb491 O533 2.320 . S
Tb491 O534 2.552 . S
Tb491 O535 2.413 . S
Tb491 C555 2.833 . S
N492 C484 1.360 . S
N492 Tb491 2.660 1_565 S
N492 C493 1.305 . S
C493 N492 1.305 . S
C493 C495 1.407 . S
C493 H500 0.930 . S
C494 C482 1.410 . S
C494 C495 1.345 . S
C494 H502 0.930 . S
C495 C493 1.407 . S
C495 C494 1.345 . S
C495 H497 0.930 . S
H496 C489 0.930 . S
H497 C495 0.930 . S
H498 C486 0.930 . S
H499 C487 0.931 . S
H500 C493 0.930 . S
H501 C515 0.930 . S
H502 C494 0.930 . S
H503 C521 0.930 . S
H504 C512 0.930 . S
H505 C519 0.931 . S
H506 C483 0.929 . S
H507 C513 0.930 . S
H508 C546 0.930 . S
H509 C490 0.930 . S
H510 C545 0.929 . S
N511 Tb480 2.660 . S
N511 C512 1.305 . S
N511 C516 1.360 . S
C512 H504 0.930 . S
C512 N511 1.305 . S
C512 C515 1.407 . S
C513 H507 0.930 . S
C513 C514 1.410 . S
C513 C515 1.345 . S
C514 C513 1.410 . S
C514 C516 1.417 . S
C514 C546 1.432 . S
C515 H501 0.930 . S
C515 C512 1.407 . S
C515 C513 1.345 . S
C516 N511 1.360 . S
C516 C514 1.417 . S
C516 C520 1.432 . S
H517 C522 0.930 . S
N518 Tb480 2.600 . S
N518 C520 1.359 . S
N518 C521 1.327 . S
C519 H505 0.931 . S
C519 C521 1.392 . S
C519 C522 1.370 . S
C520 C516 1.432 . S
C520 N518 1.359 . S
C520 C523 1.414 . S
C521 H503 0.930 . S
C521 N518 1.327 . S
C521 C519 1.392 . S
C522 H517 0.930 . S
C522 C519 1.370 . S
C522 C523 1.385 . S
C523 C520 1.414 . S
C523 C522 1.385 . S
C523 C545 1.444 . S
O524 Tb480 2.546 . S
O524 C544 1.251 . S
O525 Tb480 2.610 . S
O525 Tb491 2.362 . S
O525 C536 1.283 1_545 S
O526 Tb491 2.421 . S
O526 C543 1.262 . S
O527 Tb480 2.320 . S
O527 C543 1.260 . S
O528 Tb480 2.552 1_565 S
O528 C536 1.243 . S
O529 Tb480 2.413 . S
O529 C544 1.256 . S
O530 Tb491 2.546 . S
O530 C555 1.251 . S
O531 Tb480 2.362 . S
O531 Tb491 2.610 . S
O531 C547 1.283 . S
O532 Tb480 2.421 . S
O532 C554 1.262 . S
O533 Tb491 2.320 . S
O533 C554 1.260 . S
O534 Tb491 2.552 . S
O534 C547 1.243 . S
O535 Tb491 2.413 . S
O535 C555 1.256 . S
C536 O525 1.283 1_565 S
C536 O528 1.243 . S
C537 C539 1.382 1_545 S
C537 C541 1.393 . S
C537 C544 1.500 . S
C538 C539 1.400 . S
C538 C540 1.384 . S
C539 C537 1.382 1_565 S
C539 C538 1.400 . S
C539 H556 0.930 . S
C540 C538 1.384 . S
C540 C542 1.392 . S
C540 H557 0.931 . S
C541 C537 1.393 . S
C541 C542 1.401 1_545 S
C541 H558 0.930 . S
C542 C540 1.392 . S
C542 C541 1.401 1_565 S
C542 H559 0.930 . S
C543 O526 1.262 . S
C543 O527 1.260 . S
C544 Tb480 2.833 . S
C544 O524 1.251 . S
C544 O529 1.256 . S
C544 C537 1.500 . S
C545 H510 0.929 . S
C545 C523 1.444 . S
C545 C546 1.317 . S
C546 H508 0.930 . S
C546 C514 1.432 . S
C546 C545 1.317 . S
C547 O531 1.283 . S
C547 O534 1.243 . S
C548 C549 1.382 . S
C548 C552 1.393 . S
C548 C555 1.500 . S
C549 C548 1.382 . S
C549 C550 1.400 . S
C549 H560 0.930 . S
C550 C549 1.400 . S
C550 C551 1.384 . S
C551 C550 1.384 . S
C551 C553 1.392 . S
C551 H561 0.931 . S
C552 C548 1.393 . S
C552 C553 1.401 . S
C552 H562 0.930 . S
C553 C551 1.392 . S
C553 C552 1.401 . S
C553 H563 0.930 . S
C554 O532 1.262 . S
C554 O533 1.260 . S
C555 Tb491 2.833 . S
C555 O530 1.251 . S
C555 O535 1.256 . S
C555 C548 1.500 . S
H556 C539 0.930 . S
H557 C540 0.931 . S
H558 C541 0.930 . S
H559 C542 0.930 . S
H560 C549 0.930 . S
H561 C551 0.931 . S
H562 C552 0.930 . S
H563 C553 0.930 . S
Tb564 N595 2.660 . S
Tb564 N602 2.600 . S
Tb564 O608 2.546 . S
Tb564 O609 2.610 . S
Tb564 O611 2.320 . S
Tb564 O612 2.552 . S
Tb564 O613 2.413 . S
Tb564 O615 2.362 . S
Tb564 O616 2.421 . S
Tb564 C628 2.833 . S
C565 C568 1.432 . S
C565 C569 1.414 . S
C565 N572 1.359 . S
C566 C568 1.417 . S
C566 C570 1.432 . S
C566 C578 1.410 . S
C567 C569 1.444 . S
C567 C570 1.317 . S
C567 H590 0.929 . S
C568 C565 1.432 . S
C568 C566 1.417 . S
C568 N576 1.360 . S
C569 C565 1.414 . S
C569 C567 1.444 . S
C569 C574 1.385 . S
C570 C566 1.432 . S
C570 C567 1.317 . S
C570 H582 0.930 . S
C571 C573 1.392 . S
C571 C574 1.370 . S
C571 H583 0.931 . S
N572 C565 1.359 . S
N572 C573 1.327 . S
N572 Tb575 2.600 . S
C573 C571 1.392 . S
C573 N572 1.327 . S
C573 H580 0.930 . S
C574 C569 1.385 . S
C574 C571 1.370 . S
C574 H593 0.930 . S
Tb575 N572 2.600 . S
Tb575 N576 2.660 . S
Tb575 O609 2.362 . S
Tb575 O610 2.421 . S
Tb575 O614 2.546 . S
Tb575 O615 2.610 . S
Tb575 O617 2.320 . S
Tb575 O618 2.552 . S
Tb575 O619 2.413 . S
Tb575 C639 2.833 . S
N576 C568 1.360 . S
N576 Tb575 2.660 . S
N576 C577 1.305 . S
C577 N576 1.305 . S
C577 C579 1.407 . S
C577 H584 0.930 . S
C578 C566 1.410 . S
C578 C579 1.345 . S
C578 H586 0.930 . S
C579 C577 1.407 . S
C579 C578 1.345 . S
C579 H581 0.930 . S
H580 C573 0.930 . S
H581 C579 0.930 . S
H582 C570 0.930 . S
H583 C571 0.931 . S
H584 C577 0.930 . S
H585 C599 0.930 . S
H586 C578 0.930 . S
H587 C605 0.930 . S
H588 C596 0.930 . S
H589 C603 0.931 . S
H590 C567 0.929 . S
H591 C597 0.930 . S
H592 C630 0.930 . S
H593 C574 0.930 . S
H594 C629 0.929 . S
N595 Tb564 2.660 . S
N595 C596 1.305 . S
N595 C600 1.360 . S
C596 H588 0.930 . S
C596 N595 1.305 . S
C596 C599 1.407 . S
C597 H591 0.930 . S
C597 C598 1.410 . S
C597 C599 1.345 . S
C598 C597 1.410 . S
C598 C600 1.417 . S
C598 C630 1.432 . S
C599 H585 0.930 . S
C599 C596 1.407 . S
C599 C597 1.345 . S
C600 N595 1.360 . S
C600 C598 1.417 . S
C600 C604 1.432 . S
H601 C606 0.930 . S
N602 Tb564 2.600 . S
N602 C604 1.359 . S
N602 C605 1.327 . S
C603 H589 0.931 . S
C603 C605 1.392 . S
C603 C606 1.370 . S
C604 C600 1.432 . S
C604 N602 1.359 . S
C604 C607 1.414 . S
C605 H587 0.930 . S
C605 N602 1.327 . S
C605 C603 1.392 . S
C606 H601 0.930 . S
C606 C603 1.370 . S
C606 C607 1.385 . S
C607 C604 1.414 . S
C607 C606 1.385 . S
C607 C629 1.444 . S
O608 Tb564 2.546 . S
O608 C628 1.251 . S
O609 Tb564 2.610 . S
O609 Tb575 2.362 . S
O609 C620 1.283 . S
O610 Tb575 2.421 . S
O610 C627 1.262 . S
O611 Tb564 2.320 . S
O611 C627 1.260 . S
O612 Tb564 2.552 . S
O612 C620 1.243 . S
O613 Tb564 2.413 . S
O613 C628 1.256 . S
O614 Tb575 2.546 . S
O614 C639 1.251 . S
O615 Tb564 2.362 . S
O615 Tb575 2.610 . S
O615 C631 1.283 . S
O616 Tb564 2.421 . S
O616 C638 1.262 . S
O617 Tb575 2.320 . S
O617 C638 1.260 . S
O618 Tb575 2.552 . S
O618 C631 1.243 . S
O619 Tb575 2.413 . S
O619 C639 1.256 . S
C620 O609 1.283 . S
C620 O612 1.243 . S
C621 C623 1.382 . S
C621 C625 1.393 . S
C621 C628 1.500 . S
C622 C623 1.400 . S
C622 C624 1.384 . S
C623 C621 1.382 . S
C623 C622 1.400 . S
C623 H640 0.930 . S
C624 C622 1.384 . S
C624 C626 1.392 . S
C624 H641 0.931 . S
C625 C621 1.393 . S
C625 C626 1.401 . S
C625 H642 0.930 . S
C626 C624 1.392 . S
C626 C625 1.401 . S
C626 H643 0.930 . S
C627 O610 1.262 . S
C627 O611 1.260 . S
C628 Tb564 2.833 . S
C628 O608 1.251 . S
C628 O613 1.256 . S
C628 C621 1.500 . S
C629 H594 0.929 . S
C629 C607 1.444 . S
C629 C630 1.317 . S
C630 H592 0.930 . S
C630 C598 1.432 . S
C630 C629 1.317 . S
C631 O615 1.283 . S
C631 O618 1.243 . S
C632 C633 1.382 . S
C632 C636 1.393 . S
C632 C639 1.500 . S
C633 C632 1.382 . S
C633 C634 1.400 . S
C633 H644 0.930 . S
C634 C633 1.400 . S
C634 C635 1.384 . S
C635 C634 1.384 . S
C635 C637 1.392 . S
C635 H645 0.931 . S
C636 C632 1.393 . S
C636 C637 1.401 . S
C636 H646 0.930 . S
C637 C635 1.392 . S
C637 C636 1.401 . S
C637 H647 0.930 . S
C638 O616 1.262 . S
C638 O617 1.260 . S
C639 Tb575 2.833 . S
C639 O614 1.251 . S
C639 O619 1.256 . S
C639 C632 1.500 . S
H640 C623 0.930 . S
H641 C624 0.931 . S
H642 C625 0.930 . S
H643 C626 0.930 . S
H644 C633 0.930 . S
H645 C635 0.931 . S
H646 C636 0.930 . S
H647 C637 0.930 . S
Tb648 N679 2.660 . S
Tb648 N686 2.600 . S
Tb648 O692 2.546 . S
Tb648 O693 2.610 . S
Tb648 O695 2.320 . S
Tb648 O696 2.552 . S
Tb648 O697 2.413 . S
Tb648 O699 2.362 . S
Tb648 O700 2.421 . S
Tb648 C712 2.833 . S
C649 C652 1.432 . S
C649 C653 1.414 . S
C649 N656 1.359 . S
C650 C652 1.417 . S
C650 C654 1.432 . S
C650 C662 1.410 . S
C651 C653 1.444 . S
C651 C654 1.317 . S
C651 H674 0.929 . S
C652 C649 1.432 . S
C652 C650 1.417 . S
C652 N660 1.360 . S
C653 C649 1.414 . S
C653 C651 1.444 . S
C653 C658 1.385 . S
C654 C650 1.432 . S
C654 C651 1.317 . S
C654 H666 0.930 . S
C655 C657 1.392 . S
C655 C658 1.370 . S
C655 H667 0.931 . S
N656 C649 1.359 . S
N656 C657 1.327 . S
N656 Tb659 2.600 1_565 S
C657 C655 1.392 . S
C657 N656 1.327 . S
C657 H664 0.930 . S
C658 C653 1.385 . S
C658 C655 1.370 . S
C658 H677 0.930 . S
Tb659 N656 2.600 1_545 S
Tb659 N660 2.660 1_545 S
Tb659 O693 2.362 . S
Tb659 O694 2.421 . S
Tb659 O698 2.546 1_545 S
Tb659 O699 2.610 . S
Tb659 O701 2.320 . S
Tb659 O702 2.552 . S
Tb659 O703 2.413 1_545 S
Tb659 C723 2.833 1_545 S
N660 C652 1.360 . S
N660 Tb659 2.660 1_565 S
N660 C661 1.305 . S
C661 N660 1.305 . S
C661 C663 1.407 1_455 S
C661 H668 0.930 . S
C662 C650 1.410 . S
C662 C663 1.345 1_455 S
C662 H670 0.930 1_455 S
C663 C661 1.407 1_655 S
C663 C662 1.345 1_655 S
C663 H665 0.930 . S
H664 C657 0.930 . S
H665 C663 0.930 . S
H666 C654 0.930 . S
H667 C655 0.931 . S
H668 C661 0.930 . S
H669 C683 0.930 . S
H670 C662 0.930 1_655 S
H671 C689 0.930 . S
H672 C680 0.930 . S
H673 C687 0.906 1_655 S
H674 C651 0.929 . S
H675 C681 0.930 . S
H676 C714 0.930 . S
H677 C658 0.930 . S
H678 C713 0.929 . S
N679 Tb648 2.660 . S
N679 C680 1.305 . S
N679 C684 1.360 . S
C680 H672 0.930 . S
C680 N679 1.305 . S
C680 C683 1.407 . S
C681 H675 0.930 . S
C681 C682 1.410 . S
C681 C683 1.345 . S
C682 C681 1.410 . S
C682 C684 1.417 . S
C682 C714 1.432 . S
C683 H669 0.930 . S
C683 C680 1.407 . S
C683 C681 1.345 . S
C684 N679 1.360 . S
C684 C682 1.417 . S
C684 C688 1.432 . S
H685 C690 0.930 . S
N686 Tb648 2.600 . S
N686 C688 1.359 . S
N686 C689 1.327 . S
C687 H673 0.906 1_455 S
C687 C689 1.407 . S
C687 C690 1.380 . S
C688 C684 1.432 . S
C688 N686 1.359 . S
C688 C691 1.414 . S
C689 H671 0.930 . S
C689 N686 1.327 . S
C689 C687 1.407 . S
C690 H685 0.930 . S
C690 C687 1.380 . S
C690 C691 1.385 . S
C691 C688 1.414 . S
C691 C690 1.385 . S
C691 C713 1.444 . S
O692 Tb648 2.546 . S
O692 C712 1.251 . S
O693 Tb648 2.610 . S
O693 Tb659 2.362 . S
O693 C704 1.283 . S
O694 Tb659 2.421 . S
O694 C711 1.262 . S
O695 Tb648 2.320 . S
O695 C711 1.260 . S
O696 Tb648 2.552 . S
O696 C704 1.243 . S
O697 Tb648 2.413 . S
O697 C712 1.256 . S
O698 Tb659 2.546 1_565 S
O698 C723 1.251 . S
O699 Tb648 2.362 . S
O699 Tb659 2.610 . S
O699 C715 1.283 . S
O700 Tb648 2.421 . S
O700 C722 1.262 . S
O701 Tb659 2.320 . S
O701 C722 1.260 . S
O702 Tb659 2.552 . S
O702 C715 1.243 . S
O703 Tb659 2.413 1_565 S
O703 C723 1.256 . S
C704 O693 1.283 . S
C704 O696 1.243 . S
C705 C707 1.382 . S
C705 C709 1.393 . S
C705 C712 1.500 . S
C706 C707 1.400 . S
C706 C708 1.384 . S
C707 C705 1.382 . S
C707 C706 1.400 . S
C707 H724 0.930 . S
C708 C706 1.384 . S
C708 C710 1.392 . S
C708 H725 0.931 . S
C709 C705 1.393 . S
C709 C710 1.401 . S
C709 H726 0.930 . S
C710 C708 1.392 . S
C710 C709 1.401 . S
C710 H727 0.930 . S
C711 O694 1.262 . S
C711 O695 1.260 . S
C712 Tb648 2.833 . S
C712 O692 1.251 . S
C712 O697 1.256 . S
C712 C705 1.500 . S
C713 H678 0.929 . S
C713 C691 1.444 . S
C713 C714 1.317 . S
C714 H676 0.930 . S
C714 C682 1.432 . S
C714 C713 1.317 . S
C715 O699 1.283 . S
C715 O702 1.243 . S
C716 C717 1.382 . S
C716 C720 1.393 . S
C716 C723 1.500 . S
C717 C716 1.382 . S
C717 C718 1.400 . S
C717 H728 0.930 . S
C718 C717 1.400 . S
C718 C719 1.384 . S
C719 C718 1.384 . S
C719 C721 1.392 . S
C719 H729 0.931 . S
C720 C716 1.393 . S
C720 C721 1.401 . S
C720 H730 0.930 . S
C721 C719 1.392 . S
C721 C720 1.401 . S
C721 H731 0.930 . S
C722 O700 1.262 . S
C722 O701 1.260 . S
C723 Tb659 2.833 1_565 S
C723 O698 1.251 . S
C723 O703 1.256 . S
C723 C716 1.500 . S
H724 C707 0.930 . S
H725 C708 0.931 . S
H726 C709 0.930 . S
H727 C710 0.930 . S
H728 C717 0.930 . S
H729 C719 0.931 . S
H730 C720 0.930 . S
H731 C721 0.930 . S
Tb732 N763 2.660 . S
Tb732 N770 2.600 . S
Tb732 O776 2.546 . S
Tb732 O777 2.610 . S
Tb732 O779 2.320 . S
Tb732 O780 2.552 . S
Tb732 O781 2.413 . S
Tb732 O783 2.362 . S
Tb732 O784 2.421 . S
Tb732 C796 2.833 . S
C733 C736 1.432 . S
C733 C737 1.414 . S
C733 N740 1.359 . S
C734 C736 1.417 . S
C734 C738 1.432 . S
C734 C746 1.410 . S
C735 C737 1.444 . S
C735 C738 1.317 . S
C735 H758 0.929 . S
C736 C733 1.432 . S
C736 C734 1.417 . S
C736 N744 1.360 . S
C737 C733 1.414 . S
C737 C735 1.444 . S
C737 C742 1.385 . S
C738 C734 1.432 . S
C738 C735 1.317 . S
C738 H750 0.930 . S
C739 C741 1.392 . S
C739 C742 1.370 . S
C739 H751 0.931 . S
N740 C733 1.359 . S
N740 C741 1.327 . S
N740 Tb743 2.600 . S
C741 C739 1.392 . S
C741 N740 1.327 . S
C741 H748 0.930 . S
C742 C737 1.385 . S
C742 C739 1.370 . S
C742 H761 0.930 . S
Tb743 N740 2.600 . S
Tb743 N744 2.660 . S
Tb743 O777 2.362 . S
Tb743 O778 2.421 . S
Tb743 O782 2.546 . S
Tb743 O783 2.610 . S
Tb743 O785 2.320 . S
Tb743 O786 2.552 . S
Tb743 O787 2.413 . S
Tb743 C807 2.833 . S
N744 C736 1.360 . S
N744 Tb743 2.660 . S
N744 C745 1.305 . S
C745 N744 1.305 . S
C745 C747 1.407 . S
C745 H752 0.930 . S
C746 C734 1.410 . S
C746 C747 1.345 . S
C746 H754 0.930 . S
C747 C745 1.407 . S
C747 C746 1.345 . S
C747 H749 0.930 . S
H748 C741 0.930 . S
H749 C747 0.930 . S
H750 C738 0.930 . S
H751 C739 0.931 . S
H752 C745 0.930 . S
H753 C767 0.930 . S
H754 C746 0.930 . S
H755 C773 0.930 . S
H756 C764 0.930 . S
H757 C771 0.931 . S
H758 C735 0.929 . S
H759 C765 0.930 . S
H760 C798 0.930 . S
H761 C742 0.930 . S
H762 C797 0.929 . S
N763 Tb732 2.660 . S
N763 C764 1.305 . S
N763 C768 1.360 . S
C764 H756 0.930 . S
C764 N763 1.305 . S
C764 C767 1.407 . S
C765 H759 0.930 . S
C765 C766 1.410 . S
C765 C767 1.345 . S
C766 C765 1.410 . S
C766 C768 1.417 . S
C766 C798 1.432 . S
C767 H753 0.930 . S
C767 C764 1.407 . S
C767 C765 1.345 . S
C768 N763 1.360 . S
C768 C766 1.417 . S
C768 C772 1.432 . S
H769 C774 0.930 . S
N770 Tb732 2.600 . S
N770 C772 1.359 . S
N770 C773 1.327 . S
C771 H757 0.931 . S
C771 C773 1.392 . S
C771 C774 1.370 . S
C772 C768 1.432 . S
C772 N770 1.359 . S
C772 C775 1.414 . S
C773 H755 0.930 . S
C773 N770 1.327 . S
C773 C771 1.392 . S
C774 H769 0.930 . S
C774 C771 1.370 . S
C774 C775 1.385 . S
C775 C772 1.414 . S
C775 C774 1.385 . S
C775 C797 1.444 . S
O776 Tb732 2.546 . S
O776 C796 1.251 . S
O777 Tb732 2.610 . S
O777 Tb743 2.362 . S
O777 C788 1.283 . S
O778 Tb743 2.421 . S
O778 C795 1.262 . S
O779 Tb732 2.320 . S
O779 C795 1.260 . S
O780 Tb732 2.552 . S
O780 C788 1.243 . S
O781 Tb732 2.413 . S
O781 C796 1.256 . S
O782 Tb743 2.546 . S
O782 C807 1.251 . S
O783 Tb732 2.362 . S
O783 Tb743 2.610 . S
O783 C799 1.283 . S
O784 Tb732 2.421 . S
O784 C806 1.262 . S
O785 Tb743 2.320 . S
O785 C806 1.260 . S
O786 Tb743 2.552 . S
O786 C799 1.243 . S
O787 Tb743 2.413 . S
O787 C807 1.256 . S
C788 O777 1.283 . S
C788 O780 1.243 . S
C789 C791 1.382 . S
C789 C793 1.393 . S
C789 C796 1.500 . S
C790 C791 1.400 . S
C790 C792 1.384 . S
C791 C789 1.382 . S
C791 C790 1.400 . S
C791 H808 0.930 . S
C792 C790 1.384 . S
C792 C794 1.392 . S
C792 H809 0.931 . S
C793 C789 1.393 . S
C793 C794 1.401 . S
C793 H810 0.930 . S
C794 C792 1.392 . S
C794 C793 1.401 . S
C794 H811 0.930 . S
C795 O778 1.262 . S
C795 O779 1.260 . S
C796 Tb732 2.833 . S
C796 O776 1.251 . S
C796 O781 1.256 . S
C796 C789 1.500 . S
C797 H762 0.929 . S
C797 C775 1.444 . S
C797 C798 1.317 . S
C798 H760 0.930 . S
C798 C766 1.432 . S
C798 C797 1.317 . S
C799 O783 1.283 . S
C799 O786 1.243 . S
C800 C801 1.382 . S
C800 C804 1.393 . S
C800 C807 1.500 . S
C801 C800 1.382 . S
C801 C802 1.400 . S
C801 H812 0.930 . S
C802 C801 1.400 . S
C802 C803 1.384 . S
C803 C802 1.384 . S
C803 C805 1.392 . S
C803 H813 0.931 . S
C804 C800 1.393 . S
C804 C805 1.401 . S
C804 H814 0.930 . S
C805 C803 1.392 . S
C805 C804 1.401 . S
C805 H815 0.930 . S
C806 O784 1.262 . S
C806 O785 1.260 . S
C807 Tb743 2.833 . S
C807 O782 1.251 . S
C807 O787 1.256 . S
C807 C800 1.500 . S
H808 C791 0.930 . S
H809 C792 0.931 . S
H810 C793 0.930 . S
H811 C794 0.930 . S
H812 C801 0.930 . S
H813 C803 0.931 . S
H814 C804 0.930 . S
H815 C805 0.930 . S
Tb816 N847 2.660 . S
Tb816 N854 2.600 . S
Tb816 O860 2.546 1_545 S
Tb816 O861 2.610 . S
Tb816 O863 2.320 . S
Tb816 O864 2.552 . S
Tb816 O865 2.413 . S
Tb816 O867 2.362 . S
Tb816 O868 2.421 1_545 S
Tb816 C880 2.833 . S
C817 C820 1.432 . S
C817 C821 1.414 . S
C817 N824 1.359 . S
C818 C820 1.417 . S
C818 C822 1.432 . S
C818 C830 1.410 1_545 S
C819 C821 1.444 . S
C819 C822 1.317 . S
C819 H842 0.929 . S
C820 C817 1.432 . S
C820 C818 1.417 . S
C820 N828 1.360 . S
C821 C817 1.414 . S
C821 C819 1.444 . S
C821 C826 1.385 . S
C822 C818 1.432 . S
C822 C819 1.317 . S
C822 H834 0.930 . S
C823 C825 1.392 . S
C823 C826 1.370 . S
C823 H835 0.931 . S
N824 C817 1.359 . S
N824 C825 1.327 . S
N824 Tb827 2.600 . S
C825 C823 1.392 . S
C825 N824 1.327 . S
C825 H832 0.930 . S
C826 C821 1.385 . S
C826 C823 1.370 . S
C826 H845 0.930 . S
Tb827 N824 2.600 . S
Tb827 N828 2.660 . S
Tb827 O861 2.362 1_556 S
Tb827 O862 2.421 1_556 S
Tb827 O866 2.546 . S
Tb827 O867 2.610 1_556 S
Tb827 O869 2.320 . S
Tb827 O870 2.552 . S
Tb827 O871 2.413 . S
Tb827 C891 2.833 . S
N828 C820 1.360 . S
N828 Tb827 2.660 . S
N828 C829 1.305 1_545 S
C829 N828 1.305 1_565 S
C829 C831 1.407 . S
C829 H836 0.930 . S
C830 C818 1.410 1_565 S
C830 C831 1.345 . S
C830 H838 0.930 . S
C831 C829 1.407 . S
C831 C830 1.345 . S
C831 H833 0.930 . S
H832 C825 0.930 . S
H833 C831 0.930 . S
H834 C822 0.930 . S
H835 C823 0.931 . S
H836 C829 0.930 . S
H837 C851 0.930 . S
H838 C830 0.930 . S
H839 C857 0.930 . S
H840 C848 0.930 . S
H841 C855 0.931 . S
H842 C819 0.929 . S
H843 C849 0.930 . S
H844 C882 0.930 . S
H845 C826 0.930 . S
H846 C881 0.929 . S
N847 Tb816 2.660 . S
N847 C848 1.305 . S
N847 C852 1.360 . S
C848 H840 0.930 . S
C848 N847 1.305 . S
C848 C851 1.407 . S
C849 H843 0.930 . S
C849 C850 1.410 . S
C849 C851 1.345 . S
C850 C849 1.410 . S
C850 C852 1.417 . S
C850 C882 1.432 . S
C851 H837 0.930 . S
C851 C848 1.407 . S
C851 C849 1.345 . S
C852 N847 1.360 . S
C852 C850 1.417 . S
C852 C856 1.432 . S
H853 C858 0.930 . S
N854 Tb816 2.600 . S
N854 C856 1.359 . S
N854 C857 1.327 1_545 S
C855 H841 0.931 . S
C855 C857 1.392 . S
C855 C858 1.370 . S
C856 C852 1.432 . S
C856 N854 1.359 . S
C856 C859 1.414 . S
C857 H839 0.930 . S
C857 N854 1.327 1_565 S
C857 C855 1.392 . S
C858 H853 0.930 . S
C858 C855 1.370 . S
C858 C859 1.385 1_565 S
C859 C856 1.414 . S
C859 C858 1.385 1_545 S
C859 C881 1.444 . S
O860 Tb816 2.546 1_565 S
O860 C880 1.251 1_565 S
O861 Tb816 2.610 . S
O861 Tb827 2.362 1_554 S
O861 C872 1.283 . S
O862 Tb827 2.421 1_554 S
O862 C879 1.262 . S
O863 Tb816 2.320 . S
O863 C879 1.260 . S
O864 Tb816 2.552 . S
O864 C872 1.243 . S
O865 Tb816 2.413 . S
O865 C880 1.256 . S
O866 Tb827 2.546 . S
O866 C891 1.251 . S
O867 Tb816 2.362 . S
O867 Tb827 2.610 1_554 S
O867 C883 1.283 . S
O868 Tb816 2.421 1_565 S
O868 C890 1.262 1_554 S
O869 Tb827 2.320 . S
O869 C890 1.260 1_545 S
O870 Tb827 2.552 . S
O870 C883 1.243 1_556 S
O871 Tb827 2.413 . S
O871 C891 1.256 . S
C872 O861 1.283 . S
C872 O864 1.243 . S
C873 C875 1.387 . S
C873 C877 1.387 1_545 S
C873 C880 1.502 . S
C874 C875 1.400 . S
C874 C876 1.384 1_545 S
C875 C873 1.387 . S
C875 C874 1.400 . S
C875 H892 0.930 . S
C876 C874 1.384 1_565 S
C876 C878 1.392 . S
C876 H893 0.931 . S
C877 C873 1.387 1_565 S
C877 C878 1.401 . S
C877 H894 0.930 . S
C878 C876 1.392 . S
C878 C877 1.401 . S
C878 H895 0.930 . S
C879 O862 1.262 . S
C879 O863 1.260 . S
C880 Tb816 2.833 . S
C880 O860 1.251 1_545 S
C880 O865 1.256 . S
C880 C873 1.502 . S
C881 H846 0.929 . S
C881 C859 1.444 . S
C881 C882 1.317 . S
C882 H844 0.930 . S
C882 C850 1.432 . S
C882 C881 1.317 . S
C883 O867 1.283 . S
C883 O870 1.243 1_554 S
C884 C885 1.382 . S
C884 C888 1.393 . S
C884 C891 1.500 . S
C885 C884 1.382 . S
C885 C886 1.400 . S
C885 H896 0.930 . S
C886 C885 1.400 . S
C886 C887 1.384 . S
C887 C886 1.384 . S
C887 C889 1.392 . S
C887 H897 0.931 . S
C888 C884 1.393 . S
C888 C889 1.401 . S
C888 H898 0.930 . S
C889 C887 1.392 . S
C889 C888 1.401 . S
C889 H899 0.930 . S
C890 O868 1.262 1_556 S
C890 O869 1.260 1_565 S
C891 Tb827 2.833 . S
C891 O866 1.251 . S
C891 O871 1.256 . S
C891 C884 1.500 . S
H892 C875 0.930 . S
H893 C876 0.931 . S
H894 C877 0.930 . S
H895 C878 0.930 . S
H896 C885 0.930 . S
H897 C887 0.931 . S
H898 C888 0.930 . S
H899 C889 0.930 . S
Tb900 N931 2.660 . S
Tb900 N938 2.600 . S
Tb900 O944 2.546 . S
Tb900 O945 2.610 . S
Tb900 O947 2.320 . S
Tb900 O948 2.552 . S
Tb900 O949 2.413 . S
Tb900 O951 2.362 . S
Tb900 O952 2.421 . S
Tb900 C964 2.833 . S
C901 C904 1.432 . S
C901 C905 1.414 . S
C901 N908 1.359 . S
C902 C904 1.417 . S
C902 C906 1.432 . S
C902 C914 1.410 . S
C903 C905 1.444 . S
C903 C906 1.317 . S
C903 H926 0.929 . S
C904 C901 1.432 . S
C904 C902 1.417 . S
C904 N912 1.360 . S
C905 C901 1.414 . S
C905 C903 1.444 . S
C905 C910 1.385 . S
C906 C902 1.432 . S
C906 C903 1.317 . S
C906 H918 0.930 . S
C907 C909 1.392 . S
C907 C910 1.370 . S
C907 H919 0.931 . S
N908 C901 1.359 . S
N908 C909 1.327 . S
N908 Tb911 2.600 . S
C909 C907 1.392 . S
C909 N908 1.327 . S
C909 H916 0.930 . S
C910 C905 1.385 . S
C910 C907 1.370 . S
C910 H929 0.930 . S
Tb911 N908 2.600 . S
Tb911 N912 2.660 . S
Tb911 O945 2.362 . S
Tb911 O946 2.421 . S
Tb911 O950 2.546 . S
Tb911 O951 2.610 . S
Tb911 O953 2.320 . S
Tb911 O954 2.552 . S
Tb911 O955 2.413 . S
Tb911 C975 2.833 . S
N912 C904 1.360 . S
N912 Tb911 2.660 . S
N912 C913 1.305 . S
C913 N912 1.305 . S
C913 C915 1.407 . S
C913 H920 0.930 . S
C914 C902 1.410 . S
C914 C915 1.345 . S
C914 H922 0.930 . S
C915 C913 1.407 . S
C915 C914 1.345 . S
C915 H917 0.930 . S
H916 C909 0.930 . S
H917 C915 0.930 . S
H918 C906 0.930 . S
H919 C907 0.931 . S
H920 C913 0.930 . S
H921 C935 0.930 . S
H922 C914 0.930 . S
H923 C941 0.930 . S
H924 C932 0.930 . S
H925 C939 0.931 . S
H926 C903 0.929 . S
H927 C933 0.930 . S
H928 C966 0.930 . S
H929 C910 0.930 . S
H930 C965 0.929 . S
N931 Tb900 2.660 . S
N931 C932 1.305 . S
N931 C936 1.360 . S
C932 H924 0.930 . S
C932 N931 1.305 . S
C932 C935 1.407 . S
C933 H927 0.930 . S
C933 C934 1.410 . S
C933 C935 1.345 . S
C934 C933 1.410 . S
C934 C936 1.417 . S
C934 C966 1.432 . S
C935 H921 0.930 . S
C935 C932 1.407 . S
C935 C933 1.345 . S
C936 N931 1.360 . S
C936 C934 1.417 . S
C936 C940 1.432 . S
H937 C942 0.930 . S
N938 Tb900 2.600 . S
N938 C940 1.359 . S
N938 C941 1.327 . S
C939 H925 0.931 . S
C939 C941 1.392 . S
C939 C942 1.370 . S
C940 C936 1.432 . S
C940 N938 1.359 . S
C940 C943 1.414 . S
C941 H923 0.930 . S
C941 N938 1.327 . S
C941 C939 1.392 . S
C942 H937 0.930 . S
C942 C939 1.370 . S
C942 C943 1.385 . S
C943 C940 1.414 . S
C943 C942 1.385 . S
C943 C965 1.444 . S
O944 Tb900 2.546 . S
O944 C964 1.251 . S
O945 Tb900 2.610 . S
O945 Tb911 2.362 . S
O945 C956 1.283 . S
O946 Tb911 2.421 . S
O946 C963 1.262 . S
O947 Tb900 2.320 . S
O947 C963 1.260 . S
O948 Tb900 2.552 . S
O948 C956 1.243 . S
O949 Tb900 2.413 . S
O949 C964 1.256 . S
O950 Tb911 2.546 . S
O950 C975 1.251 . S
O951 Tb900 2.362 . S
O951 Tb911 2.610 . S
O951 C967 1.283 . S
O952 Tb900 2.421 . S
O952 C974 1.262 . S
O953 Tb911 2.320 . S
O953 C974 1.260 . S
O954 Tb911 2.552 . S
O954 C967 1.243 . S
O955 Tb911 2.413 . S
O955 C975 1.256 . S
C956 O945 1.283 . S
C956 O948 1.243 . S
C957 C959 1.382 . S
C957 C961 1.393 . S
C957 C964 1.500 . S
C958 C959 1.400 . S
C958 C960 1.384 . S
C959 C957 1.382 . S
C959 C958 1.400 . S
C959 H976 0.930 . S
C960 C958 1.384 . S
C960 C962 1.392 . S
C960 H977 0.931 . S
C961 C957 1.393 . S
C961 C962 1.401 . S
C961 H978 0.930 . S
C962 C960 1.392 . S
C962 C961 1.401 . S
C962 H979 0.930 . S
C963 O946 1.262 . S
C963 O947 1.260 . S
C964 Tb900 2.833 . S
C964 O944 1.251 . S
C964 O949 1.256 . S
C964 C957 1.500 . S
C965 H930 0.929 . S
C965 C943 1.444 . S
C965 C966 1.317 . S
C966 H928 0.930 . S
C966 C934 1.432 . S
C966 C965 1.317 . S
C967 O951 1.283 . S
C967 O954 1.243 . S
C968 C969 1.382 . S
C968 C972 1.393 . S
C968 C975 1.500 . S
C969 C968 1.382 . S
C969 C970 1.400 . S
C969 H980 0.930 . S
C970 C969 1.400 . S
C970 C971 1.384 . S
C971 C970 1.384 . S
C971 C973 1.392 . S
C971 H981 0.931 . S
C972 C968 1.393 . S
C972 C973 1.401 . S
C972 H982 0.930 . S
C973 C971 1.392 . S
C973 C972 1.401 . S
C973 H983 0.930 . S
C974 O952 1.262 . S
C974 O953 1.260 . S
C975 Tb911 2.833 . S
C975 O950 1.251 . S
C975 O955 1.256 . S
C975 C968 1.500 . S
H976 C959 0.930 . S
H977 C960 0.931 . S
H978 C961 0.930 . S
H979 C962 0.930 . S
H980 C969 0.930 . S
H981 C971 0.931 . S
H982 C972 0.930 . S
H983 C973 0.930 . S
Tb984 N1015 2.660 . S
Tb984 N1022 2.600 . S
Tb984 O1028 2.546 . S
Tb984 O1029 2.610 1_554 S
Tb984 O1031 2.320 . S
Tb984 O1032 2.552 1_554 S
Tb984 O1033 2.413 . S
Tb984 O1035 2.362 . S
Tb984 O1036 2.421 . S
Tb984 C1048 2.833 . S
C985 C988 1.432 . S
C985 C989 1.414 . S
C985 N992 1.359 . S
C986 C988 1.417 . S
C986 C990 1.432 . S
C986 C998 1.410 . S
C987 C989 1.444 . S
C987 C990 1.317 . S
C987 H1010 0.929 . S
C988 C985 1.432 . S
C988 C986 1.417 . S
C988 N996 1.360 . S
C989 C985 1.414 . S
C989 C987 1.444 . S
C989 C994 1.385 . S
C990 C986 1.432 . S
C990 C987 1.317 . S
C990 H1002 0.930 . S
C991 C993 1.392 . S
C991 C994 1.370 . S
C991 H1003 0.931 . S
N992 C985 1.359 . S
N992 C993 1.327 . S
N992 Tb995 2.600 1_556 S
C993 C991 1.392 . S
C993 N992 1.327 . S
C993 H1000 0.930 . S
C994 C989 1.385 . S
C994 C991 1.370 . S
C994 H1013 0.930 . S
Tb995 N992 2.600 1_554 S
Tb995 N996 2.660 1_554 S
Tb995 O1029 2.362 1_554 S
Tb995 O1030 2.421 . S
Tb995 O1034 2.546 . S
Tb995 O1035 2.610 . S
Tb995 O1037 2.320 . S
Tb995 O1038 2.552 . S
Tb995 O1039 2.413 . S
Tb995 C1059 2.833 . S
N996 C988 1.360 . S
N996 Tb995 2.660 1_556 S
N996 C997 1.305 . S
C997 N996 1.305 . S
C997 C999 1.407 . S
C997 H1004 0.930 . S
C998 C986 1.410 . S
C998 C999 1.345 . S
C998 H1006 0.930 . S
C999 C997 1.407 . S
C999 C998 1.345 . S
C999 H1001 0.930 . S
H1000 C993 0.930 . S
H1001 C999 0.930 . S
H1002 C990 0.930 . S
H1003 C991 0.931 . S
H1004 C997 0.930 . S
H1005 C1019 0.930 . S
H1006 C998 0.930 . S
H1007 C1025 0.930 . S
H1008 C1016 0.930 . S
H1009 C1023 0.931 . S
H1010 C987 0.929 . S
H1011 C1017 0.930 . S
H1012 C1050 0.930 . S
H1013 C994 0.930 . S
H1014 C1049 0.929 . S
N1015 Tb984 2.660 . S
N1015 C1016 1.305 . S
N1015 C1020 1.360 . S
C1016 H1008 0.930 . S
C1016 N1015 1.305 . S
C1016 C1019 1.407 . S
C1017 H1011 0.930 . S
C1017 C1018 1.410 . S
C1017 C1019 1.345 . S
C1018 C1017 1.410 . S
C1018 C1020 1.417 . S
C1018 C1050 1.432 . S
C1019 H1005 0.930 . S
C1019 C1016 1.407 . S
C1019 C1017 1.345 . S
C1020 N1015 1.360 . S
C1020 C1018 1.417 . S
C1020 C1024 1.432 . S
H1021 C1026 0.930 . S
N1022 Tb984 2.600 . S
N1022 C1024 1.359 . S
N1022 C1025 1.327 . S
C1023 H1009 0.931 . S
C1023 C1025 1.392 . S
C1023 C1026 1.370 . S
C1024 C1020 1.432 . S
C1024 N1022 1.359 . S
C1024 C1027 1.414 . S
C1025 H1007 0.930 . S
C1025 N1022 1.327 . S
C1025 C1023 1.392 . S
C1026 H1021 0.930 . S
C1026 C1023 1.370 . S
C1026 C1027 1.385 . S
C1027 C1024 1.414 . S
C1027 C1026 1.385 . S
C1027 C1049 1.444 . S
O1028 Tb984 2.546 . S
O1028 C1048 1.251 . S
O1029 Tb984 2.610 1_556 S
O1029 Tb995 2.362 1_556 S
O1029 C1040 1.283 . S
O1030 Tb995 2.421 . S
O1030 C1047 1.262 . S
O1031 Tb984 2.320 . S
O1031 C1047 1.260 . S
O1032 Tb984 2.552 1_556 S
O1032 C1040 1.243 . S
O1033 Tb984 2.413 . S
O1033 C1048 1.256 . S
O1034 Tb995 2.546 . S
O1034 C1059 1.251 . S
O1035 Tb984 2.362 . S
O1035 Tb995 2.610 . S
O1035 C1051 1.283 . S
O1036 Tb984 2.421 . S
O1036 C1058 1.262 . S
O1037 Tb995 2.320 . S
O1037 C1058 1.260 . S
O1038 Tb995 2.552 . S
O1038 C1051 1.243 . S
O1039 Tb995 2.413 . S
O1039 C1059 1.256 . S
C1040 O1029 1.283 . S
C1040 O1032 1.243 . S
C1041 C1043 1.382 . S
C1041 C1045 1.393 . S
C1041 C1048 1.500 . S
C1042 C1043 1.400 1_556 S
C1042 C1044 1.384 1_556 S
C1043 C1041 1.382 . S
C1043 C1042 1.400 1_554 S
C1043 H1060 0.930 . S
C1044 C1042 1.384 1_554 S
C1044 C1046 1.392 . S
C1044 H1061 0.931 . S
C1045 C1041 1.393 . S
C1045 C1046 1.401 . S
C1045 H1062 0.930 . S
C1046 C1044 1.392 . S
C1046 C1045 1.401 . S
C1046 H1063 0.930 . S
C1047 O1030 1.262 . S
C1047 O1031 1.260 . S
C1048 Tb984 2.833 . S
C1048 O1028 1.251 . S
C1048 O1033 1.256 . S
C1048 C1041 1.500 . S
C1049 H1014 0.929 . S
C1049 C1027 1.444 . S
C1049 C1050 1.317 . S
C1050 H1012 0.930 . S
C1050 C1018 1.432 . S
C1050 C1049 1.317 . S
C1051 O1035 1.283 . S
C1051 O1038 1.243 . S
C1052 C1053 1.382 . S
C1052 C1056 1.393 . S
C1052 C1059 1.500 . S
C1053 C1052 1.382 . S
C1053 C1054 1.400 . S
C1053 H1064 0.930 . S
C1054 C1053 1.400 . S
C1054 C1055 1.384 . S
C1055 C1054 1.384 . S
C1055 C1057 1.392 . S
C1055 H1065 0.931 . S
C1056 C1052 1.393 . S
C1056 C1057 1.401 . S
C1056 H1066 0.930 . S
C1057 C1055 1.392 . S
C1057 C1056 1.401 . S
C1057 H1067 0.930 . S
C1058 O1036 1.262 . S
C1058 O1037 1.260 . S
C1059 Tb995 2.833 . S
C1059 O1034 1.251 . S
C1059 O1039 1.256 . S
C1059 C1052 1.500 . S
H1060 C1043 0.930 . S
H1061 C1044 0.931 . S
H1062 C1045 0.930 . S
H1063 C1046 0.930 . S
H1064 C1053 0.930 . S
H1065 C1055 0.931 . S
H1066 C1056 0.930 . S
H1067 C1057 0.930 . S
Tb1068 N1099 2.660 . S
Tb1068 N1106 2.600 . S
Tb1068 O1112 2.546 . S
Tb1068 O1113 2.610 . S
Tb1068 O1115 2.320 . S
Tb1068 O1116 2.552 . S
Tb1068 O1117 2.413 . S
Tb1068 O1119 2.362 . S
Tb1068 O1120 2.421 . S
Tb1068 C1132 2.833 . S
C1069 C1072 1.432 . S
C1069 C1073 1.414 . S
C1069 N1076 1.359 . S
C1070 C1072 1.417 . S
C1070 C1074 1.432 . S
C1070 C1082 1.410 . S
C1071 C1073 1.444 . S
C1071 C1074 1.317 . S
C1071 H1094 0.929 . S
C1072 C1069 1.432 . S
C1072 C1070 1.417 . S
C1072 N1080 1.360 . S
C1073 C1069 1.414 . S
C1073 C1071 1.444 . S
C1073 C1078 1.385 . S
C1074 C1070 1.432 . S
C1074 C1071 1.317 . S
C1074 H1086 0.930 . S
C1075 C1077 1.392 . S
C1075 C1078 1.370 . S
C1075 H1087 0.931 . S
N1076 C1069 1.359 . S
N1076 C1077 1.327 . S
N1076 Tb1079 2.600 . S
C1077 C1075 1.392 . S
C1077 N1076 1.327 . S
C1077 H1084 0.930 . S
C1078 C1073 1.385 . S
C1078 C1075 1.370 . S
C1078 H1097 0.930 . S
Tb1079 N1076 2.600 . S
Tb1079 N1080 2.660 . S
Tb1079 O1113 2.362 . S
Tb1079 O1114 2.421 . S
Tb1079 O1118 2.546 . S
Tb1079 O1119 2.610 . S
Tb1079 O1121 2.320 . S
Tb1079 O1122 2.552 . S
Tb1079 O1123 2.413 . S
Tb1079 C1143 2.833 . S
N1080 C1072 1.360 . S
N1080 Tb1079 2.660 . S
N1080 C1081 1.305 . S
C1081 N1080 1.305 . S
C1081 C1083 1.407 . S
C1081 H1088 0.930 . S
C1082 C1070 1.410 . S
C1082 C1083 1.345 . S
C1082 H1090 0.930 . S
C1083 C1081 1.407 . S
C1083 C1082 1.345 . S
C1083 H1085 0.930 . S
H1084 C1077 0.930 . S
H1085 C1083 0.930 . S
H1086 C1074 0.930 . S
H1087 C1075 0.931 . S
H1088 C1081 0.930 . S
H1089 C1103 0.930 . S
H1090 C1082 0.930 . S
H1091 C1109 0.930 . S
H1092 C1100 0.930 . S
H1093 C1107 0.931 . S
H1094 C1071 0.929 . S
H1095 C1101 0.930 . S
H1096 C1134 0.930 . S
H1097 C1078 0.930 . S
H1098 C1133 0.929 . S
N1099 Tb1068 2.660 . S
N1099 C1100 1.305 . S
N1099 C1104 1.360 . S
C1100 H1092 0.930 . S
C1100 N1099 1.305 . S
C1100 C1103 1.407 . S
C1101 H1095 0.930 . S
C1101 C1102 1.410 . S
C1101 C1103 1.345 . S
C1102 C1101 1.410 . S
C1102 C1104 1.417 . S
C1102 C1134 1.432 . S
C1103 H1089 0.930 . S
C1103 C1100 1.407 . S
C1103 C1101 1.345 . S
C1104 N1099 1.360 . S
C1104 C1102 1.417 . S
C1104 C1108 1.432 . S
H1105 C1110 0.930 . S
N1106 Tb1068 2.600 . S
N1106 C1108 1.359 . S
N1106 C1109 1.327 . S
C1107 H1093 0.931 . S
C1107 C1109 1.392 . S
C1107 C1110 1.370 . S
C1108 C1104 1.432 . S
C1108 N1106 1.359 . S
C1108 C1111 1.414 . S
C1109 H1091 0.930 . S
C1109 N1106 1.327 . S
C1109 C1107 1.392 . S
C1110 H1105 0.930 . S
C1110 C1107 1.370 . S
C1110 C1111 1.385 . S
C1111 C1108 1.414 . S
C1111 C1110 1.385 . S
C1111 C1133 1.444 . S
O1112 Tb1068 2.546 . S
O1112 C1132 1.251 . S
O1113 Tb1068 2.610 . S
O1113 Tb1079 2.362 . S
O1113 C1124 1.283 . S
O1114 Tb1079 2.421 . S
O1114 C1131 1.262 . S
O1115 Tb1068 2.320 . S
O1115 C1131 1.260 . S
O1116 Tb1068 2.552 . S
O1116 C1124 1.243 . S
O1117 Tb1068 2.413 . S
O1117 C1132 1.256 . S
O1118 Tb1079 2.546 . S
O1118 C1143 1.251 . S
O1119 Tb1068 2.362 . S
O1119 Tb1079 2.610 . S
O1119 C1135 1.283 . S
O1120 Tb1068 2.421 . S
O1120 C1142 1.262 . S
O1121 Tb1079 2.320 . S
O1121 C1142 1.260 . S
O1122 Tb1079 2.552 . S
O1122 C1135 1.243 . S
O1123 Tb1079 2.413 . S
O1123 C1143 1.256 . S
C1124 O1113 1.283 . S
C1124 O1116 1.243 . S
C1125 C1127 1.382 . S
C1125 C1129 1.393 . S
C1125 C1132 1.500 . S
C1126 C1127 1.400 . S
C1126 C1128 1.384 . S
C1127 C1125 1.382 . S
C1127 C1126 1.400 . S
C1127 H1144 0.930 . S
C1128 C1126 1.384 . S
C1128 C1130 1.392 . S
C1128 H1145 0.931 . S
C1129 C1125 1.393 . S
C1129 C1130 1.401 . S
C1129 H1146 0.930 . S
C1130 C1128 1.392 . S
C1130 C1129 1.401 . S
C1130 H1147 0.930 . S
C1131 O1114 1.262 . S
C1131 O1115 1.260 . S
C1132 Tb1068 2.833 . S
C1132 O1112 1.251 . S
C1132 O1117 1.256 . S
C1132 C1125 1.500 . S
C1133 H1098 0.929 . S
C1133 C1111 1.444 . S
C1133 C1134 1.317 . S
C1134 H1096 0.930 . S
C1134 C1102 1.432 . S
C1134 C1133 1.317 . S
C1135 O1119 1.283 . S
C1135 O1122 1.243 . S
C1136 C1137 1.382 . S
C1136 C1140 1.393 . S
C1136 C1143 1.500 . S
C1137 C1136 1.382 . S
C1137 C1138 1.400 . S
C1137 H1148 0.930 . S
C1138 C1137 1.400 . S
C1138 C1139 1.384 . S
C1139 C1138 1.384 . S
C1139 C1141 1.392 . S
C1139 H1149 0.931 . S
C1140 C1136 1.393 . S
C1140 C1141 1.401 . S
C1140 H1150 0.930 . S
C1141 C1139 1.392 . S
C1141 C1140 1.401 . S
C1141 H1151 0.930 . S
C1142 O1120 1.262 . S
C1142 O1121 1.260 . S
C1143 Tb1079 2.833 . S
C1143 O1118 1.251 . S
C1143 O1123 1.256 . S
C1143 C1136 1.500 . S
H1144 C1127 0.930 . S
H1145 C1128 0.931 . S
H1146 C1129 0.930 . S
H1147 C1130 0.930 . S
H1148 C1137 0.930 . S
H1149 C1139 0.931 . S
H1150 C1140 0.930 . S
H1151 C1141 0.930 . S
Tb1152 N1183 2.660 . S
Tb1152 N1190 2.600 . S
Tb1152 O1196 2.546 . S
Tb1152 O1197 2.610 . S
Tb1152 O1199 2.320 . S
Tb1152 O1200 2.552 . S
Tb1152 O1201 2.413 . S
Tb1152 O1203 2.362 . S
Tb1152 O1204 2.421 . S
Tb1152 C1216 2.833 . S
C1153 C1156 1.432 . S
C1153 C1157 1.414 1_455 S
C1153 N1160 1.359 . S
C1154 C1156 1.417 1_655 S
C1154 C1158 1.432 . S
C1154 C1166 1.410 . S
C1155 C1157 1.444 . S
C1155 C1158 1.317 . S
C1155 H1178 0.929 . S
C1156 C1153 1.432 . S
C1156 C1154 1.417 1_455 S
C1156 N1164 1.360 . S
C1157 C1153 1.414 1_655 S
C1157 C1155 1.444 . S
C1157 C1162 1.385 . S
C1158 C1154 1.432 . S
C1158 C1155 1.317 . S
C1158 H1170 0.930 . S
C1159 C1161 1.392 . S
C1159 C1162 1.370 1_455 S
C1159 H1171 0.931 . S
N1160 C1153 1.359 . S
N1160 C1161 1.327 . S
N1160 Tb1163 2.600 . S
C1161 C1159 1.392 . S
C1161 N1160 1.327 . S
C1161 H1168 0.930 . S
C1162 C1157 1.385 . S
C1162 C1159 1.370 1_655 S
C1162 H1181 0.930 . S
Tb1163 N1160 2.600 . S
Tb1163 N1164 2.660 . S
Tb1163 O1197 2.362 . S
Tb1163 O1198 2.421 . S
Tb1163 O1202 2.546 . S
Tb1163 O1203 2.610 . S
Tb1163 O1205 2.320 . S
Tb1163 O1206 2.552 . S
Tb1163 O1207 2.413 . S
Tb1163 C1227 2.833 . S
N1164 C1156 1.360 . S
N1164 Tb1163 2.660 . S
N1164 C1165 1.305 . S
C1165 N1164 1.305 . S
C1165 C1167 1.380 1_455 S
C1165 H1172 0.930 . S
C1166 C1154 1.410 . S
C1166 C1167 1.380 . S
C1166 H1174 0.930 . S
C1167 C1165 1.380 1_655 S
C1167 C1166 1.380 . S
C1167 H1169 0.923 . S
H1168 C1161 0.930 . S
H1169 C1167 0.923 . S
H1170 C1158 0.930 . S
H1171 C1159 0.931 . S
H1172 C1165 0.930 . S
H1173 C1187 0.930 . S
H1174 C1166 0.930 . S
H1175 C1193 0.930 . S
H1176 C1184 0.930 . S
H1177 C1191 0.931 . S
H1178 C1155 0.929 . S
H1179 C1185 0.930 . S
H1180 C1218 0.930 . S
H1181 C1162 0.930 . S
H1182 C1217 0.929 . S
N1183 Tb1152 2.660 . S
N1183 C1184 1.305 . S
N1183 C1188 1.360 . S
C1184 H1176 0.930 . S
C1184 N1183 1.305 . S
C1184 C1187 1.407 . S
C1185 H1179 0.930 . S
C1185 C1186 1.410 . S
C1185 C1187 1.345 . S
C1186 C1185 1.410 . S
C1186 C1188 1.417 . S
C1186 C1218 1.432 . S
C1187 H1173 0.930 . S
C1187 C1184 1.407 . S
C1187 C1185 1.345 . S
C1188 N1183 1.360 . S
C1188 C1186 1.417 . S
C1188 C1192 1.432 . S
H1189 C1194 0.930 . S
N1190 Tb1152 2.600 . S
N1190 C1192 1.359 . S
N1190 C1193 1.327 . S
C1191 H1177 0.931 . S
C1191 C1193 1.392 . S
C1191 C1194 1.370 . S
C1192 C1188 1.432 . S
C1192 N1190 1.359 . S
C1192 C1195 1.414 . S
C1193 H1175 0.930 . S
C1193 N1190 1.327 . S
C1193 C1191 1.392 . S
C1194 H1189 0.930 . S
C1194 C1191 1.370 . S
C1194 C1195 1.385 . S
C1195 C1192 1.414 . S
C1195 C1194 1.385 . S
C1195 C1217 1.444 . S
O1196 Tb1152 2.546 . S
O1196 C1216 1.251 . S
O1197 Tb1152 2.610 . S
O1197 Tb1163 2.362 . S
O1197 C1208 1.283 . S
O1198 Tb1163 2.421 . S
O1198 C1215 1.262 . S
O1199 Tb1152 2.320 . S
O1199 C1215 1.260 . S
O1200 Tb1152 2.552 . S
O1200 C1208 1.243 . S
O1201 Tb1152 2.413 . S
O1201 C1216 1.256 . S
O1202 Tb1163 2.546 . S
O1202 C1227 1.251 . S
O1203 Tb1152 2.362 . S
O1203 Tb1163 2.610 . S
O1203 C1219 1.283 . S
O1204 Tb1152 2.421 . S
O1204 C1226 1.262 . S
O1205 Tb1163 2.320 . S
O1205 C1226 1.260 . S
O1206 Tb1163 2.552 . S
O1206 C1219 1.243 . S
O1207 Tb1163 2.413 . S
O1207 C1227 1.256 . S
C1208 O1197 1.283 . S
C1208 O1200 1.243 . S
C1209 C1211 1.382 . S
C1209 C1213 1.393 . S
C1209 C1216 1.500 . S
C1210 C1211 1.400 . S
C1210 C1212 1.384 . S
C1211 C1209 1.382 . S
C1211 C1210 1.400 . S
C1211 H1228 0.930 . S
C1212 C1210 1.384 . S
C1212 C1214 1.392 . S
C1212 H1229 0.931 . S
C1213 C1209 1.393 . S
C1213 C1214 1.401 . S
C1213 H1230 0.930 . S
C1214 C1212 1.392 . S
C1214 C1213 1.401 . S
C1214 H1231 0.930 . S
C1215 O1198 1.262 . S
C1215 O1199 1.260 . S
C1216 Tb1152 2.833 . S
C1216 O1196 1.251 . S
C1216 O1201 1.256 . S
C1216 C1209 1.500 . S
C1217 H1182 0.929 . S
C1217 C1195 1.444 . S
C1217 C1218 1.317 . S
C1218 H1180 0.930 . S
C1218 C1186 1.432 . S
C1218 C1217 1.317 . S
C1219 O1203 1.283 . S
C1219 O1206 1.243 . S
C1220 C1221 1.382 . S
C1220 C1224 1.393 . S
C1220 C1227 1.500 . S
C1221 C1220 1.382 . S
C1221 C1222 1.400 . S
C1221 H1232 0.930 . S
C1222 C1221 1.400 . S
C1222 C1223 1.384 . S
C1223 C1222 1.384 . S
C1223 C1225 1.392 . S
C1223 H1233 0.931 . S
C1224 C1220 1.393 . S
C1224 C1225 1.401 . S
C1224 H1234 0.930 . S
C1225 C1223 1.392 . S
C1225 C1224 1.401 . S
C1225 H1235 0.930 . S
C1226 O1204 1.262 . S
C1226 O1205 1.260 . S
C1227 Tb1163 2.833 . S
C1227 O1202 1.251 . S
C1227 O1207 1.256 . S
C1227 C1220 1.500 . S
H1228 C1211 0.930 . S
H1229 C1212 0.931 . S
H1230 C1213 0.930 . S
H1231 C1214 0.930 . S
H1232 C1221 0.930 . S
H1233 C1223 0.931 . S
H1234 C1224 0.930 . S
H1235 C1225 0.930 . S
Tb1236 N1267 2.660 . S
Tb1236 N1274 2.600 . S
Tb1236 O1280 2.546 . S
Tb1236 O1281 2.610 . S
Tb1236 O1283 2.320 . S
Tb1236 O1284 2.552 . S
Tb1236 O1285 2.413 . S
Tb1236 O1287 2.362 . S
Tb1236 O1288 2.421 . S
Tb1236 C1300 2.833 . S
C1237 C1240 1.432 . S
C1237 C1241 1.414 . S
C1237 N1244 1.359 . S
C1238 C1240 1.417 . S
C1238 C1242 1.432 . S
C1238 C1250 1.410 . S
C1239 C1241 1.444 . S
C1239 C1242 1.317 . S
C1239 H1262 0.929 . S
C1240 C1237 1.432 . S
C1240 C1238 1.417 . S
C1240 N1248 1.360 . S
C1241 C1237 1.414 . S
C1241 C1239 1.444 . S
C1241 C1246 1.385 . S
C1242 C1238 1.432 . S
C1242 C1239 1.317 . S
C1242 H1254 0.930 . S
C1243 C1245 1.392 . S
C1243 C1246 1.370 . S
C1243 H1255 0.931 . S
N1244 C1237 1.359 . S
N1244 C1245 1.327 . S
N1244 Tb1247 2.600 . S
C1245 C1243 1.392 . S
C1245 N1244 1.327 . S
C1245 H1252 0.930 . S
C1246 C1241 1.385 . S
C1246 C1243 1.370 . S
C1246 H1265 0.930 . S
Tb1247 N1244 2.600 . S
Tb1247 N1248 2.660 . S
Tb1247 O1281 2.362 . S
Tb1247 O1282 2.421 . S
Tb1247 O1286 2.546 . S
Tb1247 O1287 2.610 . S
Tb1247 O1289 2.320 . S
Tb1247 O1290 2.552 . S
Tb1247 O1291 2.413 . S
Tb1247 C1311 2.833 . S
N1248 C1240 1.360 . S
N1248 Tb1247 2.660 . S
N1248 C1249 1.305 . S
C1249 N1248 1.305 . S
C1249 C1251 1.407 . S
C1249 H1256 0.930 . S
C1250 C1238 1.410 . S
C1250 C1251 1.345 . S
C1250 H1258 0.930 . S
C1251 C1249 1.407 . S
C1251 C1250 1.345 . S
C1251 H1253 0.930 . S
H1252 C1245 0.930 . S
H1253 C1251 0.930 . S
H1254 C1242 0.930 . S
H1255 C1243 0.931 . S
H1256 C1249 0.930 . S
H1257 C1271 0.930 . S
H1258 C1250 0.930 . S
H1259 C1277 0.930 . S
H1260 C1268 0.930 . S
H1261 C1275 0.931 . S
H1262 C1239 0.929 . S
H1263 C1269 0.930 . S
H1264 C1302 0.930 . S
H1265 C1246 0.930 . S
H1266 C1301 0.929 . S
N1267 Tb1236 2.660 . S
N1267 C1268 1.305 . S
N1267 C1272 1.360 . S
C1268 H1260 0.930 . S
C1268 N1267 1.305 . S
C1268 C1271 1.407 . S
C1269 H1263 0.930 . S
C1269 C1270 1.410 . S
C1269 C1271 1.345 . S
C1270 C1269 1.410 . S
C1270 C1272 1.417 . S
C1270 C1302 1.432 . S
C1271 H1257 0.930 . S
C1271 C1268 1.407 . S
C1271 C1269 1.345 . S
C1272 N1267 1.360 . S
C1272 C1270 1.417 . S
C1272 C1276 1.432 . S
H1273 C1278 0.930 . S
N1274 Tb1236 2.600 . S
N1274 C1276 1.359 . S
N1274 C1277 1.327 . S
C1275 H1261 0.931 . S
C1275 C1277 1.392 . S
C1275 C1278 1.370 . S
C1276 C1272 1.432 . S
C1276 N1274 1.359 . S
C1276 C1279 1.414 . S
C1277 H1259 0.930 . S
C1277 N1274 1.327 . S
C1277 C1275 1.392 . S
C1278 H1273 0.930 . S
C1278 C1275 1.370 . S
C1278 C1279 1.385 . S
C1279 C1276 1.414 . S
C1279 C1278 1.385 . S
C1279 C1301 1.444 . S
O1280 Tb1236 2.546 . S
O1280 C1300 1.251 . S
O1281 Tb1236 2.610 . S
O1281 Tb1247 2.362 . S
O1281 C1292 1.283 . S
O1282 Tb1247 2.421 . S
O1282 C1299 1.262 . S
O1283 Tb1236 2.320 . S
O1283 C1299 1.260 . S
O1284 Tb1236 2.552 . S
O1284 C1292 1.243 . S
O1285 Tb1236 2.413 . S
O1285 C1300 1.256 . S
O1286 Tb1247 2.546 . S
O1286 C1311 1.251 . S
O1287 Tb1236 2.362 . S
O1287 Tb1247 2.610 . S
O1287 C1303 1.283 . S
O1288 Tb1236 2.421 . S
O1288 C1310 1.262 . S
O1289 Tb1247 2.320 . S
O1289 C1310 1.260 . S
O1290 Tb1247 2.552 . S
O1290 C1303 1.243 . S
O1291 Tb1247 2.413 . S
O1291 C1311 1.256 . S
C1292 O1281 1.283 . S
C1292 O1284 1.243 . S
C1293 C1295 1.382 . S
C1293 C1297 1.393 . S
C1293 C1300 1.500 . S
C1294 C1295 1.400 . S
C1294 C1296 1.384 . S
C1295 C1293 1.382 . S
C1295 C1294 1.400 . S
C1295 H1312 0.930 . S
C1296 C1294 1.384 . S
C1296 C1298 1.392 . S
C1296 H1313 0.931 . S
C1297 C1293 1.393 . S
C1297 C1298 1.401 . S
C1297 H1314 0.930 . S
C1298 C1296 1.392 . S
C1298 C1297 1.401 . S
C1298 H1315 0.930 . S
C1299 O1282 1.262 . S
C1299 O1283 1.260 . S
C1300 Tb1236 2.833 . S
C1300 O1280 1.251 . S
C1300 O1285 1.256 . S
C1300 C1293 1.500 . S
C1301 H1266 0.929 . S
C1301 C1279 1.444 . S
C1301 C1302 1.317 . S
C1302 H1264 0.930 . S
C1302 C1270 1.432 . S
C1302 C1301 1.317 . S
C1303 O1287 1.283 . S
C1303 O1290 1.243 . S
C1304 C1305 1.382 . S
C1304 C1308 1.393 . S
C1304 C1311 1.500 . S
C1305 C1304 1.382 . S
C1305 C1306 1.400 . S
C1305 H1316 0.930 . S
C1306 C1305 1.400 . S
C1306 C1307 1.384 . S
C1307 C1306 1.384 . S
C1307 C1309 1.392 . S
C1307 H1317 0.931 . S
C1308 C1304 1.393 . S
C1308 C1309 1.401 . S
C1308 H1318 0.930 . S
C1309 C1307 1.392 . S
C1309 C1308 1.401 . S
C1309 H1319 0.930 . S
C1310 O1288 1.262 . S
C1310 O1289 1.260 . S
C1311 Tb1247 2.833 . S
C1311 O1286 1.251 . S
C1311 O1291 1.256 . S
C1311 C1304 1.500 . S
H1312 C1295 0.930 . S
H1313 C1296 0.931 . S
H1314 C1297 0.930 . S
H1315 C1298 0.930 . S
H1316 C1305 0.930 . S
H1317 C1307 0.931 . S
H1318 C1308 0.930 . S
H1319 C1309 0.930 . S
Tb1320 N1351 2.660 . S
Tb1320 N1358 2.600 . S
Tb1320 O1364 2.546 . S
Tb1320 O1365 2.610 . S
Tb1320 O1367 2.320 . S
Tb1320 O1368 2.552 . S
Tb1320 O1369 2.413 . S
Tb1320 O1371 2.362 . S
Tb1320 O1372 2.421 . S
Tb1320 C1384 2.833 . S
C1321 C1324 1.432 . S
C1321 C1325 1.414 . S
C1321 N1328 1.359 . S
C1322 C1324 1.417 . S
C1322 C1326 1.432 . S
C1322 C1334 1.410 . S
C1323 C1325 1.444 . S
C1323 C1326 1.317 . S
C1323 H1346 0.929 . S
C1324 C1321 1.432 . S
C1324 C1322 1.417 . S
C1324 N1332 1.360 . S
C1325 C1321 1.414 . S
C1325 C1323 1.444 . S
C1325 C1330 1.385 . S
C1326 C1322 1.432 . S
C1326 C1323 1.317 . S
C1326 H1338 0.930 . S
C1327 C1329 1.392 . S
C1327 C1330 1.370 . S
C1327 H1339 0.931 . S
N1328 C1321 1.359 . S
N1328 C1329 1.327 . S
N1328 Tb1331 2.600 . S
C1329 C1327 1.392 . S
C1329 N1328 1.327 . S
C1329 H1336 0.930 . S
C1330 C1325 1.385 . S
C1330 C1327 1.370 . S
C1330 H1349 0.930 . S
Tb1331 N1328 2.600 . S
Tb1331 N1332 2.660 . S
Tb1331 O1365 2.362 . S
Tb1331 O1366 2.421 . S
Tb1331 O1370 2.546 . S
Tb1331 O1371 2.610 . S
Tb1331 O1373 2.320 . S
Tb1331 O1374 2.552 . S
Tb1331 O1375 2.413 . S
Tb1331 C1395 2.833 . S
N1332 C1324 1.360 . S
N1332 Tb1331 2.660 . S
N1332 C1333 1.305 . S
C1333 N1332 1.305 . S
C1333 C1335 1.407 . S
C1333 H1340 0.930 . S
C1334 C1322 1.410 . S
C1334 C1335 1.345 . S
C1334 H1342 0.930 . S
C1335 C1333 1.407 . S
C1335 C1334 1.345 . S
C1335 H1337 0.930 . S
H1336 C1329 0.930 . S
H1337 C1335 0.930 . S
H1338 C1326 0.930 . S
H1339 C1327 0.931 . S
H1340 C1333 0.930 . S
H1341 C1355 0.930 . S
H1342 C1334 0.930 . S
H1343 C1361 0.930 . S
H1344 C1352 0.930 . S
H1345 C1359 0.931 . S
H1346 C1323 0.929 . S
H1347 C1353 0.930 . S
H1348 C1386 0.930 . S
H1349 C1330 0.930 . S
H1350 C1385 0.929 . S
N1351 Tb1320 2.660 . S
N1351 C1352 1.305 . S
N1351 C1356 1.360 . S
C1352 H1344 0.930 . S
C1352 N1351 1.305 . S
C1352 C1355 1.407 . S
C1353 H1347 0.930 . S
C1353 C1354 1.410 . S
C1353 C1355 1.345 . S
C1354 C1353 1.410 . S
C1354 C1356 1.417 . S
C1354 C1386 1.432 . S
C1355 H1341 0.930 . S
C1355 C1352 1.407 . S
C1355 C1353 1.345 . S
C1356 N1351 1.360 . S
C1356 C1354 1.417 . S
C1356 C1360 1.432 . S
H1357 C1362 0.930 . S
N1358 Tb1320 2.600 . S
N1358 C1360 1.359 . S
N1358 C1361 1.327 . S
C1359 H1345 0.931 . S
C1359 C1361 1.392 . S
C1359 C1362 1.370 . S
C1360 C1356 1.432 . S
C1360 N1358 1.359 . S
C1360 C1363 1.414 . S
C1361 H1343 0.930 . S
C1361 N1358 1.327 . S
C1361 C1359 1.392 . S
C1362 H1357 0.930 . S
C1362 C1359 1.370 . S
C1362 C1363 1.385 . S
C1363 C1360 1.414 . S
C1363 C1362 1.385 . S
C1363 C1385 1.444 . S
O1364 Tb1320 2.546 . S
O1364 C1384 1.251 . S
O1365 Tb1320 2.610 . S
O1365 Tb1331 2.362 . S
O1365 C1376 1.283 . S
O1366 Tb1331 2.421 . S
O1366 C1383 1.262 . S
O1367 Tb1320 2.320 . S
O1367 C1383 1.260 . S
O1368 Tb1320 2.552 . S
O1368 C1376 1.243 . S
O1369 Tb1320 2.413 . S
O1369 C1384 1.256 . S
O1370 Tb1331 2.546 . S
O1370 C1395 1.251 . S
O1371 Tb1320 2.362 . S
O1371 Tb1331 2.610 . S
O1371 C1387 1.283 . S
O1372 Tb1320 2.421 . S
O1372 C1394 1.262 . S
O1373 Tb1331 2.320 . S
O1373 C1394 1.260 . S
O1374 Tb1331 2.552 . S
O1374 C1387 1.243 . S
O1375 Tb1331 2.413 . S
O1375 C1395 1.256 . S
C1376 O1365 1.283 . S
C1376 O1368 1.243 . S
C1377 C1379 1.382 . S
C1377 C1381 1.393 . S
C1377 C1384 1.500 . S
C1378 C1379 1.400 . S
C1378 C1380 1.384 . S
C1379 C1377 1.382 . S
C1379 C1378 1.400 . S
C1379 H1396 0.930 . S
C1380 C1378 1.384 . S
C1380 C1382 1.392 . S
C1380 H1397 0.931 . S
C1381 C1377 1.393 . S
C1381 C1382 1.401 . S
C1381 H1398 0.930 . S
C1382 C1380 1.392 . S
C1382 C1381 1.401 . S
C1382 H1399 0.930 . S
C1383 O1366 1.262 . S
C1383 O1367 1.260 . S
C1384 Tb1320 2.833 . S
C1384 O1364 1.251 . S
C1384 O1369 1.256 . S
C1384 C1377 1.500 . S
C1385 H1350 0.929 . S
C1385 C1363 1.444 . S
C1385 C1386 1.317 . S
C1386 H1348 0.930 . S
C1386 C1354 1.432 . S
C1386 C1385 1.317 . S
C1387 O1371 1.283 . S
C1387 O1374 1.243 . S
C1388 C1389 1.382 . S
C1388 C1392 1.393 . S
C1388 C1395 1.500 . S
C1389 C1388 1.382 . S
C1389 C1390 1.400 . S
C1389 H1400 0.930 . S
C1390 C1389 1.400 . S
C1390 C1391 1.384 . S
C1391 C1390 1.384 . S
C1391 C1393 1.392 . S
C1391 H1401 0.931 . S
C1392 C1388 1.393 . S
C1392 C1393 1.401 . S
C1392 H1402 0.930 . S
C1393 C1391 1.392 . S
C1393 C1392 1.401 . S
C1393 H1403 0.930 . S
C1394 O1372 1.262 . S
C1394 O1373 1.260 . S
C1395 Tb1331 2.833 . S
C1395 O1370 1.251 . S
C1395 O1375 1.256 . S
C1395 C1388 1.500 . S
H1396 C1379 0.930 . S
H1397 C1380 0.931 . S
H1398 C1381 0.930 . S
H1399 C1382 0.930 . S
H1400 C1389 0.930 . S
H1401 C1391 0.931 . S
H1402 C1392 0.930 . S
H1403 C1393 0.930 . S
Tb1404 N1435 2.660 . S
Tb1404 N1442 2.600 . S
Tb1404 O1448 2.546 . S
Tb1404 O1449 2.610 . S
Tb1404 O1451 2.320 . S
Tb1404 O1452 2.552 . S
Tb1404 O1453 2.413 . S
Tb1404 O1455 2.362 . S
Tb1404 O1456 2.421 . S
Tb1404 C1468 2.833 . S
C1405 C1408 1.432 . S
C1405 C1409 1.414 . S
C1405 N1412 1.359 . S
C1406 C1408 1.417 . S
C1406 C1410 1.432 . S
C1406 C1418 1.410 . S
C1407 C1409 1.444 . S
C1407 C1410 1.317 . S
C1407 H1430 0.929 . S
C1408 C1405 1.432 . S
C1408 C1406 1.417 . S
C1408 N1416 1.360 . S
C1409 C1405 1.414 . S
C1409 C1407 1.444 . S
C1409 C1414 1.385 . S
C1410 C1406 1.432 . S
C1410 C1407 1.317 . S
C1410 H1422 0.930 . S
C1411 C1413 1.392 . S
C1411 C1414 1.370 . S
C1411 H1423 0.931 . S
N1412 C1405 1.359 . S
N1412 C1413 1.327 . S
N1412 Tb1415 2.600 . S
C1413 C1411 1.392 . S
C1413 N1412 1.327 . S
C1413 H1420 0.930 . S
C1414 C1409 1.385 . S
C1414 C1411 1.370 . S
C1414 H1433 0.930 . S
Tb1415 N1412 2.600 . S
Tb1415 N1416 2.660 . S
Tb1415 O1449 2.362 . S
Tb1415 O1450 2.421 . S
Tb1415 O1454 2.546 . S
Tb1415 O1455 2.610 . S
Tb1415 O1457 2.320 . S
Tb1415 O1458 2.552 . S
Tb1415 O1459 2.413 . S
Tb1415 C1479 2.833 . S
N1416 C1408 1.360 . S
N1416 Tb1415 2.660 . S
N1416 C1417 1.305 . S
C1417 N1416 1.305 . S
C1417 C1419 1.407 . S
C1417 H1424 0.930 . S
C1418 C1406 1.410 . S
C1418 C1419 1.345 . S
C1418 H1426 0.930 . S
C1419 C1417 1.407 . S
C1419 C1418 1.345 . S
C1419 H1421 0.930 . S
H1420 C1413 0.930 . S
H1421 C1419 0.930 . S
H1422 C1410 0.930 . S
H1423 C1411 0.931 . S
H1424 C1417 0.930 . S
H1425 C1439 0.930 . S
H1426 C1418 0.930 . S
H1427 C1445 0.930 . S
H1428 C1436 0.930 . S
H1429 C1443 0.931 . S
H1430 C1407 0.929 . S
H1431 C1437 0.930 . S
H1432 C1470 0.930 . S
H1433 C1414 0.930 . S
H1434 C1469 0.929 . S
N1435 Tb1404 2.660 . S
N1435 C1436 1.305 . S
N1435 C1440 1.360 . S
C1436 H1428 0.930 . S
C1436 N1435 1.305 . S
C1436 C1439 1.407 . S
C1437 H1431 0.930 . S
C1437 C1438 1.410 . S
C1437 C1439 1.345 . S
C1438 C1437 1.410 . S
C1438 C1440 1.417 . S
C1438 C1470 1.432 . S
C1439 H1425 0.930 . S
C1439 C1436 1.407 . S
C1439 C1437 1.345 . S
C1440 N1435 1.360 . S
C1440 C1438 1.417 . S
C1440 C1444 1.432 . S
H1441 C1446 0.930 . S
N1442 Tb1404 2.600 . S
N1442 C1444 1.359 . S
N1442 C1445 1.327 . S
C1443 H1429 0.931 . S
C1443 C1445 1.392 . S
C1443 C1446 1.370 . S
C1444 C1440 1.432 . S
C1444 N1442 1.359 . S
C1444 C1447 1.414 . S
C1445 H1427 0.930 . S
C1445 N1442 1.327 . S
C1445 C1443 1.392 . S
C1446 H1441 0.930 . S
C1446 C1443 1.370 . S
C1446 C1447 1.385 . S
C1447 C1444 1.414 . S
C1447 C1446 1.385 . S
C1447 C1469 1.444 . S
O1448 Tb1404 2.546 . S
O1448 C1468 1.251 . S
O1449 Tb1404 2.610 . S
O1449 Tb1415 2.362 . S
O1449 C1460 1.283 . S
O1450 Tb1415 2.421 . S
O1450 C1467 1.262 . S
O1451 Tb1404 2.320 . S
O1451 C1467 1.260 . S
O1452 Tb1404 2.552 . S
O1452 C1460 1.243 . S
O1453 Tb1404 2.413 . S
O1453 C1468 1.256 . S
O1454 Tb1415 2.546 . S
O1454 C1479 1.251 . S
O1455 Tb1404 2.362 . S
O1455 Tb1415 2.610 . S
O1455 C1471 1.283 . S
O1456 Tb1404 2.421 . S
O1456 C1478 1.262 . S
O1457 Tb1415 2.320 . S
O1457 C1478 1.260 . S
O1458 Tb1415 2.552 . S
O1458 C1471 1.243 . S
O1459 Tb1415 2.413 . S
O1459 C1479 1.256 . S
C1460 O1449 1.283 . S
C1460 O1452 1.243 . S
C1461 C1463 1.382 . S
C1461 C1465 1.393 . S
C1461 C1468 1.500 . S
C1462 C1463 1.400 . S
C1462 C1464 1.384 . S
C1463 C1461 1.382 . S
C1463 C1462 1.400 . S
C1463 H1480 0.930 . S
C1464 C1462 1.384 . S
C1464 C1466 1.392 . S
C1464 H1481 0.931 . S
C1465 C1461 1.393 . S
C1465 C1466 1.401 . S
C1465 H1482 0.930 . S
C1466 C1464 1.392 . S
C1466 C1465 1.401 . S
C1466 H1483 0.930 . S
C1467 O1450 1.262 . S
C1467 O1451 1.260 . S
C1468 Tb1404 2.833 . S
C1468 O1448 1.251 . S
C1468 O1453 1.256 . S
C1468 C1461 1.500 . S
C1469 H1434 0.929 . S
C1469 C1447 1.444 . S
C1469 C1470 1.317 . S
C1470 H1432 0.930 . S
C1470 C1438 1.432 . S
C1470 C1469 1.317 . S
C1471 O1455 1.283 . S
C1471 O1458 1.243 . S
C1472 C1473 1.382 . S
C1472 C1476 1.393 . S
C1472 C1479 1.500 . S
C1473 C1472 1.382 . S
C1473 C1474 1.400 . S
C1473 H1484 0.930 . S
C1474 C1473 1.400 . S
C1474 C1475 1.384 . S
C1475 C1474 1.384 . S
C1475 C1477 1.392 . S
C1475 H1485 0.931 . S
C1476 C1472 1.393 . S
C1476 C1477 1.401 . S
C1476 H1486 0.930 . S
C1477 C1475 1.392 . S
C1477 C1476 1.401 . S
C1477 H1487 0.930 . S
C1478 O1456 1.262 . S
C1478 O1457 1.260 . S
C1479 Tb1415 2.833 . S
C1479 O1454 1.251 . S
C1479 O1459 1.256 . S
C1479 C1472 1.500 . S
H1480 C1463 0.930 . S
H1481 C1464 0.931 . S
H1482 C1465 0.930 . S
H1483 C1466 0.930 . S
H1484 C1473 0.930 . S
H1485 C1475 0.931 . S
H1486 C1476 0.930 . S
H1487 C1477 0.930 . S
Tb1488 N1519 2.660 . S
Tb1488 N1526 2.600 . S
Tb1488 O1532 2.546 . S
Tb1488 O1533 2.610 . S
Tb1488 O1535 2.320 . S
Tb1488 O1536 2.552 . S
Tb1488 O1537 2.413 . S
Tb1488 O1539 2.362 . S
Tb1488 O1540 2.421 . S
Tb1488 C1552 2.833 . S
C1489 C1492 1.432 . S
C1489 C1493 1.414 . S
C1489 N1496 1.359 . S
C1490 C1492 1.417 . S
C1490 C1494 1.432 . S
C1490 C1502 1.410 . S
C1491 C1493 1.444 . S
C1491 C1494 1.317 . S
C1491 H1514 0.929 . S
C1492 C1489 1.432 . S
C1492 C1490 1.417 . S
C1492 N1500 1.360 . S
C1493 C1489 1.414 . S
C1493 C1491 1.444 . S
C1493 C1498 1.385 . S
C1494 C1490 1.432 . S
C1494 C1491 1.317 . S
C1494 H1506 0.930 . S
C1495 C1497 1.392 . S
C1495 C1498 1.370 . S
C1495 H1507 0.931 . S
N1496 C1489 1.359 . S
N1496 C1497 1.327 . S
N1496 Tb1499 2.600 . S
C1497 C1495 1.392 . S
C1497 N1496 1.327 . S
C1497 H1504 0.930 . S
C1498 C1493 1.385 . S
C1498 C1495 1.370 . S
C1498 H1517 0.930 . S
Tb1499 N1496 2.600 . S
Tb1499 N1500 2.660 . S
Tb1499 O1533 2.362 . S
Tb1499 O1534 2.421 . S
Tb1499 O1538 2.546 . S
Tb1499 O1539 2.610 . S
Tb1499 O1541 2.320 . S
Tb1499 O1542 2.552 . S
Tb1499 O1543 2.413 . S
Tb1499 C1563 2.833 . S
N1500 C1492 1.360 . S
N1500 Tb1499 2.660 . S
N1500 C1501 1.305 . S
C1501 N1500 1.305 . S
C1501 C1503 1.407 . S
C1501 H1508 0.930 . S
C1502 C1490 1.410 . S
C1502 C1503 1.345 . S
C1502 H1510 0.930 . S
C1503 C1501 1.407 . S
C1503 C1502 1.345 . S
C1503 H1505 0.930 . S
H1504 C1497 0.930 . S
H1505 C1503 0.930 . S
H1506 C1494 0.930 . S
H1507 C1495 0.931 . S
H1508 C1501 0.930 . S
H1509 C1523 0.930 . S
H1510 C1502 0.930 . S
H1511 C1529 0.930 . S
H1512 C1520 0.930 . S
H1513 C1527 0.931 . S
H1514 C1491 0.929 . S
H1515 C1521 0.930 . S
H1516 C1554 0.930 . S
H1517 C1498 0.930 . S
H1518 C1553 0.929 . S
N1519 Tb1488 2.660 . S
N1519 C1520 1.305 . S
N1519 C1524 1.360 . S
C1520 H1512 0.930 . S
C1520 N1519 1.305 . S
C1520 C1523 1.407 . S
C1521 H1515 0.930 . S
C1521 C1522 1.410 . S
C1521 C1523 1.345 . S
C1522 C1521 1.410 . S
C1522 C1524 1.417 . S
C1522 C1554 1.432 . S
C1523 H1509 0.930 . S
C1523 C1520 1.407 . S
C1523 C1521 1.345 . S
C1524 N1519 1.360 . S
C1524 C1522 1.417 . S
C1524 C1528 1.432 . S
H1525 C1530 0.930 . S
N1526 Tb1488 2.600 . S
N1526 C1528 1.359 . S
N1526 C1529 1.327 . S
C1527 H1513 0.931 . S
C1527 C1529 1.392 . S
C1527 C1530 1.370 . S
C1528 C1524 1.432 . S
C1528 N1526 1.359 . S
C1528 C1531 1.414 . S
C1529 H1511 0.930 . S
C1529 N1526 1.327 . S
C1529 C1527 1.392 . S
C1530 H1525 0.930 . S
C1530 C1527 1.370 . S
C1530 C1531 1.385 . S
C1531 C1528 1.414 . S
C1531 C1530 1.385 . S
C1531 C1553 1.444 . S
O1532 Tb1488 2.546 . S
O1532 C1552 1.251 . S
O1533 Tb1488 2.610 . S
O1533 Tb1499 2.362 . S
O1533 C1544 1.283 . S
O1534 Tb1499 2.421 . S
O1534 C1551 1.262 . S
O1535 Tb1488 2.320 . S
O1535 C1551 1.260 . S
O1536 Tb1488 2.552 . S
O1536 C1544 1.243 . S
O1537 Tb1488 2.413 . S
O1537 C1552 1.256 . S
O1538 Tb1499 2.546 . S
O1538 C1563 1.251 . S
O1539 Tb1488 2.362 . S
O1539 Tb1499 2.610 . S
O1539 C1555 1.283 . S
O1540 Tb1488 2.421 . S
O1540 C1562 1.262 . S
O1541 Tb1499 2.320 . S
O1541 C1562 1.260 . S
O1542 Tb1499 2.552 . S
O1542 C1555 1.243 . S
O1543 Tb1499 2.413 . S
O1543 C1563 1.256 . S
C1544 O1533 1.283 . S
C1544 O1536 1.243 . S
C1545 C1547 1.382 . S
C1545 C1549 1.393 . S
C1545 C1552 1.500 . S
C1546 C1547 1.400 . S
C1546 C1548 1.384 . S
C1547 C1545 1.382 . S
C1547 C1546 1.400 . S
C1547 H1564 0.930 . S
C1548 C1546 1.384 . S
C1548 C1550 1.392 . S
C1548 H1565 0.931 . S
C1549 C1545 1.393 . S
C1549 C1550 1.401 . S
C1549 H1566 0.930 . S
C1550 C1548 1.392 . S
C1550 C1549 1.401 . S
C1550 H1567 0.930 . S
C1551 O1534 1.262 . S
C1551 O1535 1.260 . S
C1552 Tb1488 2.833 . S
C1552 O1532 1.251 . S
C1552 O1537 1.256 . S
C1552 C1545 1.500 . S
C1553 H1518 0.929 . S
C1553 C1531 1.444 . S
C1553 C1554 1.317 . S
C1554 H1516 0.930 . S
C1554 C1522 1.432 . S
C1554 C1553 1.317 . S
C1555 O1539 1.283 . S
C1555 O1542 1.243 . S
C1556 C1557 1.382 . S
C1556 C1560 1.393 . S
C1556 C1563 1.500 . S
C1557 C1556 1.382 . S
C1557 C1558 1.400 . S
C1557 H1568 0.930 . S
C1558 C1557 1.400 . S
C1558 C1559 1.384 . S
C1559 C1558 1.384 . S
C1559 C1561 1.392 . S
C1559 H1569 0.931 . S
C1560 C1556 1.393 . S
C1560 C1561 1.401 . S
C1560 H1570 0.930 . S
C1561 C1559 1.392 . S
C1561 C1560 1.401 . S
C1561 H1571 0.930 . S
C1562 O1540 1.262 . S
C1562 O1541 1.260 . S
C1563 Tb1499 2.833 . S
C1563 O1538 1.251 . S
C1563 O1543 1.256 . S
C1563 C1556 1.500 . S
H1564 C1547 0.930 . S
H1565 C1548 0.931 . S
H1566 C1549 0.930 . S
H1567 C1550 0.930 . S
H1568 C1557 0.930 . S
H1569 C1559 0.931 . S
H1570 C1560 0.930 . S
H1571 C1561 0.930 . S
Tb1572 N1603 2.652 1_556 S
Tb1572 N1610 2.633 . S
Tb1572 O1616 2.572 . S
Tb1572 O1617 2.589 1_556 S
Tb1572 O1619 2.278 1_556 S
Tb1572 O1620 2.547 . S
Tb1572 O1621 2.407 1_556 S
Tb1572 O1623 2.350 1_556 S
Tb1572 O1624 2.448 . S
Tb1572 C1636 2.844 . S
C1573 C1576 1.435 . S
C1573 C1577 1.425 . S
C1573 N1580 1.345 1_655 S
C1574 C1576 1.417 . S
C1574 C1578 1.432 . S
C1574 C1586 1.410 1_554 S
C1575 C1577 1.444 . S
C1575 C1578 1.317 . S
C1575 H1598 0.929 . S
C1576 C1573 1.435 . S
C1576 C1574 1.417 . S
C1576 N1584 1.360 1_655 S
C1577 C1573 1.425 . S
C1577 C1575 1.444 . S
C1577 C1582 1.385 . S
C1578 C1574 1.432 . S
C1578 C1575 1.317 . S
C1578 H1590 0.930 . S
C1579 C1581 1.392 . S
C1579 C1582 1.370 1_455 S
C1579 H1591 0.931 . S
N1580 C1573 1.345 1_455 S
N1580 C1581 1.327 . S
N1580 Tb1583 2.600 . S
C1581 C1579 1.392 . S
C1581 N1580 1.327 . S
C1581 H1588 0.930 . S
C1582 C1577 1.385 . S
C1582 C1579 1.370 1_655 S
C1582 H1601 0.930 . S
Tb1583 N1580 2.600 . S
Tb1583 N1584 2.660 . S
Tb1583 O1617 2.362 . S
Tb1583 O1618 2.421 . S
Tb1583 O1622 2.546 . S
Tb1583 O1623 2.610 . S
Tb1583 O1625 2.320 1_554 S
Tb1583 O1626 2.552 . S
Tb1583 O1627 2.413 1_455 S
Tb1583 C1647 2.833 1_455 S
N1584 C1576 1.360 1_455 S
N1584 Tb1583 2.660 . S
N1584 C1585 1.305 1_454 S
C1585 N1584 1.305 1_656 S
C1585 C1587 1.407 . S
C1585 H1592 0.930 1_655 S
C1586 C1574 1.410 1_556 S
C1586 C1587 1.345 . S
C1586 H1594 0.930 . S
C1587 C1585 1.407 . S
C1587 C1586 1.345 . S
C1587 H1589 0.930 . S
H1588 C1581 0.930 . S
H1589 C1587 0.930 . S
H1590 C1578 0.930 . S
H1591 C1579 0.931 . S
H1592 C1585 0.930 1_455 S
H1593 C1607 0.930 . S
H1594 C1586 0.930 . S
H1595 C1613 0.930 . S
H1596 C1604 0.930 . S
H1597 C1611 0.931 . S
H1598 C1575 0.929 . S
H1599 C1605 0.930 . S
H1600 C1638 0.930 1_554 S
H1601 C1582 0.930 . S
H1602 C1637 0.929 . S
N1603 Tb1572 2.652 1_554 S
N1603 C1604 1.305 . S
N1603 C1608 1.360 . S
C1604 H1596 0.930 . S
C1604 N1603 1.305 . S
C1604 C1607 1.407 . S
C1605 H1599 0.930 . S
C1605 C1606 1.410 . S
C1605 C1607 1.345 . S
C1606 C1605 1.410 . S
C1606 C1608 1.417 . S
C1606 C1638 1.432 1_554 S
C1607 H1593 0.930 . S
C1607 C1604 1.407 . S
C1607 C1605 1.345 . S
C1608 N1603 1.360 . S
C1608 C1606 1.417 . S
C1608 C1612 1.432 1_554 S
H1609 C1614 0.930 . S
N1610 Tb1572 2.633 . S
N1610 C1612 1.359 . S
N1610 C1613 1.327 . S
C1611 H1597 0.931 . S
C1611 C1613 1.392 . S
C1611 C1614 1.370 . S
C1612 C1608 1.432 1_556 S
C1612 N1610 1.359 . S
C1612 C1615 1.414 . S
C1613 H1595 0.930 . S
C1613 N1610 1.327 . S
C1613 C1611 1.392 . S
C1614 H1609 0.930 . S
C1614 C1611 1.370 . S
C1614 C1615 1.385 . S
C1615 C1612 1.414 . S
C1615 C1614 1.385 . S
C1615 C1637 1.444 . S
O1616 Tb1572 2.572 . S
O1616 C1636 1.251 . S
O1617 Tb1572 2.589 1_554 S
O1617 Tb1583 2.362 . S
O1617 C1628 1.283 . S
O1618 Tb1583 2.421 . S
O1618 C1635 1.262 . S
O1619 Tb1572 2.278 1_554 S
O1619 C1635 1.260 . S
O1620 Tb1572 2.547 . S
O1620 C1628 1.243 1_556 S
O1621 Tb1572 2.407 1_554 S
O1621 C1636 1.256 1_554 S
O1622 Tb1583 2.546 . S
O1622 C1647 1.251 1_455 S
O1623 Tb1572 2.350 1_554 S
O1623 Tb1583 2.610 . S
O1623 C1639 1.283 . S
O1624 Tb1572 2.448 . S
O1624 C1646 1.262 . S
O1625 Tb1583 2.320 1_556 S
O1625 C1646 1.260 . S
O1626 Tb1583 2.552 . S
O1626 C1639 1.243 . S
O1627 Tb1583 2.413 1_655 S
O1627 C1647 1.256 . S
C1628 O1617 1.283 . S
C1628 O1620 1.243 1_554 S
C1629 C1631 1.382 . S
C1629 C1633 1.393 . S
C1629 C1636 1.500 . S
C1630 C1631 1.400 . S
C1630 C1632 1.384 . S
C1631 C1629 1.382 . S
C1631 C1630 1.400 . S
C1631 H1648 0.930 1_556 S
C1632 C1630 1.384 . S
C1632 C1634 1.392 . S
C1632 H1649 0.931 . S
C1633 C1629 1.393 . S
C1633 C1634 1.401 . S
C1633 H1650 0.930 . S
C1634 C1632 1.392 . S
C1634 C1633 1.401 . S
C1634 H1651 0.930 . S
C1635 O1618 1.262 . S
C1635 O1619 1.260 . S
C1636 Tb1572 2.844 . S
C1636 O1616 1.251 . S
C1636 O1621 1.256 1_556 S
C1636 C1629 1.500 . S
C1637 H1602 0.929 . S
C1637 C1615 1.444 . S
C1637 C1638 1.317 . S
C1638 H1600 0.930 1_556 S
C1638 C1606 1.432 1_556 S
C1638 C1637 1.317 . S
C1639 O1623 1.283 . S
C1639 O1626 1.243 . S
C1640 C1641 1.382 . S
C1640 C1644 1.393 . S
C1640 C1647 1.500 . S
C1641 C1640 1.382 . S
C1641 C1642 1.400 . S
C1641 H1652 0.930 . S
C1642 C1641 1.400 . S
C1642 C1643 1.384 . S
C1643 C1642 1.384 . S
C1643 C1645 1.392 . S
C1643 H1653 0.931 . S
C1644 C1640 1.393 . S
C1644 C1645 1.401 . S
C1644 H1654 0.930 . S
C1645 C1643 1.392 . S
C1645 C1644 1.401 . S
C1645 H1655 0.930 . S
C1646 O1624 1.262 . S
C1646 O1625 1.260 . S
C1647 Tb1583 2.833 1_655 S
C1647 O1622 1.251 1_655 S
C1647 O1627 1.256 . S
C1647 C1640 1.500 . S
H1648 C1631 0.930 1_554 S
H1649 C1632 0.931 . S
H1650 C1633 0.930 . S
H1651 C1634 0.930 . S
H1652 C1641 0.930 . S
H1653 C1643 0.931 . S
H1654 C1644 0.930 . S
H1655 C1645 0.930 . S
H1656 C1662 0.930 . S
H1657 C1666 0.930 . S
H1658 C1671 0.929 1_655 S
H1659 C1669 0.929 . S
H1660 C1664 0.929 . S
H1661 C1670 0.929 1_554 S
C1662 H1656 0.930 . S
C1662 C1663 1.367 . S
C1662 C1670 1.378 . S
C1663 C1662 1.367 . S
C1663 C1671 1.433 . S
C1664 H1660 0.929 . S
C1664 C1666 1.378 . S
C1664 C1668 1.350 . S
C1665 C1668 1.463 . S
C1665 C1670 1.350 . S
C1665 N1673 1.427 . S
C1666 H1657 0.930 . S
C1666 C1664 1.378 . S
C1666 C1667 1.367 1_556 S
C1667 C1666 1.367 1_554 S
C1667 C1669 1.433 . S
C1668 C1664 1.350 . S
C1668 C1665 1.463 . S
C1668 N1672 1.427 1_556 S
C1669 H1659 0.929 . S
C1669 C1667 1.433 . S
C1669 N1672 1.384 . S
C1670 H1661 0.929 1_556 S
C1670 C1662 1.378 . S
C1670 C1665 1.350 . S
C1671 H1658 0.929 1_455 S
C1671 C1663 1.433 . S
C1671 N1673 1.384 . S
N1672 C1668 1.427 1_554 S
N1672 C1669 1.384 . S
N1673 C1665 1.427 . S
N1673 C1671 1.384 . S
H1674 C1680 0.930 . S
H1675 C1684 0.930 . S
H1676 C1689 0.929 . S
H1677 C1687 0.929 . S
H1678 C1682 0.929 . S
H1679 C1688 0.929 . S
C1680 H1674 0.930 . S
C1680 C1681 1.367 . S
C1680 C1688 1.378 . S
C1681 C1680 1.367 . S
C1681 C1689 1.433 . S
C1682 H1678 0.929 . S
C1682 C1684 1.378 . S
C1682 C1686 1.350 . S
C1683 C1686 1.463 . S
C1683 C1688 1.350 . S
C1683 N1691 1.427 . S
C1684 H1675 0.930 . S
C1684 C1682 1.378 . S
C1684 C1685 1.367 . S
C1685 C1684 1.367 . S
C1685 C1687 1.433 . S
C1686 C1682 1.350 . S
C1686 C1683 1.463 . S
C1686 N1690 1.427 . S
C1687 H1677 0.929 . S
C1687 C1685 1.433 . S
C1687 N1690 1.384 . S
C1688 H1679 0.929 . S
C1688 C1680 1.378 . S
C1688 C1683 1.350 . S
C1689 H1676 0.929 . S
C1689 C1681 1.433 . S
C1689 N1691 1.384 . S
N1690 C1686 1.427 . S
N1690 C1687 1.384 . S
N1691 C1683 1.427 . S
N1691 C1689 1.384 . S
H1692 C1698 0.930 . S
H1693 C1702 0.930 . S
H1694 C1707 0.929 . S
H1695 C1705 0.929 . S
H1696 C1700 0.929 . S
H1697 C1706 0.929 . S
C1698 H1692 0.930 . S
C1698 C1699 1.367 . S
C1698 C1706 1.378 . S
C1699 C1698 1.367 . S
C1699 C1707 1.433 . S
C1700 H1696 0.929 . S
C1700 C1702 1.378 . S
C1700 C1704 1.350 . S
C1701 C1704 1.463 . S
C1701 C1706 1.350 . S
C1701 N1709 1.427 . S
C1702 H1693 0.930 . S
C1702 C1700 1.378 . S
C1702 C1703 1.367 . S
C1703 C1702 1.367 . S
C1703 C1705 1.433 . S
C1704 C1700 1.350 . S
C1704 C1701 1.463 . S
C1704 N1708 1.427 . S
C1705 H1695 0.929 . S
C1705 C1703 1.433 . S
C1705 N1708 1.384 . S
C1706 H1697 0.929 . S
C1706 C1698 1.378 . S
C1706 C1701 1.350 . S
C1707 H1694 0.929 . S
C1707 C1699 1.433 . S
C1707 N1709 1.384 . S
N1708 C1704 1.427 . S
N1708 C1705 1.384 . S
N1709 C1701 1.427 . S
N1709 C1707 1.384 . S
H1710 C1716 0.930 . S
H1711 C1720 0.930 . S
H1712 C1725 0.929 . S
H1713 C1723 0.929 . S
H1714 C1718 0.929 . S
H1715 C1724 0.929 . S
C1716 H1710 0.930 . S
C1716 C1717 1.367 . S
C1716 C1724 1.378 . S
C1717 C1716 1.367 . S
C1717 C1725 1.433 . S
C1718 H1714 0.929 . S
C1718 C1720 1.378 . S
C1718 C1722 1.350 . S
C1719 C1722 1.463 . S
C1719 C1724 1.350 . S
C1719 N1727 1.427 . S
C1720 H1711 0.930 . S
C1720 C1718 1.378 . S
C1720 C1721 1.367 . S
C1721 C1720 1.367 . S
C1721 C1723 1.433 . S
C1722 C1718 1.350 . S
C1722 C1719 1.463 . S
C1722 N1726 1.427 . S
C1723 H1713 0.929 . S
C1723 C1721 1.433 . S
C1723 N1726 1.384 . S
C1724 H1715 0.929 . S
C1724 C1716 1.378 . S
C1724 C1719 1.350 . S
C1725 H1712 0.929 . S
C1725 C1717 1.433 . S
C1725 N1727 1.384 . S
N1726 C1722 1.427 . S
N1726 C1723 1.384 . S
N1727 C1719 1.427 . S
N1727 C1725 1.384 . S
H1728 C1734 0.930 . S
H1729 C1738 0.930 . S
H1730 C1743 0.929 . S
H1731 C1741 0.929 . S
H1732 C1736 0.929 . S
H1733 C1742 0.929 . S
C1734 H1728 0.930 . S
C1734 C1735 1.367 1_655 S
C1734 C1742 1.378 . S
C1735 C1734 1.367 1_455 S
C1735 C1743 1.433 . S
C1736 H1732 0.929 . S
C1736 C1738 1.378 . S
C1736 C1740 1.350 . S
C1737 C1740 1.463 . S
C1737 C1742 1.350 1_455 S
C1737 N1745 1.427 . S
C1738 H1729 0.930 . S
C1738 C1736 1.378 . S
C1738 C1739 1.367 . S
C1739 C1738 1.367 . S
C1739 C1741 1.433 . S
C1740 C1736 1.350 . S
C1740 C1737 1.463 . S
C1740 N1744 1.427 . S
C1741 H1731 0.929 . S
C1741 C1739 1.433 . S
C1741 N1744 1.384 . S
C1742 H1733 0.929 . S
C1742 C1734 1.378 . S
C1742 C1737 1.350 1_655 S
C1743 H1730 0.929 . S
C1743 C1735 1.433 . S
C1743 N1745 1.384 . S
N1744 C1740 1.427 . S
N1744 C1741 1.384 . S
N1745 C1737 1.427 . S
N1745 C1743 1.384 . S
H1746 C1752 0.930 . S
H1747 C1756 0.930 . S
H1748 C1761 0.929 . S
H1749 C1759 0.929 . S
H1750 C1754 0.929 . S
H1751 C1760 0.929 . S
C1752 H1746 0.930 . S
C1752 C1753 1.367 . S
C1752 C1760 1.378 . S
C1753 C1752 1.367 . S
C1753 C1761 1.433 . S
C1754 H1750 0.929 . S
C1754 C1756 1.378 . S
C1754 C1758 1.350 . S
C1755 C1758 1.463 . S
C1755 C1760 1.350 . S
C1755 N1763 1.427 . S
C1756 H1747 0.930 . S
C1756 C1754 1.378 . S
C1756 C1757 1.367 . S
C1757 C1756 1.367 . S
C1757 C1759 1.433 . S
C1758 C1754 1.350 . S
C1758 C1755 1.463 . S
C1758 N1762 1.427 . S
C1759 H1749 0.929 . S
C1759 C1757 1.433 . S
C1759 N1762 1.384 . S
C1760 H1751 0.929 . S
C1760 C1752 1.378 . S
C1760 C1755 1.350 . S
C1761 H1748 0.929 . S
C1761 C1753 1.433 . S
C1761 N1763 1.384 . S
N1762 C1758 1.427 . S
N1762 C1759 1.384 . S
N1763 C1755 1.427 . S
N1763 C1761 1.384 . S
H1764 C1770 0.930 . S
H1765 C1774 0.930 . S
H1766 C1779 0.929 . S
H1767 C1777 0.929 . S
H1768 C1772 0.929 . S
H1769 C1778 0.929 . S
C1770 H1764 0.930 . S
C1770 C1771 1.367 . S
C1770 C1778 1.378 . S
C1771 C1770 1.367 . S
C1771 C1779 1.433 . S
C1772 H1768 0.929 . S
C1772 C1774 1.378 . S
C1772 C1776 1.350 . S
C1773 C1776 1.463 . S
C1773 C1778 1.350 . S
C1773 N1781 1.427 . S
C1774 H1765 0.930 . S
C1774 C1772 1.378 . S
C1774 C1775 1.367 . S
C1775 C1774 1.367 . S
C1775 C1777 1.433 . S
C1776 C1772 1.350 . S
C1776 C1773 1.463 . S
C1776 N1780 1.427 . S
C1777 H1767 0.929 . S
C1777 C1775 1.433 . S
C1777 N1780 1.384 . S
C1778 H1769 0.929 . S
C1778 C1770 1.378 . S
C1778 C1773 1.350 . S
C1779 H1766 0.929 . S
C1779 C1771 1.433 . S
C1779 N1781 1.384 . S
N1780 C1776 1.427 . S
N1780 C1777 1.384 . S
N1781 C1773 1.427 . S
N1781 C1779 1.384 . S
H1782 C1788 0.930 . S
H1783 C1792 0.930 . S
H1784 C1797 0.929 . S
H1785 C1795 0.929 . S
H1786 C1790 0.929 . S
H1787 C1796 0.929 . S
C1788 H1782 0.930 . S
C1788 C1789 1.367 . S
C1788 C1796 1.378 . S
C1789 C1788 1.367 . S
C1789 C1797 1.433 . S
C1790 H1786 0.929 . S
C1790 C1792 1.378 . S
C1790 C1794 1.350 . S
C1791 C1794 1.463 . S
C1791 C1796 1.350 . S
C1791 N1799 1.427 . S
C1792 H1783 0.930 . S
C1792 C1790 1.378 . S
C1792 C1793 1.367 . S
C1793 C1792 1.367 . S
C1793 C1795 1.433 . S
C1794 C1790 1.350 . S
C1794 C1791 1.463 . S
C1794 N1798 1.427 . S
C1795 H1785 0.929 . S
C1795 C1793 1.433 . S
C1795 N1798 1.384 . S
C1796 H1787 0.929 . S
C1796 C1788 1.378 . S
C1796 C1791 1.350 . S
C1797 H1784 0.929 . S
C1797 C1789 1.433 . S
C1797 N1799 1.384 . S
N1798 C1794 1.427 . S
N1798 C1795 1.384 . S
N1799 C1791 1.427 . S
N1799 C1797 1.384 . S
H1800 C1806 0.930 . S
H1801 C1810 0.930 . S
H1802 C1815 0.929 1_455 S
H1803 C1813 0.929 . S
H1804 C1808 0.929 . S
H1805 C1814 0.929 . S
C1806 H1800 0.930 . S
C1806 C1807 1.367 . S
C1806 C1814 1.378 . S
C1807 C1806 1.367 . S
C1807 C1815 1.433 . S
C1808 H1804 0.929 . S
C1808 C1810 1.378 . S
C1808 C1812 1.350 . S
C1809 C1812 1.455 1_655 S
C1809 C1814 1.357 . S
C1809 N1817 1.427 1_655 S
C1810 H1801 0.930 . S
C1810 C1808 1.378 . S
C1810 C1811 1.367 . S
C1811 C1810 1.367 . S
C1811 C1813 1.433 . S
C1812 C1808 1.350 . S
C1812 C1809 1.455 1_455 S
C1812 N1816 1.427 . S
C1813 H1803 0.929 . S
C1813 C1811 1.433 . S
C1813 N1816 1.384 . S
C1814 H1805 0.929 . S
C1814 C1806 1.378 . S
C1814 C1809 1.357 . S
C1815 H1802 0.929 1_655 S
C1815 C1807 1.433 . S
C1815 N1817 1.384 1_655 S
N1816 C1812 1.427 . S
N1816 C1813 1.384 . S
N1817 C1809 1.427 1_455 S
N1817 C1815 1.384 1_455 S
H1818 C1824 0.930 . S
H1819 C1828 0.930 . S
H1820 C1833 0.929 . S
H1821 C1831 0.929 . S
H1822 C1826 0.929 . S
H1823 C1832 0.929 . S
C1824 H1818 0.930 . S
C1824 C1825 1.367 . S
C1824 C1832 1.378 . S
C1825 C1824 1.367 . S
C1825 C1833 1.433 . S
C1826 H1822 0.929 . S
C1826 C1828 1.378 . S
C1826 C1830 1.350 . S
C1827 C1830 1.463 . S
C1827 C1832 1.350 . S
C1827 N1835 1.427 . S
C1828 H1819 0.930 . S
C1828 C1826 1.378 . S
C1828 C1829 1.367 . S
C1829 C1828 1.367 . S
C1829 C1831 1.433 . S
C1830 C1826 1.350 . S
C1830 C1827 1.463 . S
C1830 N1834 1.427 . S
C1831 H1821 0.929 . S
C1831 C1829 1.433 . S
C1831 N1834 1.384 . S
C1832 H1823 0.929 . S
C1832 C1824 1.378 . S
C1832 C1827 1.350 . S
C1833 H1820 0.929 . S
C1833 C1825 1.433 . S
C1833 N1835 1.384 . S
N1834 C1830 1.427 . S
N1834 C1831 1.384 . S
N1835 C1827 1.427 . S
N1835 C1833 1.384 . S
H1836 C1842 0.930 . S
H1837 C1846 0.930 . S
H1838 C1851 0.929 . S
H1839 C1849 0.929 . S
H1840 C1844 0.929 . S
H1841 C1850 0.929 . S
C1842 H1836 0.930 . S
C1842 C1843 1.367 . S
C1842 C1850 1.378 . S
C1843 C1842 1.367 . S
C1843 C1851 1.433 . S
C1844 H1840 0.929 . S
C1844 C1846 1.378 . S
C1844 C1848 1.350 . S
C1845 C1848 1.463 . S
C1845 C1850 1.350 . S
C1845 N1853 1.427 . S
C1846 H1837 0.930 . S
C1846 C1844 1.378 . S
C1846 C1847 1.367 . S
C1847 C1846 1.367 . S
C1847 C1849 1.433 . S
C1848 C1844 1.350 . S
C1848 C1845 1.463 . S
C1848 N1852 1.427 . S
C1849 H1839 0.929 . S
C1849 C1847 1.433 . S
C1849 N1852 1.384 . S
C1850 H1841 0.929 . S
C1850 C1842 1.378 . S
C1850 C1845 1.350 . S
C1851 H1838 0.929 . S
C1851 C1843 1.433 . S
C1851 N1853 1.384 . S
N1852 C1848 1.427 . S
N1852 C1849 1.384 . S
N1853 C1845 1.427 . S
N1853 C1851 1.384 . S
H1854 C1860 0.930 . S
H1855 C1864 0.930 . S
H1856 C1869 0.929 . S
H1857 C1867 0.929 . S
H1858 C1862 0.929 . S
H1859 C1868 0.929 . S
C1860 H1854 0.930 . S
C1860 C1861 1.367 . S
C1860 C1868 1.378 . S
C1861 C1860 1.367 . S
C1861 C1869 1.433 . S
C1862 H1858 0.929 . S
C1862 C1864 1.378 . S
C1862 C1866 1.350 . S
C1863 C1866 1.463 . S
C1863 C1868 1.350 . S
C1863 N1871 1.427 . S
C1864 H1855 0.930 . S
C1864 C1862 1.378 . S
C1864 C1865 1.367 . S
C1865 C1864 1.367 . S
C1865 C1867 1.433 . S
C1866 C1862 1.350 . S
C1866 C1863 1.463 . S
C1866 N1870 1.427 . S
C1867 H1857 0.929 . S
C1867 C1865 1.433 . S
C1867 N1870 1.384 . S
C1868 H1859 0.929 . S
C1868 C1860 1.378 . S
C1868 C1863 1.350 . S
C1869 H1856 0.929 . S
C1869 C1861 1.433 . S
C1869 N1871 1.384 . S
N1870 C1866 1.427 . S
N1870 C1867 1.384 . S
N1871 C1863 1.427 . S
N1871 C1869 1.384 . S
H1872 C1878 0.930 . S
H1873 C1882 0.930 . S
H1874 C1887 0.929 . S
H1875 C1885 0.929 . S
H1876 C1880 0.929 1_655 S
H1877 C1886 0.929 . S
C1878 H1872 0.930 . S
C1878 C1879 1.367 1_455 S
C1878 C1886 1.378 . S
C1879 C1878 1.367 1_655 S
C1879 C1887 1.433 . S
C1880 H1876 0.929 1_455 S
C1880 C1882 1.378 . S
C1880 C1884 1.350 . S
C1881 C1884 1.463 . S
C1881 C1886 1.350 . S
C1881 N1889 1.427 1_455 S
C1882 H1873 0.930 . S
C1882 C1880 1.378 . S
C1882 C1883 1.367 . S
C1883 C1882 1.367 . S
C1883 C1885 1.433 . S
C1884 C1880 1.350 . S
C1884 C1881 1.463 . S
C1884 N1888 1.427 . S
C1885 H1875 0.929 . S
C1885 C1883 1.433 . S
C1885 N1888 1.384 . S
C1886 H1877 0.929 . S
C1886 C1878 1.378 . S
C1886 C1881 1.350 . S
C1887 H1874 0.929 . S
C1887 C1879 1.433 . S
C1887 N1889 1.384 . S
N1888 C1884 1.427 . S
N1888 C1885 1.384 . S
N1889 C1881 1.427 1_655 S
N1889 C1887 1.384 . S
H1890 C1896 0.930 . S
H1891 C1900 0.930 . S
H1892 C1905 0.929 . S
H1893 C1903 0.929 . S
H1894 C1898 0.929 . S
H1895 C1904 0.929 . S
C1896 H1890 0.930 . S
C1896 C1897 1.367 . S
C1896 C1904 1.378 . S
C1897 C1896 1.367 . S
C1897 C1905 1.433 . S
C1898 H1894 0.929 . S
C1898 C1900 1.378 . S
C1898 C1902 1.350 . S
C1899 C1902 1.463 . S
C1899 C1904 1.350 . S
C1899 N1907 1.427 . S
C1900 H1891 0.930 . S
C1900 C1898 1.378 . S
C1900 C1901 1.367 . S
C1901 C1900 1.367 . S
C1901 C1903 1.433 . S
C1902 C1898 1.350 . S
C1902 C1899 1.463 . S
C1902 N1906 1.427 . S
C1903 H1893 0.929 . S
C1903 C1901 1.433 . S
C1903 N1906 1.384 . S
C1904 H1895 0.929 . S
C1904 C1896 1.378 . S
C1904 C1899 1.350 . S
C1905 H1892 0.929 . S
C1905 C1897 1.433 . S
C1905 N1907 1.384 . S
N1906 C1902 1.427 . S
N1906 C1903 1.384 . S
N1907 C1899 1.427 . S
N1907 C1905 1.384 . S
H1908 C1914 0.930 . S
H1909 C1918 0.930 . S
H1910 C1923 0.929 . S
H1911 C1921 0.929 . S
H1912 C1916 0.929 . S
H1913 C1922 0.929 . S
C1914 H1908 0.930 . S
C1914 C1915 1.367 . S
C1914 C1922 1.378 . S
C1915 C1914 1.367 . S
C1915 C1923 1.433 . S
C1916 H1912 0.929 . S
C1916 C1918 1.378 . S
C1916 C1920 1.350 . S
C1917 C1920 1.463 . S
C1917 C1922 1.350 . S
C1917 N1925 1.427 . S
C1918 H1909 0.930 . S
C1918 C1916 1.378 . S
C1918 C1919 1.367 . S
C1919 C1918 1.367 . S
C1919 C1921 1.433 . S
C1920 C1916 1.350 . S
C1920 C1917 1.463 . S
C1920 N1924 1.427 . S
C1921 H1911 0.929 . S
C1921 C1919 1.433 . S
C1921 N1924 1.384 . S
C1922 H1913 0.929 . S
C1922 C1914 1.378 . S
C1922 C1917 1.350 . S
C1923 H1910 0.929 . S
C1923 C1915 1.433 . S
C1923 N1925 1.384 . S
N1924 C1920 1.427 . S
N1924 C1921 1.384 . S
N1925 C1917 1.427 . S
N1925 C1923 1.384 . S
H1926 C1932 0.930 . S
H1927 C1936 0.930 . S
H1928 C1941 0.929 . S
H1929 C1939 0.929 . S
H1930 C1934 0.929 . S
H1931 C1940 0.929 . S
C1932 H1926 0.930 . S
C1932 C1933 1.367 . S
C1932 C1940 1.378 . S
C1933 C1932 1.367 . S
C1933 C1941 1.433 . S
C1934 H1930 0.929 . S
C1934 C1936 1.378 . S
C1934 C1938 1.350 . S
C1935 C1938 1.463 . S
C1935 C1940 1.350 . S
C1935 N1943 1.427 . S
C1936 H1927 0.930 . S
C1936 C1934 1.378 . S
C1936 C1937 1.367 . S
C1937 C1936 1.367 . S
C1937 C1939 1.433 . S
C1938 C1934 1.350 . S
C1938 C1935 1.463 . S
C1938 N1942 1.427 . S
C1939 H1929 0.929 . S
C1939 C1937 1.433 . S
C1939 N1942 1.384 . S
C1940 H1931 0.929 . S
C1940 C1932 1.378 . S
C1940 C1935 1.350 . S
C1941 H1928 0.929 . S
C1941 C1933 1.433 . S
C1941 N1943 1.384 . S
N1942 C1938 1.427 . S
N1942 C1939 1.384 . S
N1943 C1935 1.427 . S
N1943 C1941 1.384 . S
H1944 C1950 0.930 . S
H1945 C1954 0.930 . S
H1946 C1959 0.929 . S
H1947 C1957 0.929 1_556 S
H1948 C1952 0.929 . S
H1949 C1958 0.929 . S
C1950 H1944 0.930 . S
C1950 C1951 1.367 1_556 S
C1950 C1958 1.378 . S
C1951 C1950 1.367 1_554 S
C1951 C1959 1.433 . S
C1952 H1948 0.929 . S
C1952 C1954 1.378 1_565 S
C1952 C1956 1.350 . S
C1953 C1956 1.463 . S
C1953 C1958 1.350 1_554 S
C1953 N1961 1.427 . S
C1954 H1945 0.930 . S
C1954 C1952 1.378 1_545 S
C1954 C1955 1.367 . S
C1955 C1954 1.367 . S
C1955 C1957 1.433 . S
C1956 C1952 1.350 . S
C1956 C1953 1.463 . S
C1956 N1960 1.427 . S
C1957 H1947 0.929 1_554 S
C1957 C1955 1.433 . S
C1957 N1960 1.384 1_545 S
C1958 H1949 0.929 . S
C1958 C1950 1.378 . S
C1958 C1953 1.350 1_556 S
C1959 H1946 0.929 . S
C1959 C1951 1.433 . S
C1959 N1961 1.384 . S
N1960 C1956 1.427 . S
N1960 C1957 1.384 1_565 S
N1961 C1953 1.427 . S
N1961 C1959 1.384 . S
H1962 C1968 0.930 . S
H1963 C1972 0.930 . S
H1964 C1977 0.929 . S
H1965 C1975 0.929 . S
H1966 C1970 0.929 . S
H1967 C1976 0.929 . S
C1968 H1962 0.930 . S
C1968 C1969 1.367 1_554 S
C1968 C1976 1.378 . S
C1969 C1968 1.367 1_556 S
C1969 C1977 1.433 . S
C1970 H1966 0.929 . S
C1970 C1972 1.378 . S
C1970 C1974 1.350 . S
C1971 C1974 1.463 . S
C1971 C1976 1.350 1_556 S
C1971 N1979 1.427 . S
C1972 H1963 0.930 . S
C1972 C1970 1.378 . S
C1972 C1973 1.359 1_556 S
C1973 C1972 1.359 1_554 S
C1973 C1975 1.438 . S
C1974 C1970 1.350 . S
C1974 C1971 1.463 . S
C1974 N1978 1.427 1_556 S
C1975 H1965 0.929 . S
C1975 C1973 1.438 . S
C1975 N1978 1.384 . S
C1976 H1967 0.929 . S
C1976 C1968 1.378 . S
C1976 C1971 1.350 1_554 S
C1977 H1964 0.929 . S
C1977 C1969 1.433 . S
C1977 N1979 1.384 . S
N1978 C1974 1.427 1_554 S
N1978 C1975 1.384 . S
N1979 C1971 1.427 . S
N1979 C1977 1.384 . S
H1980 C1986 0.930 . S
H1981 C1990 0.930 . S
H1982 C1995 0.929 . S
H1983 C1993 0.929 . S
H1984 C1988 0.929 . S
H1985 C1994 0.929 . S
C1986 H1980 0.930 . S
C1986 C1987 1.367 . S
C1986 C1994 1.378 . S
C1987 C1986 1.367 . S
C1987 C1995 1.433 . S
C1988 H1984 0.929 . S
C1988 C1990 1.378 . S
C1988 C1992 1.350 . S
C1989 C1992 1.463 . S
C1989 C1994 1.350 . S
C1989 N1997 1.427 . S
C1990 H1981 0.930 . S
C1990 C1988 1.378 . S
C1990 C1991 1.367 . S
C1991 C1990 1.367 . S
C1991 C1993 1.433 . S
C1992 C1988 1.350 . S
C1992 C1989 1.463 . S
C1992 N1996 1.427 . S
C1993 H1983 0.929 . S
C1993 C1991 1.433 . S
C1993 N1996 1.384 . S
C1994 H1985 0.929 . S
C1994 C1986 1.378 . S
C1994 C1989 1.350 . S
C1995 H1982 0.929 . S
C1995 C1987 1.433 . S
C1995 N1997 1.384 . S
N1996 C1992 1.427 . S
N1996 C1993 1.384 . S
N1997 C1989 1.427 . S
N1997 C1995 1.384 . S
H1998 C2004 0.930 . S
H1999 C2008 0.949 . S
H2000 C2013 0.929 . S
H2001 C2011 0.929 1_455 S
H2002 C2006 0.929 . S
H2003 C2012 0.929 . S
C2004 H1998 0.930 . S
C2004 C2005 1.367 . S
C2004 C2012 1.378 . S
C2005 C2004 1.367 . S
C2005 C2013 1.433 . S
C2006 H2002 0.929 . S
C2006 C2008 1.355 1_655 S
C2006 C2010 1.350 . S
C2007 C2010 1.463 . S
C2007 C2012 1.350 . S
C2007 N2015 1.427 . S
C2008 H1999 0.949 . S
C2008 C2006 1.355 1_455 S
C2008 C2009 1.371 . S
C2009 C2008 1.371 . S
C2009 C2011 1.433 1_455 S
C2010 C2006 1.350 . S
C2010 C2007 1.463 . S
C2010 N2014 1.427 . S
C2011 H2001 0.929 1_655 S
C2011 C2009 1.433 1_655 S
C2011 N2014 1.384 . S
C2012 H2003 0.929 . S
C2012 C2004 1.378 . S
C2012 C2007 1.350 . S
C2013 H2000 0.929 . S
C2013 C2005 1.433 . S
C2013 N2015 1.384 . S
N2014 C2010 1.427 . S
N2014 C2011 1.384 . S
N2015 C2007 1.427 . S
N2015 C2013 1.384 . S
H2016 C2022 0.930 . S
H2017 C2026 0.930 . S
H2018 C2031 0.929 . S
H2019 C2029 0.929 . S
H2020 C2024 0.929 . S
H2021 C2030 0.929 . S
C2022 H2016 0.930 . S
C2022 C2023 1.367 . S
C2022 C2030 1.378 . S
C2023 C2022 1.367 . S
C2023 C2031 1.433 . S
C2024 H2020 0.929 . S
C2024 C2026 1.378 . S
C2024 C2028 1.350 . S
C2025 C2028 1.463 . S
C2025 C2030 1.350 . S
C2025 N2033 1.427 . S
C2026 H2017 0.930 . S
C2026 C2024 1.378 . S
C2026 C2027 1.367 . S
C2027 C2026 1.367 . S
C2027 C2029 1.433 . S
C2028 C2024 1.350 . S
C2028 C2025 1.463 . S
C2028 N2032 1.427 . S
C2029 H2019 0.929 . S
C2029 C2027 1.433 . S
C2029 N2032 1.384 . S
C2030 H2021 0.929 . S
C2030 C2022 1.378 . S
C2030 C2025 1.350 . S
C2031 H2018 0.929 . S
C2031 C2023 1.433 . S
C2031 N2033 1.384 . S
N2032 C2028 1.427 . S
N2032 C2029 1.384 . S
N2033 C2025 1.427 . S
N2033 C2031 1.384 . S
H2034 C2040 0.930 . S
H2035 C2044 0.930 . S
H2036 C2049 0.929 . S
H2037 C2047 0.929 . S
H2038 C2042 0.929 . S
H2039 C2048 0.929 . S
C2040 H2034 0.930 . S
C2040 C2041 1.367 . S
C2040 C2048 1.378 . S
C2041 C2040 1.367 . S
C2041 C2049 1.433 . S
C2042 H2038 0.929 . S
C2042 C2044 1.378 . S
C2042 C2046 1.350 . S
C2043 C2046 1.463 . S
C2043 C2048 1.350 . S
C2043 N2051 1.427 . S
C2044 H2035 0.930 . S
C2044 C2042 1.378 . S
C2044 C2045 1.367 . S
C2045 C2044 1.367 . S
C2045 C2047 1.433 . S
C2046 C2042 1.350 . S
C2046 C2043 1.463 . S
C2046 N2050 1.427 . S
C2047 H2037 0.929 . S
C2047 C2045 1.433 . S
C2047 N2050 1.384 . S
C2048 H2039 0.929 . S
C2048 C2040 1.378 . S
C2048 C2043 1.350 . S
C2049 H2036 0.929 . S
C2049 C2041 1.433 . S
C2049 N2051 1.384 . S
N2050 C2046 1.427 . S
N2050 C2047 1.384 . S
N2051 C2043 1.427 . S
N2051 C2049 1.384 . S
H2052 C2058 0.930 . S
H2053 C2062 0.930 . S
H2054 C2067 0.929 . S
H2055 C2065 0.929 . S
H2056 C2060 0.929 . S
H2057 C2066 0.929 . S
C2058 H2052 0.930 . S
C2058 C2059 1.367 . S
C2058 C2066 1.378 . S
C2059 C2058 1.367 . S
C2059 C2067 1.433 . S
C2060 H2056 0.929 . S
C2060 C2062 1.378 . S
C2060 C2064 1.350 . S
C2061 C2064 1.463 . S
C2061 C2066 1.350 . S
C2061 N2069 1.427 . S
C2062 H2053 0.930 . S
C2062 C2060 1.378 . S
C2062 C2063 1.367 . S
C2063 C2062 1.367 . S
C2063 C2065 1.433 . S
C2064 C2060 1.350 . S
C2064 C2061 1.463 . S
C2064 N2068 1.427 . S
C2065 H2055 0.929 . S
C2065 C2063 1.433 . S
C2065 N2068 1.384 . S
C2066 H2057 0.929 . S
C2066 C2058 1.378 . S
C2066 C2061 1.350 . S
C2067 H2054 0.929 . S
C2067 C2059 1.433 . S
C2067 N2069 1.384 . S
N2068 C2064 1.427 . S
N2068 C2065 1.384 . S
N2069 C2061 1.427 . S
N2069 C2067 1.384 . S
H2070 C2076 0.930 . S
H2071 C2080 0.930 . S
H2072 C2085 0.929 . S
H2073 C2083 0.929 . S
H2074 C2078 0.929 . S
H2075 C2084 0.929 . S
C2076 H2070 0.930 . S
C2076 C2077 1.367 . S
C2076 C2084 1.378 . S
C2077 C2076 1.367 . S
C2077 C2085 1.433 . S
C2078 H2074 0.929 . S
C2078 C2080 1.378 . S
C2078 C2082 1.350 . S
C2079 C2082 1.463 . S
C2079 C2084 1.350 . S
C2079 N2087 1.427 . S
C2080 H2071 0.930 . S
C2080 C2078 1.378 . S
C2080 C2081 1.367 . S
C2081 C2080 1.367 . S
C2081 C2083 1.433 . S
C2082 C2078 1.350 . S
C2082 C2079 1.463 . S
C2082 N2086 1.427 . S
C2083 H2073 0.929 . S
C2083 C2081 1.433 . S
C2083 N2086 1.384 . S
C2084 H2075 0.929 . S
C2084 C2076 1.378 . S
C2084 C2079 1.350 . S
C2085 H2072 0.929 . S
C2085 C2077 1.433 . S
C2085 N2087 1.384 . S
N2086 C2082 1.427 . S
N2086 C2083 1.384 . S
N2087 C2079 1.427 . S
N2087 C2085 1.384 . S
H2088 C2094 0.930 . S
H2089 C2098 0.930 . S
H2090 C2103 0.929 . S
H2091 C2101 0.929 . S
H2092 C2096 0.929 . S
H2093 C2102 0.929 . S
C2094 H2088 0.930 . S
C2094 C2095 1.367 . S
C2094 C2102 1.378 . S
C2095 C2094 1.367 . S
C2095 C2103 1.433 . S
C2096 H2092 0.929 . S
C2096 C2098 1.378 . S
C2096 C2100 1.350 . S
C2097 C2100 1.463 . S
C2097 C2102 1.350 . S
C2097 N2105 1.427 . S
C2098 H2089 0.930 . S
C2098 C2096 1.378 . S
C2098 C2099 1.367 . S
C2099 C2098 1.367 . S
C2099 C2101 1.433 . S
C2100 C2096 1.350 . S
C2100 C2097 1.463 . S
C2100 N2104 1.427 . S
C2101 H2091 0.929 . S
C2101 C2099 1.433 . S
C2101 N2104 1.384 . S
C2102 H2093 0.929 . S
C2102 C2094 1.378 . S
C2102 C2097 1.350 . S
C2103 H2090 0.929 . S
C2103 C2095 1.433 . S
C2103 N2105 1.384 . S
N2104 C2100 1.427 . S
N2104 C2101 1.384 . S
N2105 C2097 1.427 . S
N2105 C2103 1.384 . S
H2106 C2112 0.930 . S
H2107 C2116 0.930 . S
H2108 C2121 0.929 . S
H2109 C2119 0.929 . S
H2110 C2114 0.929 . S
H2111 C2120 0.929 . S
C2112 H2106 0.930 . S
C2112 C2113 1.367 . S
C2112 C2120 1.378 . S
C2113 C2112 1.367 . S
C2113 C2121 1.433 . S
C2114 H2110 0.929 . S
C2114 C2116 1.378 . S
C2114 C2118 1.350 . S
C2115 C2118 1.463 . S
C2115 C2120 1.350 . S
C2115 N2123 1.427 . S
C2116 H2107 0.930 . S
C2116 C2114 1.378 . S
C2116 C2117 1.367 . S
C2117 C2116 1.367 . S
C2117 C2119 1.433 . S
C2118 C2114 1.350 . S
C2118 C2115 1.463 . S
C2118 N2122 1.427 . S
C2119 H2109 0.929 . S
C2119 C2117 1.433 . S
C2119 N2122 1.384 . S
C2120 H2111 0.929 . S
C2120 C2112 1.378 . S
C2120 C2115 1.350 . S
C2121 H2108 0.929 . S
C2121 C2113 1.433 . S
C2121 N2123 1.384 . S
N2122 C2118 1.427 . S
N2122 C2119 1.384 . S
N2123 C2115 1.427 . S
N2123 C2121 1.384 . S
H2124 C2130 0.930 . S
H2125 C2134 0.930 . S
H2126 C2139 0.929 . S
H2127 C2137 0.929 . S
H2128 C2132 0.929 . S
H2129 C2138 0.929 . S
C2130 H2124 0.930 . S
C2130 C2131 1.367 . S
C2130 C2138 1.378 . S
C2131 C2130 1.367 . S
C2131 C2139 1.433 . S
C2132 H2128 0.929 . S
C2132 C2134 1.378 . S
C2132 C2136 1.350 . S
C2133 C2136 1.463 . S
C2133 C2138 1.350 . S
C2133 N2141 1.427 . S
C2134 H2125 0.930 . S
C2134 C2132 1.378 . S
C2134 C2135 1.367 . S
C2135 C2134 1.367 . S
C2135 C2137 1.433 . S
C2136 C2132 1.350 . S
C2136 C2133 1.463 . S
C2136 N2140 1.427 . S
C2137 H2127 0.929 . S
C2137 C2135 1.433 . S
C2137 N2140 1.384 . S
C2138 H2129 0.929 . S
C2138 C2130 1.378 . S
C2138 C2133 1.350 . S
C2139 H2126 0.929 . S
C2139 C2131 1.433 . S
C2139 N2141 1.384 . S
N2140 C2136 1.427 . S
N2140 C2137 1.384 . S
N2141 C2133 1.427 . S
N2141 C2139 1.384 . S
H2142 C2148 0.930 . S
H2143 C2152 0.930 . S
H2144 C2157 0.929 . S
H2145 C2155 0.929 . S
H2146 C2150 0.929 . S
H2147 C2156 0.929 . S
C2148 H2142 0.930 . S
C2148 C2149 1.367 . S
C2148 C2156 1.378 . S
C2149 C2148 1.367 . S
C2149 C2157 1.433 . S
C2150 H2146 0.929 . S
C2150 C2152 1.378 . S
C2150 C2154 1.350 . S
C2151 C2154 1.463 . S
C2151 C2156 1.350 . S
C2151 N2159 1.427 . S
C2152 H2143 0.930 . S
C2152 C2150 1.378 . S
C2152 C2153 1.367 . S
C2153 C2152 1.367 . S
C2153 C2155 1.433 . S
C2154 C2150 1.350 . S
C2154 C2151 1.463 . S
C2154 N2158 1.427 . S
C2155 H2145 0.929 . S
C2155 C2153 1.433 . S
C2155 N2158 1.384 . S
C2156 H2147 0.929 . S
C2156 C2148 1.378 . S
C2156 C2151 1.350 . S
C2157 H2144 0.929 . S
C2157 C2149 1.433 . S
C2157 N2159 1.384 . S
N2158 C2154 1.427 . S
N2158 C2155 1.384 . S
N2159 C2151 1.427 . S
N2159 C2157 1.384 . S
H2160 C2166 0.930 . S
H2161 C2170 0.930 . S
H2162 C2175 0.929 . S
H2163 C2173 0.929 . S
H2164 C2168 0.929 . S
H2165 C2174 0.929 . S
C2166 H2160 0.930 . S
C2166 C2167 1.367 . S
C2166 C2174 1.378 . S
C2167 C2166 1.367 . S
C2167 C2175 1.433 . S
C2168 H2164 0.929 . S
C2168 C2170 1.378 . S
C2168 C2172 1.350 . S
C2169 C2172 1.463 . S
C2169 C2174 1.350 . S
C2169 N2177 1.427 . S
C2170 H2161 0.930 . S
C2170 C2168 1.378 . S
C2170 C2171 1.367 . S
C2171 C2170 1.367 . S
C2171 C2173 1.433 . S
C2172 C2168 1.350 . S
C2172 C2169 1.463 . S
C2172 N2176 1.427 . S
C2173 H2163 0.929 . S
C2173 C2171 1.433 . S
C2173 N2176 1.384 . S
C2174 H2165 0.929 . S
C2174 C2166 1.378 . S
C2174 C2169 1.350 . S
C2175 H2162 0.929 . S
C2175 C2167 1.433 . S
C2175 N2177 1.384 . S
N2176 C2172 1.427 . S
N2176 C2173 1.384 . S
N2177 C2169 1.427 . S
N2177 C2175 1.384 . S
H2178 C2184 0.930 . S
H2179 C2188 0.930 . S
H2180 C2193 0.929 . S
H2181 C2191 0.929 . S
H2182 C2186 0.929 . S
H2183 C2192 0.929 . S
C2184 H2178 0.930 . S
C2184 C2185 1.367 . S
C2184 C2192 1.378 . S
C2185 C2184 1.367 . S
C2185 C2193 1.433 . S
C2186 H2182 0.929 . S
C2186 C2188 1.378 . S
C2186 C2190 1.350 . S
C2187 C2190 1.463 . S
C2187 C2192 1.350 . S
C2187 N2195 1.427 . S
C2188 H2179 0.930 . S
C2188 C2186 1.378 . S
C2188 C2189 1.367 . S
C2189 C2188 1.367 . S
C2189 C2191 1.433 . S
C2190 C2186 1.350 . S
C2190 C2187 1.463 . S
C2190 N2194 1.427 . S
C2191 H2181 0.929 . S
C2191 C2189 1.433 . S
C2191 N2194 1.384 . S
C2192 H2183 0.929 . S
C2192 C2184 1.378 . S
C2192 C2187 1.350 . S
C2193 H2180 0.929 . S
C2193 C2185 1.433 . S
C2193 N2195 1.384 . S
N2194 C2190 1.427 . S
N2194 C2191 1.384 . S
N2195 C2187 1.427 . S
N2195 C2193 1.384 . S
H2196 C2202 0.930 . S
H2197 C2206 0.930 1_545 S
H2198 C2211 0.929 . S
H2199 C2209 0.929 1_554 S
H2200 C2204 0.929 . S
H2201 C2210 0.929 . S
C2202 H2196 0.930 . S
C2202 C2203 1.367 . S
C2202 C2210 1.378 . S
C2203 C2202 1.367 . S
C2203 C2211 1.433 . S
C2204 H2200 0.929 . S
C2204 C2206 1.378 . S
C2204 C2208 1.350 . S
C2205 C2208 1.463 . S
C2205 C2210 1.350 . S
C2205 N2213 1.427 . S
C2206 H2197 0.930 1_565 S
C2206 C2204 1.378 . S
C2206 C2207 1.367 . S
C2207 C2206 1.367 . S
C2207 C2209 1.433 . S
C2208 C2204 1.350 . S
C2208 C2205 1.463 . S
C2208 N2212 1.427 . S
C2209 H2199 0.929 1_556 S
C2209 C2207 1.433 . S
C2209 N2212 1.384 . S
C2210 H2201 0.929 . S
C2210 C2202 1.378 . S
C2210 C2205 1.350 . S
C2211 H2198 0.929 . S
C2211 C2203 1.433 . S
C2211 N2213 1.384 . S
N2212 C2208 1.427 . S
N2212 C2209 1.384 . S
N2213 C2205 1.427 . S
N2213 C2211 1.384 . S
H2214 C2220 0.930 . S
H2215 C2224 0.930 . S
H2216 C2229 0.929 . S
H2217 C2227 0.929 . S
H2218 C2222 0.929 . S
H2219 C2228 0.929 . S
C2220 H2214 0.930 . S
C2220 C2221 1.367 . S
C2220 C2228 1.378 . S
C2221 C2220 1.367 . S
C2221 C2229 1.433 . S
C2222 H2218 0.929 . S
C2222 C2224 1.378 . S
C2222 C2226 1.350 . S
C2223 C2226 1.463 . S
C2223 C2228 1.350 . S
C2223 N2231 1.427 . S
C2224 H2215 0.930 . S
C2224 C2222 1.378 . S
C2224 C2225 1.367 . S
C2225 C2224 1.367 . S
C2225 C2227 1.433 . S
C2226 C2222 1.350 . S
C2226 C2223 1.463 . S
C2226 N2230 1.427 . S
C2227 H2217 0.929 . S
C2227 C2225 1.433 . S
C2227 N2230 1.384 . S
C2228 H2219 0.929 . S
C2228 C2220 1.378 . S
C2228 C2223 1.350 . S
C2229 H2216 0.929 . S
C2229 C2221 1.433 . S
C2229 N2231 1.384 . S
N2230 C2226 1.427 . S
N2230 C2227 1.384 . S
N2231 C2223 1.427 . S
N2231 C2229 1.384 . S
H2232 C2238 0.930 . S
H2233 C2242 0.930 . S
H2234 C2247 0.929 . S
H2235 C2245 0.929 . S
H2236 C2240 0.929 . S
H2237 C2246 0.929 . S
C2238 H2232 0.930 . S
C2238 C2239 1.367 1_565 S
C2238 C2246 1.378 . S
C2239 C2238 1.367 1_545 S
C2239 C2247 1.433 . S
C2240 H2236 0.929 . S
C2240 C2242 1.378 . S
C2240 C2244 1.350 . S
C2241 C2244 1.463 . S
C2241 C2246 1.350 1_545 S
C2241 N2249 1.427 . S
C2242 H2233 0.930 . S
C2242 C2240 1.378 . S
C2242 C2243 1.367 . S
C2243 C2242 1.367 . S
C2243 C2245 1.433 1_545 S
C2244 C2240 1.350 . S
C2244 C2241 1.463 . S
C2244 N2248 1.427 1_545 S
C2245 H2235 0.929 . S
C2245 C2243 1.433 1_565 S
C2245 N2248 1.384 . S
C2246 H2237 0.929 . S
C2246 C2238 1.378 . S
C2246 C2241 1.350 1_565 S
C2247 H2234 0.929 . S
C2247 C2239 1.433 . S
C2247 N2249 1.384 . S
N2248 C2244 1.427 1_565 S
N2248 C2245 1.384 . S
N2249 C2241 1.427 . S
N2249 C2247 1.384 . S
H2250 C2256 0.930 . S
H2251 C2260 0.930 . S
H2252 C2265 0.929 . S
H2253 C2263 0.929 . S
H2254 C2258 0.929 . S
H2255 C2264 0.929 . S
C2256 H2250 0.930 . S
C2256 C2257 1.367 . S
C2256 C2264 1.378 . S
C2257 C2256 1.367 . S
C2257 C2265 1.433 . S
C2258 H2254 0.929 . S
C2258 C2260 1.378 . S
C2258 C2262 1.350 . S
C2259 C2262 1.463 . S
C2259 C2264 1.350 . S
C2259 N2267 1.427 . S
C2260 H2251 0.930 . S
C2260 C2258 1.378 . S
C2260 C2261 1.367 . S
C2261 C2260 1.367 . S
C2261 C2263 1.433 . S
C2262 C2258 1.350 . S
C2262 C2259 1.463 . S
C2262 N2266 1.427 . S
C2263 H2253 0.929 . S
C2263 C2261 1.433 . S
C2263 N2266 1.384 . S
C2264 H2255 0.929 . S
C2264 C2256 1.378 . S
C2264 C2259 1.350 . S
C2265 H2252 0.929 . S
C2265 C2257 1.433 . S
C2265 N2267 1.384 . S
N2266 C2262 1.427 . S
N2266 C2263 1.384 . S
N2267 C2259 1.427 . S
N2267 C2265 1.384 . S
H2268 C2274 0.930 . S
H2269 C2278 0.930 . S
H2270 C2283 0.929 . S
H2271 C2281 0.929 . S
H2272 C2276 0.929 . S
H2273 C2282 0.929 . S
C2274 H2268 0.930 . S
C2274 C2275 1.367 . S
C2274 C2282 1.378 . S
C2275 C2274 1.367 . S
C2275 C2283 1.433 . S
C2276 H2272 0.929 . S
C2276 C2278 1.378 . S
C2276 C2280 1.350 . S
C2277 C2280 1.463 . S
C2277 C2282 1.350 . S
C2277 N2285 1.427 . S
C2278 H2269 0.930 . S
C2278 C2276 1.378 . S
C2278 C2279 1.367 . S
C2279 C2278 1.367 . S
C2279 C2281 1.433 . S
C2280 C2276 1.350 . S
C2280 C2277 1.463 . S
C2280 N2284 1.427 . S
C2281 H2271 0.929 . S
C2281 C2279 1.433 . S
C2281 N2284 1.384 . S
C2282 H2273 0.929 . S
C2282 C2274 1.378 . S
C2282 C2277 1.350 . S
C2283 H2270 0.929 . S
C2283 C2275 1.433 . S
C2283 N2285 1.384 . S
N2284 C2280 1.427 . S
N2284 C2281 1.384 . S
N2285 C2277 1.427 . S
N2285 C2283 1.384 . S
H2286 C2292 0.930 . S
H2287 C2296 0.930 . S
H2288 C2301 0.929 . S
H2289 C2299 0.929 . S
H2290 C2294 0.929 . S
H2291 C2300 0.929 . S
C2292 H2286 0.930 . S
C2292 C2293 1.367 . S
C2292 C2300 1.378 . S
C2293 C2292 1.367 . S
C2293 C2301 1.433 . S
C2294 H2290 0.929 . S
C2294 C2296 1.378 . S
C2294 C2298 1.350 . S
C2295 C2298 1.463 . S
C2295 C2300 1.350 . S
C2295 N2303 1.427 . S
C2296 H2287 0.930 . S
C2296 C2294 1.378 . S
C2296 C2297 1.367 . S
C2297 C2296 1.367 . S
C2297 C2299 1.433 . S
C2298 C2294 1.350 . S
C2298 C2295 1.463 . S
C2298 N2302 1.427 . S
C2299 H2289 0.929 . S
C2299 C2297 1.433 . S
C2299 N2302 1.384 . S
C2300 H2291 0.929 . S
C2300 C2292 1.378 . S
C2300 C2295 1.350 . S
C2301 H2288 0.929 . S
C2301 C2293 1.433 . S
C2301 N2303 1.384 . S
N2302 C2298 1.427 . S
N2302 C2299 1.384 . S
N2303 C2295 1.427 . S
N2303 C2301 1.384 . S
H2304 C2310 0.930 . S
H2305 C2314 0.930 . S
H2306 C2319 0.929 . S
H2307 C2317 0.929 1_565 S
H2308 C2312 0.929 . S
H2309 C2318 0.929 . S
C2310 H2304 0.930 . S
C2310 C2311 1.367 . S
C2310 C2318 1.378 . S
C2311 C2310 1.367 . S
C2311 C2319 1.433 1_565 S
C2312 H2308 0.929 . S
C2312 C2314 1.378 . S
C2312 C2316 1.350 . S
C2313 C2316 1.463 . S
C2313 C2318 1.350 1_545 S
C2313 N2321 1.427 . S
C2314 H2305 0.930 . S
C2314 C2312 1.378 . S
C2314 C2315 1.367 . S
C2315 C2314 1.367 . S
C2315 C2317 1.433 . S
C2316 C2312 1.350 . S
C2316 C2313 1.463 . S
C2316 N2320 1.427 1_545 S
C2317 H2307 0.929 1_545 S
C2317 C2315 1.433 . S
C2317 N2320 1.384 1_545 S
C2318 H2309 0.929 . S
C2318 C2310 1.378 . S
C2318 C2313 1.350 1_565 S
C2319 H2306 0.929 . S
C2319 C2311 1.433 1_545 S
C2319 N2321 1.384 . S
N2320 C2316 1.427 1_565 S
N2320 C2317 1.384 1_565 S
N2321 C2313 1.427 . S
N2321 C2319 1.384 . S
H2322 C2328 0.930 . S
H2323 C2332 0.930 . S
H2324 C2337 0.929 . S
H2325 C2335 0.929 . S
H2326 C2330 0.929 . S
H2327 C2336 0.929 . S
C2328 H2322 0.930 . S
C2328 C2329 1.367 . S
C2328 C2336 1.378 . S
C2329 C2328 1.367 . S
C2329 C2337 1.433 . S
C2330 H2326 0.929 . S
C2330 C2332 1.378 . S
C2330 C2334 1.350 . S
C2331 C2334 1.463 . S
C2331 C2336 1.350 . S
C2331 N2339 1.427 . S
C2332 H2323 0.930 . S
C2332 C2330 1.378 . S
C2332 C2333 1.367 . S
C2333 C2332 1.367 . S
C2333 C2335 1.433 . S
C2334 C2330 1.350 . S
C2334 C2331 1.463 . S
C2334 N2338 1.427 . S
C2335 H2325 0.929 . S
C2335 C2333 1.433 . S
C2335 N2338 1.384 . S
C2336 H2327 0.929 . S
C2336 C2328 1.378 . S
C2336 C2331 1.350 . S
C2337 H2324 0.929 . S
C2337 C2329 1.433 . S
C2337 N2339 1.384 . S
N2338 C2334 1.427 . S
N2338 C2335 1.384 . S
N2339 C2331 1.427 . S
N2339 C2337 1.384 . S
H2340 C2346 0.930 . S
H2341 C2350 0.930 . S
H2342 C2355 0.929 . S
H2343 C2353 0.929 . S
H2344 C2348 0.929 . S
H2345 C2354 0.929 . S
C2346 H2340 0.930 . S
C2346 C2347 1.367 1_565 S
C2346 C2354 1.378 . S
C2347 C2346 1.367 1_545 S
C2347 C2355 1.433 . S
C2348 H2344 0.929 . S
C2348 C2350 1.378 . S
C2348 C2352 1.350 . S
C2349 C2352 1.463 . S
C2349 C2354 1.350 1_545 S
C2349 N2357 1.427 . S
C2350 H2341 0.930 . S
C2350 C2348 1.378 . S
C2350 C2351 1.367 . S
C2351 C2350 1.367 . S
C2351 C2353 1.433 1_545 S
C2352 C2348 1.350 . S
C2352 C2349 1.463 . S
C2352 N2356 1.427 1_545 S
C2353 H2343 0.929 . S
C2353 C2351 1.433 1_565 S
C2353 N2356 1.384 . S
C2354 H2345 0.929 . S
C2354 C2346 1.378 . S
C2354 C2349 1.350 1_565 S
C2355 H2342 0.929 . S
C2355 C2347 1.433 . S
C2355 N2357 1.384 . S
N2356 C2352 1.427 1_565 S
N2356 C2353 1.384 . S
N2357 C2349 1.427 . S
N2357 C2355 1.384 . S
H2358 C2364 0.930 . S
H2359 C2368 0.930 . S
H2360 C2373 0.929 . S
H2361 C2371 0.929 . S
H2362 C2366 0.929 . S
H2363 C2372 0.929 . S
C2364 H2358 0.930 . S
C2364 C2365 1.367 . S
C2364 C2372 1.378 . S
C2365 C2364 1.367 . S
C2365 C2373 1.433 . S
C2366 H2362 0.929 . S
C2366 C2368 1.378 . S
C2366 C2370 1.350 . S
C2367 C2370 1.463 . S
C2367 C2372 1.350 . S
C2367 N2375 1.427 . S
C2368 H2359 0.930 . S
C2368 C2366 1.378 . S
C2368 C2369 1.367 . S
C2369 C2368 1.367 . S
C2369 C2371 1.433 . S
C2370 C2366 1.350 . S
C2370 C2367 1.463 . S
C2370 N2374 1.427 . S
C2371 H2361 0.929 . S
C2371 C2369 1.433 . S
C2371 N2374 1.384 . S
C2372 H2363 0.929 . S
C2372 C2364 1.378 . S
C2372 C2367 1.350 . S
C2373 H2360 0.929 . S
C2373 C2365 1.433 . S
C2373 N2375 1.384 . S
N2374 C2370 1.427 . S
N2374 C2371 1.384 . S
N2375 C2367 1.427 . S
N2375 C2373 1.384 . S
H2376 C2382 0.930 . S
H2377 C2386 0.930 . S
H2378 C2391 0.929 1_556 S
H2379 C2389 0.929 . S
H2380 C2384 0.929 . S
H2381 C2390 0.929 . S
C2382 H2376 0.930 . S
C2382 C2383 1.367 . S
C2382 C2390 1.378 . S
C2383 C2382 1.367 . S
C2383 C2391 1.433 . S
C2384 H2380 0.929 . S
C2384 C2386 1.378 . S
C2384 C2388 1.350 1_556 S
C2385 C2388 1.463 . S
C2385 C2390 1.350 . S
C2385 N2393 1.427 1_554 S
C2386 H2377 0.930 . S
C2386 C2384 1.378 . S
C2386 C2387 1.367 1_556 S
C2387 C2386 1.367 1_554 S
C2387 C2389 1.433 . S
C2388 C2384 1.350 1_554 S
C2388 C2385 1.463 . S
C2388 N2392 1.427 . S
C2389 H2379 0.929 . S
C2389 C2387 1.433 . S
C2389 N2392 1.384 . S
C2390 H2381 0.929 . S
C2390 C2382 1.378 . S
C2390 C2385 1.350 . S
C2391 H2378 0.929 1_554 S
C2391 C2383 1.433 . S
C2391 N2393 1.384 1_554 S
N2392 C2388 1.427 . S
N2392 C2389 1.384 . S
N2393 C2385 1.427 1_556 S
N2393 C2391 1.384 1_556 S
H2394 C2400 0.930 . S
H2395 C2404 0.930 . S
H2396 C2409 0.929 . S
H2397 C2407 0.929 . S
H2398 C2402 0.929 . S
H2399 C2408 0.929 . S
C2400 H2394 0.930 . S
C2400 C2401 1.367 . S
C2400 C2408 1.378 . S
C2401 C2400 1.367 . S
C2401 C2409 1.433 . S
C2402 H2398 0.929 . S
C2402 C2404 1.378 . S
C2402 C2406 1.350 . S
C2403 C2406 1.463 . S
C2403 C2408 1.350 . S
C2403 N2411 1.427 . S
C2404 H2395 0.930 . S
C2404 C2402 1.378 . S
C2404 C2405 1.367 . S
C2405 C2404 1.367 . S
C2405 C2407 1.433 . S
C2406 C2402 1.350 . S
C2406 C2403 1.463 . S
C2406 N2410 1.427 . S
C2407 H2397 0.929 . S
C2407 C2405 1.433 . S
C2407 N2410 1.384 . S
C2408 H2399 0.929 . S
C2408 C2400 1.378 . S
C2408 C2403 1.350 . S
C2409 H2396 0.929 . S
C2409 C2401 1.433 . S
C2409 N2411 1.384 . S
N2410 C2406 1.427 . S
N2410 C2407 1.384 . S
N2411 C2403 1.427 . S
N2411 C2409 1.384 . S
H2412 C2418 0.930 . S
H2413 C2422 0.930 . S
H2414 C2427 0.929 . S
H2415 C2425 0.929 . S
H2416 C2420 0.929 . S
H2417 C2426 0.929 . S
C2418 H2412 0.930 . S
C2418 C2419 1.367 . S
C2418 C2426 1.378 . S
C2419 C2418 1.367 . S
C2419 C2427 1.433 . S
C2420 H2416 0.929 . S
C2420 C2422 1.378 . S
C2420 C2424 1.350 . S
C2421 C2424 1.463 . S
C2421 C2426 1.350 . S
C2421 N2429 1.427 . S
C2422 H2413 0.930 . S
C2422 C2420 1.378 . S
C2422 C2423 1.367 . S
C2423 C2422 1.367 . S
C2423 C2425 1.433 . S
C2424 C2420 1.350 . S
C2424 C2421 1.463 . S
C2424 N2428 1.427 . S
C2425 H2415 0.929 . S
C2425 C2423 1.433 . S
C2425 N2428 1.384 . S
C2426 H2417 0.929 . S
C2426 C2418 1.378 . S
C2426 C2421 1.350 . S
C2427 H2414 0.929 . S
C2427 C2419 1.433 . S
C2427 N2429 1.384 . S
N2428 C2424 1.427 . S
N2428 C2425 1.384 . S
N2429 C2421 1.427 . S
N2429 C2427 1.384 . S
H2430 C2436 0.930 . S
H2431 C2440 0.930 . S
H2432 C2445 0.929 . S
H2433 C2443 0.929 . S
H2434 C2438 0.929 . S
H2435 C2444 0.929 . S
C2436 H2430 0.930 . S
C2436 C2437 1.367 . S
C2436 C2444 1.378 . S
C2437 C2436 1.367 . S
C2437 C2445 1.433 . S
C2438 H2434 0.929 . S
C2438 C2440 1.378 . S
C2438 C2442 1.350 . S
C2439 C2442 1.463 . S
C2439 C2444 1.350 . S
C2439 N2447 1.427 . S
C2440 H2431 0.930 . S
C2440 C2438 1.378 . S
C2440 C2441 1.367 . S
C2441 C2440 1.367 . S
C2441 C2443 1.433 . S
C2442 C2438 1.350 . S
C2442 C2439 1.463 . S
C2442 N2446 1.427 . S
C2443 H2433 0.929 . S
C2443 C2441 1.433 . S
C2443 N2446 1.384 . S
C2444 H2435 0.929 . S
C2444 C2436 1.378 . S
C2444 C2439 1.350 . S
C2445 H2432 0.929 . S
C2445 C2437 1.433 . S
C2445 N2447 1.384 . S
N2446 C2442 1.427 . S
N2446 C2443 1.384 . S
N2447 C2439 1.427 . S
N2447 C2445 1.384 . S
H2448 C2454 0.930 . S
H2449 C2458 0.930 . S
H2450 C2463 0.929 1_545 S
H2451 C2461 0.929 . S
H2452 C2456 0.929 . S
H2453 C2462 0.929 . S
C2454 H2448 0.930 . S
C2454 C2455 1.367 . S
C2454 C2462 1.378 . S
C2455 C2454 1.367 . S
C2455 C2463 1.433 . S
C2456 H2452 0.929 . S
C2456 C2458 1.378 . S
C2456 C2460 1.350 . S
C2457 C2460 1.463 . S
C2457 C2462 1.350 . S
C2457 N2465 1.427 . S
C2458 H2449 0.930 . S
C2458 C2456 1.378 . S
C2458 C2459 1.367 . S
C2459 C2458 1.367 . S
C2459 C2461 1.433 . S
C2460 C2456 1.350 . S
C2460 C2457 1.463 . S
C2460 N2464 1.427 . S
C2461 H2451 0.929 . S
C2461 C2459 1.433 . S
C2461 N2464 1.384 . S
C2462 H2453 0.929 . S
C2462 C2454 1.378 . S
C2462 C2457 1.350 . S
C2463 H2450 0.929 1_565 S
C2463 C2455 1.433 . S
C2463 N2465 1.384 . S
N2464 C2460 1.427 . S
N2464 C2461 1.384 . S
N2465 C2457 1.427 . S
N2465 C2463 1.384 . S
H2466 C2472 0.930 . S
H2467 C2476 0.930 . S
H2468 C2481 0.929 . S
H2469 C2479 0.929 . S
H2470 C2474 0.929 . S
H2471 C2480 0.929 . S
C2472 H2466 0.930 . S
C2472 C2473 1.367 . S
C2472 C2480 1.378 . S
C2473 C2472 1.367 . S
C2473 C2481 1.433 . S
C2474 H2470 0.929 . S
C2474 C2476 1.378 . S
C2474 C2478 1.350 . S
C2475 C2478 1.463 . S
C2475 C2480 1.350 . S
C2475 N2483 1.427 . S
C2476 H2467 0.930 . S
C2476 C2474 1.378 . S
C2476 C2477 1.367 . S
C2477 C2476 1.367 . S
C2477 C2479 1.433 . S
C2478 C2474 1.350 . S
C2478 C2475 1.463 . S
C2478 N2482 1.427 . S
C2479 H2469 0.929 . S
C2479 C2477 1.433 . S
C2479 N2482 1.384 . S
C2480 H2471 0.929 . S
C2480 C2472 1.378 . S
C2480 C2475 1.350 . S
C2481 H2468 0.929 . S
C2481 C2473 1.433 . S
C2481 N2483 1.384 . S
N2482 C2478 1.427 . S
N2482 C2479 1.384 . S
N2483 C2475 1.427 . S
N2483 C2481 1.384 . S
H2484 C2490 0.930 . S
H2485 C2494 0.930 . S
H2486 C2499 0.929 . S
H2487 C2497 0.929 . S
H2488 C2492 0.929 . S
H2489 C2498 0.929 . S
C2490 H2484 0.930 . S
C2490 C2491 1.367 . S
C2490 C2498 1.378 . S
C2491 C2490 1.367 . S
C2491 C2499 1.433 . S
C2492 H2488 0.929 . S
C2492 C2494 1.378 . S
C2492 C2496 1.350 . S
C2493 C2496 1.463 . S
C2493 C2498 1.350 . S
C2493 N2501 1.427 . S
C2494 H2485 0.930 . S
C2494 C2492 1.378 . S
C2494 C2495 1.367 . S
C2495 C2494 1.367 . S
C2495 C2497 1.433 . S
C2496 C2492 1.350 . S
C2496 C2493 1.463 . S
C2496 N2500 1.427 . S
C2497 H2487 0.929 . S
C2497 C2495 1.433 . S
C2497 N2500 1.384 . S
C2498 H2489 0.929 . S
C2498 C2490 1.378 . S
C2498 C2493 1.350 . S
C2499 H2486 0.929 . S
C2499 C2491 1.433 . S
C2499 N2501 1.384 . S
N2500 C2496 1.427 . S
N2500 C2497 1.384 . S
N2501 C2493 1.427 . S
N2501 C2499 1.384 . S
H2502 C2508 0.930 . S
H2503 C2512 0.930 . S
H2504 C2517 0.929 . S
H2505 C2515 0.929 . S
H2506 C2510 0.929 . S
H2507 C2516 0.929 . S
C2508 H2502 0.930 . S
C2508 C2509 1.367 . S
C2508 C2516 1.378 . S
C2509 C2508 1.367 . S
C2509 C2517 1.433 . S
C2510 H2506 0.929 . S
C2510 C2512 1.378 . S
C2510 C2514 1.350 . S
C2511 C2514 1.463 . S
C2511 C2516 1.350 . S
C2511 N2519 1.427 . S
C2512 H2503 0.930 . S
C2512 C2510 1.378 . S
C2512 C2513 1.367 . S
C2513 C2512 1.367 . S
C2513 C2515 1.433 . S
C2514 C2510 1.350 . S
C2514 C2511 1.463 . S
C2514 N2518 1.427 . S
C2515 H2505 0.929 . S
C2515 C2513 1.433 . S
C2515 N2518 1.384 . S
C2516 H2507 0.929 . S
C2516 C2508 1.378 . S
C2516 C2511 1.350 . S
C2517 H2504 0.929 . S
C2517 C2509 1.433 . S
C2517 N2519 1.384 . S
N2518 C2514 1.427 . S
N2518 C2515 1.384 . S
N2519 C2511 1.427 . S
N2519 C2517 1.384 . S
H2520 C2526 0.930 . S
H2521 C2530 0.930 . S
H2522 C2535 0.929 . S
H2523 C2533 0.929 . S
H2524 C2528 0.929 . S
H2525 C2534 0.929 . S
C2526 H2520 0.930 . S
C2526 C2527 1.367 . S
C2526 C2534 1.378 . S
C2527 C2526 1.367 . S
C2527 C2535 1.433 . S
C2528 H2524 0.929 . S
C2528 C2530 1.378 . S
C2528 C2532 1.350 . S
C2529 C2532 1.463 . S
C2529 C2534 1.350 . S
C2529 N2537 1.427 . S
C2530 H2521 0.930 . S
C2530 C2528 1.378 . S
C2530 C2531 1.367 . S
C2531 C2530 1.367 . S
C2531 C2533 1.433 . S
C2532 C2528 1.350 . S
C2532 C2529 1.463 . S
C2532 N2536 1.427 . S
C2533 H2523 0.929 . S
C2533 C2531 1.433 . S
C2533 N2536 1.384 . S
C2534 H2525 0.929 . S
C2534 C2526 1.378 . S
C2534 C2529 1.350 . S
C2535 H2522 0.929 . S
C2535 C2527 1.433 . S
C2535 N2537 1.384 . S
N2536 C2532 1.427 . S
N2536 C2533 1.384 . S
N2537 C2529 1.427 . S
N2537 C2535 1.384 . S
H2538 C2544 0.930 . S
H2539 C2548 0.930 . S
H2540 C2553 0.929 . S
H2541 C2551 0.929 . S
H2542 C2546 0.929 . S
H2543 C2552 0.929 . S
C2544 H2538 0.930 . S
C2544 C2545 1.367 . S
C2544 C2552 1.378 . S
C2545 C2544 1.367 . S
C2545 C2553 1.433 . S
C2546 H2542 0.929 . S
C2546 C2548 1.378 . S
C2546 C2550 1.350 . S
C2547 C2550 1.463 . S
C2547 C2552 1.350 . S
C2547 N2555 1.427 . S
C2548 H2539 0.930 . S
C2548 C2546 1.378 . S
C2548 C2549 1.367 . S
C2549 C2548 1.367 . S
C2549 C2551 1.433 . S
C2550 C2546 1.350 . S
C2550 C2547 1.463 . S
C2550 N2554 1.427 . S
C2551 H2541 0.929 . S
C2551 C2549 1.433 . S
C2551 N2554 1.384 . S
C2552 H2543 0.929 . S
C2552 C2544 1.378 . S
C2552 C2547 1.350 . S
C2553 H2540 0.929 . S
C2553 C2545 1.433 . S
C2553 N2555 1.384 . S
N2554 C2550 1.427 . S
N2554 C2551 1.384 . S
N2555 C2547 1.427 . S
N2555 C2553 1.384 . S
H2556 C2562 0.930 . S
H2557 C2566 0.930 . S
H2558 C2571 0.937 . S
H2559 C2569 0.929 . S
H2560 C2564 0.929 . S
H2561 C2570 0.929 . S
C2562 H2556 0.930 . S
C2562 C2563 1.367 . S
C2562 C2570 1.378 . S
C2563 C2562 1.367 . S
C2563 C2571 1.433 . S
C2564 H2560 0.929 . S
C2564 C2566 1.378 . S
C2564 C2568 1.350 . S
C2565 C2568 1.463 . S
C2565 C2570 1.350 . S
C2565 N2573 1.427 . S
C2566 H2557 0.930 . S
C2566 C2564 1.378 . S
C2566 C2567 1.367 1_556 S
C2567 C2566 1.367 1_554 S
C2567 C2569 1.433 . S
C2568 C2564 1.350 . S
C2568 C2565 1.463 . S
C2568 N2572 1.427 1_556 S
C2569 H2559 0.929 . S
C2569 C2567 1.433 . S
C2569 N2572 1.384 . S
C2570 H2561 0.929 . S
C2570 C2562 1.378 . S
C2570 C2565 1.350 . S
C2571 H2558 0.937 . S
C2571 C2563 1.433 . S
C2571 N2573 1.384 . S
N2572 C2568 1.427 1_554 S
N2572 C2569 1.384 . S
N2573 C2565 1.427 . S
N2573 C2571 1.384 . S
H2574 C2580 0.930 . S
H2575 C2584 0.930 . S
H2576 C2589 0.929 . S
H2577 C2587 0.929 . S
H2578 C2582 0.929 . S
H2579 C2588 0.929 . S
C2580 H2574 0.930 . S
C2580 C2581 1.367 . S
C2580 C2588 1.378 1_455 S
C2581 C2580 1.367 . S
C2581 C2589 1.433 . S
C2582 H2578 0.929 . S
C2582 C2584 1.378 . S
C2582 C2586 1.350 . S
C2583 C2586 1.463 . S
C2583 C2588 1.350 . S
C2583 N2591 1.427 1_655 S
C2584 H2575 0.930 . S
C2584 C2582 1.378 . S
C2584 C2585 1.367 . S
C2585 C2584 1.367 . S
C2585 C2587 1.433 . S
C2586 C2582 1.350 . S
C2586 C2583 1.463 . S
C2586 N2590 1.427 . S
C2587 H2577 0.929 . S
C2587 C2585 1.433 . S
C2587 N2590 1.384 . S
C2588 H2579 0.929 . S
C2588 C2580 1.378 1_655 S
C2588 C2583 1.350 . S
C2589 H2576 0.929 . S
C2589 C2581 1.433 . S
C2589 N2591 1.384 . S
N2590 C2586 1.427 . S
N2590 C2587 1.384 . S
N2591 C2583 1.427 1_455 S
N2591 C2589 1.384 . S
H2592 C2598 0.930 . S
H2593 C2602 0.930 . S
H2594 C2607 0.929 . S
H2595 C2605 0.929 . S
H2596 C2600 0.929 . S
H2597 C2606 0.929 . S
C2598 H2592 0.930 . S
C2598 C2599 1.367 . S
C2598 C2606 1.378 . S
C2599 C2598 1.367 . S
C2599 C2607 1.433 . S
C2600 H2596 0.929 . S
C2600 C2602 1.378 . S
C2600 C2604 1.350 . S
C2601 C2604 1.463 . S
C2601 C2606 1.350 . S
C2601 N2609 1.427 . S
C2602 H2593 0.930 . S
C2602 C2600 1.378 . S
C2602 C2603 1.367 . S
C2603 C2602 1.367 . S
C2603 C2605 1.433 . S
C2604 C2600 1.350 . S
C2604 C2601 1.463 . S
C2604 N2608 1.427 . S
C2605 H2595 0.929 . S
C2605 C2603 1.433 . S
C2605 N2608 1.384 . S
C2606 H2597 0.929 . S
C2606 C2598 1.378 . S
C2606 C2601 1.350 . S
C2607 H2594 0.929 . S
C2607 C2599 1.433 . S
C2607 N2609 1.384 . S
N2608 C2604 1.427 . S
N2608 C2605 1.384 . S
N2609 C2601 1.427 . S
N2609 C2607 1.384 . S
H2610 C2616 0.930 . S
H2611 C2620 0.930 . S
H2612 C2625 0.929 . S
H2613 C2623 0.929 . S
H2614 C2618 0.929 . S
H2615 C2624 0.929 . S
C2616 H2610 0.930 . S
C2616 C2617 1.367 . S
C2616 C2624 1.378 . S
C2617 C2616 1.367 . S
C2617 C2625 1.433 . S
C2618 H2614 0.929 . S
C2618 C2620 1.378 . S
C2618 C2622 1.350 . S
C2619 C2622 1.463 1_455 S
C2619 C2624 1.350 . S
C2619 N2627 1.427 . S
C2620 H2611 0.930 . S
C2620 C2618 1.378 . S
C2620 C2621 1.367 . S
C2621 C2620 1.367 . S
C2621 C2623 1.433 . S
C2622 C2618 1.350 . S
C2622 C2619 1.463 1_655 S
C2622 N2626 1.427 . S
C2623 H2613 0.929 . S
C2623 C2621 1.433 . S
C2623 N2626 1.384 . S
C2624 H2615 0.929 . S
C2624 C2616 1.378 . S
C2624 C2619 1.350 . S
C2625 H2612 0.929 . S
C2625 C2617 1.433 . S
C2625 N2627 1.384 . S
N2626 C2622 1.427 . S
N2626 C2623 1.384 . S
N2627 C2619 1.427 . S
N2627 C2625 1.384 . S
H2628 C2634 0.930 . S
H2629 C2638 0.930 . S
H2630 C2643 0.929 . S
H2631 C2641 0.929 . S
H2632 C2636 0.929 . S
H2633 C2642 0.929 . S
C2634 H2628 0.930 . S
C2634 C2635 1.367 . S
C2634 C2642 1.378 . S
C2635 C2634 1.367 . S
C2635 C2643 1.433 1_655 S
C2636 H2632 0.929 . S
C2636 C2638 1.378 . S
C2636 C2640 1.350 . S
C2637 C2640 1.463 . S
C2637 C2642 1.350 1_455 S
C2637 N2645 1.427 . S
C2638 H2629 0.930 . S
C2638 C2636 1.378 . S
C2638 C2639 1.367 . S
C2639 C2638 1.367 . S
C2639 C2641 1.433 . S
C2640 C2636 1.350 . S
C2640 C2637 1.463 . S
C2640 N2644 1.427 . S
C2641 H2631 0.929 . S
C2641 C2639 1.433 . S
C2641 N2644 1.384 . S
C2642 H2633 0.929 . S
C2642 C2634 1.378 . S
C2642 C2637 1.350 1_655 S
C2643 H2630 0.929 . S
C2643 C2635 1.433 1_455 S
C2643 N2645 1.384 . S
N2644 C2640 1.427 . S
N2644 C2641 1.384 . S
N2645 C2637 1.427 . S
N2645 C2643 1.384 . S
H2646 C2652 0.930 . S
H2647 C2656 0.930 . S
H2648 C2661 0.929 . S
H2649 C2659 0.929 . S
H2650 C2654 0.929 . S
H2651 C2660 0.929 . S
C2652 H2646 0.930 . S
C2652 C2653 1.367 . S
C2652 C2660 1.378 . S
C2653 C2652 1.367 . S
C2653 C2661 1.433 . S
C2654 H2650 0.929 . S
C2654 C2656 1.378 . S
C2654 C2658 1.350 . S
C2655 C2658 1.463 . S
C2655 C2660 1.350 . S
C2655 N2663 1.427 . S
C2656 H2647 0.930 . S
C2656 C2654 1.378 . S
C2656 C2657 1.367 . S
C2657 C2656 1.367 . S
C2657 C2659 1.433 . S
C2658 C2654 1.350 . S
C2658 C2655 1.463 . S
C2658 N2662 1.427 . S
C2659 H2649 0.929 . S
C2659 C2657 1.433 . S
C2659 N2662 1.384 . S
C2660 H2651 0.929 . S
C2660 C2652 1.378 . S
C2660 C2655 1.350 . S
C2661 H2648 0.929 . S
C2661 C2653 1.433 . S
C2661 N2663 1.384 . S
N2662 C2658 1.427 . S
N2662 C2659 1.384 . S
N2663 C2655 1.427 . S
N2663 C2661 1.384 . S
H2664 C2670 0.930 . S
H2665 C2674 0.930 . S
H2666 C2679 0.929 . S
H2667 C2677 0.929 . S
H2668 C2672 0.929 . S
H2669 C2678 0.929 . S
C2670 H2664 0.930 . S
C2670 C2671 1.367 . S
C2670 C2678 1.378 . S
C2671 C2670 1.367 . S
C2671 C2679 1.433 . S
C2672 H2668 0.929 . S
C2672 C2674 1.378 . S
C2672 C2676 1.350 . S
C2673 C2676 1.463 . S
C2673 C2678 1.350 . S
C2673 N2681 1.427 . S
C2674 H2665 0.930 . S
C2674 C2672 1.378 . S
C2674 C2675 1.367 . S
C2675 C2674 1.367 . S
C2675 C2677 1.433 . S
C2676 C2672 1.350 . S
C2676 C2673 1.463 . S
C2676 N2680 1.427 . S
C2677 H2667 0.929 . S
C2677 C2675 1.433 . S
C2677 N2680 1.384 . S
C2678 H2669 0.929 . S
C2678 C2670 1.378 . S
C2678 C2673 1.350 . S
C2679 H2666 0.929 . S
C2679 C2671 1.433 . S
C2679 N2681 1.384 . S
N2680 C2676 1.427 . S
N2680 C2677 1.384 . S
N2681 C2673 1.427 . S
N2681 C2679 1.384 . S
H2682 C2688 0.930 . S
H2683 C2692 0.930 . S
H2684 C2697 0.929 1_554 S
H2685 C2695 0.929 . S
H2686 C2690 0.929 . S
H2687 C2696 0.929 . S
C2688 H2682 0.930 . S
C2688 C2689 1.367 . S
C2688 C2696 1.378 . S
C2689 C2688 1.367 . S
C2689 C2697 1.433 . S
C2690 H2686 0.929 . S
C2690 C2692 1.378 . S
C2690 C2694 1.350 . S
C2691 C2694 1.463 . S
C2691 C2696 1.350 . S
C2691 N2699 1.427 . S
C2692 H2683 0.930 . S
C2692 C2690 1.378 . S
C2692 C2693 1.367 . S
C2693 C2692 1.367 . S
C2693 C2695 1.433 . S
C2694 C2690 1.350 . S
C2694 C2691 1.463 . S
C2694 N2698 1.427 . S
C2695 H2685 0.929 . S
C2695 C2693 1.433 . S
C2695 N2698 1.384 . S
C2696 H2687 0.929 . S
C2696 C2688 1.378 . S
C2696 C2691 1.350 . S
C2697 H2684 0.929 1_556 S
C2697 C2689 1.433 . S
C2697 N2699 1.384 . S
N2698 C2694 1.427 . S
N2698 C2695 1.384 . S
N2699 C2691 1.427 . S
N2699 C2697 1.384 . S
H2700 C2706 0.930 . S
H2701 C2710 0.930 . S
H2702 C2715 0.929 . S
H2703 C2713 0.929 . S
H2704 C2708 0.929 . S
H2705 C2714 0.929 . S
C2706 H2700 0.930 . S
C2706 C2707 1.367 . S
C2706 C2714 1.378 . S
C2707 C2706 1.367 . S
C2707 C2715 1.433 . S
C2708 H2704 0.929 . S
C2708 C2710 1.378 . S
C2708 C2712 1.350 . S
C2709 C2712 1.463 . S
C2709 C2714 1.350 . S
C2709 N2717 1.427 . S
C2710 H2701 0.930 . S
C2710 C2708 1.378 . S
C2710 C2711 1.367 . S
C2711 C2710 1.367 . S
C2711 C2713 1.433 . S
C2712 C2708 1.350 . S
C2712 C2709 1.463 . S
C2712 N2716 1.427 . S
C2713 H2703 0.929 . S
C2713 C2711 1.433 . S
C2713 N2716 1.384 . S
C2714 H2705 0.929 . S
C2714 C2706 1.378 . S
C2714 C2709 1.350 . S
C2715 H2702 0.929 . S
C2715 C2707 1.433 . S
C2715 N2717 1.384 . S
N2716 C2712 1.427 . S
N2716 C2713 1.384 . S
N2717 C2709 1.427 . S
N2717 C2715 1.384 . S
H2718 C2724 0.930 . S
H2719 C2728 0.930 . S
H2720 C2733 0.929 . S
H2721 C2731 0.929 . S
H2722 C2726 0.929 . S
H2723 C2732 0.929 . S
C2724 H2718 0.930 . S
C2724 C2725 1.367 . S
C2724 C2732 1.378 . S
C2725 C2724 1.367 . S
C2725 C2733 1.433 . S
C2726 H2722 0.929 . S
C2726 C2728 1.378 . S
C2726 C2730 1.350 . S
C2727 C2730 1.463 . S
C2727 C2732 1.350 . S
C2727 N2735 1.427 . S
C2728 H2719 0.930 . S
C2728 C2726 1.378 . S
C2728 C2729 1.367 . S
C2729 C2728 1.367 . S
C2729 C2731 1.433 . S
C2730 C2726 1.350 . S
C2730 C2727 1.463 . S
C2730 N2734 1.427 . S
C2731 H2721 0.929 . S
C2731 C2729 1.433 . S
C2731 N2734 1.384 . S
C2732 H2723 0.929 . S
C2732 C2724 1.378 . S
C2732 C2727 1.350 . S
C2733 H2720 0.929 . S
C2733 C2725 1.433 . S
C2733 N2735 1.384 . S
N2734 C2730 1.427 . S
N2734 C2731 1.384 . S
N2735 C2727 1.427 . S
N2735 C2733 1.384 . S
H2736 C2742 0.930 . S
H2737 C2746 0.930 . S
H2738 C2751 0.929 . S
H2739 C2749 0.929 . S
H2740 C2744 0.929 . S
H2741 C2750 0.929 . S
C2742 H2736 0.930 . S
C2742 C2743 1.367 . S
C2742 C2750 1.378 . S
C2743 C2742 1.367 . S
C2743 C2751 1.433 . S
C2744 H2740 0.929 . S
C2744 C2746 1.378 . S
C2744 C2748 1.350 . S
C2745 C2748 1.463 . S
C2745 C2750 1.350 . S
C2745 N2753 1.427 . S
C2746 H2737 0.930 . S
C2746 C2744 1.378 . S
C2746 C2747 1.367 . S
C2747 C2746 1.367 . S
C2747 C2749 1.433 . S
C2748 C2744 1.350 . S
C2748 C2745 1.463 . S
C2748 N2752 1.427 . S
C2749 H2739 0.929 . S
C2749 C2747 1.433 . S
C2749 N2752 1.384 . S
C2750 H2741 0.929 . S
C2750 C2742 1.378 . S
C2750 C2745 1.350 . S
C2751 H2738 0.929 . S
C2751 C2743 1.433 . S
C2751 N2753 1.384 . S
N2752 C2748 1.427 . S
N2752 C2749 1.384 . S
N2753 C2745 1.427 . S
N2753 C2751 1.384 . S
H2754 C2760 0.930 . S
H2755 C2764 0.930 . S
H2756 C2769 0.929 . S
H2757 C2767 0.929 . S
H2758 C2762 0.929 . S
H2759 C2768 0.929 . S
C2760 H2754 0.930 . S
C2760 C2761 1.367 . S
C2760 C2768 1.378 . S
C2761 C2760 1.367 . S
C2761 C2769 1.433 . S
C2762 H2758 0.929 . S
C2762 C2764 1.378 . S
C2762 C2766 1.350 . S
C2763 C2766 1.463 . S
C2763 C2768 1.350 . S
C2763 N2771 1.427 . S
C2764 H2755 0.930 . S
C2764 C2762 1.378 . S
C2764 C2765 1.367 . S
C2765 C2764 1.367 . S
C2765 C2767 1.433 . S
C2766 C2762 1.350 . S
C2766 C2763 1.463 . S
C2766 N2770 1.427 . S
C2767 H2757 0.929 . S
C2767 C2765 1.433 . S
C2767 N2770 1.384 . S
C2768 H2759 0.929 . S
C2768 C2760 1.378 . S
C2768 C2763 1.350 . S
C2769 H2756 0.929 . S
C2769 C2761 1.433 . S
C2769 N2771 1.384 . S
N2770 C2766 1.427 . S
N2770 C2767 1.384 . S
N2771 C2763 1.427 . S
N2771 C2769 1.384 . S
H2772 C2778 0.930 . S
H2773 C2782 0.930 . S
H2774 C2787 0.929 . S
H2775 C2785 0.929 . S
H2776 C2780 0.929 . S
H2777 C2786 0.929 . S
C2778 H2772 0.930 . S
C2778 C2779 1.367 . S
C2778 C2786 1.378 . S
C2779 C2778 1.367 . S
C2779 C2787 1.433 . S
C2780 H2776 0.929 . S
C2780 C2782 1.378 . S
C2780 C2784 1.350 . S
C2781 C2784 1.463 . S
C2781 C2786 1.350 . S
C2781 N2789 1.427 . S
C2782 H2773 0.930 . S
C2782 C2780 1.378 . S
C2782 C2783 1.367 . S
C2783 C2782 1.367 . S
C2783 C2785 1.433 . S
C2784 C2780 1.350 . S
C2784 C2781 1.463 . S
C2784 N2788 1.427 . S
C2785 H2775 0.929 . S
C2785 C2783 1.433 . S
C2785 N2788 1.384 . S
C2786 H2777 0.929 . S
C2786 C2778 1.378 . S
C2786 C2781 1.350 . S
C2787 H2774 0.929 . S
C2787 C2779 1.433 . S
C2787 N2789 1.384 . S
N2788 C2784 1.427 . S
N2788 C2785 1.384 . S
N2789 C2781 1.427 . S
N2789 C2787 1.384 . S
H2790 C2796 0.930 . S
H2791 C2800 0.930 . S
H2792 C2805 0.929 . S
H2793 C2803 0.929 . S
H2794 C2798 0.929 . S
H2795 C2804 0.929 . S
C2796 H2790 0.930 . S
C2796 C2797 1.367 . S
C2796 C2804 1.378 . S
C2797 C2796 1.367 . S
C2797 C2805 1.433 . S
C2798 H2794 0.929 . S
C2798 C2800 1.378 . S
C2798 C2802 1.350 . S
C2799 C2802 1.463 . S
C2799 C2804 1.350 . S
C2799 N2807 1.427 . S
C2800 H2791 0.930 . S
C2800 C2798 1.378 . S
C2800 C2801 1.367 . S
C2801 C2800 1.367 . S
C2801 C2803 1.433 . S
C2802 C2798 1.350 . S
C2802 C2799 1.463 . S
C2802 N2806 1.427 . S
C2803 H2793 0.929 . S
C2803 C2801 1.433 . S
C2803 N2806 1.384 . S
C2804 H2795 0.929 . S
C2804 C2796 1.378 . S
C2804 C2799 1.350 . S
C2805 H2792 0.929 . S
C2805 C2797 1.433 . S
C2805 N2807 1.384 . S
N2806 C2802 1.427 . S
N2806 C2803 1.384 . S
N2807 C2799 1.427 . S
N2807 C2805 1.384 . S
H2808 C2814 0.930 . S
H2809 C2818 0.930 . S
H2810 C2823 0.929 . S
H2811 C2821 0.929 . S
H2812 C2816 0.929 . S
H2813 C2822 0.929 . S
C2814 H2808 0.930 . S
C2814 C2815 1.367 . S
C2814 C2822 1.378 . S
C2815 C2814 1.367 . S
C2815 C2823 1.433 . S
C2816 H2812 0.929 . S
C2816 C2818 1.378 . S
C2816 C2820 1.350 . S
C2817 C2820 1.463 . S
C2817 C2822 1.350 . S
C2817 N2825 1.427 . S
C2818 H2809 0.930 . S
C2818 C2816 1.378 . S
C2818 C2819 1.367 . S
C2819 C2818 1.367 . S
C2819 C2821 1.433 . S
C2820 C2816 1.350 . S
C2820 C2817 1.463 . S
C2820 N2824 1.427 . S
C2821 H2811 0.929 . S
C2821 C2819 1.433 . S
C2821 N2824 1.384 . S
C2822 H2813 0.929 . S
C2822 C2814 1.378 . S
C2822 C2817 1.350 . S
C2823 H2810 0.929 . S
C2823 C2815 1.433 . S
C2823 N2825 1.384 . S
N2824 C2820 1.427 . S
N2824 C2821 1.384 . S
N2825 C2817 1.427 . S
N2825 C2823 1.384 . S
H2826 C2832 0.930 . S
H2827 C2836 0.930 . S
H2828 C2841 0.929 . S
H2829 C2839 0.929 . S
H2830 C2834 0.929 . S
H2831 C2840 0.929 . S
C2832 H2826 0.930 . S
C2832 C2833 1.367 . S
C2832 C2840 1.378 . S
C2833 C2832 1.367 . S
C2833 C2841 1.433 . S
C2834 H2830 0.929 . S
C2834 C2836 1.378 . S
C2834 C2838 1.350 . S
C2835 C2838 1.463 . S
C2835 C2840 1.350 . S
C2835 N2843 1.427 . S
C2836 H2827 0.930 . S
C2836 C2834 1.378 . S
C2836 C2837 1.367 . S
C2837 C2836 1.367 . S
C2837 C2839 1.433 . S
C2838 C2834 1.350 . S
C2838 C2835 1.463 . S
C2838 N2842 1.427 . S
C2839 H2829 0.929 . S
C2839 C2837 1.433 . S
C2839 N2842 1.384 . S
C2840 H2831 0.929 . S
C2840 C2832 1.378 . S
C2840 C2835 1.350 . S
C2841 H2828 0.929 . S
C2841 C2833 1.433 . S
C2841 N2843 1.384 . S
N2842 C2838 1.427 . S
N2842 C2839 1.384 . S
N2843 C2835 1.427 . S
N2843 C2841 1.384 . S
H2844 C2850 0.930 . S
H2845 C2854 0.930 . S
H2846 C2859 0.929 . S
H2847 C2857 0.929 . S
H2848 C2852 0.929 . S
H2849 C2858 0.929 . S
C2850 H2844 0.930 . S
C2850 C2851 1.367 . S
C2850 C2858 1.378 . S
C2851 C2850 1.367 . S
C2851 C2859 1.433 . S
C2852 H2848 0.929 . S
C2852 C2854 1.378 . S
C2852 C2856 1.350 . S
C2853 C2856 1.463 . S
C2853 C2858 1.350 . S
C2853 N2861 1.427 . S
C2854 H2845 0.930 . S
C2854 C2852 1.378 . S
C2854 C2855 1.367 . S
C2855 C2854 1.367 . S
C2855 C2857 1.433 . S
C2856 C2852 1.350 . S
C2856 C2853 1.463 . S
C2856 N2860 1.427 . S
C2857 H2847 0.929 . S
C2857 C2855 1.433 . S
C2857 N2860 1.384 . S
C2858 H2849 0.929 . S
C2858 C2850 1.378 . S
C2858 C2853 1.350 . S
C2859 H2846 0.929 . S
C2859 C2851 1.433 . S
C2859 N2861 1.384 . S
N2860 C2856 1.427 . S
N2860 C2857 1.384 . S
N2861 C2853 1.427 . S
N2861 C2859 1.384 . S
H2862 C2868 0.930 . S
H2863 C2872 0.930 . S
H2864 C2877 0.929 . S
H2865 C2875 0.929 . S
H2866 C2870 0.917 1_565 S
H2867 C2876 0.929 . S
C2868 H2862 0.930 . S
C2868 C2869 1.367 1_556 S
C2868 C2876 1.378 . S
C2869 C2868 1.367 1_554 S
C2869 C2877 1.433 . S
C2870 H2866 0.917 1_545 S
C2870 C2872 1.382 . S
C2870 C2874 1.360 1_545 S
C2871 C2874 1.463 . S
C2871 C2876 1.350 1_554 S
C2871 N2879 1.427 . S
C2872 H2863 0.930 . S
C2872 C2870 1.382 . S
C2872 C2873 1.367 . S
C2873 C2872 1.367 . S
C2873 C2875 1.433 1_554 S
C2874 C2870 1.360 1_565 S
C2874 C2871 1.463 . S
C2874 N2878 1.427 1_564 S
C2875 H2865 0.929 . S
C2875 C2873 1.433 1_556 S
C2875 N2878 1.384 . S
C2876 H2867 0.929 . S
C2876 C2868 1.378 . S
C2876 C2871 1.350 1_556 S
C2877 H2864 0.929 . S
C2877 C2869 1.433 . S
C2877 N2879 1.384 . S
N2878 C2874 1.427 1_546 S
N2878 C2875 1.384 . S
N2879 C2871 1.427 . S
N2879 C2877 1.384 . S
H2880 C2886 0.930 . S
H2881 C2890 0.930 . S
H2882 C2895 0.929 . S
H2883 C2893 0.929 . S
H2884 C2888 0.929 . S
H2885 C2894 0.929 . S
C2886 H2880 0.930 . S
C2886 C2887 1.367 . S
C2886 C2894 1.378 . S
C2887 C2886 1.367 . S
C2887 C2895 1.433 . S
C2888 H2884 0.929 . S
C2888 C2890 1.378 . S
C2888 C2892 1.350 . S
C2889 C2892 1.463 . S
C2889 C2894 1.350 . S
C2889 N2897 1.427 . S
C2890 H2881 0.930 . S
C2890 C2888 1.378 . S
C2890 C2891 1.367 . S
C2891 C2890 1.367 . S
C2891 C2893 1.433 . S
C2892 C2888 1.350 . S
C2892 C2889 1.463 . S
C2892 N2896 1.427 . S
C2893 H2883 0.929 . S
C2893 C2891 1.433 . S
C2893 N2896 1.384 . S
C2894 H2885 0.929 . S
C2894 C2886 1.378 . S
C2894 C2889 1.350 . S
C2895 H2882 0.929 . S
C2895 C2887 1.433 . S
C2895 N2897 1.384 . S
N2896 C2892 1.427 . S
N2896 C2893 1.384 . S
N2897 C2889 1.427 . S
N2897 C2895 1.384 . S
H2898 C2904 0.930 . S
H2899 C2908 0.930 . S
H2900 C2913 0.929 . S
H2901 C2911 0.929 1_556 S
H2902 C2906 0.929 . S
H2903 C2912 0.929 . S
C2904 H2898 0.930 . S
C2904 C2905 1.367 . S
C2904 C2912 1.378 . S
C2905 C2904 1.367 . S
C2905 C2913 1.433 1_556 S
C2906 H2902 0.929 . S
C2906 C2908 1.378 . S
C2906 C2910 1.350 . S
C2907 C2910 1.463 . S
C2907 C2912 1.350 1_554 S
C2907 N2915 1.427 . S
C2908 H2899 0.930 . S
C2908 C2906 1.378 . S
C2908 C2909 1.367 . S
C2909 C2908 1.367 . S
C2909 C2911 1.433 . S
C2910 C2906 1.350 . S
C2910 C2907 1.463 . S
C2910 N2914 1.427 1_554 S
C2911 H2901 0.929 1_554 S
C2911 C2909 1.433 . S
C2911 N2914 1.384 1_554 S
C2912 H2903 0.929 . S
C2912 C2904 1.378 . S
C2912 C2907 1.350 1_556 S
C2913 H2900 0.929 . S
C2913 C2905 1.433 1_554 S
C2913 N2915 1.384 . S
N2914 C2910 1.427 1_556 S
N2914 C2911 1.384 1_556 S
N2915 C2907 1.427 . S
N2915 C2913 1.384 . S
H2916 C2922 0.930 . S
H2917 C2926 0.930 . S
H2918 C2931 0.929 . S
H2919 C2929 0.929 . S
H2920 C2924 0.929 . S
H2921 C2930 0.929 . S
C2922 H2916 0.930 . S
C2922 C2923 1.367 . S
C2922 C2930 1.378 . S
C2923 C2922 1.367 . S
C2923 C2931 1.433 . S
C2924 H2920 0.929 . S
C2924 C2926 1.378 . S
C2924 C2928 1.350 . S
C2925 C2928 1.463 . S
C2925 C2930 1.350 . S
C2925 N2933 1.427 . S
C2926 H2917 0.930 . S
C2926 C2924 1.378 . S
C2926 C2927 1.367 . S
C2927 C2926 1.367 . S
C2927 C2929 1.433 . S
C2928 C2924 1.350 . S
C2928 C2925 1.463 . S
C2928 N2932 1.427 . S
C2929 H2919 0.929 . S
C2929 C2927 1.433 . S
C2929 N2932 1.384 . S
C2930 H2921 0.929 . S
C2930 C2922 1.378 . S
C2930 C2925 1.350 . S
C2931 H2918 0.929 . S
C2931 C2923 1.433 . S
C2931 N2933 1.384 . S
N2932 C2928 1.427 . S
N2932 C2929 1.384 . S
N2933 C2925 1.427 . S
N2933 C2931 1.384 . S
H2934 C2940 0.930 . S
H2935 C2944 0.930 . S
H2936 C2949 0.929 . S
H2937 C2947 0.929 . S
H2938 C2942 0.929 . S
H2939 C2948 0.929 . S
C2940 H2934 0.930 . S
C2940 C2941 1.367 . S
C2940 C2948 1.378 . S
C2941 C2940 1.367 . S
C2941 C2949 1.433 . S
C2942 H2938 0.929 . S
C2942 C2944 1.378 . S
C2942 C2946 1.350 . S
C2943 C2946 1.463 . S
C2943 C2948 1.350 . S
C2943 N2951 1.427 . S
C2944 H2935 0.930 . S
C2944 C2942 1.378 . S
C2944 C2945 1.367 . S
C2945 C2944 1.367 . S
C2945 C2947 1.433 . S
C2946 C2942 1.350 . S
C2946 C2943 1.463 . S
C2946 N2950 1.427 . S
C2947 H2937 0.929 . S
C2947 C2945 1.433 . S
C2947 N2950 1.384 . S
C2948 H2939 0.929 . S
C2948 C2940 1.378 . S
C2948 C2943 1.350 . S
C2949 H2936 0.929 . S
C2949 C2941 1.433 . S
C2949 N2951 1.384 . S
N2950 C2946 1.427 . S
N2950 C2947 1.384 . S
N2951 C2943 1.427 . S
N2951 C2949 1.384 . S
H2952 C2958 0.930 . S
H2953 C2962 0.930 . S
H2954 C2967 0.929 . S
H2955 C2965 0.929 . S
H2956 C2960 0.929 . S
H2957 C2966 0.929 . S
C2958 H2952 0.930 . S
C2958 C2959 1.367 . S
C2958 C2966 1.378 . S
C2959 C2958 1.367 . S
C2959 C2967 1.433 . S
C2960 H2956 0.929 . S
C2960 C2962 1.378 . S
C2960 C2964 1.350 . S
C2961 C2964 1.463 . S
C2961 C2966 1.350 . S
C2961 N2969 1.427 . S
C2962 H2953 0.930 . S
C2962 C2960 1.378 . S
C2962 C2963 1.367 . S
C2963 C2962 1.367 . S
C2963 C2965 1.433 . S
C2964 C2960 1.350 . S
C2964 C2961 1.463 . S
C2964 N2968 1.427 . S
C2965 H2955 0.929 . S
C2965 C2963 1.433 . S
C2965 N2968 1.384 . S
C2966 H2957 0.929 . S
C2966 C2958 1.378 . S
C2966 C2961 1.350 . S
C2967 H2954 0.929 . S
C2967 C2959 1.433 . S
C2967 N2969 1.384 . S
N2968 C2964 1.427 . S
N2968 C2965 1.384 . S
N2969 C2961 1.427 . S
N2969 C2967 1.384 . S
H2970 C2976 0.930 . S
H2971 C2980 0.930 . S
H2972 C2985 0.929 . S
H2973 C2983 0.929 . S
H2974 C2978 0.929 . S
H2975 C2984 0.929 . S
C2976 H2970 0.930 . S
C2976 C2977 1.367 . S
C2976 C2984 1.378 . S
C2977 C2976 1.367 . S
C2977 C2985 1.433 . S
C2978 H2974 0.929 . S
C2978 C2980 1.378 . S
C2978 C2982 1.350 . S
C2979 C2982 1.463 . S
C2979 C2984 1.350 . S
C2979 N2987 1.427 . S
C2980 H2971 0.930 . S
C2980 C2978 1.378 . S
C2980 C2981 1.367 . S
C2981 C2980 1.367 . S
C2981 C2983 1.433 . S
C2982 C2978 1.350 . S
C2982 C2979 1.463 . S
C2982 N2986 1.427 . S
C2983 H2973 0.929 . S
C2983 C2981 1.433 . S
C2983 N2986 1.384 . S
C2984 H2975 0.929 . S
C2984 C2976 1.378 . S
C2984 C2979 1.350 . S
C2985 H2972 0.929 . S
C2985 C2977 1.433 . S
C2985 N2987 1.384 . S
N2986 C2982 1.427 . S
N2986 C2983 1.384 . S
N2987 C2979 1.427 . S
N2987 C2985 1.384 . S
H2988 C2994 0.930 . S
H2989 C2998 0.930 . S
H2990 C3003 0.929 . S
H2991 C3001 0.929 1_556 S
H2992 C2996 0.929 . S
H2993 C3002 0.929 . S
C2994 H2988 0.930 . S
C2994 C2995 1.367 . S
C2994 C3002 1.378 . S
C2995 C2994 1.367 . S
C2995 C3003 1.433 . S
C2996 H2992 0.929 . S
C2996 C2998 1.378 . S
C2996 C3000 1.350 . S
C2997 C3000 1.463 . S
C2997 C3002 1.350 . S
C2997 N3005 1.427 . S
C2998 H2989 0.930 . S
C2998 C2996 1.378 . S
C2998 C2999 1.367 . S
C2999 C2998 1.367 . S
C2999 C3001 1.433 . S
C3000 C2996 1.350 . S
C3000 C2997 1.463 . S
C3000 N3004 1.427 . S
C3001 H2991 0.929 1_554 S
C3001 C2999 1.433 . S
C3001 N3004 1.384 . S
C3002 H2993 0.929 . S
C3002 C2994 1.378 . S
C3002 C2997 1.350 . S
C3003 H2990 0.929 . S
C3003 C2995 1.433 . S
C3003 N3005 1.384 . S
N3004 C3000 1.427 . S
N3004 C3001 1.384 . S
N3005 C2997 1.427 . S
N3005 C3003 1.384 . S
H3006 C3012 0.930 . S
H3007 C3016 0.930 . S
H3008 C3021 0.929 . S
H3009 C3019 0.929 . S
H3010 C3014 0.929 . S
H3011 C3020 0.929 . S
C3012 H3006 0.930 . S
C3012 C3013 1.367 . S
C3012 C3020 1.378 . S
C3013 C3012 1.367 . S
C3013 C3021 1.433 . S
C3014 H3010 0.929 . S
C3014 C3016 1.378 . S
C3014 C3018 1.350 . S
C3015 C3018 1.463 . S
C3015 C3020 1.350 . S
C3015 N3023 1.427 . S
C3016 H3007 0.930 . S
C3016 C3014 1.378 . S
C3016 C3017 1.367 . S
C3017 C3016 1.367 . S
C3017 C3019 1.433 . S
C3018 C3014 1.350 . S
C3018 C3015 1.463 . S
C3018 N3022 1.427 . S
C3019 H3009 0.929 . S
C3019 C3017 1.433 . S
C3019 N3022 1.384 . S
C3020 H3011 0.929 . S
C3020 C3012 1.378 . S
C3020 C3015 1.350 . S
C3021 H3008 0.929 . S
C3021 C3013 1.433 . S
C3021 N3023 1.384 . S
N3022 C3018 1.427 . S
N3022 C3019 1.384 . S
N3023 C3015 1.427 . S
N3023 C3021 1.384 . S
H3024 C3030 0.930 . S
H3025 C3034 0.930 1_554 S
H3026 C3039 0.929 . S
H3027 C3037 0.929 . S
H3028 C3032 0.929 . S
H3029 C3038 0.929 . S
C3030 H3024 0.930 . S
C3030 C3031 1.367 . S
C3030 C3038 1.378 . S
C3031 C3030 1.367 . S
C3031 C3039 1.433 . S
C3032 H3028 0.929 . S
C3032 C3034 1.378 . S
C3032 C3036 1.350 . S
C3033 C3036 1.463 . S
C3033 C3038 1.350 . S
C3033 N3041 1.427 . S
C3034 H3025 0.930 1_556 S
C3034 C3032 1.378 . S
C3034 C3035 1.367 . S
C3035 C3034 1.367 . S
C3035 C3037 1.433 . S
C3036 C3032 1.350 . S
C3036 C3033 1.463 . S
C3036 N3040 1.427 . S
C3037 H3027 0.929 . S
C3037 C3035 1.433 . S
C3037 N3040 1.384 . S
C3038 H3029 0.929 . S
C3038 C3030 1.378 . S
C3038 C3033 1.350 . S
C3039 H3026 0.929 . S
C3039 C3031 1.433 . S
C3039 N3041 1.384 . S
N3040 C3036 1.427 . S
N3040 C3037 1.384 . S
N3041 C3033 1.427 . S
N3041 C3039 1.384 . S
H3042 C3048 0.930 . S
H3043 C3052 0.930 . S
H3044 C3057 0.929 . S
H3045 C3055 0.929 . S
H3046 C3050 0.929 . S
H3047 C3056 0.929 . S
C3048 H3042 0.930 . S
C3048 C3049 1.367 . S
C3048 C3056 1.378 . S
C3049 C3048 1.367 . S
C3049 C3057 1.433 . S
C3050 H3046 0.929 . S
C3050 C3052 1.378 . S
C3050 C3054 1.350 . S
C3051 C3054 1.463 . S
C3051 C3056 1.350 . S
C3051 N3059 1.427 . S
C3052 H3043 0.930 . S
C3052 C3050 1.378 . S
C3052 C3053 1.367 . S
C3053 C3052 1.367 . S
C3053 C3055 1.433 . S
C3054 C3050 1.350 . S
C3054 C3051 1.463 . S
C3054 N3058 1.427 . S
C3055 H3045 0.929 . S
C3055 C3053 1.433 . S
C3055 N3058 1.384 . S
C3056 H3047 0.929 . S
C3056 C3048 1.378 . S
C3056 C3051 1.350 . S
C3057 H3044 0.929 . S
C3057 C3049 1.433 . S
C3057 N3059 1.384 . S
N3058 C3054 1.427 . S
N3058 C3055 1.384 . S
N3059 C3051 1.427 . S
N3059 C3057 1.384 . S
H3060 C3066 0.930 . S
H3061 C3070 0.930 . S
H3062 C3075 0.929 . S
H3063 C3073 0.929 . S
H3064 C3068 0.929 . S
H3065 C3074 0.929 . S
C3066 H3060 0.930 . S
C3066 C3067 1.367 . S
C3066 C3074 1.378 . S
C3067 C3066 1.367 . S
C3067 C3075 1.433 . S
C3068 H3064 0.929 . S
C3068 C3070 1.378 . S
C3068 C3072 1.350 . S
C3069 C3072 1.463 . S
C3069 C3074 1.350 . S
C3069 N3077 1.427 . S
C3070 H3061 0.930 . S
C3070 C3068 1.378 . S
C3070 C3071 1.367 . S
C3071 C3070 1.367 . S
C3071 C3073 1.433 . S
C3072 C3068 1.350 . S
C3072 C3069 1.463 . S
C3072 N3076 1.427 . S
C3073 H3063 0.929 . S
C3073 C3071 1.433 . S
C3073 N3076 1.384 . S
C3074 H3065 0.929 . S
C3074 C3066 1.378 . S
C3074 C3069 1.350 . S
C3075 H3062 0.929 . S
C3075 C3067 1.433 . S
C3075 N3077 1.384 . S
N3076 C3072 1.427 . S
N3076 C3073 1.384 . S
N3077 C3069 1.427 . S
N3077 C3075 1.384 . S
H3078 C3084 0.930 . S
H3079 C3088 0.930 . S
H3080 C3093 0.929 . S
H3081 C3091 0.929 . S
H3082 C3086 0.929 . S
H3083 C3092 0.929 . S
C3084 H3078 0.930 . S
C3084 C3085 1.367 . S
C3084 C3092 1.378 . S
C3085 C3084 1.367 . S
C3085 C3093 1.433 . S
C3086 H3082 0.929 . S
C3086 C3088 1.378 . S
C3086 C3090 1.350 . S
C3087 C3090 1.463 . S
C3087 C3092 1.350 . S
C3087 N3095 1.427 . S
C3088 H3079 0.930 . S
C3088 C3086 1.378 . S
C3088 C3089 1.367 . S
C3089 C3088 1.367 . S
C3089 C3091 1.433 . S
C3090 C3086 1.350 . S
C3090 C3087 1.463 . S
C3090 N3094 1.427 . S
C3091 H3081 0.929 . S
C3091 C3089 1.433 . S
C3091 N3094 1.384 . S
C3092 H3083 0.929 . S
C3092 C3084 1.378 . S
C3092 C3087 1.350 . S
C3093 H3080 0.929 . S
C3093 C3085 1.433 . S
C3093 N3095 1.384 . S
N3094 C3090 1.427 . S
N3094 C3091 1.384 . S
N3095 C3087 1.427 . S
N3095 C3093 1.384 . S
H3096 C3102 0.930 . S
H3097 C3106 0.930 . S
H3098 C3111 0.929 . S
H3099 C3109 0.929 . S
H3100 C3104 0.929 . S
H3101 C3110 0.929 . S
C3102 H3096 0.930 . S
C3102 C3103 1.367 . S
C3102 C3110 1.378 . S
C3103 C3102 1.367 . S
C3103 C3111 1.433 . S
C3104 H3100 0.929 . S
C3104 C3106 1.378 . S
C3104 C3108 1.350 . S
C3105 C3108 1.463 . S
C3105 C3110 1.350 . S
C3105 N3113 1.427 . S
C3106 H3097 0.930 . S
C3106 C3104 1.378 . S
C3106 C3107 1.367 . S
C3107 C3106 1.367 . S
C3107 C3109 1.433 . S
C3108 C3104 1.350 . S
C3108 C3105 1.463 . S
C3108 N3112 1.427 . S
C3109 H3099 0.929 . S
C3109 C3107 1.433 . S
C3109 N3112 1.384 . S
C3110 H3101 0.929 . S
C3110 C3102 1.378 . S
C3110 C3105 1.350 . S
C3111 H3098 0.929 . S
C3111 C3103 1.433 . S
C3111 N3113 1.384 . S
N3112 C3108 1.427 . S
N3112 C3109 1.384 . S
N3113 C3105 1.427 . S
N3113 C3111 1.384 . S
H3114 C3120 0.930 . S
H3115 C3124 0.930 . S
H3116 C3129 0.929 . S
H3117 C3127 0.929 . S
H3118 C3122 0.929 . S
H3119 C3128 0.929 . S
C3120 H3114 0.930 . S
C3120 C3121 1.367 . S
C3120 C3128 1.378 . S
C3121 C3120 1.367 . S
C3121 C3129 1.433 . S
C3122 H3118 0.929 . S
C3122 C3124 1.378 . S
C3122 C3126 1.350 . S
C3123 C3126 1.463 . S
C3123 C3128 1.350 . S
C3123 N3131 1.427 . S
C3124 H3115 0.930 . S
C3124 C3122 1.378 . S
C3124 C3125 1.367 . S
C3125 C3124 1.367 . S
C3125 C3127 1.433 . S
C3126 C3122 1.350 . S
C3126 C3123 1.463 . S
C3126 N3130 1.427 . S
C3127 H3117 0.929 . S
C3127 C3125 1.433 . S
C3127 N3130 1.384 . S
C3128 H3119 0.929 . S
C3128 C3120 1.378 . S
C3128 C3123 1.350 . S
C3129 H3116 0.929 . S
C3129 C3121 1.433 . S
C3129 N3131 1.384 . S
N3130 C3126 1.427 . S
N3130 C3127 1.384 . S
N3131 C3123 1.427 . S
N3131 C3129 1.384 . S
H3132 C3138 0.930 . S
H3133 C3142 0.930 . S
H3134 C3147 0.929 . S
H3135 C3145 0.929 . S
H3136 C3140 0.929 1_655 S
H3137 C3146 0.929 . S
C3138 H3132 0.930 . S
C3138 C3139 1.367 . S
C3138 C3146 1.378 . S
C3139 C3138 1.367 . S
C3139 C3147 1.433 . S
C3140 H3136 0.929 1_455 S
C3140 C3142 1.378 . S
C3140 C3144 1.350 1_455 S
C3141 C3144 1.463 . S
C3141 C3146 1.350 . S
C3141 N3149 1.427 . S
C3142 H3133 0.930 . S
C3142 C3140 1.378 . S
C3142 C3143 1.367 . S
C3143 C3142 1.367 . S
C3143 C3145 1.433 . S
C3144 C3140 1.350 1_655 S
C3144 C3141 1.463 . S
C3144 N3148 1.427 1_655 S
C3145 H3135 0.929 . S
C3145 C3143 1.433 . S
C3145 N3148 1.384 . S
C3146 H3137 0.929 . S
C3146 C3138 1.378 . S
C3146 C3141 1.350 . S
C3147 H3134 0.929 . S
C3147 C3139 1.433 . S
C3147 N3149 1.384 . S
N3148 C3144 1.427 1_455 S
N3148 C3145 1.384 . S
N3149 C3141 1.427 . S
N3149 C3147 1.384 . S
H3150 C3156 0.930 . S
H3151 C3160 0.930 . S
H3152 C3165 0.929 . S
H3153 C3163 0.929 . S
H3154 C3158 0.929 . S
H3155 C3164 0.929 . S
C3156 H3150 0.930 . S
C3156 C3157 1.367 . S
C3156 C3164 1.378 . S
C3157 C3156 1.367 . S
C3157 C3165 1.433 . S
C3158 H3154 0.929 . S
C3158 C3160 1.378 . S
C3158 C3162 1.350 . S
C3159 C3162 1.463 . S
C3159 C3164 1.350 . S
C3159 N3167 1.427 . S
C3160 H3151 0.930 . S
C3160 C3158 1.378 . S
C3160 C3161 1.367 . S
C3161 C3160 1.367 . S
C3161 C3163 1.433 . S
C3162 C3158 1.350 . S
C3162 C3159 1.463 . S
C3162 N3166 1.427 . S
C3163 H3153 0.929 . S
C3163 C3161 1.433 . S
C3163 N3166 1.384 . S
C3164 H3155 0.929 . S
C3164 C3156 1.378 . S
C3164 C3159 1.350 . S
C3165 H3152 0.929 . S
C3165 C3157 1.433 . S
C3165 N3167 1.384 . S
N3166 C3162 1.427 . S
N3166 C3163 1.384 . S
N3167 C3159 1.427 . S
N3167 C3165 1.384 . S
H3168 C3174 0.930 . S
H3169 C3178 0.930 . S
H3170 C3183 0.929 . S
H3171 C3181 0.929 . S
H3172 C3176 0.929 . S
H3173 C3182 0.929 . S
C3174 H3168 0.930 . S
C3174 C3175 1.367 . S
C3174 C3182 1.378 . S
C3175 C3174 1.367 . S
C3175 C3183 1.433 . S
C3176 H3172 0.929 . S
C3176 C3178 1.378 . S
C3176 C3180 1.350 . S
C3177 C3180 1.463 . S
C3177 C3182 1.350 . S
C3177 N3185 1.427 . S
C3178 H3169 0.930 . S
C3178 C3176 1.378 . S
C3178 C3179 1.367 . S
C3179 C3178 1.367 . S
C3179 C3181 1.433 . S
C3180 C3176 1.350 . S
C3180 C3177 1.463 . S
C3180 N3184 1.427 . S
C3181 H3171 0.929 . S
C3181 C3179 1.433 . S
C3181 N3184 1.384 . S
C3182 H3173 0.929 . S
C3182 C3174 1.378 . S
C3182 C3177 1.350 . S
C3183 H3170 0.929 . S
C3183 C3175 1.433 . S
C3183 N3185 1.384 . S
N3184 C3180 1.427 . S
N3184 C3181 1.384 . S
N3185 C3177 1.427 . S
N3185 C3183 1.384 . S
H3186 C3192 0.930 . S
H3187 C3196 0.930 . S
H3188 C3201 0.929 . S
H3189 C3199 0.929 . S
H3190 C3194 0.929 . S
H3191 C3200 0.929 . S
C3192 H3186 0.930 . S
C3192 C3193 1.367 . S
C3192 C3200 1.378 . S
C3193 C3192 1.367 . S
C3193 C3201 1.433 . S
C3194 H3190 0.929 . S
C3194 C3196 1.378 . S
C3194 C3198 1.350 . S
C3195 C3198 1.463 . S
C3195 C3200 1.350 . S
C3195 N3203 1.427 . S
C3196 H3187 0.930 . S
C3196 C3194 1.378 . S
C3196 C3197 1.367 . S
C3197 C3196 1.367 . S
C3197 C3199 1.433 . S
C3198 C3194 1.350 . S
C3198 C3195 1.463 . S
C3198 N3202 1.427 . S
C3199 H3189 0.929 . S
C3199 C3197 1.433 . S
C3199 N3202 1.384 . S
C3200 H3191 0.929 . S
C3200 C3192 1.378 . S
C3200 C3195 1.350 . S
C3201 H3188 0.929 . S
C3201 C3193 1.433 . S
C3201 N3203 1.384 . S
N3202 C3198 1.427 . S
N3202 C3199 1.384 . S
N3203 C3195 1.427 . S
N3203 C3201 1.384 . S
H3204 C3210 0.930 . S
H3205 C3214 0.930 . S
H3206 C3219 0.929 . S
H3207 C3217 0.929 . S
H3208 C3212 0.929 . S
H3209 C3218 0.929 . S
C3210 H3204 0.930 . S
C3210 C3211 1.367 . S
C3210 C3218 1.378 . S
C3211 C3210 1.367 . S
C3211 C3219 1.433 . S
C3212 H3208 0.929 . S
C3212 C3214 1.378 . S
C3212 C3216 1.350 . S
C3213 C3216 1.463 . S
C3213 C3218 1.350 . S
C3213 N3221 1.427 . S
C3214 H3205 0.930 . S
C3214 C3212 1.378 . S
C3214 C3215 1.367 1_655 S
C3215 C3214 1.367 1_455 S
C3215 C3217 1.433 . S
C3216 C3212 1.350 . S
C3216 C3213 1.463 . S
C3216 N3220 1.404 1_655 S
C3217 H3207 0.929 . S
C3217 C3215 1.433 . S
C3217 N3220 1.400 . S
C3218 H3209 0.929 . S
C3218 C3210 1.378 . S
C3218 C3213 1.350 . S
C3219 H3206 0.929 . S
C3219 C3211 1.433 . S
C3219 N3221 1.384 . S
N3220 C3216 1.404 1_455 S
N3220 C3217 1.400 . S
N3221 C3213 1.427 . S
N3221 C3219 1.384 . S
H3222 C3228 0.930 . S
H3223 C3232 0.930 . S
H3224 C3237 0.929 . S
H3225 C3235 0.929 . S
H3226 C3230 0.929 . S
H3227 C3236 0.929 . S
C3228 H3222 0.930 . S
C3228 C3229 1.367 . S
C3228 C3236 1.378 . S
C3229 C3228 1.367 . S
C3229 C3237 1.433 . S
C3230 H3226 0.929 . S
C3230 C3232 1.378 . S
C3230 C3234 1.350 . S
C3231 C3234 1.463 . S
C3231 C3236 1.350 . S
C3231 N3239 1.427 . S
C3232 H3223 0.930 . S
C3232 C3230 1.378 . S
C3232 C3233 1.367 . S
C3233 C3232 1.367 . S
C3233 C3235 1.433 . S
C3234 C3230 1.350 . S
C3234 C3231 1.463 . S
C3234 N3238 1.427 . S
C3235 H3225 0.929 . S
C3235 C3233 1.433 . S
C3235 N3238 1.384 . S
C3236 H3227 0.929 . S
C3236 C3228 1.378 . S
C3236 C3231 1.350 . S
C3237 H3224 0.929 . S
C3237 C3229 1.433 . S
C3237 N3239 1.384 . S
N3238 C3234 1.427 . S
N3238 C3235 1.384 . S
N3239 C3231 1.427 . S
N3239 C3237 1.384 . S
H3240 C3246 0.930 . S
H3241 C3250 0.930 . S
H3242 C3255 0.929 . S
H3243 C3253 0.929 . S
H3244 C3248 0.929 . S
H3245 C3254 0.929 . S
C3246 H3240 0.930 . S
C3246 C3247 1.367 . S
C3246 C3254 1.378 . S
C3247 C3246 1.367 . S
C3247 C3255 1.433 . S
C3248 H3244 0.929 . S
C3248 C3250 1.378 . S
C3248 C3252 1.350 . S
C3249 C3252 1.463 . S
C3249 C3254 1.350 . S
C3249 N3257 1.427 . S
C3250 H3241 0.930 . S
C3250 C3248 1.378 . S
C3250 C3251 1.367 . S
C3251 C3250 1.367 . S
C3251 C3253 1.433 . S
C3252 C3248 1.350 . S
C3252 C3249 1.463 . S
C3252 N3256 1.427 . S
C3253 H3243 0.929 . S
C3253 C3251 1.433 . S
C3253 N3256 1.384 . S
C3254 H3245 0.929 . S
C3254 C3246 1.378 . S
C3254 C3249 1.350 . S
C3255 H3242 0.929 . S
C3255 C3247 1.433 . S
C3255 N3257 1.384 . S
N3256 C3252 1.427 . S
N3256 C3253 1.384 . S
N3257 C3249 1.427 . S
N3257 C3255 1.384 . S
H3258 C3264 0.930 . S
H3259 C3268 0.930 . S
H3260 C3273 0.929 . S
H3261 C3271 0.929 . S
H3262 C3266 0.929 . S
H3263 C3272 0.929 . S
C3264 H3258 0.930 . S
C3264 C3265 1.367 . S
C3264 C3272 1.378 . S
C3265 C3264 1.367 . S
C3265 C3273 1.433 . S
C3266 H3262 0.929 . S
C3266 C3268 1.378 1_565 S
C3266 C3270 1.350 . S
C3267 C3270 1.463 . S
C3267 C3272 1.350 . S
C3267 N3275 1.427 . S
C3268 H3259 0.930 . S
C3268 C3266 1.378 1_545 S
C3268 C3269 1.355 1_545 S
C3269 C3268 1.355 1_565 S
C3269 C3271 1.465 . S
C3270 C3266 1.350 . S
C3270 C3267 1.463 . S
C3270 N3274 1.427 . S
C3271 H3261 0.929 . S
C3271 C3269 1.465 . S
C3271 N3274 1.384 . S
C3272 H3263 0.929 . S
C3272 C3264 1.378 . S
C3272 C3267 1.350 . S
C3273 H3260 0.929 . S
C3273 C3265 1.433 . S
C3273 N3275 1.384 . S
N3274 C3270 1.427 . S
N3274 C3271 1.384 . S
N3275 C3267 1.427 . S
N3275 C3273 1.384 . S
H3276 C3282 0.930 . S
H3277 C3286 0.930 . S
H3278 C3291 0.929 . S
H3279 C3289 0.929 . S
H3280 C3284 0.929 . S
H3281 C3290 0.929 . S
C3282 H3276 0.930 . S
C3282 C3283 1.367 . S
C3282 C3290 1.378 . S
C3283 C3282 1.367 . S
C3283 C3291 1.433 . S
C3284 H3280 0.929 . S
C3284 C3286 1.378 . S
C3284 C3288 1.350 . S
C3285 C3288 1.463 . S
C3285 C3290 1.350 . S
C3285 N3293 1.427 . S
C3286 H3277 0.930 . S
C3286 C3284 1.378 . S
C3286 C3287 1.367 . S
C3287 C3286 1.367 . S
C3287 C3289 1.433 . S
C3288 C3284 1.350 . S
C3288 C3285 1.463 . S
C3288 N3292 1.427 . S
C3289 H3279 0.929 . S
C3289 C3287 1.433 . S
C3289 N3292 1.384 . S
C3290 H3281 0.929 . S
C3290 C3282 1.378 . S
C3290 C3285 1.350 . S
C3291 H3278 0.929 . S
C3291 C3283 1.433 . S
C3291 N3293 1.384 . S
N3292 C3288 1.427 . S
N3292 C3289 1.384 . S
N3293 C3285 1.427 . S
N3293 C3291 1.384 . S
H3294 C3300 0.930 . S
H3295 C3304 0.899 1_556 S
H3296 C3309 0.926 . S
H3297 C3307 0.929 . S
H3298 C3302 0.898 1_556 S
H3299 C3308 0.929 . S
C3300 H3294 0.930 . S
C3300 C3301 1.367 . S
C3300 C3308 1.378 . S
C3301 C3300 1.367 . S
C3301 C3309 1.436 1_554 S
C3302 H3298 0.898 1_554 S
C3302 C3304 1.377 . S
C3302 C3306 1.376 . S
C3303 C3306 1.463 . S
C3303 C3308 1.350 . S
C3303 N3311 1.442 . S
C3304 H3295 0.899 1_554 S
C3304 C3302 1.377 . S
C3304 C3305 1.404 . S
C3305 C3304 1.404 . S
C3305 C3307 1.433 . S
C3306 C3302 1.376 . S
C3306 C3303 1.463 . S
C3306 N3310 1.427 . S
C3307 H3297 0.929 . S
C3307 C3305 1.433 . S
C3307 N3310 1.384 . S
C3308 H3299 0.929 . S
C3308 C3300 1.378 . S
C3308 C3303 1.350 . S
C3309 H3296 0.926 . S
C3309 C3301 1.436 1_556 S
C3309 N3311 1.382 1_556 S
N3310 C3306 1.427 . S
N3310 C3307 1.384 . S
N3311 C3303 1.442 . S
N3311 C3309 1.382 1_554 S
H3312 C3318 0.930 . S
H3313 C3322 0.930 . S
H3314 C3327 0.929 . S
H3315 C3325 0.929 . S
H3316 C3320 0.929 . S
H3317 C3326 0.929 . S
C3318 H3312 0.930 . S
C3318 C3319 1.367 . S
C3318 C3326 1.378 . S
C3319 C3318 1.367 . S
C3319 C3327 1.433 . S
C3320 H3316 0.929 . S
C3320 C3322 1.378 . S
C3320 C3324 1.350 . S
C3321 C3324 1.463 . S
C3321 C3326 1.350 . S
C3321 N3329 1.427 . S
C3322 H3313 0.930 . S
C3322 C3320 1.378 . S
C3322 C3323 1.367 . S
C3323 C3322 1.367 . S
C3323 C3325 1.433 . S
C3324 C3320 1.350 . S
C3324 C3321 1.463 . S
C3324 N3328 1.427 . S
C3325 H3315 0.929 . S
C3325 C3323 1.433 . S
C3325 N3328 1.384 . S
C3326 H3317 0.929 . S
C3326 C3318 1.378 . S
C3326 C3321 1.350 . S
C3327 H3314 0.929 . S
C3327 C3319 1.433 . S
C3327 N3329 1.384 . S
N3328 C3324 1.427 . S
N3328 C3325 1.384 . S
N3329 C3321 1.427 . S
N3329 C3327 1.384 . S
H3330 C3336 0.930 . S
H3331 C3340 0.930 . S
H3332 C3345 0.929 . S
H3333 C3343 0.929 . S
H3334 C3338 0.929 . S
H3335 C3344 0.929 1_556 S
C3336 H3330 0.930 . S
C3336 C3337 1.367 . S
C3336 C3344 1.378 . S
C3337 C3336 1.367 . S
C3337 C3345 1.433 . S
C3338 H3334 0.929 . S
C3338 C3340 1.378 . S
C3338 C3342 1.350 . S
C3339 C3342 1.463 . S
C3339 C3344 1.350 . S
C3339 N3347 1.427 . S
C3340 H3331 0.930 . S
C3340 C3338 1.378 . S
C3340 C3341 1.367 . S
C3341 C3340 1.367 . S
C3341 C3343 1.433 1_554 S
C3342 C3338 1.350 . S
C3342 C3339 1.463 . S
C3342 N3346 1.427 1_554 S
C3343 H3333 0.929 . S
C3343 C3341 1.433 1_556 S
C3343 N3346 1.384 . S
C3344 H3335 0.929 1_554 S
C3344 C3336 1.378 . S
C3344 C3339 1.350 . S
C3345 H3332 0.929 . S
C3345 C3337 1.433 . S
C3345 N3347 1.384 . S
N3346 C3342 1.427 1_556 S
N3346 C3343 1.384 . S
N3347 C3339 1.427 . S
N3347 C3345 1.384 . S
H3348 C3354 0.930 . S
H3349 C3358 0.930 . S
H3350 C3363 0.929 . S
H3351 C3361 0.929 . S
H3352 C3356 0.929 . S
H3353 C3362 0.929 . S
C3354 H3348 0.930 . S
C3354 C3355 1.367 . S
C3354 C3362 1.378 . S
C3355 C3354 1.367 . S
C3355 C3363 1.433 . S
C3356 H3352 0.929 . S
C3356 C3358 1.378 . S
C3356 C3360 1.350 . S
C3357 C3360 1.463 . S
C3357 C3362 1.350 . S
C3357 N3365 1.427 . S
C3358 H3349 0.930 . S
C3358 C3356 1.378 . S
C3358 C3359 1.367 . S
C3359 C3358 1.367 . S
C3359 C3361 1.433 . S
C3360 C3356 1.350 . S
C3360 C3357 1.463 . S
C3360 N3364 1.427 . S
C3361 H3351 0.929 . S
C3361 C3359 1.433 . S
C3361 N3364 1.384 . S
C3362 H3353 0.929 . S
C3362 C3354 1.378 . S
C3362 C3357 1.350 . S
C3363 H3350 0.929 . S
C3363 C3355 1.433 . S
C3363 N3365 1.384 . S
N3364 C3360 1.427 . S
N3364 C3361 1.384 . S
N3365 C3357 1.427 . S
N3365 C3363 1.384 . S
H3366 C3372 0.930 . S
H3367 C3376 0.930 . S
H3368 C3381 0.929 . S
H3369 C3379 0.929 . S
H3370 C3374 0.929 . S
H3371 C3380 0.929 . S
C3372 H3366 0.930 . S
C3372 C3373 1.367 . S
C3372 C3380 1.378 . S
C3373 C3372 1.367 . S
C3373 C3381 1.433 . S
C3374 H3370 0.929 . S
C3374 C3376 1.378 . S
C3374 C3378 1.350 . S
C3375 C3378 1.463 . S
C3375 C3380 1.350 . S
C3375 N3383 1.427 . S
C3376 H3367 0.930 . S
C3376 C3374 1.378 . S
C3376 C3377 1.367 . S
C3377 C3376 1.367 . S
C3377 C3379 1.433 . S
C3378 C3374 1.350 . S
C3378 C3375 1.463 . S
C3378 N3382 1.427 . S
C3379 H3369 0.929 . S
C3379 C3377 1.433 . S
C3379 N3382 1.384 . S
C3380 H3371 0.929 . S
C3380 C3372 1.378 . S
C3380 C3375 1.350 . S
C3381 H3368 0.929 . S
C3381 C3373 1.433 . S
C3381 N3383 1.384 . S
N3382 C3378 1.427 . S
N3382 C3379 1.384 . S
N3383 C3375 1.427 . S
N3383 C3381 1.384 . S
C1663 C101 1.868 . S
C1667 C368 1.754 . S
C1681 C57 2.167 . S
C1685 C459 2.159 . S
C1699 C73 1.637 . S
C1703 C536 1.637 . S
C1721 C634 1.409 . S
C1717 C78 1.522 . S
C1735 C21 1.522 . S
C1739 C718 1.506 . S
C1757 C790 0.971 . S
C1753 C31 1.018 . S
C1775 C879 0.973 . S
C1771 C49 0.951 . S
C1789 C0 1.379 . S
C1793 C956 1.314 . S
C1811 C375 2.038 . S
C1807 C218 2.134 . S
C1825 C229 0.711 . S
C1829 C466 0.713 . S
C1847 C543 1.164 . S
C1843 C257 1.190 . S
C1865 C620 1.591 . S
C1861 C164 1.586 . S
C1879 C216 1.978 . S
C1883 C704 1.944 . S
C1901 C806 1.146 . S
C1897 C231 1.216 . S
C1919 C886 0.799 . S
C1915 C255 0.786 . S
C1937 C963 1.501 . S
C1933 C166 1.631 . S
C1955 C382 1.336 . S
C1951 C143 1.387 . S
C1969 C265 1.938 . S
C1973 C1047 1.917 . S
C1991 C1135 2.157 . S
C1987 C299 2.316 . S
C2009 C1208 0.572 . S
C2005 C291 0.602 . S
C2023 C104 0.808 . S
C2027 C970 0.794 . S
C2041 C117 1.377 . S
C2045 C550 1.376 . S
C2059 C304 2.185 . S
C2063 C1299 2.145 . S
C2081 C1376 0.666 . S
C2077 C278 0.658 . S
C2099 C379 1.691 . S
C2095 C60 1.829 . S
C2117 C1394 2.080 . S
C2113 C96 2.152 . S
C2131 C88 1.614 . S
C2135 C547 1.538 . S
C2149 C65 1.464 . S
C2153 C1294 1.349 . S
C2171 C706 1.479 . S
C2167 C10 1.512 . S
C2185 C44 0.958 . S
C2189 C1138 0.932 . S
C2207 C890 0.837 . S
C2203 C34 0.799 . S
C2225 C1471 1.241 . S
C2221 C13 1.449 . S
C2243 C386 1.955 . S
C2239 C138 2.014 . S
C2261 C1378 0.649 . S
C2257 C296 0.649 . S
C2275 C112 1.126 . S
C2279 C554 1.110 . S
C2293 C270 1.593 . S
C2297 C1303 1.499 . S
C2311 C140 2.028 . S
C2315 C715 1.881 . S
C2333 C1131 1.084 . S
C2329 C294 1.147 . S
C2347 C114 0.727 . S
C2351 C874 0.746 . S
C2365 C268 1.531 . S
C2369 C1478 1.436 . S
C2383 C169 1.384 . S
C2387 C370 1.320 1_554 S
C2401 C161 1.897 . S
C2405 C1058 1.835 . S
C2419 C234 2.271 . S
C2423 C788 2.091 . S
C2437 C226 0.514 . S
C2441 C1219 0.503 . S
C2459 C1462 0.875 . S
C2455 C247 0.876 1_565 S
C2473 C195 1.426 . S
C2477 C538 1.376 . S
C2495 C638 2.064 . S
C2491 C239 2.110 . S
C2513 C463 0.646 . S
C2509 C187 0.584 . S
C2527 C75 1.872 . S
C2531 C1544 1.769 . S
C2549 C1383 2.153 . S
C2545 C83 2.173 . S
C2563 C99 1.635 . S
C2567 C1628 1.642 . S
C2581 C52 1.518 . S
C2585 C1306 1.411 . S
C2599 C47 1.518 . S
C2603 C1054 1.515 . S
C2621 C1126 0.956 . S
C2617 C5 1.007 . S
C2639 C1215 0.967 . S
C2635 C23 0.962 . S
C2657 C1460 1.297 . S
C2653 C26 1.361 . S
C2675 C1551 2.029 . S
C2671 C244 2.133 . S
C2689 C177 0.700 . S
C2693 C1390 0.704 . S
C2711 C1635 1.164 . S
C2707 C192 1.184 . S
C2729 C1292 1.591 . S
C2725 C203 1.602 . S
C2747 C1040 1.961 . S
C2743 C242 1.983 . S
C2761 C179 1.206 . S
C2765 C1142 1.131 . S
C2783 C1222 0.760 . S
C2779 C190 0.798 . S
C2797 C205 1.633 . S
C2801 C1467 1.518 . S
C2819 C1558 1.349 . S
C2815 C286 1.385 . S
C2833 C122 1.938 . S
C2837 C711 1.913 . S
C2855 C799 2.160 . S
C2851 C130 2.316 . S
C2873 C872 0.562 . S
C2869 C148 0.589 . S
C2891 C1474 0.806 . S
C2887 C273 0.809 . S
C2905 C260 1.383 1_556 S
C2909 C1642 1.375 . S
C2927 C627 2.141 . S
C2923 C135 2.176 . S
C2945 C452 0.681 . S
C2941 C109 0.652 . S
C2959 C86 1.828 . S
C2963 C1555 1.693 . S
C2981 C470 2.078 . S
C2977 C70 2.151 . S
C2995 C62 1.618 . S
C2999 C1639 1.523 . S
C3013 C91 1.465 . S
C3017 C622 1.350 . S
C3031 C36 1.516 . S
C3035 C1042 1.474 . S
C3053 C802 0.914 . S
C3049 C18 0.937 . S
C3067 C8 0.807 . S
C3071 C1226 0.835 . S
C3085 C39 1.446 . S
C3089 C967 1.268 . S
C3107 C1562 1.958 . S
C3103 C307 2.010 . S
C3121 C153 0.650 . S
C3125 C454 0.649 . S
C3143 C1646 1.097 . S
C3139 C281 1.135 . S
C3157 C127 1.594 . S
C3161 C631 1.493 . S
C3175 C309 2.026 . S
C3179 C1051 1.876 . S
C3197 C795 1.089 . S
C3193 C151 1.148 . S
C3211 C283 0.718 . S
C3215 C1210 0.735 . S
C3233 C974 1.417 . S
C3229 C125 1.540 . S
C3251 C1546 1.313 . S
C3247 C221 1.379 . S
C3269 C722 1.826 1_665 S
C3265 C200 1.897 . S
C3283 C208 2.271 . S
C3287 C1124 2.094 . S
C3305 C883 0.497 . S
C3301 C174 0.487 . S
C3319 C182 0.875 . S
C3323 C958 0.880 . S
C3337 C156 1.428 . S
C3341 C1630 1.380 1_554 S
C3359 C1310 2.074 . S
C3355 C213 2.116 1_565 S
C3377 C1387 0.610 . S
C3373 C252 0.582 . S
