# Generated by pormake.
# Topology pyr, (3,6)-cn, num edge types: 1
# Building blocks:
#     Node 0, Type 0, BuildingBlock: WUSLED_clean_sbu_0, # of connection points: 3
#     Node 1, Type 0, BuildingBlock: WUSLED_clean_sbu_0, # of connection points: 3
#     Node 2, Type 0, BuildingBlock: WUSLED_clean_sbu_0, # of connection points: 3
#     Node 3, Type 0, BuildingBlock: WUSLED_clean_sbu_0, # of connection points: 3
#     Node 4, Type 0, BuildingBlock: WUSLED_clean_sbu_0, # of connection points: 3
#     Node 5, Type 0, BuildingBlock: WUSLED_clean_sbu_0, # of connection points: 3
#     Node 6, Type 0, BuildingBlock: WUSLED_clean_sbu_0, # of connection points: 3
#     Node 7, Type 0, BuildingBlock: WUSLED_clean_sbu_0, # of connection points: 3
#     Node 8, Type 1, BuildingBlock: MIDCAF_clean_sbu_0, # of connection points: 6
#     Node 9, Type 1, BuildingBlock: MIDCAF_clean_sbu_0, # of connection points: 6
#     Node 10, Type 1, BuildingBlock: MIDCAF_clean_sbu_0, # of connection points: 6
#     Node 11, Type 1, BuildingBlock: MIDCAF_clean_sbu_0, # of connection points: 6
#     Edge 12, Type (0, 1), BuildingBlock: AJUNOK_clean_linker_0, # of connection points: 2
#     Edge 13, Type (0, 1), BuildingBlock: AJUNOK_clean_linker_0, # of connection points: 2
#     Edge 14, Type (0, 1), BuildingBlock: AJUNOK_clean_linker_0, # of connection points: 2
#     Edge 15, Type (0, 1), BuildingBlock: AJUNOK_clean_linker_0, # of connection points: 2
#     Edge 16, Type (0, 1), BuildingBlock: AJUNOK_clean_linker_0, # of connection points: 2
#     Edge 17, Type (0, 1), BuildingBlock: AJUNOK_clean_linker_0, # of connection points: 2
#     Edge 18, Type (0, 1), BuildingBlock: AJUNOK_clean_linker_0, # of connection points: 2
#     Edge 19, Type (0, 1), BuildingBlock: AJUNOK_clean_linker_0, # of connection points: 2
#     Edge 20, Type (0, 1), BuildingBlock: AJUNOK_clean_linker_0, # of connection points: 2
#     Edge 21, Type (0, 1), BuildingBlock: AJUNOK_clean_linker_0, # of connection points: 2
#     Edge 22, Type (0, 1), BuildingBlock: AJUNOK_clean_linker_0, # of connection points: 2
#     Edge 23, Type (0, 1), BuildingBlock: AJUNOK_clean_linker_0, # of connection points: 2
#     Edge 24, Type (0, 1), BuildingBlock: AJUNOK_clean_linker_0, # of connection points: 2
#     Edge 25, Type (0, 1), BuildingBlock: AJUNOK_clean_linker_0, # of connection points: 2
#     Edge 26, Type (0, 1), BuildingBlock: AJUNOK_clean_linker_0, # of connection points: 2
#     Edge 27, Type (0, 1), BuildingBlock: AJUNOK_clean_linker_0, # of connection points: 2
#     Edge 28, Type (0, 1), BuildingBlock: AJUNOK_clean_linker_0, # of connection points: 2
#     Edge 29, Type (0, 1), BuildingBlock: AJUNOK_clean_linker_0, # of connection points: 2
#     Edge 30, Type (0, 1), BuildingBlock: AJUNOK_clean_linker_0, # of connection points: 2
#     Edge 31, Type (0, 1), BuildingBlock: AJUNOK_clean_linker_0, # of connection points: 2
#     Edge 32, Type (0, 1), BuildingBlock: AJUNOK_clean_linker_0, # of connection points: 2
#     Edge 33, Type (0, 1), BuildingBlock: AJUNOK_clean_linker_0, # of connection points: 2
#     Edge 34, Type (0, 1), BuildingBlock: AJUNOK_clean_linker_0, # of connection points: 2
#     Edge 35, Type (0, 1), BuildingBlock: AJUNOK_clean_linker_0, # of connection points: 2
# Relax obj value: 0.020
# Max RMSD: 0.063
# Mean RMSD: 0.028
data_MOF--net-pry--node1-WUSLED_clean_sbu_0--node2-MIDCAF_clean_sbu_0--edge1-AJUNOK_clean_linker_0
_symmetry_space_group_name_H-M    P1
_symmetry_Int_Tables_number       1
_symmetry_cell_setting            triclinic
loop_
_symmetry_equiv_pos_as_xyz
'x, y, z'
_cell_length_a     36.955608
_cell_length_b     37.147268
_cell_length_c     37.087205
_cell_angle_alpha  89.498837
_cell_angle_beta   90.422063
_cell_angle_gamma 90.59511
loop_
_atom_site_label
_atom_site_type_symbol
_atom_site_fract_x
_atom_site_fract_y
_atom_site_fract_z
_atom_type_partial_charge
C0 C 0.20975 0.31621 0.17061 0.0
C1 C 0.17186 0.31421 0.17296 0.0
C2 C 0.16652 0.37468 0.14696 0.0
C3 C 0.15052 0.34307 0.16123 0.0
C4 C 0.20452 0.37699 0.14571 0.0
C5 C 0.22585 0.34801 0.15727 0.0
U6 U 0.23617 0.23282 0.2283 0.0
O7 O 0.25321 0.17935 0.2106 0.0
O8 O 0.29077 0.2128 0.24218 0.0
C9 C 0.28624 0.1831 0.22358 0.0
C10 C 0.23281 0.28493 0.17977 0.0
C11 C 0.31623 0.17257 0.19952 0.0
C12 C 0.33877 0.15716 0.14009 0.0
C13 C 0.31166 0.17131 0.16188 0.0
C14 C 0.37631 0.14674 0.19279 0.0
C15 C 0.37119 0.14421 0.1553 0.0
C16 C 0.34904 0.16067 0.21466 0.0
C17 C 0.1776 0.20619 0.31112 0.0
C18 C 0.16862 0.14658 0.33756 0.0
C19 C 0.14567 0.19882 0.36813 0.0
C20 C 0.15956 0.22103 0.34062 0.0
C21 C 0.14944 0.16125 0.36657 0.0
C22 C 0.18266 0.1688 0.31019 0.0
C23 C 0.18809 0.22976 0.28043 0.0
O24 O 0.25238 0.28723 0.20943 0.0
O25 O 0.2181 0.25289 0.1753 0.0
O26 O 0.18251 0.2165 0.24809 0.0
O27 O 0.21904 0.24733 0.28328 0.0
H28 H 0.15866 0.29008 0.18319 0.0
H29 H 0.12136 0.34026 0.16248 0.0
H30 H 0.21781 0.40116 0.13572 0.0
H31 H 0.25503 0.35024 0.15529 0.0
H32 H 0.33414 0.15577 0.11125 0.0
H33 H 0.28676 0.18035 0.14934 0.0
H34 H 0.40077 0.13661 0.20536 0.0
H35 H 0.35315 0.16113 0.24361 0.0
H36 H 0.17215 0.11774 0.3357 0.0
H37 H 0.13065 0.21091 0.38979 0.0
H38 H 0.15518 0.24979 0.34181 0.0
H39 H 0.19653 0.15667 0.28779 0.0
C40 C 0.23476 0.84792 0.67617 0.0
C41 C 0.20118 0.83111 0.66964 0.0
C42 C 0.1754 0.88793 0.64904 0.0
C43 C 0.17187 0.85083 0.65625 0.0
C44 C 0.20846 0.90519 0.65741 0.0
C45 C 0.23788 0.88539 0.67083 0.0
U46 U 0.32095 0.81975 0.73036 0.0
O47 O 0.33935 0.7649 0.74407 0.0
O48 O 0.37265 0.80004 0.70956 0.0
C49 C 0.36819 0.76768 0.72363 0.0
C50 C 0.26657 0.82512 0.68446 0.0
C51 C 0.37659 0.73638 0.70053 0.0
C52 C 0.3965 0.71118 0.64347 0.0
C53 C 0.38315 0.74015 0.66332 0.0
C54 C 0.39534 0.67376 0.69715 0.0
C55 C 0.40358 0.67787 0.66036 0.0
C56 C 0.38204 0.70264 0.71694 0.0
C57 C 0.35205 0.876 0.81324 0.0
C58 C 0.41158 0.87775 0.8419 0.0
C59 C 0.36207 0.91053 0.86797 0.0
C60 C 0.33897 0.89805 0.84063 0.0
C61 C 0.39888 0.90132 0.86847 0.0
C62 C 0.38838 0.86527 0.81445 0.0
C63 C 0.32778 0.86684 0.78272 0.0
O64 O 0.29879 0.8393 0.67869 0.0
O65 O 0.26512 0.80528 0.71395 0.0
O66 O 0.30868 0.83694 0.78575 0.0
O67 O 0.34098 0.87194 0.75023 0.0
H68 H 0.19805 0.80228 0.6734 0.0
H69 H 0.14678 0.83676 0.65011 0.0
H70 H 0.21228 0.93359 0.65159 0.0
H71 H 0.26342 0.89917 0.67555 0.0
H72 H 0.40317 0.71551 0.61537 0.0
H73 H 0.3794 0.76582 0.64983 0.0
H74 H 0.40046 0.64849 0.71097 0.0
H75 H 0.37742 0.69898 0.74556 0.0
H76 H 0.43964 0.86963 0.84187 0.0
H77 H 0.35145 0.92878 0.88781 0.0
H78 H 0.31104 0.90666 0.84021 0.0
H79 H 0.39901 0.84805 0.7937 0.0
C80 C 0.67693 0.34639 0.73872 0.0
C81 C 0.69325 0.38028 0.73349 0.0
C82 C 0.65099 0.39351 0.68428 0.0
C83 C 0.68046 0.40358 0.70646 0.0
C84 C 0.6358 0.35892 0.68859 0.0
C85 C 0.64859 0.33563 0.71567 0.0
U86 U 0.73825 0.32123 0.81954 0.0
O87 O 0.72306 0.30253 0.87371 0.0
O88 O 0.75438 0.26719 0.83898 0.0
C89 C 0.73662 0.2703 0.86937 0.0
C90 C 0.68758 0.32288 0.76921 0.0
C91 C 0.71279 0.23977 0.87998 0.0
C92 C 0.65255 0.21442 0.88922 0.0
C93 C 0.67514 0.24133 0.87484 0.0
C94 C 0.70488 0.18276 0.91229 0.0
C95 C 0.66712 0.18533 0.90885 0.0
C96 C 0.72751 0.20989 0.89813 0.0
C97 C 0.81971 0.38327 0.84434 0.0
C98 C 0.87431 0.37067 0.87933 0.0
C99 C 0.85247 0.43172 0.87468 0.0
C100 C 0.82378 0.41985 0.85282 0.0
C101 C 0.87788 0.40726 0.88862 0.0
C102 C 0.84542 0.35875 0.85757 0.0
C103 C 0.78863 0.37187 0.82146 0.0
O104 O 0.71807 0.30536 0.76574 0.0
O105 O 0.68379 0.33678 0.8014 0.0
O106 O 0.75648 0.37542 0.83581 0.0
O107 O 0.79189 0.34186 0.80322 0.0
H108 H 0.71528 0.38903 0.75087 0.0
H109 H 0.69314 0.42984 0.70337 0.0
H110 H 0.61307 0.35044 0.67201 0.0
H111 H 0.63566 0.30955 0.71926 0.0
H112 H 0.62353 0.21681 0.88581 0.0
H113 H 0.6631 0.26394 0.86073 0.0
H114 H 0.71677 0.16065 0.92731 0.0
H115 H 0.75647 0.20814 0.90241 0.0
H116 H 0.89378 0.35119 0.88902 0.0
H117 H 0.85421 0.45999 0.88146 0.0
H118 H 0.80442 0.43931 0.84279 0.0
H119 H 0.84314 0.33039 0.85129 0.0
C120 C 0.73929 0.67198 0.33917 0.0
C121 C 0.74218 0.67369 0.37689 0.0
C122 C 0.68198 0.64669 0.38336 0.0
C123 C 0.71393 0.66109 0.39869 0.0
C124 C 0.67877 0.64593 0.34554 0.0
C125 C 0.70722 0.65831 0.3237 0.0
U126 U 0.81991 0.73359 0.31354 0.0
O127 O 0.87446 0.71921 0.29587 0.0
O128 O 0.83926 0.75023 0.25958 0.0
C129 C 0.86989 0.73285 0.26333 0.0
C130 C 0.76989 0.68267 0.31569 0.0
C131 C 0.88058 0.70971 0.23294 0.0
C132 C 0.89216 0.65064 0.20782 0.0
C133 C 0.87931 0.67199 0.2358 0.0
C134 C 0.90663 0.7042 0.17301 0.0
C135 C 0.90641 0.66643 0.17621 0.0
C136 C 0.89399 0.72558 0.20116 0.0
C137 C 0.84315 0.81567 0.37338 0.0
C138 C 0.90188 0.84339 0.38549 0.0
C139 C 0.84727 0.8758 0.39914 0.0
C140 C 0.82645 0.84671 0.38643 0.0
C141 C 0.88529 0.87429 0.39934 0.0
C142 C 0.8811 0.81448 0.37257 0.0
C143 C 0.82063 0.78421 0.36281 0.0
O144 O 0.76613 0.71267 0.29703 0.0
O145 O 0.80245 0.67915 0.32974 0.0
O146 O 0.8353 0.7524 0.36756 0.0
O147 O 0.80254 0.787 0.33227 0.0
H148 H 0.76652 0.68419 0.3896 0.0
H149 H 0.71746 0.66191 0.42769 0.0
H150 H 0.65429 0.63583 0.3328 0.0
H151 H 0.70432 0.65686 0.29466 0.0
H152 H 0.89171 0.62166 0.21132 0.0
H153 H 0.86902 0.65897 0.25994 0.0
H154 H 0.91659 0.71727 0.14878 0.0
H155 H 0.8951 0.75462 0.19828 0.0
H156 H 0.93108 0.84117 0.3854 0.0
H157 H 0.83359 0.89943 0.40882 0.0
H158 H 0.79721 0.84827 0.38723 0.0
H159 H 0.89474 0.79093 0.36262 0.0
C160 C 0.89761 0.80324 0.94829 0.0
C161 C 0.93103 0.79326 0.93403 0.0
C162 C 0.9351 0.74354 0.97738 0.0
C163 C 0.94955 0.76366 0.94838 0.0
C164 C 0.90126 0.75323 0.99112 0.0
C165 C 0.88277 0.78293 0.97677 0.0
U166 U 0.88509 0.88122 0.88033 0.0
O167 O 0.83505 0.90238 0.856 0.0
O168 O 0.86848 0.93705 0.89053 0.0
C169 C 0.83789 0.93344 0.87257 0.0
C170 C 0.87818 0.83492 0.93413 0.0
C171 C 0.80509 0.9454 0.89134 0.0
C172 C 0.75703 0.93501 0.93474 0.0
C173 C 0.78884 0.92387 0.91805 0.0
C174 C 0.75757 0.98971 0.89876 0.0
C175 C 0.7409 0.96798 0.92519 0.0
C176 C 0.78937 0.97848 0.88198 0.0
C177 C 0.95333 0.89377 0.80165 0.0
C178 C 0.95501 0.90126 0.73616 0.0
C179 C 0.99671 0.93518 0.77356 0.0
C180 C 0.98208 0.91877 0.80443 0.0
C181 C 0.98332 0.9267 0.73903 0.0
C182 C 0.94032 0.88489 0.76703 0.0
C183 C 0.93886 0.87541 0.83449 0.0
O184 O 0.89545 0.86589 0.93691 0.0
O185 O 0.86205 0.83087 0.9027 0.0
O186 O 0.90787 0.85798 0.83111 0.0
O187 O 0.94157 0.89297 0.86507 0.0
H188 H 0.94282 0.80841 0.91187 0.0
H189 H 0.97514 0.75633 0.93658 0.0
H190 H 0.88939 0.73819 0.0133 0.0
H191 H 0.85692 0.79019 0.98808 0.0
H192 H 0.74499 0.91777 0.95518 0.0
H193 H 0.8006 0.8983 0.92576 0.0
H194 H 0.74558 0.01497 0.89045 0.0
H195 H 0.80149 0.99545 0.86135 0.0
H196 H 0.94349 0.89468 0.71007 0.0
H197 H 0.01849 0.95466 0.7767 0.0
H198 H 0.99333 0.92572 0.83054 0.0
H199 H 0.91861 0.86536 0.7637 0.0
C200 C 0.606 0.16313 0.29981 0.0
C201 C 0.62756 0.13616 0.28518 0.0
C202 C 0.58479 0.1286 0.23533 0.0
C203 C 0.6171 0.11913 0.25322 0.0
C204 C 0.5629 0.15519 0.25042 0.0
C205 C 0.57348 0.17235 0.28241 0.0
U206 U 0.67031 0.17408 0.38012 0.0
O207 O 0.69549 0.22272 0.40311 0.0
O208 O 0.65932 0.18932 0.43634 0.0
C209 C 0.67795 0.21958 0.43373 0.0
C210 C 0.6177 0.18225 0.33263 0.0
C211 C 0.66031 0.25242 0.44759 0.0
C212 C 0.64431 0.31578 0.44191 0.0
C213 C 0.65988 0.28482 0.42763 0.0
C214 C 0.62923 0.28276 0.49636 0.0
C215 C 0.62886 0.31514 0.47646 0.0
C216 C 0.645 0.25185 0.48218 0.0
C217 C 0.74774 0.10475 0.39173 0.0
C218 C 0.81318 0.10226 0.40059 0.0
C219 C 0.77437 0.0598 0.43202 0.0
C220 C 0.74398 0.07523 0.41549 0.0
C221 C 0.80932 0.07316 0.42482 0.0
C222 C 0.78281 0.11776 0.38412 0.0
C223 C 0.71542 0.12015 0.37332 0.0
O224 O 0.61381 0.16428 0.36306 0.0
O225 O 0.64911 0.19904 0.33038 0.0
O226 O 0.71967 0.15141 0.35686 0.0
O227 O 0.68446 0.11742 0.39045 0.0
H228 H 0.65269 0.12856 0.29828 0.0
H229 H 0.63439 0.09856 0.24236 0.0
H230 H 0.53812 0.16334 0.23702 0.0
H231 H 0.55652 0.19317 0.29331 0.0
H232 H 0.64368 0.34008 0.42556 0.0
H233 H 0.67146 0.28633 0.40091 0.0
H234 H 0.61742 0.28141 0.523 0.0
H235 H 0.64527 0.22741 0.49834 0.0
H236 H 0.83966 0.11371 0.39507 0.0
H237 H 0.77052 0.03742 0.45057 0.0
H238 H 0.71749 0.06401 0.4214 0.0
H239 H 0.78687 0.14007 0.36556 0.0
C240 C 0.30855 0.60013 0.15824 0.0
C241 C 0.276 0.61949 0.15748 0.0
C242 C 0.24594 0.57127 0.12416 0.0
C243 C 0.24505 0.60515 0.14071 0.0
C244 C 0.27825 0.55167 0.12541 0.0
C245 C 0.30915 0.5659 0.1424 0.0
U246 U 0.38717 0.66885 0.16984 0.0
O247 O 0.41008 0.69204 0.21954 0.0
O248 O 0.44413 0.65939 0.18478 0.0
C249 C 0.4415 0.67635 0.21559 0.0
C250 C 0.34155 0.61435 0.17655 0.0
C251 C 0.4553 0.65685 0.24755 0.0
C252 C 0.44959 0.60904 0.29231 0.0
C253 C 0.43634 0.62718 0.26182 0.0
C254 C 0.50105 0.64989 0.29467 0.0
C255 C 0.48206 0.6202 0.30918 0.0
C256 C 0.48773 0.66805 0.26412 0.0
C257 C 0.39692 0.74956 0.10545 0.0
C258 C 0.44238 0.79634 0.11464 0.0
C259 C 0.40172 0.8 0.06325 0.0
C260 C 0.38513 0.76761 0.07416 0.0
C261 C 0.43038 0.81486 0.08355 0.0
C262 C 0.42585 0.76399 0.12546 0.0
C263 C 0.37834 0.71628 0.11742 0.0
O264 O 0.37193 0.61247 0.15844 0.0
O265 O 0.33842 0.64473 0.19416 0.0
O266 O 0.36194 0.71818 0.14867 0.0
O267 O 0.39663 0.6864 0.11373 0.0
H268 H 0.2744 0.64582 0.16964 0.0
H269 H 0.22059 0.62097 0.1399 0.0
H270 H 0.27961 0.52534 0.11319 0.0
H271 H 0.33365 0.55013 0.14306 0.0
H272 H 0.43419 0.58643 0.30297 0.0
H273 H 0.41124 0.61814 0.24942 0.0
H274 H 0.52638 0.65878 0.30665 0.0
H275 H 0.50281 0.69085 0.25338 0.0
H276 H 0.46456 0.80698 0.13071 0.0
H277 H 0.39154 0.81385 0.03951 0.0
H278 H 0.36274 0.75689 0.05842 0.0
H279 H 0.4354 0.75041 0.14965 0.0
C280 C 0.1144 0.30315 0.63436 0.0
C281 C 0.14286 0.28521 0.6174 0.0
C282 C 0.09981 0.2431 0.59006 0.0
C283 C 0.13561 0.25533 0.59545 0.0
C284 C 0.0715 0.2619 0.60633 0.0
C285 C 0.07873 0.29152 0.62824 0.0
U286 U 0.1668 0.38701 0.66775 0.0
O287 O 0.14533 0.43805 0.68787 0.0
O288 O 0.17874 0.40406 0.72329 0.0
C289 C 0.15866 0.43298 0.72043 0.0
C290 C 0.12081 0.3333 0.65935 0.0
C291 C 0.13395 0.44014 0.75048 0.0
C292 C 0.08957 0.42124 0.79534 0.0
C293 C 0.11181 0.41322 0.76594 0.0
C294 C 0.11109 0.48304 0.79341 0.0
C295 C 0.08915 0.45629 0.80949 0.0
C296 C 0.13316 0.47503 0.76429 0.0
C297 C 0.25044 0.42135 0.61525 0.0
C298 C 0.29837 0.46225 0.63535 0.0
C299 C 0.29139 0.44878 0.57189 0.0
C300 C 0.26189 0.42636 0.57966 0.0
C301 C 0.31006 0.46702 0.59956 0.0
C302 C 0.26861 0.43972 0.64314 0.0
C303 C 0.22024 0.39597 0.62215 0.0
O304 O 0.14974 0.33138 0.68012 0.0
O305 O 0.11533 0.36569 0.64601 0.0
O306 O 0.18762 0.40859 0.61636 0.0
O307 O 0.22261 0.37574 0.65133 0.0
H308 H 0.17063 0.29394 0.62151 0.0
H309 H 0.15794 0.24164 0.58296 0.0
H310 H 0.04368 0.25295 0.60308 0.0
H311 H 0.0564 0.30498 0.64103 0.0
H312 H 0.07275 0.40016 0.80692 0.0
H313 H 0.11192 0.38609 0.75547 0.0
H314 H 0.11186 0.51015 0.80394 0.0
H315 H 0.15007 0.49614 0.75279 0.0
H316 H 0.31242 0.47568 0.65723 0.0
H317 H 0.30034 0.45084 0.5442 0.0
H318 H 0.24842 0.41227 0.55781 0.0
H319 H 0.26015 0.43627 0.67086 0.0
Zn320 Zn 0.98341 0.06542 0.56446 0.0
Zn321 Zn 0.06074 0.98741 0.48244 0.0
Zn322 Zn 0.02372 0.02722 0.52399 0.0
C323 C 0.08082 0.05815 0.46505 0.0
C324 C 0.98999 0.97193 0.46419 0.0
O325 O 0.02598 1.00335 0.58014 0.0
O326 O 0.98703 0.03697 0.60929 0.0
C327 C 0.03888 0.11101 0.54152 0.0
O328 O 0.06206 0.06435 0.49359 0.0
O329 O 0.0834 0.02638 0.45366 0.0
O330 O 0.02137 0.96039 0.4584 0.0
O331 O 0.98555 0.99822 0.4863 0.0
O332 O 0.01176 0.11039 0.56193 0.0
O333 O 0.04743 0.08286 0.52338 0.0
O334 O 0.96682 0.027 0.5015 0.0
O335 O 0.93752 0.06358 0.53749 0.0
C336 C 0.93772 0.04397 0.50992 0.0
O337 O 0.0536 0.98812 0.55937 0.0
O338 O 0.08927 0.962 0.52004 0.0
C339 C 1.00838 0.0107 0.60913 0.0
C340 C 0.07947 0.96621 0.55226 0.0
Zn341 Zn 0.49422 0.06158 0.98762 0.0
Zn342 Zn 0.56935 0.98921 0.06426 0.0
Zn343 Zn 0.5321 0.02518 0.02644 0.0
C344 C 0.60968 0.9983 1.00409 0.0
C345 C 0.50886 0.9482 0.05499 0.0
O346 O 0.50164 0.06255 0.06235 0.0
O347 O 0.45707 0.07384 0.02419 0.0
C348 C 0.56352 0.08699 0.9761 0.0
O349 O 0.58763 0.02501 1.00211 0.0
O350 O 0.60444 0.97381 0.02728 0.0
O351 O 0.53156 0.95414 0.07986 0.0
O352 O 0.50753 0.96979 0.02756 0.0
O353 O 0.53155 0.09863 0.97551 0.0
O354 O 0.56986 0.05566 0.98996 0.0
O355 O 0.4951 0.98731 0.99656 0.0
O356 O 0.48246 0.02404 0.95126 0.0
C357 C 0.48187 0.99271 0.96468 0.0
O358 O 0.53191 0.04979 0.08128 0.0
O359 O 0.5843 0.02736 0.09862 0.0
C360 C 0.46998 0.07556 0.05574 0.0
C361 C 0.5589 0.04917 0.10356 0.0
Zn362 Zn 0.56901 0.5687 0.56145 0.0
Zn363 Zn 0.48843 0.48369 0.48639 0.0
Zn364 Zn 0.5293 0.52554 0.52484 0.0
C365 C 0.54521 0.44101 0.50984 0.0
C366 C 0.51092 0.53806 0.4396 0.0
O367 O 0.49322 0.55572 0.5628 0.0
O368 O 0.53093 0.59628 0.5856 0.0
C369 C 0.58726 0.49857 0.58424 0.0
O370 O 0.55332 0.47022 0.52697 0.0
O371 O 0.51737 0.4396 0.49002 0.0
O372 O 0.4901 0.51094 0.44056 0.0
O373 O 0.52939 0.54687 0.46798 0.0
O374 O 0.59233 0.53133 0.59166 0.0
O375 O 0.56699 0.49008 0.55699 0.0
O376 O 0.55892 0.56236 0.48656 0.0
O377 O 0.59656 0.59233 0.52214 0.0
C378 C 0.58533 0.58506 0.4908 0.0
O379 O 0.4733 0.52739 0.54744 0.0
O380 O 0.44391 0.48671 0.51483 0.0
C381 C 0.49929 0.58346 0.58286 0.0
C382 C 0.44433 0.50904 0.54023 0.0
Zn383 Zn 0.07231 0.57185 0.98511 0.0
Zn384 Zn 0.98996 0.49028 0.06808 0.0
Zn385 Zn 0.0308 0.5309 0.02546 0.0
C386 C 0.06201 0.47549 0.08688 0.0
C387 C 0.97503 0.46898 0.9966 0.0
O388 O 1.00902 0.58716 0.02606 0.0
O389 O 0.0461 0.61745 0.99007 0.0
C390 C 0.1172 0.54552 0.03906 0.0
O391 O 0.06739 0.50079 0.06332 0.0
O392 O 0.0301 0.46558 0.0943 0.0
O393 O 0.96463 0.46382 0.02863 0.0
O394 O 1.00056 0.4921 0.99011 0.0
O395 O 0.11835 0.56606 0.01182 0.0
O396 O 0.08729 0.52946 0.04771 0.0
O397 O 0.0281 0.50881 0.96974 0.0
O398 O 0.06544 0.54507 0.93987 0.0
C399 C 0.04446 0.51807 0.94042 0.0
O400 O 0.99332 0.5673 0.05473 0.0
O401 O 0.96431 0.53038 0.09194 0.0
C402 C 0.01845 0.61668 0.00981 0.0
C403 C 0.97056 0.56197 0.08055 0.0
C404 C 0.10945 0.10831 0.38048 0.0
C405 C 0.13098 0.13698 0.39316 0.0
C406 C 0.09258 0.08408 0.40429 0.0
C407 C 0.09634 0.08731 0.44196 0.0
H408 H 0.10564 0.10444 0.35178 0.0
H409 H 0.07664 0.06223 0.39296 0.0
S410 S 0.15078 0.15693 0.48923 0.0
N411 N 0.15542 0.1672 0.44605 0.0
N412 N 0.12408 0.12097 0.4908 0.0
C413 C 0.11738 0.11608 0.45518 0.0
C414 C 0.13458 0.14105 0.4308 0.0
C415 C 0.41487 0.9222 0.93136 0.0
C416 C 0.42411 0.9192 0.89462 0.0
C417 C 0.43535 0.94391 0.95507 0.0
C418 C 0.46564 0.96349 0.94279 0.0
H419 H 0.39089 0.90866 0.94154 0.0
H420 H 0.42631 0.9469 0.9826 0.0
S421 S 0.50259 0.96366 0.85014 0.0
N422 N 0.46686 0.9367 0.84793 0.0
N423 N 0.50508 0.97712 0.8924 0.0
C424 C 0.47611 0.95944 0.90673 0.0
C425 C 0.45551 0.93731 0.8827 0.0
C426 C 0.62719 0.41111 0.62246 0.0
C427 C 0.63449 0.42 0.6587 0.0
C428 C 0.6116 0.43624 0.59836 0.0
C429 C 0.60276 0.47114 0.60954 0.0
H430 H 0.63401 0.3847 0.61254 0.0
H431 H 0.60709 0.42847 0.57082 0.0
S432 S 0.61199 0.50595 0.70301 0.0
N433 N 0.62855 0.46493 0.70532 0.0
N434 N 0.59968 0.51191 0.66055 0.0
C435 C 0.60896 0.47979 0.64611 0.0
C436 C 0.6247 0.45434 0.67048 0.0
C437 C 0.90267 0.61158 0.13721 0.0
C438 C 0.92141 0.64313 0.14733 0.0
C439 C 0.91802 0.58663 0.1138 0.0
C440 C 0.9527 0.5922 0.09919 0.0
H441 H 0.87621 0.60556 0.14827 0.0
H442 H 0.90301 0.56213 0.10801 0.0
S443 S 0.0128 0.67097 0.11583 0.0
N444 N 0.9763 0.67911 0.13974 0.0
N445 N 1.005 0.63216 0.0957 0.0
C446 C 0.97112 0.62439 0.10761 0.0
C447 C 0.95552 0.64985 0.13165 0.0
C448 C 0.38625 0.09854 0.10867 0.0
C449 C 0.39812 0.12582 0.13215 0.0
C450 C 0.41019 0.0817 0.08519 0.0
C451 C 0.44712 0.09123 0.08422 0.0
H452 H 0.35805 0.09028 0.10822 0.0
H453 H 0.39953 0.06129 0.0672 0.0
S454 S 0.49188 0.16207 0.13895 0.0
N455 N 0.44941 0.16197 0.15263 0.0
N456 N 0.49429 0.1306 0.10784 0.0
C457 C 0.45959 0.1182 0.1077 0.0
C458 C 0.43515 0.13535 0.13187 0.0
C459 C 0.13385 0.89171 0.59577 0.0
C460 C 0.14673 0.90706 0.62801 0.0
C461 C 0.11056 0.91051 0.57259 0.0
C462 C 0.09868 0.94535 0.58072 0.0
H463 H 0.14324 0.86555 0.58744 0.0
H464 H 0.10266 0.89801 0.5474 0.0
S465 S 0.12132 0.99637 0.66347 0.0
N466 N 0.14363 0.95826 0.66826 0.0
N467 N 0.09957 0.99363 0.62448 0.0
C468 C 0.10963 0.96036 0.61376 0.0
C469 C 0.13382 0.94128 0.63736 0.0
C470 C 0.9266 0.45174 0.90722 0.0
C471 C 0.90658 0.41993 0.91433 0.0
C472 C 0.95061 0.4664 0.93301 0.0
C473 C 0.95528 0.44998 0.96705 0.0
H474 H 0.92298 0.46596 0.88183 0.0
H475 H 0.96402 0.49172 0.9269 0.0
S476 S 0.91133 0.36497 0.99826 0.0
N477 N 0.89457 0.3717 0.95742 0.0
N478 N 0.93983 0.39869 1.00539 0.0
C479 C 0.93674 0.41727 0.97378 0.0
C480 C 0.91242 0.40238 0.94759 0.0
C481 C 0.64309 0.65151 0.43821 0.0
C482 C 0.65272 0.63228 0.40726 0.0
C483 C 0.61956 0.63671 0.46395 0.0
C484 C 0.60429 0.60212 0.45978 0.0
H485 H 0.6547 0.67794 0.44317 0.0
H486 H 0.61417 0.65211 0.48795 0.0
S487 S 0.61874 0.54118 0.3827 0.0
N488 N 0.64358 0.57718 0.37313 0.0
N489 N 0.59904 0.54961 0.4215 0.0
C490 C 0.61196 0.58329 0.42808 0.0
C491 C 0.63621 0.59831 0.40182 0.0
C492 C 0.1127 0.41509 0.15251 0.0
C493 C 0.14322 0.40451 0.1329 0.0
C494 C 0.08784 0.4398 0.1382 0.0
C495 C 0.09245 0.45528 0.10372 0.0
H496 H 0.10743 0.40346 0.17888 0.0
H497 H 0.06413 0.44595 0.15388 0.0
S498 S 0.16815 0.43747 0.04143 0.0
N499 N 0.17708 0.41234 0.07729 0.0
N500 N 0.13034 0.45874 0.05054 0.0
C501 C 0.12361 0.44621 0.08438 0.0
C502 C 0.14898 0.42088 0.09892 0.0
C503 C 0.64405 0.12219 0.92182 0.0
C504 C 0.64266 0.15956 0.92801 0.0
C505 C 0.61923 0.09821 0.93838 0.0
C506 C 0.59266 0.11086 0.96198 0.0
H507 H 0.66367 0.11161 0.90325 0.0
H508 H 0.62006 0.0699 0.93175 0.0
S509 S 0.5807 0.20551 0.99044 0.0
N510 N 0.61449 0.20741 0.96161 0.0
N511 N 0.5684 0.16271 0.99276 0.0
C512 C 0.59213 0.14792 0.96941 0.0
C513 C 0.61703 0.17216 0.95251 0.0
C514 C 0.93945 0.91536 0.39579 0.0
C515 C 0.90813 0.90419 0.41428 0.0
C516 C 0.96449 0.93927 0.41135 0.0
C517 C 0.95922 0.95339 0.44599 0.0
H518 H 0.94535 0.90457 0.36945 0.0
H519 H 0.98894 0.94572 0.39661 0.0
S520 S 0.88046 0.93518 0.50491 0.0
N521 N 0.87222 0.91096 0.46856 0.0
N522 N 0.91931 0.95624 0.49754 0.0
C523 C 0.927 0.94438 0.46395 0.0
C524 C 0.90145 0.91972 0.44816 0.0
C525 C 0.45529 0.63509 0.65769 0.0
C526 C 0.42402 0.64929 0.64129 0.0
C527 C 0.4781 0.61186 0.63913 0.0
C528 C 0.47043 0.60128 0.60353 0.0
H529 H 0.46332 0.64346 0.68452 0.0
H530 H 0.50282 0.60318 0.65233 0.0
S531 S 0.39047 0.62817 0.54921 0.0
N532 N 0.38531 0.64909 0.58796 0.0
N533 N 0.42835 0.60513 0.55313 0.0
C534 C 0.43831 0.61358 0.58736 0.0
C535 C 0.41516 0.63774 0.60616 0.0
C536 C 0.99796 0.98466 0.70723 0.0
C537 C 0.99637 0.94684 0.70652 0.0
C538 C 1.00468 1.00487 0.67588 0.0
C539 C 0.01035 0.98824 0.64243 0.0
H540 H 0.99195 0.99891 0.73179 0.0
H541 H 1.00373 0.03396 0.67757 0.0
S542 S 0.01418 0.88991 0.62692 0.0
N543 N 1.0052 0.89337 0.67033 0.0
N544 N 0.01722 0.93156 0.61117 0.0
C545 C 0.01141 0.95044 0.64173 0.0
C546 C 1.00442 0.92973 0.67378 0.0
C547 C 0.60171 0.10973 0.17327 0.0
C548 C 0.57527 0.11158 0.20025 0.0
C549 C 0.59518 0.09103 0.14124 0.0
C550 C 0.56187 0.07359 0.13469 0.0
H551 H 0.62803 0.12226 0.17726 0.0
H552 H 0.6168 0.08938 0.12177 0.0
S553 S 0.48338 0.07044 0.19622 0.0
N554 N 0.51403 0.09487 0.21792 0.0
N555 N 0.502 0.05932 0.15756 0.0
C556 C 0.53473 0.07598 0.16083 0.0
C557 C 0.54134 0.09517 0.19361 0.0
C558 C 0.49591 0.56255 0.34157 0.0
C559 C 0.49566 0.60039 0.34163 0.0
C560 C 0.50357 0.54279 0.37297 0.0
C561 C 0.51136 0.55995 0.40589 0.0
H562 H 0.48897 0.548 0.31724 0.0
H563 H 0.50191 0.5137 0.37176 0.0
S564 S 0.51698 0.65854 0.42005 0.0
N565 N 0.50631 0.65442 0.37693 0.0
N566 N 0.52047 0.61711 0.43612 0.0
C567 C 0.51341 0.59776 0.40594 0.0
C568 C 0.50561 0.61801 0.37378 0.0
C569 C 0.04858 0.49833 0.84208 0.0
C570 C 0.0676 0.46567 0.84187 0.0
C571 C 0.03677 0.51335 0.87439 0.0
C572 C 0.04287 0.49597 0.90762 0.0
H573 H 0.04526 0.51379 0.81739 0.0
H574 H 0.02545 0.54015 0.87366 0.0
S575 S 0.08595 0.40737 0.92157 0.0
N576 N 0.08809 0.41442 0.87757 0.0
N577 N 0.06486 0.44246 0.93821 0.0
C578 C 0.05807 0.4615 0.90751 0.0
C579 C 0.07067 0.44634 0.87459 0.0
C580 C 0.67762 0.95326 0.94442 0.0
C581 C 0.70608 0.9786 0.94205 0.0
C582 C 0.6457 0.96095 0.96284 0.0
C583 C 0.64069 0.99438 0.97947 0.0
H584 H 0.68033 0.9269 0.93251 0.0
H585 H 0.62509 0.94009 0.96498 0.0
S586 S 0.70668 0.07006 0.98168 0.0
N587 N 0.7269 0.03886 0.95779 0.0
N588 N 0.66679 0.05299 0.99283 0.0
C589 C 0.66833 0.02043 0.97658 0.0
C590 C 0.70101 0.01263 0.95771 0.0
C591 C 0.83987 0.05656 0.48289 0.0
C592 C 0.84128 0.05915 0.44509 0.0
C593 C 0.87088 0.04896 0.50339 0.0
C594 C 0.90461 0.04336 0.48701 0.0
H595 H 0.81507 0.06244 0.49695 0.0
H596 H 0.86873 0.04909 0.53251 0.0
S597 S 0.92172 0.04206 0.38865 0.0
N598 N 0.87825 0.05144 0.39178 0.0
N599 N 0.93679 0.03766 0.43048 0.0
C600 C 0.90592 0.04331 0.44914 0.0
C601 C 0.87424 0.05122 0.42817 0.0
C602 C 0.17925 0.55711 0.11972 0.0
C603 C 0.21377 0.55779 0.10375 0.0
C604 C 0.1479 0.54955 0.09926 0.0
C605 C 0.15002 0.54323 0.06202 0.0
H606 H 0.17639 0.56374 0.14793 0.0
H607 H 0.12175 0.55119 0.11211 0.0
S608 S 0.23385 0.53833 1.00808 0.0
N609 N 0.24817 0.54832 0.04911 0.0
N610 N 0.18936 0.53489 0.01071 0.0
C611 C 0.18443 0.54173 0.04628 0.0
C612 C 0.21629 0.54881 0.06712 0.0
C613 C 0.37625 0.48027 0.60892 0.0
C614 C 0.34355 0.48793 0.59076 0.0
C615 C 0.40971 0.49174 0.5948 0.0
C616 C 0.41142 0.51117 0.56216 0.0
H617 H 0.37627 0.46262 0.63232 0.0
H618 H 0.43437 0.48227 0.60752 0.0
S619 S 0.3337 0.54442 0.50838 0.0
N620 N 0.31499 0.52169 0.54201 0.0
N621 N 0.37786 0.5417 0.51481 0.0
C622 C 0.37894 0.52206 0.54587 0.0
C623 C 0.34497 0.51087 0.56038 0.0
C624 C 0.93826 0.67827 0.99666 0.0
C625 C 0.95527 0.71223 0.9926 0.0
C626 C 0.95835 0.64738 1.00568 0.0
C627 C 0.99607 0.64953 0.01077 0.0
H628 H 0.90965 0.67516 0.99078 0.0
H629 H 0.94472 0.62143 1.00611 0.0
S630 S 0.05199 0.733 0.01101 0.0
N631 N 0.01092 0.74679 1.00033 0.0
N632 N 0.04858 0.68894 0.0165 0.0
C633 C 0.0127 0.68373 0.00986 0.0
C634 C 0.99234 0.71502 1.00093 0.0
C635 C 0.45192 0.87645 0.10055 0.0
C636 C 0.44697 0.85033 0.07369 0.0
C637 C 0.47034 0.90881 0.0934 0.0
C638 C 0.4844 0.91664 0.05905 0.0
H639 H 0.44208 0.87154 0.12761 0.0
H640 H 0.47443 0.92755 0.11533 0.0
S641 S 0.47875 0.85764 0.97915 0.0
N642 N 0.45718 0.83481 0.011 0.0
N643 N 0.49212 0.89583 0.99777 0.0
C644 C 0.47868 0.89146 0.03152 0.0
C645 C 0.45985 0.85828 0.03879 0.0
C646 C 0.0622 0.20911 0.54499 0.0
C647 C 0.0913 0.20958 0.56974 0.0
C648 C 0.04769 0.17656 0.53214 0.0
C649 C 0.0621 0.14337 0.54313 0.0
H650 H 0.049 0.23397 0.53735 0.0
H651 H 0.02337 0.17726 0.51566 0.0
S652 S 0.14024 0.12963 0.60458 0.0
N653 N 0.13571 0.1738 0.60244 0.0
N654 N 0.10844 0.11276 0.57794 0.0
C655 C 0.09284 0.14349 0.56555 0.0
C656 C 0.10759 0.17659 0.57881 0.0
C657 C 0.57431 0.34423 0.50282 0.0
C658 C 0.61016 0.34743 0.49058 0.0
C659 C 0.55423 0.37472 0.51166 0.0
C660 C 0.5694 0.40955 0.50933 0.0
H661 H 0.56098 0.31812 0.50369 0.0
H662 H 0.52605 0.37115 0.51888 0.0
S663 S 0.66323 0.43243 0.48228 0.0
N664 N 0.6609 0.38811 0.47931 0.0
N665 N 0.62298 0.4454 0.49591 0.0
C666 C 0.60577 0.41304 0.49903 0.0
C667 C 0.62618 0.382 0.48968 0.0
loop_
_geom_bond_atom_site_label_1
_geom_bond_atom_site_label_2
_geom_bond_distance
_geom_bond_site_symmetry_2
_ccdc_geom_bond_type
C0 C1 1.264 . S
C0 C5 1.479 . S
C0 C10 1.465 . S
C1 C0 1.264 . S
C1 C3 1.339 . S
C1 H28 0.931 . S
C2 C3 1.395 . S
C2 C4 1.320 . S
C3 C1 1.339 . S
C3 C2 1.395 . S
C3 H29 0.929 . S
C4 C2 1.320 . S
C4 C5 1.405 . S
C4 H30 0.930 . S
C5 C0 1.479 . S
C5 C4 1.405 . S
C5 H31 0.931 . S
U6 O7 2.454 . S
U6 O8 2.458 . S
U6 C9 2.984 . S
U6 C10 2.847 . S
U6 C23 2.882 . S
U6 O24 2.441 . S
U6 O25 2.420 . S
U6 O26 2.455 . S
U6 O27 2.449 . S
O7 U6 2.454 . S
O7 C9 1.353 . S
O8 U6 2.458 . S
O8 C9 1.286 . S
C9 U6 2.984 . S
C9 O7 1.353 . S
C9 O8 1.286 . S
C9 C11 1.363 . S
C10 C0 1.465 . S
C10 U6 2.847 . S
C10 O24 1.249 . S
C10 O25 1.202 . S
C11 C9 1.363 . S
C11 C13 1.408 . S
C11 C16 1.342 . S
C12 C13 1.310 . S
C12 C15 1.461 . S
C12 H32 0.932 . S
C13 C11 1.408 . S
C13 C12 1.310 . S
C13 H33 0.930 . S
C14 C15 1.474 . S
C14 C16 1.285 . S
C14 H34 0.929 . S
C15 C12 1.461 . S
C15 C14 1.474 . S
C16 C11 1.342 . S
C16 C14 1.285 . S
C16 H35 0.930 . S
C17 C20 1.424 . S
C17 C22 1.245 . S
C17 C23 1.428 . S
C18 C21 1.260 . S
C18 C22 1.477 . S
C18 H36 0.932 . S
C19 C20 1.384 . S
C19 C21 1.479 . S
C19 H37 0.929 . S
C20 C17 1.424 . S
C20 C19 1.384 . S
C20 H38 0.928 . S
C21 C18 1.260 . S
C21 C19 1.479 . S
C22 C17 1.245 . S
C22 C18 1.477 . S
C22 H39 0.932 . S
C23 U6 2.882 . S
C23 C17 1.428 . S
C23 O26 1.301 . S
C23 O27 1.282 . S
O24 U6 2.441 . S
O24 C10 1.249 . S
O25 U6 2.420 . S
O25 C10 1.202 . S
O26 U6 2.455 . S
O26 C23 1.301 . S
O27 U6 2.449 . S
O27 C23 1.282 . S
H28 C1 0.931 . S
H29 C3 0.929 . S
H30 C4 0.930 . S
H31 C5 0.931 . S
H32 C12 0.932 . S
H33 C13 0.930 . S
H34 C14 0.929 . S
H35 C16 0.930 . S
H36 C18 0.932 . S
H37 C19 0.929 . S
H38 C20 0.928 . S
H39 C22 0.932 . S
C40 C41 1.264 . S
C40 C45 1.479 . S
C40 C50 1.465 . S
C41 C40 1.264 . S
C41 C43 1.339 . S
C41 H68 0.931 . S
C42 C43 1.395 . S
C42 C44 1.320 . S
C43 C41 1.339 . S
C43 C42 1.395 . S
C43 H69 0.929 . S
C44 C42 1.320 . S
C44 C45 1.405 . S
C44 H70 0.930 . S
C45 C40 1.479 . S
C45 C44 1.405 . S
C45 H71 0.931 . S
U46 O47 2.454 . S
U46 O48 2.458 . S
U46 C49 2.984 . S
U46 C50 2.847 . S
U46 C63 2.882 . S
U46 O64 2.441 . S
U46 O65 2.420 . S
U46 O66 2.455 . S
U46 O67 2.449 . S
O47 U46 2.454 . S
O47 C49 1.353 . S
O48 U46 2.458 . S
O48 C49 1.286 . S
C49 U46 2.984 . S
C49 O47 1.353 . S
C49 O48 1.286 . S
C49 C51 1.363 . S
C50 C40 1.465 . S
C50 U46 2.847 . S
C50 O64 1.249 . S
C50 O65 1.202 . S
C51 C49 1.363 . S
C51 C53 1.408 . S
C51 C56 1.342 . S
C52 C53 1.310 . S
C52 C55 1.461 . S
C52 H72 0.932 . S
C53 C51 1.408 . S
C53 C52 1.310 . S
C53 H73 0.930 . S
C54 C55 1.474 . S
C54 C56 1.285 . S
C54 H74 0.929 . S
C55 C52 1.461 . S
C55 C54 1.474 . S
C56 C51 1.342 . S
C56 C54 1.285 . S
C56 H75 0.930 . S
C57 C60 1.424 . S
C57 C62 1.245 . S
C57 C63 1.428 . S
C58 C61 1.260 . S
C58 C62 1.477 . S
C58 H76 0.932 . S
C59 C60 1.384 . S
C59 C61 1.479 . S
C59 H77 0.929 . S
C60 C57 1.424 . S
C60 C59 1.384 . S
C60 H78 0.928 . S
C61 C58 1.260 . S
C61 C59 1.479 . S
C62 C57 1.245 . S
C62 C58 1.477 . S
C62 H79 0.932 . S
C63 U46 2.882 . S
C63 C57 1.428 . S
C63 O66 1.301 . S
C63 O67 1.282 . S
O64 U46 2.441 . S
O64 C50 1.249 . S
O65 U46 2.420 . S
O65 C50 1.202 . S
O66 U46 2.455 . S
O66 C63 1.301 . S
O67 U46 2.449 . S
O67 C63 1.282 . S
H68 C41 0.931 . S
H69 C43 0.929 . S
H70 C44 0.930 . S
H71 C45 0.931 . S
H72 C52 0.932 . S
H73 C53 0.930 . S
H74 C54 0.929 . S
H75 C56 0.930 . S
H76 C58 0.932 . S
H77 C59 0.929 . S
H78 C60 0.928 . S
H79 C62 0.932 . S
C80 C81 1.264 . S
C80 C85 1.479 . S
C80 C90 1.465 . S
C81 C80 1.264 . S
C81 C83 1.339 . S
C81 H108 0.931 . S
C82 C83 1.395 . S
C82 C84 1.320 . S
C83 C81 1.339 . S
C83 C82 1.395 . S
C83 H109 0.929 . S
C84 C82 1.320 . S
C84 C85 1.405 . S
C84 H110 0.930 . S
C85 C80 1.479 . S
C85 C84 1.405 . S
C85 H111 0.931 . S
U86 O87 2.454 . S
U86 O88 2.458 . S
U86 C89 2.984 . S
U86 C90 2.847 . S
U86 C103 2.882 . S
U86 O104 2.441 . S
U86 O105 2.420 . S
U86 O106 2.455 . S
U86 O107 2.449 . S
O87 U86 2.454 . S
O87 C89 1.353 . S
O88 U86 2.458 . S
O88 C89 1.286 . S
C89 U86 2.984 . S
C89 O87 1.353 . S
C89 O88 1.286 . S
C89 C91 1.363 . S
C90 C80 1.465 . S
C90 U86 2.847 . S
C90 O104 1.249 . S
C90 O105 1.202 . S
C91 C89 1.363 . S
C91 C93 1.408 . S
C91 C96 1.342 . S
C92 C93 1.310 . S
C92 C95 1.461 . S
C92 H112 0.932 . S
C93 C91 1.408 . S
C93 C92 1.310 . S
C93 H113 0.930 . S
C94 C95 1.474 . S
C94 C96 1.285 . S
C94 H114 0.929 . S
C95 C92 1.461 . S
C95 C94 1.474 . S
C96 C91 1.342 . S
C96 C94 1.285 . S
C96 H115 0.930 . S
C97 C100 1.424 . S
C97 C102 1.245 . S
C97 C103 1.428 . S
C98 C101 1.260 . S
C98 C102 1.477 . S
C98 H116 0.932 . S
C99 C100 1.384 . S
C99 C101 1.479 . S
C99 H117 0.929 . S
C100 C97 1.424 . S
C100 C99 1.384 . S
C100 H118 0.928 . S
C101 C98 1.260 . S
C101 C99 1.479 . S
C102 C97 1.245 . S
C102 C98 1.477 . S
C102 H119 0.932 . S
C103 U86 2.882 . S
C103 C97 1.428 . S
C103 O106 1.301 . S
C103 O107 1.282 . S
O104 U86 2.441 . S
O104 C90 1.249 . S
O105 U86 2.420 . S
O105 C90 1.202 . S
O106 U86 2.455 . S
O106 C103 1.301 . S
O107 U86 2.449 . S
O107 C103 1.282 . S
H108 C81 0.931 . S
H109 C83 0.929 . S
H110 C84 0.930 . S
H111 C85 0.931 . S
H112 C92 0.932 . S
H113 C93 0.930 . S
H114 C94 0.929 . S
H115 C96 0.930 . S
H116 C98 0.932 . S
H117 C99 0.929 . S
H118 C100 0.928 . S
H119 C102 0.932 . S
C120 C121 1.264 . S
C120 C125 1.479 . S
C120 C130 1.465 . S
C121 C120 1.264 . S
C121 C123 1.339 . S
C121 H148 0.931 . S
C122 C123 1.395 . S
C122 C124 1.320 . S
C123 C121 1.339 . S
C123 C122 1.395 . S
C123 H149 0.929 . S
C124 C122 1.320 . S
C124 C125 1.405 . S
C124 H150 0.930 . S
C125 C120 1.479 . S
C125 C124 1.405 . S
C125 H151 0.931 . S
U126 O127 2.454 . S
U126 O128 2.458 . S
U126 C129 2.984 . S
U126 C130 2.847 . S
U126 C143 2.882 . S
U126 O144 2.441 . S
U126 O145 2.420 . S
U126 O146 2.455 . S
U126 O147 2.449 . S
O127 U126 2.454 . S
O127 C129 1.353 . S
O128 U126 2.458 . S
O128 C129 1.286 . S
C129 U126 2.984 . S
C129 O127 1.353 . S
C129 O128 1.286 . S
C129 C131 1.363 . S
C130 C120 1.465 . S
C130 U126 2.847 . S
C130 O144 1.249 . S
C130 O145 1.202 . S
C131 C129 1.363 . S
C131 C133 1.408 . S
C131 C136 1.342 . S
C132 C133 1.310 . S
C132 C135 1.461 . S
C132 H152 0.932 . S
C133 C131 1.408 . S
C133 C132 1.310 . S
C133 H153 0.930 . S
C134 C135 1.474 . S
C134 C136 1.285 . S
C134 H154 0.929 . S
C135 C132 1.461 . S
C135 C134 1.474 . S
C136 C131 1.342 . S
C136 C134 1.285 . S
C136 H155 0.930 . S
C137 C140 1.424 . S
C137 C142 1.245 . S
C137 C143 1.428 . S
C138 C141 1.260 . S
C138 C142 1.477 . S
C138 H156 0.932 . S
C139 C140 1.384 . S
C139 C141 1.479 . S
C139 H157 0.929 . S
C140 C137 1.424 . S
C140 C139 1.384 . S
C140 H158 0.928 . S
C141 C138 1.260 . S
C141 C139 1.479 . S
C142 C137 1.245 . S
C142 C138 1.477 . S
C142 H159 0.932 . S
C143 U126 2.882 . S
C143 C137 1.428 . S
C143 O146 1.301 . S
C143 O147 1.282 . S
O144 U126 2.441 . S
O144 C130 1.249 . S
O145 U126 2.420 . S
O145 C130 1.202 . S
O146 U126 2.455 . S
O146 C143 1.301 . S
O147 U126 2.449 . S
O147 C143 1.282 . S
H148 C121 0.931 . S
H149 C123 0.929 . S
H150 C124 0.930 . S
H151 C125 0.931 . S
H152 C132 0.932 . S
H153 C133 0.930 . S
H154 C134 0.929 . S
H155 C136 0.930 . S
H156 C138 0.932 . S
H157 C139 0.929 . S
H158 C140 0.928 . S
H159 C142 0.932 . S
C160 C161 1.264 1_655 S
C160 C165 1.479 . S
C160 C170 1.465 . S
C161 C160 1.264 1_455 S
C161 C163 1.339 . S
C161 H188 0.931 . S
C162 C163 1.395 . S
C162 C164 1.320 1_456 S
C163 C161 1.339 . S
C163 C162 1.395 . S
C163 H189 0.929 . S
C164 C162 1.320 1_654 S
C164 C165 1.405 1_554 S
C164 H190 0.930 . S
C165 C160 1.479 . S
C165 C164 1.405 1_556 S
C165 H191 0.931 1_556 S
U166 O167 2.454 . S
U166 O168 2.458 . S
U166 C169 2.984 . S
U166 C170 2.847 . S
U166 C183 2.882 . S
U166 O184 2.441 . S
U166 O185 2.420 . S
U166 O186 2.455 . S
U166 O187 2.449 . S
O167 U166 2.454 . S
O167 C169 1.353 . S
O168 U166 2.458 . S
O168 C169 1.286 . S
C169 U166 2.984 . S
C169 O167 1.353 . S
C169 O168 1.286 . S
C169 C171 1.363 . S
C170 C160 1.465 . S
C170 U166 2.847 . S
C170 O184 1.249 . S
C170 O185 1.202 . S
C171 C169 1.363 . S
C171 C173 1.408 1_556 S
C171 C176 1.342 1_565 S
C172 C173 1.310 . S
C172 C175 1.461 1_565 S
C172 H192 0.932 . S
C173 C171 1.408 1_554 S
C173 C172 1.310 . S
C173 H193 0.930 . S
C174 C175 1.474 1_556 S
C174 C176 1.285 . S
C174 H194 0.929 . S
C175 C172 1.461 1_545 S
C175 C174 1.474 1_554 S
C176 C171 1.342 1_545 S
C176 C174 1.285 . S
C176 H195 0.930 . S
C177 C180 1.424 . S
C177 C182 1.270 . S
C177 C183 1.428 . S
C178 C181 1.260 1_655 S
C178 C182 1.466 1_545 S
C178 H196 0.932 . S
C179 C180 1.384 1_455 S
C179 C181 1.479 1_565 S
C179 H197 0.929 . S
C180 C177 1.424 . S
C180 C179 1.384 1_655 S
C180 H198 0.928 1_655 S
C181 C178 1.260 1_455 S
C181 C179 1.479 1_545 S
C182 C177 1.270 . S
C182 C178 1.466 1_565 S
C182 H199 0.920 1_565 S
C183 U166 2.882 . S
C183 C177 1.428 . S
C183 O186 1.301 . S
C183 O187 1.282 . S
O184 U166 2.441 . S
O184 C170 1.249 . S
O185 U166 2.420 . S
O185 C170 1.202 . S
O186 U166 2.455 . S
O186 C183 1.301 . S
O187 U166 2.449 . S
O187 C183 1.282 . S
H188 C161 0.931 . S
H189 C163 0.929 . S
H190 C164 0.930 . S
H191 C165 0.931 1_554 S
H192 C172 0.932 . S
H193 C173 0.930 . S
H194 C174 0.929 . S
H195 C176 0.930 . S
H196 C178 0.932 . S
H197 C179 0.929 . S
H198 C180 0.928 1_455 S
H199 C182 0.920 1_545 S
C200 C201 1.264 . S
C200 C205 1.479 . S
C200 C210 1.465 . S
C201 C200 1.264 . S
C201 C203 1.339 . S
C201 H228 0.931 . S
C202 C203 1.395 . S
C202 C204 1.320 . S
C203 C201 1.339 . S
C203 C202 1.395 . S
C203 H229 0.929 . S
C204 C202 1.320 . S
C204 C205 1.405 . S
C204 H230 0.930 . S
C205 C200 1.479 . S
C205 C204 1.405 . S
C205 H231 0.931 . S
U206 O207 2.454 . S
U206 O208 2.458 . S
U206 C209 2.984 . S
U206 C210 2.847 . S
U206 C223 2.882 . S
U206 O224 2.441 . S
U206 O225 2.420 . S
U206 O226 2.455 . S
U206 O227 2.449 . S
O207 U206 2.454 . S
O207 C209 1.353 . S
O208 U206 2.458 . S
O208 C209 1.286 . S
C209 U206 2.984 . S
C209 O207 1.353 . S
C209 O208 1.286 . S
C209 C211 1.363 . S
C210 C200 1.465 . S
C210 U206 2.847 . S
C210 O224 1.249 . S
C210 O225 1.202 . S
C211 C209 1.363 . S
C211 C213 1.408 . S
C211 C216 1.342 . S
C212 C213 1.310 . S
C212 C215 1.461 . S
C212 H232 0.932 . S
C213 C211 1.408 . S
C213 C212 1.310 . S
C213 H233 0.930 . S
C214 C215 1.474 . S
C214 C216 1.285 . S
C214 H234 0.929 . S
C215 C212 1.461 . S
C215 C214 1.474 . S
C216 C211 1.342 . S
C216 C214 1.285 . S
C216 H235 0.930 . S
C217 C220 1.424 . S
C217 C222 1.245 . S
C217 C223 1.428 . S
C218 C221 1.260 . S
C218 C222 1.477 . S
C218 H236 0.932 . S
C219 C220 1.384 . S
C219 C221 1.479 . S
C219 H237 0.929 . S
C220 C217 1.424 . S
C220 C219 1.384 . S
C220 H238 0.928 . S
C221 C218 1.260 . S
C221 C219 1.479 . S
C222 C217 1.245 . S
C222 C218 1.477 . S
C222 H239 0.932 . S
C223 U206 2.882 . S
C223 C217 1.428 . S
C223 O226 1.301 . S
C223 O227 1.282 . S
O224 U206 2.441 . S
O224 C210 1.249 . S
O225 U206 2.420 . S
O225 C210 1.202 . S
O226 U206 2.455 . S
O226 C223 1.301 . S
O227 U206 2.449 . S
O227 C223 1.282 . S
H228 C201 0.931 . S
H229 C203 0.929 . S
H230 C204 0.930 . S
H231 C205 0.931 . S
H232 C212 0.932 . S
H233 C213 0.930 . S
H234 C214 0.929 . S
H235 C216 0.930 . S
H236 C218 0.932 . S
H237 C219 0.929 . S
H238 C220 0.928 . S
H239 C222 0.932 . S
C240 C241 1.264 . S
C240 C245 1.479 . S
C240 C250 1.465 . S
C241 C240 1.264 . S
C241 C243 1.339 . S
C241 H268 0.931 . S
C242 C243 1.395 . S
C242 C244 1.320 . S
C243 C241 1.339 . S
C243 C242 1.395 . S
C243 H269 0.929 1_554 S
C244 C242 1.320 . S
C244 C245 1.405 . S
C244 H270 0.930 . S
C245 C240 1.479 . S
C245 C244 1.405 . S
C245 H271 0.931 . S
U246 O247 2.454 . S
U246 O248 2.458 . S
U246 C249 2.984 . S
U246 C250 2.847 . S
U246 C263 2.882 . S
U246 O264 2.441 . S
U246 O265 2.420 . S
U246 O266 2.455 . S
U246 O267 2.449 . S
O247 U246 2.454 . S
O247 C249 1.353 . S
O248 U246 2.458 . S
O248 C249 1.286 . S
C249 U246 2.984 . S
C249 O247 1.353 . S
C249 O248 1.286 . S
C249 C251 1.363 . S
C250 C240 1.465 . S
C250 U246 2.847 . S
C250 O264 1.249 . S
C250 O265 1.202 . S
C251 C249 1.363 . S
C251 C253 1.408 . S
C251 C256 1.342 . S
C252 C253 1.310 . S
C252 C255 1.461 . S
C252 H272 0.932 . S
C253 C251 1.408 . S
C253 C252 1.310 . S
C253 H273 0.930 . S
C254 C255 1.474 . S
C254 C256 1.285 . S
C254 H274 0.929 . S
C255 C252 1.461 . S
C255 C254 1.474 . S
C256 C251 1.342 . S
C256 C254 1.285 . S
C256 H275 0.930 . S
C257 C260 1.424 . S
C257 C262 1.245 . S
C257 C263 1.428 . S
C258 C261 1.260 . S
C258 C262 1.477 . S
C258 H276 0.932 . S
C259 C260 1.384 . S
C259 C261 1.479 . S
C259 H277 0.929 . S
C260 C257 1.424 . S
C260 C259 1.384 . S
C260 H278 0.928 . S
C261 C258 1.260 . S
C261 C259 1.479 . S
C262 C257 1.245 . S
C262 C258 1.477 . S
C262 H279 0.932 . S
C263 U246 2.882 . S
C263 C257 1.428 . S
C263 O266 1.301 . S
C263 O267 1.282 . S
O264 U246 2.441 . S
O264 C250 1.249 . S
O265 U246 2.420 . S
O265 C250 1.202 . S
O266 U246 2.455 . S
O266 C263 1.301 . S
O267 U246 2.449 . S
O267 C263 1.282 . S
H268 C241 0.931 . S
H269 C243 0.929 1_556 S
H270 C244 0.930 . S
H271 C245 0.931 . S
H272 C252 0.932 . S
H273 C253 0.930 . S
H274 C254 0.929 . S
H275 C256 0.930 . S
H276 C258 0.932 . S
H277 C259 0.929 . S
H278 C260 0.928 . S
H279 C262 0.932 . S
C280 C281 1.264 . S
C280 C285 1.479 . S
C280 C290 1.465 . S
C281 C280 1.264 . S
C281 C283 1.339 . S
C281 H308 0.931 . S
C282 C283 1.395 . S
C282 C284 1.320 . S
C283 C281 1.339 . S
C283 C282 1.395 . S
C283 H309 0.929 . S
C284 C282 1.320 . S
C284 C285 1.405 . S
C284 H310 0.930 1_455 S
C285 C280 1.479 . S
C285 C284 1.405 . S
C285 H311 0.931 . S
U286 O287 2.454 . S
U286 O288 2.458 . S
U286 C289 2.984 . S
U286 C290 2.847 . S
U286 C303 2.882 . S
U286 O304 2.441 . S
U286 O305 2.420 . S
U286 O306 2.455 . S
U286 O307 2.449 . S
O287 U286 2.454 . S
O287 C289 1.353 . S
O288 U286 2.458 . S
O288 C289 1.286 . S
C289 U286 2.984 . S
C289 O287 1.353 . S
C289 O288 1.286 . S
C289 C291 1.363 . S
C290 C280 1.465 . S
C290 U286 2.847 . S
C290 O304 1.249 . S
C290 O305 1.202 . S
C291 C289 1.363 . S
C291 C293 1.408 . S
C291 C296 1.342 . S
C292 C293 1.310 . S
C292 C295 1.461 . S
C292 H312 0.957 . S
C293 C291 1.408 . S
C293 C292 1.310 . S
C293 H313 0.930 . S
C294 C295 1.474 . S
C294 C296 1.285 . S
C294 H314 0.929 . S
C295 C292 1.461 . S
C295 C294 1.474 . S
C296 C291 1.342 . S
C296 C294 1.285 . S
C296 H315 0.930 . S
C297 C300 1.424 . S
C297 C302 1.245 . S
C297 C303 1.428 . S
C298 C301 1.260 . S
C298 C302 1.477 . S
C298 H316 0.932 . S
C299 C300 1.384 . S
C299 C301 1.479 . S
C299 H317 0.929 . S
C300 C297 1.424 . S
C300 C299 1.384 . S
C300 H318 0.928 . S
C301 C298 1.260 . S
C301 C299 1.479 . S
C302 C297 1.245 . S
C302 C298 1.477 . S
C302 H319 0.932 . S
C303 U286 2.882 . S
C303 C297 1.428 . S
C303 O306 1.301 . S
C303 O307 1.282 . S
O304 U286 2.441 . S
O304 C290 1.249 . S
O305 U286 2.420 . S
O305 C290 1.202 . S
O306 U286 2.455 . S
O306 C303 1.301 . S
O307 U286 2.449 . S
O307 C303 1.282 . S
H308 C281 0.931 . S
H309 C283 0.929 . S
H310 C284 0.930 1_655 S
H311 C285 0.931 . S
H312 C292 0.957 . S
H313 C293 0.930 . S
H314 C294 0.929 . S
H315 C296 0.930 . S
H316 C298 0.932 . S
H317 C299 0.929 . S
H318 C300 0.928 . S
H319 C302 0.932 . S
Zn320 O326 1.920 . S
Zn320 O332 1.898 . S
Zn320 O335 1.905 . S
Zn321 O329 1.905 1_565 S
Zn321 O330 1.898 . S
Zn321 O338 1.920 . S
Zn322 O325 2.080 1_455 S
Zn322 O328 2.114 . S
Zn322 O331 2.120 1_445 S
Zn322 O333 2.120 . S
Zn322 O334 2.114 1_455 S
Zn322 O337 2.080 . S
C323 O328 1.166 . S
C323 O329 1.182 . S
C324 O330 1.167 1_655 S
C324 O331 1.299 . S
O325 Zn322 2.080 1_655 S
O325 C339 1.305 . S
O326 Zn320 1.920 . S
O326 C339 1.234 . S
C327 O332 1.167 1_455 S
C327 O333 1.299 . S
O328 Zn322 2.114 . S
O328 C323 1.166 . S
O329 Zn321 1.905 1_545 S
O329 C323 1.182 . S
O330 Zn321 1.898 . S
O330 C324 1.167 1_455 S
O331 Zn322 2.120 1_665 S
O331 C324 1.299 . S
O332 Zn320 1.898 . S
O332 C327 1.167 1_655 S
O333 Zn322 2.120 . S
O333 C327 1.299 . S
O334 Zn322 2.114 1_655 S
O334 C336 1.166 . S
O335 Zn320 1.905 . S
O335 C336 1.182 . S
C336 O334 1.166 . S
C336 O335 1.182 . S
O337 Zn322 2.080 . S
O337 C340 1.305 1_545 S
O338 Zn321 1.920 . S
O338 C340 1.234 . S
C339 O325 1.305 . S
C339 O326 1.234 . S
C340 O337 1.305 1_565 S
C340 O338 1.234 . S
Zn341 O347 1.920 1_556 S
Zn341 O353 1.898 . S
Zn341 O356 1.905 . S
Zn342 O350 1.905 . S
Zn342 O351 1.898 . S
Zn342 O359 1.920 . S
Zn343 O346 2.080 . S
Zn343 O349 2.114 1_545 S
Zn343 O352 2.120 1_545 S
Zn343 O354 2.120 . S
Zn343 O355 2.114 1_544 S
Zn343 O358 2.080 . S
C344 O349 1.166 . S
C344 O350 1.182 . S
C345 O351 1.167 . S
C345 O352 1.299 . S
O346 Zn343 2.080 . S
O346 C360 1.305 . S
O347 Zn341 1.920 1_554 S
O347 C360 1.234 . S
C348 O353 1.167 . S
C348 O354 1.299 1_556 S
O349 Zn343 2.114 1_565 S
O349 C344 1.166 . S
O350 Zn342 1.905 . S
O350 C344 1.182 . S
O351 Zn342 1.898 . S
O351 C345 1.167 . S
O352 Zn343 2.120 1_565 S
O352 C345 1.299 . S
O353 Zn341 1.898 . S
O353 C348 1.167 . S
O354 Zn343 2.120 . S
O354 C348 1.299 1_554 S
O355 Zn343 2.114 1_566 S
O355 C357 1.166 . S
O356 Zn341 1.905 . S
O356 C357 1.182 1_545 S
C357 O355 1.166 . S
C357 O356 1.182 1_565 S
O358 Zn343 2.080 . S
O358 C361 1.305 . S
O359 Zn342 1.920 . S
O359 C361 1.234 1_565 S
C360 O346 1.305 . S
C360 O347 1.234 . S
C361 O358 1.305 . S
C361 O359 1.234 1_545 S
Zn362 O368 1.920 . S
Zn362 O374 1.898 . S
Zn362 O377 1.905 . S
Zn363 O371 1.905 . S
Zn363 O372 1.898 . S
Zn363 O380 1.920 . S
Zn364 O367 2.080 . S
Zn364 O370 2.114 . S
Zn364 O373 2.120 . S
Zn364 O375 2.120 . S
Zn364 O376 2.114 . S
Zn364 O379 2.080 . S
C365 O370 1.166 . S
C365 O371 1.182 . S
C366 O372 1.167 . S
C366 O373 1.299 . S
O367 Zn364 2.080 . S
O367 C381 1.305 . S
O368 Zn362 1.920 . S
O368 C381 1.234 . S
C369 O374 1.167 . S
C369 O375 1.299 . S
O370 Zn364 2.114 . S
O370 C365 1.166 . S
O371 Zn363 1.905 . S
O371 C365 1.182 . S
O372 Zn363 1.898 . S
O372 C366 1.167 . S
O373 Zn364 2.120 . S
O373 C366 1.299 . S
O374 Zn362 1.898 . S
O374 C369 1.167 . S
O375 Zn364 2.120 . S
O375 C369 1.299 . S
O376 Zn364 2.114 . S
O376 C378 1.166 . S
O377 Zn362 1.905 . S
O377 C378 1.182 . S
C378 O376 1.166 . S
C378 O377 1.182 . S
O379 Zn364 2.080 . S
O379 C382 1.305 . S
O380 Zn363 1.920 . S
O380 C382 1.234 . S
C381 O367 1.305 . S
C381 O368 1.234 . S
C382 O379 1.305 . S
C382 O380 1.234 . S
Zn383 O389 1.920 . S
Zn383 O395 1.898 . S
Zn383 O398 1.905 . S
Zn384 O392 1.905 1_655 S
Zn384 O393 1.898 . S
Zn384 O401 1.920 . S
Zn385 O388 2.080 1_554 S
Zn385 O391 2.114 . S
Zn385 O394 2.120 1_454 S
Zn385 O396 2.120 . S
Zn385 O397 2.114 1_554 S
Zn385 O400 2.080 . S
C386 O391 1.166 . S
C386 O392 1.182 . S
C387 O393 1.167 1_556 S
C387 O394 1.299 . S
O388 Zn385 2.080 1_556 S
O388 C402 1.305 . S
O389 Zn383 1.920 . S
O389 C402 1.234 . S
C390 O395 1.167 1_554 S
C390 O396 1.299 . S
O391 Zn385 2.114 . S
O391 C386 1.166 . S
O392 Zn384 1.905 1_455 S
O392 C386 1.182 . S
O393 Zn384 1.898 . S
O393 C387 1.167 1_554 S
O394 Zn385 2.120 1_656 S
O394 C387 1.299 . S
O395 Zn383 1.898 . S
O395 C390 1.167 1_556 S
O396 Zn385 2.120 . S
O396 C390 1.299 . S
O397 Zn385 2.114 1_556 S
O397 C399 1.166 . S
O398 Zn383 1.905 . S
O398 C399 1.182 . S
C399 O397 1.166 . S
C399 O398 1.182 . S
O400 Zn385 2.080 . S
O400 C403 1.305 1_455 S
O401 Zn384 1.920 . S
O401 C403 1.234 . S
C402 O388 1.305 . S
C402 O389 1.234 . S
C403 O400 1.305 1_655 S
C403 O401 1.234 . S
C404 C405 1.369 . S
C404 C406 1.419 . S
C404 H408 0.930 . S
C405 C404 1.369 . S
C405 C414 1.429 . S
C406 C404 1.419 . S
C406 C407 1.363 . S
C406 H409 0.929 . S
C407 C406 1.363 . S
C407 C413 1.428 . S
H408 C404 0.930 . S
H409 C406 0.929 . S
S410 N411 1.613 . S
S410 N412 1.610 . S
N411 S410 1.613 . S
N411 C414 1.350 . S
N412 S410 1.610 . S
N412 C413 1.351 . S
C413 C407 1.428 . S
C413 N412 1.351 . S
C413 C414 1.434 . S
C414 C405 1.429 . S
C414 N411 1.350 . S
C414 C413 1.434 . S
C415 C416 1.369 . S
C415 C417 1.419 . S
C415 H419 0.930 . S
C416 C415 1.369 . S
C416 C425 1.429 . S
C417 C415 1.419 . S
C417 C418 1.363 . S
C417 H420 0.929 . S
C418 C417 1.363 . S
C418 C424 1.428 . S
H419 C415 0.930 . S
H420 C417 0.929 . S
S421 N422 1.613 1_545 S
S421 N423 1.610 . S
N422 S421 1.613 1_565 S
N422 C425 1.350 . S
N423 S421 1.610 . S
N423 C424 1.351 1_545 S
C424 C418 1.428 . S
C424 N423 1.351 1_565 S
C424 C425 1.434 . S
C425 C416 1.429 . S
C425 N422 1.350 . S
C425 C424 1.434 . S
C426 C427 1.369 . S
C426 C428 1.419 . S
C426 H430 0.930 . S
C427 C426 1.369 . S
C427 C436 1.429 . S
C428 C426 1.419 . S
C428 C429 1.363 . S
C428 H431 0.929 . S
C429 C428 1.363 . S
C429 C435 1.428 . S
H430 C426 0.930 . S
H431 C428 0.929 . S
S432 N433 1.613 . S
S432 N434 1.610 . S
N433 S432 1.613 . S
N433 C436 1.350 . S
N434 S432 1.610 . S
N434 C435 1.351 . S
C435 C429 1.428 . S
C435 N434 1.351 . S
C435 C436 1.434 . S
C436 C427 1.429 . S
C436 N433 1.350 . S
C436 C435 1.434 . S
C437 C438 1.369 . S
C437 C439 1.419 . S
C437 H441 0.930 . S
C438 C437 1.369 . S
C438 C447 1.429 . S
C439 C437 1.419 . S
C439 C440 1.363 . S
C439 H442 0.929 . S
C440 C439 1.363 . S
C440 C446 1.428 . S
H441 C437 0.930 . S
H442 C439 0.929 . S
S443 N444 1.613 . S
S443 N445 1.610 . S
N444 S443 1.613 . S
N444 C447 1.350 1_455 S
N445 S443 1.610 . S
N445 C446 1.351 1_455 S
C446 C440 1.428 . S
C446 N445 1.351 1_655 S
C446 C447 1.434 . S
C447 C438 1.429 . S
C447 N444 1.350 1_655 S
C447 C446 1.434 . S
C448 C449 1.369 . S
C448 C450 1.419 . S
C448 H452 0.930 . S
C449 C448 1.369 . S
C449 C458 1.429 . S
C450 C448 1.419 . S
C450 C451 1.363 . S
C450 H453 0.929 . S
C451 C450 1.363 . S
C451 C457 1.428 . S
H452 C448 0.930 . S
H453 C450 0.929 . S
S454 N455 1.613 . S
S454 N456 1.610 . S
N455 S454 1.613 . S
N455 C458 1.350 . S
N456 S454 1.610 . S
N456 C457 1.351 . S
C457 C451 1.428 . S
C457 N456 1.351 . S
C457 C458 1.434 . S
C458 C449 1.429 . S
C458 N455 1.350 . S
C458 C457 1.434 . S
C459 C460 1.369 . S
C459 C461 1.419 . S
C459 H463 0.930 . S
C460 C459 1.369 . S
C460 C469 1.429 . S
C461 C459 1.419 . S
C461 C462 1.363 . S
C461 H464 0.929 . S
C462 C461 1.363 . S
C462 C468 1.428 . S
H463 C459 0.930 . S
H464 C461 0.929 . S
S465 N466 1.613 1_545 S
S465 N467 1.610 . S
N466 S465 1.613 1_565 S
N466 C469 1.350 . S
N467 S465 1.610 . S
N467 C468 1.351 1_545 S
C468 C462 1.428 . S
C468 N467 1.351 1_565 S
C468 C469 1.434 . S
C469 C460 1.429 . S
C469 N466 1.350 . S
C469 C468 1.434 . S
C470 C471 1.369 . S
C470 C472 1.419 . S
C470 H474 0.930 . S
C471 C470 1.369 . S
C471 C480 1.429 . S
C472 C470 1.419 . S
C472 C473 1.363 . S
C472 H475 0.929 . S
C473 C472 1.363 . S
C473 C479 1.428 . S
H474 C470 0.930 . S
H475 C472 0.929 . S
S476 N477 1.613 1_554 S
S476 N478 1.610 . S
N477 S476 1.613 1_556 S
N477 C480 1.350 . S
N478 S476 1.610 . S
N478 C479 1.351 1_554 S
C479 C473 1.428 . S
C479 N478 1.351 1_556 S
C479 C480 1.434 . S
C480 C471 1.429 . S
C480 N477 1.350 . S
C480 C479 1.434 . S
C481 C482 1.369 . S
C481 C483 1.419 . S
C481 H485 0.930 . S
C482 C481 1.369 . S
C482 C491 1.429 . S
C483 C481 1.419 . S
C483 C484 1.363 . S
C483 H486 0.929 . S
C484 C483 1.363 . S
C484 C490 1.428 . S
H485 C481 0.930 . S
H486 C483 0.929 . S
S487 N488 1.613 . S
S487 N489 1.610 . S
N488 S487 1.613 . S
N488 C491 1.350 . S
N489 S487 1.610 . S
N489 C490 1.351 . S
C490 C484 1.428 . S
C490 N489 1.351 . S
C490 C491 1.434 . S
C491 C482 1.429 . S
C491 N488 1.350 . S
C491 C490 1.434 . S
C492 C493 1.369 . S
C492 C494 1.419 . S
C492 H496 0.930 . S
C493 C492 1.369 . S
C493 C502 1.429 . S
C494 C492 1.419 . S
C494 C495 1.363 . S
C494 H497 0.929 . S
C495 C494 1.363 . S
C495 C501 1.428 . S
H496 C492 0.930 . S
H497 C494 0.929 . S
S498 N499 1.613 1_556 S
S498 N500 1.610 1_556 S
N499 S498 1.613 1_554 S
N499 C502 1.350 . S
N500 S498 1.610 1_554 S
N500 C501 1.351 . S
C501 C495 1.428 . S
C501 N500 1.351 . S
C501 C502 1.434 . S
C502 C493 1.429 . S
C502 N499 1.350 . S
C502 C501 1.434 . S
C503 C504 1.369 . S
C503 C505 1.419 . S
C503 H507 0.930 . S
C504 C503 1.369 . S
C504 C513 1.429 . S
C505 C503 1.419 . S
C505 C506 1.363 . S
C505 H508 0.929 . S
C506 C505 1.363 . S
C506 C512 1.428 . S
H507 C503 0.930 . S
H508 C505 0.929 . S
S509 N510 1.613 . S
S509 N511 1.610 . S
N510 S509 1.613 . S
N510 C513 1.350 . S
N511 S509 1.610 . S
N511 C512 1.351 . S
C512 C506 1.428 . S
C512 N511 1.351 . S
C512 C513 1.434 . S
C513 C504 1.429 . S
C513 N510 1.350 . S
C513 C512 1.434 . S
C514 C515 1.369 . S
C514 C516 1.419 . S
C514 H518 0.930 . S
C515 C514 1.369 . S
C515 C524 1.429 . S
C516 C514 1.419 . S
C516 C517 1.363 . S
C516 H519 0.929 . S
C517 C516 1.363 . S
C517 C523 1.428 . S
H518 C514 0.930 . S
H519 C516 0.929 . S
S520 N521 1.613 . S
S520 N522 1.610 . S
N521 S520 1.613 . S
N521 C524 1.350 . S
N522 S520 1.610 . S
N522 C523 1.351 . S
C523 C517 1.428 . S
C523 N522 1.351 . S
C523 C524 1.434 . S
C524 C515 1.429 . S
C524 N521 1.350 . S
C524 C523 1.434 . S
C525 C526 1.369 . S
C525 C527 1.419 . S
C525 H529 0.930 . S
C526 C525 1.369 . S
C526 C535 1.429 . S
C527 C525 1.419 . S
C527 C528 1.363 . S
C527 H530 0.929 . S
C528 C527 1.363 . S
C528 C534 1.428 . S
H529 C525 0.930 . S
H530 C527 0.929 . S
S531 N532 1.613 . S
S531 N533 1.610 . S
N532 S531 1.613 . S
N532 C535 1.350 . S
N533 S531 1.610 . S
N533 C534 1.351 . S
C534 C528 1.428 . S
C534 N533 1.351 . S
C534 C535 1.434 . S
C535 C526 1.429 . S
C535 N532 1.350 . S
C535 C534 1.434 . S
C536 C537 1.369 . S
C536 C538 1.419 . S
C536 H540 0.930 . S
C537 C536 1.369 . S
C537 C546 1.429 1_445 S
C538 C536 1.419 . S
C538 C539 1.363 1_455 S
C538 H541 0.929 . S
C539 C538 1.363 1_655 S
C539 C545 1.428 1_545 S
H540 C536 0.930 . S
H541 C538 0.929 . S
S542 N543 1.613 . S
S542 N544 1.610 . S
N543 S542 1.613 . S
N543 C546 1.350 . S
N544 S542 1.610 . S
N544 C545 1.351 . S
C545 C539 1.428 1_565 S
C545 N544 1.351 . S
C545 C546 1.434 . S
C546 C537 1.429 1_665 S
C546 N543 1.350 . S
C546 C545 1.434 . S
C547 C548 1.369 . S
C547 C549 1.419 . S
C547 H551 0.930 . S
C548 C547 1.369 . S
C548 C557 1.429 1_545 S
C549 C547 1.419 . S
C549 C550 1.363 . S
C549 H552 0.929 . S
C550 C549 1.363 . S
C550 C556 1.428 1_545 S
H551 C547 0.930 . S
H552 C549 0.929 . S
S553 N554 1.613 . S
S553 N555 1.610 . S
N554 S553 1.613 . S
N554 C557 1.350 . S
N555 S553 1.610 . S
N555 C556 1.351 . S
C556 C550 1.428 1_565 S
C556 N555 1.351 . S
C556 C557 1.434 . S
C557 C548 1.429 1_565 S
C557 N554 1.350 . S
C557 C556 1.434 . S
C558 C559 1.369 . S
C558 C560 1.419 . S
C558 H562 0.930 . S
C559 C558 1.369 . S
C559 C568 1.429 . S
C560 C558 1.419 . S
C560 C561 1.363 . S
C560 H563 0.929 . S
C561 C560 1.363 . S
C561 C567 1.428 . S
H562 C558 0.930 . S
H563 C560 0.929 . S
S564 N565 1.613 . S
S564 N566 1.610 . S
N565 S564 1.613 . S
N565 C568 1.350 . S
N566 S564 1.610 . S
N566 C567 1.351 . S
C567 C561 1.428 . S
C567 N566 1.351 . S
C567 C568 1.434 . S
C568 C559 1.429 . S
C568 N565 1.350 . S
C568 C567 1.434 . S
C569 C570 1.369 . S
C569 C571 1.419 . S
C569 H573 0.930 1_455 S
C570 C569 1.369 . S
C570 C579 1.429 . S
C571 C569 1.419 . S
C571 C572 1.363 . S
C571 H574 0.929 1_455 S
C572 C571 1.363 . S
C572 C578 1.428 . S
H573 C569 0.930 1_655 S
H574 C571 0.929 1_655 S
S575 N576 1.613 . S
S575 N577 1.610 . S
N576 S575 1.613 . S
N576 C579 1.350 . S
N577 S575 1.610 . S
N577 C578 1.351 . S
C578 C572 1.428 . S
C578 N577 1.351 . S
C578 C579 1.434 . S
C579 C570 1.429 . S
C579 N576 1.350 . S
C579 C578 1.434 . S
C580 C581 1.369 1_566 S
C580 C582 1.419 . S
C580 H584 0.930 . S
C581 C580 1.369 1_544 S
C581 C590 1.429 . S
C582 C580 1.419 . S
C582 C583 1.363 1_556 S
C582 H585 0.929 . S
C583 C582 1.363 1_554 S
C583 C589 1.428 1_565 S
H584 C580 0.930 . S
H585 C582 0.929 . S
S586 N587 1.613 . S
S586 N588 1.610 . S
N587 S586 1.613 . S
N587 C590 1.350 . S
N588 S586 1.610 . S
N588 C589 1.351 . S
C589 C583 1.428 1_545 S
C589 N588 1.351 . S
C589 C590 1.434 . S
C590 C581 1.429 . S
C590 N587 1.350 . S
C590 C589 1.434 . S
C591 C592 1.369 . S
C591 C593 1.419 . S
C591 H595 0.930 1_545 S
C592 C591 1.369 . S
C592 C601 1.429 . S
C593 C591 1.419 . S
C593 C594 1.363 . S
C593 H596 0.929 1_545 S
C594 C593 1.363 . S
C594 C600 1.428 . S
H595 C591 0.930 1_565 S
H596 C593 0.929 1_565 S
S597 N598 1.613 . S
S597 N599 1.610 . S
N598 S597 1.613 . S
N598 C601 1.350 . S
N599 S597 1.610 . S
N599 C600 1.351 . S
C600 C594 1.428 . S
C600 N599 1.351 . S
C600 C601 1.434 . S
C601 C592 1.429 . S
C601 N598 1.350 . S
C601 C600 1.434 . S
C602 C603 1.369 . S
C602 C604 1.419 . S
C602 H606 0.930 . S
C603 C602 1.369 . S
C603 C612 1.429 1_554 S
C604 C602 1.419 . S
C604 C605 1.363 . S
C604 H607 0.929 . S
C605 C604 1.363 . S
C605 C611 1.428 1_554 S
H606 C602 0.930 . S
H607 C604 0.929 . S
S608 N609 1.613 . S
S608 N610 1.610 . S
N609 S608 1.613 . S
N609 C612 1.350 . S
N610 S608 1.610 . S
N610 C611 1.351 . S
C611 C605 1.428 1_556 S
C611 N610 1.351 . S
C611 C612 1.434 . S
C612 C603 1.429 1_556 S
C612 N609 1.350 . S
C612 C611 1.434 . S
C613 C614 1.369 . S
C613 C615 1.419 . S
C613 H617 0.930 . S
C614 C613 1.369 . S
C614 C623 1.429 . S
C615 C613 1.419 . S
C615 C616 1.363 . S
C615 H618 0.929 . S
C616 C615 1.363 . S
C616 C622 1.428 . S
H617 C613 0.930 . S
H618 C615 0.929 . S
S619 N620 1.613 . S
S619 N621 1.610 . S
N620 S619 1.613 . S
N620 C623 1.350 . S
N621 S619 1.610 . S
N621 C622 1.351 . S
C622 C616 1.428 . S
C622 N621 1.351 . S
C622 C623 1.434 . S
C623 C614 1.429 . S
C623 N620 1.350 . S
C623 C622 1.434 . S
C624 C625 1.369 1_554 S
C624 C626 1.419 . S
C624 H628 0.930 1_455 S
C625 C624 1.369 1_556 S
C625 C634 1.429 . S
C626 C624 1.419 . S
C626 C627 1.365 1_554 S
C626 H629 0.926 1_455 S
C627 C626 1.365 1_556 S
C627 C633 1.428 . S
H628 C624 0.930 1_655 S
H629 C626 0.926 1_655 S
S630 N631 1.613 . S
S630 N632 1.610 . S
N631 S630 1.613 . S
N631 C634 1.350 . S
N632 S630 1.610 . S
N632 C633 1.351 . S
C633 C627 1.428 . S
C633 N632 1.351 . S
C633 C634 1.434 . S
C634 C625 1.429 . S
C634 N631 1.350 . S
C634 C633 1.434 . S
C635 C636 1.369 . S
C635 C637 1.419 . S
C635 H639 0.930 . S
C636 C635 1.369 . S
C636 C645 1.429 1_554 S
C637 C635 1.419 . S
C637 C638 1.363 . S
C637 H640 0.929 . S
C638 C637 1.363 . S
C638 C644 1.428 . S
H639 C635 0.930 . S
H640 C637 0.929 . S
S641 N642 1.613 . S
S641 N643 1.610 . S
N642 S641 1.613 . S
N642 C645 1.349 . S
N643 S641 1.610 . S
N643 C644 1.351 1_556 S
C644 C638 1.428 . S
C644 N643 1.351 1_554 S
C644 C645 1.434 1_554 S
C645 C636 1.429 1_556 S
C645 N642 1.349 . S
C645 C644 1.434 1_556 S
C646 C647 1.369 . S
C646 C648 1.419 . S
C646 H650 0.930 . S
C647 C646 1.369 . S
C647 C656 1.429 . S
C648 C646 1.419 . S
C648 C649 1.363 . S
C648 H651 0.929 . S
C649 C648 1.363 . S
C649 C655 1.428 . S
H650 C646 0.930 . S
H651 C648 0.929 . S
S652 N653 1.613 . S
S652 N654 1.610 . S
N653 S652 1.613 . S
N653 C656 1.350 1_655 S
N654 S652 1.610 . S
N654 C655 1.351 1_655 S
C655 C649 1.428 . S
C655 N654 1.351 1_455 S
C655 C656 1.434 . S
C656 C647 1.429 . S
C656 N653 1.350 1_455 S
C656 C655 1.434 . S
C657 C658 1.369 . S
C657 C659 1.419 . S
C657 H661 0.930 . S
C658 C657 1.369 . S
C658 C667 1.429 . S
C659 C657 1.419 . S
C659 C660 1.363 . S
C659 H662 0.929 . S
C660 C659 1.363 . S
C660 C666 1.428 . S
H661 C657 0.930 . S
H662 C659 0.929 . S
S663 N664 1.613 . S
S663 N665 1.610 . S
N664 S663 1.613 . S
N664 C667 1.350 . S
N665 S663 1.610 . S
N665 C666 1.351 . S
C666 C660 1.428 . S
C666 N665 1.351 . S
C666 C667 1.434 . S
C667 C658 1.429 . S
C667 N664 1.350 . S
C667 C666 1.434 . S
C405 C21 1.557 . S
C407 C323 1.468 . S
C416 C61 1.524 . S
C418 C357 1.424 . S
C429 C369 1.354 . S
C427 C82 1.436 . S
C438 C135 1.521 . S
C440 C403 1.430 . S
C451 C360 1.434 . S
C449 C15 1.534 . S
C462 C340 1.441 . S
C460 C42 1.520 . S
C473 C387 1.399 . S
C471 C101 1.484 . S
C484 C378 1.396 . S
C482 C122 1.472 . S
C493 C2 1.549 . S
C495 C386 1.453 . S
C506 C348 1.375 . S
C504 C95 1.465 . S
C515 C141 1.515 . S
C517 C324 1.420 . S
C526 C55 1.507 . S
C528 C381 1.411 . S
C539 C339 1.803 . S
C537 C181 1.758 . S
C548 C202 1.739 . S
C550 C361 1.757 . S
C559 C255 1.825 . S
C561 C366 1.788 . S
C570 C295 1.837 . S
C572 C399 1.783 . S
C581 C175 1.836 . S
C583 C344 1.798 . S
C594 C336 1.817 . S
C592 C221 1.771 . S
C605 C390 1.765 . S
C603 C242 1.738 . S
C616 C382 1.790 . S
C614 C301 1.926 . S
C625 C162 1.719 . S
C627 C402 1.745 . S
C638 C345 1.793 . S
C636 C261 1.755 . S
C649 C327 1.771 . S
C647 C282 1.879 . S
C658 C215 1.842 . S
C660 C365 1.808 . S
