# Generated by pormake.
# Topology nia, (6,6)-cn, num edge types: 1
# Building blocks:
#     Node 0, Type 0, BuildingBlock: MIFKUJ_clean_sbu_0, # of connection points: 6
#     Node 1, Type 0, BuildingBlock: MIFKUJ_clean_sbu_0, # of connection points: 6
#     Node 2, Type 1, BuildingBlock: MIDCAF_clean_sbu_0, # of connection points: 6
#     Node 3, Type 1, BuildingBlock: MIDCAF_clean_sbu_0, # of connection points: 6
#     Edge 4, Type (0, 1), BuildingBlock: FUNLAD_clean_linker_0, # of connection points: 2
#     Edge 5, Type (0, 1), BuildingBlock: FUNLAD_clean_linker_0, # of connection points: 2
#     Edge 6, Type (0, 1), BuildingBlock: FUNLAD_clean_linker_0, # of connection points: 2
#     Edge 7, Type (0, 1), BuildingBlock: FUNLAD_clean_linker_0, # of connection points: 2
#     Edge 8, Type (0, 1), BuildingBlock: FUNLAD_clean_linker_0, # of connection points: 2
#     Edge 9, Type (0, 1), BuildingBlock: FUNLAD_clean_linker_0, # of connection points: 2
#     Edge 10, Type (0, 1), BuildingBlock: FUNLAD_clean_linker_0, # of connection points: 2
#     Edge 11, Type (0, 1), BuildingBlock: FUNLAD_clean_linker_0, # of connection points: 2
#     Edge 12, Type (0, 1), BuildingBlock: FUNLAD_clean_linker_0, # of connection points: 2
#     Edge 13, Type (0, 1), BuildingBlock: FUNLAD_clean_linker_0, # of connection points: 2
#     Edge 14, Type (0, 1), BuildingBlock: FUNLAD_clean_linker_0, # of connection points: 2
#     Edge 15, Type (0, 1), BuildingBlock: FUNLAD_clean_linker_0, # of connection points: 2
# Relax obj value: 0.168
# Max RMSD: 0.249
# Mean RMSD: 0.182
data_MOF--net-nia--node1-MIFKUJ_clean_sbu_0--node2-MIDCAF_clean_sbu_0--edge1-FUNLAD_clean_linker_0
_symmetry_space_group_name_H-M    P1
_symmetry_Int_Tables_number       1
_symmetry_cell_setting            triclinic
loop_
_symmetry_equiv_pos_as_xyz
'x, y, z'
_cell_length_a     28.880587
_cell_length_b     28.971541
_cell_length_c     36.54298
_cell_angle_alpha  89.014801
_cell_angle_beta   88.771055
_cell_angle_gamma 127.11367
loop_
_atom_site_label
_atom_site_type_symbol
_atom_site_fract_x
_atom_site_fract_y
_atom_site_fract_z
_atom_type_partial_charge
Zn0 Zn 0.0356 0.95683 0.03274 0.0
Zn1 Zn -0.00565 0.0216 0.9933 0.0
C2 C 0.95375 0.85417 0.98812 0.0
O3 O 0.91791 0.83223 0.017 0.0
C4 C 0.01435 0.09217 0.05675 0.0
O5 O 0.95855 0.06754 0.05572 0.0
O6 O 0.0701 0.92851 0.06498 0.0
O7 O 0.1022 0.03495 0.0117 0.0
O8 O 0.05499 0.02469 0.96232 0.0
C9 C 0.10698 0.92296 0.05084 0.0
O10 O 0.12165 0.9364 0.01584 0.0
O11 O 0.0024 0.90394 0.98951 0.0
C12 C 0.90973 0.037 0.97049 0.0
O13 O 0.88087 0.00095 0.99869 0.0
O14 O 0.96035 0.05246 0.96202 0.0
O15 O 0.92667 0.94447 0.01563 0.0
O16 O 0.97393 0.95142 0.06391 0.0
O17 O 0.03737 0.07839 0.0337 0.0
C18 C 0.10246 0.04381 0.97745 0.0
C19 C 0.92692 0.93555 0.04974 0.0
Zn20 Zn 0.0475 0.97965 0.49197 0.0
Zn21 Zn -0.0103 0.01925 0.53842 0.0
C22 C 0.16617 0.0591 0.51507 0.0
O23 O 0.17769 0.06706 0.47956 0.0
C24 C 0.87607 0.93238 0.51283 0.0
O25 O 0.86463 0.92287 0.54833 0.0
O26 O 0.07076 0.94461 0.45544 0.0
O27 O 0.97837 0.91273 0.52222 0.0
O28 O -0.00017 0.96799 0.56913 0.0
C29 C 0.09305 0.92071 0.46712 0.0
O30 O 0.09899 0.91852 0.50252 0.0
O31 O 0.11353 0.02469 0.52677 0.0
C32 C 0.94963 0.08493 0.55761 0.0
O33 O 0.96088 0.09836 0.52238 0.0
O34 O 0.95888 0.05085 0.57166 0.0
O35 O 0.06036 0.08752 0.51199 0.0
O36 O 0.042 0.03668 0.46326 0.0
O37 O 0.92793 0.97169 0.50136 0.0
C38 C 0.97953 0.91875 0.55668 0.0
C39 C 0.06151 0.08479 0.47739 0.0
Zn40 Zn 0.36382 0.66816 0.19728 0.0
Zn41 Zn 0.34215 0.64805 0.33587 0.0
Zn42 Zn 0.35395 0.65985 0.26669 0.0
C43 C 0.45707 0.69592 0.32044 0.0
C44 C 0.26805 0.53828 0.31272 0.0
O45 O 0.31539 0.70322 0.24803 0.0
O46 O 0.31086 0.68854 0.18864 0.0
C47 C 0.47576 0.7374 0.22009 0.0
O48 O 0.44201 0.70164 0.28869 0.0
O49 O 0.41923 0.66787 0.34609 0.0
O50 O 0.27433 0.56557 0.34102 0.0
O51 O 0.29687 0.56608 0.28275 0.0
O52 O 0.44822 0.73039 0.19179 0.0
O53 O 0.44797 0.71137 0.25065 0.0
O54 O 0.30374 0.57113 0.24422 0.0
O55 O 0.33443 0.58826 0.1862 0.0
C56 C 0.30436 0.55259 0.21248 0.0
O57 O 0.31796 0.7056 0.28599 0.0
O58 O 0.33057 0.70735 0.34555 0.0
C59 C 0.29908 0.70614 0.21604 0.0
C60 C 0.31641 0.72259 0.31808 0.0
Zn61 Zn 0.68369 0.33825 0.82938 0.0
Zn62 Zn 0.70274 0.34312 0.64832 0.0
Zn63 Zn 0.68088 0.32881 0.7622 0.0
C64 C 0.75278 0.44576 0.69746 0.0
C65 C 0.59837 0.28187 0.7072 0.0
O66 O 0.7184 0.28617 0.78543 0.0
O67 O 0.70111 0.2844 0.84482 0.0
C68 C 0.7581 0.45014 0.79846 0.0
O69 O 0.73101 0.41389 0.72771 0.0
O70 O 0.74667 0.42569 0.66542 0.0
O71 O 0.64982 0.30786 0.69441 0.0
O72 O 0.59288 0.27896 0.74205 0.0
O73 O 0.74764 0.42276 0.82851 0.0
O74 O 0.73402 0.42245 0.7693 0.0
O75 O 0.5889 0.28426 0.77983 0.0
O76 O 0.6027 0.3125 0.83689 0.0
C77 C 0.56892 0.28693 0.81088 0.0
O78 O 0.71752 0.28347 0.74807 0.0
O79 O 0.7054 0.31091 0.69686 0.0
C80 C 0.71942 0.27089 0.8186 0.0
C81 C 0.72328 0.28603 0.71331 0.0
C82 C 0.11881 0.88801 0.1109 0.0
C83 C 0.13116 0.89926 0.07293 0.0
C84 C 0.13975 0.86309 0.1312 0.0
C85 C 0.17328 0.84882 0.11379 0.0
C86 C 0.18607 0.86078 0.076 0.0
C87 C 0.16564 0.88601 0.05584 0.0
C88 C 0.19224 0.81765 0.1331 0.0
C89 C 0.19913 0.81765 0.1695 0.0
C90 C 0.21844 0.78485 0.18593 0.0
C91 C 0.25878 0.80861 0.21383 0.0
C92 C 0.28322 0.78147 0.22559 0.0
C93 C 0.26675 0.72986 0.20994 0.0
H94 H 0.16646 0.71045 0.15191 0.0
C95 C 0.22331 0.70414 0.1841 0.0
C96 C 0.19911 0.73104 0.17241 0.0
H97 H 0.20942 0.66398 0.17192 0.0
H98 H 0.09227 0.89765 0.12487 0.0
H99 H 0.12799 0.85343 0.16013 0.0
H100 H 0.21155 0.84996 0.06185 0.0
H101 H 0.17596 0.89401 0.02668 0.0
H102 H 0.20302 0.79481 0.11592 0.0
H103 H 0.19449 0.8447 0.18693 0.0
H104 H 0.27381 0.84971 0.22499 0.0
H105 H 0.3172 0.80246 0.24522 0.0
C106 C 0.27218 0.12001 0.52801 0.0
C107 C 0.21403 0.08693 0.54106 0.0
C108 C 0.31741 0.14398 0.55234 0.0
C109 C 0.30567 0.13597 0.59053 0.0
C110 C 0.24745 0.10314 0.60348 0.0
C111 C 0.20218 0.07897 0.57911 0.0
C112 C 0.35221 0.15854 0.61764 0.0
C113 C 0.40925 0.19992 0.60954 0.0
C114 C 0.45618 0.21985 0.63578 0.0
C115 C 0.51252 0.24499 0.62152 0.0
C116 C 0.5583 0.26463 0.64474 0.0
C117 C 0.54914 0.26033 0.68295 0.0
H118 H 0.40454 0.1983 0.68625 0.0
C119 C 0.49297 0.23592 0.69739 0.0
C120 C 0.44687 0.2158 0.67409 0.0
H121 H 0.48471 0.23285 0.72665 0.0
H122 H 0.28287 0.12655 0.49888 0.0
H123 H 0.36111 0.16726 0.54076 0.0
H124 H 0.23684 0.09578 0.63264 0.0
H125 H 0.15784 0.05356 0.59012 0.0
H126 H 0.33854 0.13936 0.6452 0.0
H127 H 0.42328 0.21932 0.5821 0.0
H128 H 0.52115 0.24902 0.59217 0.0
H129 H 0.60092 0.28321 0.6326 0.0
C130 C 0.02816 0.16121 0.10377 0.0
C131 C 0.05103 0.13862 0.08269 0.0
C132 C 0.06394 0.20836 0.12593 0.0
C133 C 0.12357 0.23377 0.1278 0.0
C134 C 0.14571 0.20964 0.10763 0.0
C135 C 0.11004 0.1628 0.08533 0.0
C136 C 0.16533 0.28776 0.14775 0.0
C137 C 0.15053 0.31517 0.16888 0.0
C138 C 0.19358 0.37412 0.18316 0.0
C139 C 0.17558 0.39392 0.21085 0.0
C140 C 0.2124 0.45136 0.22173 0.0
C141 C 0.26817 0.49008 0.20529 0.0
H142 H 0.26564 0.40078 0.14515 0.0
C143 C 0.28681 0.47007 0.17834 0.0
C144 C 0.2501 0.41296 0.16731 0.0
H145 H 0.32937 0.49925 0.16484 0.0
H146 H 0.98285 0.14361 0.10236 0.0
H147 H 0.04453 0.22529 0.14048 0.0
H148 H 0.19132 0.22805 0.10835 0.0
H149 H 0.12906 0.14629 0.06961 0.0
H150 H 0.21092 0.3065 0.14372 0.0
H151 H 0.10516 0.29499 0.17545 0.0
H152 H 0.13215 0.36541 0.22327 0.0
H153 H 0.19622 0.4661 0.24173 0.0
C154 C 0.91933 0.14913 0.56484 0.0
C155 C 0.92575 0.10861 0.58026 0.0
C156 C 0.89605 0.17109 0.58576 0.0
C157 C 0.87792 0.15252 0.62265 0.0
C158 C 0.88543 0.11287 0.63823 0.0
C159 C 0.90891 0.091 0.61728 0.0
C160 C 0.85242 0.17451 0.64585 0.0
C161 C 0.82631 0.19655 0.63194 0.0
C162 C 0.8012 0.21964 0.6543 0.0
C163 C 0.79169 0.25664 0.63682 0.0
C164 C 0.76696 0.27852 0.6561 0.0
C165 C 0.75075 0.26369 0.69339 0.0
H166 H 0.78945 0.17468 0.70605 0.0
C167 C 0.75967 0.22629 0.71098 0.0
C168 C 0.78469 0.20446 0.6917 0.0
H169 H 0.74605 0.21278 0.7394 0.0
H170 H 0.93258 0.16425 0.53653 0.0
H171 H 0.89337 0.20326 0.57291 0.0
H172 H 0.87252 0.09826 0.66664 0.0
H173 H 0.9135 0.06002 0.63007 0.0
H174 H 0.85488 0.17157 0.67529 0.0
H175 H 0.82337 0.19866 0.6025 0.0
H176 H 0.80357 0.26884 0.60804 0.0
H177 H 0.7606 0.30713 0.64167 0.0
C178 C 0.876 0.91236 0.11146 0.0
C179 C 0.87378 0.91099 0.07302 0.0
C180 C 0.82653 0.89336 0.13319 0.0
C181 C 0.77381 0.87236 0.11681 0.0
C182 C 0.77154 0.86989 0.07849 0.0
C183 C 0.82076 0.8887 0.05686 0.0
C184 C 0.72089 0.85547 0.13798 0.0
C185 C 0.7106 0.84227 0.17426 0.0
C186 C 0.65463 0.82313 0.19215 0.0
C187 C 0.62664 0.77764 0.2188 0.0
C188 C 0.56914 0.75208 0.23063 0.0
C189 C 0.53946 0.77229 0.21615 0.0
H190 H 0.64785 0.8834 0.16126 0.0
C191 C 0.56941 0.82122 0.19224 0.0
C192 C 0.62659 0.84677 0.18062 0.0
H193 H 0.54756 0.83795 0.18103 0.0
H194 H 0.91635 0.92962 0.12474 0.0
H195 H 0.83044 0.89697 0.16255 0.0
H196 H 0.73156 0.85391 0.06509 0.0
H197 H 0.81734 0.88657 0.02739 0.0
H198 H 0.68719 0.85138 0.12217 0.0
H199 H 0.74064 0.84037 0.19028 0.0
H200 H 0.64772 0.75927 0.22852 0.0
H201 H 0.5467 0.71407 0.2489 0.0
C202 C 0.91443 0.81246 0.57215 0.0
C203 C 0.95838 0.86917 0.58219 0.0
C204 C 0.8947 0.76558 0.59632 0.0
C205 C 0.91942 0.77452 0.63068 0.0
C206 C 0.96391 0.83111 0.64049 0.0
C207 C 0.98258 0.87816 0.61671 0.0
C208 C 0.90188 0.72485 0.65531 0.0
C209 C 0.84605 0.67809 0.65995 0.0
C210 C 0.82741 0.623 0.6784 0.0
C211 C 0.7697 0.58404 0.69194 0.0
C212 C 0.74681 0.52701 0.70201 0.0
C213 C 0.78123 0.50804 0.69848 0.0
H214 H 0.90728 0.6332 0.66641 0.0
C215 C 0.83983 0.54763 0.68711 0.0
C216 C 0.86301 0.60488 0.67743 0.0
H217 H 0.86658 0.53327 0.68338 0.0
H218 H 0.8951 0.80439 0.5457 0.0
H219 H 0.86122 0.72221 0.58769 0.0
H220 H 0.98404 0.8389 0.66662 0.0
H221 H 0.0169 0.92149 0.62497 0.0
H222 H 0.93565 0.72685 0.66955 0.0
H223 H 0.81243 0.67926 0.64827 0.0
H224 H 0.7413 0.59676 0.69272 0.0
H225 H 0.70108 0.49663 0.70991 0.0
C226 C 0.14833 0.88149 0.45405 0.0
C227 C 0.11434 0.89777 0.44135 0.0
C228 C 0.16994 0.86117 0.42998 0.0
C229 C 0.15805 0.85652 0.39252 0.0
C230 C 0.12279 0.87127 0.3799 0.0
C231 C 0.10162 0.89232 0.404 0.0
C232 C 0.18052 0.83434 0.36681 0.0
C233 C 0.23316 0.84661 0.37069 0.0
C234 C 0.25624 0.81968 0.35052 0.0
C235 C 0.31206 0.83777 0.3588 0.0
C236 C 0.33284 0.80811 0.34604 0.0
C237 C 0.29873 0.76012 0.32416 0.0
H238 H 0.17998 0.75781 0.31958 0.0
C239 C 0.24447 0.74391 0.31363 0.0
C240 C 0.22318 0.77339 0.32675 0.0
H241 H 0.21717 0.70645 0.29712 0.0
H242 H 0.15867 0.88475 0.48266 0.0
H243 H 0.19531 0.84832 0.44093 0.0
H244 H 0.11234 0.86732 0.35129 0.0
H245 H 0.07518 0.90413 0.39341 0.0
H246 H 0.15321 0.80794 0.34479 0.0
H247 H 0.26066 0.87693 0.39142 0.0
H248 H 0.33875 0.87327 0.37683 0.0
H249 H 0.37478 0.82121 0.35462 0.0
C250 C 0.15882 0.08097 0.9171 0.0
C251 C 0.15783 0.07578 0.95552 0.0
C252 C 0.21155 0.11131 0.89668 0.0
C253 C 0.26423 0.13709 0.91441 0.0
C254 C 0.26302 0.13199 0.95274 0.0
C255 C 0.21053 0.10145 0.97305 0.0
C256 C 0.32166 0.17189 0.89453 0.0
C257 C 0.33061 0.16675 0.85894 0.0
C258 C 0.39029 0.20122 0.84201 0.0
C259 C 0.40524 0.17635 0.8162 0.0
C260 C 0.46331 0.20549 0.80411 0.0
C261 C 0.50684 0.25998 0.81752 0.0
H262 H 0.42308 0.27919 0.87166 0.0
C263 C 0.49113 0.28645 0.84118 0.0
C264 C 0.43346 0.2577 0.85301 0.0
H265 H 0.52385 0.32889 0.85145 0.0
H266 H 0.11892 0.06173 0.90279 0.0
H267 H 0.21087 0.11543 0.86725 0.0
H268 H 0.30296 0.1517 0.96712 0.0
H269 H 0.21142 0.09839 1.00258 0.0
H270 H 0.35906 0.20113 0.91088 0.0
H271 H 0.29476 0.13373 0.84295 0.0
H272 H 0.37258 0.13316 0.80696 0.0
H273 H 0.47453 0.18406 0.78605 0.0
C274 C 0.08294 0.13519 0.41569 0.0
C275 C 0.0813 0.13643 0.45415 0.0
C276 C 0.09964 0.18385 0.39413 0.0
C277 C 0.115 0.23458 0.41078 0.0
C278 C 0.11334 0.23552 0.44914 0.0
C279 C 0.09701 0.18729 0.47056 0.0
C280 C 0.13163 0.2872 0.38978 0.0
C281 C 0.15117 0.30042 0.35449 0.0
C282 C 0.17388 0.35776 0.33748 0.0
C283 C 0.22287 0.38613 0.31334 0.0
C284 C 0.25167 0.44443 0.3028 0.0
C285 C 0.23131 0.4747 0.31599 0.0
H286 H 0.11146 0.36544 0.36498 0.0
C287 C 0.17952 0.44491 0.33741 0.0
C288 C 0.1506 0.38678 0.34768 0.0
H289 H 0.16274 0.46732 0.34756 0.0
H290 H 0.07074 0.09649 0.40223 0.0
H291 H 0.09926 0.18098 0.36466 0.0
H292 H 0.12476 0.27389 0.46274 0.0
H293 H 0.09604 0.18979 0.50008 0.0
H294 H 0.1317 0.31888 0.40533 0.0
H295 H 0.15689 0.27222 0.3393 0.0
H296 H 0.24115 0.36445 0.30466 0.0
H297 H 0.29177 0.46674 0.28634 0.0
C298 C 0.91183 0.09719 0.91883 0.0
C299 C 0.88404 0.06086 0.95038 0.0
C300 C 0.88752 0.12084 0.90105 0.0
C301 C 0.83509 0.10866 0.91472 0.0
C302 C 0.80745 0.07211 0.94603 0.0
C303 C 0.83131 0.04823 0.9635 0.0
C304 C 0.80887 0.13523 0.89891 0.0
C305 C 0.81735 0.15556 0.86401 0.0
C306 C 0.78891 0.18115 0.85007 0.0
C307 C 0.81532 0.22238 0.82074 0.0
C308 C 0.79168 0.25035 0.80922 0.0
C309 C 0.74115 0.23724 0.82682 0.0
H310 H 0.71259 0.13212 0.88726 0.0
C311 C 0.71324 0.19412 0.85484 0.0
C312 C 0.73626 0.16577 0.86598 0.0
H313 H 0.67365 0.1826 0.86842 0.0
H314 H 0.95262 0.10785 0.90812 0.0
H315 H 0.91074 0.14978 0.87742 0.0
H316 H 0.76716 0.06213 0.95725 0.0
H317 H 0.80868 0.02052 0.98773 0.0
H318 H 0.7805 0.13744 0.91749 0.0
H319 H 0.84675 0.15494 0.84539 0.0
H320 H 0.85535 0.23443 0.80757 0.0
H321 H 0.81409 0.28374 0.78763 0.0
C322 C 0.83887 0.91156 0.44888 0.0
C323 C 0.82872 0.89879 0.48685 0.0
C324 C 0.79321 0.88058 0.42478 0.0
C325 C 0.73643 0.83616 0.43826 0.0
C326 C 0.72688 0.82297 0.47611 0.0
C327 C 0.77224 0.85391 0.50009 0.0
C328 C 0.68566 0.80171 0.41444 0.0
C329 C 0.68345 0.81665 0.37964 0.0
C330 C 0.62861 0.78269 0.35924 0.0
C331 C 0.61724 0.8111 0.33353 0.0
C332 C 0.56234 0.78181 0.31838 0.0
C333 C 0.51825 0.72365 0.32868 0.0
H334 H 0.59378 0.69875 0.38486 0.0
C335 C 0.53115 0.69413 0.35197 0.0
C336 C 0.58588 0.72302 0.3667 0.0
H337 H 0.49802 0.649 0.35991 0.0
H338 H 0.88201 0.94574 0.43778 0.0
H339 H 0.80287 0.89137 0.39578 0.0
H340 H 0.68381 0.78881 0.48737 0.0
H341 H 0.76282 0.84266 0.52911 0.0
H342 H 0.64644 0.76365 0.42753 0.0
H343 H 0.72039 0.85712 0.36701 0.0
H344 H 0.64968 0.85679 0.32676 0.0
H345 H 0.55331 0.80554 0.30055 0.0
C346 C 0.8829 0.76926 0.95034 0.0
C347 C 0.93947 0.81983 0.95489 0.0
C348 C 0.87045 0.73484 0.92018 0.0
C349 C 0.9145 0.75009 0.89399 0.0
C350 C 0.97075 0.80112 0.89826 0.0
C351 C 0.98301 0.83597 0.92812 0.0
C352 C 0.90458 0.71033 0.86464 0.0
C353 C 0.85246 0.67255 0.84996 0.0
C354 C 0.83807 0.62317 0.8276 0.0
C355 C 0.78754 0.5939 0.80721 0.0
C356 C 0.76475 0.53953 0.79331 0.0
C357 C 0.79205 0.51348 0.7997 0.0
H358 H 0.90636 0.6192 0.8471 0.0
C359 C 0.84496 0.5446 0.81741 0.0
C360 C 0.86801 0.59901 0.83108 0.0
H361 H 0.86604 0.52471 0.82336 0.0
H362 H 0.84839 0.7556 0.97046 0.0
H363 H 0.82691 0.69503 0.91841 0.0
H364 H 0.00563 0.81355 0.87877 0.0
H365 H 0.02713 0.87458 0.93082 0.0
H366 H 0.94131 0.71135 0.85578 0.0
H367 H 0.8175 0.67562 0.85633 0.0
H368 H 0.76335 0.61119 0.80426 0.0
H369 H 0.72288 0.51555 0.78085 0.0
loop_
_geom_bond_atom_site_label_1
_geom_bond_atom_site_label_2
_geom_bond_distance
_geom_bond_site_symmetry_2
_ccdc_geom_bond_type
Zn0 O6 1.969 . S
Zn0 O7 1.965 1_565 S
Zn0 O11 2.024 1_554 S
Zn0 O16 1.969 1_455 S
Zn1 O8 1.969 . S
Zn1 O14 1.969 . S
Zn1 O15 1.965 1_446 S
Zn1 O17 2.024 1_556 S
C2 O3 1.229 . S
C2 O11 1.058 1_655 S
O3 C2 1.229 . S
C4 O5 1.229 . S
C4 O17 1.058 . S
O5 C4 1.229 . S
O6 Zn0 1.969 . S
O6 C9 1.267 . S
O7 Zn0 1.965 1_545 S
O7 C18 1.259 1_554 S
O8 Zn1 1.969 . S
O8 C18 1.258 . S
C9 O6 1.267 . S
C9 O10 1.228 . S
O10 C9 1.228 . S
O11 Zn0 2.024 1_556 S
O11 C2 1.058 1_455 S
C12 O13 1.228 . S
C12 O14 1.267 1_655 S
O13 C12 1.228 . S
O14 Zn1 1.969 . S
O14 C12 1.267 1_455 S
O15 Zn1 1.965 1_664 S
O15 C19 1.260 . S
O16 Zn0 1.969 1_655 S
O16 C19 1.258 . S
O17 Zn1 2.024 1_554 S
O17 C4 1.058 . S
C18 O7 1.259 1_556 S
C18 O8 1.258 . S
C19 O15 1.260 . S
C19 O16 1.258 . S
Zn20 O26 1.969 1_545 S
Zn20 O27 1.965 1_545 S
Zn20 O31 2.024 . S
Zn20 O36 1.969 . S
Zn21 O28 1.969 1_545 S
Zn21 O34 1.969 . S
Zn21 O35 1.965 1_655 S
Zn21 O37 2.024 1_545 S
C22 O23 1.229 . S
C22 O31 1.058 . S
O23 C22 1.229 . S
C24 O25 1.229 . S
C24 O37 1.058 . S
O25 C24 1.229 . S
O26 Zn20 1.969 1_565 S
O26 C29 1.267 . S
O27 Zn20 1.965 1_565 S
O27 C38 1.260 1_455 S
O28 Zn21 1.969 1_565 S
O28 C38 1.258 . S
C29 O26 1.267 . S
C29 O30 1.228 . S
O30 C29 1.228 . S
O31 Zn20 2.024 . S
O31 C22 1.058 . S
C32 O33 1.228 . S
C32 O34 1.267 . S
O33 C32 1.228 . S
O34 Zn21 1.969 . S
O34 C32 1.267 . S
O35 Zn21 1.965 1_455 S
O35 C39 1.260 . S
O36 Zn20 1.969 . S
O36 C39 1.258 . S
O37 Zn21 2.024 1_565 S
O37 C24 1.058 . S
C38 O27 1.260 1_655 S
C38 O28 1.258 . S
C39 O35 1.260 . S
C39 O36 1.258 . S
Zn40 O46 1.920 . S
Zn40 O52 1.898 . S
Zn40 O55 1.905 . S
Zn41 O49 1.905 . S
Zn41 O50 1.898 . S
Zn41 O58 1.920 . S
Zn42 O45 2.080 . S
Zn42 O48 2.114 . S
Zn42 O51 2.120 . S
Zn42 O53 2.120 . S
Zn42 O54 2.114 . S
Zn42 O57 2.080 . S
C43 O48 1.166 . S
C43 O49 1.182 . S
C44 O50 1.167 . S
C44 O51 1.299 . S
O45 Zn42 2.080 . S
O45 C59 1.305 . S
O46 Zn40 1.920 . S
O46 C59 1.234 . S
C47 O52 1.167 . S
C47 O53 1.299 . S
O48 Zn42 2.114 . S
O48 C43 1.166 . S
O49 Zn41 1.905 . S
O49 C43 1.182 . S
O50 Zn41 1.898 . S
O50 C44 1.167 . S
O51 Zn42 2.120 . S
O51 C44 1.299 . S
O52 Zn40 1.898 . S
O52 C47 1.167 . S
O53 Zn42 2.120 . S
O53 C47 1.299 . S
O54 Zn42 2.114 . S
O54 C56 1.166 . S
O55 Zn40 1.905 . S
O55 C56 1.182 . S
C56 O54 1.166 . S
C56 O55 1.182 . S
O57 Zn42 2.080 . S
O57 C60 1.305 . S
O58 Zn41 1.920 . S
O58 C60 1.234 . S
C59 O45 1.305 . S
C59 O46 1.234 . S
C60 O57 1.305 . S
C60 O58 1.234 . S
Zn61 O67 1.920 . S
Zn61 O73 1.898 . S
Zn61 O76 1.905 . S
Zn62 O70 1.905 . S
Zn62 O71 1.898 . S
Zn62 O79 1.920 . S
Zn63 O66 2.080 . S
Zn63 O69 2.114 . S
Zn63 O72 2.120 . S
Zn63 O74 2.120 . S
Zn63 O75 2.114 . S
Zn63 O78 2.080 . S
C64 O69 1.166 . S
C64 O70 1.182 . S
C65 O71 1.167 . S
C65 O72 1.299 . S
O66 Zn63 2.080 . S
O66 C80 1.305 . S
O67 Zn61 1.920 . S
O67 C80 1.234 . S
C68 O73 1.167 . S
C68 O74 1.299 . S
O69 Zn63 2.114 . S
O69 C64 1.166 . S
O70 Zn62 1.905 . S
O70 C64 1.182 . S
O71 Zn62 1.898 . S
O71 C65 1.167 . S
O72 Zn63 2.120 . S
O72 C65 1.299 . S
O73 Zn61 1.898 . S
O73 C68 1.167 . S
O74 Zn63 2.120 . S
O74 C68 1.299 . S
O75 Zn63 2.114 . S
O75 C77 1.166 . S
O76 Zn61 1.905 . S
O76 C77 1.182 . S
C77 O75 1.166 . S
C77 O76 1.182 . S
O78 Zn63 2.080 . S
O78 C81 1.305 . S
O79 Zn62 1.920 . S
O79 C81 1.234 . S
C80 O66 1.305 . S
C80 O67 1.234 . S
C81 O78 1.305 . S
C81 O79 1.234 . S
C82 C83 1.386 . S
C82 C84 1.383 . S
C82 H98 0.951 . S
C83 C82 1.386 . S
C83 C87 1.383 . S
C84 C82 1.383 . S
C84 C85 1.402 . S
C84 H99 0.951 . S
C85 C84 1.402 . S
C85 C86 1.375 . S
C85 C88 1.481 . S
C86 C85 1.375 . S
C86 C87 1.367 . S
C86 H100 0.951 . S
C87 C83 1.383 . S
C87 C86 1.367 . S
C87 H101 0.950 . S
C88 C85 1.481 . S
C88 C89 1.297 . S
C88 H102 0.950 . S
C89 C88 1.297 . S
C89 C90 1.479 . S
C89 H103 0.950 . S
C90 C89 1.479 . S
C90 C91 1.375 . S
C90 C96 1.404 . S
C91 C90 1.375 . S
C91 C92 1.369 . S
C91 H104 0.950 . S
C92 C91 1.369 . S
C92 C93 1.392 . S
C92 H105 0.951 . S
C93 C92 1.392 . S
C93 C95 1.384 . S
H94 C96 0.949 . S
C95 C93 1.384 . S
C95 C96 1.385 . S
C95 H97 0.950 . S
C96 C90 1.404 . S
C96 H94 0.949 . S
C96 C95 1.385 . S
H97 C95 0.950 . S
H98 C82 0.951 . S
H99 C84 0.951 . S
H100 C86 0.951 . S
H101 C87 0.950 . S
H102 C88 0.950 . S
H103 C89 0.950 . S
H104 C91 0.950 . S
H105 C92 0.951 . S
C106 C107 1.386 . S
C106 C108 1.383 . S
C106 H122 0.951 . S
C107 C106 1.386 . S
C107 C111 1.383 . S
C108 C106 1.383 . S
C108 C109 1.402 . S
C108 H123 0.951 . S
C109 C108 1.402 . S
C109 C110 1.375 . S
C109 C112 1.481 . S
C110 C109 1.375 . S
C110 C111 1.367 . S
C110 H124 0.951 . S
C111 C107 1.383 . S
C111 C110 1.367 . S
C111 H125 0.950 . S
C112 C109 1.481 . S
C112 C113 1.297 . S
C112 H126 0.950 . S
C113 C112 1.297 . S
C113 C114 1.479 . S
C113 H127 0.950 . S
C114 C113 1.479 . S
C114 C115 1.375 . S
C114 C120 1.404 . S
C115 C114 1.375 . S
C115 C116 1.369 . S
C115 H128 0.950 . S
C116 C115 1.369 . S
C116 C117 1.392 . S
C116 H129 0.951 . S
C117 C116 1.392 . S
C117 C119 1.384 . S
H118 C120 0.949 . S
C119 C117 1.384 . S
C119 C120 1.385 . S
C119 H121 0.950 . S
C120 C114 1.404 . S
C120 H118 0.949 . S
C120 C119 1.385 . S
H121 C119 0.950 . S
H122 C106 0.951 . S
H123 C108 0.951 . S
H124 C110 0.951 . S
H125 C111 0.950 . S
H126 C112 0.950 . S
H127 C113 0.950 . S
H128 C115 0.950 . S
H129 C116 0.951 . S
C130 C131 1.386 . S
C130 C132 1.383 . S
C130 H146 0.951 . S
C131 C130 1.386 . S
C131 C135 1.383 . S
C132 C130 1.383 . S
C132 C133 1.402 . S
C132 H147 0.951 . S
C133 C132 1.402 . S
C133 C134 1.375 . S
C133 C136 1.481 . S
C134 C133 1.375 . S
C134 C135 1.367 . S
C134 H148 0.951 . S
C135 C131 1.383 . S
C135 C134 1.367 . S
C135 H149 0.950 . S
C136 C133 1.481 . S
C136 C137 1.297 . S
C136 H150 0.950 . S
C137 C136 1.297 . S
C137 C138 1.479 . S
C137 H151 0.950 . S
C138 C137 1.479 . S
C138 C139 1.375 . S
C138 C144 1.404 . S
C139 C138 1.375 . S
C139 C140 1.369 . S
C139 H152 0.950 . S
C140 C139 1.369 . S
C140 C141 1.392 . S
C140 H153 0.951 . S
C141 C140 1.392 . S
C141 C143 1.384 . S
H142 C144 0.949 . S
C143 C141 1.384 . S
C143 C144 1.385 . S
C143 H145 0.950 . S
C144 C138 1.404 . S
C144 H142 0.949 . S
C144 C143 1.385 . S
H145 C143 0.950 . S
H146 C130 0.951 . S
H147 C132 0.951 . S
H148 C134 0.951 . S
H149 C135 0.950 . S
H150 C136 0.950 . S
H151 C137 0.950 . S
H152 C139 0.950 . S
H153 C140 0.951 . S
C154 C155 1.386 . S
C154 C156 1.383 . S
C154 H170 0.951 . S
C155 C154 1.386 . S
C155 C159 1.383 . S
C156 C154 1.383 . S
C156 C157 1.402 . S
C156 H171 0.951 . S
C157 C156 1.402 . S
C157 C158 1.375 . S
C157 C160 1.481 . S
C158 C157 1.375 . S
C158 C159 1.367 . S
C158 H172 0.951 . S
C159 C155 1.383 . S
C159 C158 1.367 . S
C159 H173 0.950 . S
C160 C157 1.481 . S
C160 C161 1.297 . S
C160 H174 0.950 . S
C161 C160 1.297 . S
C161 C162 1.479 . S
C161 H175 0.950 . S
C162 C161 1.479 . S
C162 C163 1.375 . S
C162 C168 1.404 . S
C163 C162 1.375 . S
C163 C164 1.369 . S
C163 H176 0.950 . S
C164 C163 1.369 . S
C164 C165 1.392 . S
C164 H177 0.951 . S
C165 C164 1.392 . S
C165 C167 1.384 . S
H166 C168 0.949 . S
C167 C165 1.384 . S
C167 C168 1.385 . S
C167 H169 0.950 . S
C168 C162 1.404 . S
C168 H166 0.949 . S
C168 C167 1.385 . S
H169 C167 0.950 . S
H170 C154 0.951 . S
H171 C156 0.951 . S
H172 C158 0.951 . S
H173 C159 0.950 . S
H174 C160 0.950 . S
H175 C161 0.950 . S
H176 C163 0.950 . S
H177 C164 0.951 . S
C178 C179 1.386 . S
C178 C180 1.383 . S
C178 H194 0.951 . S
C179 C178 1.386 . S
C179 C183 1.383 . S
C180 C178 1.383 . S
C180 C181 1.402 . S
C180 H195 0.951 . S
C181 C180 1.402 . S
C181 C182 1.375 . S
C181 C184 1.481 . S
C182 C181 1.375 . S
C182 C183 1.367 . S
C182 H196 0.951 1_565 S
C183 C179 1.383 . S
C183 C182 1.367 . S
C183 H197 0.950 1_565 S
C184 C181 1.481 . S
C184 C185 1.297 . S
C184 H198 0.950 . S
C185 C184 1.297 . S
C185 C186 1.479 . S
C185 H199 0.950 . S
C186 C185 1.479 . S
C186 C187 1.375 . S
C186 C192 1.404 . S
C187 C186 1.375 . S
C187 C188 1.369 . S
C187 H200 0.950 . S
C188 C187 1.369 . S
C188 C189 1.392 . S
C188 H201 0.951 . S
C189 C188 1.392 . S
C189 C191 1.384 . S
H190 C192 0.949 . S
C191 C189 1.384 . S
C191 C192 1.385 . S
C191 H193 0.950 . S
C192 C186 1.404 . S
C192 H190 0.949 . S
C192 C191 1.385 . S
H193 C191 0.950 . S
H194 C178 0.951 . S
H195 C180 0.951 . S
H196 C182 0.951 1_545 S
H197 C183 0.950 1_545 S
H198 C184 0.950 . S
H199 C185 0.950 . S
H200 C187 0.950 . S
H201 C188 0.951 . S
C202 C203 1.386 . S
C202 C204 1.383 . S
C202 H218 0.951 . S
C203 C202 1.386 . S
C203 C207 1.383 . S
C204 C202 1.383 . S
C204 C205 1.402 . S
C204 H219 0.951 . S
C205 C204 1.402 . S
C205 C206 1.375 . S
C205 C208 1.481 . S
C206 C205 1.375 . S
C206 C207 1.367 . S
C206 H220 0.951 . S
C207 C203 1.383 . S
C207 C206 1.367 . S
C207 H221 0.950 1_655 S
C208 C205 1.481 . S
C208 C209 1.297 . S
C208 H222 0.950 . S
C209 C208 1.297 . S
C209 C210 1.479 . S
C209 H223 0.950 . S
C210 C209 1.479 . S
C210 C211 1.375 . S
C210 C216 1.404 . S
C211 C210 1.375 . S
C211 C212 1.369 . S
C211 H224 0.950 . S
C212 C211 1.369 . S
C212 C213 1.392 . S
C212 H225 0.951 . S
C213 C212 1.392 . S
C213 C215 1.384 . S
H214 C216 0.949 . S
C215 C213 1.384 . S
C215 C216 1.385 . S
C215 H217 0.950 . S
C216 C210 1.404 . S
C216 H214 0.949 . S
C216 C215 1.385 . S
H217 C215 0.950 . S
H218 C202 0.951 . S
H219 C204 0.951 . S
H220 C206 0.951 . S
H221 C207 0.950 1_455 S
H222 C208 0.950 . S
H223 C209 0.950 . S
H224 C211 0.950 . S
H225 C212 0.951 . S
C226 C227 1.386 . S
C226 C228 1.383 . S
C226 H242 0.951 . S
C227 C226 1.386 . S
C227 C231 1.383 . S
C228 C226 1.383 . S
C228 C229 1.402 . S
C228 H243 0.951 . S
C229 C228 1.402 . S
C229 C230 1.375 . S
C229 C232 1.481 . S
C230 C229 1.375 . S
C230 C231 1.367 . S
C230 H244 0.951 . S
C231 C227 1.383 . S
C231 C230 1.367 . S
C231 H245 0.950 . S
C232 C229 1.481 . S
C232 C233 1.297 . S
C232 H246 0.950 . S
C233 C232 1.297 . S
C233 C234 1.479 . S
C233 H247 0.950 . S
C234 C233 1.479 . S
C234 C235 1.375 . S
C234 C240 1.404 . S
C235 C234 1.375 . S
C235 C236 1.369 . S
C235 H248 0.950 . S
C236 C235 1.369 . S
C236 C237 1.392 . S
C236 H249 0.951 . S
C237 C236 1.392 . S
C237 C239 1.384 . S
H238 C240 0.949 . S
C239 C237 1.384 . S
C239 C240 1.385 . S
C239 H241 0.950 . S
C240 C234 1.404 . S
C240 H238 0.949 . S
C240 C239 1.385 . S
H241 C239 0.950 . S
H242 C226 0.951 . S
H243 C228 0.951 . S
H244 C230 0.951 . S
H245 C231 0.950 . S
H246 C232 0.950 . S
H247 C233 0.950 . S
H248 C235 0.950 . S
H249 C236 0.951 . S
C250 C251 1.386 . S
C250 C252 1.383 . S
C250 H266 0.951 . S
C251 C250 1.386 . S
C251 C255 1.383 . S
C252 C250 1.383 . S
C252 C253 1.402 . S
C252 H267 0.951 . S
C253 C252 1.402 . S
C253 C254 1.375 . S
C253 C256 1.481 . S
C254 C253 1.375 . S
C254 C255 1.367 . S
C254 H268 0.951 . S
C255 C251 1.383 . S
C255 C254 1.367 . S
C255 H269 0.950 . S
C256 C253 1.481 . S
C256 C257 1.297 . S
C256 H270 0.950 . S
C257 C256 1.297 . S
C257 C258 1.479 . S
C257 H271 0.950 . S
C258 C257 1.479 . S
C258 C259 1.375 . S
C258 C264 1.404 . S
C259 C258 1.375 . S
C259 C260 1.369 . S
C259 H272 0.950 . S
C260 C259 1.369 . S
C260 C261 1.392 . S
C260 H273 0.951 . S
C261 C260 1.392 . S
C261 C263 1.384 . S
H262 C264 0.949 . S
C263 C261 1.384 . S
C263 C264 1.385 . S
C263 H265 0.950 . S
C264 C258 1.404 . S
C264 H262 0.949 . S
C264 C263 1.385 . S
H265 C263 0.950 . S
H266 C250 0.951 . S
H267 C252 0.951 . S
H268 C254 0.951 . S
H269 C255 0.950 . S
H270 C256 0.950 . S
H271 C257 0.950 . S
H272 C259 0.950 . S
H273 C260 0.951 . S
C274 C275 1.386 . S
C274 C276 1.383 . S
C274 H290 0.951 . S
C275 C274 1.386 . S
C275 C279 1.383 . S
C276 C274 1.383 . S
C276 C277 1.402 . S
C276 H291 0.951 . S
C277 C276 1.402 . S
C277 C278 1.375 . S
C277 C280 1.481 . S
C278 C277 1.375 . S
C278 C279 1.367 . S
C278 H292 0.951 . S
C279 C275 1.383 . S
C279 C278 1.367 . S
C279 H293 0.950 . S
C280 C277 1.481 . S
C280 C281 1.297 . S
C280 H294 0.950 . S
C281 C280 1.297 . S
C281 C282 1.479 . S
C281 H295 0.950 . S
C282 C281 1.479 . S
C282 C283 1.375 . S
C282 C288 1.404 . S
C283 C282 1.375 . S
C283 C284 1.369 . S
C283 H296 0.950 . S
C284 C283 1.369 . S
C284 C285 1.392 . S
C284 H297 0.951 . S
C285 C284 1.392 . S
C285 C287 1.384 . S
H286 C288 0.949 . S
C287 C285 1.384 . S
C287 C288 1.385 . S
C287 H289 0.950 . S
C288 C282 1.404 . S
C288 H286 0.949 . S
C288 C287 1.385 . S
H289 C287 0.950 . S
H290 C274 0.951 . S
H291 C276 0.951 . S
H292 C278 0.951 . S
H293 C279 0.950 . S
H294 C280 0.950 . S
H295 C281 0.950 . S
H296 C283 0.950 . S
H297 C284 0.951 . S
C298 C299 1.386 . S
C298 C300 1.383 . S
C298 H314 0.951 . S
C299 C298 1.386 . S
C299 C303 1.383 . S
C300 C298 1.383 . S
C300 C301 1.402 . S
C300 H315 0.951 . S
C301 C300 1.402 . S
C301 C302 1.375 . S
C301 C304 1.481 . S
C302 C301 1.375 . S
C302 C303 1.367 . S
C302 H316 0.951 . S
C303 C299 1.383 . S
C303 C302 1.367 . S
C303 H317 0.950 . S
C304 C301 1.481 . S
C304 C305 1.297 . S
C304 H318 0.950 . S
C305 C304 1.297 . S
C305 C306 1.479 . S
C305 H319 0.950 . S
C306 C305 1.479 . S
C306 C307 1.375 . S
C306 C312 1.404 . S
C307 C306 1.375 . S
C307 C308 1.369 . S
C307 H320 0.950 . S
C308 C307 1.369 . S
C308 C309 1.392 . S
C308 H321 0.951 . S
C309 C308 1.392 . S
C309 C311 1.384 . S
H310 C312 0.949 . S
C311 C309 1.384 . S
C311 C312 1.385 . S
C311 H313 0.950 . S
C312 C306 1.404 . S
C312 H310 0.949 . S
C312 C311 1.385 . S
H313 C311 0.950 . S
H314 C298 0.951 . S
H315 C300 0.951 . S
H316 C302 0.951 . S
H317 C303 0.950 . S
H318 C304 0.950 . S
H319 C305 0.950 . S
H320 C307 0.950 . S
H321 C308 0.951 . S
C322 C323 1.386 . S
C322 C324 1.383 . S
C322 H338 0.951 . S
C323 C322 1.386 . S
C323 C327 1.383 . S
C324 C322 1.383 . S
C324 C325 1.402 . S
C324 H339 0.951 . S
C325 C324 1.402 . S
C325 C326 1.375 . S
C325 C328 1.481 . S
C326 C325 1.375 . S
C326 C327 1.367 . S
C326 H340 0.951 . S
C327 C323 1.383 . S
C327 C326 1.367 . S
C327 H341 0.950 . S
C328 C325 1.481 . S
C328 C329 1.297 . S
C328 H342 0.950 . S
C329 C328 1.297 . S
C329 C330 1.479 . S
C329 H343 0.950 . S
C330 C329 1.479 . S
C330 C331 1.375 . S
C330 C336 1.404 . S
C331 C330 1.375 . S
C331 C332 1.369 . S
C331 H344 0.950 . S
C332 C331 1.369 . S
C332 C333 1.392 . S
C332 H345 0.951 . S
C333 C332 1.392 . S
C333 C335 1.384 . S
H334 C336 0.949 . S
C335 C333 1.384 . S
C335 C336 1.385 . S
C335 H337 0.950 . S
C336 C330 1.404 . S
C336 H334 0.949 . S
C336 C335 1.385 . S
H337 C335 0.950 . S
H338 C322 0.951 . S
H339 C324 0.951 . S
H340 C326 0.951 . S
H341 C327 0.950 . S
H342 C328 0.950 . S
H343 C329 0.950 . S
H344 C331 0.950 . S
H345 C332 0.951 . S
C346 C347 1.386 . S
C346 C348 1.383 . S
C346 H362 0.951 . S
C347 C346 1.386 . S
C347 C351 1.383 . S
C348 C346 1.383 . S
C348 C349 1.402 . S
C348 H363 0.951 . S
C349 C348 1.402 . S
C349 C350 1.375 . S
C349 C352 1.481 . S
C350 C349 1.375 . S
C350 C351 1.367 . S
C350 H364 0.951 1_655 S
C351 C347 1.383 . S
C351 C350 1.367 . S
C351 H365 0.950 1_655 S
C352 C349 1.481 . S
C352 C353 1.297 . S
C352 H366 0.950 . S
C353 C352 1.297 . S
C353 C354 1.479 . S
C353 H367 0.950 . S
C354 C353 1.479 . S
C354 C355 1.375 . S
C354 C360 1.404 . S
C355 C354 1.375 . S
C355 C356 1.369 . S
C355 H368 0.950 . S
C356 C355 1.369 . S
C356 C357 1.392 . S
C356 H369 0.951 . S
C357 C356 1.392 . S
C357 C359 1.384 . S
H358 C360 0.949 . S
C359 C357 1.384 . S
C359 C360 1.385 . S
C359 H361 0.950 . S
C360 C354 1.404 . S
C360 H358 0.949 . S
C360 C359 1.385 . S
H361 C359 0.950 . S
H362 C346 0.951 . S
H363 C348 0.951 . S
H364 C350 0.951 1_455 S
H365 C351 0.950 1_455 S
H366 C352 0.950 . S
H367 C353 0.950 . S
H368 C355 0.950 . S
H369 C356 0.951 . S
C83 C9 1.411 . S
C93 C59 1.386 . S
C107 C22 1.187 . S
C117 C65 1.008 . S
C131 C4 1.270 . S
C141 C56 1.183 . S
C155 C32 1.516 . S
C165 C81 1.328 . S
C179 C19 1.827 . S
C189 C47 1.709 . S
C213 C64 1.587 . S
C203 C38 1.771 . S
C227 C29 1.424 . S
C237 C60 1.248 . S
C261 C77 1.649 . S
C251 C18 1.743 . S
C285 C44 1.713 . S
C275 C39 1.827 . S
C309 C80 1.449 . S
C299 C12 1.496 . S
C333 C43 1.232 . S
C323 C24 1.243 . S
C357 C68 1.181 . S
C347 C2 1.192 . S
