# Generated by pormake.
# Topology hwx, (6,3)-cn, num edge types: 1
# Building blocks:
#     Node 0, Type 0, BuildingBlock: IZENUY_clean_sbu_0, # of connection points: 6
#     Node 1, Type 0, BuildingBlock: IZENUY_clean_sbu_0, # of connection points: 6
#     Node 2, Type 0, BuildingBlock: IZENUY_clean_sbu_0, # of connection points: 6
#     Node 3, Type 0, BuildingBlock: IZENUY_clean_sbu_0, # of connection points: 6
#     Node 4, Type 1, BuildingBlock: OLANEW_clean_sbu_2, # of connection points: 3
#     Node 5, Type 1, BuildingBlock: OLANEW_clean_sbu_2, # of connection points: 3
#     Node 6, Type 1, BuildingBlock: OLANEW_clean_sbu_2, # of connection points: 3
#     Node 7, Type 1, BuildingBlock: OLANEW_clean_sbu_2, # of connection points: 3
#     Node 8, Type 1, BuildingBlock: OLANEW_clean_sbu_2, # of connection points: 3
#     Node 9, Type 1, BuildingBlock: OLANEW_clean_sbu_2, # of connection points: 3
#     Node 10, Type 1, BuildingBlock: OLANEW_clean_sbu_2, # of connection points: 3
#     Node 11, Type 1, BuildingBlock: OLANEW_clean_sbu_2, # of connection points: 3
#     Edge 12, Type (0, 1), BuildingBlock: OJICUG_clean_linker_0, # of connection points: 2
#     Edge 13, Type (0, 1), BuildingBlock: OJICUG_clean_linker_0, # of connection points: 2
#     Edge 14, Type (0, 1), BuildingBlock: OJICUG_clean_linker_0, # of connection points: 2
#     Edge 15, Type (0, 1), BuildingBlock: OJICUG_clean_linker_0, # of connection points: 2
#     Edge 16, Type (0, 1), BuildingBlock: OJICUG_clean_linker_0, # of connection points: 2
#     Edge 17, Type (0, 1), BuildingBlock: OJICUG_clean_linker_0, # of connection points: 2
#     Edge 18, Type (0, 1), BuildingBlock: OJICUG_clean_linker_0, # of connection points: 2
#     Edge 19, Type (0, 1), BuildingBlock: OJICUG_clean_linker_0, # of connection points: 2
#     Edge 20, Type (0, 1), BuildingBlock: OJICUG_clean_linker_0, # of connection points: 2
#     Edge 21, Type (0, 1), BuildingBlock: OJICUG_clean_linker_0, # of connection points: 2
#     Edge 22, Type (0, 1), BuildingBlock: OJICUG_clean_linker_0, # of connection points: 2
#     Edge 23, Type (0, 1), BuildingBlock: OJICUG_clean_linker_0, # of connection points: 2
#     Edge 24, Type (0, 1), BuildingBlock: OJICUG_clean_linker_0, # of connection points: 2
#     Edge 25, Type (0, 1), BuildingBlock: OJICUG_clean_linker_0, # of connection points: 2
#     Edge 26, Type (0, 1), BuildingBlock: OJICUG_clean_linker_0, # of connection points: 2
#     Edge 27, Type (0, 1), BuildingBlock: OJICUG_clean_linker_0, # of connection points: 2
#     Edge 28, Type (0, 1), BuildingBlock: OJICUG_clean_linker_0, # of connection points: 2
#     Edge 29, Type (0, 1), BuildingBlock: OJICUG_clean_linker_0, # of connection points: 2
#     Edge 30, Type (0, 1), BuildingBlock: OJICUG_clean_linker_0, # of connection points: 2
#     Edge 31, Type (0, 1), BuildingBlock: OJICUG_clean_linker_0, # of connection points: 2
#     Edge 32, Type (0, 1), BuildingBlock: OJICUG_clean_linker_0, # of connection points: 2
#     Edge 33, Type (0, 1), BuildingBlock: OJICUG_clean_linker_0, # of connection points: 2
#     Edge 34, Type (0, 1), BuildingBlock: OJICUG_clean_linker_0, # of connection points: 2
#     Edge 35, Type (0, 1), BuildingBlock: OJICUG_clean_linker_0, # of connection points: 2
# Relax obj value: 0.015
# Max RMSD: 0.063
# Mean RMSD: 0.058
data_MOF--net-hwx--node1-IZENUY_clean_sbu_0--node2-OLANEW_clean_sbu_2--edge1-OJICUG_clean_linker_0
_symmetry_space_group_name_H-M    P1
_symmetry_Int_Tables_number       1
_symmetry_cell_setting            triclinic
loop_
_symmetry_equiv_pos_as_xyz
'x, y, z'
_cell_length_a     40.125972
_cell_length_b     40.555187
_cell_length_c     16.924736
_cell_angle_alpha  83.830231
_cell_angle_beta   96.173586
_cell_angle_gamma 90.613409
loop_
_atom_site_label
_atom_site_type_symbol
_atom_site_fract_x
_atom_site_fract_y
_atom_site_fract_z
_atom_type_partial_charge
Fe0 Fe 0.24564 0.25082 0.12086 0.0
Fe1 Fe 0.23795 0.26978 0.93872 0.0
O2 O 0.22389 0.24749 0.02506 0.0
Fe3 Fe 0.18773 0.22206 0.01569 0.0
O4 O 0.16607 0.24642 0.07882 0.0
O5 O 0.20803 0.2467 0.17368 0.0
O6 O 0.23888 0.29543 0.1108 0.0
C7 C 0.24717 0.31544 0.05394 0.0
C8 C 0.23105 0.18458 0.1352 0.0
O9 O 0.25379 0.30539 0.98926 0.0
C10 C 0.21895 0.20744 0.8878 0.0
O11 O 0.28734 0.25532 0.08531 0.0
O12 O 0.27861 0.2496 0.95684 0.0
O13 O 0.20213 0.19153 0.10005 0.0
O14 O 0.25365 0.20643 0.13836 0.0
C15 C 0.17016 0.27745 0.90199 0.0
O16 O 0.22493 0.23804 0.8729 0.0
O17 O 0.20714 0.19636 0.95169 0.0
C18 C 0.29797 0.24874 0.02091 0.0
O19 O 0.19816 0.2917 0.91332 0.0
O20 O 0.16652 0.24753 0.92943 0.0
C21 C 0.1774 0.25158 0.14893 0.0
Fe22 Fe 0.28284 0.73559 0.61786 0.0
Fe23 Fe 0.33776 0.69813 0.55001 0.0
O24 O 0.3003 0.72203 0.53519 0.0
Fe25 Fe 0.28031 0.73262 0.43751 0.0
O26 O 0.26415 0.77243 0.45798 0.0
O27 O 0.28669 0.77905 0.57916 0.0
O28 O 0.32325 0.73997 0.67753 0.0
C29 C 0.35276 0.74327 0.65779 0.0
C30 C 0.22541 0.71819 0.51726 0.0
O31 O 0.36113 0.73047 0.59818 0.0
C32 C 0.30198 0.66676 0.43342 0.0
O33 O 0.27791 0.69307 0.66178 0.0
O34 O 0.3286 0.67651 0.64614 0.0
O35 O 0.24197 0.71124 0.46183 0.0
O36 O 0.23906 0.73374 0.57331 0.0
C37 C 0.34623 0.7423 0.41219 0.0
O38 O 0.31747 0.66389 0.5027 0.0
O39 O 0.29274 0.69486 0.39891 0.0
C40 C 0.3013 0.67196 0.67703 0.0
O41 O 0.35345 0.71558 0.45646 0.0
O42 O 0.31725 0.75476 0.40699 0.0
C43 C 0.2738 0.79115 0.51098 0.0
Fe44 Fe 0.78361 0.78204 0.91584 0.0
Fe45 Fe 0.79039 0.77519 0.09974 0.0
O46 O 0.80451 0.79194 0.00796 0.0
Fe47 Fe 0.83995 0.81868 0.00852 0.0
O48 O 0.82605 0.84306 0.91348 0.0
O49 O 0.77506 0.82558 0.88125 0.0
O50 O 0.74166 0.78017 0.94976 0.0
C51 C 0.73023 0.7903 0.00973 0.0
C52 C 0.85254 0.77929 0.89332 0.0
O53 O 0.74902 0.79351 0.07325 0.0
C54 C 0.85821 0.77101 0.1404 0.0
O55 O 0.7904 0.73772 0.94282 0.0
O56 O 0.77591 0.73577 0.06479 0.0
O57 O 0.86317 0.79019 0.95863 0.0
O58 O 0.82192 0.78212 0.86586 0.0
C59 C 0.80652 0.84182 0.12388 0.0
O60 O 0.83085 0.75535 0.13344 0.0
O61 O 0.86082 0.79959 0.10372 0.0
C62 C 0.78178 0.72139 0.00511 0.0
O63 O 0.8018 0.81194 0.15088 0.0
O64 O 0.8189 0.84875 0.05851 0.0
C65 C 0.79727 0.84772 0.87572 0.0
Fe66 Fe 0.68779 0.31929 0.48174 0.0
Fe67 Fe 0.73604 0.26933 0.5833 0.0
O68 O 0.71898 0.28803 0.4882 0.0
Fe69 Fe 0.73342 0.27565 0.40054 0.0
O70 O 0.74628 0.31763 0.36806 0.0
O71 O 0.70077 0.34286 0.39152 0.0
O72 O 0.7157 0.34557 0.53939 0.0
C73 C 0.73012 0.3365 0.60806 0.0
C74 C 0.66302 0.28323 0.36053 0.0
O75 O 0.73141 0.30616 0.6348 0.0
C76 C 0.73205 0.21531 0.48956 0.0
O77 O 0.66894 0.30115 0.57076 0.0
O78 O 0.69521 0.25364 0.60643 0.0
O79 O 0.6924 0.28061 0.3407 0.0
O80 O 0.65779 0.29549 0.42345 0.0
C81 C 0.79276 0.27902 0.50728 0.0
O82 O 0.74443 0.2288 0.55003 0.0
O83 O 0.72154 0.23277 0.42586 0.0
C84 C 0.66992 0.27197 0.60651 0.0
O85 O 0.77756 0.28433 0.56611 0.0
O86 O 0.77713 0.26846 0.44566 0.0
C87 C 0.72792 0.3431 0.35974 0.0
O88 O 0.26861 0.55978 0.96627 0.0
Cd89 Cd 0.26719 0.52351 0.09224 0.0
O90 O 0.32353 0.55614 0.97107 0.0
Cd91 Cd 0.32853 0.53234 0.09366 0.0
O92 O 0.32407 0.54937 0.21009 0.0
C93 C 0.30333 0.57318 0.20435 0.0
O94 O 0.2875 0.58297 0.13381 0.0
C95 C 0.29564 0.56694 0.93508 0.0
C96 C 0.26033 0.45583 0.079 0.0
O97 O 0.28864 0.47038 0.07395 0.0
O98 O 0.23499 0.47335 0.08879 0.0
O99 O 0.97406 0.69737 0.40344 0.0
Cd100 Cd 0.01456 0.67646 0.51722 0.0
O101 O 0.96842 0.74655 0.44494 0.0
Cd102 Cd 0.99195 0.73524 0.56742 0.0
O103 O 0.97084 0.74236 0.67868 0.0
C104 C 0.93999 0.7346 0.67614 0.0
O105 O 0.92602 0.72152 0.61288 0.0
C106 C 0.96189 0.72655 0.39238 0.0
C107 C 0.08247 0.69225 0.50665 0.0
O108 O 0.0692 0.66719 0.47523 0.0
O109 O 0.06351 0.71029 0.54077 0.0
O110 O 0.73135 0.47697 0.1097 0.0
Cd111 Cd 0.72766 0.51678 0.98811 0.0
O112 O 0.77095 0.4473 0.07118 0.0
Cd113 Cd 0.76974 0.47479 0.95277 0.0
O114 O 0.76017 0.45547 0.83709 0.0
C115 C 0.77341 0.42705 0.83887 0.0
O116 O 0.79215 0.41526 0.90408 0.0
C117 C 0.75124 0.45227 0.1227 0.0
C118 C 0.749 0.58207 0.00294 0.0
O119 O 0.72032 0.57195 0.02235 0.0
O120 O 0.76822 0.56111 0.97864 0.0
O121 O 0.04232 0.30808 0.63379 0.0
Cd122 Cd 1.00334 0.32028 0.51134 0.0
O123 O 0.08106 0.34009 0.58307 0.0
Cd124 Cd 0.05793 0.34143 0.45977 0.0
O125 O 0.07414 0.32094 0.35567 0.0
C126 C 0.09729 0.29961 0.37645 0.0
O127 O 0.10658 0.29223 0.45315 0.0
C128 C 0.07086 0.32216 0.64203 0.0
C129 C 0.93568 0.30342 0.51944 0.0
O130 O 0.94784 0.33009 0.54526 0.0
O131 O 0.95564 0.28415 0.49179 0.0
O132 O 0.75312 0.96643 0.58806 0.0
Cd133 Cd 0.75007 0.0059 0.46602 0.0
O134 O 0.80771 0.96211 0.58686 0.0
Cd135 Cd 0.80808 0.98425 0.46336 0.0
O136 O 0.80865 0.96295 0.35009 0.0
C137 C 0.79049 0.93715 0.34707 0.0
O138 O 0.77261 0.92848 0.40663 0.0
C139 C 0.78134 0.95511 0.62085 0.0
C140 C 0.74189 0.07325 0.48415 0.0
O141 O 0.77054 0.05904 0.50093 0.0
O142 O 0.71684 0.05553 0.4608 0.0
O143 O 0.54747 0.22176 0.11585 0.0
Cd144 Cd 0.50638 0.2048 0.0088 0.0
O145 O 0.54789 0.27462 0.07029 0.0
Cd146 Cd 0.52808 0.26372 0.95072 0.0
O147 O 0.55033 0.26277 0.83845 0.0
C148 C 0.57515 0.24354 0.83812 0.0
O149 O 0.58412 0.22308 0.90233 0.0
C150 C 0.55678 0.25134 0.12457 0.0
C151 C 0.43918 0.22156 0.01716 0.0
O152 O 0.45307 0.19685 0.06169 0.0
O153 O 0.45711 0.23886 0.96988 0.0
O154 O 0.22821 0.03332 0.31329 0.0
Cd155 Cd 0.21282 0.99417 0.42451 0.0
O156 O 0.24071 0.06204 0.41361 0.0
Cd157 Cd 0.24858 0.10534 0.47828 0.0
O158 O 0.24578 0.13654 0.57378 0.0
C159 C 0.2341 0.12422 0.63741 0.0
O160 O 0.22443 0.09307 0.64349 0.0
C161 C 0.23732 0.06073 0.33852 0.0
C162 C 0.23839 0.92996 0.44509 0.0
O163 O 0.21282 0.93815 0.39488 0.0
O164 O 0.25288 0.95257 0.4838 0.0
O165 O 0.48001 0.79646 0.88791 0.0
Cd166 Cd 0.51795 0.82268 0.98757 0.0
O167 O 0.43677 0.81902 0.93172 0.0
Cd168 Cd 0.45984 0.83361 0.0451 0.0
O169 O 0.43648 0.82356 0.15607 0.0
C170 C 0.43912 0.7943 0.19149 0.0
O171 O 0.45855 0.77304 0.16492 0.0
C172 C 0.4487 0.80259 0.88133 0.0
C173 C 0.58688 0.81034 -0.00743 0.0
O174 O 0.57189 0.8313 0.93867 0.0
O175 O 0.56925 0.79451 0.04299 0.0
C176 C 0.12488 0.27902 0.17912 0.0
C177 C 0.15479 0.26156 0.20567 0.0
H178 H 0.08315 0.30521 0.21242 0.0
C179 C 0.16428 0.25519 0.28817 0.0
H180 H 0.11703 0.28437 0.11581 0.0
C181 C 0.14492 0.26671 0.343 0.0
C182 C 0.11573 0.28532 0.31689 0.0
H183 H 0.18703 0.24156 0.31064 0.0
H184 H 0.15345 0.2617 0.40605 0.0
C185 C 0.10561 0.29104 0.23434 0.0
C186 C 0.32624 0.62229 0.76311 0.0
C187 C 0.29847 0.64319 0.73811 0.0
H188 H 0.347 0.58174 0.84394 0.0
C189 C 0.26862 0.63669 0.77359 0.0
H190 H 0.34957 0.62629 0.73676 0.0
C191 C 0.26706 0.61075 0.83487 0.0
C192 C 0.29539 0.59091 0.86231 0.0
H193 H 0.24666 0.65207 0.75527 0.0
H194 H 0.24406 0.6071 0.86279 0.0
C195 C 0.32476 0.5966 0.82457 0.0
C196 C 0.88961 0.72473 0.22839 0.0
C197 C 0.88604 0.75859 0.20082 0.0
H198 H 0.91725 0.68778 0.30935 0.0
C199 C 0.90919 0.78124 0.23286 0.0
H200 H 0.87229 0.70669 0.20452 0.0
C201 C 0.93442 0.77056 0.2932 0.0
C202 C 0.93771 0.73687 0.32187 0.0
H203 H 0.9072 0.80752 0.21314 0.0
H204 H 0.95111 0.78883 0.31836 0.0
C205 C 0.91549 0.7139 0.28778 0.0
C206 C 0.7319 0.39425 0.65037 0.0
C207 C 0.74311 0.36118 0.66181 0.0
H208 H 0.73262 0.44129 0.69784 0.0
C209 C 0.76634 0.35107 0.72784 0.0
H210 H 0.7141 0.40276 0.59976 0.0
C211 C 0.77713 0.37301 0.7831 0.0
C212 C 0.76476 0.40561 0.77421 0.0
H213 H 0.7759 0.3259 0.73763 0.0
H214 H 0.79448 0.364 0.83416 0.0
C215 C 0.74251 0.41627 0.70645 0.0
C216 C 0.63423 0.24366 0.27313 0.0
C217 C 0.63428 0.27409 0.3055 0.0
H218 H 0.60876 0.21212 0.19251 0.0
C219 C 0.60731 0.29607 0.28258 0.0
H220 H 0.65475 0.22631 0.29031 0.0
C221 C 0.58147 0.2884 0.225 0.0
C222 C 0.58162 0.25809 0.19184 0.0
H223 H 0.60693 0.31972 0.30675 0.0
H224 H 0.56162 0.30629 0.20562 0.0
C225 C 0.60783 0.23548 0.21781 0.0
C226 C 0.21376 0.1519 0.83401 0.0
C227 C 0.22331 0.18542 0.82543 0.0
H228 H 0.20964 0.10615 0.78106 0.0
C229 C 0.23702 0.19827 0.75542 0.0
H230 H 0.20322 0.14124 0.88727 0.0
C231 C 0.24071 0.17829 0.69496 0.0
C232 C 0.23081 0.14492 0.70286 0.0
H233 H 0.24485 0.22393 0.74684 0.0
H234 H 0.25117 0.18916 0.64175 0.0
C235 C 0.21745 0.13183 0.77316 0.0
C236 C 0.36595 0.78845 0.31681 0.0
C237 C 0.3711 0.75696 0.35986 0.0
H238 H 0.38375 0.8253 0.23086 0.0
C239 C 0.40014 0.73911 0.3513 0.0
H240 H 0.34401 0.80297 0.3226 0.0
C241 C 0.42277 0.7518 0.2986 0.0
C242 C 0.41715 0.78282 0.25385 0.0
H243 H 0.40504 0.71485 0.38378 0.0
H244 H 0.44437 0.73697 0.29184 0.0
C245 C 0.38885 0.80133 0.26466 0.0
C246 C 0.76003 0.88457 0.77362 0.0
C247 C 0.79163 0.87749 0.81643 0.0
H248 H 0.73173 0.91524 0.67895 0.0
C249 C 0.8187 0.89848 0.79959 0.0
H250 H 0.73858 0.86908 0.78549 0.0
C251 C 0.81482 0.92465 0.73864 0.0
C252 C 0.78366 0.93089 0.69345 0.0
H253 H 0.84337 0.89406 0.8316 0.0
H254 H 0.83656 0.93945 0.72541 0.0
C255 C 0.75604 0.91116 0.71299 0.0
C256 C 0.86335 0.7473 0.78093 0.0
C257 C 0.87609 0.76561 0.84339 0.0
H258 H 0.87343 0.72285 0.68066 0.0
C259 C 0.91081 0.7715 0.85465 0.0
H260 H 0.83682 0.74186 0.77121 0.0
C261 C 0.93203 0.76058 0.80196 0.0
C262 C 0.9189 0.74335 0.73766 0.0
H263 H 0.92141 0.78542 0.90244 0.0
H264 H 0.9585 0.76636 0.81038 0.0
C265 C 0.88444 0.73626 0.72901 0.0
C266 C 0.76368 0.37209 0.26025 0.0
C267 C 0.73634 0.37263 0.30555 0.0
H268 H 0.79013 0.39693 0.1679 0.0
C269 C 0.71621 0.40131 0.29615 0.0
H270 H 0.77991 0.35059 0.26636 0.0
C271 C 0.72222 0.42805 0.23999 0.0
C272 C 0.74845 0.42675 0.19163 0.0
H273 H 0.69516 0.40279 0.33065 0.0
H274 H 0.70542 0.44914 0.23229 0.0
C275 C 0.76961 0.39879 0.20389 0.0
C276 C 0.11082 0.27878 0.83821 0.0
C277 C 0.14298 0.29316 0.84412 0.0
H278 H 0.06268 0.2769 0.77071 0.0
C279 C 0.14957 0.32012 0.78865 0.0
H280 H 0.10476 0.25818 0.8805 0.0
C281 C 0.12539 0.33078 0.72532 0.0
C282 C 0.09401 0.31488 0.71642 0.0
H283 H 0.17399 0.33183 0.79151 0.0
H284 H 0.13187 0.35056 0.6814 0.0
C285 C 0.0866 0.28957 0.7753 0.0
C286 C 0.32258 0.61259 0.39731 0.0
C287 C 0.29888 0.6384 0.38544 0.0
H288 H 0.34271 0.57127 0.34853 0.0
C289 C 0.27408 0.63938 0.3201 0.0
H290 H 0.34196 0.61127 0.4473 0.0
C291 C 0.27447 0.61672 0.26412 0.0
C292 C 0.29975 0.59257 0.27199 0.0
H293 H 0.25517 0.6587 0.31021 0.0
H294 H 0.25579 0.61916 0.21264 0.0
C295 C 0.32305 0.58979 0.34072 0.0
C296 C 0.41272 0.75544 0.70834 0.0
C297 C 0.37808 0.76002 0.71009 0.0
H298 H 0.4625 0.76514 0.76145 0.0
C299 C 0.36735 0.7802 0.76481 0.0
H300 H 0.42178 0.74006 0.66665 0.0
C301 C 0.39046 0.79466 0.81811 0.0
C302 C 0.42507 0.7892 0.81887 0.0
H303 H 0.34091 0.78463 0.76716 0.0
H304 H 0.38094 0.80961 0.86007 0.0
C305 C 0.43603 0.76977 0.76261 0.0
C306 C 0.77887 0.86157 0.23486 0.0
C307 C 0.80036 0.86813 0.17478 0.0
H308 H 0.75854 0.87827 0.33485 0.0
C309 C 0.81667 0.899 0.16734 0.0
H310 H 0.76555 0.83822 0.24152 0.0
C311 C 0.81279 0.92213 0.22172 0.0
C312 C 0.79224 0.91487 0.28373 0.0
H313 H 0.83332 0.90478 0.12147 0.0
H314 H 0.82652 0.94526 0.21643 0.0
C315 C 0.77476 0.88465 0.28832 0.0
C316 C 0.61426 0.28088 0.65512 0.0
C317 C 0.64352 0.26169 0.65908 0.0
H318 H 0.56951 0.28995 0.70759 0.0
C319 C 0.64818 0.23424 0.71736 0.0
H320 H 0.60966 0.30198 0.61039 0.0
C321 C 0.62511 0.22739 0.77339 0.0
C322 C 0.59679 0.2477 0.77199 0.0
H323 H 0.67033 0.21883 0.72187 0.0
H324 H 0.63012 0.20685 0.81948 0.0
C325 C 0.59113 0.27392 0.71075 0.0
C326 C 0.21642 0.12467 0.16108 0.0
C327 C 0.23632 0.15174 0.18227 0.0
H328 H 0.20171 0.07454 0.19318 0.0
C329 C 0.25902 0.14764 0.25191 0.0
H330 H 0.19889 0.12699 0.10741 0.0
C331 C 0.26028 0.11763 0.30175 0.0
C332 C 0.23928 0.09108 0.28212 0.0
H333 H 0.27473 0.16803 0.2697 0.0
H334 H 0.27736 0.11538 0.35608 0.0
C335 C 0.21814 0.09457 0.21002 0.0
C336 C 0.22977 0.36703 0.10768 0.0
C337 C 0.25123 0.35101 0.06371 0.0
H338 H 0.2153 0.41319 0.14528 0.0
C339 C 0.27585 0.36959 0.0257 0.0
H340 H 0.21045 0.35325 0.13701 0.0
C341 C 0.27908 0.40356 0.03176 0.0
C342 C 0.25714 0.4198 0.07403 0.0
H343 H 0.29276 0.35779 -0.00847 0.0
H344 H 0.29836 0.41725 0.00204 0.0
C345 C 0.2324 0.40127 0.11186 0.0
C346 C 0.1734 0.68923 0.46219 0.0
C347 C 0.18878 0.7116 0.51279 0.0
H348 H 0.12779 0.66535 0.42082 0.0
C349 C 0.1687 0.72798 0.55962 0.0
H350 H 0.18813 0.67619 0.42539 0.0
C351 C 0.13421 0.72216 0.55617 0.0
C352 C 0.11886 0.69944 0.50664 0.0
H353 H 0.1796 0.74554 0.59893 0.0
H354 H 0.11965 0.73514 0.59343 0.0
C355 C 0.13884 0.68302 0.45961 0.0
C356 C 0.75185 0.67042 0.05624 0.0
C357 C 0.7747 0.6854 0.00596 0.0
H358 H 0.72561 0.62624 0.09397 0.0
C359 C 0.78999 0.6658 0.95641 0.0
H360 H 0.73951 0.68484 0.09492 0.0
C361 C 0.78249 0.63191 0.95719 0.0
C362 C 0.75896 0.61722 0.00607 0.0
H363 H 0.80778 0.67663 0.91729 0.0
H364 H 0.79444 0.61742 0.91802 0.0
C365 C 0.74379 0.63684 0.05561 0.0
C366 C 0.84524 0.30553 0.56473 0.0
C367 C 0.82955 0.2841 0.51211 0.0
H368 H 0.89091 0.32866 0.60771 0.0
C369 C 0.84926 0.26827 0.4636 0.0
H370 H 0.83074 0.31825 0.60265 0.0
C371 C 0.88391 0.2738 0.46761 0.0
C372 C 0.89943 0.29582 0.51894 0.0
H373 H 0.83794 0.25155 0.42264 0.0
H374 H 0.89841 0.26141 0.42911 0.0
C375 C 0.87971 0.31158 0.56752 0.0
C376 C 0.71047 0.16197 0.44072 0.0
C377 C 0.73353 0.17877 0.49064 0.0
H378 H 0.69456 0.11526 0.40105 0.0
C379 C 0.7586 0.16039 0.54047 0.0
H380 H 0.69081 0.17547 0.40194 0.0
C381 C 0.76119 0.12609 0.5387 0.0
C382 C 0.73821 0.10929 0.48867 0.0
H383 H 0.77682 0.17265 0.57936 0.0
H384 H 0.7812 0.11271 0.57653 0.0
C385 C 0.71252 0.12751 0.44053 0.0
C386 C 0.35307 0.22665 0.08841 0.0
C387 C 0.33416 0.24212 0.01997 0.0
H388 H 0.40099 0.20749 0.14069 0.0
C389 C 0.35017 0.25121 0.95099 0.0
H390 H 0.34135 0.21925 0.14232 0.0
C391 C 0.38448 0.24526 0.95075 0.0
C392 C 0.40325 0.22925 0.01873 0.0
H393 H 0.33625 0.2633 0.89749 0.0
H394 H 0.39616 0.25259 0.89678 0.0
C395 C 0.38716 0.21985 0.08743 0.0
C396 C 0.2791 0.84999 0.54613 0.0
C397 C 0.26627 0.82706 0.49403 0.0
H398 H 0.28075 0.90082 0.5709 0.0
C399 C 0.24565 0.83867 0.42421 0.0
H400 H 0.29523 0.84187 0.60007 0.0
C401 C 0.23729 0.87213 0.40784 0.0
C402 C 0.2496 0.89501 0.4603 0.0
H403 H 0.23537 0.8218 0.38243 0.0
H404 H 0.22086 0.88001 0.35422 0.0
C405 C 0.27097 0.88374 0.52916 0.0
C406 C 0.67513 0.80702 0.93319 0.0
C407 C 0.69372 0.7961 0.00635 0.0
H408 H 0.6269 0.8206 0.87179 0.0
C409 C 0.67691 0.7899 0.07511 0.0
H410 H 0.68746 0.8121 0.87927 0.0
C411 C 0.64208 0.79393 0.07038 0.0
C412 C 0.62356 0.80512 -0.00273 0.0
H413 H 0.69057 0.78128 0.13218 0.0
H414 H 0.62972 0.78873 0.12418 0.0
C415 C 0.6405 0.81192 0.92891 0.0
loop_
_geom_bond_atom_site_label_1
_geom_bond_atom_site_label_2
_geom_bond_distance
_geom_bond_site_symmetry_2
_ccdc_geom_bond_type
Fe0 O2 1.918 . S
Fe0 O5 1.997 . S
Fe0 O6 2.002 . S
Fe0 O11 1.976 . S
Fe0 O14 1.996 . S
Fe1 O2 1.918 1_556 S
Fe1 O9 1.997 . S
Fe1 O12 1.996 . S
Fe1 O16 1.976 . S
Fe1 O19 2.002 . S
O2 Fe0 1.918 . S
O2 Fe1 1.918 1_554 S
O2 Fe3 1.918 . S
Fe3 O2 1.918 . S
Fe3 O4 2.002 . S
Fe3 O13 1.976 . S
Fe3 O17 1.996 1_554 S
Fe3 O20 1.997 1_554 S
O4 Fe3 2.002 . S
O4 C21 1.295 . S
O5 Fe0 1.997 . S
O5 C21 1.235 . S
O6 Fe0 2.002 . S
O6 C7 1.295 . S
C7 O6 1.295 . S
C7 O9 1.235 1_554 S
C8 O13 1.287 . S
C8 O14 1.255 . S
O9 Fe1 1.997 . S
O9 C7 1.235 1_556 S
C10 O16 1.287 . S
C10 O17 1.255 . S
O11 Fe0 1.976 . S
O11 C18 1.287 . S
O12 Fe1 1.996 . S
O12 C18 1.255 1_556 S
O13 Fe3 1.976 . S
O13 C8 1.287 . S
O14 Fe0 1.996 . S
O14 C8 1.255 . S
C15 O19 1.295 . S
C15 O20 1.235 . S
O16 Fe1 1.976 . S
O16 C10 1.287 . S
O17 Fe3 1.996 1_556 S
O17 C10 1.255 . S
C18 O11 1.287 . S
C18 O12 1.255 1_554 S
O19 Fe1 2.002 . S
O19 C15 1.295 . S
O20 Fe3 1.997 1_556 S
O20 C15 1.235 . S
C21 O4 1.295 . S
C21 O5 1.235 . S
Fe22 O24 1.918 . S
Fe22 O27 1.997 . S
Fe22 O28 2.002 . S
Fe22 O33 1.976 . S
Fe22 O36 1.996 . S
Fe23 O24 1.918 . S
Fe23 O31 1.997 . S
Fe23 O34 1.996 . S
Fe23 O38 1.976 . S
Fe23 O41 2.002 . S
O24 Fe22 1.918 . S
O24 Fe23 1.918 . S
O24 Fe25 1.918 . S
Fe25 O24 1.918 . S
Fe25 O26 2.002 . S
Fe25 O35 1.976 . S
Fe25 O39 1.996 . S
Fe25 O42 1.997 . S
O26 Fe25 2.002 . S
O26 C43 1.295 . S
O27 Fe22 1.997 . S
O27 C43 1.235 . S
O28 Fe22 2.002 . S
O28 C29 1.295 . S
C29 O28 1.295 . S
C29 O31 1.235 . S
C30 O35 1.287 . S
C30 O36 1.255 . S
O31 Fe23 1.997 . S
O31 C29 1.235 . S
C32 O38 1.287 . S
C32 O39 1.255 . S
O33 Fe22 1.976 . S
O33 C40 1.287 . S
O34 Fe23 1.996 . S
O34 C40 1.255 . S
O35 Fe25 1.976 . S
O35 C30 1.287 . S
O36 Fe22 1.996 . S
O36 C30 1.255 . S
C37 O41 1.295 . S
C37 O42 1.235 . S
O38 Fe23 1.976 . S
O38 C32 1.287 . S
O39 Fe25 1.996 . S
O39 C32 1.255 . S
C40 O33 1.287 . S
C40 O34 1.255 . S
O41 Fe23 2.002 . S
O41 C37 1.295 . S
O42 Fe25 1.997 . S
O42 C37 1.235 . S
C43 O26 1.295 . S
C43 O27 1.235 . S
Fe44 O46 1.918 1_556 S
Fe44 O49 1.997 . S
Fe44 O50 2.002 . S
Fe44 O55 1.976 . S
Fe44 O58 1.996 . S
Fe45 O46 1.918 . S
Fe45 O53 1.997 . S
Fe45 O56 1.996 . S
Fe45 O60 1.976 . S
Fe45 O63 2.002 . S
O46 Fe44 1.918 1_554 S
O46 Fe45 1.918 . S
O46 Fe47 1.918 . S
Fe47 O46 1.918 . S
Fe47 O48 2.002 1_554 S
Fe47 O57 1.976 1_554 S
Fe47 O61 1.996 . S
Fe47 O64 1.997 . S
O48 Fe47 2.002 1_556 S
O48 C65 1.295 . S
O49 Fe44 1.997 . S
O49 C65 1.235 . S
O50 Fe44 2.002 . S
O50 C51 1.295 1_556 S
C51 O50 1.295 1_554 S
C51 O53 1.235 . S
C52 O57 1.287 . S
C52 O58 1.255 . S
O53 Fe45 1.997 . S
O53 C51 1.235 . S
C54 O60 1.287 . S
C54 O61 1.255 . S
O55 Fe44 1.976 . S
O55 C62 1.287 1_556 S
O56 Fe45 1.996 . S
O56 C62 1.255 . S
O57 Fe47 1.976 1_556 S
O57 C52 1.287 . S
O58 Fe44 1.996 . S
O58 C52 1.255 . S
C59 O63 1.295 . S
C59 O64 1.235 . S
O60 Fe45 1.976 . S
O60 C54 1.287 . S
O61 Fe47 1.996 . S
O61 C54 1.255 . S
C62 O55 1.287 1_554 S
C62 O56 1.255 . S
O63 Fe45 2.002 . S
O63 C59 1.295 . S
O64 Fe47 1.997 . S
O64 C59 1.235 . S
C65 O48 1.295 . S
C65 O49 1.235 . S
Fe66 O68 1.918 . S
Fe66 O71 1.997 . S
Fe66 O72 2.002 . S
Fe66 O77 1.976 . S
Fe66 O80 1.996 . S
Fe67 O68 1.918 . S
Fe67 O75 1.997 . S
Fe67 O78 1.996 . S
Fe67 O82 1.976 . S
Fe67 O85 2.002 . S
O68 Fe66 1.918 . S
O68 Fe67 1.918 . S
O68 Fe69 1.918 . S
Fe69 O68 1.918 . S
Fe69 O70 2.002 . S
Fe69 O79 1.976 . S
Fe69 O83 1.996 . S
Fe69 O86 1.997 . S
O70 Fe69 2.002 . S
O70 C87 1.295 . S
O71 Fe66 1.997 . S
O71 C87 1.235 . S
O72 Fe66 2.002 . S
O72 C73 1.295 . S
C73 O72 1.295 . S
C73 O75 1.235 . S
C74 O79 1.287 . S
C74 O80 1.255 . S
O75 Fe67 1.997 . S
O75 C73 1.235 . S
C76 O82 1.287 . S
C76 O83 1.255 . S
O77 Fe66 1.976 . S
O77 C84 1.287 . S
O78 Fe67 1.996 . S
O78 C84 1.255 . S
O79 Fe69 1.976 . S
O79 C74 1.287 . S
O80 Fe66 1.996 . S
O80 C74 1.255 . S
C81 O85 1.295 . S
C81 O86 1.235 . S
O82 Fe67 1.976 . S
O82 C76 1.287 . S
O83 Fe69 1.996 . S
O83 C76 1.255 . S
C84 O77 1.287 . S
C84 O78 1.255 . S
O85 Fe67 2.002 . S
O85 C81 1.295 . S
O86 Fe69 1.997 . S
O86 C81 1.235 . S
C87 O70 1.295 . S
C87 O71 1.235 . S
O88 Cd89 2.300 1_556 S
O88 C95 1.275 . S
Cd89 O88 2.300 1_554 S
Cd89 O97 2.381 1_554 S
Cd89 O98 2.378 . S
O90 Cd91 2.385 1_556 S
O90 C95 1.255 . S
Cd91 O90 2.385 1_554 S
Cd91 O92 2.317 . S
O92 Cd91 2.317 . S
O92 C93 1.232 . S
C93 O92 1.232 . S
C93 O94 1.218 . S
O94 C93 1.218 . S
C95 O88 1.275 . S
C95 O90 1.255 . S
C96 O97 1.258 1_554 S
C96 O98 1.256 . S
O97 Cd89 2.381 1_556 S
O97 C96 1.258 1_556 S
O98 Cd89 2.378 . S
O98 C96 1.256 . S
O99 Cd100 2.300 1_655 S
O99 C106 1.275 . S
Cd100 O99 2.300 1_455 S
Cd100 O108 2.381 . S
Cd100 O109 2.378 . S
O101 Cd102 2.385 . S
O101 C106 1.255 . S
Cd102 O101 2.385 . S
Cd102 O103 2.317 . S
O103 Cd102 2.317 . S
O103 C104 1.232 . S
C104 O103 1.232 . S
C104 O105 1.218 . S
O105 C104 1.218 . S
C106 O99 1.275 . S
C106 O101 1.255 . S
C107 O108 1.258 . S
C107 O109 1.256 . S
O108 Cd100 2.381 . S
O108 C107 1.258 . S
O109 Cd100 2.378 . S
O109 C107 1.256 . S
O110 Cd111 2.300 . S
O110 C117 1.275 . S
Cd111 O110 2.300 . S
Cd111 O119 2.381 . S
Cd111 O120 2.378 1_554 S
O112 Cd113 2.385 1_554 S
O112 C117 1.255 . S
Cd113 O112 2.385 1_556 S
Cd113 O114 2.317 . S
O114 Cd113 2.317 . S
O114 C115 1.232 . S
C115 O114 1.232 . S
C115 O116 1.218 . S
O116 C115 1.218 . S
C117 O110 1.275 . S
C117 O112 1.255 . S
C118 O119 1.258 . S
C118 O120 1.256 1_554 S
O119 Cd111 2.381 . S
O119 C118 1.258 . S
O120 Cd111 2.378 1_556 S
O120 C118 1.256 1_556 S
O121 Cd122 2.300 1_455 S
O121 C128 1.275 . S
Cd122 O121 2.300 1_655 S
Cd122 O130 2.381 . S
Cd122 O131 2.378 . S
O123 Cd124 2.385 . S
O123 C128 1.255 . S
Cd124 O123 2.385 . S
Cd124 O125 2.317 . S
O125 Cd124 2.317 . S
O125 C126 1.232 . S
C126 O125 1.232 . S
C126 O127 1.218 . S
O127 C126 1.218 . S
C128 O121 1.275 . S
C128 O123 1.255 . S
C129 O130 1.258 . S
C129 O131 1.256 . S
O130 Cd122 2.381 . S
O130 C129 1.258 . S
O131 Cd122 2.378 . S
O131 C129 1.256 . S
O132 Cd133 2.300 1_565 S
O132 C139 1.275 . S
Cd133 O132 2.300 1_545 S
Cd133 O141 2.381 . S
Cd133 O142 2.378 . S
O134 Cd135 2.385 . S
O134 C139 1.255 . S
Cd135 O134 2.385 . S
Cd135 O136 2.317 . S
O136 Cd135 2.317 . S
O136 C137 1.232 . S
C137 O136 1.232 . S
C137 O138 1.218 . S
O138 C137 1.218 . S
C139 O132 1.275 . S
C139 O134 1.255 . S
C140 O141 1.258 . S
C140 O142 1.256 . S
O141 Cd133 2.381 . S
O141 C140 1.258 . S
O142 Cd133 2.378 . S
O142 C140 1.256 . S
O143 Cd144 2.300 . S
O143 C150 1.275 . S
Cd144 O143 2.300 . S
Cd144 O152 2.381 . S
Cd144 O153 2.378 1_554 S
O145 Cd146 2.385 1_554 S
O145 C150 1.255 . S
Cd146 O145 2.385 1_556 S
Cd146 O147 2.317 . S
O147 Cd146 2.317 . S
O147 C148 1.232 . S
C148 O147 1.232 . S
C148 O149 1.218 . S
O149 C148 1.218 . S
C150 O143 1.275 . S
C150 O145 1.255 . S
C151 O152 1.258 . S
C151 O153 1.256 1_554 S
O152 Cd144 2.381 . S
O152 C151 1.258 . S
O153 Cd144 2.378 1_556 S
O153 C151 1.256 1_556 S
O154 Cd155 2.300 . S
O154 C161 1.275 . S
Cd155 O154 2.300 . S
Cd155 O163 2.381 1_545 S
Cd155 O164 2.378 1_545 S
O156 Cd157 2.385 . S
O156 C161 1.255 . S
Cd157 O156 2.385 . S
Cd157 O158 2.317 . S
O158 Cd157 2.317 . S
O158 C159 1.232 . S
C159 O158 1.232 . S
C159 O160 1.218 . S
O160 C159 1.218 . S
C161 O154 1.275 . S
C161 O156 1.255 . S
C162 O163 1.258 . S
C162 O164 1.256 . S
O163 Cd155 2.381 1_565 S
O163 C162 1.258 . S
O164 Cd155 2.378 1_565 S
O164 C162 1.256 . S
O165 Cd166 2.300 . S
O165 C172 1.275 . S
Cd166 O165 2.300 . S
Cd166 O174 2.381 . S
Cd166 O175 2.378 1_556 S
O167 Cd168 2.385 1_556 S
O167 C172 1.255 . S
Cd168 O167 2.385 1_554 S
Cd168 O169 2.317 . S
O169 Cd168 2.317 . S
O169 C170 1.232 . S
C170 O169 1.232 . S
C170 O171 1.218 . S
O171 C170 1.218 . S
C172 O165 1.275 . S
C172 O167 1.255 . S
C173 O174 1.258 . S
C173 O175 1.256 1_556 S
O174 Cd166 2.381 . S
O174 C173 1.258 . S
O175 Cd166 2.378 1_554 S
O175 C173 1.256 1_554 S
C176 C177 1.387 . S
C176 H180 0.950 . S
C176 C185 1.390 . S
C177 C176 1.387 . S
C177 C179 1.387 . S
H178 C185 0.950 . S
C179 C177 1.387 . S
C179 C181 1.390 . S
C179 H183 0.950 . S
H180 C176 0.950 . S
C181 C179 1.390 . S
C181 C182 1.387 . S
C181 H184 0.950 . S
C182 C181 1.387 . S
C182 C185 1.387 . S
H183 C179 0.950 . S
H184 C181 0.950 . S
C185 C176 1.390 . S
C185 H178 0.950 . S
C185 C182 1.387 . S
C186 C187 1.387 . S
C186 H190 0.950 . S
C186 C195 1.390 . S
C187 C186 1.387 . S
C187 C189 1.387 . S
H188 C195 0.950 . S
C189 C187 1.387 . S
C189 C191 1.390 . S
C189 H193 0.950 . S
H190 C186 0.950 . S
C191 C189 1.390 . S
C191 C192 1.387 . S
C191 H194 0.950 . S
C192 C191 1.387 . S
C192 C195 1.387 . S
H193 C189 0.950 . S
H194 C191 0.950 . S
C195 C186 1.390 . S
C195 H188 0.950 . S
C195 C192 1.387 . S
C196 C197 1.387 . S
C196 H200 0.950 . S
C196 C205 1.390 . S
C197 C196 1.387 . S
C197 C199 1.387 . S
H198 C205 0.950 . S
C199 C197 1.387 . S
C199 C201 1.390 . S
C199 H203 0.950 . S
H200 C196 0.950 . S
C201 C199 1.390 . S
C201 C202 1.387 . S
C201 H204 0.950 . S
C202 C201 1.387 . S
C202 C205 1.387 . S
H203 C199 0.950 . S
H204 C201 0.950 . S
C205 C196 1.390 . S
C205 H198 0.950 . S
C205 C202 1.387 . S
C206 C207 1.387 . S
C206 H210 0.950 . S
C206 C215 1.390 . S
C207 C206 1.387 . S
C207 C209 1.387 . S
H208 C215 0.950 . S
C209 C207 1.387 . S
C209 C211 1.390 . S
C209 H213 0.950 . S
H210 C206 0.950 . S
C211 C209 1.390 . S
C211 C212 1.387 . S
C211 H214 0.950 . S
C212 C211 1.387 . S
C212 C215 1.387 . S
H213 C209 0.950 . S
H214 C211 0.950 . S
C215 C206 1.390 . S
C215 H208 0.950 . S
C215 C212 1.387 . S
C216 C217 1.387 . S
C216 H220 0.950 . S
C216 C225 1.390 . S
C217 C216 1.387 . S
C217 C219 1.387 . S
H218 C225 0.950 . S
C219 C217 1.387 . S
C219 C221 1.390 . S
C219 H223 0.950 . S
H220 C216 0.950 . S
C221 C219 1.390 . S
C221 C222 1.387 . S
C221 H224 0.950 . S
C222 C221 1.387 . S
C222 C225 1.387 . S
H223 C219 0.950 . S
H224 C221 0.950 . S
C225 C216 1.390 . S
C225 H218 0.950 . S
C225 C222 1.387 . S
C226 C227 1.387 . S
C226 H230 0.950 . S
C226 C235 1.390 . S
C227 C226 1.387 . S
C227 C229 1.387 . S
H228 C235 0.950 . S
C229 C227 1.387 . S
C229 C231 1.390 . S
C229 H233 0.950 . S
H230 C226 0.950 . S
C231 C229 1.390 . S
C231 C232 1.387 . S
C231 H234 0.950 . S
C232 C231 1.387 . S
C232 C235 1.387 . S
H233 C229 0.950 . S
H234 C231 0.950 . S
C235 C226 1.390 . S
C235 H228 0.950 . S
C235 C232 1.387 . S
C236 C237 1.387 . S
C236 H240 0.950 . S
C236 C245 1.390 . S
C237 C236 1.387 . S
C237 C239 1.387 . S
H238 C245 0.950 . S
C239 C237 1.387 . S
C239 C241 1.390 . S
C239 H243 0.950 . S
H240 C236 0.950 . S
C241 C239 1.390 . S
C241 C242 1.387 . S
C241 H244 0.950 . S
C242 C241 1.387 . S
C242 C245 1.387 . S
H243 C239 0.950 . S
H244 C241 0.950 . S
C245 C236 1.390 . S
C245 H238 0.950 . S
C245 C242 1.387 . S
C246 C247 1.387 . S
C246 H250 0.950 . S
C246 C255 1.390 . S
C247 C246 1.387 . S
C247 C249 1.387 . S
H248 C255 0.950 . S
C249 C247 1.387 . S
C249 C251 1.390 . S
C249 H253 0.950 . S
H250 C246 0.950 . S
C251 C249 1.390 . S
C251 C252 1.387 . S
C251 H254 0.950 . S
C252 C251 1.387 . S
C252 C255 1.387 . S
H253 C249 0.950 . S
H254 C251 0.950 . S
C255 C246 1.390 . S
C255 H248 0.950 . S
C255 C252 1.387 . S
C256 C257 1.387 . S
C256 H260 0.950 . S
C256 C265 1.390 . S
C257 C256 1.387 . S
C257 C259 1.387 . S
H258 C265 0.950 . S
C259 C257 1.387 . S
C259 C261 1.390 . S
C259 H263 0.950 . S
H260 C256 0.950 . S
C261 C259 1.390 . S
C261 C262 1.387 . S
C261 H264 0.950 . S
C262 C261 1.387 . S
C262 C265 1.387 . S
H263 C259 0.950 . S
H264 C261 0.950 . S
C265 C256 1.390 . S
C265 H258 0.950 . S
C265 C262 1.387 . S
C266 C267 1.387 . S
C266 H270 0.950 . S
C266 C275 1.390 . S
C267 C266 1.387 . S
C267 C269 1.387 . S
H268 C275 0.950 . S
C269 C267 1.387 . S
C269 C271 1.390 . S
C269 H273 0.950 . S
H270 C266 0.950 . S
C271 C269 1.390 . S
C271 C272 1.387 . S
C271 H274 0.950 . S
C272 C271 1.387 . S
C272 C275 1.387 . S
H273 C269 0.950 . S
H274 C271 0.950 . S
C275 C266 1.390 . S
C275 H268 0.950 . S
C275 C272 1.387 . S
C276 C277 1.387 . S
C276 H280 0.950 . S
C276 C285 1.390 . S
C277 C276 1.387 . S
C277 C279 1.387 . S
H278 C285 0.950 . S
C279 C277 1.387 . S
C279 C281 1.390 . S
C279 H283 0.950 . S
H280 C276 0.950 . S
C281 C279 1.390 . S
C281 C282 1.387 . S
C281 H284 0.950 . S
C282 C281 1.387 . S
C282 C285 1.387 . S
H283 C279 0.950 . S
H284 C281 0.950 . S
C285 C276 1.390 . S
C285 H278 0.950 . S
C285 C282 1.387 . S
C286 C287 1.387 . S
C286 H290 0.950 . S
C286 C295 1.390 . S
C287 C286 1.387 . S
C287 C289 1.387 . S
H288 C295 0.950 . S
C289 C287 1.387 . S
C289 C291 1.390 . S
C289 H293 0.950 . S
H290 C286 0.950 . S
C291 C289 1.390 . S
C291 C292 1.387 . S
C291 H294 0.950 . S
C292 C291 1.387 . S
C292 C295 1.387 . S
H293 C289 0.950 . S
H294 C291 0.950 . S
C295 C286 1.390 . S
C295 H288 0.950 . S
C295 C292 1.387 . S
C296 C297 1.387 . S
C296 H300 0.950 . S
C296 C305 1.390 . S
C297 C296 1.387 . S
C297 C299 1.387 . S
H298 C305 0.950 . S
C299 C297 1.387 . S
C299 C301 1.390 . S
C299 H303 0.950 . S
H300 C296 0.950 . S
C301 C299 1.390 . S
C301 C302 1.387 . S
C301 H304 0.950 . S
C302 C301 1.387 . S
C302 C305 1.387 . S
H303 C299 0.950 . S
H304 C301 0.950 . S
C305 C296 1.390 . S
C305 H298 0.950 . S
C305 C302 1.387 . S
C306 C307 1.387 . S
C306 H310 0.950 . S
C306 C315 1.390 . S
C307 C306 1.387 . S
C307 C309 1.387 . S
H308 C315 0.950 . S
C309 C307 1.387 . S
C309 C311 1.390 . S
C309 H313 0.950 . S
H310 C306 0.950 . S
C311 C309 1.390 . S
C311 C312 1.387 . S
C311 H314 0.950 . S
C312 C311 1.387 . S
C312 C315 1.387 . S
H313 C309 0.950 . S
H314 C311 0.950 . S
C315 C306 1.390 . S
C315 H308 0.950 . S
C315 C312 1.387 . S
C316 C317 1.387 . S
C316 H320 0.950 . S
C316 C325 1.390 . S
C317 C316 1.387 . S
C317 C319 1.387 . S
H318 C325 0.950 . S
C319 C317 1.387 . S
C319 C321 1.390 . S
C319 H323 0.950 . S
H320 C316 0.950 . S
C321 C319 1.390 . S
C321 C322 1.387 . S
C321 H324 0.950 . S
C322 C321 1.387 . S
C322 C325 1.387 . S
H323 C319 0.950 . S
H324 C321 0.950 . S
C325 C316 1.390 . S
C325 H318 0.950 . S
C325 C322 1.387 . S
C326 C327 1.387 . S
C326 H330 0.950 . S
C326 C335 1.390 . S
C327 C326 1.387 . S
C327 C329 1.387 . S
H328 C335 0.950 . S
C329 C327 1.387 . S
C329 C331 1.390 . S
C329 H333 0.950 . S
H330 C326 0.950 . S
C331 C329 1.390 . S
C331 C332 1.387 . S
C331 H334 0.950 . S
C332 C331 1.387 . S
C332 C335 1.387 . S
H333 C329 0.950 . S
H334 C331 0.950 . S
C335 C326 1.390 . S
C335 H328 0.950 . S
C335 C332 1.387 . S
C336 C337 1.387 . S
C336 H340 0.950 . S
C336 C345 1.390 . S
C337 C336 1.387 . S
C337 C339 1.387 1_554 S
H338 C345 0.950 . S
C339 C337 1.387 1_556 S
C339 C341 1.390 . S
C339 H343 0.950 . S
H340 C336 0.950 . S
C341 C339 1.390 . S
C341 C342 1.387 1_556 S
C341 H344 0.950 . S
C342 C341 1.387 1_554 S
C342 C345 1.387 . S
H343 C339 0.950 . S
H344 C341 0.950 . S
C345 C336 1.390 . S
C345 H338 0.950 . S
C345 C342 1.387 . S
C346 C347 1.387 . S
C346 H350 0.950 . S
C346 C355 1.390 . S
C347 C346 1.387 . S
C347 C349 1.387 . S
H348 C355 0.950 . S
C349 C347 1.387 . S
C349 C351 1.390 . S
C349 H353 0.950 . S
H350 C346 0.950 . S
C351 C349 1.390 . S
C351 C352 1.387 . S
C351 H354 0.950 . S
C352 C351 1.387 . S
C352 C355 1.387 . S
H353 C349 0.950 . S
H354 C351 0.950 . S
C355 C346 1.390 . S
C355 H348 0.950 . S
C355 C352 1.387 . S
C356 C357 1.387 . S
C356 H360 0.950 . S
C356 C365 1.390 . S
C357 C356 1.387 . S
C357 C359 1.387 1_554 S
H358 C365 0.950 . S
C359 C357 1.387 1_556 S
C359 C361 1.390 . S
C359 H363 0.950 . S
H360 C356 0.950 . S
C361 C359 1.390 . S
C361 C362 1.387 1_556 S
C361 H364 0.950 . S
C362 C361 1.387 1_554 S
C362 C365 1.387 . S
H363 C359 0.950 . S
H364 C361 0.950 . S
C365 C356 1.390 . S
C365 H358 0.950 . S
C365 C362 1.387 . S
C366 C367 1.387 . S
C366 H370 0.950 . S
C366 C375 1.390 . S
C367 C366 1.387 . S
C367 C369 1.387 . S
H368 C375 0.950 . S
C369 C367 1.387 . S
C369 C371 1.390 . S
C369 H373 0.950 . S
H370 C366 0.950 . S
C371 C369 1.390 . S
C371 C372 1.387 . S
C371 H374 0.950 . S
C372 C371 1.387 . S
C372 C375 1.387 . S
H373 C369 0.950 . S
H374 C371 0.950 . S
C375 C366 1.390 . S
C375 H368 0.950 . S
C375 C372 1.387 . S
C376 C377 1.387 . S
C376 H380 0.950 . S
C376 C385 1.390 . S
C377 C376 1.387 . S
C377 C379 1.387 . S
H378 C385 0.950 . S
C379 C377 1.387 . S
C379 C381 1.390 . S
C379 H383 0.950 . S
H380 C376 0.950 . S
C381 C379 1.390 . S
C381 C382 1.387 . S
C381 H384 0.950 . S
C382 C381 1.387 . S
C382 C385 1.387 . S
H383 C379 0.950 . S
H384 C381 0.950 . S
C385 C376 1.390 . S
C385 H378 0.950 . S
C385 C382 1.387 . S
C386 C387 1.387 . S
C386 H390 0.950 . S
C386 C395 1.390 . S
C387 C386 1.387 . S
C387 C389 1.387 1_554 S
H388 C395 0.950 . S
C389 C387 1.387 1_556 S
C389 C391 1.390 . S
C389 H393 0.950 . S
H390 C386 0.950 . S
C391 C389 1.390 . S
C391 C392 1.387 1_556 S
C391 H394 0.950 . S
C392 C391 1.387 1_554 S
C392 C395 1.387 . S
H393 C389 0.950 . S
H394 C391 0.950 . S
C395 C386 1.390 . S
C395 H388 0.950 . S
C395 C392 1.387 . S
C396 C397 1.387 . S
C396 H400 0.950 . S
C396 C405 1.390 . S
C397 C396 1.387 . S
C397 C399 1.387 . S
H398 C405 0.950 . S
C399 C397 1.387 . S
C399 C401 1.390 . S
C399 H403 0.950 . S
H400 C396 0.950 . S
C401 C399 1.390 . S
C401 C402 1.387 . S
C401 H404 0.950 . S
C402 C401 1.387 . S
C402 C405 1.387 . S
H403 C399 0.950 . S
H404 C401 0.950 . S
C405 C396 1.390 . S
C405 H398 0.950 . S
C405 C402 1.387 . S
C406 C407 1.387 1_556 S
C406 H410 0.950 . S
C406 C415 1.390 . S
C407 C406 1.387 1_554 S
C407 C409 1.387 . S
H408 C415 0.950 . S
C409 C407 1.387 . S
C409 C411 1.390 . S
C409 H413 0.950 . S
H410 C406 0.950 . S
C411 C409 1.390 . S
C411 C412 1.386 . S
C411 H414 0.950 . S
C412 C411 1.386 . S
C412 C415 1.389 1_554 S
H413 C409 0.950 . S
H414 C411 0.950 . S
C415 C406 1.390 . S
C415 H408 0.950 . S
C415 C412 1.389 1_556 S
C177 C21 1.582 . S
C182 C126 1.495 . S
C187 C40 1.530 . S
C192 C95 1.519 . S
C202 C106 1.450 . S
C197 C54 1.532 . S
C207 C73 1.456 . S
C212 C115 1.208 . S
C222 C150 1.475 . S
C217 C74 1.570 . S
C232 C159 1.205 . S
C227 C10 1.467 . S
C242 C170 1.443 . S
C237 C37 1.537 . S
C252 C139 1.527 . S
C247 C65 1.514 . S
C257 C52 1.512 . S
C262 C104 1.171 . S
C267 C87 1.544 . S
C272 C117 1.500 . S
C277 C15 1.585 . S
C282 C128 1.586 . S
C292 C93 1.337 . S
C287 C32 1.445 . S
C297 C29 1.629 . S
C302 C172 1.626 . S
C312 C137 1.358 . S
C307 C59 1.478 . S
C322 C148 1.169 . S
C317 C84 1.475 . S
C327 C8 1.503 . S
C332 C161 1.446 . S
C342 C96 1.561 . S
C337 C7 1.534 . S
C352 C107 1.521 . S
C347 C30 1.578 . S
C357 C62 1.513 . S
C362 C118 1.489 . S
C367 C81 1.631 . S
C372 C129 1.627 . S
C382 C140 1.517 . S
C377 C76 1.513 . S
C387 C18 1.574 . S
C392 C151 1.519 . S
C397 C43 1.531 . S
C402 C162 1.521 . S
C407 C51 1.627 . S
C412 C173 1.624 1_554 S
