# Generated by pormake.
# Topology nia, (6,6)-cn, num edge types: 1
# Building blocks:
#     Node 0, Type 0, BuildingBlock: BETDIP_clean_sbu_0, # of connection points: 6
#     Node 1, Type 0, BuildingBlock: BETDIP_clean_sbu_0, # of connection points: 6
#     Node 2, Type 1, BuildingBlock: MIDCAF_clean_sbu_0, # of connection points: 6
#     Node 3, Type 1, BuildingBlock: MIDCAF_clean_sbu_0, # of connection points: 6
#     Edge 4, Type (0, 1), BuildingBlock: FUNLAD_clean_linker_1, # of connection points: 2
#     Edge 5, Type (0, 1), BuildingBlock: FUNLAD_clean_linker_1, # of connection points: 2
#     Edge 6, Type (0, 1), BuildingBlock: FUNLAD_clean_linker_1, # of connection points: 2
#     Edge 7, Type (0, 1), BuildingBlock: FUNLAD_clean_linker_1, # of connection points: 2
#     Edge 8, Type (0, 1), BuildingBlock: FUNLAD_clean_linker_1, # of connection points: 2
#     Edge 9, Type (0, 1), BuildingBlock: FUNLAD_clean_linker_1, # of connection points: 2
#     Edge 10, Type (0, 1), BuildingBlock: FUNLAD_clean_linker_1, # of connection points: 2
#     Edge 11, Type (0, 1), BuildingBlock: FUNLAD_clean_linker_1, # of connection points: 2
#     Edge 12, Type (0, 1), BuildingBlock: FUNLAD_clean_linker_1, # of connection points: 2
#     Edge 13, Type (0, 1), BuildingBlock: FUNLAD_clean_linker_1, # of connection points: 2
#     Edge 14, Type (0, 1), BuildingBlock: FUNLAD_clean_linker_1, # of connection points: 2
#     Edge 15, Type (0, 1), BuildingBlock: FUNLAD_clean_linker_1, # of connection points: 2
# Relax obj value: 0.301
# Max RMSD: 0.269
# Mean RMSD: 0.241
data_MOF--net-nia--node1-BETDIP_clean_sbu_0--node2-MIDCAF_clean_sbu_0--edge1-FUNLAD_clean_linker_1
_symmetry_space_group_name_H-M    P1
_symmetry_Int_Tables_number       1
_symmetry_cell_setting            triclinic
loop_
_symmetry_equiv_pos_as_xyz
'x, y, z'
_cell_length_a     29.151856
_cell_length_b     26.27988
_cell_length_c     36.019634
_cell_angle_alpha  101.55586
_cell_angle_beta   71.500971
_cell_angle_gamma 128.55638
loop_
_atom_site_label
_atom_site_type_symbol
_atom_site_fract_x
_atom_site_fract_y
_atom_site_fract_z
_atom_type_partial_charge
Tb0 Tb 0.99121 0.04979 0.98662 0.0
Tb1 Tb 0.02397 0.98568 0.02123 0.0
C2 C 0.9393 0.08777 0.97036 0.0
C3 C 0.93714 0.13725 0.95961 0.0
C4 C 0.88065 0.12521 0.9696 0.0
C5 C 0.87216 0.16089 0.95237 0.0
C6 C 0.92024 0.2096 0.92485 0.0
C7 C 0.97805 0.22514 0.91709 0.0
C8 C 0.98637 0.1886 0.93399 0.0
C9 C 0.10292 0.08464 0.95341 0.0
C10 C 0.04416 0.1121 0.0626 0.0
C11 C 0.06567 0.93136 0.03208 0.0
C12 C 0.07578 0.90813 0.0606 0.0
C13 C 0.06557 0.84784 0.0534 0.0
C14 C 0.08109 0.82657 0.07645 0.0
C15 C 0.10687 0.86477 0.10754 0.0
C16 C 0.11557 0.92465 0.11565 0.0
C17 C 0.10024 0.94623 0.09224 0.0
C18 C 0.914 0.95423 0.0552 0.0
C19 C 0.97371 0.92833 0.94634 0.0
O20 O 0.93765 0.08341 1.00645 0.0
O21 O 0.97222 0.07285 0.94424 0.0
O22 O 0.07543 0.07349 0.98905 0.0
O23 O 0.07001 0.0832 0.93557 0.0
O24 O 0.01767 0.11143 0.03835 0.0
O25 O 0.05557 0.06976 0.05991 0.0
O26 O 0.00988 0.89972 0.02991 0.0
O27 O 0.09781 0.99416 0.02725 0.0
O28 O 0.94005 0.96278 0.01917 0.0
O29 O 0.94781 0.95764 0.07335 0.0
O30 O 0.01621 0.94354 0.96192 0.0
O31 O 0.94521 0.95435 0.96036 0.0
H32 H 0.84204 0.08562 0.98913 0.0
H33 H 0.82751 0.14918 0.95987 0.0
H34 H 0.01593 0.26313 0.89639 0.0
H35 H 0.03032 0.19839 0.92566 0.0
H36 H 0.04723 0.81787 0.02899 0.0
H37 H 0.074 0.78043 0.06939 0.0
H38 H 0.1363 0.95609 0.13888 0.0
H39 H 0.10901 0.99326 0.0982 0.0
Tb40 Tb 0.06827 0.07361 0.55517 0.0
Tb41 Tb 0.00399 0.01948 0.49156 0.0
C42 C 0.10388 0.08566 0.61332 0.0
C43 C 0.12093 0.0546 0.62958 0.0
C44 C 0.11493 0.05841 0.66998 0.0
C45 C 0.14083 0.04001 0.68543 0.0
C46 C 0.17359 0.01834 0.66039 0.0
C47 C 0.17332 0.00744 0.62066 0.0
C48 C 0.14728 0.02574 0.60523 0.0
C49 C 0.11232 0.16055 0.50259 0.0
C50 C 0.09879 0.99746 0.48475 0.0
C51 C 0.96503 1.00331 0.43393 0.0
C52 C 0.90887 0.97305 0.42239 0.0
C53 C 0.90316 0.01176 0.40532 0.0
C54 C 0.85406 0.98317 0.38942 0.0
C55 C 0.80999 0.91519 0.39024 0.0
C56 C 0.81531 0.87669 0.40786 0.0
C57 C 0.86407 0.90528 0.42402 0.0
C58 C 0.95598 0.93557 0.54774 0.0
C59 C 0.97349 0.09772 0.56316 0.0
O60 O 0.04663 0.05047 0.61355 0.0
O61 O 0.14047 0.11814 0.58064 0.0
O62 O 0.09298 0.10193 0.49531 0.0
O63 O 0.11384 0.1732 0.53897 0.0
O64 O 0.09344 0.01097 0.52253 0.0
O65 O 0.07723 0.01084 0.4642 0.0
O66 O 0.98284 0.05428 0.45692 0.0
O67 O 0.97316 0.96413 0.4429 0.0
O68 O 0.97908 0.99494 0.55126 0.0
O69 O 0.95194 0.91882 0.51197 0.0
O70 O 0.96436 0.06793 0.52886 0.0
O71 O 0.00977 0.10237 0.58022 0.0
H72 H 0.09346 0.0793 0.68924 0.0
H73 H 0.13927 0.04743 0.71637 0.0
H74 H 0.19801 0.9904 0.6009 0.0
H75 H 0.15117 0.0212 0.57403 0.0
H76 H 0.93774 0.064 0.40315 0.0
H77 H 0.85211 0.0142 0.37526 0.0
H78 H 0.78188 0.82423 0.40881 0.0
H79 H 0.86741 0.87406 0.43678 0.0
Zn80 Zn 0.34123 0.66178 0.19927 0.0
Zn81 Zn 0.29618 0.66258 0.35454 0.0
Zn82 Zn 0.31869 0.65754 0.27686 0.0
C83 C 0.42319 0.74289 0.32148 0.0
C84 C 0.24907 0.53204 0.33366 0.0
O85 O 0.27737 0.69767 0.26269 0.0
O86 O 0.30535 0.70536 0.19806 0.0
C87 C 0.45473 0.72907 0.21195 0.0
O88 O 0.40789 0.71895 0.28891 0.0
O89 O 0.38362 0.7282 0.35354 0.0
O90 O 0.25587 0.56874 0.36341 0.0
O91 O 0.26746 0.55577 0.29933 0.0
O92 O 0.4311 0.71209 0.18364 0.0
O93 O 0.42049 0.71388 0.24739 0.0
O94 O 0.27078 0.55461 0.2588 0.0
O95 O 0.28966 0.56465 0.19508 0.0
C96 C 0.26436 0.52886 0.22467 0.0
O97 O 0.27047 0.70409 0.30393 0.0
O98 O 0.24964 0.69813 0.36828 0.0
C99 C 0.27777 0.71353 0.2308 0.0
C100 C 0.24801 0.71578 0.33889 0.0
Zn101 Zn 0.67913 0.40687 0.81629 0.0
Zn102 Zn 0.72302 0.37667 0.66225 0.0
Zn103 Zn 0.70304 0.39272 0.73926 0.0
C104 C 0.77896 0.50967 0.67463 0.0
C105 C 0.59695 0.30356 0.69648 0.0
O106 O 0.73825 0.35256 0.75951 0.0
O107 O 0.71885 0.37033 0.82334 0.0
C108 C 0.76396 0.53172 0.78287 0.0
O109 O 0.76006 0.49148 0.71055 0.0
O110 O 0.76822 0.46826 0.64733 0.0
O111 O 0.6344 0.31132 0.6642 0.0
O112 O 0.61497 0.3334 0.72753 0.0
O113 O 0.72992 0.50306 0.81525 0.0
O114 O 0.76004 0.49855 0.75085 0.0
O115 O 0.60148 0.33951 0.76858 0.0
O116 O 0.58908 0.35468 0.83254 0.0
C117 C 0.56621 0.32936 0.80348 0.0
O118 O 0.74301 0.3376 0.71901 0.0
O119 O 0.76965 0.34266 0.65432 0.0
C120 C 0.74137 0.35023 0.79391 0.0
C121 C 0.76754 0.32513 0.68534 0.0
H122 H 0.13466 0.8061 0.11326 0.0
C123 C 0.12783 0.84199 0.12837 0.0
H124 H 0.13178 0.89697 0.18064 0.0
H125 H 0.14573 0.6575 0.20281 0.0
H126 H 0.04251 0.58303 0.19603 0.0
H127 H 0.99174 0.62415 0.18457 0.0
H128 H 0.0445 0.74011 0.17903 0.0
C129 C 0.13817 0.86152 0.16429 0.0
C130 C 0.16224 0.83745 0.18125 0.0
C131 C 0.12974 0.76977 0.18659 0.0
C132 C 0.15819 0.74621 0.19484 0.0
C133 C 0.12595 0.6782 0.19748 0.0
C134 C 0.06662 0.63486 0.19363 0.0
C135 C 0.03809 0.65799 0.18707 0.0
C136 C 0.06903 0.72459 0.18361 0.0
H137 H 0.21177 0.73517 0.25854 0.0
C138 C 0.24467 0.73975 0.23196 0.0
H139 H 0.28682 0.77322 0.17357 0.0
H140 H 0.23337 0.97062 0.1801 0.0
H141 H 0.33264 0.04535 0.19346 0.0
H142 H 0.38019 1.00446 0.2102 0.0
H143 H 0.3287 0.88831 0.21357 0.0
C144 C 0.25279 0.76668 0.20014 0.0
C145 C 0.21819 0.79058 0.19944 0.0
C146 C 0.24799 0.85839 0.19844 0.0
C147 C 0.22013 0.88193 0.18927 0.0
C148 C 0.25203 0.94998 0.18726 0.0
C149 C 0.3091 0.99346 0.19485 0.0
C150 C 0.33593 0.97045 0.20421 0.0
C151 C 0.30603 0.90375 0.20592 0.0
H152 H 0.23269 0.9909 0.65691 0.0
C153 C 0.21906 0.02127 0.67247 0.0
H154 H 0.24602 0.10762 0.70566 0.0
H155 H 0.46093 0.15189 0.74981 0.0
H156 H 0.38528 0.10708 0.81163 0.0
H157 H 0.27853 0.05829 0.8174 0.0
H158 H 0.24653 0.05237 0.76102 0.0
C159 C 0.2565 0.07416 0.6917 0.0
C160 C 0.31909 0.09762 0.68738 0.0
C161 C 0.33671 0.10062 0.72059 0.0
C162 C 0.39836 0.13032 0.7176 0.0
C163 C 0.41484 0.13152 0.75091 0.0
C164 C 0.37184 0.10571 0.78646 0.0
C165 C 0.31172 0.07807 0.78967 0.0
C166 C 0.29401 0.07514 0.75715 0.0
H167 H 0.50313 0.27129 0.7179 0.0
C168 C 0.53196 0.25845 0.69912 0.0
H169 H 0.53615 0.1879 0.66148 0.0
H170 H 0.30237 0.10623 0.61812 0.0
H171 H 0.37754 0.14832 0.55666 0.0
H172 H 0.48343 0.19429 0.55102 0.0
H173 H 0.51439 0.19899 0.60735 0.0
C174 C 0.50764 0.20126 0.6802 0.0
C175 C 0.44222 0.15832 0.68167 0.0
C176 C 0.42424 0.15219 0.64793 0.0
C177 C 0.3628 0.12338 0.65092 0.0
C178 C 0.34736 0.12392 0.61746 0.0
C179 C 0.39045 0.14886 0.58188 0.0
C180 C 0.45005 0.17491 0.57873 0.0
C181 C 0.46715 0.17722 0.61133 0.0
H182 H 0.06042 0.20291 0.09043 0.0
C183 C 0.06592 0.16591 0.09133 0.0
H184 H 0.103 0.13767 0.1168 0.0
H185 H 0.30973 0.43098 0.15084 0.0
H186 H 0.36734 0.39778 0.10358 0.0
H187 H 0.31538 0.28948 0.07232 0.0
H188 H 0.20572 0.21369 0.08816 0.0
C189 C 0.09549 0.17316 0.11636 0.0
C190 C 0.12634 0.23441 0.13952 0.0
C191 C 0.19055 0.27762 0.13036 0.0
C192 C 0.22054 0.34043 0.14793 0.0
C193 C 0.28472 0.38308 0.13784 0.0
C194 C 0.31832 0.36455 0.11091 0.0
C195 C 0.28906 0.30354 0.09336 0.0
C196 C 0.22599 0.26044 0.10278 0.0
H197 H 0.2101 0.42634 0.24369 0.0
C198 C 0.22802 0.45726 0.21915 0.0
H199 H 0.23697 0.46196 0.15919 0.0
H200 H 0.00368 0.15825 0.16985 0.0
H201 H 0.94615 0.19072 0.21817 0.0
H202 H 0.9979 0.30139 0.24643 0.0
H203 H 0.10741 0.37993 0.22706 0.0
C204 C 0.21781 0.43069 0.18385 0.0
C205 C 0.18647 0.36017 0.17446 0.0
C206 C 0.12241 0.31513 0.18598 0.0
C207 C 0.09236 0.25186 0.16881 0.0
C208 C 0.02847 0.20742 0.1812 0.0
C209 C 0.99501 0.22534 0.20902 0.0
C210 C 0.02417 0.28763 0.22499 0.0
C211 C 0.0871 0.33227 0.21363 0.0
H212 H 0.97005 0.17087 0.60288 0.0
C213 C 0.94624 0.13131 0.5832 0.0
H214 H 0.86996 0.07589 0.55995 0.0
H215 H 0.84541 0.26465 0.71261 0.0
H216 H 0.84943 0.20386 0.75226 0.0
H217 H 0.86045 0.11771 0.72308 0.0
H218 H 0.86849 0.09251 0.65376 0.0
C219 C 0.89427 0.11536 0.57947 0.0
C220 C 0.87205 0.15496 0.59932 0.0
C221 C 0.86253 0.16567 0.64054 0.0
C222 C 0.85127 0.21192 0.65805 0.0
C223 C 0.84927 0.22679 0.6983 0.0
C224 C 0.8525 0.19292 0.72135 0.0
C225 C 0.8589 0.14454 0.70489 0.0
C226 C 0.86403 0.13099 0.66499 0.0
H227 H 0.75897 0.24115 0.6998 0.0
C228 C 0.78752 0.28407 0.68151 0.0
H229 H 0.86136 0.33767 0.63417 0.0
H230 H 0.88485 0.1445 0.51994 0.0
H231 H 0.86648 0.1933 0.48184 0.0
H232 H 0.83373 0.26176 0.51333 0.0
H233 H 0.82057 0.28314 0.58288 0.0
C234 C 0.83401 0.2937 0.65146 0.0
C235 C 0.84333 0.24267 0.63501 0.0
C236 C 0.84728 0.22714 0.5944 0.0
C237 C 0.86327 0.18492 0.57644 0.0
C238 C 0.87099 0.17439 0.53543 0.0
C239 C 0.86075 0.20227 0.51306 0.0
C240 C 0.8425 0.24097 0.53076 0.0
C241 C 0.83565 0.2533 0.57084 0.0
H242 H 0.82544 0.92543 0.05285 0.0
C243 C 0.84952 0.92908 0.07209 0.0
H244 H 0.84311 0.91025 0.12843 0.0
H245 H 0.60166 0.90641 0.16496 0.0
H246 H 0.6742 0.02147 0.14926 0.0
H247 H 0.78333 0.0726 0.1237 0.0
H248 H 0.82073 0.00907 0.11329 0.0
C249 C 0.8197 0.90894 0.10962 0.0
C250 C 0.75318 0.87871 0.12594 0.0
C251 C 0.73171 0.91641 0.13216 0.0
C252 C 0.66848 0.88691 0.14746 0.0
C253 C 0.64885 0.92607 0.15317 0.0
C254 C 0.69005 0.99224 0.14449 0.0
C255 C 0.75151 0.02104 0.13009 0.0
C256 C 0.77236 0.98389 0.12404 0.0
H257 H 0.54005 0.76781 0.22653 0.0
C258 C 0.52153 0.76377 0.20356 0.0
H259 H 0.54125 0.78516 0.14461 0.0
H260 H 0.77808 0.79263 0.12044 0.0
H261 H 0.70597 0.67853 0.13806 0.0
H262 H 0.59695 0.62757 0.16399 0.0
H263 H 0.55926 0.69033 0.17274 0.0
C264 C 0.55919 0.78744 0.16762 0.0
C265 C 0.62623 0.81977 0.15726 0.0
C266 C 0.64798 0.78262 0.15243 0.0
C267 C 0.71122 0.81209 0.13705 0.0
C268 C 0.73094 0.77315 0.13216 0.0
C269 C 0.68998 0.70747 0.14204 0.0
C270 C 0.62859 0.67877 0.15665 0.0
C271 C 0.60756 0.71553 0.16166 0.0
H272 H 0.93301 0.91146 0.60973 0.0
C273 C 0.93217 0.89162 0.58023 0.0
H274 H 0.9077 0.80865 0.5447 0.0
H275 H 0.90869 0.70238 0.69579 0.0
H276 H 0.01533 0.79462 0.6855 0.0
H277 H 0.06211 0.88036 0.63822 0.0
H278 H 0.00287 0.87577 0.60142 0.0
C279 C 0.90987 0.82858 0.57413 0.0
C280 C 0.88159 0.78172 0.6066 0.0
C281 C 0.91731 0.7849 0.62752 0.0
C282 C 0.89071 0.73417 0.65409 0.0
C283 C 0.9271 0.73892 0.67482 0.0
C284 C 0.98817 0.79159 0.66926 0.0
C285 C 0.01449 0.84007 0.64271 0.0
C286 C 0.97985 0.83689 0.62184 0.0
H287 H 0.84717 0.59174 0.63423 0.0
C288 C 0.81539 0.57847 0.66295 0.0
H289 H 0.76769 0.60625 0.70787 0.0
H290 H 0.79828 0.76386 0.57553 0.0
H291 H 0.69132 0.67312 0.58752 0.0
H292 H 0.64614 0.58481 0.63247 0.0
H293 H 0.70753 0.58671 0.66586 0.0
C294 C 0.80332 0.62038 0.68097 0.0
C295 C 0.82886 0.67964 0.65928 0.0
C296 C 0.7924 0.67858 0.64032 0.0
C297 C 0.8187 0.72937 0.61402 0.0
C298 C 0.78097 0.72627 0.59532 0.0
C299 C 0.71944 0.67458 0.60205 0.0
C300 C 0.69398 0.62489 0.62739 0.0
C301 C 0.72979 0.62655 0.64633 0.0
H302 H 0.14662 0.95732 0.48442 0.0
C303 C 0.12644 0.96336 0.46657 0.0
H304 H 0.10273 0.94005 0.4127 0.0
H305 H 0.2868 0.87297 0.32531 0.0
H306 H 0.32924 0.96845 0.29021 0.0
H307 H 0.28732 0.03005 0.31153 0.0
H308 H 0.20319 0.99706 0.36887 0.0
C309 C 0.1225 0.93436 0.43105 0.0
C310 C 0.14398 0.89296 0.41594 0.0
C311 C 0.19201 0.91136 0.38163 0.0
C312 C 0.21517 0.87447 0.36857 0.0
C313 C 0.26565 0.89703 0.33573 0.0
C314 C 0.29089 0.95228 0.31538 0.0
C315 C 0.2674 0.98709 0.32747 0.0
C316 C 0.21896 0.96748 0.36037 0.0
H317 H 0.20728 0.75405 0.32201 0.0
C318 C 0.2217 0.75159 0.34538 0.0
H319 H 0.23125 0.77973 0.40306 0.0
H320 H 0.04372 0.83587 0.47797 0.0
H321 H 0.99808 0.7377 0.51163 0.0
H322 H 0.03835 0.67447 0.48961 0.0
H323 H 0.12435 0.70895 0.43363 0.0
C324 C 0.217 0.78265 0.37959 0.0
C325 C 0.18895 0.81766 0.38917 0.0
C326 C 0.1387 0.7974 0.42223 0.0
C327 C 0.11596 0.83454 0.43538 0.0
C328 C 0.06443 0.81128 0.46759 0.0
C329 C 0.03726 0.75445 0.48699 0.0
C330 C 0.0599 0.71884 0.47457 0.0
C331 C 0.10966 0.73954 0.4425 0.0
H332 H 0.19597 0.13529 0.95882 0.0
C333 C 0.16881 0.11565 0.93782 0.0
H334 H 0.16762 0.10041 0.87853 0.0
H335 H 0.4396 0.32726 0.80326 0.0
H336 H 0.38331 0.34671 0.77919 0.0
H337 H 0.27208 0.28089 0.80229 0.0
H338 H 0.2165 0.19542 0.8497 0.0
C339 C 0.19563 0.12066 0.89905 0.0
C340 C 0.26331 0.15695 0.88269 0.0
C341 C 0.29572 0.20696 0.85447 0.0
C342 C 0.36034 0.2449 0.84073 0.0
C343 C 0.39089 0.2958 0.81389 0.0
C344 C 0.35909 0.30791 0.79998 0.0
C345 C 0.29647 0.27087 0.813 0.0
C346 C 0.26504 0.22151 0.84017 0.0
H347 H 0.47949 0.26145 0.78523 0.0
C348 C 0.49884 0.28678 0.81001 0.0
H349 H 0.48071 0.3022 0.87101 0.0
H350 H 0.21594 0.05367 0.92721 0.0
H351 H 0.27195 0.03087 0.94889 0.0
H352 H 0.38358 0.1001 0.92829 0.0
H353 H 0.43979 0.19187 0.88522 0.0
C354 C 0.46131 0.27827 0.84599 0.0
C355 C 0.39303 0.23286 0.85492 0.0
C356 C 0.3603 0.18041 0.88128 0.0
C357 C 0.29569 0.14167 0.89439 0.0
C358 C 0.26482 0.08699 0.91825 0.0
C359 C 0.29644 0.07272 0.93048 0.0
C360 C 0.35927 0.11161 0.91881 0.0
C361 C 0.39101 0.16453 0.89432 0.0
H362 H 0.15969 0.26127 0.48631 0.0
C363 C 0.13599 0.21176 0.47499 0.0
H364 H 0.10038 0.15255 0.42759 0.0
H365 H 0.09069 0.36896 0.38085 0.0
H366 H 0.98348 0.28246 0.40569 0.0
H367 H 0.95021 0.18392 0.43516 0.0
H368 H 0.02361 0.17133 0.44031 0.0
C369 C 0.12665 0.20166 0.43905 0.0
C370 C 0.14676 0.25761 0.41631 0.0
C371 C 0.10348 0.26411 0.41273 0.0
C372 C 0.12276 0.32137 0.39583 0.0
C373 C 0.07839 0.32684 0.39366 0.0
C374 C 0.01683 0.27753 0.40768 0.0
C375 C 0.99807 0.22202 0.42427 0.0
C376 C 0.04066 0.21526 0.42695 0.0
H377 H 0.22092 0.43248 0.31302 0.0
C378 C 0.2231 0.46282 0.33878 0.0
H379 H 0.20782 0.46911 0.40038 0.0
H380 H 0.24145 0.25715 0.41249 0.0
H381 H 0.34837 0.34288 0.38674 0.0
H382 H 0.38164 0.44259 0.35884 0.0
H383 H 0.30825 0.45709 0.35609 0.0
C384 C 0.20565 0.43868 0.37466 0.0
C385 C 0.18537 0.3724 0.38226 0.0
C386 C 0.22849 0.36402 0.38351 0.0
C387 C 0.20926 0.30668 0.40026 0.0
C388 C 0.25362 0.30009 0.40086 0.0
C389 C 0.31507 0.34878 0.38602 0.0
C390 C 0.33381 0.40492 0.37027 0.0
C391 C 0.29126 0.41273 0.36897 0.0
H392 H 0.94356 0.29515 0.89864 0.0
C393 C 0.90979 0.24307 0.90361 0.0
H394 H 0.82688 0.15754 0.89435 0.0
H395 H 0.70061 0.27891 0.89095 0.0
H396 H 0.64267 0.22055 0.95236 0.0
H397 H 0.67588 0.17242 0.9792 0.0
H398 H 0.76687 0.18191 0.9446 0.0
C399 C 0.85982 0.20987 0.89013 0.0
C400 C 0.84284 0.24255 0.87419 0.0
C401 C 0.78987 0.23736 0.89511 0.0
C402 C 0.77161 0.26656 0.88016 0.0
C403 C 0.71763 0.25918 0.90133 0.0
C404 C 0.68364 0.22547 0.93659 0.0
C405 C 0.70224 0.19826 0.95165 0.0
C406 C 0.7546 0.20394 0.93133 0.0
H407 H 0.77235 0.28817 0.77858 0.0
C408 C 0.76977 0.32257 0.79986 0.0
H409 H 0.78715 0.37252 0.85309 0.0
H410 H 0.94242 0.25506 0.82432 0.0
H411 H 0.00241 0.31656 0.76382 0.0
H412 H 0.97506 0.37419 0.74038 0.0
H413 H 0.88693 0.36961 0.77683 0.0
C414 C 0.78995 0.33786 0.83217 0.0
C415 C 0.80694 0.30215 0.84465 0.0
C416 C 0.85985 0.30724 0.82358 0.0
C417 C 0.87715 0.27627 0.83799 0.0
C418 C 0.9285 0.27953 0.81548 0.0
C419 C 0.9632 0.31446 0.78062 0.0
C420 C 0.94771 0.34679 0.76737 0.0
C421 C 0.89676 0.34346 0.78849 0.0
H422 H 0.73916 0.83233 0.36217 0.0
C423 C 0.75914 0.88246 0.37183 0.0
H424 H 0.75181 0.95932 0.37912 0.0
H425 H 0.60221 0.8651 0.2558 0.0
H426 H 0.6978 0.96384 0.22519 0.0
H427 H 0.78701 0.02159 0.25196 0.0
H428 H 0.78096 0.98159 0.30983 0.0
C429 C 0.73383 0.90979 0.36923 0.0
C430 C 0.68072 0.87327 0.35228 0.0
C431 C 0.68559 0.89684 0.31803 0.0
C432 C 0.63472 0.86269 0.30194 0.0
C433 C 0.63995 0.88832 0.26856 0.0
C434 C 0.69447 0.94505 0.25081 0.0
C435 C 0.74468 0.97766 0.26595 0.0
C436 C 0.74054 0.9542 0.29922 0.0
H437 H 0.49958 0.8261 0.34429 0.0
C438 C 0.48677 0.7868 0.32288 0.0
H439 H 0.50996 0.7276 0.28806 0.0
H440 H 0.65236 0.81942 0.42175 0.0
H441 H 0.55887 0.71745 0.4496 0.0
H442 H 0.47452 0.65227 0.41742 0.0
H443 H 0.48296 0.6898 0.35765 0.0
C444 C 0.52466 0.77145 0.30573 0.0
C445 C 0.58 0.80403 0.3194 0.0
C446 C 0.57569 0.77925 0.35284 0.0
C447 C 0.62533 0.81511 0.37021 0.0
C448 C 0.61756 0.79242 0.40588 0.0
C449 C 0.56373 0.7342 0.42252 0.0
C450 C 0.51619 0.69764 0.40449 0.0
C451 C 0.52167 0.71983 0.3702 0.0
H452 H 0.9123 0.86202 0.90868 0.0
C453 C 0.95461 0.88026 0.91455 0.0
H454 H 0.0277 0.8748 0.89853 0.0
H455 H 0.84054 0.57962 0.84976 0.0
H456 H 0.87327 0.56742 0.8994 0.0
H457 H 0.94563 0.66344 0.93349 0.0
H458 H 0.9859 0.77217 0.91801 0.0
C459 C 0.98572 0.85802 0.89295 0.0
C460 C 0.95803 0.80374 0.86474 0.0
C461 C 0.93652 0.74104 0.87342 0.0
C462 C 0.89434 0.68576 0.85413 0.0
C463 C 0.87203 0.62321 0.86403 0.0
C464 C 0.89064 0.61557 0.8923 0.0
C465 C 0.93142 0.66964 0.91147 0.0
C466 C 0.9541 0.73176 0.90236 0.0
H467 H 0.85373 0.62264 0.75837 0.0
C468 C 0.81437 0.60199 0.78326 0.0
H469 H 0.7771 0.61401 0.84172 0.0
H470 H 0.00563 0.91812 0.83304 0.0
H471 H 0.97954 0.93071 0.77923 0.0
H472 H 0.90414 0.83443 0.74689 0.0
H473 H 0.85455 0.72504 0.76795 0.0
C474 C 0.81644 0.636 0.81681 0.0
C475 C 0.87388 0.69345 0.8263 0.0
C476 C 0.90188 0.75648 0.81367 0.0
C477 C 0.94454 0.81191 0.83278 0.0
C478 C 0.97208 0.87462 0.81986 0.0
C479 C 0.95768 0.88236 0.78901 0.0
C480 C 0.91523 0.82813 0.77077 0.0
C481 C 0.8871 0.76571 0.78308 0.0
loop_
_geom_bond_atom_site_label_1
_geom_bond_atom_site_label_2
_geom_bond_distance
_geom_bond_site_symmetry_2
_ccdc_geom_bond_type
Tb0 C2 2.809 . S
Tb0 O20 2.484 . S
Tb0 O21 2.440 1_655 S
Tb0 O22 2.658 1_655 S
Tb0 O23 2.409 1_655 S
Tb0 O24 2.363 1_656 S
Tb0 O28 2.325 1_546 S
Tb0 O31 2.341 1_545 S
Tb1 C11 2.809 . S
Tb1 O22 2.325 1_564 S
Tb1 O25 2.341 1_565 S
Tb1 O26 2.484 . S
Tb1 O27 2.440 . S
Tb1 O28 2.658 1_455 S
Tb1 O29 2.409 1_455 S
Tb1 O30 2.378 1_455 S
C2 Tb0 2.809 . S
C2 C3 1.514 . S
C2 O20 1.248 . S
C2 O21 1.266 1_655 S
C3 C2 1.514 . S
C3 C4 1.359 . S
C3 C8 1.348 1_655 S
C4 C3 1.359 . S
C4 C5 1.380 . S
C4 H32 0.929 . S
C5 C4 1.380 . S
C5 C6 1.347 . S
C5 H33 0.931 . S
C6 C5 1.347 . S
C6 C7 1.369 . S
C7 C6 1.369 . S
C7 C8 1.398 1_655 S
C7 H34 0.930 1_655 S
C8 C3 1.348 1_455 S
C8 C7 1.398 1_455 S
C8 H35 0.942 . S
C9 O22 1.281 . S
C9 O23 1.254 . S
C10 O24 1.262 . S
C10 O25 1.266 . S
C11 Tb1 2.809 . S
C11 C12 1.514 . S
C11 O26 1.248 . S
C11 O27 1.266 . S
C12 C11 1.514 . S
C12 C13 1.359 . S
C12 C17 1.348 . S
C13 C12 1.359 . S
C13 C14 1.380 . S
C13 H36 0.929 . S
C14 C13 1.380 . S
C14 C15 1.347 . S
C14 H37 0.931 . S
C15 C14 1.347 . S
C15 C16 1.369 . S
C16 C15 1.369 . S
C16 C17 1.408 . S
C16 H38 0.930 1_455 S
C17 C12 1.348 . S
C17 C16 1.408 . S
C17 H39 0.930 1_455 S
C18 O28 1.281 . S
C18 O29 1.254 . S
C19 O30 1.236 1_556 S
C19 O31 1.266 . S
O20 Tb0 2.484 . S
O20 C2 1.248 . S
O21 Tb0 2.440 1_455 S
O21 C2 1.266 1_455 S
O22 Tb0 2.658 1_455 S
O22 Tb1 2.325 1_546 S
O22 C9 1.281 . S
O23 Tb0 2.409 1_455 S
O23 C9 1.254 . S
O24 Tb0 2.363 1_454 S
O24 C10 1.262 . S
O25 Tb1 2.341 1_545 S
O25 C10 1.266 . S
O26 Tb1 2.484 . S
O26 C11 1.248 . S
O27 Tb1 2.440 . S
O27 C11 1.266 . S
O28 Tb0 2.325 1_564 S
O28 Tb1 2.658 1_655 S
O28 C18 1.281 . S
O29 Tb1 2.409 1_655 S
O29 C18 1.254 . S
O30 Tb1 2.378 1_655 S
O30 C19 1.236 1_554 S
O31 Tb0 2.341 1_565 S
O31 C19 1.266 . S
H32 C4 0.929 . S
H33 C5 0.931 . S
H34 C7 0.930 1_455 S
H35 C8 0.942 . S
H36 C13 0.929 . S
H37 C14 0.931 . S
H38 C16 0.930 1_655 S
H39 C17 0.930 1_655 S
Tb40 C42 2.809 . S
Tb40 O60 2.484 . S
Tb40 O61 2.440 . S
Tb40 O62 2.658 . S
Tb40 O63 2.409 . S
Tb40 O64 2.378 . S
Tb40 O68 2.325 1_445 S
Tb40 O71 2.341 1_455 S
Tb41 C51 2.809 . S
Tb41 O62 2.325 1_665 S
Tb41 O65 2.341 1_655 S
Tb41 O66 2.484 . S
Tb41 O67 2.440 . S
Tb41 O68 2.658 . S
Tb41 O69 2.409 . S
Tb41 O70 2.378 . S
C42 Tb40 2.809 . S
C42 C43 1.514 . S
C42 O60 1.248 . S
C42 O61 1.266 . S
C43 C42 1.514 . S
C43 C44 1.359 . S
C43 C48 1.348 . S
C44 C43 1.359 . S
C44 C45 1.380 . S
C44 H72 0.929 . S
C45 C44 1.380 . S
C45 C46 1.347 . S
C45 H73 0.931 . S
C46 C45 1.347 . S
C46 C47 1.369 . S
C47 C46 1.369 . S
C47 C48 1.408 . S
C47 H74 0.930 . S
C48 C43 1.348 . S
C48 C47 1.408 . S
C48 H75 0.930 . S
C49 O62 1.281 . S
C49 O63 1.254 . S
C50 O64 1.236 1_565 S
C50 O65 1.266 . S
C51 Tb41 2.809 . S
C51 C52 1.514 . S
C51 O66 1.248 . S
C51 O67 1.266 . S
C52 C51 1.514 . S
C52 C53 1.359 . S
C52 C57 1.348 . S
C53 C52 1.359 . S
C53 C54 1.380 . S
C53 H76 0.929 1_565 S
C54 C53 1.380 . S
C54 C55 1.347 . S
C54 H77 0.931 . S
C55 C54 1.347 . S
C55 C56 1.369 . S
C56 C55 1.369 . S
C56 C57 1.408 . S
C56 H78 0.930 . S
C57 C52 1.348 . S
C57 C56 1.408 . S
C57 H79 0.930 . S
C58 O68 1.281 . S
C58 O69 1.254 . S
C59 O70 1.236 1_545 S
C59 O71 1.266 . S
O60 Tb40 2.484 . S
O60 C42 1.248 . S
O61 Tb40 2.440 . S
O61 C42 1.266 . S
O62 Tb40 2.658 . S
O62 Tb41 2.325 1_445 S
O62 C49 1.281 . S
O63 Tb40 2.409 . S
O63 C49 1.254 . S
O64 Tb40 2.378 . S
O64 C50 1.236 1_545 S
O65 Tb41 2.341 1_455 S
O65 C50 1.266 . S
O66 Tb41 2.484 . S
O66 C51 1.248 . S
O67 Tb41 2.440 . S
O67 C51 1.266 . S
O68 Tb40 2.325 1_665 S
O68 Tb41 2.658 . S
O68 C58 1.281 . S
O69 Tb41 2.409 . S
O69 C58 1.254 . S
O70 Tb41 2.378 . S
O70 C59 1.236 1_565 S
O71 Tb40 2.341 1_655 S
O71 C59 1.266 . S
H72 C44 0.929 . S
H73 C45 0.931 . S
H74 C47 0.930 . S
H75 C48 0.930 . S
H76 C53 0.929 1_545 S
H77 C54 0.931 . S
H78 C56 0.930 . S
H79 C57 0.930 . S
Zn80 O86 1.920 . S
Zn80 O92 1.898 . S
Zn80 O95 1.905 . S
Zn81 O89 1.905 . S
Zn81 O90 1.898 . S
Zn81 O98 1.920 . S
Zn82 O85 2.080 . S
Zn82 O88 2.114 . S
Zn82 O91 2.120 . S
Zn82 O93 2.120 . S
Zn82 O94 2.114 . S
Zn82 O97 2.080 . S
C83 O88 1.166 . S
C83 O89 1.182 . S
C84 O90 1.167 . S
C84 O91 1.299 . S
O85 Zn82 2.080 . S
O85 C99 1.305 . S
O86 Zn80 1.920 . S
O86 C99 1.234 . S
C87 O92 1.167 . S
C87 O93 1.299 . S
O88 Zn82 2.114 . S
O88 C83 1.166 . S
O89 Zn81 1.905 . S
O89 C83 1.182 . S
O90 Zn81 1.898 . S
O90 C84 1.167 . S
O91 Zn82 2.120 . S
O91 C84 1.299 . S
O92 Zn80 1.898 . S
O92 C87 1.167 . S
O93 Zn82 2.120 . S
O93 C87 1.299 . S
O94 Zn82 2.114 . S
O94 C96 1.166 . S
O95 Zn80 1.905 . S
O95 C96 1.182 . S
C96 O94 1.166 . S
C96 O95 1.182 . S
O97 Zn82 2.080 . S
O97 C100 1.305 . S
O98 Zn81 1.920 . S
O98 C100 1.234 . S
C99 O85 1.305 . S
C99 O86 1.234 . S
C100 O97 1.305 . S
C100 O98 1.234 . S
Zn101 O107 1.920 . S
Zn101 O113 1.898 . S
Zn101 O116 1.905 . S
Zn102 O110 1.905 . S
Zn102 O111 1.898 . S
Zn102 O119 1.920 . S
Zn103 O106 2.080 . S
Zn103 O109 2.114 . S
Zn103 O112 2.120 . S
Zn103 O114 2.120 . S
Zn103 O115 2.114 . S
Zn103 O118 2.080 . S
C104 O109 1.166 . S
C104 O110 1.182 . S
C105 O111 1.167 . S
C105 O112 1.299 . S
O106 Zn103 2.080 . S
O106 C120 1.305 . S
O107 Zn101 1.920 . S
O107 C120 1.234 . S
C108 O113 1.167 . S
C108 O114 1.299 . S
O109 Zn103 2.114 . S
O109 C104 1.166 . S
O110 Zn102 1.905 . S
O110 C104 1.182 . S
O111 Zn102 1.898 . S
O111 C105 1.167 . S
O112 Zn103 2.120 . S
O112 C105 1.299 . S
O113 Zn101 1.898 . S
O113 C108 1.167 . S
O114 Zn103 2.120 . S
O114 C108 1.299 . S
O115 Zn103 2.114 . S
O115 C117 1.166 . S
O116 Zn101 1.905 . S
O116 C117 1.182 . S
C117 O115 1.166 . S
C117 O116 1.182 . S
O118 Zn103 2.080 . S
O118 C121 1.305 . S
O119 Zn102 1.920 . S
O119 C121 1.234 . S
C120 O106 1.305 . S
C120 O107 1.234 . S
C121 O118 1.305 . S
C121 O119 1.234 . S
H122 C123 0.951 . S
C123 H122 0.951 . S
C123 C129 1.265 . S
H124 C129 0.950 . S
H125 C133 0.949 . S
H126 C134 0.950 . S
H127 C135 0.951 1_655 S
H128 C136 0.951 . S
C129 C123 1.265 . S
C129 H124 0.950 . S
C129 C130 1.478 . S
C130 C129 1.478 . S
C130 C131 1.397 . S
C130 C147 1.394 . S
C131 C130 1.397 . S
C131 C132 1.438 . S
C131 C136 1.429 . S
C132 C131 1.438 . S
C132 C133 1.428 . S
C132 C145 1.394 . S
C133 H125 0.949 . S
C133 C132 1.428 . S
C133 C134 1.345 . S
C134 H126 0.950 . S
C134 C133 1.345 . S
C134 C135 1.424 . S
C135 H127 0.951 1_455 S
C135 C134 1.424 . S
C135 C136 1.347 . S
C136 H128 0.951 . S
C136 C131 1.429 . S
C136 C135 1.347 . S
H137 C138 0.951 . S
C138 H137 0.951 . S
C138 C144 1.265 . S
H139 C144 0.950 . S
H140 C148 0.949 . S
H141 C149 0.950 . S
H142 C150 0.951 . S
H143 C151 0.951 . S
C144 C138 1.265 . S
C144 H139 0.950 . S
C144 C145 1.478 . S
C145 C132 1.394 . S
C145 C144 1.478 . S
C145 C146 1.397 . S
C146 C145 1.397 . S
C146 C147 1.438 . S
C146 C151 1.429 . S
C147 C130 1.394 . S
C147 C146 1.438 . S
C147 C148 1.428 . S
C148 H140 0.949 . S
C148 C147 1.428 . S
C148 C149 1.345 . S
C149 H141 0.950 . S
C149 C148 1.345 . S
C149 C150 1.424 . S
C150 H142 0.951 . S
C150 C149 1.424 . S
C150 C151 1.347 . S
C151 H143 0.951 . S
C151 C146 1.429 . S
C151 C150 1.347 . S
H152 C153 0.951 . S
C153 H152 0.951 . S
C153 C159 1.265 . S
H154 C159 0.950 . S
H155 C163 0.949 . S
H156 C164 0.950 . S
H157 C165 0.951 . S
H158 C166 0.951 . S
C159 C153 1.265 . S
C159 H154 0.950 . S
C159 C160 1.478 . S
C160 C159 1.478 . S
C160 C161 1.397 . S
C160 C177 1.394 . S
C161 C160 1.397 . S
C161 C162 1.438 . S
C161 C166 1.429 . S
C162 C161 1.438 . S
C162 C163 1.428 . S
C162 C175 1.394 . S
C163 H155 0.949 . S
C163 C162 1.428 . S
C163 C164 1.345 . S
C164 H156 0.950 . S
C164 C163 1.345 . S
C164 C165 1.424 . S
C165 H157 0.951 . S
C165 C164 1.424 . S
C165 C166 1.347 . S
C166 H158 0.951 . S
C166 C161 1.429 . S
C166 C165 1.347 . S
H167 C168 0.951 . S
C168 H167 0.951 . S
C168 C174 1.265 . S
H169 C174 0.950 . S
H170 C178 0.949 . S
H171 C179 0.950 . S
H172 C180 0.951 . S
H173 C181 0.951 . S
C174 C168 1.265 . S
C174 H169 0.950 . S
C174 C175 1.478 . S
C175 C162 1.394 . S
C175 C174 1.478 . S
C175 C176 1.397 . S
C176 C175 1.397 . S
C176 C177 1.438 . S
C176 C181 1.429 . S
C177 C160 1.394 . S
C177 C176 1.438 . S
C177 C178 1.428 . S
C178 H170 0.949 . S
C178 C177 1.428 . S
C178 C179 1.345 . S
C179 H171 0.950 . S
C179 C178 1.345 . S
C179 C180 1.424 . S
C180 H172 0.951 . S
C180 C179 1.424 . S
C180 C181 1.347 . S
C181 H173 0.951 . S
C181 C176 1.429 . S
C181 C180 1.347 . S
H182 C183 0.951 . S
C183 H182 0.951 . S
C183 C189 1.265 . S
H184 C189 0.950 . S
H185 C193 0.949 . S
H186 C194 0.950 . S
H187 C195 0.977 . S
H188 C196 0.951 . S
C189 C183 1.265 . S
C189 H184 0.950 . S
C189 C190 1.478 . S
C190 C189 1.478 . S
C190 C191 1.397 . S
C190 C207 1.394 . S
C191 C190 1.397 . S
C191 C192 1.438 . S
C191 C196 1.429 . S
C192 C191 1.438 . S
C192 C193 1.428 . S
C192 C205 1.394 . S
C193 H185 0.949 . S
C193 C192 1.428 . S
C193 C194 1.345 . S
C194 H186 0.950 . S
C194 C193 1.345 . S
C194 C195 1.424 . S
C195 H187 0.977 . S
C195 C194 1.424 . S
C195 C196 1.347 . S
C196 H188 0.951 . S
C196 C191 1.429 . S
C196 C195 1.347 . S
H197 C198 0.951 . S
C198 H197 0.951 . S
C198 C204 1.265 . S
H199 C204 0.950 . S
H200 C208 0.949 . S
H201 C209 0.950 1_655 S
H202 C210 0.951 . S
H203 C211 0.951 . S
C204 C198 1.265 . S
C204 H199 0.950 . S
C204 C205 1.478 . S
C205 C192 1.394 . S
C205 C204 1.478 . S
C205 C206 1.397 . S
C206 C205 1.397 . S
C206 C207 1.438 . S
C206 C211 1.429 . S
C207 C190 1.394 . S
C207 C206 1.438 . S
C207 C208 1.428 . S
C208 H200 0.949 . S
C208 C207 1.428 . S
C208 C209 1.345 . S
C209 H201 0.950 1_455 S
C209 C208 1.345 . S
C209 C210 1.424 . S
C210 H202 0.951 . S
C210 C209 1.424 . S
C210 C211 1.347 . S
C211 H203 0.951 . S
C211 C206 1.429 . S
C211 C210 1.347 . S
H212 C213 0.951 . S
C213 H212 0.951 . S
C213 C219 1.265 . S
H214 C219 0.950 . S
H215 C223 0.949 . S
H216 C224 0.950 . S
H217 C225 0.951 . S
H218 C226 0.951 . S
C219 C213 1.265 . S
C219 H214 0.950 . S
C219 C220 1.478 . S
C220 C219 1.478 . S
C220 C221 1.397 . S
C220 C237 1.394 . S
C221 C220 1.397 . S
C221 C222 1.438 . S
C221 C226 1.429 . S
C222 C221 1.438 . S
C222 C223 1.428 . S
C222 C235 1.394 . S
C223 H215 0.949 . S
C223 C222 1.428 . S
C223 C224 1.345 . S
C224 H216 0.950 . S
C224 C223 1.345 . S
C224 C225 1.424 . S
C225 H217 0.951 . S
C225 C224 1.424 . S
C225 C226 1.347 . S
C226 H218 0.951 . S
C226 C221 1.429 . S
C226 C225 1.347 . S
H227 C228 0.951 . S
C228 H227 0.951 . S
C228 C234 1.265 . S
H229 C234 0.950 . S
H230 C238 0.949 . S
H231 C239 0.950 . S
H232 C240 0.951 . S
H233 C241 0.951 . S
C234 C228 1.265 . S
C234 H229 0.950 . S
C234 C235 1.478 . S
C235 C222 1.394 . S
C235 C234 1.478 . S
C235 C236 1.397 . S
C236 C235 1.397 . S
C236 C237 1.438 . S
C236 C241 1.429 . S
C237 C220 1.394 . S
C237 C236 1.438 . S
C237 C238 1.428 . S
C238 H230 0.949 . S
C238 C237 1.428 . S
C238 C239 1.345 . S
C239 H231 0.950 . S
C239 C238 1.345 . S
C239 C240 1.424 . S
C240 H232 0.951 . S
C240 C239 1.424 . S
C240 C241 1.347 . S
C241 H233 0.951 . S
C241 C236 1.429 . S
C241 C240 1.347 . S
H242 C243 0.951 . S
C243 H242 0.951 . S
C243 C249 1.265 . S
H244 C249 0.950 . S
H245 C253 0.949 . S
H246 C254 0.950 1_545 S
H247 C255 0.951 . S
H248 C256 0.951 1_545 S
C249 C243 1.265 . S
C249 H244 0.950 . S
C249 C250 1.478 . S
C250 C249 1.478 . S
C250 C251 1.397 . S
C250 C267 1.394 . S
C251 C250 1.397 . S
C251 C252 1.438 . S
C251 C256 1.429 . S
C252 C251 1.438 . S
C252 C253 1.428 . S
C252 C265 1.394 . S
C253 H245 0.949 . S
C253 C252 1.428 . S
C253 C254 1.345 . S
C254 H246 0.950 1_565 S
C254 C253 1.345 . S
C254 C255 1.424 1_565 S
C255 H247 0.951 . S
C255 C254 1.424 1_545 S
C255 C256 1.347 1_545 S
C256 H248 0.951 1_565 S
C256 C251 1.429 . S
C256 C255 1.347 1_565 S
H257 C258 0.951 . S
C258 H257 0.951 . S
C258 C264 1.265 . S
H259 C264 0.950 . S
H260 C268 0.949 . S
H261 C269 0.950 . S
H262 C270 0.951 . S
H263 C271 0.951 . S
C264 C258 1.265 . S
C264 H259 0.950 . S
C264 C265 1.478 . S
C265 C252 1.394 . S
C265 C264 1.478 . S
C265 C266 1.397 . S
C266 C265 1.397 . S
C266 C267 1.438 . S
C266 C271 1.429 . S
C267 C250 1.394 . S
C267 C266 1.438 . S
C267 C268 1.428 . S
C268 H260 0.949 . S
C268 C267 1.428 . S
C268 C269 1.345 . S
C269 H261 0.950 . S
C269 C268 1.345 . S
C269 C270 1.424 . S
C270 H262 0.951 . S
C270 C269 1.424 . S
C270 C271 1.347 . S
C271 H263 0.951 . S
C271 C266 1.429 . S
C271 C270 1.347 . S
H272 C273 0.951 . S
C273 H272 0.951 . S
C273 C279 1.265 . S
H274 C279 0.950 . S
H275 C283 0.949 . S
H276 C284 0.950 . S
H277 C285 0.951 1_455 S
H278 C286 0.951 . S
C279 C273 1.265 . S
C279 H274 0.950 . S
C279 C280 1.478 . S
C280 C279 1.478 . S
C280 C281 1.397 . S
C280 C297 1.394 . S
C281 C280 1.397 . S
C281 C282 1.438 . S
C281 C286 1.429 . S
C282 C281 1.438 . S
C282 C283 1.428 . S
C282 C295 1.394 . S
C283 H275 0.949 . S
C283 C282 1.428 . S
C283 C284 1.345 . S
C284 H276 0.950 . S
C284 C283 1.345 . S
C284 C285 1.424 . S
C285 H277 0.951 1_655 S
C285 C284 1.424 . S
C285 C286 1.347 . S
C286 H278 0.951 . S
C286 C281 1.429 . S
C286 C285 1.347 . S
H287 C288 0.951 . S
C288 H287 0.951 . S
C288 C294 1.265 . S
H289 C294 0.950 . S
H290 C298 0.949 . S
H291 C299 0.950 . S
H292 C300 0.951 . S
H293 C301 0.951 . S
C294 C288 1.265 . S
C294 H289 0.950 . S
C294 C295 1.478 . S
C295 C282 1.394 . S
C295 C294 1.478 . S
C295 C296 1.397 . S
C296 C295 1.397 . S
C296 C297 1.438 . S
C296 C301 1.429 . S
C297 C280 1.394 . S
C297 C296 1.438 . S
C297 C298 1.428 . S
C298 H290 0.949 . S
C298 C297 1.428 . S
C298 C299 1.345 . S
C299 H291 0.950 . S
C299 C298 1.345 . S
C299 C300 1.424 . S
C300 H292 0.951 . S
C300 C299 1.424 . S
C300 C301 1.347 . S
C301 H293 0.951 . S
C301 C296 1.429 . S
C301 C300 1.347 . S
H302 C303 0.951 . S
C303 H302 0.951 . S
C303 C309 1.265 . S
H304 C309 0.950 . S
H305 C313 0.949 . S
H306 C314 0.950 . S
H307 C315 0.951 . S
H308 C316 0.951 . S
C309 C303 1.265 . S
C309 H304 0.950 . S
C309 C310 1.478 . S
C310 C309 1.478 . S
C310 C311 1.397 . S
C310 C327 1.394 . S
C311 C310 1.397 . S
C311 C312 1.438 . S
C311 C316 1.429 . S
C312 C311 1.438 . S
C312 C313 1.428 . S
C312 C325 1.394 . S
C313 H305 0.949 . S
C313 C312 1.428 . S
C313 C314 1.345 . S
C314 H306 0.950 . S
C314 C313 1.345 . S
C314 C315 1.424 . S
C315 H307 0.951 . S
C315 C314 1.424 . S
C315 C316 1.347 . S
C316 H308 0.951 . S
C316 C311 1.429 . S
C316 C315 1.347 . S
H317 C318 0.951 . S
C318 H317 0.951 . S
C318 C324 1.265 . S
H319 C324 0.950 . S
H320 C328 0.949 . S
H321 C329 0.950 . S
H322 C330 0.951 . S
H323 C331 0.951 . S
C324 C318 1.265 . S
C324 H319 0.950 . S
C324 C325 1.478 . S
C325 C312 1.394 . S
C325 C324 1.478 . S
C325 C326 1.397 . S
C326 C325 1.397 . S
C326 C327 1.438 . S
C326 C331 1.429 . S
C327 C310 1.394 . S
C327 C326 1.438 . S
C327 C328 1.428 . S
C328 H320 0.949 . S
C328 C327 1.428 . S
C328 C329 1.345 . S
C329 H321 0.950 . S
C329 C328 1.345 . S
C329 C330 1.424 . S
C330 H322 0.951 . S
C330 C329 1.424 . S
C330 C331 1.347 . S
C331 H323 0.951 . S
C331 C326 1.429 . S
C331 C330 1.347 . S
H332 C333 0.951 . S
C333 H332 0.951 . S
C333 C339 1.265 . S
H334 C339 0.950 . S
H335 C343 0.949 . S
H336 C344 0.950 . S
H337 C345 0.951 . S
H338 C346 0.951 . S
C339 C333 1.265 . S
C339 H334 0.950 . S
C339 C340 1.478 . S
C340 C339 1.478 . S
C340 C341 1.397 . S
C340 C357 1.394 . S
C341 C340 1.397 . S
C341 C342 1.438 . S
C341 C346 1.429 . S
C342 C341 1.438 . S
C342 C343 1.428 . S
C342 C355 1.394 . S
C343 H335 0.949 . S
C343 C342 1.428 . S
C343 C344 1.345 . S
C344 H336 0.950 . S
C344 C343 1.345 . S
C344 C345 1.424 . S
C345 H337 0.951 . S
C345 C344 1.424 . S
C345 C346 1.347 . S
C346 H338 0.951 . S
C346 C341 1.429 . S
C346 C345 1.347 . S
H347 C348 0.951 . S
C348 H347 0.951 . S
C348 C354 1.265 . S
H349 C354 0.950 . S
H350 C358 0.949 . S
H351 C359 0.950 . S
H352 C360 0.951 . S
H353 C361 0.951 . S
C354 C348 1.265 . S
C354 H349 0.950 . S
C354 C355 1.478 . S
C355 C342 1.394 . S
C355 C354 1.478 . S
C355 C356 1.397 . S
C356 C355 1.397 . S
C356 C357 1.438 . S
C356 C361 1.429 . S
C357 C340 1.394 . S
C357 C356 1.438 . S
C357 C358 1.428 . S
C358 H350 0.949 . S
C358 C357 1.428 . S
C358 C359 1.345 . S
C359 H351 0.950 . S
C359 C358 1.345 . S
C359 C360 1.424 . S
C360 H352 0.951 . S
C360 C359 1.424 . S
C360 C361 1.347 . S
C361 H353 0.951 . S
C361 C356 1.429 . S
C361 C360 1.347 . S
H362 C363 0.951 . S
C363 H362 0.951 . S
C363 C369 1.265 . S
H364 C369 0.950 . S
H365 C373 0.949 . S
H366 C374 0.950 . S
H367 C375 0.951 1_655 S
H368 C376 0.951 . S
C369 C363 1.265 . S
C369 H364 0.950 . S
C369 C370 1.478 . S
C370 C369 1.478 . S
C370 C371 1.397 . S
C370 C387 1.394 . S
C371 C370 1.397 . S
C371 C372 1.438 . S
C371 C376 1.429 . S
C372 C371 1.438 . S
C372 C373 1.428 . S
C372 C385 1.394 . S
C373 H365 0.949 . S
C373 C372 1.428 . S
C373 C374 1.345 . S
C374 H366 0.950 . S
C374 C373 1.345 . S
C374 C375 1.424 . S
C375 H367 0.951 1_455 S
C375 C374 1.424 . S
C375 C376 1.347 . S
C376 H368 0.951 . S
C376 C371 1.429 . S
C376 C375 1.347 . S
H377 C378 0.951 . S
C378 H377 0.951 . S
C378 C384 1.265 . S
H379 C384 0.950 . S
H380 C388 0.949 . S
H381 C389 0.950 . S
H382 C390 0.951 . S
H383 C391 0.951 . S
C384 C378 1.265 . S
C384 H379 0.950 . S
C384 C385 1.478 . S
C385 C372 1.394 . S
C385 C384 1.478 . S
C385 C386 1.397 . S
C386 C385 1.397 . S
C386 C387 1.438 . S
C386 C391 1.429 . S
C387 C370 1.394 . S
C387 C386 1.438 . S
C387 C388 1.428 . S
C388 H380 0.949 . S
C388 C387 1.428 . S
C388 C389 1.345 . S
C389 H381 0.950 . S
C389 C388 1.345 . S
C389 C390 1.424 . S
C390 H382 0.951 . S
C390 C389 1.424 . S
C390 C391 1.347 . S
C391 H383 0.951 . S
C391 C386 1.429 . S
C391 C390 1.347 . S
H392 C393 0.951 . S
C393 H392 0.951 . S
C393 C399 1.265 . S
H394 C399 0.950 . S
H395 C403 0.949 . S
H396 C404 0.950 . S
H397 C405 0.951 . S
H398 C406 0.951 . S
C399 C393 1.265 . S
C399 H394 0.950 . S
C399 C400 1.478 . S
C400 C399 1.478 . S
C400 C401 1.397 . S
C400 C417 1.394 . S
C401 C400 1.397 . S
C401 C402 1.438 . S
C401 C406 1.429 . S
C402 C401 1.438 . S
C402 C403 1.428 . S
C402 C415 1.394 . S
C403 H395 0.949 . S
C403 C402 1.428 . S
C403 C404 1.345 . S
C404 H396 0.950 . S
C404 C403 1.345 . S
C404 C405 1.424 . S
C405 H397 0.951 . S
C405 C404 1.424 . S
C405 C406 1.347 . S
C406 H398 0.951 . S
C406 C401 1.429 . S
C406 C405 1.347 . S
H407 C408 0.951 . S
C408 H407 0.951 . S
C408 C414 1.265 . S
H409 C414 0.950 . S
H410 C418 0.949 . S
H411 C419 0.950 . S
H412 C420 0.951 . S
H413 C421 0.951 . S
C414 C408 1.265 . S
C414 H409 0.950 . S
C414 C415 1.478 . S
C415 C402 1.394 . S
C415 C414 1.478 . S
C415 C416 1.397 . S
C416 C415 1.397 . S
C416 C417 1.438 . S
C416 C421 1.429 . S
C417 C400 1.394 . S
C417 C416 1.438 . S
C417 C418 1.428 . S
C418 H410 0.949 . S
C418 C417 1.428 . S
C418 C419 1.345 . S
C419 H411 0.950 . S
C419 C418 1.345 . S
C419 C420 1.424 . S
C420 H412 0.951 . S
C420 C419 1.424 . S
C420 C421 1.347 . S
C421 H413 0.951 . S
C421 C416 1.429 . S
C421 C420 1.347 . S
H422 C423 0.951 . S
C423 H422 0.951 . S
C423 C429 1.265 . S
H424 C429 0.950 . S
H425 C433 0.949 . S
H426 C434 0.950 . S
H427 C435 0.951 . S
H428 C436 0.951 . S
C429 C423 1.265 . S
C429 H424 0.950 . S
C429 C430 1.478 . S
C430 C429 1.478 . S
C430 C431 1.397 . S
C430 C447 1.394 . S
C431 C430 1.397 . S
C431 C432 1.438 . S
C431 C436 1.429 . S
C432 C431 1.438 . S
C432 C433 1.428 . S
C432 C445 1.394 . S
C433 H425 0.949 . S
C433 C432 1.428 . S
C433 C434 1.345 . S
C434 H426 0.950 . S
C434 C433 1.345 . S
C434 C435 1.424 . S
C435 H427 0.951 . S
C435 C434 1.424 . S
C435 C436 1.347 . S
C436 H428 0.951 . S
C436 C431 1.429 . S
C436 C435 1.347 . S
H437 C438 0.951 . S
C438 H437 0.951 . S
C438 C444 1.265 . S
H439 C444 0.950 . S
H440 C448 0.949 . S
H441 C449 0.950 . S
H442 C450 0.951 . S
H443 C451 0.951 . S
C444 C438 1.265 . S
C444 H439 0.950 . S
C444 C445 1.478 . S
C445 C432 1.394 . S
C445 C444 1.478 . S
C445 C446 1.397 . S
C446 C445 1.397 . S
C446 C447 1.438 . S
C446 C451 1.429 . S
C447 C430 1.394 . S
C447 C446 1.438 . S
C447 C448 1.428 . S
C448 H440 0.949 . S
C448 C447 1.428 . S
C448 C449 1.345 . S
C449 H441 0.950 . S
C449 C448 1.345 . S
C449 C450 1.424 . S
C450 H442 0.951 . S
C450 C449 1.424 . S
C450 C451 1.347 . S
C451 H443 0.951 . S
C451 C446 1.429 . S
C451 C450 1.347 . S
H452 C453 0.951 . S
C453 H452 0.951 . S
C453 C459 1.265 . S
H454 C459 0.950 . S
H455 C463 0.949 . S
H456 C464 0.950 . S
H457 C465 0.951 1_554 S
H458 C466 0.951 . S
C459 C453 1.265 . S
C459 H454 0.950 . S
C459 C460 1.478 . S
C460 C459 1.478 . S
C460 C461 1.397 . S
C460 C477 1.394 . S
C461 C460 1.397 . S
C461 C462 1.438 . S
C461 C466 1.429 . S
C462 C461 1.438 . S
C462 C463 1.428 . S
C462 C475 1.394 . S
C463 H455 0.949 . S
C463 C462 1.428 . S
C463 C464 1.345 . S
C464 H456 0.950 . S
C464 C463 1.345 . S
C464 C465 1.424 . S
C465 H457 0.951 1_556 S
C465 C464 1.424 . S
C465 C466 1.347 . S
C466 H458 0.951 . S
C466 C461 1.429 . S
C466 C465 1.347 . S
H467 C468 0.951 . S
C468 H467 0.951 . S
C468 C474 1.265 . S
H469 C474 0.950 . S
H470 C478 0.949 . S
H471 C479 0.950 1_455 S
H472 C480 0.951 . S
H473 C481 0.951 . S
C474 C468 1.265 . S
C474 H469 0.950 . S
C474 C475 1.478 . S
C475 C462 1.394 . S
C475 C474 1.478 . S
C475 C476 1.397 . S
C476 C475 1.397 . S
C476 C477 1.438 . S
C476 C481 1.429 . S
C477 C460 1.394 . S
C477 C476 1.438 . S
C477 C478 1.428 . S
C478 H470 0.949 . S
C478 C477 1.428 . S
C478 C479 1.345 . S
C479 H471 0.950 1_655 S
C479 C478 1.345 . S
C479 C480 1.424 . S
C480 H472 0.951 . S
C480 C479 1.424 . S
C480 C481 1.347 . S
C481 H473 0.951 . S
C481 C476 1.429 . S
C481 C480 1.347 . S
C123 C15 1.285 . S
C138 C99 1.267 . S
C153 C46 1.025 . S
C168 C105 0.985 . S
C183 C10 1.364 . S
C198 C96 1.267 . S
C213 C59 2.065 . S
C228 C121 1.932 . S
C243 C18 2.063 . S
C258 C87 2.000 . S
C288 C104 1.810 . S
C273 C58 1.918 . S
C303 C50 1.863 . S
C318 C100 1.751 . S
C348 C117 2.084 . S
C333 C9 2.158 . S
C378 C84 2.112 . S
C363 C49 2.221 . S
C408 C120 1.288 . S
C393 C6 1.429 . S
C438 C83 0.839 . S
C423 C55 0.929 . S
C468 C108 0.995 . S
C453 C19 1.029 . S
