# Generated by pormake.
# Topology pth, (4,4)-cn, num edge types: 1
# Building blocks:
#     Node 0, Type 0, BuildingBlock: TATPOV_clean_sbu_0, # of connection points: 4
#     Node 1, Type 0, BuildingBlock: TATPOV_clean_sbu_0, # of connection points: 4
#     Node 2, Type 0, BuildingBlock: TATPOV_clean_sbu_0, # of connection points: 4
#     Node 3, Type 1, BuildingBlock: NAWXER_clean_sbu_0, # of connection points: 4
#     Node 4, Type 1, BuildingBlock: NAWXER_clean_sbu_0, # of connection points: 4
#     Node 5, Type 1, BuildingBlock: NAWXER_clean_sbu_0, # of connection points: 4
#     Edge 6, Type (0, 1), BuildingBlock: ZUJKAS_clean_linker_0, # of connection points: 2
#     Edge 7, Type (0, 1), BuildingBlock: ZUJKAS_clean_linker_0, # of connection points: 2
#     Edge 8, Type (0, 1), BuildingBlock: ZUJKAS_clean_linker_0, # of connection points: 2
#     Edge 9, Type (0, 1), BuildingBlock: ZUJKAS_clean_linker_0, # of connection points: 2
#     Edge 10, Type (0, 1), BuildingBlock: ZUJKAS_clean_linker_0, # of connection points: 2
#     Edge 11, Type (0, 1), BuildingBlock: ZUJKAS_clean_linker_0, # of connection points: 2
#     Edge 12, Type (0, 1), BuildingBlock: ZUJKAS_clean_linker_0, # of connection points: 2
#     Edge 13, Type (0, 1), BuildingBlock: ZUJKAS_clean_linker_0, # of connection points: 2
#     Edge 14, Type (0, 1), BuildingBlock: ZUJKAS_clean_linker_0, # of connection points: 2
#     Edge 15, Type (0, 1), BuildingBlock: ZUJKAS_clean_linker_0, # of connection points: 2
#     Edge 16, Type (0, 1), BuildingBlock: ZUJKAS_clean_linker_0, # of connection points: 2
#     Edge 17, Type (0, 1), BuildingBlock: ZUJKAS_clean_linker_0, # of connection points: 2
# Relax obj value: 0.048
# Max RMSD: 0.171
# Mean RMSD: 0.098
data_MOF--net-pth--node1-TATPOV_clean_sbu_0--node2-NAWXER_clean_sbu_0--edge1-ZUJKAS_clean_linker_0
_symmetry_space_group_name_H-M    P1
_symmetry_Int_Tables_number       1
_symmetry_cell_setting            triclinic
loop_
_symmetry_equiv_pos_as_xyz
'x, y, z'
_cell_length_a     30.102832
_cell_length_b     29.835282
_cell_length_c     73.501681
_cell_angle_alpha  92.675959
_cell_angle_beta   92.186573
_cell_angle_gamma 120.90885
loop_
_atom_site_label
_atom_site_type_symbol
_atom_site_fract_x
_atom_site_fract_y
_atom_site_fract_z
_atom_type_partial_charge
Zn0 Zn 0.12558 0.02099 0.05477 0.0
Zn1 Zn 0.09502 0.07467 0.07547 0.0
O2 O 0.10548 0.02941 0.09374 0.0
O3 O 0.12897 0.98398 0.07643 0.0
O4 O 0.07546 0.11855 0.09106 0.0
O5 O 0.18894 0.08674 0.04857 0.0
O6 O 0.15981 0.131 0.06349 0.0
C7 C 0.11851 0.99502 0.09192 0.0
C8 C 0.02393 0.00171 0.04318 0.0
O9 O 0.03131 0.03168 0.05734 0.0
O10 O 0.05875 0.99212 0.03888 0.0
C11 C 0.03805 0.09851 0.10138 0.0
O12 O 0.01122 0.0474 0.10212 0.0
C13 C 0.19328 0.13001 0.05361 0.0
Zn14 Zn 0.14128 0.10669 0.38384 0.0
Zn15 Zn 0.06734 0.08184 0.40685 0.0
O16 O 0.12951 0.09382 0.42383 0.0
O17 O 0.18791 0.10684 0.40428 0.0
O18 O 0.01067 0.06683 0.42366 0.0
O19 O 0.14353 0.1731 0.37852 0.0
O20 O 0.07593 0.14695 0.39488 0.0
C21 C 0.17428 0.10199 0.42051 0.0
C22 C 0.04913 0.00636 0.37407 0.0
O23 O 0.03515 0.01502 0.38933 0.0
O24 O 0.09176 0.04037 0.36826 0.0
C25 C 0.99085 0.0281 0.43349 0.0
O26 O 0.00838 0.99584 0.4332 0.0
C27 C 0.10821 0.17957 0.38451 0.0
Zn28 Zn 0.10211 0.96315 0.75987 0.0
Zn29 Zn 0.04994 0.99103 0.73752 0.0
O30 O 0.09538 0.9781 0.72007 0.0
O31 O 0.14039 0.95807 0.73877 0.0
O32 O 0.00605 0.00793 0.72115 0.0
O33 O 0.03678 0.89955 0.76622 0.0
O34 O 0.99385 0.92723 0.75001 0.0
C35 C 0.12977 0.96579 0.72281 0.0
C36 C 0.11915 0.06613 0.76966 0.0
O37 O 0.09131 0.05744 0.75494 0.0
O38 O 0.12815 0.03163 0.77502 0.0
C39 C 0.02458 0.04722 0.71157 0.0
O40 O 0.07517 0.07851 0.71183 0.0
C41 C 0.99416 0.89463 0.76057 0.0
C42 C 0.95817 0.574 0.26219 0.0
C43 C 0.97896 0.46257 0.21672 0.0
O44 O 0.00566 0.58788 0.26037 0.0
Zn45 Zn 0.04928 0.56497 0.24396 0.0
O46 O 0.9221 0.53579 0.25209 0.0
Zn47 Zn 0.96733 0.51928 0.23896 0.0
O48 O 8e-05 0.49564 0.26056 0.0
O49 O 0.08519 0.54926 0.26231 0.0
O50 O 0.93701 0.45937 0.22106 0.0
O51 O 0.02234 0.4999 0.22421 0.0
O52 O 0.08951 0.62552 0.23051 0.0
O53 O 0.00551 0.58582 0.22299 0.0
C54 C 0.04527 0.51046 0.26804 0.0
C55 C 0.05197 0.62329 0.22117 0.0
C56 C 0.64738 0.08099 0.59793 0.0
C57 C 0.53433 0.09056 0.55072 0.0
O58 O 0.61174 0.03586 0.59081 0.0
Zn59 Zn 0.54781 0.00375 0.57048 0.0
O60 O 0.64921 0.12192 0.59273 0.0
Zn61 Zn 0.5911 0.08705 0.57451 0.0
O62 O 0.52536 0.04871 0.59051 0.0
O63 O 0.48783 0.96339 0.58431 0.0
O64 O 0.57267 0.12862 0.56011 0.0
O65 O 0.52216 0.04346 0.55327 0.0
O66 O 0.56758 0.96767 0.55303 0.0
O67 O 0.6193 0.05364 0.55485 0.0
C68 C 0.48908 0.00197 0.59296 0.0
C69 C 0.60734 0.00812 0.548 0.0
C70 C 0.50094 0.50673 0.93078 0.0
C71 C 0.60675 0.60564 0.88255 0.0
O72 O 0.48872 0.53956 0.92535 0.0
Zn73 Zn 0.51283 0.59651 0.90503 0.0
O74 O 0.53631 0.50301 0.92325 0.0
Zn75 Zn 0.55368 0.55624 0.90667 0.0
O76 O 0.58398 0.6252 0.92481 0.0
O77 O 0.53746 0.662 0.91963 0.0
O78 O 0.60945 0.57172 0.89155 0.0
O79 O 0.57293 0.61817 0.88618 0.0
O80 O 0.45002 0.56818 0.88896 0.0
O81 O 0.48781 0.52139 0.88734 0.0
C82 C 0.57462 0.66188 0.92837 0.0
C83 C 0.45164 0.52936 0.88194 0.0
H84 H 0.96502 0.0694 0.12654 0.0
H85 H 0.94487 0.12609 0.14513 0.0
H86 H 0.06165 0.26095 0.12009 0.0
H87 H 0.08191 0.20474 0.1014 0.0
H88 H 0.01359 0.21015 0.17014 0.0
H89 H 0.93331 0.27625 0.11549 0.0
H90 H 0.94016 0.21978 0.11211 0.0
H91 H 0.99545 0.28469 0.11127 0.0
C92 C 0.9862 0.11108 0.12489 0.0
C93 C 0.02504 0.13251 0.11245 0.0
C94 C 0.97459 0.14338 0.13552 0.0
C95 C 0.00119 0.19759 0.13378 0.0
C96 C 0.0399 0.21908 0.12138 0.0
H97 H 0.06202 0.4561 0.20695 0.0
H98 H 0.06208 0.3887 0.18691 0.0
C99 C 0.05168 0.18689 0.11079 0.0
C100 C 0.99062 0.23217 0.14563 0.0
H101 H 0.95578 0.32454 0.14466 0.0
C102 C 0.0004 0.23473 0.16459 0.0
C103 C 0.97284 0.26377 0.13838 0.0
C104 C 0.95932 0.26076 0.11821 0.0
C105 C 0.99496 0.26964 0.17642 0.0
C106 C 0.97975 0.30312 0.16908 0.0
C107 C 0.96784 0.29908 0.15021 0.0
C108 C 0.97895 0.34453 0.18073 0.0
C109 C 0.00611 0.27091 0.19668 0.0
C110 C 0.9322 0.34272 0.18352 0.0
C111 C 0.93192 0.38136 0.19504 0.0
C112 C 0.97853 0.42266 0.20378 0.0
C113 C 0.02535 0.42484 0.20052 0.0
C114 C 0.02551 0.38621 0.18912 0.0
H115 H 0.00453 0.23453 0.20048 0.0
H116 H 0.04565 0.30452 0.2008 0.0
H117 H 0.97802 0.27612 0.20451 0.0
H118 H 0.89589 0.31095 0.17704 0.0
H119 H 0.89525 0.3786 0.19723 0.0
H120 H 0.94066 0.08267 0.43484 0.0
H121 H 0.87073 0.06914 0.45393 0.0
H122 H 0.87351 0.94039 0.47706 0.0
H123 H 0.94377 0.95361 0.458 0.0
H124 H 0.7696 0.974 0.4561 0.0
H125 H 0.89279 0.04321 0.52158 0.0
H126 H 0.92008 0.05761 0.49965 0.0
H127 H 0.89447 0.99331 0.50743 0.0
C128 C 0.92651 0.05144 0.44398 0.0
C129 C 0.94806 0.0194 0.44496 0.0
C130 C 0.88639 0.04367 0.45482 0.0
C131 C 0.86727 0.00403 0.46697 0.0
C132 C 0.88815 0.97153 0.46788 0.0
H133 H 0.59492 0.91888 0.53006 0.0
H134 H 0.65509 0.91253 0.50994 0.0
C135 C 0.9282 0.97911 0.45696 0.0
C136 C 0.82612 -0.00229 0.47887 0.0
H137 H 0.80481 0.01688 0.52307 0.0
C138 C 0.777 0.98282 0.47077 0.0
C139 C 0.83622 0.00966 0.49797 0.0
C140 C 0.88878 0.0272 0.50726 0.0
C141 C 0.73785 0.9803 0.48127 0.0
C142 C 0.74821 0.9929 0.50032 0.0
C143 C 0.79702 0.00694 0.50846 0.0
C144 C 0.71049 0.99594 0.51188 0.0
C145 C 0.68634 0.96611 0.4719 0.0
C146 C 0.72185 0.04484 0.51959 0.0
C147 C 0.68772 0.04865 0.53098 0.0
C148 C 0.64158 0.00348 0.53504 0.0
C149 C 0.63002 0.95441 0.52717 0.0
C150 C 0.66425 0.9507 0.51566 0.0
H151 H 0.68686 0.96411 0.45678 0.0
H152 H 0.65576 0.92731 0.4759 0.0
H153 H 0.67555 0.99522 0.47626 0.0
H154 H 0.75737 0.08018 0.51683 0.0
H155 H 0.698 0.08707 0.5368 0.0
H156 H 0.97847 0.80857 0.77724 0.0
H157 H 0.90481 0.75117 0.79437 0.0
H158 H 0.82773 0.83322 0.77868 0.0
H159 H 0.90107 0.89036 0.76114 0.0
H160 H 0.87901 0.79127 0.82353 0.0
H161 H 0.70884 0.68065 0.77327 0.0
H162 H 0.77487 0.71353 0.76667 0.0
H163 H 0.74411 0.75032 0.77169 0.0
C164 C 0.94533 0.81366 0.77706 0.0
C165 C 0.94575 0.85427 0.76796 0.0
C166 C 0.90326 0.78079 0.78685 0.0
C167 C 0.86076 0.78782 0.78777 0.0
C168 C 0.85971 0.82648 0.77789 0.0
H169 H 0.61051 0.6786 0.86041 0.0
H170 H 0.67084 0.72126 0.83683 0.0
C171 C 0.90175 0.85925 0.76793 0.0
C172 C 0.82117 0.7592 0.80086 0.0
H173 H 0.69154 0.6761 0.80472 0.0
C174 C 0.83807 0.76576 0.81938 0.0
C175 C 0.76776 0.72645 0.79543 0.0
C176 C 0.74771 0.71684 0.77566 0.0
C177 C 0.80304 0.74078 0.83267 0.0
C178 C 0.74971 0.70774 0.82726 0.0
C179 C 0.73256 0.70139 0.80877 0.0
C180 C 0.71139 0.67966 0.84074 0.0
C181 C 0.82328 0.75073 0.85245 0.0
C182 C 0.71385 0.64163 0.85051 0.0
C183 C 0.67965 0.61732 0.86402 0.0
C184 C 0.64221 0.63051 0.86795 0.0
C185 C 0.63909 0.66777 0.85781 0.0
C186 C 0.67334 0.69204 0.84428 0.0
H187 H 0.86272 0.78618 0.85474 0.0
H188 H 0.79685 0.75558 0.86138 0.0
H189 H 0.82554 0.71668 0.85667 0.0
H190 H 0.74258 0.63109 0.84779 0.0
H191 H 0.68286 0.58851 0.87147 0.0
H192 H 0.16063 0.93344 0.09395 0.0
H193 H 0.15238 0.87588 0.11772 0.0
H194 H 0.06779 0.92994 0.1487 0.0
H195 H 0.07649 0.98866 0.12495 0.0
H196 H 0.14112 0.91668 0.17022 0.0
H197 H 0.01181 0.74191 0.12308 0.0
H198 H 0.07296 0.78594 0.11424 0.0
H199 H 0.02782 0.80716 0.11832 0.0
C200 C 0.14063 0.93357 0.10588 0.0
C201 C 0.1186 0.96516 0.10744 0.0
C202 C 0.13586 0.90049 0.11943 0.0
C203 C 0.10851 0.89784 0.13474 0.0
C204 C 0.08874 0.93122 0.13688 0.0
H205 H 0.97915 0.63454 0.20213 0.0
H206 H 0.99337 0.70341 0.18232 0.0
C207 C 0.09376 0.96472 0.12332 0.0
C208 C 0.09861 0.85829 0.14797 0.0
H209 H 0.04201 0.7265 0.15103 0.0
C210 C 0.11925 0.87507 0.1661 0.0
C211 C 0.06939 0.80403 0.14258 0.0
C212 C 0.04376 0.78353 0.12355 0.0
C213 C 0.11247 0.83889 0.17892 0.0
C214 C 0.08506 0.78472 0.17331 0.0
C215 C 0.0635 0.76805 0.15527 0.0
C216 C 0.07719 0.74428 0.18593 0.0
C217 C 0.13401 0.85894 0.19838 0.0
C218 C 0.11965 0.74402 0.19441 0.0
C219 C 0.11166 0.70465 0.20583 0.0
C220 C 0.06103 0.66453 0.2088 0.0
C221 C 0.01867 0.66472 0.20012 0.0
C222 C 0.02669 0.70415 0.18881 0.0
H223 H 0.14113 0.89898 0.20155 0.0
H224 H 0.1072 0.8325 0.20816 0.0
H225 H 0.17159 0.8607 0.2005 0.0
H226 H 0.15898 0.77388 0.19202 0.0
H227 H 0.14512 0.70553 0.21225 0.0
H228 H 0.2639 0.1018 0.41704 0.0
H229 H 0.32448 0.10715 0.44116 0.0
H230 H 0.2301 0.11797 0.48183 0.0
H231 H 0.16799 0.11098 0.45761 0.0
H232 H 0.38311 0.18283 0.46761 0.0
H233 H 0.24526 -0.00088 0.49841 0.0
H234 H 0.23013 0.01608 0.47677 0.0
H235 H 0.22551 0.0465 0.49773 0.0
C236 C 0.25577 0.10517 0.43111 0.0
C237 C 0.21086 0.10563 0.4354 0.0
C238 C 0.29062 0.10839 0.4449 0.0
C239 C 0.28162 0.11239 0.46331 0.0
C240 C 0.2373 0.1138 0.46771 0.0
H241 H 0.52796 0.17869 0.54819 0.0
H242 H 0.46732 0.18869 0.528 0.0
C243 C 0.20195 0.11001 0.45386 0.0
C244 C 0.31888 0.11459 0.47768 0.0
H245 H 0.33013 0.04807 0.51236 0.0
C246 C 0.37154 0.15356 0.47749 0.0
C247 C 0.30372 0.07611 0.49045 0.0
C248 C 0.2482 0.03178 0.49082 0.0
C249 C 0.40966 0.15428 0.48934 0.0
C250 C 0.39449 0.11571 0.50207 0.0
C251 C 0.34166 0.07769 0.50262 0.0
C252 C 0.43281 0.11139 0.51401 0.0
C253 C 0.46594 0.19485 0.48754 0.0
C254 C 0.43323 0.06454 0.51301 0.0
C255 C 0.46717 0.05851 0.52465 0.0
C256 C 0.50174 0.09934 0.53751 0.0
C257 C 0.50216 0.14675 0.53828 0.0
C258 C 0.46762 0.15255 0.52672 0.0
H259 H 0.47179 0.21313 0.47433 0.0
H260 H 0.4793 0.22634 0.49869 0.0
H261 H 0.49066 0.17732 0.48865 0.0
H262 H 0.40687 0.03231 0.50328 0.0
H263 H 0.46594 0.02154 0.52366 0.0
H264 H 0.13165 0.08122 0.80652 0.0
H265 H 0.17552 0.16437 0.82514 0.0
H266 H 0.20425 0.24763 0.77634 0.0
H267 H 0.15717 0.16393 0.75773 0.0
H268 H 0.27117 0.2314 0.82562 0.0
H269 H 0.16847 0.33444 0.80782 0.0
H270 H 0.14193 0.2659 0.80119 0.0
H271 H 0.1892 0.31547 0.78789 0.0
C272 C 0.14643 0.11731 0.79981 0.0
C273 C 0.14135 0.11637 0.78073 0.0
C274 C 0.17144 0.16482 0.81045 0.0
C275 C 0.19304 0.21252 0.80222 0.0
C276 C 0.18679 0.21156 0.78311 0.0
H277 H 0.46762 0.4839 0.85236 0.0
H278 H 0.40213 0.41101 0.8318 0.0
C279 C 0.16035 0.16375 0.77246 0.0
C280 C 0.22718 0.26246 0.81351 0.0
H281 H 0.25442 0.38787 0.8227 0.0
C282 C 0.26688 0.26527 0.82508 0.0
C283 C 0.22158 0.30675 0.81304 0.0
C284 C 0.17761 0.30534 0.80196 0.0
C285 C 0.30145 0.31097 0.83594 0.0
C286 C 0.298 0.35626 0.8346 0.0
C287 C 0.25761 0.35339 0.82342 0.0
C288 C 0.33668 0.40665 0.84468 0.0
C289 C 0.34095 0.30983 0.84892 0.0
C290 C 0.32154 0.43097 0.85783 0.0
C291 C 0.35914 0.47377 0.86931 0.0
C292 C 0.41205 0.49204 0.86787 0.0
C293 C 0.42697 0.46993 0.85389 0.0
C294 C 0.38963 0.4282 0.84221 0.0
H295 H 0.32803 0.26931 0.85247 0.0
H296 H 0.37804 0.32492 0.84231 0.0
H297 H 0.34835 0.33454 0.86176 0.0
H298 H 0.28082 0.41517 0.85984 0.0
H299 H 0.34682 0.49028 0.88003 0.0
H300 H 0.91866 0.99544 0.71057 0.0
H301 H 0.86017 0.01173 0.69192 0.0
H302 H 0.99131 0.13882 0.66881 0.0
H303 H 0.05041 0.12285 0.68743 0.0
H304 H 0.85899 0.10938 0.69012 0.0
H305 H 0.89502 0.03714 0.62433 0.0
H306 H 0.911 0.02165 0.64617 0.0
H307 H 0.95106 0.08575 0.63844 0.0
C308 C 0.9352 0.0269 0.70153 0.0
C309 C 0.98925 0.05765 0.70041 0.0
C310 C 0.90168 0.03627 0.69095 0.0
C311 C 0.92144 0.07622 0.67893 0.0
C312 C 0.97534 0.10748 0.6779 0.0
H313 H 0.7306 0.16935 0.61577 0.0
H314 H 0.7997 0.17374 0.63608 0.0
C315 C 0.009 0.09832 0.68857 0.0
C316 C 0.88523 0.084 0.66719 0.0
H317 H 0.83555 0.06598 0.62313 0.0
C318 C 0.85416 0.10047 0.67544 0.0
C319 C 0.87891 0.07193 0.64809 0.0
C320 C 0.91041 0.05278 0.63865 0.0
C321 C 0.81628 0.10444 0.66508 0.0
C322 C 0.80951 0.09164 0.64603 0.0
C323 C 0.84118 0.07606 0.63775 0.0
C324 C 0.76695 0.08985 0.63462 0.0
C325 C 0.7824 0.12037 0.67458 0.0
C326 C 0.7258 0.04131 0.62718 0.0
C327 C 0.68641 0.03863 0.6157 0.0
C328 C 0.68752 0.08456 0.61126 0.0
C329 C 0.7285 0.13326 0.61896 0.0
C330 C 0.76794 0.13586 0.63057 0.0
H331 H 0.78857 0.12311 0.68969 0.0
H332 H 0.79121 0.15917 0.67035 0.0
H333 H 0.74083 0.0918 0.67053 0.0
H334 H 0.7244 0.0054 0.63016 0.0
H335 H 0.65556 0.00044 0.61004 0.0
H336 H 0.92868 0.98036 0.05334 0.0
H337 H 0.84517 0.92876 0.03527 0.0
H338 H 0.92446 0.91693 0.9893 0.0
H339 H 0.00733 0.96645 0.0074 0.0
H340 H 0.80219 0.93651 0.00243 0.0
H341 H 0.82727 0.76509 -0.00177 0.0
H342 H 0.8689 0.82301 0.01313 0.0
H343 H 0.88003 0.82126 0.98927 0.0
C344 C 0.92821 0.96708 0.03933 0.0
C345 C 0.9743 0.97648 0.03187 0.0
C346 C 0.88057 0.93775 0.02902 0.0
C347 C 0.87856 0.91795 0.0111 0.0
C348 C 0.92499 0.93055 0.00327 0.0
H349 H 0.62786 0.7678 0.92612 0.0
H350 H 0.69738 0.83322 0.948 0.0
C351 C 0.97232 0.95895 0.01362 0.0
C352 C 0.82809 0.88133 0.00089 0.0
H353 H 0.76006 0.75978 0.97854 0.0
C354 C 0.79258 0.89764 0.99732 0.0
C355 C 0.81519 0.83025 0.99458 0.0
C356 C 0.84961 0.80863 -0.00084 0.0
C357 C 0.74507 0.86462 0.9871 0.0
C358 C 0.73357 0.8146 0.97995 0.0
C359 C 0.76877 0.79816 0.98392 0.0
C360 C 0.68585 0.77813 0.96818 0.0
C361 C 0.70758 0.88342 0.9843 0.0
C362 C 0.65591 0.72556 0.97223 0.0
C363 C 0.61761 0.68822 0.95954 0.0
C364 C 0.60753 0.70293 0.94276 0.0
C365 C 0.63462 0.75592 0.93914 0.0
C366 C 0.6741 0.79328 0.95169 0.0
H367 H 0.71381 0.91333 0.9953 0.0
H368 H 0.71389 0.90187 0.97114 0.0
H369 H 0.66669 0.85051 0.98389 0.0
H370 H 0.66407 0.71286 0.98484 0.0
H371 H 0.59711 0.64743 0.96255 0.0
H372 H 0.02785 0.99315 0.33753 0.0
H373 H 0.98727 0.91108 0.31829 0.0
H374 H 0.96168 0.82536 0.36636 0.0
H375 H -0.00056 0.90757 0.38568 0.0
H376 H 0.03049 0.85726 0.31589 0.0
H377 H 0.8322 0.72407 0.33623 0.0
H378 H 0.86777 0.79333 0.34314 0.0
H379 H 0.87861 0.74878 0.35559 0.0
C380 C 0.01204 0.95655 0.34397 0.0
C381 C 0.01686 0.95641 0.36301 0.0
C382 C 0.98883 0.90968 0.33299 0.0
C383 C 0.97121 0.8618 0.34081 0.0
C384 C 0.97369 0.86144 0.35995 0.0
H385 H 0.01261 0.62209 0.2943 0.0
H386 H 0.00623 0.68643 0.31396 0.0
C387 C 0.99568 0.90845 0.371 0.0
C388 C 0.95871 0.81448 0.32894 0.0
H389 H 0.87303 0.68284 0.32047 0.0
C390 C 0.99548 0.81946 0.31673 0.0
C391 C 0.91303 0.76495 0.32987 0.0
C392 C 0.87044 0.75758 0.34179 0.0
C393 C 0.98881 0.77636 0.30591 0.0
C394 C 0.94497 0.72633 0.30773 0.0
C395 C 0.90699 0.72123 0.31935 0.0
C396 C 0.94042 0.67924 0.2982 0.0
C397 C 0.02933 0.78473 0.29277 0.0
C398 C 0.90352 0.65174 0.28344 0.0
C399 C 0.90668 0.61423 0.27225 0.0
C400 C 0.94714 0.60453 0.27566 0.0
C401 C 0.98149 0.6294 0.29123 0.0
C402 C 0.97784 0.66604 0.30249 0.0
H403 H 0.05218 0.82624 0.28939 0.0
H404 H 0.05667 0.77449 0.29913 0.0
H405 H 0.01123 0.75948 0.27989 0.0
H406 H 0.87434 0.66149 0.27996 0.0
H407 H 0.87977 0.59553 0.26031 0.0
H408 H 0.19204 0.92442 0.72315 0.0
H409 H 0.24716 0.9254 0.69955 0.0
H410 H 0.19076 0.00055 0.66469 0.0
H411 H 0.13442 -0.00097 0.68827 0.0
H412 H 0.20178 0.92077 0.64614 0.0
H413 H 0.37902 0.06248 0.68954 0.0
H414 H 0.33631 0.00424 0.70041 0.0
H415 H 0.3151 0.04849 0.69455 0.0
C416 C 0.19097 0.94091 0.71043 0.0
C417 C 0.15929 0.9623 0.70769 0.0
C418 C 0.22264 0.9415 0.69697 0.0
C419 C 0.22382 0.964 0.68055 0.0
C420 C 0.19059 0.98328 0.67735 0.0
H421 H 0.47617 0.07715 0.60993 0.0
H422 H 0.40927 0.06565 0.63004 0.0
C423 C 0.15849 0.98243 0.69082 0.0
C424 C 0.2616 0.96939 0.66718 0.0
H425 H 0.39145 0.02443 0.66266 0.0
C426 C 0.24328 0.94356 0.64968 0.0
C427 C 0.31571 -0.0003 0.67179 0.0
C428 C 0.33785 0.03075 0.69003 0.0
C429 C 0.27777 0.94656 0.63673 0.0
C430 C 0.33183 0.97547 0.64159 0.0
C431 C 0.34999 0.0018 0.65902 0.0
C432 C 0.37072 0.98109 0.62864 0.0
C433 C 0.25611 0.91968 0.6179 0.0
C434 C 0.37155 0.9373 0.6212 0.0
C435 C 0.4099 0.94371 0.60955 0.0
C436 C 0.44835 0.99411 0.60534 0.0
C437 C 0.44736 0.03776 0.61292 0.0
C438 C 0.40902 0.03129 0.62441 0.0
H439 H 0.21578 0.91077 0.61495 0.0
H440 H 0.28063 0.94424 0.60727 0.0
H441 H 0.25548 0.88214 0.61691 0.0
H442 H 0.34306 0.89825 0.6246 0.0
H443 H 0.40966 0.90933 0.60399 0.0
H444 H 0.19596 0.22248 0.05017 0.0
H445 H 0.25483 0.2943 0.03218 0.0
H446 H 0.34153 0.21806 0.0224 0.0
H447 H 0.2826 0.14595 0.03997 0.0
H448 H 0.36579 0.36437 0.0325 0.0
H449 H 0.28416 0.22314 0.9712 0.0
H450 H 0.25456 0.20886 0.99271 0.0
H451 H 0.31031 0.2031 0.98929 0.0
C452 C 0.22825 0.22163 0.04452 0.0
C453 C 0.23417 0.17819 0.04621 0.0
C454 C 0.26175 0.26261 0.03423 0.0
C455 C 0.30166 0.26071 0.02563 0.0
C456 C 0.31021 0.21959 0.0286 0.0
H457 H 0.51278 0.42918 0.94414 0.0
H458 H 0.46661 0.37303 0.96834 0.0
C459 C 0.27658 0.17852 0.03869 0.0
C460 C 0.33149 0.29888 0.01227 0.0
H461 H 0.35633 0.30707 0.96724 0.0
C462 C 0.36366 0.35203 0.01822 0.0
C463 C 0.32819 0.28254 0.99362 0.0
C464 C 0.29209 0.2264 0.98624 0.0
C465 C 0.39385 0.38916 0.00602 0.0
C466 C 0.39115 0.37252 0.98747 0.0
C467 C 0.35855 0.31951 0.98153 0.0
C468 C 0.42152 0.40924 0.97382 0.0
C469 C 0.42919 0.44561 0.0131 0.0
C470 C 0.41117 0.44797 0.96885 0.0
C471 C 0.43726 0.47995 0.95495 0.0
C472 C 0.47407 0.47363 0.94575 0.0
C473 C 0.48468 0.43509 0.95093 0.0
C474 C 0.45844 0.40304 0.96477 0.0
H475 H 0.43519 0.45003 0.02824 0.0
H476 H 0.46755 0.46241 0.00724 0.0
H477 H 0.41165 0.46873 0.00891 0.0
H478 H 0.38209 0.45267 0.97544 0.0
H479 H 0.42819 0.50927 0.9513 0.0
H480 H 0.02471 0.1924 0.38713 0.0
H481 H 0.01016 0.25578 0.37199 0.0
H482 H 0.16268 0.32606 0.35187 0.0
H483 H 0.17767 0.26323 0.36688 0.0
H484 H 0.12801 0.39894 0.36542 0.0
H485 H 0.99053 0.23769 0.31425 0.0
H486 H 0.98001 0.22751 0.33802 0.0
H487 H 0.03657 0.2321 0.32896 0.0
C488 C 0.05553 0.22199 0.37979 0.0
C489 C 0.10209 0.22239 0.378 0.0
C490 C 0.04708 0.25801 0.37112 0.0
C491 C 0.08517 0.29503 0.36069 0.0
C492 C 0.13284 0.29764 0.35985 0.0
H493 H 0.1341 0.5194 0.28332 0.0
H494 H 0.14144 0.46973 0.30757 0.0
C495 C 0.14121 0.26156 0.36838 0.0
C496 C 0.07408 0.32791 0.34919 0.0
H497 H 0.00926 0.32242 0.3093 0.0
C498 C 0.10164 0.38234 0.35325 0.0
C499 C 0.03969 0.3059 0.33335 0.0
C500 C 0.01008 0.24765 0.32822 0.0
C501 C 0.09606 0.41559 0.3417 0.0
C502 C 0.06314 0.39373 0.32546 0.0
C503 C 0.03452 0.33912 0.32173 0.0
C504 C 0.05925 0.42651 0.31168 0.0
C505 C 0.12535 0.47369 0.34703 0.0
C506 C 0.01052 0.41787 0.30563 0.0
C507 C 0.0061 0.44549 0.29155 0.0
C508 C 0.0504 0.48237 0.28326 0.0
C509 C 0.09929 0.49149 0.2895 0.0
C510 C 0.1036 0.46347 0.30349 0.0
H511 H 0.13439 0.48194 0.36204 0.0
H512 H 0.16271 0.49255 0.34046 0.0
H513 H 0.10298 0.4919 0.34255 0.0
H514 H 0.97575 0.38928 0.31167 0.0
H515 H 0.96789 0.4377 0.28711 0.0
loop_
_geom_bond_atom_site_label_1
_geom_bond_atom_site_label_2
_geom_bond_distance
_geom_bond_site_symmetry_2
_ccdc_geom_bond_type
Zn0 O3 2.031 1_545 S
Zn0 O5 2.049 . S
Zn0 O10 2.067 . S
Zn1 O2 1.962 . S
Zn1 O4 1.986 . S
Zn1 O6 1.996 . S
Zn1 O9 1.943 . S
O2 Zn1 1.962 . S
O2 C7 1.254 . S
O3 Zn0 2.031 1_565 S
O3 C7 1.269 1_565 S
O4 Zn1 1.986 . S
O4 C11 1.262 . S
O5 Zn0 2.049 . S
O5 C13 1.260 . S
O6 Zn1 1.996 . S
O6 C13 1.257 . S
C7 O2 1.254 . S
C7 O3 1.269 1_545 S
C8 O9 1.249 . S
C8 O10 1.270 . S
O9 Zn1 1.943 . S
O9 C8 1.249 . S
O10 Zn0 2.067 . S
O10 C8 1.270 . S
C11 O4 1.262 . S
C11 O12 1.232 . S
O12 C11 1.232 . S
C13 O5 1.260 . S
C13 O6 1.257 . S
Zn14 O17 2.031 . S
Zn14 O19 2.049 . S
Zn14 O24 2.067 . S
Zn15 O16 1.962 . S
Zn15 O18 1.986 1_455 S
Zn15 O20 1.996 . S
Zn15 O23 1.943 . S
O16 Zn15 1.962 . S
O16 C21 1.254 . S
O17 Zn14 2.031 . S
O17 C21 1.269 . S
O18 Zn15 1.986 1_655 S
O18 C25 1.262 . S
O19 Zn14 2.049 . S
O19 C27 1.260 . S
O20 Zn15 1.996 . S
O20 C27 1.257 . S
C21 O16 1.254 . S
C21 O17 1.269 . S
C22 O23 1.249 . S
C22 O24 1.270 . S
O23 Zn15 1.943 . S
O23 C22 1.249 . S
O24 Zn14 2.067 . S
O24 C22 1.270 . S
C25 O18 1.262 . S
C25 O26 1.232 . S
O26 C25 1.232 . S
C27 O19 1.260 . S
C27 O20 1.257 . S
Zn28 O31 2.031 1_565 S
Zn28 O33 2.049 . S
Zn28 O38 2.067 1_565 S
Zn29 O30 1.962 1_545 S
Zn29 O32 1.986 1_455 S
Zn29 O34 1.996 1_445 S
Zn29 O37 1.943 . S
O30 Zn29 1.962 1_565 S
O30 C35 1.254 1_565 S
O31 Zn28 2.031 1_545 S
O31 C35 1.269 . S
O32 Zn29 1.986 1_655 S
O32 C39 1.262 . S
O33 Zn28 2.049 . S
O33 C41 1.260 1_455 S
O34 Zn29 1.996 1_665 S
O34 C41 1.257 . S
C35 O30 1.254 1_545 S
C35 O31 1.269 . S
C36 O37 1.249 . S
C36 O38 1.270 . S
O37 Zn29 1.943 . S
O37 C36 1.249 . S
O38 Zn28 2.067 1_545 S
O38 C36 1.270 . S
C39 O32 1.262 . S
C39 O40 1.232 1_655 S
O40 C39 1.232 1_455 S
C41 O33 1.260 1_655 S
C41 O34 1.257 . S
C42 O44 1.247 . S
C42 O46 1.258 . S
C43 O50 1.247 . S
C43 O51 1.258 . S
O44 C42 1.247 . S
O44 Zn45 2.028 . S
Zn45 O44 2.028 . S
Zn45 O49 2.035 . S
Zn45 O51 2.035 . S
Zn45 O52 2.028 . S
O46 C42 1.258 . S
O46 Zn47 2.035 1_455 S
Zn47 O46 2.035 1_655 S
Zn47 O48 2.028 1_655 S
Zn47 O50 2.028 1_655 S
Zn47 O53 2.035 1_655 S
O48 Zn47 2.028 1_455 S
O48 C54 1.247 . S
O49 Zn45 2.035 . S
O49 C54 1.258 . S
O50 C43 1.247 . S
O50 Zn47 2.028 1_455 S
O51 C43 1.258 . S
O51 Zn45 2.035 . S
O52 Zn45 2.028 . S
O52 C55 1.247 . S
O53 Zn47 2.035 1_455 S
O53 C55 1.258 . S
C54 O48 1.247 . S
C54 O49 1.258 . S
C55 O52 1.247 . S
C55 O53 1.258 . S
C56 O58 1.247 . S
C56 O60 1.258 . S
C57 O64 1.247 . S
C57 O65 1.258 . S
O58 C56 1.247 . S
O58 Zn59 2.028 1_545 S
Zn59 O58 2.028 1_565 S
Zn59 O63 2.035 1_565 S
Zn59 O65 2.035 1_565 S
Zn59 O66 2.028 1_565 S
O60 C56 1.258 . S
O60 Zn61 2.035 . S
Zn61 O60 2.035 . S
Zn61 O62 2.028 . S
Zn61 O64 2.028 . S
Zn61 O67 2.035 . S
O62 Zn61 2.028 . S
O62 C68 1.247 . S
O63 Zn59 2.035 1_545 S
O63 C68 1.258 . S
O64 C57 1.247 . S
O64 Zn61 2.028 . S
O65 C57 1.258 . S
O65 Zn59 2.035 1_545 S
O66 Zn59 2.028 1_545 S
O66 C69 1.247 . S
O67 Zn61 2.035 . S
O67 C69 1.258 . S
C68 O62 1.247 . S
C68 O63 1.258 . S
C69 O66 1.247 . S
C69 O67 1.258 . S
C70 O72 1.247 . S
C70 O74 1.258 . S
C71 O78 1.247 . S
C71 O79 1.258 . S
O72 C70 1.247 . S
O72 Zn73 2.028 . S
Zn73 O72 2.028 . S
Zn73 O77 2.035 . S
Zn73 O79 2.035 . S
Zn73 O80 2.028 . S
O74 C70 1.258 . S
O74 Zn75 2.035 . S
Zn75 O74 2.035 . S
Zn75 O76 2.028 . S
Zn75 O78 2.028 . S
Zn75 O81 2.035 . S
O76 Zn75 2.028 . S
O76 C82 1.247 . S
O77 Zn73 2.035 . S
O77 C82 1.258 . S
O78 C71 1.247 . S
O78 Zn75 2.028 . S
O79 C71 1.258 . S
O79 Zn73 2.035 . S
O80 Zn73 2.028 . S
O80 C83 1.247 . S
O81 Zn75 2.035 . S
O81 C83 1.258 . S
C82 O76 1.247 . S
C82 O77 1.258 . S
C83 O80 1.247 . S
C83 O81 1.258 . S
H84 C92 0.929 . S
H85 C94 0.930 . S
H86 C96 0.930 . S
H87 C99 0.929 . S
H88 C102 0.930 . S
H89 C104 0.960 . S
H90 C104 0.960 1_655 S
H91 C104 0.960 . S
C92 H84 0.929 . S
C92 C93 1.377 . S
C92 C94 1.384 . S
C93 C92 1.377 . S
C93 C99 1.390 . S
C94 H85 0.930 . S
C94 C92 1.384 . S
C94 C95 1.372 . S
C95 C94 1.372 . S
C95 C96 1.400 . S
C95 C100 1.490 . S
C96 H86 0.930 . S
C96 C95 1.400 . S
C96 C99 1.386 . S
H97 C113 0.930 . S
H98 C114 0.931 . S
C99 H87 0.929 . S
C99 C93 1.390 . S
C99 C96 1.386 . S
C100 C95 1.490 . S
C100 C102 1.395 . S
C100 C103 1.403 . S
H101 C107 0.930 . S
C102 H88 0.930 . S
C102 C100 1.395 . S
C102 C105 1.403 . S
C103 C100 1.403 . S
C103 C104 1.524 . S
C103 C107 1.400 . S
C104 H89 0.960 . S
C104 H90 0.960 1_455 S
C104 H91 0.960 . S
C104 C103 1.524 . S
C105 C102 1.403 . S
C105 C106 1.392 . S
C105 C109 1.495 . S
C106 C105 1.392 . S
C106 C107 1.385 . S
C106 C108 1.478 . S
C107 H101 0.930 . S
C107 C103 1.400 . S
C107 C106 1.385 . S
C108 C106 1.478 . S
C108 C110 1.381 . S
C108 C114 1.383 . S
C109 C105 1.495 . S
C109 H115 0.959 . S
C109 H116 0.961 . S
C109 H117 0.960 . S
C110 C108 1.381 . S
C110 C111 1.394 . S
C110 H118 0.930 . S
C111 C110 1.394 . S
C111 C112 1.383 . S
C111 H119 0.929 . S
C112 C111 1.383 . S
C112 C113 1.377 . S
C113 H97 0.930 . S
C113 C112 1.377 . S
C113 C114 1.379 . S
C114 H98 0.931 . S
C114 C108 1.383 . S
C114 C113 1.379 . S
H115 C109 0.959 . S
H116 C109 0.961 . S
H117 C109 0.960 . S
H118 C110 0.930 . S
H119 C111 0.929 . S
H120 C128 0.929 . S
H121 C130 0.930 . S
H122 C132 0.930 . S
H123 C135 0.929 . S
H124 C138 0.930 . S
H125 C140 0.960 . S
H126 C140 0.960 . S
H127 C140 0.960 . S
C128 H120 0.929 . S
C128 C129 1.377 . S
C128 C130 1.384 . S
C129 C128 1.377 . S
C129 C135 1.390 . S
C130 H121 0.930 . S
C130 C128 1.384 . S
C130 C131 1.372 . S
C131 C130 1.372 . S
C131 C132 1.400 . S
C131 C136 1.490 . S
C132 H122 0.930 . S
C132 C131 1.400 . S
C132 C135 1.386 . S
H133 C149 0.930 . S
H134 C150 0.932 1_565 S
C135 H123 0.929 . S
C135 C129 1.390 . S
C135 C132 1.386 . S
C136 C131 1.490 . S
C136 C138 1.395 . S
C136 C139 1.403 . S
H137 C143 0.930 . S
C138 H124 0.930 . S
C138 C136 1.395 . S
C138 C141 1.403 . S
C139 C136 1.403 . S
C139 C140 1.524 . S
C139 C143 1.400 . S
C140 H125 0.960 . S
C140 H126 0.960 . S
C140 H127 0.960 . S
C140 C139 1.524 . S
C141 C138 1.403 . S
C141 C142 1.392 . S
C141 C145 1.495 1_545 S
C142 C141 1.392 . S
C142 C143 1.385 . S
C142 C144 1.478 . S
C143 H137 0.930 . S
C143 C139 1.400 . S
C143 C142 1.385 . S
C144 C142 1.478 . S
C144 C146 1.381 . S
C144 C150 1.383 . S
C145 C141 1.495 1_565 S
C145 H151 0.959 . S
C145 H152 0.961 . S
C145 H153 0.960 1_565 S
C146 C144 1.381 . S
C146 C147 1.394 . S
C146 H154 0.930 . S
C147 C146 1.394 . S
C147 C148 1.383 . S
C147 H155 0.929 . S
C148 C147 1.383 . S
C148 C149 1.377 . S
C149 H133 0.930 . S
C149 C148 1.377 . S
C149 C150 1.379 . S
C150 H134 0.932 1_545 S
C150 C144 1.383 . S
C150 C149 1.379 . S
H151 C145 0.959 . S
H152 C145 0.961 . S
H153 C145 0.960 1_545 S
H154 C146 0.930 . S
H155 C147 0.929 . S
H156 C164 0.929 . S
H157 C166 0.930 . S
H158 C168 0.930 . S
H159 C171 0.929 . S
H160 C174 0.930 . S
H161 C176 0.960 . S
H162 C176 0.960 . S
H163 C176 0.960 . S
C164 H156 0.929 . S
C164 C165 1.377 . S
C164 C166 1.384 . S
C165 C164 1.377 . S
C165 C171 1.390 . S
C166 H157 0.930 . S
C166 C164 1.384 . S
C166 C167 1.372 . S
C167 C166 1.372 . S
C167 C168 1.400 . S
C167 C172 1.490 . S
C168 H158 0.930 . S
C168 C167 1.400 . S
C168 C171 1.386 . S
H169 C185 0.930 . S
H170 C186 0.931 . S
C171 H159 0.929 . S
C171 C165 1.390 . S
C171 C168 1.386 . S
C172 C167 1.490 . S
C172 C174 1.395 . S
C172 C175 1.403 . S
H173 C179 0.930 . S
C174 H160 0.930 . S
C174 C172 1.395 . S
C174 C177 1.403 . S
C175 C172 1.403 . S
C175 C176 1.524 . S
C175 C179 1.400 . S
C176 H161 0.960 . S
C176 H162 0.960 . S
C176 H163 0.960 . S
C176 C175 1.524 . S
C177 C174 1.403 . S
C177 C178 1.392 . S
C177 C181 1.495 . S
C178 C177 1.392 . S
C178 C179 1.385 . S
C178 C180 1.478 . S
C179 H173 0.930 . S
C179 C175 1.400 . S
C179 C178 1.385 . S
C180 C178 1.478 . S
C180 C182 1.381 . S
C180 C186 1.383 . S
C181 C177 1.495 . S
C181 H187 0.959 . S
C181 H188 0.961 . S
C181 H189 0.960 . S
C182 C180 1.381 . S
C182 C183 1.394 . S
C182 H190 0.930 . S
C183 C182 1.394 . S
C183 C184 1.383 . S
C183 H191 0.929 . S
C184 C183 1.383 . S
C184 C185 1.377 . S
C185 H169 0.930 . S
C185 C184 1.377 . S
C185 C186 1.379 . S
C186 H170 0.931 . S
C186 C180 1.383 . S
C186 C185 1.379 . S
H187 C181 0.959 . S
H188 C181 0.961 . S
H189 C181 0.960 . S
H190 C182 0.930 . S
H191 C183 0.929 . S
H192 C200 0.929 . S
H193 C202 0.930 . S
H194 C204 0.930 . S
H195 C207 0.929 . S
H196 C210 0.930 . S
H197 C212 0.960 . S
H198 C212 0.960 . S
H199 C212 0.960 . S
C200 H192 0.929 . S
C200 C201 1.377 . S
C200 C202 1.384 . S
C201 C200 1.377 . S
C201 C207 1.390 . S
C202 H193 0.930 . S
C202 C200 1.384 . S
C202 C203 1.372 . S
C203 C202 1.372 . S
C203 C204 1.400 . S
C203 C208 1.490 . S
C204 H194 0.930 . S
C204 C203 1.400 . S
C204 C207 1.386 . S
H205 C221 0.930 . S
H206 C222 0.931 . S
C207 H195 0.929 . S
C207 C201 1.390 . S
C207 C204 1.386 . S
C208 C203 1.490 . S
C208 C210 1.395 . S
C208 C211 1.403 . S
H209 C215 0.930 . S
C210 H196 0.930 . S
C210 C208 1.395 . S
C210 C213 1.403 . S
C211 C208 1.403 . S
C211 C212 1.524 1_455 S
C211 C215 1.400 . S
C212 H197 0.960 . S
C212 H198 0.960 . S
C212 H199 0.960 . S
C212 C211 1.524 1_655 S
C213 C210 1.403 . S
C213 C214 1.392 . S
C213 C217 1.495 . S
C214 C213 1.392 . S
C214 C215 1.385 . S
C214 C216 1.478 . S
C215 H209 0.930 . S
C215 C211 1.400 . S
C215 C214 1.385 . S
C216 C214 1.478 . S
C216 C218 1.381 . S
C216 C222 1.383 . S
C217 C213 1.495 . S
C217 H223 0.959 . S
C217 H224 0.961 . S
C217 H225 0.960 . S
C218 C216 1.381 . S
C218 C219 1.394 . S
C218 H226 0.930 . S
C219 C218 1.394 . S
C219 C220 1.383 . S
C219 H227 0.929 . S
C220 C219 1.383 . S
C220 C221 1.377 . S
C221 H205 0.930 . S
C221 C220 1.377 . S
C221 C222 1.379 . S
C222 H206 0.931 . S
C222 C216 1.383 . S
C222 C221 1.379 . S
H223 C217 0.959 . S
H224 C217 0.961 . S
H225 C217 0.960 . S
H226 C218 0.930 . S
H227 C219 0.929 . S
H228 C236 0.929 . S
H229 C238 0.930 . S
H230 C240 0.930 . S
H231 C243 0.929 . S
H232 C246 0.930 . S
H233 C248 0.960 . S
H234 C248 0.960 . S
H235 C248 0.960 . S
C236 H228 0.929 . S
C236 C237 1.377 . S
C236 C238 1.384 . S
C237 C236 1.377 . S
C237 C243 1.390 . S
C238 H229 0.930 . S
C238 C236 1.384 . S
C238 C239 1.372 . S
C239 C238 1.372 . S
C239 C240 1.400 . S
C239 C244 1.490 . S
C240 H230 0.930 . S
C240 C239 1.400 . S
C240 C243 1.386 . S
H241 C257 0.930 . S
H242 C258 0.931 . S
C243 H231 0.929 . S
C243 C237 1.390 . S
C243 C240 1.386 . S
C244 C239 1.490 . S
C244 C246 1.395 . S
C244 C247 1.403 . S
H245 C251 0.930 . S
C246 H232 0.930 . S
C246 C244 1.395 . S
C246 C249 1.403 . S
C247 C244 1.403 . S
C247 C248 1.524 1_545 S
C247 C251 1.400 . S
C248 H233 0.960 . S
C248 H234 0.960 . S
C248 H235 0.960 . S
C248 C247 1.524 1_565 S
C249 C246 1.403 . S
C249 C250 1.392 . S
C249 C253 1.495 . S
C250 C249 1.392 . S
C250 C251 1.385 . S
C250 C252 1.478 . S
C251 H245 0.930 . S
C251 C247 1.400 . S
C251 C250 1.385 . S
C252 C250 1.478 . S
C252 C254 1.381 . S
C252 C258 1.383 . S
C253 C249 1.495 . S
C253 H259 0.959 . S
C253 H260 0.961 . S
C253 H261 0.960 . S
C254 C252 1.381 . S
C254 C255 1.394 . S
C254 H262 0.930 . S
C255 C254 1.394 . S
C255 C256 1.383 . S
C255 H263 0.929 . S
C256 C255 1.383 . S
C256 C257 1.377 . S
C257 H241 0.930 . S
C257 C256 1.377 . S
C257 C258 1.379 . S
C258 H242 0.931 . S
C258 C252 1.383 . S
C258 C257 1.379 . S
H259 C253 0.959 . S
H260 C253 0.961 . S
H261 C253 0.960 . S
H262 C254 0.930 . S
H263 C255 0.929 . S
H264 C272 0.929 . S
H265 C274 0.930 . S
H266 C276 0.930 . S
H267 C279 0.929 . S
H268 C282 0.930 . S
H269 C284 0.960 . S
H270 C284 0.960 . S
H271 C284 0.960 . S
C272 H264 0.929 . S
C272 C273 1.377 . S
C272 C274 1.384 . S
C273 C272 1.377 . S
C273 C279 1.390 . S
C274 H265 0.930 . S
C274 C272 1.384 . S
C274 C275 1.372 . S
C275 C274 1.372 . S
C275 C276 1.400 . S
C275 C280 1.490 . S
C276 H266 0.930 . S
C276 C275 1.400 . S
C276 C279 1.386 . S
H277 C293 0.930 . S
H278 C294 0.931 . S
C279 H267 0.929 . S
C279 C273 1.390 . S
C279 C276 1.386 . S
C280 C275 1.490 . S
C280 C282 1.395 . S
C280 C283 1.403 . S
H281 C287 0.930 . S
C282 H268 0.930 . S
C282 C280 1.395 . S
C282 C285 1.403 . S
C283 C280 1.403 . S
C283 C284 1.524 . S
C283 C287 1.400 . S
C284 H269 0.960 . S
C284 H270 0.960 . S
C284 H271 0.960 . S
C284 C283 1.524 . S
C285 C282 1.403 . S
C285 C286 1.392 . S
C285 C289 1.495 . S
C286 C285 1.392 . S
C286 C287 1.385 . S
C286 C288 1.478 . S
C287 H281 0.930 . S
C287 C283 1.400 . S
C287 C286 1.385 . S
C288 C286 1.478 . S
C288 C290 1.381 . S
C288 C294 1.383 . S
C289 C285 1.495 . S
C289 H295 0.959 . S
C289 H296 0.961 . S
C289 H297 0.960 . S
C290 C288 1.381 . S
C290 C291 1.394 . S
C290 H298 0.930 . S
C291 C290 1.394 . S
C291 C292 1.383 . S
C291 H299 0.929 . S
C292 C291 1.383 . S
C292 C293 1.377 . S
C293 H277 0.930 . S
C293 C292 1.377 . S
C293 C294 1.379 . S
C294 H278 0.931 . S
C294 C288 1.383 . S
C294 C293 1.379 . S
H295 C289 0.959 . S
H296 C289 0.961 . S
H297 C289 0.960 . S
H298 C290 0.930 . S
H299 C291 0.929 . S
H300 C308 0.929 . S
H301 C310 0.930 . S
H302 C312 0.930 . S
H303 C315 0.929 . S
H304 C318 0.930 . S
H305 C320 0.960 . S
H306 C320 0.960 . S
H307 C320 0.960 1_545 S
C308 H300 0.929 . S
C308 C309 1.377 . S
C308 C310 1.384 . S
C309 C308 1.377 . S
C309 C315 1.390 . S
C310 H301 0.930 . S
C310 C308 1.384 . S
C310 C311 1.372 . S
C311 C310 1.372 . S
C311 C312 1.400 . S
C311 C316 1.490 . S
C312 H302 0.930 . S
C312 C311 1.400 . S
C312 C315 1.386 . S
H313 C329 0.930 . S
H314 C330 0.931 . S
C315 H303 0.929 . S
C315 C309 1.390 . S
C315 C312 1.386 . S
C316 C311 1.490 . S
C316 C318 1.395 . S
C316 C319 1.403 . S
H317 C323 0.930 . S
C318 H304 0.930 . S
C318 C316 1.395 . S
C318 C321 1.403 . S
C319 C316 1.403 . S
C319 C320 1.524 1_545 S
C319 C323 1.400 . S
C320 H305 0.960 . S
C320 H306 0.960 . S
C320 H307 0.960 1_565 S
C320 C319 1.524 1_565 S
C321 C318 1.403 . S
C321 C322 1.392 . S
C321 C325 1.495 . S
C322 C321 1.392 . S
C322 C323 1.385 . S
C322 C324 1.478 . S
C323 H317 0.930 . S
C323 C319 1.400 . S
C323 C322 1.385 . S
C324 C322 1.478 . S
C324 C326 1.381 . S
C324 C330 1.383 . S
C325 C321 1.495 . S
C325 H331 0.959 . S
C325 H332 0.961 . S
C325 H333 0.960 . S
C326 C324 1.381 . S
C326 C327 1.394 . S
C326 H334 0.930 . S
C327 C326 1.394 . S
C327 C328 1.383 . S
C327 H335 0.929 . S
C328 C327 1.383 . S
C328 C329 1.377 . S
C329 H313 0.930 . S
C329 C328 1.377 . S
C329 C330 1.379 . S
C330 H314 0.931 . S
C330 C324 1.383 . S
C330 C329 1.379 . S
H331 C325 0.959 . S
H332 C325 0.961 . S
H333 C325 0.960 . S
H334 C326 0.930 . S
H335 C327 0.929 . S
H336 C344 0.929 . S
H337 C346 0.930 . S
H338 C348 0.930 . S
H339 C351 0.934 1_545 S
H340 C354 0.930 . S
H341 C356 0.960 . S
H342 C356 0.960 1_554 S
H343 C356 0.960 . S
C344 H336 0.929 . S
C344 C345 1.377 . S
C344 C346 1.384 . S
C345 C344 1.377 . S
C345 C351 1.390 . S
C346 H337 0.930 . S
C346 C344 1.384 . S
C346 C347 1.372 . S
C347 C346 1.372 . S
C347 C348 1.400 . S
C347 C352 1.490 . S
C348 H338 0.930 . S
C348 C347 1.400 . S
C348 C351 1.386 . S
H349 C365 0.930 . S
H350 C366 0.931 . S
C351 H339 0.934 1_565 S
C351 C345 1.390 . S
C351 C348 1.386 . S
C352 C347 1.490 . S
C352 C354 1.395 . S
C352 C355 1.403 1_554 S
H353 C359 0.930 . S
C354 H340 0.930 . S
C354 C352 1.395 . S
C354 C357 1.403 1_554 S
C355 C352 1.403 1_556 S
C355 C356 1.524 . S
C355 C359 1.400 . S
C356 H341 0.960 . S
C356 H342 0.960 1_556 S
C356 H343 0.960 . S
C356 C355 1.524 . S
C357 C354 1.403 1_556 S
C357 C358 1.392 . S
C357 C361 1.490 1_556 S
C358 C357 1.392 . S
C358 C359 1.385 . S
C358 C360 1.478 . S
C359 H353 0.930 . S
C359 C355 1.400 . S
C359 C358 1.385 . S
C360 C358 1.478 . S
C360 C362 1.381 . S
C360 C366 1.383 . S
C361 C357 1.490 1_554 S
C361 H367 0.981 . S
C361 H368 0.937 1_554 S
C361 H369 0.967 . S
C362 C360 1.381 . S
C362 C363 1.394 . S
C362 H370 0.930 . S
C363 C362 1.394 . S
C363 C364 1.383 . S
C363 H371 0.929 . S
C364 C363 1.383 . S
C364 C365 1.377 . S
C365 H349 0.930 . S
C365 C364 1.377 . S
C365 C366 1.379 . S
C366 H350 0.931 . S
C366 C360 1.383 . S
C366 C365 1.379 . S
H367 C361 0.981 . S
H368 C361 0.937 1_556 S
H369 C361 0.967 . S
H370 C362 0.930 . S
H371 C363 0.929 . S
H372 C380 0.929 . S
H373 C382 0.930 . S
H374 C384 0.930 . S
H375 C387 0.929 . S
H376 C390 0.930 . S
H377 C392 0.960 . S
H378 C392 0.960 . S
H379 C392 0.960 . S
C380 H372 0.929 . S
C380 C381 1.377 . S
C380 C382 1.384 . S
C381 C380 1.377 . S
C381 C387 1.390 . S
C382 H373 0.930 . S
C382 C380 1.384 . S
C382 C383 1.372 . S
C383 C382 1.372 . S
C383 C384 1.400 . S
C383 C388 1.490 . S
C384 H374 0.930 . S
C384 C383 1.400 . S
C384 C387 1.386 . S
H385 C401 0.930 . S
H386 C402 0.931 . S
C387 H375 0.929 . S
C387 C381 1.390 . S
C387 C384 1.386 . S
C388 C383 1.490 . S
C388 C390 1.395 . S
C388 C391 1.403 1_455 S
H389 C395 0.930 1_655 S
C390 H376 0.930 . S
C390 C388 1.395 . S
C390 C393 1.403 . S
C391 C388 1.403 1_655 S
C391 C392 1.524 . S
C391 C395 1.400 1_655 S
C392 H377 0.960 . S
C392 H378 0.960 . S
C392 H379 0.960 . S
C392 C391 1.524 . S
C393 C390 1.403 . S
C393 C394 1.392 . S
C393 C397 1.495 . S
C394 C393 1.392 . S
C394 C395 1.385 . S
C394 C396 1.478 . S
C395 H389 0.930 1_455 S
C395 C391 1.400 1_455 S
C395 C394 1.385 . S
C396 C394 1.478 . S
C396 C398 1.381 . S
C396 C402 1.383 . S
C397 C393 1.495 . S
C397 H403 0.959 . S
C397 H404 0.961 . S
C397 H405 0.960 . S
C398 C396 1.381 . S
C398 C399 1.394 . S
C398 H406 0.930 . S
C399 C398 1.394 . S
C399 C400 1.383 . S
C399 H407 0.929 . S
C400 C399 1.383 . S
C400 C401 1.377 . S
C401 H385 0.930 . S
C401 C400 1.377 . S
C401 C402 1.379 . S
C402 H386 0.931 . S
C402 C396 1.383 . S
C402 C401 1.379 . S
H403 C397 0.959 . S
H404 C397 0.961 . S
H405 C397 0.960 . S
H406 C398 0.930 . S
H407 C399 0.929 . S
H408 C416 0.929 . S
H409 C418 0.930 . S
H410 C420 0.930 . S
H411 C423 0.929 . S
H412 C426 0.930 . S
H413 C428 0.960 . S
H414 C428 0.960 . S
H415 C428 0.960 . S
C416 H408 0.929 . S
C416 C417 1.377 1_565 S
C416 C418 1.384 . S
C417 C416 1.377 1_545 S
C417 C423 1.390 . S
C418 H409 0.930 . S
C418 C416 1.384 . S
C418 C419 1.372 1_565 S
C419 C418 1.372 1_545 S
C419 C420 1.400 . S
C419 C424 1.490 . S
C420 H410 0.930 . S
C420 C419 1.400 . S
C420 C423 1.386 . S
H421 C437 0.930 . S
H422 C438 0.931 . S
C423 H411 0.929 . S
C423 C417 1.390 . S
C423 C420 1.386 . S
C424 C419 1.490 . S
C424 C426 1.395 1_545 S
C424 C427 1.403 . S
H425 C431 0.930 . S
C426 H412 0.930 . S
C426 C424 1.395 1_565 S
C426 C429 1.403 . S
C427 C424 1.403 . S
C427 C428 1.524 . S
C427 C431 1.400 . S
C428 H413 0.960 . S
C428 H414 0.960 . S
C428 H415 0.960 . S
C428 C427 1.524 . S
C429 C426 1.403 . S
C429 C430 1.392 1_565 S
C429 C433 1.495 . S
C430 C429 1.392 1_545 S
C430 C431 1.385 . S
C430 C432 1.478 . S
C431 H425 0.930 . S
C431 C427 1.400 . S
C431 C430 1.385 . S
C432 C430 1.478 . S
C432 C434 1.381 . S
C432 C438 1.383 . S
C433 C429 1.495 . S
C433 H439 0.959 . S
C433 H440 0.961 . S
C433 H441 0.960 . S
C434 C432 1.381 . S
C434 C435 1.394 . S
C434 H442 0.930 1_545 S
C435 C434 1.394 . S
C435 C436 1.383 . S
C435 H443 0.929 . S
C436 C435 1.383 . S
C436 C437 1.377 . S
C437 H421 0.930 . S
C437 C436 1.377 . S
C437 C438 1.379 . S
C438 H422 0.931 . S
C438 C432 1.383 . S
C438 C437 1.379 . S
H439 C433 0.959 . S
H440 C433 0.961 . S
H441 C433 0.960 . S
H442 C434 0.930 1_565 S
H443 C435 0.929 . S
H444 C452 0.929 . S
H445 C454 0.930 . S
H446 C456 0.930 . S
H447 C459 0.929 . S
H448 C462 0.930 . S
H449 C464 0.960 . S
H450 C464 0.960 . S
H451 C464 0.960 . S
C452 H444 0.929 . S
C452 C453 1.377 . S
C452 C454 1.384 . S
C453 C452 1.377 . S
C453 C459 1.390 . S
C454 H445 0.930 . S
C454 C452 1.384 . S
C454 C455 1.372 . S
C455 C454 1.372 . S
C455 C456 1.400 . S
C455 C460 1.490 . S
C456 H446 0.930 . S
C456 C455 1.400 . S
C456 C459 1.386 . S
H457 C473 0.930 . S
H458 C474 0.931 . S
C459 H447 0.929 . S
C459 C453 1.390 . S
C459 C456 1.386 . S
C460 C455 1.490 . S
C460 C462 1.395 . S
C460 C463 1.403 1_554 S
H461 C467 0.930 . S
C462 H448 0.930 . S
C462 C460 1.395 . S
C462 C465 1.403 . S
C463 C460 1.403 1_556 S
C463 C464 1.524 . S
C463 C467 1.400 . S
C464 H449 0.960 . S
C464 H450 0.960 . S
C464 H451 0.960 . S
C464 C463 1.524 . S
C465 C462 1.403 . S
C465 C466 1.392 1_554 S
C465 C469 1.495 . S
C466 C465 1.392 1_556 S
C466 C467 1.385 . S
C466 C468 1.478 . S
C467 H461 0.930 . S
C467 C463 1.400 . S
C467 C466 1.385 . S
C468 C466 1.478 . S
C468 C470 1.381 . S
C468 C474 1.383 . S
C469 C465 1.495 . S
C469 H475 0.959 . S
C469 H476 0.961 . S
C469 H477 0.960 . S
C470 C468 1.381 . S
C470 C471 1.394 . S
C470 H478 0.930 . S
C471 C470 1.394 . S
C471 C472 1.383 . S
C471 H479 0.929 . S
C472 C471 1.383 . S
C472 C473 1.377 . S
C473 H457 0.930 . S
C473 C472 1.377 . S
C473 C474 1.379 . S
C474 H458 0.931 . S
C474 C468 1.383 . S
C474 C473 1.379 . S
H475 C469 0.959 . S
H476 C469 0.961 . S
H477 C469 0.960 . S
H478 C470 0.930 . S
H479 C471 0.929 . S
H480 C488 0.929 . S
H481 C490 0.930 . S
H482 C492 0.930 . S
H483 C495 0.929 . S
H484 C498 0.930 . S
H485 C500 0.960 1_655 S
H486 C500 0.960 1_655 S
H487 C500 0.960 . S
C488 H480 0.929 . S
C488 C489 1.377 . S
C488 C490 1.384 . S
C489 C488 1.377 . S
C489 C495 1.390 . S
C490 H481 0.930 . S
C490 C488 1.384 . S
C490 C491 1.372 . S
C491 C490 1.372 . S
C491 C492 1.400 . S
C491 C496 1.490 . S
C492 H482 0.930 . S
C492 C491 1.400 . S
C492 C495 1.386 . S
H493 C509 0.930 . S
H494 C510 0.931 . S
C495 H483 0.929 . S
C495 C489 1.390 . S
C495 C492 1.386 . S
C496 C491 1.490 . S
C496 C498 1.395 . S
C496 C499 1.403 . S
H497 C503 0.930 . S
C498 H484 0.930 . S
C498 C496 1.395 . S
C498 C501 1.403 . S
C499 C496 1.403 . S
C499 C500 1.524 . S
C499 C503 1.400 . S
C500 H485 0.960 1_455 S
C500 H486 0.960 1_455 S
C500 H487 0.960 . S
C500 C499 1.524 . S
C501 C498 1.403 . S
C501 C502 1.392 . S
C501 C505 1.495 . S
C502 C501 1.392 . S
C502 C503 1.385 . S
C502 C504 1.478 . S
C503 H497 0.930 . S
C503 C499 1.400 . S
C503 C502 1.385 . S
C504 C502 1.478 . S
C504 C506 1.381 . S
C504 C510 1.383 . S
C505 C501 1.495 . S
C505 H511 0.959 . S
C505 H512 0.961 . S
C505 H513 0.960 . S
C506 C504 1.381 . S
C506 C507 1.394 . S
C506 H514 0.930 . S
C507 C506 1.394 . S
C507 C508 1.383 . S
C507 H515 0.929 . S
C508 C507 1.383 . S
C508 C509 1.377 . S
C509 H493 0.930 . S
C509 C508 1.377 . S
C509 C510 1.379 . S
C510 H494 0.931 . S
C510 C504 1.383 . S
C510 C509 1.379 . S
H511 C505 0.959 . S
H512 C505 0.961 . S
H513 C505 0.960 . S
H514 C506 0.930 . S
H515 C507 0.929 . S
C112 C43 1.290 . S
C93 C11 1.275 . S
C129 C25 1.338 . S
C148 C69 1.350 . S
C165 C41 1.327 . S
C184 C71 1.388 . S
C201 C7 1.329 1_565 S
C220 C55 1.325 . S
C256 C57 1.388 . S
C237 C21 1.392 . S
C273 C36 1.357 . S
C292 C83 1.418 . S
C328 C56 1.345 . S
C309 C39 1.334 . S
C345 C8 1.350 1_665 S
C364 C82 1.400 . S
C400 C42 1.474 . S
C381 C22 1.413 1_565 S
C436 C68 1.384 . S
C417 C35 1.386 . S
C472 C70 1.375 . S
C453 C13 1.322 . S
C489 C27 1.376 . S
C508 C54 1.423 . S
