# Generated by pormake.
# Topology tsx, (6,3)-cn, num edge types: 1
# Building blocks:
#     Node 0, Type 0, BuildingBlock: MIDCAF_clean_sbu_0, # of connection points: 6
#     Node 1, Type 0, BuildingBlock: MIDCAF_clean_sbu_0, # of connection points: 6
#     Node 2, Type 1, BuildingBlock: WUSLED_clean_sbu_0, # of connection points: 3
#     Node 3, Type 1, BuildingBlock: WUSLED_clean_sbu_0, # of connection points: 3
#     Node 4, Type 1, BuildingBlock: WUSLED_clean_sbu_0, # of connection points: 3
#     Node 5, Type 1, BuildingBlock: WUSLED_clean_sbu_0, # of connection points: 3
#     Edge 6, Type (0, 1), BuildingBlock: TEMPAE_clean_linker_10, # of connection points: 2
#     Edge 7, Type (0, 1), BuildingBlock: TEMPAE_clean_linker_10, # of connection points: 2
#     Edge 8, Type (0, 1), BuildingBlock: TEMPAE_clean_linker_10, # of connection points: 2
#     Edge 9, Type (0, 1), BuildingBlock: TEMPAE_clean_linker_10, # of connection points: 2
#     Edge 10, Type (0, 1), BuildingBlock: TEMPAE_clean_linker_10, # of connection points: 2
#     Edge 11, Type (0, 1), BuildingBlock: TEMPAE_clean_linker_10, # of connection points: 2
#     Edge 12, Type (0, 1), BuildingBlock: TEMPAE_clean_linker_10, # of connection points: 2
#     Edge 13, Type (0, 1), BuildingBlock: TEMPAE_clean_linker_10, # of connection points: 2
#     Edge 14, Type (0, 1), BuildingBlock: TEMPAE_clean_linker_10, # of connection points: 2
#     Edge 15, Type (0, 1), BuildingBlock: TEMPAE_clean_linker_10, # of connection points: 2
#     Edge 16, Type (0, 1), BuildingBlock: TEMPAE_clean_linker_10, # of connection points: 2
#     Edge 17, Type (0, 1), BuildingBlock: TEMPAE_clean_linker_10, # of connection points: 2
# Relax obj value: 0.113
# Max RMSD: 0.180
# Mean RMSD: 0.109
data_MOF--net-tsx--node1-MIDCAF_clean_sbu_0--node2-WUSLED_clean_sbu_0--edge1-TEMPAE_clean_linker_10
_symmetry_space_group_name_H-M    P1
_symmetry_Int_Tables_number       1
_symmetry_cell_setting            triclinic
loop_
_symmetry_equiv_pos_as_xyz
'x, y, z'
_cell_length_a     25.154713
_cell_length_b     26.481425
_cell_length_c     49.980206
_cell_angle_alpha  90.471943
_cell_angle_beta   95.161983
_cell_angle_gamma 89.840401
loop_
_atom_site_label
_atom_site_type_symbol
_atom_site_fract_x
_atom_site_fract_y
_atom_site_fract_z
_atom_type_partial_charge
Zn0 Zn 0.97824 0.05815 0.98402 0.0
Zn1 Zn 0.15221 0.04772 0.04434 0.0
Zn2 Zn 0.06485 0.05751 0.01352 0.0
C3 C 0.13518 0.15207 0.03631 0.0
C4 C 0.17257 0.99631 0.99879 0.0
O5 O 1.00279 0.01409 0.03347 0.0
O6 O 0.93922 1.00413 1.0004 0.0
C7 C 0.99643 0.15761 0.99926 0.0
O8 O 0.09367 0.1363 0.02159 0.0
O9 O 0.1663 0.12071 0.04853 0.0
O10 O 0.19641 0.00901 0.02108 0.0
O11 O 0.12398 0.01089 0.99251 0.0
O12 O 0.95846 0.12911 0.99067 0.0
O13 O 0.04258 0.13871 0.00695 0.0
O14 O 0.07979 0.0215 0.97445 0.0
O15 O 1.00557 0.0403 0.94947 0.0
C16 C 0.0519 0.02154 0.95149 0.0
O17 O 0.04684 0.02342 0.05246 0.0
O18 O 0.12572 0.01293 0.07521 0.0
C19 C 0.95842 0.99378 0.02386 0.0
C20 C 0.07561 0.00921 0.0738 0.0
Zn21 Zn 0.58115 0.4427 0.538 0.0
Zn22 Zn 0.43933 0.48713 0.48092 0.0
Zn23 Zn 0.52339 0.47829 0.50704 0.0
C24 C 0.51936 0.47224 0.44475 0.0
C25 C 0.46578 0.58195 0.50731 0.0
O26 O 0.52467 0.52688 0.54317 0.0
O27 O 0.53219 0.45801 0.56749 0.0
C28 C 0.59889 0.39386 0.49429 0.0
O29 O 0.54971 0.47185 0.4668 0.0
O30 O 0.46941 0.47678 0.44545 0.0
O31 O 0.42913 0.55879 0.49321 0.0
O32 O 0.50896 0.55862 0.51587 0.0
O33 O 0.58556 0.37844 0.51666 0.0
O34 O 0.58586 0.43901 0.48696 0.0
O35 O 0.56692 0.54456 0.52511 0.0
O36 O 0.63829 0.49719 0.53245 0.0
C37 C 0.61827 0.54096 0.5293 0.0
O38 O 0.47567 0.41986 0.52313 0.0
O39 O 0.40151 0.42987 0.4971 0.0
C40 C 0.52017 0.50448 0.56565 0.0
C41 C 0.42782 0.40641 0.51586 0.0
C42 C 0.98254 0.10464 0.44148 0.0
C43 C 0.95889 0.12842 0.41837 0.0
C44 C 0.89924 0.17529 0.44532 0.0
C45 C 0.91772 0.1635 0.42026 0.0
C46 C 0.92322 0.15126 0.46842 0.0
C47 C 0.96452 0.11627 0.4665 0.0
U48 U 0.05806 0.0203 0.39743 0.0
O49 O 0.1436 1.00167 0.39766 0.0
O50 O 0.08478 0.94147 0.40104 0.0
C51 C 0.13564 0.95336 0.40176 0.0
C52 C 0.02489 0.06681 0.43933 0.0
C53 C 0.17251 0.92753 0.42219 0.0
C54 C 0.26237 0.91635 0.44423 0.0
C55 C 0.22491 0.94529 0.42849 0.0
C56 C 0.19539 0.85222 0.44845 0.0
C57 C 0.24837 0.8688 0.45368 0.0
C58 C 0.15799 0.88111 0.43286 0.0
C59 C 1.01279 0.02596 0.32195 0.0
C60 C 0.0636 0.99855 0.28537 0.0
C61 C 0.96932 0.01746 0.27675 0.0
C62 C 0.96688 0.02902 0.30394 0.0
C63 C 1.01789 1.00288 0.2671 0.0
C64 C 0.06104 0.00982 0.31261 0.0
C65 C 1.00963 0.0413 0.35009 0.0
O66 O 1.00799 0.02175 0.43136 0.0
O67 O 0.06595 0.08225 0.42708 0.0
O68 O 0.0503 0.06733 0.36129 0.0
O69 O 0.99265 1.00661 0.36589 0.0
H70 H 0.97221 0.1197 0.39883 0.0
H71 H 0.90061 0.18161 0.40213 0.0
H72 H 0.90939 0.15876 0.48798 0.0
H73 H 0.98204 0.09796 0.48451 0.0
H74 H 0.303 0.92993 0.44778 0.0
H75 H 0.23768 0.98054 0.42032 0.0
H76 H 0.18326 0.81596 0.45571 0.0
H77 H 0.11825 0.86592 0.42827 0.0
H78 H 0.10144 0.98687 0.27853 0.0
H79 H 0.9336 0.02162 0.26313 0.0
H80 H 0.92929 0.04134 0.31084 0.0
H81 H 0.09684 1.00676 0.32628 0.0
C82 C 0.96218 0.89526 0.58756 0.0
C83 C 0.9213 0.88849 0.60461 0.0
C84 C 0.87768 0.82673 0.57348 0.0
C85 C 0.87942 0.85487 0.59757 0.0
C86 C 0.91878 0.83371 0.55647 0.0
C87 C 0.96042 0.8677 0.56342 0.0
U88 U 0.06631 0.95008 0.63961 0.0
O89 O 0.14995 0.97243 0.6375 0.0
O90 O 0.0911 0.02862 0.64857 0.0
C91 C 0.14077 0.01985 0.64368 0.0
C92 C 1.0071 0.93021 0.59485 0.0
C93 C 0.16704 0.059 0.62877 0.0
C94 C 0.20736 0.08909 0.58942 0.0
C95 C 0.17846 0.05228 0.60198 0.0
C96 C 0.21286 0.13977 0.63013 0.0
C97 C 0.22521 0.13316 0.60344 0.0
C98 C 0.18411 0.10313 0.6426 0.0
C99 C 0.07303 0.90395 0.71126 0.0
C100 C 0.12846 0.9483 0.74615 0.0
C101 C 0.07189 0.87946 0.75788 0.0
C102 C 0.0544 0.87248 0.73075 0.0
C103 C 0.10814 0.91827 0.76595 0.0
C104 C 0.11104 0.94119 0.71902 0.0
C105 C 0.04988 0.90032 0.68328 0.0
O106 O 0.99722 0.96771 0.61111 0.0
O107 O 0.05381 0.90881 0.60102 0.0
O108 O 0.08233 0.88429 0.66583 0.0
O109 O 0.02149 0.93976 0.67489 0.0
H110 H 0.92168 0.90908 0.62344 0.0
H111 H 0.84826 0.85114 0.61102 0.0
H112 H 0.91945 0.81217 0.538 0.0
H113 H 0.99163 0.87209 0.55003 0.0
H114 H 0.21564 0.08311 0.56874 0.0
H115 H 0.16568 0.01846 0.5909 0.0
H116 H 0.22656 0.17278 0.64167 0.0
H117 H 0.17611 0.10881 0.66336 0.0
H118 H 0.15669 0.97822 0.7517 0.0
H119 H 0.0549 0.85617 0.77265 0.0
H120 H 0.02492 0.84367 0.72508 0.0
H121 H 0.12588 0.9658 0.70417 0.0
C122 C 0.50888 0.66843 0.93471 0.0
C123 C 0.50501 0.71533 0.92166 0.0
C124 C 0.42104 0.73361 0.94068 0.0
C125 C 0.46188 0.74759 0.92475 0.0
C126 C 0.42495 0.68651 0.95367 0.0
C127 C 0.46847 0.65438 0.95075 0.0
U128 U 0.5891 0.60231 0.88532 0.0
O129 O 0.67477 0.58624 0.88415 0.0
O130 O 0.61703 0.52389 0.88143 0.0
C131 C 0.66752 0.53711 0.88255 0.0
C132 C 0.55269 0.63274 0.93015 0.0
C133 C 0.7057 0.50522 0.89899 0.0
C134 C 0.75642 0.48275 0.94108 0.0
C135 C 0.7192 0.5141 0.92652 0.0
C136 C 0.7668 0.43389 0.90071 0.0
C137 C 0.78035 0.44198 0.92833 0.0
C138 C 0.72992 0.46507 0.88628 0.0
C139 C 0.541 0.63409 0.81143 0.0
C140 C 0.58549 0.6378 0.77023 0.0
C141 C 0.49087 0.61979 0.76818 0.0
C142 C 0.4928 0.62355 0.79611 0.0
C143 C 0.53712 0.62696 0.75483 0.0
C144 C 0.58746 0.64127 0.79828 0.0
C145 C 0.54063 0.63877 0.84085 0.0
O146 O 0.5375 0.5902 0.91809 0.0
O147 O 0.59521 0.65244 0.92077 0.0
O148 O 0.58171 0.66092 0.8542 0.0
O149 O 0.52377 0.59891 0.85304 0.0
H150 H 0.53515 0.72711 0.90886 0.0
H151 H 0.46096 0.78383 0.91484 0.0
H152 H 0.39402 0.67407 0.96582 0.0
H153 H 0.47015 0.61816 0.96072 0.0
H154 H 0.76572 0.48981 0.96236 0.0
H155 H 0.70095 0.54503 0.9367 0.0
H156 H 0.78505 0.4035 0.89011 0.0
H157 H 0.72036 0.45783 0.86502 0.0
H158 H 0.62178 0.64393 0.76059 0.0
H159 H 0.45317 0.61034 0.7571 0.0
H160 H 0.45644 0.61801 0.80581 0.0
H161 H 0.62519 0.64967 0.80961 0.0
C162 C 0.43999 0.52534 0.0742 0.0
C163 C 0.40435 0.50909 0.09242 0.0
C164 C 0.35258 0.46271 0.05673 0.0
C165 C 0.36094 0.47835 0.08375 0.0
C166 C 0.38805 0.47951 0.03847 0.0
C167 C 0.43125 0.51067 0.04714 0.0
U168 U 0.54657 0.56227 0.12933 0.0
O169 O 0.6324 0.57747 0.12902 0.0
O170 O 0.57915 0.6363 0.14264 0.0
C171 C 0.62783 0.62458 0.13707 0.0
C172 C 0.48726 0.55586 0.08345 0.0
C173 C 0.65808 0.6635 0.1236 0.0
C174 C 0.73446 0.68675 0.09961 0.0
C175 C 0.70131 0.64981 0.10903 0.0
C176 C 0.68149 0.75201 0.11864 0.0
C177 C 0.72541 0.73825 0.10462 0.0
C178 C 0.64841 0.71507 0.12813 0.0
C179 C 0.54592 0.4985 0.19732 0.0
C180 C 0.59427 0.53164 0.23797 0.0
C181 C 0.55001 0.45055 0.23863 0.0
C182 C 0.53314 0.45528 0.21134 0.0
C183 C 0.57982 0.48915 0.25239 0.0
C184 C 0.57761 0.53619 0.21062 0.0
C185 C 0.52404 0.50476 0.16927 0.0
O186 O 0.47984 0.59017 0.10193 0.0
O187 O 0.5319 0.5303 0.08845 0.0
O188 O 0.55522 0.4901 0.15095 0.0
O189 O 0.50046 0.54829 0.16379 0.0
H190 H 0.41059 0.51945 0.11349 0.0
H191 H 0.33497 0.46535 0.0984 0.0
H192 H 0.3826 0.46821 0.01753 0.0
H193 H 0.45833 0.5227 0.03277 0.0
H194 H 0.76753 0.67492 0.08856 0.0
H195 H 0.71049 0.61047 0.10548 0.0
H196 H 0.67373 0.7913 0.12308 0.0
H197 H 0.6162 0.72692 0.13977 0.0
H198 H 0.6175 0.5618 0.24798 0.0
H199 H 0.53758 0.41771 0.24922 0.0
H200 H 0.50878 0.42581 0.20136 0.0
H201 H 0.58825 0.56969 0.20001 0.0
C202 C 0.1838 0.22192 0.06103 0.0
C203 C 0.15009 0.20617 0.03864 0.0
C204 C 0.20855 0.26921 0.06186 0.0
C205 C 0.19889 0.30232 0.03986 0.0
C206 C 0.16136 0.28848 0.01814 0.0
C207 C 0.13766 0.24021 0.01767 0.0
C208 C 0.24802 0.28212 0.08553 0.0
C209 C 0.14865 0.32316 0.99464 0.0
C210 C 0.25832 0.43125 0.05718 0.0
C211 C 0.30943 0.42596 0.04828 0.0
C212 C 0.21971 0.39313 0.0524 0.0
C213 C 0.23288 0.34826 0.03885 0.0
C214 C 0.2832 0.34424 0.02831 0.0
C215 C 0.32072 0.38318 0.03305 0.0
C216 C 0.16606 0.39955 0.0633 0.0
C217 C 0.29908 0.29705 0.01382 0.0
H218 H 0.19303 0.19606 0.07752 0.0
H219 H 0.1121 0.22814 1.00023 0.0
H220 H 0.28876 0.28465 0.07876 0.0
H221 H 0.23838 0.31941 0.09413 0.0
H222 H 0.24856 0.25352 0.10169 0.0
H223 H 0.11028 0.3129 0.98314 0.0
H224 H 0.14651 0.36307 1.0014 0.0
H225 H 0.18078 0.32029 0.98089 0.0
H226 H 0.24899 0.46466 0.06855 0.0
H227 H 0.36015 0.37868 0.0262 0.0
H228 H 0.16461 0.37623 0.08156 0.0
H229 H 0.13357 0.38641 0.0484 0.0
H230 H 0.15833 0.43949 0.06875 0.0
H231 H 0.30405 0.26541 0.02827 0.0
H232 H 0.33711 0.30189 0.00443 0.0
H233 H 0.26739 0.28613 0.99799 0.0
C234 C 0.17586 0.92011 0.96885 0.0
C235 C 0.20108 0.96237 0.98129 0.0
C236 C 0.20595 0.88188 0.95746 0.0
C237 C 0.26232 0.88629 0.95872 0.0
C238 C 0.28709 0.93108 0.96918 0.0
C239 C 0.25622 0.96833 0.98049 0.0
C240 C 0.17773 0.83524 0.94608 0.0
C241 C 0.34681 0.93814 0.97029 0.0
C242 C 0.3553 0.77387 0.96942 0.0
C243 C 0.37562 0.76881 0.94429 0.0
C244 C 0.31585 0.80985 0.9738 0.0
C245 C 0.29651 0.84224 0.95266 0.0
C246 C 0.31494 0.83591 0.92692 0.0
C247 C 0.35406 0.79917 0.92301 0.0
C248 C 0.29685 0.81491 1.00152 0.0
C249 C 0.29514 0.86942 0.90384 0.0
H250 H 0.1332 0.9154 0.9695 0.0
H251 H 0.27568 1.00129 0.98989 0.0
H252 H 0.19583 0.82111 0.92802 0.0
H253 H 0.18154 0.80496 0.96136 0.0
H254 H 0.13457 0.84249 0.94069 0.0
H255 H 0.35896 0.97736 0.976 0.0
H256 H 0.36676 0.912 0.98529 0.0
H257 H 0.36151 0.92894 0.95056 0.0
H258 H 0.37177 0.75111 0.98609 0.0
H259 H 0.3684 0.79484 0.90331 0.0
H260 H 0.25259 0.81529 1.00024 0.0
H261 H 0.31101 0.85127 0.01075 0.0
H262 H 0.31168 0.78376 0.01498 0.0
H263 H 0.25097 0.87169 0.90216 0.0
H264 H 0.30815 0.85576 0.88439 0.0
H265 H 0.31053 0.90829 0.90762 0.0
C266 C 0.90941 0.91293 0.02492 0.0
C267 C 0.93062 0.95556 0.0388 0.0
C268 C 0.87849 0.8778 0.03742 0.0
C269 C 0.86827 0.88552 0.06454 0.0
C270 C 0.89054 0.92802 0.07887 0.0
C271 C 0.92124 0.96279 0.06571 0.0
C272 C 0.85557 0.83311 0.02135 0.0
C273 C 0.88043 0.93763 0.10776 0.0
C274 C 0.74205 0.8221 0.08384 0.0
C275 C 0.76225 0.77736 0.0957 0.0
C276 C 0.7763 0.85853 0.07454 0.0
C277 C 0.83217 0.85012 0.07719 0.0
C278 C 0.85292 0.80576 0.08987 0.0
C279 C 0.81774 0.76987 0.09891 0.0
C280 C 0.75252 0.90521 0.06101 0.0
C281 C 0.91224 0.79563 0.09328 0.0
H282 H 0.9165 0.9074 0.004 0.0
H283 H 0.93558 0.99677 0.07599 0.0
H284 H 0.86749 0.79742 0.03172 0.0
H285 H 0.81133 0.83498 0.01971 0.0
H286 H 0.86891 0.83165 1.00076 0.0
H287 H 0.90399 0.97001 0.11664 0.0
H288 H 0.83745 0.94571 0.10908 0.0
H289 H 0.89044 0.90354 0.11995 0.0
H290 H 0.69926 0.82803 0.08114 0.0
H291 H 0.83371 0.73584 0.10852 0.0
H292 H 0.76033 0.90483 0.03951 0.0
H293 H 0.77159 0.93961 0.07029 0.0
H294 H 0.70873 0.90789 0.06227 0.0
H295 H 0.92757 0.79094 0.07328 0.0
H296 H 0.92221 0.76112 0.10521 0.0
H297 H 0.93348 0.82824 0.10335 0.0
C298 C 1.00298 0.241 0.97764 0.0
C299 C 0.98587 0.21232 0.99861 0.0
C300 C 0.97679 0.28624 0.96975 0.0
C301 C 0.93222 0.30261 0.98305 0.0
C302 C 0.91888 0.27652 0.00614 0.0
C303 C 0.94562 0.23142 0.0135 0.0
C304 C 0.99288 0.31305 0.94523 0.0
C305 C 0.87228 0.29275 0.02122 0.0
C306 C 0.85928 0.42505 0.96213 0.0
C307 C 0.81848 0.40694 0.94348 0.0
C308 C 0.8968 0.3918 0.97529 0.0
C309 C 0.89331 0.33931 0.9697 0.0
C310 C 0.85164 0.32092 0.95124 0.0
C311 C 0.81485 0.35481 0.9385 0.0
C312 C 0.94042 0.41281 0.99491 0.0
C313 C 0.84587 0.26522 0.94479 0.0
H314 H 0.03325 0.22565 0.96571 0.0
H315 H 0.93185 0.20876 0.02948 0.0
H316 H 0.96428 0.30336 0.92774 0.0
H317 H 0.99169 0.35459 0.9481 0.0
H318 H 0.03358 0.30187 0.94042 0.0
H319 H 0.87386 0.27528 0.04142 0.0
H320 H 0.87116 0.33441 0.02359 0.0
H321 H 0.83452 0.281 0.00968 0.0
H322 H 0.86259 0.4653 0.96599 0.0
H323 H 0.7829 0.34033 0.92456 0.0
H324 H 0.97996 0.40459 0.98765 0.0
H325 H 0.93961 0.39425 0.01469 0.0
H326 H 0.93664 0.45427 0.99776 0.0
H327 H 0.88274 0.25075 0.93675 0.0
H328 H 0.81152 0.25715 0.92982 0.0
H329 H 0.84031 0.2439 0.96335 0.0
C330 C 0.70831 0.5811 0.53506 0.0
C331 C 0.65264 0.58619 0.53394 0.0
C332 C 0.74206 0.62268 0.54062 0.0
C333 C 0.71976 0.67067 0.54552 0.0
C334 C 0.66349 0.67631 0.54404 0.0
C335 C 0.63057 0.63405 0.53806 0.0
C336 C 0.80175 0.61503 0.54163 0.0
C337 C 0.6381 0.72664 0.54943 0.0
C338 C 0.81447 0.7594 0.58647 0.0
C339 C 0.83412 0.78928 0.56646 0.0
C340 C 0.77543 0.72231 0.58006 0.0
C341 C 0.75586 0.71422 0.55291 0.0
C342 C 0.77436 0.74504 0.53268 0.0
C343 C 0.81301 0.78228 0.5397 0.0
C344 C 0.75652 0.69052 0.60228 0.0
C345 C 0.75459 0.73761 0.50349 0.0
H346 H 0.72571 0.54436 0.53166 0.0
H347 H 0.58758 0.63833 0.53719 0.0
H348 H 0.81915 0.64126 0.52759 0.0
H349 H 0.82033 0.62377 0.56211 0.0
H350 H 0.81264 0.57576 0.5363 0.0
H351 H 0.59389 0.72551 0.54571 0.0
H352 H 0.64869 0.73802 0.57065 0.0
H353 H 0.6536 0.75622 0.53662 0.0
H354 H 0.83077 0.76385 0.60717 0.0
H355 H 0.82695 0.80574 0.52411 0.0
H356 H 0.77017 0.65097 0.6 0.0
H357 H 0.71226 0.68998 0.60101 0.0
H358 H 0.77182 0.70454 0.62252 0.0
H359 H 0.76713 0.69988 0.49653 0.0
H360 H 0.77022 0.76675 0.4904 0.0
H361 H 0.71034 0.73869 0.50098 0.0
C362 C 0.66818 0.38336 0.46152 0.0
C363 C 0.63469 0.36197 0.4793 0.0
C364 C 0.70939 0.35486 0.45145 0.0
C365 C 0.71734 0.30405 0.45958 0.0
C366 C 0.68121 0.28142 0.47599 0.0
C367 C 0.64034 0.3106 0.48558 0.0
C368 C 0.74642 0.38015 0.43359 0.0
C369 C 0.68786 0.22727 0.485 0.0
C370 C 0.80985 0.21123 0.42836 0.0
C371 C 0.85452 0.21173 0.44739 0.0
C372 C 0.76587 0.24309 0.4312 0.0
C373 C 0.76637 0.2759 0.45372 0.0
C374 C 0.8122 0.27806 0.47236 0.0
C375 C 0.85568 0.24611 0.46893 0.0
C376 C 0.71801 0.24004 0.41076 0.0
C377 C 0.81448 0.31268 0.49661 0.0
H378 H 0.66436 0.42308 0.45676 0.0
H379 H 0.61422 0.29364 0.49908 0.0
H380 H 0.78492 0.38853 0.44538 0.0
H381 H 0.75505 0.35489 0.41669 0.0
H382 H 0.72949 0.41613 0.42528 0.0
H383 H 0.65363 0.21404 0.49565 0.0
H384 H 0.69214 0.20196 0.46753 0.0
H385 H 0.7248 0.22365 0.49877 0.0
H386 H 0.80837 0.18463 0.41172 0.0
H387 H 0.89048 0.24761 0.48337 0.0
H388 H 0.70466 0.27842 0.40439 0.0
H389 H 0.68438 0.22192 0.41991 0.0
H390 H 0.72654 0.2178 0.39268 0.0
H391 H 0.80495 0.352 0.49032 0.0
H392 H 0.85427 0.3123 0.50822 0.0
H393 H 0.78411 0.30093 0.51008 0.0
C394 C 0.42329 0.34493 0.55374 0.0
C395 C 0.40229 0.36373 0.52883 0.0
C396 C 0.39719 0.30605 0.56644 0.0
C397 C 0.34942 0.28519 0.55375 0.0
C398 C 0.32894 0.3032 0.52831 0.0
C399 C 0.3554 0.34232 0.51627 0.0
C400 C 0.42 0.28808 0.59367 0.0
C401 C 0.27847 0.28174 0.51395 0.0
C402 C 0.298 0.15763 0.57467 0.0
C403 C 0.25725 0.17195 0.59063 0.0
C404 C 0.32912 0.19401 0.56299 0.0
C405 C 0.31933 0.24599 0.56738 0.0
C406 C 0.27851 0.26067 0.58359 0.0
C407 C 0.24792 0.22356 0.59492 0.0
C408 C 0.37213 0.17686 0.54574 0.0
C409 C 0.26655 0.31568 0.58864 0.0
H410 H 0.45942 0.36135 0.56358 0.0
H411 H 0.33911 0.35624 0.4969 0.0
H412 H 0.39123 0.29596 0.60876 0.0
H413 H 0.42637 0.24663 0.59323 0.0
H414 H 0.45849 0.30671 0.60036 0.0
H415 H 0.26913 0.29837 0.49374 0.0
H416 H 0.28222 0.24021 0.51167 0.0
H417 H 0.24429 0.28896 0.52603 0.0
H418 H 0.30603 0.11788 0.57157 0.0
H419 H 0.21609 0.23504 0.60691 0.0
H420 H 0.41117 0.19304 0.55354 0.0
H421 H 0.36318 0.19087 0.52496 0.0
H422 H 0.37589 0.13507 0.54499 0.0
H423 H 0.3033 0.33543 0.59696 0.0
H424 H 0.23533 0.32081 0.60281 0.0
H425 H 0.25283 0.33422 0.56941 0.0
C426 C 0.41375 0.64921 0.52711 0.0
C427 C 0.45702 0.63574 0.51279 0.0
C428 C 0.38795 0.69588 0.52284 0.0
C429 C 0.40531 0.72908 0.50334 0.0
C430 C 0.45343 0.71834 0.49162 0.0
C431 C 0.47891 0.67157 0.49657 0.0
C432 C 0.3378 0.70623 0.53642 0.0
C433 C 0.47392 0.7528 0.471 0.0
C434 C 0.29162 0.78409 0.45764 0.0
C435 C 0.28957 0.83424 0.46662 0.0
C436 C 0.3297 0.75018 0.46917 0.0
C437 C 0.36682 0.76656 0.49049 0.0
C438 C 0.36551 0.81737 0.49953 0.0
C439 C 0.327 0.85078 0.48736 0.0
C440 C 0.32982 0.69654 0.45857 0.0
C441 C 0.40396 0.8361 0.52233 0.0
H442 H 0.39674 0.62122 0.53956 0.0
H443 H 0.51214 0.66084 0.48531 0.0
H444 H 0.33462 0.7468 0.54174 0.0
H445 H 0.30252 0.69634 0.52243 0.0
H446 H 0.33641 0.68343 0.55491 0.0
H447 H 0.51685 0.74579 0.46869 0.0
H448 H 0.45105 0.74585 0.45128 0.0
H449 H 0.46847 0.79305 0.47643 0.0
H450 H 0.26355 0.77139 0.44124 0.0
H451 H 0.3255 0.88955 0.49438 0.0
H452 H 0.3217 0.66991 0.47472 0.0
H453 H 0.36964 0.68696 0.45202 0.0
H454 H 0.29941 0.69042 0.44132 0.0
H455 H 0.39509 0.81757 0.54125 0.0
H456 H 0.40138 0.87766 0.52517 0.0
H457 H 0.44555 0.82594 0.51874 0.0
C458 C 1.01656 0.02957 0.10944 0.0
C459 C 0.05127 0.99548 0.09839 0.0
C460 C 1.00402 0.02466 0.13609 0.0
C461 C 0.02735 0.98504 0.15203 0.0
C462 C 0.05912 0.94828 0.14023 0.0
C463 C 0.07123 0.95429 0.11357 0.0
C464 C 0.96932 0.06421 0.14778 0.0
C465 C 0.08375 0.90488 0.15637 0.0
C466 C 0.06317 0.01768 0.22542 0.0
C467 C 0.02149 0.99533 0.23785 0.0
C468 C 0.06566 0.01393 0.19758 0.0
C469 C 0.02567 0.98679 0.18171 0.0
C470 C 0.98418 0.96297 0.19421 0.0
C471 C 0.98231 0.96793 0.22213 0.0
C472 C 0.11057 0.04006 0.18508 0.0
C473 C 0.94099 0.9334 0.17814 0.0
H474 H 1.00198 0.06195 0.0978 0.0
H475 H 0.09861 0.92828 0.10504 0.0
H476 H 0.93863 0.04614 0.15909 0.0
H477 H 0.99426 0.08843 0.16211 0.0
H478 H 0.94901 0.08866 0.13202 0.0
H479 H 0.10067 0.8758 0.1434 0.0
H480 H 0.11628 0.91927 0.17088 0.0
H481 H 0.05368 0.88682 0.16811 0.0
H482 H 0.0931 0.0395 0.23741 0.0
H483 H 0.95014 0.95034 0.23169 0.0
H484 H 0.094 0.0689 0.17063 0.0
H485 H 0.13306 0.01236 0.17369 0.0
H486 H 0.13892 0.05891 0.2003 0.0
H487 H 0.91151 0.96009 0.16828 0.0
H488 H 0.91955 0.90795 0.19107 0.0
H489 H 0.95764 0.91047 0.16219 0.0
C490 C 0.12618 1.00034 0.92275 0.0
C491 C 0.072 0.99904 0.92718 0.0
C492 C 0.14368 0.98264 0.8984 0.0
C493 C 0.10567 0.9651 0.87777 0.0
C494 C 0.05116 0.96227 0.88259 0.0
C495 C 0.03516 0.97898 0.90723 0.0
C496 C 0.20236 0.98516 0.89449 0.0
C497 C 1.00914 0.94381 0.86125 0.0
C498 C 0.11616 0.98125 0.80357 0.0
C499 C 0.11951 0.9309 0.79494 0.0
C500 C 0.11662 0.99342 0.83094 0.0
C501 C 0.12067 0.95433 0.85017 0.0
C502 C 0.1292 0.90399 0.84179 0.0
C503 C 0.128 0.89276 0.81421 0.0
C504 C 0.10801 0.04768 0.83904 0.0
C505 C 0.13552 0.86144 0.86172 0.0
H506 H 0.15462 0.01699 0.93781 0.0
H507 H 0.99322 0.97754 0.91065 0.0
H508 H 0.21434 0.95508 0.88066 0.0
H509 H 0.21121 0.02222 0.88573 0.0
H510 H 0.22706 0.98175 0.91398 0.0
H511 H 0.9688 0.94225 0.86861 0.0
H512 H 1.00739 0.96932 0.84367 0.0
H513 H 1.01958 0.90556 0.85416 0.0
H514 H 0.1094 0.01095 0.78886 0.0
H515 H 0.1317 0.85385 0.80769 0.0
H516 H 0.13739 0.05872 0.85594 0.0
H517 H 0.06757 0.05189 0.84605 0.0
H518 H 0.1115 0.07413 0.82215 0.0
H519 H 0.15751 0.87398 0.88085 0.0
H520 H 0.15684 0.82878 0.85353 0.0
H521 H 0.09547 0.84845 0.86631 0.0
C522 C 0.53042 0.58243 0.59412 0.0
C523 C 0.51155 0.53291 0.59036 0.0
C524 C 0.5329 0.60562 0.61961 0.0
C525 C 0.51509 0.57881 0.64154 0.0
C526 C 0.49219 0.5303 0.63723 0.0
C527 C 0.49115 0.5078 0.61174 0.0
C528 C 0.55795 0.6572 0.62338 0.0
C529 C 0.47169 0.50079 0.6599 0.0
C530 C 0.57558 0.59514 0.71323 0.0
C531 C 0.53483 0.62093 0.7251 0.0
C532 C 0.5711 0.58409 0.68562 0.0
C533 C 0.52451 0.59872 0.66948 0.0
C534 C 0.48453 0.62708 0.68101 0.0
C535 C 0.49027 0.63803 0.70865 0.0
C536 C 0.61494 0.5542 0.67403 0.0
C537 C 0.43437 0.64346 0.66446 0.0
H538 H 0.54647 0.60179 0.57761 0.0
H539 H 0.47615 0.46961 0.60877 0.0
H540 H 0.53377 0.68193 0.63561 0.0
H541 H 0.59806 0.65345 0.63439 0.0
H542 H 0.56253 0.67586 0.60388 0.0
H543 H 0.45046 0.46585 0.65266 0.0
H544 H 0.50562 0.49001 0.67448 0.0
H545 H 0.44408 0.52436 0.67083 0.0
H546 H 0.60997 0.58143 0.72572 0.0
H547 H 0.45914 0.65902 0.71752 0.0
H548 H 0.62653 0.57226 0.65547 0.0
H549 H 0.60026 0.5157 0.66848 0.0
H550 H 0.65099 0.55067 0.68846 0.0
H551 H 0.44431 0.66147 0.64559 0.0
H552 H 0.41027 0.67033 0.67558 0.0
H553 H 0.40951 0.60985 0.65878 0.0
C554 C 0.50656 0.45468 0.39573 0.0
C555 C 0.54106 0.46804 0.41826 0.0
C556 C 0.52327 0.45612 0.36982 0.0
C557 C 0.57611 0.47105 0.3662 0.0
C558 C 0.61215 0.48215 0.38892 0.0
C559 C 0.5941 0.48069 0.41479 0.0
C560 C 0.48339 0.4439 0.3462 0.0
C561 C 0.66905 0.49721 0.38582 0.0
C562 C 0.60651 0.44203 0.29496 0.0
C563 C 0.59058 0.48722 0.2821 0.0
C564 C 0.60729 0.43751 0.32299 0.0
C565 C 0.59097 0.47894 0.33838 0.0
C566 C 0.57906 0.5258 0.32572 0.0
C567 C 0.57914 0.52939 0.29775 0.0
C568 C 0.62138 0.38723 0.33576 0.0
C569 C 0.56126 0.57092 0.34132 0.0
H570 H 0.46566 0.44429 0.39826 0.0
H571 H 0.62077 0.49149 0.4321 0.0
H572 H 0.4761 0.47792 0.33357 0.0
H573 H 0.49942 0.41405 0.33346 0.0
H574 H 0.44454 0.43089 0.35257 0.0
H575 H 0.69247 0.50318 0.40551 0.0
H576 H 0.68895 0.4676 0.37445 0.0
H577 H 0.6697 0.53257 0.37411 0.0
H578 H 0.61633 0.40956 0.28299 0.0
H579 H 0.56653 0.56436 0.28797 0.0
H580 H 0.58421 0.36735 0.33981 0.0
H581 H 0.64563 0.39237 0.35525 0.0
H582 H 0.64374 0.36276 0.32248 0.0
H583 H 0.52029 0.56424 0.3471 0.0
H584 H 0.56089 0.60617 0.3294 0.0
H585 H 0.58769 0.57651 0.36008 0.0
loop_
_geom_bond_atom_site_label_1
_geom_bond_atom_site_label_2
_geom_bond_distance
_geom_bond_site_symmetry_2
_ccdc_geom_bond_type
Zn0 O6 1.920 1_545 S
Zn0 O12 1.898 . S
Zn0 O15 1.905 1_545 S
Zn1 O9 1.905 . S
Zn1 O10 1.898 1_545 S
Zn1 O18 1.920 1_545 S
Zn2 O5 2.080 1_445 S
Zn2 O8 2.114 . S
Zn2 O11 2.120 1_545 S
Zn2 O13 2.120 1_455 S
Zn2 O14 2.114 1_554 S
Zn2 O17 2.080 . S
C3 O8 1.166 . S
C3 O9 1.182 . S
C4 O10 1.167 . S
C4 O11 1.299 . S
O5 Zn2 2.080 1_665 S
O5 C19 1.305 . S
O6 Zn0 1.920 1_565 S
O6 C19 1.234 1_556 S
C7 O12 1.167 . S
C7 O13 1.299 1_556 S
O8 Zn2 2.114 . S
O8 C3 1.166 . S
O9 Zn1 1.905 . S
O9 C3 1.182 . S
O10 Zn1 1.898 1_565 S
O10 C4 1.167 . S
O11 Zn2 2.120 1_565 S
O11 C4 1.299 . S
O12 Zn0 1.898 . S
O12 C7 1.167 . S
O13 Zn2 2.120 1_655 S
O13 C7 1.299 1_554 S
O14 Zn2 2.114 1_556 S
O14 C16 1.166 1_545 S
O15 Zn0 1.905 1_565 S
O15 C16 1.182 1_655 S
C16 O14 1.166 1_565 S
C16 O15 1.182 1_455 S
O17 Zn2 2.080 . S
O17 C20 1.305 1_545 S
O18 Zn1 1.920 1_565 S
O18 C20 1.234 . S
C19 O5 1.305 . S
C19 O6 1.234 1_554 S
C20 O17 1.305 1_565 S
C20 O18 1.234 . S
Zn21 O27 1.920 . S
Zn21 O33 1.898 . S
Zn21 O36 1.905 . S
Zn22 O30 1.905 . S
Zn22 O31 1.898 . S
Zn22 O39 1.920 . S
Zn23 O26 2.080 . S
Zn23 O29 2.114 . S
Zn23 O32 2.120 . S
Zn23 O34 2.120 . S
Zn23 O35 2.114 . S
Zn23 O38 2.080 . S
C24 O29 1.166 . S
C24 O30 1.182 . S
C25 O31 1.167 . S
C25 O32 1.299 . S
O26 Zn23 2.080 . S
O26 C40 1.305 . S
O27 Zn21 1.920 . S
O27 C40 1.234 . S
C28 O33 1.167 . S
C28 O34 1.299 . S
O29 Zn23 2.114 . S
O29 C24 1.166 . S
O30 Zn22 1.905 . S
O30 C24 1.182 . S
O31 Zn22 1.898 . S
O31 C25 1.167 . S
O32 Zn23 2.120 . S
O32 C25 1.299 . S
O33 Zn21 1.898 . S
O33 C28 1.167 . S
O34 Zn23 2.120 . S
O34 C28 1.299 . S
O35 Zn23 2.114 . S
O35 C37 1.166 . S
O36 Zn21 1.905 . S
O36 C37 1.182 . S
C37 O35 1.166 . S
C37 O36 1.182 . S
O38 Zn23 2.080 . S
O38 C41 1.305 . S
O39 Zn22 1.920 . S
O39 C41 1.234 . S
C40 O26 1.305 . S
C40 O27 1.234 . S
C41 O38 1.305 . S
C41 O39 1.234 . S
C42 C43 1.264 . S
C42 C47 1.479 . S
C42 C52 1.465 1_655 S
C43 C42 1.264 . S
C43 C45 1.339 . S
C43 H70 0.931 . S
C44 C45 1.395 . S
C44 C46 1.320 . S
C45 C43 1.339 . S
C45 C44 1.395 . S
C45 H71 0.929 . S
C46 C44 1.320 . S
C46 C47 1.405 . S
C46 H72 0.930 . S
C47 C42 1.479 . S
C47 C46 1.405 . S
C47 H73 0.931 1_655 S
U48 O49 2.454 . S
U48 O50 2.458 1_545 S
U48 C51 2.984 1_545 S
U48 C52 2.847 . S
U48 C65 2.882 . S
U48 O66 2.441 . S
U48 O67 2.420 . S
U48 O68 2.455 . S
U48 O69 2.449 . S
O49 U48 2.454 . S
O49 C51 1.353 1_545 S
O50 U48 2.458 1_565 S
O50 C51 1.286 . S
C51 U48 2.984 1_565 S
C51 O49 1.353 1_565 S
C51 O50 1.286 . S
C51 C53 1.363 . S
C52 C42 1.465 1_455 S
C52 U48 2.847 . S
C52 O66 1.249 . S
C52 O67 1.202 . S
C53 C51 1.363 . S
C53 C55 1.408 . S
C53 C58 1.342 . S
C54 C55 1.310 . S
C54 C57 1.461 . S
C54 H74 0.932 . S
C55 C53 1.408 . S
C55 C54 1.310 . S
C55 H75 0.930 . S
C56 C57 1.474 . S
C56 C58 1.285 . S
C56 H76 0.929 . S
C57 C54 1.461 . S
C57 C56 1.474 . S
C58 C53 1.342 . S
C58 C56 1.285 . S
C58 H77 0.930 . S
C59 C62 1.424 . S
C59 C64 1.245 . S
C59 C65 1.428 . S
C60 C63 1.260 . S
C60 C64 1.477 . S
C60 H78 0.932 . S
C61 C62 1.384 . S
C61 C63 1.479 . S
C61 H79 0.929 . S
C62 C59 1.424 . S
C62 C61 1.384 . S
C62 H80 0.928 . S
C63 C60 1.260 . S
C63 C61 1.479 . S
C64 C59 1.245 . S
C64 C60 1.477 . S
C64 H81 0.936 . S
C65 U48 2.882 . S
C65 C59 1.428 . S
C65 O68 1.301 . S
C65 O69 1.282 . S
O66 U48 2.441 . S
O66 C52 1.249 . S
O67 U48 2.420 . S
O67 C52 1.202 . S
O68 U48 2.455 . S
O68 C65 1.301 . S
O69 U48 2.449 . S
O69 C65 1.282 . S
H70 C43 0.931 . S
H71 C45 0.929 . S
H72 C46 0.930 . S
H73 C47 0.931 1_455 S
H74 C54 0.932 . S
H75 C55 0.930 . S
H76 C56 0.929 . S
H77 C58 0.930 . S
H78 C60 0.932 . S
H79 C61 0.929 . S
H80 C62 0.928 . S
H81 C64 0.936 . S
C82 C83 1.264 . S
C82 C87 1.479 . S
C82 C92 1.465 . S
C83 C82 1.264 . S
C83 C85 1.339 . S
C83 H110 0.931 . S
C84 C85 1.395 . S
C84 C86 1.320 . S
C85 C83 1.339 . S
C85 C84 1.395 . S
C85 H111 0.929 . S
C86 C84 1.320 . S
C86 C87 1.405 . S
C86 H112 0.930 . S
C87 C82 1.479 . S
C87 C86 1.405 . S
C87 H113 0.931 . S
U88 O89 2.454 . S
U88 O90 2.458 . S
U88 C91 2.984 . S
U88 C92 2.847 1_445 S
U88 C105 2.882 . S
U88 O106 2.441 1_445 S
U88 O107 2.420 1_445 S
U88 O108 2.455 . S
U88 O109 2.449 1_545 S
O89 U88 2.454 . S
O89 C91 1.353 . S
O90 U88 2.458 . S
O90 C91 1.286 . S
C91 U88 2.984 . S
C91 O89 1.353 . S
C91 O90 1.286 . S
C91 C93 1.363 . S
C92 C82 1.465 . S
C92 U88 2.847 1_665 S
C92 O106 1.249 . S
C92 O107 1.202 . S
C93 C91 1.363 . S
C93 C95 1.408 . S
C93 C98 1.342 . S
C94 C95 1.310 . S
C94 C97 1.461 . S
C94 H114 0.932 . S
C95 C93 1.408 . S
C95 C94 1.310 . S
C95 H115 0.930 . S
C96 C97 1.474 . S
C96 C98 1.285 . S
C96 H116 0.929 . S
C97 C94 1.461 . S
C97 C96 1.474 . S
C98 C93 1.342 . S
C98 C96 1.285 . S
C98 H117 0.930 . S
C99 C102 1.424 1_445 S
C99 C104 1.245 . S
C99 C105 1.428 . S
C100 C103 1.260 . S
C100 C104 1.477 . S
C100 H118 0.932 . S
C101 C102 1.384 . S
C101 C103 1.479 1_665 S
C101 H119 0.929 . S
C102 C99 1.424 1_665 S
C102 C101 1.384 . S
C102 H120 0.928 . S
C103 C100 1.260 . S
C103 C101 1.479 1_445 S
C104 C99 1.245 . S
C104 C100 1.477 . S
C104 H121 0.932 . S
C105 U88 2.882 . S
C105 C99 1.428 . S
C105 O108 1.301 . S
C105 O109 1.282 1_545 S
O106 U88 2.441 1_665 S
O106 C92 1.249 . S
O107 U88 2.420 1_665 S
O107 C92 1.202 . S
O108 U88 2.455 . S
O108 C105 1.301 . S
O109 U88 2.449 1_565 S
O109 C105 1.282 1_565 S
H110 C83 0.931 . S
H111 C85 0.929 . S
H112 C86 0.930 . S
H113 C87 0.931 . S
H114 C94 0.932 . S
H115 C95 0.930 . S
H116 C96 0.929 . S
H117 C98 0.930 . S
H118 C100 0.932 . S
H119 C101 0.929 . S
H120 C102 0.928 . S
H121 C104 0.932 . S
C122 C123 1.264 . S
C122 C127 1.479 . S
C122 C132 1.465 . S
C123 C122 1.264 . S
C123 C125 1.339 . S
C123 H150 0.931 . S
C124 C125 1.395 . S
C124 C126 1.320 . S
C125 C123 1.339 . S
C125 C124 1.395 . S
C125 H151 0.929 . S
C126 C124 1.320 . S
C126 C127 1.405 . S
C126 H152 0.941 . S
C127 C122 1.479 . S
C127 C126 1.405 . S
C127 H153 0.931 . S
U128 O129 2.454 . S
U128 O130 2.458 . S
U128 C131 2.984 . S
U128 C132 2.847 . S
U128 C145 2.882 . S
U128 O146 2.441 . S
U128 O147 2.420 . S
U128 O148 2.455 . S
U128 O149 2.449 . S
O129 U128 2.454 . S
O129 C131 1.353 . S
O130 U128 2.458 . S
O130 C131 1.286 . S
C131 U128 2.984 . S
C131 O129 1.353 . S
C131 O130 1.286 . S
C131 C133 1.363 . S
C132 C122 1.465 . S
C132 U128 2.847 . S
C132 O146 1.249 . S
C132 O147 1.202 . S
C133 C131 1.363 . S
C133 C135 1.408 . S
C133 C138 1.342 . S
C134 C135 1.310 . S
C134 C137 1.461 . S
C134 H154 0.932 1_556 S
C135 C133 1.408 . S
C135 C134 1.310 . S
C135 H155 0.930 . S
C136 C137 1.474 . S
C136 C138 1.285 . S
C136 H156 0.929 . S
C137 C134 1.461 . S
C137 C136 1.474 . S
C138 C133 1.342 . S
C138 C136 1.285 . S
C138 H157 0.930 . S
C139 C142 1.424 . S
C139 C144 1.245 . S
C139 C145 1.428 . S
C140 C143 1.260 . S
C140 C144 1.477 . S
C140 H158 0.932 . S
C141 C142 1.384 . S
C141 C143 1.479 . S
C141 H159 0.929 . S
C142 C139 1.424 . S
C142 C141 1.384 . S
C142 H160 0.928 . S
C143 C140 1.260 . S
C143 C141 1.479 . S
C144 C139 1.245 . S
C144 C140 1.477 . S
C144 H161 0.932 . S
C145 U128 2.882 . S
C145 C139 1.428 . S
C145 O148 1.301 . S
C145 O149 1.282 . S
O146 U128 2.441 . S
O146 C132 1.249 . S
O147 U128 2.420 . S
O147 C132 1.202 . S
O148 U128 2.455 . S
O148 C145 1.301 . S
O149 U128 2.449 . S
O149 C145 1.282 . S
H150 C123 0.931 . S
H151 C125 0.929 . S
H152 C126 0.941 . S
H153 C127 0.931 . S
H154 C134 0.932 1_554 S
H155 C135 0.930 . S
H156 C136 0.929 . S
H157 C138 0.930 . S
H158 C140 0.932 . S
H159 C141 0.929 . S
H160 C142 0.928 . S
H161 C144 0.932 . S
C162 C163 1.264 . S
C162 C167 1.479 . S
C162 C172 1.465 . S
C163 C162 1.264 . S
C163 C165 1.339 . S
C163 H190 0.931 . S
C164 C165 1.395 . S
C164 C166 1.320 . S
C165 C163 1.339 . S
C165 C164 1.395 . S
C165 H191 0.929 . S
C166 C164 1.320 . S
C166 C167 1.405 . S
C166 H192 0.930 . S
C167 C162 1.479 . S
C167 C166 1.405 . S
C167 H193 0.931 . S
U168 O169 2.454 . S
U168 O170 2.458 . S
U168 C171 2.984 . S
U168 C172 2.847 . S
U168 C185 2.882 . S
U168 O186 2.441 . S
U168 O187 2.420 . S
U168 O188 2.455 . S
U168 O189 2.449 . S
O169 U168 2.454 . S
O169 C171 1.353 . S
O170 U168 2.458 . S
O170 C171 1.286 . S
C171 U168 2.984 . S
C171 O169 1.353 . S
C171 O170 1.286 . S
C171 C173 1.363 . S
C172 C162 1.465 . S
C172 U168 2.847 . S
C172 O186 1.249 . S
C172 O187 1.202 . S
C173 C171 1.363 . S
C173 C175 1.408 . S
C173 C178 1.342 . S
C174 C175 1.310 . S
C174 C177 1.461 . S
C174 H194 0.932 . S
C175 C173 1.408 . S
C175 C174 1.310 . S
C175 H195 0.930 . S
C176 C177 1.474 . S
C176 C178 1.285 . S
C176 H196 0.929 . S
C177 C174 1.461 . S
C177 C176 1.474 . S
C178 C173 1.342 . S
C178 C176 1.285 . S
C178 H197 0.930 . S
C179 C182 1.424 . S
C179 C184 1.245 . S
C179 C185 1.428 . S
C180 C183 1.260 . S
C180 C184 1.477 . S
C180 H198 0.932 . S
C181 C182 1.384 . S
C181 C183 1.479 . S
C181 H199 0.929 . S
C182 C179 1.424 . S
C182 C181 1.384 . S
C182 H200 0.928 . S
C183 C180 1.260 . S
C183 C181 1.479 . S
C184 C179 1.245 . S
C184 C180 1.477 . S
C184 H201 0.932 . S
C185 U168 2.882 . S
C185 C179 1.428 . S
C185 O188 1.301 . S
C185 O189 1.282 . S
O186 U168 2.441 . S
O186 C172 1.249 . S
O187 U168 2.420 . S
O187 C172 1.202 . S
O188 U168 2.455 . S
O188 C185 1.301 . S
O189 U168 2.449 . S
O189 C185 1.282 . S
H190 C163 0.931 . S
H191 C165 0.929 . S
H192 C166 0.930 . S
H193 C167 0.931 . S
H194 C174 0.932 . S
H195 C175 0.930 . S
H196 C176 0.929 . S
H197 C178 0.930 . S
H198 C180 0.932 . S
H199 C181 0.929 . S
H200 C182 0.928 . S
H201 C184 0.932 . S
C202 C203 1.391 . S
C202 C204 1.394 . S
C202 H218 0.931 . S
C203 C202 1.391 . S
C203 C207 1.376 . S
C204 C202 1.394 . S
C204 C205 1.369 . S
C204 C208 1.531 . S
C205 C204 1.369 . S
C205 C206 1.410 . S
C205 C213 1.503 . S
C206 C205 1.410 . S
C206 C207 1.392 . S
C206 C209 1.511 . S
C207 C203 1.376 . S
C207 C206 1.392 . S
C207 H219 0.929 . S
C208 C204 1.531 . S
C208 H220 0.960 . S
C208 H221 0.962 . S
C208 H222 0.960 . S
C209 C206 1.511 . S
C209 H223 0.961 . S
C209 H224 0.961 . S
C209 H225 0.961 1_554 S
C210 C211 1.370 . S
C210 C212 1.363 . S
C210 H226 0.931 . S
C211 C210 1.370 . S
C211 C215 1.408 . S
C212 C210 1.363 . S
C212 C213 1.370 . S
C212 C216 1.524 . S
C213 C205 1.503 . S
C213 C212 1.370 . S
C213 C214 1.403 . S
C214 C213 1.403 . S
C214 C215 1.404 . S
C214 C217 1.539 1_554 S
C215 C211 1.408 . S
C215 C214 1.404 . S
C215 H227 0.930 . S
C216 C212 1.524 . S
C216 H228 0.956 . S
C216 H229 0.961 . S
C216 H230 0.961 . S
C217 C214 1.539 1_556 S
C217 H231 0.958 . S
C217 H232 0.961 . S
C217 H233 0.960 . S
H218 C202 0.931 . S
H219 C207 0.929 . S
H220 C208 0.960 . S
H221 C208 0.962 . S
H222 C208 0.960 . S
H223 C209 0.961 . S
H224 C209 0.961 . S
H225 C209 0.961 1_556 S
H226 C210 0.931 . S
H227 C215 0.930 . S
H228 C216 0.956 . S
H229 C216 0.961 . S
H230 C216 0.961 . S
H231 C217 0.958 . S
H232 C217 0.961 . S
H233 C217 0.960 . S
C234 C235 1.391 . S
C234 C236 1.394 . S
C234 H250 0.931 . S
C235 C234 1.391 . S
C235 C239 1.376 . S
C236 C234 1.394 . S
C236 C237 1.369 . S
C236 C240 1.531 . S
C237 C236 1.369 . S
C237 C238 1.410 . S
C237 C245 1.503 . S
C238 C237 1.410 . S
C238 C239 1.392 . S
C238 C241 1.511 . S
C239 C235 1.376 . S
C239 C238 1.392 . S
C239 H251 0.929 . S
C240 C236 1.531 . S
C240 H252 0.960 . S
C240 H253 0.962 . S
C240 H254 0.960 . S
C241 C238 1.511 . S
C241 H255 0.961 1_556 S
C241 H256 0.961 . S
C241 H257 0.961 . S
C242 C243 1.370 . S
C242 C244 1.364 . S
C242 H258 0.931 1_556 S
C243 C242 1.370 . S
C243 C247 1.408 . S
C244 C242 1.364 . S
C244 C245 1.377 . S
C244 C248 1.516 1_556 S
C245 C237 1.503 . S
C245 C244 1.377 . S
C245 C246 1.403 . S
C246 C245 1.403 . S
C246 C247 1.404 . S
C246 C249 1.539 . S
C247 C243 1.408 . S
C247 C246 1.404 . S
C247 H259 0.930 . S
C248 C244 1.516 1_554 S
C248 H260 0.956 . S
C248 H261 0.961 . S
C248 H262 0.961 . S
C249 C246 1.539 . S
C249 H263 0.958 . S
C249 H264 0.961 . S
C249 H265 0.960 . S
H250 C234 0.931 . S
H251 C239 0.929 . S
H252 C240 0.960 . S
H253 C240 0.962 . S
H254 C240 0.960 . S
H255 C241 0.961 1_554 S
H256 C241 0.961 . S
H257 C241 0.961 . S
H258 C242 0.931 1_554 S
H259 C247 0.930 . S
H260 C248 0.956 . S
H261 C248 0.961 . S
H262 C248 0.961 . S
H263 C249 0.958 . S
H264 C249 0.961 . S
H265 C249 0.960 . S
C266 C267 1.391 . S
C266 C268 1.394 . S
C266 H282 0.931 1_554 S
C267 C266 1.391 . S
C267 C271 1.376 . S
C268 C266 1.394 . S
C268 C269 1.369 . S
C268 C272 1.531 1_554 S
C269 C268 1.369 . S
C269 C270 1.410 . S
C269 C277 1.503 . S
C270 C269 1.410 . S
C270 C271 1.392 . S
C270 C273 1.511 . S
C271 C267 1.376 . S
C271 C270 1.392 . S
C271 H283 0.929 . S
C272 C268 1.531 1_556 S
C272 H284 0.960 . S
C272 H285 0.962 . S
C272 H286 0.960 . S
C273 C270 1.511 . S
C273 H287 0.961 . S
C273 H288 0.961 . S
C273 H289 0.961 . S
C274 C275 1.370 . S
C274 C276 1.363 . S
C274 H290 0.931 . S
C275 C274 1.370 . S
C275 C279 1.408 . S
C276 C274 1.363 . S
C276 C277 1.370 . S
C276 C280 1.524 . S
C277 C269 1.503 . S
C277 C276 1.370 . S
C277 C278 1.403 . S
C278 C277 1.403 . S
C278 C279 1.404 . S
C278 C281 1.539 . S
C279 C275 1.408 . S
C279 C278 1.404 . S
C279 H291 0.930 . S
C280 C276 1.524 . S
C280 H292 0.956 . S
C280 H293 0.961 . S
C280 H294 0.961 . S
C281 C278 1.539 . S
C281 H295 0.958 . S
C281 H296 0.961 . S
C281 H297 0.960 . S
H282 C266 0.931 1_556 S
H283 C271 0.929 . S
H284 C272 0.960 . S
H285 C272 0.962 . S
H286 C272 0.960 . S
H287 C273 0.961 . S
H288 C273 0.961 . S
H289 C273 0.961 . S
H290 C274 0.931 . S
H291 C279 0.930 . S
H292 C280 0.956 . S
H293 C280 0.961 . S
H294 C280 0.961 . S
H295 C281 0.958 . S
H296 C281 0.961 . S
H297 C281 0.960 . S
C298 C299 1.391 . S
C298 C300 1.394 . S
C298 H314 0.931 . S
C299 C298 1.391 . S
C299 C303 1.376 1_556 S
C300 C298 1.394 . S
C300 C301 1.369 . S
C300 C304 1.531 . S
C301 C300 1.369 . S
C301 C302 1.410 1_556 S
C301 C309 1.503 . S
C302 C301 1.410 1_554 S
C302 C303 1.392 . S
C302 C305 1.511 . S
C303 C299 1.376 1_554 S
C303 C302 1.392 . S
C303 H315 0.929 . S
C304 C300 1.531 . S
C304 H316 0.960 . S
C304 H317 0.962 . S
C304 H318 0.960 . S
C305 C302 1.511 . S
C305 H319 0.961 . S
C305 H320 0.961 . S
C305 H321 0.961 . S
C306 C307 1.370 . S
C306 C308 1.363 . S
C306 H322 0.931 . S
C307 C306 1.370 . S
C307 C311 1.408 . S
C308 C306 1.363 . S
C308 C309 1.370 . S
C308 C312 1.524 1_556 S
C309 C301 1.503 . S
C309 C308 1.370 . S
C309 C310 1.403 . S
C310 C309 1.403 . S
C310 C311 1.404 . S
C310 C313 1.539 . S
C311 C307 1.408 . S
C311 C310 1.404 . S
C311 H323 0.930 . S
C312 C308 1.524 1_554 S
C312 H324 0.956 1_554 S
C312 H325 0.961 . S
C312 H326 0.961 . S
C313 C310 1.539 . S
C313 H327 0.958 . S
C313 H328 0.961 . S
C313 H329 0.960 . S
H314 C298 0.931 . S
H315 C303 0.929 . S
H316 C304 0.960 . S
H317 C304 0.962 . S
H318 C304 0.960 . S
H319 C305 0.961 . S
H320 C305 0.961 . S
H321 C305 0.961 . S
H322 C306 0.931 . S
H323 C311 0.930 . S
H324 C312 0.956 1_556 S
H325 C312 0.961 . S
H326 C312 0.961 . S
H327 C313 0.958 . S
H328 C313 0.961 . S
H329 C313 0.960 . S
C330 C331 1.391 . S
C330 C332 1.394 . S
C330 H346 0.931 . S
C331 C330 1.391 . S
C331 C335 1.376 . S
C332 C330 1.394 . S
C332 C333 1.369 . S
C332 C336 1.531 . S
C333 C332 1.369 . S
C333 C334 1.410 . S
C333 C341 1.503 . S
C334 C333 1.410 . S
C334 C335 1.392 . S
C334 C337 1.511 . S
C335 C331 1.376 . S
C335 C334 1.392 . S
C335 H347 0.929 . S
C336 C332 1.531 . S
C336 H348 0.960 . S
C336 H349 0.962 . S
C336 H350 0.960 . S
C337 C334 1.511 . S
C337 H351 0.961 . S
C337 H352 0.961 . S
C337 H353 0.961 . S
C338 C339 1.370 . S
C338 C340 1.363 . S
C338 H354 0.931 . S
C339 C338 1.370 . S
C339 C343 1.408 . S
C340 C338 1.363 . S
C340 C341 1.370 . S
C340 C344 1.524 . S
C341 C333 1.503 . S
C341 C340 1.370 . S
C341 C342 1.403 . S
C342 C341 1.403 . S
C342 C343 1.404 . S
C342 C345 1.539 . S
C343 C339 1.408 . S
C343 C342 1.404 . S
C343 H355 0.930 . S
C344 C340 1.524 . S
C344 H356 0.956 . S
C344 H357 0.961 . S
C344 H358 0.961 . S
C345 C342 1.539 . S
C345 H359 0.958 . S
C345 H360 0.961 . S
C345 H361 0.960 . S
H346 C330 0.931 . S
H347 C335 0.929 . S
H348 C336 0.960 . S
H349 C336 0.962 . S
H350 C336 0.960 . S
H351 C337 0.961 . S
H352 C337 0.961 . S
H353 C337 0.961 . S
H354 C338 0.931 . S
H355 C343 0.930 . S
H356 C344 0.956 . S
H357 C344 0.961 . S
H358 C344 0.961 . S
H359 C345 0.958 . S
H360 C345 0.961 . S
H361 C345 0.960 . S
C362 C363 1.391 . S
C362 C364 1.394 . S
C362 H378 0.931 . S
C363 C362 1.391 . S
C363 C367 1.376 . S
C364 C362 1.394 . S
C364 C365 1.369 . S
C364 C368 1.531 . S
C365 C364 1.369 . S
C365 C366 1.410 . S
C365 C373 1.503 . S
C366 C365 1.410 . S
C366 C367 1.392 . S
C366 C369 1.511 . S
C367 C363 1.376 . S
C367 C366 1.392 . S
C367 H379 0.929 . S
C368 C364 1.531 . S
C368 H380 0.960 . S
C368 H381 0.962 . S
C368 H382 0.960 . S
C369 C366 1.511 . S
C369 H383 0.961 . S
C369 H384 0.961 . S
C369 H385 0.961 . S
C370 C371 1.370 . S
C370 C372 1.363 . S
C370 H386 0.931 . S
C371 C370 1.370 . S
C371 C375 1.408 . S
C372 C370 1.363 . S
C372 C373 1.370 . S
C372 C376 1.524 . S
C373 C365 1.503 . S
C373 C372 1.370 . S
C373 C374 1.403 . S
C374 C373 1.403 . S
C374 C375 1.404 . S
C374 C377 1.539 . S
C375 C371 1.408 . S
C375 C374 1.404 . S
C375 H387 0.930 . S
C376 C372 1.524 . S
C376 H388 0.956 . S
C376 H389 0.961 . S
C376 H390 0.961 . S
C377 C374 1.539 . S
C377 H391 0.958 . S
C377 H392 0.961 . S
C377 H393 0.960 . S
H378 C362 0.931 . S
H379 C367 0.929 . S
H380 C368 0.960 . S
H381 C368 0.962 . S
H382 C368 0.960 . S
H383 C369 0.961 . S
H384 C369 0.961 . S
H385 C369 0.961 . S
H386 C370 0.931 . S
H387 C375 0.930 . S
H388 C376 0.956 . S
H389 C376 0.961 . S
H390 C376 0.961 . S
H391 C377 0.958 . S
H392 C377 0.961 . S
H393 C377 0.960 . S
C394 C395 1.391 . S
C394 C396 1.394 . S
C394 H410 0.931 . S
C395 C394 1.391 . S
C395 C399 1.376 . S
C396 C394 1.394 . S
C396 C397 1.369 . S
C396 C400 1.531 . S
C397 C396 1.369 . S
C397 C398 1.410 . S
C397 C405 1.503 . S
C398 C397 1.410 . S
C398 C399 1.392 . S
C398 C401 1.511 . S
C399 C395 1.376 . S
C399 C398 1.392 . S
C399 H411 0.929 . S
C400 C396 1.531 . S
C400 H412 0.960 . S
C400 H413 0.962 . S
C400 H414 0.960 . S
C401 C398 1.511 . S
C401 H415 0.961 . S
C401 H416 0.961 . S
C401 H417 0.961 . S
C402 C403 1.370 . S
C402 C404 1.363 . S
C402 H418 0.931 . S
C403 C402 1.370 . S
C403 C407 1.408 . S
C404 C402 1.363 . S
C404 C405 1.370 . S
C404 C408 1.524 . S
C405 C397 1.503 . S
C405 C404 1.370 . S
C405 C406 1.403 . S
C406 C405 1.403 . S
C406 C407 1.404 . S
C406 C409 1.539 . S
C407 C403 1.408 . S
C407 C406 1.404 . S
C407 H419 0.930 . S
C408 C404 1.524 . S
C408 H420 0.956 . S
C408 H421 0.961 . S
C408 H422 0.961 . S
C409 C406 1.539 . S
C409 H423 0.958 . S
C409 H424 0.961 . S
C409 H425 0.960 . S
H410 C394 0.931 . S
H411 C399 0.929 . S
H412 C400 0.960 . S
H413 C400 0.962 . S
H414 C400 0.960 . S
H415 C401 0.961 . S
H416 C401 0.961 . S
H417 C401 0.961 . S
H418 C402 0.931 . S
H419 C407 0.930 . S
H420 C408 0.956 . S
H421 C408 0.961 . S
H422 C408 0.961 . S
H423 C409 0.958 . S
H424 C409 0.961 . S
H425 C409 0.960 . S
C426 C427 1.391 . S
C426 C428 1.394 . S
C426 H442 0.931 . S
C427 C426 1.391 . S
C427 C431 1.376 . S
C428 C426 1.394 . S
C428 C429 1.369 . S
C428 C432 1.531 . S
C429 C428 1.369 . S
C429 C430 1.410 . S
C429 C437 1.503 . S
C430 C429 1.410 . S
C430 C431 1.392 . S
C430 C433 1.511 . S
C431 C427 1.376 . S
C431 C430 1.392 . S
C431 H443 0.929 . S
C432 C428 1.531 . S
C432 H444 0.960 . S
C432 H445 0.962 . S
C432 H446 0.960 . S
C433 C430 1.511 . S
C433 H447 0.961 . S
C433 H448 0.961 . S
C433 H449 0.961 . S
C434 C435 1.370 . S
C434 C436 1.363 . S
C434 H450 0.931 . S
C435 C434 1.370 . S
C435 C439 1.408 . S
C436 C434 1.363 . S
C436 C437 1.370 . S
C436 C440 1.524 . S
C437 C429 1.503 . S
C437 C436 1.370 . S
C437 C438 1.403 . S
C438 C437 1.403 . S
C438 C439 1.404 . S
C438 C441 1.539 . S
C439 C435 1.408 . S
C439 C438 1.404 . S
C439 H451 0.930 . S
C440 C436 1.524 . S
C440 H452 0.956 . S
C440 H453 0.961 . S
C440 H454 0.961 . S
C441 C438 1.539 . S
C441 H455 0.958 . S
C441 H456 0.961 . S
C441 H457 0.960 . S
H442 C426 0.931 . S
H443 C431 0.929 . S
H444 C432 0.960 . S
H445 C432 0.962 . S
H446 C432 0.960 . S
H447 C433 0.961 . S
H448 C433 0.961 . S
H449 C433 0.961 . S
H450 C434 0.931 . S
H451 C439 0.930 . S
H452 C440 0.956 . S
H453 C440 0.961 . S
H454 C440 0.961 . S
H455 C441 0.958 . S
H456 C441 0.961 . S
H457 C441 0.960 . S
C458 C459 1.391 1_545 S
C458 C460 1.394 . S
C458 H474 0.931 . S
C459 C458 1.391 1_565 S
C459 C463 1.376 . S
C460 C458 1.394 . S
C460 C461 1.369 . S
C460 C464 1.531 . S
C461 C460 1.369 . S
C461 C462 1.410 1_545 S
C461 C469 1.503 . S
C462 C461 1.410 1_565 S
C462 C463 1.392 . S
C462 C465 1.511 1_455 S
C463 C459 1.376 . S
C463 C462 1.392 . S
C463 H475 0.929 . S
C464 C460 1.531 . S
C464 H476 0.960 . S
C464 H477 0.962 . S
C464 H478 0.960 . S
C465 C462 1.511 1_655 S
C465 H479 0.961 . S
C465 H480 0.961 1_655 S
C465 H481 0.961 . S
C466 C467 1.370 . S
C466 C468 1.363 . S
C466 H482 0.931 . S
C467 C466 1.370 . S
C467 C471 1.408 . S
C468 C466 1.363 . S
C468 C469 1.370 . S
C468 C472 1.524 1_545 S
C469 C461 1.503 . S
C469 C468 1.370 . S
C469 C470 1.403 . S
C470 C469 1.403 . S
C470 C471 1.404 . S
C470 C473 1.539 1_455 S
C471 C467 1.408 . S
C471 C470 1.404 . S
C471 H483 0.930 1_455 S
C472 C468 1.524 1_565 S
C472 H484 0.956 . S
C472 H485 0.961 . S
C472 H486 0.961 . S
C473 C470 1.539 1_655 S
C473 H487 0.958 . S
C473 H488 0.961 . S
C473 H489 0.960 . S
H474 C458 0.931 . S
H475 C463 0.929 . S
H476 C464 0.960 . S
H477 C464 0.962 . S
H478 C464 0.960 . S
H479 C465 0.961 . S
H480 C465 0.961 1_455 S
H481 C465 0.961 . S
H482 C466 0.931 . S
H483 C471 0.930 1_655 S
H484 C472 0.956 . S
H485 C472 0.961 . S
H486 C472 0.961 . S
H487 C473 0.958 . S
H488 C473 0.961 . S
H489 C473 0.960 . S
C490 C491 1.391 . S
C490 C492 1.394 . S
C490 H506 0.931 . S
C491 C490 1.391 . S
C491 C495 1.376 1_465 S
C492 C490 1.394 . S
C492 C493 1.369 . S
C492 C496 1.531 . S
C493 C492 1.369 . S
C493 C494 1.410 1_465 S
C493 C501 1.503 1_565 S
C494 C493 1.410 1_645 S
C494 C495 1.392 . S
C494 C497 1.511 . S
C495 C491 1.376 1_645 S
C495 C494 1.392 . S
C495 H507 0.929 . S
C496 C492 1.531 . S
C496 H508 0.960 . S
C496 H509 0.962 . S
C496 H510 0.960 . S
C497 C494 1.511 . S
C497 H511 0.961 . S
C497 H512 0.961 . S
C497 H513 0.961 . S
C498 C499 1.370 . S
C498 C500 1.363 . S
C498 H514 0.931 . S
C499 C498 1.370 . S
C499 C503 1.408 1_445 S
C500 C498 1.363 . S
C500 C501 1.370 . S
C500 C504 1.524 . S
C501 C493 1.503 1_545 S
C501 C500 1.370 . S
C501 C502 1.403 1_445 S
C502 C501 1.403 1_665 S
C502 C503 1.404 . S
C502 C505 1.539 . S
C503 C499 1.408 1_665 S
C503 C502 1.404 . S
C503 H515 0.930 . S
C504 C500 1.524 . S
C504 H516 0.956 . S
C504 H517 0.961 . S
C504 H518 0.961 . S
C505 C502 1.539 . S
C505 H519 0.958 . S
C505 H520 0.961 . S
C505 H521 0.960 . S
H506 C490 0.931 . S
H507 C495 0.929 . S
H508 C496 0.960 . S
H509 C496 0.962 . S
H510 C496 0.960 . S
H511 C497 0.961 . S
H512 C497 0.961 . S
H513 C497 0.961 . S
H514 C498 0.931 . S
H515 C503 0.930 . S
H516 C504 0.956 . S
H517 C504 0.961 . S
H518 C504 0.961 . S
H519 C505 0.958 . S
H520 C505 0.961 . S
H521 C505 0.960 . S
C522 C523 1.391 . S
C522 C524 1.394 . S
C522 H538 0.931 . S
C523 C522 1.391 . S
C523 C527 1.376 . S
C524 C522 1.394 . S
C524 C525 1.369 . S
C524 C528 1.531 . S
C525 C524 1.369 . S
C525 C526 1.410 . S
C525 C533 1.503 . S
C526 C525 1.410 . S
C526 C527 1.392 . S
C526 C529 1.511 . S
C527 C523 1.376 . S
C527 C526 1.392 . S
C527 H539 0.929 . S
C528 C524 1.531 . S
C528 H540 0.960 . S
C528 H541 0.962 . S
C528 H542 0.960 . S
C529 C526 1.511 . S
C529 H543 0.961 . S
C529 H544 0.961 . S
C529 H545 0.961 . S
C530 C531 1.370 . S
C530 C532 1.363 . S
C530 H546 0.931 . S
C531 C530 1.370 . S
C531 C535 1.408 . S
C532 C530 1.363 . S
C532 C533 1.370 . S
C532 C536 1.524 . S
C533 C525 1.503 . S
C533 C532 1.370 . S
C533 C534 1.403 . S
C534 C533 1.403 . S
C534 C535 1.404 . S
C534 C537 1.539 . S
C535 C531 1.408 . S
C535 C534 1.404 . S
C535 H547 0.930 . S
C536 C532 1.524 . S
C536 H548 0.956 . S
C536 H549 0.961 . S
C536 H550 0.961 . S
C537 C534 1.539 . S
C537 H551 0.958 . S
C537 H552 0.961 . S
C537 H553 0.960 . S
H538 C522 0.931 . S
H539 C527 0.929 . S
H540 C528 0.960 . S
H541 C528 0.962 . S
H542 C528 0.960 . S
H543 C529 0.961 . S
H544 C529 0.961 . S
H545 C529 0.961 . S
H546 C530 0.931 . S
H547 C535 0.930 . S
H548 C536 0.956 . S
H549 C536 0.961 . S
H550 C536 0.961 . S
H551 C537 0.958 . S
H552 C537 0.961 . S
H553 C537 0.960 . S
C554 C555 1.391 . S
C554 C556 1.394 . S
C554 H570 0.931 . S
C555 C554 1.391 . S
C555 C559 1.376 . S
C556 C554 1.394 . S
C556 C557 1.369 . S
C556 C560 1.531 . S
C557 C556 1.369 . S
C557 C558 1.410 . S
C557 C565 1.503 . S
C558 C557 1.410 . S
C558 C559 1.392 . S
C558 C561 1.511 . S
C559 C555 1.376 . S
C559 C558 1.392 . S
C559 H571 0.929 . S
C560 C556 1.531 . S
C560 H572 0.960 . S
C560 H573 0.962 . S
C560 H574 0.960 . S
C561 C558 1.511 . S
C561 H575 0.961 . S
C561 H576 0.961 . S
C561 H577 0.961 . S
C562 C563 1.370 . S
C562 C564 1.363 . S
C562 H578 0.931 . S
C563 C562 1.370 . S
C563 C567 1.408 . S
C564 C562 1.363 . S
C564 C565 1.370 . S
C564 C568 1.524 . S
C565 C557 1.503 . S
C565 C564 1.370 . S
C565 C566 1.403 . S
C566 C565 1.403 . S
C566 C567 1.404 . S
C566 C569 1.539 . S
C567 C563 1.408 . S
C567 C566 1.404 . S
C567 H579 0.930 . S
C568 C564 1.524 . S
C568 H580 0.956 . S
C568 H581 0.961 . S
C568 H582 0.961 . S
C569 C566 1.539 . S
C569 H583 0.958 . S
C569 H584 0.961 . S
C569 H585 0.960 . S
H570 C554 0.931 . S
H571 C559 0.929 . S
H572 C560 0.960 . S
H573 C560 0.962 . S
H574 C560 0.960 . S
H575 C561 0.961 . S
H576 C561 0.961 . S
H577 C561 0.961 . S
H578 C562 0.931 . S
H579 C567 0.930 . S
H580 C568 0.956 . S
H581 C568 0.961 . S
H582 C568 0.961 . S
H583 C569 0.958 . S
H584 C569 0.961 . S
H585 C569 0.960 . S
C211 C164 1.245 . S
C203 C3 1.153 . S
C235 C4 1.552 1_556 S
C243 C124 1.648 . S
C267 C19 1.580 . S
C275 C177 1.654 . S
C299 C7 1.084 . S
C307 C137 1.244 . S
C331 C37 1.184 . S
C339 C84 1.250 . S
C363 C28 1.485 . S
C371 C44 1.658 . S
C403 C97 1.658 . S
C395 C41 1.544 . S
C435 C57 1.258 . S
C427 C25 1.138 . S
C459 C20 1.325 . S
C467 C63 1.467 . S
C491 C16 1.326 . S
C499 C103 1.476 . S
C531 C143 1.466 . S
C523 C40 1.301 . S
C555 C24 1.340 . S
C563 C183 1.482 . S
