# Generated by pormake.
# Topology gar, (4,6)-cn, num edge types: 1
# Building blocks:
#     Node 0, Type 0, BuildingBlock: NAHDIM_clean_sbu_0, # of connection points: 4
#     Node 1, Type 0, BuildingBlock: NAHDIM_clean_sbu_0, # of connection points: 4
#     Node 2, Type 0, BuildingBlock: NAHDIM_clean_sbu_0, # of connection points: 4
#     Node 3, Type 0, BuildingBlock: NAHDIM_clean_sbu_0, # of connection points: 4
#     Node 4, Type 0, BuildingBlock: NAHDIM_clean_sbu_0, # of connection points: 4
#     Node 5, Type 0, BuildingBlock: NAHDIM_clean_sbu_0, # of connection points: 4
#     Node 6, Type 0, BuildingBlock: NAHDIM_clean_sbu_0, # of connection points: 4
#     Node 7, Type 0, BuildingBlock: NAHDIM_clean_sbu_0, # of connection points: 4
#     Node 8, Type 0, BuildingBlock: NAHDIM_clean_sbu_0, # of connection points: 4
#     Node 9, Type 0, BuildingBlock: NAHDIM_clean_sbu_0, # of connection points: 4
#     Node 10, Type 0, BuildingBlock: NAHDIM_clean_sbu_0, # of connection points: 4
#     Node 11, Type 0, BuildingBlock: NAHDIM_clean_sbu_0, # of connection points: 4
#     Node 12, Type 0, BuildingBlock: NAHDIM_clean_sbu_0, # of connection points: 4
#     Node 13, Type 0, BuildingBlock: NAHDIM_clean_sbu_0, # of connection points: 4
#     Node 14, Type 0, BuildingBlock: NAHDIM_clean_sbu_0, # of connection points: 4
#     Node 15, Type 0, BuildingBlock: NAHDIM_clean_sbu_0, # of connection points: 4
#     Node 16, Type 0, BuildingBlock: NAHDIM_clean_sbu_0, # of connection points: 4
#     Node 17, Type 0, BuildingBlock: NAHDIM_clean_sbu_0, # of connection points: 4
#     Node 18, Type 0, BuildingBlock: NAHDIM_clean_sbu_0, # of connection points: 4
#     Node 19, Type 0, BuildingBlock: NAHDIM_clean_sbu_0, # of connection points: 4
#     Node 20, Type 0, BuildingBlock: NAHDIM_clean_sbu_0, # of connection points: 4
#     Node 21, Type 0, BuildingBlock: NAHDIM_clean_sbu_0, # of connection points: 4
#     Node 22, Type 0, BuildingBlock: NAHDIM_clean_sbu_0, # of connection points: 4
#     Node 23, Type 0, BuildingBlock: NAHDIM_clean_sbu_0, # of connection points: 4
#     Node 24, Type 1, BuildingBlock: KUMBOL_clean_sbu_0, # of connection points: 6
#     Node 25, Type 1, BuildingBlock: KUMBOL_clean_sbu_0, # of connection points: 6
#     Node 26, Type 1, BuildingBlock: KUMBOL_clean_sbu_0, # of connection points: 6
#     Node 27, Type 1, BuildingBlock: KUMBOL_clean_sbu_0, # of connection points: 6
#     Node 28, Type 1, BuildingBlock: KUMBOL_clean_sbu_0, # of connection points: 6
#     Node 29, Type 1, BuildingBlock: KUMBOL_clean_sbu_0, # of connection points: 6
#     Node 30, Type 1, BuildingBlock: KUMBOL_clean_sbu_0, # of connection points: 6
#     Node 31, Type 1, BuildingBlock: KUMBOL_clean_sbu_0, # of connection points: 6
#     Node 32, Type 1, BuildingBlock: KUMBOL_clean_sbu_0, # of connection points: 6
#     Node 33, Type 1, BuildingBlock: KUMBOL_clean_sbu_0, # of connection points: 6
#     Node 34, Type 1, BuildingBlock: KUMBOL_clean_sbu_0, # of connection points: 6
#     Node 35, Type 1, BuildingBlock: KUMBOL_clean_sbu_0, # of connection points: 6
#     Node 36, Type 1, BuildingBlock: KUMBOL_clean_sbu_0, # of connection points: 6
#     Node 37, Type 1, BuildingBlock: KUMBOL_clean_sbu_0, # of connection points: 6
#     Node 38, Type 1, BuildingBlock: KUMBOL_clean_sbu_0, # of connection points: 6
#     Node 39, Type 1, BuildingBlock: KUMBOL_clean_sbu_0, # of connection points: 6
#     Edge 40, Type (0, 1), BuildingBlock: MIFKUJ_clean_linker_0, # of connection points: 2
#     Edge 41, Type (0, 1), BuildingBlock: MIFKUJ_clean_linker_0, # of connection points: 2
#     Edge 42, Type (0, 1), BuildingBlock: MIFKUJ_clean_linker_0, # of connection points: 2
#     Edge 43, Type (0, 1), BuildingBlock: MIFKUJ_clean_linker_0, # of connection points: 2
#     Edge 44, Type (0, 1), BuildingBlock: MIFKUJ_clean_linker_0, # of connection points: 2
#     Edge 45, Type (0, 1), BuildingBlock: MIFKUJ_clean_linker_0, # of connection points: 2
#     Edge 46, Type (0, 1), BuildingBlock: MIFKUJ_clean_linker_0, # of connection points: 2
#     Edge 47, Type (0, 1), BuildingBlock: MIFKUJ_clean_linker_0, # of connection points: 2
#     Edge 48, Type (0, 1), BuildingBlock: MIFKUJ_clean_linker_0, # of connection points: 2
#     Edge 49, Type (0, 1), BuildingBlock: MIFKUJ_clean_linker_0, # of connection points: 2
#     Edge 50, Type (0, 1), BuildingBlock: MIFKUJ_clean_linker_0, # of connection points: 2
#     Edge 51, Type (0, 1), BuildingBlock: MIFKUJ_clean_linker_0, # of connection points: 2
#     Edge 52, Type (0, 1), BuildingBlock: MIFKUJ_clean_linker_0, # of connection points: 2
#     Edge 53, Type (0, 1), BuildingBlock: MIFKUJ_clean_linker_0, # of connection points: 2
#     Edge 54, Type (0, 1), BuildingBlock: MIFKUJ_clean_linker_0, # of connection points: 2
#     Edge 55, Type (0, 1), BuildingBlock: MIFKUJ_clean_linker_0, # of connection points: 2
#     Edge 56, Type (0, 1), BuildingBlock: MIFKUJ_clean_linker_0, # of connection points: 2
#     Edge 57, Type (0, 1), BuildingBlock: MIFKUJ_clean_linker_0, # of connection points: 2
#     Edge 58, Type (0, 1), BuildingBlock: MIFKUJ_clean_linker_0, # of connection points: 2
#     Edge 59, Type (0, 1), BuildingBlock: MIFKUJ_clean_linker_0, # of connection points: 2
#     Edge 60, Type (0, 1), BuildingBlock: MIFKUJ_clean_linker_0, # of connection points: 2
#     Edge 61, Type (0, 1), BuildingBlock: MIFKUJ_clean_linker_0, # of connection points: 2
#     Edge 62, Type (0, 1), BuildingBlock: MIFKUJ_clean_linker_0, # of connection points: 2
#     Edge 63, Type (0, 1), BuildingBlock: MIFKUJ_clean_linker_0, # of connection points: 2
#     Edge 64, Type (0, 1), BuildingBlock: MIFKUJ_clean_linker_0, # of connection points: 2
#     Edge 65, Type (0, 1), BuildingBlock: MIFKUJ_clean_linker_0, # of connection points: 2
#     Edge 66, Type (0, 1), BuildingBlock: MIFKUJ_clean_linker_0, # of connection points: 2
#     Edge 67, Type (0, 1), BuildingBlock: MIFKUJ_clean_linker_0, # of connection points: 2
#     Edge 68, Type (0, 1), BuildingBlock: MIFKUJ_clean_linker_0, # of connection points: 2
#     Edge 69, Type (0, 1), BuildingBlock: MIFKUJ_clean_linker_0, # of connection points: 2
#     Edge 70, Type (0, 1), BuildingBlock: MIFKUJ_clean_linker_0, # of connection points: 2
#     Edge 71, Type (0, 1), BuildingBlock: MIFKUJ_clean_linker_0, # of connection points: 2
#     Edge 72, Type (0, 1), BuildingBlock: MIFKUJ_clean_linker_0, # of connection points: 2
#     Edge 73, Type (0, 1), BuildingBlock: MIFKUJ_clean_linker_0, # of connection points: 2
#     Edge 74, Type (0, 1), BuildingBlock: MIFKUJ_clean_linker_0, # of connection points: 2
#     Edge 75, Type (0, 1), BuildingBlock: MIFKUJ_clean_linker_0, # of connection points: 2
#     Edge 76, Type (0, 1), BuildingBlock: MIFKUJ_clean_linker_0, # of connection points: 2
#     Edge 77, Type (0, 1), BuildingBlock: MIFKUJ_clean_linker_0, # of connection points: 2
#     Edge 78, Type (0, 1), BuildingBlock: MIFKUJ_clean_linker_0, # of connection points: 2
#     Edge 79, Type (0, 1), BuildingBlock: MIFKUJ_clean_linker_0, # of connection points: 2
#     Edge 80, Type (0, 1), BuildingBlock: MIFKUJ_clean_linker_0, # of connection points: 2
#     Edge 81, Type (0, 1), BuildingBlock: MIFKUJ_clean_linker_0, # of connection points: 2
#     Edge 82, Type (0, 1), BuildingBlock: MIFKUJ_clean_linker_0, # of connection points: 2
#     Edge 83, Type (0, 1), BuildingBlock: MIFKUJ_clean_linker_0, # of connection points: 2
#     Edge 84, Type (0, 1), BuildingBlock: MIFKUJ_clean_linker_0, # of connection points: 2
#     Edge 85, Type (0, 1), BuildingBlock: MIFKUJ_clean_linker_0, # of connection points: 2
#     Edge 86, Type (0, 1), BuildingBlock: MIFKUJ_clean_linker_0, # of connection points: 2
#     Edge 87, Type (0, 1), BuildingBlock: MIFKUJ_clean_linker_0, # of connection points: 2
#     Edge 88, Type (0, 1), BuildingBlock: MIFKUJ_clean_linker_0, # of connection points: 2
#     Edge 89, Type (0, 1), BuildingBlock: MIFKUJ_clean_linker_0, # of connection points: 2
#     Edge 90, Type (0, 1), BuildingBlock: MIFKUJ_clean_linker_0, # of connection points: 2
#     Edge 91, Type (0, 1), BuildingBlock: MIFKUJ_clean_linker_0, # of connection points: 2
#     Edge 92, Type (0, 1), BuildingBlock: MIFKUJ_clean_linker_0, # of connection points: 2
#     Edge 93, Type (0, 1), BuildingBlock: MIFKUJ_clean_linker_0, # of connection points: 2
#     Edge 94, Type (0, 1), BuildingBlock: MIFKUJ_clean_linker_0, # of connection points: 2
#     Edge 95, Type (0, 1), BuildingBlock: MIFKUJ_clean_linker_0, # of connection points: 2
#     Edge 96, Type (0, 1), BuildingBlock: MIFKUJ_clean_linker_0, # of connection points: 2
#     Edge 97, Type (0, 1), BuildingBlock: MIFKUJ_clean_linker_0, # of connection points: 2
#     Edge 98, Type (0, 1), BuildingBlock: MIFKUJ_clean_linker_0, # of connection points: 2
#     Edge 99, Type (0, 1), BuildingBlock: MIFKUJ_clean_linker_0, # of connection points: 2
#     Edge 100, Type (0, 1), BuildingBlock: MIFKUJ_clean_linker_0, # of connection points: 2
#     Edge 101, Type (0, 1), BuildingBlock: MIFKUJ_clean_linker_0, # of connection points: 2
#     Edge 102, Type (0, 1), BuildingBlock: MIFKUJ_clean_linker_0, # of connection points: 2
#     Edge 103, Type (0, 1), BuildingBlock: MIFKUJ_clean_linker_0, # of connection points: 2
#     Edge 104, Type (0, 1), BuildingBlock: MIFKUJ_clean_linker_0, # of connection points: 2
#     Edge 105, Type (0, 1), BuildingBlock: MIFKUJ_clean_linker_0, # of connection points: 2
#     Edge 106, Type (0, 1), BuildingBlock: MIFKUJ_clean_linker_0, # of connection points: 2
#     Edge 107, Type (0, 1), BuildingBlock: MIFKUJ_clean_linker_0, # of connection points: 2
#     Edge 108, Type (0, 1), BuildingBlock: MIFKUJ_clean_linker_0, # of connection points: 2
#     Edge 109, Type (0, 1), BuildingBlock: MIFKUJ_clean_linker_0, # of connection points: 2
#     Edge 110, Type (0, 1), BuildingBlock: MIFKUJ_clean_linker_0, # of connection points: 2
#     Edge 111, Type (0, 1), BuildingBlock: MIFKUJ_clean_linker_0, # of connection points: 2
#     Edge 112, Type (0, 1), BuildingBlock: MIFKUJ_clean_linker_0, # of connection points: 2
#     Edge 113, Type (0, 1), BuildingBlock: MIFKUJ_clean_linker_0, # of connection points: 2
#     Edge 114, Type (0, 1), BuildingBlock: MIFKUJ_clean_linker_0, # of connection points: 2
#     Edge 115, Type (0, 1), BuildingBlock: MIFKUJ_clean_linker_0, # of connection points: 2
#     Edge 116, Type (0, 1), BuildingBlock: MIFKUJ_clean_linker_0, # of connection points: 2
#     Edge 117, Type (0, 1), BuildingBlock: MIFKUJ_clean_linker_0, # of connection points: 2
#     Edge 118, Type (0, 1), BuildingBlock: MIFKUJ_clean_linker_0, # of connection points: 2
#     Edge 119, Type (0, 1), BuildingBlock: MIFKUJ_clean_linker_0, # of connection points: 2
#     Edge 120, Type (0, 1), BuildingBlock: MIFKUJ_clean_linker_0, # of connection points: 2
#     Edge 121, Type (0, 1), BuildingBlock: MIFKUJ_clean_linker_0, # of connection points: 2
#     Edge 122, Type (0, 1), BuildingBlock: MIFKUJ_clean_linker_0, # of connection points: 2
#     Edge 123, Type (0, 1), BuildingBlock: MIFKUJ_clean_linker_0, # of connection points: 2
#     Edge 124, Type (0, 1), BuildingBlock: MIFKUJ_clean_linker_0, # of connection points: 2
#     Edge 125, Type (0, 1), BuildingBlock: MIFKUJ_clean_linker_0, # of connection points: 2
#     Edge 126, Type (0, 1), BuildingBlock: MIFKUJ_clean_linker_0, # of connection points: 2
#     Edge 127, Type (0, 1), BuildingBlock: MIFKUJ_clean_linker_0, # of connection points: 2
#     Edge 128, Type (0, 1), BuildingBlock: MIFKUJ_clean_linker_0, # of connection points: 2
#     Edge 129, Type (0, 1), BuildingBlock: MIFKUJ_clean_linker_0, # of connection points: 2
#     Edge 130, Type (0, 1), BuildingBlock: MIFKUJ_clean_linker_0, # of connection points: 2
#     Edge 131, Type (0, 1), BuildingBlock: MIFKUJ_clean_linker_0, # of connection points: 2
#     Edge 132, Type (0, 1), BuildingBlock: MIFKUJ_clean_linker_0, # of connection points: 2
#     Edge 133, Type (0, 1), BuildingBlock: MIFKUJ_clean_linker_0, # of connection points: 2
#     Edge 134, Type (0, 1), BuildingBlock: MIFKUJ_clean_linker_0, # of connection points: 2
#     Edge 135, Type (0, 1), BuildingBlock: MIFKUJ_clean_linker_0, # of connection points: 2
# Relax obj value: 0.125
# Max RMSD: 0.302
# Mean RMSD: 0.174
data_MOF--net-gar--node1-NAHDIM_clean_sbu_0--node2-KUMBOL_clean_sbu_0--edge1-MIFKUJ_clean_linker_0
_symmetry_space_group_name_H-M    P1
_symmetry_Int_Tables_number       1
_symmetry_cell_setting            triclinic
loop_
_symmetry_equiv_pos_as_xyz
'x, y, z'
_cell_length_a     78.206084
_cell_length_b     72.54005
_cell_length_c     71.008046
_cell_angle_alpha  100.39632
_cell_angle_beta   93.187773
_cell_angle_gamma 102.75558
loop_
_atom_site_label
_atom_site_type_symbol
_atom_site_fract_x
_atom_site_fract_y
_atom_site_fract_z
_atom_type_partial_charge
C0 C 0.12623 0.31629 0.36491 0.0
O1 O 0.12741 0.32031 0.38381 0.0
O2 O 0.0919 0.28633 0.38675 0.0
Zn3 Zn 0.09205 0.3067 0.37139 0.0
O4 O 0.09704 0.33248 0.38845 0.0
C5 C 0.05529 0.29525 0.3616 0.0
O6 O 0.0561 0.28623 0.37597 0.0
O7 O 0.11142 0.30842 0.35543 0.0
C8 C 0.08494 0.34103 0.39278 0.0
O9 O 0.06847 0.33237 0.38684 0.0
C10 C 0.0897 0.29031 0.40445 0.0
O11 O 0.0877 0.3075 0.41202 0.0
O12 O 0.06946 0.30339 0.3557 0.0
C13 C 0.96988 0.74984 0.67692 0.0
O14 O 0.97279 0.73296 0.66974 0.0
O15 O 0.9958 0.73785 0.64375 0.0
Zn16 Zn 1.00003 0.76388 0.65897 0.0
O17 O 0.00093 0.78187 0.64143 0.0
C18 C 0.03324 0.75826 0.66983 0.0
O19 O 0.02888 0.74504 0.65405 0.0
O20 O 0.98032 0.76516 0.6746 0.0
C21 C 0.01514 0.78761 0.63429 0.0
O22 O 0.02922 0.78167 0.63884 0.0
C23 C 0.98653 0.72946 0.62816 0.0
O24 O 0.97708 0.73865 0.6191 0.0
O25 O 0.02301 0.76911 0.67529 0.0
C26 C 0.62814 0.82005 0.86583 0.0
O27 O 0.62963 0.82394 0.88474 0.0
O28 O 0.59427 0.78755 0.88794 0.0
Zn29 Zn 0.59384 0.80801 0.87277 0.0
O30 O 0.59747 0.83273 0.89076 0.0
C31 C 0.55749 0.80148 0.86759 0.0
O32 O 0.55963 0.79782 0.88488 0.0
O33 O 0.61332 0.81147 0.85662 0.0
C34 C 0.59651 0.84783 0.88466 0.0
O35 O 0.5927 0.84682 0.86619 0.0
C36 C 0.59125 0.7912 0.90544 0.0
O37 O 0.58833 0.80801 0.91289 0.0
O38 O 0.5707 0.80456 0.85805 0.0
C39 C 0.46898 0.2467 0.17707 0.0
O40 O 0.47082 0.22951 0.16925 0.0
O41 O 0.49277 0.23424 0.14203 0.0
Zn42 Zn 0.49878 0.26001 0.15828 0.0
O43 O 0.50022 0.28032 0.14282 0.0
C44 C 0.53247 0.2541 0.16502 0.0
O45 O 0.52804 0.24384 0.14752 0.0
O46 O 0.48 0.26167 0.1749 0.0
C47 C 0.51239 0.28375 0.132 0.0
O48 O 0.52435 0.27355 0.13073 0.0
C49 C 0.48948 0.22983 0.12396 0.0
O50 O 0.4891 0.24332 0.11396 0.0
O51 O 0.52173 0.26281 0.17339 0.0
C52 C 0.043 0.80874 0.12484 0.0
O53 O 0.04161 0.81188 0.10723 0.0
O54 O 0.07862 0.78396 0.09748 0.0
Zn55 Zn 0.08038 0.80998 0.11652 0.0
O56 O 0.08112 0.83447 0.10374 0.0
C57 C 0.11932 0.81732 0.13238 0.0
O58 O 0.12289 0.82401 0.11668 0.0
O59 O 0.05797 0.80727 0.13189 0.0
C60 C 0.0784 0.83495 0.08587 0.0
O61 O 0.07606 0.81881 0.07316 0.0
C62 C 0.06647 0.77362 0.0847 0.0
O63 O 0.05249 0.78009 0.08101 0.0
O64 O 0.10312 0.81193 0.13545 0.0
C65 C 0.55264 0.76298 0.41513 0.0
O66 O 0.55319 0.75455 0.42995 0.0
O67 O 0.51436 0.74207 0.43953 0.0
Zn68 Zn 0.51683 0.76663 0.42672 0.0
O69 O 0.52183 0.7928 0.44663 0.0
C70 C 0.47822 0.75936 0.41032 0.0
O71 O 0.47451 0.75312 0.42621 0.0
O72 O 0.5388 0.76871 0.411 0.0
C73 C 0.51125 0.80398 0.44708 0.0
O74 O 0.49623 0.79781 0.43617 0.0
C75 C 0.52347 0.74177 0.45499 0.0
O76 O 0.53418 0.75792 0.46413 0.0
O77 O 0.49446 0.76498 0.40758 0.0
C78 C 0.54345 0.30866 0.62505 0.0
O79 O 0.54137 0.30703 0.60628 0.0
O80 O 0.57385 0.28573 0.59671 0.0
Zn81 Zn 0.58035 0.31172 0.61651 0.0
O82 O 0.58146 0.3361 0.60378 0.0
C83 C 0.61962 0.31663 0.63032 0.0
O84 O 0.62278 0.3225 0.61413 0.0
O85 O 0.55901 0.31086 0.63311 0.0
C86 C 0.58105 0.33703 0.58591 0.0
O87 O 0.58118 0.32146 0.57324 0.0
C88 C 0.585 0.27727 0.58864 0.0
O89 O 0.60177 0.28611 0.59163 0.0
O90 O 0.60356 0.31226 0.63422 0.0
C91 C 0.05239 0.26382 0.91281 0.0
O92 O 0.05292 0.25422 0.92675 0.0
O93 O 0.01798 0.24241 0.93862 0.0
Zn94 Zn 0.01704 0.26623 0.92513 0.0
O95 O 0.01933 0.29382 0.94146 0.0
C96 C 0.98036 0.26638 0.91175 0.0
O97 O 0.98061 0.27449 0.92991 0.0
O98 O 0.03866 0.26993 0.90929 0.0
C99 C 0.01996 0.30204 0.95906 0.0
O100 O 0.0188 0.29176 0.97252 0.0
C101 C 0.0178 0.24016 0.95611 0.0
O102 O 0.01619 0.25453 0.96946 0.0
O103 O 0.99404 0.26083 0.90628 0.0
C104 C 0.39995 0.07455 0.31798 0.0
O105 O 0.41706 0.07625 0.31839 0.0
O106 O 0.41352 0.04863 0.2763 0.0
Zn107 Zn 0.40103 0.03995 0.29759 0.0
O108 O 0.41766 0.03422 0.31565 0.0
C109 C 0.39163 0.00425 0.27803 0.0
O110 O 0.40878 0.00865 0.27735 0.0
O111 O 0.38968 0.0585 0.31074 0.0
C112 C 0.41547 0.02197 0.3264 0.0
O113 O 0.39971 0.01127 0.32722 0.0
C114 C 0.42999 0.0501 0.2768 0.0
O115 O 0.43905 0.05059 0.29307 0.0
O116 O 0.38411 0.01678 0.2862 0.0
C117 C 0.32652 0.16864 0.49699 0.0
O118 O 0.32507 0.17655 0.48191 0.0
O119 O 0.29296 0.19922 0.5301 0.0
Zn120 Zn 0.29342 0.18035 0.50523 0.0
O121 O 0.29562 0.1934 0.4821 0.0
C122 C 0.25595 0.16733 0.50249 0.0
O123 O 0.2581 0.18616 0.50605 0.0
O124 O 0.31457 0.1682 0.50854 0.0
C125 C 0.29912 0.21152 0.48292 0.0
O126 O 0.30112 0.22321 0.49972 0.0
C127 C 0.30605 0.21191 0.53939 0.0
O128 O 0.32142 0.21411 0.53241 0.0
O129 O 0.26962 0.16048 0.50104 0.0
C130 C 0.17996 0.96328 0.76058 0.0
O131 O 0.16323 0.95592 0.75456 0.0
O132 O 0.15171 1.00177 0.7389 0.0
Zn133 Zn 0.16922 0.00546 0.76594 0.0
O134 O 0.15546 0.00628 0.79245 0.0
C135 C 0.18233 0.0505 0.77324 0.0
O136 O 0.16666 0.04968 0.7793 0.0
O137 O 0.18499 0.98205 0.76527 0.0
C138 C 0.13954 0.0074 0.79549 0.0
O139 O 0.12899 0.00827 0.78079 0.0
C140 C 0.14248 0.01379 0.7354 0.0
O141 O 0.14236 0.02826 0.74942 0.0
O142 O 0.18679 0.03435 0.76785 0.0
C143 C 0.28177 0.94841 0.01715 0.0
O144 O 0.27987 0.92966 0.01476 0.0
O145 O 0.31289 0.92856 0.03811 0.0
Zn146 Zn 0.31596 0.94643 0.02006 0.0
O147 O 0.31596 0.93178 0.99389 0.0
C148 C 0.3497 0.96214 0.03969 0.0
O149 O 0.34535 0.9475 0.04832 0.0
O150 O 0.29702 0.95943 0.02025 0.0
C151 C 0.3296 0.92612 0.98911 0.0
O152 O 0.34391 0.93126 0.00124 0.0
C153 C 0.31323 0.91096 0.03334 0.0
O154 O 0.3121 0.90278 0.01512 0.0
O155 O 0.33863 0.9652 0.02759 0.0
C156 C 0.26866 0.40596 0.04398 0.0
O157 O 0.26705 0.39416 0.05611 0.0
O158 O 0.30167 0.37976 0.05727 0.0
Zn159 Zn 0.30234 0.39452 0.03526 0.0
O160 O 0.30004 0.37792 0.00848 0.0
C161 C 0.34022 0.40838 0.04112 0.0
O162 O 0.33896 0.39023 0.04212 0.0
O163 O 0.28233 0.40847 0.03489 0.0
C164 C 0.29798 0.35984 0.00273 0.0
O165 O 0.29738 0.34861 0.01538 0.0
C166 C 0.28957 0.36563 0.05955 0.0
O167 O 0.27603 0.35876 0.04645 0.0
O168 O 0.3261 0.41403 0.03852 0.0
C169 C 0.81303 0.13022 0.02414 0.0
O170 O 0.81523 0.14903 0.02672 0.0
O171 O 0.78437 0.15152 0.05145 0.0
Zn172 Zn 0.78023 0.1342 0.02611 0.0
O173 O 0.78025 0.14914 0.00544 0.0
C174 C 0.74567 0.12731 0.02579 0.0
O175 O 0.75065 0.14615 0.03105 0.0
O176 O 0.79773 0.11963 0.02316 0.0
C177 C 0.76871 0.14469 0.99111 0.0
O178 O 0.75701 0.12814 0.98799 0.0
C179 C 0.78466 0.16916 0.05222 0.0
O180 O 0.78445 0.17597 0.03632 0.0
O181 O 0.75715 0.11743 0.02418 0.0
C182 C 0.1938 0.49623 0.22899 0.0
O183 O 0.17672 0.4925 0.23015 0.0
O184 O 0.17176 0.52796 0.21863 0.0
Zn185 Zn 0.18951 0.53212 0.23942 0.0
O186 O 0.18004 0.53125 0.2643 0.0
C187 C 0.19968 0.57038 0.23539 0.0
O188 O 0.184 0.5672 0.22607 0.0
O189 O 0.20268 0.51343 0.23261 0.0
C190 C 0.17219 0.54445 0.26993 0.0
O191 O 0.17008 0.55665 0.25894 0.0
C192 C 0.15529 0.5245 0.21901 0.0
O193 O 0.14809 0.52288 0.23507 0.0
O194 O 0.20474 0.55696 0.24148 0.0
C195 C 0.76746 0.90378 0.53895 0.0
O196 O 0.76384 0.88732 0.54484 0.0
O197 O 0.80072 0.88224 0.55785 0.0
Zn198 Zn 0.80139 0.89408 0.5339 0.0
O199 O 0.79496 0.87413 0.50898 0.0
C200 C 0.83898 0.91266 0.54611 0.0
O201 O 0.83599 0.90382 0.56062 0.0
O202 O 0.78285 0.90997 0.53418 0.0
C203 C 0.80373 0.86182 0.50297 0.0
O204 O 0.81752 0.86087 0.51388 0.0
C205 C 0.79391 0.86483 0.55877 0.0
O206 O 0.78634 0.85259 0.54303 0.0
O207 O 0.82632 0.91086 0.53325 0.0
C208 C 0.91138 0.1074 0.26575 0.0
O209 O 0.91917 0.10571 0.24981 0.0
O210 O 0.94254 0.07285 0.24664 0.0
Zn211 Zn 0.9283 0.07187 0.27313 0.0
O212 O 0.94514 0.07444 0.30017 0.0
C213 C 0.91435 0.02709 0.26599 0.0
O214 O 0.93052 0.02745 0.26178 0.0
O215 O 0.91326 0.09562 0.27709 0.0
C216 C 0.95536 0.06341 0.30367 0.0
O217 O 0.95724 0.04999 0.28939 0.0
C218 C 0.9535 0.06304 0.2396 0.0
O219 O 0.95816 0.05103 0.24951 0.0
O220 O 0.91003 0.04342 0.27032 0.0
C221 C 0.31825 0.63356 0.52955 0.0
O222 O 0.32172 0.65243 0.53474 0.0
O223 O 0.29085 0.65882 0.55132 0.0
Zn224 Zn 0.28538 0.63859 0.52804 0.0
O225 O 0.28531 0.65023 0.50523 0.0
C226 C 0.25061 0.62937 0.53399 0.0
O227 O 0.25387 0.64816 0.53956 0.0
O228 O 0.30255 0.62385 0.52618 0.0
C229 C 0.27151 0.6493 0.49458 0.0
O230 O 0.25628 0.63899 0.4976 0.0
C231 C 0.28781 0.67513 0.55059 0.0
O232 O 0.28249 0.67877 0.53408 0.0
O233 O 0.26286 0.62137 0.52892 0.0
C234 C 0.41673 0.61179 0.7774 0.0
O235 O 0.43378 0.61914 0.78097 0.0
O236 O 0.44146 0.56856 0.74568 0.0
Zn237 Zn 0.42737 0.57003 0.77223 0.0
O238 O 0.44323 0.57255 0.80005 0.0
C239 C 0.41473 0.52651 0.77144 0.0
O240 O 0.43161 0.52881 0.7764 0.0
O241 O 0.41152 0.59306 0.77377 0.0
C242 C 0.45769 0.56734 0.80364 0.0
O243 O 0.46547 0.56058 0.78889 0.0
C244 C 0.45771 0.57423 0.74236 0.0
O245 O 0.46924 0.58313 0.75715 0.0
O246 O 0.40943 0.54154 0.76867 0.0
C247 C 0.69368 0.99529 0.7238 0.0
O248 O 0.67689 0.99091 0.72643 0.0
O249 O 0.66961 0.03083 0.71728 0.0
Zn250 Zn 0.68888 0.03068 0.73472 0.0
O251 O 0.68097 0.02642 0.75994 0.0
C252 C 0.69963 0.07016 0.73716 0.0
O253 O 0.68347 0.06852 0.72981 0.0
O254 O 0.70087 0.01233 0.72272 0.0
C255 C 0.67195 0.03833 0.76619 0.0
O256 O 0.66883 0.05066 0.75583 0.0
C257 C 0.65344 0.02402 0.71815 0.0
O258 O 0.64809 0.01369 0.73103 0.0
O259 O 0.70506 0.05552 0.73954 0.0
C260 C 0.82875 0.67361 0.00138 0.0
O261 O 0.83235 0.69173 0.99955 0.0
O262 O 0.79697 0.69577 0.03099 0.0
Zn263 Zn 0.79395 0.68046 0.00391 0.0
O264 O 0.79857 0.69869 0.98512 0.0
C265 C 0.75572 0.66904 0.00324 0.0
O266 O 0.75811 0.68761 0.01002 0.0
O267 O 0.81289 0.66526 0.0029 0.0
C268 C 0.78764 0.69824 0.97102 0.0
O269 O 0.77237 0.68569 0.96846 0.0
C270 C 0.79565 0.71311 0.0357 0.0
O271 O 0.79192 0.7223 0.02225 0.0
O272 O 0.76912 0.66239 0.99901 0.0
C273 C 0.8943 0.57034 0.81664 0.0
O274 O 0.91134 0.57203 0.81994 0.0
O275 O 0.91365 0.54667 0.7804 0.0
Zn276 Zn 0.89813 0.53641 0.79904 0.0
O277 O 0.91096 0.53276 0.82187 0.0
C278 C 0.88918 0.50254 0.7715 0.0
O279 O 0.90509 0.5088 0.76679 0.0
O280 O 0.88458 0.5544 0.80795 0.0
C281 C 0.92057 0.52084 0.8213 0.0
O282 O 0.92148 0.5095 0.80493 0.0
C283 C 0.93001 0.54749 0.78128 0.0
O284 O 0.93836 0.54626 0.79738 0.0
O285 O 0.88325 0.51227 0.78518 0.0
C286 C 0.78213 0.44693 0.51837 0.0
O287 O 0.78052 0.42855 0.51854 0.0
O288 O 0.81442 0.42699 0.53264 0.0
Zn289 Zn 0.81657 0.44594 0.51553 0.0
O290 O 0.81655 0.43229 0.48914 0.0
C291 C 0.84611 0.46974 0.53935 0.0
O292 O 0.83923 0.46079 0.55264 0.0
O293 O 0.79697 0.45752 0.51707 0.0
C294 C 0.83085 0.43004 0.48261 0.0
O295 O 0.84593 0.43806 0.49307 0.0
C296 C 0.82615 0.41763 0.53409 0.0
O297 O 0.83993 0.42062 0.52436 0.0
O298 O 0.83792 0.46633 0.52279 0.0
C299 C 0.67925 0.46332 0.25933 0.0
O300 O 0.66305 0.45581 0.25135 0.0
O301 O 0.65247 0.50311 0.23719 0.0
Zn302 Zn 0.66774 0.50534 0.26517 0.0
O303 O 0.65016 0.50386 0.28873 0.0
C304 C 0.68031 0.5502 0.26884 0.0
O305 O 0.66324 0.54867 0.2665 0.0
O306 O 0.68366 0.48201 0.26524 0.0
C307 C 0.65142 0.51663 0.30434 0.0
O308 O 0.66406 0.53235 0.3064 0.0
C309 C 0.63776 0.50811 0.2344 0.0
O310 O 0.6301 0.51383 0.24967 0.0
O311 O 0.68553 0.53453 0.26932 0.0
Gd312 Gd 0.0684 0.04764 0.02802 0.0
Gd313 Gd 0.02477 0.02375 0.00694 0.0
C314 C 0.00336 0.95992 0.00671 0.0
C315 C 0.99523 0.94657 0.9727 0.0
C316 C 0.00965 0.98058 0.9834 0.0
C317 C 0.01036 0.97814 0.00229 0.0
C318 C 0.00184 0.96481 0.96841 0.0
C319 C 0.99598 0.94413 0.9918 0.0
C320 C 0.00341 0.95821 0.02602 0.0
C321 C 0.00998 0.97449 0.04039 0.0
N322 N 0.01692 0.9938 0.01646 0.0
C323 C 0.01651 0.99225 0.03533 0.0
H324 H 0.02174 0.00452 0.04662 0.0
C325 C 0.01291 1.00189 0.96159 0.0
N326 N 0.01546 0.99856 0.9798 0.0
C327 C 0.00572 0.98664 0.94621 0.0
C328 C 1.00024 0.96799 0.94961 0.0
H329 H 0.01634 0.01645 0.95902 0.0
H330 H 0.99048 0.93007 0.99494 0.0
H331 H 0.07654 0.06202 0.98384 0.0
H332 H 0.99815 0.94448 0.02998 0.0
H333 H 0.01 0.9734 0.0554 0.0
H334 H 0.98912 0.93434 0.96137 0.0
H335 H 0.07474 0.06239 0.07665 0.0
H336 H 0.09718 0.12219 0.9954 0.0
H337 H 0.08824 0.09103 0.97273 0.0
H338 H 0.1002 0.14101 0.06336 0.0
H339 H 0.00402 0.98934 0.93181 0.0
H340 H 0.99429 0.95626 0.93773 0.0
H341 H 0.10136 0.14055 0.0289 0.0
H342 H 0.08503 0.09227 0.1004 0.0
N343 N 0.07858 0.07522 0.01391 0.0
C344 C 0.09201 0.10919 1.00074 0.0
C345 C 0.0871 0.09165 0.98795 0.0
C346 C 0.09046 0.10978 0.02028 0.0
C347 C 0.08356 0.09242 0.02662 0.0
C348 C 0.08055 0.07483 0.9947 0.0
N349 N 0.07643 0.07605 0.05221 0.0
C350 C 0.08251 0.09282 0.04617 0.0
C351 C 0.08412 0.09272 0.08524 0.0
C352 C 0.08931 0.11016 0.07928 0.0
C353 C 0.07808 0.07577 0.07153 0.0
C354 C 0.08887 0.11036 0.05963 0.0
H355 H 0.09421 0.12329 0.08995 0.0
O356 O 0.08242 0.039 0.05085 0.0
O357 O 0.04707 0.02077 0.02599 0.0
O358 O 0.02191 0.03483 0.03872 0.0
O359 O 0.05011 0.05091 0.05237 0.0
O360 O 0.07131 0.01728 0.01807 0.0
O361 O 0.09679 0.05214 0.02864 0.0
O362 O 0.00648 0.04103 1.00076 0.0
O363 O 0.04338 0.05275 0.01632 0.0
O364 O 0.07096 0.03567 0.99645 0.0
O365 O 0.04311 0.01715 0.98315 0.0
O366 O 0.0317 0.04545 0.98805 0.0
O367 O 0.99709 0.01508 0.01137 0.0
C368 C 0.05585 0.00825 0.02074 0.0
C369 C 0.09534 0.1275 0.05321 0.0
C370 C 0.09605 0.12722 0.0336 0.0
C371 C 0.09745 0.04489 0.04417 0.0
C372 C 0.11397 0.04332 0.05337 0.0
C373 C 0.11839 0.05023 0.07318 0.0
C374 C 0.12532 0.03462 0.04232 0.0
C375 C 0.14105 0.0327 0.05107 0.0
C376 C 0.1343 0.04857 0.08187 0.0
C377 C 0.14564 0.03978 0.07085 0.0
C378 C 0.03295 0.04503 0.05371 0.0
C379 C 0.04158 0.05912 0.00094 0.0
C380 C 0.993 0.02953 0.00541 0.0
C381 C 0.97666 0.02573 0.99295 0.0
C382 C 0.97311 0.01239 0.97546 0.0
C383 C 0.96432 0.03612 0.99897 0.0
C384 C 0.94846 0.03331 0.98764 0.0
C385 C 0.95742 0.00988 0.96386 0.0
C386 C 0.94502 0.02026 0.96996 0.0
C387 C 0.06017 0.02431 0.98166 0.0
H388 H 0.10964 0.05701 0.08184 0.0
H389 H 0.1218 0.02909 0.02701 0.0
H390 H 0.1378 0.05401 0.09713 0.0
H391 H 0.1579 0.03841 0.07771 0.0
H392 H 0.98218 0.00377 0.97088 0.0
H393 H 0.96695 0.04622 0.01267 0.0
H394 H 0.95479 0.99973 0.95026 0.0
H395 H 0.93284 0.01816 0.96094 0.0
Gd396 Gd 0.29235 0.79377 0.28987 0.0
Gd397 Gd 0.3092 0.77686 0.24332 0.0
C398 C 0.28616 0.71523 0.20922 0.0
C399 C 0.31141 0.70107 0.21006 0.0
C400 C 0.31351 0.73382 0.22759 0.0
C401 C 0.29617 0.73255 0.22105 0.0
C402 C 0.32135 0.71814 0.22179 0.0
C403 C 0.29385 0.6996 0.20383 0.0
C404 C 0.26863 0.71399 0.20306 0.0
C405 C 0.26137 0.72968 0.2087 0.0
N406 N 0.28908 0.74808 0.22617 0.0
C407 C 0.27172 0.74658 0.22018 0.0
H408 H 0.26511 0.7578 0.22441 0.0
C409 C 0.34082 0.75295 0.24289 0.0
N410 N 0.32297 0.75053 0.23886 0.0
C411 C 0.34902 0.73783 0.2377 0.0
C412 C 0.3392 0.72024 0.22731 0.0
H413 H 0.34917 0.76679 0.24955 0.0
H414 H 0.28634 0.68633 0.19471 0.0
H415 H 0.33484 0.81298 0.31324 0.0
H416 H 0.26055 0.70092 0.19412 0.0
H417 H 0.24769 0.72878 0.20427 0.0
H418 H 0.31726 0.68898 0.20549 0.0
H419 H 0.25162 0.80184 0.28304 0.0
H420 H 0.33774 0.8704 0.34092 0.0
H421 H 0.35105 0.84251 0.33356 0.0
H422 H 0.28131 0.881 0.32507 0.0
H423 H 0.36306 0.73997 0.24124 0.0
H424 H 0.34567 0.70861 0.22299 0.0
H425 H 0.31199 0.88461 0.3374 0.0
H426 H 0.23681 0.8281 0.29023 0.0
N427 N 0.31132 0.82281 0.3078 0.0
C428 C 0.33023 0.8572 0.33168 0.0
C429 C 0.33775 0.84149 0.32761 0.0
C430 C 0.3131 0.8557 0.32389 0.0
C431 C 0.3038 0.83817 0.3118 0.0
C432 C 0.32812 0.82438 0.31585 0.0
N433 N 0.27753 0.81921 0.29344 0.0
C434 C 0.28656 0.83634 0.30439 0.0
C435 C 0.25088 0.83081 0.29387 0.0
C436 C 0.26027 0.84885 0.3037 0.0
C437 C 0.25959 0.81602 0.28938 0.0
C438 C 0.27818 0.8517 0.3095 0.0
H439 H 0.2534 0.86022 0.30753 0.0
O440 O 0.26702 0.78013 0.29841 0.0
O441 O 0.29078 0.77024 0.26475 0.0
O442 O 0.28482 0.78659 0.23432 0.0
O443 O 0.27328 0.79388 0.26391 0.0
O444 O 0.29162 0.76335 0.29224 0.0
O445 O 0.28978 0.79464 0.32004 0.0
O446 O 0.33503 0.78968 0.23599 0.0
O447 O 0.31114 0.80023 0.26871 0.0
O448 O 0.31702 0.78481 0.29859 0.0
O449 O 0.32826 0.77616 0.2692 0.0
O450 O 0.30982 0.80741 0.24136 0.0
O451 O 0.31355 0.77603 0.21336 0.0
C452 C 0.291 0.75717 0.27402 0.0
C453 C 0.28757 0.86913 0.32109 0.0
C454 C 0.305 0.87115 0.3282 0.0
C455 C 0.2731 0.78592 0.31653 0.0
C456 C 0.2631 0.78014 0.3319 0.0
C457 C 0.24958 0.78906 0.33763 0.0
C458 C 0.26767 0.76658 0.34159 0.0
C459 C 0.25868 0.76184 0.35718 0.0
C460 C 0.24072 0.78455 0.3533 0.0
C461 C 0.24526 0.77105 0.36311 0.0
C462 C 0.27251 0.79187 0.24485 0.0
C463 C 0.31096 0.81348 0.25968 0.0
C464 C 0.33018 0.78487 0.21756 0.0
C465 C 0.33818 0.79826 0.20571 0.0
C466 C 0.35611 0.80002 0.20326 0.0
C467 C 0.32841 0.80854 0.19625 0.0
C468 C 0.33678 0.82067 0.18458 0.0
C469 C 0.36434 0.81199 0.19152 0.0
C470 C 0.35474 0.82232 0.18222 0.0
C471 C 0.32919 0.77898 0.28835 0.0
H472 H 0.24613 0.79975 0.33023 0.0
H473 H 0.27808 0.75965 0.33686 0.0
H474 H 0.23042 0.79162 0.35794 0.0
H475 H 0.23841 0.76797 0.37544 0.0
H476 H 0.36371 0.79194 0.21031 0.0
H477 H 0.3145 0.80712 0.19788 0.0
H478 H 0.37813 0.81316 0.18953 0.0
H479 H 0.36124 0.8314 0.17291 0.0
Gd480 Gd 0.52905 0.03808 0.52517 0.0
Gd481 Gd 0.57155 0.04253 0.5046 0.0
C482 C 0.61534 0.09702 0.50861 0.0
C483 C 0.61756 0.0985 0.47495 0.0
C484 C 0.59582 0.07282 0.48398 0.0
C485 C 0.60142 0.08033 0.50323 0.0
C486 C 0.60405 0.08165 0.46963 0.0
C487 C 0.62318 0.10617 0.49439 0.0
C488 C 0.62116 0.10392 0.52811 0.0
C489 C 0.61324 0.09423 0.54174 0.0
N490 N 0.59355 0.07117 0.51667 0.0
C491 C 0.59945 0.07786 0.53581 0.0
H492 H 0.5933 0.07148 0.54693 0.0
C493 C 0.5783 0.04737 0.46043 0.0
N494 N 0.58285 0.05644 0.47922 0.0
C495 C 0.58596 0.05567 0.4457 0.0
C496 C 0.59877 0.073 0.45031 0.0
H497 H 0.56858 0.0338 0.45687 0.0
H498 H 0.63379 0.11903 0.49829 0.0
H499 H 0.50785 0.00895 0.48348 0.0
H500 H 0.63176 0.11668 0.53278 0.0
H501 H 0.61754 0.09952 0.55689 0.0
H502 H 0.62395 0.10554 0.46412 0.0
H503 H 0.53128 0.04741 0.57289 0.0
H504 H 0.47709 0.95781 0.49721 0.0
H505 H 0.48757 0.97737 0.47322 0.0
H506 H 0.48455 0.9699 0.56599 0.0
H507 H 0.58208 0.04864 0.43081 0.0
H508 H 0.60478 0.07934 0.43887 0.0
H509 H 0.47602 0.95519 0.5318 0.0
H510 H 0.5199 0.03121 0.59907 0.0
N511 N 0.50955 0.00773 0.51334 0.0
C512 C 0.48613 0.97179 0.5019 0.0
C513 C 0.49194 0.98281 0.48834 0.0
C514 C 0.49161 0.9792 0.5214 0.0
C515 C 0.50349 0.99743 0.52676 0.0
C516 C 0.50352 1.0009 0.49434 0.0
N517 N 0.51942 0.0234 0.5507 0.0
C518 C 0.50848 0.00556 0.54601 0.0
C519 C 0.51667 0.0238 0.58422 0.0
C520 C 0.506 0.00511 0.5797 0.0
C521 C 0.52308 0.03291 0.56943 0.0
C522 C 0.50154 0.99587 0.56041 0.0
H523 H 0.50094 0.99812 0.59117 0.0
O524 O 0.51681 0.05907 0.54111 0.0
O525 O 0.55233 0.05878 0.51779 0.0
O526 O 0.57254 0.04369 0.53624 0.0
O527 O 0.54621 0.02584 0.54322 0.0
O528 O 0.54468 0.06569 0.54449 0.0
O529 O 0.5046 0.04323 0.51299 0.0
O530 O 0.58099 0.01804 0.49094 0.0
O531 O 0.5479 0.02255 0.51141 0.0
O532 O 0.52723 0.03909 0.49378 0.0
O533 O 0.55455 0.0542 0.48554 0.0
O534 O 0.55572 0.01528 0.48462 0.0
O535 O 0.59562 0.03645 0.51674 0.0
C536 C 0.5549 0.07241 0.53237 0.0
C537 C 0.48998 0.97759 0.55513 0.0
C538 C 0.4851 0.96922 0.53566 0.0
C539 C 0.50365 0.05619 0.528 0.0
C540 C 0.4863 0.0562 0.53511 0.0
C541 C 0.48044 0.04558 0.54912 0.0
C542 C 0.47632 0.06854 0.52927 0.0
C543 C 0.46071 0.07053 0.53767 0.0
C544 C 0.46496 0.04736 0.55736 0.0
C545 C 0.45519 0.05973 0.55175 0.0
C546 C 0.5634 0.03247 0.54652 0.0
C547 C 0.54482 0.00942 0.49652 0.0
C548 C 0.59497 0.02162 0.50305 0.0
C549 C 0.6114 0.01957 0.49445 0.0
C550 C 0.61465 0.0251 0.47681 0.0
C551 C 0.62298 0.0102 0.5028 0.0
C552 C 0.6375 0.00593 0.49328 0.0
C553 C 0.62875 0.02078 0.46725 0.0
C554 C 0.6399 0.01106 0.4752 0.0
C555 C 0.53722 0.04823 0.48234 0.0
H556 H 0.48798 0.03618 0.55395 0.0
H557 H 0.48103 0.07706 0.51872 0.0
H558 H 0.46057 0.03921 0.56826 0.0
H559 H 0.44317 0.06069 0.55833 0.0
H560 H 0.60597 0.03222 0.47007 0.0
H561 H 0.62055 0.00615 0.51653 0.0
H562 H 0.63086 0.02466 0.4534 0.0
H563 H 0.65029 0.00734 0.46692 0.0
Gd564 Gd 0.31852 0.28274 0.76979 0.0
Gd565 Gd 0.27518 0.29493 0.76762 0.0
C566 C 0.24498 0.28063 0.70751 0.0
C567 C 0.24442 0.31246 0.70174 0.0
C568 C 0.25822 0.3088 0.73198 0.0
C569 C 0.2545 0.2891 0.72565 0.0
C570 C 0.25264 0.32066 0.72039 0.0
C571 C 0.24058 0.29245 0.69531 0.0
C572 C 0.23922 0.26057 0.70261 0.0
C573 C 0.24237 0.24953 0.71596 0.0
N574 N 0.25862 0.27813 0.73799 0.0
C575 C 0.25208 0.25853 0.73362 0.0
H576 H 0.25423 0.24941 0.7434 0.0
C577 C 0.26618 0.33487 0.75851 0.0
N578 N 0.26565 0.31617 0.75024 0.0
C579 C 0.26105 0.34726 0.74754 0.0
C580 C 0.2546 0.34022 0.72825 0.0
H581 H 0.27122 0.34036 0.77345 0.0
H582 H 0.2335 0.28621 0.68124 0.0
H583 H 0.33412 0.3284 0.79691 0.0
H584 H 0.23174 0.25355 0.68891 0.0
H585 H 0.23748 0.23402 0.71261 0.0
H586 H 0.24026 0.32137 0.69252 0.0
H587 H 0.32174 0.2372 0.76345 0.0
H588 H 0.36341 0.32453 0.84758 0.0
H589 H 0.3519 0.34395 0.82699 0.0
H590 H 0.36165 0.25739 0.84019 0.0
H591 H 0.26209 0.36222 0.75397 0.0
H592 H 0.25049 0.3498 0.71981 0.0
H593 H 0.36775 0.29239 0.85171 0.0
H594 H 0.33329 0.21565 0.78147 0.0
N595 N 0.3347 0.29959 0.79963 0.0
C596 C 0.35542 0.31742 0.8342 0.0
C597 C 0.34904 0.32841 0.82259 0.0
C598 C 0.35177 0.29741 0.82817 0.0
C599 C 0.34115 0.28879 0.81069 0.0
C600 C 0.33894 0.31931 0.8052 0.0
N601 N 0.329 0.26156 0.78642 0.0
C602 C 0.33812 0.26916 0.80391 0.0
C603 C 0.33459 0.23062 0.78805 0.0
C604 C 0.34327 0.238 0.80646 0.0
C605 C 0.32792 0.24278 0.77799 0.0
C606 C 0.34554 0.25758 0.81441 0.0
H607 H 0.34874 0.22865 0.8141 0.0
O608 O 0.33169 0.27004 0.74628 0.0
O609 O 0.29637 0.28648 0.75096 0.0
O610 O 0.27185 0.26344 0.77135 0.0
O611 O 0.29917 0.25612 0.7762 0.0
O612 O 0.30465 0.26116 0.74378 0.0
O613 O 0.34432 0.29788 0.76296 0.0
O614 O 0.26152 0.30863 0.79 0.0
O615 O 0.29725 0.29117 0.78673 0.0
O616 O 0.32202 0.31418 0.7662 0.0
O617 O 0.29467 0.32119 0.76063 0.0
O618 O 0.28873 0.31654 0.79355 0.0
O619 O 0.24984 0.27968 0.77513 0.0
C620 C 0.29433 0.27124 0.73833 0.0
C621 C 0.35572 0.26602 0.83201 0.0
C622 C 0.35903 0.28593 0.83871 0.0
C623 C 0.34556 0.28424 0.7488 0.0
C624 C 0.36288 0.27897 0.74709 0.0
C625 C 0.36655 0.26453 0.75627 0.0
C626 C 0.37547 0.28746 0.73552 0.0
C627 C 0.39157 0.28156 0.73358 0.0
C628 C 0.38205 0.25832 0.75394 0.0
C629 C 0.39442 0.26671 0.74275 0.0
C630 C 0.28159 0.2512 0.77459 0.0
C631 C 0.29898 0.30652 0.79924 0.0
C632 C 0.24807 0.29402 0.7882 0.0
C633 C 0.23048 0.2985 0.7887 0.0
C634 C 0.22524 0.30929 0.77589 0.0
C635 C 0.21926 0.29308 0.80279 0.0
C636 C 0.20324 0.29905 0.80434 0.0
C637 C 0.20945 0.31513 0.77734 0.0
C638 C 0.19861 0.3102 0.79149 0.0
C639 C 0.31225 0.32623 0.76252 0.0
H640 H 0.35735 0.25783 0.76514 0.0
H641 H 0.37286 0.29864 0.7283 0.0
H642 H 0.38452 0.24693 0.7609 0.0
H643 H 0.40633 0.26151 0.74122 0.0
H644 H 0.23344 0.31341 0.76489 0.0
H645 H 0.22319 0.28478 0.81281 0.0
H646 H 0.20564 0.32363 0.7675 0.0
H647 H 0.18644 0.31498 0.79229 0.0
Gd648 Gd 0.04971 0.01724 0.51023 0.0
Gd649 Gd 0.04283 0.06262 0.53106 0.0
C650 C 0.06194 0.09606 0.59218 0.0
C651 C 0.03469 0.10165 0.60421 0.0
C652 C 0.0343 0.08295 0.572 0.0
C653 C 0.05244 0.08548 0.57461 0.0
C654 C 0.02527 0.09117 0.58674 0.0
C655 C 0.05297 0.10408 0.60693 0.0
C656 C 0.08021 0.09832 0.59445 0.0
C657 C 0.08861 0.09013 0.57946 0.0
N658 N 0.06079 0.07753 0.56009 0.0
C659 C 0.07872 0.07984 0.56231 0.0
H660 H 0.08571 0.07358 0.5512 0.0
C661 C 0.00784 0.07129 0.55128 0.0
N662 N 0.02552 0.07288 0.55493 0.0
C663 C 0.99831 0.07898 0.56552 0.0
C664 C 0.00705 0.08891 0.58336 0.0
H665 H 0.00113 0.06409 0.53728 0.0
H666 H 0.06007 0.11225 0.62048 0.0
H667 H 0.00751 0.00628 0.48811 0.0
H668 H 0.08794 0.1063 0.60773 0.0
H669 H 0.10273 0.09172 0.5811 0.0
H670 H 0.02797 0.10807 0.61567 0.0
H671 H 0.09038 0.01128 0.50665 0.0
H672 H 0.00772 0.97905 0.43001 0.0
H673 H 0.99178 0.99114 0.45682 0.0
H674 H 0.06762 0.9754 0.42505 0.0
H675 H 0.98428 0.07748 0.56264 0.0
H676 H 0.99967 0.09503 0.59431 0.0
H677 H 0.03601 0.97334 0.41831 0.0
H678 H 0.10807 0.99822 0.48206 0.0
N679 N 0.03296 0.00375 0.47993 0.0
C680 C 0.0149 0.98589 0.44391 0.0
C681 C 0.00587 0.99264 0.45899 0.0
C682 C 0.03304 0.98768 0.44705 0.0
C683 C 0.04181 0.99675 0.46544 0.0
C684 C 0.01505 1.00131 0.47697 0.0
N685 N 0.06746 0.0062 0.48713 0.0
C686 C 0.0596 0.99807 0.46914 0.0
C687 C 0.0945 0.99822 0.47818 0.0
C688 C 0.08682 0.99058 0.45938 0.0
C689 C 0.08448 0.00568 0.49202 0.0
C690 C 0.0691 0.99014 0.45472 0.0
H691 H 0.09455 0.98462 0.44871 0.0
O692 O 0.06088 0.99807 0.52411 0.0
O693 O 0.05022 0.03663 0.53917 0.0
O694 O 0.07023 0.06621 0.5212 0.0
O695 O 0.07229 0.03803 0.50094 0.0
O696 O 0.0724 0.02708 0.53371 0.0
O697 O 0.03376 0.98872 0.51165 0.0
O698 O 0.03013 0.0802 0.51641 0.0
O699 O 0.04249 0.04328 0.50221 0.0
O700 O 0.0217 0.01474 0.51851 0.0
O701 O 0.02237 0.04119 0.54247 0.0
O702 O 0.0199 0.05237 0.50807 0.0
O703 O 0.05656 0.09235 0.53058 0.0
C704 C 0.06498 0.03572 0.54731 0.0
C705 C 0.06053 0.98151 0.43631 0.0
C706 C 0.04253 0.98031 0.43248 0.0
C707 C 0.04661 0.98446 0.52113 0.0
C708 C 0.04917 0.96488 0.51689 0.0
C709 C 0.06056 0.95952 0.50344 0.0
C710 C 0.04229 0.9524 0.52891 0.0
C711 C 0.04728 0.93496 0.52805 0.0
C712 C 0.06541 0.94199 0.50247 0.0
C713 C 0.05896 0.9298 0.5149 0.0
C714 C 0.07874 0.05637 0.50906 0.0
C715 C 0.0275 0.04397 0.49447 0.0
C716 C 0.0433 0.09518 0.52043 0.0
C717 C 0.03861 0.11388 0.52442 0.0
C718 C 0.02335 0.11587 0.53322 0.0
C719 C 0.0476 0.1287 0.51592 0.0
C720 C 0.04079 0.14498 0.5149 0.0
C721 C 0.01666 0.13203 0.53271 0.0
C722 C 0.02502 0.14625 0.52327 0.0
C723 C 0.01454 0.02384 0.53264 0.0
H724 H 0.06608 0.96905 0.49414 0.0
H725 H 0.03376 0.95666 0.53959 0.0
H726 H 0.07443 0.938 0.49232 0.0
H727 H 0.06301 0.91637 0.51426 0.0
H728 H 0.01609 0.10457 0.53964 0.0
H729 H 0.05954 0.12698 0.50952 0.0
H730 H 0.00456 0.13319 0.53901 0.0
H731 H 0.01868 0.15788 0.52219 0.0
Gd732 Gd 0.27602 0.77279 0.77869 0.0
Gd733 Gd 0.31631 0.80008 0.76773 0.0
C734 C 0.32117 0.86217 0.76021 0.0
C735 C 0.32843 0.86038 0.72725 0.0
C736 C 0.32339 0.8316 0.7412 0.0
C737 C 0.32011 0.84221 0.75836 0.0
C738 C 0.32795 0.84071 0.72562 0.0
C739 C 0.32501 0.87107 0.74448 0.0
C740 C 0.31891 0.87278 0.77799 0.0
C741 C 0.31622 0.86366 0.79358 0.0
N742 N 0.31687 0.83335 0.77354 0.0
C743 C 0.31541 0.84395 0.79117 0.0
H744 H 0.31325 0.83749 0.80358 0.0
C745 C 0.32847 0.80237 0.7243 0.0
N746 N 0.3231 0.81266 0.74006 0.0
C747 C 0.33294 0.81073 0.70847 0.0
C748 C 0.3325 0.82993 0.70904 0.0
H749 H 0.32922 0.78763 0.72404 0.0
H750 H 0.3258 0.88634 0.74566 0.0
H751 H 0.2822 0.73716 0.74203 0.0
H752 H 0.3196 0.8881 0.77995 0.0
H753 H 0.31465 0.87179 0.80747 0.0
H754 H 0.33183 0.86758 0.71539 0.0
H755 H 0.26328 0.78318 0.82252 0.0
H756 H 0.26615 0.6834 0.75923 0.0
H757 H 0.27724 0.70241 0.73508 0.0
H758 H 0.25137 0.70024 0.82347 0.0
H759 H 0.33691 0.80242 0.69594 0.0
H760 H 0.33615 0.83646 0.69683 0.0
H761 H 0.25695 0.6828 0.79227 0.0
H762 H 0.25337 0.7666 0.84881 0.0
N763 N 0.27394 0.73911 0.77054 0.0
C764 C 0.26818 0.69895 0.76252 0.0
C765 C 0.27429 0.70959 0.7488 0.0
C766 C 0.26506 0.70853 0.78045 0.0
C767 C 0.26805 0.72886 0.7841 0.0
C768 C 0.27703 0.72964 0.75296 0.0
N769 N 0.26746 0.75809 0.80465 0.0
C770 C 0.26498 0.73866 0.80172 0.0
C771 C 0.25682 0.75859 0.83577 0.0
C772 C 0.25498 0.73872 0.83337 0.0
C773 C 0.26273 0.76801 0.82102 0.0
C774 C 0.25876 0.72844 0.81608 0.0
H775 H 0.25018 0.73138 0.84471 0.0
O776 O 0.25158 0.78051 0.78516 0.0
O777 O 0.28762 0.80064 0.76925 0.0
O778 O 0.31423 0.80566 0.7996 0.0
O779 O 0.29324 0.78024 0.80627 0.0
O780 O 0.27332 0.80276 0.79247 0.0
O781 O 0.25222 0.75945 0.7593 0.0
O782 O 0.34048 0.79144 0.76389 0.0
O783 O 0.30504 0.77224 0.77777 0.0
O784 O 0.27747 0.76738 0.74698 0.0
O785 O 0.29921 0.7918 0.73993 0.0
O786 O 0.31915 0.77011 0.75456 0.0
O787 O 0.34108 0.8178 0.784 0.0
C788 C 0.28094 0.81251 0.78052 0.0
C789 C 0.25608 0.7083 0.81259 0.0
C790 C 0.25919 0.69837 0.79481 0.0
C791 C 0.24261 0.76871 0.77008 0.0
C792 C 0.22487 0.75826 0.77251 0.0
C793 C 0.22038 0.75302 0.79 0.0
C794 C 0.21174 0.75553 0.75746 0.0
C795 C 0.19407 0.74816 0.75989 0.0
C796 C 0.20282 0.7453 0.79239 0.0
C797 C 0.18967 0.74298 0.77747 0.0
C798 C 0.30611 0.79572 0.81161 0.0
C799 C 0.31214 0.76035 0.76687 0.0
C800 C 0.35019 0.80606 0.77591 0.0
C801 C 0.36774 0.81368 0.77019 0.0
C802 C 0.37075 0.81154 0.7507 0.0
C803 C 0.38214 0.81941 0.7843 0.0
C804 C 0.39949 0.8219 0.77902 0.0
C805 C 0.38782 0.81452 0.74533 0.0
C806 C 0.40209 0.81932 0.75932 0.0
C807 C 0.28584 0.77683 0.73487 0.0
H808 H 0.23026 0.75528 0.80192 0.0
H809 H 0.21523 0.75982 0.74403 0.0
H810 H 0.19935 0.74158 0.806 0.0
H811 H 0.17605 0.73774 0.77988 0.0
H812 H 0.36002 0.80654 0.73952 0.0
H813 H 0.37972 0.82094 0.79931 0.0
H814 H 0.38998 0.81227 0.73025 0.0
H815 H 0.4151 0.82027 0.75453 0.0
Gd816 Gd 0.54727 0.0369 0.99878 0.0
Gd817 Gd 0.55563 0.02802 0.04921 0.0
C818 C 0.60803 0.05807 0.08626 0.0
C819 C 0.62466 0.03337 0.08105 0.0
C820 C 0.59467 0.02711 0.06593 0.0
C821 C 0.59367 0.04557 0.07398 0.0
C822 C 0.60992 0.02055 0.07013 0.0
C823 C 0.62366 0.05205 0.08923 0.0
C824 C 0.60585 0.07564 0.09637 0.0
C825 C 0.58924 0.0796 0.09547 0.0
N826 N 0.57793 0.05037 0.07182 0.0
C827 C 0.57525 0.0664 0.08376 0.0
H828 H 0.5623 0.06927 0.08429 0.0
C829 C 0.57865 0.99536 0.05379 0.0
N830 N 0.57993 0.01481 0.05622 0.0
C831 C 0.59344 0.98816 0.05709 0.0
C832 C 0.60937 1.00092 0.06472 0.0
H833 H 0.56615 0.98524 0.04919 0.0
H834 H 0.63461 0.06121 0.09891 0.0
H835 H 0.5342 0.99349 0.96675 0.0
H836 H 0.61657 0.08563 0.10586 0.0
H837 H 0.58708 0.0926 0.10417 0.0
H838 H 0.63647 0.02859 0.08435 0.0
H839 H 0.54475 0.0831 0.9998 0.0
H840 H 0.48342 0.98928 0.9397 0.0
H841 H 0.50853 0.97495 0.94528 0.0
H842 H 0.47448 0.05254 0.95789 0.0
H843 H 0.59241 0.97277 0.05421 0.0
H844 H 0.62075 0.99531 0.06775 0.0
H845 H 0.47106 0.01833 0.94434 0.0
H846 H 0.52308 0.10105 0.99196 0.0
N847 N 0.52325 0.01771 0.97636 0.0
C848 C 0.49437 0.99729 0.95012 0.0
C849 C 0.50854 0.98919 0.95316 0.0
C850 C 0.4951 0.01614 0.95943 0.0
C851 C 0.50988 0.02616 0.97264 0.0
C852 C 0.52309 0.99981 0.96585 0.0
N853 N 0.52728 0.05537 0.9907 0.0
C854 C 0.51196 0.04559 0.98005 0.0
C855 C 0.51957 0.08545 0.98887 0.0
C856 C 0.50315 0.07551 0.97956 0.0
C857 C 0.53172 0.07514 0.9936 0.0
C858 C 0.49941 0.05543 0.97438 0.0
H859 H 0.49397 0.08353 0.97525 0.0
O860 O 0.56543 0.06102 0.99136 0.0
O861 O 0.56515 0.04107 0.02523 0.0
O862 O 0.55628 0.05911 0.05076 0.0
O863 O 0.54205 0.06066 0.02146 0.0
O864 O 0.575 0.0325 0.99937 0.0
O865 O 0.55896 0.03263 0.97209 0.0
O866 O 0.54089 1.00083 0.05492 0.0
O867 O 0.5377 0.02419 0.023 0.0
O868 O 0.54304 0.00536 0.99916 0.0
O869 O 0.56085 0.00468 0.02617 0.0
O870 O 0.52727 0.03095 0.04887 0.0
O871 O 0.54609 0.02783 0.07699 0.0
C872 C 0.57831 0.03739 0.01775 0.0
C873 C 0.4842 0.0452 0.96236 0.0
C874 C 0.48215 0.02565 0.95477 0.0
C875 C 0.56749 0.05074 0.97489 0.0
C876 C 0.56804 0.05966 0.95807 0.0
C877 C 0.56182 0.07626 0.95724 0.0
C878 C 0.57595 0.05149 0.94265 0.0
C879 C 0.57779 0.05971 0.92639 0.0
C880 C 0.56328 0.08432 0.9408 0.0
C881 C 0.57124 0.07607 0.92535 0.0
C882 C 0.54788 0.06767 0.03972 0.0
C883 C 0.52424 0.02694 0.03038 0.0
C884 C 0.53933 0.00925 0.07238 0.0
C885 C 0.52988 0.99901 0.08576 0.0
C886 C 0.5313 0.98031 0.08696 0.0
C887 C 0.52042 0.00869 0.09852 0.0
C888 C 0.51286 1.00004 0.11291 0.0
C889 C 0.52355 0.97157 0.10138 0.0
C890 C 0.51445 0.98149 0.1145 0.0
C891 C 0.55367 0.99742 0.00838 0.0
H892 H 0.55611 0.08317 0.96922 0.0
H893 H 0.58095 0.03879 0.94343 0.0
H894 H 0.55853 0.09713 0.94015 0.0
H895 H 0.57272 0.08276 0.91289 0.0
H896 H 0.53879 0.97277 0.07718 0.0
H897 H 0.5194 0.02322 0.09767 0.0
H898 H 0.52486 0.95728 0.10259 0.0
H899 H 0.50875 0.97482 0.1259 0.0
Gd900 Gd 0.29442 0.27614 0.26522 0.0
Gd901 Gd 0.31817 0.32543 0.28909 0.0
C902 C 0.37425 0.34534 0.27231 0.0
C903 C 0.39213 0.34537 0.30123 0.0
C904 C 0.36016 0.33441 0.29917 0.0
C905 C 0.35879 0.33815 0.28074 0.0
C906 C 0.37687 0.33906 0.30993 0.0
C907 C 0.39087 0.34801 0.28228 0.0
C908 C 0.37264 0.35152 0.25494 0.0
C909 C 0.35614 0.35259 0.24753 0.0
N910 N 0.34252 0.33752 0.2723 0.0
C911 C 0.34136 0.34648 0.25698 0.0
H912 H 0.32928 0.34976 0.25216 0.0
C913 C 0.34615 0.3327 0.32746 0.0
N914 N 0.34519 0.32968 0.30777 0.0
C915 C 0.36226 0.33666 0.33859 0.0
C916 C 0.37774 0.3393 0.32968 0.0
H917 H 0.3344 0.33249 0.33479 0.0
H918 H 0.40278 0.35366 0.27606 0.0
H919 H 0.2793 0.27444 0.30899 0.0
H920 H 0.38416 0.357 0.24801 0.0
H921 H 0.35487 0.35889 0.23497 0.0
H922 H 0.40488 0.34958 0.30952 0.0
H923 H 0.28446 0.26664 0.21784 0.0
H924 H 0.22534 0.24443 0.30062 0.0
H925 H 0.25242 0.26057 0.32222 0.0
H926 H 0.21213 0.23082 0.23222 0.0
H927 H 0.36272 0.33836 0.35409 0.0
H928 H 0.39029 0.34302 0.3384 0.0
H929 H 0.21043 0.23344 0.26706 0.0
H930 H 0.25896 0.25031 0.19396 0.0
N931 N 0.26822 0.26628 0.27972 0.0
C932 C 0.23724 0.25053 0.29462 0.0
C933 C 0.2525 0.25952 0.30682 0.0
C934 C 0.23756 0.24939 0.2748 0.0
C935 C 0.25341 0.25761 0.26771 0.0
C936 C 0.26792 0.26723 0.29911 0.0
N937 N 0.26986 0.26405 0.242 0.0
C938 C 0.25428 0.25642 0.24822 0.0
C939 C 0.25739 0.25212 0.20918 0.0
C940 C 0.24114 0.24468 0.2154 0.0
C941 C 0.27174 0.26154 0.22273 0.0
C942 C 0.23945 0.24659 0.23512 0.0
H943 H 0.2301 0.23713 0.20488 0.0
O944 O 0.30443 0.25602 0.24511 0.0
O945 O 0.32019 0.29699 0.27485 0.0
O946 O 0.30897 0.3242 0.25744 0.0
O947 O 0.28712 0.29559 0.24651 0.0
O948 O 0.31589 0.28375 0.24623 0.0
O949 O 0.29632 0.24873 0.27222 0.0
O950 O 0.31031 0.34057 0.31543 0.0
O951 O 0.29367 0.30263 0.28583 0.0
O952 O 0.30556 0.27387 0.29408 0.0
O953 O 0.31871 0.3052 0.31026 0.0
O954 O 0.29109 0.33025 0.2835 0.0
O955 O 0.32672 0.35625 0.29681 0.0
C956 C 0.32731 0.29498 0.25955 0.0
C957 C 0.22362 0.23847 0.24206 0.0
C958 C 0.22266 0.23993 0.26188 0.0
C959 C 0.30266 0.24338 0.2561 0.0
C960 C 0.29748 0.22317 0.24686 0.0
C961 C 0.2863 0.21614 0.22968 0.0
C962 C 0.30589 0.21099 0.25474 0.0
C963 C 0.30365 0.19193 0.24548 0.0
C964 C 0.28368 0.19677 0.22058 0.0
C965 C 0.29241 0.18461 0.22846 0.0
C966 C 0.29661 0.31241 0.2443 0.0
C967 C 0.28287 0.31266 0.28326 0.0
C968 C 0.31975 0.3571 0.31312 0.0
C969 C 0.31437 0.37466 0.32052 0.0
C970 C 0.32126 0.38497 0.33901 0.0
C971 C 0.30424 0.38234 0.30868 0.0
C972 C 0.30096 0.40045 0.31531 0.0
C973 C 0.31812 0.40311 0.3456 0.0
C974 C 0.30806 0.41092 0.33377 0.0
C975 C 0.31382 0.28634 0.30945 0.0
H976 H 0.27992 0.22556 0.22317 0.0
H977 H 0.31482 0.21656 0.26783 0.0
H978 H 0.2752 0.1913 0.20726 0.0
H979 H 0.29074 0.16977 0.22114 0.0
H980 H 0.32942 0.3792 0.34814 0.0
H981 H 0.29886 0.37417 0.29443 0.0
H982 H 0.32359 0.41117 0.3598 0.0
H983 H 0.30577 0.42506 0.33903 0.0
Gd984 Gd 0.55028 0.51647 0.01037 0.0
Gd985 Gd 0.54311 0.56242 0.03024 0.0
C986 C 0.56109 0.58944 0.09365 0.0
C987 C 0.53382 0.59483 0.10578 0.0
C988 C 0.5341 0.57999 0.07224 0.0
C989 C 0.55194 0.58115 0.07529 0.0
C990 C 0.52492 0.58725 0.08734 0.0
C991 C 0.55187 0.59588 0.10894 0.0
C992 C 0.57934 0.59168 0.09598 0.0
C993 C 0.58813 0.58639 0.0801 0.0
N994 N 0.56057 0.57535 0.06007 0.0
C995 C 0.57858 0.57857 0.06215 0.0
H996 H 0.58587 0.57469 0.05026 0.0
C997 C 0.50902 0.57424 0.04992 0.0
N998 N 0.52596 0.57304 0.05418 0.0
C999 C 0.4993 0.58103 0.06444 0.0
C1000 C 0.50723 0.58736 0.0833 0.0
H1001 H 0.50297 0.56968 0.03526 0.0
H1002 H 0.55867 0.60222 0.12312 0.0
H1003 H 0.50761 0.50481 0.99048 0.0
H1004 H 0.58682 0.59794 0.10984 0.0
H1005 H 0.6023 0.5884 0.08165 0.0
H1006 H 0.52697 0.60039 0.11757 0.0
H1007 H 0.5905 0.50962 0.0055 0.0
H1008 H 0.50581 0.4773 0.93207 0.0
H1009 H 0.49081 0.48928 0.95966 0.0
H1010 H 0.56566 0.47465 0.92418 0.0
H1011 H 0.48578 0.58155 0.06105 0.0
H1012 H 0.49975 0.59286 0.0945 0.0
H1013 H 0.53386 0.47188 0.91895 0.0
H1014 H 0.60753 0.49681 0.98003 0.0
N1015 N 0.53273 0.50306 0.9807 0.0
C1016 C 0.51353 0.48464 0.94552 0.0
C1017 C 0.50497 0.49123 0.96112 0.0
C1018 C 0.5318 0.48695 0.94769 0.0
C1019 C 0.54116 0.49635 0.96569 0.0
C1020 C 0.51474 0.50009 0.97873 0.0
N1021 N 0.5673 0.50531 0.98659 0.0
C1022 C 0.55902 0.49759 0.96872 0.0
C1023 C 0.59394 0.49708 0.9766 0.0
C1024 C 0.58583 0.48982 0.95791 0.0
C1025 C 0.58431 0.5044 0.99093 0.0
C1026 C 0.56807 0.48962 0.95387 0.0
H1027 H 0.59323 0.48384 0.94689 0.0
O1028 O 0.56193 0.49751 0.02449 0.0
O1029 O 0.55094 0.53676 0.0386 0.0
O1030 O 0.57035 0.56582 0.01998 0.0
O1031 O 0.57307 0.53707 0.0012 0.0
O1032 O 0.57324 0.52666 0.03318 0.0
O1033 O 0.53463 0.48824 0.01251 0.0
O1034 O 0.53146 0.58127 0.01601 0.0
O1035 O 0.5425 0.54213 0.00199 0.0
O1036 O 0.52307 0.51311 0.0208 0.0
O1037 O 0.52046 0.54199 0.03945 0.0
O1038 O 0.52024 0.55231 0.00714 0.0
O1039 O 0.55838 0.59112 0.0292 0.0
C1040 C 0.56595 0.53608 0.04631 0.0
C1041 C 0.55895 0.4809 0.93575 0.0
C1042 C 0.54083 0.47943 0.93273 0.0
C1043 C 0.54758 0.48394 0.02178 0.0
C1044 C 0.54976 0.46425 0.01702 0.0
C1045 C 0.55822 0.45801 0.00103 0.0
C1046 C 0.54449 0.45202 0.02983 0.0
C1047 C 0.54786 0.43358 0.02693 0.0
C1048 C 0.56158 0.43965 0.99804 0.0
C1049 C 0.55649 0.42749 0.01092 0.0
C1050 C 0.57913 0.55567 0.00851 0.0
C1051 C 0.52753 0.54273 0.99412 0.0
C1052 C 0.54553 0.59521 0.01956 0.0
C1053 C 0.54273 0.61461 0.02446 0.0
C1054 C 0.53426 0.62056 0.04054 0.0
C1055 C 0.54755 0.6269 0.01164 0.0
C1056 C 0.54395 0.64522 0.01468 0.0
C1057 C 0.53049 0.63874 0.0436 0.0
C1058 C 0.53528 0.65104 0.03075 0.0
C1059 C 0.51443 0.52342 0.03228 0.0
H1060 H 0.5624 0.46733 0.99106 0.0
H1061 H 0.53829 0.45713 0.0424 0.0
H1062 H 0.56823 0.43486 0.98577 0.0
H1063 H 0.55916 0.41327 0.00825 0.0
H1064 H 0.53043 0.61119 0.05055 0.0
H1065 H 0.55375 0.62195 0.99901 0.0
H1066 H 0.52385 0.64333 0.05596 0.0
H1067 H 0.53244 0.66518 0.03356 0.0
Gd1068 Gd 0.77672 0.27109 0.27529 0.0
Gd1069 Gd 0.81664 0.30293 0.26964 0.0
C1070 C 0.81956 0.36531 0.26513 0.0
C1071 C 0.82495 0.36489 0.23176 0.0
C1072 C 0.82153 0.33538 0.24446 0.0
C1073 C 0.81895 0.34536 0.26251 0.0
C1074 C 0.82508 0.34532 0.22919 0.0
C1075 C 0.82211 0.37481 0.24962 0.0
C1076 C 0.81834 0.37549 0.28348 0.0
C1077 C 0.8174 0.36611 0.29893 0.0
N1078 N 0.81713 0.33613 0.2777 0.0
C1079 C 0.81706 0.34648 0.29588 0.0
H1080 H 0.81692 0.34019 0.30846 0.0
C1081 C 0.82703 0.30717 0.22555 0.0
N1082 N 0.82175 0.31641 0.2421 0.0
C1083 C 0.83058 0.31648 0.21018 0.0
C1084 C 0.82938 0.33556 0.2119 0.0
H1085 H 0.82786 0.29229 0.22394 0.0
H1086 H 0.82252 0.39006 0.25146 0.0
H1087 H 0.78677 0.23347 0.24586 0.0
H1088 H 0.81876 0.39077 0.28599 0.0
H1089 H 0.81706 0.37403 0.31331 0.0
H1090 H 0.82752 0.37264 0.22014 0.0
H1091 H 0.75944 0.28603 0.31596 0.0
H1092 H 0.77649 0.18488 0.27259 0.0
H1093 H 0.78599 0.19966 0.24512 0.0
H1094 H 0.75611 0.20857 0.33247 0.0
H1095 H 0.8343 0.30894 0.19703 0.0
H1096 H 0.83227 0.34279 0.19997 0.0
H1097 H 0.7653 0.18837 0.30522 0.0
H1098 H 0.749 0.27341 0.34426 0.0
N1099 N 0.7787 0.23894 0.27425 0.0
C1100 C 0.77728 0.20009 0.27336 0.0
C1101 C 0.78253 0.20832 0.25776 0.0
C1102 C 0.77264 0.21141 0.28948 0.0
C1103 C 0.77356 0.23109 0.28955 0.0
C1104 C 0.783 0.22775 0.25835 0.0
N1105 N 0.76778 0.26084 0.30364 0.0
C1106 C 0.76805 0.24241 0.30477 0.0
C1107 C 0.75444 0.26459 0.33333 0.0
C1108 C 0.75515 0.2459 0.33499 0.0
C1109 C 0.76043 0.27171 0.31727 0.0
C1110 C 0.76164 0.23441 0.32043 0.0
H1111 H 0.75016 0.24028 0.34727 0.0
O1112 O 0.75119 0.27701 0.26877 0.0
O1113 O 0.78755 0.30073 0.26853 0.0
O1114 O 0.81106 0.30793 0.30041 0.0
O1115 O 0.79244 0.27921 0.30401 0.0
O1116 O 0.76991 0.29957 0.28843 0.0
O1117 O 0.75588 0.24942 0.25691 0.0
O1118 O 0.83858 0.29356 0.25745 0.0
O1119 O 0.80447 0.27101 0.26775 0.0
O1120 O 0.78481 0.26465 0.24591 0.0
O1121 O 0.79912 0.2943 0.24166 0.0
O1122 O 0.8271 0.28258 0.28579 0.0
O1123 O 0.84327 0.32014 0.28013 0.0
C1124 C 0.77916 0.31125 0.27911 0.0
C1125 C 0.76112 0.21499 0.32065 0.0
C1126 C 0.76646 0.20349 0.30514 0.0
C1127 C 0.74438 0.25981 0.25905 0.0
C1128 C 0.72701 0.25053 0.26377 0.0
C1129 C 0.72497 0.23893 0.27767 0.0
C1130 C 0.71217 0.25371 0.25424 0.0
C1131 C 0.69521 0.24515 0.25824 0.0
C1132 C 0.70816 0.23057 0.28195 0.0
C1133 C 0.69331 0.23357 0.27225 0.0
C1134 C 0.80326 0.296 0.31095 0.0
C1135 C 0.81609 0.26659 0.27849 0.0
C1136 C 0.84991 0.30827 0.26811 0.0
C1137 C 0.8687 0.31117 0.26565 0.0
C1138 C 0.87417 0.30834 0.24708 0.0
C1139 C 0.88124 0.31666 0.28175 0.0
C1140 C 0.89925 0.31942 0.27927 0.0
C1141 C 0.89206 0.3112 0.24459 0.0
C1142 C 0.90456 0.31674 0.26057 0.0
C1143 C 0.78968 0.27688 0.23479 0.0
H1144 H 0.73627 0.23623 0.28512 0.0
H1145 H 0.7139 0.26306 0.24383 0.0
H1146 H 0.70663 0.22162 0.29269 0.0
H1147 H 0.68039 0.2266 0.2755 0.0
H1148 H 0.86463 0.30402 0.23452 0.0
H1149 H 0.87702 0.31856 0.29613 0.0
H1150 H 0.89624 0.30897 0.23025 0.0
H1151 H 0.91836 0.31843 0.25834 0.0
Gd1152 Gd 0.04035 0.53625 0.49697 0.0
Gd1153 Gd 0.05535 0.52947 0.54559 0.0
C1154 C 0.11155 0.54959 0.57524 0.0
C1155 C 0.11811 0.51944 0.57967 0.0
C1156 C 0.09013 0.51939 0.5627 0.0
C1157 C 0.09497 0.53938 0.56546 0.0
C1158 C 0.10172 0.50927 0.56984 0.0
C1159 C 0.12301 0.53953 0.58236 0.0
C1160 C 0.11621 0.56966 0.57761 0.0
C1161 C 0.1045 0.57915 0.57035 0.0
N1162 N 0.08358 0.54884 0.55854 0.0
C1163 C 0.08819 0.56857 0.56098 0.0
H1164 H 0.07976 0.57661 0.55546 0.0
C1165 C 0.06859 0.49025 0.55151 0.0
N1166 N 0.07406 0.50986 0.5534 0.0
C1167 C 0.07977 0.47965 0.55802 0.0
C1168 C 0.09641 0.48919 0.5672 0.0
H1169 H 0.05547 0.4828 0.54504 0.0
H1170 H 0.1357 0.54717 0.58999 0.0
H1171 H 0.02183 0.48735 0.47909 0.0
H1172 H 0.12882 0.57795 0.58495 0.0
H1173 H 0.10802 0.59469 0.57197 0.0
H1174 H 0.12709 0.51188 0.58535 0.0
H1175 H 0.03481 0.58162 0.50141 0.0
H1176 H 0.97214 0.48259 0.44923 0.0
H1177 H 0.99538 0.4677 0.46003 0.0
H1178 H 0.96601 0.54729 0.45641 0.0
H1179 H 0.07543 0.46415 0.55622 0.0
H1180 H 0.10496 0.48095 0.57247 0.0
H1181 H 0.96135 0.51213 0.44804 0.0
H1182 H 0.01316 0.59811 0.49043 0.0
N1183 N 0.01487 0.51436 0.47928 0.0
C1184 C 0.98402 0.49162 0.45759 0.0
C1185 C 0.99714 0.48319 0.46358 0.0
C1186 C 0.98632 0.51158 0.46252 0.0
C1187 C 0.00198 0.52277 0.47362 0.0
C1188 C 0.0125 0.49473 0.47434 0.0
N1189 N 0.01914 0.55322 0.48991 0.0
C1190 C 0.00424 0.54264 0.47897 0.0
C1191 C 0.01038 0.58252 0.48725 0.0
C1192 C 0.99461 0.57182 0.47689 0.0
C1193 C 0.02263 0.57301 0.49343 0.0
C1194 C 0.99141 0.55171 0.47249 0.0
H1195 H 0.98513 0.57925 0.47203 0.0
O1196 O 0.05572 0.56298 0.49031 0.0
O1197 O 0.06118 0.54462 0.52161 0.0
O1198 O 0.05201 0.55917 0.54555 0.0
O1199 O 0.03036 0.5548 0.52073 0.0
O1200 O 0.0684 0.53563 0.49391 0.0
O1201 O 0.04506 0.53674 0.46763 0.0
O1202 O 0.03285 0.52599 0.56247 0.0
O1203 O 0.03387 0.52579 0.52322 0.0
O1204 O 0.04726 0.50726 0.49371 0.0
O1205 O 0.06306 0.50747 0.52321 0.0
O1206 O 0.03269 0.50281 0.5372 0.0
O1207 O 0.05878 0.53886 0.57667 0.0
C1208 C 0.07363 0.54198 0.51187 0.0
C1209 C 0.97598 0.54055 0.46142 0.0
C1210 C 0.97337 0.52055 0.45658 0.0
C1211 C 0.054 0.55477 0.47212 0.0
C1212 C 0.06286 0.56384 0.45753 0.0
C1213 C 0.06319 0.58319 0.45727 0.0
C1214 C 0.07164 0.55353 0.44432 0.0
C1215 C 0.08083 0.56264 0.43096 0.0
C1216 C 0.0722 0.59219 0.44374 0.0
C1217 C 0.08106 0.58197 0.43061 0.0
C1218 C 0.03851 0.56397 0.53764 0.0
C1219 C 0.02501 0.50943 0.52408 0.0
C1220 C 0.04239 0.53217 0.57877 0.0
C1221 C 0.03889 0.51989 0.59293 0.0
C1222 C 0.0455 0.50334 0.59206 0.0
C1223 C 0.02832 0.52461 0.60727 0.0
C1224 C 0.0242 0.51281 0.62072 0.0
C1225 C 0.0415 0.49154 0.60545 0.0
C1226 C 0.03087 0.49624 0.61981 0.0
C1227 C 0.05729 0.50006 0.50488 0.0
H1228 H 0.05648 0.59129 0.46752 0.0
H1229 H 0.07158 0.5386 0.44461 0.0
H1230 H 0.07238 0.6071 0.44347 0.0
H1231 H 0.08803 0.58908 0.42015 0.0
H1232 H 0.05372 0.49957 0.58117 0.0
H1233 H 0.02336 0.53754 0.60799 0.0
H1234 H 0.04659 0.47874 0.60466 0.0
H1235 H 0.02769 0.48686 0.63002 0.0
Gd1236 Gd 0.81908 0.78573 0.27065 0.0
Gd1237 Gd 0.77474 0.79387 0.26695 0.0
C1238 C 0.74917 0.77981 0.205 0.0
C1239 C 0.7452 0.811 0.20042 0.0
C1240 C 0.75879 0.80773 0.23097 0.0
C1241 C 0.757 0.78819 0.22392 0.0
C1242 C 0.75253 0.81921 0.21937 0.0
C1243 C 0.74355 0.79136 0.19324 0.0
C1244 C 0.74704 0.76001 0.19844 0.0
C1245 C 0.75229 0.74894 0.21074 0.0
N1246 N 0.76251 0.77728 0.23561 0.0
C1247 C 0.75986 0.75777 0.22938 0.0
H1248 H 0.76387 0.74876 0.23833 0.0
C1249 C 0.76551 0.83387 0.25755 0.0
N1250 N 0.76579 0.81535 0.24942 0.0
C1251 C 0.75966 0.84581 0.24657 0.0
C1252 C 0.75332 0.83851 0.22732 0.0
H1253 H 0.7705 0.8397 0.27244 0.0
H1254 H 0.73763 0.78517 0.17867 0.0
H1255 H 0.83275 0.83224 0.29933 0.0
H1256 H 0.74118 0.75311 0.18399 0.0
H1257 H 0.75058 0.73356 0.20586 0.0
H1258 H 0.74045 0.81964 0.1913 0.0
H1259 H 0.82243 0.73963 0.26585 0.0
H1260 H 0.86161 0.82797 0.34975 0.0
H1261 H 0.84996 0.84743 0.32941 0.0
H1262 H 0.85825 0.76111 0.34438 0.0
H1263 H 0.76 0.86061 0.25298 0.0
H1264 H 0.74867 0.84776 0.21885 0.0
H1265 H 0.86371 0.79606 0.35579 0.0
H1266 H 0.83254 0.71869 0.28532 0.0
N1267 N 0.83399 0.8032 0.30114 0.0
C1268 C 0.85367 0.82094 0.3364 0.0
C1269 C 0.8473 0.83192 0.32484 0.0
C1270 C 0.85002 0.80099 0.33048 0.0
C1271 C 0.84018 0.79236 0.3125 0.0
C1272 C 0.83754 0.8229 0.30728 0.0
N1273 N 0.82835 0.76455 0.28844 0.0
C1274 C 0.83706 0.77256 0.30611 0.0
C1275 C 0.83364 0.73373 0.2915 0.0
C1276 C 0.84156 0.74145 0.31012 0.0
C1277 C 0.82757 0.74563 0.28066 0.0
C1278 C 0.84378 0.76113 0.31747 0.0
H1279 H 0.84653 0.73225 0.31842 0.0
O1280 O 0.83069 0.76841 0.24877 0.0
O1281 O 0.7941 0.78053 0.25115 0.0
O1282 O 0.77141 0.76296 0.27122 0.0
O1283 O 0.79911 0.75618 0.26968 0.0
O1284 O 0.81722 0.79519 0.24258 0.0
O1285 O 0.84665 0.79539 0.26533 0.0
O1286 O 0.76021 0.79154 0.29238 0.0
O1287 O 0.79697 0.79271 0.28755 0.0
O1288 O 0.82256 0.81735 0.26909 0.0
O1289 O 0.79437 0.82248 0.26357 0.0
O1290 O 0.78669 0.81734 0.29176 0.0
O1291 O 0.74601 0.78882 0.26527 0.0
C1292 C 0.80084 0.78774 0.23751 0.0
C1293 C 0.85308 0.7697 0.33551 0.0
C1294 C 0.85623 0.78959 0.34196 0.0
C1295 C 0.84588 0.78095 0.2511 0.0
C1296 C 0.86218 0.77403 0.24703 0.0
C1297 C 0.86462 0.75724 0.25279 0.0
C1298 C 0.87516 0.78379 0.23658 0.0
C1299 C 0.89046 0.77684 0.23244 0.0
C1300 C 0.8795 0.75028 0.24857 0.0
C1301 C 0.89229 0.75996 0.23859 0.0
C1302 C 0.7818 0.75078 0.27122 0.0
C1303 C 0.79722 0.80842 0.29919 0.0
C1304 C 0.74477 0.78922 0.28345 0.0
C1305 C 0.73272 0.80059 0.29275 0.0
C1306 C 0.73624 0.82042 0.29316 0.0
C1307 C 0.71742 0.79181 0.30071 0.0
C1308 C 0.70563 0.80292 0.30847 0.0
C1309 C 0.72475 0.83137 0.30063 0.0
C1310 C 0.70964 0.82277 0.30818 0.0
C1311 C 0.812 0.82868 0.26571 0.0
H1312 H 0.85498 0.74932 0.26044 0.0
H1313 H 0.87344 0.79673 0.23187 0.0
H1314 H 0.88113 0.73723 0.25306 0.0
H1315 H 0.90368 0.75413 0.23553 0.0
H1316 H 0.74795 0.82751 0.28776 0.0
H1317 H 0.71456 0.77647 0.30053 0.0
H1318 H 0.72764 0.84667 0.30068 0.0
H1319 H 0.70122 0.83188 0.31419 0.0
Gd1320 Gd 0.79195 0.29506 0.79131 0.0
Gd1321 Gd 0.80895 0.27849 0.74509 0.0
C1322 C 0.78576 0.21747 0.71042 0.0
C1323 C 0.81195 0.20498 0.70656 0.0
C1324 C 0.81395 0.23673 0.72626 0.0
C1325 C 0.79606 0.23476 0.72194 0.0
C1326 C 0.82209 0.22189 0.71842 0.0
C1327 C 0.79382 0.20274 0.70264 0.0
C1328 C 0.76758 0.21528 0.70731 0.0
C1329 C 0.75998 0.22983 0.71606 0.0
N1330 N 0.78861 0.24933 0.72964 0.0
C1331 C 0.77065 0.24668 0.72732 0.0
H1332 H 0.7641 0.25699 0.73462 0.0
C1333 C 0.84141 0.25624 0.74077 0.0
N1334 N 0.82344 0.25314 0.73799 0.0
C1335 C 0.85 0.24195 0.73347 0.0
C1336 C 0.84028 0.2246 0.72238 0.0
H1337 H 0.84939 0.27009 0.74803 0.0
H1338 H 0.78612 0.18948 0.69366 0.0
H1339 H 0.83608 0.31424 0.81164 0.0
H1340 H 0.75925 0.2022 0.69866 0.0
H1341 H 0.74583 0.22798 0.71432 0.0
H1342 H 0.81801 0.19352 0.70038 0.0
H1343 H 0.75255 0.30554 0.78347 0.0
H1344 H 0.83733 0.36633 0.85006 0.0
H1345 H 0.85172 0.34076 0.83622 0.0
H1346 H 0.77983 0.37653 0.84034 0.0
H1347 H 0.86419 0.24456 0.73599 0.0
H1348 H 0.847 0.21362 0.71652 0.0
H1349 H 0.81062 0.37939 0.85153 0.0
H1350 H 0.73773 0.331 0.79419 0.0
N1351 N 0.81144 0.32282 0.81113 0.0
C1352 C 0.83003 0.35434 0.8391 0.0
C1353 C 0.83811 0.33987 0.83148 0.0
C1354 C 0.8127 0.35332 0.83235 0.0
C1355 C 0.80373 0.33749 0.81786 0.0
C1356 C 0.82867 0.3242 0.81765 0.0
N1357 N 0.77815 0.32126 0.7968 0.0
C1358 C 0.7867 0.33669 0.8105 0.0
C1359 C 0.75162 0.33309 0.79853 0.0
C1360 C 0.76046 0.34933 0.81185 0.0
C1361 C 0.76046 0.31891 0.79175 0.0
C1362 C 0.778 0.35104 0.81841 0.0
H1363 H 0.7534 0.36002 0.81762 0.0
O1364 O 0.76582 0.281 0.79728 0.0
O1365 O 0.79068 0.27137 0.76654 0.0
O1366 O 0.7842 0.28668 0.73526 0.0
O1367 O 0.77382 0.29687 0.76485 0.0
O1368 O 0.79177 0.26493 0.79418 0.0
O1369 O 0.78652 0.2952 0.82075 0.0
O1370 O 0.83395 0.29278 0.73648 0.0
O1371 O 0.81079 0.3019 0.77045 0.0
O1372 O 0.81678 0.28609 0.79986 0.0
O1373 O 0.82786 0.27606 0.77053 0.0
O1374 O 0.8095 0.30922 0.7433 0.0
O1375 O 0.81188 0.27691 0.71482 0.0
C1376 C 0.79142 0.25849 0.77601 0.0
C1377 C 0.78664 0.36609 0.83344 0.0
C1378 C 0.80406 0.36749 0.84008 0.0
C1379 C 0.77005 0.2861 0.81585 0.0
C1380 C 0.76155 0.27363 0.82824 0.0
C1381 C 0.74419 0.27407 0.83185 0.0
C1382 C 0.77066 0.26279 0.83775 0.0
C1383 C 0.76217 0.25232 0.85069 0.0
C1384 C 0.73587 0.26381 0.84488 0.0
C1385 C 0.74479 0.25295 0.85428 0.0
C1386 C 0.7725 0.29347 0.74561 0.0
C1387 C 0.8107 0.31527 0.7616 0.0
C1388 C 0.82847 0.28608 0.71828 0.0
C1389 C 0.83706 0.2952 0.70356 0.0
C1390 C 0.85168 0.28901 0.69657 0.0
C1391 C 0.8307 0.30916 0.69587 0.0
C1392 C 0.83934 0.31714 0.68141 0.0
C1393 C 0.86005 0.29674 0.682 0.0
C1394 C 0.85396 0.31079 0.67446 0.0
C1395 C 0.82881 0.27948 0.7898 0.0
H1396 H 0.73718 0.28271 0.82484 0.0
H1397 H 0.78417 0.26257 0.83521 0.0
H1398 H 0.72255 0.26439 0.84782 0.0
H1399 H 0.73822 0.24519 0.86454 0.0
H1400 H 0.8565 0.27802 0.70228 0.0
H1401 H 0.81928 0.31381 0.70114 0.0
H1402 H 0.87123 0.2918 0.6765 0.0
H1403 H 0.86053 0.31655 0.663 0.0
Gd1404 Gd 0.7949 0.77596 0.76412 0.0
Gd1405 Gd 0.81716 0.8248 0.78897 0.0
C1406 C 0.87131 0.85277 0.77159 0.0
C1407 C 0.89001 0.85797 0.80133 0.0
C1408 C 0.85908 0.84099 0.79896 0.0
C1409 C 0.85678 0.84325 0.78008 0.0
C1410 C 0.87569 0.84875 0.80986 0.0
C1411 C 0.88783 0.85998 0.78226 0.0
C1412 C 0.86891 0.85501 0.75262 0.0
C1413 C 0.85256 0.84728 0.74225 0.0
N1414 N 0.84047 0.83654 0.77013 0.0
C1415 C 0.83865 0.83774 0.75102 0.0
H1416 H 0.82712 0.83048 0.74157 0.0
C1417 C 0.84625 0.8335 0.82671 0.0
N1418 N 0.84492 0.83256 0.8072 0.0
C1419 C 0.86239 0.84057 0.83789 0.0
C1420 C 0.87727 0.84798 0.82937 0.0
H1421 H 0.83469 0.82956 0.83406 0.0
H1422 H 0.89899 0.86735 0.77593 0.0
H1423 H 0.7799 0.77598 0.8083 0.0
H1424 H 0.8797 0.86226 0.7457 0.0
H1425 H 0.85075 0.84812 0.72724 0.0
H1426 H 0.90277 0.864 0.80952 0.0
H1427 H 0.78418 0.76596 0.71707 0.0
H1428 H 0.7286 0.73903 0.80088 0.0
H1429 H 0.75448 0.75938 0.82208 0.0
H1430 H 0.71446 0.7237 0.73248 0.0
H1431 H 0.8632 0.84092 0.85322 0.0
H1432 H 0.88973 0.8539 0.83817 0.0
H1433 H 0.71384 0.72558 0.76731 0.0
H1434 H 0.75897 0.74789 0.6935 0.0
N1435 N 0.76913 0.76521 0.77909 0.0
C1436 C 0.73972 0.74653 0.79462 0.0
C1437 C 0.75437 0.75782 0.80662 0.0
C1438 C 0.73963 0.74506 0.77472 0.0
C1439 C 0.75465 0.75487 0.76735 0.0
C1440 C 0.769 0.76701 0.7986 0.0
N1441 N 0.77009 0.7626 0.74143 0.0
C1442 C 0.7551 0.75363 0.74785 0.0
C1443 C 0.75759 0.74959 0.70876 0.0
C1444 C 0.7419 0.74077 0.7152 0.0
C1445 C 0.77174 0.76008 0.72214 0.0
C1446 C 0.7406 0.74243 0.73496 0.0
H1447 H 0.73109 0.73226 0.70483 0.0
O1448 O 0.80424 0.75629 0.74272 0.0
O1449 O 0.82045 0.79689 0.77461 0.0
O1450 O 0.80474 0.82705 0.75971 0.0
O1451 O 0.78779 0.79585 0.74554 0.0
O1452 O 0.81648 0.78542 0.74579 0.0
O1453 O 0.79906 0.74922 0.77068 0.0
O1454 O 0.809 0.837 0.81641 0.0
O1455 O 0.79312 0.80127 0.78555 0.0
O1456 O 0.80564 0.77275 0.79284 0.0
O1457 O 0.81968 0.80383 0.80891 0.0
O1458 O 0.78962 0.82873 0.78439 0.0
O1459 O 0.82464 0.8554 0.79941 0.0
C1460 C 0.82805 0.79541 0.7596 0.0
C1461 C 0.72563 0.73258 0.74215 0.0
C1462 C 0.72522 0.73374 0.76199 0.0
C1463 C 0.80388 0.74379 0.75373 0.0
C1464 C 0.79829 0.72348 0.74497 0.0
C1465 C 0.78755 0.71618 0.72751 0.0
C1466 C 0.80598 0.71137 0.75376 0.0
C1467 C 0.80376 0.69217 0.74505 0.0
C1468 C 0.78469 0.69659 0.71909 0.0
C1469 C 0.79287 0.68453 0.72781 0.0
C1470 C 0.79409 0.81441 0.7454 0.0
C1471 C 0.78182 0.81092 0.78365 0.0
C1472 C 0.81704 0.85447 0.81524 0.0
C1473 C 0.80873 0.87009 0.82215 0.0
C1474 C 0.81142 0.87863 0.84176 0.0
C1475 C 0.80042 0.87832 0.8091 0.0
C1476 C 0.79564 0.89562 0.81548 0.0
C1477 C 0.80621 0.8957 0.8482 0.0
C1478 C 0.79852 0.90436 0.83506 0.0
C1479 C 0.81447 0.785 0.80807 0.0
H1480 H 0.78175 0.72551 0.72025 0.0
H1481 H 0.81453 0.71716 0.76711 0.0
H1482 H 0.77654 0.6909 0.70556 0.0
H1483 H 0.7912 0.66957 0.72089 0.0
H1484 H 0.81807 0.87245 0.85195 0.0
H1485 H 0.79853 0.87185 0.79387 0.0
H1486 H 0.80848 0.90243 0.8633 0.0
H1487 H 0.79476 0.91777 0.84013 0.0
Gd1488 Gd 0.56699 0.54781 0.52916 0.0
Gd1489 Gd 0.52456 0.52367 0.50545 0.0
C1490 C 0.49564 0.46298 0.51091 0.0
C1491 C 0.48916 0.44651 0.47752 0.0
C1492 C 0.50637 0.47975 0.4858 0.0
C1493 C 0.5052 0.47962 0.50514 0.0
C1494 C 0.49815 0.46324 0.47177 0.0
C1495 C 0.48785 0.44641 0.49705 0.0
C1496 C 0.49363 0.46364 0.5304 0.0
C1497 C 0.50154 0.48025 0.54375 0.0
N1498 N 0.51254 0.49599 0.51825 0.0
C1499 C 0.51089 0.49633 0.53745 0.0
H1500 H 0.51694 0.50868 0.54839 0.0
C1501 C 0.51404 0.49765 0.4616 0.0
N1502 N 0.51456 0.49633 0.48061 0.0
C1503 C 0.50642 0.4816 0.44722 0.0
C1504 C 0.49855 0.46425 0.45232 0.0
H1505 H 0.51939 0.51129 0.45754 0.0
H1506 H 0.48053 0.43354 0.50128 0.0
H1507 H 0.5717 0.56417 0.4863 0.0
H1508 H 0.48567 0.45156 0.53525 0.0
H1509 H 0.50026 0.4808 0.55893 0.0
H1510 H 0.48278 0.43374 0.46695 0.0
H1511 H 0.57435 0.55955 0.57683 0.0
H1512 H 0.60177 0.62195 0.49892 0.0
H1513 H 0.58625 0.59281 0.47549 0.0
H1514 H 0.61174 0.63695 0.56751 0.0
H1515 H 0.5063 0.48275 0.43223 0.0
H1516 H 0.49234 0.45191 0.44115 0.0
H1517 H 0.61119 0.63822 0.53314 0.0
H1518 H 0.58913 0.58745 0.60214 0.0
N1519 N 0.5787 0.57588 0.51648 0.0
C1520 C 0.59539 0.60917 0.50399 0.0
C1521 C 0.58671 0.59276 0.49074 0.0
C1522 C 0.59575 0.6089 0.5236 0.0
C1523 C 0.58717 0.59188 0.52949 0.0
C1524 C 0.57854 0.57623 0.49719 0.0
N1525 N 0.57899 0.57475 0.55393 0.0
C1526 C 0.58725 0.59131 0.54879 0.0
C1527 C 0.58853 0.58883 0.58721 0.0
C1528 C 0.59664 0.60614 0.58217 0.0
C1529 C 0.57997 0.57315 0.57284 0.0
C1530 C 0.59622 0.60751 0.56277 0.0
H1531 H 0.60344 0.61823 0.59331 0.0
O1532 O 0.58448 0.53794 0.54748 0.0
O1533 O 0.54897 0.5187 0.51852 0.0
O1534 O 0.52148 0.53662 0.53717 0.0
O1535 O 0.54855 0.55581 0.55172 0.0
O1536 O 0.55856 0.52568 0.54729 0.0
O1537 O 0.59156 0.54247 0.5192 0.0
O1538 O 0.50818 0.53456 0.48699 0.0
O1539 O 0.5421 0.55299 0.51684 0.0
O1540 O 0.56994 0.53625 0.4973 0.0
O1541 O 0.54363 0.515 0.48374 0.0
O1542 O 0.53307 0.54614 0.48796 0.0
O1543 O 0.49774 0.52446 0.512 0.0
C1544 C 0.54989 0.51198 0.53374 0.0
C1545 C 0.60477 0.6244 0.55699 0.0
C1546 C 0.6045 0.62511 0.53743 0.0
C1547 C 0.5961 0.53752 0.53517 0.0
C1548 C 0.61452 0.54375 0.54284 0.0
C1549 C 0.62038 0.55708 0.5602 0.0
C1550 C 0.62616 0.53426 0.53337 0.0
C1551 C 0.64354 0.53781 0.54116 0.0
C1552 C 0.6379 0.56076 0.56794 0.0
C1553 C 0.64952 0.55112 0.55844 0.0
C1554 C 0.53152 0.54826 0.55245 0.0
C1555 C 0.5408 0.56005 0.50184 0.0
C1556 C 0.49473 0.53154 0.49685 0.0
C1557 C 0.47743 0.52494 0.48586 0.0
C1558 C 0.47514 0.51554 0.46647 0.0
C1559 C 0.46364 0.53159 0.49406 0.0
C1560 C 0.44801 0.53034 0.48276 0.0
C1561 C 0.45923 0.51317 0.4554 0.0
C1562 C 0.44579 0.52081 0.46337 0.0
C1563 C 0.5603 0.5236 0.48249 0.0
H1564 H 0.61146 0.56428 0.56796 0.0
H1565 H 0.62157 0.5236 0.5202 0.0
H1566 H 0.64238 0.57081 0.58144 0.0
H1567 H 0.66298 0.55368 0.56473 0.0
H1568 H 0.48576 0.51082 0.45958 0.0
H1569 H 0.46556 0.53884 0.50905 0.0
H1570 H 0.45761 0.5062 0.44039 0.0
H1571 H 0.43402 0.51991 0.45414 0.0
Gd1572 Gd 0.02895 0.53888 0.02518 0.0
Gd1573 Gd 0.07204 0.54129 0.00531 0.0
C1574 C 0.11218 0.59903 0.01274 0.0
C1575 C 0.11612 0.60166 0.97958 0.0
C1576 C 0.09555 0.57399 0.9868 0.0
C1577 C 0.09956 0.58145 0.0063 0.0
C1578 C 0.10398 0.58389 0.97323 0.0
C1579 C 0.12037 0.60906 0.9993 0.0
C1580 C 0.11679 0.60564 0.03249 0.0
C1581 C 0.10938 0.59443 0.04527 0.0
N1582 N 0.09205 0.57092 0.01894 0.0
C1583 C 0.09723 0.57692 0.03825 0.0
H1584 H 0.09187 0.56863 0.04858 0.0
C1585 C 0.08193 0.5473 0.96225 0.0
N1586 N 0.0843 0.55644 0.9811 0.0
C1587 C 0.08971 0.55668 0.94823 0.0
C1588 C 0.10059 0.57519 0.95371 0.0
H1589 H 0.07381 0.53279 0.9581 0.0
H1590 H 0.13046 0.62223 0.00403 0.0
H1591 H 0.00821 0.51182 0.98247 0.0
H1592 H 0.12633 0.61913 0.03799 0.0
H1593 H 0.11301 0.59929 0.06056 0.0
H1594 H 0.12279 0.60944 0.96939 0.0
H1595 H 0.02665 0.54754 0.07249 0.0
H1596 H 0.97727 0.45918 0.99307 0.0
H1597 H 0.98826 0.48025 0.97047 0.0
H1598 H 0.98208 0.46858 0.06176 0.0
H1599 H 0.08745 0.54955 0.93324 0.0
H1600 H 0.1068 0.58234 0.94286 0.0
H1601 H 0.97505 0.45497 0.02714 0.0
H1602 H 0.01449 0.53009 0.09755 0.0
N1603 N 0.00934 0.50891 0.01192 0.0
C1604 C 0.98618 0.47311 0.99851 0.0
C1605 C 0.99229 0.48498 0.98574 0.0
C1606 C 0.99108 0.47969 0.01824 0.0
C1607 C 0.0028 0.4979 0.02459 0.0
C1608 C 0.00371 0.50301 0.99272 0.0
N1609 N 0.01726 0.52349 0.04961 0.0
C1610 C 0.00685 0.50546 0.04405 0.0
C1611 C 0.0124 0.5229 0.08259 0.0
C1612 C 0.00245 0.50394 0.07721 0.0
C1613 C 0.01942 0.53266 0.06846 0.0
C1614 C 0.9992 0.49514 0.05771 0.0
H1615 H 0.99683 0.49646 0.08814 0.0
O1616 O 0.01895 0.56291 0.03914 0.0
O1617 O 0.05352 0.55795 0.01886 0.0
O1618 O 0.07329 0.53872 0.03609 0.0
O1619 O 0.04523 0.52868 0.04597 0.0
O1620 O 0.04516 0.56536 0.04553 0.0
O1621 O 0.00429 0.54404 0.0136 0.0
O1622 O 0.08137 0.51684 0.99135 0.0
O1623 O 0.04754 0.52235 0.01188 0.0
O1624 O 0.02808 0.5415 0.99414 0.0
O1625 O 0.05627 0.55271 0.98512 0.0
O1626 O 0.05557 0.5148 0.98508 0.0
O1627 O 0.0968 0.53588 0.01641 0.0
C1628 C 0.0566 0.57088 0.03402 0.0
C1629 C 0.98803 0.47674 0.05147 0.0
C1630 C 0.98402 0.46901 0.03176 0.0
C1631 C 0.00481 0.5589 0.0272 0.0
C1632 C 0.98832 0.56061 0.03578 0.0
C1633 C 0.98486 0.55464 0.05318 0.0
C1634 C 0.97652 0.56962 0.0273 0.0
C1635 C 0.96143 0.57268 0.03626 0.0
C1636 C 0.97014 0.55783 0.06221 0.0
C1637 C 0.95857 0.56686 0.05393 0.0
C1638 C 0.06255 0.53219 0.04827 0.0
C1639 C 0.04434 0.50933 0.99684 0.0
C1640 C 0.09573 0.52075 0.00294 0.0
C1641 C 0.11182 0.51824 0.99388 0.0
C1642 C 0.11464 0.52293 0.97583 0.0
C1643 C 0.12353 0.50915 0.00236 0.0
C1644 C 0.13767 0.50429 0.99258 0.0
C1645 C 0.12847 0.51817 0.96606 0.0
C1646 C 0.13972 0.50869 0.97416 0.0
C1647 C 0.03894 0.549 0.98244 0.0
H1648 H 0.99369 0.54788 0.06006 0.0
H1649 H 0.97912 0.57425 0.01384 0.0
H1650 H 0.96778 0.55346 0.07581 0.0
H1651 H 0.94747 0.56952 0.06155 0.0
H1652 H 0.10586 0.52969 0.96891 0.0
H1653 H 0.12143 0.50573 0.01642 0.0
H1654 H 0.13025 0.52148 0.95192 0.0
H1655 H 0.14986 0.50454 0.96573 0.0
H1656 H 0.01623 0.23089 0.99187 0.0
H1657 H 0.02013 0.20148 0.0018 0.0
H1658 H 0.02844 0.17801 0.94372 0.0
H1659 H 0.02412 0.2074 0.93354 0.0
H1660 H 0.00795 0.15092 0.95847 0.0
H1661 H 0.06321 0.19827 0.98314 0.0
H1662 H 0.08042 0.22916 0.00263 0.0
H1663 H 0.05887 0.21366 0.05346 0.0
H1664 H 0.0414 0.18276 0.03423 0.0
H1665 H 0.04363 0.07375 0.96867 0.0
H1666 H 0.04022 0.1052 0.9639 0.0
H1667 H 0.03636 0.12225 0.02463 0.0
H1668 H 0.04054 0.09062 0.02956 0.0
H1669 H 0.05245 0.15292 0.01188 0.0
H1670 H 0.99867 0.10729 0.99134 0.0
H1671 H 0.97871 0.07666 0.97472 0.0
H1672 H 0.99313 0.08911 0.92009 0.0
H1673 H 0.01335 0.11971 0.9364 0.0
C1674 C 0.01888 0.21952 0.98111 0.0
C1675 C 0.0199 0.22172 0.96182 0.0
C1676 C 0.02124 0.20264 0.98691 0.0
C1677 C 0.02497 0.18746 0.97368 0.0
C1678 C 0.02569 0.18946 0.95433 0.0
C1679 C 0.02323 0.20634 0.94848 0.0
C1680 C 0.02791 0.16947 0.97988 0.0
C1681 C 0.01788 0.15142 0.96996 0.0
C1682 C 0.04013 0.16988 0.99565 0.0
C1683 C 0.05092 0.18828 0.00722 0.0
C1684 C 0.06211 0.20149 0.99846 0.0
C1685 C 0.0719 0.21899 0.00946 0.0
C1686 C 0.07071 0.22339 0.02926 0.0
C1687 C 0.05977 0.21025 0.03812 0.0
C1688 C 0.04994 0.19273 0.02718 0.0
C1689 C 0.04233 0.08428 0.9811 0.0
C1690 C 0.04234 0.0796 0.99947 0.0
C1691 C 0.04021 0.10229 0.97834 0.0
C1692 C 0.03741 0.1161 0.99375 0.0
C1693 C 0.03829 0.11188 0.01239 0.0
C1694 C 0.04073 0.0938 0.01523 0.0
C1695 C 0.03297 0.13438 0.98992 0.0
C1696 C 0.04254 0.15243 1.00037 0.0
C1697 C 0.01991 0.13404 0.97504 0.0
C1698 C 0.00763 0.11574 0.96511 0.0
C1699 C 0.99766 0.10345 0.97579 0.0
C1700 C 0.98628 0.0861 0.96642 0.0
C1701 C 0.98467 0.08094 0.94636 0.0
C1702 C 0.99439 0.09314 0.93563 0.0
C1703 C 0.00579 0.1105 0.94492 0.0
H1704 H 0.97586 0.0675 0.93914 0.0
H1705 H 0.07829 0.23695 0.03775 0.0
H1706 H 0.11921 0.79135 0.15662 0.0
H1707 H 0.14434 0.78624 0.1755 0.0
H1708 H 0.1786 0.83362 0.15721 0.0
H1709 H 0.15375 0.83779 0.13735 0.0
H1710 H 0.19642 0.80935 0.15754 0.0
H1711 H 0.16151 0.83351 0.20614 0.0
H1712 H 0.13407 0.83324 0.22175 0.0
H1713 H 0.13277 0.77636 0.23182 0.0
H1714 H 0.1601 0.77621 0.21607 0.0
H1715 H 0.27044 0.81965 0.22406 0.0
H1716 H 0.24425 0.82512 0.20755 0.0
H1717 H 0.21213 0.77565 0.2247 0.0
H1718 H 0.23824 0.77147 0.2429 0.0
H1719 H 0.19316 0.80013 0.22487 0.0
H1720 H 0.22468 0.77417 0.17178 0.0
H1721 H 0.25312 0.77421 0.15824 0.0
H1722 H 0.26207 0.83505 0.16047 0.0
H1723 H 0.23302 0.83512 0.17244 0.0
C1724 C 0.13207 0.80081 0.15678 0.0
C1725 C 0.13427 0.81515 0.14553 0.0
C1726 C 0.14657 0.79795 0.16773 0.0
C1727 C 0.16369 0.80978 0.1684 0.0
C1728 C 0.16577 0.82416 0.15719 0.0
C1729 C 0.15141 0.82667 0.14586 0.0
C1730 C 0.17944 0.80723 0.18042 0.0
C1731 C 0.19558 0.80758 0.17232 0.0
C1732 C 0.1788 0.80444 0.19973 0.0
C1733 C 0.16277 0.8048 0.20983 0.0
C1734 C 0.15535 0.82094 0.21168 0.0
C1735 C 0.13981 0.82085 0.22052 0.0
C1736 C 0.13166 0.80477 0.22773 0.0
C1737 C 0.13909 0.78879 0.22622 0.0
C1738 C 0.15462 0.7888 0.21736 0.0
C1739 C 0.25777 0.80998 0.22432 0.0
C1740 C 0.25647 0.79502 0.23461 0.0
C1741 C 0.24272 0.8129 0.21456 0.0
C1742 C 0.22598 0.80032 0.21391 0.0
C1743 C 0.2247 0.78555 0.22461 0.0
C1744 C 0.23969 0.78308 0.23499 0.0
C1745 C 0.21 0.80243 0.20201 0.0
C1746 C 0.19388 0.80191 0.21008 0.0
C1747 C 0.21059 0.80508 0.1827 0.0
C1748 C 0.22669 0.8046 0.17283 0.0
C1749 C 0.2325 0.78744 0.16879 0.0
C1750 C 0.24864 0.78744 0.16125 0.0
C1751 C 0.25921 0.8046 0.15806 0.0
C1752 C 0.25354 0.8217 0.16217 0.0
C1753 C 0.23713 0.82168 0.16906 0.0
H1754 H 0.27189 0.80469 0.15263 0.0
H1755 H 0.1196 0.80471 0.23453 0.0
H1756 H 0.49373 0.83201 0.44437 0.0
H1757 H 0.50259 0.86621 0.45847 0.0
H1758 H 0.54886 0.85763 0.48816 0.0
H1759 H 0.54021 0.8229 0.47359 0.0
H1760 H 0.52707 0.88596 0.51008 0.0
H1761 H 0.56036 0.87539 0.45657 0.0
H1762 H 0.56483 0.8607 0.42365 0.0
H1763 H 0.52605 0.88643 0.40047 0.0
H1764 H 0.52116 0.90103 0.4333 0.0
H1765 H 0.55431 0.99105 0.52465 0.0
H1766 H 0.55207 0.95649 0.5218 0.0
H1767 H 0.52195 0.94584 0.46642 0.0
H1768 H 0.5262 0.98044 0.46841 0.0
H1769 H 0.54286 0.92634 0.46145 0.0
H1770 H 0.50754 0.9336 0.51816 0.0
H1771 H 0.50361 0.94524 0.55218 0.0
H1772 H 0.54883 0.9263 0.57054 0.0
H1773 H 0.55281 0.91405 0.53672 0.0
C1774 C 0.50571 0.83717 0.45407 0.0
C1775 C 0.51628 0.82453 0.45768 0.0
C1776 C 0.51073 0.85684 0.46218 0.0
C1777 C 0.52636 0.86456 0.47441 0.0
C1778 C 0.53667 0.85199 0.47884 0.0
C1779 C 0.53175 0.83215 0.47043 0.0
C1780 C 0.53231 0.88598 0.4807 0.0
C1781 C 0.53073 0.8949 0.49956 0.0
C1782 C 0.53727 0.89768 0.46713 0.0
C1783 C 0.54031 0.88917 0.44737 0.0
C1784 C 0.55269 0.87779 0.44445 0.0
C1785 C 0.55532 0.8695 0.42581 0.0
C1786 C 0.54571 0.8726 0.40997 0.0
C1787 C 0.53348 0.88404 0.41275 0.0
C1788 C 0.53079 0.89234 0.43137 0.0
C1789 C 0.54687 0.98124 0.51208 0.0
C1790 C 0.54006 0.98846 0.4969 0.0
C1791 C 0.54549 0.9613 0.51046 0.0
C1792 C 0.53663 0.94803 0.49393 0.0
C1793 C 0.52908 0.95544 0.47929 0.0
C1794 C 0.53124 0.97531 0.4805 0.0
C1795 C 0.53621 0.92675 0.49064 0.0
C1796 C 0.53911 0.9177 0.47218 0.0
C1797 C 0.53273 0.9151 0.50477 0.0
C1798 C 0.53058 0.92313 0.52494 0.0
C1799 C 0.51672 0.93206 0.52945 0.0
C1800 C 0.51447 0.93875 0.54868 0.0
C1801 C 0.52607 0.93677 0.56347 0.0
C1802 C 0.53989 0.92792 0.55908 0.0
C1803 C 0.5421 0.92101 0.53991 0.0
H1804 H 0.52426 0.94197 0.57833 0.0
H1805 H 0.54776 0.86618 0.39555 0.0
H1806 H 0.50896 0.30351 0.61116 0.0
H1807 H 0.48293 0.3015 0.62879 0.0
H1808 H 0.51556 0.3099 0.68202 0.0
H1809 H 0.5418 0.31163 0.66432 0.0
H1810 H 0.48695 0.28171 0.68085 0.0
H1811 H 0.49663 0.34604 0.6685 0.0
H1812 H 0.50104 0.37051 0.64811 0.0
H1813 H 0.4506 0.34358 0.6165 0.0
H1814 H 0.44601 0.31877 0.63652 0.0
H1815 H 0.42618 0.29653 0.74622 0.0
H1816 H 0.45085 0.3039 0.72708 0.0
H1817 H 0.41459 0.29269 0.6761 0.0
H1818 H 0.38964 0.2859 0.69563 0.0
H1819 H 0.44392 0.32187 0.67465 0.0
H1820 H 0.43384 0.25786 0.68573 0.0
H1821 H 0.42865 0.2326 0.70517 0.0
H1822 H 0.4791 0.25763 0.73746 0.0
H1823 H 0.48445 0.28326 0.71842 0.0
C1824 C 0.51071 0.30501 0.62664 0.0
C1825 C 0.52764 0.30778 0.63625 0.0
C1826 C 0.49571 0.30397 0.63677 0.0
C1827 C 0.49711 0.30581 0.65688 0.0
C1828 C 0.514 0.30848 0.66654 0.0
C1829 C 0.52906 0.30951 0.65639 0.0
C1830 C 0.48098 0.30433 0.66772 0.0
C1831 C 0.47775 0.29076 0.67967 0.0
C1832 C 0.46839 0.3155 0.66577 0.0
C1833 C 0.47106 0.33048 0.65388 0.0
C1834 C 0.48654 0.34527 0.65711 0.0
C1835 C 0.48906 0.3592 0.64563 0.0
C1836 C 0.47612 0.35857 0.63099 0.0
C1837 C 0.46061 0.34404 0.62783 0.0
C1838 C 0.45804 0.33005 0.63924 0.0
C1839 C 0.42339 0.29604 0.73099 0.0
C1840 C 0.40589 0.2903 0.7224 0.0
C1841 C 0.43757 0.30015 0.71999 0.0
C1842 C 0.43476 0.29834 0.69995 0.0
C1843 C 0.41723 0.29402 0.69148 0.0
C1844 C 0.40293 0.29012 0.70263 0.0
C1845 C 0.45018 0.29954 0.68804 0.0
C1846 C 0.45319 0.31291 0.67583 0.0
C1847 C 0.46252 0.28804 0.68953 0.0
C1848 C 0.45949 0.27252 0.70077 0.0
C1849 C 0.44378 0.25803 0.69705 0.0
C1850 C 0.44081 0.24365 0.708 0.0
C1851 C 0.45353 0.24353 0.72256 0.0
C1852 C 0.46926 0.25776 0.72618 0.0
C1853 C 0.47227 0.2722 0.71532 0.0
H1854 H 0.45121 0.23238 0.73102 0.0
H1855 H 0.4781 0.36937 0.62211 0.0
H1856 H 0.04412 0.81408 0.62942 0.0
H1857 H 0.04486 0.84061 0.61231 0.0
H1858 H 0.989 0.82035 0.5955 0.0
H1859 H 0.98807 0.7939 0.61282 0.0
H1860 H 0.01206 0.8303 0.56565 0.0
H1861 H 0.99705 0.85583 0.62759 0.0
H1862 H 1.00042 0.86066 0.66298 0.0
H1863 H 0.05352 0.89355 0.66438 0.0
H1864 H 0.05054 0.88867 0.62892 0.0
H1865 H 0.01406 0.91383 0.52754 0.0
H1866 H 0.00388 0.89016 0.54768 0.0
H1867 H 0.05574 0.90477 0.57852 0.0
H1868 H 0.0659 0.9283 0.55829 0.0
H1869 H 0.02928 0.89779 0.60241 0.0
H1870 H 0.04601 0.86885 0.54173 0.0
H1871 H 0.0455 0.85905 0.50657 0.0
H1872 H 0.99108 0.8294 0.50297 0.0
H1873 H 0.99118 0.83936 0.5381 0.0
C1874 C 0.03207 0.81518 0.62189 0.0
C1875 C 0.01603 0.80216 0.62244 0.0
C1876 C 0.03248 0.83033 0.6123 0.0
C1877 C 0.01692 0.83238 0.60304 0.0
C1878 C 0.00104 0.81892 0.60281 0.0
C1879 C 1.00055 0.80394 0.61265 0.0
C1880 C 0.01741 0.84874 0.59362 0.0
C1881 C 0.01531 0.8451 0.57358 0.0
C1882 C 0.02202 0.86782 0.60426 0.0
C1883 C 0.02358 0.87186 0.62561 0.0
C1884 C 0.00945 0.8641 0.63545 0.0
C1885 C 0.0113 0.86681 0.65551 0.0
C1886 C 0.02719 0.87739 0.66592 0.0
C1887 C 0.04122 0.88538 0.65629 0.0
C1888 C 0.03944 0.88269 0.6362 0.0
C1889 C 0.02312 0.91208 0.53883 0.0
C1890 C 0.04075 0.92241 0.54134 0.0
C1891 C 0.01734 0.8987 0.55028 0.0
C1892 C 0.02915 0.89568 0.56437 0.0
C1893 C 0.04648 0.90695 0.56768 0.0
C1894 C 0.0523 0.92018 0.55609 0.0
C1895 C 0.0241 0.87942 0.5742 0.0
C1896 C 0.02544 0.88306 0.59438 0.0
C1897 C 0.01886 0.86022 0.56366 0.0
C1898 C 0.0185 0.8552 0.54246 0.0
C1899 C 0.03384 0.86056 0.53339 0.0
C1900 C 0.03365 0.8549 0.51349 0.0
C1901 C 0.01824 0.84369 0.50253 0.0
C1902 C 0.00298 0.83816 0.51146 0.0
C1903 C 0.00308 0.84385 0.53135 0.0
H1904 H 0.01815 0.83922 0.48713 0.0
H1905 H 0.02862 0.87941 0.68145 0.0
H1906 H 0.52786 0.79911 0.88616 0.0
H1907 H 0.50085 0.80794 0.87647 0.0
H1908 H 0.52249 0.82228 0.82496 0.0
H1909 H 0.54975 0.81367 0.8346 0.0
H1910 H 0.50349 0.84932 0.84514 0.0
H1911 H 0.4967 0.78094 0.81859 0.0
H1912 H 0.49988 0.74892 0.82323 0.0
H1913 H 0.46423 0.7499 0.86709 0.0
H1914 H 0.46102 0.78206 0.86281 0.0
H1915 H 0.43326 0.84229 0.77797 0.0
H1916 H 0.45916 0.84203 0.79787 0.0
H1917 H 0.42662 0.81151 0.83491 0.0
H1918 H 0.40066 0.80912 0.81331 0.0
H1919 H 0.45067 0.79487 0.82763 0.0
H1920 H 0.4539 0.86225 0.85038 0.0
H1921 H 0.45206 0.89473 0.84588 0.0
H1922 H 0.49469 0.89661 0.8101 0.0
H1923 H 0.49678 0.86418 0.81444 0.0
C1924 C 0.52689 0.80409 0.87274 0.0
C1925 C 0.54081 0.80548 0.86101 0.0
C1926 C 0.51154 0.80929 0.86736 0.0
C1927 C 0.50985 0.81578 0.85011 0.0
C1928 C 0.52375 0.81745 0.83844 0.0
C1929 C 0.53915 0.81226 0.84382 0.0
C1930 C 0.4929 0.819 0.84334 0.0
C1931 C 0.49187 0.83752 0.84128 0.0
C1932 C 0.47782 0.80363 0.83886 0.0
C1933 C 0.47864 0.7838 0.84042 0.0
C1934 C 0.4895 0.77425 0.82916 0.0
C1935 C 0.49134 0.75613 0.83176 0.0
C1936 C 0.48227 0.74739 0.84547 0.0
C1937 C 0.47123 0.75669 0.85648 0.0
C1938 C 0.46935 0.77483 0.85394 0.0
C1939 C 0.4315 0.83537 0.79025 0.0
C1940 C 0.41477 0.82538 0.79367 0.0
C1941 C 0.4464 0.83573 0.80202 0.0
C1942 C 0.44491 0.82715 0.81823 0.0
C1943 C 0.42812 0.81832 0.82252 0.0
C1944 C 0.41321 0.81722 0.81024 0.0
C1945 C 0.46096 0.82538 0.82912 0.0
C1946 C 0.46198 0.80697 0.83194 0.0
C1947 C 0.47599 0.84095 0.83441 0.0
C1948 C 0.47547 0.86085 0.83272 0.0
C1949 C 0.46291 0.86966 0.84163 0.0
C1950 C 0.46182 0.88804 0.83909 0.0
C1951 C 0.47324 0.89771 0.82769 0.0
C1952 C 0.48589 0.88912 0.81897 0.0
C1953 C 0.4871 0.8708 0.82155 0.0
H1954 H 0.47228 0.91188 0.82562 0.0
H1955 H 0.4838 0.73341 0.84754 0.0
H1956 H 0.48414 0.19801 0.13981 0.0
H1957 H 0.49167 0.16757 0.12705 0.0
H1958 H 0.50557 0.18803 0.07519 0.0
H1959 H 0.49793 0.21845 0.08777 0.0
H1960 H 0.48649 0.1519 0.06767 0.0
H1961 H 0.53665 0.18994 0.11164 0.0
H1962 H 0.55509 0.20698 0.14172 0.0
H1963 H 0.54134 0.15618 0.16592 0.0
H1964 H 0.52255 0.13896 0.13616 0.0
H1965 H 0.54827 0.10204 0.02924 0.0
H1966 H 0.53337 0.12639 0.04432 0.0
H1967 H 0.51786 0.09284 0.0876 0.0
H1968 H 0.53208 0.06818 0.07216 0.0
H1969 H 0.53407 0.13146 0.10167 0.0
H1970 H 0.48742 0.0926 0.05532 0.0
H1971 H 0.47355 0.07512 0.02313 0.0
H1972 H 0.48425 0.12794 0.00204 0.0
H1973 H 0.49844 0.14573 0.03401 0.0
C1974 C 0.48849 0.19585 0.12553 0.0
C1975 C 0.49046 0.21049 0.11469 0.0
C1976 C 0.49295 0.1786 0.11841 0.0
C1977 C 0.49942 0.17587 0.10042 0.0
C1978 C 0.5006 0.19006 0.08918 0.0
C1979 C 0.49609 0.2073 0.09626 0.0
C1980 C 0.5049 0.15818 0.09305 0.0
C1981 C 0.49695 0.14744 0.07506 0.0
C1982 C 0.51813 0.15219 0.10315 0.0
C1983 C 0.52787 0.16327 0.12177 0.0
C1984 C 0.5372 0.18254 0.12353 0.0
C1985 C 0.54783 0.1922 0.14049 0.0
C1986 C 0.54934 0.18269 0.15574 0.0
C1987 C 0.5401 0.16357 0.15414 0.0
C1988 C 0.52942 0.15388 0.13726 0.0
C1989 C 0.54145 0.0998 0.04175 0.0
C1990 C 0.54113 0.08339 0.04955 0.0
C1991 C 0.53304 0.11363 0.05034 0.0
C1992 C 0.52438 0.11101 0.06676 0.0
C1993 C 0.52444 0.09485 0.07483 0.0
C1994 C 0.53272 0.08101 0.06618 0.0
C1995 C 0.51609 0.12577 0.07615 0.0
C1996 C 0.52338 0.13577 0.09454 0.0
C1997 C 0.50245 0.13124 0.06638 0.0
C1998 C 0.49403 0.1205 0.04708 0.0
C1999 C 0.48694 0.10048 0.04379 0.0
C2000 C 0.479 0.09051 0.02558 0.0
C2001 C 0.47796 0.10042 0.01059 0.0
C2002 C 0.485 0.1203 0.0137 0.0
C2003 C 0.49298 0.13033 0.03186 0.0
H2004 H 0.47166 0.09271 0.99656 0.0
H2005 H 0.55771 0.19013 0.16877 0.0
H2006 H 0.12727 0.31771 0.32711 0.0
H2007 H 0.15315 0.31977 0.30923 0.0
H2008 H 0.18613 0.32629 0.36196 0.0
H2009 H 0.16038 0.32463 0.38003 0.0
H2010 H 0.20245 0.34682 0.33682 0.0
H2011 H 0.16839 0.28301 0.33746 0.0
H2012 H 0.14069 0.25789 0.33232 0.0
H2013 H 0.13717 0.25864 0.27191 0.0
H2014 H 0.16469 0.28414 0.2768 0.0
H2015 H 0.27254 0.30912 0.31765 0.0
H2016 H 0.24291 0.30753 0.32737 0.0
H2017 H 0.22354 0.30625 0.26889 0.0
H2018 H 0.25334 0.30696 0.25893 0.0
H2019 H 0.19883 0.28446 0.29223 0.0
H2020 H 0.23735 0.34791 0.29437 0.0
H2021 H 0.26552 0.37188 0.30328 0.0
H2022 H 0.26143 0.36962 0.36295 0.0
H2023 H 0.23331 0.34525 0.35429 0.0
C2024 C 0.14009 0.31989 0.33491 0.0
C2025 C 0.14189 0.32039 0.35479 0.0
C2026 C 0.15479 0.32119 0.32472 0.0
C2027 C 0.17128 0.32271 0.33432 0.0
C2028 C 0.17336 0.325 0.3544 0.0
C2029 C 0.15868 0.32389 0.36464 0.0
C2030 C 0.18588 0.31921 0.32338 0.0
C2031 C 0.20166 0.33327 0.32698 0.0
C2032 C 0.18464 0.30145 0.31062 0.0
C2033 C 0.16847 0.28563 0.30752 0.0
C2034 C 0.16166 0.2779 0.3231 0.0
C2035 C 0.14598 0.26361 0.32024 0.0
C2036 C 0.13715 0.25672 0.30181 0.0
C2037 C 0.14401 0.26404 0.28619 0.0
C2038 C 0.15964 0.27842 0.28899 0.0
C2039 C 0.26177 0.30775 0.3068 0.0
C2040 C 0.26482 0.30799 0.28764 0.0
C2041 C 0.24496 0.30681 0.3123 0.0
C2042 C 0.23131 0.30708 0.29883 0.0
C2043 C 0.23406 0.30601 0.27936 0.0
C2044 C 0.25094 0.30659 0.27376 0.0
C2045 C 0.21541 0.31203 0.30587 0.0
C2046 C 0.19943 0.29822 0.3016 0.0
C2047 C 0.21654 0.32985 0.31846 0.0
C2048 C 0.23327 0.34475 0.32367 0.0
C2049 C 0.24251 0.35245 0.30937 0.0
C2050 C 0.25849 0.36612 0.3144 0.0
C2051 C 0.26527 0.3723 0.33372 0.0
C2052 C 0.25612 0.36482 0.34802 0.0
C2053 C 0.24017 0.3511 0.34305 0.0
H2054 H 0.27757 0.38291 0.33775 0.0
H2055 H 0.12501 0.24566 0.29961 0.0
H2056 H 0.9621 0.03357 0.21524 0.0
H2057 H 0.97518 0.033 0.18499 0.0
H2058 H 0.9758 0.09305 0.18853 0.0
H2059 H 0.96154 0.09331 0.21879 0.0
H2060 H 0.97092 0.07854 0.15257 0.0
H2061 H 0.01564 0.07245 0.1978 0.0
H2062 H 0.0295 0.05943 0.2229 0.0
H2063 H 0.0186 0.00371 0.18558 0.0
H2064 H 0.00455 0.01636 0.16035 0.0
H2065 H 0.02938 0.07984 0.07531 0.0
H2066 H 0.01644 0.0857 0.10612 0.0
H2067 H 0.00702 0.02516 0.10731 0.0
H2068 H 0.01989 0.01943 0.07687 0.0
H2069 H 0.01839 0.04363 0.14189 0.0
H2070 H 0.97324 0.05112 0.09655 0.0
H2071 H 0.96104 0.06576 0.07171 0.0
H2072 H 0.97503 0.12112 0.1098 0.0
H2073 H 0.98752 0.10684 0.13476 0.0
C2074 C 0.9649 0.04677 0.2097 0.0
C2075 C 0.96062 0.0635 0.21994 0.0
C2076 C 0.97274 0.04649 0.19222 0.0
C2077 C 0.9774 0.06313 0.18417 0.0
C2078 C 0.97271 0.07987 0.19407 0.0
C2079 C 0.96443 0.08005 0.21156 0.0
C2080 C 0.98687 0.06265 0.16558 0.0
C2081 C 0.98148 0.07112 0.15053 0.0
C2082 C 1.00076 0.05297 0.16207 0.0
C2083 C 0.00892 0.0453 0.1773 0.0
C2084 C 0.01609 0.05739 0.19503 0.0
C2085 C 0.024 0.05009 0.20925 0.0
C2086 C 0.02489 0.03075 0.20585 0.0
C2087 C 0.01789 0.01868 0.18821 0.0
C2088 C 0.00997 0.02591 0.17394 0.0
C2089 C 0.02456 0.06776 0.08214 0.0
C2090 C 0.02568 0.04906 0.07318 0.0
C2091 C 0.01694 0.0711 0.09985 0.0
C2092 C 0.01026 0.0559 0.10945 0.0
C2093 C 0.01179 0.03733 0.10059 0.0
C2094 C 0.01917 0.03398 0.08286 0.0
C2095 C 0.00212 0.059 0.12874 0.0
C2096 C 0.00784 0.05107 0.14396 0.0
C2097 C 0.98878 0.0694 0.13244 0.0
C2098 C 0.98147 0.07797 0.1174 0.0
C2099 C 0.97385 0.06645 0.09955 0.0
C2100 C 0.96686 0.07467 0.08547 0.0
C2101 C 0.96731 0.09437 0.08916 0.0
C2102 C 0.97473 0.10588 0.10694 0.0
C2103 C 0.98176 0.09773 0.12106 0.0
H2104 H 0.96186 0.1007 0.07825 0.0
H2105 H 0.03104 0.02512 0.21688 0.0
H2106 H 0.30116 0.66675 0.48085 0.0
H2107 H 0.30309 0.68602 0.45592 0.0
H2108 H 0.24654 0.67814 0.45096 0.0
H2109 H 0.24441 0.65859 0.47575 0.0
H2110 H 0.26027 0.66771 0.41685 0.0
H2111 H 0.27137 0.72192 0.47099 0.0
H2112 H 0.28709 0.74093 0.5019 0.0
H2113 H 0.33605 0.74818 0.47641 0.0
H2114 H 0.32058 0.72916 0.44534 0.0
H2115 H 0.23605 0.73358 0.36948 0.0
H2116 H 0.24323 0.71237 0.38982 0.0
H2117 H 0.29876 0.73516 0.38716 0.0
H2118 H 0.2916 0.75758 0.3677 0.0
H2119 H 0.29184 0.7361 0.42276 0.0
H2120 H 0.27851 0.68506 0.36653 0.0
H2121 H 0.26179 0.66484 0.33657 0.0
H2122 H 0.21603 0.65101 0.36669 0.0
H2123 H 0.23245 0.67101 0.39681 0.0
C2124 C 0.28915 0.6692 0.47449 0.0
C2125 C 0.2726 0.66099 0.47988 0.0
C2126 C 0.29031 0.6803 0.46045 0.0
C2127 C 0.27497 0.68341 0.45186 0.0
C2128 C 0.25847 0.67572 0.45757 0.0
C2129 C 0.25727 0.6645 0.47154 0.0
C2130 C 0.27592 0.69321 0.43566 0.0
C2131 C 0.26708 0.6827 0.41805 0.0
C2132 C 0.28556 0.71238 0.43733 0.0
C2133 C 0.29485 0.72404 0.4559 0.0
C2134 C 0.2855 0.72752 0.47201 0.0
C2135 C 0.29435 0.73831 0.48954 0.0
C2136 C 0.31257 0.74573 0.49113 0.0
C2137 C 0.32194 0.74243 0.47515 0.0
C2138 C 0.31313 0.7317 0.45757 0.0
C2139 C 0.24979 0.73405 0.37317 0.0
C2140 C 0.26325 0.74739 0.36733 0.0
C2141 C 0.25389 0.72163 0.38445 0.0
C2142 C 0.27153 0.72195 0.38963 0.0
C2143 C 0.28507 0.73464 0.3831 0.0
C2144 C 0.28096 0.74733 0.37198 0.0
C2145 C 0.27546 0.71083 0.40392 0.0
C2146 C 0.28538 0.72098 0.42127 0.0
C2147 C 0.26672 0.69125 0.40208 0.0
C2148 C 0.25671 0.67955 0.38389 0.0
C2149 C 0.26486 0.67778 0.36672 0.0
C2150 C 0.25545 0.66633 0.34974 0.0
C2151 C 0.23787 0.6567 0.34973 0.0
C2152 C 0.22966 0.65845 0.36672 0.0
C2153 C 0.23903 0.66976 0.38376 0.0
H2154 H 0.23063 0.64785 0.33656 0.0
H2155 H 0.31941 0.75405 0.50472 0.0
H2156 H 0.66048 0.05246 0.69821 0.0
H2157 H 0.6437 0.05481 0.66966 0.0
H2158 H 0.6019 0.00786 0.67807 0.0
H2159 H 0.61939 0.00454 0.70652 0.0
H2160 H 0.61578 1.00199 0.64312 0.0
H2161 H 0.59918 0.05614 0.68487 0.0
H2162 H 0.60781 0.08734 0.70767 0.0
H2163 H 0.63609 0.11316 0.66523 0.0
H2164 H 0.62801 0.08204 0.64233 0.0
H2165 H 0.55008 0.01187 0.57319 0.0
H2166 H 0.56595 0.01082 0.60356 0.0
H2167 H 0.61343 0.04524 0.58794 0.0
H2168 H 0.59838 0.04536 0.55742 0.0
H2169 H 0.59778 0.05872 0.62572 0.0
H2170 H 0.62167 0.01268 0.58763 0.0
H2171 H 0.62079 0.98461 0.56196 0.0
H2172 H 0.58927 0.94756 0.59414 0.0
H2173 H 0.58945 0.97561 0.61977 0.0
C2174 C 0.64758 0.0428 0.69425 0.0
C2175 C 0.64127 0.02798 0.70418 0.0
C2176 C 0.63796 0.04435 0.67805 0.0
C2177 C 0.62164 0.03158 0.67207 0.0
C2178 C 0.61457 0.0178 0.6828 0.0
C2179 C 0.62442 0.01598 0.69895 0.0
C2180 C 0.61314 0.0311 0.65331 0.0
C2181 C 0.61137 0.01418 0.63942 0.0
C2182 C 0.60903 0.04773 0.64834 0.0
C2183 C 0.61297 0.06669 0.66187 0.0
C2184 C 0.60725 0.06845 0.68039 0.0
C2185 C 0.61209 0.08613 0.69336 0.0
C2186 C 0.62249 0.10222 0.68791 0.0
C2187 C 0.62802 0.10069 0.66944 0.0
C2188 C 0.62329 0.08304 0.65645 0.0
C2189 C 0.5639 0.01909 0.57622 0.0
C2190 C 0.57278 0.02951 0.56346 0.0
C2191 C 0.57287 0.01842 0.59338 0.0
C2192 C 0.59056 0.02827 0.59766 0.0
C2193 C 0.59965 0.03786 0.58465 0.0
C2194 C 0.59091 0.03806 0.56738 0.0
C2195 C 0.59945 0.0293 0.61619 0.0
C2196 C 0.60175 0.04641 0.62972 0.0
C2197 C 0.60508 0.01336 0.62055 0.0
C2198 C 0.60521 0.99632 0.60544 0.0
C2199 C 0.61426 0.99861 0.5891 0.0
C2200 C 0.61394 0.9827 0.57457 0.0
C2201 C 0.60488 0.96432 0.57636 0.0
C2202 C 0.59621 0.96183 0.59274 0.0
C2203 C 0.59638 0.97774 0.60726 0.0
H2204 H 0.60466 0.952 0.56511 0.0
H2205 H 0.62626 0.11587 0.69798 0.0
H2206 H 0.30246 0.37947 0.97328 0.0
H2207 H 0.3003 0.36632 0.93895 0.0
H2208 H 0.28669 0.30857 0.95004 0.0
H2209 H 0.28948 0.32171 0.98465 0.0
H2210 H 0.30919 0.30958 0.9254 0.0
H2211 H 0.25576 0.32949 0.92839 0.0
H2212 H 0.2361 0.35118 0.93758 0.0
H2213 H 0.26368 0.39134 0.90563 0.0
H2214 H 0.28368 0.37002 0.89647 0.0
H2215 H 0.29541 0.27796 0.82076 0.0
H2216 H 0.29347 0.28271 0.85571 0.0
H2217 H 0.30814 0.34436 0.85983 0.0
H2218 H 0.30944 0.33961 0.82515 0.0
H2219 H 0.27938 0.33564 0.87637 0.0
H2220 H 0.33799 0.319 0.88532 0.0
H2221 H 0.3591 0.2982 0.88186 0.0
H2222 H 0.3192 0.25038 0.89095 0.0
H2223 H 0.29821 0.27135 0.89579 0.0
C2224 C 0.29893 0.36396 0.96846 0.0
C2225 C 0.29618 0.35166 0.98177 0.0
C2226 C 0.29752 0.35643 0.94873 0.0
C2227 C 0.29298 0.3364 0.94174 0.0
C2228 C 0.29013 0.32406 0.955 0.0
C2229 C 0.29174 0.3316 0.97481 0.0
C2230 C 0.29237 0.3285 0.92072 0.0
C2231 C 0.30232 0.31501 0.91471 0.0
C2232 C 0.28345 0.33545 0.9066 0.0
C2233 C 0.27128 0.34818 0.91181 0.0
C2234 C 0.25769 0.34299 0.9234 0.0
C2235 C 0.24648 0.35522 0.9286 0.0
C2236 C 0.24865 0.37264 0.92222 0.0
C2237 C 0.26201 0.37783 0.91057 0.0
C2238 C 0.27327 0.36567 0.90533 0.0
C2239 C 0.29878 0.29246 0.82929 0.0
C2240 C 0.30267 0.30843 0.82029 0.0
C2241 C 0.29761 0.29521 0.84928 0.0
C2242 C 0.30051 0.31395 0.86052 0.0
C2243 C 0.3056 0.32977 0.85156 0.0
C2244 C 0.30653 0.32705 0.83174 0.0
C2245 C 0.29698 0.31752 0.88119 0.0
C2246 C 0.28602 0.33004 0.8871 0.0
C2247 C 0.30468 0.30947 0.89521 0.0
C2248 C 0.31653 0.29653 0.89047 0.0
C2249 C 0.3337 0.30397 0.88628 0.0
C2250 C 0.34565 0.29219 0.88419 0.0
C2251 C 0.34039 0.27283 0.88564 0.0
C2252 C 0.32322 0.2653 0.88959 0.0
C2253 C 0.31135 0.27716 0.89221 0.0
H2254 H 0.34968 0.26373 0.88395 0.0
H2255 H 0.23997 0.3821 0.92628 0.0
H2256 H 0.98004 0.04383 0.31231 0.0
H2257 H 0.99395 0.04214 0.3432 0.0
H2258 H 0.96645 0.0826 0.37198 0.0
H2259 H 0.9524 0.08458 0.34055 0.0
H2260 H 1.0004 0.08937 0.39004 0.0
H2261 H 0.95285 0.03274 0.37153 0.0
H2262 H 0.93603 0.00438 0.34795 0.0
H2263 H 0.98187 0.98094 0.34438 0.0
H2264 H 0.99901 0.00929 0.36782 0.0
H2265 H 0.00259 0.06153 0.48244 0.0
H2266 H 0.99402 0.0666 0.45072 0.0
H2267 H 0.03202 0.03679 0.42665 0.0
H2268 H 0.04201 0.03317 0.4592 0.0
H2269 H 0.99427 0.02441 0.40564 0.0
H2270 H 0.0418 0.0789 0.42375 0.0
H2271 H 0.06171 0.10927 0.44098 0.0
H2272 H 0.0188 0.13741 0.44255 0.0
H2273 H 0.99854 0.10713 0.42548 0.0
C2274 C 0.97683 0.05254 0.32507 0.0
C2275 C 0.96474 0.06425 0.32347 0.0
C2276 C 0.98488 0.05144 0.34301 0.0
C2277 C 0.98118 0.06184 0.36045 0.0
C2278 C 0.96963 0.0742 0.359 0.0
C2279 C 0.96151 0.07534 0.34086 0.0
C2280 C 0.98899 0.05918 0.37986 0.0
C2281 C 0.99871 0.07517 0.39352 0.0
C2282 C 0.98769 0.04066 0.38456 0.0
C2283 C 0.9772 0.02311 0.37138 0.0
C2284 C 0.95932 0.0215 0.36574 0.0
C2285 C 0.94974 0.00546 0.35237 0.0
C2286 C 0.95788 0.99087 0.34465 0.0
C2287 C 0.97558 0.99224 0.35039 0.0
C2288 C 0.98522 0.00826 0.36375 0.0
C2289 C 0.00939 0.05602 0.47059 0.0
C2290 C 0.02288 0.04639 0.47387 0.0
C2291 C 0.00436 0.05903 0.4522 0.0
C2292 C 0.01209 0.05203 0.43584 0.0
C2293 C 0.02559 0.04233 0.43882 0.0
C2294 C 0.03122 0.04002 0.45757 0.0
C2295 C 0.00552 0.05468 0.41598 0.0
C2296 C 0.99591 0.03865 0.40226 0.0
C2297 C 0.00709 0.07318 0.41117 0.0
C2298 C 0.01861 0.09068 0.4235 0.0
C2299 C 0.0365 0.09143 0.42816 0.0
C2300 C 0.04788 0.10866 0.43776 0.0
C2301 C 0.04151 0.12523 0.44275 0.0
C2302 C 0.02369 0.12453 0.43861 0.0
C2303 C 0.01226 0.10734 0.42898 0.0
H2304 H 0.05041 0.13867 0.44958 0.0
H2305 H 0.95047 0.9785 0.33424 0.0
H2306 H 0.26111 0.69293 0.5564 0.0
H2307 H 0.25309 0.70737 0.58752 0.0
H2308 H 0.29923 0.6967 0.61591 0.0
H2309 H 0.30686 0.68153 0.5849 0.0
H2310 H 0.27013 0.68713 0.63433 0.0
H2311 H 0.29846 0.73969 0.6044 0.0
H2312 H 0.3004 0.75756 0.57787 0.0
H2313 H 0.2496 0.76899 0.58714 0.0
H2314 H 0.24717 0.75071 0.61339 0.0
H2315 H 0.30679 0.75854 0.71441 0.0
H2316 H 0.29906 0.73769 0.68261 0.0
H2317 H 0.24824 0.75171 0.67951 0.0
H2318 H 0.25594 0.77243 0.71179 0.0
H2319 H 0.26941 0.75648 0.64744 0.0
H2320 H 0.24673 0.71112 0.68464 0.0
H2321 H 0.24421 0.69108 0.70932 0.0
H2322 H 0.28483 0.66503 0.68656 0.0
H2323 H 0.28853 0.68579 0.66252 0.0
C2324 C 0.26969 0.69406 0.56929 0.0
C2325 C 0.2848 0.68664 0.56846 0.0
C2326 C 0.26497 0.70201 0.58697 0.0
C2327 C 0.27561 0.70305 0.60383 0.0
C2328 C 0.29082 0.69583 0.60296 0.0
C2329 C 0.29533 0.68752 0.58534 0.0
C2330 C 0.2716 0.71259 0.62245 0.0
C2331 C 0.27005 0.70232 0.63738 0.0
C2332 C 0.27069 0.73209 0.62588 0.0
C2333 C 0.27252 0.74365 0.61064 0.0
C2334 C 0.28766 0.74592 0.60068 0.0
C2335 C 0.28884 0.75608 0.58569 0.0
C2336 C 0.2751 0.76434 0.58077 0.0
C2337 C 0.2602 0.76252 0.59091 0.0
C2338 C 0.2589 0.75224 0.60582 0.0
C2339 C 0.2942 0.75756 0.70666 0.0
C2340 C 0.28216 0.76751 0.71486 0.0
C2341 C 0.28964 0.74535 0.68883 0.0
C2342 C 0.27302 0.74308 0.67908 0.0
C2343 C 0.26105 0.75328 0.68711 0.0
C2344 C 0.2655 0.76524 0.7052 0.0
C2345 C 0.2691 0.73135 0.65971 0.0
C2346 C 0.26909 0.74118 0.6445 0.0
C2347 C 0.26898 0.71152 0.65619 0.0
C2348 C 0.26795 0.70019 0.67175 0.0
C2349 C 0.25548 0.70151 0.68516 0.0
C2350 C 0.25384 0.68999 0.69905 0.0
C2351 C 0.26443 0.67686 0.69955 0.0
C2352 C 0.27682 0.67538 0.6863 0.0
C2353 C 0.27873 0.68709 0.67258 0.0
H2354 H 0.26302 0.66782 0.7102 0.0
H2355 H 0.27603 0.77221 0.56915 0.0
H2356 H 0.64035 0.0449 0.7731 0.0
H2357 H 0.62725 0.04641 0.80338 0.0
H2358 H 0.67305 0.03358 0.83022 0.0
H2359 H 0.68589 0.03103 0.79928 0.0
H2360 H 0.64419 0.01408 0.8407 0.0
H2361 H 0.66596 0.08042 0.83851 0.0
H2362 H 0.67092 0.11021 0.82539 0.0
H2363 H 0.61517 0.10595 0.81919 0.0
H2364 H 0.60985 0.07601 0.83194 0.0
H2365 H 0.60957 0.05084 0.9306 0.0
H2366 H 0.62738 0.04136 0.90495 0.0
H2367 H 0.58555 0.04097 0.86249 0.0
H2368 H 0.56766 0.05047 0.88807 0.0
H2369 H 0.61787 0.06906 0.86452 0.0
H2370 H 0.59621 1.00116 0.86419 0.0
H2371 H 0.59145 0.97115 0.87686 0.0
H2372 H 0.64734 0.9788 0.88821 0.0
H2373 H 0.65244 0.00909 0.876 0.0
C2374 C 0.64758 0.04235 0.78547 0.0
C2375 C 0.66406 0.03795 0.78414 0.0
C2376 C 0.6402 0.04341 0.80276 0.0
C2377 C 0.6495 0.04076 0.8191 0.0
C2378 C 0.66585 0.03591 0.81773 0.0
C2379 C 0.67309 0.03437 0.80018 0.0
C2380 C 0.64149 0.04226 0.8373 0.0
C2381 C 0.63875 0.02628 0.84624 0.0
C2382 C 0.63432 0.05814 0.84426 0.0
C2383 C 0.63752 0.07593 0.83615 0.0
C2384 C 0.65476 0.08575 0.8342 0.0
C2385 C 0.65763 0.10269 0.82685 0.0
C2386 C 0.64338 0.10997 0.82147 0.0
C2387 C 0.62621 0.10031 0.82338 0.0
C2388 C 0.62326 0.08337 0.83068 0.0
C2389 C 0.60402 0.0482 0.91577 0.0
C2390 C 0.58746 0.0517 0.91112 0.0
C2391 C 0.61412 0.04264 0.90123 0.0
C2392 C 0.60765 0.04049 0.88202 0.0
C2393 C 0.59059 0.04254 0.87737 0.0
C2394 C 0.58054 0.0482 0.89187 0.0
C2395 C 0.61977 0.04047 0.86712 0.0
C2396 C 0.62352 0.05697 0.85912 0.0
C2397 C 0.62788 0.02517 0.86117 0.0
C2398 C 0.62469 0.00755 0.86946 0.0
C2399 C 0.60748 0.99665 0.86973 0.0
C2400 C 0.60472 0.97953 0.87673 0.0
C2401 C 0.61908 0.97308 0.88333 0.0
C2402 C 0.63623 0.98381 0.88309 0.0
C2403 C 0.63905 1.00097 0.87618 0.0
H2404 H 0.61693 0.95974 0.88862 0.0
H2405 H 0.64563 0.12311 0.81583 0.0
H2406 H 0.2621 0.34454 0.07445 0.0
H2407 H 0.26249 0.3337 0.10516 0.0
H2408 H 0.31833 0.35869 0.11617 0.0
H2409 H 0.31802 0.36995 0.08562 0.0
H2410 H 0.30746 0.32035 0.12369 0.0
H2411 H 0.29411 0.38225 0.13917 0.0
H2412 H 0.27839 0.40796 0.13765 0.0
H2413 H 0.23065 0.37126 0.14926 0.0
H2414 H 0.24605 0.34521 0.15054 0.0
H2415 H 0.32295 0.32536 0.22336 0.0
H2416 H 0.32053 0.3316 0.19087 0.0
H2417 H 0.2639 0.31293 0.18781 0.0
H2418 H 0.26636 0.30739 0.22091 0.0
H2419 H 0.27369 0.34598 0.17526 0.0
H2420 H 0.28774 0.28445 0.16163 0.0
H2421 H 0.30443 0.26007 0.16576 0.0
H2422 H 0.35141 0.29669 0.15238 0.0
H2423 H 0.335 0.32135 0.14829 0.0
C2424 C 0.27449 0.34764 0.08334 0.0
C2425 C 0.29003 0.35812 0.07761 0.0
C2426 C 0.27467 0.3415 0.1009 0.0
C2427 C 0.29041 0.34549 0.11295 0.0
C2428 C 0.30605 0.35549 0.10707 0.0
C2429 C 0.30583 0.36194 0.08965 0.0
C2430 C 0.29048 0.33947 0.13182 0.0
C2431 C 0.3002 0.32606 0.13503 0.0
C2432 C 0.28065 0.34652 0.14642 0.0
C2433 C 0.27114 0.36169 0.14458 0.0
C2434 C 0.28018 0.37955 0.14104 0.0
C2435 C 0.27136 0.39421 0.14033 0.0
C2436 C 0.25351 0.39122 0.14327 0.0
C2437 C 0.24445 0.37353 0.1469 0.0
C2438 C 0.25321 0.35881 0.1476 0.0
C2439 C 0.30998 0.3233 0.21607 0.0
C2440 C 0.29482 0.31692 0.22499 0.0
C2441 C 0.30861 0.32631 0.19726 0.0
C2442 C 0.29204 0.32262 0.18683 0.0
C2443 C 0.27683 0.3159 0.19561 0.0
C2444 C 0.27822 0.31287 0.2145 0.0
C2445 C 0.29067 0.32687 0.16721 0.0
C2446 C 0.28074 0.34001 0.16383 0.0
C2447 C 0.30031 0.31956 0.1525 0.0
C2448 C 0.31019 0.30477 0.1548 0.0
C2449 C 0.30165 0.28733 0.15967 0.0
C2450 C 0.31105 0.27346 0.16197 0.0
C2451 C 0.32898 0.27685 0.15937 0.0
C2452 C 0.33753 0.29409 0.15439 0.0
C2453 C 0.32818 0.30799 0.15203 0.0
H2454 H 0.33624 0.2661 0.16119 0.0
H2455 H 0.24672 0.40263 0.1428 0.0
H2456 H 0.24772 0.93135 0.02022 0.0
H2457 H 0.22258 0.94623 0.01972 0.0
H2458 H 0.25656 0.99892 0.01078 0.0
H2459 H 0.28178 0.98439 0.01177 0.0
H2460 H 0.23549 0.0045 0.03948 0.0
H2461 H 0.22905 0.97216 0.97341 0.0
H2462 H 0.23044 0.9431 0.94997 0.0
H2463 H 0.18677 0.90995 0.97272 0.0
H2464 H 0.18523 0.93884 0.99642 0.0
H2465 H 0.16757 0.04939 0.03252 0.0
H2466 H 0.18979 0.03411 0.01747 0.0
H2467 H 0.16244 0.97936 0.02903 0.0
H2468 H 0.14013 0.99465 0.0439 0.0
H2469 H 0.18087 0.97601 0.99509 0.0
H2470 H 0.18926 0.00693 0.06254 0.0
H2471 H 0.1915 0.03363 0.09017 0.0
H2472 H 0.23444 0.068 0.06748 0.0
H2473 H 0.23214 0.04163 0.03943 0.0
C2474 C 0.24975 0.94604 0.01801 0.0
C2475 C 0.26656 0.95678 0.01606 0.0
C2476 C 0.23546 0.95446 0.01766 0.0
C2477 C 0.23785 0.97349 0.01494 0.0
C2478 C 0.25459 0.98418 0.01283 0.0
C2479 C 0.26891 0.97587 0.01342 0.0
C2480 C 0.22291 0.98253 0.0151 0.0
C2481 C 0.2237 0.99865 0.02949 0.0
C2482 C 0.20758 0.97442 0.00226 0.0
C2483 C 0.20694 0.95767 0.98657 0.0
C2484 C 0.2196 0.95871 0.97324 0.0
C2485 C 0.22048 0.94226 0.95999 0.0
C2486 C 0.20869 0.92469 0.95985 0.0
C2487 C 0.19585 0.9236 0.97281 0.0
C2488 C 0.19491 0.94003 0.98609 0.0
C2489 C 0.16616 0.03401 0.03133 0.0
C2490 C 0.15261 0.02311 0.03956 0.0
C2491 C 0.17865 0.0253 0.02261 0.0
C2492 C 0.17775 0.00574 0.02241 0.0
C2493 C 0.16324 0.99447 0.02905 0.0
C2494 C 0.15072 0.00319 0.03772 0.0
C2495 C 0.19352 0.99824 0.01943 0.0
C2496 C 0.19284 0.98228 0.00468 0.0
C2497 C 0.20911 0.00649 0.03201 0.0
C2498 C 0.21029 0.02246 0.0487 0.0
C2499 C 0.19899 0.02029 0.06328 0.0
C2500 C 0.2003 0.03534 0.07905 0.0
C2501 C 0.21305 0.05254 0.08053 0.0
C2502 C 0.22452 0.05471 0.06626 0.0
C2503 C 0.22318 0.03973 0.0504 0.0
H2504 H 0.21408 0.06415 0.09279 0.0
H2505 H 0.2095 0.91192 0.94971 0.0
H2506 H 0.74582 0.62927 0.99439 0.0
H2507 H 0.71621 0.60864 0.99341 0.0
H2508 H 0.69519 0.65919 0.00646 0.0
H2509 H 0.72463 0.67973 0.0079 0.0
H2510 H 0.68256 0.63568 0.02819 0.0
H2511 H 0.68855 0.62828 0.96047 0.0
H2512 H 0.70223 0.62027 0.93054 0.0
H2513 H 0.697 0.56219 0.9389 0.0
H2514 H 0.68348 0.56993 0.96903 0.0
H2515 H 0.59155 0.59436 0.01131 0.0
H2516 H 0.62142 0.61201 0.00888 0.0
H2517 H 0.63774 0.55844 0.99613 0.0
H2518 H 0.60758 0.54061 0.99804 0.0
H2519 H 0.65349 0.58182 0.9748 0.0
H2520 H 0.64683 0.58958 0.04249 0.0
H2521 H 0.63362 0.59821 0.0726 0.0
H2522 H 0.64021 0.6564 0.06413 0.0
H2523 H 0.65336 0.64808 0.03389 0.0
C2524 C 0.73486 0.63597 0.99691 0.0
C2525 C 0.73768 0.6562 0.00129 0.0
C2526 C 0.71787 0.62414 0.99625 0.0
C2527 C 0.70329 0.63226 0.99975 0.0
C2528 C 0.70613 0.65246 0.00378 0.0
C2529 C 0.72304 0.66424 0.00455 0.0
C2530 C 0.68522 0.61998 1.00018 0.0
C2531 C 0.67615 0.62408 0.01636 0.0
C2532 C 0.67692 0.60437 0.98509 0.0
C2533 C 0.6852 0.59975 0.96711 0.0
C2534 C 0.69047 0.61385 0.95602 0.0
C2535 C 0.69816 0.60935 0.939 0.0
C2536 C 0.70053 0.59075 0.93285 0.0
C2537 C 0.69519 0.5766 0.9437 0.0
C2538 C 0.6875 0.58104 0.96074 0.0
C2539 C 0.60142 0.58624 0.00785 0.0
C2540 C 0.59705 0.56596 0.00494 0.0
C2541 C 0.61862 0.59642 0.00661 0.0
C2542 C 0.6321 0.58669 0.00281 0.0
C2543 C 0.62768 0.56639 0.99921 0.0
C2544 C 0.61035 0.55614 1.00023 0.0
C2545 C 0.65072 0.59777 0.00268 0.0
C2546 C 0.65992 0.5934 0.98663 0.0
C2547 C 0.65916 0.61323 0.01787 0.0
C2548 C 0.65092 0.61814 0.03583 0.0
C2549 C 0.64531 0.60416 0.04696 0.0
C2550 C 0.63786 0.60901 0.06407 0.0
C2551 C 0.636 0.62782 0.07024 0.0
C2552 C 0.64162 0.64183 0.05932 0.0
C2553 C 0.64909 0.63706 0.04221 0.0
H2554 H 0.63024 0.63154 0.0835 0.0
H2555 H 0.70647 0.58728 0.91966 0.0
H2556 H 0.71356 0.46867 0.27904 0.0
H2557 H 0.7308 0.44444 0.2818 0.0
H2558 H 0.68988 0.40062 0.24583 0.0
H2559 H 0.67266 0.42438 0.24362 0.0
H2560 H 0.7002 0.38197 0.26735 0.0
H2561 H 0.73535 0.42262 0.23292 0.0
H2562 H 0.75196 0.45293 0.22522 0.0
H2563 H 0.78741 0.46252 0.2763 0.0
H2564 H 0.77081 0.43237 0.28447 0.0
H2565 H 0.75799 0.31385 0.24692 0.0
H2566 H 0.74196 0.33893 0.24299 0.0
H2567 H 0.76656 0.3726 0.2978 0.0
H2568 H 0.78137 0.34693 0.30235 0.0
H2569 H 0.76495 0.39576 0.26569 0.0
H2570 H 0.72721 0.34996 0.29635 0.0
H2571 H 0.70981 0.31776 0.29843 0.0
H2572 H 0.67817 0.3155 0.24629 0.0
H2573 H 0.69567 0.34754 0.24365 0.0
C2574 C 0.70819 0.45393 0.2716 0.0
C2575 C 0.69136 0.44908 0.261 0.0
C2576 C 0.71826 0.43978 0.27308 0.0
C2577 C 0.71221 0.41998 0.26386 0.0
C2578 C 0.6954 0.41531 0.25335 0.0
C2579 C 0.68538 0.4293 0.25199 0.0
C2580 C 0.72293 0.40422 0.26509 0.0
C2581 C 0.71434 0.38524 0.26674 0.0
C2582 C 0.74158 0.40739 0.26425 0.0
C2583 C 0.7517 0.42541 0.25945 0.0
C2584 C 0.74661 0.43128 0.24259 0.0
C2585 C 0.75602 0.44842 0.23813 0.0
C2586 C 0.77068 0.45969 0.25031 0.0
C2587 C 0.77601 0.4538 0.26692 0.0
C2588 C 0.7666 0.43669 0.27147 0.0
C2589 C 0.76042 0.3268 0.25797 0.0
C2590 C 0.77202 0.32843 0.27459 0.0
C2591 C 0.75098 0.34126 0.25578 0.0
C2592 C 0.75287 0.35833 0.26994 0.0
C2593 C 0.76471 0.36007 0.28634 0.0
C2594 C 0.77357 0.3453 0.28883 0.0
C2595 C 0.7422 0.37385 0.26818 0.0
C2596 C 0.75081 0.39268 0.26635 0.0
C2597 C 0.72348 0.37029 0.26807 0.0
C2598 C 0.71295 0.35104 0.26965 0.0
C2599 C 0.7167 0.34251 0.28518 0.0
C2600 C 0.70679 0.3243 0.28649 0.0
C2601 C 0.69294 0.31455 0.27245 0.0
C2602 C 0.68894 0.32304 0.25712 0.0
C2603 C 0.69887 0.34122 0.2557 0.0
H2604 H 0.68528 0.30045 0.27349 0.0
H2605 H 0.77795 0.47297 0.24683 0.0
H2606 H 0.86491 0.50394 0.53356 0.0
H2607 H 0.89519 0.5098 0.52433 0.0
H2608 H 0.89831 0.45315 0.533 0.0
H2609 H 0.86878 0.44792 0.5434 0.0
H2610 H 0.92596 0.47982 0.54977 0.0
H2611 H 0.89495 0.46208 0.48267 0.0
H2612 H 0.87558 0.46616 0.45577 0.0
H2613 H 0.90045 0.52659 0.46599 0.0
H2614 H 0.92006 0.52275 0.49275 0.0
H2615 H 0.00484 0.47272 0.51553 0.0
H2616 H 0.97249 0.4636 0.5095 0.0
H2617 H 0.97161 0.5233 0.51239 0.0
H2618 H 0.00304 0.53238 0.51941 0.0
H2619 H 0.94295 0.49536 0.48707 0.0
H2620 H 0.97222 0.51576 0.55224 0.0
H2621 H 0.99471 0.51508 0.57772 0.0
H2622 H 0.97376 0.45428 0.57283 0.0
H2623 H 0.95134 0.45459 0.54705 0.0
C2624 C 0.87247 0.49318 0.53418 0.0
C2625 C 0.86502 0.47581 0.53973 0.0
C2626 C 0.88941 0.49625 0.52838 0.0
C2627 C 0.89865 0.48168 0.52755 0.0
C2628 C 0.89126 0.4645 0.53351 0.0
C2629 C 0.87463 0.46169 0.53982 0.0
C2630 C 0.91671 0.48474 0.52231 0.0
C2631 C 0.92952 0.48278 0.53587 0.0
C2632 C 0.9215 0.48959 0.5046 0.0
C2633 C 0.90872 0.49218 0.4898 0.0
C2634 C 0.89607 0.47626 0.47931 0.0
C2635 C 0.88516 0.47851 0.46401 0.0
C2636 C 0.88674 0.49664 0.45922 0.0
C2637 C 0.89921 0.51257 0.46973 0.0
C2638 C 0.91024 0.51036 0.48492 0.0
C2639 C 0.99764 0.4837 0.51439 0.0
C2640 C 0.00635 0.50318 0.51767 0.0
C2641 C 0.97938 0.4785 0.51059 0.0
C2642 C 0.96997 0.49286 0.51033 0.0
C2643 C 0.97879 0.51207 0.51211 0.0
C2644 C 0.99683 0.51724 0.51629 0.0
C2645 C 0.95159 0.48911 0.51403 0.0
C2646 C 0.93903 0.49169 0.50062 0.0
C2647 C 0.94698 0.48533 0.53208 0.0
C2648 C 0.9603 0.48513 0.54764 0.0
C2649 C 0.97253 0.50223 0.55651 0.0
C2650 C 0.98524 0.50192 0.57101 0.0
C2651 C 0.9857 0.48464 0.57687 0.0
C2652 C 0.97342 0.46764 0.56826 0.0
C2653 C 0.96072 0.46787 0.5537 0.0
H2654 H 0.99553 0.48442 0.58812 0.0
H2655 H 0.87835 0.49833 0.44732 0.0
H2656 H 0.41507 0.10644 0.30514 0.0
H2657 H 0.39887 0.12757 0.29279 0.0
H2658 H 0.35187 0.10001 0.31536 0.0
H2659 H 0.36792 0.07847 0.32743 0.0
H2660 H 0.34814 0.1032 0.27508 0.0
H2661 H 0.37102 0.14166 0.33916 0.0
H2662 H 0.3975 0.15133 0.36247 0.0
H2663 H 0.42635 0.18156 0.32311 0.0
H2664 H 0.40006 0.17175 0.29941 0.0
H2665 H 0.2922 0.1635 0.26471 0.0
H2666 H 0.31063 0.14675 0.28124 0.0
H2667 H 0.35706 0.17941 0.26173 0.0
H2668 H 0.33867 0.19643 0.2456 0.0
H2669 H 0.36244 0.17408 0.29971 0.0
H2670 H 0.34011 0.13831 0.23638 0.0
H2671 H 0.31629 0.12462 0.21008 0.0
H2672 H 0.28916 0.08688 0.24459 0.0
H2673 H 0.31266 0.1007 0.27132 0.0
C2674 C 0.40151 0.10545 0.30818 0.0
C2675 C 0.3927 0.09115 0.31743 0.0
C2676 C 0.39222 0.11718 0.30078 0.0
C2677 C 0.37427 0.11496 0.30308 0.0
C2678 C 0.36572 0.10156 0.31336 0.0
C2679 C 0.37494 0.0897 0.32061 0.0
C2680 C 0.36451 0.12722 0.29531 0.0
C2681 C 0.35102 0.11865 0.28054 0.0
C2682 C 0.36891 0.14729 0.30225 0.0
C2683 C 0.38353 0.15621 0.31764 0.0
C2684 C 0.38291 0.15072 0.33566 0.0
C2685 C 0.39793 0.15604 0.34884 0.0
C2686 C 0.41359 0.16709 0.34429 0.0
C2687 C 0.41418 0.17307 0.32664 0.0
C2688 C 0.3992 0.16771 0.31335 0.0
C2689 C 0.30631 0.16681 0.26385 0.0
C2690 C 0.31415 0.18052 0.2535 0.0
C2691 C 0.31678 0.15761 0.27348 0.0
C2692 C 0.33507 0.16193 0.2725 0.0
C2693 C 0.34296 0.17607 0.26262 0.0
C2694 C 0.3325 0.1854 0.25316 0.0
C2695 C 0.34559 0.15 0.27976 0.0
C2696 C 0.35939 0.15864 0.2943 0.0
C2697 C 0.34165 0.12993 0.27236 0.0
C2698 C 0.32808 0.12065 0.25591 0.0
C2699 C 0.32905 0.12712 0.23838 0.0
C2700 C 0.31558 0.11937 0.22342 0.0
C2701 C 0.30119 0.10493 0.22568 0.0
C2702 C 0.30031 0.0981 0.24288 0.0
C2703 C 0.3137 0.10588 0.25794 0.0
H2704 H 0.29074 0.09899 0.2141 0.0
H2705 H 0.42528 0.171 0.35442 0.0
H2706 H 0.33874 0.15946 0.53032 0.0
H2707 H 0.36449 0.14615 0.53555 0.0
H2708 H 0.37502 0.14594 0.47659 0.0
H2709 H 0.34959 0.15956 0.47133 0.0
H2710 H 0.37463 0.11061 0.48842 0.0
H2711 H 0.4016 0.17744 0.50807 0.0
H2712 H 0.40564 0.2108 0.52591 0.0
H2713 H 0.41129 0.19194 0.57938 0.0
H2714 H 0.407 0.15839 0.56186 0.0
H2715 H 0.45214 0.07641 0.50148 0.0
H2716 H 0.43261 0.09622 0.49244 0.0
H2717 H 0.42502 0.11354 0.55223 0.0
H2718 H 0.44534 0.09488 0.56131 0.0
H2719 H 0.42566 0.14232 0.53681 0.0
H2720 H 0.39491 0.07479 0.51705 0.0
H2721 H 0.39021 0.04138 0.49897 0.0
H2722 H 0.3912 0.06155 0.44569 0.0
H2723 H 0.39609 0.0951 0.46349 0.0
C2724 C 0.34655 0.15661 0.51848 0.0
C2725 C 0.34203 0.16049 0.50038 0.0
C2726 C 0.36133 0.14913 0.52152 0.0
C2727 C 0.37172 0.14514 0.50647 0.0
C2728 C 0.36721 0.14894 0.4884 0.0
C2729 C 0.35266 0.15673 0.48544 0.0
C2730 C 0.3868 0.13618 0.50934 0.0
C2731 C 0.38593 0.11764 0.49881 0.0
C2732 C 0.40143 0.14527 0.52302 0.0
C2733 C 0.40373 0.16536 0.53365 0.0
C2734 C 0.40348 0.18036 0.52364 0.0
C2735 C 0.40587 0.19932 0.5337 0.0
C2736 C 0.40865 0.20348 0.55378 0.0
C2737 C 0.40909 0.18869 0.56383 0.0
C2738 C 0.40668 0.1697 0.55384 0.0
C2739 C 0.44658 0.08477 0.51269 0.0
C2740 C 0.45011 0.08381 0.53209 0.0
C2741 C 0.43519 0.0959 0.5075 0.0
C2742 C 0.42684 0.10601 0.52158 0.0
C2743 C 0.43107 0.10577 0.54101 0.0
C2744 C 0.44259 0.09489 0.54619 0.0
C2745 C 0.41326 0.11635 0.51635 0.0
C2746 C 0.41442 0.13525 0.52636 0.0
C2747 C 0.39881 0.10753 0.50224 0.0
C2748 C 0.39608 0.08743 0.4916 0.0
C2749 C 0.39426 0.07209 0.50149 0.0
C2750 C 0.39154 0.05314 0.49129 0.0
C2751 C 0.39046 0.04935 0.4712 0.0
C2752 C 0.39208 0.06451 0.46125 0.0
C2753 C 0.39482 0.08349 0.47138 0.0
H2754 H 0.38833 0.03467 0.46333 0.0
H2755 H 0.41052 0.21817 0.56153 0.0
H2756 H 0.67177 0.58527 0.27703 0.0
H2757 H 0.68948 0.6176 0.2784 0.0
H2758 H 0.73463 0.59454 0.26534 0.0
H2759 H 0.7168 0.56168 0.26471 0.0
H2760 H 0.74653 0.6279 0.28915 0.0
H2761 H 0.70717 0.61258 0.23051 0.0
H2762 H 0.6782 0.60198 0.21141 0.0
H2763 H 0.66034 0.64763 0.246 0.0
H2764 H 0.68925 0.65853 0.26531 0.0
H2765 H 0.79523 0.71734 0.26673 0.0
H2766 H 0.77982 0.68406 0.26696 0.0
H2767 H 0.73196 0.70262 0.27735 0.0
H2768 H 0.74718 0.73568 0.27687 0.0
H2769 H 0.72203 0.67101 0.25415 0.0
H2770 H 0.75946 0.68697 0.31265 0.0
H2771 H 0.78719 0.69809 0.33404 0.0
H2772 H 0.80735 0.65237 0.30285 0.0
H2773 H 0.7798 0.64111 0.28111 0.0
C2774 C 0.68548 0.58683 0.27445 0.0
C2775 C 0.69255 0.57032 0.27063 0.0
C2776 C 0.69573 0.60566 0.27505 0.0
C2777 C 0.71361 0.60916 0.27138 0.0
C2778 C 0.72094 0.59274 0.26809 0.0
C2779 C 0.71065 0.57373 0.26773 0.0
C2780 C 0.7243 0.62972 0.27093 0.0
C2781 C 0.7412 0.6371 0.28115 0.0
C2782 C 0.71757 0.6426 0.26119 0.0
C2783 C 0.70032 0.63629 0.24939 0.0
C2784 C 0.69704 0.62033 0.23406 0.0
C2785 C 0.68063 0.61426 0.2232 0.0
C2786 C 0.66739 0.62406 0.22753 0.0
C2787 C 0.67059 0.64004 0.24267 0.0
C2788 C 0.68701 0.64621 0.25352 0.0
C2789 C 0.7815 0.71452 0.26928 0.0
C2790 C 0.77279 0.72981 0.27191 0.0
C2791 C 0.77253 0.69519 0.26947 0.0
C2792 C 0.75442 0.69017 0.27239 0.0
C2793 C 0.74577 0.70548 0.27498 0.0
C2794 C 0.75469 0.72471 0.27478 0.0
C2795 C 0.74434 0.66926 0.27233 0.0
C2796 C 0.72748 0.66182 0.26205 0.0
C2797 C 0.751 0.65648 0.28226 0.0
C2798 C 0.76765 0.66332 0.29513 0.0
C2799 C 0.76987 0.67939 0.31025 0.0
C2800 C 0.78554 0.6857 0.32246 0.0
C2801 C 0.79905 0.67598 0.31978 0.0
C2802 C 0.79689 0.65991 0.30489 0.0
C2803 C 0.78125 0.65355 0.29262 0.0
H2804 H 0.81116 0.68086 0.32926 0.0
H2805 H 0.65468 0.6193 0.21913 0.0
H2806 H 0.90111 0.47714 0.78766 0.0
H2807 H 0.88363 0.44601 0.79081 0.0
H2808 H 0.84262 0.45121 0.75003 0.0
H2809 H 0.85958 0.48368 0.74855 0.0
H2810 H 0.82921 0.43972 0.78029 0.0
H2811 H 0.87233 0.42262 0.73831 0.0
H2812 H 0.90268 0.42467 0.72957 0.0
H2813 H 0.91559 0.4027 0.77941 0.0
H2814 H 0.88546 0.40095 0.78871 0.0
H2815 H 0.7903 0.33913 0.75406 0.0
H2816 H 0.7992 0.37426 0.76297 0.0
H2817 H 0.84332 0.36986 0.80005 0.0
H2818 H 0.83727 0.33576 0.7865 0.0
H2819 H 0.85405 0.38196 0.77166 0.0
H2820 H 0.81056 0.40047 0.8149 0.0
H2821 H 0.78017 0.39991 0.8233 0.0
H2822 H 0.76721 0.41609 0.77021 0.0
H2823 H 0.79763 0.41783 0.76185 0.0
C2824 C 0.88861 0.47135 0.77896 0.0
C2825 C 0.88163 0.48224 0.76755 0.0
C2826 C 0.87861 0.45371 0.78086 0.0
C2827 C 0.86202 0.4464 0.77044 0.0
C2828 C 0.85545 0.45683 0.75813 0.0
C2829 C 0.86518 0.47498 0.75693 0.0
C2830 C 0.85152 0.42791 0.77272 0.0
C2831 C 0.83451 0.42696 0.77845 0.0
C2832 C 0.85872 0.4116 0.77044 0.0
C2833 C 0.87663 0.41176 0.76426 0.0
C2834 C 0.88164 0.41826 0.74743 0.0
C2835 C 0.89883 0.41942 0.74241 0.0
C2836 C 0.91106 0.41385 0.75394 0.0
C2837 C 0.90611 0.40702 0.77049 0.0
C2838 C 0.88898 0.40594 0.77564 0.0
C2839 C 0.80168 0.3459 0.76438 0.0
C2840 C 0.8128 0.33506 0.77051 0.0
C2841 C 0.80644 0.36585 0.76998 0.0
C2842 C 0.82193 0.37463 0.78226 0.0
C2843 C 0.83131 0.36329 0.7906 0.0
C2844 C 0.82776 0.34381 0.7832 0.0
C2845 C 0.83184 0.39369 0.78049 0.0
C2846 C 0.84873 0.3947 0.77426 0.0
C2847 C 0.82447 0.40988 0.78236 0.0
C2848 C 0.80634 0.40922 0.78773 0.0
C2849 C 0.80122 0.40389 0.80502 0.0
C2850 C 0.78401 0.40332 0.80976 0.0
C2851 C 0.77172 0.40751 0.79716 0.0
C2852 C 0.77671 0.41275 0.77993 0.0
C2853 C 0.79398 0.41378 0.77529 0.0
H2854 H 0.75838 0.40687 0.80083 0.0
H2855 H 0.92437 0.4148 0.75005 0.0
H2856 H 0.07726 0.87046 0.10762 0.0
H2857 H 0.07252 0.89907 0.09615 0.0
H2858 H 0.07022 0.86919 0.03746 0.0
H2859 H 0.07527 0.84082 0.04881 0.0
H2860 H 0.08712 0.90452 0.0394 0.0
H2861 H 0.03228 0.87615 0.06028 0.0
H2862 H 0.01268 0.86274 0.08299 0.0
H2863 H 0.02662 0.91728 0.12244 0.0
H2864 H 0.04651 0.93094 0.10006 0.0
H2865 H 0.05283 0.97292 0.99782 0.0
H2866 H 0.05489 0.94274 0.00787 0.0
H2867 H 0.05847 0.97106 0.06733 0.0
H2868 H 0.05587 1.00101 0.05716 0.0
H2869 H 0.04013 0.93567 0.06389 0.0
H2870 H 0.09533 0.96366 0.04128 0.0
H2871 H 0.11415 0.97586 0.01735 0.0
H2872 H 0.0984 0.92049 0.97944 0.0
H2873 H 0.07919 0.90808 0.00297 0.0
C2874 C 0.07588 0.87 0.09227 0.0
C2875 C 0.0766 0.85312 0.07922 0.0
C2876 C 0.07301 0.88639 0.08567 0.0
C2877 C 0.07065 0.88641 0.06581 0.0
C2878 C 0.07189 0.86976 0.05282 0.0
C2879 C 0.07475 0.8534 0.05939 0.0
C2880 C 0.06668 0.90355 0.05854 0.0
C2881 C 0.07669 0.91114 0.04464 0.0
C2882 C 0.05318 0.91254 0.06528 0.0
C2883 C 0.04102 0.90449 0.0786 0.0
C2884 C 0.03124 0.88525 0.07385 0.0
C2885 C 0.02007 0.87761 0.08665 0.0
C2886 C 0.01846 0.88913 0.10418 0.0
C2887 C 0.02792 0.90836 0.10888 0.0
C2888 C 0.03913 0.91606 0.09614 0.0
C2889 C 0.05365 0.97253 0.01301 0.0
C2890 C 0.05385 0.98923 0.02668 0.0
C2891 C 0.05504 0.9553 0.01881 0.0
C2892 C 0.05727 0.95451 0.03848 0.0
C2893 C 0.05684 0.9711 0.0521 0.0
C2894 C 0.05529 0.98826 0.04629 0.0
C2895 C 0.06073 0.93681 0.04496 0.0
C2896 C 0.05058 0.92907 0.05867 0.0
C2897 C 0.07399 0.92756 0.03786 0.0
C2898 C 0.08568 0.935 0.02381 0.0
C2899 C 0.09579 0.95413 0.02779 0.0
C2900 C 0.10654 0.96108 0.0143 0.0
C2901 C 0.10746 0.94896 0.99688 0.0
C2902 C 0.09766 0.92986 0.99293 0.0
C2903 C 0.08683 0.92287 0.00633 0.0
H2904 H 0.1158 0.95437 0.98647 0.0
H2905 H 0.00985 0.88317 0.1141 0.0
H2906 H 0.97539 0.25382 0.87207 0.0
H2907 H 0.94985 0.25339 0.85008 0.0
H2908 H 0.92428 0.27604 0.89828 0.0
H2909 H 0.94935 0.276 0.92017 0.0
H2910 H 0.90058 0.25099 0.87536 0.0
H2911 H 0.94565 0.30424 0.86618 0.0
H2912 H 0.97511 0.32021 0.85896 0.0
H2913 H 0.96639 0.28426 0.80257 0.0
H2914 H 0.93693 0.26789 0.80957 0.0
H2915 H 0.83658 0.28744 0.82911 0.0
H2916 H 0.86194 0.28349 0.84792 0.0
H2917 H 0.88163 0.25901 0.79605 0.0
H2918 H 0.85649 0.26352 0.77704 0.0
H2919 H 0.90831 0.28255 0.81901 0.0
H2920 H 0.86106 0.23074 0.82952 0.0
H2921 H 0.83149 0.21743 0.83856 0.0
H2922 H 0.84436 0.25389 0.89448 0.0
H2923 H 0.87401 0.26752 0.88588 0.0
C2924 C 0.96427 0.25857 0.878 0.0
C2925 C 0.9646 0.26501 0.89799 0.0
C2926 C 0.94966 0.25847 0.86536 0.0
C2927 C 0.93502 0.26496 0.87234 0.0
C2928 C 0.93524 0.27095 0.89234 0.0
C2929 C 0.94974 0.27099 0.90492 0.0
C2930 C 0.91957 0.26585 0.85907 0.0
C2931 C 0.90236 0.25804 0.86313 0.0
C2932 C 0.92159 0.27475 0.84283 0.0
C2933 C 0.93917 0.28472 0.83846 0.0
C2934 C 0.95006 0.29967 0.85228 0.0
C2935 C 0.96675 0.30879 0.84823 0.0
C2936 C 0.97264 0.30322 0.83033 0.0
C2937 C 0.96182 0.28854 0.81644 0.0
C2938 C 0.94512 0.27934 0.82043 0.0
C2939 C 0.84624 0.28123 0.82151 0.0
C2940 C 0.84428 0.27604 0.80123 0.0
C2941 C 0.86081 0.2788 0.83245 0.0
C2942 C 0.8738 0.27064 0.8236 0.0
C2943 C 0.87191 0.26536 0.80339 0.0
C2944 C 0.85738 0.26798 0.79241 0.0
C2945 C 0.88934 0.26787 0.83544 0.0
C2946 C 0.90656 0.27532 0.83111 0.0
C2947 C 0.88734 0.25891 0.85166 0.0
C2948 C 0.86971 0.25025 0.857 0.0
C2949 C 0.85759 0.23594 0.84374 0.0
C2950 C 0.84082 0.22834 0.84877 0.0
C2951 C 0.83603 0.23489 0.86698 0.0
C2952 C 0.84809 0.24886 0.88035 0.0
C2953 C 0.86489 0.2565 0.87544 0.0
H2954 H 0.82294 0.22922 0.87067 0.0
H2955 H 0.98557 0.3103 0.82722 0.0
H2956 H 0.60631 0.25435 0.57352 0.0
H2957 H 0.59828 0.22027 0.55882 0.0
H2958 H 0.5434 0.21946 0.56373 0.0
H2959 H 0.5515 0.25368 0.57929 0.0
H2960 H 0.54967 0.18998 0.57509 0.0
H2961 H 0.56298 0.21422 0.51772 0.0
H2962 H 0.5807 0.23369 0.49742 0.0
H2963 H 0.6228 0.2056 0.505 0.0
H2964 H 0.60537 0.18605 0.52544 0.0
H2965 H 0.52792 0.09104 0.53384 0.0
H2966 H 0.52943 0.12516 0.53719 0.0
H2967 H 0.58518 0.1356 0.53168 0.0
H2968 H 0.58314 0.1015 0.52643 0.0
H2969 H 0.57473 0.1605 0.51776 0.0
H2970 H 0.5635 0.13972 0.57834 0.0
H2971 H 0.54631 0.11998 0.59883 0.0
H2972 H 0.50116 0.14175 0.5858 0.0
H2973 H 0.51805 0.16148 0.56509 0.0
C2974 C 0.59248 0.24706 0.5713 0.0
C2975 C 0.57958 0.2569 0.5777 0.0
C2976 C 0.58786 0.22746 0.56266 0.0
C2977 C 0.57015 0.2171 0.55976 0.0
C2978 C 0.55716 0.227 0.5657 0.0
C2979 C 0.56181 0.24664 0.57457 0.0
C2980 C 0.56545 0.19574 0.55197 0.0
C2981 C 0.5549 0.18362 0.56232 0.0
C2982 C 0.57246 0.18712 0.53552 0.0
C2983 C 0.58293 0.1988 0.5232 0.0
C2984 C 0.57606 0.21228 0.51513 0.0
C2985 C 0.58604 0.2233 0.50358 0.0
C2986 C 0.60288 0.22092 0.49996 0.0
C2987 C 0.60975 0.20744 0.50782 0.0
C2988 C 0.59982 0.19635 0.51934 0.0
C2989 C 0.54053 0.10039 0.53315 0.0
C2990 C 0.55569 0.093 0.53079 0.0
C2991 C 0.5414 0.12017 0.53527 0.0
C2992 C 0.55762 0.13338 0.53581 0.0
C2993 C 0.57248 0.12597 0.53188 0.0
C2994 C 0.57141 0.10611 0.52913 0.0
C2995 C 0.5594 0.15477 0.54121 0.0
C2996 C 0.56936 0.16689 0.53041 0.0
C2997 C 0.55198 0.16341 0.55735 0.0
C2998 C 0.54197 0.1519 0.57008 0.0
C2999 C 0.54989 0.14024 0.57984 0.0
C3000 C 0.5402 0.12906 0.59146 0.0
C3001 C 0.52264 0.12958 0.59357 0.0
C3002 C 0.51475 0.14135 0.58413 0.0
C3003 C 0.52438 0.15254 0.57247 0.0
H3004 H 0.51516 0.12089 0.60256 0.0
H3005 H 0.61059 0.22949 0.49104 0.0
H3006 H 0.58182 0.74813 0.41763 0.0
H3007 H 0.60745 0.75276 0.39944 0.0
H3008 H 0.58515 0.78964 0.36901 0.0
H3009 H 0.55909 0.78452 0.38683 0.0
H3010 H 0.59824 0.76711 0.34462 0.0
H3011 H 0.62193 0.80672 0.4068 0.0
H3012 H 0.62901 0.81352 0.44204 0.0
H3013 H 0.65884 0.77006 0.43665 0.0
H3014 H 0.65182 0.7629 0.4014 0.0
H3015 H 0.67304 0.81048 0.30376 0.0
H3016 H 0.6478 0.80194 0.3215 0.0
H3017 H 0.6748 0.76745 0.3503 0.0
H3018 H 0.70083 0.77708 0.33322 0.0
H3019 H 0.65959 0.78647 0.37566 0.0
H3020 H 0.63679 0.74756 0.31346 0.0
H3021 H 0.62966 0.74063 0.27823 0.0
H3022 H 0.59798 0.78235 0.28371 0.0
H3023 H 0.60501 0.78961 0.31894 0.0
C3024 C 0.58231 0.75727 0.40709 0.0
C3025 C 0.56826 0.76594 0.40376 0.0
C3026 C 0.59716 0.76005 0.39676 0.0
C3027 C 0.5986 0.77188 0.38297 0.0
C3028 C 0.58453 0.78049 0.37955 0.0
C3029 C 0.56956 0.77755 0.38978 0.0
C3030 C 0.61439 0.77472 0.37165 0.0
C3031 C 0.61164 0.77161 0.3515 0.0
C3032 C 0.63204 0.77988 0.38034 0.0
C3033 C 0.63621 0.78416 0.40151 0.0
C3034 C 0.6299 0.79853 0.41316 0.0
C3035 C 0.63392 0.80247 0.43312 0.0
C3036 C 0.64432 0.7922 0.44158 0.0
C3037 C 0.65077 0.778 0.43008 0.0
C3038 C 0.64679 0.77401 0.41012 0.0
C3039 C 0.67369 0.80099 0.3138 0.0
C3040 C 0.68917 0.79462 0.31707 0.0
C3041 C 0.65901 0.79587 0.32385 0.0
C3042 C 0.65901 0.78371 0.33719 0.0
C3043 C 0.67427 0.77679 0.3401 0.0
C3044 C 0.68914 0.78212 0.33013 0.0
C3045 C 0.64343 0.77915 0.3486 0.0
C3046 C 0.64621 0.78188 0.36876 0.0
C3047 C 0.62577 0.77358 0.33994 0.0
C3048 C 0.62153 0.76921 0.31879 0.0
C3049 C 0.62838 0.75532 0.30712 0.0
C3050 C 0.62433 0.75132 0.28717 0.0
C3051 C 0.6134 0.76107 0.27873 0.0
C3052 C 0.60644 0.77481 0.29025 0.0
C3053 C 0.61042 0.77884 0.31021 0.0
H3054 H 0.6103 0.75797 0.26328 0.0
H3055 H 0.64742 0.79526 0.45704 0.0
H3056 H 0.10102 0.257 0.3974 0.0
H3057 H 0.09656 0.23151 0.41626 0.0
H3058 H 0.06878 0.26413 0.45553 0.0
H3059 H 0.0739 0.28989 0.43736 0.0
H3060 H 0.0898 0.24987 0.47457 0.0
H3061 H 0.04651 0.22501 0.41926 0.0
H3062 H 0.0382 0.2171 0.38421 0.0
H3063 H 0.07148 0.17701 0.37758 0.0
H3064 H 0.08009 0.18482 0.41262 0.0
H3065 H 0.03932 0.18322 0.52044 0.0
H3066 H 0.04995 0.20633 0.50081 0.0
H3067 H 0.07493 0.16594 0.46734 0.0
H3068 H 0.06211 0.14146 0.48498 0.0
H3069 H 0.05909 0.18267 0.44431 0.0
H3070 H 0.09979 0.2075 0.5026 0.0
H3071 H 0.10765 0.2184 0.53763 0.0
H3072 H 0.07681 0.2607 0.53855 0.0
H3073 H 0.0688 0.25004 0.50356 0.0
C3074 C 0.09406 0.2587 0.41014 0.0
C3075 C 0.08775 0.27531 0.41597 0.0
C3076 C 0.09145 0.24414 0.4208 0.0
C3077 C 0.08211 0.24585 0.43709 0.0
C3078 C 0.07605 0.26258 0.44302 0.0
C3079 C 0.07896 0.27726 0.43262 0.0
C3080 C 0.07845 0.23031 0.44809 0.0
C3081 C 0.08301 0.23519 0.46798 0.0
C3082 C 0.06993 0.21113 0.43936 0.0
C3083 C 0.064 0.20555 0.4185 0.0
C3084 C 0.05202 0.21448 0.41031 0.0
C3085 C 0.04728 0.21004 0.39046 0.0
C3086 C 0.05434 0.19658 0.37867 0.0
C3087 C 0.06603 0.18742 0.38674 0.0
C3088 C 0.07081 0.19181 0.4066 0.0
C3089 C 0.04663 0.17882 0.50865 0.0
C3090 C 0.04938 0.16003 0.50431 0.0
C3091 C 0.05314 0.19238 0.49768 0.0
C3092 C 0.06348 0.18798 0.48279 0.0
C3093 C 0.06695 0.16963 0.4788 0.0
C3094 C 0.0598 0.1557 0.48925 0.0
C3095 C 0.07007 0.20238 0.47099 0.0
C3096 C 0.06611 0.19726 0.4509 0.0
C3097 C 0.07884 0.22155 0.47955 0.0
C3098 C 0.08367 0.22792 0.50054 0.0
C3099 C 0.09466 0.21907 0.51032 0.0
C3100 C 0.09916 0.22523 0.53014 0.0
C3101 C 0.09272 0.24021 0.54031 0.0
C3102 C 0.08181 0.24911 0.53067 0.0
C3103 C 0.07734 0.24307 0.51084 0.0
H3104 H 0.09619 0.24493 0.55567 0.0
H3105 H 0.05072 0.19324 0.36328 0.0
H3106 H 0.54178 0.25653 0.20298 0.0
H3107 H 0.57113 0.25793 0.21795 0.0
H3108 H 0.59193 0.25846 0.16287 0.0
H3109 H 0.56245 0.25577 0.14776 0.0
H3110 H 0.60309 0.23424 0.17906 0.0
H3111 H 0.5978 0.29951 0.20136 0.0
H3112 H 0.58333 0.32407 0.21763 0.0
H3113 H 0.5894 0.30468 0.27074 0.0
H3114 H 0.60349 0.2797 0.25471 0.0
H3115 H 0.69054 0.24685 0.22016 0.0
H3116 H 0.66495 0.25259 0.20304 0.0
H3117 H 0.63866 0.25494 0.25504 0.0
H3118 H 0.66476 0.25093 0.27261 0.0
H3119 H 0.63219 0.28077 0.23808 0.0
H3120 H 0.63302 0.21365 0.21654 0.0
H3121 H 0.64447 0.18623 0.201 0.0
H3122 H 0.64441 0.20655 0.14783 0.0
H3123 H 0.63335 0.23434 0.16317 0.0
C3124 C 0.5527 0.25708 0.19419 0.0
C3125 C 0.55005 0.25607 0.17432 0.0
C3126 C 0.56943 0.25801 0.20272 0.0
C3127 C 0.58376 0.25871 0.19156 0.0
C3128 C 0.58106 0.25801 0.17173 0.0
C3129 C 0.56428 0.25648 0.16314 0.0
C3130 C 0.60138 0.25893 0.20022 0.0
C3131 C 0.60962 0.24464 0.19178 0.0
C3132 C 0.60962 0.27221 0.21707 0.0
C3133 C 0.60159 0.28763 0.22677 0.0
C3134 C 0.59596 0.30041 0.21648 0.0
C3135 C 0.58781 0.3144 0.22566 0.0
C3136 C 0.58541 0.31591 0.24519 0.0
C3137 C 0.59123 0.30348 0.25561 0.0
C3138 C 0.5993 0.28941 0.24648 0.0
C3139 C 0.67943 0.24896 0.22804 0.0
C3140 C 0.67962 0.24833 0.24774 0.0
C3141 C 0.66473 0.25198 0.21816 0.0
C3142 C 0.64979 0.25381 0.22767 0.0
C3143 C 0.65005 0.25347 0.24739 0.0
C3144 C 0.66487 0.25089 0.25736 0.0
C3145 C 0.63364 0.25572 0.21723 0.0
C3146 C 0.62575 0.27052 0.22522 0.0
C3147 C 0.62555 0.24269 0.20014 0.0
C3148 C 0.63266 0.22626 0.19111 0.0
C3149 C 0.63569 0.21242 0.20161 0.0
C3150 C 0.64207 0.19679 0.19282 0.0
C3151 C 0.64524 0.19469 0.17346 0.0
C3152 C 0.64203 0.20823 0.16285 0.0
C3153 C 0.63575 0.22395 0.17159 0.0
H3154 H 0.65013 0.18254 0.16667 0.0
H3155 H 0.57908 0.32673 0.25226 0.0
H3156 H 0.60485 0.85375 0.92325 0.0
H3157 H 0.60502 0.88257 0.94693 0.0
H3158 H 0.59325 0.91148 0.90149 0.0
H3159 H 0.59316 0.88264 0.8775 0.0
H3160 H 0.61573 0.93604 0.93191 0.0
H3161 H 0.56148 0.88753 0.92001 0.0
H3162 H 0.53979 0.85685 0.91844 0.0
H3163 H 0.55138 0.86069 0.97904 0.0
H3164 H 0.5736 0.89106 0.98085 0.0
H3165 H 0.56318 0.99713 0.9723 0.0
H3166 H 0.57795 0.97478 0.95408 0.0
H3167 H 0.58097 0.94721 0.00291 0.0
H3168 H 0.56341 0.96738 0.01976 0.0
H3169 H 0.56729 0.92301 0.97338 0.0
H3170 H 0.61802 0.97688 0.98486 0.0
H3171 H 0.63267 0.01061 0.98449 0.0
H3172 H 0.62232 0.99952 0.92299 0.0
H3173 H 0.6073 0.96586 0.92299 0.0
C3174 C 0.60259 0.86633 0.91822 0.0
C3175 C 0.59869 0.86592 0.89856 0.0
C3176 C 0.60281 0.88276 0.93177 0.0
C3177 C 0.599 0.89889 0.92582 0.0
C3178 C 0.59628 0.89905 0.90619 0.0
C3179 C 0.59607 0.88257 0.89257 0.0
C3180 C 0.59541 0.91442 0.94005 0.0
C3181 C 0.60527 0.93333 0.94118 0.0
C3182 C 0.58172 0.9106 0.95198 0.0
C3183 C 0.56959 0.89136 0.95045 0.0
C3184 C 0.55979 0.88158 0.93289 0.0
C3185 C 0.5473 0.86429 0.93199 0.0
C3186 C 0.54428 0.85676 0.9486 0.0
C3187 C 0.55383 0.86645 0.96614 0.0
C3188 C 0.56644 0.88364 0.96709 0.0
C3189 C 0.56627 0.98575 0.97878 0.0
C3190 C 0.56162 0.98343 0.99715 0.0
C3191 C 0.57547 0.97359 0.96872 0.0
C3192 C 0.58097 0.95974 0.97739 0.0
C3193 C 0.57701 0.95805 0.99611 0.0
C3194 C 0.56702 0.96952 0.00573 0.0
C3195 C 0.58784 0.94474 0.96582 0.0
C3196 C 0.57837 0.92582 0.96489 0.0
C3197 C 0.60156 0.94875 0.95393 0.0
C3198 C 0.61152 0.96876 0.95392 0.0
C3199 C 0.61888 0.9816 0.97124 0.0
C3200 C 0.62722 1.00074 0.97111 0.0
C3201 C 0.62842 0.00718 0.95372 0.0
C3202 C 0.62142 0.99448 0.93643 0.0
C3203 C 0.61303 0.97536 0.93649 0.0
H3204 H 0.63471 0.02202 0.95364 0.0
H3205 H 0.53448 0.84348 0.94791 0.0
H3206 H 0.94499 0.7203 0.68525 0.0
H3207 H 0.92063 0.72324 0.70499 0.0
H3208 H 0.93611 0.7852 0.71208 0.0
H3209 H 0.96035 0.7825 0.69266 0.0
H3210 H 0.9323 0.77385 0.74597 0.0
H3211 H 0.90206 0.76259 0.68365 0.0
H3212 H 0.89091 0.74618 0.65034 0.0
H3213 H 0.86187 0.69744 0.67077 0.0
H3214 H 0.87313 0.71345 0.70426 0.0
H3215 H 0.85725 0.81181 0.74409 0.0
H3216 H 0.88375 0.80001 0.74044 0.0
H3217 H 0.86239 0.75356 0.76895 0.0
H3218 H 0.83664 0.76704 0.77498 0.0
H3219 H 0.86877 0.74855 0.72388 0.0
H3220 H 0.89691 0.7709 0.78924 0.0
H3221 H 0.90653 0.79556 0.81897 0.0
H3222 H 0.93778 0.83334 0.78726 0.0
H3223 H 0.92827 0.80897 0.75734 0.0
C3224 C 0.94314 0.73452 0.69101 0.0
C3225 C 0.95469 0.7512 0.68775 0.0
C3226 C 0.92925 0.73614 0.70218 0.0
C3227 C 0.92688 0.75442 0.71009 0.0
C3228 C 0.93802 0.771 0.70628 0.0
C3229 C 0.95181 0.76941 0.69517 0.0
C3230 C 0.91315 0.75664 0.72287 0.0
C3231 C 0.91838 0.76813 0.74127 0.0
C3232 C 0.89511 0.74903 0.71658 0.0
C3233 C 0.88881 0.73901 0.69644 0.0
C3234 C 0.89357 0.74821 0.68103 0.0
C3235 C 0.88716 0.73903 0.66212 0.0
C3236 C 0.87579 0.72071 0.65842 0.0
C3237 C 0.87077 0.71157 0.67365 0.0
C3238 C 0.87719 0.72069 0.6926 0.0
C3239 C 0.85869 0.80006 0.75084 0.0
C3240 C 0.84521 0.79076 0.7603 0.0
C3241 C 0.87375 0.79313 0.74855 0.0
C3242 C 0.8749 0.77609 0.75461 0.0
C3243 C 0.86174 0.76698 0.76461 0.0
C3244 C 0.84709 0.7746 0.76787 0.0
C3245 C 0.88796 0.7662 0.74666 0.0
C3246 C 0.88268 0.75331 0.729 0.0
C3247 C 0.90594 0.7735 0.75307 0.0
C3248 C 0.9119 0.78808 0.77108 0.0
C3249 C 0.9058 0.78449 0.78861 0.0
C3250 C 0.91125 0.79841 0.8055 0.0
C3251 C 0.92277 0.816 0.80501 0.0
C3252 C 0.9289 0.81969 0.78763 0.0
C3253 C 0.92353 0.8058 0.77072 0.0
H3254 H 0.92694 0.82677 0.81808 0.0
H3255 H 0.8708 0.71365 0.64377 0.0
H3256 H 0.15699 0.01314 0.83274 0.0
H3257 H 0.14417 0.01489 0.86371 0.0
H3258 H 0.09224 0.00313 0.83385 0.0
H3259 H 0.10499 0.00232 0.80335 0.0
H3260 H 0.09022 0.0262 0.86234 0.0
H3261 H 0.11233 0.96976 0.85923 0.0
H3262 H 0.13387 0.94943 0.85651 0.0
H3263 H 0.16483 0.98569 0.90698 0.0
H3264 H 0.14358 0.00639 0.90984 0.0
H3265 H 0.04331 0.00823 0.94449 0.0
H3266 H 0.05627 0.00391 0.91384 0.0
H3267 H 0.1081 0.02705 0.94382 0.0
H3268 H 0.09522 0.03131 0.97446 0.0
H3269 H 0.1097 0.99761 0.91562 0.0
H3270 H 0.08507 0.05336 0.91769 0.0
H3271 H 0.06116 0.0706 0.92017 0.0
H3272 H 0.03209 0.03126 0.87029 0.0
H3273 H 0.05572 0.0136 0.86771 0.0
C3274 C 0.14283 0.01084 0.83273 0.0
C3275 C 0.13222 0.00757 0.81511 0.0
C3276 C 0.13535 0.0117 0.85065 0.0
C3277 C 0.11689 0.00894 0.85176 0.0
C3278 C 0.10642 0.00551 0.83407 0.0
C3279 C 0.11386 0.00493 0.81632 0.0
C3280 C 0.10837 0.01008 0.87093 0.0
C3281 C 0.09447 0.0196 0.87373 0.0
C3282 C 0.11355 1.00188 0.88651 0.0
C3283 C 0.12651 0.98975 0.8846 0.0
C3284 C 0.12383 0.9735 0.86963 0.0
C3285 C 0.13596 0.9619 0.86808 0.0
C3286 C 0.15074 0.96631 0.88153 0.0
C3287 C 0.1534 0.98232 0.89655 0.0
C3288 C 0.14133 0.994 0.89814 0.0
C3289 C 0.05745 0.01228 0.94475 0.0
C3290 C 0.06798 0.02017 0.96244 0.0
C3291 C 0.06497 0.00993 0.92695 0.0
C3292 C 0.08339 0.01533 0.926 0.0
C3293 C 0.09393 0.02271 0.9437 0.0
C3294 C 0.08642 0.02519 0.96143 0.0
C3295 C 0.09172 0.01368 0.90683 0.0
C3296 C 0.10552 0.00411 0.90409 0.0
C3297 C 0.08619 0.02142 0.89113 0.0
C3298 C 0.07208 0.03209 0.8926 0.0
C3299 C 0.07353 0.04833 0.90733 0.0
C3300 C 0.06003 0.05817 0.90875 0.0
C3301 C 0.0451 0.05201 0.89541 0.0
C3302 C 0.04365 0.03601 0.88062 0.0
C3303 C 0.05709 0.02608 0.87917 0.0
H3304 H 0.03467 0.05967 0.89652 0.0
H3305 H 0.16011 0.95728 0.88033 0.0
H3306 H 0.85374 0.41231 0.55534 0.0
H3307 H 0.85247 0.39597 0.58254 0.0
H3308 H 0.79564 0.37965 0.5726 0.0
H3309 H 0.79688 0.39713 0.54607 0.0
H3310 H 0.80478 0.39221 0.60884 0.0
H3311 H 0.8225 0.34686 0.56052 0.0
H3312 H 0.84061 0.33671 0.53506 0.0
H3313 H 0.8867 0.35452 0.57573 0.0
H3314 H 0.86891 0.36504 0.60138 0.0
H3315 H 0.80694 0.31372 0.66312 0.0
H3316 H 0.80014 0.33373 0.64056 0.0
H3317 H 0.85136 0.37234 0.65712 0.0
H3318 H 0.85813 0.35257 0.67964 0.0
H3319 H 0.84216 0.34665 0.61705 0.0
H3320 H 0.8238 0.39241 0.66512 0.0
H3321 H 0.80545 0.40339 0.6899 0.0
H3322 H 0.75965 0.38396 0.64886 0.0
H3323 H 0.77766 0.37245 0.62392 0.0
C3324 C 0.84102 0.40498 0.55882 0.0
C3325 C 0.82541 0.40578 0.54869 0.0
C3326 C 0.84028 0.39564 0.57431 0.0
C3327 C 0.82395 0.38635 0.57935 0.0
C3328 C 0.80835 0.38676 0.5689 0.0
C3329 C 0.80907 0.39659 0.55375 0.0
C3330 C 0.82321 0.37676 0.59597 0.0
C3331 C 0.81268 0.38195 0.61049 0.0
C3332 C 0.83373 0.36361 0.59815 0.0
C3333 C 0.84437 0.35679 0.58285 0.0
C3334 C 0.8365 0.34865 0.56402 0.0
C3335 C 0.84672 0.34285 0.54956 0.0
C3336 C 0.8648 0.34499 0.55377 0.0
C3337 C 0.87269 0.35287 0.57249 0.0
C3338 C 0.86254 0.35872 0.587 0.0
C3339 C 0.81635 0.32699 0.66254 0.0
C3340 C 0.8331 0.33165 0.67279 0.0
C3341 C 0.81247 0.33835 0.64973 0.0
C3342 C 0.82532 0.35436 0.6473 0.0
C3343 C 0.84132 0.36005 0.659 0.0
C3344 C 0.84518 0.34877 0.67174 0.0
C3345 C 0.82397 0.36234 0.62993 0.0
C3346 C 0.83407 0.35671 0.61523 0.0
C3347 C 0.81294 0.37486 0.62756 0.0
C3348 C 0.80204 0.38124 0.64273 0.0
C3349 C 0.80976 0.39013 0.66146 0.0
C3350 C 0.79943 0.39654 0.67552 0.0
C3351 C 0.78138 0.39429 0.67099 0.0
C3352 C 0.77362 0.38563 0.65238 0.0
C3353 C 0.78388 0.37914 0.63828 0.0
H3354 H 0.77342 0.39933 0.68188 0.0
H3355 H 0.87269 0.34051 0.54255 0.0
H3356 H 0.44965 0.03434 0.3214 0.0
H3357 H 0.47408 0.04443 0.34635 0.0
H3358 H 0.44022 0.02081 0.38646 0.0
H3359 H 0.41516 0.01161 0.36156 0.0
H3360 H 0.45736 0.05788 0.4002 0.0
H3361 H 0.47199 1.00004 0.36681 0.0
H3362 H 0.47826 0.97888 0.33808 0.0
H3363 H 0.52331 0.02269 0.33188 0.0
H3364 H 0.51704 0.04433 0.36031 0.0
H3365 H 0.50226 0.03633 0.47183 0.0
H3366 H 0.48644 0.03924 0.44323 0.0
H3367 H 0.53429 0.07068 0.42521 0.0
H3368 H 0.55091 0.06731 0.45436 0.0
H3369 H 0.51511 0.04024 0.39759 0.0
H3370 H 0.50325 0.09413 0.43812 0.0
H3371 H 0.49663 0.11206 0.46867 0.0
H3372 H 0.4459 0.07294 0.46365 0.0
H3373 H 0.45236 0.0544 0.4334 0.0
C3374 C 0.44742 0.03102 0.33546 0.0
C3375 C 0.4305 0.02257 0.33978 0.0
C3376 C 0.46143 0.03674 0.34965 0.0
C3377 C 0.45883 0.03348 0.36817 0.0
C3378 C 0.44229 0.02358 0.37217 0.0
C3379 C 0.4281 0.0181 0.35796 0.0
C3380 C 0.47316 0.04143 0.38362 0.0
C3381 C 0.46999 0.05402 0.39975 0.0
C3382 C 0.48988 0.03716 0.3823 0.0
C3383 C 0.4939 0.02391 0.36553 0.0
C3384 C 0.48314 0.00523 0.35923 0.0
C3385 C 0.48669 0.99315 0.34299 0.0
C3386 C 0.50113 0.99946 0.33311 0.0
C3387 C 0.51209 0.01784 0.33951 0.0
C3388 C 0.50854 0.03003 0.35567 0.0
C3389 C 0.50965 0.04396 0.462 0.0
C3390 C 0.52796 0.05136 0.46524 0.0
C3391 C 0.50044 0.04585 0.44571 0.0
C3392 C 0.50917 0.05564 0.4325 0.0
C3393 C 0.52742 0.06334 0.43558 0.0
C3394 C 0.53683 0.06129 0.45205 0.0
C3395 C 0.4989 0.05563 0.41471 0.0
C3396 C 0.50274 0.04469 0.39785 0.0
C3397 C 0.48268 0.06119 0.4155 0.0
C3398 C 0.47829 0.07291 0.43329 0.0
C3399 C 0.49067 0.08932 0.4435 0.0
C3400 C 0.48698 0.09955 0.46083 0.0
C3401 C 0.47085 0.09367 0.46807 0.0
C3402 C 0.45838 0.07752 0.458 0.0
C3403 C 0.46205 0.06715 0.44071 0.0
H3404 H 0.46803 0.10163 0.48149 0.0
H3405 H 0.50385 0.99009 0.32054 0.0
H3406 H 0.80845 0.70057 0.06635 0.0
H3407 H 0.8091 0.71434 0.10046 0.0
H3408 H 0.78691 0.75994 0.08584 0.0
H3409 H 0.78669 0.74654 0.0516 0.0
H3410 H 0.81218 0.77316 0.11584 0.0
H3411 H 0.7607 0.71954 0.09837 0.0
H3412 H 0.74668 0.68551 0.08424 0.0
H3413 H 0.7784 0.66713 0.12518 0.0
H3414 H 0.79274 0.70104 0.1394 0.0
H3415 H 0.79202 0.806 0.20966 0.0
H3416 H 0.78901 0.79385 0.17486 0.0
H3417 H 0.79962 0.74019 0.18484 0.0
H3418 H 0.80054 0.75167 0.21946 0.0
H3419 H 0.77909 0.73127 0.1561 0.0
H3420 H 0.83207 0.78266 0.17288 0.0
H3421 H 0.8508 0.81549 0.18425 0.0
H3422 H 0.82077 0.83706 0.14445 0.0
H3423 H 0.80176 0.80447 0.13301 0.0
C3424 C 0.8038 0.7136 0.07037 0.0
C3425 C 0.79727 0.72232 0.05628 0.0
C3426 C 0.80414 0.72142 0.08988 0.0
C3427 C 0.79764 0.73789 0.09569 0.0
C3428 C 0.79185 0.74712 0.08166 0.0
C3429 C 0.79169 0.73943 0.06211 0.0
C3430 C 0.79628 0.74508 0.11634 0.0
C3431 C 0.80478 0.76413 0.12467 0.0
C3432 C 0.78702 0.7331 0.1279 0.0
C3433 C 0.7778 0.71279 0.11991 0.0
C3434 C 0.76466 0.70822 0.10435 0.0
C3435 C 0.75668 0.68897 0.09631 0.0
C3436 C 0.76165 0.67417 0.1038 0.0
C3437 C 0.77455 0.6786 0.1194 0.0
C3438 C 0.78258 0.69783 0.12749 0.0
C3439 C 0.79303 0.79137 0.20426 0.0
C3440 C 0.79589 0.77948 0.21703 0.0
C3441 C 0.79173 0.78455 0.1844 0.0
C3442 C 0.79461 0.76624 0.17703 0.0
C3443 C 0.79726 0.75432 0.18997 0.0
C3444 C 0.79775 0.76082 0.20977 0.0
C3445 C 0.79529 0.75952 0.156 0.0
C3446 C 0.78654 0.74048 0.14747 0.0
C3447 C 0.80471 0.77143 0.14436 0.0
C3448 C 0.81543 0.79118 0.15219 0.0
C3449 C 0.82933 0.79446 0.16674 0.0
C3450 C 0.84002 0.813 0.17315 0.0
C3451 C 0.83697 0.82829 0.16502 0.0
C3452 C 0.8231 0.82518 0.1507 0.0
C3453 C 0.81238 0.8067 0.14426 0.0
H3454 H 0.84543 0.84252 0.16963 0.0
H3455 H 0.7555 0.65927 0.09751 0.0
H3456 H 0.12421 0.03957 0.72601 0.0
H3457 H 0.10927 0.04103 0.69574 0.0
H3458 H 0.12179 0.98805 0.66914 0.0
H3459 H 0.13764 0.98689 0.69985 0.0
H3460 H 0.12512 0.00904 0.64388 0.0
H3461 H 0.07621 0.99421 0.68008 0.0
H3462 H 0.05879 0.99736 0.7079 0.0
H3463 H 0.05806 0.05522 0.7026 0.0
H3464 H 0.07556 0.05245 0.67479 0.0
H3465 H 0.07677 0.00518 0.55668 0.0
H3466 H 0.08509 0.99847 0.58736 0.0
H3467 H 0.07194 0.05027 0.61613 0.0
H3468 H 0.0604 0.05511 0.58505 0.0
H3469 H 0.06824 0.02843 0.64033 0.0
H3470 H 0.11917 0.04244 0.60423 0.0
H3471 H 0.13445 0.03686 0.57498 0.0
H3472 H 0.12978 0.9778 0.57972 0.0
H3473 H 0.11437 0.98302 0.60891 0.0
C3474 C 0.12383 0.02799 0.7139 0.0
C3475 C 0.13239 0.01304 0.71594 0.0
C3476 C 0.11493 0.02878 0.6963 0.0
C3477 C 0.11371 0.01449 0.67962 0.0
C3478 C 0.12221 0.9994 0.68148 0.0
C3479 C 0.13133 0.99866 0.69926 0.0
C3480 C 0.10437 0.01598 0.66039 0.0
C3481 C 0.11255 0.01301 0.64327 0.0
C3482 C 0.08794 0.02147 0.65886 0.0
C3483 C 0.07732 0.02317 0.67547 0.0
C3484 C 0.07241 0.00764 0.68491 0.0
C3485 C 0.0625 0.00934 0.70065 0.0
C3486 C 0.05736 0.02649 0.70704 0.0
C3487 C 0.06205 0.04195 0.69764 0.0
C3488 C 0.07193 0.0403 0.68186 0.0
C3489 C 0.0752 0.01521 0.56931 0.0
C3490 C 0.06832 0.03138 0.56753 0.0
C3491 C 0.08055 0.01149 0.58729 0.0
C3492 C 0.08066 0.02447 0.6047 0.0
C3493 C 0.07281 0.04009 0.60324 0.0
C3494 C 0.0664 0.04318 0.5851 0.0
C3495 C 0.08916 0.02175 0.6239 0.0
C3496 C 0.08083 0.0245 0.641 0.0
C3497 C 0.10539 0.01588 0.62543 0.0
C3498 C 0.11563 0.01312 0.60869 0.0
C3499 C 0.12151 0.02831 0.59907 0.0
C3500 C 0.13013 0.02519 0.58248 0.0
C3501 C 0.13307 0.00698 0.57549 0.0
C3502 C 0.12751 0.99189 0.58516 0.0
C3503 C 0.11889 0.99494 0.60176 0.0
H3504 H 0.13967 0.00457 0.56258 0.0
H3505 H 0.04972 0.0278 0.71926 0.0
H3506 H 0.85215 0.40525 0.47589 0.0
H3507 H 0.84714 0.37676 0.45005 0.0
H3508 H 0.80207 0.39277 0.42553 0.0
H3509 H 0.8066 0.42077 0.45179 0.0
H3510 H 0.79438 0.35558 0.42574 0.0
H3511 H 0.84149 0.4016 0.4079 0.0
H3512 H 0.87042 0.42471 0.41335 0.0
H3513 H 0.89602 0.37891 0.4182 0.0
H3514 H 0.86716 0.35557 0.41327 0.0
H3515 H 0.78647 0.32178 0.32716 0.0
H3516 H 0.79128 0.33902 0.36052 0.0
H3517 H 0.82779 0.30507 0.37336 0.0
H3518 H 0.82294 0.28774 0.33954 0.0
H3519 H 0.84097 0.34546 0.38298 0.0
H3520 H 0.79019 0.29864 0.39373 0.0
H3521 H 0.76017 0.27858 0.38336 0.0
H3522 H 0.74023 0.32952 0.3863 0.0
H3523 H 0.77016 0.34989 0.39649 0.0
C3524 C 0.84139 0.40282 0.46476 0.0
C3525 C 0.82984 0.41515 0.46555 0.0
C3526 C 0.83844 0.3865 0.45018 0.0
C3527 C 0.82422 0.38273 0.43599 0.0
C3528 C 0.81298 0.39537 0.43652 0.0
C3529 C 0.81571 0.41144 0.45129 0.0
C3530 C 0.82132 0.36595 0.42013 0.0
C3531 C 0.80458 0.35327 0.41645 0.0
C3532 C 0.83472 0.36297 0.40819 0.0
C3533 C 0.85214 0.37687 0.4105 0.0
C3534 C 0.85327 0.39646 0.41027 0.0
C3535 C 0.86966 0.40961 0.41328 0.0
C3536 C 0.88505 0.4033 0.4162 0.0
C3537 C 0.88408 0.38379 0.41601 0.0
C3538 C 0.86771 0.3706 0.41313 0.0
C3539 C 0.79515 0.31772 0.3373 0.0
C3540 C 0.80427 0.30354 0.33128 0.0
C3541 C 0.79785 0.32745 0.35625 0.0
C3542 C 0.80968 0.32303 0.36932 0.0
C3543 C 0.81847 0.3084 0.36339 0.0
C3544 C 0.81568 0.29856 0.34431 0.0
C3545 C 0.81403 0.3353 0.38849 0.0
C3546 C 0.83102 0.34729 0.39275 0.0
C3547 C 0.8007 0.338 0.40057 0.0
C3548 C 0.78244 0.3258 0.39599 0.0
C3549 C 0.77939 0.30557 0.39228 0.0
C3550 C 0.76239 0.29414 0.38638 0.0
C3551 C 0.7483 0.30277 0.38419 0.0
C3552 C 0.75116 0.32285 0.38806 0.0
C3553 C 0.76813 0.33435 0.39399 0.0
H3554 H 0.73518 0.2939 0.37948 0.0
H3555 H 0.89772 0.4135 0.41854 0.0
H3556 H 0.46274 0.04403 0.27185 0.0
H3557 H 0.47472 0.03541 0.24133 0.0
H3558 H 0.42629 0.03728 0.21034 0.0
H3559 H 0.41404 0.04565 0.2407 0.0
H3560 H 0.44334 0.006 0.19434 0.0
H3561 H 0.45608 0.07605 0.21931 0.0
H3562 H 0.46701 0.10244 0.24739 0.0
H3563 H 0.51741 0.08811 0.24921 0.0
H3564 H 0.50663 0.06133 0.2214 0.0
H3565 H 0.48061 0.00736 0.10819 0.0
H3566 H 0.46482 0.02175 0.13373 0.0
H3567 H 0.51093 0.03213 0.17419 0.0
H3568 H 0.52657 0.01787 0.14871 0.0
H3569 H 0.49243 0.05854 0.18383 0.0
H3570 H 0.48365 0.99048 0.16342 0.0
H3571 H 0.47559 0.9598 0.13997 0.0
H3572 H 0.42179 0.9643 0.13487 0.0
H3573 H 0.42977 0.99578 0.15733 0.0
C3574 C 0.45466 0.04267 0.25855 0.0
C3575 C 0.43765 0.04603 0.25861 0.0
C3576 C 0.4614 0.03746 0.24121 0.0
C3577 C 0.45132 0.03587 0.2238 0.0
C3578 C 0.43413 0.03843 0.22375 0.0
C3579 C 0.42733 0.04354 0.24107 0.0
C3580 C 0.45958 0.03433 0.20583 0.0
C3581 C 0.45383 0.01755 0.19174 0.0
C3582 C 0.47353 0.04933 0.20303 0.0
C3583 C 0.48056 0.06673 0.21827 0.0
C3584 C 0.46953 0.07862 0.22562 0.0
C3585 C 0.47566 0.09357 0.24156 0.0
C3586 C 0.49289 0.09695 0.25008 0.0
C3587 C 0.50408 0.08549 0.24258 0.0
C3588 C 0.49797 0.07044 0.22671 0.0
C3589 C 0.48734 0.01316 0.1225 0.0
C3590 C 0.50436 0.01104 0.12704 0.0
C3591 C 0.47848 0.02151 0.13691 0.0
C3592 C 0.48668 0.02754 0.15579 0.0
C3593 C 0.50441 0.0274 0.15968 0.0
C3594 C 0.51321 0.01902 0.14532 0.0
C3595 C 0.47618 0.03018 0.17206 0.0
C3596 C 0.48156 0.04717 0.186 0.0
C3597 C 0.46235 0.01497 0.17502 0.0
C3598 C 0.45742 0.99582 0.16172 0.0
C3599 C 0.47017 0.98518 0.15702 0.0
C3600 C 0.46562 0.96765 0.14384 0.0
C3601 C 0.44821 0.96018 0.1358 0.0
C3602 C 0.43531 0.97021 0.14099 0.0
C3603 C 0.43988 0.98801 0.15379 0.0
H3604 H 0.44469 0.94657 0.12565 0.0
H3605 H 0.49759 0.10845 0.26249 0.0
H3606 H 0.81635 0.7287 0.97351 0.0
H3607 H 0.82545 0.74696 0.9483 0.0
H3608 H 0.77955 0.71339 0.91099 0.0
H3609 H 0.77024 0.69541 0.93598 0.0
H3610 H 0.81299 0.71414 0.89549 0.0
H3611 H 0.77974 0.75614 0.92966 0.0
H3612 H 0.77277 0.77851 0.95698 0.0
H3613 H 0.82327 0.81712 0.95828 0.0
H3614 H 0.83073 0.79475 0.93121 0.0
H3615 H 0.79629 0.75089 0.8152 0.0
H3616 H 0.7966 0.73934 0.84501 0.0
H3617 H 0.83817 0.78878 0.8709 0.0
H3618 H 0.83756 0.80086 0.84095 0.0
H3619 H 0.81403 0.78265 0.89495 0.0
H3620 H 0.84589 0.74268 0.85812 0.0
H3621 H 0.85171 0.72143 0.82915 0.0
H3622 H 0.8041 0.6797 0.83228 0.0
H3623 H 0.79785 0.70079 0.86109 0.0
C3624 C 0.80811 0.72537 0.96 0.0
C3625 C 0.79263 0.71049 0.95668 0.0
C3626 C 0.81331 0.73584 0.94567 0.0
C3627 C 0.8032 0.73141 0.9278 0.0
C3628 C 0.78755 0.71695 0.92469 0.0
C3629 C 0.78224 0.70671 0.93902 0.0
C3630 C 0.80922 0.74077 0.91171 0.0
C3631 C 0.81326 0.72913 0.89535 0.0
C3632 C 0.81019 0.7605 0.91189 0.0
C3633 C 0.80594 0.77356 0.92865 0.0
C3634 C 0.78951 0.76921 0.936 0.0
C3635 C 0.78543 0.78194 0.95139 0.0
C3636 C 0.7976 0.79918 0.95943 0.0
C3637 C 0.81389 0.80372 0.9521 0.0
C3638 C 0.81806 0.791 0.93676 0.0
C3639 C 0.80564 0.75938 0.8271 0.0
C3640 C 0.81666 0.77714 0.82569 0.0
C3641 C 0.80586 0.75262 0.8442 0.0
C3642 C 0.81757 0.76305 0.86018 0.0
C3643 C 0.82898 0.78052 0.85876 0.0
C3644 C 0.82855 0.78749 0.84163 0.0
C3645 C 0.81717 0.75581 0.87844 0.0
C3646 C 0.81428 0.7678 0.89524 0.0
C3647 C 0.81736 0.7364 0.87875 0.0
C3648 C 0.8214 0.72335 0.86179 0.0
C3649 C 0.83665 0.72898 0.85262 0.0
C3650 C 0.84001 0.71697 0.8362 0.0
C3651 C 0.82828 0.69923 0.82887 0.0
C3652 C 0.8132 0.69343 0.83799 0.0
C3653 C 0.80976 0.70539 0.85439 0.0
H3654 H 0.83088 0.68997 0.81613 0.0
H3655 H 0.79438 0.80906 0.97129 0.0
H3656 H 0.81185 0.09201 0.01746 0.0
H3657 H 0.83674 0.07702 0.01547 0.0
H3658 H 0.87263 0.1332 0.02634 0.0
H3659 H 0.8477 0.14847 0.02799 0.0
H3660 H 0.87843 0.10797 0.995 0.0
H3661 H 0.86679 0.10764 0.06091 0.0
H3662 H 0.84657 0.10049 0.08544 0.0
H3663 H 0.8363 0.04001 0.06112 0.0
H3664 H 0.85611 0.04681 0.03613 0.0
H3665 H 0.95407 0.07193 0.99957 0.0
H3666 H 0.93238 0.08999 0.01086 0.0
H3667 H 0.89254 0.03673 0.00298 0.0
H3668 H 0.91428 0.0186 0.99186 0.0
H3669 H 0.8899 0.06218 0.03563 0.0
H3670 H 0.89718 0.06058 0.96919 0.0
H3671 H 0.91198 0.0654 0.94015 0.0
H3672 H 0.92536 0.12664 0.96113 0.0
H3673 H 0.91124 0.12216 0.99069 0.0
C3674 C 0.82504 0.1012 0.01949 0.0
C3675 C 0.82797 0.12138 0.02292 0.0
C3676 C 0.83917 0.09262 0.01848 0.0
C3677 C 0.85632 0.10414 0.02115 0.0
C3678 C 0.85934 0.12425 0.02447 0.0
C3679 C 0.84518 0.13288 0.02536 0.0
C3680 C 0.87112 0.09507 0.01926 0.0
C3681 C 0.88134 0.09835 0.00417 0.0
C3682 C 0.87403 0.08194 0.03083 0.0
C3683 C 0.86294 0.07775 0.04659 0.0
C3684 C 0.86021 0.09281 0.06076 0.0
C3685 C 0.84877 0.08882 0.07472 0.0
C3686 C 0.84014 0.06981 0.07483 0.0
C3687 C 0.843 0.05473 0.06102 0.0
C3688 C 0.85435 0.05865 0.04696 0.0
C3689 C 0.9407 0.06415 1.00043 0.0
C3690 C 0.93556 0.04404 0.99458 0.0
C3691 C 0.92844 0.0744 0.00693 0.0
C3692 C 0.91099 0.06457 0.00756 0.0
C3693 C 0.90603 0.04442 0.00255 0.0
C3694 C 0.91828 0.03417 0.99596 0.0
C3695 C 0.8975 0.07539 0.01152 0.0
C3696 C 0.88737 0.07225 0.02683 0.0
C3697 C 0.89433 0.08837 0.99986 0.0
C3698 C 0.90347 0.09099 0.98239 0.0
C3699 C 0.90361 0.07505 0.96784 0.0
C3700 C 0.91184 0.07773 0.95124 0.0
C3701 C 0.91969 0.09631 0.94884 0.0
C3702 C 0.91937 0.11225 0.96306 0.0
C3703 C 0.91133 0.10964 0.97978 0.0
H3704 H 0.92594 0.09836 0.93591 0.0
H3705 H 0.83126 0.06675 0.08562 0.0
H3706 H 0.37246 0.40041 0.04689 0.0
H3707 H 0.40151 0.42157 0.04743 0.0
H3708 H 0.3774 0.46776 0.03858 0.0
H3709 H 0.34814 0.44648 0.0377 0.0
H3710 H 0.403 0.46527 0.01553 0.0
H3711 H 0.39869 0.46765 0.08302 0.0
H3712 H 0.39354 0.4541 0.11222 0.0
H3713 H 0.43583 0.42561 0.10248 0.0
H3714 H 0.44108 0.4388 0.0731 0.0
H3715 H 0.48453 0.53726 0.03494 0.0
H3716 H 0.45463 0.51919 0.03789 0.0
H3717 H 0.47432 0.46867 0.0409 0.0
H3718 H 0.50412 0.48658 0.03766 0.0
H3719 H 0.45063 0.47498 0.06801 0.0
H3720 H 0.45446 0.471 1.00059 0.0
H3721 H 0.45912 0.48241 0.9702 0.0
H3722 H 0.41761 0.51223 0.97882 0.0
H3723 H 0.4129 0.50127 0.00946 0.0
C3724 C 0.37328 0.4151 0.04516 0.0
C3725 C 0.35789 0.42171 0.04227 0.0
C3726 C 0.38997 0.42725 0.04558 0.0
C3727 C 0.39176 0.4464 0.0433 0.0
C3728 C 0.37642 0.45308 0.04044 0.0
C3729 C 0.35968 0.4409 0.04 0.0
C3730 C 0.4096 0.45916 0.04321 0.0
C3731 C 0.41329 0.46771 0.02722 0.0
C3732 C 0.42328 0.46194 0.05813 0.0
C3733 C 0.42018 0.45408 0.07581 0.0
C3734 C 0.40681 0.45839 0.08705 0.0
C3735 C 0.40388 0.45079 0.10364 0.0
C3736 C 0.41432 0.43897 0.10918 0.0
C3737 C 0.42774 0.43475 0.09817 0.0
C3738 C 0.43071 0.44231 0.08156 0.0
C3739 C 0.48253 0.52243 0.0366 0.0
C3740 C 0.49671 0.5134 0.03625 0.0
C3741 C 0.46541 0.51204 0.03807 0.0
C3742 C 0.46219 0.49252 0.03951 0.0
C3743 C 0.47645 0.48369 0.03981 0.0
C3744 C 0.49347 0.49394 0.03795 0.0
C3745 C 0.44396 0.48112 0.04038 0.0
C3746 C 0.44025 0.47276 0.05647 0.0
C3747 C 0.43029 0.47843 0.0255 0.0
C3748 C 0.43352 0.48559 0.00746 0.0
C3749 C 0.44651 0.48025 0.99616 0.0
C3750 C 0.44912 0.48657 0.97885 0.0
C3751 C 0.43873 0.49811 0.97262 0.0
C3752 C 0.4257 0.50335 0.98369 0.0
C3753 C 0.42306 0.49711 0.00104 0.0
H3754 H 0.44072 0.50294 0.95918 0.0
H3755 H 0.41203 0.43309 0.12203 0.0
H3756 H 0.42603 0.65153 0.78655 0.0
H3757 H 0.40843 0.67531 0.78695 0.0
H3758 H 0.36157 0.62986 0.76964 0.0
H3759 H 0.37947 0.60559 0.76895 0.0
H3760 H 0.35862 0.65799 0.75103 0.0
H3761 H 0.37427 0.6612 0.81843 0.0
H3762 H 0.39447 0.66522 0.84759 0.0
H3763 H 0.42061 0.72164 0.84002 0.0
H3764 H 0.40072 0.71785 0.81066 0.0
H3765 H 0.30075 0.72486 0.77996 0.0
H3766 H 0.31676 0.69974 0.78203 0.0
H3767 H 0.36447 0.73791 0.77259 0.0
H3768 H 0.34821 0.76196 0.76818 0.0
H3769 H 0.36602 0.71324 0.8057 0.0
H3770 H 0.35572 0.71098 0.73931 0.0
H3771 H 0.33921 0.70933 0.7083 0.0
H3772 H 0.3072 0.65404 0.71197 0.0
H3773 H 0.32328 0.65563 0.7434 0.0
C3774 C 0.41195 0.64626 0.78287 0.0
C3775 C 0.40453 0.62609 0.77779 0.0
C3776 C 0.40169 0.66021 0.78326 0.0
C3777 C 0.38321 0.65499 0.77873 0.0
C3778 C 0.37566 0.63482 0.7734 0.0
C3779 C 0.38602 0.62072 0.77305 0.0
C3780 C 0.37218 0.67049 0.77918 0.0
C3781 C 0.36009 0.66972 0.7633 0.0
C3782 C 0.37416 0.68682 0.79458 0.0
C3783 C 0.38611 0.68915 0.81224 0.0
C3784 C 0.38441 0.67441 0.82291 0.0
C3785 C 0.39579 0.67665 0.83948 0.0
C3786 C 0.40884 0.69365 0.84562 0.0
C3787 C 0.41051 0.70847 0.83523 0.0
C3788 C 0.39918 0.70628 0.81863 0.0
C3789 C 0.31442 0.72802 0.77782 0.0
C3790 C 0.32242 0.74592 0.77314 0.0
C3791 C 0.32386 0.71344 0.77931 0.0
C3792 C 0.34213 0.71637 0.77728 0.0
C3793 C 0.35048 0.73471 0.7741 0.0
C3794 C 0.34088 0.74881 0.77167 0.0
C3795 C 0.35235 0.7004 0.77775 0.0
C3796 C 0.36436 0.70123 0.79366 0.0
C3797 C 0.35069 0.68442 0.76224 0.0
C3798 C 0.34042 0.68363 0.74389 0.0
C3799 C 0.34489 0.69868 0.73374 0.0
C3800 C 0.33569 0.69771 0.71605 0.0
C3801 C 0.32215 0.68162 0.7082 0.0
C3802 C 0.31767 0.66652 0.71812 0.0
C3803 C 0.3268 0.66747 0.7359 0.0
H3804 H 0.31529 0.68082 0.69433 0.0
H3805 H 0.41764 0.69535 0.85846 0.0
H3806 H 0.22437 0.64156 0.51761 0.0
H3807 H 0.19399 0.62311 0.50835 0.0
H3808 H 0.20694 0.57439 0.52803 0.0
H3809 H 0.23756 0.59236 0.5361 0.0
H3810 H 0.17984 0.5633 0.49928 0.0
H3811 H 0.19784 0.61419 0.56108 0.0
H3812 H 0.20868 0.64839 0.5771 0.0
H3813 H 0.16902 0.66386 0.54294 0.0
H3814 H 0.15805 0.62982 0.52671 0.0
H3815 H 0.09706 0.52288 0.52293 0.0
H3816 H 0.12863 0.53643 0.53146 0.0
H3817 H 0.12174 0.59125 0.52032 0.0
H3818 H 0.09013 0.57821 0.51432 0.0
H3819 H 0.14664 0.59727 0.5461 0.0
H3820 H 0.12757 0.55199 0.48366 0.0
H3821 H 0.11242 0.51922 0.46639 0.0
H3822 H 0.14925 0.49542 0.49572 0.0
H3823 H 0.16445 0.52803 0.51333 0.0
C3824 C 0.22066 0.62684 0.51974 0.0
C3825 C 0.23276 0.61844 0.52832 0.0
C3826 C 0.20354 0.61627 0.51413 0.0
C3827 C 0.19839 0.59774 0.51807 0.0
C3828 C 0.21084 0.58879 0.52505 0.0
C3829 C 0.2281 0.59912 0.53004 0.0
C3830 C 0.17997 0.58946 0.51943 0.0
C3831 C 0.17244 0.57071 0.50932 0.0
C3832 C 0.17057 0.59925 0.53268 0.0
C3833 C 0.17722 0.61957 0.54268 0.0
C3834 C 0.19148 0.62493 0.55703 0.0
C3835 C 0.19763 0.64427 0.56612 0.0
C3836 C 0.18955 0.65829 0.56103 0.0
C3837 C 0.17527 0.65301 0.54687 0.0
C3838 C 0.16908 0.63372 0.53775 0.0
C3839 C 0.10242 0.53791 0.52301 0.0
C3840 C 0.0917 0.54977 0.51837 0.0
C3841 C 0.12027 0.54561 0.52782 0.0
C3842 C 0.12736 0.56462 0.52607 0.0
C3843 C 0.1164 0.57655 0.5219 0.0
C3844 C 0.09852 0.56913 0.51819 0.0
C3845 C 0.1461 0.57149 0.5253 0.0
C3846 C 0.15394 0.58985 0.5359 0.0
C3847 C 0.15527 0.56172 0.51173 0.0
C3848 C 0.14715 0.54241 0.49978 0.0
C3849 C 0.13253 0.53977 0.48626 0.0
C3850 C 0.12387 0.52122 0.47651 0.0
C3851 C 0.12987 0.50524 0.47996 0.0
C3852 C 0.14463 0.5078 0.49305 0.0
C3853 C 0.15329 0.52631 0.5029 0.0
H3854 H 0.12309 0.49089 0.47249 0.0
H3855 H 0.19434 0.67324 0.56808 0.0
H3856 H 0.68553 0.95738 0.7259 0.0
H3857 H 0.70435 0.94071 0.74189 0.0
H3858 H 0.74566 0.99297 0.75523 0.0
H3859 H 0.72761 0.00934 0.73886 0.0
H3860 H 0.75714 0.96323 0.73877 0.0
H3861 H 0.72586 0.97946 0.79221 0.0
H3862 H 0.69965 0.98307 0.80898 0.0
H3863 H 0.67865 0.92182 0.79442 0.0
H3864 H 0.70478 0.91786 0.77754 0.0
H3865 H 0.80738 0.93178 0.80935 0.0
H3866 H 0.79194 0.94832 0.78926 0.0
H3867 H 0.7513 0.89602 0.77037 0.0
H3868 H 0.76668 0.87947 0.79047 0.0
H3869 H 0.74014 0.92732 0.79063 0.0
H3870 H 0.7745 0.91423 0.73565 0.0
H3871 H 0.80069 0.91512 0.71763 0.0
H3872 H 0.81752 0.97638 0.73783 0.0
H3873 H 0.79143 0.97583 0.75591 0.0
C3874 C 0.69872 0.9651 0.732 0.0
C3875 C 0.70523 0.98439 0.73085 0.0
C3876 C 0.70926 0.95577 0.74135 0.0
C3877 C 0.72613 0.96587 0.74978 0.0
C3878 C 0.73261 0.98511 0.7487 0.0
C3879 C 0.72232 0.99428 0.73912 0.0
C3880 C 0.73774 0.95595 0.75829 0.0
C3881 C 0.75361 0.95557 0.75033 0.0
C3882 C 0.73287 0.94618 0.77325 0.0
C3883 C 0.71721 0.94837 0.78353 0.0
C3884 C 0.71561 0.96677 0.79252 0.0
C3885 C 0.7008 0.96888 0.80209 0.0
C3886 C 0.68748 0.95268 0.80274 0.0
C3887 C 0.68899 0.93434 0.79391 0.0
C3888 C 0.70383 0.93215 0.78441 0.0
C3889 C 0.7953 0.92384 0.8006 0.0
C3890 C 0.78785 0.90466 0.80159 0.0
C3891 C 0.7867 0.93313 0.78901 0.0
C3892 C 0.77062 0.92324 0.77849 0.0
C3893 C 0.76381 0.90368 0.77842 0.0
C3894 C 0.77248 0.89435 0.78989 0.0
C3895 C 0.7594 0.93408 0.77066 0.0
C3896 C 0.74366 0.93491 0.77904 0.0
C3897 C 0.7647 0.9449 0.75653 0.0
C3898 C 0.78121 0.94491 0.74734 0.0
C3899 C 0.78397 0.92781 0.73652 0.0
C3900 C 0.79872 0.92829 0.72617 0.0
C3901 C 0.81079 0.94578 0.72664 0.0
C3902 C 0.80819 0.96284 0.73751 0.0
C3903 C 0.79344 0.96245 0.74779 0.0
H3904 H 0.82213 0.94613 0.71852 0.0
H3905 H 0.676 0.95435 0.81011 0.0
H3906 H 0.73493 0.89748 0.55246 0.0
H3907 H 0.71151 0.91423 0.54801 0.0
H3908 H 0.74443 0.94994 0.51531 0.0
H3909 H 0.76805 0.93372 0.52026 0.0
H3910 H 0.72962 0.97113 0.53908 0.0
H3911 H 0.70822 0.90989 0.49486 0.0
H3912 H 0.69855 0.87446 0.48573 0.0
H3913 H 0.65782 0.87473 0.52385 0.0
H3914 H 0.66741 0.91015 0.5334 0.0
H3915 H 0.67285 0.01079 0.48944 0.0
H3916 H 0.69271 0.99252 0.49958 0.0
H3917 H 0.65186 0.96134 0.52812 0.0
H3918 H 0.63103 0.9783 0.51612 0.0
H3919 H 0.66881 0.93739 0.51115 0.0
H3920 H 0.68899 0.99905 0.55343 0.0
H3921 H 0.69867 0.03451 0.56209 0.0
H3922 H 0.74181 0.03333 0.52737 0.0
H3923 H 0.7323 0.9979 0.51837 0.0
C3924 C 0.7372 0.90894 0.54436 0.0
C3925 C 0.7534 0.91428 0.53673 0.0
C3926 C 0.72372 0.91841 0.54169 0.0
C3927 C 0.72604 0.93317 0.53105 0.0
C3928 C 0.74227 0.93858 0.52356 0.0
C3929 C 0.7558 0.9293 0.52641 0.0
C3930 C 0.71191 0.94352 0.52812 0.0
C3931 C 0.71637 0.96371 0.53279 0.0
C3932 C 0.69436 0.93391 0.52069 0.0
C3933 C 0.68869 0.91263 0.51503 0.0
C3934 C 0.69731 0.90237 0.50143 0.0
C3935 C 0.69182 0.8823 0.49615 0.0
C3936 C 0.67762 0.87234 0.50426 0.0
C3937 C 0.66885 0.88245 0.51762 0.0
C3938 C 0.6743 0.90252 0.52296 0.0
C3939 C 0.66781 0.99986 0.49758 0.0
C3940 C 0.65008 0.99596 0.50162 0.0
C3941 C 0.67943 0.98964 0.50378 0.0
C3942 C 0.67403 0.97582 0.51507 0.0
C3943 C 0.65644 0.97204 0.51954 0.0
C3944 C 0.64457 0.98196 0.51285 0.0
C3945 C 0.68674 0.96504 0.5215 0.0
C3946 C 0.682 0.94479 0.51762 0.0
C3947 C 0.70409 0.97457 0.52967 0.0
C3948 C 0.70988 0.99585 0.53518 0.0
C3949 C 0.70049 0.00637 0.54759 0.0
C3950 C 0.70596 0.02646 0.55256 0.0
C3951 C 0.72083 0.03617 0.54526 0.0
C3952 C 0.7303 0.0258 0.53302 0.0
C3953 C 0.7249 0.00572 0.52802 0.0
H3954 H 0.72502 0.05172 0.54911 0.0
H3955 H 0.67339 0.8568 0.50014 0.0
H3956 H 0.42312 0.49466 0.78153 0.0
H3957 H 0.40528 0.46219 0.77876 0.0
H3958 H 0.36093 0.47875 0.75376 0.0
H3959 H 0.37888 0.512 0.75717 0.0
H3960 H 0.34852 0.4549 0.77577 0.0
H3961 H 0.38781 0.44863 0.72676 0.0
H3962 H 0.41662 0.45256 0.71354 0.0
H3963 H 0.43401 0.42014 0.75263 0.0
H3964 H 0.40536 0.41616 0.7662 0.0
H3965 H 0.29925 0.35581 0.75089 0.0
H3966 H 0.31489 0.38892 0.75057 0.0
H3967 H 0.36316 0.37714 0.7721 0.0
H3968 H 0.34774 0.34393 0.77158 0.0
H3969 H 0.37266 0.39892 0.74965 0.0
H3970 H 0.33413 0.40653 0.79982 0.0
H3971 H 0.30575 0.40347 0.81393 0.0
H3972 H 0.28725 0.43374 0.77335 0.0
H3973 H 0.31545 0.43678 0.75887 0.0
C3974 C 0.40958 0.49162 0.77536 0.0
C3975 C 0.40271 0.5064 0.7695 0.0
C3976 C 0.39928 0.47267 0.7736 0.0
C3977 C 0.38159 0.46728 0.76552 0.0
C3978 C 0.37449 0.48208 0.75993 0.0
C3979 C 0.38484 0.50127 0.76186 0.0
C3980 C 0.37073 0.44644 0.76331 0.0
C3981 C 0.35378 0.44274 0.76974 0.0
C3982 C 0.37732 0.43005 0.75586 0.0
C3983 C 0.39448 0.4322 0.74757 0.0
C3984 C 0.39781 0.44241 0.73258 0.0
C3985 C 0.41411 0.44463 0.72502 0.0
C3986 C 0.42715 0.43663 0.73226 0.0
C3987 C 0.4239 0.42633 0.74704 0.0
C3988 C 0.40762 0.42405 0.75464 0.0
C3989 C 0.31316 0.36019 0.75565 0.0
C3990 C 0.3219 0.34678 0.76151 0.0
C3991 C 0.32224 0.37945 0.75561 0.0
C3992 C 0.34045 0.38634 0.7618 0.0
C3993 C 0.34922 0.37278 0.76728 0.0
C3994 C 0.34022 0.35351 0.76706 0.0
C3995 C 0.35048 0.4073 0.7624 0.0
C3996 C 0.36732 0.41104 0.75565 0.0
C3997 C 0.3438 0.42371 0.7696 0.0
C3998 C 0.32681 0.42171 0.77815 0.0
C3999 C 0.32395 0.4124 0.79383 0.0
C4000 C 0.30792 0.4107 0.8019 0.0
C4001 C 0.29469 0.41836 0.79451 0.0
C4002 C 0.29749 0.42778 0.77904 0.0
C4003 C 0.3135 0.42951 0.7709 0.0
H4004 H 0.28229 0.41705 0.8008 0.0
H4005 H 0.43977 0.43839 0.72641 0.0
H4006 H 0.19229 0.60408 0.22958 0.0
H4007 H 0.21274 0.63592 0.23704 0.0
H4008 H 0.25286 0.61123 0.25988 0.0
H4009 H 0.23276 0.57978 0.25293 0.0
H4010 H 0.25168 0.6476 0.2808 0.0
H4011 H 0.25129 0.61379 0.21292 0.0
H4012 H 0.23425 0.59771 0.18171 0.0
H4013 H 0.21521 0.64845 0.17901 0.0
H4014 H 0.23209 0.66476 0.21021 0.0
H4015 H 0.31323 0.73404 0.27693 0.0
H4016 H 0.30524 0.69862 0.26691 0.0
H4017 H 0.25371 0.70158 0.244 0.0
H4018 H 0.26136 0.73632 0.25474 0.0
H4019 H 0.26809 0.67288 0.22213 0.0
H4020 H 0.25656 0.70226 0.28712 0.0
H4021 H 0.26605 0.72158 0.31984 0.0
H4022 H 0.29994 0.68442 0.32985 0.0
H4023 H 0.29084 0.66506 0.297 0.0
C4024 C 0.20543 0.60555 0.2363 0.0
C4025 C 0.21115 0.58954 0.24027 0.0
C4026 C 0.21695 0.62362 0.24067 0.0
C4027 C 0.23418 0.62549 0.24869 0.0
C4028 C 0.23954 0.60979 0.25365 0.0
C4029 C 0.22809 0.59187 0.24944 0.0
C4030 C 0.24744 0.64315 0.24987 0.0
C4031 C 0.25561 0.65301 0.26801 0.0
C4032 C 0.25221 0.64993 0.23306 0.0
C4033 C 0.24298 0.64047 0.21381 0.0
C4034 C 0.24354 0.62151 0.20559 0.0
C4035 C 0.23388 0.61236 0.18794 0.0
C4036 C 0.22367 0.62206 0.17838 0.0
C4037 C 0.22316 0.64097 0.1864 0.0
C4038 C 0.23282 0.6502 0.20402 0.0
C4039 C 0.30045 0.72688 0.26923 0.0
C4040 C 0.28796 0.73729 0.26574 0.0
C4041 C 0.29605 0.70697 0.26339 0.0
C4042 C 0.27915 0.69793 0.2544 0.0
C4043 C 0.267 0.7086 0.2504 0.0
C4044 C 0.27127 0.72825 0.25654 0.0
C4045 C 0.27211 0.67761 0.25305 0.0
C4046 C 0.26496 0.66695 0.23484 0.0
C4047 C 0.26759 0.67064 0.26989 0.0
C4048 C 0.2733 0.68245 0.2895 0.0
C4049 C 0.26623 0.69838 0.2962 0.0
C4050 C 0.27149 0.7093 0.31478 0.0
C4051 C 0.28366 0.70429 0.32688 0.0
C4052 C 0.2906 0.68836 0.32041 0.0
C4053 C 0.28541 0.67742 0.30181 0.0
H4054 H 0.28764 0.71267 0.3413 0.0
H4055 H 0.21614 0.61492 0.16476 0.0
H4056 H 0.54724 0.73579 0.48154 0.0
H4057 H 0.54875 0.70607 0.4923 0.0
H4058 H 0.50143 0.67593 0.45565 0.0
H4059 H 0.49995 0.70586 0.44443 0.0
H4060 H 0.50304 0.6658 0.49378 0.0
H4061 H 0.53709 0.66879 0.44024 0.0
H4062 H 0.55925 0.6842 0.42102 0.0
H4063 H 0.59976 0.69165 0.46699 0.0
H4064 H 0.57775 0.67655 0.48663 0.0
H4065 H 0.52193 0.57025 0.47388 0.0
H4066 H 0.51766 0.6017 0.47079 0.0
H4067 H 0.55017 0.62742 0.52404 0.0
H4068 H 0.55306 0.59516 0.52838 0.0
H4069 H 0.55597 0.64048 0.47988 0.0
H4070 H 0.52069 0.63566 0.53314 0.0
H4071 H 0.49764 0.61982 0.55111 0.0
H4072 H 0.45852 0.61483 0.50442 0.0
H4073 H 0.48145 0.63032 0.48596 0.0
C4074 C 0.53701 0.72294 0.47577 0.0
C4075 C 0.52348 0.72338 0.46199 0.0
C4076 C 0.53793 0.70586 0.482 0.0
C4077 C 0.52525 0.68862 0.47483 0.0
C4078 C 0.51137 0.68902 0.46149 0.0
C4079 C 0.51059 0.70614 0.45499 0.0
C4080 C 0.52732 0.67016 0.48052 0.0
C4081 C 0.51456 0.66022 0.49063 0.0
C4082 C 0.54244 0.66286 0.47675 0.0
C4083 C 0.55576 0.67176 0.46497 0.0
C4084 C 0.5507 0.67387 0.44631 0.0
C4085 C 0.56323 0.68252 0.43533 0.0
C4086 C 0.5809 0.68896 0.4428 0.0
C4087 C 0.58607 0.68669 0.46124 0.0
C4088 C 0.57357 0.67808 0.4723 0.0
C4089 C 0.52815 0.58243 0.48518 0.0
C4090 C 0.53843 0.57999 0.50115 0.0
C4091 C 0.52559 0.60053 0.48333 0.0
C4092 C 0.53358 0.61702 0.49708 0.0
C4093 C 0.5438 0.61487 0.51321 0.0
C4094 C 0.54573 0.59644 0.51553 0.0
C4095 C 0.53191 0.63632 0.49349 0.0
C4096 C 0.54461 0.64625 0.48338 0.0
C4097 C 0.51667 0.64346 0.49717 0.0
C4098 C 0.50286 0.63382 0.50801 0.0
C4099 C 0.50724 0.63087 0.52654 0.0
C4100 C 0.49417 0.62205 0.53686 0.0
C4101 C 0.47664 0.61623 0.52887 0.0
C4102 C 0.47212 0.61929 0.51056 0.0
C4103 C 0.48516 0.62808 0.50016 0.0
H4104 H 0.46654 0.60943 0.5369 0.0
H4105 H 0.59059 0.69565 0.43427 0.0
H4106 H 0.61934 0.30431 0.6653 0.0
H4107 H 0.6444 0.30025 0.6853 0.0
H4108 H 0.67956 0.31998 0.64464 0.0
H4109 H 0.6547 0.32368 0.62459 0.0
H4110 H 0.68929 0.29148 0.65495 0.0
H4111 H 0.67626 0.34846 0.6908 0.0
H4112 H 0.65726 0.36774 0.70746 0.0
H4113 H 0.64722 0.32907 0.74691 0.0
H4114 H 0.66601 0.30941 0.73031 0.0
H4115 H 0.77091 0.30596 0.7115 0.0
H4116 H 0.74527 0.31044 0.69308 0.0
H4117 H 0.71221 0.29182 0.73595 0.0
H4118 H 0.73798 0.28777 0.75459 0.0
H4119 H 0.70087 0.31908 0.72484 0.0
H4120 H 0.71483 0.26235 0.68857 0.0
H4121 H 0.73401 0.24365 0.67136 0.0
H4122 H 0.74263 0.28272 0.63217 0.0
H4123 H 0.72368 0.30178 0.6493 0.0
C4124 C 0.63241 0.30786 0.66064 0.0
C4125 C 0.6348 0.31445 0.64323 0.0
C4126 C 0.64685 0.30561 0.67219 0.0
C4127 C 0.6642 0.30999 0.66679 0.0
C4128 C 0.6665 0.31644 0.64935 0.0
C4129 C 0.65214 0.31866 0.63785 0.0
C4130 C 0.67994 0.30777 0.67897 0.0
C4131 C 0.69184 0.29775 0.6702 0.0
C4132 C 0.68344 0.31548 0.69904 0.0
C4133 C 0.67236 0.32737 0.7092 0.0
C4134 C 0.66991 0.34401 0.70296 0.0
C4135 C 0.65919 0.35501 0.7124 0.0
C4136 C 0.65099 0.3496 0.7282 0.0
C4137 C 0.65355 0.33322 0.73465 0.0
C4138 C 0.66425 0.32216 0.72525 0.0
C4139 C 0.75819 0.30289 0.71707 0.0
C4140 C 0.7567 0.29679 0.73478 0.0
C4141 C 0.74339 0.30532 0.70639 0.0
C4142 C 0.72641 0.30116 0.71272 0.0
C4143 C 0.72498 0.29524 0.73056 0.0
C4144 C 0.73985 0.29307 0.74138 0.0
C4145 C 0.71026 0.30283 0.7008 0.0
C4146 C 0.69828 0.31275 0.70962 0.0
C4147 C 0.70673 0.2951 0.68072 0.0
C4148 C 0.71796 0.28355 0.67031 0.0
C4149 C 0.72089 0.26699 0.67634 0.0
C4150 C 0.73171 0.25633 0.66659 0.0
C4151 C 0.73955 0.26201 0.6507 0.0
C4152 C 0.73655 0.27834 0.64448 0.0
C4153 C 0.72576 0.28906 0.65419 0.0
H4154 H 0.74793 0.25374 0.64318 0.0
H4155 H 0.64268 0.35812 0.73547 0.0
H4156 H 0.00947 0.3265 0.93801 0.0
H4157 H 0.01376 0.3615 0.94719 0.0
H4158 H 0.04176 0.36098 0.00115 0.0
H4159 H 0.03642 0.32584 0.99248 0.0
H4160 H 0.02416 0.3855 0.00871 0.0
H4161 H 0.0628 0.37695 0.96077 0.0
H4162 H 0.0719 0.36355 0.9295 0.0
H4163 H 0.03588 0.38842 0.90028 0.0
H4164 H 0.02639 0.40175 0.93136 0.0
H4165 H 0.05108 0.49025 0.02551 0.0
H4166 H 0.0484 0.45558 0.02228 0.0
H4167 H 0.02217 0.44621 0.96499 0.0
H4168 H 0.02682 0.48094 0.96757 0.0
H4169 H 0.04349 0.42677 0.96179 0.0
H4170 H 0.0029 0.43103 0.01471 0.0
H4171 H 0.99585 0.44064 0.04805 0.0
H4172 H 0.04149 0.42466 0.06997 0.0
H4173 H 0.04841 0.41412 0.03684 0.0
C4174 C 0.01655 0.33388 0.95182 0.0
C4175 C 0.02268 0.32338 0.96446 0.0
C4176 C 0.01913 0.35397 0.95705 0.0
C4177 C 0.0285 0.36421 0.97476 0.0
C4178 C 0.03451 0.35364 0.98742 0.0
C4179 C 0.0315 0.33349 0.98242 0.0
C4180 C 0.03183 0.38582 0.98009 0.0
C4181 C 0.02848 0.39451 0.99843 0.0
C4182 C 0.03787 0.39789 0.96706 0.0
C4183 C 0.0438 0.39023 0.94837 0.0
C4184 C 0.05677 0.37949 0.94766 0.0
C4185 C 0.06199 0.37191 0.92998 0.0
C4186 C 0.05444 0.3751 0.91291 0.0
C4187 C 0.04171 0.38595 0.91351 0.0
C4188 C 0.03642 0.39355 0.93115 0.0
C4189 C 0.04436 0.48069 0.01242 0.0
C4190 C 0.03883 0.48833 0.9969 0.0
C4191 C 0.04271 0.46069 0.01058 0.0
C4192 C 0.03485 0.44776 0.9934 0.0
C4193 C 0.02848 0.45555 0.97837 0.0
C4194 C 0.03088 0.47549 0.9799 0.0
C4195 C 0.03446 0.42649 0.98995 0.0
C4196 C 0.03885 0.41781 0.97201 0.0
C4197 C 0.02992 0.41456 0.00361 0.0
C4198 C 0.02629 0.42209 0.02336 0.0
C4199 C 0.01152 0.42979 0.02666 0.0
C4200 C 0.00753 0.43536 0.0455 0.0
C4201 C 0.01838 0.43366 0.06109 0.0
C4202 C 0.03316 0.42613 0.0579 0.0
C4203 C 0.03705 0.42022 0.03912 0.0
H4204 H 0.01523 0.438 0.07564 0.0
H4205 H 0.05849 0.36919 0.89923 0.0
H4206 H 0.00896 0.80748 0.11196 0.0
H4207 H 0.98297 0.805 0.12968 0.0
H4208 H 0.01465 0.80431 0.18109 0.0
H4209 H 0.04078 0.80634 0.16319 0.0
H4210 H 0.98499 0.77832 0.17818 0.0
H4211 H 0.99845 0.84487 0.17265 0.0
H4212 H 0.00443 0.87177 0.15527 0.0
H4213 H 0.95334 0.85073 0.12352 0.0
H4214 H 0.94717 0.82351 0.14047 0.0
H4215 H 0.92509 0.79065 0.24557 0.0
H4216 H 0.95001 0.79938 0.22702 0.0
H4217 H 0.91416 0.79233 0.17652 0.0
H4218 H 0.88899 0.78378 0.19533 0.0
H4219 H 0.94489 0.82261 0.17784 0.0
H4220 H 0.93153 0.75622 0.18195 0.0
H4221 H 0.92484 0.7289 0.19868 0.0
H4222 H 0.97536 0.74913 0.23178 0.0
H4223 H 0.9822 0.77681 0.21549 0.0
C4224 C 0.0105 0.80685 0.12706 0.0
C4225 C 0.02714 0.80716 0.13607 0.0
C4226 C 0.99552 0.80556 0.13728 0.0
C4227 C 0.99666 0.80479 0.15696 0.0
C4228 C 0.01325 0.80495 0.16597 0.0
C4229 C 0.02827 0.80612 0.1557 0.0
C4230 C 0.98053 0.80317 0.16793 0.0
C4231 C 0.97646 0.78826 0.17828 0.0
C4232 C 0.96879 0.8156 0.16772 0.0
C4233 C 0.97241 0.83208 0.15772 0.0
C4234 C 0.98854 0.84591 0.16187 0.0
C4235 C 0.99196 0.86122 0.1521 0.0
C4236 C 0.97928 0.86294 0.13829 0.0
C4237 C 0.96315 0.84937 0.13422 0.0
C4238 C 0.95968 0.83401 0.14391 0.0
C4239 C 0.92246 0.79148 0.23064 0.0
C4240 C 0.90498 0.78654 0.222 0.0
C4241 C 0.93677 0.79637 0.21997 0.0
C4242 C 0.93415 0.79623 0.20017 0.0
C4243 C 0.91666 0.79257 0.19172 0.0
C4244 C 0.90223 0.78774 0.20252 0.0
C4245 C 0.94966 0.79798 0.18829 0.0
C4246 C 0.95352 0.81278 0.17774 0.0
C4247 C 0.96121 0.7854 0.18812 0.0
C4248 C 0.95731 0.76862 0.19763 0.0
C4249 C 0.94116 0.75489 0.19288 0.0
C4250 C 0.93734 0.73935 0.20228 0.0
C4251 C 0.94966 0.7373 0.21631 0.0
C4252 C 0.96583 0.75076 0.22093 0.0
C4253 C 0.96969 0.76636 0.21162 0.0
H4254 H 0.94668 0.72525 0.22358 0.0
H4255 H 0.98192 0.87483 0.13077 0.0
H4256 H 0.53813 0.29687 0.11016 0.0
H4257 H 0.54088 0.32474 0.09482 0.0
H4258 H 0.49192 0.33427 0.11501 0.0
H4259 H 0.4889 0.30625 0.13028 0.0
H4260 H 0.49599 0.33825 0.07669 0.0
H4261 H 0.52729 0.36149 0.13922 0.0
H4262 H 0.54775 0.35858 0.16562 0.0
H4263 H 0.59004 0.36408 0.12942 0.0
H4264 H 0.56975 0.36671 0.10268 0.0
H4265 H 0.51694 0.42706 0.04377 0.0
H4266 H 0.50809 0.40464 0.06537 0.0
H4267 H 0.55809 0.3888 0.06236 0.0
H4268 H 0.56727 0.41175 0.04165 0.0
H4269 H 0.54973 0.39104 0.09702 0.0
H4270 H 0.51821 0.36295 0.03366 0.0
H4271 H 0.49708 0.35921 0.00535 0.0
H4272 H 0.45492 0.35898 0.04164 0.0
H4273 H 0.47587 0.36309 0.0702 0.0
C4274 C 0.52788 0.30479 0.11121 0.0
C4275 C 0.51343 0.29958 0.12159 0.0
C4276 C 0.52949 0.32069 0.10251 0.0
C4277 C 0.51675 0.33162 0.10419 0.0
C4278 C 0.50191 0.326 0.11377 0.0
C4279 C 0.50027 0.31008 0.12251 0.0
C4280 C 0.51938 0.3493 0.09639 0.0
C4281 C 0.50749 0.35009 0.08133 0.0
C4282 C 0.53449 0.36444 0.10254 0.0
C4283 C 0.54701 0.36428 0.11896 0.0
C4284 C 0.54097 0.36212 0.13691 0.0
C4285 C 0.55252 0.36047 0.15191 0.0
C4286 C 0.57018 0.36113 0.14919 0.0
C4287 C 0.57636 0.3636 0.1315 0.0
C4288 C 0.56485 0.36522 0.11643 0.0
C4289 C 0.52612 0.41898 0.04797 0.0
C4290 C 0.54269 0.42086 0.04076 0.0
C4291 C 0.52099 0.40608 0.06016 0.0
C4292 C 0.53229 0.39478 0.06513 0.0
C4293 C 0.5491 0.39727 0.05859 0.0
C4294 C 0.55427 0.41022 0.04657 0.0
C4295 C 0.52665 0.3798 0.07656 0.0
C4296 C 0.53796 0.37955 0.09254 0.0
C4297 C 0.511 0.36506 0.07113 0.0
C4298 C 0.49867 0.36375 0.05409 0.0
C4299 C 0.5045 0.36246 0.03563 0.0
C4300 C 0.49253 0.36019 0.01954 0.0
C4301 C 0.47469 0.35897 0.0217 0.0
C4302 C 0.46876 0.36004 0.03998 0.0
C4303 C 0.48068 0.36239 0.05613 0.0
H4304 H 0.46544 0.3571 0.00921 0.0
H4305 H 0.57909 0.35975 0.1608 0.0
H4306 H 0.02257 0.28094 0.37139 0.0
H4307 H 0.9956 0.29104 0.36396 0.0
H4308 H 0.02395 0.33183 0.33276 0.0
H4309 H 0.05107 0.32189 0.3401 0.0
H4310 H 0.99709 0.34508 0.35729 0.0
H4311 H 0.00432 0.29585 0.30522 0.0
H4312 H 0.01266 0.26534 0.29304 0.0
H4313 H 0.97124 0.23473 0.32087 0.0
H4314 H 0.96281 0.26518 0.33341 0.0
H4315 H 0.92929 0.34787 0.28709 0.0
H4316 H 0.9548 0.34905 0.30909 0.0
H4317 H 0.92498 0.30104 0.33059 0.0
H4318 H 0.89947 0.29967 0.30834 0.0
H4319 H 0.95291 0.29297 0.31359 0.0
H4320 H 0.94441 0.34467 0.36323 0.0
H4321 H 0.93838 0.37649 0.37521 0.0
H4322 H 0.98322 0.40388 0.34971 0.0
H4323 H 0.98952 0.37221 0.33765 0.0
C4324 C 0.02308 0.29204 0.36293 0.0
C4325 C 0.03882 0.30035 0.35602 0.0
C4326 C 0.00776 0.29796 0.35895 0.0
C4327 C 0.00796 0.31223 0.34799 0.0
C4328 C 0.02369 0.32094 0.34144 0.0
C4329 C 0.03904 0.31496 0.34534 0.0
C4330 C 0.99121 0.31591 0.34118 0.0
C4331 C 0.98739 0.33381 0.34766 0.0
C4332 C 0.97873 0.30116 0.3287 0.0
C4333 C 0.98299 0.28271 0.32028 0.0
C4334 C 0.997 0.28259 0.30871 0.0
C4335 C 0.00176 0.26534 0.30178 0.0
C4336 C 0.9925 0.24811 0.3062 0.0
C4337 C 0.97839 0.24809 0.31745 0.0
C4338 C 0.97358 0.26532 0.32444 0.0
C4339 C 0.92805 0.33801 0.29699 0.0
C4340 C 0.9126 0.32351 0.2959 0.0
C4341 C 0.94255 0.33882 0.30969 0.0
C4342 C 0.94176 0.32512 0.32144 0.0
C4343 C 0.92578 0.31178 0.32166 0.0
C4344 C 0.91124 0.31102 0.30899 0.0
C4345 C 0.95829 0.3221 0.33003 0.0
C4346 C 0.96231 0.30425 0.32355 0.0
C4347 C 0.97099 0.3371 0.34216 0.0
C4348 C 0.96735 0.35612 0.34948 0.0
C4349 C 0.95292 0.35749 0.36014 0.0
C4350 C 0.9495 0.37549 0.36698 0.0
C4351 C 0.96039 0.39219 0.36319 0.0
C4352 C 0.9748 0.39094 0.35265 0.0
C4353 C 0.97835 0.37298 0.34588 0.0
H4354 H 0.95767 0.40611 0.36844 0.0
H4355 H 0.99625 0.23477 0.30089 0.0
H4356 H 0.00597 0.70867 0.64419 0.0
H4357 H 0.01358 0.67939 0.62883 0.0
H4358 H 0.97921 0.67652 0.57821 0.0
H4359 H 0.97187 0.70674 0.59324 0.0
H4360 H 0.97921 0.64001 0.59707 0.0
H4361 H 0.01523 0.69317 0.57327 0.0
H4362 H 0.03689 0.72379 0.57445 0.0
H4363 H 0.07604 0.70305 0.60377 0.0
H4364 H 0.05436 0.67279 0.6038 0.0
H4365 H 0.00853 0.57496 0.52889 0.0
H4366 H 0.99875 0.60229 0.54608 0.0
H4367 H 0.0442 0.61568 0.58788 0.0
H4368 H 0.05459 0.58888 0.57031 0.0
H4369 H 0.03885 0.64666 0.57453 0.0
H4370 H 0.00643 0.59611 0.6008 0.0
H4371 H 0.98816 0.56336 0.59898 0.0
H4372 H 0.94586 0.57738 0.56756 0.0
H4373 H 0.96403 0.61015 0.56888 0.0
C4374 C 0.9999 0.70191 0.62979 0.0
C4375 C 0.98858 0.71022 0.61968 0.0
C4376 C 0.00428 0.68517 0.62113 0.0
C4377 C 0.99714 0.67629 0.60244 0.0
C4378 C 0.98488 0.68358 0.59268 0.0
C4379 C 0.98071 0.70069 0.60123 0.0
C4380 C 0.00315 0.65971 0.59307 0.0
C4381 C 0.99213 0.64139 0.59185 0.0
C4382 C 0.02042 0.66181 0.5874 0.0
C4383 C 0.03297 0.6808 0.58891 0.0
C4384 C 0.02826 0.69536 0.58055 0.0
C4385 C 0.04059 0.71266 0.58094 0.0
C4386 C 0.05778 0.71547 0.58937 0.0
C4387 C 0.06266 0.70101 0.5975 0.0
C4388 C 0.05031 0.68383 0.59743 0.0
C4389 C 0.01661 0.5839 0.54153 0.0
C4390 C 0.03249 0.58013 0.54804 0.0
C4391 C 0.01087 0.59926 0.55146 0.0
C4392 C 0.02074 0.61066 0.56821 0.0
C4393 C 0.0365 0.60686 0.57491 0.0
C4394 C 0.04237 0.59161 0.56487 0.0
C4395 C 0.01486 0.62707 0.57827 0.0
C4396 C 0.02595 0.64531 0.57981 0.0
C4397 C 0.99798 0.62489 0.58482 0.0
C4398 C 0.98663 0.60556 0.58483 0.0
C4399 C 0.99325 0.5922 0.59345 0.0
C4400 C 0.98292 0.57362 0.59249 0.0
C4401 C 0.96587 0.56828 0.58312 0.0
C4402 C 0.95908 0.58155 0.5748 0.0
C4403 C 0.96937 0.60014 0.57568 0.0
H4404 H 0.95792 0.55386 0.58232 0.0
H4405 H 0.06736 0.72879 0.58947 0.0
H4406 H 0.66259 0.82878 0.87999 0.0
H4407 H 0.68792 0.83175 0.86135 0.0
H4408 H 0.65379 0.82636 0.80973 0.0
H4409 H 0.62829 0.82286 0.82825 0.0
H4410 H 0.67082 0.79847 0.80732 0.0
H4411 H 0.68767 0.86725 0.82508 0.0
H4412 H 0.69414 0.89903 0.8469 0.0
H4413 H 0.73552 0.8837 0.87852 0.0
H4414 H 0.72921 0.85176 0.85702 0.0
H4415 H 0.75188 0.80268 0.75936 0.0
H4416 H 0.72236 0.80328 0.76947 0.0
H4417 H 0.74262 0.80922 0.82862 0.0
H4418 H 0.77195 0.80923 0.81863 0.0
H4419 H 0.73113 0.84041 0.821 0.0
H4420 H 0.70738 0.77076 0.81338 0.0
H4421 H 0.69762 0.7365 0.79735 0.0
H4422 H 0.67008 0.75213 0.75095 0.0
H4423 H 0.67895 0.78639 0.7672 0.0
C4424 C 0.66055 0.82869 0.86476 0.0
C4425 C 0.64354 0.82507 0.85539 0.0
C4426 C 0.67504 0.83065 0.85417 0.0
C4427 C 0.67265 0.82934 0.8342 0.0
C4428 C 0.65581 0.82742 0.82514 0.0
C4429 C 0.6413 0.82522 0.83568 0.0
C4430 C 0.68694 0.82581 0.82256 0.0
C4431 C 0.68392 0.80795 0.80983 0.0
C4432 C 0.70406 0.83786 0.82644 0.0
C4433 C 0.7079 0.85707 0.83945 0.0
C4434 C 0.69807 0.8706 0.83676 0.0
C4435 C 0.70174 0.88866 0.84906 0.0
C4436 C 0.71521 0.89337 0.8641 0.0
C4437 C 0.72509 0.88004 0.86685 0.0
C4438 C 0.72151 0.86198 0.85458 0.0
C4439 C 0.74971 0.8034 0.77439 0.0
C4440 C 0.76382 0.80576 0.78832 0.0
C4441 C 0.73296 0.80361 0.78011 0.0
C4442 C 0.7305 0.8064 0.79975 0.0
C4443 C 0.74436 0.80705 0.81341 0.0
C4444 C 0.76102 0.80705 0.80774 0.0
C4445 C 0.71503 0.81279 0.80654 0.0
C4446 C 0.7179 0.83125 0.81813 0.0
C4447 C 0.69785 0.80116 0.80201 0.0
C4448 C 0.69412 0.78108 0.79124 0.0
C4449 C 0.69947 0.76689 0.79961 0.0
C4450 C 0.69393 0.74748 0.79062 0.0
C4451 C 0.68345 0.74218 0.77303 0.0
C4452 C 0.6783 0.75627 0.7645 0.0
C4453 C 0.68345 0.77565 0.77366 0.0
H4454 H 0.67926 0.72714 0.76606 0.0
H4455 H 0.71801 0.90735 0.87361 0.0
H4456 H 0.49174 0.58391 0.73266 0.0
H4457 H 0.50328 0.57956 0.70144 0.0
H4458 H 0.4509 0.55321 0.67406 0.0
H4459 H 0.43917 0.55727 0.70575 0.0
H4460 H 0.47279 0.53416 0.65614 0.0
H4461 H 0.47574 0.60224 0.67282 0.0
H4462 H 0.48419 0.63504 0.6927 0.0
H4463 H 0.53887 0.6342 0.69177 0.0
H4464 H 0.53074 0.60128 0.6721 0.0
H4465 H 0.4967 0.53678 0.56037 0.0
H4466 H 0.48401 0.54125 0.59113 0.0
H4467 H 0.53509 0.57188 0.61966 0.0
H4468 H 0.54762 0.56812 0.58879 0.0
H4469 H 0.51363 0.58869 0.63692 0.0
H4470 H 0.51247 0.52202 0.62176 0.0
H4471 H 0.5059 0.48943 0.60148 0.0
H4472 H 0.45048 0.48697 0.60034 0.0
H4473 H 0.45673 0.51972 0.62035 0.0
C4474 C 0.48247 0.5772 0.72011 0.0
C4475 C 0.46429 0.57111 0.72224 0.0
C4476 C 0.48921 0.57481 0.70194 0.0
C4477 C 0.47818 0.56634 0.68472 0.0
C4478 C 0.45999 0.5599 0.68675 0.0
C4479 C 0.45318 0.56229 0.70508 0.0
C4480 C 0.48568 0.56422 0.66496 0.0
C4481 C 0.48147 0.54627 0.65194 0.0
C4482 C 0.49771 0.57954 0.65911 0.0
C4483 C 0.50261 0.59922 0.67115 0.0
C4484 C 0.48956 0.60898 0.677 0.0
C4485 C 0.4943 0.62761 0.6882 0.0
C4486 C 0.51205 0.63668 0.69353 0.0
C4487 C 0.52512 0.62715 0.68766 0.0
C4488 C 0.52045 0.60851 0.67647 0.0
C4489 C 0.50532 0.54461 0.5731 0.0
C4490 C 0.52341 0.552 0.57159 0.0
C4491 C 0.49799 0.54701 0.591 0.0
C4492 C 0.50841 0.55662 0.60843 0.0
C4493 C 0.52643 0.56433 0.60686 0.0
C4494 C 0.53372 0.56209 0.58892 0.0
C4495 C 0.50066 0.55868 0.62804 0.0
C4496 C 0.50489 0.57658 0.64107 0.0
C4497 C 0.48894 0.54324 0.63404 0.0
C4498 C 0.48507 0.52339 0.62241 0.0
C4499 C 0.49888 0.51457 0.61711 0.0
C4500 C 0.49522 0.49607 0.60566 0.0
C4501 C 0.47779 0.48615 0.59959 0.0
C4502 C 0.46398 0.49469 0.60503 0.0
C4503 C 0.46757 0.51321 0.61644 0.0
H4504 H 0.47499 0.47185 0.59069 0.0
H4505 H 0.51569 0.65112 0.70218 0.0
H4506 H 0.79051 0.18019 0.99465 0.0
H4507 H 0.7924 0.20138 0.97149 0.0
H4508 H 0.74811 0.16173 0.93604 0.0
H4509 H 0.74608 0.14029 0.95914 0.0
H4510 H 0.77963 0.16907 0.91847 0.0
H4511 H 0.74295 0.20326 0.95583 0.0
H4512 H 0.73427 0.22095 0.98535 0.0
H4513 H 0.78221 0.26477 0.99088 0.0
H4514 H 0.79132 0.24717 0.96152 0.0
H4515 H 0.75255 0.21412 0.84856 0.0
H4516 H 0.76024 0.19707 0.87298 0.0
H4517 H 0.79928 0.248 0.90134 0.0
H4518 H 0.791 0.26539 0.87693 0.0
H4519 H 0.77588 0.23722 0.92466 0.0
H4520 H 0.81163 0.20318 0.88587 0.0
H4521 H 0.81964 0.18504 0.85609 0.0
H4522 H 0.77294 0.14015 0.85375 0.0
H4523 H 0.76453 0.15826 0.88322 0.0
C4524 C 0.78102 0.17606 0.98204 0.0
C4525 C 0.76848 0.15833 0.97832 0.0
C4526 C 0.78203 0.18828 0.96898 0.0
C4527 C 0.77047 0.18291 0.95217 0.0
C4528 C 0.75717 0.16589 0.94902 0.0
C4529 C 0.75611 0.15366 0.9621 0.0
C4530 C 0.77383 0.1936 0.93668 0.0
C4531 C 0.77867 0.18393 0.91968 0.0
C4532 C 0.77336 0.21317 0.93888 0.0
C4533 C 0.76792 0.22378 0.95657 0.0
C4534 C 0.75174 0.21656 0.96344 0.0
C4535 C 0.74672 0.2266 0.98013 0.0
C4536 C 0.7577 0.24395 0.99002 0.0
C4537 C 0.77372 0.25131 0.98322 0.0
C4538 C 0.77882 0.24132 0.96655 0.0
C4539 C 0.76328 0.22137 0.85956 0.0
C4540 C 0.77112 0.24095 0.86113 0.0
C4541 C 0.76778 0.21162 0.87346 0.0
C4542 C 0.78038 0.22128 0.88896 0.0
C4543 C 0.78954 0.24036 0.88945 0.0
C4544 C 0.78492 0.25019 0.8755 0.0
C4545 C 0.78125 0.21252 0.90603 0.0
C4546 C 0.77724 0.2225 0.92349 0.0
C4547 C 0.78244 0.19316 0.90431 0.0
C4548 C 0.78741 0.18219 0.88659 0.0
C4549 C 0.803 0.18957 0.87881 0.0
C4550 C 0.80762 0.17926 0.86204 0.0
C4551 C 0.79678 0.16147 0.853 0.0
C4552 C 0.78132 0.15394 0.86074 0.0
C4553 C 0.77663 0.16421 0.87749 0.0
H4554 H 0.80038 0.1535 0.84003 0.0
H4555 H 0.75378 0.25171 0.00292 0.0
H4556 H 0.12618 0.53891 0.21743 0.0
H4557 H 0.11241 0.54611 0.18859 0.0
H4558 H 0.14953 0.52288 0.15432 0.0
H4559 H 0.16321 0.51558 0.18282 0.0
H4560 H 0.14172 0.5563 0.1439 0.0
H4561 H 0.11517 0.49348 0.15483 0.0
H4562 H 0.10259 0.47091 0.17533 0.0
H4563 H 0.0606 0.49986 0.18521 0.0
H4564 H 0.07322 0.52289 0.16507 0.0
H4565 H 0.0913 0.51845 0.05272 0.0
H4566 H 0.10932 0.5221 0.08304 0.0
H4567 H 0.07169 0.54796 0.1139 0.0
H4568 H 0.05392 0.54473 0.0837 0.0
H4569 H 0.08077 0.51593 0.12634 0.0
H4570 H 0.11015 0.57959 0.11345 0.0
H4571 H 0.12517 0.60063 0.09273 0.0
H4572 H 0.16243 0.56529 0.08256 0.0
H4573 H 0.14788 0.54436 0.10371 0.0
C4574 C 0.13114 0.53513 0.20366 0.0
C4575 C 0.14534 0.52634 0.20202 0.0
C4576 C 0.12365 0.53966 0.18746 0.0
C4577 C 0.13026 0.53515 0.1697 0.0
C4578 C 0.14462 0.52671 0.16812 0.0
C4579 C 0.15207 0.52218 0.18422 0.0
C4580 C 0.12034 0.53596 0.15223 0.0
C4581 C 0.12837 0.5476 0.13999 0.0
C4582 C 0.10322 0.52418 0.14724 0.0
C4583 C 0.09523 0.51 0.15872 0.0
C4584 C 0.10332 0.49509 0.1615 0.0
C4585 C 0.0962 0.48224 0.17305 0.0
C4586 C 0.08084 0.484 0.18164 0.0
C4587 C 0.07253 0.49856 0.1786 0.0
C4588 C 0.07966 0.51152 0.16713 0.0
C4589 C 0.08683 0.52463 0.06608 0.0
C4590 C 0.07109 0.53085 0.06623 0.0
C4591 C 0.0972 0.527 0.08315 0.0
C4592 C 0.0918 0.53565 0.10028 0.0
C4593 C 0.07591 0.54143 0.10054 0.0
C4594 C 0.06557 0.5391 0.08347 0.0
C4595 C 0.10182 0.5368 0.11827 0.0
C4596 C 0.09393 0.52508 0.13044 0.0
C4597 C 0.11921 0.54804 0.12279 0.0
C4598 C 0.12789 0.56041 0.11 0.0
C4599 C 0.12151 0.5763 0.10672 0.0
C4600 C 0.12996 0.58822 0.09495 0.0
C4601 C 0.14465 0.58421 0.08617 0.0
C4602 C 0.15104 0.56837 0.08933 0.0
C4603 C 0.14277 0.55656 0.10132 0.0
H4604 H 0.15111 0.59341 0.07698 0.0
H4605 H 0.07535 0.47404 0.1906 0.0
H4606 H 0.77814 0.86286 0.47534 0.0
H4607 H 0.77469 0.84777 0.44122 0.0
H4608 H 0.81675 0.81989 0.45111 0.0
H4609 H 0.82046 0.83513 0.48514 0.0
H4610 H 0.823 0.84061 0.42401 0.0
H4611 H 0.77326 0.79441 0.43765 0.0
H4612 H 0.74471 0.78424 0.45034 0.0
H4613 H 0.72014 0.81188 0.4115 0.0
H4614 H 0.7486 0.82252 0.39878 0.0
H4615 H 0.80623 0.78422 0.32244 0.0
H4616 H 0.80678 0.78899 0.35778 0.0
H4617 H 0.78828 0.84081 0.35878 0.0
H4618 H 0.79003 0.83769 0.32437 0.0
H4619 H 0.76997 0.80435 0.38023 0.0
H4620 H 0.81789 0.85749 0.37388 0.0
H4621 H 0.84611 0.87451 0.36487 0.0
H4622 H 0.8732 0.84004 0.39309 0.0
H4623 H 0.8449 0.82206 0.40137 0.0
C4624 C 0.78645 0.85323 0.47034 0.0
C4625 C 0.79975 0.85042 0.48297 0.0
C4626 C 0.78436 0.84448 0.45081 0.0
C4627 C 0.79543 0.83262 0.44355 0.0
C4628 C 0.80805 0.82897 0.45636 0.0
C4629 C 0.81018 0.83774 0.47584 0.0
C4630 C 0.79561 0.82624 0.42242 0.0
C4631 C 0.81147 0.8322 0.41454 0.0
C4632 C 0.78037 0.81604 0.40992 0.0
C4633 C 0.76315 0.8094 0.41735 0.0
C4634 C 0.76181 0.79845 0.4319 0.0
C4635 C 0.74563 0.79258 0.43909 0.0
C4636 C 0.73063 0.79744 0.43176 0.0
C4637 C 0.73177 0.80813 0.41717 0.0
C4638 C 0.74793 0.81407 0.40995 0.0
C4639 C 0.80318 0.79711 0.33033 0.0
C4640 C 0.79892 0.81099 0.32057 0.0
C4641 C 0.80308 0.79959 0.35045 0.0
C4642 C 0.79776 0.81542 0.3609 0.0
C4643 C 0.79275 0.82872 0.35107 0.0
C4644 C 0.79381 0.82686 0.33132 0.0
C4645 C 0.79747 0.81848 0.3821 0.0
C4646 C 0.78156 0.81216 0.38988 0.0
C4647 C 0.81251 0.82887 0.39463 0.0
C4648 C 0.82917 0.83792 0.3876 0.0
C4649 C 0.82973 0.85296 0.37746 0.0
C4650 C 0.84578 0.86296 0.3727 0.0
C4651 C 0.86145 0.8584 0.37844 0.0
C4652 C 0.86105 0.84356 0.38865 0.0
C4653 C 0.84498 0.83331 0.39318 0.0
H4654 H 0.8739 0.86628 0.37489 0.0
H4655 H 0.71812 0.7929 0.43736 0.0
H4656 H 0.44319 0.57081 0.83936 0.0
H4657 H 0.45628 0.56781 0.8707 0.0
H4658 H 0.50411 0.5616 0.84561 0.0
H4659 H 0.49097 0.56394 0.81451 0.0
H4660 H 0.50108 0.53867 0.8667 0.0
H4661 H 0.4985 0.60343 0.88202 0.0
H4662 H 0.48707 0.63282 0.88612 0.0
H4663 H 0.45115 0.6104 0.92459 0.0
H4664 H 0.46219 0.58073 0.92051 0.0
H4665 H 0.54733 0.54366 0.9617 0.0
H4666 H 0.53768 0.54866 0.92959 0.0
H4667 H 0.48558 0.54749 0.94685 0.0
H4668 H 0.4951 0.5426 0.97843 0.0
H4669 H 0.49351 0.57631 0.9298 0.0
H4670 H 0.4969 0.50835 0.90778 0.0
H4671 H 0.51123 0.48113 0.90068 0.0
H4672 H 0.55209 0.5158 0.87558 0.0
H4673 H 0.53742 0.54287 0.88152 0.0
C4674 C 0.45657 0.56902 0.84052 0.0
C4675 C 0.46581 0.56762 0.82394 0.0
C4676 C 0.46421 0.56735 0.85869 0.0
C4677 C 0.48152 0.56447 0.86119 0.0
C4678 C 0.49078 0.56356 0.84466 0.0
C4679 C 0.48315 0.56504 0.8266 0.0
C4680 C 0.48975 0.56151 0.88042 0.0
C4681 C 0.49949 0.54725 0.88038 0.0
C4682 C 0.48821 0.57238 0.89883 0.0
C4683 C 0.48096 0.58974 0.9007 0.0
C4684 C 0.48798 0.60465 0.89113 0.0
C4685 C 0.48162 0.62138 0.89351 0.0
C4686 C 0.46834 0.62344 0.90554 0.0
C4687 C 0.46139 0.60876 0.91523 0.0
C4688 C 0.46768 0.59197 0.91287 0.0
C4689 C 0.53374 0.54407 0.95852 0.0
C4690 C 0.52209 0.54264 0.97302 0.0
C4691 C 0.52813 0.54699 0.93998 0.0
C4692 C 0.51067 0.54861 0.93523 0.0
C4693 C 0.4991 0.54658 0.94964 0.0
C4694 C 0.50462 0.54363 0.96792 0.0
C4695 C 0.50429 0.55314 0.91599 0.0
C4696 C 0.49498 0.56779 0.91605 0.0
C4697 C 0.50682 0.54319 0.89757 0.0
C4698 C 0.5163 0.52764 0.89543 0.0
C4699 C 0.50906 0.5102 0.90099 0.0
C4700 C 0.51718 0.4948 0.89707 0.0
C4701 C 0.53277 0.49686 0.88811 0.0
C4702 C 0.54011 0.51427 0.8827 0.0
C4703 C 0.53183 0.52958 0.88616 0.0
H4704 H 0.53904 0.48491 0.88517 0.0
H4705 H 0.46347 0.63644 0.90741 0.0
H4706 H 0.76993 0.19992 0.05606 0.0
H4707 H 0.76294 0.21804 0.08588 0.0
H4708 H 0.78387 0.18151 0.11815 0.0
H4709 H 0.79051 0.16297 0.08831 0.0
H4710 H 0.75531 0.19149 0.13324 0.0
H4711 H 0.80968 0.22041 0.11267 0.0
H4712 H 0.82981 0.23341 0.09024 0.0
H4713 H 0.80185 0.27769 0.08724 0.0
H4714 H 0.78123 0.2646 0.1093 0.0
H4715 H 0.80177 0.24738 0.21757 0.0
H4716 H 0.79317 0.22949 0.18464 0.0
H4717 H 0.76319 0.27051 0.17379 0.0
H4718 H 0.77186 0.28859 0.20715 0.0
H4719 H 0.78874 0.25992 0.14646 0.0
H4720 H 0.73967 0.23074 0.17807 0.0
H4721 H 0.72668 0.21625 0.20441 0.0
H4722 H 0.75378 0.17073 0.19172 0.0
H4723 H 0.76715 0.18509 0.16553 0.0
C4724 C 0.77307 0.1958 0.06953 0.0
C4725 C 0.78116 0.18044 0.07009 0.0
C4726 C 0.76883 0.20593 0.08642 0.0
C4727 C 0.77299 0.20106 0.10403 0.0
C4728 C 0.78046 0.18529 0.10458 0.0
C4729 C 0.7845 0.17497 0.08764 0.0
C4730 C 0.77192 0.21401 0.122 0.0
C4731 C 0.76244 0.20651 0.13616 0.0
C4732 C 0.78142 0.23347 0.12563 0.0
C4733 C 0.79371 0.24132 0.1123 0.0
C4734 C 0.80767 0.23275 0.10701 0.0
C4735 C 0.81918 0.24015 0.09439 0.0
C4736 C 0.81705 0.2563 0.08724 0.0
C4737 C 0.80342 0.26511 0.09272 0.0
C4738 C 0.79179 0.25769 0.10524 0.0
C4739 C 0.79356 0.25268 0.208 0.0
C4740 C 0.78747 0.26923 0.21443 0.0
C4741 C 0.78849 0.24239 0.18944 0.0
C4742 C 0.77718 0.24852 0.17727 0.0
C4743 C 0.77171 0.26559 0.18334 0.0
C4744 C 0.77683 0.27597 0.20206 0.0
C4745 C 0.77227 0.23744 0.15777 0.0
C4746 C 0.78084 0.2452 0.14327 0.0
C4747 C 0.76281 0.21795 0.15431 0.0
C4748 C 0.75441 0.20902 0.16979 0.0
C4749 C 0.74291 0.21768 0.18093 0.0
C4750 C 0.73548 0.20948 0.19584 0.0
C4751 C 0.7394 0.19258 0.19973 0.0
C4752 C 0.75072 0.1838 0.18868 0.0
C4753 C 0.7582 0.19194 0.17376 0.0
H4754 H 0.73365 0.18627 0.2113 0.0
H4755 H 0.82602 0.26205 0.07751 0.0
H4756 H 0.13766 0.54118 0.27259 0.0
H4757 H 0.12239 0.53937 0.30151 0.0
H4758 H 0.17217 0.54691 0.33511 0.0
H4759 H 0.18724 0.54716 0.30571 0.0
H4760 H 0.14889 0.52097 0.34574 0.0
H4761 H 0.15027 0.58441 0.33522 0.0
H4762 H 0.14604 0.60888 0.31654 0.0
H4763 H 0.0904 0.58365 0.30744 0.0
H4764 H 0.09433 0.55886 0.32582 0.0
H4765 H 0.11556 0.56318 0.43325 0.0
H4766 H 0.13175 0.55198 0.40654 0.0
H4767 H 0.08264 0.52792 0.3707 0.0
H4768 H 0.06648 0.53899 0.39743 0.0
H4769 H 0.10619 0.56134 0.36195 0.0
H4770 H 0.1062 0.49873 0.37533 0.0
H4771 H 0.11212 0.47499 0.39411 0.0
H4772 H 0.16754 0.50103 0.39961 0.0
H4773 H 0.16193 0.52528 0.38133 0.0
C4774 C 0.14523 0.54247 0.28622 0.0
C4775 C 0.16345 0.54441 0.2873 0.0
C4776 C 0.13659 0.54155 0.30267 0.0
C4777 C 0.14623 0.54344 0.32047 0.0
C4778 C 0.16454 0.54546 0.32149 0.0
C4779 C 0.17311 0.5457 0.30486 0.0
C4780 C 0.13708 0.54304 0.33793 0.0
C4781 C 0.13975 0.53001 0.34951 0.0
C4782 C 0.12501 0.55465 0.34257 0.0
C4783 C 0.12261 0.56973 0.33178 0.0
C4784 C 0.13715 0.58404 0.32915 0.0
C4785 C 0.1348 0.59796 0.31862 0.0
C4786 C 0.11797 0.5978 0.31078 0.0
C4787 C 0.10343 0.58375 0.31351 0.0
C4788 C 0.1057 0.56978 0.32399 0.0
C4789 C 0.1083 0.55483 0.41986 0.0
C4790 C 0.08996 0.55203 0.41703 0.0
C4791 C 0.11747 0.54831 0.40476 0.0
C4792 C 0.1083 0.53917 0.3868 0.0
C4793 C 0.08983 0.5348 0.38459 0.0
C4794 C 0.08066 0.5412 0.39972 0.0
C4795 C 0.11779 0.53905 0.3696 0.0
C4796 C 0.11532 0.55226 0.35818 0.0
C4797 C 0.13033 0.52798 0.36548 0.0
C4798 C 0.1336 0.51396 0.37719 0.0
C4799 C 0.11962 0.49959 0.38082 0.0
C4800 C 0.12293 0.48598 0.39129 0.0
C4801 C 0.14019 0.48648 0.39803 0.0
C4802 C 0.15418 0.50066 0.3944 0.0
C4803 C 0.15093 0.51437 0.38402 0.0
H4804 H 0.14272 0.47585 0.40605 0.0
H4805 H 0.11618 0.60859 0.30262 0.0
H4806 H 0.80888 0.88643 0.59388 0.0
H4807 H 0.8083 0.87663 0.625 0.0
H4808 H 0.77901 0.8195 0.59762 0.0
H4809 H 0.77936 0.82926 0.56637 0.0
H4810 H 0.76458 0.83211 0.62875 0.0
H4811 H 0.82202 0.82798 0.61423 0.0
H4812 H 0.85215 0.83764 0.60509 0.0
H4813 H 0.86528 0.88318 0.65508 0.0
H4814 H 0.83511 0.87406 0.66435 0.0
H4815 H 0.77341 0.7934 0.71275 0.0
H4816 H 0.77333 0.8007 0.6809 0.0
H4817 H 0.80452 0.85809 0.70435 0.0
H4818 H 0.80586 0.85019 0.73635 0.0
H4819 H 0.81801 0.84303 0.67412 0.0
H4820 H 0.75829 0.84567 0.68746 0.0
H4821 H 0.72879 0.83225 0.69651 0.0
H4822 H 0.72053 0.78557 0.64772 0.0
H4823 H 0.75011 0.79851 0.63857 0.0
C4824 C 0.80238 0.87174 0.59442 0.0
C4825 C 0.79412 0.85864 0.57759 0.0
C4826 C 0.80214 0.86613 0.61224 0.0
C4827 C 0.79373 0.84728 0.61366 0.0
C4828 C 0.78558 0.83412 0.59689 0.0
C4829 C 0.78583 0.83972 0.57902 0.0
C4830 C 0.79288 0.84164 0.63277 0.0
C4831 C 0.77629 0.83429 0.63859 0.0
C4832 C 0.80814 0.84458 0.64567 0.0
C4833 C 0.82619 0.85047 0.63986 0.0
C4834 C 0.83124 0.84023 0.62315 0.0
C4835 C 0.84835 0.84557 0.61797 0.0
C4836 C 0.86061 0.86105 0.62946 0.0
C4837 C 0.85576 0.87122 0.64616 0.0
C4838 C 0.83865 0.86597 0.65138 0.0
C4839 C 0.78044 0.80749 0.71128 0.0
C4840 C 0.7903 0.82083 0.72716 0.0
C4841 C 0.7801 0.81181 0.69294 0.0
C4842 C 0.78891 0.82998 0.6901 0.0
C4843 C 0.79774 0.84388 0.70612 0.0
C4844 C 0.79838 0.83938 0.72447 0.0
C4845 C 0.78968 0.83417 0.67036 0.0
C4846 C 0.80629 0.84103 0.66434 0.0
C4847 C 0.77446 0.83048 0.65717 0.0
C4848 C 0.75648 0.823 0.66241 0.0
C4849 C 0.75022 0.8325 0.67871 0.0
C4850 C 0.73349 0.82497 0.68387 0.0
C4851 C 0.72281 0.80805 0.67272 0.0
C4852 C 0.72882 0.79866 0.65635 0.0
C4853 C 0.74556 0.8061 0.65117 0.0
H4854 H 0.70987 0.80224 0.67675 0.0
H4855 H 0.87387 0.86513 0.62545 0.0
H4856 H 0.78087 0.48194 0.51127 0.0
H4857 H 0.75579 0.4965 0.51253 0.0
H4858 H 0.72449 0.44638 0.52957 0.0
H4859 H 0.74958 0.43129 0.52782 0.0
H4860 H 0.7083 0.45677 0.50061 0.0
H4861 H 0.74042 0.48823 0.56162 0.0
H4862 H 0.76637 0.50691 0.58369 0.0
H4863 H 0.76845 0.55512 0.55591 0.0
H4864 H 0.74273 0.53662 0.53339 0.0
H4865 H 0.64073 0.49976 0.53866 0.0
H4866 H 0.66255 0.48179 0.52761 0.0
H4867 H 0.69314 0.53251 0.51088 0.0
H4868 H 0.67162 0.55065 0.52269 0.0
H4869 H 0.71002 0.52172 0.53847 0.0
H4870 H 0.67693 0.48982 0.47783 0.0
H4871 H 0.65289 0.46957 0.45401 0.0
H4872 H 0.65271 0.42137 0.48133 0.0
H4873 H 0.67661 0.44131 0.5054 0.0
C4874 C 0.76868 0.47401 0.51538 0.0
C4875 C 0.76703 0.4555 0.51944 0.0
C4876 C 0.75445 0.48242 0.5162 0.0
C4877 C 0.73856 0.47254 0.52143 0.0
C4878 C 0.73683 0.45411 0.52561 0.0
C4879 C 0.75106 0.44555 0.52457 0.0
C4880 C 0.72341 0.48109 0.52137 0.0
C4881 C 0.70841 0.47083 0.50912 0.0
C4882 C 0.72421 0.49971 0.532 0.0
C4883 C 0.73969 0.51093 0.54566 0.0
C4884 C 0.74649 0.50275 0.56008 0.0
C4885 C 0.76116 0.51332 0.57269 0.0
C4886 C 0.76908 0.53217 0.57117 0.0
C4887 C 0.76232 0.54051 0.55705 0.0
C4888 C 0.74769 0.52998 0.54436 0.0
C4889 C 0.65197 0.50681 0.53221 0.0
C4890 C 0.65502 0.52651 0.53184 0.0
C4891 C 0.66421 0.49653 0.52564 0.0
C4892 C 0.67935 0.50591 0.51845 0.0
C4893 C 0.68145 0.52514 0.51641 0.0
C4894 C 0.66939 0.5355 0.5233 0.0
C4895 C 0.69464 0.4974 0.51761 0.0
C4896 C 0.70977 0.50767 0.52985 0.0
C4897 C 0.69384 0.4787 0.50712 0.0
C4898 C 0.67845 0.46719 0.4936 0.0
C4899 C 0.67154 0.47503 0.479 0.0
C4900 C 0.65799 0.46356 0.46538 0.0
C4901 C 0.65122 0.44425 0.46621 0.0
C4902 C 0.65793 0.43635 0.48071 0.0
C4903 C 0.67148 0.44773 0.49434 0.0
H4904 H 0.64081 0.43539 0.45558 0.0
H4905 H 0.78043 0.54033 0.58096 0.0
H4906 H 0.24515 0.12768 0.4912 0.0
H4907 H 0.21526 0.10745 0.49016 0.0
H4908 H 0.1961 0.15826 0.50978 0.0
H4909 H 0.22566 0.17841 0.51077 0.0
H4910 H 0.18477 0.13098 0.53025 0.0
H4911 H 0.18646 0.13441 0.46373 0.0
H4912 H 0.19779 0.13097 0.43189 0.0
H4913 H 0.19115 0.07015 0.4291 0.0
H4914 H 0.17999 0.07327 0.46108 0.0
H4915 H 0.09299 0.09518 0.51715 0.0
H4916 H 0.12293 0.1123 0.51442 0.0
H4917 H 0.13581 0.05849 0.49108 0.0
H4918 H 0.10552 0.04124 0.49318 0.0
H4919 H 0.15121 0.0854 0.47276 0.0
H4920 H 0.14807 0.08254 0.53957 0.0
H4921 H 0.13648 0.08698 0.57127 0.0
H4922 H 0.14578 0.14796 0.57343 0.0
H4923 H 0.15719 0.14385 0.54163 0.0
C4924 C 0.23454 0.13453 0.4952 0.0
C4925 C 0.23788 0.1547 0.50113 0.0
C4926 C 0.21743 0.12295 0.49452 0.0
C4927 C 0.20334 0.13129 0.49986 0.0
C4928 C 0.20669 0.15142 0.50563 0.0
C4929 C 0.22366 0.16296 0.50614 0.0
C4930 C 0.18523 0.11922 0.50028 0.0
C4931 C 0.17738 0.12116 0.51761 0.0
C4932 C 0.17566 0.10601 0.48396 0.0
C4933 C 0.18263 0.10412 0.4649 0.0
C4934 C 0.18761 0.12034 0.45643 0.0
C4935 C 0.19395 0.11844 0.43833 0.0
C4936 C 0.19525 0.10037 0.42851 0.0
C4937 C 0.19018 0.08415 0.43675 0.0
C4938 C 0.18384 0.08597 0.45486 0.0
C4939 C 0.10209 0.08688 0.51132 0.0
C4940 C 0.09672 0.06667 0.50558 0.0
C4941 C 0.11934 0.09676 0.50989 0.0
C4942 C 0.13191 0.08673 0.50303 0.0
C4943 C 0.12648 0.06662 0.4966 0.0
C4944 C 0.10908 0.05671 0.49782 0.0
C4945 C 0.15065 0.09731 0.50272 0.0
C4946 C 0.15863 0.09509 0.48545 0.0
C4947 C 0.16036 0.11039 0.5191 0.0
C4948 C 0.15334 0.11285 0.53814 0.0
C4949 C 0.14751 0.09687 0.54674 0.0
C4950 C 0.141 0.09934 0.56474 0.0
C4951 C 0.14037 0.11774 0.57434 0.0
C4952 C 0.14626 0.13372 0.56597 0.0
C4953 C 0.15276 0.13133 0.54797 0.0
H4954 H 0.13533 0.11961 0.58828 0.0
H4955 H 0.20014 0.09892 0.41448 0.0
H4956 H 0.21535 0.96867 0.77725 0.0
H4957 H 0.23242 0.94422 0.77956 0.0
H4958 H 0.189 0.89988 0.74846 0.0
H4959 H 0.17196 0.92392 0.74672 0.0
H4960 H 0.20089 0.8823 0.7702 0.0
H4961 H 0.23246 0.91915 0.73029 0.0
H4962 H 0.24796 0.9482 0.7194 0.0
H4963 H 0.28743 0.96056 0.76738 0.0
H4964 H 0.27198 0.93169 0.77873 0.0
H4965 H 0.26119 0.81508 0.74696 0.0
H4966 H 0.24452 0.83955 0.74241 0.0
H4967 H 0.2651 0.872 0.799 0.0
H4968 H 0.28055 0.84701 0.80405 0.0
H4969 H 0.26471 0.89432 0.76239 0.0
H4970 H 0.2292 0.85177 0.79907 0.0
H4971 H 0.21232 0.82011 0.80337 0.0
H4972 H 0.17829 0.81518 0.75224 0.0
H4973 H 0.19528 0.84665 0.74734 0.0
C4974 C 0.20939 0.95377 0.77077 0.0
C4975 C 0.19193 0.94885 0.7617 0.0
C4976 C 0.21934 0.93949 0.772 0.0
C4977 C 0.21253 0.91949 0.76401 0.0
C4978 C 0.1951 0.91474 0.755 0.0
C4979 C 0.1852 0.92888 0.75389 0.0
C4980 C 0.22315 0.90364 0.76498 0.0
C4981 C 0.21482 0.88518 0.7683 0.0
C4982 C 0.24146 0.90624 0.76227 0.0
C4983 C 0.25094 0.92344 0.7555 0.0
C4984 C 0.24438 0.92814 0.73859 0.0
C4985 C 0.25315 0.94456 0.73233 0.0
C4986 C 0.26863 0.95626 0.74274 0.0
C4987 C 0.27541 0.9515 0.75937 0.0
C4988 C 0.26665 0.93512 0.76573 0.0
C4989 C 0.26255 0.82763 0.75831 0.0
C4990 C 0.27315 0.82913 0.77566 0.0
C4991 C 0.25276 0.84172 0.75575 0.0
C4992 C 0.25335 0.85822 0.77024 0.0
C4993 C 0.26422 0.85983 0.78733 0.0
C4994 C 0.27337 0.84545 0.79015 0.0
C4995 C 0.24251 0.87344 0.76808 0.0
C4996 C 0.2508 0.89166 0.76439 0.0
C4997 C 0.22401 0.87028 0.76964 0.0
C4998 C 0.21375 0.85143 0.77265 0.0
C4999 C 0.21831 0.84382 0.78856 0.0
C5000 C 0.20867 0.82593 0.79115 0.0
C5001 C 0.19429 0.81559 0.77803 0.0
C5002 C 0.18947 0.82318 0.76234 0.0
C5003 C 0.19912 0.84104 0.75965 0.0
H5004 H 0.18686 0.80174 0.78005 0.0
H5005 H 0.2754 0.96899 0.73788 0.0
H5006 H 0.37761 0.94712 0.04668 0.0
H5007 H 0.40762 0.95902 0.0392 0.0
H5008 H 0.39333 0.00899 0.02395 0.0
H5009 H 0.36308 0.997 0.03109 0.0
H5010 H 0.41058 0.9875 0.9956 0.0
H5011 H 0.41684 0.01514 0.06447 0.0
H5012 H 0.41231 0.01114 0.09772 0.0
H5013 H 0.44456 0.97 0.09318 0.0
H5014 H 0.44905 0.97354 0.05975 0.0
H5015 H 0.50203 0.05032 0.0274 0.0
H5016 H 0.47031 0.03892 0.01756 0.0
H5017 H 0.47659 0.98065 0.00209 0.0
H5018 H 0.50824 0.99214 0.01059 0.0
H5019 H 0.46303 0.00498 0.04355 0.0
H5020 H 0.45233 0.97003 0.97737 0.0
H5021 H 0.45348 0.96538 0.94227 0.0
H5022 H 0.42974 0.01318 0.94065 0.0
H5023 H 0.42859 0.01815 0.97587 0.0
C5024 C 0.38098 0.9609 0.04225 0.0
C5025 C 0.36819 0.97126 0.03948 0.0
C5026 C 0.39801 0.96753 0.03781 0.0
C5027 C 0.40239 0.98471 0.03094 0.0
C5028 C 0.38991 0.99557 0.02907 0.0
C5029 C 0.37283 0.98886 0.03333 0.0
C5030 C 0.42006 0.99123 0.0255 0.0
C5031 C 0.42208 0.9917 0.00608 0.0
C5032 C 0.43487 0.99568 0.03914 0.0
C5033 C 0.43322 0.99456 0.05962 0.0
C5034 C 0.42297 0.00526 0.07058 0.0
C5035 C 0.42038 0.00304 0.08942 0.0
C5036 C 0.42811 0.9903 0.09752 0.0
C5037 C 0.43858 0.97986 0.08686 0.0
C5038 C 0.44118 0.98199 0.06798 0.0
C5039 C 0.49661 0.03528 0.02091 0.0
C5040 C 0.50705 0.0219 0.01991 0.0
C5041 C 0.4787 0.02885 0.01501 0.0
C5042 C 0.47132 0.00902 0.00908 0.0
C5043 C 0.48217 0.99603 0.00608 0.0
C5044 C 0.50013 0.00254 0.0113 0.0
C5045 C 0.45353 1.00182 0.01373 0.0
C5046 C 0.45152 1.00109 0.03309 0.0
C5047 C 0.43885 0.99654 0.99997 0.0
C5048 C 0.44067 0.99467 0.9792 0.0
C5049 C 0.44769 0.97978 0.96957 0.0
C5050 C 0.44815 0.97694 0.94964 0.0
C5051 C 0.44162 0.98892 0.93921 0.0
C5052 C 0.43471 0.00385 0.94873 0.0
C5053 C 0.43417 0.00671 0.96868 0.0
H5054 H 0.44203 0.98674 0.92378 0.0
H5055 H 0.42597 0.9886 0.11206 0.0
H5056 H 0.91228 0.60471 0.81049 0.0
H5057 H 0.8987 0.62831 0.79875 0.0
H5058 H 0.84742 0.59662 0.80843 0.0
H5059 H 0.86083 0.57289 0.82003 0.0
H5060 H 0.85148 0.60485 0.77 0.0
H5061 H 0.86258 0.63534 0.83868 0.0
H5062 H 0.88506 0.64352 0.86653 0.0
H5063 H 0.91974 0.68113 0.83748 0.0
H5064 H 0.89751 0.67287 0.8093 0.0
H5065 H 0.79184 0.6601 0.75933 0.0
H5066 H 0.80993 0.64326 0.77618 0.0
H5067 H 0.85709 0.68364 0.76769 0.0
H5068 H 0.83907 0.70061 0.75115 0.0
H5069 H 0.85847 0.67273 0.80396 0.0
H5070 H 0.84623 0.64549 0.73645 0.0
H5071 H 0.82628 0.63378 0.70649 0.0
H5072 H 0.79669 0.58806 0.73075 0.0
H5073 H 0.81628 0.59977 0.76104 0.0
C5074 C 0.89821 0.60324 0.81082 0.0
C5075 C 0.88749 0.58721 0.81618 0.0
C5076 C 0.89051 0.61644 0.80382 0.0
C5077 C 0.87219 0.61373 0.80255 0.0
C5078 C 0.8616 0.59853 0.80916 0.0
C5079 C 0.86926 0.58531 0.81606 0.0
C5080 C 0.86386 0.62689 0.7945 0.0
C5081 C 0.85287 0.61966 0.77736 0.0
C5082 C 0.86634 0.64617 0.80407 0.0
C5083 C 0.87833 0.6537 0.82203 0.0
C5084 C 0.87488 0.64564 0.83841 0.0
C5085 C 0.88763 0.65013 0.85415 0.0
C5086 C 0.90381 0.66287 0.85379 0.0
C5087 C 0.90717 0.67132 0.83776 0.0
C5088 C 0.89447 0.6668 0.82192 0.0
C5089 C 0.80606 0.66516 0.76102 0.0
C5090 C 0.81426 0.6811 0.75367 0.0
C5091 C 0.81628 0.65589 0.77085 0.0
C5092 C 0.8347 0.66236 0.77299 0.0
C5093 C 0.84286 0.67868 0.7662 0.0
C5094 C 0.83265 0.68802 0.75652 0.0
C5095 C 0.84547 0.65046 0.77973 0.0
C5096 C 0.8571 0.65797 0.7965 0.0
C5097 C 0.8438 0.63141 0.76963 0.0
C5098 C 0.83264 0.62358 0.75105 0.0
C5099 C 0.83545 0.63296 0.7354 0.0
C5100 C 0.82419 0.62635 0.71838 0.0
C5101 C 0.8102 0.61021 0.71673 0.0
C5102 C 0.80753 0.60057 0.73206 0.0
C5103 C 0.81871 0.60718 0.74916 0.0
H5104 H 0.80146 0.60515 0.70356 0.0
H5105 H 0.91375 0.66616 0.86591 0.0
H5106 H 0.82742 0.63931 0.01285 0.0
H5107 H 0.85171 0.62367 0.01684 0.0
H5108 H 0.88705 0.66946 0.99744 0.0
H5109 H 0.86286 0.6853 0.9935 0.0
H5110 H 0.89032 0.63224 0.98061 0.0
H5111 H 0.88973 0.66981 0.04346 0.0
H5112 H 0.87607 0.68143 0.07236 0.0
H5113 H 0.86108 0.62373 0.08254 0.0
H5114 H 0.87444 0.61172 0.05354 0.0
H5115 H 0.96821 0.60413 0.01861 0.0
H5116 H 0.94695 0.62205 0.00914 0.0
H5117 H 0.90481 0.58101 0.02613 0.0
H5118 H 0.92563 0.56279 0.03488 0.0
H5119 H 0.90745 0.61926 0.04435 0.0
H5120 H 0.90602 0.58093 0.98203 0.0
H5121 H 0.91518 0.56716 0.951 0.0
H5122 H 0.93083 0.62377 0.93821 0.0
H5123 H 0.92235 0.63796 0.96947 0.0
C5124 C 0.84032 0.64601 0.00932 0.0
C5125 C 0.84319 0.66356 0.00287 0.0
C5126 C 0.85421 0.63711 0.01171 0.0
C5127 C 0.8712 0.64551 0.00759 0.0
C5128 C 0.87404 0.66278 1.00073 0.0
C5129 C 0.8602 0.67181 0.99853 0.0
C5130 C 0.88597 0.63625 0.01055 0.0
C5131 C 0.89439 0.62973 0.9946 0.0
C5132 C 0.8909 0.63265 0.02874 0.0
C5133 C 0.88297 0.63985 0.04625 0.0
C5134 C 0.88341 0.65958 0.05178 0.0
C5135 C 0.87574 0.66624 0.06819 0.0
C5136 C 0.86768 0.65332 0.07926 0.0
C5137 C 0.86731 0.63372 0.07395 0.0
C5138 C 0.87495 0.62698 0.05755 0.0
C5139 C 0.95436 0.59867 0.01984 0.0
C5140 C 0.94867 0.5822 0.02783 0.0
C5141 C 0.94225 0.60896 0.0145 0.0
C5142 C 0.92435 0.60294 0.01715 0.0
C5143 C 0.91859 0.586 0.02416 0.0
C5144 C 0.93055 0.57566 0.02926 0.0
C5145 C 0.91169 0.6149 0.0143 0.0
C5146 C 0.90368 0.62203 0.03037 0.0
C5147 C 0.90704 0.61886 0.99616 0.0
C5148 C 0.91386 0.61055 0.9783 0.0
C5149 C 0.91188 0.59051 0.97287 0.0
C5150 C 0.91686 0.58261 0.95517 0.0
C5151 C 0.92366 0.59457 0.94267 0.0
C5152 C 0.92569 0.6145 0.94794 0.0
C5153 C 0.92087 0.62249 0.96569 0.0
H5154 H 0.92719 0.58834 0.92884 0.0
H5155 H 0.86174 0.65851 0.09195 0.0
H5156 H 0.21877 0.06266 0.7696 0.0
H5157 H 0.236 0.09559 0.76962 0.0
H5158 H 0.18887 0.11679 0.77505 0.0
H5159 H 0.17184 0.08435 0.77493 0.0
H5160 H 0.20604 0.13508 0.75206 0.0
H5161 H 0.22357 0.12423 0.81359 0.0
H5162 H 0.23545 0.10761 0.8368 0.0
H5163 H 0.2848 0.11586 0.81207 0.0
H5164 H 0.27309 0.13229 0.78851 0.0
H5165 H 0.24598 0.23648 0.77696 0.0
H5166 H 0.23016 0.20339 0.77686 0.0
H5167 H 0.27885 0.18506 0.77318 0.0
H5168 H 0.29476 0.21829 0.77397 0.0
H5169 H 0.26131 0.16492 0.79457 0.0
H5170 H 0.24262 0.17731 0.73319 0.0
H5171 H 0.22962 0.19451 0.71132 0.0
H5172 H 0.18104 0.18394 0.73736 0.0
H5173 H 0.19385 0.16696 0.75959 0.0
C5174 C 0.21205 0.0743 0.77075 0.0
C5175 C 0.19372 0.07041 0.7724 0.0
C5176 C 0.222 0.09337 0.77091 0.0
C5177 C 0.21405 0.10932 0.7726 0.0
C5178 C 0.1957 0.10522 0.77377 0.0
C5179 C 0.18586 0.08637 0.77379 0.0
C5180 C 0.22444 0.13013 0.77313 0.0
C5181 C 0.21804 0.14153 0.76156 0.0
C5182 C 0.24036 0.13913 0.78516 0.0
C5183 C 0.24739 0.12921 0.79915 0.0
C5184 C 0.2369 0.12233 0.813 0.0
C5185 C 0.24361 0.11298 0.82623 0.0
C5186 C 0.26085 0.11061 0.82586 0.0
C5187 C 0.27143 0.11765 0.8123 0.0
C5188 C 0.26477 0.12698 0.799 0.0
C5189 C 0.25346 0.22551 0.7762 0.0
C5190 C 0.27193 0.23058 0.77548 0.0
C5191 C 0.24424 0.20626 0.77593 0.0
C5192 C 0.25294 0.19097 0.7745 0.0
C5193 C 0.27144 0.19611 0.77419 0.0
C5194 C 0.2807 0.21541 0.77466 0.0
C5195 C 0.24295 0.16988 0.77344 0.0
C5196 C 0.24939 0.15845 0.78496 0.0
C5197 C 0.22693 0.1609 0.76149 0.0
C5198 C 0.21925 0.17107 0.74816 0.0
C5199 C 0.22921 0.17878 0.73432 0.0
C5200 C 0.22187 0.18848 0.72187 0.0
C5201 C 0.20453 0.19036 0.72299 0.0
C5202 C 0.19448 0.18251 0.73654 0.0
C5203 C 0.20177 0.17286 0.74907 0.0
H5204 H 0.19888 0.19787 0.71333 0.0
H5205 H 0.26602 0.10337 0.83613 0.0
H5206 H 0.3587 0.98755 0.26164 0.0
H5207 H 0.34136 0.95598 0.26515 0.0
H5208 H 0.3864 0.94688 0.29713 0.0
H5209 H 0.40388 0.97788 0.29293 0.0
H5210 H 0.37246 0.91883 0.26651 0.0
H5211 H 0.35073 0.95517 0.32114 0.0
H5212 H 0.33625 0.97983 0.33727 0.0
H5213 H 0.29013 0.95607 0.2971 0.0
H5214 H 0.30436 0.93131 0.28076 0.0
H5215 H 0.34017 0.83178 0.28178 0.0
H5216 H 0.34966 0.86632 0.29406 0.0
H5217 H 0.30247 0.87438 0.26523 0.0
H5218 H 0.2918 0.83923 0.25525 0.0
H5219 H 0.31602 0.9036 0.29571 0.0
H5220 H 0.33654 0.86954 0.23972 0.0
H5221 H 0.34913 0.8439 0.22235 0.0
H5222 H 0.39633 0.86394 0.26129 0.0
H5223 H 0.38389 0.88959 0.2791 0.0
C5224 C 0.36485 0.97848 0.26901 0.0
C5225 C 0.38254 0.9845 0.27655 0.0
C5226 C 0.35491 0.96089 0.27145 0.0
C5227 C 0.36262 0.94967 0.28183 0.0
C5228 C 0.38034 0.95569 0.28929 0.0
C5229 C 0.39035 0.97302 0.28649 0.0
C5230 C 0.35314 0.93031 0.28235 0.0
C5231 C 0.36029 0.9155 0.27321 0.0
C5232 C 0.33688 0.92627 0.29025 0.0
C5233 C 0.32865 0.94155 0.29966 0.0
C5234 C 0.33757 0.95535 0.31566 0.0
C5235 C 0.32938 0.96928 0.32488 0.0
C5236 C 0.3123 0.96954 0.31819 0.0
C5237 C 0.30336 0.95587 0.30227 0.0
C5238 C 0.31146 0.94187 0.29305 0.0
C5239 C 0.33144 0.84094 0.27914 0.0
C5240 C 0.31519 0.83339 0.2683 0.0
C5241 C 0.33682 0.86049 0.28602 0.0
C5242 C 0.32685 0.87258 0.28011 0.0
C5243 C 0.31017 0.86502 0.26992 0.0
C5244 C 0.3043 0.84522 0.26395 0.0
C5245 C 0.3357 0.89235 0.28042 0.0
C5246 C 0.32831 0.90709 0.28929 0.0
C5247 C 0.3516 0.89649 0.27178 0.0
C5248 C 0.35925 0.88138 0.26078 0.0
C5249 C 0.34958 0.86844 0.24459 0.0
C5250 C 0.35669 0.8539 0.23468 0.0
C5251 C 0.37351 0.85226 0.24069 0.0
C5252 C 0.3833 0.86522 0.25664 0.0
C5253 C 0.37624 0.87977 0.26664 0.0
H5254 H 0.37896 0.84096 0.23299 0.0
H5255 H 0.30597 0.98032 0.32537 0.0
H5256 H 0.58278 0.34458 0.54935 0.0
H5257 H 0.57724 0.3726 0.53756 0.0
H5258 H 0.56906 0.39842 0.59494 0.0
H5259 H 0.57434 0.37026 0.60677 0.0
H5260 H 0.54379 0.40112 0.57078 0.0
H5261 H 0.60731 0.41438 0.57007 0.0
H5262 H 0.63544 0.40741 0.56053 0.0
H5263 H 0.61739 0.40135 0.50102 0.0
H5264 H 0.58905 0.40801 0.51019 0.0
H5265 H 0.54742 0.49726 0.56589 0.0
H5266 H 0.55174 0.46632 0.57109 0.0
H5267 H 0.5566 0.44914 0.51063 0.0
H5268 H 0.55237 0.48071 0.50537 0.0
H5269 H 0.58241 0.44002 0.53207 0.0
H5270 H 0.51892 0.41817 0.52999 0.0
H5271 H 0.4886 0.41995 0.53636 0.0
H5272 H 0.5054 0.44019 0.59664 0.0
H5273 H 0.53563 0.43725 0.59069 0.0
C5274 C 0.57997 0.35628 0.55956 0.0
C5275 C 0.57906 0.35501 0.57911 0.0
C5276 C 0.5769 0.37246 0.55276 0.0
C5277 C 0.57288 0.38796 0.5653 0.0
C5278 C 0.57217 0.38681 0.58487 0.0
C5279 C 0.57528 0.37066 0.59168 0.0
C5280 C 0.56835 0.40478 0.55802 0.0
C5281 C 0.55248 0.40972 0.56258 0.0
C5282 C 0.57901 0.41561 0.54631 0.0
C5283 C 0.59599 0.41149 0.54082 0.0
C5284 C 0.60928 0.41138 0.55494 0.0
C5285 C 0.62527 0.40752 0.5496 0.0
C5286 C 0.62818 0.40388 0.53018 0.0
C5287 C 0.61511 0.40413 0.51605 0.0
C5288 C 0.59908 0.40796 0.52132 0.0
C5289 C 0.54904 0.48679 0.55356 0.0
C5290 C 0.54938 0.4915 0.53519 0.0
C5291 C 0.55146 0.46894 0.55655 0.0
C5292 C 0.55433 0.45504 0.54129 0.0
C5293 C 0.55435 0.45948 0.52272 0.0
C5294 C 0.55176 0.47748 0.51966 0.0
C5295 C 0.55814 0.43655 0.54539 0.0
C5296 C 0.57379 0.43131 0.54023 0.0
C5297 C 0.5472 0.42507 0.55621 0.0
C5298 C 0.52946 0.42779 0.55987 0.0
C5299 C 0.51612 0.42309 0.54457 0.0
C5300 C 0.49895 0.4241 0.54814 0.0
C5301 C 0.49512 0.43049 0.56686 0.0
C5302 C 0.5084 0.43537 0.58213 0.0
C5303 C 0.52549 0.43378 0.57872 0.0
H5304 H 0.48184 0.43153 0.56954 0.0
H5305 H 0.64057 0.40092 0.52608 0.0
H5306 H 0.48002 0.77437 0.37698 0.0
H5307 H 0.45557 0.77701 0.35518 0.0
H5308 H 0.41835 0.75062 0.39067 0.0
H5309 H 0.4426 0.74768 0.4122 0.0
H5310 H 0.40622 0.73621 0.35515 0.0
H5311 H 0.42819 0.80053 0.39048 0.0
H5312 H 0.4503 0.83076 0.40369 0.0
H5313 H 0.46064 0.83831 0.34646 0.0
H5314 H 0.43872 0.80797 0.33291 0.0
H5315 H 0.33014 0.76586 0.32207 0.0
H5316 H 0.35562 0.76145 0.34092 0.0
H5317 H 0.38931 0.78036 0.29872 0.0
H5318 H 0.36377 0.78476 0.27976 0.0
H5319 H 0.4036 0.79813 0.33622 0.0
H5320 H 0.37929 0.73351 0.3015 0.0
H5321 H 0.35623 0.7037 0.28983 0.0
H5322 H 0.34901 0.69745 0.34804 0.0
H5323 H 0.37189 0.72737 0.36008 0.0
C5324 C 0.46664 0.76906 0.38012 0.0
C5325 C 0.46345 0.76077 0.39646 0.0
C5326 C 0.45258 0.77069 0.36766 0.0
C5327 C 0.43488 0.76418 0.3712 0.0
C5328 C 0.43174 0.75574 0.3874 0.0
C5329 C 0.44574 0.75412 0.39982 0.0
C5330 C 0.41963 0.76608 0.35818 0.0
C5331 C 0.40564 0.74985 0.35123 0.0
C5332 C 0.4187 0.78371 0.35262 0.0
C5333 C 0.43196 0.80188 0.36069 0.0
C5334 C 0.43529 0.80855 0.38072 0.0
C5335 C 0.44776 0.82572 0.38826 0.0
C5336 C 0.4569 0.83642 0.37592 0.0
C5337 C 0.45356 0.82999 0.356 0.0
C5338 C 0.44111 0.81281 0.34838 0.0
C5339 C 0.34295 0.76898 0.31671 0.0
C5340 C 0.34479 0.77548 0.29923 0.0
C5341 C 0.35756 0.76637 0.3275 0.0
C5342 C 0.37454 0.77046 0.32131 0.0
C5343 C 0.37643 0.77703 0.30387 0.0
C5344 C 0.36174 0.77935 0.2929 0.0
C5345 C 0.39027 0.7683 0.33326 0.0
C5346 C 0.40429 0.78449 0.34006 0.0
C5347 C 0.3911 0.7507 0.3389 0.0
C5348 C 0.37722 0.73279 0.3317 0.0
C5349 C 0.37268 0.72588 0.31182 0.0
C5350 C 0.35966 0.70893 0.30514 0.0
C5351 C 0.35113 0.69871 0.31818 0.0
C5352 C 0.35562 0.70539 0.33795 0.0
C5353 C 0.36863 0.72234 0.34471 0.0
H5354 H 0.34107 0.68559 0.31298 0.0
H5355 H 0.46654 0.84972 0.38179 0.0
H5356 H 0.04315 0.74794 0.05646 0.0
H5357 H 0.04287 0.71424 0.04349 0.0
H5358 H 0.09091 0.71975 0.07906 0.0
H5359 H 0.0914 0.75357 0.09198 0.0
H5360 H 0.09075 0.69807 0.04252 0.0
H5361 H 0.05081 0.69952 0.0927 0.0
H5362 H 0.02554 0.70944 0.10729 0.0
H5363 H 0.99152 0.67951 0.05629 0.0
H5364 H 0.01667 0.66962 0.04131 0.0
H5365 H 0.07498 0.59922 0.06307 0.0
H5366 H 0.07843 0.63415 0.06634 0.0
H5367 H 0.05055 0.62497 0.01015 0.0
H5368 H 0.04818 0.5901 0.00629 0.0
H5369 H 0.03959 0.6482 0.05326 0.0
H5370 H 0.07669 0.64737 0.00198 0.0
H5371 H 0.10104 0.64189 0.98282 0.0
H5372 H 0.13859 0.67209 0.03093 0.0
H5373 H 0.11438 0.67743 0.05053 0.0
C5374 C 0.05376 0.74209 0.06145 0.0
C5375 C 0.06722 0.75357 0.07546 0.0
C5376 C 0.05355 0.72272 0.05402 0.0
C5377 C 0.06671 0.71423 0.06048 0.0
C5378 C 0.08055 0.72586 0.07385 0.0
C5379 C 0.0808 0.74525 0.08127 0.0
C5380 C 0.06564 0.6931 0.05402 0.0
C5381 C 0.07963 0.68719 0.04505 0.0
C5382 C 0.05085 0.67875 0.05656 0.0
C5383 C 0.03562 0.68394 0.06587 0.0
C5384 C 0.03794 0.69508 0.0846 0.0
C5385 C 0.02365 0.70072 0.09292 0.0
C5386 C 0.00694 0.69514 0.08271 0.0
C5387 C 0.00447 0.68383 0.06418 0.0
C5388 C 0.01873 0.67818 0.05578 0.0
C5389 C 0.07031 0.60473 0.05106 0.0
C5390 C 0.06192 0.59193 0.03414 0.0
C5391 C 0.07214 0.62469 0.05301 0.0
C5392 C 0.06496 0.63229 0.03841 0.0
C5393 C 0.05659 0.61956 0.02143 0.0
C5394 C 0.05534 0.59961 0.01918 0.0
C5395 C 0.06483 0.65321 0.04196 0.0
C5396 C 0.05067 0.65907 0.05062 0.0
C5397 C 0.07926 0.6675 0.0387 0.0
C5398 C 0.09372 0.66247 0.02783 0.0
C5399 C 0.09011 0.65238 0.00865 0.0
C5400 C 0.10389 0.64951 0.99763 0.0
C5401 C 0.12135 0.6568 0.00561 0.0
C5402 C 0.12506 0.66656 0.02475 0.0
C5403 C 0.11131 0.66946 0.03584 0.0
H5404 H 0.13201 0.65482 0.99696 0.0
H5405 H 0.9959 0.69957 0.08915 0.0
H5406 H 0.07108 0.29799 0.90533 0.0
H5407 H 0.0979 0.30331 0.88871 0.0
H5408 H 0.09473 0.24208 0.87731 0.0
H5409 H 0.0687 0.23706 0.89512 0.0
H5410 H 0.12677 0.25839 0.88601 0.0
H5411 H 0.08311 0.26961 0.84231 0.0
H5412 H 0.05982 0.28464 0.83181 0.0
H5413 H 0.09599 0.34024 0.84509 0.0
H5414 H 0.11939 0.32559 0.856 0.0
H5415 H 0.18654 0.26332 0.81051 0.0
H5416 H 0.16217 0.25613 0.83062 0.0
H5417 H 0.16781 0.31703 0.85128 0.0
H5418 H 0.19188 0.32415 0.83117 0.0
H5419 H 0.13447 0.29969 0.83719 0.0
H5420 H 0.17823 0.28763 0.88049 0.0
H5421 H 0.20099 0.27215 0.89141 0.0
H5422 H 0.16416 0.217 0.87777 0.0
H5423 H 0.14126 0.2321 0.86645 0.0
C5424 C 0.07605 0.28569 0.89909 0.0
C5425 C 0.06769 0.26708 0.90129 0.0
C5426 C 0.09139 0.2887 0.88951 0.0
C5427 C 0.09836 0.27307 0.88128 0.0
C5428 C 0.08981 0.25446 0.88344 0.0
C5429 C 0.07482 0.25155 0.89351 0.0
C5430 C 0.11464 0.27604 0.87073 0.0
C5431 C 0.12827 0.2672 0.87511 0.0
C5432 C 0.11701 0.28777 0.85668 0.0
C5433 C 0.10294 0.29654 0.85013 0.0
C5434 C 0.08605 0.28506 0.84312 0.0
C5435 C 0.07283 0.29351 0.83709 0.0
C5436 C 0.07641 0.31339 0.83782 0.0
C5437 C 0.09322 0.32485 0.84456 0.0
C5438 C 0.10646 0.31649 0.85067 0.0
C5439 C 0.18287 0.27511 0.81977 0.0
C5440 C 0.19111 0.2943 0.81924 0.0
C5441 C 0.16889 0.27101 0.83123 0.0
C5442 C 0.16298 0.28604 0.84245 0.0
C5443 C 0.17193 0.30516 0.84268 0.0
C5444 C 0.18577 0.30922 0.83123 0.0
C5445 C 0.1466 0.2822 0.8526 0.0
C5446 C 0.13291 0.29083 0.84804 0.0
C5447 C 0.14415 0.27011 0.86629 0.0
C5448 C 0.1581 0.26096 0.87238 0.0
C5449 C 0.17506 0.27216 0.87955 0.0
C5450 C 0.18797 0.26346 0.88588 0.0
C5451 C 0.18404 0.24359 0.88523 0.0
C5452 C 0.1672 0.23237 0.87822 0.0
C5453 C 0.15426 0.24099 0.87183 0.0
H5454 H 0.19403 0.2369 0.89022 0.0
H5455 H 0.06617 0.3199 0.83313 0.0
H5456 H 0.60824 0.76221 0.90407 0.0
H5457 H 0.60256 0.73609 0.92218 0.0
H5458 H 0.56119 0.75925 0.94835 0.0
H5459 H 0.56761 0.78586 0.93129 0.0
H5460 H 0.57901 0.74876 0.97383 0.0
H5461 H 0.5522 0.71928 0.90949 0.0
H5462 H 0.55328 0.71249 0.87432 0.0
H5463 H 0.59413 0.68248 0.881 0.0
H5464 H 0.59336 0.68924 0.91626 0.0
H5465 H 0.52527 0.66838 1.00079 0.0
H5466 H 0.53519 0.69156 0.9803 0.0
H5467 H 0.58423 0.67387 0.97668 0.0
H5468 H 0.57475 0.65112 0.99773 0.0
H5469 H 0.56528 0.68036 0.93971 0.0
H5470 H 0.58924 0.71023 0.00612 0.0
H5471 H 0.58723 0.72006 0.0409 0.0
H5472 H 0.54833 0.75103 0.0289 0.0
H5473 H 0.54999 0.74118 0.99405 0.0
C5474 C 0.59806 0.76168 0.91384 0.0
C5475 C 0.58837 0.77588 0.91645 0.0
C5476 C 0.59475 0.74678 0.92403 0.0
C5477 C 0.58127 0.74562 0.93633 0.0
C5478 C 0.5717 0.75995 0.93898 0.0
C5479 C 0.57535 0.7751 0.92925 0.0
C5480 C 0.57687 0.72946 0.94645 0.0
C5481 C 0.5759 0.73383 0.96632 0.0
C5482 C 0.57305 0.71001 0.93666 0.0
C5483 C 0.57275 0.7048 0.91546 0.0
C5484 C 0.56136 0.71117 0.90343 0.0
C5485 C 0.56194 0.70737 0.8835 0.0
C5486 C 0.57378 0.69708 0.87543 0.0
C5487 C 0.58495 0.69043 0.88728 0.0
C5488 C 0.58441 0.69419 0.90723 0.0
C5489 C 0.53818 0.66945 0.99569 0.0
C5490 C 0.54933 0.65816 0.0011 0.0
C5491 C 0.54371 0.68249 0.98384 0.0
C5492 C 0.56039 0.68429 0.97712 0.0
C5493 C 0.57126 0.67246 0.98169 0.0
C5494 C 0.56581 0.65953 0.99371 0.0
C5495 C 0.56706 0.69984 0.96693 0.0
C5496 C 0.56852 0.69532 0.94713 0.0
C5497 C 0.57088 0.71926 0.97664 0.0
C5498 C 0.5696 0.7248 0.99754 0.0
C5499 C 0.58012 0.71894 0.01092 0.0
C5500 C 0.57908 0.72457 0.03063 0.0
C5501 C 0.56763 0.73612 0.03711 0.0
C5502 C 0.55718 0.74206 0.02388 0.0
C5503 C 0.55817 0.73647 0.00415 0.0
H5504 H 0.56687 0.74049 0.05238 0.0
H5505 H 0.57429 0.69424 0.86 0.0
H5506 H 0.06218 0.78784 0.67553 0.0
H5507 H 0.0917 0.78721 0.68902 0.0
H5508 H 0.07058 0.73117 0.7019 0.0
H5509 H 0.04132 0.73156 0.68794 0.0
H5510 H 0.09495 0.7588 0.73182 0.0
H5511 H 0.08739 0.73017 0.66459 0.0
H5512 H 0.07988 0.73008 0.63051 0.0
H5513 H 0.12364 0.77826 0.63253 0.0
H5514 H 0.13095 0.77921 0.66703 0.0
H5515 H 0.16497 0.71921 0.7465 0.0
H5516 H 0.13922 0.72127 0.72651 0.0
H5517 H 0.16598 0.778 0.71957 0.0
H5518 H 0.19167 0.77621 0.73973 0.0
H5519 H 0.13999 0.75215 0.68591 0.0
H5520 H 0.14633 0.78126 0.75418 0.0
H5521 H 0.15323 0.78048 0.78829 0.0
H5522 H 0.11141 0.72974 0.78334 0.0
H5523 H 0.1045 0.73004 0.74906 0.0
C5524 C 0.06389 0.77569 0.68172 0.0
C5525 C 0.04976 0.75983 0.68104 0.0
C5526 C 0.08063 0.77527 0.68923 0.0
C5527 C 0.08313 0.7591 0.69627 0.0
C5528 C 0.06876 0.74374 0.69652 0.0
C5529 C 0.05216 0.74399 0.68865 0.0
C5530 C 0.10085 0.75755 0.70243 0.0
C5531 C 0.10477 0.75733 0.72179 0.0
C5532 C 0.11359 0.75577 0.68925 0.0
C5533 C 0.10956 0.75495 0.66845 0.0
C5534 C 0.0953 0.7409 0.65784 0.0
C5535 C 0.0911 0.74065 0.63842 0.0
C5536 C 0.1013 0.7541 0.62929 0.0
C5537 C 0.11573 0.76786 0.63962 0.0
C5538 C 0.11988 0.76831 0.65914 0.0
C5539 C 0.16549 0.73191 0.74033 0.0
C5540 C 0.18012 0.74766 0.74487 0.0
C5541 C 0.15093 0.73296 0.72876 0.0
C5542 C 0.15083 0.74981 0.72176 0.0
C5543 C 0.166 0.76483 0.72474 0.0
C5544 C 0.18059 0.7638 0.73633 0.0
C5545 C 0.13395 0.75332 0.71526 0.0
C5546 C 0.1302 0.7539 0.69591 0.0
C5547 C 0.12127 0.75541 0.7284 0.0
C5548 C 0.12499 0.75559 0.7491 0.0
C5549 C 0.13868 0.76989 0.76036 0.0
C5550 C 0.14259 0.76953 0.77971 0.0
C5551 C 0.13278 0.75505 0.78797 0.0
C5552 C 0.119 0.74094 0.77691 0.0
C5553 C 0.11507 0.7412 0.75754 0.0
H5554 H 0.13583 0.75478 0.80296 0.0
H5555 H 0.09803 0.75385 0.61422 0.0
H5556 H 0.06367 0.36588 0.39748 0.0
H5557 H 0.07078 0.39847 0.41649 0.0
H5558 H 0.12343 0.39341 0.43212 0.0
H5559 H 0.11644 0.36051 0.41292 0.0
H5560 H 0.10215 0.4035 0.46314 0.0
H5561 H 0.12288 0.42798 0.40692 0.0
H5562 H 0.12095 0.4287 0.37224 0.0
H5563 H 0.06947 0.44015 0.37503 0.0
H5564 H 0.0711 0.43949 0.40965 0.0
H5565 H 0.08707 0.49038 0.51741 0.0
H5566 H 0.1028 0.46924 0.49894 0.0
H5567 H 0.06051 0.4531 0.45302 0.0
H5568 H 0.04535 0.4754 0.47066 0.0
H5569 H 0.09161 0.46065 0.43929 0.0
H5570 H 0.06352 0.42349 0.48472 0.0
H5571 H 0.05768 0.42091 0.51806 0.0
H5572 H 0.11305 0.42906 0.53382 0.0
H5573 H 0.1192 0.43187 0.50056 0.0
C5574 C 0.0768 0.37172 0.40481 0.0
C5575 C 0.08947 0.36074 0.40387 0.0
C5576 C 0.08092 0.39039 0.41542 0.0
C5577 C 0.09773 0.39828 0.42524 0.0
C5578 C 0.11052 0.38749 0.42427 0.0
C5579 C 0.10645 0.36878 0.41345 0.0
C5580 C 0.10064 0.41682 0.43847 0.0
C5581 C 0.10062 0.41637 0.45812 0.0
C5582 C 0.0981 0.4332 0.43164 0.0
C5583 C 0.0972 0.43381 0.41087 0.0
C5584 C 0.11117 0.43064 0.40011 0.0
C5585 C 0.11012 0.43104 0.38047 0.0
C5586 C 0.09511 0.43447 0.37144 0.0
C5587 C 0.08112 0.43755 0.38204 0.0
C5588 C 0.08214 0.43727 0.40168 0.0
C5589 C 0.08108 0.48242 0.50338 0.0
C5590 C 0.06504 0.48477 0.49536 0.0
C5591 C 0.09014 0.47036 0.49288 0.0
C5592 C 0.08287 0.45993 0.47463 0.0
C5593 C 0.06645 0.46147 0.46699 0.0
C5594 C 0.05767 0.47398 0.47721 0.0
C5595 C 0.09182 0.44663 0.46354 0.0
C5596 C 0.09425 0.44828 0.44451 0.0
C5597 C 0.09554 0.43087 0.47067 0.0
C5598 C 0.09183 0.42795 0.49027 0.0
C5599 C 0.07443 0.42465 0.49531 0.0
C5600 C 0.07106 0.42321 0.51418 0.0
C5601 C 0.08499 0.42485 0.52806 0.0
C5602 C 0.10229 0.4278 0.52305 0.0
C5603 C 0.10572 0.42928 0.50419 0.0
H5604 H 0.08238 0.42383 0.54269 0.0
H5605 H 0.09432 0.43476 0.35624 0.0
H5606 H 0.44533 0.21876 0.1895 0.0
H5607 H 0.42147 0.2237 0.20945 0.0
H5608 H 0.43502 0.28445 0.20817 0.0
H5609 H 0.45875 0.2798 0.18866 0.0
H5610 H 0.43306 0.27832 0.24413 0.0
H5611 H 0.3998 0.25754 0.18228 0.0
H5612 H 0.38791 0.23615 0.15107 0.0
H5613 H 0.36329 0.19176 0.18012 0.0
H5614 H 0.37522 0.21287 0.21156 0.0
H5615 H 0.35202 0.30962 0.23786 0.0
H5616 H 0.37959 0.29949 0.23296 0.0
H5617 H 0.36823 0.2625 0.27418 0.0
H5618 H 0.34152 0.27396 0.28041 0.0
H5619 H 0.36931 0.24992 0.22563 0.0
H5620 H 0.40023 0.28014 0.28899 0.0
H5621 H 0.41156 0.30721 0.31637 0.0
H5622 H 0.43897 0.34082 0.27857 0.0
H5623 H 0.4276 0.31404 0.25092 0.0
C5624 C 0.44313 0.23312 0.19347 0.0
C5625 C 0.45404 0.24897 0.18794 0.0
C5626 C 0.42955 0.23588 0.20477 0.0
C5627 C 0.42684 0.25445 0.21039 0.0
C5628 C 0.43725 0.27008 0.20418 0.0
C5629 C 0.45077 0.26738 0.19306 0.0
C5630 C 0.41352 0.25809 0.22325 0.0
C5631 C 0.41911 0.27195 0.24023 0.0
C5632 C 0.39545 0.24959 0.21807 0.0
C5633 C 0.38873 0.23661 0.19924 0.0
C5634 C 0.39209 0.2431 0.18201 0.0
C5635 C 0.38527 0.23108 0.16428 0.0
C5636 C 0.37494 0.21256 0.16361 0.0
C5637 C 0.37137 0.20607 0.18067 0.0
C5638 C 0.37816 0.21805 0.19845 0.0
C5639 C 0.35603 0.30023 0.24661 0.0
C5640 C 0.34521 0.2929 0.25979 0.0
C5641 C 0.37159 0.29441 0.2438 0.0
C5642 C 0.37575 0.28047 0.25341 0.0
C5643 C 0.36528 0.27364 0.2671 0.0
C5644 C 0.35015 0.28016 0.27058 0.0
C5645 C 0.38891 0.27055 0.24604 0.0
C5646 C 0.38331 0.25552 0.23 0.0
C5647 C 0.4069 0.27867 0.2515 0.0
C5648 C 0.41316 0.29505 0.26794 0.0
C5649 C 0.40855 0.29336 0.2865 0.0
C5650 C 0.41507 0.3086 0.30208 0.0
C5651 C 0.42628 0.32555 0.29925 0.0
C5652 C 0.43056 0.32754 0.28078 0.0
C5653 C 0.42408 0.31234 0.26516 0.0
H5654 H 0.43146 0.33726 0.31137 0.0
H5655 H 0.36965 0.20328 0.14987 0.0
H5656 H 0.62019 0.48866 0.30701 0.0
H5657 H 0.60257 0.4867 0.33484 0.0
H5658 H 0.63849 0.53775 0.36731 0.0
H5659 H 0.6557 0.53987 0.34004 0.0
H5660 H 0.63238 0.51143 0.3893 0.0
H5661 H 0.59526 0.53587 0.34783 0.0
H5662 H 0.57562 0.53525 0.31923 0.0
H5663 H 0.54039 0.48432 0.32934 0.0
H5664 H 0.55999 0.48443 0.35782 0.0
H5665 H 0.59275 0.54185 0.47301 0.0
H5666 H 0.60558 0.53796 0.44247 0.0
H5667 H 0.55999 0.4932 0.41719 0.0
H5668 H 0.54686 0.49741 0.44785 0.0
H5669 H 0.5691 0.51142 0.39021 0.0
H5670 H 0.60366 0.48526 0.42994 0.0
H5671 H 0.62197 0.48324 0.45856 0.0
H5672 H 0.66086 0.53255 0.45084 0.0
H5673 H 0.64265 0.53506 0.42233 0.0
C5674 C 0.62434 0.49951 0.32004 0.0
C5675 C 0.63969 0.51441 0.32087 0.0
C5676 C 0.61411 0.49844 0.33609 0.0
C5677 C 0.61894 0.51211 0.35366 0.0
C5678 C 0.63419 0.52687 0.35431 0.0
C5679 C 0.64417 0.52807 0.3384 0.0
C5680 C 0.60901 0.51115 0.37174 0.0
C5681 C 0.61856 0.51164 0.38936 0.0
C5682 C 0.59067 0.51047 0.3723 0.0
C5683 C 0.57927 0.50998 0.35477 0.0
C5684 C 0.58348 0.52436 0.34379 0.0
C5685 C 0.57231 0.52414 0.32764 0.0
C5686 C 0.55681 0.50971 0.32242 0.0
C5687 C 0.55244 0.49545 0.33335 0.0
C5688 C 0.56358 0.49558 0.34948 0.0
C5689 C 0.58535 0.53102 0.4611 0.0
C5690 C 0.56855 0.51998 0.46343 0.0
C5691 C 0.59287 0.52869 0.44337 0.0
C5692 C 0.58417 0.51496 0.42699 0.0
C5693 C 0.56731 0.50394 0.42922 0.0
C5694 C 0.55971 0.50635 0.44702 0.0
C5695 C 0.59268 0.51237 0.40786 0.0
C5696 C 0.58289 0.51113 0.39012 0.0
C5697 C 0.61073 0.51185 0.407 0.0
C5698 C 0.6217 0.51048 0.42414 0.0
C5699 C 0.61605 0.49578 0.43445 0.0
C5700 C 0.62641 0.49454 0.45064 0.0
C5701 C 0.64253 0.50782 0.45657 0.0
C5702 C 0.64835 0.52231 0.44626 0.0
C5703 C 0.63802 0.52365 0.43008 0.0
H5704 H 0.65052 0.50685 0.46913 0.0
H5705 H 0.54815 0.50962 0.30996 0.0
H5706 H 0.32527 0.92707 0.07057 0.0
H5707 H 0.33232 0.91075 0.09586 0.0
H5708 H 0.319 0.8563 0.05566 0.0
H5709 H 0.31232 0.87267 0.02981 0.0
H5710 H 0.29778 0.86154 0.0867 0.0
H5711 H 0.35849 0.86978 0.07579 0.0
H5712 H 0.38823 0.88742 0.07124 0.0
H5713 H 0.39267 0.92242 0.1277 0.0
H5714 H 0.36281 0.90525 0.13251 0.0
H5715 H 0.31228 0.80509 0.15429 0.0
H5716 H 0.30554 0.82196 0.12908 0.0
H5717 H 0.33332 0.87622 0.16487 0.0
H5718 H 0.34053 0.85915 0.18979 0.0
H5719 H 0.34884 0.87013 0.13459 0.0
H5720 H 0.28836 0.87335 0.14129 0.0
H5721 H 0.25632 0.86467 0.14376 0.0
H5722 H 0.25051 0.81596 0.09744 0.0
H5723 H 0.28242 0.82479 0.09429 0.0
C5724 C 0.32413 0.91166 0.06694 0.0
C5725 C 0.3179 0.90101 0.04831 0.0
C5726 C 0.32847 0.90246 0.08136 0.0
C5727 C 0.32637 0.88247 0.07742 0.0
C5728 C 0.32092 0.87185 0.0587 0.0
C5729 C 0.31686 0.88112 0.04412 0.0
C5730 C 0.32574 0.87259 0.0936 0.0
C5731 C 0.30902 0.86289 0.09698 0.0
C5732 C 0.34029 0.87572 0.10738 0.0
C5733 C 0.35827 0.88626 0.10445 0.0
C5734 C 0.36569 0.88137 0.08717 0.0
C5735 C 0.38261 0.89127 0.08456 0.0
C5736 C 0.39232 0.90605 0.09916 0.0
C5737 C 0.38513 0.91096 0.1164 0.0
C5738 C 0.3682 0.90113 0.11908 0.0
C5739 C 0.31612 0.82071 0.15707 0.0
C5740 C 0.32701 0.83095 0.17368 0.0
C5741 C 0.31225 0.83037 0.14271 0.0
C5742 C 0.31913 0.85033 0.14503 0.0
C5743 C 0.32802 0.8608 0.16277 0.0
C5744 C 0.33206 0.85111 0.177 0.0
C5745 C 0.32067 0.85919 0.12793 0.0
C5746 C 0.33759 0.86862 0.12431 0.0
C5747 C 0.30621 0.85655 0.11416 0.0
C5748 C 0.28776 0.84944 0.11789 0.0
C5749 C 0.28027 0.86058 0.1319 0.0
C5750 C 0.2621 0.85586 0.13316 0.0
C5751 C 0.2514 0.83972 0.12082 0.0
C5752 C 0.25882 0.82837 0.10707 0.0
C5753 C 0.27692 0.83329 0.10546 0.0
H5754 H 0.23735 0.83603 0.12192 0.0
H5755 H 0.40542 0.91367 0.09712 0.0
H5756 H 0.91773 0.53236 0.8591 0.0
H5757 H 0.94201 0.54424 0.88476 0.0
H5758 H 0.97882 0.53224 0.84372 0.0
H5759 H 0.95458 0.5197 0.81826 0.0
H5760 H 0.98185 0.51654 0.87358 0.0
H5761 H 0.97513 0.57869 0.86384 0.0
H5762 H 0.96266 0.60697 0.86321 0.0
H5763 H 0.95482 0.61137 0.92302 0.0
H5764 H 0.96603 0.58243 0.92378 0.0
H5765 H 0.05126 0.54718 0.94718 0.0
H5766 H 0.03496 0.54791 0.91733 0.0
H5767 H 0.99107 0.55815 0.94865 0.0
H5768 H 0.00765 0.55824 0.97865 0.0
H5769 H 0.99615 0.57838 0.92083 0.0
H5770 H 0.99271 0.51333 0.92941 0.0
H5771 H 0.00324 0.48445 0.93315 0.0
H5772 H 0.02641 0.48436 0.87969 0.0
H5773 H 0.01625 0.51346 0.87582 0.0
C5774 C 0.93102 0.53202 0.85574 0.0
C5775 C 0.93441 0.52477 0.83697 0.0
C5776 C 0.94483 0.53921 0.87021 0.0
C5777 C 0.96213 0.53954 0.86589 0.0
C5778 C 0.96549 0.53225 0.84715 0.0
C5779 C 0.95167 0.52474 0.83278 0.0
C5780 C 0.97642 0.54468 0.88139 0.0
C5781 C 0.98523 0.53028 0.88365 0.0
C5782 C 0.98016 0.56227 0.89495 0.0
C5783 C 0.97132 0.5782 0.89377 0.0
C5784 C 0.97024 0.5853 0.87671 0.0
C5785 C 0.96337 0.60148 0.87635 0.0
C5786 C 0.95776 0.61084 0.89302 0.0
C5787 C 0.95884 0.60393 0.91004 0.0
C5788 C 0.96535 0.58756 0.9104 0.0
C5789 C 0.03849 0.55028 0.94782 0.0
C5790 C 0.03069 0.55256 0.9651 0.0
C5791 C 0.02911 0.55047 0.93076 0.0
C5792 C 0.01186 0.55279 0.93098 0.0
C5793 C 0.00444 0.5563 0.94837 0.0
C5794 C 0.01384 0.55622 0.96539 0.0
C5795 C 0.00087 0.5501 0.9131 0.0
C5796 C 0.99281 0.56488 0.91041 0.0
C5797 C 0.99711 0.53256 0.89964 0.0
C5798 C 0.00404 0.51576 0.90253 0.0
C5799 C 1.00031 0.50734 0.91863 0.0
C5800 C 0.00614 0.49088 0.92073 0.0
C5801 C 0.01555 0.48262 0.9067 0.0
C5802 C 0.01919 0.49082 0.89058 0.0
C5803 C 0.01343 0.50731 0.88845 0.0
H5804 H 0.01997 0.46981 0.9083 0.0
H5805 H 0.9527 0.62354 0.89278 0.0
H5806 H 0.2774 0.20744 0.56 0.0
H5807 H 0.27537 0.22338 0.59283 0.0
H5808 H 0.32838 0.25765 0.59528 0.0
H5809 H 0.33064 0.24144 0.56245 0.0
H5810 H 0.32458 0.24224 0.626 0.0
H5811 H 0.29255 0.27806 0.59447 0.0
H5812 H 0.27025 0.28372 0.57167 0.0
H5813 H 0.22893 0.25277 0.59936 0.0
H5814 H 0.251 0.24664 0.62214 0.0
H5815 H 0.31017 0.2983 0.71887 0.0
H5816 H 0.31301 0.29319 0.68406 0.0
H5817 H 0.27669 0.23766 0.67619 0.0
H5818 H 0.27561 0.2417 0.71102 0.0
H5819 H 0.27448 0.26909 0.64836 0.0
H5820 H 0.30866 0.23133 0.67832 0.0
H5821 H 0.33201 0.22638 0.70013 0.0
H5822 H 0.37117 0.26101 0.67297 0.0
H5823 H 0.34793 0.26761 0.65215 0.0
C5824 C 0.28858 0.21853 0.5674 0.0
C5825 C 0.30424 0.22304 0.55861 0.0
C5826 C 0.28735 0.22774 0.58618 0.0
C5827 C 0.30167 0.24184 0.59655 0.0
C5828 C 0.31715 0.2468 0.5876 0.0
C5829 C 0.31842 0.23753 0.56881 0.0
C5830 C 0.30089 0.25021 0.61717 0.0
C5831 C 0.31382 0.24851 0.63084 0.0
C5832 C 0.28676 0.25819 0.62358 0.0
C5833 C 0.27344 0.26176 0.6099 0.0
C5834 C 0.27871 0.27231 0.59559 0.0
C5835 C 0.26611 0.27563 0.58269 0.0
C5836 C 0.24819 0.26857 0.58404 0.0
C5837 C 0.24282 0.25821 0.59832 0.0
C5838 C 0.25537 0.25483 0.61124 0.0
C5839 C 0.30238 0.28529 0.70959 0.0
C5840 C 0.29196 0.27074 0.7175 0.0
C5841 C 0.30416 0.28231 0.68979 0.0
C5842 C 0.29509 0.26502 0.67763 0.0
C5843 C 0.28376 0.2511 0.68536 0.0
C5844 C 0.28284 0.25358 0.7052 0.0
C5845 C 0.29797 0.26077 0.65702 0.0
C5846 C 0.28541 0.2632 0.64342 0.0
C5847 C 0.31254 0.2536 0.65068 0.0
C5848 C 0.32642 0.25064 0.66418 0.0
C5849 C 0.32215 0.23866 0.67758 0.0
C5850 C 0.33542 0.2355 0.68976 0.0
C5851 C 0.35308 0.24372 0.68825 0.0
C5852 C 0.35749 0.2551 0.67454 0.0
C5853 C 0.34425 0.25869 0.66266 0.0
H5854 H 0.36335 0.24106 0.69753 0.0
H5855 H 0.23845 0.27117 0.57404 0.0
H5856 H 0.65096 0.50456 0.19807 0.0
H5857 H 0.6372 0.5084 0.1674 0.0
H5858 H 0.59121 0.51749 0.19486 0.0
H5859 H 0.60471 0.51345 0.22523 0.0
H5860 H 0.57989 0.49821 0.1594 0.0
H5861 H 0.62442 0.55552 0.18477 0.0
H5862 H 0.65442 0.57374 0.19788 0.0
H5863 H 0.67445 0.55249 0.14522 0.0
H5864 H 0.64454 0.53379 0.13193 0.0
H5865 H 0.54639 0.53579 0.07904 0.0
H5866 H 0.5562 0.53097 0.11117 0.0
H5867 H 0.60733 0.52872 0.0924 0.0
H5868 H 0.59795 0.53445 0.06132 0.0
H5869 H 0.61439 0.54543 0.12532 0.0
H5870 H 0.56897 0.48747 0.0996 0.0
H5871 H 0.53905 0.46773 0.08797 0.0
H5872 H 0.52022 0.48937 0.14124 0.0
H5873 H 0.54997 0.50946 0.15308 0.0
C5874 C 0.63786 0.50718 0.19762 0.0
C5875 C 0.62922 0.50875 0.21459 0.0
C5876 C 0.62992 0.50954 0.17992 0.0
C5877 C 0.61301 0.51363 0.17838 0.0
C5878 C 0.60416 0.51445 0.19516 0.0
C5879 C 0.61208 0.51218 0.21279 0.0
C5880 C 0.60495 0.51796 0.15982 0.0
C5881 C 0.58745 0.50865 0.15205 0.0
C5882 C 0.61442 0.53152 0.14974 0.0
C5883 C 0.63229 0.54316 0.15742 0.0
C5884 C 0.63524 0.55469 0.17601 0.0
C5885 C 0.65223 0.5651 0.18348 0.0
C5886 C 0.66636 0.56429 0.1724 0.0
C5887 C 0.6635 0.5531 0.15379 0.0
C5888 C 0.64653 0.54259 0.14628 0.0
C5889 C 0.55981 0.5346 0.08191 0.0
C5890 C 0.57131 0.53561 0.06725 0.0
C5891 C 0.56543 0.53149 0.10037 0.0
C5892 C 0.58267 0.52899 0.10474 0.0
C5893 C 0.59405 0.53053 0.09008 0.0
C5894 C 0.58856 0.53381 0.07199 0.0
C5895 C 0.58944 0.52514 0.12418 0.0
C5896 C 0.60673 0.53478 0.13238 0.0
C5897 C 0.5797 0.51182 0.13452 0.0
C5898 C 0.56169 0.50019 0.12713 0.0
C5899 C 0.55842 0.4882 0.10875 0.0
C5900 C 0.54149 0.47691 0.10213 0.0
C5901 C 0.52773 0.47735 0.11383 0.0
C5902 C 0.53087 0.48909 0.13216 0.0
C5903 C 0.54776 0.50044 0.13882 0.0
H5904 H 0.51465 0.46855 0.10871 0.0
H5905 H 0.67952 0.57235 0.17821 0.0
H5906 H 0.30106 0.91093 0.96277 0.0
H5907 H 0.29798 0.8848 0.93504 0.0
H5908 H 0.35137 0.88098 0.94883 0.0
H5909 H 0.3547 0.90734 0.9766 0.0
H5910 H 0.34446 0.88334 0.91177 0.0
H5911 H 0.31615 0.84516 0.95596 0.0
H5912 H 0.29465 0.83507 0.97845 0.0
H5913 H 0.252 0.83066 0.93583 0.0
H5914 H 0.27323 0.84085 0.91317 0.0
H5915 H 0.336 0.80257 0.83558 0.0
H5916 H 0.3415 0.82225 0.86838 0.0
H5917 H 0.28851 0.83059 0.86395 0.0
H5918 H 0.28325 0.81136 0.83151 0.0
H5919 H 0.297 0.82333 0.89818 0.0
H5920 H 0.32155 0.86424 0.85592 0.0
H5921 H 0.34041 0.87528 0.83153 0.0
H5922 H 0.38662 0.87733 0.86815 0.0
H5923 H 0.36803 0.86607 0.8927 0.0
C5924 C 0.31217 0.90456 0.95992 0.0
C5925 C 0.32817 0.9112 0.97178 0.0
C5926 C 0.31029 0.88948 0.94423 0.0
C5927 C 0.32433 0.88078 0.94025 0.0
C5928 C 0.34035 0.88746 0.95192 0.0
C5929 C 0.34227 0.90257 0.96764 0.0
C5930 C 0.32277 0.86595 0.92284 0.0
C5931 C 0.33436 0.86997 0.90896 0.0
C5932 C 0.30905 0.84903 0.91896 0.0
C5933 C 0.2963 0.84393 0.93295 0.0
C5934 C 0.30219 0.84228 0.95149 0.0
C5935 C 0.29004 0.83645 0.96423 0.0
C5936 C 0.27197 0.83225 0.95858 0.0
C5937 C 0.26599 0.83392 0.9402 0.0
C5938 C 0.27808 0.8397 0.9274 0.0
C5939 C 0.32551 0.80826 0.84199 0.0
C5940 C 0.30897 0.80486 0.83171 0.0
C5941 C 0.32865 0.81952 0.86049 0.0
C5942 C 0.31534 0.82767 0.86845 0.0
C5943 C 0.29878 0.82405 0.85812 0.0
C5944 C 0.29568 0.81283 0.83977 0.0
C5945 C 0.31868 0.84075 0.88722 0.0
C5946 C 0.30735 0.83649 0.90122 0.0
C5947 C 0.33223 0.85778 0.89097 0.0
C5948 C 0.3434 0.86402 0.87601 0.0
C5949 C 0.33573 0.8668 0.85867 0.0
C5950 C 0.34636 0.87315 0.84484 0.0
C5951 C 0.36469 0.87691 0.84824 0.0
C5952 C 0.37242 0.87435 0.8655 0.0
C5953 C 0.36185 0.86798 0.87938 0.0
H5954 H 0.37289 0.88188 0.83753 0.0
H5955 H 0.2626 0.82768 0.96844 0.0
H5956 H 0.91692 0.55069 0.74599 0.0
H5957 H 0.92884 0.54262 0.71526 0.0
H5958 H 0.97153 0.52661 0.74447 0.0
H5959 H 0.95985 0.53472 0.77524 0.0
H5960 H 0.98124 0.55652 0.72474 0.0
H5961 H 0.94343 0.49194 0.7139 0.0
H5962 H 0.91624 0.466 0.70819 0.0
H5963 H 0.89806 0.4883 0.66075 0.0
H5964 H 0.92511 0.51441 0.66624 0.0
H5965 H 0.02971 0.51341 0.65888 0.0
H5966 H 0.01084 0.52184 0.6837 0.0
H5967 H 0.97486 0.5328 0.64103 0.0
H5968 H 0.99347 0.52386 0.61598 0.0
H5969 H 0.95859 0.50917 0.66414 0.0
H5970 H 0.99778 0.5718 0.67336 0.0
H5971 H 0.02622 0.5958 0.67763 0.0
H5972 H 0.04213 0.57581 0.72767 0.0
H5973 H 0.0138 0.55172 0.72369 0.0
C5974 C 0.92888 0.54548 0.74585 0.0
C5975 C 0.93779 0.5439 0.76305 0.0
C5976 C 0.93542 0.54052 0.72828 0.0
C5977 C 0.95089 0.53389 0.72774 0.0
C5978 C 0.95947 0.53163 0.74475 0.0
C5979 C 0.953 0.53664 0.76231 0.0
C5980 C 0.96006 0.53293 0.71033 0.0
C5981 C 0.97635 0.54605 0.71152 0.0
C5982 C 0.9531 0.51995 0.69288 0.0
C5983 C 0.93615 0.50536 0.69074 0.0
C5984 C 0.93348 0.49155 0.70251 0.0
C5985 C 0.91815 0.47672 0.69921 0.0
C5986 C 0.90539 0.47555 0.68418 0.0
C5987 C 0.90791 0.48925 0.67244 0.0
C5988 C 0.92324 0.50406 0.67564 0.0
C5989 C 0.01774 0.51754 0.65482 0.0
C5990 C 0.01293 0.51795 0.63563 0.0
C5991 C 0.00715 0.52261 0.66898 0.0
C5992 C 0.99171 0.52822 0.6641 0.0
C5993 C 0.98686 0.52868 0.64496 0.0
C5994 C 0.99747 0.52361 0.63077 0.0
C5995 C 0.98008 0.53213 0.67899 0.0
C5996 C 0.96327 0.51984 0.67727 0.0
C5997 C 0.98649 0.54583 0.69604 0.0
C5998 C 0.00373 0.55992 0.69816 0.0
C5999 C 0.00741 0.57244 0.68518 0.0
C6000 C 0.02348 0.58611 0.68759 0.0
C6001 C 0.03598 0.58732 0.7029 0.0
C6002 C 0.03244 0.57488 0.71583 0.0
C6003 C 0.01636 0.56126 0.71354 0.0
H6004 H 0.0484 0.59791 0.70474 0.0
H6005 H 0.89359 0.464 0.68158 0.0
H6006 H 0.31472 0.24832 0.48008 0.0
H6007 H 0.31994 0.26109 0.45088 0.0
H6008 H 0.29392 0.20555 0.41638 0.0
H6009 H 0.28947 0.19243 0.44561 0.0
H6010 H 0.32102 0.21911 0.40027 0.0
H6011 H 0.27396 0.24635 0.42506 0.0
H6012 H 0.2589 0.26452 0.44888 0.0
H6013 H 0.3007 0.31517 0.45339 0.0
H6014 H 0.31608 0.29724 0.42972 0.0
H6015 H 0.30117 0.24941 0.31413 0.0
H6016 H 0.30154 0.23707 0.34363 0.0
H6017 H 0.332 0.29242 0.37439 0.0
H6018 H 0.33108 0.30511 0.34513 0.0
H6019 H 0.3047 0.27983 0.39262 0.0
H6020 H 0.35028 0.25229 0.36492 0.0
H6021 H 0.36284 0.23419 0.33854 0.0
H6022 H 0.32169 0.18374 0.3375 0.0
H6023 H 0.30878 0.2016 0.36377 0.0
C6024 C 0.31006 0.23883 0.46628 0.0
C6025 C 0.30163 0.21938 0.46516 0.0
C6026 C 0.31297 0.24618 0.44956 0.0
C6027 C 0.30706 0.23439 0.43136 0.0
C6028 C 0.29862 0.21495 0.43022 0.0
C6029 C 0.29601 0.20748 0.44695 0.0
C6030 C 0.30978 0.24228 0.41353 0.0
C6031 C 0.31728 0.23229 0.39856 0.0
C6032 C 0.30531 0.25972 0.41133 0.0
C6033 C 0.29624 0.27041 0.4258 0.0
C6034 C 0.28 0.26132 0.43127 0.0
C6035 C 0.2714 0.27158 0.4447 0.0
C6036 C 0.27886 0.29097 0.45268 0.0
C6037 C 0.29495 0.30015 0.44722 0.0
C6038 C 0.3036 0.28995 0.43379 0.0
C6039 C 0.30818 0.25902 0.32705 0.0
C6040 C 0.31607 0.27847 0.32708 0.0
C6041 C 0.30845 0.25182 0.34394 0.0
C6042 C 0.31695 0.26376 0.36119 0.0
C6043 C 0.32536 0.28295 0.36121 0.0
C6044 C 0.32488 0.29022 0.34434 0.0
C6045 C 0.31584 0.25664 0.37945 0.0
C6046 C 0.30862 0.26677 0.39447 0.0
C6047 C 0.32041 0.23927 0.38156 0.0
C6048 C 0.32855 0.22829 0.36629 0.0
C6049 C 0.3439 0.23734 0.35906 0.0
C6050 C 0.35108 0.22713 0.34411 0.0
C6051 C 0.34306 0.20783 0.33634 0.0
C6052 C 0.3279 0.19868 0.34356 0.0
C6053 C 0.32067 0.20882 0.35851 0.0
H6054 H 0.3486 0.19996 0.32473 0.0
H6055 H 0.27217 0.2989 0.46306 0.0
H6056 H 0.35124 0.64468 0.54783 0.0
H6057 H 0.37421 0.62652 0.54398 0.0
H6058 H 0.3392 0.58209 0.50146 0.0
H6059 H 0.31615 0.59976 0.50561 0.0
H6060 H 0.35696 0.56789 0.52783 0.0
H6061 H 0.36918 0.61178 0.48357 0.0
H6062 H 0.37111 0.64466 0.47774 0.0
H6063 H 0.41285 0.66719 0.52355 0.0
H6064 H 0.41111 0.63436 0.52962 0.0
H6065 H 0.4122 0.51901 0.47535 0.0
H6066 H 0.39085 0.53719 0.48652 0.0
H6067 H 0.43253 0.58193 0.52072 0.0
H6068 H 0.45416 0.56501 0.50792 0.0
H6069 H 0.41217 0.59717 0.50225 0.0
H6070 H 0.40007 0.54854 0.54293 0.0
H6071 H 0.39296 0.51537 0.54905 0.0
H6072 H 0.34726 0.50076 0.50797 0.0
H6073 H 0.35407 0.53386 0.50175 0.0
C6074 C 0.34858 0.63106 0.53769 0.0
C6075 C 0.33218 0.62349 0.52699 0.0
C6076 C 0.36154 0.62075 0.53558 0.0
C6077 C 0.35817 0.60316 0.52247 0.0
C6078 C 0.34178 0.59561 0.51178 0.0
C6079 C 0.32878 0.60573 0.51408 0.0
C6080 C 0.37202 0.59294 0.51905 0.0
C6081 C 0.36909 0.57417 0.52227 0.0
C6082 C 0.38761 0.60142 0.51186 0.0
C6083 C 0.39012 0.62071 0.50693 0.0
C6084 C 0.37892 0.62375 0.49221 0.0
C6085 C 0.37992 0.64235 0.48893 0.0
C6086 C 0.39212 0.658 0.50026 0.0
C6087 C 0.40347 0.65504 0.51474 0.0
C6088 C 0.40256 0.63643 0.51804 0.0
C6089 C 0.41685 0.53277 0.48514 0.0
C6090 C 0.43486 0.54044 0.49082 0.0
C6091 C 0.4046 0.54295 0.49183 0.0
C6092 C 0.41012 0.56058 0.50488 0.0
C6093 C 0.42804 0.56818 0.51085 0.0
C6094 C 0.44035 0.55832 0.50369 0.0
C6095 C 0.39732 0.5718 0.51112 0.0
C6096 C 0.40033 0.59087 0.50827 0.0
C6097 C 0.38157 0.56341 0.5183 0.0
C6098 C 0.37765 0.54353 0.52182 0.0
C6099 C 0.38857 0.53818 0.53517 0.0
C6100 C 0.38456 0.51944 0.53869 0.0
C6101 C 0.36969 0.50596 0.52887 0.0
C6102 C 0.35876 0.51121 0.51557 0.0
C6103 C 0.36265 0.52996 0.5121 0.0
H6104 H 0.36663 0.49145 0.5316 0.0
H6105 H 0.39275 0.67243 0.49782 0.0
H6106 H 0.85162 0.92927 0.51613 0.0
H6107 H 0.88143 0.94825 0.51442 0.0
H6108 H 0.89699 0.9415 0.57151 0.0
H6109 H 0.86734 0.92259 0.57333 0.0
H6110 H 0.90868 0.97851 0.56742 0.0
H6111 H 0.91017 0.91596 0.53296 0.0
H6112 H 0.89995 0.88616 0.50839 0.0
H6113 H 0.9072 0.919 0.46364 0.0
H6114 H 0.91724 0.94907 0.48798 0.0
H6115 H 0.00221 0.01224 0.5651 0.0
H6116 H 0.97245 0.99357 0.56817 0.0
H6117 H 0.95609 0.99635 0.50991 0.0
H6118 H 0.98571 0.01467 0.50686 0.0
H6119 H 0.94496 0.96072 0.51508 0.0
H6120 H 0.9435 0.02344 0.54987 0.0
H6121 H 0.95342 0.05311 0.57468 0.0
H6122 H 0.94587 0.01979 0.61905 0.0
H6123 H 0.93623 0.98987 0.59448 0.0
C6124 C 0.86137 0.93184 0.52833 0.0
C6125 C 0.857 0.92438 0.54487 0.0
C6126 C 0.87847 0.94263 0.52731 0.0
C6127 C 0.89157 0.94628 0.54281 0.0
C6128 C 0.88717 0.93896 0.55937 0.0
C6129 C 0.87016 0.92807 0.56035 0.0
C6130 C 0.9098 0.95784 0.54191 0.0
C6131 C 0.9167 0.97447 0.55611 0.0
C6132 C 0.92023 0.95283 0.527 0.0
C6133 C 0.91428 0.93479 0.5123 0.0
C6134 C 0.90944 0.91685 0.51789 0.0
C6135 C 0.90371 0.89991 0.504 0.0
C6136 C 0.90288 0.90069 0.48446 0.0
C6137 C 0.90783 0.91842 0.47878 0.0
C6138 C 0.91355 0.93542 0.49261 0.0
C6139 C 0.99214 0.00906 0.55311 0.0
C6140 C 0.99625 0.01479 0.53572 0.0
C6141 C 0.97514 0.99836 0.55481 0.0
C6142 C 0.96189 0.99345 0.53924 0.0
C6143 C 0.96601 0.99968 0.52207 0.0
C6144 C 0.98296 0.01019 0.52034 0.0
C6145 C 0.94384 0.98155 0.54053 0.0
C6146 C 0.93697 0.9648 0.52641 0.0
C6147 C 0.93345 0.98644 0.55553 0.0
C6148 C 0.93932 0.0044 0.57032 0.0
C6149 C 0.94412 0.02242 0.56491 0.0
C6150 C 0.94967 0.03929 0.57893 0.0
C6151 C 0.95031 0.03833 0.59843 0.0
C6152 C 0.94539 0.02051 0.60394 0.0
C6153 C 0.93989 0.00359 0.58997 0.0
H6154 H 0.95458 0.05141 0.60926 0.0
H6155 H 0.89844 0.88755 0.47373 0.0
H6156 H 0.89882 0.12561 0.23922 0.0
H6157 H 0.88248 0.15056 0.24259 0.0
H6158 H 0.88264 0.1514 0.30338 0.0
H6159 H 0.89858 0.12524 0.29977 0.0
H6160 H 0.85415 0.15987 0.29523 0.0
H6161 H 0.90933 0.19052 0.27947 0.0
H6162 H 0.93605 0.19631 0.26244 0.0
H6163 H 0.90451 0.19515 0.21058 0.0
H6164 H 0.87757 0.18921 0.22728 0.0
H6165 H 0.82592 0.25042 0.30822 0.0
H6166 H 0.84066 0.22387 0.30787 0.0
H6167 H 0.8366 0.21359 0.24597 0.0
H6168 H 0.82197 0.24048 0.24646 0.0
H6169 H 0.86811 0.21114 0.25707 0.0
H6170 H 0.81203 0.17807 0.27723 0.0
H6171 H 0.78804 0.17286 0.29822 0.0
H6172 H 0.8258 0.18412 0.3475 0.0
H6173 H 0.85005 0.18839 0.32669 0.0
C6174 C 0.8955 0.13092 0.25346 0.0
C6175 C 0.90041 0.1229 0.26915 0.0
C6176 C 0.88614 0.14573 0.25546 0.0
C6177 C 0.88139 0.15403 0.27341 0.0
C6178 C 0.88596 0.14583 0.28921 0.0
C6179 C 0.89521 0.13063 0.28715 0.0
C6180 C 0.87153 0.1707 0.27522 0.0
C6181 C 0.85753 0.17112 0.28696 0.0
C6182 C 0.87537 0.18604 0.2648 0.0
C6183 C 0.89143 0.18923 0.25456 0.0
C6184 C 0.90809 0.19134 0.26439 0.0
C6185 C 0.92327 0.19469 0.25481 0.0
C6186 C 0.92197 0.19604 0.23543 0.0
C6187 C 0.90549 0.19408 0.22559 0.0
C6188 C 0.89026 0.19075 0.23511 0.0
C6189 C 0.82765 0.24217 0.29444 0.0
C6190 C 0.82194 0.24752 0.27737 0.0
C6191 C 0.83622 0.22673 0.29422 0.0
C6192 C 0.83986 0.21585 0.27687 0.0
C6193 C 0.83412 0.22121 0.25974 0.0
C6194 C 0.82541 0.23663 0.25997 0.0
C6195 C 0.85042 0.19993 0.27657 0.0
C6196 C 0.86468 0.19977 0.26518 0.0
C6197 C 0.84726 0.18533 0.28791 0.0
C6198 C 0.8328 0.1838 0.30047 0.0
C6199 C 0.8152 0.17963 0.29257 0.0
C6200 C 0.80156 0.1768 0.30442 0.0
C6201 C 0.80536 0.17859 0.32422 0.0
C6202 C 0.82286 0.18289 0.33219 0.0
C6203 C 0.83655 0.18533 0.32036 0.0
H6204 H 0.79475 0.17644 0.33333 0.0
H6205 H 0.93375 0.19865 0.22804 0.0
H6206 H 0.73108 0.08904 0.01575 0.0
H6207 H 0.70023 0.07399 0.00628 0.0
H6208 H 0.68914 0.12988 0.00723 0.0
H6209 H 0.72014 0.1452 0.01702 0.0
H6210 H 0.67884 0.11369 0.03716 0.0
H6211 H 0.67201 0.09417 0.96947 0.0
H6212 H 0.67981 0.08061 0.93761 0.0
H6213 H 0.67382 0.02521 0.95318 0.0
H6214 H 0.66633 0.03845 0.98525 0.0
H6215 H 0.59125 0.07193 0.0391 0.0
H6216 H 0.62171 0.08791 0.04285 0.0
H6217 H 0.6354 0.0333 0.0237 0.0
H6218 H 0.60399 0.01766 0.01707 0.0
H6219 H 0.64222 0.05242 0.99898 0.0
H6220 H 0.65983 0.07405 0.06889 0.0
H6221 H 0.65683 0.08862 0.10247 0.0
H6222 H 0.64489 0.13784 0.0839 0.0
H6223 H 0.64897 0.12423 0.05048 0.0
C6224 C 0.72214 0.0981 0.01349 0.0
C6225 C 0.72765 0.11824 0.01794 0.0
C6226 C 0.70462 0.08945 0.00753 0.0
C6227 C 0.69255 0.10094 0.00618 0.0
C6228 C 0.69844 0.12093 0.00818 0.0
C6229 C 0.71597 0.12961 0.01429 0.0
C6230 C 0.67471 0.0931 0.01028 0.0
C6231 C 0.67053 0.10048 0.02862 0.0
C6232 C 0.66452 0.07559 0.99941 0.0
C6233 C 0.66863 0.06738 0.97988 0.0
C6234 C 0.67245 0.07912 0.96617 0.0
C6235 C 0.67682 0.07148 0.94805 0.0
C6236 C 0.67733 0.05207 0.94338 0.0
C6237 C 0.67343 0.04025 0.95682 0.0
C6238 C 0.66908 0.04781 0.97497 0.0
C6239 C 0.60085 0.06326 0.03648 0.0
C6240 C 0.59572 0.04392 0.02736 0.0
C6241 C 0.61846 0.07236 0.0391 0.0
C6242 C 0.63099 0.0619 0.03326 0.0
C6243 C 0.62584 0.04168 0.02783 0.0
C6244 C 0.60805 0.03275 0.02398 0.0
C6245 C 0.64713 0.07216 0.02664 0.0
C6246 C 0.65061 0.06546 0.00765 0.0
C6247 C 0.65715 0.09003 0.03716 0.0
C6248 C 0.65452 0.09803 0.05722 0.0
C6249 C 0.65653 0.08795 0.07199 0.0
C6250 C 0.65472 0.09607 0.09098 0.0
C6251 C 0.65032 0.11392 0.09524 0.0
C6252 C 0.6482 0.12396 0.08059 0.0
C6253 C 0.65052 0.11621 0.06168 0.0
H6254 H 0.64871 0.12003 0.10992 0.0
H6255 H 0.68074 0.04619 0.92936 0.0
H6256 H 0.19184 0.47818 0.25838 0.0
H6257 H 0.21536 0.46501 0.27071 0.0
H6258 H 0.24234 0.4722 0.22014 0.0
H6259 H 0.21903 0.48617 0.20806 0.0
H6260 H 0.23299 0.43413 0.23118 0.0
H6261 H 0.26287 0.49952 0.25549 0.0
H6262 H 0.26789 0.53331 0.27251 0.0
H6263 H 0.25654 0.51457 0.3254 0.0
H6264 H 0.25116 0.48066 0.30869 0.0
H6265 H 0.30196 0.40114 0.27717 0.0
H6266 H 0.28365 0.41545 0.25772 0.0
H6267 H 0.25571 0.4303 0.30688 0.0
H6268 H 0.27389 0.41606 0.32634 0.0
H6269 H 0.27111 0.46095 0.29248 0.0
H6270 H 0.23463 0.39795 0.26985 0.0
H6271 H 0.22261 0.36408 0.25379 0.0
H6272 H 0.23939 0.37724 0.20017 0.0
H6273 H 0.25186 0.4111 0.216 0.0
C6274 C 0.20249 0.47626 0.24963 0.0
C6275 C 0.2036 0.48238 0.23208 0.0
C6276 C 0.2161 0.46945 0.25693 0.0
C6277 C 0.23062 0.46846 0.2465 0.0
C6278 C 0.2313 0.47351 0.22843 0.0
C6279 C 0.21786 0.4808 0.22133 0.0
C6280 C 0.24355 0.45914 0.25331 0.0
C6281 C 0.24188 0.44003 0.24425 0.0
C6282 C 0.2542 0.46706 0.27079 0.0
C6283 C 0.25649 0.48747 0.28074 0.0
C6284 C 0.26118 0.50256 0.27069 0.0
C6285 C 0.26417 0.52176 0.28031 0.0
C6286 C 0.26253 0.52608 0.30002 0.0
C6287 C 0.25781 0.51121 0.31014 0.0
C6288 C 0.2548 0.49199 0.30059 0.0
C6289 C 0.29172 0.40722 0.28367 0.0
C6290 C 0.2895 0.408 0.30327 0.0
C6291 C 0.28124 0.41518 0.27256 0.0
C6292 C 0.2685 0.42383 0.28101 0.0
C6293 C 0.26563 0.42368 0.30028 0.0
C6294 C 0.27611 0.41583 0.31138 0.0
C6295 C 0.25994 0.43549 0.27076 0.0
C6296 C 0.26262 0.45508 0.27914 0.0
C6297 C 0.2496 0.42782 0.25301 0.0
C6298 C 0.2446 0.40698 0.24425 0.0
C6299 C 0.23627 0.39351 0.25479 0.0
C6300 C 0.22921 0.37434 0.24567 0.0
C6301 C 0.23031 0.36849 0.226 0.0
C6302 C 0.23864 0.38175 0.21543 0.0
C6303 C 0.24578 0.4009 0.22449 0.0
H6304 H 0.22464 0.35369 0.21893 0.0
H6305 H 0.26493 0.54096 0.30745 0.0
H6306 H 0.26705 0.43014 0.01883 0.0
H6307 H 0.24327 0.44573 0.01252 0.0
H6308 H 0.21394 0.41931 0.0543 0.0
H6309 H 0.23752 0.40325 0.0604 0.0
H6310 H 0.19257 0.41829 0.02258 0.0
H6311 H 0.2371 0.46677 0.06565 0.0
H6312 H 0.26742 0.4861 0.07585 0.0
H6313 H 0.26778 0.50905 0.02417 0.0
H6314 H 0.23754 0.48969 0.01356 0.0
H6315 H 0.13139 0.47799 0.0168 0.0
H6316 H 0.15212 0.46131 0.02923 0.0
H6317 H 0.19245 0.48999 0.99825 0.0
H6318 H 0.17275 0.5083 0.9879 0.0
H6319 H 0.20705 0.48937 0.02928 0.0
H6320 H 0.1646 0.43959 0.98394 0.0
H6321 H 0.13517 0.41899 0.9715 0.0
H6322 H 0.1313 0.39755 0.02403 0.0
H6323 H 0.16061 0.41822 0.03688 0.0
C6324 C 0.25557 0.42764 0.02671 0.0
C6325 C 0.25431 0.41562 0.04029 0.0
C6326 C 0.24198 0.43659 0.02311 0.0
C6327 C 0.22694 0.43394 0.03318 0.0
C6328 C 0.22545 0.42163 0.04643 0.0
C6329 C 0.23901 0.41257 0.04998 0.0
C6330 C 0.21303 0.44441 0.03015 0.0
C6331 C 0.19563 0.43386 0.02423 0.0
C6332 C 0.21708 0.46468 0.03215 0.0
C6333 C 0.23509 0.47672 0.03879 0.0
C6334 C 0.24367 0.47591 0.05645 0.0
C6335 C 0.26084 0.48686 0.06229 0.0
C6336 C 0.26953 0.49878 0.05066 0.0
C6337 C 0.26103 0.49982 0.03318 0.0
C6338 C 0.24387 0.48889 0.02726 0.0
C6339 C 0.14478 0.4811 0.01299 0.0
C6340 C 0.15019 0.49439 0.00102 0.0
C6341 C 0.15657 0.47121 0.01982 0.0
C6342 C 0.17382 0.47396 0.01434 0.0
C6343 C 0.17925 0.48745 0.0027 0.0
C6344 C 0.16775 0.49774 0.99645 0.0
C6345 C 0.18659 0.46325 0.02069 0.0
C6346 C 0.20383 0.47379 0.02756 0.0
C6347 C 0.18239 0.44294 0.01918 0.0
C6348 C 0.16471 0.43063 0.01146 0.0
C6349 C 0.15741 0.4306 0.9929 0.0
C6350 C 0.14076 0.4189 0.98577 0.0
C6351 C 0.13135 0.40701 0.99699 0.0
C6352 C 0.13859 0.40679 0.01536 0.0
C6353 C 0.15521 0.4185 0.02258 0.0
H6354 H 0.11847 0.39795 0.99143 0.0
H6355 H 0.28283 0.50722 0.05519 0.0
H6356 H 0.87844 0.017 0.27258 0.0
H6357 H 0.86001 0.98456 0.27213 0.0
H6358 H 0.9045 0.96003 0.25965 0.0
H6359 H 0.92251 0.99183 0.25951 0.0
H6360 H 0.87934 0.93675 0.23967 0.0
H6361 H 0.88539 0.96554 0.30596 0.0
H6362 H 0.8838 0.98982 0.33457 0.0
H6363 H 0.82772 0.9788 0.32179 0.0
H6364 H 0.82902 0.95463 0.29293 0.0
H6365 H 0.84694 0.84342 0.2616 0.0
H6366 H 0.8625 0.87637 0.26122 0.0
H6367 H 0.81407 0.89488 0.26707 0.0
H6368 H 0.79835 0.86168 0.26769 0.0
H6369 H 0.83983 0.92141 0.28969 0.0
H6370 H 0.83602 0.89034 0.22278 0.0
H6371 H 0.84039 0.86707 0.1947 0.0
H6372 H 0.8962 0.88236 0.21102 0.0
H6373 H 0.89211 0.90563 0.23933 0.0
C6374 C 0.8843 0.00471 0.26972 0.0
C6375 C 0.90217 0.00747 0.26604 0.0
C6376 C 0.87371 0.98597 0.2696 0.0
C6377 C 0.88062 0.96928 0.26601 0.0
C6378 C 0.89844 0.97219 0.26236 0.0
C6379 C 0.9089 0.99071 0.26236 0.0
C6380 C 0.86961 0.94882 0.26568 0.0
C6381 C 0.87091 0.93354 0.25085 0.0
C6382 C 0.85819 0.94399 0.27989 0.0
C6383 C 0.85733 0.95846 0.29718 0.0
C6384 C 0.87274 0.96841 0.30917 0.0
C6385 C 0.87189 0.98213 0.32544 0.0
C6386 C 0.85567 0.98589 0.32996 0.0
C6387 C 0.84027 0.9759 0.31824 0.0
C6388 C 0.84106 0.96219 0.30193 0.0
C6389 C 0.83939 0.85435 0.2627 0.0
C6390 C 0.82108 0.84936 0.26453 0.0
C6391 C 0.84845 0.87345 0.26235 0.0
C6392 C 0.83969 0.88863 0.26382 0.0
C6393 C 0.82141 0.88376 0.26579 0.0
C6394 C 0.81227 0.86453 0.266 0.0
C6395 C 0.84967 0.90938 0.26371 0.0
C6396 C 0.84822 0.92469 0.2785 0.0
C6397 C 0.86138 0.9142 0.24974 0.0
C6398 C 0.86372 0.89956 0.23326 0.0
C6399 C 0.84919 0.88855 0.22051 0.0
C6400 C 0.85164 0.8754 0.2045 0.0
C6401 C 0.86859 0.87318 0.20109 0.0
C6402 C 0.8831 0.88407 0.2137 0.0
C6403 C 0.88071 0.89724 0.22971 0.0
H6404 H 0.87054 0.86308 0.18866 0.0
H6405 H 0.85503 0.99652 0.34257 0.0
H6406 H 0.69108 0.10354 0.75209 0.0
H6407 H 0.71127 0.13553 0.75966 0.0
H6408 H 0.75442 0.11002 0.74259 0.0
H6409 H 0.73464 0.07815 0.73618 0.0
H6410 H 0.76482 0.14064 0.77136 0.0
H6411 H 0.72608 0.12381 0.7083 0.0
H6412 H 0.6959 0.11522 0.6918 0.0
H6413 H 0.68464 0.16556 0.72591 0.0
H6414 H 0.71469 0.17438 0.74258 0.0
H6415 H 0.81218 0.23365 0.76681 0.0
H6416 H 0.80153 0.19919 0.75236 0.0
H6417 H 0.74785 0.20494 0.7572 0.0
H6418 H 0.75849 0.23923 0.76906 0.0
H6419 H 0.74794 0.18087 0.72718 0.0
H6420 H 0.77742 0.1949 0.79486 0.0
H6421 H 0.80451 0.20667 0.81725 0.0
H6422 H 0.82915 0.16678 0.78292 0.0
H6423 H 0.80222 0.15498 0.76022 0.0
C6424 C 0.70494 0.10491 0.75025 0.0
C6425 C 0.71145 0.08883 0.74304 0.0
C6426 C 0.71637 0.12298 0.75468 0.0
C6427 C 0.73404 0.12485 0.75102 0.0
C6428 C 0.74073 0.10863 0.74528 0.0
C6429 C 0.72946 0.09058 0.74144 0.0
C6430 C 0.74508 0.1435 0.75035 0.0
C6431 C 0.7612 0.14952 0.76174 0.0
C6432 C 0.74025 0.15465 0.73752 0.0
C6433 C 0.72261 0.14978 0.72657 0.0
C6434 C 0.71718 0.13309 0.71214 0.0
C6435 C 0.70009 0.12816 0.70281 0.0
C6436 C 0.68837 0.13985 0.70778 0.0
C6437 C 0.69373 0.15655 0.72202 0.0
C6438 C 0.7108 0.16155 0.73135 0.0
C6439 C 0.79815 0.22732 0.76406 0.0
C6440 C 0.78592 0.2385 0.76815 0.0
C6441 C 0.79213 0.20788 0.75596 0.0
C6442 C 0.77396 0.19966 0.75365 0.0
C6443 C 0.76191 0.2111 0.75833 0.0
C6444 C 0.7679 0.2305 0.76544 0.0
C6445 C 0.76701 0.17893 0.74947 0.0
C6446 C 0.75178 0.17188 0.73656 0.0
C6447 C 0.77209 0.16745 0.76183 0.0
C6448 C 0.78794 0.17417 0.77584 0.0
C6449 C 0.78863 0.18864 0.79215 0.0
C6450 C 0.80398 0.19536 0.80485 0.0
C6451 C 0.81859 0.1875 0.80149 0.0
C6452 C 0.81785 0.17288 0.78548 0.0
C6453 C 0.80257 0.16619 0.77269 0.0
H6454 H 0.83049 0.19267 0.81127 0.0
H6455 H 0.67512 0.13596 0.70061 0.0
loop_
_geom_bond_atom_site_label_1
_geom_bond_atom_site_label_2
_geom_bond_distance
_geom_bond_site_symmetry_2
_ccdc_geom_bond_type
C0 O1 1.160 . S
C0 O7 1.185 . S
O1 C0 1.160 . S
O2 Zn3 1.899 . S
O2 C10 1.284 . S
Zn3 O2 1.899 . S
Zn3 O4 2.032 . S
Zn3 O7 2.086 . S
Zn3 O12 1.977 . S
O4 Zn3 2.032 . S
O4 C8 1.278 . S
C5 O6 1.203 . S
C5 O12 1.267 . S
O6 C5 1.203 . S
O7 C0 1.185 . S
O7 Zn3 2.086 . S
C8 O4 1.278 . S
C8 O9 1.211 . S
O9 C8 1.211 . S
C10 O2 1.284 . S
C10 O11 1.273 . S
O11 C10 1.273 . S
O12 Zn3 1.977 . S
O12 C5 1.267 . S
C13 O14 1.160 . S
C13 O20 1.185 . S
O14 C13 1.160 . S
O15 Zn16 1.899 . S
O15 C23 1.284 . S
Zn16 O15 1.899 . S
Zn16 O17 2.032 . S
Zn16 O20 2.086 . S
Zn16 O25 1.977 1_655 S
O17 Zn16 2.032 . S
O17 C21 1.278 1_655 S
C18 O19 1.203 . S
C18 O25 1.267 . S
O19 C18 1.203 . S
O20 C13 1.185 . S
O20 Zn16 2.086 . S
C21 O17 1.278 1_455 S
C21 O22 1.211 . S
O22 C21 1.211 . S
C23 O15 1.284 . S
C23 O24 1.273 1_655 S
O24 C23 1.273 1_455 S
O25 Zn16 1.977 1_455 S
O25 C18 1.267 . S
C26 O27 1.160 . S
C26 O33 1.185 . S
O27 C26 1.160 . S
O28 Zn29 1.899 . S
O28 C36 1.284 . S
Zn29 O28 1.899 . S
Zn29 O30 2.032 . S
Zn29 O33 2.086 . S
Zn29 O38 1.977 . S
O30 Zn29 2.032 . S
O30 C34 1.278 . S
C31 O32 1.203 . S
C31 O38 1.267 . S
O32 C31 1.203 . S
O33 C26 1.185 . S
O33 Zn29 2.086 . S
C34 O30 1.278 . S
C34 O35 1.211 . S
O35 C34 1.211 . S
C36 O28 1.284 . S
C36 O37 1.273 . S
O37 C36 1.273 . S
O38 Zn29 1.977 . S
O38 C31 1.267 . S
C39 O40 1.160 . S
C39 O46 1.185 . S
O40 C39 1.160 . S
O41 Zn42 1.899 . S
O41 C49 1.284 . S
Zn42 O41 1.899 . S
Zn42 O43 2.032 . S
Zn42 O46 2.086 . S
Zn42 O51 1.977 . S
O43 Zn42 2.032 . S
O43 C47 1.278 . S
C44 O45 1.203 . S
C44 O51 1.267 . S
O45 C44 1.203 . S
O46 C39 1.185 . S
O46 Zn42 2.086 . S
C47 O43 1.278 . S
C47 O48 1.211 . S
O48 C47 1.211 . S
C49 O41 1.284 . S
C49 O50 1.273 . S
O50 C49 1.273 . S
O51 Zn42 1.977 . S
O51 C44 1.267 . S
C52 O53 1.160 . S
C52 O59 1.185 . S
O53 C52 1.160 . S
O54 Zn55 1.899 . S
O54 C62 1.284 . S
Zn55 O54 1.899 . S
Zn55 O56 2.032 . S
Zn55 O59 2.086 . S
Zn55 O64 1.977 . S
O56 Zn55 2.032 . S
O56 C60 1.278 . S
C57 O58 1.203 . S
C57 O64 1.267 . S
O58 C57 1.203 . S
O59 C52 1.185 . S
O59 Zn55 2.086 . S
C60 O56 1.278 . S
C60 O61 1.211 . S
O61 C60 1.211 . S
C62 O54 1.284 . S
C62 O63 1.273 . S
O63 C62 1.273 . S
O64 Zn55 1.977 . S
O64 C57 1.267 . S
C65 O66 1.160 . S
C65 O72 1.185 . S
O66 C65 1.160 . S
O67 Zn68 1.899 . S
O67 C75 1.284 . S
Zn68 O67 1.899 . S
Zn68 O69 2.032 . S
Zn68 O72 2.086 . S
Zn68 O77 1.977 . S
O69 Zn68 2.032 . S
O69 C73 1.278 . S
C70 O71 1.203 . S
C70 O77 1.267 . S
O71 C70 1.203 . S
O72 C65 1.185 . S
O72 Zn68 2.086 . S
C73 O69 1.278 . S
C73 O74 1.211 . S
O74 C73 1.211 . S
C75 O67 1.284 . S
C75 O76 1.273 . S
O76 C75 1.273 . S
O77 Zn68 1.977 . S
O77 C70 1.267 . S
C78 O79 1.160 . S
C78 O85 1.185 . S
O79 C78 1.160 . S
O80 Zn81 1.899 . S
O80 C88 1.284 . S
Zn81 O80 1.899 . S
Zn81 O82 2.032 . S
Zn81 O85 2.086 . S
Zn81 O90 1.977 . S
O82 Zn81 2.032 . S
O82 C86 1.278 . S
C83 O84 1.203 . S
C83 O90 1.267 . S
O84 C83 1.203 . S
O85 C78 1.185 . S
O85 Zn81 2.086 . S
C86 O82 1.278 . S
C86 O87 1.211 . S
O87 C86 1.211 . S
C88 O80 1.284 . S
C88 O89 1.273 . S
O89 C88 1.273 . S
O90 Zn81 1.977 . S
O90 C83 1.267 . S
C91 O92 1.160 . S
C91 O98 1.185 . S
O92 C91 1.160 . S
O93 Zn94 1.899 . S
O93 C101 1.284 . S
Zn94 O93 1.899 . S
Zn94 O95 2.032 . S
Zn94 O98 2.086 . S
Zn94 O103 1.931 1_455 S
O95 Zn94 2.032 . S
O95 C99 1.278 . S
C96 O97 1.203 . S
C96 O103 1.321 . S
O97 C96 1.203 . S
O98 C91 1.185 . S
O98 Zn94 2.086 . S
C99 O95 1.278 . S
C99 O100 1.211 . S
O100 C99 1.211 . S
C101 O93 1.284 . S
C101 O102 1.273 . S
O102 C101 1.273 . S
O103 Zn94 1.931 1_655 S
O103 C96 1.321 . S
C104 O105 1.160 . S
C104 O111 1.185 . S
O105 C104 1.160 . S
O106 Zn107 1.899 . S
O106 C114 1.284 . S
Zn107 O106 1.899 . S
Zn107 O108 2.032 . S
Zn107 O111 2.086 . S
Zn107 O116 1.977 . S
O108 Zn107 2.032 . S
O108 C112 1.278 . S
C109 O110 1.203 . S
C109 O116 1.267 1_565 S
O110 C109 1.203 . S
O111 C104 1.185 . S
O111 Zn107 2.086 . S
C112 O108 1.278 . S
C112 O113 1.211 . S
O113 C112 1.211 . S
C114 O106 1.284 . S
C114 O115 1.273 . S
O115 C114 1.273 . S
O116 Zn107 1.977 . S
O116 C109 1.267 1_545 S
C117 O118 1.160 . S
C117 O124 1.185 . S
O118 C117 1.160 . S
O119 Zn120 1.899 . S
O119 C127 1.284 . S
Zn120 O119 1.899 . S
Zn120 O121 2.032 . S
Zn120 O124 2.086 . S
Zn120 O129 1.977 . S
O121 Zn120 2.032 . S
O121 C125 1.278 . S
C122 O123 1.203 . S
C122 O129 1.267 . S
O123 C122 1.203 . S
O124 C117 1.185 . S
O124 Zn120 2.086 . S
C125 O121 1.278 . S
C125 O126 1.211 . S
O126 C125 1.211 . S
C127 O119 1.284 . S
C127 O128 1.273 . S
O128 C127 1.273 . S
O129 Zn120 1.977 . S
O129 C122 1.267 . S
C130 O131 1.160 . S
C130 O137 1.185 . S
O131 C130 1.160 . S
O132 Zn133 1.899 . S
O132 C140 1.284 . S
Zn133 O132 1.899 . S
Zn133 O134 2.032 . S
Zn133 O137 2.086 . S
Zn133 O142 1.977 1_565 S
O134 Zn133 2.032 . S
O134 C138 1.278 1_565 S
C135 O136 1.203 . S
C135 O142 1.267 . S
O136 C135 1.203 . S
O137 C130 1.185 . S
O137 Zn133 2.086 . S
C138 O134 1.278 1_545 S
C138 O139 1.211 . S
O139 C138 1.211 . S
C140 O132 1.284 . S
C140 O141 1.273 1_565 S
O141 C140 1.273 1_545 S
O142 Zn133 1.977 1_545 S
O142 C135 1.267 . S
C143 O144 1.160 . S
C143 O150 1.185 . S
O144 C143 1.160 . S
O145 Zn146 1.899 . S
O145 C153 1.284 . S
Zn146 O145 1.899 . S
Zn146 O147 2.032 1_554 S
Zn146 O150 2.086 . S
Zn146 O155 1.977 . S
O147 Zn146 2.032 1_556 S
O147 C151 1.278 . S
C148 O149 1.203 . S
C148 O155 1.267 . S
O149 C148 1.203 . S
O150 C143 1.185 . S
O150 Zn146 2.086 . S
C151 O147 1.278 . S
C151 O152 1.211 . S
O152 C151 1.211 . S
C153 O145 1.284 . S
C153 O154 1.273 . S
O154 C153 1.273 . S
O155 Zn146 1.977 . S
O155 C148 1.267 . S
C156 O157 1.160 . S
C156 O163 1.185 . S
O157 C156 1.160 . S
O158 Zn159 1.899 . S
O158 C166 1.284 . S
Zn159 O158 1.899 . S
Zn159 O160 2.032 . S
Zn159 O163 2.086 . S
Zn159 O168 1.977 . S
O160 Zn159 2.032 . S
O160 C164 1.278 . S
C161 O162 1.203 . S
C161 O168 1.267 . S
O162 C161 1.203 . S
O163 C156 1.185 . S
O163 Zn159 2.086 . S
C164 O160 1.278 . S
C164 O165 1.211 . S
O165 C164 1.211 . S
C166 O158 1.284 . S
C166 O167 1.273 . S
O167 C166 1.273 . S
O168 Zn159 1.977 . S
O168 C161 1.267 . S
C169 O170 1.160 . S
C169 O176 1.185 . S
O170 C169 1.160 . S
O171 Zn172 1.899 . S
O171 C179 1.284 . S
Zn172 O171 1.899 . S
Zn172 O173 2.032 . S
Zn172 O176 2.086 . S
Zn172 O181 1.977 . S
O173 Zn172 2.032 . S
O173 C177 1.278 1_554 S
C174 O175 1.203 . S
C174 O181 1.267 . S
O175 C174 1.203 . S
O176 C169 1.185 . S
O176 Zn172 2.086 . S
C177 O173 1.278 1_556 S
C177 O178 1.211 . S
O178 C177 1.211 . S
C179 O171 1.284 . S
C179 O180 1.273 . S
O180 C179 1.273 . S
O181 Zn172 1.977 . S
O181 C174 1.267 . S
C182 O183 1.160 . S
C182 O189 1.185 . S
O183 C182 1.160 . S
O184 Zn185 1.899 . S
O184 C192 1.284 . S
Zn185 O184 1.899 . S
Zn185 O186 2.032 . S
Zn185 O189 2.086 . S
Zn185 O194 1.977 . S
O186 Zn185 2.032 . S
O186 C190 1.278 . S
C187 O188 1.203 . S
C187 O194 1.267 . S
O188 C187 1.203 . S
O189 C182 1.185 . S
O189 Zn185 2.086 . S
C190 O186 1.278 . S
C190 O191 1.211 . S
O191 C190 1.211 . S
C192 O184 1.284 . S
C192 O193 1.273 . S
O193 C192 1.273 . S
O194 Zn185 1.977 . S
O194 C187 1.267 . S
C195 O196 1.160 . S
C195 O202 1.185 . S
O196 C195 1.160 . S
O197 Zn198 1.899 . S
O197 C205 1.284 . S
Zn198 O197 1.899 . S
Zn198 O199 2.032 . S
Zn198 O202 2.086 . S
Zn198 O207 1.977 . S
O199 Zn198 2.032 . S
O199 C203 1.278 . S
C200 O201 1.203 . S
C200 O207 1.267 . S
O201 C200 1.203 . S
O202 C195 1.185 . S
O202 Zn198 2.086 . S
C203 O199 1.278 . S
C203 O204 1.211 . S
O204 C203 1.211 . S
C205 O197 1.284 . S
C205 O206 1.273 . S
O206 C205 1.273 . S
O207 Zn198 1.977 . S
O207 C200 1.267 . S
C208 O209 1.160 . S
C208 O215 1.185 . S
O209 C208 1.160 . S
O210 Zn211 1.899 . S
O210 C218 1.284 . S
Zn211 O210 1.899 . S
Zn211 O212 2.032 . S
Zn211 O215 2.086 . S
Zn211 O220 1.977 . S
O212 Zn211 2.032 . S
O212 C216 1.278 . S
C213 O214 1.203 . S
C213 O220 1.267 . S
O214 C213 1.203 . S
O215 C208 1.185 . S
O215 Zn211 2.086 . S
C216 O212 1.278 . S
C216 O217 1.211 . S
O217 C216 1.211 . S
C218 O210 1.284 . S
C218 O219 1.273 . S
O219 C218 1.273 . S
O220 Zn211 1.977 . S
O220 C213 1.267 . S
C221 O222 1.160 . S
C221 O228 1.185 . S
O222 C221 1.160 . S
O223 Zn224 1.899 . S
O223 C231 1.284 . S
Zn224 O223 1.899 . S
Zn224 O225 2.032 . S
Zn224 O228 2.086 . S
Zn224 O233 1.977 . S
O225 Zn224 2.032 . S
O225 C229 1.278 . S
C226 O227 1.203 . S
C226 O233 1.267 . S
O227 C226 1.203 . S
O228 C221 1.185 . S
O228 Zn224 2.086 . S
C229 O225 1.278 . S
C229 O230 1.211 . S
O230 C229 1.211 . S
C231 O223 1.284 . S
C231 O232 1.273 . S
O232 C231 1.273 . S
O233 Zn224 1.977 . S
O233 C226 1.267 . S
C234 O235 1.160 . S
C234 O241 1.185 . S
O235 C234 1.160 . S
O236 Zn237 1.899 . S
O236 C244 1.284 . S
Zn237 O236 1.899 . S
Zn237 O238 2.032 . S
Zn237 O241 2.086 . S
Zn237 O246 1.977 . S
O238 Zn237 2.032 . S
O238 C242 1.278 . S
C239 O240 1.203 . S
C239 O246 1.267 . S
O240 C239 1.203 . S
O241 C234 1.185 . S
O241 Zn237 2.086 . S
C242 O238 1.278 . S
C242 O243 1.211 . S
O243 C242 1.211 . S
C244 O236 1.284 . S
C244 O245 1.273 . S
O245 C244 1.273 . S
O246 Zn237 1.977 . S
O246 C239 1.267 . S
C247 O248 1.160 . S
C247 O254 1.185 . S
O248 C247 1.160 . S
O249 Zn250 1.899 . S
O249 C257 1.284 . S
Zn250 O249 1.899 . S
Zn250 O251 2.032 . S
Zn250 O254 2.086 . S
Zn250 O259 1.977 . S
O251 Zn250 2.032 . S
O251 C255 1.278 . S
C252 O253 1.203 . S
C252 O259 1.267 . S
O253 C252 1.203 . S
O254 C247 1.185 . S
O254 Zn250 2.086 . S
C255 O251 1.278 . S
C255 O256 1.211 . S
O256 C255 1.211 . S
C257 O249 1.284 . S
C257 O258 1.273 . S
O258 C257 1.273 . S
O259 Zn250 1.977 . S
O259 C252 1.267 . S
C260 O261 1.182 . S
C260 O267 1.173 1_554 S
O261 C260 1.182 . S
O262 Zn263 1.899 . S
O262 C270 1.284 . S
Zn263 O262 1.899 . S
Zn263 O264 2.032 1_554 S
Zn263 O267 2.086 1_554 S
Zn263 O272 1.977 1_554 S
O264 Zn263 2.032 1_556 S
O264 C268 1.278 . S
C265 O266 1.203 1_556 S
C265 O272 1.267 . S
O266 C265 1.203 1_554 S
O267 C260 1.173 1_556 S
O267 Zn263 2.086 1_556 S
C268 O264 1.278 . S
C268 O269 1.211 . S
O269 C268 1.211 . S
C270 O262 1.284 . S
C270 O271 1.273 . S
O271 C270 1.273 . S
O272 Zn263 1.977 1_556 S
O272 C265 1.267 . S
C273 O274 1.160 . S
C273 O280 1.185 . S
O274 C273 1.160 . S
O275 Zn276 1.899 . S
O275 C283 1.284 . S
Zn276 O275 1.899 . S
Zn276 O277 2.032 . S
Zn276 O280 2.086 . S
Zn276 O285 1.977 . S
O277 Zn276 2.032 . S
O277 C281 1.278 . S
C278 O279 1.203 . S
C278 O285 1.267 . S
O279 C278 1.203 . S
O280 C273 1.185 . S
O280 Zn276 2.086 . S
C281 O277 1.278 . S
C281 O282 1.211 . S
O282 C281 1.211 . S
C283 O275 1.284 . S
C283 O284 1.273 . S
O284 C283 1.273 . S
O285 Zn276 1.977 . S
O285 C278 1.267 . S
C286 O287 1.160 . S
C286 O293 1.185 . S
O287 C286 1.160 . S
O288 Zn289 1.899 . S
O288 C296 1.284 . S
Zn289 O288 1.899 . S
Zn289 O290 2.032 . S
Zn289 O293 2.086 . S
Zn289 O298 1.977 . S
O290 Zn289 2.032 . S
O290 C294 1.278 . S
C291 O292 1.203 . S
C291 O298 1.267 . S
O292 C291 1.203 . S
O293 C286 1.185 . S
O293 Zn289 2.086 . S
C294 O290 1.278 . S
C294 O295 1.211 . S
O295 C294 1.211 . S
C296 O288 1.284 . S
C296 O297 1.273 . S
O297 C296 1.273 . S
O298 Zn289 1.977 . S
O298 C291 1.267 . S
C299 O300 1.160 . S
C299 O306 1.185 . S
O300 C299 1.160 . S
O301 Zn302 1.899 . S
O301 C309 1.284 . S
Zn302 O301 1.899 . S
Zn302 O303 2.032 . S
Zn302 O306 2.086 . S
Zn302 O311 1.977 . S
O303 Zn302 2.032 . S
O303 C307 1.278 . S
C304 O305 1.203 . S
C304 O311 1.267 . S
O305 C304 1.203 . S
O306 C299 1.185 . S
O306 Zn302 2.086 . S
C307 O303 1.278 . S
C307 O308 1.211 . S
O308 C307 1.211 . S
C309 O301 1.284 . S
C309 O310 1.273 . S
O310 C309 1.273 . S
O311 Zn302 1.977 . S
O311 C304 1.267 . S
Gd312 N343 2.661 . S
Gd312 N349 2.601 . S
Gd312 O356 2.545 . S
Gd312 O357 2.606 . S
Gd312 O359 2.429 . S
Gd312 O360 2.545 . S
Gd312 O361 2.412 . S
Gd312 O363 2.362 . S
Gd312 O364 2.324 1_554 S
Gd312 C371 2.828 . S
Gd313 N322 2.661 1_545 S
Gd313 N326 2.601 1_544 S
Gd313 O357 2.362 . S
Gd313 O358 2.324 . S
Gd313 O362 2.545 1_454 S
Gd313 O363 2.606 . S
Gd313 O365 2.429 1_554 S
Gd313 O366 2.546 . S
Gd313 O367 2.412 1_455 S
Gd313 C380 2.828 1_454 S
C314 C317 1.417 . S
C314 C319 1.431 1_554 S
C314 C320 1.412 . S
C315 C318 1.437 . S
C315 C319 1.317 . S
C315 H334 0.929 . S
C316 C317 1.426 1_556 S
C316 C318 1.413 . S
C316 N326 1.359 1_655 S
C317 C314 1.417 . S
C317 C316 1.426 1_554 S
C317 N322 1.350 1_655 S
C318 C315 1.437 . S
C318 C316 1.413 . S
C318 C328 1.391 . S
C319 C314 1.431 1_556 S
C319 C315 1.317 . S
C319 H330 0.930 1_556 S
C320 C314 1.412 . S
C320 C321 1.361 . S
C320 H332 0.930 . S
C321 C320 1.361 . S
C321 C323 1.395 1_655 S
C321 H333 0.932 . S
N322 Gd313 2.661 1_565 S
N322 C317 1.350 1_455 S
N322 C323 1.307 . S
C323 C321 1.395 1_455 S
C323 N322 1.307 . S
C323 H324 0.930 1_565 S
H324 C323 0.930 1_545 S
C325 N326 1.334 . S
C325 C327 1.394 1_455 S
C325 H329 0.924 1_565 S
N326 Gd313 2.601 1_566 S
N326 C316 1.359 1_455 S
N326 C325 1.334 . S
C327 C325 1.394 1_655 S
C327 C328 1.359 . S
C327 H339 0.930 . S
C328 C318 1.391 . S
C328 C327 1.359 . S
C328 H340 0.929 . S
H329 C325 0.924 1_545 S
H330 C319 0.930 1_554 S
H331 C348 0.930 . S
H332 C320 0.930 . S
H333 C321 0.932 . S
H334 C315 0.929 . S
H335 C353 0.930 . S
H336 C344 0.930 . S
H337 C345 0.930 . S
H338 C369 0.929 . S
H339 C327 0.930 . S
H340 C328 0.929 . S
H341 C370 0.930 . S
H342 C351 0.930 . S
N343 Gd312 2.661 . S
N343 C347 1.350 . S
N343 C348 1.307 1_554 S
C344 H336 0.930 . S
C344 C345 1.355 . S
C344 C346 1.412 1_556 S
C345 H337 0.930 . S
C345 C344 1.355 . S
C345 C348 1.402 . S
C346 C344 1.412 1_554 S
C346 C347 1.417 . S
C346 C370 1.431 . S
C347 N343 1.350 . S
C347 C346 1.417 . S
C347 C350 1.426 . S
C348 H331 0.930 . S
C348 N343 1.307 1_556 S
C348 C345 1.402 . S
N349 Gd312 2.601 . S
N349 C350 1.359 . S
N349 C353 1.334 . S
C350 C347 1.426 . S
C350 N349 1.359 . S
C350 C354 1.413 . S
C351 H342 0.930 . S
C351 C352 1.359 . S
C351 C353 1.394 . S
C352 C351 1.359 . S
C352 C354 1.391 . S
C352 H355 0.929 . S
C353 H335 0.930 . S
C353 N349 1.334 . S
C353 C351 1.394 . S
C354 C350 1.413 . S
C354 C352 1.391 . S
C354 C369 1.437 . S
H355 C352 0.929 . S
O356 Gd312 2.545 . S
O356 C371 1.258 . S
O357 Gd312 2.606 . S
O357 Gd313 2.362 . S
O357 C368 1.284 . S
O358 Gd313 2.324 . S
O358 C378 1.254 . S
O359 Gd312 2.429 . S
O359 C378 1.268 . S
O360 Gd312 2.545 . S
O360 C368 1.250 . S
O361 Gd312 2.412 . S
O361 C371 1.252 . S
O362 Gd313 2.545 1_656 S
O362 C380 1.258 . S
O363 Gd312 2.362 . S
O363 Gd313 2.606 . S
O363 C379 1.284 . S
O364 Gd312 2.324 1_556 S
O364 C387 1.254 . S
O365 Gd313 2.429 1_556 S
O365 C387 1.268 . S
O366 Gd313 2.546 . S
O366 C379 1.253 . S
O367 Gd313 2.412 1_655 S
O367 C380 1.252 1_554 S
C368 O357 1.284 . S
C368 O360 1.250 . S
C369 H338 0.929 . S
C369 C354 1.437 . S
C369 C370 1.317 . S
C370 H341 0.930 . S
C370 C346 1.431 . S
C370 C369 1.317 . S
C371 Gd312 2.828 . S
C371 O356 1.258 . S
C371 O361 1.252 . S
C371 C372 1.497 . S
C372 C371 1.497 . S
C372 C373 1.395 . S
C372 C374 1.380 . S
C373 C372 1.395 . S
C373 C376 1.398 . S
C373 H388 0.930 . S
C374 C372 1.380 . S
C374 C375 1.391 . S
C374 H389 0.930 . S
C375 C374 1.391 . S
C375 C377 1.387 . S
C376 C373 1.398 . S
C376 C377 1.380 . S
C376 H390 0.930 . S
C377 C375 1.387 . S
C377 C376 1.380 . S
C377 H391 0.930 . S
C378 O358 1.254 . S
C378 O359 1.268 . S
C379 O363 1.284 . S
C379 O366 1.253 . S
C380 Gd313 2.828 1_656 S
C380 O362 1.258 . S
C380 O367 1.252 1_556 S
C380 C381 1.497 . S
C381 C380 1.497 . S
C381 C382 1.395 . S
C381 C383 1.380 1_556 S
C382 C381 1.395 . S
C382 C385 1.398 . S
C382 H392 0.930 . S
C383 C381 1.380 1_554 S
C383 C384 1.391 1_554 S
C383 H393 0.930 . S
C384 C383 1.391 1_556 S
C384 C386 1.387 . S
C385 C382 1.398 . S
C385 C386 1.380 . S
C385 H394 0.930 . S
C386 C384 1.387 . S
C386 C385 1.380 . S
C386 H395 0.930 . S
C387 O364 1.254 . S
C387 O365 1.268 . S
H388 C373 0.930 . S
H389 C374 0.930 . S
H390 C376 0.930 . S
H391 C377 0.930 . S
H392 C382 0.930 . S
H393 C383 0.930 . S
H394 C385 0.930 . S
H395 C386 0.930 . S
Gd396 N427 2.661 . S
Gd396 N433 2.601 . S
Gd396 O440 2.545 . S
Gd396 O441 2.606 . S
Gd396 O443 2.429 . S
Gd396 O444 2.545 . S
Gd396 O445 2.412 . S
Gd396 O447 2.362 . S
Gd396 O448 2.324 . S
Gd396 C455 2.828 . S
Gd397 N406 2.661 . S
Gd397 N410 2.601 . S
Gd397 O441 2.362 . S
Gd397 O442 2.324 . S
Gd397 O446 2.545 . S
Gd397 O447 2.606 . S
Gd397 O449 2.429 . S
Gd397 O450 2.545 . S
Gd397 O451 2.412 . S
Gd397 C464 2.828 . S
C398 C401 1.417 . S
C398 C403 1.431 . S
C398 C404 1.412 . S
C399 C402 1.437 . S
C399 C403 1.317 . S
C399 H418 0.929 . S
C400 C401 1.426 . S
C400 C402 1.413 . S
C400 N410 1.359 . S
C401 C398 1.417 . S
C401 C400 1.426 . S
C401 N406 1.350 . S
C402 C399 1.437 . S
C402 C400 1.413 . S
C402 C412 1.391 . S
C403 C398 1.431 . S
C403 C399 1.317 . S
C403 H414 0.930 . S
C404 C398 1.412 . S
C404 C405 1.355 . S
C404 H416 0.930 . S
C405 C404 1.355 . S
C405 C407 1.402 . S
C405 H417 0.930 . S
N406 Gd397 2.661 . S
N406 C401 1.350 . S
N406 C407 1.307 . S
C407 C405 1.402 . S
C407 N406 1.307 . S
C407 H408 0.930 . S
H408 C407 0.930 . S
C409 N410 1.334 . S
C409 C411 1.394 . S
C409 H413 0.930 . S
N410 Gd397 2.601 . S
N410 C400 1.359 . S
N410 C409 1.334 . S
C411 C409 1.394 . S
C411 C412 1.359 . S
C411 H423 0.930 . S
C412 C402 1.391 . S
C412 C411 1.359 . S
C412 H424 0.929 . S
H413 C409 0.930 . S
H414 C403 0.930 . S
H415 C432 0.930 . S
H416 C404 0.930 . S
H417 C405 0.930 . S
H418 C399 0.929 . S
H419 C437 0.930 . S
H420 C428 0.930 . S
H421 C429 0.930 . S
H422 C453 0.929 . S
H423 C411 0.930 . S
H424 C412 0.929 . S
H425 C454 0.930 . S
H426 C435 0.930 . S
N427 Gd396 2.661 . S
N427 C431 1.350 . S
N427 C432 1.307 . S
C428 H420 0.930 . S
C428 C429 1.355 . S
C428 C430 1.412 . S
C429 H421 0.930 . S
C429 C428 1.355 . S
C429 C432 1.402 . S
C430 C428 1.412 . S
C430 C431 1.417 . S
C430 C454 1.431 . S
C431 N427 1.350 . S
C431 C430 1.417 . S
C431 C434 1.426 . S
C432 H415 0.930 . S
C432 N427 1.307 . S
C432 C429 1.402 . S
N433 Gd396 2.601 . S
N433 C434 1.359 . S
N433 C437 1.334 . S
C434 C431 1.426 . S
C434 N433 1.359 . S
C434 C438 1.413 . S
C435 H426 0.930 . S
C435 C436 1.359 . S
C435 C437 1.394 . S
C436 C435 1.359 . S
C436 C438 1.391 . S
C436 H439 0.929 . S
C437 H419 0.930 . S
C437 N433 1.334 . S
C437 C435 1.394 . S
C438 C434 1.413 . S
C438 C436 1.391 . S
C438 C453 1.437 . S
H439 C436 0.929 . S
O440 Gd396 2.545 . S
O440 C455 1.258 . S
O441 Gd396 2.606 . S
O441 Gd397 2.362 . S
O441 C452 1.284 . S
O442 Gd397 2.324 . S
O442 C462 1.254 . S
O443 Gd396 2.429 . S
O443 C462 1.268 . S
O444 Gd396 2.545 . S
O444 C452 1.250 . S
O445 Gd396 2.412 . S
O445 C455 1.252 . S
O446 Gd397 2.545 . S
O446 C464 1.258 . S
O447 Gd396 2.362 . S
O447 Gd397 2.606 . S
O447 C463 1.284 . S
O448 Gd396 2.324 . S
O448 C471 1.254 . S
O449 Gd397 2.429 . S
O449 C471 1.268 . S
O450 Gd397 2.545 . S
O450 C463 1.250 . S
O451 Gd397 2.412 . S
O451 C464 1.252 . S
C452 O441 1.284 . S
C452 O444 1.250 . S
C453 H422 0.929 . S
C453 C438 1.437 . S
C453 C454 1.317 . S
C454 H425 0.930 . S
C454 C430 1.431 . S
C454 C453 1.317 . S
C455 Gd396 2.828 . S
C455 O440 1.258 . S
C455 O445 1.252 . S
C455 C456 1.497 . S
C456 C455 1.497 . S
C456 C457 1.395 . S
C456 C458 1.380 . S
C457 C456 1.395 . S
C457 C460 1.398 . S
C457 H472 0.930 . S
C458 C456 1.380 . S
C458 C459 1.391 . S
C458 H473 0.930 . S
C459 C458 1.391 . S
C459 C461 1.387 . S
C460 C457 1.398 . S
C460 C461 1.380 . S
C460 H474 0.930 . S
C461 C459 1.387 . S
C461 C460 1.380 . S
C461 H475 0.930 . S
C462 O442 1.254 . S
C462 O443 1.268 . S
C463 O447 1.284 . S
C463 O450 1.250 . S
C464 Gd397 2.828 . S
C464 O446 1.258 . S
C464 O451 1.252 . S
C464 C465 1.497 . S
C465 C464 1.497 . S
C465 C466 1.395 . S
C465 C467 1.380 . S
C466 C465 1.395 . S
C466 C469 1.398 . S
C466 H476 0.930 . S
C467 C465 1.380 . S
C467 C468 1.391 . S
C467 H477 0.930 . S
C468 C467 1.391 . S
C468 C470 1.387 . S
C469 C466 1.398 . S
C469 C470 1.380 . S
C469 H478 0.930 . S
C470 C468 1.387 . S
C470 C469 1.380 . S
C470 H479 0.930 . S
C471 O448 1.254 . S
C471 O449 1.268 . S
H472 C457 0.930 . S
H473 C458 0.930 . S
H474 C460 0.930 . S
H475 C461 0.930 . S
H476 C466 0.930 . S
H477 C467 0.930 . S
H478 C469 0.930 . S
H479 C470 0.930 . S
Gd480 N511 2.661 . S
Gd480 N517 2.601 . S
Gd480 O524 2.545 . S
Gd480 O525 2.606 . S
Gd480 O527 2.429 . S
Gd480 O528 2.545 . S
Gd480 O529 2.412 . S
Gd480 O531 2.362 . S
Gd480 O532 2.324 . S
Gd480 C539 2.828 . S
Gd481 N490 2.661 . S
Gd481 N494 2.601 . S
Gd481 O525 2.362 . S
Gd481 O526 2.324 . S
Gd481 O530 2.545 . S
Gd481 O531 2.606 . S
Gd481 O533 2.429 . S
Gd481 O534 2.545 . S
Gd481 O535 2.412 . S
Gd481 C548 2.828 . S
C482 C485 1.417 . S
C482 C487 1.431 . S
C482 C488 1.412 . S
C483 C486 1.437 . S
C483 C487 1.317 . S
C483 H502 0.929 . S
C484 C485 1.426 . S
C484 C486 1.413 . S
C484 N494 1.359 . S
C485 C482 1.417 . S
C485 C484 1.426 . S
C485 N490 1.350 . S
C486 C483 1.437 . S
C486 C484 1.413 . S
C486 C496 1.391 . S
C487 C482 1.431 . S
C487 C483 1.317 . S
C487 H498 0.930 . S
C488 C482 1.412 . S
C488 C489 1.355 . S
C488 H500 0.930 . S
C489 C488 1.355 . S
C489 C491 1.402 . S
C489 H501 0.930 . S
N490 Gd481 2.661 . S
N490 C485 1.350 . S
N490 C491 1.307 . S
C491 C489 1.402 . S
C491 N490 1.307 . S
C491 H492 0.930 . S
H492 C491 0.930 . S
C493 N494 1.334 . S
C493 C495 1.394 . S
C493 H497 0.930 . S
N494 Gd481 2.601 . S
N494 C484 1.359 . S
N494 C493 1.334 . S
C495 C493 1.394 . S
C495 C496 1.359 . S
C495 H507 0.930 . S
C496 C486 1.391 . S
C496 C495 1.359 . S
C496 H508 0.929 . S
H497 C493 0.930 . S
H498 C487 0.930 . S
H499 C516 0.930 1_545 S
H500 C488 0.930 . S
H501 C489 0.930 . S
H502 C483 0.929 . S
H503 C521 0.930 . S
H504 C512 0.930 . S
H505 C513 0.930 . S
H506 C537 0.929 . S
H507 C495 0.930 . S
H508 C496 0.929 . S
H509 C538 0.930 . S
H510 C519 0.930 . S
N511 Gd480 2.661 . S
N511 C515 1.350 1_545 S
N511 C516 1.307 1_545 S
C512 H504 0.930 . S
C512 C513 1.355 . S
C512 C514 1.412 . S
C513 H505 0.930 . S
C513 C512 1.355 . S
C513 C516 1.402 . S
C514 C512 1.412 . S
C514 C515 1.417 . S
C514 C538 1.431 . S
C515 N511 1.350 1_565 S
C515 C514 1.417 . S
C515 C518 1.426 . S
C516 H499 0.930 1_565 S
C516 N511 1.307 1_565 S
C516 C513 1.402 . S
N517 Gd480 2.601 . S
N517 C518 1.359 1_545 S
N517 C521 1.334 . S
C518 C515 1.426 . S
C518 N517 1.359 1_565 S
C518 C522 1.413 . S
C519 H510 0.930 . S
C519 C520 1.359 1_545 S
C519 C521 1.394 . S
C520 C519 1.359 1_565 S
C520 C522 1.391 . S
C520 H523 0.929 . S
C521 H503 0.930 . S
C521 N517 1.334 . S
C521 C519 1.394 . S
C522 C518 1.413 . S
C522 C520 1.391 . S
C522 C537 1.437 . S
H523 C520 0.929 . S
O524 Gd480 2.545 . S
O524 C539 1.258 . S
O525 Gd480 2.606 . S
O525 Gd481 2.362 . S
O525 C536 1.284 . S
O526 Gd481 2.324 . S
O526 C546 1.254 . S
O527 Gd480 2.429 . S
O527 C546 1.268 . S
O528 Gd480 2.545 . S
O528 C536 1.250 . S
O529 Gd480 2.412 . S
O529 C539 1.252 . S
O530 Gd481 2.545 . S
O530 C548 1.258 . S
O531 Gd480 2.362 . S
O531 Gd481 2.606 . S
O531 C547 1.284 . S
O532 Gd480 2.324 . S
O532 C555 1.254 . S
O533 Gd481 2.429 . S
O533 C555 1.268 . S
O534 Gd481 2.545 . S
O534 C547 1.250 . S
O535 Gd481 2.412 . S
O535 C548 1.252 . S
C536 O525 1.284 . S
C536 O528 1.250 . S
C537 H506 0.929 . S
C537 C522 1.437 . S
C537 C538 1.317 . S
C538 H509 0.930 . S
C538 C514 1.431 . S
C538 C537 1.317 . S
C539 Gd480 2.828 . S
C539 O524 1.258 . S
C539 O529 1.252 . S
C539 C540 1.497 . S
C540 C539 1.497 . S
C540 C541 1.395 . S
C540 C542 1.380 . S
C541 C540 1.395 . S
C541 C544 1.398 . S
C541 H556 0.930 . S
C542 C540 1.380 . S
C542 C543 1.391 . S
C542 H557 0.930 . S
C543 C542 1.391 . S
C543 C545 1.387 . S
C544 C541 1.398 . S
C544 C545 1.380 . S
C544 H558 0.930 . S
C545 C543 1.387 . S
C545 C544 1.380 . S
C545 H559 0.930 . S
C546 O526 1.254 . S
C546 O527 1.268 . S
C547 O531 1.284 . S
C547 O534 1.250 . S
C548 Gd481 2.828 . S
C548 O530 1.258 . S
C548 O535 1.252 . S
C548 C549 1.497 . S
C549 C548 1.497 . S
C549 C550 1.395 . S
C549 C551 1.380 . S
C550 C549 1.395 . S
C550 C553 1.398 . S
C550 H560 0.930 . S
C551 C549 1.380 . S
C551 C552 1.391 1_545 S
C551 H561 0.930 . S
C552 C551 1.391 1_565 S
C552 C554 1.387 . S
C553 C550 1.398 . S
C553 C554 1.380 1_545 S
C553 H562 0.930 . S
C554 C552 1.387 . S
C554 C553 1.380 1_565 S
C554 H563 0.930 . S
C555 O532 1.254 . S
C555 O533 1.268 . S
H556 C541 0.930 . S
H557 C542 0.930 . S
H558 C544 0.930 . S
H559 C545 0.930 . S
H560 C550 0.930 . S
H561 C551 0.930 . S
H562 C553 0.930 . S
H563 C554 0.930 . S
Gd564 N595 2.661 . S
Gd564 N601 2.601 . S
Gd564 O608 2.545 . S
Gd564 O609 2.606 . S
Gd564 O611 2.429 . S
Gd564 O612 2.545 . S
Gd564 O613 2.412 . S
Gd564 O615 2.362 . S
Gd564 O616 2.324 . S
Gd564 C623 2.828 . S
Gd565 N574 2.661 . S
Gd565 N578 2.601 . S
Gd565 O609 2.362 . S
Gd565 O610 2.324 . S
Gd565 O614 2.545 . S
Gd565 O615 2.606 . S
Gd565 O617 2.429 . S
Gd565 O618 2.545 . S
Gd565 O619 2.412 . S
Gd565 C632 2.828 . S
C566 C569 1.417 . S
C566 C571 1.431 . S
C566 C572 1.412 . S
C567 C570 1.437 . S
C567 C571 1.317 . S
C567 H586 0.929 . S
C568 C569 1.426 . S
C568 C570 1.413 . S
C568 N578 1.359 . S
C569 C566 1.417 . S
C569 C568 1.426 . S
C569 N574 1.350 . S
C570 C567 1.437 . S
C570 C568 1.413 . S
C570 C580 1.391 . S
C571 C566 1.431 . S
C571 C567 1.317 . S
C571 H582 0.930 . S
C572 C566 1.412 . S
C572 C573 1.355 . S
C572 H584 0.930 . S
C573 C572 1.355 . S
C573 C575 1.402 . S
C573 H585 0.930 . S
N574 Gd565 2.661 . S
N574 C569 1.350 . S
N574 C575 1.307 . S
C575 C573 1.402 . S
C575 N574 1.307 . S
C575 H576 0.930 . S
H576 C575 0.930 . S
C577 N578 1.334 . S
C577 C579 1.394 . S
C577 H581 0.930 . S
N578 Gd565 2.601 . S
N578 C568 1.359 . S
N578 C577 1.334 . S
C579 C577 1.394 . S
C579 C580 1.359 . S
C579 H591 0.930 . S
C580 C570 1.391 . S
C580 C579 1.359 . S
C580 H592 0.929 . S
H581 C577 0.930 . S
H582 C571 0.930 . S
H583 C600 0.930 . S
H584 C572 0.930 . S
H585 C573 0.930 . S
H586 C567 0.929 . S
H587 C605 0.930 . S
H588 C596 0.930 . S
H589 C597 0.930 . S
H590 C621 0.929 . S
H591 C579 0.930 . S
H592 C580 0.929 . S
H593 C622 0.930 . S
H594 C603 0.930 . S
N595 Gd564 2.661 . S
N595 C599 1.350 . S
N595 C600 1.307 . S
C596 H588 0.930 . S
C596 C597 1.355 . S
C596 C598 1.412 . S
C597 H589 0.930 . S
C597 C596 1.355 . S
C597 C600 1.402 . S
C598 C596 1.412 . S
C598 C599 1.417 . S
C598 C622 1.431 . S
C599 N595 1.350 . S
C599 C598 1.417 . S
C599 C602 1.426 . S
C600 H583 0.930 . S
C600 N595 1.307 . S
C600 C597 1.402 . S
N601 Gd564 2.601 . S
N601 C602 1.359 . S
N601 C605 1.334 . S
C602 C599 1.426 . S
C602 N601 1.359 . S
C602 C606 1.413 . S
C603 H594 0.930 . S
C603 C604 1.359 . S
C603 C605 1.394 . S
C604 C603 1.359 . S
C604 C606 1.391 . S
C604 H607 0.929 . S
C605 H587 0.930 . S
C605 N601 1.334 . S
C605 C603 1.394 . S
C606 C602 1.413 . S
C606 C604 1.391 . S
C606 C621 1.437 . S
H607 C604 0.929 . S
O608 Gd564 2.545 . S
O608 C623 1.258 . S
O609 Gd564 2.606 . S
O609 Gd565 2.362 . S
O609 C620 1.284 . S
O610 Gd565 2.324 . S
O610 C630 1.254 . S
O611 Gd564 2.429 . S
O611 C630 1.268 . S
O612 Gd564 2.545 . S
O612 C620 1.250 . S
O613 Gd564 2.412 . S
O613 C623 1.252 . S
O614 Gd565 2.545 . S
O614 C632 1.258 . S
O615 Gd564 2.362 . S
O615 Gd565 2.606 . S
O615 C631 1.284 . S
O616 Gd564 2.324 . S
O616 C639 1.254 . S
O617 Gd565 2.429 . S
O617 C639 1.268 . S
O618 Gd565 2.545 . S
O618 C631 1.250 . S
O619 Gd565 2.412 . S
O619 C632 1.252 . S
C620 O609 1.284 . S
C620 O612 1.250 . S
C621 H590 0.929 . S
C621 C606 1.437 . S
C621 C622 1.317 . S
C622 H593 0.930 . S
C622 C598 1.431 . S
C622 C621 1.317 . S
C623 Gd564 2.828 . S
C623 O608 1.258 . S
C623 O613 1.252 . S
C623 C624 1.497 . S
C624 C623 1.497 . S
C624 C625 1.395 . S
C624 C626 1.380 . S
C625 C624 1.395 . S
C625 C628 1.398 . S
C625 H640 0.930 . S
C626 C624 1.380 . S
C626 C627 1.391 . S
C626 H641 0.930 . S
C627 C626 1.391 . S
C627 C629 1.387 . S
C628 C625 1.398 . S
C628 C629 1.380 . S
C628 H642 0.930 . S
C629 C627 1.387 . S
C629 C628 1.380 . S
C629 H643 0.930 . S
C630 O610 1.254 . S
C630 O611 1.268 . S
C631 O615 1.284 . S
C631 O618 1.250 . S
C632 Gd565 2.828 . S
C632 O614 1.258 . S
C632 O619 1.252 . S
C632 C633 1.497 . S
C633 C632 1.497 . S
C633 C634 1.395 . S
C633 C635 1.380 . S
C634 C633 1.395 . S
C634 C637 1.398 . S
C634 H644 0.930 . S
C635 C633 1.380 . S
C635 C636 1.391 . S
C635 H645 0.930 . S
C636 C635 1.391 . S
C636 C638 1.387 . S
C637 C634 1.398 . S
C637 C638 1.380 . S
C637 H646 0.930 . S
C638 C636 1.387 . S
C638 C637 1.380 . S
C638 H647 0.930 . S
C639 O616 1.254 . S
C639 O617 1.268 . S
H640 C625 0.930 . S
H641 C626 0.930 . S
H642 C628 0.930 . S
H643 C629 0.930 . S
H644 C634 0.930 . S
H645 C635 0.930 . S
H646 C637 0.930 . S
H647 C638 0.930 . S
Gd648 N679 2.661 1_545 S
Gd648 N685 2.596 1_545 S
Gd648 O692 2.545 1_545 S
Gd648 O693 2.606 . S
Gd648 O695 2.429 . S
Gd648 O696 2.545 . S
Gd648 O697 2.412 1_545 S
Gd648 O699 2.362 . S
Gd648 O700 2.324 . S
Gd648 C707 2.828 1_545 S
Gd649 N658 2.661 . S
Gd649 N662 2.601 . S
Gd649 O693 2.362 . S
Gd649 O694 2.324 . S
Gd649 O698 2.545 . S
Gd649 O699 2.606 . S
Gd649 O701 2.429 . S
Gd649 O702 2.545 . S
Gd649 O703 2.412 . S
Gd649 C716 2.828 . S
C650 C653 1.417 . S
C650 C655 1.431 . S
C650 C656 1.412 . S
C651 C654 1.437 . S
C651 C655 1.317 . S
C651 H670 0.929 . S
C652 C653 1.426 . S
C652 C654 1.413 . S
C652 N662 1.359 . S
C653 C650 1.417 . S
C653 C652 1.426 . S
C653 N658 1.350 . S
C654 C651 1.437 . S
C654 C652 1.413 . S
C654 C664 1.391 . S
C655 C650 1.431 . S
C655 C651 1.317 . S
C655 H666 0.930 . S
C656 C650 1.412 . S
C656 C657 1.355 . S
C656 H668 0.930 . S
C657 C656 1.355 . S
C657 C659 1.402 . S
C657 H669 0.930 . S
N658 Gd649 2.661 . S
N658 C653 1.350 . S
N658 C659 1.307 . S
C659 C657 1.402 . S
C659 N658 1.307 . S
C659 H660 0.930 . S
H660 C659 0.930 . S
C661 N662 1.334 . S
C661 C663 1.425 . S
C661 H665 0.930 . S
N662 Gd649 2.601 . S
N662 C652 1.359 . S
N662 C661 1.334 . S
C663 C661 1.425 . S
C663 C664 1.380 . S
C663 H675 0.880 1_455 S
C664 C654 1.391 . S
C664 C663 1.380 . S
C664 H676 0.929 . S
H665 C661 0.930 . S
H666 C655 0.930 . S
H667 C684 0.930 . S
H668 C656 0.930 . S
H669 C657 0.930 . S
H670 C651 0.929 . S
H671 C689 0.930 . S
H672 C680 0.931 . S
H673 C681 0.886 1_655 S
H674 C705 0.929 . S
H675 C663 0.880 1_655 S
H676 C664 0.929 . S
H677 C706 0.930 . S
H678 C687 0.930 . S
N679 Gd648 2.661 1_565 S
N679 C683 1.350 . S
N679 C684 1.307 . S
C680 H672 0.931 . S
C680 C681 1.378 . S
C680 C682 1.412 . S
C681 H673 0.886 1_455 S
C681 C680 1.378 . S
C681 C684 1.425 . S
C682 C680 1.412 . S
C682 C683 1.417 . S
C682 C706 1.431 . S
C683 N679 1.350 . S
C683 C682 1.417 . S
C683 C686 1.426 . S
C684 H667 0.930 . S
C684 N679 1.307 . S
C684 C681 1.425 . S
N685 Gd648 2.596 1_565 S
N685 C686 1.364 . S
N685 C689 1.337 1_565 S
C686 C683 1.426 . S
C686 N685 1.364 . S
C686 C690 1.413 . S
C687 H678 0.930 . S
C687 C688 1.359 . S
C687 C689 1.394 1_565 S
C688 C687 1.359 . S
C688 C690 1.391 . S
C688 H691 0.929 . S
C689 H671 0.930 . S
C689 N685 1.337 1_545 S
C689 C687 1.394 1_545 S
C690 C686 1.413 . S
C690 C688 1.391 . S
C690 C705 1.437 . S
H691 C688 0.929 . S
O692 Gd648 2.545 1_565 S
O692 C707 1.258 . S
O693 Gd648 2.606 . S
O693 Gd649 2.362 . S
O693 C704 1.284 . S
O694 Gd649 2.324 . S
O694 C714 1.254 . S
O695 Gd648 2.429 . S
O695 C714 1.268 . S
O696 Gd648 2.545 . S
O696 C704 1.250 . S
O697 Gd648 2.412 1_565 S
O697 C707 1.252 . S
O698 Gd649 2.545 . S
O698 C716 1.258 . S
O699 Gd648 2.362 . S
O699 Gd649 2.606 . S
O699 C715 1.284 . S
O700 Gd648 2.324 . S
O700 C723 1.254 . S
O701 Gd649 2.429 . S
O701 C723 1.268 . S
O702 Gd649 2.545 . S
O702 C715 1.250 . S
O703 Gd649 2.412 . S
O703 C716 1.252 . S
C704 O693 1.284 . S
C704 O696 1.250 . S
C705 H674 0.929 . S
C705 C690 1.437 . S
C705 C706 1.317 . S
C706 H677 0.930 . S
C706 C682 1.431 . S
C706 C705 1.317 . S
C707 Gd648 2.828 1_565 S
C707 O692 1.258 . S
C707 O697 1.252 . S
C707 C708 1.497 . S
C708 C707 1.497 . S
C708 C709 1.395 . S
C708 C710 1.380 . S
C709 C708 1.395 . S
C709 C712 1.398 . S
C709 H724 0.930 . S
C710 C708 1.380 . S
C710 C711 1.391 . S
C710 H725 0.930 . S
C711 C710 1.391 . S
C711 C713 1.387 . S
C712 C709 1.398 . S
C712 C713 1.380 . S
C712 H726 0.930 . S
C713 C711 1.387 . S
C713 C712 1.380 . S
C713 H727 0.930 . S
C714 O694 1.254 . S
C714 O695 1.268 . S
C715 O699 1.284 . S
C715 O702 1.250 . S
C716 Gd649 2.828 . S
C716 O698 1.258 . S
C716 O703 1.252 . S
C716 C717 1.497 . S
C717 C716 1.497 . S
C717 C718 1.395 . S
C717 C719 1.380 . S
C718 C717 1.395 . S
C718 C721 1.398 . S
C718 H728 0.930 . S
C719 C717 1.380 . S
C719 C720 1.391 . S
C719 H729 0.930 . S
C720 C719 1.391 . S
C720 C722 1.387 . S
C721 C718 1.398 . S
C721 C722 1.380 . S
C721 H730 0.930 . S
C722 C720 1.387 . S
C722 C721 1.380 . S
C722 H731 0.930 . S
C723 O700 1.254 . S
C723 O701 1.268 . S
H724 C709 0.930 . S
H725 C710 0.930 . S
H726 C712 0.930 . S
H727 C713 0.930 . S
H728 C718 0.930 . S
H729 C719 0.930 . S
H730 C721 0.930 . S
H731 C722 0.930 . S
Gd732 N763 2.661 . S
Gd732 N769 2.601 . S
Gd732 O776 2.545 . S
Gd732 O777 2.606 . S
Gd732 O779 2.429 . S
Gd732 O780 2.545 . S
Gd732 O781 2.412 . S
Gd732 O783 2.362 . S
Gd732 O784 2.324 . S
Gd732 C791 2.828 . S
Gd733 N742 2.661 . S
Gd733 N746 2.601 . S
Gd733 O777 2.362 . S
Gd733 O778 2.324 . S
Gd733 O782 2.545 . S
Gd733 O783 2.606 . S
Gd733 O785 2.429 . S
Gd733 O786 2.545 . S
Gd733 O787 2.412 . S
Gd733 C800 2.828 . S
C734 C737 1.417 . S
C734 C739 1.431 . S
C734 C740 1.412 . S
C735 C738 1.437 . S
C735 C739 1.317 . S
C735 H754 0.929 . S
C736 C737 1.426 . S
C736 C738 1.413 . S
C736 N746 1.359 . S
C737 C734 1.417 . S
C737 C736 1.426 . S
C737 N742 1.350 . S
C738 C735 1.437 . S
C738 C736 1.413 . S
C738 C748 1.391 . S
C739 C734 1.431 . S
C739 C735 1.317 . S
C739 H750 0.930 . S
C740 C734 1.412 . S
C740 C741 1.355 . S
C740 H752 0.930 . S
C741 C740 1.355 . S
C741 C743 1.402 . S
C741 H753 0.930 . S
N742 Gd733 2.661 . S
N742 C737 1.350 . S
N742 C743 1.307 . S
C743 C741 1.402 . S
C743 N742 1.307 . S
C743 H744 0.930 . S
H744 C743 0.930 . S
C745 N746 1.334 . S
C745 C747 1.394 . S
C745 H749 0.930 . S
N746 Gd733 2.601 . S
N746 C736 1.359 . S
N746 C745 1.334 . S
C747 C745 1.394 . S
C747 C748 1.359 . S
C747 H759 0.930 . S
C748 C738 1.391 . S
C748 C747 1.359 . S
C748 H760 0.929 . S
H749 C745 0.930 . S
H750 C739 0.930 . S
H751 C768 0.930 . S
H752 C740 0.930 . S
H753 C741 0.930 . S
H754 C735 0.929 . S
H755 C773 0.930 . S
H756 C764 0.930 . S
H757 C765 0.930 . S
H758 C789 0.929 . S
H759 C747 0.930 . S
H760 C748 0.929 . S
H761 C790 0.930 . S
H762 C771 0.930 . S
N763 Gd732 2.661 . S
N763 C767 1.350 . S
N763 C768 1.307 . S
C764 H756 0.930 . S
C764 C765 1.355 . S
C764 C766 1.412 . S
C765 H757 0.930 . S
C765 C764 1.355 . S
C765 C768 1.402 . S
C766 C764 1.412 . S
C766 C767 1.417 . S
C766 C790 1.431 . S
C767 N763 1.350 . S
C767 C766 1.417 . S
C767 C770 1.426 . S
C768 H751 0.930 . S
C768 N763 1.307 . S
C768 C765 1.402 . S
N769 Gd732 2.601 . S
N769 C770 1.359 . S
N769 C773 1.334 . S
C770 C767 1.426 . S
C770 N769 1.359 . S
C770 C774 1.413 . S
C771 H762 0.930 . S
C771 C772 1.359 . S
C771 C773 1.394 . S
C772 C771 1.359 . S
C772 C774 1.391 . S
C772 H775 0.929 . S
C773 H755 0.930 . S
C773 N769 1.334 . S
C773 C771 1.394 . S
C774 C770 1.413 . S
C774 C772 1.391 . S
C774 C789 1.437 . S
H775 C772 0.929 . S
O776 Gd732 2.545 . S
O776 C791 1.258 . S
O777 Gd732 2.606 . S
O777 Gd733 2.362 . S
O777 C788 1.284 . S
O778 Gd733 2.324 . S
O778 C798 1.254 . S
O779 Gd732 2.429 . S
O779 C798 1.268 . S
O780 Gd732 2.545 . S
O780 C788 1.250 . S
O781 Gd732 2.412 . S
O781 C791 1.252 . S
O782 Gd733 2.545 . S
O782 C800 1.258 . S
O783 Gd732 2.362 . S
O783 Gd733 2.606 . S
O783 C799 1.284 . S
O784 Gd732 2.324 . S
O784 C807 1.254 . S
O785 Gd733 2.429 . S
O785 C807 1.268 . S
O786 Gd733 2.545 . S
O786 C799 1.250 . S
O787 Gd733 2.412 . S
O787 C800 1.252 . S
C788 O777 1.284 . S
C788 O780 1.250 . S
C789 H758 0.929 . S
C789 C774 1.437 . S
C789 C790 1.317 . S
C790 H761 0.930 . S
C790 C766 1.431 . S
C790 C789 1.317 . S
C791 Gd732 2.828 . S
C791 O776 1.258 . S
C791 O781 1.252 . S
C791 C792 1.497 . S
C792 C791 1.497 . S
C792 C793 1.395 . S
C792 C794 1.380 . S
C793 C792 1.395 . S
C793 C796 1.398 . S
C793 H808 0.930 . S
C794 C792 1.380 . S
C794 C795 1.391 . S
C794 H809 0.930 . S
C795 C794 1.391 . S
C795 C797 1.387 . S
C796 C793 1.398 . S
C796 C797 1.380 . S
C796 H810 0.930 . S
C797 C795 1.387 . S
C797 C796 1.380 . S
C797 H811 0.930 . S
C798 O778 1.254 . S
C798 O779 1.268 . S
C799 O783 1.284 . S
C799 O786 1.250 . S
C800 Gd733 2.828 . S
C800 O782 1.258 . S
C800 O787 1.252 . S
C800 C801 1.497 . S
C801 C800 1.497 . S
C801 C802 1.395 . S
C801 C803 1.380 . S
C802 C801 1.395 . S
C802 C805 1.398 . S
C802 H812 0.930 . S
C803 C801 1.380 . S
C803 C804 1.391 . S
C803 H813 0.930 . S
C804 C803 1.391 . S
C804 C806 1.387 . S
C805 C802 1.398 . S
C805 C806 1.380 . S
C805 H814 0.930 . S
C806 C804 1.387 . S
C806 C805 1.380 . S
C806 H815 0.930 . S
C807 O784 1.254 . S
C807 O785 1.268 . S
H808 C793 0.930 . S
H809 C794 0.930 . S
H810 C796 0.930 . S
H811 C797 0.930 . S
H812 C802 0.930 . S
H813 C803 0.930 . S
H814 C805 0.930 . S
H815 C806 0.930 . S
Gd816 N847 2.661 . S
Gd816 N853 2.601 . S
Gd816 O860 2.545 . S
Gd816 O861 2.606 1_556 S
Gd816 O863 2.429 1_556 S
Gd816 O864 2.545 1_556 S
Gd816 O865 2.412 . S
Gd816 O867 2.362 1_556 S
Gd816 O868 2.324 . S
Gd816 C875 2.828 . S
Gd817 N826 2.661 . S
Gd817 N830 2.601 . S
Gd817 O861 2.362 . S
Gd817 O862 2.324 . S
Gd817 O866 2.590 . S
Gd817 O867 2.606 . S
Gd817 O869 2.429 1_545 S
Gd817 O870 2.545 . S
Gd817 O871 2.412 . S
Gd817 C884 2.828 . S
C818 C821 1.417 . S
C818 C823 1.431 . S
C818 C824 1.412 . S
C819 C822 1.437 . S
C819 C823 1.317 . S
C819 H838 0.929 . S
C820 C821 1.426 . S
C820 C822 1.413 . S
C820 N830 1.359 . S
C821 C818 1.417 . S
C821 C820 1.426 . S
C821 N826 1.350 . S
C822 C819 1.437 . S
C822 C820 1.413 . S
C822 C832 1.391 1_545 S
C823 C818 1.431 . S
C823 C819 1.317 . S
C823 H834 0.930 . S
C824 C818 1.412 . S
C824 C825 1.355 . S
C824 H836 0.930 . S
C825 C824 1.355 . S
C825 C827 1.402 . S
C825 H837 0.930 . S
N826 Gd817 2.661 . S
N826 C821 1.350 . S
N826 C827 1.307 . S
C827 C825 1.402 . S
C827 N826 1.307 . S
C827 H828 0.930 . S
H828 C827 0.930 . S
C829 N830 1.334 1_565 S
C829 C831 1.394 . S
C829 H833 0.930 . S
N830 Gd817 2.601 . S
N830 C820 1.359 . S
N830 C829 1.334 1_545 S
C831 C829 1.394 . S
C831 C832 1.359 . S
C831 H843 0.930 . S
C832 C822 1.391 1_565 S
C832 C831 1.359 . S
C832 H844 0.929 . S
H833 C829 0.930 . S
H834 C823 0.930 . S
H835 C852 0.930 . S
H836 C824 0.930 . S
H837 C825 0.930 . S
H838 C819 0.929 . S
H839 C857 0.930 . S
H840 C848 0.930 . S
H841 C849 0.930 . S
H842 C873 0.929 . S
H843 C831 0.930 . S
H844 C832 0.929 . S
H845 C874 0.930 . S
H846 C855 0.930 . S
N847 Gd816 2.661 . S
N847 C851 1.350 . S
N847 C852 1.307 1_545 S
C848 H840 0.930 . S
C848 C849 1.355 . S
C848 C850 1.412 1_565 S
C849 H841 0.930 . S
C849 C848 1.355 . S
C849 C852 1.402 . S
C850 C848 1.412 1_545 S
C850 C851 1.417 . S
C850 C874 1.431 . S
C851 N847 1.350 . S
C851 C850 1.417 . S
C851 C854 1.426 . S
C852 H835 0.930 . S
C852 N847 1.307 1_565 S
C852 C849 1.402 . S
N853 Gd816 2.601 . S
N853 C854 1.359 . S
N853 C857 1.334 . S
C854 C851 1.426 . S
C854 N853 1.359 . S
C854 C858 1.413 . S
C855 H846 0.930 . S
C855 C856 1.359 . S
C855 C857 1.394 . S
C856 C855 1.359 . S
C856 C858 1.391 . S
C856 H859 0.929 . S
C857 H839 0.930 . S
C857 N853 1.334 . S
C857 C855 1.394 . S
C858 C854 1.413 . S
C858 C856 1.391 . S
C858 C873 1.437 . S
H859 C856 0.929 . S
O860 Gd816 2.545 . S
O860 C875 1.258 . S
O861 Gd816 2.606 1_554 S
O861 Gd817 2.362 . S
O861 C872 1.284 . S
O862 Gd817 2.324 . S
O862 C882 1.254 . S
O863 Gd816 2.429 1_554 S
O863 C882 1.268 . S
O864 Gd816 2.545 1_554 S
O864 C872 1.250 . S
O865 Gd816 2.412 . S
O865 C875 1.252 . S
O866 Gd817 2.590 . S
O866 C884 1.302 . S
O867 Gd816 2.362 1_554 S
O867 Gd817 2.606 . S
O867 C883 1.284 . S
O868 Gd816 2.324 . S
O868 C891 1.248 1_546 S
O869 Gd817 2.429 1_565 S
O869 C891 1.269 . S
O870 Gd817 2.545 . S
O870 C883 1.250 . S
O871 Gd817 2.412 . S
O871 C884 1.252 . S
C872 O861 1.284 . S
C872 O864 1.250 . S
C873 H842 0.929 . S
C873 C858 1.437 . S
C873 C874 1.317 . S
C874 H845 0.930 . S
C874 C850 1.431 . S
C874 C873 1.317 . S
C875 Gd816 2.828 . S
C875 O860 1.258 . S
C875 O865 1.252 . S
C875 C876 1.497 . S
C876 C875 1.497 . S
C876 C877 1.395 . S
C876 C878 1.380 . S
C877 C876 1.395 . S
C877 C880 1.398 . S
C877 H892 0.930 . S
C878 C876 1.380 . S
C878 C879 1.391 . S
C878 H893 0.930 . S
C879 C878 1.391 . S
C879 C881 1.387 . S
C880 C877 1.398 . S
C880 C881 1.380 . S
C880 H894 0.930 . S
C881 C879 1.387 . S
C881 C880 1.380 . S
C881 H895 0.930 . S
C882 O862 1.254 . S
C882 O863 1.268 . S
C883 O867 1.284 . S
C883 O870 1.250 . S
C884 Gd817 2.828 . S
C884 O866 1.302 . S
C884 O871 1.252 . S
C884 C885 1.497 . S
C885 C884 1.497 . S
C885 C886 1.395 1_545 S
C885 C887 1.380 . S
C886 C885 1.395 1_565 S
C886 C889 1.398 . S
C886 H896 0.930 . S
C887 C885 1.380 . S
C887 C888 1.391 . S
C887 H897 0.930 . S
C888 C887 1.391 . S
C888 C890 1.387 . S
C889 C886 1.398 . S
C889 C890 1.380 1_565 S
C889 H898 0.930 . S
C890 C888 1.387 . S
C890 C889 1.380 1_545 S
C890 H899 0.917 1_545 S
C891 O868 1.248 1_564 S
C891 O869 1.269 . S
H892 C877 0.930 . S
H893 C878 0.930 . S
H894 C880 0.930 . S
H895 C881 0.930 . S
H896 C886 0.930 . S
H897 C887 0.930 . S
H898 C889 0.930 . S
H899 C890 0.917 1_565 S
Gd900 N931 2.661 . S
Gd900 N937 2.601 . S
Gd900 O944 2.545 . S
Gd900 O945 2.606 . S
Gd900 O947 2.429 . S
Gd900 O948 2.545 . S
Gd900 O949 2.412 . S
Gd900 O951 2.362 . S
Gd900 O952 2.324 . S
Gd900 C959 2.828 . S
Gd901 N910 2.661 . S
Gd901 N914 2.601 . S
Gd901 O945 2.362 . S
Gd901 O946 2.324 . S
Gd901 O950 2.545 . S
Gd901 O951 2.606 . S
Gd901 O953 2.429 . S
Gd901 O954 2.545 . S
Gd901 O955 2.412 . S
Gd901 C968 2.828 . S
C902 C905 1.417 . S
C902 C907 1.431 . S
C902 C908 1.412 . S
C903 C906 1.437 . S
C903 C907 1.317 . S
C903 H922 0.929 . S
C904 C905 1.426 . S
C904 C906 1.413 . S
C904 N914 1.359 . S
C905 C902 1.417 . S
C905 C904 1.426 . S
C905 N910 1.350 . S
C906 C903 1.437 . S
C906 C904 1.413 . S
C906 C916 1.391 . S
C907 C902 1.431 . S
C907 C903 1.317 . S
C907 H918 0.930 . S
C908 C902 1.412 . S
C908 C909 1.355 . S
C908 H920 0.930 . S
C909 C908 1.355 . S
C909 C911 1.402 . S
C909 H921 0.930 . S
N910 Gd901 2.661 . S
N910 C905 1.350 . S
N910 C911 1.307 . S
C911 C909 1.402 . S
C911 N910 1.307 . S
C911 H912 0.930 . S
H912 C911 0.930 . S
C913 N914 1.334 . S
C913 C915 1.394 . S
C913 H917 0.930 . S
N914 Gd901 2.601 . S
N914 C904 1.359 . S
N914 C913 1.334 . S
C915 C913 1.394 . S
C915 C916 1.359 . S
C915 H927 0.930 . S
C916 C906 1.391 . S
C916 C915 1.359 . S
C916 H928 0.929 . S
H917 C913 0.930 . S
H918 C907 0.930 . S
H919 C936 0.930 . S
H920 C908 0.930 . S
H921 C909 0.930 . S
H922 C903 0.929 . S
H923 C941 0.930 . S
H924 C932 0.930 . S
H925 C933 0.930 . S
H926 C957 0.929 . S
H927 C915 0.930 . S
H928 C916 0.929 . S
H929 C958 0.930 . S
H930 C939 0.930 . S
N931 Gd900 2.661 . S
N931 C935 1.350 . S
N931 C936 1.307 . S
C932 H924 0.930 . S
C932 C933 1.355 . S
C932 C934 1.412 . S
C933 H925 0.930 . S
C933 C932 1.355 . S
C933 C936 1.402 . S
C934 C932 1.412 . S
C934 C935 1.417 . S
C934 C958 1.431 . S
C935 N931 1.350 . S
C935 C934 1.417 . S
C935 C938 1.426 . S
C936 H919 0.930 . S
C936 N931 1.307 . S
C936 C933 1.402 . S
N937 Gd900 2.601 . S
N937 C938 1.359 . S
N937 C941 1.334 . S
C938 C935 1.426 . S
C938 N937 1.359 . S
C938 C942 1.413 . S
C939 H930 0.930 . S
C939 C940 1.359 . S
C939 C941 1.394 . S
C940 C939 1.359 . S
C940 C942 1.391 . S
C940 H943 0.929 . S
C941 H923 0.930 . S
C941 N937 1.334 . S
C941 C939 1.394 . S
C942 C938 1.413 . S
C942 C940 1.391 . S
C942 C957 1.437 . S
H943 C940 0.929 . S
O944 Gd900 2.545 . S
O944 C959 1.258 . S
O945 Gd900 2.606 . S
O945 Gd901 2.362 . S
O945 C956 1.284 . S
O946 Gd901 2.324 . S
O946 C966 1.254 . S
O947 Gd900 2.429 . S
O947 C966 1.268 . S
O948 Gd900 2.545 . S
O948 C956 1.250 . S
O949 Gd900 2.412 . S
O949 C959 1.252 . S
O950 Gd901 2.545 . S
O950 C968 1.258 . S
O951 Gd900 2.362 . S
O951 Gd901 2.606 . S
O951 C967 1.284 . S
O952 Gd900 2.324 . S
O952 C975 1.254 . S
O953 Gd901 2.429 . S
O953 C975 1.268 . S
O954 Gd901 2.545 . S
O954 C967 1.250 . S
O955 Gd901 2.412 . S
O955 C968 1.252 . S
C956 O945 1.284 . S
C956 O948 1.250 . S
C957 H926 0.929 . S
C957 C942 1.437 . S
C957 C958 1.317 . S
C958 H929 0.930 . S
C958 C934 1.431 . S
C958 C957 1.317 . S
C959 Gd900 2.828 . S
C959 O944 1.258 . S
C959 O949 1.252 . S
C959 C960 1.497 . S
C960 C959 1.497 . S
C960 C961 1.395 . S
C960 C962 1.380 . S
C961 C960 1.395 . S
C961 C964 1.398 . S
C961 H976 0.930 . S
C962 C960 1.380 . S
C962 C963 1.391 . S
C962 H977 0.930 . S
C963 C962 1.391 . S
C963 C965 1.387 . S
C964 C961 1.398 . S
C964 C965 1.380 . S
C964 H978 0.930 . S
C965 C963 1.387 . S
C965 C964 1.380 . S
C965 H979 0.930 . S
C966 O946 1.254 . S
C966 O947 1.268 . S
C967 O951 1.284 . S
C967 O954 1.250 . S
C968 Gd901 2.828 . S
C968 O950 1.258 . S
C968 O955 1.252 . S
C968 C969 1.497 . S
C969 C968 1.497 . S
C969 C970 1.395 . S
C969 C971 1.380 . S
C970 C969 1.395 . S
C970 C973 1.398 . S
C970 H980 0.930 . S
C971 C969 1.380 . S
C971 C972 1.391 . S
C971 H981 0.930 . S
C972 C971 1.391 . S
C972 C974 1.387 . S
C973 C970 1.398 . S
C973 C974 1.380 . S
C973 H982 0.930 . S
C974 C972 1.387 . S
C974 C973 1.380 . S
C974 H983 0.930 . S
C975 O952 1.254 . S
C975 O953 1.268 . S
H976 C961 0.930 . S
H977 C962 0.930 . S
H978 C964 0.930 . S
H979 C965 0.930 . S
H980 C970 0.930 . S
H981 C971 0.930 . S
H982 C973 0.930 . S
H983 C974 0.930 . S
Gd984 N1015 2.661 1_554 S
Gd984 N1021 2.601 1_554 S
Gd984 O1028 2.545 . S
Gd984 O1029 2.606 . S
Gd984 O1031 2.429 . S
Gd984 O1032 2.545 . S
Gd984 O1033 2.412 . S
Gd984 O1035 2.352 1_554 S
Gd984 O1036 2.324 . S
Gd984 C1043 2.828 . S
Gd985 N994 2.661 . S
Gd985 N998 2.601 . S
Gd985 O1029 2.362 . S
Gd985 O1030 2.324 . S
Gd985 O1034 2.545 . S
Gd985 O1035 2.593 1_554 S
Gd985 O1037 2.429 . S
Gd985 O1038 2.545 1_554 S
Gd985 O1039 2.412 . S
Gd985 C1052 2.828 . S
C986 C989 1.417 . S
C986 C991 1.431 . S
C986 C992 1.412 . S
C987 C990 1.437 . S
C987 C991 1.317 . S
C987 H1006 0.929 . S
C988 C989 1.426 . S
C988 C990 1.413 . S
C988 N998 1.359 . S
C989 C986 1.417 . S
C989 C988 1.426 . S
C989 N994 1.350 . S
C990 C987 1.437 . S
C990 C988 1.413 . S
C990 C1000 1.391 . S
C991 C986 1.431 . S
C991 C987 1.317 . S
C991 H1002 0.930 . S
C992 C986 1.412 . S
C992 C993 1.355 . S
C992 H1004 0.930 . S
C993 C992 1.355 . S
C993 C995 1.402 . S
C993 H1005 0.930 . S
N994 Gd985 2.661 . S
N994 C989 1.350 . S
N994 C995 1.307 . S
C995 C993 1.402 . S
C995 N994 1.307 . S
C995 H996 0.930 . S
H996 C995 0.930 . S
C997 N998 1.334 . S
C997 C999 1.394 . S
C997 H1001 0.930 . S
N998 Gd985 2.601 . S
N998 C988 1.359 . S
N998 C997 1.334 . S
C999 C997 1.394 . S
C999 C1000 1.359 . S
C999 H1011 0.930 . S
C1000 C990 1.391 . S
C1000 C999 1.359 . S
C1000 H1012 0.929 . S
H1001 C997 0.930 . S
H1002 C991 0.930 . S
H1003 C1020 0.930 . S
H1004 C992 0.930 . S
H1005 C993 0.930 . S
H1006 C987 0.929 . S
H1007 C1025 0.930 . S
H1008 C1016 0.930 . S
H1009 C1017 0.930 . S
H1010 C1041 0.929 . S
H1011 C999 0.930 . S
H1012 C1000 0.929 . S
H1013 C1042 0.930 . S
H1014 C1023 0.930 . S
N1015 Gd984 2.661 1_556 S
N1015 C1019 1.350 . S
N1015 C1020 1.307 . S
C1016 H1008 0.930 . S
C1016 C1017 1.355 . S
C1016 C1018 1.412 . S
C1017 H1009 0.930 . S
C1017 C1016 1.355 . S
C1017 C1020 1.402 . S
C1018 C1016 1.412 . S
C1018 C1019 1.417 . S
C1018 C1042 1.431 . S
C1019 N1015 1.350 . S
C1019 C1018 1.417 . S
C1019 C1022 1.426 . S
C1020 H1003 0.930 . S
C1020 N1015 1.307 . S
C1020 C1017 1.402 . S
N1021 Gd984 2.601 1_556 S
N1021 C1022 1.359 . S
N1021 C1025 1.334 . S
C1022 C1019 1.426 . S
C1022 N1021 1.359 . S
C1022 C1026 1.413 . S
C1023 H1014 0.930 . S
C1023 C1024 1.359 . S
C1023 C1025 1.394 . S
C1024 C1023 1.359 . S
C1024 C1026 1.391 . S
C1024 H1027 0.929 . S
C1025 H1007 0.930 . S
C1025 N1021 1.334 . S
C1025 C1023 1.394 . S
C1026 C1022 1.413 . S
C1026 C1024 1.391 . S
C1026 C1041 1.437 . S
H1027 C1024 0.929 . S
O1028 Gd984 2.545 . S
O1028 C1043 1.258 . S
O1029 Gd984 2.606 . S
O1029 Gd985 2.362 . S
O1029 C1040 1.284 . S
O1030 Gd985 2.324 . S
O1030 C1050 1.254 . S
O1031 Gd984 2.429 . S
O1031 C1050 1.268 . S
O1032 Gd984 2.545 . S
O1032 C1040 1.250 . S
O1033 Gd984 2.412 . S
O1033 C1043 1.252 . S
O1034 Gd985 2.545 . S
O1034 C1052 1.258 . S
O1035 Gd984 2.352 1_556 S
O1035 Gd985 2.593 1_556 S
O1035 C1051 1.299 . S
O1036 Gd984 2.324 . S
O1036 C1059 1.254 . S
O1037 Gd985 2.429 . S
O1037 C1059 1.268 . S
O1038 Gd985 2.545 1_556 S
O1038 C1051 1.250 . S
O1039 Gd985 2.412 . S
O1039 C1052 1.252 . S
C1040 O1029 1.284 . S
C1040 O1032 1.250 . S
C1041 H1010 0.929 . S
C1041 C1026 1.437 . S
C1041 C1042 1.317 . S
C1042 H1013 0.930 . S
C1042 C1018 1.431 . S
C1042 C1041 1.317 . S
C1043 Gd984 2.828 . S
C1043 O1028 1.258 . S
C1043 O1033 1.252 . S
C1043 C1044 1.497 . S
C1044 C1043 1.497 . S
C1044 C1045 1.395 . S
C1044 C1046 1.380 . S
C1045 C1044 1.395 . S
C1045 C1048 1.398 . S
C1045 H1060 0.930 . S
C1046 C1044 1.380 . S
C1046 C1047 1.391 . S
C1046 H1061 0.930 . S
C1047 C1046 1.391 . S
C1047 C1049 1.387 . S
C1048 C1045 1.398 . S
C1048 C1049 1.380 . S
C1048 H1062 0.930 . S
C1049 C1047 1.387 . S
C1049 C1048 1.380 . S
C1049 H1063 0.930 . S
C1050 O1030 1.254 . S
C1050 O1031 1.268 . S
C1051 O1035 1.299 . S
C1051 O1038 1.250 . S
C1052 Gd985 2.828 . S
C1052 O1034 1.258 . S
C1052 O1039 1.252 . S
C1052 C1053 1.497 . S
C1053 C1052 1.497 . S
C1053 C1054 1.395 . S
C1053 C1055 1.380 . S
C1054 C1053 1.395 . S
C1054 C1057 1.398 . S
C1054 H1064 0.930 . S
C1055 C1053 1.380 . S
C1055 C1056 1.391 . S
C1055 H1065 0.930 . S
C1056 C1055 1.391 . S
C1056 C1058 1.387 . S
C1057 C1054 1.398 . S
C1057 C1058 1.380 . S
C1057 H1066 0.930 . S
C1058 C1056 1.387 . S
C1058 C1057 1.380 . S
C1058 H1067 0.930 . S
C1059 O1036 1.254 . S
C1059 O1037 1.268 . S
H1060 C1045 0.930 . S
H1061 C1046 0.930 . S
H1062 C1048 0.930 . S
H1063 C1049 0.930 . S
H1064 C1054 0.930 . S
H1065 C1055 0.930 . S
H1066 C1057 0.930 . S
H1067 C1058 0.930 . S
Gd1068 N1099 2.661 . S
Gd1068 N1105 2.601 . S
Gd1068 O1112 2.545 . S
Gd1068 O1113 2.606 . S
Gd1068 O1115 2.429 . S
Gd1068 O1116 2.545 . S
Gd1068 O1117 2.412 . S
Gd1068 O1119 2.362 . S
Gd1068 O1120 2.324 . S
Gd1068 C1127 2.828 . S
Gd1069 N1078 2.661 . S
Gd1069 N1082 2.601 . S
Gd1069 O1113 2.362 . S
Gd1069 O1114 2.324 . S
Gd1069 O1118 2.545 . S
Gd1069 O1119 2.606 . S
Gd1069 O1121 2.429 . S
Gd1069 O1122 2.545 . S
Gd1069 O1123 2.412 . S
Gd1069 C1136 2.828 . S
C1070 C1073 1.417 . S
C1070 C1075 1.431 . S
C1070 C1076 1.412 . S
C1071 C1074 1.437 . S
C1071 C1075 1.317 . S
C1071 H1090 0.929 . S
C1072 C1073 1.426 . S
C1072 C1074 1.413 . S
C1072 N1082 1.359 . S
C1073 C1070 1.417 . S
C1073 C1072 1.426 . S
C1073 N1078 1.350 . S
C1074 C1071 1.437 . S
C1074 C1072 1.413 . S
C1074 C1084 1.391 . S
C1075 C1070 1.431 . S
C1075 C1071 1.317 . S
C1075 H1086 0.930 . S
C1076 C1070 1.412 . S
C1076 C1077 1.355 . S
C1076 H1088 0.930 . S
C1077 C1076 1.355 . S
C1077 C1079 1.402 . S
C1077 H1089 0.930 . S
N1078 Gd1069 2.661 . S
N1078 C1073 1.350 . S
N1078 C1079 1.307 . S
C1079 C1077 1.402 . S
C1079 N1078 1.307 . S
C1079 H1080 0.930 . S
H1080 C1079 0.930 . S
C1081 N1082 1.334 . S
C1081 C1083 1.394 . S
C1081 H1085 0.930 . S
N1082 Gd1069 2.601 . S
N1082 C1072 1.359 . S
N1082 C1081 1.334 . S
C1083 C1081 1.394 . S
C1083 C1084 1.359 . S
C1083 H1095 0.930 . S
C1084 C1074 1.391 . S
C1084 C1083 1.359 . S
C1084 H1096 0.929 . S
H1085 C1081 0.930 . S
H1086 C1075 0.930 . S
H1087 C1104 0.930 . S
H1088 C1076 0.930 . S
H1089 C1077 0.930 . S
H1090 C1071 0.929 . S
H1091 C1109 0.930 . S
H1092 C1100 0.930 . S
H1093 C1101 0.930 . S
H1094 C1125 0.929 . S
H1095 C1083 0.930 . S
H1096 C1084 0.929 . S
H1097 C1126 0.930 . S
H1098 C1107 0.930 . S
N1099 Gd1068 2.661 . S
N1099 C1103 1.350 . S
N1099 C1104 1.307 . S
C1100 H1092 0.930 . S
C1100 C1101 1.355 . S
C1100 C1102 1.412 . S
C1101 H1093 0.930 . S
C1101 C1100 1.355 . S
C1101 C1104 1.402 . S
C1102 C1100 1.412 . S
C1102 C1103 1.417 . S
C1102 C1126 1.431 . S
C1103 N1099 1.350 . S
C1103 C1102 1.417 . S
C1103 C1106 1.426 . S
C1104 H1087 0.930 . S
C1104 N1099 1.307 . S
C1104 C1101 1.402 . S
N1105 Gd1068 2.601 . S
N1105 C1106 1.359 . S
N1105 C1109 1.334 . S
C1106 C1103 1.426 . S
C1106 N1105 1.359 . S
C1106 C1110 1.413 . S
C1107 H1098 0.930 . S
C1107 C1108 1.359 . S
C1107 C1109 1.394 . S
C1108 C1107 1.359 . S
C1108 C1110 1.391 . S
C1108 H1111 0.929 . S
C1109 H1091 0.930 . S
C1109 N1105 1.334 . S
C1109 C1107 1.394 . S
C1110 C1106 1.413 . S
C1110 C1108 1.391 . S
C1110 C1125 1.437 . S
H1111 C1108 0.929 . S
O1112 Gd1068 2.545 . S
O1112 C1127 1.258 . S
O1113 Gd1068 2.606 . S
O1113 Gd1069 2.362 . S
O1113 C1124 1.284 . S
O1114 Gd1069 2.324 . S
O1114 C1134 1.254 . S
O1115 Gd1068 2.429 . S
O1115 C1134 1.268 . S
O1116 Gd1068 2.545 . S
O1116 C1124 1.250 . S
O1117 Gd1068 2.412 . S
O1117 C1127 1.252 . S
O1118 Gd1069 2.545 . S
O1118 C1136 1.258 . S
O1119 Gd1068 2.362 . S
O1119 Gd1069 2.606 . S
O1119 C1135 1.284 . S
O1120 Gd1068 2.324 . S
O1120 C1143 1.254 . S
O1121 Gd1069 2.429 . S
O1121 C1143 1.268 . S
O1122 Gd1069 2.545 . S
O1122 C1135 1.250 . S
O1123 Gd1069 2.412 . S
O1123 C1136 1.252 . S
C1124 O1113 1.284 . S
C1124 O1116 1.250 . S
C1125 H1094 0.929 . S
C1125 C1110 1.437 . S
C1125 C1126 1.317 . S
C1126 H1097 0.930 . S
C1126 C1102 1.431 . S
C1126 C1125 1.317 . S
C1127 Gd1068 2.828 . S
C1127 O1112 1.258 . S
C1127 O1117 1.252 . S
C1127 C1128 1.497 . S
C1128 C1127 1.497 . S
C1128 C1129 1.395 . S
C1128 C1130 1.380 . S
C1129 C1128 1.395 . S
C1129 C1132 1.398 . S
C1129 H1144 0.930 . S
C1130 C1128 1.380 . S
C1130 C1131 1.391 . S
C1130 H1145 0.930 . S
C1131 C1130 1.391 . S
C1131 C1133 1.387 . S
C1132 C1129 1.398 . S
C1132 C1133 1.380 . S
C1132 H1146 0.930 . S
C1133 C1131 1.387 . S
C1133 C1132 1.380 . S
C1133 H1147 0.930 . S
C1134 O1114 1.254 . S
C1134 O1115 1.268 . S
C1135 O1119 1.284 . S
C1135 O1122 1.250 . S
C1136 Gd1069 2.828 . S
C1136 O1118 1.258 . S
C1136 O1123 1.252 . S
C1136 C1137 1.497 . S
C1137 C1136 1.497 . S
C1137 C1138 1.395 . S
C1137 C1139 1.380 . S
C1138 C1137 1.395 . S
C1138 C1141 1.398 . S
C1138 H1148 0.930 . S
C1139 C1137 1.380 . S
C1139 C1140 1.391 . S
C1139 H1149 0.930 . S
C1140 C1139 1.391 . S
C1140 C1142 1.387 . S
C1141 C1138 1.398 . S
C1141 C1142 1.380 . S
C1141 H1150 0.930 . S
C1142 C1140 1.387 . S
C1142 C1141 1.380 . S
C1142 H1151 0.930 . S
C1143 O1120 1.254 . S
C1143 O1121 1.268 . S
H1144 C1129 0.930 . S
H1145 C1130 0.930 . S
H1146 C1132 0.930 . S
H1147 C1133 0.930 . S
H1148 C1138 0.930 . S
H1149 C1139 0.930 . S
H1150 C1141 0.930 . S
H1151 C1142 0.930 . S
Gd1152 N1183 2.661 . S
Gd1152 N1189 2.601 . S
Gd1152 O1196 2.545 . S
Gd1152 O1197 2.606 . S
Gd1152 O1199 2.429 . S
Gd1152 O1200 2.545 . S
Gd1152 O1201 2.412 . S
Gd1152 O1203 2.362 . S
Gd1152 O1204 2.324 . S
Gd1152 C1211 2.828 . S
Gd1153 N1162 2.661 . S
Gd1153 N1166 2.601 . S
Gd1153 O1197 2.362 . S
Gd1153 O1198 2.324 . S
Gd1153 O1202 2.545 . S
Gd1153 O1203 2.606 . S
Gd1153 O1205 2.429 . S
Gd1153 O1206 2.545 . S
Gd1153 O1207 2.412 . S
Gd1153 C1220 2.828 . S
C1154 C1157 1.417 . S
C1154 C1159 1.431 . S
C1154 C1160 1.412 . S
C1155 C1158 1.437 . S
C1155 C1159 1.317 . S
C1155 H1174 0.929 . S
C1156 C1157 1.426 . S
C1156 C1158 1.413 . S
C1156 N1166 1.359 . S
C1157 C1154 1.417 . S
C1157 C1156 1.426 . S
C1157 N1162 1.350 . S
C1158 C1155 1.437 . S
C1158 C1156 1.413 . S
C1158 C1168 1.391 . S
C1159 C1154 1.431 . S
C1159 C1155 1.317 . S
C1159 H1170 0.930 . S
C1160 C1154 1.412 . S
C1160 C1161 1.355 . S
C1160 H1172 0.930 . S
C1161 C1160 1.355 . S
C1161 C1163 1.402 . S
C1161 H1173 0.930 . S
N1162 Gd1153 2.661 . S
N1162 C1157 1.350 . S
N1162 C1163 1.307 . S
C1163 C1161 1.402 . S
C1163 N1162 1.307 . S
C1163 H1164 0.930 . S
H1164 C1163 0.930 . S
C1165 N1166 1.334 . S
C1165 C1167 1.394 . S
C1165 H1169 0.930 . S
N1166 Gd1153 2.601 . S
N1166 C1156 1.359 . S
N1166 C1165 1.334 . S
C1167 C1165 1.394 . S
C1167 C1168 1.359 . S
C1167 H1179 0.930 . S
C1168 C1158 1.391 . S
C1168 C1167 1.359 . S
C1168 H1180 0.929 . S
H1169 C1165 0.930 . S
H1170 C1159 0.930 . S
H1171 C1188 0.930 . S
H1172 C1160 0.930 . S
H1173 C1161 0.930 . S
H1174 C1155 0.929 . S
H1175 C1193 0.930 . S
H1176 C1184 0.930 . S
H1177 C1185 0.922 . S
H1178 C1209 0.929 . S
H1179 C1167 0.930 . S
H1180 C1168 0.929 . S
H1181 C1210 0.930 . S
H1182 C1191 0.930 . S
N1183 Gd1152 2.661 . S
N1183 C1187 1.350 . S
N1183 C1188 1.307 . S
C1184 H1176 0.930 . S
C1184 C1185 1.355 1_655 S
C1184 C1186 1.412 . S
C1185 H1177 0.922 . S
C1185 C1184 1.355 1_455 S
C1185 C1188 1.402 . S
C1186 C1184 1.412 . S
C1186 C1187 1.417 1_655 S
C1186 C1210 1.431 . S
C1187 N1183 1.350 . S
C1187 C1186 1.417 1_455 S
C1187 C1190 1.426 . S
C1188 H1171 0.930 . S
C1188 N1183 1.307 . S
C1188 C1185 1.402 . S
N1189 Gd1152 2.601 . S
N1189 C1190 1.359 . S
N1189 C1193 1.334 . S
C1190 C1187 1.426 . S
C1190 N1189 1.359 . S
C1190 C1194 1.413 1_455 S
C1191 H1182 0.930 . S
C1191 C1192 1.330 1_455 S
C1191 C1193 1.394 . S
C1192 C1191 1.330 1_655 S
C1192 C1194 1.389 . S
C1192 H1195 0.962 . S
C1193 H1175 0.930 . S
C1193 N1189 1.334 . S
C1193 C1191 1.394 . S
C1194 C1190 1.413 1_655 S
C1194 C1192 1.389 . S
C1194 C1209 1.437 . S
H1195 C1192 0.962 . S
O1196 Gd1152 2.545 . S
O1196 C1211 1.258 . S
O1197 Gd1152 2.606 . S
O1197 Gd1153 2.362 . S
O1197 C1208 1.284 . S
O1198 Gd1153 2.324 . S
O1198 C1218 1.254 . S
O1199 Gd1152 2.429 . S
O1199 C1218 1.268 . S
O1200 Gd1152 2.545 . S
O1200 C1208 1.250 . S
O1201 Gd1152 2.412 . S
O1201 C1211 1.252 . S
O1202 Gd1153 2.545 . S
O1202 C1220 1.258 . S
O1203 Gd1152 2.362 . S
O1203 Gd1153 2.606 . S
O1203 C1219 1.284 . S
O1204 Gd1152 2.324 . S
O1204 C1227 1.254 . S
O1205 Gd1153 2.429 . S
O1205 C1227 1.268 . S
O1206 Gd1153 2.545 . S
O1206 C1219 1.250 . S
O1207 Gd1153 2.412 . S
O1207 C1220 1.252 . S
C1208 O1197 1.284 . S
C1208 O1200 1.250 . S
C1209 H1178 0.929 . S
C1209 C1194 1.437 . S
C1209 C1210 1.317 . S
C1210 H1181 0.930 . S
C1210 C1186 1.431 . S
C1210 C1209 1.317 . S
C1211 Gd1152 2.828 . S
C1211 O1196 1.258 . S
C1211 O1201 1.252 . S
C1211 C1212 1.497 . S
C1212 C1211 1.497 . S
C1212 C1213 1.395 . S
C1212 C1214 1.380 . S
C1213 C1212 1.395 . S
C1213 C1216 1.398 . S
C1213 H1228 0.930 . S
C1214 C1212 1.380 . S
C1214 C1215 1.391 . S
C1214 H1229 0.930 . S
C1215 C1214 1.391 . S
C1215 C1217 1.387 . S
C1216 C1213 1.398 . S
C1216 C1217 1.380 . S
C1216 H1230 0.930 . S
C1217 C1215 1.387 . S
C1217 C1216 1.380 . S
C1217 H1231 0.930 . S
C1218 O1198 1.254 . S
C1218 O1199 1.268 . S
C1219 O1203 1.284 . S
C1219 O1206 1.250 . S
C1220 Gd1153 2.828 . S
C1220 O1202 1.258 . S
C1220 O1207 1.252 . S
C1220 C1221 1.497 . S
C1221 C1220 1.497 . S
C1221 C1222 1.395 . S
C1221 C1223 1.380 . S
C1222 C1221 1.395 . S
C1222 C1225 1.398 . S
C1222 H1232 0.930 . S
C1223 C1221 1.380 . S
C1223 C1224 1.391 . S
C1223 H1233 0.930 . S
C1224 C1223 1.391 . S
C1224 C1226 1.387 . S
C1225 C1222 1.398 . S
C1225 C1226 1.380 . S
C1225 H1234 0.930 . S
C1226 C1224 1.387 . S
C1226 C1225 1.380 . S
C1226 H1235 0.930 . S
C1227 O1204 1.254 . S
C1227 O1205 1.268 . S
H1228 C1213 0.930 . S
H1229 C1214 0.930 . S
H1230 C1216 0.930 . S
H1231 C1217 0.930 . S
H1232 C1222 0.930 . S
H1233 C1223 0.930 . S
H1234 C1225 0.930 . S
H1235 C1226 0.930 . S
Gd1236 N1267 2.661 . S
Gd1236 N1273 2.601 . S
Gd1236 O1280 2.545 . S
Gd1236 O1281 2.606 . S
Gd1236 O1283 2.429 . S
Gd1236 O1284 2.545 . S
Gd1236 O1285 2.412 . S
Gd1236 O1287 2.362 . S
Gd1236 O1288 2.324 . S
Gd1236 C1295 2.828 . S
Gd1237 N1246 2.661 . S
Gd1237 N1250 2.601 . S
Gd1237 O1281 2.362 . S
Gd1237 O1282 2.324 . S
Gd1237 O1286 2.545 . S
Gd1237 O1287 2.606 . S
Gd1237 O1289 2.429 . S
Gd1237 O1290 2.545 . S
Gd1237 O1291 2.412 . S
Gd1237 C1304 2.828 . S
C1238 C1241 1.417 . S
C1238 C1243 1.431 . S
C1238 C1244 1.412 . S
C1239 C1242 1.437 . S
C1239 C1243 1.317 . S
C1239 H1258 0.929 . S
C1240 C1241 1.426 . S
C1240 C1242 1.413 . S
C1240 N1250 1.359 . S
C1241 C1238 1.417 . S
C1241 C1240 1.426 . S
C1241 N1246 1.350 . S
C1242 C1239 1.437 . S
C1242 C1240 1.413 . S
C1242 C1252 1.391 . S
C1243 C1238 1.431 . S
C1243 C1239 1.317 . S
C1243 H1254 0.930 . S
C1244 C1238 1.412 . S
C1244 C1245 1.355 . S
C1244 H1256 0.930 . S
C1245 C1244 1.355 . S
C1245 C1247 1.402 . S
C1245 H1257 0.930 . S
N1246 Gd1237 2.661 . S
N1246 C1241 1.350 . S
N1246 C1247 1.307 . S
C1247 C1245 1.402 . S
C1247 N1246 1.307 . S
C1247 H1248 0.930 . S
H1248 C1247 0.930 . S
C1249 N1250 1.334 . S
C1249 C1251 1.394 . S
C1249 H1253 0.930 . S
N1250 Gd1237 2.601 . S
N1250 C1240 1.359 . S
N1250 C1249 1.334 . S
C1251 C1249 1.394 . S
C1251 C1252 1.359 . S
C1251 H1263 0.930 . S
C1252 C1242 1.391 . S
C1252 C1251 1.359 . S
C1252 H1264 0.929 . S
H1253 C1249 0.930 . S
H1254 C1243 0.930 . S
H1255 C1272 0.930 . S
H1256 C1244 0.930 . S
H1257 C1245 0.930 . S
H1258 C1239 0.929 . S
H1259 C1277 0.930 . S
H1260 C1268 0.930 . S
H1261 C1269 0.930 . S
H1262 C1293 0.929 . S
H1263 C1251 0.930 . S
H1264 C1252 0.929 . S
H1265 C1294 0.930 . S
H1266 C1275 0.930 . S
N1267 Gd1236 2.661 . S
N1267 C1271 1.350 . S
N1267 C1272 1.307 . S
C1268 H1260 0.930 . S
C1268 C1269 1.355 . S
C1268 C1270 1.412 . S
C1269 H1261 0.930 . S
C1269 C1268 1.355 . S
C1269 C1272 1.402 . S
C1270 C1268 1.412 . S
C1270 C1271 1.417 . S
C1270 C1294 1.431 . S
C1271 N1267 1.350 . S
C1271 C1270 1.417 . S
C1271 C1274 1.426 . S
C1272 H1255 0.930 . S
C1272 N1267 1.307 . S
C1272 C1269 1.402 . S
N1273 Gd1236 2.601 . S
N1273 C1274 1.359 . S
N1273 C1277 1.334 . S
C1274 C1271 1.426 . S
C1274 N1273 1.359 . S
C1274 C1278 1.413 . S
C1275 H1266 0.930 . S
C1275 C1276 1.359 . S
C1275 C1277 1.394 . S
C1276 C1275 1.359 . S
C1276 C1278 1.391 . S
C1276 H1279 0.929 . S
C1277 H1259 0.930 . S
C1277 N1273 1.334 . S
C1277 C1275 1.394 . S
C1278 C1274 1.413 . S
C1278 C1276 1.391 . S
C1278 C1293 1.437 . S
H1279 C1276 0.929 . S
O1280 Gd1236 2.545 . S
O1280 C1295 1.258 . S
O1281 Gd1236 2.606 . S
O1281 Gd1237 2.362 . S
O1281 C1292 1.284 . S
O1282 Gd1237 2.324 . S
O1282 C1302 1.254 . S
O1283 Gd1236 2.429 . S
O1283 C1302 1.268 . S
O1284 Gd1236 2.545 . S
O1284 C1292 1.250 . S
O1285 Gd1236 2.412 . S
O1285 C1295 1.252 . S
O1286 Gd1237 2.545 . S
O1286 C1304 1.258 . S
O1287 Gd1236 2.362 . S
O1287 Gd1237 2.606 . S
O1287 C1303 1.284 . S
O1288 Gd1236 2.324 . S
O1288 C1311 1.254 . S
O1289 Gd1237 2.429 . S
O1289 C1311 1.268 . S
O1290 Gd1237 2.545 . S
O1290 C1303 1.250 . S
O1291 Gd1237 2.412 . S
O1291 C1304 1.252 . S
C1292 O1281 1.284 . S
C1292 O1284 1.250 . S
C1293 H1262 0.929 . S
C1293 C1278 1.437 . S
C1293 C1294 1.317 . S
C1294 H1265 0.930 . S
C1294 C1270 1.431 . S
C1294 C1293 1.317 . S
C1295 Gd1236 2.828 . S
C1295 O1280 1.258 . S
C1295 O1285 1.252 . S
C1295 C1296 1.497 . S
C1296 C1295 1.497 . S
C1296 C1297 1.395 . S
C1296 C1298 1.380 . S
C1297 C1296 1.395 . S
C1297 C1300 1.398 . S
C1297 H1312 0.930 . S
C1298 C1296 1.380 . S
C1298 C1299 1.391 . S
C1298 H1313 0.930 . S
C1299 C1298 1.391 . S
C1299 C1301 1.387 . S
C1300 C1297 1.398 . S
C1300 C1301 1.380 . S
C1300 H1314 0.930 . S
C1301 C1299 1.387 . S
C1301 C1300 1.380 . S
C1301 H1315 0.930 . S
C1302 O1282 1.254 . S
C1302 O1283 1.268 . S
C1303 O1287 1.284 . S
C1303 O1290 1.250 . S
C1304 Gd1237 2.828 . S
C1304 O1286 1.258 . S
C1304 O1291 1.252 . S
C1304 C1305 1.497 . S
C1305 C1304 1.497 . S
C1305 C1306 1.395 . S
C1305 C1307 1.380 . S
C1306 C1305 1.395 . S
C1306 C1309 1.398 . S
C1306 H1316 0.930 . S
C1307 C1305 1.380 . S
C1307 C1308 1.391 . S
C1307 H1317 0.930 . S
C1308 C1307 1.391 . S
C1308 C1310 1.387 . S
C1309 C1306 1.398 . S
C1309 C1310 1.380 . S
C1309 H1318 0.930 . S
C1310 C1308 1.387 . S
C1310 C1309 1.380 . S
C1310 H1319 0.930 . S
C1311 O1288 1.254 . S
C1311 O1289 1.268 . S
H1312 C1297 0.930 . S
H1313 C1298 0.930 . S
H1314 C1300 0.930 . S
H1315 C1301 0.930 . S
H1316 C1306 0.930 . S
H1317 C1307 0.930 . S
H1318 C1309 0.930 . S
H1319 C1310 0.930 . S
Gd1320 N1351 2.661 . S
Gd1320 N1357 2.601 . S
Gd1320 O1364 2.545 . S
Gd1320 O1365 2.606 . S
Gd1320 O1367 2.429 . S
Gd1320 O1368 2.545 . S
Gd1320 O1369 2.412 . S
Gd1320 O1371 2.362 . S
Gd1320 O1372 2.324 . S
Gd1320 C1379 2.828 . S
Gd1321 N1330 2.661 . S
Gd1321 N1334 2.601 . S
Gd1321 O1365 2.362 . S
Gd1321 O1366 2.324 . S
Gd1321 O1370 2.545 . S
Gd1321 O1371 2.606 . S
Gd1321 O1373 2.429 . S
Gd1321 O1374 2.545 . S
Gd1321 O1375 2.412 . S
Gd1321 C1388 2.828 . S
C1322 C1325 1.417 . S
C1322 C1327 1.431 . S
C1322 C1328 1.412 . S
C1323 C1326 1.437 . S
C1323 C1327 1.317 . S
C1323 H1342 0.929 . S
C1324 C1325 1.426 . S
C1324 C1326 1.413 . S
C1324 N1334 1.359 . S
C1325 C1322 1.417 . S
C1325 C1324 1.426 . S
C1325 N1330 1.350 . S
C1326 C1323 1.437 . S
C1326 C1324 1.413 . S
C1326 C1336 1.391 . S
C1327 C1322 1.431 . S
C1327 C1323 1.317 . S
C1327 H1338 0.930 . S
C1328 C1322 1.412 . S
C1328 C1329 1.355 . S
C1328 H1340 0.930 . S
C1329 C1328 1.355 . S
C1329 C1331 1.402 . S
C1329 H1341 0.930 . S
N1330 Gd1321 2.661 . S
N1330 C1325 1.350 . S
N1330 C1331 1.307 . S
C1331 C1329 1.402 . S
C1331 N1330 1.307 . S
C1331 H1332 0.930 . S
H1332 C1331 0.930 . S
C1333 N1334 1.334 . S
C1333 C1335 1.394 . S
C1333 H1337 0.930 . S
N1334 Gd1321 2.601 . S
N1334 C1324 1.359 . S
N1334 C1333 1.334 . S
C1335 C1333 1.394 . S
C1335 C1336 1.359 . S
C1335 H1347 0.930 . S
C1336 C1326 1.391 . S
C1336 C1335 1.359 . S
C1336 H1348 0.929 . S
H1337 C1333 0.930 . S
H1338 C1327 0.930 . S
H1339 C1356 0.930 . S
H1340 C1328 0.930 . S
H1341 C1329 0.930 . S
H1342 C1323 0.929 . S
H1343 C1361 0.930 . S
H1344 C1352 0.930 . S
H1345 C1353 0.930 . S
H1346 C1377 0.929 . S
H1347 C1335 0.930 . S
H1348 C1336 0.929 . S
H1349 C1378 0.930 . S
H1350 C1359 0.930 . S
N1351 Gd1320 2.661 . S
N1351 C1355 1.350 . S
N1351 C1356 1.307 . S
C1352 H1344 0.930 . S
C1352 C1353 1.355 . S
C1352 C1354 1.412 . S
C1353 H1345 0.930 . S
C1353 C1352 1.355 . S
C1353 C1356 1.402 . S
C1354 C1352 1.412 . S
C1354 C1355 1.417 . S
C1354 C1378 1.431 . S
C1355 N1351 1.350 . S
C1355 C1354 1.417 . S
C1355 C1358 1.426 . S
C1356 H1339 0.930 . S
C1356 N1351 1.307 . S
C1356 C1353 1.402 . S
N1357 Gd1320 2.601 . S
N1357 C1358 1.359 . S
N1357 C1361 1.334 . S
C1358 C1355 1.426 . S
C1358 N1357 1.359 . S
C1358 C1362 1.413 . S
C1359 H1350 0.930 . S
C1359 C1360 1.359 . S
C1359 C1361 1.394 . S
C1360 C1359 1.359 . S
C1360 C1362 1.391 . S
C1360 H1363 0.929 . S
C1361 H1343 0.930 . S
C1361 N1357 1.334 . S
C1361 C1359 1.394 . S
C1362 C1358 1.413 . S
C1362 C1360 1.391 . S
C1362 C1377 1.437 . S
H1363 C1360 0.929 . S
O1364 Gd1320 2.545 . S
O1364 C1379 1.258 . S
O1365 Gd1320 2.606 . S
O1365 Gd1321 2.362 . S
O1365 C1376 1.284 . S
O1366 Gd1321 2.324 . S
O1366 C1386 1.254 . S
O1367 Gd1320 2.429 . S
O1367 C1386 1.268 . S
O1368 Gd1320 2.545 . S
O1368 C1376 1.250 . S
O1369 Gd1320 2.412 . S
O1369 C1379 1.252 . S
O1370 Gd1321 2.545 . S
O1370 C1388 1.258 . S
O1371 Gd1320 2.362 . S
O1371 Gd1321 2.606 . S
O1371 C1387 1.284 . S
O1372 Gd1320 2.324 . S
O1372 C1395 1.254 . S
O1373 Gd1321 2.429 . S
O1373 C1395 1.268 . S
O1374 Gd1321 2.545 . S
O1374 C1387 1.250 . S
O1375 Gd1321 2.412 . S
O1375 C1388 1.252 . S
C1376 O1365 1.284 . S
C1376 O1368 1.250 . S
C1377 H1346 0.929 . S
C1377 C1362 1.437 . S
C1377 C1378 1.317 . S
C1378 H1349 0.930 . S
C1378 C1354 1.431 . S
C1378 C1377 1.317 . S
C1379 Gd1320 2.828 . S
C1379 O1364 1.258 . S
C1379 O1369 1.252 . S
C1379 C1380 1.497 . S
C1380 C1379 1.497 . S
C1380 C1381 1.395 . S
C1380 C1382 1.380 . S
C1381 C1380 1.395 . S
C1381 C1384 1.398 . S
C1381 H1396 0.930 . S
C1382 C1380 1.380 . S
C1382 C1383 1.391 . S
C1382 H1397 0.930 . S
C1383 C1382 1.391 . S
C1383 C1385 1.387 . S
C1384 C1381 1.398 . S
C1384 C1385 1.380 . S
C1384 H1398 0.930 . S
C1385 C1383 1.387 . S
C1385 C1384 1.380 . S
C1385 H1399 0.930 . S
C1386 O1366 1.254 . S
C1386 O1367 1.268 . S
C1387 O1371 1.284 . S
C1387 O1374 1.250 . S
C1388 Gd1321 2.828 . S
C1388 O1370 1.258 . S
C1388 O1375 1.252 . S
C1388 C1389 1.497 . S
C1389 C1388 1.497 . S
C1389 C1390 1.395 . S
C1389 C1391 1.380 . S
C1390 C1389 1.395 . S
C1390 C1393 1.398 . S
C1390 H1400 0.930 . S
C1391 C1389 1.380 . S
C1391 C1392 1.391 . S
C1391 H1401 0.930 . S
C1392 C1391 1.391 . S
C1392 C1394 1.387 . S
C1393 C1390 1.398 . S
C1393 C1394 1.380 . S
C1393 H1402 0.930 . S
C1394 C1392 1.387 . S
C1394 C1393 1.380 . S
C1394 H1403 0.930 . S
C1395 O1372 1.254 . S
C1395 O1373 1.268 . S
H1396 C1381 0.930 . S
H1397 C1382 0.930 . S
H1398 C1384 0.930 . S
H1399 C1385 0.930 . S
H1400 C1390 0.930 . S
H1401 C1391 0.930 . S
H1402 C1393 0.930 . S
H1403 C1394 0.930 . S
Gd1404 N1435 2.661 . S
Gd1404 N1441 2.601 . S
Gd1404 O1448 2.545 . S
Gd1404 O1449 2.606 . S
Gd1404 O1451 2.429 . S
Gd1404 O1452 2.545 . S
Gd1404 O1453 2.412 . S
Gd1404 O1455 2.362 . S
Gd1404 O1456 2.324 . S
Gd1404 C1463 2.828 . S
Gd1405 N1414 2.661 . S
Gd1405 N1418 2.601 . S
Gd1405 O1449 2.362 . S
Gd1405 O1450 2.324 . S
Gd1405 O1454 2.545 . S
Gd1405 O1455 2.606 . S
Gd1405 O1457 2.429 . S
Gd1405 O1458 2.545 . S
Gd1405 O1459 2.412 . S
Gd1405 C1472 2.828 . S
C1406 C1409 1.417 . S
C1406 C1411 1.431 . S
C1406 C1412 1.412 . S
C1407 C1410 1.437 . S
C1407 C1411 1.317 . S
C1407 H1426 0.929 . S
C1408 C1409 1.426 . S
C1408 C1410 1.413 . S
C1408 N1418 1.359 . S
C1409 C1406 1.417 . S
C1409 C1408 1.426 . S
C1409 N1414 1.350 . S
C1410 C1407 1.437 . S
C1410 C1408 1.413 . S
C1410 C1420 1.391 . S
C1411 C1406 1.431 . S
C1411 C1407 1.317 . S
C1411 H1422 0.930 . S
C1412 C1406 1.412 . S
C1412 C1413 1.355 . S
C1412 H1424 0.930 . S
C1413 C1412 1.355 . S
C1413 C1415 1.402 . S
C1413 H1425 0.930 . S
N1414 Gd1405 2.661 . S
N1414 C1409 1.350 . S
N1414 C1415 1.307 . S
C1415 C1413 1.402 . S
C1415 N1414 1.307 . S
C1415 H1416 0.930 . S
H1416 C1415 0.930 . S
C1417 N1418 1.334 . S
C1417 C1419 1.394 . S
C1417 H1421 0.930 . S
N1418 Gd1405 2.601 . S
N1418 C1408 1.359 . S
N1418 C1417 1.334 . S
C1419 C1417 1.394 . S
C1419 C1420 1.359 . S
C1419 H1431 0.930 . S
C1420 C1410 1.391 . S
C1420 C1419 1.359 . S
C1420 H1432 0.929 . S
H1421 C1417 0.930 . S
H1422 C1411 0.930 . S
H1423 C1440 0.930 . S
H1424 C1412 0.930 . S
H1425 C1413 0.930 . S
H1426 C1407 0.929 . S
H1427 C1445 0.930 . S
H1428 C1436 0.930 . S
H1429 C1437 0.930 . S
H1430 C1461 0.929 . S
H1431 C1419 0.930 . S
H1432 C1420 0.929 . S
H1433 C1462 0.930 . S
H1434 C1443 0.930 . S
N1435 Gd1404 2.661 . S
N1435 C1439 1.350 . S
N1435 C1440 1.307 . S
C1436 H1428 0.930 . S
C1436 C1437 1.355 . S
C1436 C1438 1.412 . S
C1437 H1429 0.930 . S
C1437 C1436 1.355 . S
C1437 C1440 1.402 . S
C1438 C1436 1.412 . S
C1438 C1439 1.417 . S
C1438 C1462 1.431 . S
C1439 N1435 1.350 . S
C1439 C1438 1.417 . S
C1439 C1442 1.426 . S
C1440 H1423 0.930 . S
C1440 N1435 1.307 . S
C1440 C1437 1.402 . S
N1441 Gd1404 2.601 . S
N1441 C1442 1.359 . S
N1441 C1445 1.334 . S
C1442 C1439 1.426 . S
C1442 N1441 1.359 . S
C1442 C1446 1.413 . S
C1443 H1434 0.930 . S
C1443 C1444 1.359 . S
C1443 C1445 1.394 . S
C1444 C1443 1.359 . S
C1444 C1446 1.391 . S
C1444 H1447 0.929 . S
C1445 H1427 0.930 . S
C1445 N1441 1.334 . S
C1445 C1443 1.394 . S
C1446 C1442 1.413 . S
C1446 C1444 1.391 . S
C1446 C1461 1.437 . S
H1447 C1444 0.929 . S
O1448 Gd1404 2.545 . S
O1448 C1463 1.258 . S
O1449 Gd1404 2.606 . S
O1449 Gd1405 2.362 . S
O1449 C1460 1.284 . S
O1450 Gd1405 2.324 . S
O1450 C1470 1.254 . S
O1451 Gd1404 2.429 . S
O1451 C1470 1.268 . S
O1452 Gd1404 2.545 . S
O1452 C1460 1.250 . S
O1453 Gd1404 2.412 . S
O1453 C1463 1.252 . S
O1454 Gd1405 2.545 . S
O1454 C1472 1.258 . S
O1455 Gd1404 2.362 . S
O1455 Gd1405 2.606 . S
O1455 C1471 1.284 . S
O1456 Gd1404 2.324 . S
O1456 C1479 1.254 . S
O1457 Gd1405 2.429 . S
O1457 C1479 1.268 . S
O1458 Gd1405 2.545 . S
O1458 C1471 1.250 . S
O1459 Gd1405 2.412 . S
O1459 C1472 1.252 . S
C1460 O1449 1.284 . S
C1460 O1452 1.250 . S
C1461 H1430 0.929 . S
C1461 C1446 1.437 . S
C1461 C1462 1.317 . S
C1462 H1433 0.930 . S
C1462 C1438 1.431 . S
C1462 C1461 1.317 . S
C1463 Gd1404 2.828 . S
C1463 O1448 1.258 . S
C1463 O1453 1.252 . S
C1463 C1464 1.497 . S
C1464 C1463 1.497 . S
C1464 C1465 1.395 . S
C1464 C1466 1.380 . S
C1465 C1464 1.395 . S
C1465 C1468 1.398 . S
C1465 H1480 0.930 . S
C1466 C1464 1.380 . S
C1466 C1467 1.391 . S
C1466 H1481 0.930 . S
C1467 C1466 1.391 . S
C1467 C1469 1.387 . S
C1468 C1465 1.398 . S
C1468 C1469 1.380 . S
C1468 H1482 0.930 . S
C1469 C1467 1.387 . S
C1469 C1468 1.380 . S
C1469 H1483 0.930 . S
C1470 O1450 1.254 . S
C1470 O1451 1.268 . S
C1471 O1455 1.284 . S
C1471 O1458 1.250 . S
C1472 Gd1405 2.828 . S
C1472 O1454 1.258 . S
C1472 O1459 1.252 . S
C1472 C1473 1.497 . S
C1473 C1472 1.497 . S
C1473 C1474 1.395 . S
C1473 C1475 1.380 . S
C1474 C1473 1.395 . S
C1474 C1477 1.398 . S
C1474 H1484 0.930 . S
C1475 C1473 1.380 . S
C1475 C1476 1.391 . S
C1475 H1485 0.930 . S
C1476 C1475 1.391 . S
C1476 C1478 1.387 . S
C1477 C1474 1.398 . S
C1477 C1478 1.380 . S
C1477 H1486 0.930 . S
C1478 C1476 1.387 . S
C1478 C1477 1.380 . S
C1478 H1487 0.930 . S
C1479 O1456 1.254 . S
C1479 O1457 1.268 . S
H1480 C1465 0.930 . S
H1481 C1466 0.930 . S
H1482 C1468 0.930 . S
H1483 C1469 0.930 . S
H1484 C1474 0.930 . S
H1485 C1475 0.930 . S
H1486 C1477 0.930 . S
H1487 C1478 0.930 . S
Gd1488 N1519 2.661 . S
Gd1488 N1525 2.601 . S
Gd1488 O1532 2.545 . S
Gd1488 O1533 2.606 . S
Gd1488 O1535 2.429 . S
Gd1488 O1536 2.545 . S
Gd1488 O1537 2.412 . S
Gd1488 O1539 2.362 . S
Gd1488 O1540 2.324 . S
Gd1488 C1547 2.828 . S
Gd1489 N1498 2.661 . S
Gd1489 N1502 2.601 . S
Gd1489 O1533 2.362 . S
Gd1489 O1534 2.324 . S
Gd1489 O1538 2.545 . S
Gd1489 O1539 2.606 . S
Gd1489 O1541 2.429 . S
Gd1489 O1542 2.545 . S
Gd1489 O1543 2.412 . S
Gd1489 C1556 2.828 . S
C1490 C1493 1.417 . S
C1490 C1495 1.431 . S
C1490 C1496 1.412 . S
C1491 C1494 1.437 . S
C1491 C1495 1.317 . S
C1491 H1510 0.929 . S
C1492 C1493 1.426 . S
C1492 C1494 1.413 . S
C1492 N1502 1.359 . S
C1493 C1490 1.417 . S
C1493 C1492 1.426 . S
C1493 N1498 1.350 . S
C1494 C1491 1.437 . S
C1494 C1492 1.413 . S
C1494 C1504 1.391 . S
C1495 C1490 1.431 . S
C1495 C1491 1.317 . S
C1495 H1506 0.930 . S
C1496 C1490 1.412 . S
C1496 C1497 1.355 . S
C1496 H1508 0.930 . S
C1497 C1496 1.355 . S
C1497 C1499 1.402 . S
C1497 H1509 0.930 . S
N1498 Gd1489 2.661 . S
N1498 C1493 1.350 . S
N1498 C1499 1.307 . S
C1499 C1497 1.402 . S
C1499 N1498 1.307 . S
C1499 H1500 0.930 . S
H1500 C1499 0.930 . S
C1501 N1502 1.334 . S
C1501 C1503 1.394 . S
C1501 H1505 0.930 . S
N1502 Gd1489 2.601 . S
N1502 C1492 1.359 . S
N1502 C1501 1.334 . S
C1503 C1501 1.394 . S
C1503 C1504 1.359 . S
C1503 H1515 0.930 . S
C1504 C1494 1.391 . S
C1504 C1503 1.359 . S
C1504 H1516 0.929 . S
H1505 C1501 0.930 . S
H1506 C1495 0.930 . S
H1507 C1524 0.930 . S
H1508 C1496 0.930 . S
H1509 C1497 0.930 . S
H1510 C1491 0.929 . S
H1511 C1529 0.930 . S
H1512 C1520 0.930 . S
H1513 C1521 0.930 . S
H1514 C1545 0.929 . S
H1515 C1503 0.930 . S
H1516 C1504 0.929 . S
H1517 C1546 0.930 . S
H1518 C1527 0.930 . S
N1519 Gd1488 2.661 . S
N1519 C1523 1.350 . S
N1519 C1524 1.307 . S
C1520 H1512 0.930 . S
C1520 C1521 1.355 . S
C1520 C1522 1.412 . S
C1521 H1513 0.930 . S
C1521 C1520 1.355 . S
C1521 C1524 1.402 . S
C1522 C1520 1.412 . S
C1522 C1523 1.417 . S
C1522 C1546 1.431 . S
C1523 N1519 1.350 . S
C1523 C1522 1.417 . S
C1523 C1526 1.426 . S
C1524 H1507 0.930 . S
C1524 N1519 1.307 . S
C1524 C1521 1.402 . S
N1525 Gd1488 2.601 . S
N1525 C1526 1.359 . S
N1525 C1529 1.334 . S
C1526 C1523 1.426 . S
C1526 N1525 1.359 . S
C1526 C1530 1.413 . S
C1527 H1518 0.930 . S
C1527 C1528 1.359 . S
C1527 C1529 1.394 . S
C1528 C1527 1.359 . S
C1528 C1530 1.391 . S
C1528 H1531 0.929 . S
C1529 H1511 0.930 . S
C1529 N1525 1.334 . S
C1529 C1527 1.394 . S
C1530 C1526 1.413 . S
C1530 C1528 1.391 . S
C1530 C1545 1.437 . S
H1531 C1528 0.929 . S
O1532 Gd1488 2.545 . S
O1532 C1547 1.258 . S
O1533 Gd1488 2.606 . S
O1533 Gd1489 2.362 . S
O1533 C1544 1.284 . S
O1534 Gd1489 2.324 . S
O1534 C1554 1.254 . S
O1535 Gd1488 2.429 . S
O1535 C1554 1.268 . S
O1536 Gd1488 2.545 . S
O1536 C1544 1.250 . S
O1537 Gd1488 2.412 . S
O1537 C1547 1.252 . S
O1538 Gd1489 2.545 . S
O1538 C1556 1.258 . S
O1539 Gd1488 2.362 . S
O1539 Gd1489 2.606 . S
O1539 C1555 1.284 . S
O1540 Gd1488 2.324 . S
O1540 C1563 1.254 . S
O1541 Gd1489 2.429 . S
O1541 C1563 1.268 . S
O1542 Gd1489 2.545 . S
O1542 C1555 1.250 . S
O1543 Gd1489 2.412 . S
O1543 C1556 1.252 . S
C1544 O1533 1.284 . S
C1544 O1536 1.250 . S
C1545 H1514 0.929 . S
C1545 C1530 1.437 . S
C1545 C1546 1.317 . S
C1546 H1517 0.930 . S
C1546 C1522 1.431 . S
C1546 C1545 1.317 . S
C1547 Gd1488 2.828 . S
C1547 O1532 1.258 . S
C1547 O1537 1.252 . S
C1547 C1548 1.497 . S
C1548 C1547 1.497 . S
C1548 C1549 1.395 . S
C1548 C1550 1.380 . S
C1549 C1548 1.395 . S
C1549 C1552 1.398 . S
C1549 H1564 0.930 . S
C1550 C1548 1.380 . S
C1550 C1551 1.391 . S
C1550 H1565 0.930 . S
C1551 C1550 1.391 . S
C1551 C1553 1.387 . S
C1552 C1549 1.398 . S
C1552 C1553 1.380 . S
C1552 H1566 0.930 . S
C1553 C1551 1.387 . S
C1553 C1552 1.380 . S
C1553 H1567 0.930 . S
C1554 O1534 1.254 . S
C1554 O1535 1.268 . S
C1555 O1539 1.284 . S
C1555 O1542 1.250 . S
C1556 Gd1489 2.828 . S
C1556 O1538 1.258 . S
C1556 O1543 1.252 . S
C1556 C1557 1.497 . S
C1557 C1556 1.497 . S
C1557 C1558 1.395 . S
C1557 C1559 1.380 . S
C1558 C1557 1.395 . S
C1558 C1561 1.398 . S
C1558 H1568 0.930 . S
C1559 C1557 1.380 . S
C1559 C1560 1.391 . S
C1559 H1569 0.930 . S
C1560 C1559 1.391 . S
C1560 C1562 1.387 . S
C1561 C1558 1.398 . S
C1561 C1562 1.380 . S
C1561 H1570 0.930 . S
C1562 C1560 1.387 . S
C1562 C1561 1.380 . S
C1562 H1571 0.930 . S
C1563 O1540 1.254 . S
C1563 O1541 1.268 . S
H1564 C1549 0.930 . S
H1565 C1550 0.930 . S
H1566 C1552 0.930 . S
H1567 C1553 0.930 . S
H1568 C1558 0.930 . S
H1569 C1559 0.930 . S
H1570 C1561 0.930 . S
H1571 C1562 0.930 . S
Gd1572 N1603 2.661 . S
Gd1572 N1609 2.601 . S
Gd1572 O1616 2.545 . S
Gd1572 O1617 2.606 . S
Gd1572 O1619 2.429 . S
Gd1572 O1620 2.545 . S
Gd1572 O1621 2.369 1_455 S
Gd1572 O1623 2.362 . S
Gd1572 O1624 2.324 1_554 S
Gd1572 C1631 2.828 1_455 S
Gd1573 N1582 2.661 . S
Gd1573 N1586 2.601 1_554 S
Gd1573 O1617 2.362 . S
Gd1573 O1618 2.324 . S
Gd1573 O1622 2.545 1_554 S
Gd1573 O1623 2.606 . S
Gd1573 O1625 2.429 1_554 S
Gd1573 O1626 2.545 1_554 S
Gd1573 O1627 2.412 . S
Gd1573 C1640 2.828 1_554 S
C1574 C1577 1.417 . S
C1574 C1579 1.431 . S
C1574 C1580 1.412 . S
C1575 C1578 1.437 . S
C1575 C1579 1.317 1_556 S
C1575 H1594 0.929 . S
C1576 C1577 1.426 1_556 S
C1576 C1578 1.413 . S
C1576 N1586 1.359 . S
C1577 C1574 1.417 . S
C1577 C1576 1.426 1_554 S
C1577 N1582 1.350 . S
C1578 C1575 1.437 . S
C1578 C1576 1.413 . S
C1578 C1588 1.391 . S
C1579 C1574 1.431 . S
C1579 C1575 1.317 1_554 S
C1579 H1590 0.930 . S
C1580 C1574 1.412 . S
C1580 C1581 1.355 . S
C1580 H1592 0.930 . S
C1581 C1580 1.355 . S
C1581 C1583 1.402 . S
C1581 H1593 0.930 . S
N1582 Gd1573 2.661 . S
N1582 C1577 1.350 . S
N1582 C1583 1.307 . S
C1583 C1581 1.402 . S
C1583 N1582 1.307 . S
C1583 H1584 0.930 . S
H1584 C1583 0.930 . S
C1585 N1586 1.334 . S
C1585 C1587 1.394 . S
C1585 H1589 0.930 . S
N1586 Gd1573 2.601 1_556 S
N1586 C1576 1.359 . S
N1586 C1585 1.334 . S
C1587 C1585 1.394 . S
C1587 C1588 1.359 . S
C1587 H1599 0.930 . S
C1588 C1578 1.391 . S
C1588 C1587 1.359 . S
C1588 H1600 0.929 . S
H1589 C1585 0.930 . S
H1590 C1579 0.930 . S
H1591 C1608 0.930 . S
H1592 C1580 0.930 . S
H1593 C1581 0.930 . S
H1594 C1575 0.929 . S
H1595 C1613 0.930 . S
H1596 C1604 0.930 . S
H1597 C1605 0.930 . S
H1598 C1629 0.929 . S
H1599 C1587 0.930 . S
H1600 C1588 0.929 . S
H1601 C1630 0.930 . S
H1602 C1611 0.930 . S
N1603 Gd1572 2.661 . S
N1603 C1607 1.350 1_455 S
N1603 C1608 1.307 1_554 S
C1604 H1596 0.930 . S
C1604 C1605 1.355 . S
C1604 C1606 1.412 1_556 S
C1605 H1597 0.930 . S
C1605 C1604 1.355 . S
C1605 C1608 1.402 1_655 S
C1606 C1604 1.412 1_554 S
C1606 C1607 1.417 . S
C1606 C1630 1.431 . S
C1607 N1603 1.350 1_655 S
C1607 C1606 1.417 . S
C1607 C1610 1.426 1_655 S
C1608 H1591 0.930 . S
C1608 N1603 1.307 1_556 S
C1608 C1605 1.402 1_455 S
N1609 Gd1572 2.601 . S
N1609 C1610 1.359 . S
N1609 C1613 1.334 . S
C1610 C1607 1.426 1_455 S
C1610 N1609 1.359 . S
C1610 C1614 1.413 1_455 S
C1611 H1602 0.930 . S
C1611 C1612 1.359 1_455 S
C1611 C1613 1.394 . S
C1612 C1611 1.359 1_655 S
C1612 C1614 1.391 . S
C1612 H1615 0.929 . S
C1613 H1595 0.930 . S
C1613 N1609 1.334 . S
C1613 C1611 1.394 . S
C1614 C1610 1.413 1_655 S
C1614 C1612 1.391 . S
C1614 C1629 1.437 . S
H1615 C1612 0.929 . S
O1616 Gd1572 2.545 . S
O1616 C1631 1.258 1_455 S
O1617 Gd1572 2.606 . S
O1617 Gd1573 2.362 . S
O1617 C1628 1.284 . S
O1618 Gd1573 2.324 . S
O1618 C1638 1.254 . S
O1619 Gd1572 2.429 . S
O1619 C1638 1.268 . S
O1620 Gd1572 2.545 . S
O1620 C1628 1.250 . S
O1621 Gd1572 2.369 1_655 S
O1621 C1631 1.264 . S
O1622 Gd1573 2.545 1_556 S
O1622 C1640 1.258 . S
O1623 Gd1572 2.362 . S
O1623 Gd1573 2.606 . S
O1623 C1639 1.284 . S
O1624 Gd1572 2.324 1_556 S
O1624 C1647 1.254 . S
O1625 Gd1573 2.429 1_556 S
O1625 C1647 1.268 . S
O1626 Gd1573 2.545 1_556 S
O1626 C1639 1.250 1_556 S
O1627 Gd1573 2.412 . S
O1627 C1640 1.252 1_554 S
C1628 O1617 1.284 . S
C1628 O1620 1.250 . S
C1629 H1598 0.929 . S
C1629 C1614 1.437 . S
C1629 C1630 1.317 . S
C1630 H1601 0.930 . S
C1630 C1606 1.431 . S
C1630 C1629 1.317 . S
C1631 Gd1572 2.828 1_655 S
C1631 O1616 1.258 1_655 S
C1631 O1621 1.264 . S
C1631 C1632 1.497 . S
C1632 C1631 1.497 . S
C1632 C1633 1.395 . S
C1632 C1634 1.380 . S
C1633 C1632 1.395 . S
C1633 C1636 1.398 . S
C1633 H1648 0.930 . S
C1634 C1632 1.380 . S
C1634 C1635 1.391 . S
C1634 H1649 0.930 . S
C1635 C1634 1.391 . S
C1635 C1637 1.387 . S
C1636 C1633 1.398 . S
C1636 C1637 1.380 . S
C1636 H1650 0.930 . S
C1637 C1635 1.387 . S
C1637 C1636 1.380 . S
C1637 H1651 0.930 . S
C1638 O1618 1.254 . S
C1638 O1619 1.268 . S
C1639 O1623 1.284 . S
C1639 O1626 1.250 1_554 S
C1640 Gd1573 2.828 1_556 S
C1640 O1622 1.258 . S
C1640 O1627 1.252 1_556 S
C1640 C1641 1.497 . S
C1641 C1640 1.497 . S
C1641 C1642 1.395 . S
C1641 C1643 1.380 1_556 S
C1642 C1641 1.395 . S
C1642 C1645 1.398 . S
C1642 H1652 0.930 . S
C1643 C1641 1.380 1_554 S
C1643 C1644 1.391 1_554 S
C1643 H1653 0.930 . S
C1644 C1643 1.391 1_556 S
C1644 C1646 1.387 . S
C1645 C1642 1.398 . S
C1645 C1646 1.380 . S
C1645 H1654 0.930 . S
C1646 C1644 1.387 . S
C1646 C1645 1.380 . S
C1646 H1655 0.930 . S
C1647 O1624 1.254 . S
C1647 O1625 1.268 . S
H1648 C1633 0.930 . S
H1649 C1634 0.930 . S
H1650 C1636 0.930 . S
H1651 C1637 0.930 . S
H1652 C1642 0.930 . S
H1653 C1643 0.930 . S
H1654 C1645 0.930 . S
H1655 C1646 0.930 . S
H1656 C1674 0.951 . S
H1657 C1676 0.920 1_554 S
H1658 C1678 0.950 . S
H1659 C1679 0.950 . S
H1660 C1681 0.950 . S
H1661 C1684 1.004 . S
H1662 C1685 0.950 . S
H1663 C1687 0.950 . S
H1664 C1688 0.950 . S
H1665 C1689 0.951 . S
H1666 C1691 0.951 . S
H1667 C1693 0.950 . S
H1668 C1694 0.950 . S
H1669 C1696 0.950 . S
H1670 C1699 0.950 . S
H1671 C1700 0.950 . S
H1672 C1702 0.950 . S
H1673 C1703 0.950 . S
C1674 H1656 0.951 . S
C1674 C1675 1.366 . S
C1674 C1676 1.388 . S
C1675 C1674 1.366 . S
C1675 C1679 1.385 . S
C1676 H1657 0.920 1_556 S
C1676 C1674 1.388 . S
C1676 C1677 1.366 . S
C1677 C1676 1.366 . S
C1677 C1678 1.414 . S
C1677 C1680 1.499 . S
C1678 H1658 0.950 . S
C1678 C1677 1.414 . S
C1678 C1679 1.374 . S
C1679 H1659 0.950 . S
C1679 C1675 1.385 . S
C1679 C1678 1.374 . S
C1680 C1677 1.499 . S
C1680 C1681 1.373 . S
C1680 C1682 1.389 . S
C1681 H1660 0.950 . S
C1681 C1680 1.373 . S
C1681 C1697 1.377 . S
C1682 C1680 1.389 . S
C1682 C1683 1.524 1_556 S
C1682 C1696 1.377 1_556 S
C1683 C1682 1.524 1_554 S
C1683 C1684 1.361 1_554 S
C1683 C1688 1.363 . S
C1684 H1661 1.004 . S
C1684 C1683 1.361 1_556 S
C1684 C1685 1.318 1_556 S
C1685 H1662 0.950 . S
C1685 C1684 1.318 1_554 S
C1685 C1686 1.287 . S
C1686 C1685 1.287 . S
C1686 C1687 1.524 . S
C1686 H1705 0.913 . S
C1687 H1663 0.950 . S
C1687 C1686 1.524 . S
C1687 C1688 1.415 . S
C1688 H1664 0.950 . S
C1688 C1683 1.363 . S
C1688 C1687 1.415 . S
C1689 H1665 0.951 . S
C1689 C1690 1.366 1_556 S
C1689 C1691 1.388 . S
C1690 C1689 1.366 1_554 S
C1690 C1694 1.385 . S
C1691 H1666 0.951 . S
C1691 C1689 1.388 . S
C1691 C1692 1.366 . S
C1692 C1691 1.366 . S
C1692 C1693 1.414 1_556 S
C1692 C1695 1.499 . S
C1693 H1667 0.950 . S
C1693 C1692 1.414 1_554 S
C1693 C1694 1.374 . S
C1694 H1668 0.950 . S
C1694 C1690 1.385 . S
C1694 C1693 1.374 . S
C1695 C1692 1.499 . S
C1695 C1696 1.373 1_556 S
C1695 C1697 1.389 . S
C1696 H1669 0.950 . S
C1696 C1682 1.377 1_554 S
C1696 C1695 1.373 1_554 S
C1697 C1681 1.377 . S
C1697 C1695 1.389 . S
C1697 C1698 1.524 . S
C1698 C1697 1.524 . S
C1698 C1699 1.397 1_455 S
C1698 C1703 1.363 . S
C1699 H1670 0.950 . S
C1699 C1698 1.397 1_655 S
C1699 C1700 1.334 . S
C1700 H1671 0.950 . S
C1700 C1699 1.334 . S
C1700 C1701 1.287 . S
C1701 C1700 1.287 . S
C1701 C1702 1.524 . S
C1701 H1704 0.999 . S
C1702 H1672 0.950 . S
C1702 C1701 1.524 . S
C1702 C1703 1.415 1_655 S
C1703 H1673 0.950 . S
C1703 C1698 1.363 . S
C1703 C1702 1.415 1_455 S
H1704 C1701 0.999 . S
H1705 C1686 0.913 . S
H1706 C1724 0.951 . S
H1707 C1726 0.951 . S
H1708 C1728 0.950 . S
H1709 C1729 0.950 . S
H1710 C1731 0.950 . S
H1711 C1734 0.950 . S
H1712 C1735 0.950 . S
H1713 C1737 0.950 . S
H1714 C1738 0.950 . S
H1715 C1739 0.951 . S
H1716 C1741 0.951 . S
H1717 C1743 0.950 . S
H1718 C1744 0.950 . S
H1719 C1746 0.950 . S
H1720 C1749 0.950 . S
H1721 C1750 0.950 . S
H1722 C1752 0.950 . S
H1723 C1753 0.950 . S
C1724 H1706 0.951 . S
C1724 C1725 1.366 . S
C1724 C1726 1.388 . S
C1725 C1724 1.366 . S
C1725 C1729 1.385 . S
C1726 H1707 0.951 . S
C1726 C1724 1.388 . S
C1726 C1727 1.366 . S
C1727 C1726 1.366 . S
C1727 C1728 1.414 . S
C1727 C1730 1.499 . S
C1728 H1708 0.950 . S
C1728 C1727 1.414 . S
C1728 C1729 1.374 . S
C1729 H1709 0.950 . S
C1729 C1725 1.385 . S
C1729 C1728 1.374 . S
C1730 C1727 1.499 . S
C1730 C1731 1.373 . S
C1730 C1732 1.389 . S
C1731 H1710 0.950 . S
C1731 C1730 1.373 . S
C1731 C1747 1.377 . S
C1732 C1730 1.389 . S
C1732 C1733 1.524 . S
C1732 C1746 1.377 . S
C1733 C1732 1.524 . S
C1733 C1734 1.397 . S
C1733 C1738 1.363 . S
C1734 H1711 0.950 . S
C1734 C1733 1.397 . S
C1734 C1735 1.334 . S
C1735 H1712 0.950 . S
C1735 C1734 1.334 . S
C1735 C1736 1.287 . S
C1736 C1735 1.287 . S
C1736 C1737 1.524 . S
C1736 H1755 0.913 . S
C1737 H1713 0.950 . S
C1737 C1736 1.524 . S
C1737 C1738 1.415 . S
C1738 H1714 0.950 . S
C1738 C1733 1.363 . S
C1738 C1737 1.415 . S
C1739 H1715 0.951 . S
C1739 C1740 1.366 . S
C1739 C1741 1.388 . S
C1740 C1739 1.366 . S
C1740 C1744 1.385 . S
C1741 H1716 0.951 . S
C1741 C1739 1.388 . S
C1741 C1742 1.366 . S
C1742 C1741 1.366 . S
C1742 C1743 1.414 . S
C1742 C1745 1.499 . S
C1743 H1717 0.950 . S
C1743 C1742 1.414 . S
C1743 C1744 1.374 . S
C1744 H1718 0.950 . S
C1744 C1740 1.385 . S
C1744 C1743 1.374 . S
C1745 C1742 1.499 . S
C1745 C1746 1.373 . S
C1745 C1747 1.389 . S
C1746 H1719 0.950 . S
C1746 C1732 1.377 . S
C1746 C1745 1.373 . S
C1747 C1731 1.377 . S
C1747 C1745 1.389 . S
C1747 C1748 1.524 . S
C1748 C1747 1.524 . S
C1748 C1749 1.397 . S
C1748 C1753 1.363 . S
C1749 H1720 0.950 . S
C1749 C1748 1.397 . S
C1749 C1750 1.334 . S
C1750 H1721 0.950 . S
C1750 C1749 1.334 . S
C1750 C1751 1.287 . S
C1751 C1750 1.287 . S
C1751 C1752 1.524 . S
C1751 H1754 0.999 . S
C1752 H1722 0.950 . S
C1752 C1751 1.524 . S
C1752 C1753 1.415 . S
C1753 H1723 0.950 . S
C1753 C1748 1.363 . S
C1753 C1752 1.415 . S
H1754 C1751 0.999 . S
H1755 C1736 0.913 . S
H1756 C1774 0.951 . S
H1757 C1776 0.951 . S
H1758 C1778 0.950 . S
H1759 C1779 0.950 . S
H1760 C1781 0.950 . S
H1761 C1784 0.950 . S
H1762 C1785 0.950 . S
H1763 C1787 0.950 . S
H1764 C1788 0.950 . S
H1765 C1789 0.951 . S
H1766 C1791 0.951 . S
H1767 C1793 0.950 . S
H1768 C1794 0.950 . S
H1769 C1796 0.950 . S
H1770 C1799 0.950 . S
H1771 C1800 0.950 . S
H1772 C1802 0.950 . S
H1773 C1803 0.950 . S
C1774 H1756 0.951 . S
C1774 C1775 1.366 . S
C1774 C1776 1.388 . S
C1775 C1774 1.366 . S
C1775 C1779 1.385 . S
C1776 H1757 0.951 . S
C1776 C1774 1.388 . S
C1776 C1777 1.366 . S
C1777 C1776 1.366 . S
C1777 C1778 1.414 . S
C1777 C1780 1.499 . S
C1778 H1758 0.950 . S
C1778 C1777 1.414 . S
C1778 C1779 1.374 . S
C1779 H1759 0.950 . S
C1779 C1775 1.385 . S
C1779 C1778 1.374 . S
C1780 C1777 1.499 . S
C1780 C1781 1.373 . S
C1780 C1782 1.389 . S
C1781 H1760 0.950 . S
C1781 C1780 1.373 . S
C1781 C1797 1.377 . S
C1782 C1780 1.389 . S
C1782 C1783 1.524 . S
C1782 C1796 1.377 . S
C1783 C1782 1.524 . S
C1783 C1784 1.397 . S
C1783 C1788 1.363 . S
C1784 H1761 0.950 . S
C1784 C1783 1.397 . S
C1784 C1785 1.334 . S
C1785 H1762 0.950 . S
C1785 C1784 1.334 . S
C1785 C1786 1.287 . S
C1786 C1785 1.287 . S
C1786 C1787 1.524 . S
C1786 H1805 0.913 . S
C1787 H1763 0.950 . S
C1787 C1786 1.524 . S
C1787 C1788 1.415 . S
C1788 H1764 0.950 . S
C1788 C1783 1.363 . S
C1788 C1787 1.415 . S
C1789 H1765 0.951 . S
C1789 C1790 1.366 . S
C1789 C1791 1.388 . S
C1790 C1789 1.366 . S
C1790 C1794 1.385 . S
C1791 H1766 0.951 . S
C1791 C1789 1.388 . S
C1791 C1792 1.366 . S
C1792 C1791 1.366 . S
C1792 C1793 1.414 . S
C1792 C1795 1.499 . S
C1793 H1767 0.950 . S
C1793 C1792 1.414 . S
C1793 C1794 1.374 . S
C1794 H1768 0.950 . S
C1794 C1790 1.385 . S
C1794 C1793 1.374 . S
C1795 C1792 1.499 . S
C1795 C1796 1.373 . S
C1795 C1797 1.389 . S
C1796 H1769 0.950 . S
C1796 C1782 1.377 . S
C1796 C1795 1.373 . S
C1797 C1781 1.377 . S
C1797 C1795 1.389 . S
C1797 C1798 1.524 . S
C1798 C1797 1.524 . S
C1798 C1799 1.397 . S
C1798 C1803 1.363 . S
C1799 H1770 0.950 . S
C1799 C1798 1.397 . S
C1799 C1800 1.334 . S
C1800 H1771 0.950 . S
C1800 C1799 1.334 . S
C1800 C1801 1.287 . S
C1801 C1800 1.287 . S
C1801 C1802 1.524 . S
C1801 H1804 0.999 . S
C1802 H1772 0.950 . S
C1802 C1801 1.524 . S
C1802 C1803 1.415 . S
C1803 H1773 0.950 . S
C1803 C1798 1.363 . S
C1803 C1802 1.415 . S
H1804 C1801 0.999 . S
H1805 C1786 0.913 . S
H1806 C1824 0.951 . S
H1807 C1826 0.951 . S
H1808 C1828 0.950 . S
H1809 C1829 0.950 . S
H1810 C1831 0.950 . S
H1811 C1834 0.950 . S
H1812 C1835 0.950 . S
H1813 C1837 0.950 . S
H1814 C1838 0.950 . S
H1815 C1839 0.951 . S
H1816 C1841 0.951 . S
H1817 C1843 0.950 . S
H1818 C1844 0.950 . S
H1819 C1846 0.950 . S
H1820 C1849 0.950 . S
H1821 C1850 0.950 . S
H1822 C1852 0.950 . S
H1823 C1853 0.950 . S
C1824 H1806 0.951 . S
C1824 C1825 1.366 . S
C1824 C1826 1.388 . S
C1825 C1824 1.366 . S
C1825 C1829 1.385 . S
C1826 H1807 0.951 . S
C1826 C1824 1.388 . S
C1826 C1827 1.366 . S
C1827 C1826 1.366 . S
C1827 C1828 1.414 . S
C1827 C1830 1.499 . S
C1828 H1808 0.950 . S
C1828 C1827 1.414 . S
C1828 C1829 1.374 . S
C1829 H1809 0.950 . S
C1829 C1825 1.385 . S
C1829 C1828 1.374 . S
C1830 C1827 1.499 . S
C1830 C1831 1.373 . S
C1830 C1832 1.389 . S
C1831 H1810 0.950 . S
C1831 C1830 1.373 . S
C1831 C1847 1.377 . S
C1832 C1830 1.389 . S
C1832 C1833 1.524 . S
C1832 C1846 1.377 . S
C1833 C1832 1.524 . S
C1833 C1834 1.397 . S
C1833 C1838 1.363 . S
C1834 H1811 0.950 . S
C1834 C1833 1.397 . S
C1834 C1835 1.334 . S
C1835 H1812 0.950 . S
C1835 C1834 1.334 . S
C1835 C1836 1.287 . S
C1836 C1835 1.287 . S
C1836 C1837 1.524 . S
C1836 H1855 0.913 . S
C1837 H1813 0.950 . S
C1837 C1836 1.524 . S
C1837 C1838 1.415 . S
C1838 H1814 0.950 . S
C1838 C1833 1.363 . S
C1838 C1837 1.415 . S
C1839 H1815 0.951 . S
C1839 C1840 1.366 . S
C1839 C1841 1.388 . S
C1840 C1839 1.366 . S
C1840 C1844 1.385 . S
C1841 H1816 0.951 . S
C1841 C1839 1.388 . S
C1841 C1842 1.366 . S
C1842 C1841 1.366 . S
C1842 C1843 1.414 . S
C1842 C1845 1.499 . S
C1843 H1817 0.950 . S
C1843 C1842 1.414 . S
C1843 C1844 1.374 . S
C1844 H1818 0.950 . S
C1844 C1840 1.385 . S
C1844 C1843 1.374 . S
C1845 C1842 1.499 . S
C1845 C1846 1.373 . S
C1845 C1847 1.389 . S
C1846 H1819 0.950 . S
C1846 C1832 1.377 . S
C1846 C1845 1.373 . S
C1847 C1831 1.377 . S
C1847 C1845 1.389 . S
C1847 C1848 1.524 . S
C1848 C1847 1.524 . S
C1848 C1849 1.397 . S
C1848 C1853 1.363 . S
C1849 H1820 0.950 . S
C1849 C1848 1.397 . S
C1849 C1850 1.334 . S
C1850 H1821 0.950 . S
C1850 C1849 1.334 . S
C1850 C1851 1.287 . S
C1851 C1850 1.287 . S
C1851 C1852 1.524 . S
C1851 H1854 0.999 . S
C1852 H1822 0.950 . S
C1852 C1851 1.524 . S
C1852 C1853 1.415 . S
C1853 H1823 0.950 . S
C1853 C1848 1.363 . S
C1853 C1852 1.415 . S
H1854 C1851 0.999 . S
H1855 C1836 0.913 . S
H1856 C1874 0.951 . S
H1857 C1876 0.951 . S
H1858 C1878 0.950 . S
H1859 C1879 0.950 . S
H1860 C1881 0.950 . S
H1861 C1884 0.950 1_655 S
H1862 C1885 0.950 1_655 S
H1863 C1887 0.950 . S
H1864 C1888 0.950 . S
H1865 C1889 0.951 . S
H1866 C1891 0.951 . S
H1867 C1893 0.950 . S
H1868 C1894 0.950 . S
H1869 C1896 0.950 . S
H1870 C1899 0.950 . S
H1871 C1900 0.950 . S
H1872 C1902 0.955 1_655 S
H1873 C1903 0.950 1_655 S
C1874 H1856 0.951 . S
C1874 C1875 1.366 . S
C1874 C1876 1.388 . S
C1875 C1874 1.366 . S
C1875 C1879 1.385 1_455 S
C1876 H1857 0.951 . S
C1876 C1874 1.388 . S
C1876 C1877 1.366 . S
C1877 C1876 1.366 . S
C1877 C1878 1.414 1_455 S
C1877 C1880 1.499 . S
C1878 H1858 0.950 . S
C1878 C1877 1.414 1_655 S
C1878 C1879 1.374 . S
C1879 H1859 0.950 . S
C1879 C1875 1.385 1_655 S
C1879 C1878 1.374 . S
C1880 C1877 1.499 . S
C1880 C1881 1.373 . S
C1880 C1882 1.389 . S
C1881 H1860 0.950 . S
C1881 C1880 1.373 . S
C1881 C1897 1.377 . S
C1882 C1880 1.389 . S
C1882 C1883 1.524 . S
C1882 C1896 1.377 . S
C1883 C1882 1.524 . S
C1883 C1884 1.397 . S
C1883 C1888 1.363 . S
C1884 H1861 0.950 1_455 S
C1884 C1883 1.397 . S
C1884 C1885 1.334 . S
C1885 H1862 0.950 1_455 S
C1885 C1884 1.334 . S
C1885 C1886 1.287 . S
C1886 C1885 1.287 . S
C1886 C1887 1.524 . S
C1886 H1905 0.913 . S
C1887 H1863 0.950 . S
C1887 C1886 1.524 . S
C1887 C1888 1.415 . S
C1888 H1864 0.950 . S
C1888 C1883 1.363 . S
C1888 C1887 1.415 . S
C1889 H1865 0.951 . S
C1889 C1890 1.366 . S
C1889 C1891 1.388 . S
C1890 C1889 1.366 . S
C1890 C1894 1.385 . S
C1891 H1866 0.951 . S
C1891 C1889 1.388 . S
C1891 C1892 1.366 . S
C1892 C1891 1.366 . S
C1892 C1893 1.414 . S
C1892 C1895 1.499 . S
C1893 H1867 0.950 . S
C1893 C1892 1.414 . S
C1893 C1894 1.374 . S
C1894 H1868 0.950 . S
C1894 C1890 1.385 . S
C1894 C1893 1.374 . S
C1895 C1892 1.499 . S
C1895 C1896 1.373 . S
C1895 C1897 1.389 . S
C1896 H1869 0.950 . S
C1896 C1882 1.377 . S
C1896 C1895 1.373 . S
C1897 C1881 1.377 . S
C1897 C1895 1.389 . S
C1897 C1898 1.524 . S
C1898 C1897 1.524 . S
C1898 C1899 1.397 . S
C1898 C1903 1.363 . S
C1899 H1870 0.950 . S
C1899 C1898 1.397 . S
C1899 C1900 1.334 . S
C1900 H1871 0.950 . S
C1900 C1899 1.334 . S
C1900 C1901 1.287 . S
C1901 C1900 1.287 . S
C1901 C1902 1.517 . S
C1901 H1904 0.999 . S
C1902 H1872 0.955 1_455 S
C1902 C1901 1.517 . S
C1902 C1903 1.415 . S
C1903 H1873 0.950 1_455 S
C1903 C1898 1.363 . S
C1903 C1902 1.415 . S
H1904 C1901 0.999 . S
H1905 C1886 0.913 . S
H1906 C1924 0.951 . S
H1907 C1926 0.951 . S
H1908 C1928 0.950 . S
H1909 C1929 0.950 . S
H1910 C1931 0.950 . S
H1911 C1934 0.950 . S
H1912 C1935 0.950 . S
H1913 C1937 0.950 . S
H1914 C1938 0.950 . S
H1915 C1939 0.951 . S
H1916 C1941 0.951 . S
H1917 C1943 0.950 . S
H1918 C1944 0.950 . S
H1919 C1946 0.950 . S
H1920 C1949 0.950 . S
H1921 C1950 0.950 . S
H1922 C1952 0.950 . S
H1923 C1953 0.950 . S
C1924 H1906 0.951 . S
C1924 C1925 1.366 . S
C1924 C1926 1.388 . S
C1925 C1924 1.366 . S
C1925 C1929 1.385 . S
C1926 H1907 0.951 . S
C1926 C1924 1.388 . S
C1926 C1927 1.366 . S
C1927 C1926 1.366 . S
C1927 C1928 1.414 . S
C1927 C1930 1.499 . S
C1928 H1908 0.950 . S
C1928 C1927 1.414 . S
C1928 C1929 1.374 . S
C1929 H1909 0.950 . S
C1929 C1925 1.385 . S
C1929 C1928 1.374 . S
C1930 C1927 1.499 . S
C1930 C1931 1.373 . S
C1930 C1932 1.389 . S
C1931 H1910 0.950 . S
C1931 C1930 1.373 . S
C1931 C1947 1.377 . S
C1932 C1930 1.389 . S
C1932 C1933 1.524 . S
C1932 C1946 1.377 . S
C1933 C1932 1.524 . S
C1933 C1934 1.397 . S
C1933 C1938 1.363 . S
C1934 H1911 0.950 . S
C1934 C1933 1.397 . S
C1934 C1935 1.334 . S
C1935 H1912 0.950 . S
C1935 C1934 1.334 . S
C1935 C1936 1.287 . S
C1936 C1935 1.287 . S
C1936 C1937 1.524 . S
C1936 H1955 0.913 . S
C1937 H1913 0.950 . S
C1937 C1936 1.524 . S
C1937 C1938 1.415 . S
C1938 H1914 0.950 . S
C1938 C1933 1.363 . S
C1938 C1937 1.415 . S
C1939 H1915 0.951 . S
C1939 C1940 1.366 . S
C1939 C1941 1.388 . S
C1940 C1939 1.366 . S
C1940 C1944 1.385 . S
C1941 H1916 0.951 . S
C1941 C1939 1.388 . S
C1941 C1942 1.366 . S
C1942 C1941 1.366 . S
C1942 C1943 1.414 . S
C1942 C1945 1.499 . S
C1943 H1917 0.950 . S
C1943 C1942 1.414 . S
C1943 C1944 1.374 . S
C1944 H1918 0.950 . S
C1944 C1940 1.385 . S
C1944 C1943 1.374 . S
C1945 C1942 1.499 . S
C1945 C1946 1.373 . S
C1945 C1947 1.389 . S
C1946 H1919 0.950 . S
C1946 C1932 1.377 . S
C1946 C1945 1.373 . S
C1947 C1931 1.377 . S
C1947 C1945 1.389 . S
C1947 C1948 1.524 . S
C1948 C1947 1.524 . S
C1948 C1949 1.397 . S
C1948 C1953 1.363 . S
C1949 H1920 0.950 . S
C1949 C1948 1.397 . S
C1949 C1950 1.334 . S
C1950 H1921 0.950 . S
C1950 C1949 1.334 . S
C1950 C1951 1.287 . S
C1951 C1950 1.287 . S
C1951 C1952 1.524 . S
C1951 H1954 0.999 . S
C1952 H1922 0.950 . S
C1952 C1951 1.524 . S
C1952 C1953 1.415 . S
C1953 H1923 0.950 . S
C1953 C1948 1.363 . S
C1953 C1952 1.415 . S
H1954 C1951 0.999 . S
H1955 C1936 0.913 . S
H1956 C1974 0.951 . S
H1957 C1976 0.951 . S
H1958 C1978 0.950 . S
H1959 C1979 0.950 . S
H1960 C1981 0.950 . S
H1961 C1984 0.950 . S
H1962 C1985 0.950 . S
H1963 C1987 0.950 . S
H1964 C1988 0.950 . S
H1965 C1989 0.951 . S
H1966 C1991 0.951 . S
H1967 C1993 0.950 . S
H1968 C1994 0.950 . S
H1969 C1996 0.950 . S
H1970 C1999 0.950 . S
H1971 C2000 0.950 . S
H1972 C2002 0.950 . S
H1973 C2003 0.950 . S
C1974 H1956 0.951 . S
C1974 C1975 1.366 . S
C1974 C1976 1.388 . S
C1975 C1974 1.366 . S
C1975 C1979 1.385 . S
C1976 H1957 0.951 . S
C1976 C1974 1.388 . S
C1976 C1977 1.366 . S
C1977 C1976 1.366 . S
C1977 C1978 1.414 . S
C1977 C1980 1.499 . S
C1978 H1958 0.950 . S
C1978 C1977 1.414 . S
C1978 C1979 1.374 . S
C1979 H1959 0.950 . S
C1979 C1975 1.385 . S
C1979 C1978 1.374 . S
C1980 C1977 1.499 . S
C1980 C1981 1.373 . S
C1980 C1982 1.389 . S
C1981 H1960 0.950 . S
C1981 C1980 1.373 . S
C1981 C1997 1.377 . S
C1982 C1980 1.389 . S
C1982 C1983 1.524 . S
C1982 C1996 1.377 . S
C1983 C1982 1.524 . S
C1983 C1984 1.397 . S
C1983 C1988 1.363 . S
C1984 H1961 0.950 . S
C1984 C1983 1.397 . S
C1984 C1985 1.334 . S
C1985 H1962 0.950 . S
C1985 C1984 1.334 . S
C1985 C1986 1.287 . S
C1986 C1985 1.287 . S
C1986 C1987 1.524 . S
C1986 H2005 0.913 . S
C1987 H1963 0.950 . S
C1987 C1986 1.524 . S
C1987 C1988 1.415 . S
C1988 H1964 0.950 . S
C1988 C1983 1.363 . S
C1988 C1987 1.415 . S
C1989 H1965 0.951 . S
C1989 C1990 1.366 . S
C1989 C1991 1.388 . S
C1990 C1989 1.366 . S
C1990 C1994 1.385 . S
C1991 H1966 0.951 . S
C1991 C1989 1.388 . S
C1991 C1992 1.366 . S
C1992 C1991 1.366 . S
C1992 C1993 1.414 . S
C1992 C1995 1.499 . S
C1993 H1967 0.950 . S
C1993 C1992 1.414 . S
C1993 C1994 1.374 . S
C1994 H1968 0.950 . S
C1994 C1990 1.385 . S
C1994 C1993 1.374 . S
C1995 C1992 1.499 . S
C1995 C1996 1.373 . S
C1995 C1997 1.389 . S
C1996 H1969 0.950 . S
C1996 C1982 1.377 . S
C1996 C1995 1.373 . S
C1997 C1981 1.377 . S
C1997 C1995 1.389 . S
C1997 C1998 1.524 . S
C1998 C1997 1.524 . S
C1998 C1999 1.397 . S
C1998 C2003 1.363 . S
C1999 H1970 0.950 . S
C1999 C1998 1.397 . S
C1999 C2000 1.334 . S
C2000 H1971 0.950 . S
C2000 C1999 1.334 . S
C2000 C2001 1.287 . S
C2001 C2000 1.287 . S
C2001 C2002 1.524 . S
C2001 H2004 0.999 . S
C2002 H1972 0.950 . S
C2002 C2001 1.524 . S
C2002 C2003 1.415 . S
C2003 H1973 0.950 . S
C2003 C1998 1.363 . S
C2003 C2002 1.415 . S
H2004 C2001 0.999 . S
H2005 C1986 0.913 . S
H2006 C2024 0.951 . S
H2007 C2026 0.951 . S
H2008 C2028 0.950 . S
H2009 C2029 0.950 . S
H2010 C2031 0.950 . S
H2011 C2034 0.950 . S
H2012 C2035 0.950 . S
H2013 C2037 0.950 . S
H2014 C2038 0.950 . S
H2015 C2039 0.951 . S
H2016 C2041 0.951 . S
H2017 C2043 0.950 . S
H2018 C2044 0.950 . S
H2019 C2046 0.950 . S
H2020 C2049 0.950 . S
H2021 C2050 0.950 . S
H2022 C2052 0.950 . S
H2023 C2053 0.950 . S
C2024 H2006 0.951 . S
C2024 C2025 1.366 . S
C2024 C2026 1.388 . S
C2025 C2024 1.366 . S
C2025 C2029 1.385 . S
C2026 H2007 0.951 . S
C2026 C2024 1.388 . S
C2026 C2027 1.366 . S
C2027 C2026 1.366 . S
C2027 C2028 1.414 . S
C2027 C2030 1.499 . S
C2028 H2008 0.950 . S
C2028 C2027 1.414 . S
C2028 C2029 1.374 . S
C2029 H2009 0.950 . S
C2029 C2025 1.385 . S
C2029 C2028 1.374 . S
C2030 C2027 1.499 . S
C2030 C2031 1.373 . S
C2030 C2032 1.389 . S
C2031 H2010 0.950 . S
C2031 C2030 1.373 . S
C2031 C2047 1.377 . S
C2032 C2030 1.389 . S
C2032 C2033 1.524 . S
C2032 C2046 1.377 . S
C2033 C2032 1.524 . S
C2033 C2034 1.397 . S
C2033 C2038 1.363 . S
C2034 H2011 0.950 . S
C2034 C2033 1.397 . S
C2034 C2035 1.334 . S
C2035 H2012 0.950 . S
C2035 C2034 1.334 . S
C2035 C2036 1.287 . S
C2036 C2035 1.287 . S
C2036 C2037 1.524 . S
C2036 H2055 0.913 . S
C2037 H2013 0.950 . S
C2037 C2036 1.524 . S
C2037 C2038 1.415 . S
C2038 H2014 0.950 . S
C2038 C2033 1.363 . S
C2038 C2037 1.415 . S
C2039 H2015 0.951 . S
C2039 C2040 1.366 . S
C2039 C2041 1.388 . S
C2040 C2039 1.366 . S
C2040 C2044 1.385 . S
C2041 H2016 0.951 . S
C2041 C2039 1.388 . S
C2041 C2042 1.366 . S
C2042 C2041 1.366 . S
C2042 C2043 1.414 . S
C2042 C2045 1.499 . S
C2043 H2017 0.950 . S
C2043 C2042 1.414 . S
C2043 C2044 1.374 . S
C2044 H2018 0.950 . S
C2044 C2040 1.385 . S
C2044 C2043 1.374 . S
C2045 C2042 1.499 . S
C2045 C2046 1.373 . S
C2045 C2047 1.389 . S
C2046 H2019 0.950 . S
C2046 C2032 1.377 . S
C2046 C2045 1.373 . S
C2047 C2031 1.377 . S
C2047 C2045 1.389 . S
C2047 C2048 1.524 . S
C2048 C2047 1.524 . S
C2048 C2049 1.397 . S
C2048 C2053 1.363 . S
C2049 H2020 0.950 . S
C2049 C2048 1.397 . S
C2049 C2050 1.334 . S
C2050 H2021 0.950 . S
C2050 C2049 1.334 . S
C2050 C2051 1.287 . S
C2051 C2050 1.287 . S
C2051 C2052 1.524 . S
C2051 H2054 0.999 . S
C2052 H2022 0.950 . S
C2052 C2051 1.524 . S
C2052 C2053 1.415 . S
C2053 H2023 0.950 . S
C2053 C2048 1.363 . S
C2053 C2052 1.415 . S
H2054 C2051 0.999 . S
H2055 C2036 0.913 . S
H2056 C2074 0.951 . S
H2057 C2076 0.951 . S
H2058 C2078 0.950 . S
H2059 C2079 0.950 . S
H2060 C2081 0.950 . S
H2061 C2084 0.950 . S
H2062 C2085 0.950 . S
H2063 C2087 0.950 . S
H2064 C2088 0.950 . S
H2065 C2089 0.951 . S
H2066 C2091 0.951 . S
H2067 C2093 0.950 . S
H2068 C2094 0.950 . S
H2069 C2096 0.950 . S
H2070 C2099 0.950 . S
H2071 C2100 0.950 . S
H2072 C2102 0.950 . S
H2073 C2103 0.950 . S
C2074 H2056 0.951 . S
C2074 C2075 1.366 . S
C2074 C2076 1.388 . S
C2075 C2074 1.366 . S
C2075 C2079 1.385 . S
C2076 H2057 0.951 . S
C2076 C2074 1.388 . S
C2076 C2077 1.366 . S
C2077 C2076 1.366 . S
C2077 C2078 1.414 . S
C2077 C2080 1.499 . S
C2078 H2058 0.950 . S
C2078 C2077 1.414 . S
C2078 C2079 1.374 . S
C2079 H2059 0.950 . S
C2079 C2075 1.385 . S
C2079 C2078 1.374 . S
C2080 C2077 1.499 . S
C2080 C2081 1.373 . S
C2080 C2082 1.347 1_655 S
C2081 H2060 0.950 . S
C2081 C2080 1.373 . S
C2081 C2097 1.377 . S
C2082 C2080 1.347 1_455 S
C2082 C2083 1.551 . S
C2082 C2096 1.399 . S
C2083 C2082 1.551 . S
C2083 C2084 1.397 . S
C2083 C2088 1.363 . S
C2084 H2061 0.950 . S
C2084 C2083 1.397 . S
C2084 C2085 1.334 . S
C2085 H2062 0.950 . S
C2085 C2084 1.334 . S
C2085 C2086 1.287 . S
C2086 C2085 1.287 . S
C2086 C2087 1.524 . S
C2086 H2105 0.913 . S
C2087 H2063 0.950 . S
C2087 C2086 1.524 . S
C2087 C2088 1.415 . S
C2088 H2064 0.950 . S
C2088 C2083 1.363 . S
C2088 C2087 1.415 . S
C2089 H2065 0.951 . S
C2089 C2090 1.366 . S
C2089 C2091 1.388 . S
C2090 C2089 1.366 . S
C2090 C2094 1.385 . S
C2091 H2066 0.951 . S
C2091 C2089 1.388 . S
C2091 C2092 1.366 . S
C2092 C2091 1.366 . S
C2092 C2093 1.414 . S
C2092 C2095 1.526 . S
C2093 H2067 0.950 . S
C2093 C2092 1.414 . S
C2093 C2094 1.374 . S
C2094 H2068 0.950 . S
C2094 C2090 1.385 . S
C2094 C2093 1.374 . S
C2095 C2092 1.526 . S
C2095 C2096 1.397 . S
C2095 C2097 1.343 1_455 S
C2096 H2069 0.950 . S
C2096 C2082 1.399 . S
C2096 C2095 1.397 . S
C2097 C2081 1.377 . S
C2097 C2095 1.343 1_655 S
C2097 C2098 1.524 . S
C2098 C2097 1.524 . S
C2098 C2099 1.397 . S
C2098 C2103 1.363 . S
C2099 H2070 0.950 . S
C2099 C2098 1.397 . S
C2099 C2100 1.334 . S
C2100 H2071 0.950 . S
C2100 C2099 1.334 . S
C2100 C2101 1.287 . S
C2101 C2100 1.287 . S
C2101 C2102 1.524 . S
C2101 H2104 0.999 . S
C2102 H2072 0.950 . S
C2102 C2101 1.524 . S
C2102 C2103 1.415 . S
C2103 H2073 0.950 . S
C2103 C2098 1.363 . S
C2103 C2102 1.415 . S
H2104 C2101 0.999 . S
H2105 C2086 0.913 . S
H2106 C2124 0.951 . S
H2107 C2126 0.951 . S
H2108 C2128 0.950 . S
H2109 C2129 0.950 . S
H2110 C2131 0.950 . S
H2111 C2134 0.950 . S
H2112 C2135 0.950 . S
H2113 C2137 0.950 . S
H2114 C2138 0.950 . S
H2115 C2139 0.951 . S
H2116 C2141 0.951 . S
H2117 C2143 0.950 . S
H2118 C2144 0.950 . S
H2119 C2146 0.950 . S
H2120 C2149 0.950 . S
H2121 C2150 0.950 . S
H2122 C2152 0.950 . S
H2123 C2153 0.950 . S
C2124 H2106 0.951 . S
C2124 C2125 1.366 . S
C2124 C2126 1.388 . S
C2125 C2124 1.366 . S
C2125 C2129 1.385 . S
C2126 H2107 0.951 . S
C2126 C2124 1.388 . S
C2126 C2127 1.366 . S
C2127 C2126 1.366 . S
C2127 C2128 1.414 . S
C2127 C2130 1.499 . S
C2128 H2108 0.950 . S
C2128 C2127 1.414 . S
C2128 C2129 1.374 . S
C2129 H2109 0.950 . S
C2129 C2125 1.385 . S
C2129 C2128 1.374 . S
C2130 C2127 1.499 . S
C2130 C2131 1.373 . S
C2130 C2132 1.389 . S
C2131 H2110 0.950 . S
C2131 C2130 1.373 . S
C2131 C2147 1.377 . S
C2132 C2130 1.389 . S
C2132 C2133 1.524 . S
C2132 C2146 1.377 . S
C2133 C2132 1.524 . S
C2133 C2134 1.397 . S
C2133 C2138 1.363 . S
C2134 H2111 0.950 . S
C2134 C2133 1.397 . S
C2134 C2135 1.334 . S
C2135 H2112 0.950 . S
C2135 C2134 1.334 . S
C2135 C2136 1.287 . S
C2136 C2135 1.287 . S
C2136 C2137 1.524 . S
C2136 H2155 0.913 . S
C2137 H2113 0.950 . S
C2137 C2136 1.524 . S
C2137 C2138 1.415 . S
C2138 H2114 0.950 . S
C2138 C2133 1.363 . S
C2138 C2137 1.415 . S
C2139 H2115 0.951 . S
C2139 C2140 1.366 . S
C2139 C2141 1.388 . S
C2140 C2139 1.366 . S
C2140 C2144 1.385 . S
C2141 H2116 0.951 . S
C2141 C2139 1.388 . S
C2141 C2142 1.366 . S
C2142 C2141 1.366 . S
C2142 C2143 1.414 . S
C2142 C2145 1.499 . S
C2143 H2117 0.950 . S
C2143 C2142 1.414 . S
C2143 C2144 1.374 . S
C2144 H2118 0.950 . S
C2144 C2140 1.385 . S
C2144 C2143 1.374 . S
C2145 C2142 1.499 . S
C2145 C2146 1.373 . S
C2145 C2147 1.389 . S
C2146 H2119 0.950 . S
C2146 C2132 1.377 . S
C2146 C2145 1.373 . S
C2147 C2131 1.377 . S
C2147 C2145 1.389 . S
C2147 C2148 1.524 . S
C2148 C2147 1.524 . S
C2148 C2149 1.397 . S
C2148 C2153 1.363 . S
C2149 H2120 0.950 . S
C2149 C2148 1.397 . S
C2149 C2150 1.334 . S
C2150 H2121 0.950 . S
C2150 C2149 1.334 . S
C2150 C2151 1.287 . S
C2151 C2150 1.287 . S
C2151 C2152 1.524 . S
C2151 H2154 0.999 . S
C2152 H2122 0.950 . S
C2152 C2151 1.524 . S
C2152 C2153 1.415 . S
C2153 H2123 0.950 . S
C2153 C2148 1.363 . S
C2153 C2152 1.415 . S
H2154 C2151 0.999 . S
H2155 C2136 0.913 . S
H2156 C2174 0.951 . S
H2157 C2176 0.951 . S
H2158 C2178 0.950 . S
H2159 C2179 0.950 . S
H2160 C2181 0.950 . S
H2161 C2184 0.950 . S
H2162 C2185 0.950 . S
H2163 C2187 0.950 . S
H2164 C2188 0.950 . S
H2165 C2189 0.951 . S
H2166 C2191 0.951 . S
H2167 C2193 0.950 . S
H2168 C2194 0.950 . S
H2169 C2196 0.950 . S
H2170 C2199 0.989 . S
H2171 C2200 0.950 . S
H2172 C2202 0.950 . S
H2173 C2203 0.950 . S
C2174 H2156 0.951 . S
C2174 C2175 1.366 . S
C2174 C2176 1.388 . S
C2175 C2174 1.366 . S
C2175 C2179 1.385 . S
C2176 H2157 0.951 . S
C2176 C2174 1.388 . S
C2176 C2177 1.366 . S
C2177 C2176 1.366 . S
C2177 C2178 1.414 . S
C2177 C2180 1.499 . S
C2178 H2158 0.950 . S
C2178 C2177 1.414 . S
C2178 C2179 1.374 . S
C2179 H2159 0.950 . S
C2179 C2175 1.385 . S
C2179 C2178 1.374 . S
C2180 C2177 1.499 . S
C2180 C2181 1.373 . S
C2180 C2182 1.389 . S
C2181 H2160 0.950 . S
C2181 C2180 1.373 . S
C2181 C2197 1.377 . S
C2182 C2180 1.389 . S
C2182 C2183 1.524 . S
C2182 C2196 1.377 . S
C2183 C2182 1.524 . S
C2183 C2184 1.397 . S
C2183 C2188 1.363 . S
C2184 H2161 0.950 . S
C2184 C2183 1.397 . S
C2184 C2185 1.334 . S
C2185 H2162 0.950 . S
C2185 C2184 1.334 . S
C2185 C2186 1.287 . S
C2186 C2185 1.287 . S
C2186 C2187 1.524 . S
C2186 H2205 0.913 . S
C2187 H2163 0.950 . S
C2187 C2186 1.524 . S
C2187 C2188 1.415 . S
C2188 H2164 0.950 . S
C2188 C2183 1.363 . S
C2188 C2187 1.415 . S
C2189 H2165 0.951 . S
C2189 C2190 1.366 . S
C2189 C2191 1.388 . S
C2190 C2189 1.366 . S
C2190 C2194 1.385 . S
C2191 H2166 0.951 . S
C2191 C2189 1.388 . S
C2191 C2192 1.366 . S
C2192 C2191 1.366 . S
C2192 C2193 1.414 . S
C2192 C2195 1.499 . S
C2193 H2167 0.950 . S
C2193 C2192 1.414 . S
C2193 C2194 1.374 . S
C2194 H2168 0.950 . S
C2194 C2190 1.385 . S
C2194 C2193 1.374 . S
C2195 C2192 1.499 . S
C2195 C2196 1.373 . S
C2195 C2197 1.389 . S
C2196 H2169 0.950 . S
C2196 C2182 1.377 . S
C2196 C2195 1.373 . S
C2197 C2181 1.377 . S
C2197 C2195 1.389 . S
C2197 C2198 1.489 1_545 S
C2198 C2197 1.489 1_565 S
C2198 C2199 1.384 1_565 S
C2198 C2203 1.407 . S
C2199 H2170 0.989 . S
C2199 C2198 1.384 1_545 S
C2199 C2200 1.304 1_545 S
C2200 H2171 0.950 . S
C2200 C2199 1.304 1_565 S
C2200 C2201 1.287 . S
C2201 C2200 1.287 . S
C2201 C2202 1.524 . S
C2201 H2204 0.999 . S
C2202 H2172 0.950 . S
C2202 C2201 1.524 . S
C2202 C2203 1.415 . S
C2203 H2173 0.950 . S
C2203 C2198 1.407 . S
C2203 C2202 1.415 . S
H2204 C2201 0.999 . S
H2205 C2186 0.913 . S
H2206 C2224 0.951 . S
H2207 C2226 0.951 . S
H2208 C2228 0.950 . S
H2209 C2229 0.950 . S
H2210 C2231 0.950 . S
H2211 C2234 0.950 . S
H2212 C2235 0.950 . S
H2213 C2237 0.950 . S
H2214 C2238 0.950 . S
H2215 C2239 0.951 . S
H2216 C2241 0.951 . S
H2217 C2243 0.950 . S
H2218 C2244 0.950 . S
H2219 C2246 0.950 . S
H2220 C2249 0.950 . S
H2221 C2250 0.950 . S
H2222 C2252 0.950 . S
H2223 C2253 0.950 . S
C2224 H2206 0.951 . S
C2224 C2225 1.366 . S
C2224 C2226 1.388 . S
C2225 C2224 1.366 . S
C2225 C2229 1.385 . S
C2226 H2207 0.951 . S
C2226 C2224 1.388 . S
C2226 C2227 1.366 . S
C2227 C2226 1.366 . S
C2227 C2228 1.414 . S
C2227 C2230 1.499 . S
C2228 H2208 0.950 . S
C2228 C2227 1.414 . S
C2228 C2229 1.374 . S
C2229 H2209 0.950 . S
C2229 C2225 1.385 . S
C2229 C2228 1.374 . S
C2230 C2227 1.499 . S
C2230 C2231 1.373 . S
C2230 C2232 1.389 . S
C2231 H2210 0.950 . S
C2231 C2230 1.373 . S
C2231 C2247 1.377 . S
C2232 C2230 1.389 . S
C2232 C2233 1.524 . S
C2232 C2246 1.377 . S
C2233 C2232 1.524 . S
C2233 C2234 1.397 . S
C2233 C2238 1.363 . S
C2234 H2211 0.950 . S
C2234 C2233 1.397 . S
C2234 C2235 1.334 . S
C2235 H2212 0.950 . S
C2235 C2234 1.334 . S
C2235 C2236 1.287 . S
C2236 C2235 1.287 . S
C2236 C2237 1.524 . S
C2236 H2255 0.913 . S
C2237 H2213 0.950 . S
C2237 C2236 1.524 . S
C2237 C2238 1.415 . S
C2238 H2214 0.950 . S
C2238 C2233 1.363 . S
C2238 C2237 1.415 . S
C2239 H2215 0.951 . S
C2239 C2240 1.366 . S
C2239 C2241 1.388 . S
C2240 C2239 1.366 . S
C2240 C2244 1.385 . S
C2241 H2216 0.951 . S
C2241 C2239 1.388 . S
C2241 C2242 1.366 . S
C2242 C2241 1.366 . S
C2242 C2243 1.414 . S
C2242 C2245 1.499 . S
C2243 H2217 0.950 . S
C2243 C2242 1.414 . S
C2243 C2244 1.374 . S
C2244 H2218 0.950 . S
C2244 C2240 1.385 . S
C2244 C2243 1.374 . S
C2245 C2242 1.499 . S
C2245 C2246 1.373 . S
C2245 C2247 1.389 . S
C2246 H2219 0.950 . S
C2246 C2232 1.377 . S
C2246 C2245 1.373 . S
C2247 C2231 1.377 . S
C2247 C2245 1.389 . S
C2247 C2248 1.524 . S
C2248 C2247 1.524 . S
C2248 C2249 1.397 . S
C2248 C2253 1.363 . S
C2249 H2220 0.950 . S
C2249 C2248 1.397 . S
C2249 C2250 1.334 . S
C2250 H2221 0.950 . S
C2250 C2249 1.334 . S
C2250 C2251 1.287 . S
C2251 C2250 1.287 . S
C2251 C2252 1.524 . S
C2251 H2254 0.999 . S
C2252 H2222 0.950 . S
C2252 C2251 1.524 . S
C2252 C2253 1.415 . S
C2253 H2223 0.950 . S
C2253 C2248 1.363 . S
C2253 C2252 1.415 . S
H2254 C2251 0.999 . S
H2255 C2236 0.913 . S
H2256 C2274 0.951 . S
H2257 C2276 0.951 . S
H2258 C2278 0.950 . S
H2259 C2279 0.950 . S
H2260 C2281 0.941 . S
H2261 C2284 0.950 . S
H2262 C2285 0.950 . S
H2263 C2287 0.950 . S
H2264 C2288 0.950 . S
H2265 C2289 0.951 . S
H2266 C2291 0.951 . S
H2267 C2293 0.950 . S
H2268 C2294 0.950 . S
H2269 C2296 0.945 . S
H2270 C2299 0.950 . S
H2271 C2300 0.950 . S
H2272 C2302 0.950 . S
H2273 C2303 0.950 . S
C2274 H2256 0.951 . S
C2274 C2275 1.366 . S
C2274 C2276 1.388 . S
C2275 C2274 1.366 . S
C2275 C2279 1.385 . S
C2276 H2257 0.951 . S
C2276 C2274 1.388 . S
C2276 C2277 1.366 . S
C2277 C2276 1.366 . S
C2277 C2278 1.414 . S
C2277 C2280 1.499 . S
C2278 H2258 0.950 . S
C2278 C2277 1.414 . S
C2278 C2279 1.374 . S
C2279 H2259 0.950 . S
C2279 C2275 1.385 . S
C2279 C2278 1.374 . S
C2280 C2277 1.499 . S
C2280 C2281 1.354 1_655 S
C2280 C2282 1.389 . S
C2281 H2260 0.941 . S
C2281 C2280 1.354 1_455 S
C2281 C2297 1.411 . S
C2282 C2280 1.389 . S
C2282 C2283 1.524 . S
C2282 C2296 1.392 . S
C2283 C2282 1.524 . S
C2283 C2284 1.397 . S
C2283 C2288 1.363 . S
C2284 H2261 0.950 . S
C2284 C2283 1.397 . S
C2284 C2285 1.334 . S
C2285 H2262 0.950 . S
C2285 C2284 1.334 . S
C2285 C2286 1.287 1_545 S
C2286 C2285 1.287 1_565 S
C2286 C2287 1.524 . S
C2286 H2305 0.913 . S
C2287 H2263 0.950 . S
C2287 C2286 1.524 . S
C2287 C2288 1.415 1_565 S
C2288 H2264 0.950 . S
C2288 C2283 1.363 . S
C2288 C2287 1.415 1_545 S
C2289 H2265 0.951 . S
C2289 C2290 1.366 . S
C2289 C2291 1.388 . S
C2290 C2289 1.366 . S
C2290 C2294 1.385 . S
C2291 H2266 0.951 . S
C2291 C2289 1.388 . S
C2291 C2292 1.366 . S
C2292 C2291 1.366 . S
C2292 C2293 1.414 . S
C2292 C2295 1.499 . S
C2293 H2267 0.950 . S
C2293 C2292 1.414 . S
C2293 C2294 1.374 . S
C2294 H2268 0.950 . S
C2294 C2290 1.385 . S
C2294 C2293 1.374 . S
C2295 C2292 1.499 . S
C2295 C2296 1.364 1_455 S
C2295 C2297 1.389 . S
C2296 H2269 0.945 . S
C2296 C2282 1.392 . S
C2296 C2295 1.364 1_655 S
C2297 C2281 1.411 . S
C2297 C2295 1.389 . S
C2297 C2298 1.524 . S
C2298 C2297 1.524 . S
C2298 C2299 1.397 . S
C2298 C2303 1.363 . S
C2299 H2270 0.950 . S
C2299 C2298 1.397 . S
C2299 C2300 1.334 . S
C2300 H2271 0.950 . S
C2300 C2299 1.334 . S
C2300 C2301 1.287 . S
C2301 C2300 1.287 . S
C2301 C2302 1.524 . S
C2301 H2304 0.999 . S
C2302 H2272 0.950 . S
C2302 C2301 1.524 . S
C2302 C2303 1.415 . S
C2303 H2273 0.950 . S
C2303 C2298 1.363 . S
C2303 C2302 1.415 . S
H2304 C2301 0.999 . S
H2305 C2286 0.913 . S
H2306 C2324 0.951 . S
H2307 C2326 0.951 . S
H2308 C2328 0.950 . S
H2309 C2329 0.950 . S
H2310 C2331 0.950 . S
H2311 C2334 0.950 . S
H2312 C2335 0.950 . S
H2313 C2337 0.950 . S
H2314 C2338 0.950 . S
H2315 C2339 0.951 . S
H2316 C2341 0.951 . S
H2317 C2343 0.950 . S
H2318 C2344 0.950 . S
H2319 C2346 0.950 . S
H2320 C2349 0.950 . S
H2321 C2350 0.950 . S
H2322 C2352 0.950 . S
H2323 C2353 0.950 . S
C2324 H2306 0.951 . S
C2324 C2325 1.366 . S
C2324 C2326 1.388 . S
C2325 C2324 1.366 . S
C2325 C2329 1.385 . S
C2326 H2307 0.951 . S
C2326 C2324 1.388 . S
C2326 C2327 1.366 . S
C2327 C2326 1.366 . S
C2327 C2328 1.414 . S
C2327 C2330 1.499 . S
C2328 H2308 0.950 . S
C2328 C2327 1.414 . S
C2328 C2329 1.374 . S
C2329 H2309 0.950 . S
C2329 C2325 1.385 . S
C2329 C2328 1.374 . S
C2330 C2327 1.499 . S
C2330 C2331 1.373 . S
C2330 C2332 1.389 . S
C2331 H2310 0.950 . S
C2331 C2330 1.373 . S
C2331 C2347 1.377 . S
C2332 C2330 1.389 . S
C2332 C2333 1.524 . S
C2332 C2346 1.377 . S
C2333 C2332 1.524 . S
C2333 C2334 1.397 . S
C2333 C2338 1.363 . S
C2334 H2311 0.950 . S
C2334 C2333 1.397 . S
C2334 C2335 1.334 . S
C2335 H2312 0.950 . S
C2335 C2334 1.334 . S
C2335 C2336 1.287 . S
C2336 C2335 1.287 . S
C2336 C2337 1.524 . S
C2336 H2355 0.913 . S
C2337 H2313 0.950 . S
C2337 C2336 1.524 . S
C2337 C2338 1.415 . S
C2338 H2314 0.950 . S
C2338 C2333 1.363 . S
C2338 C2337 1.415 . S
C2339 H2315 0.951 . S
C2339 C2340 1.366 . S
C2339 C2341 1.388 . S
C2340 C2339 1.366 . S
C2340 C2344 1.385 . S
C2341 H2316 0.951 . S
C2341 C2339 1.388 . S
C2341 C2342 1.366 . S
C2342 C2341 1.366 . S
C2342 C2343 1.414 . S
C2342 C2345 1.499 . S
C2343 H2317 0.950 . S
C2343 C2342 1.414 . S
C2343 C2344 1.374 . S
C2344 H2318 0.950 . S
C2344 C2340 1.385 . S
C2344 C2343 1.374 . S
C2345 C2342 1.499 . S
C2345 C2346 1.373 . S
C2345 C2347 1.389 . S
C2346 H2319 0.950 . S
C2346 C2332 1.377 . S
C2346 C2345 1.373 . S
C2347 C2331 1.377 . S
C2347 C2345 1.389 . S
C2347 C2348 1.524 . S
C2348 C2347 1.524 . S
C2348 C2349 1.397 . S
C2348 C2353 1.363 . S
C2349 H2320 0.950 . S
C2349 C2348 1.397 . S
C2349 C2350 1.334 . S
C2350 H2321 0.950 . S
C2350 C2349 1.334 . S
C2350 C2351 1.287 . S
C2351 C2350 1.287 . S
C2351 C2352 1.524 . S
C2351 H2354 0.999 . S
C2352 H2322 0.950 . S
C2352 C2351 1.524 . S
C2352 C2353 1.415 . S
C2353 H2323 0.950 . S
C2353 C2348 1.363 . S
C2353 C2352 1.415 . S
H2354 C2351 0.999 . S
H2355 C2336 0.913 . S
H2356 C2374 0.951 . S
H2357 C2376 0.951 . S
H2358 C2378 0.950 . S
H2359 C2379 0.950 . S
H2360 C2381 0.950 . S
H2361 C2384 0.950 . S
H2362 C2385 0.950 . S
H2363 C2387 0.950 . S
H2364 C2388 0.950 . S
H2365 C2389 0.951 . S
H2366 C2391 0.951 . S
H2367 C2393 0.950 . S
H2368 C2394 0.950 . S
H2369 C2396 0.950 . S
H2370 C2399 0.922 1_545 S
H2371 C2400 0.950 . S
H2372 C2402 0.950 . S
H2373 C2403 0.950 . S
C2374 H2356 0.951 . S
C2374 C2375 1.366 . S
C2374 C2376 1.388 . S
C2375 C2374 1.366 . S
C2375 C2379 1.385 . S
C2376 H2357 0.951 . S
C2376 C2374 1.388 . S
C2376 C2377 1.366 . S
C2377 C2376 1.366 . S
C2377 C2378 1.414 . S
C2377 C2380 1.499 . S
C2378 H2358 0.950 . S
C2378 C2377 1.414 . S
C2378 C2379 1.374 . S
C2379 H2359 0.950 . S
C2379 C2375 1.385 . S
C2379 C2378 1.374 . S
C2380 C2377 1.499 . S
C2380 C2381 1.373 . S
C2380 C2382 1.389 . S
C2381 H2360 0.950 . S
C2381 C2380 1.373 . S
C2381 C2397 1.377 . S
C2382 C2380 1.389 . S
C2382 C2383 1.524 . S
C2382 C2396 1.377 . S
C2383 C2382 1.524 . S
C2383 C2384 1.397 . S
C2383 C2388 1.363 . S
C2384 H2361 0.950 . S
C2384 C2383 1.397 . S
C2384 C2385 1.334 . S
C2385 H2362 0.950 . S
C2385 C2384 1.334 . S
C2385 C2386 1.287 . S
C2386 C2385 1.287 . S
C2386 C2387 1.524 . S
C2386 H2405 0.913 . S
C2387 H2363 0.950 . S
C2387 C2386 1.524 . S
C2387 C2388 1.415 . S
C2388 H2364 0.950 . S
C2388 C2383 1.363 . S
C2388 C2387 1.415 . S
C2389 H2365 0.951 . S
C2389 C2390 1.366 . S
C2389 C2391 1.388 . S
C2390 C2389 1.366 . S
C2390 C2394 1.385 . S
C2391 H2366 0.951 . S
C2391 C2389 1.388 . S
C2391 C2392 1.366 . S
C2392 C2391 1.366 . S
C2392 C2393 1.414 . S
C2392 C2395 1.499 . S
C2393 H2367 0.950 . S
C2393 C2392 1.414 . S
C2393 C2394 1.374 . S
C2394 H2368 0.950 . S
C2394 C2390 1.385 . S
C2394 C2393 1.374 . S
C2395 C2392 1.499 . S
C2395 C2396 1.373 . S
C2395 C2397 1.389 . S
C2396 H2369 0.950 . S
C2396 C2382 1.377 . S
C2396 C2395 1.373 . S
C2397 C2381 1.377 . S
C2397 C2395 1.389 . S
C2397 C2398 1.524 . S
C2398 C2397 1.524 . S
C2398 C2399 1.383 1_545 S
C2398 C2403 1.363 . S
C2399 H2370 0.922 1_565 S
C2399 C2398 1.383 1_565 S
C2399 C2400 1.377 . S
C2400 H2371 0.950 . S
C2400 C2399 1.377 . S
C2400 C2401 1.287 . S
C2401 C2400 1.287 . S
C2401 C2402 1.524 . S
C2401 H2404 0.999 . S
C2402 H2372 0.950 . S
C2402 C2401 1.524 . S
C2402 C2403 1.415 1_565 S
C2403 H2373 0.950 . S
C2403 C2398 1.363 . S
C2403 C2402 1.415 1_545 S
H2404 C2401 0.999 . S
H2405 C2386 0.913 . S
H2406 C2424 0.951 . S
H2407 C2426 0.951 . S
H2408 C2428 0.950 . S
H2409 C2429 0.950 . S
H2410 C2431 0.950 . S
H2411 C2434 0.950 . S
H2412 C2435 0.950 . S
H2413 C2437 0.950 . S
H2414 C2438 0.950 . S
H2415 C2439 0.951 . S
H2416 C2441 0.951 . S
H2417 C2443 0.950 . S
H2418 C2444 0.950 . S
H2419 C2446 0.950 . S
H2420 C2449 0.950 . S
H2421 C2450 0.950 . S
H2422 C2452 0.950 . S
H2423 C2453 0.950 . S
C2424 H2406 0.951 . S
C2424 C2425 1.366 . S
C2424 C2426 1.388 . S
C2425 C2424 1.366 . S
C2425 C2429 1.385 . S
C2426 H2407 0.951 . S
C2426 C2424 1.388 . S
C2426 C2427 1.366 . S
C2427 C2426 1.366 . S
C2427 C2428 1.414 . S
C2427 C2430 1.499 . S
C2428 H2408 0.950 . S
C2428 C2427 1.414 . S
C2428 C2429 1.374 . S
C2429 H2409 0.950 . S
C2429 C2425 1.385 . S
C2429 C2428 1.374 . S
C2430 C2427 1.499 . S
C2430 C2431 1.373 . S
C2430 C2432 1.389 . S
C2431 H2410 0.950 . S
C2431 C2430 1.373 . S
C2431 C2447 1.377 . S
C2432 C2430 1.389 . S
C2432 C2433 1.524 . S
C2432 C2446 1.377 . S
C2433 C2432 1.524 . S
C2433 C2434 1.397 . S
C2433 C2438 1.363 . S
C2434 H2411 0.950 . S
C2434 C2433 1.397 . S
C2434 C2435 1.334 . S
C2435 H2412 0.950 . S
C2435 C2434 1.334 . S
C2435 C2436 1.287 . S
C2436 C2435 1.287 . S
C2436 C2437 1.524 . S
C2436 H2455 0.913 . S
C2437 H2413 0.950 . S
C2437 C2436 1.524 . S
C2437 C2438 1.415 . S
C2438 H2414 0.950 . S
C2438 C2433 1.363 . S
C2438 C2437 1.415 . S
C2439 H2415 0.951 . S
C2439 C2440 1.366 . S
C2439 C2441 1.388 . S
C2440 C2439 1.366 . S
C2440 C2444 1.385 . S
C2441 H2416 0.951 . S
C2441 C2439 1.388 . S
C2441 C2442 1.366 . S
C2442 C2441 1.366 . S
C2442 C2443 1.414 . S
C2442 C2445 1.499 . S
C2443 H2417 0.950 . S
C2443 C2442 1.414 . S
C2443 C2444 1.374 . S
C2444 H2418 0.950 . S
C2444 C2440 1.385 . S
C2444 C2443 1.374 . S
C2445 C2442 1.499 . S
C2445 C2446 1.373 . S
C2445 C2447 1.389 . S
C2446 H2419 0.950 . S
C2446 C2432 1.377 . S
C2446 C2445 1.373 . S
C2447 C2431 1.377 . S
C2447 C2445 1.389 . S
C2447 C2448 1.524 . S
C2448 C2447 1.524 . S
C2448 C2449 1.397 . S
C2448 C2453 1.363 . S
C2449 H2420 0.950 . S
C2449 C2448 1.397 . S
C2449 C2450 1.334 . S
C2450 H2421 0.950 . S
C2450 C2449 1.334 . S
C2450 C2451 1.287 . S
C2451 C2450 1.287 . S
C2451 C2452 1.524 . S
C2451 H2454 0.999 . S
C2452 H2422 0.950 . S
C2452 C2451 1.524 . S
C2452 C2453 1.415 . S
C2453 H2423 0.950 . S
C2453 C2448 1.363 . S
C2453 C2452 1.415 . S
H2454 C2451 0.999 . S
H2455 C2436 0.913 . S
H2456 C2474 0.951 . S
H2457 C2476 0.951 . S
H2458 C2478 0.950 . S
H2459 C2479 0.950 . S
H2460 C2481 0.950 1_545 S
H2461 C2484 0.950 . S
H2462 C2485 0.950 . S
H2463 C2487 0.950 . S
H2464 C2488 0.949 . S
H2465 C2489 0.951 . S
H2466 C2491 0.951 . S
H2467 C2493 0.950 . S
H2468 C2494 0.950 . S
H2469 C2496 0.950 . S
H2470 C2499 0.950 . S
H2471 C2500 0.950 . S
H2472 C2502 0.950 . S
H2473 C2503 0.950 . S
C2474 H2456 0.951 . S
C2474 C2475 1.366 . S
C2474 C2476 1.388 . S
C2475 C2474 1.366 . S
C2475 C2479 1.385 . S
C2476 H2457 0.951 . S
C2476 C2474 1.388 . S
C2476 C2477 1.366 . S
C2477 C2476 1.366 . S
C2477 C2478 1.414 . S
C2477 C2480 1.499 . S
C2478 H2458 0.950 . S
C2478 C2477 1.414 . S
C2478 C2479 1.374 . S
C2479 H2459 0.950 . S
C2479 C2475 1.385 . S
C2479 C2478 1.374 . S
C2480 C2477 1.499 . S
C2480 C2481 1.373 . S
C2480 C2482 1.389 . S
C2481 H2460 0.950 1_565 S
C2481 C2480 1.373 . S
C2481 C2497 1.359 1_565 S
C2482 C2480 1.389 . S
C2482 C2483 1.524 1_554 S
C2482 C2496 1.377 . S
C2483 C2482 1.524 1_556 S
C2483 C2484 1.397 . S
C2483 C2488 1.363 . S
C2484 H2461 0.950 . S
C2484 C2483 1.397 . S
C2484 C2485 1.334 . S
C2485 H2462 0.950 . S
C2485 C2484 1.334 . S
C2485 C2486 1.287 . S
C2486 C2485 1.287 . S
C2486 C2487 1.524 . S
C2486 H2505 0.913 . S
C2487 H2463 0.950 . S
C2487 C2486 1.524 . S
C2487 C2488 1.415 . S
C2488 H2464 0.949 . S
C2488 C2483 1.363 . S
C2488 C2487 1.415 . S
C2489 H2465 0.951 . S
C2489 C2490 1.366 . S
C2489 C2491 1.388 . S
C2490 C2489 1.366 . S
C2490 C2494 1.385 1_545 S
C2491 H2466 0.951 . S
C2491 C2489 1.388 . S
C2491 C2492 1.366 1_545 S
C2492 C2491 1.366 1_565 S
C2492 C2493 1.414 . S
C2492 C2495 1.499 . S
C2493 H2467 0.950 . S
C2493 C2492 1.414 . S
C2493 C2494 1.374 . S
C2494 H2468 0.950 . S
C2494 C2490 1.385 1_565 S
C2494 C2493 1.374 . S
C2495 C2492 1.499 . S
C2495 C2496 1.373 . S
C2495 C2497 1.381 1_565 S
C2496 H2469 0.950 . S
C2496 C2482 1.377 . S
C2496 C2495 1.373 . S
C2497 C2481 1.359 1_545 S
C2497 C2495 1.381 1_545 S
C2497 C2498 1.550 . S
C2498 C2497 1.550 . S
C2498 C2499 1.397 . S
C2498 C2503 1.363 . S
C2499 H2470 0.950 . S
C2499 C2498 1.397 . S
C2499 C2500 1.334 . S
C2500 H2471 0.950 . S
C2500 C2499 1.334 . S
C2500 C2501 1.287 . S
C2501 C2500 1.287 . S
C2501 C2502 1.524 . S
C2501 H2504 0.999 . S
C2502 H2472 0.950 . S
C2502 C2501 1.524 . S
C2502 C2503 1.415 . S
C2503 H2473 0.950 . S
C2503 C2498 1.363 . S
C2503 C2502 1.415 . S
H2504 C2501 0.999 . S
H2505 C2486 0.913 . S
H2506 C2524 0.951 . S
H2507 C2526 0.951 . S
H2508 C2528 0.960 . S
H2509 C2529 0.950 . S
H2510 C2531 0.950 . S
H2511 C2534 0.950 . S
H2512 C2535 0.950 . S
H2513 C2537 0.950 . S
H2514 C2538 0.950 . S
H2515 C2539 0.951 . S
H2516 C2541 0.951 . S
H2517 C2543 0.945 1_556 S
H2518 C2544 0.951 1_556 S
H2519 C2546 0.950 . S
H2520 C2549 0.950 . S
H2521 C2550 0.950 . S
H2522 C2552 0.950 . S
H2523 C2553 0.950 . S
C2524 H2506 0.951 . S
C2524 C2525 1.366 . S
C2524 C2526 1.388 . S
C2525 C2524 1.366 . S
C2525 C2529 1.384 1_556 S
C2526 H2507 0.951 . S
C2526 C2524 1.388 . S
C2526 C2527 1.366 . S
C2527 C2526 1.366 . S
C2527 C2528 1.418 1_556 S
C2527 C2530 1.499 . S
C2528 H2508 0.960 . S
C2528 C2527 1.418 1_554 S
C2528 C2529 1.365 . S
C2529 H2509 0.950 . S
C2529 C2525 1.384 1_554 S
C2529 C2528 1.365 . S
C2530 C2527 1.499 . S
C2530 C2531 1.373 1_556 S
C2530 C2532 1.389 . S
C2531 H2510 0.950 . S
C2531 C2530 1.373 1_554 S
C2531 C2547 1.377 . S
C2532 C2530 1.389 . S
C2532 C2533 1.524 . S
C2532 C2546 1.377 . S
C2533 C2532 1.524 . S
C2533 C2534 1.397 . S
C2533 C2538 1.363 . S
C2534 H2511 0.950 . S
C2534 C2533 1.397 . S
C2534 C2535 1.334 . S
C2535 H2512 0.950 . S
C2535 C2534 1.334 . S
C2535 C2536 1.287 . S
C2536 C2535 1.287 . S
C2536 C2537 1.524 . S
C2536 H2555 0.913 . S
C2537 H2513 0.950 . S
C2537 C2536 1.524 . S
C2537 C2538 1.415 . S
C2538 H2514 0.950 . S
C2538 C2533 1.363 . S
C2538 C2537 1.415 . S
C2539 H2515 0.951 . S
C2539 C2540 1.366 . S
C2539 C2541 1.388 . S
C2540 C2539 1.366 . S
C2540 C2544 1.385 . S
C2541 H2516 0.951 . S
C2541 C2539 1.388 . S
C2541 C2542 1.366 . S
C2542 C2541 1.366 . S
C2542 C2543 1.412 . S
C2542 C2545 1.499 . S
C2543 H2517 0.945 1_554 S
C2543 C2542 1.412 . S
C2543 C2544 1.383 . S
C2544 H2518 0.951 1_554 S
C2544 C2540 1.385 . S
C2544 C2543 1.383 . S
C2545 C2542 1.499 . S
C2545 C2546 1.373 1_554 S
C2545 C2547 1.389 . S
C2546 H2519 0.950 . S
C2546 C2532 1.377 . S
C2546 C2545 1.373 1_556 S
C2547 C2531 1.377 . S
C2547 C2545 1.389 . S
C2547 C2548 1.524 . S
C2548 C2547 1.524 . S
C2548 C2549 1.397 . S
C2548 C2553 1.363 . S
C2549 H2520 0.950 . S
C2549 C2548 1.397 . S
C2549 C2550 1.334 . S
C2550 H2521 0.950 . S
C2550 C2549 1.334 . S
C2550 C2551 1.287 . S
C2551 C2550 1.287 . S
C2551 C2552 1.524 . S
C2551 H2554 0.999 . S
C2552 H2522 0.950 . S
C2552 C2551 1.524 . S
C2552 C2553 1.415 . S
C2553 H2523 0.950 . S
C2553 C2548 1.363 . S
C2553 C2552 1.415 . S
H2554 C2551 0.999 . S
H2555 C2536 0.913 . S
H2556 C2574 0.951 . S
H2557 C2576 0.951 . S
H2558 C2578 0.950 . S
H2559 C2579 0.950 . S
H2560 C2581 0.950 . S
H2561 C2584 0.950 . S
H2562 C2585 0.950 . S
H2563 C2587 0.950 . S
H2564 C2588 0.950 . S
H2565 C2589 0.951 . S
H2566 C2591 0.951 . S
H2567 C2593 0.950 . S
H2568 C2594 0.950 . S
H2569 C2596 0.950 . S
H2570 C2599 0.950 . S
H2571 C2600 0.950 . S
H2572 C2602 0.950 . S
H2573 C2603 0.950 . S
C2574 H2556 0.951 . S
C2574 C2575 1.366 . S
C2574 C2576 1.388 . S
C2575 C2574 1.366 . S
C2575 C2579 1.385 . S
C2576 H2557 0.951 . S
C2576 C2574 1.388 . S
C2576 C2577 1.366 . S
C2577 C2576 1.366 . S
C2577 C2578 1.414 . S
C2577 C2580 1.499 . S
C2578 H2558 0.950 . S
C2578 C2577 1.414 . S
C2578 C2579 1.374 . S
C2579 H2559 0.950 . S
C2579 C2575 1.385 . S
C2579 C2578 1.374 . S
C2580 C2577 1.499 . S
C2580 C2581 1.373 . S
C2580 C2582 1.389 . S
C2581 H2560 0.950 . S
C2581 C2580 1.373 . S
C2581 C2597 1.377 . S
C2582 C2580 1.389 . S
C2582 C2583 1.524 . S
C2582 C2596 1.377 . S
C2583 C2582 1.524 . S
C2583 C2584 1.397 . S
C2583 C2588 1.363 . S
C2584 H2561 0.950 . S
C2584 C2583 1.397 . S
C2584 C2585 1.334 . S
C2585 H2562 0.950 . S
C2585 C2584 1.334 . S
C2585 C2586 1.287 . S
C2586 C2585 1.287 . S
C2586 C2587 1.524 . S
C2586 H2605 0.913 . S
C2587 H2563 0.950 . S
C2587 C2586 1.524 . S
C2587 C2588 1.415 . S
C2588 H2564 0.950 . S
C2588 C2583 1.363 . S
C2588 C2587 1.415 . S
C2589 H2565 0.951 . S
C2589 C2590 1.366 . S
C2589 C2591 1.388 . S
C2590 C2589 1.366 . S
C2590 C2594 1.385 . S
C2591 H2566 0.951 . S
C2591 C2589 1.388 . S
C2591 C2592 1.366 . S
C2592 C2591 1.366 . S
C2592 C2593 1.414 . S
C2592 C2595 1.499 . S
C2593 H2567 0.950 . S
C2593 C2592 1.414 . S
C2593 C2594 1.374 . S
C2594 H2568 0.950 . S
C2594 C2590 1.385 . S
C2594 C2593 1.374 . S
C2595 C2592 1.499 . S
C2595 C2596 1.373 . S
C2595 C2597 1.389 . S
C2596 H2569 0.950 . S
C2596 C2582 1.377 . S
C2596 C2595 1.373 . S
C2597 C2581 1.377 . S
C2597 C2595 1.389 . S
C2597 C2598 1.524 . S
C2598 C2597 1.524 . S
C2598 C2599 1.397 . S
C2598 C2603 1.363 . S
C2599 H2570 0.950 . S
C2599 C2598 1.397 . S
C2599 C2600 1.334 . S
C2600 H2571 0.950 . S
C2600 C2599 1.334 . S
C2600 C2601 1.287 . S
C2601 C2600 1.287 . S
C2601 C2602 1.524 . S
C2601 H2604 0.999 . S
C2602 H2572 0.950 . S
C2602 C2601 1.524 . S
C2602 C2603 1.415 . S
C2603 H2573 0.950 . S
C2603 C2598 1.363 . S
C2603 C2602 1.415 . S
H2604 C2601 0.999 . S
H2605 C2586 0.913 . S
H2606 C2624 0.951 . S
H2607 C2626 0.951 . S
H2608 C2628 0.950 . S
H2609 C2629 0.950 . S
H2610 C2631 0.950 . S
H2611 C2634 0.950 . S
H2612 C2635 0.950 . S
H2613 C2637 0.950 . S
H2614 C2638 0.950 . S
H2615 C2639 0.951 . S
H2616 C2641 0.951 . S
H2617 C2643 0.950 . S
H2618 C2644 0.950 . S
H2619 C2646 0.950 . S
H2620 C2649 0.950 . S
H2621 C2650 0.950 . S
H2622 C2652 0.950 . S
H2623 C2653 0.950 . S
C2624 H2606 0.951 . S
C2624 C2625 1.366 . S
C2624 C2626 1.388 . S
C2625 C2624 1.366 . S
C2625 C2629 1.385 . S
C2626 H2607 0.951 . S
C2626 C2624 1.388 . S
C2626 C2627 1.366 . S
C2627 C2626 1.366 . S
C2627 C2628 1.414 . S
C2627 C2630 1.499 . S
C2628 H2608 0.950 . S
C2628 C2627 1.414 . S
C2628 C2629 1.374 . S
C2629 H2609 0.950 . S
C2629 C2625 1.385 . S
C2629 C2628 1.374 . S
C2630 C2627 1.499 . S
C2630 C2631 1.373 . S
C2630 C2632 1.389 . S
C2631 H2610 0.950 . S
C2631 C2630 1.373 . S
C2631 C2647 1.377 . S
C2632 C2630 1.389 . S
C2632 C2633 1.524 . S
C2632 C2646 1.377 . S
C2633 C2632 1.524 . S
C2633 C2634 1.397 . S
C2633 C2638 1.363 . S
C2634 H2611 0.950 . S
C2634 C2633 1.397 . S
C2634 C2635 1.334 . S
C2635 H2612 0.950 . S
C2635 C2634 1.334 . S
C2635 C2636 1.287 . S
C2636 C2635 1.287 . S
C2636 C2637 1.524 . S
C2636 H2655 0.913 . S
C2637 H2613 0.950 . S
C2637 C2636 1.524 . S
C2637 C2638 1.415 . S
C2638 H2614 0.950 . S
C2638 C2633 1.363 . S
C2638 C2637 1.415 . S
C2639 H2615 0.951 . S
C2639 C2640 1.366 . S
C2639 C2641 1.388 1_455 S
C2640 C2639 1.366 . S
C2640 C2644 1.385 . S
C2641 H2616 0.951 . S
C2641 C2639 1.388 1_655 S
C2641 C2642 1.366 . S
C2642 C2641 1.366 . S
C2642 C2643 1.414 . S
C2642 C2645 1.499 . S
C2643 H2617 0.950 . S
C2643 C2642 1.414 . S
C2643 C2644 1.374 1_655 S
C2644 H2618 0.950 . S
C2644 C2640 1.385 . S
C2644 C2643 1.374 1_455 S
C2645 C2642 1.499 . S
C2645 C2646 1.373 . S
C2645 C2647 1.389 . S
C2646 H2619 0.950 . S
C2646 C2632 1.377 . S
C2646 C2645 1.373 . S
C2647 C2631 1.377 . S
C2647 C2645 1.389 . S
C2647 C2648 1.524 . S
C2648 C2647 1.524 . S
C2648 C2649 1.397 . S
C2648 C2653 1.363 . S
C2649 H2620 0.950 . S
C2649 C2648 1.397 . S
C2649 C2650 1.334 . S
C2650 H2621 0.950 . S
C2650 C2649 1.334 . S
C2650 C2651 1.287 . S
C2651 C2650 1.287 . S
C2651 C2652 1.524 . S
C2651 H2654 0.999 . S
C2652 H2622 0.950 . S
C2652 C2651 1.524 . S
C2652 C2653 1.415 . S
C2653 H2623 0.950 . S
C2653 C2648 1.363 . S
C2653 C2652 1.415 . S
H2654 C2651 0.999 . S
H2655 C2636 0.913 . S
H2656 C2674 0.951 . S
H2657 C2676 0.951 . S
H2658 C2678 0.950 . S
H2659 C2679 0.950 . S
H2660 C2681 0.950 . S
H2661 C2684 0.950 . S
H2662 C2685 0.950 . S
H2663 C2687 0.950 . S
H2664 C2688 0.950 . S
H2665 C2689 0.951 . S
H2666 C2691 0.951 . S
H2667 C2693 0.950 . S
H2668 C2694 0.950 . S
H2669 C2696 0.950 . S
H2670 C2699 0.950 . S
H2671 C2700 0.950 . S
H2672 C2702 0.950 . S
H2673 C2703 0.950 . S
C2674 H2656 0.951 . S
C2674 C2675 1.366 . S
C2674 C2676 1.388 . S
C2675 C2674 1.366 . S
C2675 C2679 1.385 . S
C2676 H2657 0.951 . S
C2676 C2674 1.388 . S
C2676 C2677 1.366 . S
C2677 C2676 1.366 . S
C2677 C2678 1.414 . S
C2677 C2680 1.499 . S
C2678 H2658 0.950 . S
C2678 C2677 1.414 . S
C2678 C2679 1.374 . S
C2679 H2659 0.950 . S
C2679 C2675 1.385 . S
C2679 C2678 1.374 . S
C2680 C2677 1.499 . S
C2680 C2681 1.373 . S
C2680 C2682 1.389 . S
C2681 H2660 0.950 . S
C2681 C2680 1.373 . S
C2681 C2697 1.377 . S
C2682 C2680 1.389 . S
C2682 C2683 1.524 . S
C2682 C2696 1.377 . S
C2683 C2682 1.524 . S
C2683 C2684 1.397 . S
C2683 C2688 1.363 . S
C2684 H2661 0.950 . S
C2684 C2683 1.397 . S
C2684 C2685 1.334 . S
C2685 H2662 0.950 . S
C2685 C2684 1.334 . S
C2685 C2686 1.287 . S
C2686 C2685 1.287 . S
C2686 C2687 1.524 . S
C2686 H2705 0.913 . S
C2687 H2663 0.950 . S
C2687 C2686 1.524 . S
C2687 C2688 1.415 . S
C2688 H2664 0.950 . S
C2688 C2683 1.363 . S
C2688 C2687 1.415 . S
C2689 H2665 0.951 . S
C2689 C2690 1.366 . S
C2689 C2691 1.388 . S
C2690 C2689 1.366 . S
C2690 C2694 1.385 . S
C2691 H2666 0.951 . S
C2691 C2689 1.388 . S
C2691 C2692 1.366 . S
C2692 C2691 1.366 . S
C2692 C2693 1.414 . S
C2692 C2695 1.499 . S
C2693 H2667 0.950 . S
C2693 C2692 1.414 . S
C2693 C2694 1.374 . S
C2694 H2668 0.950 . S
C2694 C2690 1.385 . S
C2694 C2693 1.374 . S
C2695 C2692 1.499 . S
C2695 C2696 1.373 . S
C2695 C2697 1.389 . S
C2696 H2669 0.950 . S
C2696 C2682 1.377 . S
C2696 C2695 1.373 . S
C2697 C2681 1.377 . S
C2697 C2695 1.389 . S
C2697 C2698 1.524 . S
C2698 C2697 1.524 . S
C2698 C2699 1.397 . S
C2698 C2703 1.363 . S
C2699 H2670 0.950 . S
C2699 C2698 1.397 . S
C2699 C2700 1.334 . S
C2700 H2671 0.950 . S
C2700 C2699 1.334 . S
C2700 C2701 1.287 . S
C2701 C2700 1.287 . S
C2701 C2702 1.524 . S
C2701 H2704 0.999 . S
C2702 H2672 0.950 . S
C2702 C2701 1.524 . S
C2702 C2703 1.415 . S
C2703 H2673 0.950 . S
C2703 C2698 1.363 . S
C2703 C2702 1.415 . S
H2704 C2701 0.999 . S
H2705 C2686 0.913 . S
H2706 C2724 0.951 . S
H2707 C2726 0.951 . S
H2708 C2728 0.950 . S
H2709 C2729 0.950 . S
H2710 C2731 0.950 . S
H2711 C2734 0.950 . S
H2712 C2735 0.950 . S
H2713 C2737 0.950 . S
H2714 C2738 0.950 . S
H2715 C2739 0.951 . S
H2716 C2741 0.951 . S
H2717 C2743 0.950 . S
H2718 C2744 0.950 . S
H2719 C2746 0.950 . S
H2720 C2749 0.950 . S
H2721 C2750 0.950 . S
H2722 C2752 0.950 . S
H2723 C2753 0.950 . S
C2724 H2706 0.951 . S
C2724 C2725 1.366 . S
C2724 C2726 1.388 . S
C2725 C2724 1.366 . S
C2725 C2729 1.385 . S
C2726 H2707 0.951 . S
C2726 C2724 1.388 . S
C2726 C2727 1.366 . S
C2727 C2726 1.366 . S
C2727 C2728 1.414 . S
C2727 C2730 1.499 . S
C2728 H2708 0.950 . S
C2728 C2727 1.414 . S
C2728 C2729 1.374 . S
C2729 H2709 0.950 . S
C2729 C2725 1.385 . S
C2729 C2728 1.374 . S
C2730 C2727 1.499 . S
C2730 C2731 1.373 . S
C2730 C2732 1.389 . S
C2731 H2710 0.950 . S
C2731 C2730 1.373 . S
C2731 C2747 1.377 . S
C2732 C2730 1.389 . S
C2732 C2733 1.524 . S
C2732 C2746 1.377 . S
C2733 C2732 1.524 . S
C2733 C2734 1.397 . S
C2733 C2738 1.363 . S
C2734 H2711 0.950 . S
C2734 C2733 1.397 . S
C2734 C2735 1.334 . S
C2735 H2712 0.950 . S
C2735 C2734 1.334 . S
C2735 C2736 1.287 . S
C2736 C2735 1.287 . S
C2736 C2737 1.524 . S
C2736 H2755 0.913 . S
C2737 H2713 0.950 . S
C2737 C2736 1.524 . S
C2737 C2738 1.415 . S
C2738 H2714 0.950 . S
C2738 C2733 1.363 . S
C2738 C2737 1.415 . S
C2739 H2715 0.951 . S
C2739 C2740 1.366 . S
C2739 C2741 1.388 . S
C2740 C2739 1.366 . S
C2740 C2744 1.385 . S
C2741 H2716 0.951 . S
C2741 C2739 1.388 . S
C2741 C2742 1.366 . S
C2742 C2741 1.366 . S
C2742 C2743 1.414 . S
C2742 C2745 1.499 . S
C2743 H2717 0.950 . S
C2743 C2742 1.414 . S
C2743 C2744 1.374 . S
C2744 H2718 0.950 . S
C2744 C2740 1.385 . S
C2744 C2743 1.374 . S
C2745 C2742 1.499 . S
C2745 C2746 1.373 . S
C2745 C2747 1.389 . S
C2746 H2719 0.950 . S
C2746 C2732 1.377 . S
C2746 C2745 1.373 . S
C2747 C2731 1.377 . S
C2747 C2745 1.389 . S
C2747 C2748 1.524 . S
C2748 C2747 1.524 . S
C2748 C2749 1.397 . S
C2748 C2753 1.363 . S
C2749 H2720 0.950 . S
C2749 C2748 1.397 . S
C2749 C2750 1.334 . S
C2750 H2721 0.950 . S
C2750 C2749 1.334 . S
C2750 C2751 1.287 . S
C2751 C2750 1.287 . S
C2751 C2752 1.524 . S
C2751 H2754 0.999 . S
C2752 H2722 0.950 . S
C2752 C2751 1.524 . S
C2752 C2753 1.415 . S
C2753 H2723 0.950 . S
C2753 C2748 1.363 . S
C2753 C2752 1.415 . S
H2754 C2751 0.999 . S
H2755 C2736 0.913 . S
H2756 C2774 0.951 . S
H2757 C2776 0.951 . S
H2758 C2778 0.950 . S
H2759 C2779 0.950 . S
H2760 C2781 0.950 . S
H2761 C2784 0.950 . S
H2762 C2785 0.950 . S
H2763 C2787 0.950 . S
H2764 C2788 0.950 . S
H2765 C2789 0.951 . S
H2766 C2791 0.951 . S
H2767 C2793 0.950 . S
H2768 C2794 0.950 . S
H2769 C2796 0.950 . S
H2770 C2799 0.950 . S
H2771 C2800 0.950 . S
H2772 C2802 0.950 . S
H2773 C2803 0.950 . S
C2774 H2756 0.951 . S
C2774 C2775 1.366 . S
C2774 C2776 1.388 . S
C2775 C2774 1.366 . S
C2775 C2779 1.385 . S
C2776 H2757 0.951 . S
C2776 C2774 1.388 . S
C2776 C2777 1.366 . S
C2777 C2776 1.366 . S
C2777 C2778 1.414 . S
C2777 C2780 1.499 . S
C2778 H2758 0.950 . S
C2778 C2777 1.414 . S
C2778 C2779 1.374 . S
C2779 H2759 0.950 . S
C2779 C2775 1.385 . S
C2779 C2778 1.374 . S
C2780 C2777 1.499 . S
C2780 C2781 1.373 . S
C2780 C2782 1.389 . S
C2781 H2760 0.950 . S
C2781 C2780 1.373 . S
C2781 C2797 1.377 . S
C2782 C2780 1.389 . S
C2782 C2783 1.524 . S
C2782 C2796 1.377 . S
C2783 C2782 1.524 . S
C2783 C2784 1.397 . S
C2783 C2788 1.363 . S
C2784 H2761 0.950 . S
C2784 C2783 1.397 . S
C2784 C2785 1.334 . S
C2785 H2762 0.950 . S
C2785 C2784 1.334 . S
C2785 C2786 1.287 . S
C2786 C2785 1.287 . S
C2786 C2787 1.524 . S
C2786 H2805 0.913 . S
C2787 H2763 0.950 . S
C2787 C2786 1.524 . S
C2787 C2788 1.415 . S
C2788 H2764 0.950 . S
C2788 C2783 1.363 . S
C2788 C2787 1.415 . S
C2789 H2765 0.951 . S
C2789 C2790 1.366 . S
C2789 C2791 1.388 . S
C2790 C2789 1.366 . S
C2790 C2794 1.385 . S
C2791 H2766 0.951 . S
C2791 C2789 1.388 . S
C2791 C2792 1.366 . S
C2792 C2791 1.366 . S
C2792 C2793 1.414 . S
C2792 C2795 1.499 . S
C2793 H2767 0.950 . S
C2793 C2792 1.414 . S
C2793 C2794 1.374 . S
C2794 H2768 0.950 . S
C2794 C2790 1.385 . S
C2794 C2793 1.374 . S
C2795 C2792 1.499 . S
C2795 C2796 1.373 . S
C2795 C2797 1.389 . S
C2796 H2769 0.950 . S
C2796 C2782 1.377 . S
C2796 C2795 1.373 . S
C2797 C2781 1.377 . S
C2797 C2795 1.389 . S
C2797 C2798 1.524 . S
C2798 C2797 1.524 . S
C2798 C2799 1.397 . S
C2798 C2803 1.363 . S
C2799 H2770 0.950 . S
C2799 C2798 1.397 . S
C2799 C2800 1.334 . S
C2800 H2771 0.950 . S
C2800 C2799 1.334 . S
C2800 C2801 1.287 . S
C2801 C2800 1.287 . S
C2801 C2802 1.524 . S
C2801 H2804 0.999 . S
C2802 H2772 0.950 . S
C2802 C2801 1.524 . S
C2802 C2803 1.415 . S
C2803 H2773 0.950 . S
C2803 C2798 1.363 . S
C2803 C2802 1.415 . S
H2804 C2801 0.999 . S
H2805 C2786 0.913 . S
H2806 C2824 0.951 . S
H2807 C2826 0.951 . S
H2808 C2828 0.950 . S
H2809 C2829 0.950 . S
H2810 C2831 0.950 . S
H2811 C2834 0.950 . S
H2812 C2835 0.950 . S
H2813 C2837 0.950 . S
H2814 C2838 0.950 . S
H2815 C2839 0.951 . S
H2816 C2841 0.951 . S
H2817 C2843 0.950 . S
H2818 C2844 0.950 . S
H2819 C2846 0.950 . S
H2820 C2849 0.950 . S
H2821 C2850 0.950 . S
H2822 C2852 0.950 . S
H2823 C2853 0.950 . S
C2824 H2806 0.951 . S
C2824 C2825 1.366 . S
C2824 C2826 1.388 . S
C2825 C2824 1.366 . S
C2825 C2829 1.385 . S
C2826 H2807 0.951 . S
C2826 C2824 1.388 . S
C2826 C2827 1.366 . S
C2827 C2826 1.366 . S
C2827 C2828 1.414 . S
C2827 C2830 1.499 . S
C2828 H2808 0.950 . S
C2828 C2827 1.414 . S
C2828 C2829 1.374 . S
C2829 H2809 0.950 . S
C2829 C2825 1.385 . S
C2829 C2828 1.374 . S
C2830 C2827 1.499 . S
C2830 C2831 1.373 . S
C2830 C2832 1.389 . S
C2831 H2810 0.950 . S
C2831 C2830 1.373 . S
C2831 C2847 1.377 . S
C2832 C2830 1.389 . S
C2832 C2833 1.524 . S
C2832 C2846 1.377 . S
C2833 C2832 1.524 . S
C2833 C2834 1.397 . S
C2833 C2838 1.363 . S
C2834 H2811 0.950 . S
C2834 C2833 1.397 . S
C2834 C2835 1.334 . S
C2835 H2812 0.950 . S
C2835 C2834 1.334 . S
C2835 C2836 1.287 . S
C2836 C2835 1.287 . S
C2836 C2837 1.524 . S
C2836 H2855 0.913 . S
C2837 H2813 0.950 . S
C2837 C2836 1.524 . S
C2837 C2838 1.415 . S
C2838 H2814 0.950 . S
C2838 C2833 1.363 . S
C2838 C2837 1.415 . S
C2839 H2815 0.951 . S
C2839 C2840 1.366 . S
C2839 C2841 1.388 . S
C2840 C2839 1.366 . S
C2840 C2844 1.385 . S
C2841 H2816 0.951 . S
C2841 C2839 1.388 . S
C2841 C2842 1.366 . S
C2842 C2841 1.366 . S
C2842 C2843 1.414 . S
C2842 C2845 1.499 . S
C2843 H2817 0.950 . S
C2843 C2842 1.414 . S
C2843 C2844 1.374 . S
C2844 H2818 0.950 . S
C2844 C2840 1.385 . S
C2844 C2843 1.374 . S
C2845 C2842 1.499 . S
C2845 C2846 1.373 . S
C2845 C2847 1.389 . S
C2846 H2819 0.950 . S
C2846 C2832 1.377 . S
C2846 C2845 1.373 . S
C2847 C2831 1.377 . S
C2847 C2845 1.389 . S
C2847 C2848 1.524 . S
C2848 C2847 1.524 . S
C2848 C2849 1.397 . S
C2848 C2853 1.363 . S
C2849 H2820 0.950 . S
C2849 C2848 1.397 . S
C2849 C2850 1.334 . S
C2850 H2821 0.950 . S
C2850 C2849 1.334 . S
C2850 C2851 1.287 . S
C2851 C2850 1.287 . S
C2851 C2852 1.524 . S
C2851 H2854 0.999 . S
C2852 H2822 0.950 . S
C2852 C2851 1.524 . S
C2852 C2853 1.415 . S
C2853 H2823 0.950 . S
C2853 C2848 1.363 . S
C2853 C2852 1.415 . S
H2854 C2851 0.999 . S
H2855 C2836 0.913 . S
H2856 C2874 0.951 . S
H2857 C2876 0.951 . S
H2858 C2878 0.950 . S
H2859 C2879 0.950 . S
H2860 C2881 0.950 . S
H2861 C2884 0.950 . S
H2862 C2885 0.950 . S
H2863 C2887 0.950 . S
H2864 C2888 0.950 . S
H2865 C2889 0.951 1_556 S
H2866 C2891 0.951 . S
H2867 C2893 0.950 . S
H2868 C2894 0.950 . S
H2869 C2896 0.950 . S
H2870 C2899 0.950 . S
H2871 C2900 0.950 . S
H2872 C2902 0.950 . S
H2873 C2903 0.951 1_556 S
C2874 H2856 0.951 . S
C2874 C2875 1.366 . S
C2874 C2876 1.388 . S
C2875 C2874 1.366 . S
C2875 C2879 1.385 . S
C2876 H2857 0.951 . S
C2876 C2874 1.388 . S
C2876 C2877 1.366 . S
C2877 C2876 1.366 . S
C2877 C2878 1.414 . S
C2877 C2880 1.499 . S
C2878 H2858 0.950 . S
C2878 C2877 1.414 . S
C2878 C2879 1.374 . S
C2879 H2859 0.950 . S
C2879 C2875 1.385 . S
C2879 C2878 1.374 . S
C2880 C2877 1.499 . S
C2880 C2881 1.373 . S
C2880 C2882 1.389 . S
C2881 H2860 0.950 . S
C2881 C2880 1.373 . S
C2881 C2897 1.377 . S
C2882 C2880 1.389 . S
C2882 C2883 1.524 . S
C2882 C2896 1.377 . S
C2883 C2882 1.524 . S
C2883 C2884 1.397 . S
C2883 C2888 1.363 . S
C2884 H2861 0.950 . S
C2884 C2883 1.397 . S
C2884 C2885 1.334 . S
C2885 H2862 0.950 . S
C2885 C2884 1.334 . S
C2885 C2886 1.287 . S
C2886 C2885 1.287 . S
C2886 C2887 1.524 . S
C2886 H2905 0.913 . S
C2887 H2863 0.950 . S
C2887 C2886 1.524 . S
C2887 C2888 1.415 . S
C2888 H2864 0.950 . S
C2888 C2883 1.363 . S
C2888 C2887 1.415 . S
C2889 H2865 0.951 1_554 S
C2889 C2890 1.366 . S
C2889 C2891 1.388 . S
C2890 C2889 1.366 . S
C2890 C2894 1.385 . S
C2891 H2866 0.951 . S
C2891 C2889 1.388 . S
C2891 C2892 1.366 . S
C2892 C2891 1.366 . S
C2892 C2893 1.414 . S
C2892 C2895 1.499 . S
C2893 H2867 0.950 . S
C2893 C2892 1.414 . S
C2893 C2894 1.374 . S
C2894 H2868 0.950 . S
C2894 C2890 1.385 . S
C2894 C2893 1.374 . S
C2895 C2892 1.499 . S
C2895 C2896 1.373 . S
C2895 C2897 1.389 . S
C2896 H2869 0.950 . S
C2896 C2882 1.377 . S
C2896 C2895 1.373 . S
C2897 C2881 1.377 . S
C2897 C2895 1.389 . S
C2897 C2898 1.524 . S
C2898 C2897 1.524 . S
C2898 C2899 1.397 . S
C2898 C2903 1.363 . S
C2899 H2870 0.950 . S
C2899 C2898 1.397 . S
C2899 C2900 1.334 . S
C2900 H2871 0.950 . S
C2900 C2899 1.334 . S
C2900 C2901 1.287 1_554 S
C2901 C2900 1.287 1_556 S
C2901 C2902 1.524 . S
C2901 H2904 0.999 . S
C2902 H2872 0.950 . S
C2902 C2901 1.524 . S
C2902 C2903 1.415 1_556 S
C2903 H2873 0.951 1_554 S
C2903 C2898 1.363 . S
C2903 C2902 1.415 1_554 S
H2904 C2901 0.999 . S
H2905 C2886 0.913 . S
H2906 C2924 0.951 . S
H2907 C2926 0.951 . S
H2908 C2928 0.950 . S
H2909 C2929 0.950 . S
H2910 C2931 0.950 . S
H2911 C2934 0.950 . S
H2912 C2935 0.950 . S
H2913 C2937 0.950 . S
H2914 C2938 0.950 . S
H2915 C2939 0.951 . S
H2916 C2941 0.951 . S
H2917 C2943 0.950 . S
H2918 C2944 0.950 . S
H2919 C2946 0.950 . S
H2920 C2949 0.950 . S
H2921 C2950 0.950 . S
H2922 C2952 0.950 . S
H2923 C2953 0.950 . S
C2924 H2906 0.951 . S
C2924 C2925 1.366 . S
C2924 C2926 1.388 . S
C2925 C2924 1.366 . S
C2925 C2929 1.385 . S
C2926 H2907 0.951 . S
C2926 C2924 1.388 . S
C2926 C2927 1.366 . S
C2927 C2926 1.366 . S
C2927 C2928 1.414 . S
C2927 C2930 1.499 . S
C2928 H2908 0.950 . S
C2928 C2927 1.414 . S
C2928 C2929 1.374 . S
C2929 H2909 0.950 . S
C2929 C2925 1.385 . S
C2929 C2928 1.374 . S
C2930 C2927 1.499 . S
C2930 C2931 1.373 . S
C2930 C2932 1.389 . S
C2931 H2910 0.950 . S
C2931 C2930 1.373 . S
C2931 C2947 1.377 . S
C2932 C2930 1.389 . S
C2932 C2933 1.524 . S
C2932 C2946 1.377 . S
C2933 C2932 1.524 . S
C2933 C2934 1.397 . S
C2933 C2938 1.363 . S
C2934 H2911 0.950 . S
C2934 C2933 1.397 . S
C2934 C2935 1.334 . S
C2935 H2912 0.950 . S
C2935 C2934 1.334 . S
C2935 C2936 1.287 . S
C2936 C2935 1.287 . S
C2936 C2937 1.524 . S
C2936 H2955 0.913 . S
C2937 H2913 0.950 . S
C2937 C2936 1.524 . S
C2937 C2938 1.415 . S
C2938 H2914 0.950 . S
C2938 C2933 1.363 . S
C2938 C2937 1.415 . S
C2939 H2915 0.951 . S
C2939 C2940 1.366 . S
C2939 C2941 1.388 . S
C2940 C2939 1.366 . S
C2940 C2944 1.385 . S
C2941 H2916 0.951 . S
C2941 C2939 1.388 . S
C2941 C2942 1.366 . S
C2942 C2941 1.366 . S
C2942 C2943 1.414 . S
C2942 C2945 1.499 . S
C2943 H2917 0.950 . S
C2943 C2942 1.414 . S
C2943 C2944 1.374 . S
C2944 H2918 0.950 . S
C2944 C2940 1.385 . S
C2944 C2943 1.374 . S
C2945 C2942 1.499 . S
C2945 C2946 1.373 . S
C2945 C2947 1.389 . S
C2946 H2919 0.950 . S
C2946 C2932 1.377 . S
C2946 C2945 1.373 . S
C2947 C2931 1.377 . S
C2947 C2945 1.389 . S
C2947 C2948 1.524 . S
C2948 C2947 1.524 . S
C2948 C2949 1.397 . S
C2948 C2953 1.363 . S
C2949 H2920 0.950 . S
C2949 C2948 1.397 . S
C2949 C2950 1.334 . S
C2950 H2921 0.950 . S
C2950 C2949 1.334 . S
C2950 C2951 1.287 . S
C2951 C2950 1.287 . S
C2951 C2952 1.524 . S
C2951 H2954 0.999 . S
C2952 H2922 0.950 . S
C2952 C2951 1.524 . S
C2952 C2953 1.415 . S
C2953 H2923 0.950 . S
C2953 C2948 1.363 . S
C2953 C2952 1.415 . S
H2954 C2951 0.999 . S
H2955 C2936 0.913 . S
H2956 C2974 0.951 . S
H2957 C2976 0.951 . S
H2958 C2978 0.950 . S
H2959 C2979 0.950 . S
H2960 C2981 0.950 . S
H2961 C2984 0.950 . S
H2962 C2985 0.950 . S
H2963 C2987 0.950 . S
H2964 C2988 0.950 . S
H2965 C2989 0.951 . S
H2966 C2991 0.951 . S
H2967 C2993 0.950 . S
H2968 C2994 0.950 . S
H2969 C2996 0.950 . S
H2970 C2999 0.950 . S
H2971 C3000 0.950 . S
H2972 C3002 0.950 . S
H2973 C3003 0.950 . S
C2974 H2956 0.951 . S
C2974 C2975 1.366 . S
C2974 C2976 1.388 . S
C2975 C2974 1.366 . S
C2975 C2979 1.385 . S
C2976 H2957 0.951 . S
C2976 C2974 1.388 . S
C2976 C2977 1.366 . S
C2977 C2976 1.366 . S
C2977 C2978 1.414 . S
C2977 C2980 1.499 . S
C2978 H2958 0.950 . S
C2978 C2977 1.414 . S
C2978 C2979 1.374 . S
C2979 H2959 0.950 . S
C2979 C2975 1.385 . S
C2979 C2978 1.374 . S
C2980 C2977 1.499 . S
C2980 C2981 1.373 . S
C2980 C2982 1.389 . S
C2981 H2960 0.950 . S
C2981 C2980 1.373 . S
C2981 C2997 1.377 . S
C2982 C2980 1.389 . S
C2982 C2983 1.524 . S
C2982 C2996 1.377 . S
C2983 C2982 1.524 . S
C2983 C2984 1.397 . S
C2983 C2988 1.363 . S
C2984 H2961 0.950 . S
C2984 C2983 1.397 . S
C2984 C2985 1.334 . S
C2985 H2962 0.950 . S
C2985 C2984 1.334 . S
C2985 C2986 1.287 . S
C2986 C2985 1.287 . S
C2986 C2987 1.524 . S
C2986 H3005 0.913 . S
C2987 H2963 0.950 . S
C2987 C2986 1.524 . S
C2987 C2988 1.415 . S
C2988 H2964 0.950 . S
C2988 C2983 1.363 . S
C2988 C2987 1.415 . S
C2989 H2965 0.951 . S
C2989 C2990 1.366 . S
C2989 C2991 1.388 . S
C2990 C2989 1.366 . S
C2990 C2994 1.385 . S
C2991 H2966 0.951 . S
C2991 C2989 1.388 . S
C2991 C2992 1.366 . S
C2992 C2991 1.366 . S
C2992 C2993 1.414 . S
C2992 C2995 1.499 . S
C2993 H2967 0.950 . S
C2993 C2992 1.414 . S
C2993 C2994 1.374 . S
C2994 H2968 0.950 . S
C2994 C2990 1.385 . S
C2994 C2993 1.374 . S
C2995 C2992 1.499 . S
C2995 C2996 1.373 . S
C2995 C2997 1.389 . S
C2996 H2969 0.950 . S
C2996 C2982 1.377 . S
C2996 C2995 1.373 . S
C2997 C2981 1.377 . S
C2997 C2995 1.389 . S
C2997 C2998 1.524 . S
C2998 C2997 1.524 . S
C2998 C2999 1.397 . S
C2998 C3003 1.363 . S
C2999 H2970 0.950 . S
C2999 C2998 1.397 . S
C2999 C3000 1.334 . S
C3000 H2971 0.950 . S
C3000 C2999 1.334 . S
C3000 C3001 1.287 . S
C3001 C3000 1.287 . S
C3001 C3002 1.524 . S
C3001 H3004 0.999 . S
C3002 H2972 0.950 . S
C3002 C3001 1.524 . S
C3002 C3003 1.415 . S
C3003 H2973 0.950 . S
C3003 C2998 1.363 . S
C3003 C3002 1.415 . S
H3004 C3001 0.999 . S
H3005 C2986 0.913 . S
H3006 C3024 0.951 . S
H3007 C3026 0.951 . S
H3008 C3028 0.950 . S
H3009 C3029 0.950 . S
H3010 C3031 0.950 . S
H3011 C3034 0.950 . S
H3012 C3035 0.950 . S
H3013 C3037 0.950 . S
H3014 C3038 0.950 . S
H3015 C3039 0.951 . S
H3016 C3041 0.951 . S
H3017 C3043 0.950 . S
H3018 C3044 0.950 . S
H3019 C3046 0.950 . S
H3020 C3049 0.950 . S
H3021 C3050 0.950 . S
H3022 C3052 0.950 . S
H3023 C3053 0.950 . S
C3024 H3006 0.951 . S
C3024 C3025 1.366 . S
C3024 C3026 1.388 . S
C3025 C3024 1.366 . S
C3025 C3029 1.385 . S
C3026 H3007 0.951 . S
C3026 C3024 1.388 . S
C3026 C3027 1.366 . S
C3027 C3026 1.366 . S
C3027 C3028 1.414 . S
C3027 C3030 1.499 . S
C3028 H3008 0.950 . S
C3028 C3027 1.414 . S
C3028 C3029 1.374 . S
C3029 H3009 0.950 . S
C3029 C3025 1.385 . S
C3029 C3028 1.374 . S
C3030 C3027 1.499 . S
C3030 C3031 1.373 . S
C3030 C3032 1.389 . S
C3031 H3010 0.950 . S
C3031 C3030 1.373 . S
C3031 C3047 1.377 . S
C3032 C3030 1.389 . S
C3032 C3033 1.524 . S
C3032 C3046 1.377 . S
C3033 C3032 1.524 . S
C3033 C3034 1.397 . S
C3033 C3038 1.363 . S
C3034 H3011 0.950 . S
C3034 C3033 1.397 . S
C3034 C3035 1.334 . S
C3035 H3012 0.950 . S
C3035 C3034 1.334 . S
C3035 C3036 1.287 . S
C3036 C3035 1.287 . S
C3036 C3037 1.524 . S
C3036 H3055 0.913 . S
C3037 H3013 0.950 . S
C3037 C3036 1.524 . S
C3037 C3038 1.415 . S
C3038 H3014 0.950 . S
C3038 C3033 1.363 . S
C3038 C3037 1.415 . S
C3039 H3015 0.951 . S
C3039 C3040 1.366 . S
C3039 C3041 1.388 . S
C3040 C3039 1.366 . S
C3040 C3044 1.385 . S
C3041 H3016 0.951 . S
C3041 C3039 1.388 . S
C3041 C3042 1.366 . S
C3042 C3041 1.366 . S
C3042 C3043 1.414 . S
C3042 C3045 1.499 . S
C3043 H3017 0.950 . S
C3043 C3042 1.414 . S
C3043 C3044 1.374 . S
C3044 H3018 0.950 . S
C3044 C3040 1.385 . S
C3044 C3043 1.374 . S
C3045 C3042 1.499 . S
C3045 C3046 1.373 . S
C3045 C3047 1.389 . S
C3046 H3019 0.950 . S
C3046 C3032 1.377 . S
C3046 C3045 1.373 . S
C3047 C3031 1.377 . S
C3047 C3045 1.389 . S
C3047 C3048 1.524 . S
C3048 C3047 1.524 . S
C3048 C3049 1.397 . S
C3048 C3053 1.363 . S
C3049 H3020 0.950 . S
C3049 C3048 1.397 . S
C3049 C3050 1.334 . S
C3050 H3021 0.950 . S
C3050 C3049 1.334 . S
C3050 C3051 1.287 . S
C3051 C3050 1.287 . S
C3051 C3052 1.524 . S
C3051 H3054 0.999 . S
C3052 H3022 0.950 . S
C3052 C3051 1.524 . S
C3052 C3053 1.415 . S
C3053 H3023 0.950 . S
C3053 C3048 1.363 . S
C3053 C3052 1.415 . S
H3054 C3051 0.999 . S
H3055 C3036 0.913 . S
H3056 C3074 0.951 . S
H3057 C3076 0.951 . S
H3058 C3078 0.950 . S
H3059 C3079 0.950 . S
H3060 C3081 0.950 . S
H3061 C3084 0.950 . S
H3062 C3085 0.950 . S
H3063 C3087 0.950 . S
H3064 C3088 0.950 . S
H3065 C3089 0.951 . S
H3066 C3091 0.951 . S
H3067 C3093 0.950 . S
H3068 C3094 0.950 . S
H3069 C3096 0.950 . S
H3070 C3099 0.950 . S
H3071 C3100 0.950 . S
H3072 C3102 0.950 . S
H3073 C3103 0.950 . S
C3074 H3056 0.951 . S
C3074 C3075 1.366 . S
C3074 C3076 1.388 . S
C3075 C3074 1.366 . S
C3075 C3079 1.385 . S
C3076 H3057 0.951 . S
C3076 C3074 1.388 . S
C3076 C3077 1.366 . S
C3077 C3076 1.366 . S
C3077 C3078 1.414 . S
C3077 C3080 1.499 . S
C3078 H3058 0.950 . S
C3078 C3077 1.414 . S
C3078 C3079 1.374 . S
C3079 H3059 0.950 . S
C3079 C3075 1.385 . S
C3079 C3078 1.374 . S
C3080 C3077 1.499 . S
C3080 C3081 1.373 . S
C3080 C3082 1.389 . S
C3081 H3060 0.950 . S
C3081 C3080 1.373 . S
C3081 C3097 1.377 . S
C3082 C3080 1.389 . S
C3082 C3083 1.524 . S
C3082 C3096 1.377 . S
C3083 C3082 1.524 . S
C3083 C3084 1.397 . S
C3083 C3088 1.363 . S
C3084 H3061 0.950 . S
C3084 C3083 1.397 . S
C3084 C3085 1.334 . S
C3085 H3062 0.950 . S
C3085 C3084 1.334 . S
C3085 C3086 1.287 . S
C3086 C3085 1.287 . S
C3086 C3087 1.524 . S
C3086 H3105 0.913 . S
C3087 H3063 0.950 . S
C3087 C3086 1.524 . S
C3087 C3088 1.415 . S
C3088 H3064 0.950 . S
C3088 C3083 1.363 . S
C3088 C3087 1.415 . S
C3089 H3065 0.951 . S
C3089 C3090 1.366 . S
C3089 C3091 1.388 . S
C3090 C3089 1.366 . S
C3090 C3094 1.385 . S
C3091 H3066 0.951 . S
C3091 C3089 1.388 . S
C3091 C3092 1.366 . S
C3092 C3091 1.366 . S
C3092 C3093 1.414 . S
C3092 C3095 1.499 . S
C3093 H3067 0.950 . S
C3093 C3092 1.414 . S
C3093 C3094 1.374 . S
C3094 H3068 0.950 . S
C3094 C3090 1.385 . S
C3094 C3093 1.374 . S
C3095 C3092 1.499 . S
C3095 C3096 1.373 . S
C3095 C3097 1.389 . S
C3096 H3069 0.950 . S
C3096 C3082 1.377 . S
C3096 C3095 1.373 . S
C3097 C3081 1.377 . S
C3097 C3095 1.389 . S
C3097 C3098 1.524 . S
C3098 C3097 1.524 . S
C3098 C3099 1.397 . S
C3098 C3103 1.363 . S
C3099 H3070 0.950 . S
C3099 C3098 1.397 . S
C3099 C3100 1.334 . S
C3100 H3071 0.950 . S
C3100 C3099 1.334 . S
C3100 C3101 1.287 . S
C3101 C3100 1.287 . S
C3101 C3102 1.524 . S
C3101 H3104 0.999 . S
C3102 H3072 0.950 . S
C3102 C3101 1.524 . S
C3102 C3103 1.415 . S
C3103 H3073 0.950 . S
C3103 C3098 1.363 . S
C3103 C3102 1.415 . S
H3104 C3101 0.999 . S
H3105 C3086 0.913 . S
H3106 C3124 0.951 . S
H3107 C3126 0.951 . S
H3108 C3128 0.950 . S
H3109 C3129 0.950 . S
H3110 C3131 0.950 . S
H3111 C3134 0.950 . S
H3112 C3135 0.950 . S
H3113 C3137 0.950 . S
H3114 C3138 0.950 . S
H3115 C3139 0.951 . S
H3116 C3141 0.951 . S
H3117 C3143 0.950 . S
H3118 C3144 0.950 . S
H3119 C3146 0.950 . S
H3120 C3149 0.950 . S
H3121 C3150 0.950 . S
H3122 C3152 0.950 . S
H3123 C3153 0.950 . S
C3124 H3106 0.951 . S
C3124 C3125 1.366 . S
C3124 C3126 1.388 . S
C3125 C3124 1.366 . S
C3125 C3129 1.385 . S
C3126 H3107 0.951 . S
C3126 C3124 1.388 . S
C3126 C3127 1.366 . S
C3127 C3126 1.366 . S
C3127 C3128 1.414 . S
C3127 C3130 1.499 . S
C3128 H3108 0.950 . S
C3128 C3127 1.414 . S
C3128 C3129 1.374 . S
C3129 H3109 0.950 . S
C3129 C3125 1.385 . S
C3129 C3128 1.374 . S
C3130 C3127 1.499 . S
C3130 C3131 1.373 . S
C3130 C3132 1.389 . S
C3131 H3110 0.950 . S
C3131 C3130 1.373 . S
C3131 C3147 1.377 . S
C3132 C3130 1.389 . S
C3132 C3133 1.524 . S
C3132 C3146 1.377 . S
C3133 C3132 1.524 . S
C3133 C3134 1.397 . S
C3133 C3138 1.363 . S
C3134 H3111 0.950 . S
C3134 C3133 1.397 . S
C3134 C3135 1.334 . S
C3135 H3112 0.950 . S
C3135 C3134 1.334 . S
C3135 C3136 1.287 . S
C3136 C3135 1.287 . S
C3136 C3137 1.524 . S
C3136 H3155 0.913 . S
C3137 H3113 0.950 . S
C3137 C3136 1.524 . S
C3137 C3138 1.415 . S
C3138 H3114 0.950 . S
C3138 C3133 1.363 . S
C3138 C3137 1.415 . S
C3139 H3115 0.951 . S
C3139 C3140 1.366 . S
C3139 C3141 1.388 . S
C3140 C3139 1.366 . S
C3140 C3144 1.385 . S
C3141 H3116 0.951 . S
C3141 C3139 1.388 . S
C3141 C3142 1.366 . S
C3142 C3141 1.366 . S
C3142 C3143 1.414 . S
C3142 C3145 1.499 . S
C3143 H3117 0.950 . S
C3143 C3142 1.414 . S
C3143 C3144 1.374 . S
C3144 H3118 0.950 . S
C3144 C3140 1.385 . S
C3144 C3143 1.374 . S
C3145 C3142 1.499 . S
C3145 C3146 1.373 . S
C3145 C3147 1.389 . S
C3146 H3119 0.950 . S
C3146 C3132 1.377 . S
C3146 C3145 1.373 . S
C3147 C3131 1.377 . S
C3147 C3145 1.389 . S
C3147 C3148 1.524 . S
C3148 C3147 1.524 . S
C3148 C3149 1.397 . S
C3148 C3153 1.363 . S
C3149 H3120 0.950 . S
C3149 C3148 1.397 . S
C3149 C3150 1.334 . S
C3150 H3121 0.950 . S
C3150 C3149 1.334 . S
C3150 C3151 1.287 . S
C3151 C3150 1.287 . S
C3151 C3152 1.524 . S
C3151 H3154 0.999 . S
C3152 H3122 0.950 . S
C3152 C3151 1.524 . S
C3152 C3153 1.415 . S
C3153 H3123 0.950 . S
C3153 C3148 1.363 . S
C3153 C3152 1.415 . S
H3154 C3151 0.999 . S
H3155 C3136 0.913 . S
H3156 C3174 0.951 . S
H3157 C3176 0.951 . S
H3158 C3178 0.950 . S
H3159 C3179 0.950 . S
H3160 C3181 0.950 . S
H3161 C3184 0.950 . S
H3162 C3185 0.950 . S
H3163 C3187 0.950 . S
H3164 C3188 0.950 . S
H3165 C3189 0.951 1_545 S
H3166 C3191 0.951 . S
H3167 C3193 0.950 1_554 S
H3168 C3194 0.950 . S
H3169 C3196 0.950 . S
H3170 C3199 0.950 . S
H3171 C3200 0.950 1_545 S
H3172 C3202 0.950 . S
H3173 C3203 0.950 . S
C3174 H3156 0.951 . S
C3174 C3175 1.366 . S
C3174 C3176 1.388 . S
C3175 C3174 1.366 . S
C3175 C3179 1.385 . S
C3176 H3157 0.951 . S
C3176 C3174 1.388 . S
C3176 C3177 1.366 . S
C3177 C3176 1.366 . S
C3177 C3178 1.414 . S
C3177 C3180 1.499 . S
C3178 H3158 0.950 . S
C3178 C3177 1.414 . S
C3178 C3179 1.374 . S
C3179 H3159 0.950 . S
C3179 C3175 1.385 . S
C3179 C3178 1.374 . S
C3180 C3177 1.499 . S
C3180 C3181 1.373 . S
C3180 C3182 1.389 . S
C3181 H3160 0.950 . S
C3181 C3180 1.373 . S
C3181 C3197 1.377 . S
C3182 C3180 1.389 . S
C3182 C3183 1.524 . S
C3182 C3196 1.377 . S
C3183 C3182 1.524 . S
C3183 C3184 1.397 . S
C3183 C3188 1.363 . S
C3184 H3161 0.950 . S
C3184 C3183 1.397 . S
C3184 C3185 1.334 . S
C3185 H3162 0.950 . S
C3185 C3184 1.334 . S
C3185 C3186 1.287 . S
C3186 C3185 1.287 . S
C3186 C3187 1.524 . S
C3186 H3205 0.913 . S
C3187 H3163 0.950 . S
C3187 C3186 1.524 . S
C3187 C3188 1.415 . S
C3188 H3164 0.950 . S
C3188 C3183 1.363 . S
C3188 C3187 1.415 . S
C3189 H3165 0.951 1_565 S
C3189 C3190 1.351 1_556 S
C3189 C3191 1.388 . S
C3190 C3189 1.351 1_554 S
C3190 C3194 1.393 . S
C3191 H3166 0.951 . S
C3191 C3189 1.388 . S
C3191 C3192 1.366 . S
C3192 C3191 1.366 . S
C3192 C3193 1.414 . S
C3192 C3195 1.499 . S
C3193 H3167 0.950 1_556 S
C3193 C3192 1.414 . S
C3193 C3194 1.374 1_556 S
C3194 H3168 0.950 . S
C3194 C3190 1.393 . S
C3194 C3193 1.374 1_554 S
C3195 C3192 1.499 . S
C3195 C3196 1.373 . S
C3195 C3197 1.389 . S
C3196 H3169 0.950 . S
C3196 C3182 1.377 . S
C3196 C3195 1.373 . S
C3197 C3181 1.377 . S
C3197 C3195 1.389 . S
C3197 C3198 1.524 . S
C3198 C3197 1.524 . S
C3198 C3199 1.397 . S
C3198 C3203 1.363 . S
C3199 H3170 0.950 . S
C3199 C3198 1.397 . S
C3199 C3200 1.334 . S
C3200 H3171 0.950 1_565 S
C3200 C3199 1.334 . S
C3200 C3201 1.287 1_565 S
C3201 C3200 1.287 1_545 S
C3201 C3202 1.524 1_545 S
C3201 H3204 0.999 . S
C3202 H3172 0.950 . S
C3202 C3201 1.524 1_565 S
C3202 C3203 1.415 . S
C3203 H3173 0.950 . S
C3203 C3198 1.363 . S
C3203 C3202 1.415 . S
H3204 C3201 0.999 . S
H3205 C3186 0.913 . S
H3206 C3224 0.951 . S
H3207 C3226 0.951 . S
H3208 C3228 0.950 . S
H3209 C3229 0.950 . S
H3210 C3231 0.950 . S
H3211 C3234 0.950 . S
H3212 C3235 0.950 . S
H3213 C3237 0.950 . S
H3214 C3238 0.950 . S
H3215 C3239 0.951 . S
H3216 C3241 0.951 . S
H3217 C3243 0.950 . S
H3218 C3244 0.950 . S
H3219 C3246 0.950 . S
H3220 C3249 0.950 . S
H3221 C3250 0.950 . S
H3222 C3252 0.950 . S
H3223 C3253 0.950 . S
C3224 H3206 0.951 . S
C3224 C3225 1.366 . S
C3224 C3226 1.388 . S
C3225 C3224 1.366 . S
C3225 C3229 1.385 . S
C3226 H3207 0.951 . S
C3226 C3224 1.388 . S
C3226 C3227 1.366 . S
C3227 C3226 1.366 . S
C3227 C3228 1.414 . S
C3227 C3230 1.499 . S
C3228 H3208 0.950 . S
C3228 C3227 1.414 . S
C3228 C3229 1.374 . S
C3229 H3209 0.950 . S
C3229 C3225 1.385 . S
C3229 C3228 1.374 . S
C3230 C3227 1.499 . S
C3230 C3231 1.373 . S
C3230 C3232 1.389 . S
C3231 H3210 0.950 . S
C3231 C3230 1.373 . S
C3231 C3247 1.377 . S
C3232 C3230 1.389 . S
C3232 C3233 1.524 . S
C3232 C3246 1.377 . S
C3233 C3232 1.524 . S
C3233 C3234 1.397 . S
C3233 C3238 1.363 . S
C3234 H3211 0.950 . S
C3234 C3233 1.397 . S
C3234 C3235 1.334 . S
C3235 H3212 0.950 . S
C3235 C3234 1.334 . S
C3235 C3236 1.287 . S
C3236 C3235 1.287 . S
C3236 C3237 1.524 . S
C3236 H3255 0.913 . S
C3237 H3213 0.950 . S
C3237 C3236 1.524 . S
C3237 C3238 1.415 . S
C3238 H3214 0.950 . S
C3238 C3233 1.363 . S
C3238 C3237 1.415 . S
C3239 H3215 0.951 . S
C3239 C3240 1.366 . S
C3239 C3241 1.388 . S
C3240 C3239 1.366 . S
C3240 C3244 1.385 . S
C3241 H3216 0.951 . S
C3241 C3239 1.388 . S
C3241 C3242 1.366 . S
C3242 C3241 1.366 . S
C3242 C3243 1.414 . S
C3242 C3245 1.499 . S
C3243 H3217 0.950 . S
C3243 C3242 1.414 . S
C3243 C3244 1.374 . S
C3244 H3218 0.950 . S
C3244 C3240 1.385 . S
C3244 C3243 1.374 . S
C3245 C3242 1.499 . S
C3245 C3246 1.373 . S
C3245 C3247 1.389 . S
C3246 H3219 0.950 . S
C3246 C3232 1.377 . S
C3246 C3245 1.373 . S
C3247 C3231 1.377 . S
C3247 C3245 1.389 . S
C3247 C3248 1.524 . S
C3248 C3247 1.524 . S
C3248 C3249 1.397 . S
C3248 C3253 1.363 . S
C3249 H3220 0.950 . S
C3249 C3248 1.397 . S
C3249 C3250 1.334 . S
C3250 H3221 0.950 . S
C3250 C3249 1.334 . S
C3250 C3251 1.287 . S
C3251 C3250 1.287 . S
C3251 C3252 1.524 . S
C3251 H3254 0.999 . S
C3252 H3222 0.950 . S
C3252 C3251 1.524 . S
C3252 C3253 1.415 . S
C3253 H3223 0.950 . S
C3253 C3248 1.363 . S
C3253 C3252 1.415 . S
H3254 C3251 0.999 . S
H3255 C3236 0.913 . S
H3256 C3274 0.951 . S
H3257 C3276 0.951 . S
H3258 C3278 0.950 . S
H3259 C3279 0.950 . S
H3260 C3281 0.950 . S
H3261 C3284 0.950 . S
H3262 C3285 0.950 . S
H3263 C3287 0.950 . S
H3264 C3288 0.950 1_545 S
H3265 C3289 0.951 . S
H3266 C3291 0.951 . S
H3267 C3293 0.950 . S
H3268 C3294 0.950 . S
H3269 C3296 0.950 1_565 S
H3270 C3299 0.950 . S
H3271 C3300 0.950 . S
H3272 C3302 0.950 . S
H3273 C3303 0.950 . S
C3274 H3256 0.951 . S
C3274 C3275 1.366 . S
C3274 C3276 1.388 . S
C3275 C3274 1.366 . S
C3275 C3279 1.385 1_545 S
C3276 H3257 0.951 . S
C3276 C3274 1.388 . S
C3276 C3277 1.366 . S
C3277 C3276 1.366 . S
C3277 C3278 1.414 1_545 S
C3277 C3280 1.499 . S
C3278 H3258 0.950 . S
C3278 C3277 1.414 1_565 S
C3278 C3279 1.374 . S
C3279 H3259 0.950 . S
C3279 C3275 1.385 1_565 S
C3279 C3278 1.374 . S
C3280 C3277 1.499 . S
C3280 C3281 1.373 . S
C3280 C3282 1.389 1_545 S
C3281 H3260 0.950 . S
C3281 C3280 1.373 . S
C3281 C3297 1.377 . S
C3282 C3280 1.389 1_565 S
C3282 C3283 1.524 . S
C3282 C3296 1.377 1_565 S
C3283 C3282 1.524 . S
C3283 C3284 1.397 . S
C3283 C3288 1.363 . S
C3284 H3261 0.950 . S
C3284 C3283 1.397 . S
C3284 C3285 1.334 . S
C3285 H3262 0.950 . S
C3285 C3284 1.334 . S
C3285 C3286 1.287 . S
C3286 C3285 1.287 . S
C3286 C3287 1.524 . S
C3286 H3305 0.913 . S
C3287 H3263 0.950 . S
C3287 C3286 1.524 . S
C3287 C3288 1.415 . S
C3288 H3264 0.950 1_565 S
C3288 C3283 1.363 . S
C3288 C3287 1.415 . S
C3289 H3265 0.951 . S
C3289 C3290 1.366 . S
C3289 C3291 1.388 . S
C3290 C3289 1.366 . S
C3290 C3294 1.385 . S
C3291 H3266 0.951 . S
C3291 C3289 1.388 . S
C3291 C3292 1.366 . S
C3292 C3291 1.366 . S
C3292 C3293 1.414 . S
C3292 C3295 1.499 . S
C3293 H3267 0.950 . S
C3293 C3292 1.414 . S
C3293 C3294 1.374 . S
C3294 H3268 0.950 . S
C3294 C3290 1.385 . S
C3294 C3293 1.374 . S
C3295 C3292 1.499 . S
C3295 C3296 1.373 . S
C3295 C3297 1.389 . S
C3296 H3269 0.950 1_545 S
C3296 C3282 1.377 1_545 S
C3296 C3295 1.373 . S
C3297 C3281 1.377 . S
C3297 C3295 1.389 . S
C3297 C3298 1.524 . S
C3298 C3297 1.524 . S
C3298 C3299 1.397 . S
C3298 C3303 1.363 . S
C3299 H3270 0.950 . S
C3299 C3298 1.397 . S
C3299 C3300 1.334 . S
C3300 H3271 0.950 . S
C3300 C3299 1.334 . S
C3300 C3301 1.287 . S
C3301 C3300 1.287 . S
C3301 C3302 1.524 . S
C3301 H3304 0.999 . S
C3302 H3272 0.950 . S
C3302 C3301 1.524 . S
C3302 C3303 1.415 . S
C3303 H3273 0.950 . S
C3303 C3298 1.363 . S
C3303 C3302 1.415 . S
H3304 C3301 0.999 . S
H3305 C3286 0.913 . S
H3306 C3324 0.951 . S
H3307 C3326 0.951 . S
H3308 C3328 0.950 . S
H3309 C3329 0.950 . S
H3310 C3331 0.950 . S
H3311 C3334 0.950 . S
H3312 C3335 0.950 . S
H3313 C3337 0.950 . S
H3314 C3338 0.950 . S
H3315 C3339 0.951 . S
H3316 C3341 0.951 . S
H3317 C3343 0.950 . S
H3318 C3344 0.950 . S
H3319 C3346 0.950 . S
H3320 C3349 0.950 . S
H3321 C3350 0.950 . S
H3322 C3352 0.950 . S
H3323 C3353 0.950 . S
C3324 H3306 0.951 . S
C3324 C3325 1.366 . S
C3324 C3326 1.388 . S
C3325 C3324 1.366 . S
C3325 C3329 1.385 . S
C3326 H3307 0.951 . S
C3326 C3324 1.388 . S
C3326 C3327 1.366 . S
C3327 C3326 1.366 . S
C3327 C3328 1.414 . S
C3327 C3330 1.499 . S
C3328 H3308 0.950 . S
C3328 C3327 1.414 . S
C3328 C3329 1.374 . S
C3329 H3309 0.950 . S
C3329 C3325 1.385 . S
C3329 C3328 1.374 . S
C3330 C3327 1.499 . S
C3330 C3331 1.373 . S
C3330 C3332 1.389 . S
C3331 H3310 0.950 . S
C3331 C3330 1.373 . S
C3331 C3347 1.377 . S
C3332 C3330 1.389 . S
C3332 C3333 1.524 . S
C3332 C3346 1.377 . S
C3333 C3332 1.524 . S
C3333 C3334 1.397 . S
C3333 C3338 1.363 . S
C3334 H3311 0.950 . S
C3334 C3333 1.397 . S
C3334 C3335 1.334 . S
C3335 H3312 0.950 . S
C3335 C3334 1.334 . S
C3335 C3336 1.287 . S
C3336 C3335 1.287 . S
C3336 C3337 1.524 . S
C3336 H3355 0.913 . S
C3337 H3313 0.950 . S
C3337 C3336 1.524 . S
C3337 C3338 1.415 . S
C3338 H3314 0.950 . S
C3338 C3333 1.363 . S
C3338 C3337 1.415 . S
C3339 H3315 0.951 . S
C3339 C3340 1.366 . S
C3339 C3341 1.388 . S
C3340 C3339 1.366 . S
C3340 C3344 1.385 . S
C3341 H3316 0.951 . S
C3341 C3339 1.388 . S
C3341 C3342 1.366 . S
C3342 C3341 1.366 . S
C3342 C3343 1.414 . S
C3342 C3345 1.499 . S
C3343 H3317 0.950 . S
C3343 C3342 1.414 . S
C3343 C3344 1.374 . S
C3344 H3318 0.950 . S
C3344 C3340 1.385 . S
C3344 C3343 1.374 . S
C3345 C3342 1.499 . S
C3345 C3346 1.373 . S
C3345 C3347 1.389 . S
C3346 H3319 0.950 . S
C3346 C3332 1.377 . S
C3346 C3345 1.373 . S
C3347 C3331 1.377 . S
C3347 C3345 1.389 . S
C3347 C3348 1.524 . S
C3348 C3347 1.524 . S
C3348 C3349 1.397 . S
C3348 C3353 1.363 . S
C3349 H3320 0.950 . S
C3349 C3348 1.397 . S
C3349 C3350 1.334 . S
C3350 H3321 0.950 . S
C3350 C3349 1.334 . S
C3350 C3351 1.287 . S
C3351 C3350 1.287 . S
C3351 C3352 1.524 . S
C3351 H3354 0.999 . S
C3352 H3322 0.950 . S
C3352 C3351 1.524 . S
C3352 C3353 1.415 . S
C3353 H3323 0.950 . S
C3353 C3348 1.363 . S
C3353 C3352 1.415 . S
H3354 C3351 0.999 . S
H3355 C3336 0.913 . S
H3356 C3374 0.951 . S
H3357 C3376 0.951 . S
H3358 C3378 0.950 . S
H3359 C3379 0.950 . S
H3360 C3381 0.950 . S
H3361 C3384 0.950 . S
H3362 C3385 0.950 . S
H3363 C3387 0.950 . S
H3364 C3388 0.950 . S
H3365 C3389 0.951 . S
H3366 C3391 0.951 . S
H3367 C3393 0.950 . S
H3368 C3394 0.950 . S
H3369 C3396 0.950 . S
H3370 C3399 0.950 . S
H3371 C3400 0.950 . S
H3372 C3402 0.950 . S
H3373 C3403 0.950 . S
C3374 H3356 0.951 . S
C3374 C3375 1.366 . S
C3374 C3376 1.388 . S
C3375 C3374 1.366 . S
C3375 C3379 1.385 . S
C3376 H3357 0.951 . S
C3376 C3374 1.388 . S
C3376 C3377 1.366 . S
C3377 C3376 1.366 . S
C3377 C3378 1.414 . S
C3377 C3380 1.499 . S
C3378 H3358 0.950 . S
C3378 C3377 1.414 . S
C3378 C3379 1.374 . S
C3379 H3359 0.950 . S
C3379 C3375 1.385 . S
C3379 C3378 1.374 . S
C3380 C3377 1.499 . S
C3380 C3381 1.373 . S
C3380 C3382 1.389 . S
C3381 H3360 0.950 . S
C3381 C3380 1.373 . S
C3381 C3397 1.377 . S
C3382 C3380 1.389 . S
C3382 C3383 1.524 . S
C3382 C3396 1.377 . S
C3383 C3382 1.524 . S
C3383 C3384 1.397 . S
C3383 C3388 1.363 . S
C3384 H3361 0.950 . S
C3384 C3383 1.397 . S
C3384 C3385 1.334 1_545 S
C3385 H3362 0.950 . S
C3385 C3384 1.334 1_565 S
C3385 C3386 1.291 . S
C3386 C3385 1.291 . S
C3386 C3387 1.503 1_565 S
C3386 H3405 0.929 . S
C3387 H3363 0.950 . S
C3387 C3386 1.503 1_545 S
C3387 C3388 1.415 . S
C3388 H3364 0.950 . S
C3388 C3383 1.363 . S
C3388 C3387 1.415 . S
C3389 H3365 0.951 . S
C3389 C3390 1.366 . S
C3389 C3391 1.388 . S
C3390 C3389 1.366 . S
C3390 C3394 1.385 . S
C3391 H3366 0.951 . S
C3391 C3389 1.388 . S
C3391 C3392 1.366 . S
C3392 C3391 1.366 . S
C3392 C3393 1.414 . S
C3392 C3395 1.499 . S
C3393 H3367 0.950 . S
C3393 C3392 1.414 . S
C3393 C3394 1.374 . S
C3394 H3368 0.950 . S
C3394 C3390 1.385 . S
C3394 C3393 1.374 . S
C3395 C3392 1.499 . S
C3395 C3396 1.373 . S
C3395 C3397 1.389 . S
C3396 H3369 0.950 . S
C3396 C3382 1.377 . S
C3396 C3395 1.373 . S
C3397 C3381 1.377 . S
C3397 C3395 1.389 . S
C3397 C3398 1.524 . S
C3398 C3397 1.524 . S
C3398 C3399 1.397 . S
C3398 C3403 1.363 . S
C3399 H3370 0.950 . S
C3399 C3398 1.397 . S
C3399 C3400 1.334 . S
C3400 H3371 0.950 . S
C3400 C3399 1.334 . S
C3400 C3401 1.287 . S
C3401 C3400 1.287 . S
C3401 C3402 1.524 . S
C3401 H3404 0.999 . S
C3402 H3372 0.950 . S
C3402 C3401 1.524 . S
C3402 C3403 1.415 . S
C3403 H3373 0.950 . S
C3403 C3398 1.363 . S
C3403 C3402 1.415 . S
H3404 C3401 0.999 . S
H3405 C3386 0.929 . S
H3406 C3424 0.951 . S
H3407 C3426 0.951 . S
H3408 C3428 0.950 . S
H3409 C3429 0.950 . S
H3410 C3431 0.950 . S
H3411 C3434 0.950 . S
H3412 C3435 0.950 . S
H3413 C3437 0.950 . S
H3414 C3438 0.950 . S
H3415 C3439 0.951 . S
H3416 C3441 0.951 . S
H3417 C3443 0.950 . S
H3418 C3444 0.950 . S
H3419 C3446 0.950 . S
H3420 C3449 0.950 . S
H3421 C3450 0.950 . S
H3422 C3452 0.950 . S
H3423 C3453 0.950 . S
C3424 H3406 0.951 . S
C3424 C3425 1.366 . S
C3424 C3426 1.388 . S
C3425 C3424 1.366 . S
C3425 C3429 1.385 . S
C3426 H3407 0.951 . S
C3426 C3424 1.388 . S
C3426 C3427 1.366 . S
C3427 C3426 1.366 . S
C3427 C3428 1.414 . S
C3427 C3430 1.499 . S
C3428 H3408 0.950 . S
C3428 C3427 1.414 . S
C3428 C3429 1.374 . S
C3429 H3409 0.950 . S
C3429 C3425 1.385 . S
C3429 C3428 1.374 . S
C3430 C3427 1.499 . S
C3430 C3431 1.373 . S
C3430 C3432 1.389 . S
C3431 H3410 0.950 . S
C3431 C3430 1.373 . S
C3431 C3447 1.377 . S
C3432 C3430 1.389 . S
C3432 C3433 1.524 . S
C3432 C3446 1.377 . S
C3433 C3432 1.524 . S
C3433 C3434 1.397 . S
C3433 C3438 1.363 . S
C3434 H3411 0.950 . S
C3434 C3433 1.397 . S
C3434 C3435 1.334 . S
C3435 H3412 0.950 . S
C3435 C3434 1.334 . S
C3435 C3436 1.287 . S
C3436 C3435 1.287 . S
C3436 C3437 1.524 . S
C3436 H3455 0.913 . S
C3437 H3413 0.950 . S
C3437 C3436 1.524 . S
C3437 C3438 1.415 . S
C3438 H3414 0.950 . S
C3438 C3433 1.363 . S
C3438 C3437 1.415 . S
C3439 H3415 0.951 . S
C3439 C3440 1.366 . S
C3439 C3441 1.388 . S
C3440 C3439 1.366 . S
C3440 C3444 1.385 . S
C3441 H3416 0.951 . S
C3441 C3439 1.388 . S
C3441 C3442 1.366 . S
C3442 C3441 1.366 . S
C3442 C3443 1.414 . S
C3442 C3445 1.499 . S
C3443 H3417 0.950 . S
C3443 C3442 1.414 . S
C3443 C3444 1.374 . S
C3444 H3418 0.950 . S
C3444 C3440 1.385 . S
C3444 C3443 1.374 . S
C3445 C3442 1.499 . S
C3445 C3446 1.373 . S
C3445 C3447 1.389 . S
C3446 H3419 0.950 . S
C3446 C3432 1.377 . S
C3446 C3445 1.373 . S
C3447 C3431 1.377 . S
C3447 C3445 1.389 . S
C3447 C3448 1.524 . S
C3448 C3447 1.524 . S
C3448 C3449 1.397 . S
C3448 C3453 1.363 . S
C3449 H3420 0.950 . S
C3449 C3448 1.397 . S
C3449 C3450 1.334 . S
C3450 H3421 0.950 . S
C3450 C3449 1.334 . S
C3450 C3451 1.287 . S
C3451 C3450 1.287 . S
C3451 C3452 1.524 . S
C3451 H3454 0.999 . S
C3452 H3422 0.950 . S
C3452 C3451 1.524 . S
C3452 C3453 1.415 . S
C3453 H3423 0.950 . S
C3453 C3448 1.363 . S
C3453 C3452 1.415 . S
H3454 C3451 0.999 . S
H3455 C3436 0.913 . S
H3456 C3474 0.951 . S
H3457 C3476 0.951 . S
H3458 C3478 0.950 . S
H3459 C3479 0.950 . S
H3460 C3481 0.936 1_565 S
H3461 C3484 0.950 1_565 S
H3462 C3485 0.950 1_565 S
H3463 C3487 0.950 . S
H3464 C3488 0.950 . S
H3465 C3489 0.951 . S
H3466 C3491 0.951 1_565 S
H3467 C3493 0.950 . S
H3468 C3494 0.950 . S
H3469 C3496 0.950 . S
H3470 C3499 0.950 . S
H3471 C3500 0.950 . S
H3472 C3502 0.950 . S
H3473 C3503 0.950 . S
C3474 H3456 0.951 . S
C3474 C3475 1.366 1_545 S
C3474 C3476 1.388 . S
C3475 C3474 1.366 1_565 S
C3475 C3479 1.385 . S
C3476 H3457 0.951 . S
C3476 C3474 1.388 . S
C3476 C3477 1.366 . S
C3477 C3476 1.366 . S
C3477 C3478 1.414 1_545 S
C3477 C3480 1.499 . S
C3478 H3458 0.950 . S
C3478 C3477 1.414 1_565 S
C3478 C3479 1.374 . S
C3479 H3459 0.950 . S
C3479 C3475 1.385 . S
C3479 C3478 1.374 . S
C3480 C3477 1.499 . S
C3480 C3481 1.373 . S
C3480 C3482 1.389 . S
C3481 H3460 0.936 1_545 S
C3481 C3480 1.373 . S
C3481 C3497 1.377 . S
C3482 C3480 1.389 . S
C3482 C3483 1.524 . S
C3482 C3496 1.377 . S
C3483 C3482 1.524 . S
C3483 C3484 1.397 . S
C3483 C3488 1.363 . S
C3484 H3461 0.950 1_545 S
C3484 C3483 1.397 . S
C3484 C3485 1.334 . S
C3485 H3462 0.950 1_545 S
C3485 C3484 1.334 . S
C3485 C3486 1.287 . S
C3486 C3485 1.287 . S
C3486 C3487 1.524 . S
C3486 H3505 0.913 . S
C3487 H3463 0.950 . S
C3487 C3486 1.524 . S
C3487 C3488 1.415 . S
C3488 H3464 0.950 . S
C3488 C3483 1.363 . S
C3488 C3487 1.415 . S
C3489 H3465 0.951 . S
C3489 C3490 1.366 . S
C3489 C3491 1.388 . S
C3490 C3489 1.366 . S
C3490 C3494 1.385 . S
C3491 H3466 0.951 1_545 S
C3491 C3489 1.388 . S
C3491 C3492 1.366 . S
C3492 C3491 1.366 . S
C3492 C3493 1.414 . S
C3492 C3495 1.499 . S
C3493 H3467 0.950 . S
C3493 C3492 1.414 . S
C3493 C3494 1.374 . S
C3494 H3468 0.950 . S
C3494 C3490 1.385 . S
C3494 C3493 1.374 . S
C3495 C3492 1.499 . S
C3495 C3496 1.373 . S
C3495 C3497 1.389 . S
C3496 H3469 0.950 . S
C3496 C3482 1.377 . S
C3496 C3495 1.373 . S
C3497 C3481 1.377 . S
C3497 C3495 1.389 . S
C3497 C3498 1.524 . S
C3498 C3497 1.524 . S
C3498 C3499 1.397 . S
C3498 C3503 1.363 1_545 S
C3499 H3470 0.950 . S
C3499 C3498 1.397 . S
C3499 C3500 1.334 . S
C3500 H3471 0.950 . S
C3500 C3499 1.334 . S
C3500 C3501 1.287 . S
C3501 C3500 1.287 . S
C3501 C3502 1.524 1_545 S
C3501 H3504 0.999 . S
C3502 H3472 0.950 . S
C3502 C3501 1.524 1_565 S
C3502 C3503 1.415 . S
C3503 H3473 0.950 . S
C3503 C3498 1.363 1_565 S
C3503 C3502 1.415 . S
H3504 C3501 0.999 . S
H3505 C3486 0.913 . S
H3506 C3524 0.951 . S
H3507 C3526 0.951 . S
H3508 C3528 0.950 . S
H3509 C3529 0.950 . S
H3510 C3531 0.950 . S
H3511 C3534 0.950 . S
H3512 C3535 0.950 . S
H3513 C3537 0.950 . S
H3514 C3538 0.950 . S
H3515 C3539 0.951 . S
H3516 C3541 0.951 . S
H3517 C3543 0.950 . S
H3518 C3544 0.950 . S
H3519 C3546 0.950 . S
H3520 C3549 0.950 . S
H3521 C3550 0.950 . S
H3522 C3552 0.950 . S
H3523 C3553 0.950 . S
C3524 H3506 0.951 . S
C3524 C3525 1.366 . S
C3524 C3526 1.388 . S
C3525 C3524 1.366 . S
C3525 C3529 1.385 . S
C3526 H3507 0.951 . S
C3526 C3524 1.388 . S
C3526 C3527 1.366 . S
C3527 C3526 1.366 . S
C3527 C3528 1.414 . S
C3527 C3530 1.499 . S
C3528 H3508 0.950 . S
C3528 C3527 1.414 . S
C3528 C3529 1.374 . S
C3529 H3509 0.950 . S
C3529 C3525 1.385 . S
C3529 C3528 1.374 . S
C3530 C3527 1.499 . S
C3530 C3531 1.373 . S
C3530 C3532 1.389 . S
C3531 H3510 0.950 . S
C3531 C3530 1.373 . S
C3531 C3547 1.377 . S
C3532 C3530 1.389 . S
C3532 C3533 1.524 . S
C3532 C3546 1.377 . S
C3533 C3532 1.524 . S
C3533 C3534 1.397 . S
C3533 C3538 1.363 . S
C3534 H3511 0.950 . S
C3534 C3533 1.397 . S
C3534 C3535 1.334 . S
C3535 H3512 0.950 . S
C3535 C3534 1.334 . S
C3535 C3536 1.287 . S
C3536 C3535 1.287 . S
C3536 C3537 1.524 . S
C3536 H3555 0.913 . S
C3537 H3513 0.950 . S
C3537 C3536 1.524 . S
C3537 C3538 1.415 . S
C3538 H3514 0.950 . S
C3538 C3533 1.363 . S
C3538 C3537 1.415 . S
C3539 H3515 0.951 . S
C3539 C3540 1.366 . S
C3539 C3541 1.388 . S
C3540 C3539 1.366 . S
C3540 C3544 1.385 . S
C3541 H3516 0.951 . S
C3541 C3539 1.388 . S
C3541 C3542 1.366 . S
C3542 C3541 1.366 . S
C3542 C3543 1.414 . S
C3542 C3545 1.499 . S
C3543 H3517 0.950 . S
C3543 C3542 1.414 . S
C3543 C3544 1.374 . S
C3544 H3518 0.950 . S
C3544 C3540 1.385 . S
C3544 C3543 1.374 . S
C3545 C3542 1.499 . S
C3545 C3546 1.373 . S
C3545 C3547 1.389 . S
C3546 H3519 0.950 . S
C3546 C3532 1.377 . S
C3546 C3545 1.373 . S
C3547 C3531 1.377 . S
C3547 C3545 1.389 . S
C3547 C3548 1.524 . S
C3548 C3547 1.524 . S
C3548 C3549 1.397 . S
C3548 C3553 1.363 . S
C3549 H3520 0.950 . S
C3549 C3548 1.397 . S
C3549 C3550 1.334 . S
C3550 H3521 0.950 . S
C3550 C3549 1.334 . S
C3550 C3551 1.287 . S
C3551 C3550 1.287 . S
C3551 C3552 1.524 . S
C3551 H3554 0.999 . S
C3552 H3522 0.950 . S
C3552 C3551 1.524 . S
C3552 C3553 1.415 . S
C3553 H3523 0.950 . S
C3553 C3548 1.363 . S
C3553 C3552 1.415 . S
H3554 C3551 0.999 . S
H3555 C3536 0.913 . S
H3556 C3574 0.951 . S
H3557 C3576 0.951 . S
H3558 C3578 0.950 . S
H3559 C3579 0.950 . S
H3560 C3581 0.950 . S
H3561 C3584 0.950 . S
H3562 C3585 0.950 . S
H3563 C3587 0.950 . S
H3564 C3588 0.950 . S
H3565 C3589 0.951 . S
H3566 C3591 0.951 . S
H3567 C3593 0.950 . S
H3568 C3594 0.950 . S
H3569 C3596 0.950 . S
H3570 C3599 0.950 . S
H3571 C3600 0.950 . S
H3572 C3602 0.950 . S
H3573 C3603 0.950 . S
C3574 H3556 0.951 . S
C3574 C3575 1.366 . S
C3574 C3576 1.388 . S
C3575 C3574 1.366 . S
C3575 C3579 1.385 . S
C3576 H3557 0.951 . S
C3576 C3574 1.388 . S
C3576 C3577 1.366 . S
C3577 C3576 1.366 . S
C3577 C3578 1.414 . S
C3577 C3580 1.499 . S
C3578 H3558 0.950 . S
C3578 C3577 1.414 . S
C3578 C3579 1.374 . S
C3579 H3559 0.950 . S
C3579 C3575 1.385 . S
C3579 C3578 1.374 . S
C3580 C3577 1.499 . S
C3580 C3581 1.373 . S
C3580 C3582 1.389 . S
C3581 H3560 0.950 . S
C3581 C3580 1.373 . S
C3581 C3597 1.377 . S
C3582 C3580 1.389 . S
C3582 C3583 1.524 . S
C3582 C3596 1.377 . S
C3583 C3582 1.524 . S
C3583 C3584 1.397 . S
C3583 C3588 1.363 . S
C3584 H3561 0.950 . S
C3584 C3583 1.397 . S
C3584 C3585 1.334 . S
C3585 H3562 0.950 . S
C3585 C3584 1.334 . S
C3585 C3586 1.287 . S
C3586 C3585 1.287 . S
C3586 C3587 1.524 . S
C3586 H3605 0.913 . S
C3587 H3563 0.950 . S
C3587 C3586 1.524 . S
C3587 C3588 1.415 . S
C3588 H3564 0.950 . S
C3588 C3583 1.363 . S
C3588 C3587 1.415 . S
C3589 H3565 0.951 . S
C3589 C3590 1.366 . S
C3589 C3591 1.388 . S
C3590 C3589 1.366 . S
C3590 C3594 1.385 . S
C3591 H3566 0.951 . S
C3591 C3589 1.388 . S
C3591 C3592 1.366 . S
C3592 C3591 1.366 . S
C3592 C3593 1.414 . S
C3592 C3595 1.499 . S
C3593 H3567 0.950 . S
C3593 C3592 1.414 . S
C3593 C3594 1.374 . S
C3594 H3568 0.950 . S
C3594 C3590 1.385 . S
C3594 C3593 1.374 . S
C3595 C3592 1.499 . S
C3595 C3596 1.373 . S
C3595 C3597 1.389 . S
C3596 H3569 0.950 . S
C3596 C3582 1.377 . S
C3596 C3595 1.373 . S
C3597 C3581 1.377 . S
C3597 C3595 1.389 . S
C3597 C3598 1.524 1_545 S
C3598 C3597 1.524 1_565 S
C3598 C3599 1.397 . S
C3598 C3603 1.363 . S
C3599 H3570 0.950 . S
C3599 C3598 1.397 . S
C3599 C3600 1.334 . S
C3600 H3571 0.950 . S
C3600 C3599 1.334 . S
C3600 C3601 1.287 . S
C3601 C3600 1.287 . S
C3601 C3602 1.524 . S
C3601 H3604 0.999 . S
C3602 H3572 0.950 . S
C3602 C3601 1.524 . S
C3602 C3603 1.415 . S
C3603 H3573 0.950 . S
C3603 C3598 1.363 . S
C3603 C3602 1.415 . S
H3604 C3601 0.999 . S
H3605 C3586 0.913 . S
H3606 C3624 0.951 . S
H3607 C3626 0.951 . S
H3608 C3628 0.950 . S
H3609 C3629 0.950 . S
H3610 C3631 0.950 . S
H3611 C3634 0.950 . S
H3612 C3635 0.950 . S
H3613 C3637 0.950 . S
H3614 C3638 0.950 . S
H3615 C3639 0.951 . S
H3616 C3641 0.951 . S
H3617 C3643 0.950 . S
H3618 C3644 0.950 . S
H3619 C3646 0.950 . S
H3620 C3649 0.950 . S
H3621 C3650 0.950 . S
H3622 C3652 0.950 . S
H3623 C3653 0.950 . S
C3624 H3606 0.951 . S
C3624 C3625 1.366 . S
C3624 C3626 1.388 . S
C3625 C3624 1.366 . S
C3625 C3629 1.385 . S
C3626 H3607 0.951 . S
C3626 C3624 1.388 . S
C3626 C3627 1.366 . S
C3627 C3626 1.366 . S
C3627 C3628 1.414 . S
C3627 C3630 1.499 . S
C3628 H3608 0.950 . S
C3628 C3627 1.414 . S
C3628 C3629 1.374 . S
C3629 H3609 0.950 . S
C3629 C3625 1.385 . S
C3629 C3628 1.374 . S
C3630 C3627 1.499 . S
C3630 C3631 1.373 . S
C3630 C3632 1.389 . S
C3631 H3610 0.950 . S
C3631 C3630 1.373 . S
C3631 C3647 1.377 . S
C3632 C3630 1.389 . S
C3632 C3633 1.524 . S
C3632 C3646 1.377 . S
C3633 C3632 1.524 . S
C3633 C3634 1.397 . S
C3633 C3638 1.363 . S
C3634 H3611 0.950 . S
C3634 C3633 1.397 . S
C3634 C3635 1.334 . S
C3635 H3612 0.950 . S
C3635 C3634 1.334 . S
C3635 C3636 1.287 . S
C3636 C3635 1.287 . S
C3636 C3637 1.524 . S
C3636 H3655 0.913 . S
C3637 H3613 0.950 . S
C3637 C3636 1.524 . S
C3637 C3638 1.415 . S
C3638 H3614 0.950 . S
C3638 C3633 1.363 . S
C3638 C3637 1.415 . S
C3639 H3615 0.951 . S
C3639 C3640 1.366 . S
C3639 C3641 1.388 . S
C3640 C3639 1.366 . S
C3640 C3644 1.385 . S
C3641 H3616 0.951 . S
C3641 C3639 1.388 . S
C3641 C3642 1.366 . S
C3642 C3641 1.366 . S
C3642 C3643 1.414 . S
C3642 C3645 1.499 . S
C3643 H3617 0.950 . S
C3643 C3642 1.414 . S
C3643 C3644 1.374 . S
C3644 H3618 0.950 . S
C3644 C3640 1.385 . S
C3644 C3643 1.374 . S
C3645 C3642 1.499 . S
C3645 C3646 1.373 . S
C3645 C3647 1.389 . S
C3646 H3619 0.950 . S
C3646 C3632 1.377 . S
C3646 C3645 1.373 . S
C3647 C3631 1.377 . S
C3647 C3645 1.389 . S
C3647 C3648 1.524 . S
C3648 C3647 1.524 . S
C3648 C3649 1.397 . S
C3648 C3653 1.363 . S
C3649 H3620 0.950 . S
C3649 C3648 1.397 . S
C3649 C3650 1.334 . S
C3650 H3621 0.950 . S
C3650 C3649 1.334 . S
C3650 C3651 1.287 . S
C3651 C3650 1.287 . S
C3651 C3652 1.524 . S
C3651 H3654 0.999 . S
C3652 H3622 0.950 . S
C3652 C3651 1.524 . S
C3652 C3653 1.415 . S
C3653 H3623 0.950 . S
C3653 C3648 1.363 . S
C3653 C3652 1.415 . S
H3654 C3651 0.999 . S
H3655 C3636 0.913 . S
H3656 C3674 0.951 . S
H3657 C3676 0.951 . S
H3658 C3678 0.950 . S
H3659 C3679 0.950 . S
H3660 C3681 0.939 1_556 S
H3661 C3684 0.950 . S
H3662 C3685 0.950 . S
H3663 C3687 0.950 . S
H3664 C3688 0.950 . S
H3665 C3689 0.951 . S
H3666 C3691 0.951 . S
H3667 C3693 0.950 . S
H3668 C3694 0.950 . S
H3669 C3696 0.950 . S
H3670 C3699 0.950 . S
H3671 C3700 0.950 . S
H3672 C3702 0.950 . S
H3673 C3703 0.950 . S
C3674 H3656 0.951 . S
C3674 C3675 1.366 . S
C3674 C3676 1.388 . S
C3675 C3674 1.366 . S
C3675 C3679 1.385 . S
C3676 H3657 0.951 . S
C3676 C3674 1.388 . S
C3676 C3677 1.366 . S
C3677 C3676 1.366 . S
C3677 C3678 1.414 . S
C3677 C3680 1.499 . S
C3678 H3658 0.950 . S
C3678 C3677 1.414 . S
C3678 C3679 1.374 . S
C3679 H3659 0.950 . S
C3679 C3675 1.385 . S
C3679 C3678 1.374 . S
C3680 C3677 1.499 . S
C3680 C3681 1.387 . S
C3680 C3682 1.389 . S
C3681 H3660 0.939 1_554 S
C3681 C3680 1.387 . S
C3681 C3697 1.375 1_554 S
C3682 C3680 1.389 . S
C3682 C3683 1.524 . S
C3682 C3696 1.377 . S
C3683 C3682 1.524 . S
C3683 C3684 1.397 . S
C3683 C3688 1.363 . S
C3684 H3661 0.950 . S
C3684 C3683 1.397 . S
C3684 C3685 1.334 . S
C3685 H3662 0.950 . S
C3685 C3684 1.334 . S
C3685 C3686 1.287 . S
C3686 C3685 1.287 . S
C3686 C3687 1.524 . S
C3686 H3705 0.913 . S
C3687 H3663 0.950 . S
C3687 C3686 1.524 . S
C3687 C3688 1.415 . S
C3688 H3664 0.950 . S
C3688 C3683 1.363 . S
C3688 C3687 1.415 . S
C3689 H3665 0.951 . S
C3689 C3690 1.366 . S
C3689 C3691 1.388 . S
C3690 C3689 1.366 . S
C3690 C3694 1.385 . S
C3691 H3666 0.951 . S
C3691 C3689 1.388 . S
C3691 C3692 1.366 . S
C3692 C3691 1.366 . S
C3692 C3693 1.414 . S
C3692 C3695 1.499 . S
C3693 H3667 0.950 . S
C3693 C3692 1.414 . S
C3693 C3694 1.374 . S
C3694 H3668 0.950 . S
C3694 C3690 1.385 . S
C3694 C3693 1.374 . S
C3695 C3692 1.499 . S
C3695 C3696 1.373 . S
C3695 C3697 1.389 1_554 S
C3696 H3669 0.950 . S
C3696 C3682 1.377 . S
C3696 C3695 1.373 . S
C3697 C3681 1.375 1_556 S
C3697 C3695 1.389 1_556 S
C3697 C3698 1.524 . S
C3698 C3697 1.524 . S
C3698 C3699 1.397 . S
C3698 C3703 1.363 . S
C3699 H3670 0.950 . S
C3699 C3698 1.397 . S
C3699 C3700 1.334 . S
C3700 H3671 0.950 . S
C3700 C3699 1.334 . S
C3700 C3701 1.287 . S
C3701 C3700 1.287 . S
C3701 C3702 1.524 . S
C3701 H3704 0.999 . S
C3702 H3672 0.950 . S
C3702 C3701 1.524 . S
C3702 C3703 1.415 . S
C3703 H3673 0.950 . S
C3703 C3698 1.363 . S
C3703 C3702 1.415 . S
H3704 C3701 0.999 . S
H3705 C3686 0.913 . S
H3706 C3724 0.951 . S
H3707 C3726 0.951 . S
H3708 C3728 0.950 . S
H3709 C3729 0.950 . S
H3710 C3731 0.950 . S
H3711 C3734 0.950 . S
H3712 C3735 0.950 . S
H3713 C3737 0.950 . S
H3714 C3738 0.950 . S
H3715 C3739 0.951 . S
H3716 C3741 0.951 . S
H3717 C3743 0.950 . S
H3718 C3744 0.950 . S
H3719 C3746 0.950 . S
H3720 C3749 0.950 . S
H3721 C3750 0.950 . S
H3722 C3752 0.950 . S
H3723 C3753 0.965 . S
C3724 H3706 0.951 . S
C3724 C3725 1.366 . S
C3724 C3726 1.388 . S
C3725 C3724 1.366 . S
C3725 C3729 1.385 . S
C3726 H3707 0.951 . S
C3726 C3724 1.388 . S
C3726 C3727 1.366 . S
C3727 C3726 1.366 . S
C3727 C3728 1.414 . S
C3727 C3730 1.499 . S
C3728 H3708 0.950 . S
C3728 C3727 1.414 . S
C3728 C3729 1.374 . S
C3729 H3709 0.950 . S
C3729 C3725 1.385 . S
C3729 C3728 1.374 . S
C3730 C3727 1.499 . S
C3730 C3731 1.373 . S
C3730 C3732 1.389 . S
C3731 H3710 0.950 . S
C3731 C3730 1.373 . S
C3731 C3747 1.377 . S
C3732 C3730 1.389 . S
C3732 C3733 1.524 . S
C3732 C3746 1.377 . S
C3733 C3732 1.524 . S
C3733 C3734 1.397 . S
C3733 C3738 1.363 . S
C3734 H3711 0.950 . S
C3734 C3733 1.397 . S
C3734 C3735 1.334 . S
C3735 H3712 0.950 . S
C3735 C3734 1.334 . S
C3735 C3736 1.287 . S
C3736 C3735 1.287 . S
C3736 C3737 1.524 . S
C3736 H3755 0.913 . S
C3737 H3713 0.950 . S
C3737 C3736 1.524 . S
C3737 C3738 1.415 . S
C3738 H3714 0.950 . S
C3738 C3733 1.363 . S
C3738 C3737 1.415 . S
C3739 H3715 0.951 . S
C3739 C3740 1.366 . S
C3739 C3741 1.388 . S
C3740 C3739 1.366 . S
C3740 C3744 1.385 . S
C3741 H3716 0.951 . S
C3741 C3739 1.388 . S
C3741 C3742 1.366 . S
C3742 C3741 1.366 . S
C3742 C3743 1.414 . S
C3742 C3745 1.499 . S
C3743 H3717 0.950 . S
C3743 C3742 1.414 . S
C3743 C3744 1.374 . S
C3744 H3718 0.950 . S
C3744 C3740 1.385 . S
C3744 C3743 1.374 . S
C3745 C3742 1.499 . S
C3745 C3746 1.373 . S
C3745 C3747 1.389 . S
C3746 H3719 0.950 . S
C3746 C3732 1.377 . S
C3746 C3745 1.373 . S
C3747 C3731 1.377 . S
C3747 C3745 1.389 . S
C3747 C3748 1.524 . S
C3748 C3747 1.524 . S
C3748 C3749 1.397 1_554 S
C3748 C3753 1.372 . S
C3749 H3720 0.950 . S
C3749 C3748 1.397 1_556 S
C3749 C3750 1.334 . S
C3750 H3721 0.950 . S
C3750 C3749 1.334 . S
C3750 C3751 1.287 . S
C3751 C3750 1.287 . S
C3751 C3752 1.524 . S
C3751 H3754 0.999 . S
C3752 H3722 0.950 . S
C3752 C3751 1.524 . S
C3752 C3753 1.392 1_556 S
C3753 H3723 0.965 . S
C3753 C3748 1.372 . S
C3753 C3752 1.392 1_554 S
H3754 C3751 0.999 . S
H3755 C3736 0.913 . S
H3756 C3774 0.951 . S
H3757 C3776 0.951 . S
H3758 C3778 0.950 . S
H3759 C3779 0.950 . S
H3760 C3781 0.950 . S
H3761 C3784 0.950 . S
H3762 C3785 0.950 . S
H3763 C3787 0.950 . S
H3764 C3788 0.950 . S
H3765 C3789 0.951 . S
H3766 C3791 0.951 . S
H3767 C3793 0.950 . S
H3768 C3794 0.950 . S
H3769 C3796 0.950 . S
H3770 C3799 0.950 . S
H3771 C3800 0.950 . S
H3772 C3802 0.950 . S
H3773 C3803 0.950 . S
C3774 H3756 0.951 . S
C3774 C3775 1.366 . S
C3774 C3776 1.388 . S
C3775 C3774 1.366 . S
C3775 C3779 1.385 . S
C3776 H3757 0.951 . S
C3776 C3774 1.388 . S
C3776 C3777 1.366 . S
C3777 C3776 1.366 . S
C3777 C3778 1.414 . S
C3777 C3780 1.499 . S
C3778 H3758 0.950 . S
C3778 C3777 1.414 . S
C3778 C3779 1.374 . S
C3779 H3759 0.950 . S
C3779 C3775 1.385 . S
C3779 C3778 1.374 . S
C3780 C3777 1.499 . S
C3780 C3781 1.373 . S
C3780 C3782 1.389 . S
C3781 H3760 0.950 . S
C3781 C3780 1.373 . S
C3781 C3797 1.377 . S
C3782 C3780 1.389 . S
C3782 C3783 1.524 . S
C3782 C3796 1.377 . S
C3783 C3782 1.524 . S
C3783 C3784 1.397 . S
C3783 C3788 1.363 . S
C3784 H3761 0.950 . S
C3784 C3783 1.397 . S
C3784 C3785 1.334 . S
C3785 H3762 0.950 . S
C3785 C3784 1.334 . S
C3785 C3786 1.287 . S
C3786 C3785 1.287 . S
C3786 C3787 1.524 . S
C3786 H3805 0.913 . S
C3787 H3763 0.950 . S
C3787 C3786 1.524 . S
C3787 C3788 1.415 . S
C3788 H3764 0.950 . S
C3788 C3783 1.363 . S
C3788 C3787 1.415 . S
C3789 H3765 0.951 . S
C3789 C3790 1.366 . S
C3789 C3791 1.388 . S
C3790 C3789 1.366 . S
C3790 C3794 1.385 . S
C3791 H3766 0.951 . S
C3791 C3789 1.388 . S
C3791 C3792 1.366 . S
C3792 C3791 1.366 . S
C3792 C3793 1.414 . S
C3792 C3795 1.499 . S
C3793 H3767 0.950 . S
C3793 C3792 1.414 . S
C3793 C3794 1.374 . S
C3794 H3768 0.950 . S
C3794 C3790 1.385 . S
C3794 C3793 1.374 . S
C3795 C3792 1.499 . S
C3795 C3796 1.373 . S
C3795 C3797 1.389 . S
C3796 H3769 0.950 . S
C3796 C3782 1.377 . S
C3796 C3795 1.373 . S
C3797 C3781 1.377 . S
C3797 C3795 1.389 . S
C3797 C3798 1.524 . S
C3798 C3797 1.524 . S
C3798 C3799 1.397 . S
C3798 C3803 1.363 . S
C3799 H3770 0.950 . S
C3799 C3798 1.397 . S
C3799 C3800 1.334 . S
C3800 H3771 0.950 . S
C3800 C3799 1.334 . S
C3800 C3801 1.287 . S
C3801 C3800 1.287 . S
C3801 C3802 1.524 . S
C3801 H3804 0.999 . S
C3802 H3772 0.950 . S
C3802 C3801 1.524 . S
C3802 C3803 1.415 . S
C3803 H3773 0.950 . S
C3803 C3798 1.363 . S
C3803 C3802 1.415 . S
H3804 C3801 0.999 . S
H3805 C3786 0.913 . S
H3806 C3824 0.951 . S
H3807 C3826 0.951 . S
H3808 C3828 0.950 . S
H3809 C3829 0.950 . S
H3810 C3831 0.950 . S
H3811 C3834 0.950 . S
H3812 C3835 0.950 . S
H3813 C3837 0.950 . S
H3814 C3838 0.950 . S
H3815 C3839 0.951 . S
H3816 C3841 0.951 . S
H3817 C3843 0.950 . S
H3818 C3844 0.950 . S
H3819 C3846 0.950 . S
H3820 C3849 0.950 . S
H3821 C3850 0.950 . S
H3822 C3852 0.950 . S
H3823 C3853 0.950 . S
C3824 H3806 0.951 . S
C3824 C3825 1.366 . S
C3824 C3826 1.388 . S
C3825 C3824 1.366 . S
C3825 C3829 1.385 . S
C3826 H3807 0.951 . S
C3826 C3824 1.388 . S
C3826 C3827 1.366 . S
C3827 C3826 1.366 . S
C3827 C3828 1.414 . S
C3827 C3830 1.499 . S
C3828 H3808 0.950 . S
C3828 C3827 1.414 . S
C3828 C3829 1.374 . S
C3829 H3809 0.950 . S
C3829 C3825 1.385 . S
C3829 C3828 1.374 . S
C3830 C3827 1.499 . S
C3830 C3831 1.373 . S
C3830 C3832 1.389 . S
C3831 H3810 0.950 . S
C3831 C3830 1.373 . S
C3831 C3847 1.377 . S
C3832 C3830 1.389 . S
C3832 C3833 1.524 . S
C3832 C3846 1.377 . S
C3833 C3832 1.524 . S
C3833 C3834 1.397 . S
C3833 C3838 1.363 . S
C3834 H3811 0.950 . S
C3834 C3833 1.397 . S
C3834 C3835 1.334 . S
C3835 H3812 0.950 . S
C3835 C3834 1.334 . S
C3835 C3836 1.287 . S
C3836 C3835 1.287 . S
C3836 C3837 1.524 . S
C3836 H3855 0.913 . S
C3837 H3813 0.950 . S
C3837 C3836 1.524 . S
C3837 C3838 1.415 . S
C3838 H3814 0.950 . S
C3838 C3833 1.363 . S
C3838 C3837 1.415 . S
C3839 H3815 0.951 . S
C3839 C3840 1.366 . S
C3839 C3841 1.388 . S
C3840 C3839 1.366 . S
C3840 C3844 1.385 . S
C3841 H3816 0.951 . S
C3841 C3839 1.388 . S
C3841 C3842 1.366 . S
C3842 C3841 1.366 . S
C3842 C3843 1.414 . S
C3842 C3845 1.499 . S
C3843 H3817 0.950 . S
C3843 C3842 1.414 . S
C3843 C3844 1.374 . S
C3844 H3818 0.950 . S
C3844 C3840 1.385 . S
C3844 C3843 1.374 . S
C3845 C3842 1.499 . S
C3845 C3846 1.373 . S
C3845 C3847 1.389 . S
C3846 H3819 0.950 . S
C3846 C3832 1.377 . S
C3846 C3845 1.373 . S
C3847 C3831 1.377 . S
C3847 C3845 1.389 . S
C3847 C3848 1.524 . S
C3848 C3847 1.524 . S
C3848 C3849 1.397 . S
C3848 C3853 1.363 . S
C3849 H3820 0.950 . S
C3849 C3848 1.397 . S
C3849 C3850 1.334 . S
C3850 H3821 0.950 . S
C3850 C3849 1.334 . S
C3850 C3851 1.287 . S
C3851 C3850 1.287 . S
C3851 C3852 1.524 . S
C3851 H3854 0.999 . S
C3852 H3822 0.950 . S
C3852 C3851 1.524 . S
C3852 C3853 1.415 . S
C3853 H3823 0.950 . S
C3853 C3848 1.363 . S
C3853 C3852 1.415 . S
H3854 C3851 0.999 . S
H3855 C3836 0.913 . S
H3856 C3874 0.951 . S
H3857 C3876 0.951 . S
H3858 C3878 0.948 1_545 S
H3859 C3879 0.950 . S
H3860 C3881 0.950 . S
H3861 C3884 0.950 . S
H3862 C3885 0.950 . S
H3863 C3887 0.950 . S
H3864 C3888 0.950 . S
H3865 C3889 0.951 . S
H3866 C3891 0.951 . S
H3867 C3893 0.950 . S
H3868 C3894 0.950 . S
H3869 C3896 0.950 . S
H3870 C3899 0.950 . S
H3871 C3900 0.950 . S
H3872 C3902 0.950 . S
H3873 C3903 0.950 . S
C3874 H3856 0.951 . S
C3874 C3875 1.366 1_565 S
C3874 C3876 1.388 . S
C3875 C3874 1.366 1_545 S
C3875 C3879 1.385 . S
C3876 H3857 0.951 . S
C3876 C3874 1.388 . S
C3876 C3877 1.366 . S
C3877 C3876 1.366 . S
C3877 C3878 1.449 . S
C3877 C3880 1.499 . S
C3878 H3858 0.948 1_565 S
C3878 C3877 1.449 . S
C3878 C3879 1.342 1_565 S
C3879 H3859 0.950 . S
C3879 C3875 1.385 . S
C3879 C3878 1.342 1_545 S
C3880 C3877 1.499 . S
C3880 C3881 1.373 . S
C3880 C3882 1.389 . S
C3881 H3860 0.950 . S
C3881 C3880 1.373 . S
C3881 C3897 1.377 . S
C3882 C3880 1.389 . S
C3882 C3883 1.524 . S
C3882 C3896 1.377 . S
C3883 C3882 1.524 . S
C3883 C3884 1.397 . S
C3883 C3888 1.363 . S
C3884 H3861 0.950 . S
C3884 C3883 1.397 . S
C3884 C3885 1.334 . S
C3885 H3862 0.950 . S
C3885 C3884 1.334 . S
C3885 C3886 1.287 . S
C3886 C3885 1.287 . S
C3886 C3887 1.524 . S
C3886 H3905 0.913 . S
C3887 H3863 0.950 . S
C3887 C3886 1.524 . S
C3887 C3888 1.415 . S
C3888 H3864 0.950 . S
C3888 C3883 1.363 . S
C3888 C3887 1.415 . S
C3889 H3865 0.951 . S
C3889 C3890 1.366 . S
C3889 C3891 1.388 . S
C3890 C3889 1.366 . S
C3890 C3894 1.385 . S
C3891 H3866 0.951 . S
C3891 C3889 1.388 . S
C3891 C3892 1.366 . S
C3892 C3891 1.366 . S
C3892 C3893 1.414 . S
C3892 C3895 1.499 . S
C3893 H3867 0.950 . S
C3893 C3892 1.414 . S
C3893 C3894 1.374 . S
C3894 H3868 0.950 . S
C3894 C3890 1.385 . S
C3894 C3893 1.374 . S
C3895 C3892 1.499 . S
C3895 C3896 1.373 . S
C3895 C3897 1.389 . S
C3896 H3869 0.950 . S
C3896 C3882 1.377 . S
C3896 C3895 1.373 . S
C3897 C3881 1.377 . S
C3897 C3895 1.389 . S
C3897 C3898 1.524 . S
C3898 C3897 1.524 . S
C3898 C3899 1.397 . S
C3898 C3903 1.363 . S
C3899 H3870 0.950 . S
C3899 C3898 1.397 . S
C3899 C3900 1.334 . S
C3900 H3871 0.950 . S
C3900 C3899 1.334 . S
C3900 C3901 1.287 . S
C3901 C3900 1.287 . S
C3901 C3902 1.524 . S
C3901 H3904 0.999 . S
C3902 H3872 0.950 . S
C3902 C3901 1.524 . S
C3902 C3903 1.415 . S
C3903 H3873 0.950 . S
C3903 C3898 1.363 . S
C3903 C3902 1.415 . S
H3904 C3901 0.999 . S
H3905 C3886 0.913 . S
H3906 C3924 0.951 . S
H3907 C3926 0.951 . S
H3908 C3928 0.950 . S
H3909 C3929 0.950 . S
H3910 C3931 0.950 . S
H3911 C3934 0.950 . S
H3912 C3935 0.950 . S
H3913 C3937 0.950 . S
H3914 C3938 0.950 . S
H3915 C3939 0.918 1_545 S
H3916 C3941 0.951 . S
H3917 C3943 0.950 . S
H3918 C3944 0.950 . S
H3919 C3946 0.950 . S
H3920 C3949 0.945 1_565 S
H3921 C3950 0.950 . S
H3922 C3952 0.950 . S
H3923 C3953 0.972 . S
C3924 H3906 0.951 . S
C3924 C3925 1.366 . S
C3924 C3926 1.388 . S
C3925 C3924 1.366 . S
C3925 C3929 1.385 . S
C3926 H3907 0.951 . S
C3926 C3924 1.388 . S
C3926 C3927 1.366 . S
C3927 C3926 1.366 . S
C3927 C3928 1.414 . S
C3927 C3930 1.499 . S
C3928 H3908 0.950 . S
C3928 C3927 1.414 . S
C3928 C3929 1.374 . S
C3929 H3909 0.950 . S
C3929 C3925 1.385 . S
C3929 C3928 1.374 . S
C3930 C3927 1.499 . S
C3930 C3931 1.373 . S
C3930 C3932 1.389 . S
C3931 H3910 0.950 . S
C3931 C3930 1.373 . S
C3931 C3947 1.377 . S
C3932 C3930 1.389 . S
C3932 C3933 1.524 . S
C3932 C3946 1.377 . S
C3933 C3932 1.524 . S
C3933 C3934 1.397 . S
C3933 C3938 1.363 . S
C3934 H3911 0.950 . S
C3934 C3933 1.397 . S
C3934 C3935 1.334 . S
C3935 H3912 0.950 . S
C3935 C3934 1.334 . S
C3935 C3936 1.287 . S
C3936 C3935 1.287 . S
C3936 C3937 1.524 . S
C3936 H3955 0.913 . S
C3937 H3913 0.950 . S
C3937 C3936 1.524 . S
C3937 C3938 1.415 . S
C3938 H3914 0.950 . S
C3938 C3933 1.363 . S
C3938 C3937 1.415 . S
C3939 H3915 0.918 1_565 S
C3939 C3940 1.366 . S
C3939 C3941 1.388 . S
C3940 C3939 1.366 . S
C3940 C3944 1.385 . S
C3941 H3916 0.951 . S
C3941 C3939 1.388 . S
C3941 C3942 1.366 . S
C3942 C3941 1.366 . S
C3942 C3943 1.414 . S
C3942 C3945 1.499 . S
C3943 H3917 0.950 . S
C3943 C3942 1.414 . S
C3943 C3944 1.374 . S
C3944 H3918 0.950 . S
C3944 C3940 1.385 . S
C3944 C3943 1.374 . S
C3945 C3942 1.499 . S
C3945 C3946 1.373 . S
C3945 C3947 1.389 . S
C3946 H3919 0.950 . S
C3946 C3932 1.377 . S
C3946 C3945 1.373 . S
C3947 C3931 1.377 . S
C3947 C3945 1.389 . S
C3947 C3948 1.524 . S
C3948 C3947 1.524 . S
C3948 C3949 1.391 1_565 S
C3948 C3953 1.377 . S
C3949 H3920 0.945 1_545 S
C3949 C3948 1.391 1_545 S
C3949 C3950 1.344 . S
C3950 H3921 0.950 . S
C3950 C3949 1.344 . S
C3950 C3951 1.287 . S
C3951 C3950 1.287 . S
C3951 C3952 1.524 . S
C3951 H3954 0.999 . S
C3952 H3922 0.950 . S
C3952 C3951 1.524 . S
C3952 C3953 1.380 1_545 S
C3953 H3923 0.972 . S
C3953 C3948 1.377 . S
C3953 C3952 1.380 1_565 S
H3954 C3951 0.999 . S
H3955 C3936 0.913 . S
H3956 C3974 0.951 . S
H3957 C3976 0.951 . S
H3958 C3978 0.950 . S
H3959 C3979 0.950 . S
H3960 C3981 0.950 . S
H3961 C3984 0.950 . S
H3962 C3985 0.950 . S
H3963 C3987 0.950 . S
H3964 C3988 0.950 . S
H3965 C3989 0.951 . S
H3966 C3991 0.951 . S
H3967 C3993 0.950 . S
H3968 C3994 0.950 . S
H3969 C3996 0.950 . S
H3970 C3999 0.950 . S
H3971 C4000 0.950 . S
H3972 C4002 0.950 . S
H3973 C4003 0.950 . S
C3974 H3956 0.951 . S
C3974 C3975 1.366 . S
C3974 C3976 1.388 . S
C3975 C3974 1.366 . S
C3975 C3979 1.385 . S
C3976 H3957 0.951 . S
C3976 C3974 1.388 . S
C3976 C3977 1.366 . S
C3977 C3976 1.366 . S
C3977 C3978 1.414 . S
C3977 C3980 1.499 . S
C3978 H3958 0.950 . S
C3978 C3977 1.414 . S
C3978 C3979 1.374 . S
C3979 H3959 0.950 . S
C3979 C3975 1.385 . S
C3979 C3978 1.374 . S
C3980 C3977 1.499 . S
C3980 C3981 1.373 . S
C3980 C3982 1.389 . S
C3981 H3960 0.950 . S
C3981 C3980 1.373 . S
C3981 C3997 1.377 . S
C3982 C3980 1.389 . S
C3982 C3983 1.524 . S
C3982 C3996 1.377 . S
C3983 C3982 1.524 . S
C3983 C3984 1.397 . S
C3983 C3988 1.363 . S
C3984 H3961 0.950 . S
C3984 C3983 1.397 . S
C3984 C3985 1.334 . S
C3985 H3962 0.950 . S
C3985 C3984 1.334 . S
C3985 C3986 1.287 . S
C3986 C3985 1.287 . S
C3986 C3987 1.524 . S
C3986 H4005 0.913 . S
C3987 H3963 0.950 . S
C3987 C3986 1.524 . S
C3987 C3988 1.415 . S
C3988 H3964 0.950 . S
C3988 C3983 1.363 . S
C3988 C3987 1.415 . S
C3989 H3965 0.951 . S
C3989 C3990 1.366 . S
C3989 C3991 1.388 . S
C3990 C3989 1.366 . S
C3990 C3994 1.385 . S
C3991 H3966 0.951 . S
C3991 C3989 1.388 . S
C3991 C3992 1.366 . S
C3992 C3991 1.366 . S
C3992 C3993 1.414 . S
C3992 C3995 1.499 . S
C3993 H3967 0.950 . S
C3993 C3992 1.414 . S
C3993 C3994 1.374 . S
C3994 H3968 0.950 . S
C3994 C3990 1.385 . S
C3994 C3993 1.374 . S
C3995 C3992 1.499 . S
C3995 C3996 1.373 . S
C3995 C3997 1.389 . S
C3996 H3969 0.950 . S
C3996 C3982 1.377 . S
C3996 C3995 1.373 . S
C3997 C3981 1.377 . S
C3997 C3995 1.389 . S
C3997 C3998 1.524 . S
C3998 C3997 1.524 . S
C3998 C3999 1.397 . S
C3998 C4003 1.363 . S
C3999 H3970 0.950 . S
C3999 C3998 1.397 . S
C3999 C4000 1.334 . S
C4000 H3971 0.950 . S
C4000 C3999 1.334 . S
C4000 C4001 1.287 . S
C4001 C4000 1.287 . S
C4001 C4002 1.524 . S
C4001 H4004 0.999 . S
C4002 H3972 0.950 . S
C4002 C4001 1.524 . S
C4002 C4003 1.415 . S
C4003 H3973 0.950 . S
C4003 C3998 1.363 . S
C4003 C4002 1.415 . S
H4004 C4001 0.999 . S
H4005 C3986 0.913 . S
H4006 C4024 0.951 . S
H4007 C4026 0.951 . S
H4008 C4028 0.950 . S
H4009 C4029 0.950 . S
H4010 C4031 0.950 . S
H4011 C4034 0.950 . S
H4012 C4035 0.950 . S
H4013 C4037 0.950 . S
H4014 C4038 0.950 . S
H4015 C4039 0.951 . S
H4016 C4041 0.951 . S
H4017 C4043 0.950 . S
H4018 C4044 0.950 . S
H4019 C4046 0.950 . S
H4020 C4049 0.950 . S
H4021 C4050 0.950 . S
H4022 C4052 0.950 . S
H4023 C4053 0.950 . S
C4024 H4006 0.951 . S
C4024 C4025 1.366 . S
C4024 C4026 1.388 . S
C4025 C4024 1.366 . S
C4025 C4029 1.385 . S
C4026 H4007 0.951 . S
C4026 C4024 1.388 . S
C4026 C4027 1.366 . S
C4027 C4026 1.366 . S
C4027 C4028 1.414 . S
C4027 C4030 1.499 . S
C4028 H4008 0.950 . S
C4028 C4027 1.414 . S
C4028 C4029 1.374 . S
C4029 H4009 0.950 . S
C4029 C4025 1.385 . S
C4029 C4028 1.374 . S
C4030 C4027 1.499 . S
C4030 C4031 1.373 . S
C4030 C4032 1.389 . S
C4031 H4010 0.950 . S
C4031 C4030 1.373 . S
C4031 C4047 1.377 . S
C4032 C4030 1.389 . S
C4032 C4033 1.524 . S
C4032 C4046 1.377 . S
C4033 C4032 1.524 . S
C4033 C4034 1.397 . S
C4033 C4038 1.363 . S
C4034 H4011 0.950 . S
C4034 C4033 1.397 . S
C4034 C4035 1.334 . S
C4035 H4012 0.950 . S
C4035 C4034 1.334 . S
C4035 C4036 1.287 . S
C4036 C4035 1.287 . S
C4036 C4037 1.524 . S
C4036 H4055 0.913 . S
C4037 H4013 0.950 . S
C4037 C4036 1.524 . S
C4037 C4038 1.415 . S
C4038 H4014 0.950 . S
C4038 C4033 1.363 . S
C4038 C4037 1.415 . S
C4039 H4015 0.951 . S
C4039 C4040 1.366 . S
C4039 C4041 1.388 . S
C4040 C4039 1.366 . S
C4040 C4044 1.385 . S
C4041 H4016 0.951 . S
C4041 C4039 1.388 . S
C4041 C4042 1.366 . S
C4042 C4041 1.366 . S
C4042 C4043 1.414 . S
C4042 C4045 1.499 . S
C4043 H4017 0.950 . S
C4043 C4042 1.414 . S
C4043 C4044 1.374 . S
C4044 H4018 0.950 . S
C4044 C4040 1.385 . S
C4044 C4043 1.374 . S
C4045 C4042 1.499 . S
C4045 C4046 1.373 . S
C4045 C4047 1.389 . S
C4046 H4019 0.950 . S
C4046 C4032 1.377 . S
C4046 C4045 1.373 . S
C4047 C4031 1.377 . S
C4047 C4045 1.389 . S
C4047 C4048 1.524 . S
C4048 C4047 1.524 . S
C4048 C4049 1.397 . S
C4048 C4053 1.363 . S
C4049 H4020 0.950 . S
C4049 C4048 1.397 . S
C4049 C4050 1.334 . S
C4050 H4021 0.950 . S
C4050 C4049 1.334 . S
C4050 C4051 1.287 . S
C4051 C4050 1.287 . S
C4051 C4052 1.524 . S
C4051 H4054 0.999 . S
C4052 H4022 0.950 . S
C4052 C4051 1.524 . S
C4052 C4053 1.415 . S
C4053 H4023 0.950 . S
C4053 C4048 1.363 . S
C4053 C4052 1.415 . S
H4054 C4051 0.999 . S
H4055 C4036 0.913 . S
H4056 C4074 0.951 . S
H4057 C4076 0.951 . S
H4058 C4078 0.950 . S
H4059 C4079 0.950 . S
H4060 C4081 0.950 . S
H4061 C4084 0.950 . S
H4062 C4085 0.950 . S
H4063 C4087 0.950 . S
H4064 C4088 0.950 . S
H4065 C4089 0.951 . S
H4066 C4091 0.951 . S
H4067 C4093 0.950 . S
H4068 C4094 0.950 . S
H4069 C4096 0.950 . S
H4070 C4099 0.950 . S
H4071 C4100 0.950 . S
H4072 C4102 0.950 . S
H4073 C4103 0.950 . S
C4074 H4056 0.951 . S
C4074 C4075 1.366 . S
C4074 C4076 1.388 . S
C4075 C4074 1.366 . S
C4075 C4079 1.385 . S
C4076 H4057 0.951 . S
C4076 C4074 1.388 . S
C4076 C4077 1.366 . S
C4077 C4076 1.366 . S
C4077 C4078 1.414 . S
C4077 C4080 1.499 . S
C4078 H4058 0.950 . S
C4078 C4077 1.414 . S
C4078 C4079 1.374 . S
C4079 H4059 0.950 . S
C4079 C4075 1.385 . S
C4079 C4078 1.374 . S
C4080 C4077 1.499 . S
C4080 C4081 1.373 . S
C4080 C4082 1.389 . S
C4081 H4060 0.950 . S
C4081 C4080 1.373 . S
C4081 C4097 1.377 . S
C4082 C4080 1.389 . S
C4082 C4083 1.524 . S
C4082 C4096 1.377 . S
C4083 C4082 1.524 . S
C4083 C4084 1.397 . S
C4083 C4088 1.363 . S
C4084 H4061 0.950 . S
C4084 C4083 1.397 . S
C4084 C4085 1.334 . S
C4085 H4062 0.950 . S
C4085 C4084 1.334 . S
C4085 C4086 1.287 . S
C4086 C4085 1.287 . S
C4086 C4087 1.524 . S
C4086 H4105 0.913 . S
C4087 H4063 0.950 . S
C4087 C4086 1.524 . S
C4087 C4088 1.415 . S
C4088 H4064 0.950 . S
C4088 C4083 1.363 . S
C4088 C4087 1.415 . S
C4089 H4065 0.951 . S
C4089 C4090 1.366 . S
C4089 C4091 1.388 . S
C4090 C4089 1.366 . S
C4090 C4094 1.385 . S
C4091 H4066 0.951 . S
C4091 C4089 1.388 . S
C4091 C4092 1.366 . S
C4092 C4091 1.366 . S
C4092 C4093 1.414 . S
C4092 C4095 1.499 . S
C4093 H4067 0.950 . S
C4093 C4092 1.414 . S
C4093 C4094 1.374 . S
C4094 H4068 0.950 . S
C4094 C4090 1.385 . S
C4094 C4093 1.374 . S
C4095 C4092 1.499 . S
C4095 C4096 1.373 . S
C4095 C4097 1.389 . S
C4096 H4069 0.950 . S
C4096 C4082 1.377 . S
C4096 C4095 1.373 . S
C4097 C4081 1.377 . S
C4097 C4095 1.389 . S
C4097 C4098 1.524 . S
C4098 C4097 1.524 . S
C4098 C4099 1.397 . S
C4098 C4103 1.363 . S
C4099 H4070 0.950 . S
C4099 C4098 1.397 . S
C4099 C4100 1.334 . S
C4100 H4071 0.950 . S
C4100 C4099 1.334 . S
C4100 C4101 1.287 . S
C4101 C4100 1.287 . S
C4101 C4102 1.524 . S
C4101 H4104 0.999 . S
C4102 H4072 0.950 . S
C4102 C4101 1.524 . S
C4102 C4103 1.415 . S
C4103 H4073 0.950 . S
C4103 C4098 1.363 . S
C4103 C4102 1.415 . S
H4104 C4101 0.999 . S
H4105 C4086 0.913 . S
H4106 C4124 0.951 . S
H4107 C4126 0.951 . S
H4108 C4128 0.950 . S
H4109 C4129 0.950 . S
H4110 C4131 0.950 . S
H4111 C4134 0.950 . S
H4112 C4135 0.950 . S
H4113 C4137 0.950 . S
H4114 C4138 0.950 . S
H4115 C4139 0.951 . S
H4116 C4141 0.951 . S
H4117 C4143 0.950 . S
H4118 C4144 0.950 . S
H4119 C4146 0.950 . S
H4120 C4149 0.950 . S
H4121 C4150 0.950 . S
H4122 C4152 0.950 . S
H4123 C4153 0.950 . S
C4124 H4106 0.951 . S
C4124 C4125 1.366 . S
C4124 C4126 1.388 . S
C4125 C4124 1.366 . S
C4125 C4129 1.385 . S
C4126 H4107 0.951 . S
C4126 C4124 1.388 . S
C4126 C4127 1.366 . S
C4127 C4126 1.366 . S
C4127 C4128 1.414 . S
C4127 C4130 1.499 . S
C4128 H4108 0.950 . S
C4128 C4127 1.414 . S
C4128 C4129 1.374 . S
C4129 H4109 0.950 . S
C4129 C4125 1.385 . S
C4129 C4128 1.374 . S
C4130 C4127 1.499 . S
C4130 C4131 1.373 . S
C4130 C4132 1.389 . S
C4131 H4110 0.950 . S
C4131 C4130 1.373 . S
C4131 C4147 1.377 . S
C4132 C4130 1.389 . S
C4132 C4133 1.524 . S
C4132 C4146 1.377 . S
C4133 C4132 1.524 . S
C4133 C4134 1.397 . S
C4133 C4138 1.363 . S
C4134 H4111 0.950 . S
C4134 C4133 1.397 . S
C4134 C4135 1.334 . S
C4135 H4112 0.950 . S
C4135 C4134 1.334 . S
C4135 C4136 1.287 . S
C4136 C4135 1.287 . S
C4136 C4137 1.524 . S
C4136 H4155 0.913 . S
C4137 H4113 0.950 . S
C4137 C4136 1.524 . S
C4137 C4138 1.415 . S
C4138 H4114 0.950 . S
C4138 C4133 1.363 . S
C4138 C4137 1.415 . S
C4139 H4115 0.951 . S
C4139 C4140 1.366 . S
C4139 C4141 1.388 . S
C4140 C4139 1.366 . S
C4140 C4144 1.385 . S
C4141 H4116 0.951 . S
C4141 C4139 1.388 . S
C4141 C4142 1.366 . S
C4142 C4141 1.366 . S
C4142 C4143 1.414 . S
C4142 C4145 1.499 . S
C4143 H4117 0.950 . S
C4143 C4142 1.414 . S
C4143 C4144 1.374 . S
C4144 H4118 0.950 . S
C4144 C4140 1.385 . S
C4144 C4143 1.374 . S
C4145 C4142 1.499 . S
C4145 C4146 1.373 . S
C4145 C4147 1.389 . S
C4146 H4119 0.950 . S
C4146 C4132 1.377 . S
C4146 C4145 1.373 . S
C4147 C4131 1.377 . S
C4147 C4145 1.389 . S
C4147 C4148 1.524 . S
C4148 C4147 1.524 . S
C4148 C4149 1.397 . S
C4148 C4153 1.363 . S
C4149 H4120 0.950 . S
C4149 C4148 1.397 . S
C4149 C4150 1.334 . S
C4150 H4121 0.950 . S
C4150 C4149 1.334 . S
C4150 C4151 1.287 . S
C4151 C4150 1.287 . S
C4151 C4152 1.524 . S
C4151 H4154 0.999 . S
C4152 H4122 0.950 . S
C4152 C4151 1.524 . S
C4152 C4153 1.415 . S
C4153 H4123 0.950 . S
C4153 C4148 1.363 . S
C4153 C4152 1.415 . S
H4154 C4151 0.999 . S
H4155 C4136 0.913 . S
H4156 C4174 0.951 . S
H4157 C4176 0.951 . S
H4158 C4178 0.953 . S
H4159 C4179 0.950 . S
H4160 C4181 0.989 . S
H4161 C4184 0.950 . S
H4162 C4185 0.950 . S
H4163 C4187 0.950 . S
H4164 C4188 0.950 . S
H4165 C4189 0.951 . S
H4166 C4191 0.951 . S
H4167 C4193 0.950 . S
H4168 C4194 0.950 . S
H4169 C4196 0.950 . S
H4170 C4199 0.950 . S
H4171 C4200 0.994 . S
H4172 C4202 0.950 . S
H4173 C4203 0.950 . S
C4174 H4156 0.951 . S
C4174 C4175 1.366 . S
C4174 C4176 1.388 . S
C4175 C4174 1.366 . S
C4175 C4179 1.385 . S
C4176 H4157 0.951 . S
C4176 C4174 1.388 . S
C4176 C4177 1.366 . S
C4177 C4176 1.366 . S
C4177 C4178 1.414 . S
C4177 C4180 1.499 . S
C4178 H4158 0.953 . S
C4178 C4177 1.414 . S
C4178 C4179 1.374 . S
C4179 H4159 0.950 . S
C4179 C4175 1.385 . S
C4179 C4178 1.374 . S
C4180 C4177 1.499 . S
C4180 C4181 1.332 1_556 S
C4180 C4182 1.389 . S
C4181 H4160 0.989 . S
C4181 C4180 1.332 1_554 S
C4181 C4197 1.380 . S
C4182 C4180 1.389 . S
C4182 C4183 1.524 . S
C4182 C4196 1.377 . S
C4183 C4182 1.524 . S
C4183 C4184 1.397 . S
C4183 C4188 1.363 . S
C4184 H4161 0.950 . S
C4184 C4183 1.397 . S
C4184 C4185 1.334 . S
C4185 H4162 0.950 . S
C4185 C4184 1.334 . S
C4185 C4186 1.287 . S
C4186 C4185 1.287 . S
C4186 C4187 1.524 . S
C4186 H4205 0.913 . S
C4187 H4163 0.950 . S
C4187 C4186 1.524 . S
C4187 C4188 1.415 . S
C4188 H4164 0.950 . S
C4188 C4183 1.363 . S
C4188 C4187 1.415 . S
C4189 H4165 0.951 . S
C4189 C4190 1.366 . S
C4189 C4191 1.388 . S
C4190 C4189 1.366 . S
C4190 C4194 1.385 1_554 S
C4191 H4166 0.951 . S
C4191 C4189 1.388 . S
C4191 C4192 1.366 1_554 S
C4192 C4191 1.366 1_556 S
C4192 C4193 1.414 . S
C4192 C4195 1.499 . S
C4193 H4167 0.950 . S
C4193 C4192 1.414 . S
C4193 C4194 1.374 . S
C4194 H4168 0.950 . S
C4194 C4190 1.385 1_556 S
C4194 C4193 1.374 . S
C4195 C4192 1.499 . S
C4195 C4196 1.373 . S
C4195 C4197 1.389 1_556 S
C4196 H4169 0.950 . S
C4196 C4182 1.377 . S
C4196 C4195 1.373 . S
C4197 C4181 1.380 . S
C4197 C4195 1.389 1_554 S
C4197 C4198 1.524 . S
C4198 C4197 1.524 . S
C4198 C4199 1.397 . S
C4198 C4203 1.363 . S
C4199 H4170 0.950 . S
C4199 C4198 1.397 . S
C4199 C4200 1.334 . S
C4200 H4171 0.994 . S
C4200 C4199 1.334 . S
C4200 C4201 1.287 . S
C4201 C4200 1.287 . S
C4201 C4202 1.524 . S
C4201 H4204 0.999 . S
C4202 H4172 0.950 . S
C4202 C4201 1.524 . S
C4202 C4203 1.415 . S
C4203 H4173 0.950 . S
C4203 C4198 1.363 . S
C4203 C4202 1.415 . S
H4204 C4201 0.999 . S
H4205 C4186 0.913 . S
H4206 C4224 0.951 . S
H4207 C4226 0.951 . S
H4208 C4228 0.950 . S
H4209 C4229 0.950 . S
H4210 C4231 0.950 . S
H4211 C4234 0.950 . S
H4212 C4235 0.950 1_455 S
H4213 C4237 0.950 . S
H4214 C4238 0.950 . S
H4215 C4239 0.951 . S
H4216 C4241 0.951 . S
H4217 C4243 0.950 . S
H4218 C4244 0.950 . S
H4219 C4246 0.950 . S
H4220 C4249 0.950 . S
H4221 C4250 0.950 . S
H4222 C4252 0.950 . S
H4223 C4253 0.950 . S
C4224 H4206 0.951 . S
C4224 C4225 1.366 . S
C4224 C4226 1.388 1_455 S
C4225 C4224 1.366 . S
C4225 C4229 1.385 . S
C4226 H4207 0.951 . S
C4226 C4224 1.388 1_655 S
C4226 C4227 1.366 . S
C4227 C4226 1.366 . S
C4227 C4228 1.414 1_655 S
C4227 C4230 1.499 . S
C4228 H4208 0.950 . S
C4228 C4227 1.414 1_455 S
C4228 C4229 1.374 . S
C4229 H4209 0.950 . S
C4229 C4225 1.385 . S
C4229 C4228 1.374 . S
C4230 C4227 1.499 . S
C4230 C4231 1.373 . S
C4230 C4232 1.389 . S
C4231 H4210 0.950 . S
C4231 C4230 1.373 . S
C4231 C4247 1.377 . S
C4232 C4230 1.389 . S
C4232 C4233 1.524 . S
C4232 C4246 1.377 . S
C4233 C4232 1.524 . S
C4233 C4234 1.397 . S
C4233 C4238 1.363 . S
C4234 H4211 0.950 . S
C4234 C4233 1.397 . S
C4234 C4235 1.334 . S
C4235 H4212 0.950 1_655 S
C4235 C4234 1.334 . S
C4235 C4236 1.287 . S
C4236 C4235 1.287 . S
C4236 C4237 1.524 . S
C4236 H4255 0.913 . S
C4237 H4213 0.950 . S
C4237 C4236 1.524 . S
C4237 C4238 1.415 . S
C4238 H4214 0.950 . S
C4238 C4233 1.363 . S
C4238 C4237 1.415 . S
C4239 H4215 0.951 . S
C4239 C4240 1.366 . S
C4239 C4241 1.388 . S
C4240 C4239 1.366 . S
C4240 C4244 1.385 . S
C4241 H4216 0.951 . S
C4241 C4239 1.388 . S
C4241 C4242 1.366 . S
C4242 C4241 1.366 . S
C4242 C4243 1.414 . S
C4242 C4245 1.499 . S
C4243 H4217 0.950 . S
C4243 C4242 1.414 . S
C4243 C4244 1.374 . S
C4244 H4218 0.950 . S
C4244 C4240 1.385 . S
C4244 C4243 1.374 . S
C4245 C4242 1.499 . S
C4245 C4246 1.373 . S
C4245 C4247 1.389 . S
C4246 H4219 0.950 . S
C4246 C4232 1.377 . S
C4246 C4245 1.373 . S
C4247 C4231 1.377 . S
C4247 C4245 1.389 . S
C4247 C4248 1.524 . S
C4248 C4247 1.524 . S
C4248 C4249 1.397 . S
C4248 C4253 1.363 . S
C4249 H4220 0.950 . S
C4249 C4248 1.397 . S
C4249 C4250 1.334 . S
C4250 H4221 0.950 . S
C4250 C4249 1.334 . S
C4250 C4251 1.287 . S
C4251 C4250 1.287 . S
C4251 C4252 1.524 . S
C4251 H4254 0.999 . S
C4252 H4222 0.950 . S
C4252 C4251 1.524 . S
C4252 C4253 1.415 . S
C4253 H4223 0.950 . S
C4253 C4248 1.363 . S
C4253 C4252 1.415 . S
H4254 C4251 0.999 . S
H4255 C4236 0.913 . S
H4256 C4274 0.951 . S
H4257 C4276 0.951 . S
H4258 C4278 0.950 . S
H4259 C4279 0.950 . S
H4260 C4281 0.950 . S
H4261 C4284 0.950 . S
H4262 C4285 0.950 . S
H4263 C4287 0.950 . S
H4264 C4288 0.950 . S
H4265 C4289 0.951 . S
H4266 C4291 0.951 . S
H4267 C4293 0.950 . S
H4268 C4294 0.950 . S
H4269 C4296 0.950 . S
H4270 C4299 0.950 . S
H4271 C4300 0.950 . S
H4272 C4302 0.950 . S
H4273 C4303 0.950 . S
C4274 H4256 0.951 . S
C4274 C4275 1.366 . S
C4274 C4276 1.388 . S
C4275 C4274 1.366 . S
C4275 C4279 1.385 . S
C4276 H4257 0.951 . S
C4276 C4274 1.388 . S
C4276 C4277 1.366 . S
C4277 C4276 1.366 . S
C4277 C4278 1.414 . S
C4277 C4280 1.499 . S
C4278 H4258 0.950 . S
C4278 C4277 1.414 . S
C4278 C4279 1.374 . S
C4279 H4259 0.950 . S
C4279 C4275 1.385 . S
C4279 C4278 1.374 . S
C4280 C4277 1.499 . S
C4280 C4281 1.373 . S
C4280 C4282 1.389 . S
C4281 H4260 0.950 . S
C4281 C4280 1.373 . S
C4281 C4297 1.377 . S
C4282 C4280 1.389 . S
C4282 C4283 1.524 . S
C4282 C4296 1.377 . S
C4283 C4282 1.524 . S
C4283 C4284 1.397 . S
C4283 C4288 1.363 . S
C4284 H4261 0.950 . S
C4284 C4283 1.397 . S
C4284 C4285 1.334 . S
C4285 H4262 0.950 . S
C4285 C4284 1.334 . S
C4285 C4286 1.287 . S
C4286 C4285 1.287 . S
C4286 C4287 1.524 . S
C4286 H4305 0.913 . S
C4287 H4263 0.950 . S
C4287 C4286 1.524 . S
C4287 C4288 1.415 . S
C4288 H4264 0.950 . S
C4288 C4283 1.363 . S
C4288 C4287 1.415 . S
C4289 H4265 0.951 . S
C4289 C4290 1.366 . S
C4289 C4291 1.388 . S
C4290 C4289 1.366 . S
C4290 C4294 1.385 . S
C4291 H4266 0.951 . S
C4291 C4289 1.388 . S
C4291 C4292 1.366 . S
C4292 C4291 1.366 . S
C4292 C4293 1.414 . S
C4292 C4295 1.499 . S
C4293 H4267 0.950 . S
C4293 C4292 1.414 . S
C4293 C4294 1.374 . S
C4294 H4268 0.950 . S
C4294 C4290 1.385 . S
C4294 C4293 1.374 . S
C4295 C4292 1.499 . S
C4295 C4296 1.373 . S
C4295 C4297 1.389 . S
C4296 H4269 0.950 . S
C4296 C4282 1.377 . S
C4296 C4295 1.373 . S
C4297 C4281 1.377 . S
C4297 C4295 1.389 . S
C4297 C4298 1.524 . S
C4298 C4297 1.524 . S
C4298 C4299 1.397 . S
C4298 C4303 1.363 . S
C4299 H4270 0.950 . S
C4299 C4298 1.397 . S
C4299 C4300 1.334 . S
C4300 H4271 0.950 . S
C4300 C4299 1.334 . S
C4300 C4301 1.287 . S
C4301 C4300 1.287 . S
C4301 C4302 1.524 . S
C4301 H4304 0.999 . S
C4302 H4272 0.950 . S
C4302 C4301 1.524 . S
C4302 C4303 1.415 . S
C4303 H4273 0.950 . S
C4303 C4298 1.363 . S
C4303 C4302 1.415 . S
H4304 C4301 0.999 . S
H4305 C4286 0.913 . S
H4306 C4324 0.951 . S
H4307 C4326 0.951 . S
H4308 C4328 0.950 . S
H4309 C4329 0.950 . S
H4310 C4331 0.950 . S
H4311 C4334 0.950 . S
H4312 C4335 0.950 . S
H4313 C4337 0.950 . S
H4314 C4338 0.950 . S
H4315 C4339 0.951 . S
H4316 C4341 0.951 . S
H4317 C4343 0.950 . S
H4318 C4344 0.950 . S
H4319 C4346 0.950 . S
H4320 C4349 0.950 . S
H4321 C4350 0.950 . S
H4322 C4352 0.950 . S
H4323 C4353 0.950 . S
C4324 H4306 0.951 . S
C4324 C4325 1.366 . S
C4324 C4326 1.388 . S
C4325 C4324 1.366 . S
C4325 C4329 1.385 . S
C4326 H4307 0.951 . S
C4326 C4324 1.388 . S
C4326 C4327 1.366 . S
C4327 C4326 1.366 . S
C4327 C4328 1.414 . S
C4327 C4330 1.499 1_455 S
C4328 H4308 0.950 . S
C4328 C4327 1.414 . S
C4328 C4329 1.374 . S
C4329 H4309 0.950 . S
C4329 C4325 1.385 . S
C4329 C4328 1.374 . S
C4330 C4327 1.499 1_655 S
C4330 C4331 1.373 . S
C4330 C4332 1.389 . S
C4331 H4310 0.950 . S
C4331 C4330 1.373 . S
C4331 C4347 1.377 . S
C4332 C4330 1.389 . S
C4332 C4333 1.524 . S
C4332 C4346 1.377 . S
C4333 C4332 1.524 . S
C4333 C4334 1.397 1_655 S
C4333 C4338 1.363 . S
C4334 H4311 0.950 . S
C4334 C4333 1.397 1_455 S
C4334 C4335 1.334 . S
C4335 H4312 0.950 . S
C4335 C4334 1.334 . S
C4335 C4336 1.287 1_455 S
C4336 C4335 1.287 1_655 S
C4336 C4337 1.524 . S
C4336 H4355 0.913 1_655 S
C4337 H4313 0.950 . S
C4337 C4336 1.524 . S
C4337 C4338 1.415 . S
C4338 H4314 0.950 . S
C4338 C4333 1.363 . S
C4338 C4337 1.415 . S
C4339 H4315 0.951 . S
C4339 C4340 1.366 . S
C4339 C4341 1.388 . S
C4340 C4339 1.366 . S
C4340 C4344 1.385 . S
C4341 H4316 0.951 . S
C4341 C4339 1.388 . S
C4341 C4342 1.366 . S
C4342 C4341 1.366 . S
C4342 C4343 1.414 . S
C4342 C4345 1.499 . S
C4343 H4317 0.950 . S
C4343 C4342 1.414 . S
C4343 C4344 1.374 . S
C4344 H4318 0.950 . S
C4344 C4340 1.385 . S
C4344 C4343 1.374 . S
C4345 C4342 1.499 . S
C4345 C4346 1.373 . S
C4345 C4347 1.389 . S
C4346 H4319 0.950 . S
C4346 C4332 1.377 . S
C4346 C4345 1.373 . S
C4347 C4331 1.377 . S
C4347 C4345 1.389 . S
C4347 C4348 1.524 . S
C4348 C4347 1.524 . S
C4348 C4349 1.397 . S
C4348 C4353 1.363 . S
C4349 H4320 0.950 . S
C4349 C4348 1.397 . S
C4349 C4350 1.334 . S
C4350 H4321 0.950 . S
C4350 C4349 1.334 . S
C4350 C4351 1.287 . S
C4351 C4350 1.287 . S
C4351 C4352 1.524 . S
C4351 H4354 0.999 . S
C4352 H4322 0.950 . S
C4352 C4351 1.524 . S
C4352 C4353 1.415 . S
C4353 H4323 0.950 . S
C4353 C4348 1.363 . S
C4353 C4352 1.415 . S
H4354 C4351 0.999 . S
H4355 C4336 0.913 1_455 S
H4356 C4374 0.951 . S
H4357 C4376 0.951 . S
H4358 C4378 0.950 . S
H4359 C4379 0.950 . S
H4360 C4381 0.976 . S
H4361 C4384 0.950 . S
H4362 C4385 0.950 . S
H4363 C4387 0.950 . S
H4364 C4388 0.950 . S
H4365 C4389 0.951 . S
H4366 C4391 0.951 . S
H4367 C4393 0.950 . S
H4368 C4394 0.950 . S
H4369 C4396 0.950 . S
H4370 C4399 0.950 1_455 S
H4371 C4400 0.950 . S
H4372 C4402 0.950 . S
H4373 C4403 0.950 . S
C4374 H4356 0.951 . S
C4374 C4375 1.366 1_455 S
C4374 C4376 1.388 . S
C4375 C4374 1.366 1_655 S
C4375 C4379 1.385 . S
C4376 H4357 0.951 . S
C4376 C4374 1.388 . S
C4376 C4377 1.366 . S
C4377 C4376 1.366 . S
C4377 C4378 1.414 1_455 S
C4377 C4380 1.499 . S
C4378 H4358 0.950 . S
C4378 C4377 1.414 1_655 S
C4378 C4379 1.374 . S
C4379 H4359 0.950 . S
C4379 C4375 1.385 . S
C4379 C4378 1.374 . S
C4380 C4377 1.499 . S
C4380 C4381 1.362 1_455 S
C4380 C4382 1.389 . S
C4381 H4360 0.976 . S
C4381 C4380 1.362 1_655 S
C4381 C4397 1.363 1_655 S
C4382 C4380 1.389 . S
C4382 C4383 1.524 . S
C4382 C4396 1.377 . S
C4383 C4382 1.524 . S
C4383 C4384 1.397 . S
C4383 C4388 1.363 . S
C4384 H4361 0.950 . S
C4384 C4383 1.397 . S
C4384 C4385 1.334 . S
C4385 H4362 0.950 . S
C4385 C4384 1.334 . S
C4385 C4386 1.287 . S
C4386 C4385 1.287 . S
C4386 C4387 1.524 . S
C4386 H4405 0.913 . S
C4387 H4363 0.950 . S
C4387 C4386 1.524 . S
C4387 C4388 1.415 . S
C4388 H4364 0.950 . S
C4388 C4383 1.363 . S
C4388 C4387 1.415 . S
C4389 H4365 0.951 . S
C4389 C4390 1.366 . S
C4389 C4391 1.388 . S
C4390 C4389 1.366 . S
C4390 C4394 1.385 . S
C4391 H4366 0.951 . S
C4391 C4389 1.388 . S
C4391 C4392 1.366 . S
C4392 C4391 1.366 . S
C4392 C4393 1.414 . S
C4392 C4395 1.499 . S
C4393 H4367 0.950 . S
C4393 C4392 1.414 . S
C4393 C4394 1.374 . S
C4394 H4368 0.950 . S
C4394 C4390 1.385 . S
C4394 C4393 1.374 . S
C4395 C4392 1.499 . S
C4395 C4396 1.373 . S
C4395 C4397 1.389 . S
C4396 H4369 0.950 . S
C4396 C4382 1.377 . S
C4396 C4395 1.373 . S
C4397 C4381 1.363 1_455 S
C4397 C4395 1.389 . S
C4397 C4398 1.524 1_455 S
C4398 C4397 1.524 1_655 S
C4398 C4399 1.397 . S
C4398 C4403 1.363 . S
C4399 H4370 0.950 1_655 S
C4399 C4398 1.397 . S
C4399 C4400 1.334 . S
C4400 H4371 0.950 . S
C4400 C4399 1.334 . S
C4400 C4401 1.287 . S
C4401 C4400 1.287 . S
C4401 C4402 1.524 . S
C4401 H4404 0.999 . S
C4402 H4372 0.950 . S
C4402 C4401 1.524 . S
C4402 C4403 1.415 . S
C4403 H4373 0.950 . S
C4403 C4398 1.363 . S
C4403 C4402 1.415 . S
H4404 C4401 0.999 . S
H4405 C4386 0.913 . S
H4406 C4424 0.951 . S
H4407 C4426 0.951 . S
H4408 C4428 0.950 . S
H4409 C4429 0.950 . S
H4410 C4431 0.950 . S
H4411 C4434 0.950 . S
H4412 C4435 0.950 . S
H4413 C4437 0.950 . S
H4414 C4438 0.950 . S
H4415 C4439 0.951 . S
H4416 C4441 0.951 . S
H4417 C4443 0.950 . S
H4418 C4444 0.950 . S
H4419 C4446 0.950 . S
H4420 C4449 0.950 . S
H4421 C4450 0.950 . S
H4422 C4452 0.950 . S
H4423 C4453 0.950 . S
C4424 H4406 0.951 . S
C4424 C4425 1.366 . S
C4424 C4426 1.388 . S
C4425 C4424 1.366 . S
C4425 C4429 1.385 . S
C4426 H4407 0.951 . S
C4426 C4424 1.388 . S
C4426 C4427 1.366 . S
C4427 C4426 1.366 . S
C4427 C4428 1.414 . S
C4427 C4430 1.499 . S
C4428 H4408 0.950 . S
C4428 C4427 1.414 . S
C4428 C4429 1.374 . S
C4429 H4409 0.950 . S
C4429 C4425 1.385 . S
C4429 C4428 1.374 . S
C4430 C4427 1.499 . S
C4430 C4431 1.373 . S
C4430 C4432 1.389 . S
C4431 H4410 0.950 . S
C4431 C4430 1.373 . S
C4431 C4447 1.377 . S
C4432 C4430 1.389 . S
C4432 C4433 1.524 . S
C4432 C4446 1.377 . S
C4433 C4432 1.524 . S
C4433 C4434 1.397 . S
C4433 C4438 1.363 . S
C4434 H4411 0.950 . S
C4434 C4433 1.397 . S
C4434 C4435 1.334 . S
C4435 H4412 0.950 . S
C4435 C4434 1.334 . S
C4435 C4436 1.287 . S
C4436 C4435 1.287 . S
C4436 C4437 1.524 . S
C4436 H4455 0.913 . S
C4437 H4413 0.950 . S
C4437 C4436 1.524 . S
C4437 C4438 1.415 . S
C4438 H4414 0.950 . S
C4438 C4433 1.363 . S
C4438 C4437 1.415 . S
C4439 H4415 0.951 . S
C4439 C4440 1.366 . S
C4439 C4441 1.388 . S
C4440 C4439 1.366 . S
C4440 C4444 1.385 . S
C4441 H4416 0.951 . S
C4441 C4439 1.388 . S
C4441 C4442 1.366 . S
C4442 C4441 1.366 . S
C4442 C4443 1.414 . S
C4442 C4445 1.499 . S
C4443 H4417 0.950 . S
C4443 C4442 1.414 . S
C4443 C4444 1.374 . S
C4444 H4418 0.950 . S
C4444 C4440 1.385 . S
C4444 C4443 1.374 . S
C4445 C4442 1.499 . S
C4445 C4446 1.373 . S
C4445 C4447 1.389 . S
C4446 H4419 0.950 . S
C4446 C4432 1.377 . S
C4446 C4445 1.373 . S
C4447 C4431 1.377 . S
C4447 C4445 1.389 . S
C4447 C4448 1.524 . S
C4448 C4447 1.524 . S
C4448 C4449 1.397 . S
C4448 C4453 1.363 . S
C4449 H4420 0.950 . S
C4449 C4448 1.397 . S
C4449 C4450 1.334 . S
C4450 H4421 0.950 . S
C4450 C4449 1.334 . S
C4450 C4451 1.287 . S
C4451 C4450 1.287 . S
C4451 C4452 1.524 . S
C4451 H4454 0.999 . S
C4452 H4422 0.950 . S
C4452 C4451 1.524 . S
C4452 C4453 1.415 . S
C4453 H4423 0.950 . S
C4453 C4448 1.363 . S
C4453 C4452 1.415 . S
H4454 C4451 0.999 . S
H4455 C4436 0.913 . S
H4456 C4474 0.951 . S
H4457 C4476 0.951 . S
H4458 C4478 0.950 . S
H4459 C4479 0.950 . S
H4460 C4481 0.950 . S
H4461 C4484 0.950 . S
H4462 C4485 0.950 . S
H4463 C4487 0.950 . S
H4464 C4488 0.950 . S
H4465 C4489 0.951 . S
H4466 C4491 0.951 . S
H4467 C4493 0.950 . S
H4468 C4494 0.950 . S
H4469 C4496 0.950 . S
H4470 C4499 0.950 . S
H4471 C4500 0.950 . S
H4472 C4502 0.950 . S
H4473 C4503 0.950 . S
C4474 H4456 0.951 . S
C4474 C4475 1.366 . S
C4474 C4476 1.388 . S
C4475 C4474 1.366 . S
C4475 C4479 1.385 . S
C4476 H4457 0.951 . S
C4476 C4474 1.388 . S
C4476 C4477 1.366 . S
C4477 C4476 1.366 . S
C4477 C4478 1.414 . S
C4477 C4480 1.499 . S
C4478 H4458 0.950 . S
C4478 C4477 1.414 . S
C4478 C4479 1.374 . S
C4479 H4459 0.950 . S
C4479 C4475 1.385 . S
C4479 C4478 1.374 . S
C4480 C4477 1.499 . S
C4480 C4481 1.373 . S
C4480 C4482 1.389 . S
C4481 H4460 0.950 . S
C4481 C4480 1.373 . S
C4481 C4497 1.377 . S
C4482 C4480 1.389 . S
C4482 C4483 1.524 . S
C4482 C4496 1.377 . S
C4483 C4482 1.524 . S
C4483 C4484 1.397 . S
C4483 C4488 1.363 . S
C4484 H4461 0.950 . S
C4484 C4483 1.397 . S
C4484 C4485 1.334 . S
C4485 H4462 0.950 . S
C4485 C4484 1.334 . S
C4485 C4486 1.287 . S
C4486 C4485 1.287 . S
C4486 C4487 1.524 . S
C4486 H4505 0.913 . S
C4487 H4463 0.950 . S
C4487 C4486 1.524 . S
C4487 C4488 1.415 . S
C4488 H4464 0.950 . S
C4488 C4483 1.363 . S
C4488 C4487 1.415 . S
C4489 H4465 0.951 . S
C4489 C4490 1.366 . S
C4489 C4491 1.388 . S
C4490 C4489 1.366 . S
C4490 C4494 1.385 . S
C4491 H4466 0.951 . S
C4491 C4489 1.388 . S
C4491 C4492 1.366 . S
C4492 C4491 1.366 . S
C4492 C4493 1.414 . S
C4492 C4495 1.499 . S
C4493 H4467 0.950 . S
C4493 C4492 1.414 . S
C4493 C4494 1.374 . S
C4494 H4468 0.950 . S
C4494 C4490 1.385 . S
C4494 C4493 1.374 . S
C4495 C4492 1.499 . S
C4495 C4496 1.373 . S
C4495 C4497 1.389 . S
C4496 H4469 0.950 . S
C4496 C4482 1.377 . S
C4496 C4495 1.373 . S
C4497 C4481 1.377 . S
C4497 C4495 1.389 . S
C4497 C4498 1.524 . S
C4498 C4497 1.524 . S
C4498 C4499 1.397 . S
C4498 C4503 1.363 . S
C4499 H4470 0.950 . S
C4499 C4498 1.397 . S
C4499 C4500 1.334 . S
C4500 H4471 0.950 . S
C4500 C4499 1.334 . S
C4500 C4501 1.287 . S
C4501 C4500 1.287 . S
C4501 C4502 1.524 . S
C4501 H4504 0.999 . S
C4502 H4472 0.950 . S
C4502 C4501 1.524 . S
C4502 C4503 1.415 . S
C4503 H4473 0.950 . S
C4503 C4498 1.363 . S
C4503 C4502 1.415 . S
H4504 C4501 0.999 . S
H4505 C4486 0.913 . S
H4506 C4524 0.951 1_554 S
H4507 C4526 0.951 . S
H4508 C4528 0.950 . S
H4509 C4529 0.950 . S
H4510 C4531 0.950 . S
H4511 C4534 0.950 . S
H4512 C4535 0.950 . S
H4513 C4537 0.950 . S
H4514 C4538 0.950 . S
H4515 C4539 0.951 . S
H4516 C4541 0.951 . S
H4517 C4543 0.950 . S
H4518 C4544 0.950 . S
H4519 C4546 0.950 . S
H4520 C4549 0.950 . S
H4521 C4550 0.950 . S
H4522 C4552 0.950 . S
H4523 C4553 0.950 . S
C4524 H4506 0.951 1_556 S
C4524 C4525 1.366 . S
C4524 C4526 1.388 . S
C4525 C4524 1.366 . S
C4525 C4529 1.385 . S
C4526 H4507 0.951 . S
C4526 C4524 1.388 . S
C4526 C4527 1.366 . S
C4527 C4526 1.366 . S
C4527 C4528 1.414 . S
C4527 C4530 1.499 . S
C4528 H4508 0.950 . S
C4528 C4527 1.414 . S
C4528 C4529 1.374 . S
C4529 H4509 0.950 . S
C4529 C4525 1.385 . S
C4529 C4528 1.374 . S
C4530 C4527 1.499 . S
C4530 C4531 1.373 . S
C4530 C4532 1.389 . S
C4531 H4510 0.950 . S
C4531 C4530 1.373 . S
C4531 C4547 1.377 . S
C4532 C4530 1.389 . S
C4532 C4533 1.524 . S
C4532 C4546 1.377 . S
C4533 C4532 1.524 . S
C4533 C4534 1.397 . S
C4533 C4538 1.363 . S
C4534 H4511 0.950 . S
C4534 C4533 1.397 . S
C4534 C4535 1.334 . S
C4535 H4512 0.950 . S
C4535 C4534 1.334 . S
C4535 C4536 1.287 . S
C4536 C4535 1.287 . S
C4536 C4537 1.524 . S
C4536 H4555 0.913 1_556 S
C4537 H4513 0.950 . S
C4537 C4536 1.524 . S
C4537 C4538 1.415 . S
C4538 H4514 0.950 . S
C4538 C4533 1.363 . S
C4538 C4537 1.415 . S
C4539 H4515 0.951 . S
C4539 C4540 1.366 . S
C4539 C4541 1.388 . S
C4540 C4539 1.366 . S
C4540 C4544 1.385 . S
C4541 H4516 0.951 . S
C4541 C4539 1.388 . S
C4541 C4542 1.366 . S
C4542 C4541 1.366 . S
C4542 C4543 1.414 . S
C4542 C4545 1.499 . S
C4543 H4517 0.950 . S
C4543 C4542 1.414 . S
C4543 C4544 1.374 . S
C4544 H4518 0.950 . S
C4544 C4540 1.385 . S
C4544 C4543 1.374 . S
C4545 C4542 1.499 . S
C4545 C4546 1.373 . S
C4545 C4547 1.389 . S
C4546 H4519 0.950 . S
C4546 C4532 1.377 . S
C4546 C4545 1.373 . S
C4547 C4531 1.377 . S
C4547 C4545 1.389 . S
C4547 C4548 1.524 . S
C4548 C4547 1.524 . S
C4548 C4549 1.397 . S
C4548 C4553 1.363 . S
C4549 H4520 0.950 . S
C4549 C4548 1.397 . S
C4549 C4550 1.334 . S
C4550 H4521 0.950 . S
C4550 C4549 1.334 . S
C4550 C4551 1.287 . S
C4551 C4550 1.287 . S
C4551 C4552 1.524 . S
C4551 H4554 0.999 . S
C4552 H4522 0.950 . S
C4552 C4551 1.524 . S
C4552 C4553 1.415 . S
C4553 H4523 0.950 . S
C4553 C4548 1.363 . S
C4553 C4552 1.415 . S
H4554 C4551 0.999 . S
H4555 C4536 0.913 1_554 S
H4556 C4574 0.951 . S
H4557 C4576 0.951 . S
H4558 C4578 0.950 . S
H4559 C4579 0.950 . S
H4560 C4581 0.950 . S
H4561 C4584 0.950 . S
H4562 C4585 0.950 . S
H4563 C4587 0.950 . S
H4564 C4588 0.950 . S
H4565 C4589 0.951 . S
H4566 C4591 0.951 . S
H4567 C4593 0.950 . S
H4568 C4594 0.950 . S
H4569 C4596 0.950 . S
H4570 C4599 0.950 . S
H4571 C4600 0.950 . S
H4572 C4602 0.950 . S
H4573 C4603 0.950 . S
C4574 H4556 0.951 . S
C4574 C4575 1.366 . S
C4574 C4576 1.388 . S
C4575 C4574 1.366 . S
C4575 C4579 1.385 . S
C4576 H4557 0.951 . S
C4576 C4574 1.388 . S
C4576 C4577 1.366 . S
C4577 C4576 1.366 . S
C4577 C4578 1.414 . S
C4577 C4580 1.499 . S
C4578 H4558 0.950 . S
C4578 C4577 1.414 . S
C4578 C4579 1.374 . S
C4579 H4559 0.950 . S
C4579 C4575 1.385 . S
C4579 C4578 1.374 . S
C4580 C4577 1.499 . S
C4580 C4581 1.373 . S
C4580 C4582 1.389 . S
C4581 H4560 0.950 . S
C4581 C4580 1.373 . S
C4581 C4597 1.377 . S
C4582 C4580 1.389 . S
C4582 C4583 1.524 . S
C4582 C4596 1.377 . S
C4583 C4582 1.524 . S
C4583 C4584 1.397 . S
C4583 C4588 1.363 . S
C4584 H4561 0.950 . S
C4584 C4583 1.397 . S
C4584 C4585 1.334 . S
C4585 H4562 0.950 . S
C4585 C4584 1.334 . S
C4585 C4586 1.287 . S
C4586 C4585 1.287 . S
C4586 C4587 1.524 . S
C4586 H4605 0.913 . S
C4587 H4563 0.950 . S
C4587 C4586 1.524 . S
C4587 C4588 1.415 . S
C4588 H4564 0.950 . S
C4588 C4583 1.363 . S
C4588 C4587 1.415 . S
C4589 H4565 0.951 . S
C4589 C4590 1.366 . S
C4589 C4591 1.388 . S
C4590 C4589 1.366 . S
C4590 C4594 1.385 . S
C4591 H4566 0.951 . S
C4591 C4589 1.388 . S
C4591 C4592 1.366 . S
C4592 C4591 1.366 . S
C4592 C4593 1.414 . S
C4592 C4595 1.499 . S
C4593 H4567 0.950 . S
C4593 C4592 1.414 . S
C4593 C4594 1.374 . S
C4594 H4568 0.950 . S
C4594 C4590 1.385 . S
C4594 C4593 1.374 . S
C4595 C4592 1.499 . S
C4595 C4596 1.373 . S
C4595 C4597 1.389 . S
C4596 H4569 0.950 . S
C4596 C4582 1.377 . S
C4596 C4595 1.373 . S
C4597 C4581 1.377 . S
C4597 C4595 1.389 . S
C4597 C4598 1.524 . S
C4598 C4597 1.524 . S
C4598 C4599 1.397 . S
C4598 C4603 1.363 . S
C4599 H4570 0.950 . S
C4599 C4598 1.397 . S
C4599 C4600 1.334 . S
C4600 H4571 0.950 . S
C4600 C4599 1.334 . S
C4600 C4601 1.287 . S
C4601 C4600 1.287 . S
C4601 C4602 1.524 . S
C4601 H4604 0.999 . S
C4602 H4572 0.950 . S
C4602 C4601 1.524 . S
C4602 C4603 1.415 . S
C4603 H4573 0.950 . S
C4603 C4598 1.363 . S
C4603 C4602 1.415 . S
H4604 C4601 0.999 . S
H4605 C4586 0.913 . S
H4606 C4624 0.951 . S
H4607 C4626 0.951 . S
H4608 C4628 0.950 . S
H4609 C4629 0.950 . S
H4610 C4631 0.950 . S
H4611 C4634 0.950 . S
H4612 C4635 0.950 . S
H4613 C4637 0.950 . S
H4614 C4638 0.950 . S
H4615 C4639 0.951 . S
H4616 C4641 0.951 . S
H4617 C4643 0.950 . S
H4618 C4644 0.950 . S
H4619 C4646 0.950 . S
H4620 C4649 0.950 . S
H4621 C4650 0.950 . S
H4622 C4652 0.950 . S
H4623 C4653 0.950 . S
C4624 H4606 0.951 . S
C4624 C4625 1.366 . S
C4624 C4626 1.388 . S
C4625 C4624 1.366 . S
C4625 C4629 1.385 . S
C4626 H4607 0.951 . S
C4626 C4624 1.388 . S
C4626 C4627 1.366 . S
C4627 C4626 1.366 . S
C4627 C4628 1.414 . S
C4627 C4630 1.499 . S
C4628 H4608 0.950 . S
C4628 C4627 1.414 . S
C4628 C4629 1.374 . S
C4629 H4609 0.950 . S
C4629 C4625 1.385 . S
C4629 C4628 1.374 . S
C4630 C4627 1.499 . S
C4630 C4631 1.373 . S
C4630 C4632 1.389 . S
C4631 H4610 0.950 . S
C4631 C4630 1.373 . S
C4631 C4647 1.377 . S
C4632 C4630 1.389 . S
C4632 C4633 1.524 . S
C4632 C4646 1.377 . S
C4633 C4632 1.524 . S
C4633 C4634 1.397 . S
C4633 C4638 1.363 . S
C4634 H4611 0.950 . S
C4634 C4633 1.397 . S
C4634 C4635 1.334 . S
C4635 H4612 0.950 . S
C4635 C4634 1.334 . S
C4635 C4636 1.287 . S
C4636 C4635 1.287 . S
C4636 C4637 1.524 . S
C4636 H4655 0.913 . S
C4637 H4613 0.950 . S
C4637 C4636 1.524 . S
C4637 C4638 1.415 . S
C4638 H4614 0.950 . S
C4638 C4633 1.363 . S
C4638 C4637 1.415 . S
C4639 H4615 0.951 . S
C4639 C4640 1.366 . S
C4639 C4641 1.388 . S
C4640 C4639 1.366 . S
C4640 C4644 1.385 . S
C4641 H4616 0.951 . S
C4641 C4639 1.388 . S
C4641 C4642 1.366 . S
C4642 C4641 1.366 . S
C4642 C4643 1.414 . S
C4642 C4645 1.499 . S
C4643 H4617 0.950 . S
C4643 C4642 1.414 . S
C4643 C4644 1.374 . S
C4644 H4618 0.950 . S
C4644 C4640 1.385 . S
C4644 C4643 1.374 . S
C4645 C4642 1.499 . S
C4645 C4646 1.373 . S
C4645 C4647 1.389 . S
C4646 H4619 0.950 . S
C4646 C4632 1.377 . S
C4646 C4645 1.373 . S
C4647 C4631 1.377 . S
C4647 C4645 1.389 . S
C4647 C4648 1.524 . S
C4648 C4647 1.524 . S
C4648 C4649 1.397 . S
C4648 C4653 1.363 . S
C4649 H4620 0.950 . S
C4649 C4648 1.397 . S
C4649 C4650 1.334 . S
C4650 H4621 0.950 . S
C4650 C4649 1.334 . S
C4650 C4651 1.287 . S
C4651 C4650 1.287 . S
C4651 C4652 1.524 . S
C4651 H4654 0.999 . S
C4652 H4622 0.950 . S
C4652 C4651 1.524 . S
C4652 C4653 1.415 . S
C4653 H4623 0.950 . S
C4653 C4648 1.363 . S
C4653 C4652 1.415 . S
H4654 C4651 0.999 . S
H4655 C4636 0.913 . S
H4656 C4674 0.951 . S
H4657 C4676 0.951 . S
H4658 C4678 0.950 . S
H4659 C4679 0.950 . S
H4660 C4681 0.950 . S
H4661 C4684 0.950 . S
H4662 C4685 0.950 . S
H4663 C4687 0.950 . S
H4664 C4688 0.950 . S
H4665 C4689 0.951 . S
H4666 C4691 0.951 . S
H4667 C4693 0.950 . S
H4668 C4694 0.950 . S
H4669 C4696 0.950 . S
H4670 C4699 0.950 . S
H4671 C4700 0.950 . S
H4672 C4702 0.950 . S
H4673 C4703 0.950 . S
C4674 H4656 0.951 . S
C4674 C4675 1.366 . S
C4674 C4676 1.388 . S
C4675 C4674 1.366 . S
C4675 C4679 1.385 . S
C4676 H4657 0.951 . S
C4676 C4674 1.388 . S
C4676 C4677 1.366 . S
C4677 C4676 1.366 . S
C4677 C4678 1.414 . S
C4677 C4680 1.499 . S
C4678 H4658 0.950 . S
C4678 C4677 1.414 . S
C4678 C4679 1.374 . S
C4679 H4659 0.950 . S
C4679 C4675 1.385 . S
C4679 C4678 1.374 . S
C4680 C4677 1.499 . S
C4680 C4681 1.373 . S
C4680 C4682 1.389 . S
C4681 H4660 0.950 . S
C4681 C4680 1.373 . S
C4681 C4697 1.377 . S
C4682 C4680 1.389 . S
C4682 C4683 1.524 . S
C4682 C4696 1.377 . S
C4683 C4682 1.524 . S
C4683 C4684 1.397 . S
C4683 C4688 1.363 . S
C4684 H4661 0.950 . S
C4684 C4683 1.397 . S
C4684 C4685 1.334 . S
C4685 H4662 0.950 . S
C4685 C4684 1.334 . S
C4685 C4686 1.287 . S
C4686 C4685 1.287 . S
C4686 C4687 1.524 . S
C4686 H4705 0.913 . S
C4687 H4663 0.950 . S
C4687 C4686 1.524 . S
C4687 C4688 1.415 . S
C4688 H4664 0.950 . S
C4688 C4683 1.363 . S
C4688 C4687 1.415 . S
C4689 H4665 0.951 . S
C4689 C4690 1.366 . S
C4689 C4691 1.388 . S
C4690 C4689 1.366 . S
C4690 C4694 1.385 . S
C4691 H4666 0.951 . S
C4691 C4689 1.388 . S
C4691 C4692 1.366 . S
C4692 C4691 1.366 . S
C4692 C4693 1.414 . S
C4692 C4695 1.499 . S
C4693 H4667 0.950 . S
C4693 C4692 1.414 . S
C4693 C4694 1.374 . S
C4694 H4668 0.950 . S
C4694 C4690 1.385 . S
C4694 C4693 1.374 . S
C4695 C4692 1.499 . S
C4695 C4696 1.373 . S
C4695 C4697 1.389 . S
C4696 H4669 0.950 . S
C4696 C4682 1.377 . S
C4696 C4695 1.373 . S
C4697 C4681 1.377 . S
C4697 C4695 1.389 . S
C4697 C4698 1.524 . S
C4698 C4697 1.524 . S
C4698 C4699 1.397 . S
C4698 C4703 1.363 . S
C4699 H4670 0.950 . S
C4699 C4698 1.397 . S
C4699 C4700 1.334 . S
C4700 H4671 0.950 . S
C4700 C4699 1.334 . S
C4700 C4701 1.287 . S
C4701 C4700 1.287 . S
C4701 C4702 1.524 . S
C4701 H4704 0.999 . S
C4702 H4672 0.950 . S
C4702 C4701 1.524 . S
C4702 C4703 1.415 . S
C4703 H4673 0.950 . S
C4703 C4698 1.363 . S
C4703 C4702 1.415 . S
H4704 C4701 0.999 . S
H4705 C4686 0.913 . S
H4706 C4724 0.951 . S
H4707 C4726 0.951 . S
H4708 C4728 0.950 . S
H4709 C4729 0.950 . S
H4710 C4731 0.950 . S
H4711 C4734 0.950 . S
H4712 C4735 0.950 . S
H4713 C4737 0.950 . S
H4714 C4738 0.950 . S
H4715 C4739 0.951 . S
H4716 C4741 0.951 . S
H4717 C4743 0.950 . S
H4718 C4744 0.950 . S
H4719 C4746 0.950 . S
H4720 C4749 0.950 . S
H4721 C4750 0.950 . S
H4722 C4752 0.950 . S
H4723 C4753 0.950 . S
C4724 H4706 0.951 . S
C4724 C4725 1.366 . S
C4724 C4726 1.388 . S
C4725 C4724 1.366 . S
C4725 C4729 1.385 . S
C4726 H4707 0.951 . S
C4726 C4724 1.388 . S
C4726 C4727 1.366 . S
C4727 C4726 1.366 . S
C4727 C4728 1.414 . S
C4727 C4730 1.499 . S
C4728 H4708 0.950 . S
C4728 C4727 1.414 . S
C4728 C4729 1.374 . S
C4729 H4709 0.950 . S
C4729 C4725 1.385 . S
C4729 C4728 1.374 . S
C4730 C4727 1.499 . S
C4730 C4731 1.373 . S
C4730 C4732 1.389 . S
C4731 H4710 0.950 . S
C4731 C4730 1.373 . S
C4731 C4747 1.377 . S
C4732 C4730 1.389 . S
C4732 C4733 1.524 . S
C4732 C4746 1.377 . S
C4733 C4732 1.524 . S
C4733 C4734 1.397 . S
C4733 C4738 1.363 . S
C4734 H4711 0.950 . S
C4734 C4733 1.397 . S
C4734 C4735 1.334 . S
C4735 H4712 0.950 . S
C4735 C4734 1.334 . S
C4735 C4736 1.287 . S
C4736 C4735 1.287 . S
C4736 C4737 1.524 . S
C4736 H4755 0.913 . S
C4737 H4713 0.950 . S
C4737 C4736 1.524 . S
C4737 C4738 1.415 . S
C4738 H4714 0.950 . S
C4738 C4733 1.363 . S
C4738 C4737 1.415 . S
C4739 H4715 0.951 . S
C4739 C4740 1.366 . S
C4739 C4741 1.388 . S
C4740 C4739 1.366 . S
C4740 C4744 1.385 . S
C4741 H4716 0.951 . S
C4741 C4739 1.388 . S
C4741 C4742 1.366 . S
C4742 C4741 1.366 . S
C4742 C4743 1.414 . S
C4742 C4745 1.499 . S
C4743 H4717 0.950 . S
C4743 C4742 1.414 . S
C4743 C4744 1.374 . S
C4744 H4718 0.950 . S
C4744 C4740 1.385 . S
C4744 C4743 1.374 . S
C4745 C4742 1.499 . S
C4745 C4746 1.373 . S
C4745 C4747 1.389 . S
C4746 H4719 0.950 . S
C4746 C4732 1.377 . S
C4746 C4745 1.373 . S
C4747 C4731 1.377 . S
C4747 C4745 1.389 . S
C4747 C4748 1.524 . S
C4748 C4747 1.524 . S
C4748 C4749 1.397 . S
C4748 C4753 1.363 . S
C4749 H4720 0.950 . S
C4749 C4748 1.397 . S
C4749 C4750 1.334 . S
C4750 H4721 0.950 . S
C4750 C4749 1.334 . S
C4750 C4751 1.287 . S
C4751 C4750 1.287 . S
C4751 C4752 1.524 . S
C4751 H4754 0.999 . S
C4752 H4722 0.950 . S
C4752 C4751 1.524 . S
C4752 C4753 1.415 . S
C4753 H4723 0.950 . S
C4753 C4748 1.363 . S
C4753 C4752 1.415 . S
H4754 C4751 0.999 . S
H4755 C4736 0.913 . S
H4756 C4774 0.951 . S
H4757 C4776 0.951 . S
H4758 C4778 0.950 . S
H4759 C4779 0.950 . S
H4760 C4781 0.950 . S
H4761 C4784 0.950 . S
H4762 C4785 0.950 . S
H4763 C4787 0.950 . S
H4764 C4788 0.950 . S
H4765 C4789 0.951 . S
H4766 C4791 0.951 . S
H4767 C4793 0.950 . S
H4768 C4794 0.950 . S
H4769 C4796 0.950 . S
H4770 C4799 0.950 . S
H4771 C4800 0.950 . S
H4772 C4802 0.950 . S
H4773 C4803 0.950 . S
C4774 H4756 0.951 . S
C4774 C4775 1.366 . S
C4774 C4776 1.388 . S
C4775 C4774 1.366 . S
C4775 C4779 1.385 . S
C4776 H4757 0.951 . S
C4776 C4774 1.388 . S
C4776 C4777 1.366 . S
C4777 C4776 1.366 . S
C4777 C4778 1.414 . S
C4777 C4780 1.499 . S
C4778 H4758 0.950 . S
C4778 C4777 1.414 . S
C4778 C4779 1.374 . S
C4779 H4759 0.950 . S
C4779 C4775 1.385 . S
C4779 C4778 1.374 . S
C4780 C4777 1.499 . S
C4780 C4781 1.373 . S
C4780 C4782 1.389 . S
C4781 H4760 0.950 . S
C4781 C4780 1.373 . S
C4781 C4797 1.377 . S
C4782 C4780 1.389 . S
C4782 C4783 1.524 . S
C4782 C4796 1.377 . S
C4783 C4782 1.524 . S
C4783 C4784 1.397 . S
C4783 C4788 1.363 . S
C4784 H4761 0.950 . S
C4784 C4783 1.397 . S
C4784 C4785 1.334 . S
C4785 H4762 0.950 . S
C4785 C4784 1.334 . S
C4785 C4786 1.287 . S
C4786 C4785 1.287 . S
C4786 C4787 1.524 . S
C4786 H4805 0.913 . S
C4787 H4763 0.950 . S
C4787 C4786 1.524 . S
C4787 C4788 1.415 . S
C4788 H4764 0.950 . S
C4788 C4783 1.363 . S
C4788 C4787 1.415 . S
C4789 H4765 0.951 . S
C4789 C4790 1.366 . S
C4789 C4791 1.388 . S
C4790 C4789 1.366 . S
C4790 C4794 1.385 . S
C4791 H4766 0.951 . S
C4791 C4789 1.388 . S
C4791 C4792 1.366 . S
C4792 C4791 1.366 . S
C4792 C4793 1.414 . S
C4792 C4795 1.499 . S
C4793 H4767 0.950 . S
C4793 C4792 1.414 . S
C4793 C4794 1.374 . S
C4794 H4768 0.950 . S
C4794 C4790 1.385 . S
C4794 C4793 1.374 . S
C4795 C4792 1.499 . S
C4795 C4796 1.373 . S
C4795 C4797 1.389 . S
C4796 H4769 0.950 . S
C4796 C4782 1.377 . S
C4796 C4795 1.373 . S
C4797 C4781 1.377 . S
C4797 C4795 1.389 . S
C4797 C4798 1.524 . S
C4798 C4797 1.524 . S
C4798 C4799 1.397 . S
C4798 C4803 1.363 . S
C4799 H4770 0.950 . S
C4799 C4798 1.397 . S
C4799 C4800 1.334 . S
C4800 H4771 0.950 . S
C4800 C4799 1.334 . S
C4800 C4801 1.287 . S
C4801 C4800 1.287 . S
C4801 C4802 1.524 . S
C4801 H4804 0.999 . S
C4802 H4772 0.950 . S
C4802 C4801 1.524 . S
C4802 C4803 1.415 . S
C4803 H4773 0.950 . S
C4803 C4798 1.363 . S
C4803 C4802 1.415 . S
H4804 C4801 0.999 . S
H4805 C4786 0.913 . S
H4806 C4824 0.951 . S
H4807 C4826 0.951 . S
H4808 C4828 0.950 . S
H4809 C4829 0.950 . S
H4810 C4831 0.950 . S
H4811 C4834 0.950 . S
H4812 C4835 0.950 . S
H4813 C4837 0.950 . S
H4814 C4838 0.950 . S
H4815 C4839 0.951 . S
H4816 C4841 0.951 . S
H4817 C4843 0.950 . S
H4818 C4844 0.950 . S
H4819 C4846 0.950 . S
H4820 C4849 0.950 . S
H4821 C4850 0.950 . S
H4822 C4852 0.950 . S
H4823 C4853 0.950 . S
C4824 H4806 0.951 . S
C4824 C4825 1.366 . S
C4824 C4826 1.388 . S
C4825 C4824 1.366 . S
C4825 C4829 1.385 . S
C4826 H4807 0.951 . S
C4826 C4824 1.388 . S
C4826 C4827 1.366 . S
C4827 C4826 1.366 . S
C4827 C4828 1.414 . S
C4827 C4830 1.499 . S
C4828 H4808 0.950 . S
C4828 C4827 1.414 . S
C4828 C4829 1.374 . S
C4829 H4809 0.950 . S
C4829 C4825 1.385 . S
C4829 C4828 1.374 . S
C4830 C4827 1.499 . S
C4830 C4831 1.373 . S
C4830 C4832 1.389 . S
C4831 H4810 0.950 . S
C4831 C4830 1.373 . S
C4831 C4847 1.377 . S
C4832 C4830 1.389 . S
C4832 C4833 1.524 . S
C4832 C4846 1.377 . S
C4833 C4832 1.524 . S
C4833 C4834 1.397 . S
C4833 C4838 1.363 . S
C4834 H4811 0.950 . S
C4834 C4833 1.397 . S
C4834 C4835 1.334 . S
C4835 H4812 0.950 . S
C4835 C4834 1.334 . S
C4835 C4836 1.287 . S
C4836 C4835 1.287 . S
C4836 C4837 1.524 . S
C4836 H4855 0.913 . S
C4837 H4813 0.950 . S
C4837 C4836 1.524 . S
C4837 C4838 1.415 . S
C4838 H4814 0.950 . S
C4838 C4833 1.363 . S
C4838 C4837 1.415 . S
C4839 H4815 0.951 . S
C4839 C4840 1.366 . S
C4839 C4841 1.388 . S
C4840 C4839 1.366 . S
C4840 C4844 1.385 . S
C4841 H4816 0.951 . S
C4841 C4839 1.388 . S
C4841 C4842 1.366 . S
C4842 C4841 1.366 . S
C4842 C4843 1.414 . S
C4842 C4845 1.499 . S
C4843 H4817 0.950 . S
C4843 C4842 1.414 . S
C4843 C4844 1.374 . S
C4844 H4818 0.950 . S
C4844 C4840 1.385 . S
C4844 C4843 1.374 . S
C4845 C4842 1.499 . S
C4845 C4846 1.373 . S
C4845 C4847 1.389 . S
C4846 H4819 0.950 . S
C4846 C4832 1.377 . S
C4846 C4845 1.373 . S
C4847 C4831 1.377 . S
C4847 C4845 1.389 . S
C4847 C4848 1.524 . S
C4848 C4847 1.524 . S
C4848 C4849 1.397 . S
C4848 C4853 1.363 . S
C4849 H4820 0.950 . S
C4849 C4848 1.397 . S
C4849 C4850 1.334 . S
C4850 H4821 0.950 . S
C4850 C4849 1.334 . S
C4850 C4851 1.287 . S
C4851 C4850 1.287 . S
C4851 C4852 1.524 . S
C4851 H4854 0.999 . S
C4852 H4822 0.950 . S
C4852 C4851 1.524 . S
C4852 C4853 1.415 . S
C4853 H4823 0.950 . S
C4853 C4848 1.363 . S
C4853 C4852 1.415 . S
H4854 C4851 0.999 . S
H4855 C4836 0.913 . S
H4856 C4874 0.951 . S
H4857 C4876 0.951 . S
H4858 C4878 0.950 . S
H4859 C4879 0.950 . S
H4860 C4881 0.950 . S
H4861 C4884 0.950 . S
H4862 C4885 0.950 . S
H4863 C4887 0.950 . S
H4864 C4888 0.950 . S
H4865 C4889 0.951 . S
H4866 C4891 0.951 . S
H4867 C4893 0.950 . S
H4868 C4894 0.950 . S
H4869 C4896 0.950 . S
H4870 C4899 0.950 . S
H4871 C4900 0.950 . S
H4872 C4902 0.950 . S
H4873 C4903 0.950 . S
C4874 H4856 0.951 . S
C4874 C4875 1.366 . S
C4874 C4876 1.388 . S
C4875 C4874 1.366 . S
C4875 C4879 1.385 . S
C4876 H4857 0.951 . S
C4876 C4874 1.388 . S
C4876 C4877 1.366 . S
C4877 C4876 1.366 . S
C4877 C4878 1.414 . S
C4877 C4880 1.499 . S
C4878 H4858 0.950 . S
C4878 C4877 1.414 . S
C4878 C4879 1.374 . S
C4879 H4859 0.950 . S
C4879 C4875 1.385 . S
C4879 C4878 1.374 . S
C4880 C4877 1.499 . S
C4880 C4881 1.373 . S
C4880 C4882 1.389 . S
C4881 H4860 0.950 . S
C4881 C4880 1.373 . S
C4881 C4897 1.377 . S
C4882 C4880 1.389 . S
C4882 C4883 1.524 . S
C4882 C4896 1.377 . S
C4883 C4882 1.524 . S
C4883 C4884 1.397 . S
C4883 C4888 1.363 . S
C4884 H4861 0.950 . S
C4884 C4883 1.397 . S
C4884 C4885 1.334 . S
C4885 H4862 0.950 . S
C4885 C4884 1.334 . S
C4885 C4886 1.287 . S
C4886 C4885 1.287 . S
C4886 C4887 1.524 . S
C4886 H4905 0.913 . S
C4887 H4863 0.950 . S
C4887 C4886 1.524 . S
C4887 C4888 1.415 . S
C4888 H4864 0.950 . S
C4888 C4883 1.363 . S
C4888 C4887 1.415 . S
C4889 H4865 0.951 . S
C4889 C4890 1.366 . S
C4889 C4891 1.388 . S
C4890 C4889 1.366 . S
C4890 C4894 1.385 . S
C4891 H4866 0.951 . S
C4891 C4889 1.388 . S
C4891 C4892 1.366 . S
C4892 C4891 1.366 . S
C4892 C4893 1.414 . S
C4892 C4895 1.499 . S
C4893 H4867 0.950 . S
C4893 C4892 1.414 . S
C4893 C4894 1.374 . S
C4894 H4868 0.950 . S
C4894 C4890 1.385 . S
C4894 C4893 1.374 . S
C4895 C4892 1.499 . S
C4895 C4896 1.373 . S
C4895 C4897 1.389 . S
C4896 H4869 0.950 . S
C4896 C4882 1.377 . S
C4896 C4895 1.373 . S
C4897 C4881 1.377 . S
C4897 C4895 1.389 . S
C4897 C4898 1.524 . S
C4898 C4897 1.524 . S
C4898 C4899 1.397 . S
C4898 C4903 1.363 . S
C4899 H4870 0.950 . S
C4899 C4898 1.397 . S
C4899 C4900 1.334 . S
C4900 H4871 0.950 . S
C4900 C4899 1.334 . S
C4900 C4901 1.287 . S
C4901 C4900 1.287 . S
C4901 C4902 1.524 . S
C4901 H4904 0.999 . S
C4902 H4872 0.950 . S
C4902 C4901 1.524 . S
C4902 C4903 1.415 . S
C4903 H4873 0.950 . S
C4903 C4898 1.363 . S
C4903 C4902 1.415 . S
H4904 C4901 0.999 . S
H4905 C4886 0.913 . S
H4906 C4924 0.951 . S
H4907 C4926 0.951 . S
H4908 C4928 0.950 . S
H4909 C4929 0.950 . S
H4910 C4931 0.950 . S
H4911 C4934 0.950 . S
H4912 C4935 0.950 . S
H4913 C4937 0.950 . S
H4914 C4938 0.950 . S
H4915 C4939 0.951 . S
H4916 C4941 0.951 . S
H4917 C4943 0.950 . S
H4918 C4944 0.950 . S
H4919 C4946 0.950 . S
H4920 C4949 0.950 . S
H4921 C4950 0.950 . S
H4922 C4952 0.950 . S
H4923 C4953 0.950 . S
C4924 H4906 0.951 . S
C4924 C4925 1.366 . S
C4924 C4926 1.388 . S
C4925 C4924 1.366 . S
C4925 C4929 1.385 . S
C4926 H4907 0.951 . S
C4926 C4924 1.388 . S
C4926 C4927 1.366 . S
C4927 C4926 1.366 . S
C4927 C4928 1.414 . S
C4927 C4930 1.499 . S
C4928 H4908 0.950 . S
C4928 C4927 1.414 . S
C4928 C4929 1.374 . S
C4929 H4909 0.950 . S
C4929 C4925 1.385 . S
C4929 C4928 1.374 . S
C4930 C4927 1.499 . S
C4930 C4931 1.373 . S
C4930 C4932 1.389 . S
C4931 H4910 0.950 . S
C4931 C4930 1.373 . S
C4931 C4947 1.377 . S
C4932 C4930 1.389 . S
C4932 C4933 1.524 . S
C4932 C4946 1.377 . S
C4933 C4932 1.524 . S
C4933 C4934 1.397 . S
C4933 C4938 1.363 . S
C4934 H4911 0.950 . S
C4934 C4933 1.397 . S
C4934 C4935 1.334 . S
C4935 H4912 0.950 . S
C4935 C4934 1.334 . S
C4935 C4936 1.287 . S
C4936 C4935 1.287 . S
C4936 C4937 1.524 . S
C4936 H4955 0.913 . S
C4937 H4913 0.950 . S
C4937 C4936 1.524 . S
C4937 C4938 1.415 . S
C4938 H4914 0.950 . S
C4938 C4933 1.363 . S
C4938 C4937 1.415 . S
C4939 H4915 0.951 . S
C4939 C4940 1.366 . S
C4939 C4941 1.388 . S
C4940 C4939 1.366 . S
C4940 C4944 1.385 . S
C4941 H4916 0.951 . S
C4941 C4939 1.388 . S
C4941 C4942 1.366 . S
C4942 C4941 1.366 . S
C4942 C4943 1.414 . S
C4942 C4945 1.499 . S
C4943 H4917 0.950 . S
C4943 C4942 1.414 . S
C4943 C4944 1.374 . S
C4944 H4918 0.950 . S
C4944 C4940 1.385 . S
C4944 C4943 1.374 . S
C4945 C4942 1.499 . S
C4945 C4946 1.373 . S
C4945 C4947 1.389 . S
C4946 H4919 0.950 . S
C4946 C4932 1.377 . S
C4946 C4945 1.373 . S
C4947 C4931 1.377 . S
C4947 C4945 1.389 . S
C4947 C4948 1.524 . S
C4948 C4947 1.524 . S
C4948 C4949 1.397 . S
C4948 C4953 1.363 . S
C4949 H4920 0.950 . S
C4949 C4948 1.397 . S
C4949 C4950 1.334 . S
C4950 H4921 0.950 . S
C4950 C4949 1.334 . S
C4950 C4951 1.287 . S
C4951 C4950 1.287 . S
C4951 C4952 1.524 . S
C4951 H4954 0.999 . S
C4952 H4922 0.950 . S
C4952 C4951 1.524 . S
C4952 C4953 1.415 . S
C4953 H4923 0.950 . S
C4953 C4948 1.363 . S
C4953 C4952 1.415 . S
H4954 C4951 0.999 . S
H4955 C4936 0.913 . S
H4956 C4974 0.951 . S
H4957 C4976 0.951 . S
H4958 C4978 0.950 . S
H4959 C4979 0.950 . S
H4960 C4981 0.950 . S
H4961 C4984 0.950 . S
H4962 C4985 0.950 . S
H4963 C4987 0.950 . S
H4964 C4988 0.950 . S
H4965 C4989 0.951 . S
H4966 C4991 0.951 . S
H4967 C4993 0.950 . S
H4968 C4994 0.950 . S
H4969 C4996 0.950 . S
H4970 C4999 0.950 . S
H4971 C5000 0.950 . S
H4972 C5002 0.950 . S
H4973 C5003 0.950 . S
C4974 H4956 0.951 . S
C4974 C4975 1.366 . S
C4974 C4976 1.388 . S
C4975 C4974 1.366 . S
C4975 C4979 1.385 . S
C4976 H4957 0.951 . S
C4976 C4974 1.388 . S
C4976 C4977 1.366 . S
C4977 C4976 1.366 . S
C4977 C4978 1.414 . S
C4977 C4980 1.499 . S
C4978 H4958 0.950 . S
C4978 C4977 1.414 . S
C4978 C4979 1.374 . S
C4979 H4959 0.950 . S
C4979 C4975 1.385 . S
C4979 C4978 1.374 . S
C4980 C4977 1.499 . S
C4980 C4981 1.373 . S
C4980 C4982 1.389 . S
C4981 H4960 0.950 . S
C4981 C4980 1.373 . S
C4981 C4997 1.377 . S
C4982 C4980 1.389 . S
C4982 C4983 1.524 . S
C4982 C4996 1.377 . S
C4983 C4982 1.524 . S
C4983 C4984 1.397 . S
C4983 C4988 1.363 . S
C4984 H4961 0.950 . S
C4984 C4983 1.397 . S
C4984 C4985 1.334 . S
C4985 H4962 0.950 . S
C4985 C4984 1.334 . S
C4985 C4986 1.287 . S
C4986 C4985 1.287 . S
C4986 C4987 1.524 . S
C4986 H5005 0.913 . S
C4987 H4963 0.950 . S
C4987 C4986 1.524 . S
C4987 C4988 1.415 . S
C4988 H4964 0.950 . S
C4988 C4983 1.363 . S
C4988 C4987 1.415 . S
C4989 H4965 0.951 . S
C4989 C4990 1.366 . S
C4989 C4991 1.388 . S
C4990 C4989 1.366 . S
C4990 C4994 1.385 . S
C4991 H4966 0.951 . S
C4991 C4989 1.388 . S
C4991 C4992 1.366 . S
C4992 C4991 1.366 . S
C4992 C4993 1.414 . S
C4992 C4995 1.499 . S
C4993 H4967 0.950 . S
C4993 C4992 1.414 . S
C4993 C4994 1.374 . S
C4994 H4968 0.950 . S
C4994 C4990 1.385 . S
C4994 C4993 1.374 . S
C4995 C4992 1.499 . S
C4995 C4996 1.373 . S
C4995 C4997 1.389 . S
C4996 H4969 0.950 . S
C4996 C4982 1.377 . S
C4996 C4995 1.373 . S
C4997 C4981 1.377 . S
C4997 C4995 1.389 . S
C4997 C4998 1.524 . S
C4998 C4997 1.524 . S
C4998 C4999 1.397 . S
C4998 C5003 1.363 . S
C4999 H4970 0.950 . S
C4999 C4998 1.397 . S
C4999 C5000 1.334 . S
C5000 H4971 0.950 . S
C5000 C4999 1.334 . S
C5000 C5001 1.287 . S
C5001 C5000 1.287 . S
C5001 C5002 1.524 . S
C5001 H5004 0.999 . S
C5002 H4972 0.950 . S
C5002 C5001 1.524 . S
C5002 C5003 1.415 . S
C5003 H4973 0.950 . S
C5003 C4998 1.363 . S
C5003 C5002 1.415 . S
H5004 C5001 0.999 . S
H5005 C4986 0.913 . S
H5006 C5024 0.951 . S
H5007 C5026 0.951 . S
H5008 C5028 0.950 . S
H5009 C5029 0.950 . S
H5010 C5031 0.950 1_556 S
H5011 C5034 0.947 1_545 S
H5012 C5035 0.950 . S
H5013 C5037 0.950 . S
H5014 C5038 0.950 . S
H5015 C5039 0.951 . S
H5016 C5041 0.951 . S
H5017 C5043 0.950 . S
H5018 C5044 0.950 1_565 S
H5019 C5046 0.950 . S
H5020 C5049 0.950 . S
H5021 C5050 0.950 . S
H5022 C5052 0.950 . S
H5023 C5053 0.950 . S
C5024 H5006 0.951 . S
C5024 C5025 1.366 . S
C5024 C5026 1.388 . S
C5025 C5024 1.366 . S
C5025 C5029 1.385 . S
C5026 H5007 0.951 . S
C5026 C5024 1.388 . S
C5026 C5027 1.366 . S
C5027 C5026 1.366 . S
C5027 C5028 1.414 . S
C5027 C5030 1.499 . S
C5028 H5008 0.950 . S
C5028 C5027 1.414 . S
C5028 C5029 1.374 . S
C5029 H5009 0.950 . S
C5029 C5025 1.385 . S
C5029 C5028 1.374 . S
C5030 C5027 1.499 . S
C5030 C5031 1.373 . S
C5030 C5032 1.389 . S
C5031 H5010 0.950 1_554 S
C5031 C5030 1.373 . S
C5031 C5047 1.377 . S
C5032 C5030 1.389 . S
C5032 C5033 1.524 . S
C5032 C5046 1.377 . S
C5033 C5032 1.524 . S
C5033 C5034 1.397 . S
C5033 C5038 1.363 . S
C5034 H5011 0.947 1_565 S
C5034 C5033 1.397 . S
C5034 C5035 1.334 . S
C5035 H5012 0.950 . S
C5035 C5034 1.334 . S
C5035 C5036 1.287 . S
C5036 C5035 1.287 . S
C5036 C5037 1.524 . S
C5036 H5055 0.913 . S
C5037 H5013 0.950 . S
C5037 C5036 1.524 . S
C5037 C5038 1.415 . S
C5038 H5014 0.950 . S
C5038 C5033 1.363 . S
C5038 C5037 1.415 . S
C5039 H5015 0.951 . S
C5039 C5040 1.366 . S
C5039 C5041 1.388 . S
C5040 C5039 1.366 . S
C5040 C5044 1.385 . S
C5041 H5016 0.951 . S
C5041 C5039 1.388 . S
C5041 C5042 1.366 . S
C5042 C5041 1.366 . S
C5042 C5043 1.414 1_545 S
C5042 C5045 1.499 1_545 S
C5043 H5017 0.950 . S
C5043 C5042 1.414 1_565 S
C5043 C5044 1.374 1_565 S
C5044 H5018 0.950 1_545 S
C5044 C5040 1.385 . S
C5044 C5043 1.374 1_545 S
C5045 C5042 1.499 1_565 S
C5045 C5046 1.373 . S
C5045 C5047 1.389 . S
C5046 H5019 0.950 . S
C5046 C5032 1.377 . S
C5046 C5045 1.373 . S
C5047 C5031 1.377 . S
C5047 C5045 1.389 . S
C5047 C5048 1.524 1_554 S
C5048 C5047 1.524 1_556 S
C5048 C5049 1.397 . S
C5048 C5053 1.363 1_565 S
C5049 H5020 0.950 . S
C5049 C5048 1.397 . S
C5049 C5050 1.334 . S
C5050 H5021 0.950 . S
C5050 C5049 1.334 . S
C5050 C5051 1.254 1_565 S
C5051 C5050 1.254 1_545 S
C5051 C5052 1.553 . S
C5051 H5054 1.011 . S
C5052 H5022 0.950 . S
C5052 C5051 1.553 . S
C5052 C5053 1.415 . S
C5053 H5023 0.950 . S
C5053 C5048 1.363 1_545 S
C5053 C5052 1.415 . S
H5054 C5051 1.011 . S
H5055 C5036 0.913 . S
H5056 C5074 0.951 . S
H5057 C5076 0.951 . S
H5058 C5078 0.950 . S
H5059 C5079 0.950 . S
H5060 C5081 0.950 . S
H5061 C5084 0.950 . S
H5062 C5085 0.950 . S
H5063 C5087 0.950 . S
H5064 C5088 0.950 . S
H5065 C5089 0.951 . S
H5066 C5091 0.951 . S
H5067 C5093 0.950 . S
H5068 C5094 0.950 . S
H5069 C5096 0.950 . S
H5070 C5099 0.950 . S
H5071 C5100 0.950 . S
H5072 C5102 0.950 . S
H5073 C5103 0.950 . S
C5074 H5056 0.951 . S
C5074 C5075 1.366 . S
C5074 C5076 1.388 . S
C5075 C5074 1.366 . S
C5075 C5079 1.385 . S
C5076 H5057 0.951 . S
C5076 C5074 1.388 . S
C5076 C5077 1.366 . S
C5077 C5076 1.366 . S
C5077 C5078 1.414 . S
C5077 C5080 1.499 . S
C5078 H5058 0.950 . S
C5078 C5077 1.414 . S
C5078 C5079 1.374 . S
C5079 H5059 0.950 . S
C5079 C5075 1.385 . S
C5079 C5078 1.374 . S
C5080 C5077 1.499 . S
C5080 C5081 1.373 . S
C5080 C5082 1.389 . S
C5081 H5060 0.950 . S
C5081 C5080 1.373 . S
C5081 C5097 1.377 . S
C5082 C5080 1.389 . S
C5082 C5083 1.524 . S
C5082 C5096 1.377 . S
C5083 C5082 1.524 . S
C5083 C5084 1.397 . S
C5083 C5088 1.363 . S
C5084 H5061 0.950 . S
C5084 C5083 1.397 . S
C5084 C5085 1.334 . S
C5085 H5062 0.950 . S
C5085 C5084 1.334 . S
C5085 C5086 1.287 . S
C5086 C5085 1.287 . S
C5086 C5087 1.524 . S
C5086 H5105 0.913 . S
C5087 H5063 0.950 . S
C5087 C5086 1.524 . S
C5087 C5088 1.415 . S
C5088 H5064 0.950 . S
C5088 C5083 1.363 . S
C5088 C5087 1.415 . S
C5089 H5065 0.951 . S
C5089 C5090 1.366 . S
C5089 C5091 1.388 . S
C5090 C5089 1.366 . S
C5090 C5094 1.385 . S
C5091 H5066 0.951 . S
C5091 C5089 1.388 . S
C5091 C5092 1.366 . S
C5092 C5091 1.366 . S
C5092 C5093 1.414 . S
C5092 C5095 1.499 . S
C5093 H5067 0.950 . S
C5093 C5092 1.414 . S
C5093 C5094 1.374 . S
C5094 H5068 0.950 . S
C5094 C5090 1.385 . S
C5094 C5093 1.374 . S
C5095 C5092 1.499 . S
C5095 C5096 1.373 . S
C5095 C5097 1.389 . S
C5096 H5069 0.950 . S
C5096 C5082 1.377 . S
C5096 C5095 1.373 . S
C5097 C5081 1.377 . S
C5097 C5095 1.389 . S
C5097 C5098 1.524 . S
C5098 C5097 1.524 . S
C5098 C5099 1.397 . S
C5098 C5103 1.363 . S
C5099 H5070 0.950 . S
C5099 C5098 1.397 . S
C5099 C5100 1.334 . S
C5100 H5071 0.950 . S
C5100 C5099 1.334 . S
C5100 C5101 1.287 . S
C5101 C5100 1.287 . S
C5101 C5102 1.524 . S
C5101 H5104 0.999 . S
C5102 H5072 0.950 . S
C5102 C5101 1.524 . S
C5102 C5103 1.415 . S
C5103 H5073 0.950 . S
C5103 C5098 1.363 . S
C5103 C5102 1.415 . S
H5104 C5101 0.999 . S
H5105 C5086 0.913 . S
H5106 C5124 0.951 . S
H5107 C5126 0.951 . S
H5108 C5128 0.950 . S
H5109 C5129 0.950 . S
H5110 C5131 0.950 . S
H5111 C5134 0.950 . S
H5112 C5135 0.950 . S
H5113 C5137 0.950 . S
H5114 C5138 0.950 . S
H5115 C5139 0.951 . S
H5116 C5141 0.951 . S
H5117 C5143 0.950 . S
H5118 C5144 0.950 . S
H5119 C5146 0.950 . S
H5120 C5149 0.950 . S
H5121 C5150 0.950 . S
H5122 C5152 0.950 . S
H5123 C5153 0.950 . S
C5124 H5106 0.951 . S
C5124 C5125 1.366 1_554 S
C5124 C5126 1.388 . S
C5125 C5124 1.366 1_556 S
C5125 C5129 1.385 . S
C5126 H5107 0.951 . S
C5126 C5124 1.388 . S
C5126 C5127 1.366 . S
C5127 C5126 1.366 . S
C5127 C5128 1.414 1_554 S
C5127 C5130 1.499 . S
C5128 H5108 0.950 . S
C5128 C5127 1.414 1_556 S
C5128 C5129 1.374 . S
C5129 H5109 0.950 . S
C5129 C5125 1.385 . S
C5129 C5128 1.374 . S
C5130 C5127 1.499 . S
C5130 C5131 1.373 1_554 S
C5130 C5132 1.389 . S
C5131 H5110 0.950 . S
C5131 C5130 1.373 1_556 S
C5131 C5147 1.377 . S
C5132 C5130 1.389 . S
C5132 C5133 1.524 . S
C5132 C5146 1.377 . S
C5133 C5132 1.524 . S
C5133 C5134 1.397 . S
C5133 C5138 1.363 . S
C5134 H5111 0.950 . S
C5134 C5133 1.397 . S
C5134 C5135 1.334 . S
C5135 H5112 0.950 . S
C5135 C5134 1.334 . S
C5135 C5136 1.287 . S
C5136 C5135 1.287 . S
C5136 C5137 1.524 . S
C5136 H5155 0.913 . S
C5137 H5113 0.950 . S
C5137 C5136 1.524 . S
C5137 C5138 1.415 . S
C5138 H5114 0.950 . S
C5138 C5133 1.363 . S
C5138 C5137 1.415 . S
C5139 H5115 0.951 . S
C5139 C5140 1.366 . S
C5139 C5141 1.388 . S
C5140 C5139 1.366 . S
C5140 C5144 1.385 . S
C5141 H5116 0.951 . S
C5141 C5139 1.388 . S
C5141 C5142 1.366 . S
C5142 C5141 1.366 . S
C5142 C5143 1.414 . S
C5142 C5145 1.499 . S
C5143 H5117 0.950 . S
C5143 C5142 1.414 . S
C5143 C5144 1.374 . S
C5144 H5118 0.950 . S
C5144 C5140 1.385 . S
C5144 C5143 1.374 . S
C5145 C5142 1.499 . S
C5145 C5146 1.373 . S
C5145 C5147 1.389 1_554 S
C5146 H5119 0.950 . S
C5146 C5132 1.377 . S
C5146 C5145 1.373 . S
C5147 C5131 1.377 . S
C5147 C5145 1.389 1_556 S
C5147 C5148 1.524 . S
C5148 C5147 1.524 . S
C5148 C5149 1.397 . S
C5148 C5153 1.363 . S
C5149 H5120 0.950 . S
C5149 C5148 1.397 . S
C5149 C5150 1.334 . S
C5150 H5121 0.950 . S
C5150 C5149 1.334 . S
C5150 C5151 1.287 . S
C5151 C5150 1.287 . S
C5151 C5152 1.524 . S
C5151 H5154 0.999 . S
C5152 H5122 0.950 . S
C5152 C5151 1.524 . S
C5152 C5153 1.415 . S
C5153 H5123 0.950 . S
C5153 C5148 1.363 . S
C5153 C5152 1.415 . S
H5154 C5151 0.999 . S
H5155 C5136 0.913 . S
H5156 C5174 0.951 . S
H5157 C5176 0.951 . S
H5158 C5178 0.950 . S
H5159 C5179 0.950 . S
H5160 C5181 0.950 . S
H5161 C5184 0.950 . S
H5162 C5185 0.950 . S
H5163 C5187 0.950 . S
H5164 C5188 0.950 . S
H5165 C5189 0.951 . S
H5166 C5191 0.951 . S
H5167 C5193 0.950 . S
H5168 C5194 0.950 . S
H5169 C5196 0.950 . S
H5170 C5199 0.950 . S
H5171 C5200 0.950 . S
H5172 C5202 0.950 . S
H5173 C5203 0.950 . S
C5174 H5156 0.951 . S
C5174 C5175 1.366 . S
C5174 C5176 1.388 . S
C5175 C5174 1.366 . S
C5175 C5179 1.385 . S
C5176 H5157 0.951 . S
C5176 C5174 1.388 . S
C5176 C5177 1.366 . S
C5177 C5176 1.366 . S
C5177 C5178 1.414 . S
C5177 C5180 1.499 . S
C5178 H5158 0.950 . S
C5178 C5177 1.414 . S
C5178 C5179 1.374 . S
C5179 H5159 0.950 . S
C5179 C5175 1.385 . S
C5179 C5178 1.374 . S
C5180 C5177 1.499 . S
C5180 C5181 1.373 . S
C5180 C5182 1.389 . S
C5181 H5160 0.950 . S
C5181 C5180 1.373 . S
C5181 C5197 1.377 . S
C5182 C5180 1.389 . S
C5182 C5183 1.524 . S
C5182 C5196 1.377 . S
C5183 C5182 1.524 . S
C5183 C5184 1.397 . S
C5183 C5188 1.363 . S
C5184 H5161 0.950 . S
C5184 C5183 1.397 . S
C5184 C5185 1.334 . S
C5185 H5162 0.950 . S
C5185 C5184 1.334 . S
C5185 C5186 1.287 . S
C5186 C5185 1.287 . S
C5186 C5187 1.524 . S
C5186 H5205 0.913 . S
C5187 H5163 0.950 . S
C5187 C5186 1.524 . S
C5187 C5188 1.415 . S
C5188 H5164 0.950 . S
C5188 C5183 1.363 . S
C5188 C5187 1.415 . S
C5189 H5165 0.951 . S
C5189 C5190 1.366 . S
C5189 C5191 1.388 . S
C5190 C5189 1.366 . S
C5190 C5194 1.385 . S
C5191 H5166 0.951 . S
C5191 C5189 1.388 . S
C5191 C5192 1.366 . S
C5192 C5191 1.366 . S
C5192 C5193 1.414 . S
C5192 C5195 1.499 . S
C5193 H5167 0.950 . S
C5193 C5192 1.414 . S
C5193 C5194 1.374 . S
C5194 H5168 0.950 . S
C5194 C5190 1.385 . S
C5194 C5193 1.374 . S
C5195 C5192 1.499 . S
C5195 C5196 1.373 . S
C5195 C5197 1.389 . S
C5196 H5169 0.950 . S
C5196 C5182 1.377 . S
C5196 C5195 1.373 . S
C5197 C5181 1.377 . S
C5197 C5195 1.389 . S
C5197 C5198 1.524 . S
C5198 C5197 1.524 . S
C5198 C5199 1.397 . S
C5198 C5203 1.363 . S
C5199 H5170 0.950 . S
C5199 C5198 1.397 . S
C5199 C5200 1.334 . S
C5200 H5171 0.950 . S
C5200 C5199 1.334 . S
C5200 C5201 1.287 . S
C5201 C5200 1.287 . S
C5201 C5202 1.524 . S
C5201 H5204 0.999 . S
C5202 H5172 0.950 . S
C5202 C5201 1.524 . S
C5202 C5203 1.415 . S
C5203 H5173 0.950 . S
C5203 C5198 1.363 . S
C5203 C5202 1.415 . S
H5204 C5201 0.999 . S
H5205 C5186 0.913 . S
H5206 C5224 0.951 . S
H5207 C5226 0.951 . S
H5208 C5228 0.950 . S
H5209 C5229 0.950 . S
H5210 C5231 0.950 . S
H5211 C5234 0.950 . S
H5212 C5235 0.950 . S
H5213 C5237 0.950 . S
H5214 C5238 0.950 . S
H5215 C5239 0.951 . S
H5216 C5241 0.951 . S
H5217 C5243 0.950 . S
H5218 C5244 0.950 . S
H5219 C5246 0.950 . S
H5220 C5249 0.950 . S
H5221 C5250 0.950 . S
H5222 C5252 0.950 . S
H5223 C5253 0.950 . S
C5224 H5206 0.951 . S
C5224 C5225 1.366 . S
C5224 C5226 1.388 . S
C5225 C5224 1.366 . S
C5225 C5229 1.385 . S
C5226 H5207 0.951 . S
C5226 C5224 1.388 . S
C5226 C5227 1.366 . S
C5227 C5226 1.366 . S
C5227 C5228 1.414 . S
C5227 C5230 1.499 . S
C5228 H5208 0.950 . S
C5228 C5227 1.414 . S
C5228 C5229 1.374 . S
C5229 H5209 0.950 . S
C5229 C5225 1.385 . S
C5229 C5228 1.374 . S
C5230 C5227 1.499 . S
C5230 C5231 1.373 . S
C5230 C5232 1.389 . S
C5231 H5210 0.950 . S
C5231 C5230 1.373 . S
C5231 C5247 1.377 . S
C5232 C5230 1.389 . S
C5232 C5233 1.524 . S
C5232 C5246 1.377 . S
C5233 C5232 1.524 . S
C5233 C5234 1.397 . S
C5233 C5238 1.363 . S
C5234 H5211 0.950 . S
C5234 C5233 1.397 . S
C5234 C5235 1.334 . S
C5235 H5212 0.950 . S
C5235 C5234 1.334 . S
C5235 C5236 1.287 . S
C5236 C5235 1.287 . S
C5236 C5237 1.524 . S
C5236 H5255 0.913 . S
C5237 H5213 0.950 . S
C5237 C5236 1.524 . S
C5237 C5238 1.415 . S
C5238 H5214 0.950 . S
C5238 C5233 1.363 . S
C5238 C5237 1.415 . S
C5239 H5215 0.951 . S
C5239 C5240 1.366 . S
C5239 C5241 1.388 . S
C5240 C5239 1.366 . S
C5240 C5244 1.385 . S
C5241 H5216 0.951 . S
C5241 C5239 1.388 . S
C5241 C5242 1.366 . S
C5242 C5241 1.366 . S
C5242 C5243 1.414 . S
C5242 C5245 1.499 . S
C5243 H5217 0.950 . S
C5243 C5242 1.414 . S
C5243 C5244 1.374 . S
C5244 H5218 0.950 . S
C5244 C5240 1.385 . S
C5244 C5243 1.374 . S
C5245 C5242 1.499 . S
C5245 C5246 1.373 . S
C5245 C5247 1.389 . S
C5246 H5219 0.950 . S
C5246 C5232 1.377 . S
C5246 C5245 1.373 . S
C5247 C5231 1.377 . S
C5247 C5245 1.389 . S
C5247 C5248 1.524 . S
C5248 C5247 1.524 . S
C5248 C5249 1.397 . S
C5248 C5253 1.363 . S
C5249 H5220 0.950 . S
C5249 C5248 1.397 . S
C5249 C5250 1.334 . S
C5250 H5221 0.950 . S
C5250 C5249 1.334 . S
C5250 C5251 1.287 . S
C5251 C5250 1.287 . S
C5251 C5252 1.524 . S
C5251 H5254 0.999 . S
C5252 H5222 0.950 . S
C5252 C5251 1.524 . S
C5252 C5253 1.415 . S
C5253 H5223 0.950 . S
C5253 C5248 1.363 . S
C5253 C5252 1.415 . S
H5254 C5251 0.999 . S
H5255 C5236 0.913 . S
H5256 C5274 0.951 . S
H5257 C5276 0.951 . S
H5258 C5278 0.950 . S
H5259 C5279 0.950 . S
H5260 C5281 0.950 . S
H5261 C5284 0.950 . S
H5262 C5285 0.950 . S
H5263 C5287 0.950 . S
H5264 C5288 0.950 . S
H5265 C5289 0.951 . S
H5266 C5291 0.951 . S
H5267 C5293 0.950 . S
H5268 C5294 0.950 . S
H5269 C5296 0.950 . S
H5270 C5299 0.950 . S
H5271 C5300 0.950 . S
H5272 C5302 0.950 . S
H5273 C5303 0.950 . S
C5274 H5256 0.951 . S
C5274 C5275 1.366 . S
C5274 C5276 1.388 . S
C5275 C5274 1.366 . S
C5275 C5279 1.385 . S
C5276 H5257 0.951 . S
C5276 C5274 1.388 . S
C5276 C5277 1.366 . S
C5277 C5276 1.366 . S
C5277 C5278 1.414 . S
C5277 C5280 1.499 . S
C5278 H5258 0.950 . S
C5278 C5277 1.414 . S
C5278 C5279 1.374 . S
C5279 H5259 0.950 . S
C5279 C5275 1.385 . S
C5279 C5278 1.374 . S
C5280 C5277 1.499 . S
C5280 C5281 1.373 . S
C5280 C5282 1.389 . S
C5281 H5260 0.950 . S
C5281 C5280 1.373 . S
C5281 C5297 1.377 . S
C5282 C5280 1.389 . S
C5282 C5283 1.524 . S
C5282 C5296 1.377 . S
C5283 C5282 1.524 . S
C5283 C5284 1.397 . S
C5283 C5288 1.363 . S
C5284 H5261 0.950 . S
C5284 C5283 1.397 . S
C5284 C5285 1.334 . S
C5285 H5262 0.950 . S
C5285 C5284 1.334 . S
C5285 C5286 1.287 . S
C5286 C5285 1.287 . S
C5286 C5287 1.524 . S
C5286 H5305 0.913 . S
C5287 H5263 0.950 . S
C5287 C5286 1.524 . S
C5287 C5288 1.415 . S
C5288 H5264 0.950 . S
C5288 C5283 1.363 . S
C5288 C5287 1.415 . S
C5289 H5265 0.951 . S
C5289 C5290 1.366 . S
C5289 C5291 1.388 . S
C5290 C5289 1.366 . S
C5290 C5294 1.385 . S
C5291 H5266 0.951 . S
C5291 C5289 1.388 . S
C5291 C5292 1.366 . S
C5292 C5291 1.366 . S
C5292 C5293 1.414 . S
C5292 C5295 1.499 . S
C5293 H5267 0.950 . S
C5293 C5292 1.414 . S
C5293 C5294 1.374 . S
C5294 H5268 0.950 . S
C5294 C5290 1.385 . S
C5294 C5293 1.374 . S
C5295 C5292 1.499 . S
C5295 C5296 1.373 . S
C5295 C5297 1.389 . S
C5296 H5269 0.950 . S
C5296 C5282 1.377 . S
C5296 C5295 1.373 . S
C5297 C5281 1.377 . S
C5297 C5295 1.389 . S
C5297 C5298 1.524 . S
C5298 C5297 1.524 . S
C5298 C5299 1.397 . S
C5298 C5303 1.363 . S
C5299 H5270 0.950 . S
C5299 C5298 1.397 . S
C5299 C5300 1.334 . S
C5300 H5271 0.950 . S
C5300 C5299 1.334 . S
C5300 C5301 1.287 . S
C5301 C5300 1.287 . S
C5301 C5302 1.524 . S
C5301 H5304 0.999 . S
C5302 H5272 0.950 . S
C5302 C5301 1.524 . S
C5302 C5303 1.415 . S
C5303 H5273 0.950 . S
C5303 C5298 1.363 . S
C5303 C5302 1.415 . S
H5304 C5301 0.999 . S
H5305 C5286 0.913 . S
H5306 C5324 0.951 . S
H5307 C5326 0.951 . S
H5308 C5328 0.950 . S
H5309 C5329 0.950 . S
H5310 C5331 0.950 . S
H5311 C5334 0.950 . S
H5312 C5335 0.950 . S
H5313 C5337 0.950 . S
H5314 C5338 0.950 . S
H5315 C5339 0.951 . S
H5316 C5341 0.951 . S
H5317 C5343 0.950 . S
H5318 C5344 0.950 . S
H5319 C5346 0.950 . S
H5320 C5349 0.950 . S
H5321 C5350 0.950 . S
H5322 C5352 0.950 . S
H5323 C5353 0.950 . S
C5324 H5306 0.951 . S
C5324 C5325 1.366 . S
C5324 C5326 1.388 . S
C5325 C5324 1.366 . S
C5325 C5329 1.385 . S
C5326 H5307 0.951 . S
C5326 C5324 1.388 . S
C5326 C5327 1.366 . S
C5327 C5326 1.366 . S
C5327 C5328 1.414 . S
C5327 C5330 1.499 . S
C5328 H5308 0.950 . S
C5328 C5327 1.414 . S
C5328 C5329 1.374 . S
C5329 H5309 0.950 . S
C5329 C5325 1.385 . S
C5329 C5328 1.374 . S
C5330 C5327 1.499 . S
C5330 C5331 1.373 . S
C5330 C5332 1.389 . S
C5331 H5310 0.950 . S
C5331 C5330 1.373 . S
C5331 C5347 1.377 . S
C5332 C5330 1.389 . S
C5332 C5333 1.524 . S
C5332 C5346 1.377 . S
C5333 C5332 1.524 . S
C5333 C5334 1.397 . S
C5333 C5338 1.363 . S
C5334 H5311 0.950 . S
C5334 C5333 1.397 . S
C5334 C5335 1.334 . S
C5335 H5312 0.950 . S
C5335 C5334 1.334 . S
C5335 C5336 1.287 . S
C5336 C5335 1.287 . S
C5336 C5337 1.524 . S
C5336 H5355 0.913 . S
C5337 H5313 0.950 . S
C5337 C5336 1.524 . S
C5337 C5338 1.415 . S
C5338 H5314 0.950 . S
C5338 C5333 1.363 . S
C5338 C5337 1.415 . S
C5339 H5315 0.951 . S
C5339 C5340 1.366 . S
C5339 C5341 1.388 . S
C5340 C5339 1.366 . S
C5340 C5344 1.385 . S
C5341 H5316 0.951 . S
C5341 C5339 1.388 . S
C5341 C5342 1.366 . S
C5342 C5341 1.366 . S
C5342 C5343 1.414 . S
C5342 C5345 1.499 . S
C5343 H5317 0.950 . S
C5343 C5342 1.414 . S
C5343 C5344 1.374 . S
C5344 H5318 0.950 . S
C5344 C5340 1.385 . S
C5344 C5343 1.374 . S
C5345 C5342 1.499 . S
C5345 C5346 1.373 . S
C5345 C5347 1.389 . S
C5346 H5319 0.950 . S
C5346 C5332 1.377 . S
C5346 C5345 1.373 . S
C5347 C5331 1.377 . S
C5347 C5345 1.389 . S
C5347 C5348 1.524 . S
C5348 C5347 1.524 . S
C5348 C5349 1.397 . S
C5348 C5353 1.363 . S
C5349 H5320 0.950 . S
C5349 C5348 1.397 . S
C5349 C5350 1.334 . S
C5350 H5321 0.950 . S
C5350 C5349 1.334 . S
C5350 C5351 1.287 . S
C5351 C5350 1.287 . S
C5351 C5352 1.524 . S
C5351 H5354 0.999 . S
C5352 H5322 0.950 . S
C5352 C5351 1.524 . S
C5352 C5353 1.415 . S
C5353 H5323 0.950 . S
C5353 C5348 1.363 . S
C5353 C5352 1.415 . S
H5354 C5351 0.999 . S
H5355 C5336 0.913 . S
H5356 C5374 0.951 . S
H5357 C5376 0.951 . S
H5358 C5378 0.950 . S
H5359 C5379 0.950 . S
H5360 C5381 0.950 . S
H5361 C5384 0.950 . S
H5362 C5385 0.950 . S
H5363 C5387 0.950 1_655 S
H5364 C5388 0.950 . S
H5365 C5389 0.951 . S
H5366 C5391 0.951 . S
H5367 C5393 0.950 . S
H5368 C5394 0.950 . S
H5369 C5396 0.950 . S
H5370 C5399 0.950 . S
H5371 C5400 0.994 . S
H5372 C5402 0.950 . S
H5373 C5403 0.950 . S
C5374 H5356 0.951 . S
C5374 C5375 1.366 . S
C5374 C5376 1.388 . S
C5375 C5374 1.366 . S
C5375 C5379 1.385 . S
C5376 H5357 0.951 . S
C5376 C5374 1.388 . S
C5376 C5377 1.366 . S
C5377 C5376 1.366 . S
C5377 C5378 1.414 . S
C5377 C5380 1.499 . S
C5378 H5358 0.950 . S
C5378 C5377 1.414 . S
C5378 C5379 1.374 . S
C5379 H5359 0.950 . S
C5379 C5375 1.385 . S
C5379 C5378 1.374 . S
C5380 C5377 1.499 . S
C5380 C5381 1.373 . S
C5380 C5382 1.389 . S
C5381 H5360 0.950 . S
C5381 C5380 1.373 . S
C5381 C5397 1.377 . S
C5382 C5380 1.389 . S
C5382 C5383 1.524 . S
C5382 C5396 1.377 . S
C5383 C5382 1.524 . S
C5383 C5384 1.397 . S
C5383 C5388 1.363 . S
C5384 H5361 0.950 . S
C5384 C5383 1.397 . S
C5384 C5385 1.334 . S
C5385 H5362 0.950 . S
C5385 C5384 1.334 . S
C5385 C5386 1.287 . S
C5386 C5385 1.287 . S
C5386 C5387 1.524 . S
C5386 H5405 0.965 . S
C5387 H5363 0.950 1_455 S
C5387 C5386 1.524 . S
C5387 C5388 1.415 . S
C5388 H5364 0.950 . S
C5388 C5383 1.363 . S
C5388 C5387 1.415 . S
C5389 H5365 0.951 . S
C5389 C5390 1.366 . S
C5389 C5391 1.388 . S
C5390 C5389 1.366 . S
C5390 C5394 1.385 . S
C5391 H5366 0.951 . S
C5391 C5389 1.388 . S
C5391 C5392 1.366 . S
C5392 C5391 1.366 . S
C5392 C5393 1.414 . S
C5392 C5395 1.499 . S
C5393 H5367 0.950 . S
C5393 C5392 1.414 . S
C5393 C5394 1.374 . S
C5394 H5368 0.950 . S
C5394 C5390 1.385 . S
C5394 C5393 1.374 . S
C5395 C5392 1.499 . S
C5395 C5396 1.373 . S
C5395 C5397 1.389 . S
C5396 H5369 0.950 . S
C5396 C5382 1.377 . S
C5396 C5395 1.373 . S
C5397 C5381 1.377 . S
C5397 C5395 1.389 . S
C5397 C5398 1.524 . S
C5398 C5397 1.524 . S
C5398 C5399 1.397 . S
C5398 C5403 1.363 . S
C5399 H5370 0.950 . S
C5399 C5398 1.397 . S
C5399 C5400 1.307 1_554 S
C5400 H5371 0.994 . S
C5400 C5399 1.307 1_556 S
C5400 C5401 1.271 1_556 S
C5401 C5400 1.271 1_554 S
C5401 C5402 1.524 . S
C5401 H5404 1.010 . S
C5402 H5372 0.950 . S
C5402 C5401 1.524 . S
C5402 C5403 1.415 . S
C5403 H5373 0.950 . S
C5403 C5398 1.363 . S
C5403 C5402 1.415 . S
H5404 C5401 1.010 . S
H5405 C5386 0.965 . S
H5406 C5424 0.951 . S
H5407 C5426 0.951 . S
H5408 C5428 0.950 . S
H5409 C5429 0.950 . S
H5410 C5431 0.950 . S
H5411 C5434 0.950 . S
H5412 C5435 0.950 . S
H5413 C5437 0.950 . S
H5414 C5438 0.950 . S
H5415 C5439 0.951 . S
H5416 C5441 0.951 . S
H5417 C5443 0.950 . S
H5418 C5444 0.950 . S
H5419 C5446 0.950 . S
H5420 C5449 0.950 . S
H5421 C5450 0.950 . S
H5422 C5452 0.950 . S
H5423 C5453 0.950 . S
C5424 H5406 0.951 . S
C5424 C5425 1.366 . S
C5424 C5426 1.388 . S
C5425 C5424 1.366 . S
C5425 C5429 1.385 . S
C5426 H5407 0.951 . S
C5426 C5424 1.388 . S
C5426 C5427 1.366 . S
C5427 C5426 1.366 . S
C5427 C5428 1.414 . S
C5427 C5430 1.499 . S
C5428 H5408 0.950 . S
C5428 C5427 1.414 . S
C5428 C5429 1.374 . S
C5429 H5409 0.950 . S
C5429 C5425 1.385 . S
C5429 C5428 1.374 . S
C5430 C5427 1.499 . S
C5430 C5431 1.373 . S
C5430 C5432 1.389 . S
C5431 H5410 0.950 . S
C5431 C5430 1.373 . S
C5431 C5447 1.377 . S
C5432 C5430 1.389 . S
C5432 C5433 1.524 . S
C5432 C5446 1.377 . S
C5433 C5432 1.524 . S
C5433 C5434 1.397 . S
C5433 C5438 1.363 . S
C5434 H5411 0.950 . S
C5434 C5433 1.397 . S
C5434 C5435 1.334 . S
C5435 H5412 0.950 . S
C5435 C5434 1.334 . S
C5435 C5436 1.287 . S
C5436 C5435 1.287 . S
C5436 C5437 1.524 . S
C5436 H5455 0.913 . S
C5437 H5413 0.950 . S
C5437 C5436 1.524 . S
C5437 C5438 1.415 . S
C5438 H5414 0.950 . S
C5438 C5433 1.363 . S
C5438 C5437 1.415 . S
C5439 H5415 0.951 . S
C5439 C5440 1.366 . S
C5439 C5441 1.388 . S
C5440 C5439 1.366 . S
C5440 C5444 1.385 . S
C5441 H5416 0.951 . S
C5441 C5439 1.388 . S
C5441 C5442 1.366 . S
C5442 C5441 1.366 . S
C5442 C5443 1.414 . S
C5442 C5445 1.499 . S
C5443 H5417 0.950 . S
C5443 C5442 1.414 . S
C5443 C5444 1.374 . S
C5444 H5418 0.950 . S
C5444 C5440 1.385 . S
C5444 C5443 1.374 . S
C5445 C5442 1.499 . S
C5445 C5446 1.373 . S
C5445 C5447 1.389 . S
C5446 H5419 0.950 . S
C5446 C5432 1.377 . S
C5446 C5445 1.373 . S
C5447 C5431 1.377 . S
C5447 C5445 1.389 . S
C5447 C5448 1.524 . S
C5448 C5447 1.524 . S
C5448 C5449 1.397 . S
C5448 C5453 1.363 . S
C5449 H5420 0.950 . S
C5449 C5448 1.397 . S
C5449 C5450 1.334 . S
C5450 H5421 0.950 . S
C5450 C5449 1.334 . S
C5450 C5451 1.287 . S
C5451 C5450 1.287 . S
C5451 C5452 1.524 . S
C5451 H5454 0.999 . S
C5452 H5422 0.950 . S
C5452 C5451 1.524 . S
C5452 C5453 1.415 . S
C5453 H5423 0.950 . S
C5453 C5448 1.363 . S
C5453 C5452 1.415 . S
H5454 C5451 0.999 . S
H5455 C5436 0.913 . S
H5456 C5474 0.951 . S
H5457 C5476 0.951 . S
H5458 C5478 0.950 . S
H5459 C5479 0.950 . S
H5460 C5481 0.950 . S
H5461 C5484 0.950 . S
H5462 C5485 0.950 . S
H5463 C5487 0.950 . S
H5464 C5488 0.950 . S
H5465 C5489 0.951 . S
H5466 C5491 0.951 . S
H5467 C5493 0.950 . S
H5468 C5494 0.950 . S
H5469 C5496 0.950 . S
H5470 C5499 0.950 1_556 S
H5471 C5500 0.950 . S
H5472 C5502 0.950 . S
H5473 C5503 0.950 . S
C5474 H5456 0.951 . S
C5474 C5475 1.366 . S
C5474 C5476 1.388 . S
C5475 C5474 1.366 . S
C5475 C5479 1.385 . S
C5476 H5457 0.951 . S
C5476 C5474 1.388 . S
C5476 C5477 1.366 . S
C5477 C5476 1.366 . S
C5477 C5478 1.414 . S
C5477 C5480 1.499 . S
C5478 H5458 0.950 . S
C5478 C5477 1.414 . S
C5478 C5479 1.374 . S
C5479 H5459 0.950 . S
C5479 C5475 1.385 . S
C5479 C5478 1.374 . S
C5480 C5477 1.499 . S
C5480 C5481 1.373 . S
C5480 C5482 1.389 . S
C5481 H5460 0.950 . S
C5481 C5480 1.373 . S
C5481 C5497 1.377 . S
C5482 C5480 1.389 . S
C5482 C5483 1.524 . S
C5482 C5496 1.377 . S
C5483 C5482 1.524 . S
C5483 C5484 1.397 . S
C5483 C5488 1.363 . S
C5484 H5461 0.950 . S
C5484 C5483 1.397 . S
C5484 C5485 1.334 . S
C5485 H5462 0.950 . S
C5485 C5484 1.334 . S
C5485 C5486 1.287 . S
C5486 C5485 1.287 . S
C5486 C5487 1.524 . S
C5486 H5505 0.913 . S
C5487 H5463 0.950 . S
C5487 C5486 1.524 . S
C5487 C5488 1.415 . S
C5488 H5464 0.950 . S
C5488 C5483 1.363 . S
C5488 C5487 1.415 . S
C5489 H5465 0.951 . S
C5489 C5490 1.366 . S
C5489 C5491 1.388 . S
C5490 C5489 1.366 . S
C5490 C5494 1.385 . S
C5491 H5466 0.951 . S
C5491 C5489 1.388 . S
C5491 C5492 1.366 . S
C5492 C5491 1.366 . S
C5492 C5493 1.414 . S
C5492 C5495 1.499 . S
C5493 H5467 0.950 . S
C5493 C5492 1.414 . S
C5493 C5494 1.374 . S
C5494 H5468 0.950 . S
C5494 C5490 1.385 . S
C5494 C5493 1.374 . S
C5495 C5492 1.499 . S
C5495 C5496 1.373 . S
C5495 C5497 1.389 . S
C5496 H5469 0.950 . S
C5496 C5482 1.377 . S
C5496 C5495 1.373 . S
C5497 C5481 1.377 . S
C5497 C5495 1.389 . S
C5497 C5498 1.524 . S
C5498 C5497 1.524 . S
C5498 C5499 1.397 1_556 S
C5498 C5503 1.363 . S
C5499 H5470 0.950 1_554 S
C5499 C5498 1.397 1_554 S
C5499 C5500 1.334 . S
C5500 H5471 0.950 . S
C5500 C5499 1.334 . S
C5500 C5501 1.287 . S
C5501 C5500 1.287 . S
C5501 C5502 1.524 . S
C5501 H5504 0.999 . S
C5502 H5472 0.950 . S
C5502 C5501 1.524 . S
C5502 C5503 1.415 1_554 S
C5503 H5473 0.950 . S
C5503 C5498 1.363 . S
C5503 C5502 1.415 1_556 S
H5504 C5501 0.999 . S
H5505 C5486 0.913 . S
H5506 C5524 0.951 . S
H5507 C5526 0.951 . S
H5508 C5528 0.950 . S
H5509 C5529 0.950 . S
H5510 C5531 0.950 . S
H5511 C5534 0.950 . S
H5512 C5535 0.950 . S
H5513 C5537 0.950 . S
H5514 C5538 0.950 . S
H5515 C5539 0.951 . S
H5516 C5541 0.951 . S
H5517 C5543 0.950 . S
H5518 C5544 0.950 . S
H5519 C5546 0.950 . S
H5520 C5549 0.950 . S
H5521 C5550 0.950 . S
H5522 C5552 0.950 . S
H5523 C5553 0.950 . S
C5524 H5506 0.951 . S
C5524 C5525 1.366 . S
C5524 C5526 1.388 . S
C5525 C5524 1.366 . S
C5525 C5529 1.385 . S
C5526 H5507 0.951 . S
C5526 C5524 1.388 . S
C5526 C5527 1.366 . S
C5527 C5526 1.366 . S
C5527 C5528 1.414 . S
C5527 C5530 1.499 . S
C5528 H5508 0.950 . S
C5528 C5527 1.414 . S
C5528 C5529 1.374 . S
C5529 H5509 0.950 . S
C5529 C5525 1.385 . S
C5529 C5528 1.374 . S
C5530 C5527 1.499 . S
C5530 C5531 1.373 . S
C5530 C5532 1.389 . S
C5531 H5510 0.950 . S
C5531 C5530 1.373 . S
C5531 C5547 1.377 . S
C5532 C5530 1.389 . S
C5532 C5533 1.524 . S
C5532 C5546 1.377 . S
C5533 C5532 1.524 . S
C5533 C5534 1.397 . S
C5533 C5538 1.363 . S
C5534 H5511 0.950 . S
C5534 C5533 1.397 . S
C5534 C5535 1.334 . S
C5535 H5512 0.950 . S
C5535 C5534 1.334 . S
C5535 C5536 1.287 . S
C5536 C5535 1.287 . S
C5536 C5537 1.524 . S
C5536 H5555 0.913 . S
C5537 H5513 0.950 . S
C5537 C5536 1.524 . S
C5537 C5538 1.415 . S
C5538 H5514 0.950 . S
C5538 C5533 1.363 . S
C5538 C5537 1.415 . S
C5539 H5515 0.951 . S
C5539 C5540 1.366 . S
C5539 C5541 1.388 . S
C5540 C5539 1.366 . S
C5540 C5544 1.385 . S
C5541 H5516 0.951 . S
C5541 C5539 1.388 . S
C5541 C5542 1.366 . S
C5542 C5541 1.366 . S
C5542 C5543 1.414 . S
C5542 C5545 1.499 . S
C5543 H5517 0.950 . S
C5543 C5542 1.414 . S
C5543 C5544 1.374 . S
C5544 H5518 0.950 . S
C5544 C5540 1.385 . S
C5544 C5543 1.374 . S
C5545 C5542 1.499 . S
C5545 C5546 1.373 . S
C5545 C5547 1.389 . S
C5546 H5519 0.950 . S
C5546 C5532 1.377 . S
C5546 C5545 1.373 . S
C5547 C5531 1.377 . S
C5547 C5545 1.389 . S
C5547 C5548 1.524 . S
C5548 C5547 1.524 . S
C5548 C5549 1.397 . S
C5548 C5553 1.363 . S
C5549 H5520 0.950 . S
C5549 C5548 1.397 . S
C5549 C5550 1.334 . S
C5550 H5521 0.950 . S
C5550 C5549 1.334 . S
C5550 C5551 1.287 . S
C5551 C5550 1.287 . S
C5551 C5552 1.524 . S
C5551 H5554 0.999 . S
C5552 H5522 0.950 . S
C5552 C5551 1.524 . S
C5552 C5553 1.415 . S
C5553 H5523 0.950 . S
C5553 C5548 1.363 . S
C5553 C5552 1.415 . S
H5554 C5551 0.999 . S
H5555 C5536 0.913 . S
H5556 C5574 0.951 . S
H5557 C5576 0.951 . S
H5558 C5578 0.950 . S
H5559 C5579 0.950 . S
H5560 C5581 0.950 . S
H5561 C5584 0.950 . S
H5562 C5585 0.950 . S
H5563 C5587 0.950 . S
H5564 C5588 0.950 . S
H5565 C5589 0.951 . S
H5566 C5591 0.951 . S
H5567 C5593 0.950 . S
H5568 C5594 0.950 . S
H5569 C5596 0.950 . S
H5570 C5599 0.950 . S
H5571 C5600 0.950 . S
H5572 C5602 0.950 . S
H5573 C5603 0.950 . S
C5574 H5556 0.951 . S
C5574 C5575 1.366 . S
C5574 C5576 1.388 . S
C5575 C5574 1.366 . S
C5575 C5579 1.385 . S
C5576 H5557 0.951 . S
C5576 C5574 1.388 . S
C5576 C5577 1.366 . S
C5577 C5576 1.366 . S
C5577 C5578 1.414 . S
C5577 C5580 1.499 . S
C5578 H5558 0.950 . S
C5578 C5577 1.414 . S
C5578 C5579 1.374 . S
C5579 H5559 0.950 . S
C5579 C5575 1.385 . S
C5579 C5578 1.374 . S
C5580 C5577 1.499 . S
C5580 C5581 1.373 . S
C5580 C5582 1.389 . S
C5581 H5560 0.950 . S
C5581 C5580 1.373 . S
C5581 C5597 1.377 . S
C5582 C5580 1.389 . S
C5582 C5583 1.524 . S
C5582 C5596 1.377 . S
C5583 C5582 1.524 . S
C5583 C5584 1.397 . S
C5583 C5588 1.363 . S
C5584 H5561 0.950 . S
C5584 C5583 1.397 . S
C5584 C5585 1.334 . S
C5585 H5562 0.950 . S
C5585 C5584 1.334 . S
C5585 C5586 1.287 . S
C5586 C5585 1.287 . S
C5586 C5587 1.524 . S
C5586 H5605 0.913 . S
C5587 H5563 0.950 . S
C5587 C5586 1.524 . S
C5587 C5588 1.415 . S
C5588 H5564 0.950 . S
C5588 C5583 1.363 . S
C5588 C5587 1.415 . S
C5589 H5565 0.951 . S
C5589 C5590 1.366 . S
C5589 C5591 1.388 . S
C5590 C5589 1.366 . S
C5590 C5594 1.385 . S
C5591 H5566 0.951 . S
C5591 C5589 1.388 . S
C5591 C5592 1.366 . S
C5592 C5591 1.366 . S
C5592 C5593 1.414 . S
C5592 C5595 1.499 . S
C5593 H5567 0.950 . S
C5593 C5592 1.414 . S
C5593 C5594 1.374 . S
C5594 H5568 0.950 . S
C5594 C5590 1.385 . S
C5594 C5593 1.374 . S
C5595 C5592 1.499 . S
C5595 C5596 1.373 . S
C5595 C5597 1.389 . S
C5596 H5569 0.950 . S
C5596 C5582 1.377 . S
C5596 C5595 1.373 . S
C5597 C5581 1.377 . S
C5597 C5595 1.389 . S
C5597 C5598 1.524 . S
C5598 C5597 1.524 . S
C5598 C5599 1.397 . S
C5598 C5603 1.363 . S
C5599 H5570 0.950 . S
C5599 C5598 1.397 . S
C5599 C5600 1.334 . S
C5600 H5571 0.950 . S
C5600 C5599 1.334 . S
C5600 C5601 1.287 . S
C5601 C5600 1.287 . S
C5601 C5602 1.524 . S
C5601 H5604 0.999 . S
C5602 H5572 0.950 . S
C5602 C5601 1.524 . S
C5602 C5603 1.415 . S
C5603 H5573 0.950 . S
C5603 C5598 1.363 . S
C5603 C5602 1.415 . S
H5604 C5601 0.999 . S
H5605 C5586 0.913 . S
H5606 C5624 0.951 . S
H5607 C5626 0.951 . S
H5608 C5628 0.950 . S
H5609 C5629 0.950 . S
H5610 C5631 0.950 . S
H5611 C5634 0.950 . S
H5612 C5635 0.950 . S
H5613 C5637 0.950 . S
H5614 C5638 0.950 . S
H5615 C5639 0.951 . S
H5616 C5641 0.951 . S
H5617 C5643 0.950 . S
H5618 C5644 0.950 . S
H5619 C5646 0.950 . S
H5620 C5649 0.950 . S
H5621 C5650 0.950 . S
H5622 C5652 0.950 . S
H5623 C5653 0.950 . S
C5624 H5606 0.951 . S
C5624 C5625 1.366 . S
C5624 C5626 1.388 . S
C5625 C5624 1.366 . S
C5625 C5629 1.385 . S
C5626 H5607 0.951 . S
C5626 C5624 1.388 . S
C5626 C5627 1.366 . S
C5627 C5626 1.366 . S
C5627 C5628 1.414 . S
C5627 C5630 1.499 . S
C5628 H5608 0.950 . S
C5628 C5627 1.414 . S
C5628 C5629 1.374 . S
C5629 H5609 0.950 . S
C5629 C5625 1.385 . S
C5629 C5628 1.374 . S
C5630 C5627 1.499 . S
C5630 C5631 1.373 . S
C5630 C5632 1.389 . S
C5631 H5610 0.950 . S
C5631 C5630 1.373 . S
C5631 C5647 1.377 . S
C5632 C5630 1.389 . S
C5632 C5633 1.524 . S
C5632 C5646 1.377 . S
C5633 C5632 1.524 . S
C5633 C5634 1.397 . S
C5633 C5638 1.363 . S
C5634 H5611 0.950 . S
C5634 C5633 1.397 . S
C5634 C5635 1.334 . S
C5635 H5612 0.950 . S
C5635 C5634 1.334 . S
C5635 C5636 1.287 . S
C5636 C5635 1.287 . S
C5636 C5637 1.524 . S
C5636 H5655 0.913 . S
C5637 H5613 0.950 . S
C5637 C5636 1.524 . S
C5637 C5638 1.415 . S
C5638 H5614 0.950 . S
C5638 C5633 1.363 . S
C5638 C5637 1.415 . S
C5639 H5615 0.951 . S
C5639 C5640 1.366 . S
C5639 C5641 1.388 . S
C5640 C5639 1.366 . S
C5640 C5644 1.385 . S
C5641 H5616 0.951 . S
C5641 C5639 1.388 . S
C5641 C5642 1.366 . S
C5642 C5641 1.366 . S
C5642 C5643 1.414 . S
C5642 C5645 1.499 . S
C5643 H5617 0.950 . S
C5643 C5642 1.414 . S
C5643 C5644 1.374 . S
C5644 H5618 0.950 . S
C5644 C5640 1.385 . S
C5644 C5643 1.374 . S
C5645 C5642 1.499 . S
C5645 C5646 1.373 . S
C5645 C5647 1.389 . S
C5646 H5619 0.950 . S
C5646 C5632 1.377 . S
C5646 C5645 1.373 . S
C5647 C5631 1.377 . S
C5647 C5645 1.389 . S
C5647 C5648 1.524 . S
C5648 C5647 1.524 . S
C5648 C5649 1.397 . S
C5648 C5653 1.363 . S
C5649 H5620 0.950 . S
C5649 C5648 1.397 . S
C5649 C5650 1.334 . S
C5650 H5621 0.950 . S
C5650 C5649 1.334 . S
C5650 C5651 1.287 . S
C5651 C5650 1.287 . S
C5651 C5652 1.524 . S
C5651 H5654 0.999 . S
C5652 H5622 0.950 . S
C5652 C5651 1.524 . S
C5652 C5653 1.415 . S
C5653 H5623 0.950 . S
C5653 C5648 1.363 . S
C5653 C5652 1.415 . S
H5654 C5651 0.999 . S
H5655 C5636 0.913 . S
H5656 C5674 0.951 . S
H5657 C5676 0.951 . S
H5658 C5678 0.950 . S
H5659 C5679 0.950 . S
H5660 C5681 0.950 . S
H5661 C5684 0.950 . S
H5662 C5685 0.950 . S
H5663 C5687 0.950 . S
H5664 C5688 0.950 . S
H5665 C5689 0.951 . S
H5666 C5691 0.951 . S
H5667 C5693 0.950 . S
H5668 C5694 0.950 . S
H5669 C5696 0.950 . S
H5670 C5699 0.950 . S
H5671 C5700 0.950 . S
H5672 C5702 0.950 . S
H5673 C5703 0.950 . S
C5674 H5656 0.951 . S
C5674 C5675 1.366 . S
C5674 C5676 1.388 . S
C5675 C5674 1.366 . S
C5675 C5679 1.385 . S
C5676 H5657 0.951 . S
C5676 C5674 1.388 . S
C5676 C5677 1.366 . S
C5677 C5676 1.366 . S
C5677 C5678 1.414 . S
C5677 C5680 1.499 . S
C5678 H5658 0.950 . S
C5678 C5677 1.414 . S
C5678 C5679 1.374 . S
C5679 H5659 0.950 . S
C5679 C5675 1.385 . S
C5679 C5678 1.374 . S
C5680 C5677 1.499 . S
C5680 C5681 1.373 . S
C5680 C5682 1.389 . S
C5681 H5660 0.950 . S
C5681 C5680 1.373 . S
C5681 C5697 1.377 . S
C5682 C5680 1.389 . S
C5682 C5683 1.524 . S
C5682 C5696 1.377 . S
C5683 C5682 1.524 . S
C5683 C5684 1.397 . S
C5683 C5688 1.363 . S
C5684 H5661 0.950 . S
C5684 C5683 1.397 . S
C5684 C5685 1.334 . S
C5685 H5662 0.950 . S
C5685 C5684 1.334 . S
C5685 C5686 1.287 . S
C5686 C5685 1.287 . S
C5686 C5687 1.524 . S
C5686 H5705 0.913 . S
C5687 H5663 0.950 . S
C5687 C5686 1.524 . S
C5687 C5688 1.415 . S
C5688 H5664 0.950 . S
C5688 C5683 1.363 . S
C5688 C5687 1.415 . S
C5689 H5665 0.951 . S
C5689 C5690 1.366 . S
C5689 C5691 1.388 . S
C5690 C5689 1.366 . S
C5690 C5694 1.385 . S
C5691 H5666 0.951 . S
C5691 C5689 1.388 . S
C5691 C5692 1.366 . S
C5692 C5691 1.366 . S
C5692 C5693 1.414 . S
C5692 C5695 1.499 . S
C5693 H5667 0.950 . S
C5693 C5692 1.414 . S
C5693 C5694 1.374 . S
C5694 H5668 0.950 . S
C5694 C5690 1.385 . S
C5694 C5693 1.374 . S
C5695 C5692 1.499 . S
C5695 C5696 1.373 . S
C5695 C5697 1.389 . S
C5696 H5669 0.950 . S
C5696 C5682 1.377 . S
C5696 C5695 1.373 . S
C5697 C5681 1.377 . S
C5697 C5695 1.389 . S
C5697 C5698 1.524 . S
C5698 C5697 1.524 . S
C5698 C5699 1.397 . S
C5698 C5703 1.363 . S
C5699 H5670 0.950 . S
C5699 C5698 1.397 . S
C5699 C5700 1.334 . S
C5700 H5671 0.950 . S
C5700 C5699 1.334 . S
C5700 C5701 1.287 . S
C5701 C5700 1.287 . S
C5701 C5702 1.524 . S
C5701 H5704 0.999 . S
C5702 H5672 0.950 . S
C5702 C5701 1.524 . S
C5702 C5703 1.415 . S
C5703 H5673 0.950 . S
C5703 C5698 1.363 . S
C5703 C5702 1.415 . S
H5704 C5701 0.999 . S
H5705 C5686 0.913 . S
H5706 C5724 0.951 . S
H5707 C5726 0.951 . S
H5708 C5728 0.950 . S
H5709 C5729 0.950 . S
H5710 C5731 0.950 . S
H5711 C5734 0.950 . S
H5712 C5735 0.950 . S
H5713 C5737 0.950 . S
H5714 C5738 0.950 . S
H5715 C5739 0.951 . S
H5716 C5741 0.951 . S
H5717 C5743 0.950 . S
H5718 C5744 0.950 . S
H5719 C5746 0.950 . S
H5720 C5749 0.950 . S
H5721 C5750 0.950 . S
H5722 C5752 0.950 . S
H5723 C5753 0.950 . S
C5724 H5706 0.951 . S
C5724 C5725 1.366 . S
C5724 C5726 1.388 . S
C5725 C5724 1.366 . S
C5725 C5729 1.385 . S
C5726 H5707 0.951 . S
C5726 C5724 1.388 . S
C5726 C5727 1.366 . S
C5727 C5726 1.366 . S
C5727 C5728 1.414 . S
C5727 C5730 1.499 . S
C5728 H5708 0.950 . S
C5728 C5727 1.414 . S
C5728 C5729 1.374 . S
C5729 H5709 0.950 . S
C5729 C5725 1.385 . S
C5729 C5728 1.374 . S
C5730 C5727 1.499 . S
C5730 C5731 1.373 . S
C5730 C5732 1.389 . S
C5731 H5710 0.950 . S
C5731 C5730 1.373 . S
C5731 C5747 1.377 . S
C5732 C5730 1.389 . S
C5732 C5733 1.524 . S
C5732 C5746 1.377 . S
C5733 C5732 1.524 . S
C5733 C5734 1.397 . S
C5733 C5738 1.363 . S
C5734 H5711 0.950 . S
C5734 C5733 1.397 . S
C5734 C5735 1.334 . S
C5735 H5712 0.950 . S
C5735 C5734 1.334 . S
C5735 C5736 1.287 . S
C5736 C5735 1.287 . S
C5736 C5737 1.524 . S
C5736 H5755 0.913 . S
C5737 H5713 0.950 . S
C5737 C5736 1.524 . S
C5737 C5738 1.415 . S
C5738 H5714 0.950 . S
C5738 C5733 1.363 . S
C5738 C5737 1.415 . S
C5739 H5715 0.951 . S
C5739 C5740 1.366 . S
C5739 C5741 1.388 . S
C5740 C5739 1.366 . S
C5740 C5744 1.385 . S
C5741 H5716 0.951 . S
C5741 C5739 1.388 . S
C5741 C5742 1.366 . S
C5742 C5741 1.366 . S
C5742 C5743 1.414 . S
C5742 C5745 1.499 . S
C5743 H5717 0.950 . S
C5743 C5742 1.414 . S
C5743 C5744 1.374 . S
C5744 H5718 0.950 . S
C5744 C5740 1.385 . S
C5744 C5743 1.374 . S
C5745 C5742 1.499 . S
C5745 C5746 1.373 . S
C5745 C5747 1.389 . S
C5746 H5719 0.950 . S
C5746 C5732 1.377 . S
C5746 C5745 1.373 . S
C5747 C5731 1.377 . S
C5747 C5745 1.389 . S
C5747 C5748 1.524 . S
C5748 C5747 1.524 . S
C5748 C5749 1.397 . S
C5748 C5753 1.363 . S
C5749 H5720 0.950 . S
C5749 C5748 1.397 . S
C5749 C5750 1.334 . S
C5750 H5721 0.950 . S
C5750 C5749 1.334 . S
C5750 C5751 1.287 . S
C5751 C5750 1.287 . S
C5751 C5752 1.524 . S
C5751 H5754 0.999 . S
C5752 H5722 0.950 . S
C5752 C5751 1.524 . S
C5752 C5753 1.415 . S
C5753 H5723 0.950 . S
C5753 C5748 1.363 . S
C5753 C5752 1.415 . S
H5754 C5751 0.999 . S
H5755 C5736 0.913 . S
H5756 C5774 0.951 . S
H5757 C5776 0.951 . S
H5758 C5778 0.950 . S
H5759 C5779 0.950 . S
H5760 C5781 0.950 . S
H5761 C5784 0.950 . S
H5762 C5785 0.950 . S
H5763 C5787 0.950 . S
H5764 C5788 0.950 . S
H5765 C5789 0.951 . S
H5766 C5791 0.951 . S
H5767 C5793 0.994 . S
H5768 C5794 0.950 . S
H5769 C5796 0.950 . S
H5770 C5799 0.950 . S
H5771 C5800 0.957 . S
H5772 C5802 0.950 . S
H5773 C5803 0.950 . S
C5774 H5756 0.951 . S
C5774 C5775 1.366 . S
C5774 C5776 1.388 . S
C5775 C5774 1.366 . S
C5775 C5779 1.385 . S
C5776 H5757 0.951 . S
C5776 C5774 1.388 . S
C5776 C5777 1.366 . S
C5777 C5776 1.366 . S
C5777 C5778 1.414 . S
C5777 C5780 1.499 . S
C5778 H5758 0.950 . S
C5778 C5777 1.414 . S
C5778 C5779 1.374 . S
C5779 H5759 0.950 . S
C5779 C5775 1.385 . S
C5779 C5778 1.374 . S
C5780 C5777 1.499 . S
C5780 C5781 1.373 . S
C5780 C5782 1.389 . S
C5781 H5760 0.950 . S
C5781 C5780 1.373 . S
C5781 C5797 1.377 . S
C5782 C5780 1.389 . S
C5782 C5783 1.524 . S
C5782 C5796 1.377 . S
C5783 C5782 1.524 . S
C5783 C5784 1.397 . S
C5783 C5788 1.363 . S
C5784 H5761 0.950 . S
C5784 C5783 1.397 . S
C5784 C5785 1.334 . S
C5785 H5762 0.950 . S
C5785 C5784 1.334 . S
C5785 C5786 1.287 . S
C5786 C5785 1.287 . S
C5786 C5787 1.524 . S
C5786 H5805 0.913 . S
C5787 H5763 0.950 . S
C5787 C5786 1.524 . S
C5787 C5788 1.415 . S
C5788 H5764 0.950 . S
C5788 C5783 1.363 . S
C5788 C5787 1.415 . S
C5789 H5765 0.951 . S
C5789 C5790 1.366 . S
C5789 C5791 1.388 . S
C5790 C5789 1.366 . S
C5790 C5794 1.385 . S
C5791 H5766 0.951 . S
C5791 C5789 1.388 . S
C5791 C5792 1.366 . S
C5792 C5791 1.366 . S
C5792 C5793 1.397 1_455 S
C5792 C5795 1.499 1_455 S
C5793 H5767 0.994 . S
C5793 C5792 1.397 1_655 S
C5793 C5794 1.349 1_655 S
C5794 H5768 0.950 . S
C5794 C5790 1.385 . S
C5794 C5793 1.349 1_455 S
C5795 C5792 1.499 1_655 S
C5795 C5796 1.373 . S
C5795 C5797 1.389 . S
C5796 H5769 0.950 . S
C5796 C5782 1.377 . S
C5796 C5795 1.373 . S
C5797 C5781 1.377 . S
C5797 C5795 1.389 . S
C5797 C5798 1.525 . S
C5798 C5797 1.525 . S
C5798 C5799 1.397 . S
C5798 C5803 1.362 1_655 S
C5799 H5770 0.950 . S
C5799 C5798 1.397 . S
C5799 C5800 1.334 1_655 S
C5800 H5771 0.957 . S
C5800 C5799 1.334 1_455 S
C5800 C5801 1.287 . S
C5801 C5800 1.287 . S
C5801 C5802 1.524 . S
C5801 H5804 0.999 . S
C5802 H5772 0.950 . S
C5802 C5801 1.524 . S
C5802 C5803 1.415 . S
C5803 H5773 0.950 . S
C5803 C5798 1.362 1_455 S
C5803 C5802 1.415 . S
H5804 C5801 0.999 . S
H5805 C5786 0.913 . S
H5806 C5824 0.951 . S
H5807 C5826 0.951 . S
H5808 C5828 0.950 . S
H5809 C5829 0.950 . S
H5810 C5831 0.950 . S
H5811 C5834 0.950 . S
H5812 C5835 0.950 . S
H5813 C5837 0.950 . S
H5814 C5838 0.950 . S
H5815 C5839 0.951 . S
H5816 C5841 0.951 . S
H5817 C5843 0.950 . S
H5818 C5844 0.950 . S
H5819 C5846 0.950 . S
H5820 C5849 0.950 . S
H5821 C5850 0.950 . S
H5822 C5852 0.950 . S
H5823 C5853 0.950 . S
C5824 H5806 0.951 . S
C5824 C5825 1.366 . S
C5824 C5826 1.388 . S
C5825 C5824 1.366 . S
C5825 C5829 1.385 . S
C5826 H5807 0.951 . S
C5826 C5824 1.388 . S
C5826 C5827 1.366 . S
C5827 C5826 1.366 . S
C5827 C5828 1.414 . S
C5827 C5830 1.499 . S
C5828 H5808 0.950 . S
C5828 C5827 1.414 . S
C5828 C5829 1.374 . S
C5829 H5809 0.950 . S
C5829 C5825 1.385 . S
C5829 C5828 1.374 . S
C5830 C5827 1.499 . S
C5830 C5831 1.373 . S
C5830 C5832 1.389 . S
C5831 H5810 0.950 . S
C5831 C5830 1.373 . S
C5831 C5847 1.377 . S
C5832 C5830 1.389 . S
C5832 C5833 1.524 . S
C5832 C5846 1.377 . S
C5833 C5832 1.524 . S
C5833 C5834 1.397 . S
C5833 C5838 1.363 . S
C5834 H5811 0.950 . S
C5834 C5833 1.397 . S
C5834 C5835 1.334 . S
C5835 H5812 0.950 . S
C5835 C5834 1.334 . S
C5835 C5836 1.287 . S
C5836 C5835 1.287 . S
C5836 C5837 1.524 . S
C5836 H5855 0.913 . S
C5837 H5813 0.950 . S
C5837 C5836 1.524 . S
C5837 C5838 1.415 . S
C5838 H5814 0.950 . S
C5838 C5833 1.363 . S
C5838 C5837 1.415 . S
C5839 H5815 0.951 . S
C5839 C5840 1.366 . S
C5839 C5841 1.388 . S
C5840 C5839 1.366 . S
C5840 C5844 1.385 . S
C5841 H5816 0.951 . S
C5841 C5839 1.388 . S
C5841 C5842 1.366 . S
C5842 C5841 1.366 . S
C5842 C5843 1.414 . S
C5842 C5845 1.499 . S
C5843 H5817 0.950 . S
C5843 C5842 1.414 . S
C5843 C5844 1.374 . S
C5844 H5818 0.950 . S
C5844 C5840 1.385 . S
C5844 C5843 1.374 . S
C5845 C5842 1.499 . S
C5845 C5846 1.373 . S
C5845 C5847 1.389 . S
C5846 H5819 0.950 . S
C5846 C5832 1.377 . S
C5846 C5845 1.373 . S
C5847 C5831 1.377 . S
C5847 C5845 1.389 . S
C5847 C5848 1.524 . S
C5848 C5847 1.524 . S
C5848 C5849 1.397 . S
C5848 C5853 1.363 . S
C5849 H5820 0.950 . S
C5849 C5848 1.397 . S
C5849 C5850 1.334 . S
C5850 H5821 0.950 . S
C5850 C5849 1.334 . S
C5850 C5851 1.287 . S
C5851 C5850 1.287 . S
C5851 C5852 1.524 . S
C5851 H5854 0.999 . S
C5852 H5822 0.950 . S
C5852 C5851 1.524 . S
C5852 C5853 1.415 . S
C5853 H5823 0.950 . S
C5853 C5848 1.363 . S
C5853 C5852 1.415 . S
H5854 C5851 0.999 . S
H5855 C5836 0.913 . S
H5856 C5874 0.951 . S
H5857 C5876 0.951 . S
H5858 C5878 0.950 . S
H5859 C5879 0.950 . S
H5860 C5881 0.950 . S
H5861 C5884 0.950 . S
H5862 C5885 0.950 . S
H5863 C5887 0.950 . S
H5864 C5888 0.950 . S
H5865 C5889 0.951 . S
H5866 C5891 0.951 . S
H5867 C5893 0.950 . S
H5868 C5894 0.950 . S
H5869 C5896 0.950 . S
H5870 C5899 0.950 . S
H5871 C5900 0.950 . S
H5872 C5902 0.950 . S
H5873 C5903 0.950 . S
C5874 H5856 0.951 . S
C5874 C5875 1.366 . S
C5874 C5876 1.388 . S
C5875 C5874 1.366 . S
C5875 C5879 1.385 . S
C5876 H5857 0.951 . S
C5876 C5874 1.388 . S
C5876 C5877 1.366 . S
C5877 C5876 1.366 . S
C5877 C5878 1.414 . S
C5877 C5880 1.499 . S
C5878 H5858 0.950 . S
C5878 C5877 1.414 . S
C5878 C5879 1.374 . S
C5879 H5859 0.950 . S
C5879 C5875 1.385 . S
C5879 C5878 1.374 . S
C5880 C5877 1.499 . S
C5880 C5881 1.373 . S
C5880 C5882 1.389 . S
C5881 H5860 0.950 . S
C5881 C5880 1.373 . S
C5881 C5897 1.377 . S
C5882 C5880 1.389 . S
C5882 C5883 1.524 . S
C5882 C5896 1.377 . S
C5883 C5882 1.524 . S
C5883 C5884 1.397 . S
C5883 C5888 1.363 . S
C5884 H5861 0.950 . S
C5884 C5883 1.397 . S
C5884 C5885 1.334 . S
C5885 H5862 0.950 . S
C5885 C5884 1.334 . S
C5885 C5886 1.287 . S
C5886 C5885 1.287 . S
C5886 C5887 1.524 . S
C5886 H5905 0.913 . S
C5887 H5863 0.950 . S
C5887 C5886 1.524 . S
C5887 C5888 1.415 . S
C5888 H5864 0.950 . S
C5888 C5883 1.363 . S
C5888 C5887 1.415 . S
C5889 H5865 0.951 . S
C5889 C5890 1.366 . S
C5889 C5891 1.388 . S
C5890 C5889 1.366 . S
C5890 C5894 1.385 . S
C5891 H5866 0.951 . S
C5891 C5889 1.388 . S
C5891 C5892 1.366 . S
C5892 C5891 1.366 . S
C5892 C5893 1.414 . S
C5892 C5895 1.499 . S
C5893 H5867 0.950 . S
C5893 C5892 1.414 . S
C5893 C5894 1.374 . S
C5894 H5868 0.950 . S
C5894 C5890 1.385 . S
C5894 C5893 1.374 . S
C5895 C5892 1.499 . S
C5895 C5896 1.373 . S
C5895 C5897 1.389 . S
C5896 H5869 0.950 . S
C5896 C5882 1.377 . S
C5896 C5895 1.373 . S
C5897 C5881 1.377 . S
C5897 C5895 1.389 . S
C5897 C5898 1.524 . S
C5898 C5897 1.524 . S
C5898 C5899 1.397 . S
C5898 C5903 1.363 . S
C5899 H5870 0.950 . S
C5899 C5898 1.397 . S
C5899 C5900 1.334 . S
C5900 H5871 0.950 . S
C5900 C5899 1.334 . S
C5900 C5901 1.287 . S
C5901 C5900 1.287 . S
C5901 C5902 1.524 . S
C5901 H5904 0.999 . S
C5902 H5872 0.950 . S
C5902 C5901 1.524 . S
C5902 C5903 1.415 . S
C5903 H5873 0.950 . S
C5903 C5898 1.363 . S
C5903 C5902 1.415 . S
H5904 C5901 0.999 . S
H5905 C5886 0.913 . S
H5906 C5924 0.951 . S
H5907 C5926 0.951 . S
H5908 C5928 0.950 . S
H5909 C5929 0.950 . S
H5910 C5931 0.950 . S
H5911 C5934 0.950 . S
H5912 C5935 0.950 . S
H5913 C5937 0.950 . S
H5914 C5938 0.950 . S
H5915 C5939 0.951 . S
H5916 C5941 0.951 . S
H5917 C5943 0.950 . S
H5918 C5944 0.950 . S
H5919 C5946 0.950 . S
H5920 C5949 0.950 . S
H5921 C5950 0.950 . S
H5922 C5952 0.950 . S
H5923 C5953 0.950 . S
C5924 H5906 0.951 . S
C5924 C5925 1.366 . S
C5924 C5926 1.388 . S
C5925 C5924 1.366 . S
C5925 C5929 1.385 . S
C5926 H5907 0.951 . S
C5926 C5924 1.388 . S
C5926 C5927 1.366 . S
C5927 C5926 1.366 . S
C5927 C5928 1.414 . S
C5927 C5930 1.499 . S
C5928 H5908 0.950 . S
C5928 C5927 1.414 . S
C5928 C5929 1.374 . S
C5929 H5909 0.950 . S
C5929 C5925 1.385 . S
C5929 C5928 1.374 . S
C5930 C5927 1.499 . S
C5930 C5931 1.373 . S
C5930 C5932 1.389 . S
C5931 H5910 0.950 . S
C5931 C5930 1.373 . S
C5931 C5947 1.377 . S
C5932 C5930 1.389 . S
C5932 C5933 1.524 . S
C5932 C5946 1.377 . S
C5933 C5932 1.524 . S
C5933 C5934 1.397 . S
C5933 C5938 1.363 . S
C5934 H5911 0.950 . S
C5934 C5933 1.397 . S
C5934 C5935 1.334 . S
C5935 H5912 0.950 . S
C5935 C5934 1.334 . S
C5935 C5936 1.287 . S
C5936 C5935 1.287 . S
C5936 C5937 1.524 . S
C5936 H5955 0.913 . S
C5937 H5913 0.950 . S
C5937 C5936 1.524 . S
C5937 C5938 1.415 . S
C5938 H5914 0.950 . S
C5938 C5933 1.363 . S
C5938 C5937 1.415 . S
C5939 H5915 0.951 . S
C5939 C5940 1.366 . S
C5939 C5941 1.388 . S
C5940 C5939 1.366 . S
C5940 C5944 1.385 . S
C5941 H5916 0.951 . S
C5941 C5939 1.388 . S
C5941 C5942 1.366 . S
C5942 C5941 1.366 . S
C5942 C5943 1.414 . S
C5942 C5945 1.499 . S
C5943 H5917 0.950 . S
C5943 C5942 1.414 . S
C5943 C5944 1.374 . S
C5944 H5918 0.950 . S
C5944 C5940 1.385 . S
C5944 C5943 1.374 . S
C5945 C5942 1.499 . S
C5945 C5946 1.373 . S
C5945 C5947 1.389 . S
C5946 H5919 0.950 . S
C5946 C5932 1.377 . S
C5946 C5945 1.373 . S
C5947 C5931 1.377 . S
C5947 C5945 1.389 . S
C5947 C5948 1.524 . S
C5948 C5947 1.524 . S
C5948 C5949 1.397 . S
C5948 C5953 1.363 . S
C5949 H5920 0.950 . S
C5949 C5948 1.397 . S
C5949 C5950 1.334 . S
C5950 H5921 0.950 . S
C5950 C5949 1.334 . S
C5950 C5951 1.287 . S
C5951 C5950 1.287 . S
C5951 C5952 1.524 . S
C5951 H5954 0.999 . S
C5952 H5922 0.950 . S
C5952 C5951 1.524 . S
C5952 C5953 1.415 . S
C5953 H5923 0.950 . S
C5953 C5948 1.363 . S
C5953 C5952 1.415 . S
H5954 C5951 0.999 . S
H5955 C5936 0.913 . S
H5956 C5974 0.951 . S
H5957 C5976 0.951 . S
H5958 C5978 0.950 . S
H5959 C5979 0.950 . S
H5960 C5981 0.950 . S
H5961 C5984 0.950 . S
H5962 C5985 0.950 . S
H5963 C5987 0.950 . S
H5964 C5988 0.950 . S
H5965 C5989 0.951 . S
H5966 C5991 0.951 . S
H5967 C5993 0.950 . S
H5968 C5994 0.950 . S
H5969 C5996 0.950 . S
H5970 C5999 0.950 1_655 S
H5971 C6000 0.950 . S
H5972 C6002 0.950 . S
H5973 C6003 0.950 . S
C5974 H5956 0.951 . S
C5974 C5975 1.366 . S
C5974 C5976 1.388 . S
C5975 C5974 1.366 . S
C5975 C5979 1.385 . S
C5976 H5957 0.951 . S
C5976 C5974 1.388 . S
C5976 C5977 1.366 . S
C5977 C5976 1.366 . S
C5977 C5978 1.414 . S
C5977 C5980 1.499 . S
C5978 H5958 0.950 . S
C5978 C5977 1.414 . S
C5978 C5979 1.374 . S
C5979 H5959 0.950 . S
C5979 C5975 1.385 . S
C5979 C5978 1.374 . S
C5980 C5977 1.499 . S
C5980 C5981 1.373 . S
C5980 C5982 1.389 . S
C5981 H5960 0.950 . S
C5981 C5980 1.373 . S
C5981 C5997 1.377 . S
C5982 C5980 1.389 . S
C5982 C5983 1.524 . S
C5982 C5996 1.377 . S
C5983 C5982 1.524 . S
C5983 C5984 1.397 . S
C5983 C5988 1.363 . S
C5984 H5961 0.950 . S
C5984 C5983 1.397 . S
C5984 C5985 1.334 . S
C5985 H5962 0.950 . S
C5985 C5984 1.334 . S
C5985 C5986 1.287 . S
C5986 C5985 1.287 . S
C5986 C5987 1.524 . S
C5986 H6005 0.913 . S
C5987 H5963 0.950 . S
C5987 C5986 1.524 . S
C5987 C5988 1.415 . S
C5988 H5964 0.950 . S
C5988 C5983 1.363 . S
C5988 C5987 1.415 . S
C5989 H5965 0.951 . S
C5989 C5990 1.366 . S
C5989 C5991 1.388 . S
C5990 C5989 1.366 . S
C5990 C5994 1.385 1_455 S
C5991 H5966 0.951 . S
C5991 C5989 1.388 . S
C5991 C5992 1.366 1_455 S
C5992 C5991 1.366 1_655 S
C5992 C5993 1.414 . S
C5992 C5995 1.499 . S
C5993 H5967 0.950 . S
C5993 C5992 1.414 . S
C5993 C5994 1.374 . S
C5994 H5968 0.950 . S
C5994 C5990 1.385 1_655 S
C5994 C5993 1.374 . S
C5995 C5992 1.499 . S
C5995 C5996 1.373 . S
C5995 C5997 1.389 . S
C5996 H5969 0.950 . S
C5996 C5982 1.377 . S
C5996 C5995 1.373 . S
C5997 C5981 1.377 . S
C5997 C5995 1.389 . S
C5997 C5998 1.524 1_655 S
C5998 C5997 1.524 1_455 S
C5998 C5999 1.397 . S
C5998 C6003 1.363 . S
C5999 H5970 0.950 1_455 S
C5999 C5998 1.397 . S
C5999 C6000 1.334 . S
C6000 H5971 0.950 . S
C6000 C5999 1.334 . S
C6000 C6001 1.287 . S
C6001 C6000 1.287 . S
C6001 C6002 1.524 . S
C6001 H6004 0.999 . S
C6002 H5972 0.950 . S
C6002 C6001 1.524 . S
C6002 C6003 1.415 . S
C6003 H5973 0.950 . S
C6003 C5998 1.363 . S
C6003 C6002 1.415 . S
H6004 C6001 0.999 . S
H6005 C5986 0.913 . S
H6006 C6024 0.951 . S
H6007 C6026 0.951 . S
H6008 C6028 0.950 . S
H6009 C6029 0.950 . S
H6010 C6031 0.950 . S
H6011 C6034 0.950 . S
H6012 C6035 0.950 . S
H6013 C6037 0.950 . S
H6014 C6038 0.950 . S
H6015 C6039 0.951 . S
H6016 C6041 0.951 . S
H6017 C6043 0.950 . S
H6018 C6044 0.950 . S
H6019 C6046 0.950 . S
H6020 C6049 0.950 . S
H6021 C6050 0.950 . S
H6022 C6052 0.950 . S
H6023 C6053 0.950 . S
C6024 H6006 0.951 . S
C6024 C6025 1.366 . S
C6024 C6026 1.388 . S
C6025 C6024 1.366 . S
C6025 C6029 1.385 . S
C6026 H6007 0.951 . S
C6026 C6024 1.388 . S
C6026 C6027 1.366 . S
C6027 C6026 1.366 . S
C6027 C6028 1.414 . S
C6027 C6030 1.499 . S
C6028 H6008 0.950 . S
C6028 C6027 1.414 . S
C6028 C6029 1.374 . S
C6029 H6009 0.950 . S
C6029 C6025 1.385 . S
C6029 C6028 1.374 . S
C6030 C6027 1.499 . S
C6030 C6031 1.373 . S
C6030 C6032 1.389 . S
C6031 H6010 0.950 . S
C6031 C6030 1.373 . S
C6031 C6047 1.377 . S
C6032 C6030 1.389 . S
C6032 C6033 1.524 . S
C6032 C6046 1.377 . S
C6033 C6032 1.524 . S
C6033 C6034 1.397 . S
C6033 C6038 1.363 . S
C6034 H6011 0.950 . S
C6034 C6033 1.397 . S
C6034 C6035 1.334 . S
C6035 H6012 0.950 . S
C6035 C6034 1.334 . S
C6035 C6036 1.287 . S
C6036 C6035 1.287 . S
C6036 C6037 1.524 . S
C6036 H6055 0.913 . S
C6037 H6013 0.950 . S
C6037 C6036 1.524 . S
C6037 C6038 1.415 . S
C6038 H6014 0.950 . S
C6038 C6033 1.363 . S
C6038 C6037 1.415 . S
C6039 H6015 0.951 . S
C6039 C6040 1.366 . S
C6039 C6041 1.388 . S
C6040 C6039 1.366 . S
C6040 C6044 1.385 . S
C6041 H6016 0.951 . S
C6041 C6039 1.388 . S
C6041 C6042 1.366 . S
C6042 C6041 1.366 . S
C6042 C6043 1.414 . S
C6042 C6045 1.499 . S
C6043 H6017 0.950 . S
C6043 C6042 1.414 . S
C6043 C6044 1.374 . S
C6044 H6018 0.950 . S
C6044 C6040 1.385 . S
C6044 C6043 1.374 . S
C6045 C6042 1.499 . S
C6045 C6046 1.373 . S
C6045 C6047 1.389 . S
C6046 H6019 0.950 . S
C6046 C6032 1.377 . S
C6046 C6045 1.373 . S
C6047 C6031 1.377 . S
C6047 C6045 1.389 . S
C6047 C6048 1.524 . S
C6048 C6047 1.524 . S
C6048 C6049 1.397 . S
C6048 C6053 1.363 . S
C6049 H6020 0.950 . S
C6049 C6048 1.397 . S
C6049 C6050 1.334 . S
C6050 H6021 0.950 . S
C6050 C6049 1.334 . S
C6050 C6051 1.287 . S
C6051 C6050 1.287 . S
C6051 C6052 1.524 . S
C6051 H6054 0.999 . S
C6052 H6022 0.950 . S
C6052 C6051 1.524 . S
C6052 C6053 1.415 . S
C6053 H6023 0.950 . S
C6053 C6048 1.363 . S
C6053 C6052 1.415 . S
H6054 C6051 0.999 . S
H6055 C6036 0.913 . S
H6056 C6074 0.951 . S
H6057 C6076 0.951 . S
H6058 C6078 0.950 . S
H6059 C6079 0.950 . S
H6060 C6081 0.950 . S
H6061 C6084 0.950 . S
H6062 C6085 0.950 . S
H6063 C6087 0.950 . S
H6064 C6088 0.950 . S
H6065 C6089 0.951 . S
H6066 C6091 0.951 . S
H6067 C6093 0.950 . S
H6068 C6094 0.950 . S
H6069 C6096 0.950 . S
H6070 C6099 0.950 . S
H6071 C6100 0.950 . S
H6072 C6102 0.950 . S
H6073 C6103 0.950 . S
C6074 H6056 0.951 . S
C6074 C6075 1.366 . S
C6074 C6076 1.388 . S
C6075 C6074 1.366 . S
C6075 C6079 1.385 . S
C6076 H6057 0.951 . S
C6076 C6074 1.388 . S
C6076 C6077 1.366 . S
C6077 C6076 1.366 . S
C6077 C6078 1.414 . S
C6077 C6080 1.499 . S
C6078 H6058 0.950 . S
C6078 C6077 1.414 . S
C6078 C6079 1.374 . S
C6079 H6059 0.950 . S
C6079 C6075 1.385 . S
C6079 C6078 1.374 . S
C6080 C6077 1.499 . S
C6080 C6081 1.373 . S
C6080 C6082 1.389 . S
C6081 H6060 0.950 . S
C6081 C6080 1.373 . S
C6081 C6097 1.377 . S
C6082 C6080 1.389 . S
C6082 C6083 1.524 . S
C6082 C6096 1.377 . S
C6083 C6082 1.524 . S
C6083 C6084 1.397 . S
C6083 C6088 1.363 . S
C6084 H6061 0.950 . S
C6084 C6083 1.397 . S
C6084 C6085 1.334 . S
C6085 H6062 0.950 . S
C6085 C6084 1.334 . S
C6085 C6086 1.287 . S
C6086 C6085 1.287 . S
C6086 C6087 1.524 . S
C6086 H6105 0.913 . S
C6087 H6063 0.950 . S
C6087 C6086 1.524 . S
C6087 C6088 1.415 . S
C6088 H6064 0.950 . S
C6088 C6083 1.363 . S
C6088 C6087 1.415 . S
C6089 H6065 0.951 . S
C6089 C6090 1.366 . S
C6089 C6091 1.388 . S
C6090 C6089 1.366 . S
C6090 C6094 1.385 . S
C6091 H6066 0.951 . S
C6091 C6089 1.388 . S
C6091 C6092 1.366 . S
C6092 C6091 1.366 . S
C6092 C6093 1.414 . S
C6092 C6095 1.499 . S
C6093 H6067 0.950 . S
C6093 C6092 1.414 . S
C6093 C6094 1.374 . S
C6094 H6068 0.950 . S
C6094 C6090 1.385 . S
C6094 C6093 1.374 . S
C6095 C6092 1.499 . S
C6095 C6096 1.373 . S
C6095 C6097 1.389 . S
C6096 H6069 0.950 . S
C6096 C6082 1.377 . S
C6096 C6095 1.373 . S
C6097 C6081 1.377 . S
C6097 C6095 1.389 . S
C6097 C6098 1.524 . S
C6098 C6097 1.524 . S
C6098 C6099 1.397 . S
C6098 C6103 1.363 . S
C6099 H6070 0.950 . S
C6099 C6098 1.397 . S
C6099 C6100 1.334 . S
C6100 H6071 0.950 . S
C6100 C6099 1.334 . S
C6100 C6101 1.287 . S
C6101 C6100 1.287 . S
C6101 C6102 1.524 . S
C6101 H6104 0.999 . S
C6102 H6072 0.950 . S
C6102 C6101 1.524 . S
C6102 C6103 1.415 . S
C6103 H6073 0.950 . S
C6103 C6098 1.363 . S
C6103 C6102 1.415 . S
H6104 C6101 0.999 . S
H6105 C6086 0.913 . S
H6106 C6124 0.951 . S
H6107 C6126 0.951 . S
H6108 C6128 0.950 . S
H6109 C6129 0.950 . S
H6110 C6131 0.950 . S
H6111 C6134 0.950 . S
H6112 C6135 0.950 . S
H6113 C6137 0.950 . S
H6114 C6138 0.950 . S
H6115 C6139 0.951 . S
H6116 C6141 0.951 . S
H6117 C6143 0.950 . S
H6118 C6144 0.950 . S
H6119 C6146 0.950 . S
H6120 C6149 0.950 . S
H6121 C6150 0.950 . S
H6122 C6152 0.950 . S
H6123 C6153 0.950 . S
C6124 H6106 0.951 . S
C6124 C6125 1.366 . S
C6124 C6126 1.388 . S
C6125 C6124 1.366 . S
C6125 C6129 1.385 . S
C6126 H6107 0.951 . S
C6126 C6124 1.388 . S
C6126 C6127 1.366 . S
C6127 C6126 1.366 . S
C6127 C6128 1.414 . S
C6127 C6130 1.499 . S
C6128 H6108 0.950 . S
C6128 C6127 1.414 . S
C6128 C6129 1.374 . S
C6129 H6109 0.950 . S
C6129 C6125 1.385 . S
C6129 C6128 1.374 . S
C6130 C6127 1.499 . S
C6130 C6131 1.373 . S
C6130 C6132 1.389 . S
C6131 H6110 0.950 . S
C6131 C6130 1.373 . S
C6131 C6147 1.377 . S
C6132 C6130 1.389 . S
C6132 C6133 1.524 . S
C6132 C6146 1.377 . S
C6133 C6132 1.524 . S
C6133 C6134 1.397 . S
C6133 C6138 1.363 . S
C6134 H6111 0.950 . S
C6134 C6133 1.397 . S
C6134 C6135 1.334 . S
C6135 H6112 0.950 . S
C6135 C6134 1.334 . S
C6135 C6136 1.287 . S
C6136 C6135 1.287 . S
C6136 C6137 1.524 . S
C6136 H6155 0.913 . S
C6137 H6113 0.950 . S
C6137 C6136 1.524 . S
C6137 C6138 1.415 . S
C6138 H6114 0.950 . S
C6138 C6133 1.363 . S
C6138 C6137 1.415 . S
C6139 H6115 0.951 . S
C6139 C6140 1.366 . S
C6139 C6141 1.388 1_545 S
C6140 C6139 1.366 . S
C6140 C6144 1.385 . S
C6141 H6116 0.951 . S
C6141 C6139 1.388 1_565 S
C6141 C6142 1.366 . S
C6142 C6141 1.366 . S
C6142 C6143 1.414 . S
C6142 C6145 1.499 . S
C6143 H6117 0.950 . S
C6143 C6142 1.414 . S
C6143 C6144 1.374 1_565 S
C6144 H6118 0.950 . S
C6144 C6140 1.385 . S
C6144 C6143 1.374 1_545 S
C6145 C6142 1.499 . S
C6145 C6146 1.373 . S
C6145 C6147 1.389 . S
C6146 H6119 0.950 . S
C6146 C6132 1.377 . S
C6146 C6145 1.373 . S
C6147 C6131 1.377 . S
C6147 C6145 1.389 . S
C6147 C6148 1.524 . S
C6148 C6147 1.524 . S
C6148 C6149 1.397 1_565 S
C6148 C6153 1.363 . S
C6149 H6120 0.950 . S
C6149 C6148 1.397 1_545 S
C6149 C6150 1.334 . S
C6150 H6121 0.950 . S
C6150 C6149 1.334 . S
C6150 C6151 1.287 . S
C6151 C6150 1.287 . S
C6151 C6152 1.524 . S
C6151 H6154 0.999 . S
C6152 H6122 0.950 . S
C6152 C6151 1.524 . S
C6152 C6153 1.415 1_545 S
C6153 H6123 0.950 . S
C6153 C6148 1.363 . S
C6153 C6152 1.415 1_565 S
H6154 C6151 0.999 . S
H6155 C6136 0.913 . S
H6156 C6174 0.951 . S
H6157 C6176 0.951 . S
H6158 C6178 0.950 . S
H6159 C6179 0.950 . S
H6160 C6181 0.950 . S
H6161 C6184 0.950 . S
H6162 C6185 0.950 . S
H6163 C6187 0.950 . S
H6164 C6188 0.950 . S
H6165 C6189 0.951 . S
H6166 C6191 0.951 . S
H6167 C6193 0.950 . S
H6168 C6194 0.950 . S
H6169 C6196 0.950 . S
H6170 C6199 0.950 . S
H6171 C6200 0.950 . S
H6172 C6202 0.950 . S
H6173 C6203 0.950 . S
C6174 H6156 0.951 . S
C6174 C6175 1.366 . S
C6174 C6176 1.388 . S
C6175 C6174 1.366 . S
C6175 C6179 1.385 . S
C6176 H6157 0.951 . S
C6176 C6174 1.388 . S
C6176 C6177 1.366 . S
C6177 C6176 1.366 . S
C6177 C6178 1.414 . S
C6177 C6180 1.499 . S
C6178 H6158 0.950 . S
C6178 C6177 1.414 . S
C6178 C6179 1.374 . S
C6179 H6159 0.950 . S
C6179 C6175 1.385 . S
C6179 C6178 1.374 . S
C6180 C6177 1.499 . S
C6180 C6181 1.373 . S
C6180 C6182 1.389 . S
C6181 H6160 0.950 . S
C6181 C6180 1.373 . S
C6181 C6197 1.377 . S
C6182 C6180 1.389 . S
C6182 C6183 1.524 . S
C6182 C6196 1.377 . S
C6183 C6182 1.524 . S
C6183 C6184 1.397 . S
C6183 C6188 1.363 . S
C6184 H6161 0.950 . S
C6184 C6183 1.397 . S
C6184 C6185 1.334 . S
C6185 H6162 0.950 . S
C6185 C6184 1.334 . S
C6185 C6186 1.287 . S
C6186 C6185 1.287 . S
C6186 C6187 1.524 . S
C6186 H6205 0.913 . S
C6187 H6163 0.950 . S
C6187 C6186 1.524 . S
C6187 C6188 1.415 . S
C6188 H6164 0.950 . S
C6188 C6183 1.363 . S
C6188 C6187 1.415 . S
C6189 H6165 0.951 . S
C6189 C6190 1.366 . S
C6189 C6191 1.388 . S
C6190 C6189 1.366 . S
C6190 C6194 1.385 . S
C6191 H6166 0.951 . S
C6191 C6189 1.388 . S
C6191 C6192 1.366 . S
C6192 C6191 1.366 . S
C6192 C6193 1.414 . S
C6192 C6195 1.499 . S
C6193 H6167 0.950 . S
C6193 C6192 1.414 . S
C6193 C6194 1.374 . S
C6194 H6168 0.950 . S
C6194 C6190 1.385 . S
C6194 C6193 1.374 . S
C6195 C6192 1.499 . S
C6195 C6196 1.373 . S
C6195 C6197 1.389 . S
C6196 H6169 0.950 . S
C6196 C6182 1.377 . S
C6196 C6195 1.373 . S
C6197 C6181 1.377 . S
C6197 C6195 1.389 . S
C6197 C6198 1.524 . S
C6198 C6197 1.524 . S
C6198 C6199 1.397 . S
C6198 C6203 1.363 . S
C6199 H6170 0.950 . S
C6199 C6198 1.397 . S
C6199 C6200 1.334 . S
C6200 H6171 0.950 . S
C6200 C6199 1.334 . S
C6200 C6201 1.287 . S
C6201 C6200 1.287 . S
C6201 C6202 1.524 . S
C6201 H6204 0.999 . S
C6202 H6172 0.950 . S
C6202 C6201 1.524 . S
C6202 C6203 1.415 . S
C6203 H6173 0.950 . S
C6203 C6198 1.363 . S
C6203 C6202 1.415 . S
H6204 C6201 0.999 . S
H6205 C6186 0.913 . S
H6206 C6224 0.951 . S
H6207 C6226 0.951 . S
H6208 C6228 0.950 . S
H6209 C6229 0.950 . S
H6210 C6231 0.950 . S
H6211 C6234 0.950 . S
H6212 C6235 0.950 . S
H6213 C6237 0.950 . S
H6214 C6238 0.950 . S
H6215 C6239 0.951 . S
H6216 C6241 0.951 . S
H6217 C6243 0.950 . S
H6218 C6244 0.950 . S
H6219 C6246 0.950 1_556 S
H6220 C6249 0.950 . S
H6221 C6250 0.950 . S
H6222 C6252 0.950 . S
H6223 C6253 0.950 . S
C6224 H6206 0.951 . S
C6224 C6225 1.366 . S
C6224 C6226 1.388 . S
C6225 C6224 1.366 . S
C6225 C6229 1.385 . S
C6226 H6207 0.951 . S
C6226 C6224 1.388 . S
C6226 C6227 1.366 . S
C6227 C6226 1.366 . S
C6227 C6228 1.414 . S
C6227 C6230 1.499 . S
C6228 H6208 0.950 . S
C6228 C6227 1.414 . S
C6228 C6229 1.374 . S
C6229 H6209 0.950 . S
C6229 C6225 1.385 . S
C6229 C6228 1.374 . S
C6230 C6227 1.499 . S
C6230 C6231 1.373 . S
C6230 C6232 1.389 . S
C6231 H6210 0.950 . S
C6231 C6230 1.373 . S
C6231 C6247 1.377 . S
C6232 C6230 1.389 . S
C6232 C6233 1.524 1_554 S
C6232 C6246 1.377 . S
C6233 C6232 1.524 1_556 S
C6233 C6234 1.397 . S
C6233 C6238 1.363 . S
C6234 H6211 0.950 . S
C6234 C6233 1.397 . S
C6234 C6235 1.334 . S
C6235 H6212 0.950 . S
C6235 C6234 1.334 . S
C6235 C6236 1.287 . S
C6236 C6235 1.287 . S
C6236 C6237 1.524 . S
C6236 H6255 0.913 . S
C6237 H6213 0.950 . S
C6237 C6236 1.524 . S
C6237 C6238 1.415 . S
C6238 H6214 0.950 . S
C6238 C6233 1.363 . S
C6238 C6237 1.415 . S
C6239 H6215 0.951 . S
C6239 C6240 1.366 . S
C6239 C6241 1.388 . S
C6240 C6239 1.366 . S
C6240 C6244 1.385 . S
C6241 H6216 0.951 . S
C6241 C6239 1.388 . S
C6241 C6242 1.366 . S
C6242 C6241 1.366 . S
C6242 C6243 1.414 . S
C6242 C6245 1.499 . S
C6243 H6217 0.950 . S
C6243 C6242 1.414 . S
C6243 C6244 1.374 . S
C6244 H6218 0.950 . S
C6244 C6240 1.385 . S
C6244 C6243 1.374 . S
C6245 C6242 1.499 . S
C6245 C6246 1.373 . S
C6245 C6247 1.389 . S
C6246 H6219 0.950 1_554 S
C6246 C6232 1.377 . S
C6246 C6245 1.373 . S
C6247 C6231 1.377 . S
C6247 C6245 1.389 . S
C6247 C6248 1.524 . S
C6248 C6247 1.524 . S
C6248 C6249 1.397 . S
C6248 C6253 1.363 . S
C6249 H6220 0.950 . S
C6249 C6248 1.397 . S
C6249 C6250 1.334 . S
C6250 H6221 0.950 . S
C6250 C6249 1.334 . S
C6250 C6251 1.287 . S
C6251 C6250 1.287 . S
C6251 C6252 1.524 . S
C6251 H6254 0.999 . S
C6252 H6222 0.950 . S
C6252 C6251 1.524 . S
C6252 C6253 1.415 . S
C6253 H6223 0.950 . S
C6253 C6248 1.363 . S
C6253 C6252 1.415 . S
H6254 C6251 0.999 . S
H6255 C6236 0.913 . S
H6256 C6274 0.951 . S
H6257 C6276 0.951 . S
H6258 C6278 0.950 . S
H6259 C6279 0.950 . S
H6260 C6281 0.950 . S
H6261 C6284 0.950 . S
H6262 C6285 0.950 . S
H6263 C6287 0.950 . S
H6264 C6288 0.950 . S
H6265 C6289 0.951 . S
H6266 C6291 0.951 . S
H6267 C6293 0.950 . S
H6268 C6294 0.950 . S
H6269 C6296 0.950 . S
H6270 C6299 0.950 . S
H6271 C6300 0.950 . S
H6272 C6302 0.950 . S
H6273 C6303 0.950 . S
C6274 H6256 0.951 . S
C6274 C6275 1.366 . S
C6274 C6276 1.388 . S
C6275 C6274 1.366 . S
C6275 C6279 1.385 . S
C6276 H6257 0.951 . S
C6276 C6274 1.388 . S
C6276 C6277 1.366 . S
C6277 C6276 1.366 . S
C6277 C6278 1.414 . S
C6277 C6280 1.499 . S
C6278 H6258 0.950 . S
C6278 C6277 1.414 . S
C6278 C6279 1.374 . S
C6279 H6259 0.950 . S
C6279 C6275 1.385 . S
C6279 C6278 1.374 . S
C6280 C6277 1.499 . S
C6280 C6281 1.373 . S
C6280 C6282 1.389 . S
C6281 H6260 0.950 . S
C6281 C6280 1.373 . S
C6281 C6297 1.377 . S
C6282 C6280 1.389 . S
C6282 C6283 1.524 . S
C6282 C6296 1.377 . S
C6283 C6282 1.524 . S
C6283 C6284 1.397 . S
C6283 C6288 1.363 . S
C6284 H6261 0.950 . S
C6284 C6283 1.397 . S
C6284 C6285 1.334 . S
C6285 H6262 0.950 . S
C6285 C6284 1.334 . S
C6285 C6286 1.287 . S
C6286 C6285 1.287 . S
C6286 C6287 1.524 . S
C6286 H6305 0.913 . S
C6287 H6263 0.950 . S
C6287 C6286 1.524 . S
C6287 C6288 1.415 . S
C6288 H6264 0.950 . S
C6288 C6283 1.363 . S
C6288 C6287 1.415 . S
C6289 H6265 0.951 . S
C6289 C6290 1.366 . S
C6289 C6291 1.388 . S
C6290 C6289 1.366 . S
C6290 C6294 1.385 . S
C6291 H6266 0.951 . S
C6291 C6289 1.388 . S
C6291 C6292 1.366 . S
C6292 C6291 1.366 . S
C6292 C6293 1.414 . S
C6292 C6295 1.499 . S
C6293 H6267 0.950 . S
C6293 C6292 1.414 . S
C6293 C6294 1.374 . S
C6294 H6268 0.950 . S
C6294 C6290 1.385 . S
C6294 C6293 1.374 . S
C6295 C6292 1.499 . S
C6295 C6296 1.373 . S
C6295 C6297 1.389 . S
C6296 H6269 0.950 . S
C6296 C6282 1.377 . S
C6296 C6295 1.373 . S
C6297 C6281 1.377 . S
C6297 C6295 1.389 . S
C6297 C6298 1.524 . S
C6298 C6297 1.524 . S
C6298 C6299 1.397 . S
C6298 C6303 1.363 . S
C6299 H6270 0.950 . S
C6299 C6298 1.397 . S
C6299 C6300 1.334 . S
C6300 H6271 0.950 . S
C6300 C6299 1.334 . S
C6300 C6301 1.287 . S
C6301 C6300 1.287 . S
C6301 C6302 1.524 . S
C6301 H6304 0.999 . S
C6302 H6272 0.950 . S
C6302 C6301 1.524 . S
C6302 C6303 1.415 . S
C6303 H6273 0.950 . S
C6303 C6298 1.363 . S
C6303 C6302 1.415 . S
H6304 C6301 0.999 . S
H6305 C6286 0.913 . S
H6306 C6324 0.951 . S
H6307 C6326 0.951 . S
H6308 C6328 0.950 . S
H6309 C6329 0.950 . S
H6310 C6331 0.950 . S
H6311 C6334 0.950 . S
H6312 C6335 0.950 . S
H6313 C6337 0.950 . S
H6314 C6338 0.950 . S
H6315 C6339 0.951 . S
H6316 C6341 0.951 . S
H6317 C6343 0.948 . S
H6318 C6344 0.950 . S
H6319 C6346 0.950 . S
H6320 C6349 0.950 . S
H6321 C6350 0.950 . S
H6322 C6352 0.950 . S
H6323 C6353 0.950 . S
C6324 H6306 0.951 . S
C6324 C6325 1.366 . S
C6324 C6326 1.388 . S
C6325 C6324 1.366 . S
C6325 C6329 1.385 . S
C6326 H6307 0.951 . S
C6326 C6324 1.388 . S
C6326 C6327 1.366 . S
C6327 C6326 1.366 . S
C6327 C6328 1.414 . S
C6327 C6330 1.499 . S
C6328 H6308 0.950 . S
C6328 C6327 1.414 . S
C6328 C6329 1.374 . S
C6329 H6309 0.950 . S
C6329 C6325 1.385 . S
C6329 C6328 1.374 . S
C6330 C6327 1.499 . S
C6330 C6331 1.373 . S
C6330 C6332 1.389 . S
C6331 H6310 0.950 . S
C6331 C6330 1.373 . S
C6331 C6347 1.377 . S
C6332 C6330 1.389 . S
C6332 C6333 1.524 . S
C6332 C6346 1.377 . S
C6333 C6332 1.524 . S
C6333 C6334 1.397 . S
C6333 C6338 1.363 . S
C6334 H6311 0.950 . S
C6334 C6333 1.397 . S
C6334 C6335 1.334 . S
C6335 H6312 0.950 . S
C6335 C6334 1.334 . S
C6335 C6336 1.287 . S
C6336 C6335 1.287 . S
C6336 C6337 1.524 . S
C6336 H6355 0.913 . S
C6337 H6313 0.950 . S
C6337 C6336 1.524 . S
C6337 C6338 1.415 . S
C6338 H6314 0.950 . S
C6338 C6333 1.363 . S
C6338 C6337 1.415 . S
C6339 H6315 0.951 . S
C6339 C6340 1.366 . S
C6339 C6341 1.388 . S
C6340 C6339 1.366 . S
C6340 C6344 1.385 1_554 S
C6341 H6316 0.951 . S
C6341 C6339 1.388 . S
C6341 C6342 1.366 . S
C6342 C6341 1.366 . S
C6342 C6343 1.417 1_554 S
C6342 C6345 1.499 . S
C6343 H6317 0.948 . S
C6343 C6342 1.417 1_556 S
C6343 C6344 1.373 . S
C6344 H6318 0.950 . S
C6344 C6340 1.385 1_556 S
C6344 C6343 1.373 . S
C6345 C6342 1.499 . S
C6345 C6346 1.373 . S
C6345 C6347 1.389 . S
C6346 H6319 0.950 . S
C6346 C6332 1.377 . S
C6346 C6345 1.373 . S
C6347 C6331 1.377 . S
C6347 C6345 1.389 . S
C6347 C6348 1.524 . S
C6348 C6347 1.524 . S
C6348 C6349 1.397 1_554 S
C6348 C6353 1.363 . S
C6349 H6320 0.950 . S
C6349 C6348 1.397 1_556 S
C6349 C6350 1.334 . S
C6350 H6321 0.950 . S
C6350 C6349 1.334 . S
C6350 C6351 1.287 . S
C6351 C6350 1.287 . S
C6351 C6352 1.524 1_556 S
C6351 H6354 0.999 . S
C6352 H6322 0.950 . S
C6352 C6351 1.524 1_554 S
C6352 C6353 1.415 . S
C6353 H6323 0.950 . S
C6353 C6348 1.363 . S
C6353 C6352 1.415 . S
H6354 C6351 0.999 . S
H6355 C6336 0.913 . S
H6356 C6374 0.951 . S
H6357 C6376 0.951 . S
H6358 C6378 0.950 . S
H6359 C6379 0.950 . S
H6360 C6381 0.950 . S
H6361 C6384 0.950 . S
H6362 C6385 0.950 . S
H6363 C6387 0.950 . S
H6364 C6388 0.950 . S
H6365 C6389 0.951 . S
H6366 C6391 0.951 . S
H6367 C6393 0.950 . S
H6368 C6394 0.950 . S
H6369 C6396 0.950 . S
H6370 C6399 0.950 . S
H6371 C6400 0.950 . S
H6372 C6402 0.950 . S
H6373 C6403 0.950 . S
C6374 H6356 0.951 . S
C6374 C6375 1.366 . S
C6374 C6376 1.388 1_545 S
C6375 C6374 1.366 . S
C6375 C6379 1.385 1_545 S
C6376 H6357 0.951 . S
C6376 C6374 1.388 1_565 S
C6376 C6377 1.366 . S
C6377 C6376 1.366 . S
C6377 C6378 1.414 . S
C6377 C6380 1.499 . S
C6378 H6358 0.950 . S
C6378 C6377 1.414 . S
C6378 C6379 1.374 . S
C6379 H6359 0.950 . S
C6379 C6375 1.385 1_565 S
C6379 C6378 1.374 . S
C6380 C6377 1.499 . S
C6380 C6381 1.373 . S
C6380 C6382 1.389 . S
C6381 H6360 0.950 . S
C6381 C6380 1.373 . S
C6381 C6397 1.377 . S
C6382 C6380 1.389 . S
C6382 C6383 1.524 . S
C6382 C6396 1.377 . S
C6383 C6382 1.524 . S
C6383 C6384 1.397 . S
C6383 C6388 1.363 . S
C6384 H6361 0.950 . S
C6384 C6383 1.397 . S
C6384 C6385 1.334 . S
C6385 H6362 0.950 . S
C6385 C6384 1.334 . S
C6385 C6386 1.287 . S
C6386 C6385 1.287 . S
C6386 C6387 1.524 . S
C6386 H6405 0.913 . S
C6387 H6363 0.950 . S
C6387 C6386 1.524 . S
C6387 C6388 1.415 . S
C6388 H6364 0.950 . S
C6388 C6383 1.363 . S
C6388 C6387 1.415 . S
C6389 H6365 0.951 . S
C6389 C6390 1.366 . S
C6389 C6391 1.388 . S
C6390 C6389 1.366 . S
C6390 C6394 1.385 . S
C6391 H6366 0.951 . S
C6391 C6389 1.388 . S
C6391 C6392 1.366 . S
C6392 C6391 1.366 . S
C6392 C6393 1.414 . S
C6392 C6395 1.499 . S
C6393 H6367 0.950 . S
C6393 C6392 1.414 . S
C6393 C6394 1.374 . S
C6394 H6368 0.950 . S
C6394 C6390 1.385 . S
C6394 C6393 1.374 . S
C6395 C6392 1.499 . S
C6395 C6396 1.373 . S
C6395 C6397 1.389 . S
C6396 H6369 0.950 . S
C6396 C6382 1.377 . S
C6396 C6395 1.373 . S
C6397 C6381 1.377 . S
C6397 C6395 1.389 . S
C6397 C6398 1.524 . S
C6398 C6397 1.524 . S
C6398 C6399 1.397 . S
C6398 C6403 1.363 . S
C6399 H6370 0.950 . S
C6399 C6398 1.397 . S
C6399 C6400 1.334 . S
C6400 H6371 0.950 . S
C6400 C6399 1.334 . S
C6400 C6401 1.287 . S
C6401 C6400 1.287 . S
C6401 C6402 1.524 . S
C6401 H6404 0.999 . S
C6402 H6372 0.950 . S
C6402 C6401 1.524 . S
C6402 C6403 1.415 . S
C6403 H6373 0.950 . S
C6403 C6398 1.363 . S
C6403 C6402 1.415 . S
H6404 C6401 0.999 . S
H6405 C6386 0.913 . S
H6406 C6424 0.951 . S
H6407 C6426 0.951 . S
H6408 C6428 0.950 . S
H6409 C6429 0.950 . S
H6410 C6431 0.950 . S
H6411 C6434 0.950 . S
H6412 C6435 0.950 . S
H6413 C6437 0.950 . S
H6414 C6438 0.950 . S
H6415 C6439 0.951 . S
H6416 C6441 0.951 . S
H6417 C6443 0.950 . S
H6418 C6444 0.950 . S
H6419 C6446 0.950 . S
H6420 C6449 0.950 . S
H6421 C6450 0.950 . S
H6422 C6452 0.950 . S
H6423 C6453 0.950 . S
C6424 H6406 0.951 . S
C6424 C6425 1.366 . S
C6424 C6426 1.388 . S
C6425 C6424 1.366 . S
C6425 C6429 1.385 . S
C6426 H6407 0.951 . S
C6426 C6424 1.388 . S
C6426 C6427 1.366 . S
C6427 C6426 1.366 . S
C6427 C6428 1.414 . S
C6427 C6430 1.499 . S
C6428 H6408 0.950 . S
C6428 C6427 1.414 . S
C6428 C6429 1.374 . S
C6429 H6409 0.950 . S
C6429 C6425 1.385 . S
C6429 C6428 1.374 . S
C6430 C6427 1.499 . S
C6430 C6431 1.373 . S
C6430 C6432 1.389 . S
C6431 H6410 0.950 . S
C6431 C6430 1.373 . S
C6431 C6447 1.377 . S
C6432 C6430 1.389 . S
C6432 C6433 1.524 . S
C6432 C6446 1.377 . S
C6433 C6432 1.524 . S
C6433 C6434 1.397 . S
C6433 C6438 1.363 . S
C6434 H6411 0.950 . S
C6434 C6433 1.397 . S
C6434 C6435 1.334 . S
C6435 H6412 0.950 . S
C6435 C6434 1.334 . S
C6435 C6436 1.287 . S
C6436 C6435 1.287 . S
C6436 C6437 1.524 . S
C6436 H6455 0.913 . S
C6437 H6413 0.950 . S
C6437 C6436 1.524 . S
C6437 C6438 1.415 . S
C6438 H6414 0.950 . S
C6438 C6433 1.363 . S
C6438 C6437 1.415 . S
C6439 H6415 0.951 . S
C6439 C6440 1.366 . S
C6439 C6441 1.388 . S
C6440 C6439 1.366 . S
C6440 C6444 1.385 . S
C6441 H6416 0.951 . S
C6441 C6439 1.388 . S
C6441 C6442 1.366 . S
C6442 C6441 1.366 . S
C6442 C6443 1.414 . S
C6442 C6445 1.499 . S
C6443 H6417 0.950 . S
C6443 C6442 1.414 . S
C6443 C6444 1.374 . S
C6444 H6418 0.950 . S
C6444 C6440 1.385 . S
C6444 C6443 1.374 . S
C6445 C6442 1.499 . S
C6445 C6446 1.373 . S
C6445 C6447 1.389 . S
C6446 H6419 0.950 . S
C6446 C6432 1.377 . S
C6446 C6445 1.373 . S
C6447 C6431 1.377 . S
C6447 C6445 1.389 . S
C6447 C6448 1.524 . S
C6448 C6447 1.524 . S
C6448 C6449 1.397 . S
C6448 C6453 1.363 . S
C6449 H6420 0.950 . S
C6449 C6448 1.397 . S
C6449 C6450 1.334 . S
C6450 H6421 0.950 . S
C6450 C6449 1.334 . S
C6450 C6451 1.287 . S
C6451 C6450 1.287 . S
C6451 C6452 1.524 . S
C6451 H6454 0.999 . S
C6452 H6422 0.950 . S
C6452 C6451 1.524 . S
C6452 C6453 1.415 . S
C6453 H6423 0.950 . S
C6453 C6448 1.363 . S
C6453 C6452 1.415 . S
H6454 C6451 0.999 . S
H6455 C6436 0.913 . S
C1675 C101 1.648 . S
C1690 C379 1.545 . S
C1725 C57 2.157 . S
C1740 C462 2.139 . S
C1775 C73 1.493 . S
C1790 C547 1.484 1_565 S
C1840 C627 1.535 . S
C1825 C78 1.642 . S
C1875 C21 1.590 . S
C1890 C711 1.551 . S
C1940 C804 0.913 . S
C1925 C31 0.957 . S
C1990 C882 0.718 . S
C1975 C49 0.719 . S
C2025 C0 1.181 . S
C2040 C967 1.136 . S
C2090 C378 1.942 . S
C2075 C218 2.038 . S
C2125 C229 0.588 . S
C2140 C459 0.637 . S
C2190 C546 1.153 . S
C2175 C257 1.185 . S
C2240 C631 1.503 . S
C2225 C164 1.515 1_556 S
C2275 C216 1.889 . S
C2290 C715 1.860 . S
C2340 C807 1.073 . S
C2325 C231 1.138 . S
C2390 C879 0.745 . S
C2375 C255 0.746 . S
C2440 C966 1.322 . S
C2425 C166 1.415 . S
C2490 C375 1.377 . S
C2475 C143 1.442 . S
C2525 C265 2.011 . S
C2540 C1050 1.975 . S
C2590 C1124 2.071 . S
C2575 C299 2.215 . S
C2640 C1219 0.488 . S
C2625 C291 0.438 . S
C2675 C104 0.597 . S
C2690 C963 0.591 . S
C2725 C117 1.358 . S
C2740 C543 1.337 . S
C2775 C304 2.271 . S
C2790 C1302 2.235 . S
C2840 C1387 0.632 . S
C2825 C278 0.608 . S
C2890 C368 1.468 1_565 S
C2875 C60 1.577 . S
C2940 C1395 2.050 . S
C2925 C96 2.115 . S
C2975 C88 1.450 . S
C2990 C536 1.364 . S
C3025 C65 1.574 . S
C3040 C1308 1.458 . S
C3090 C720 1.493 . S
C3075 C10 1.569 . S
C3125 C44 0.879 . S
C3140 C1131 0.855 . S
C3190 C891 0.586 . S
C3175 C34 0.625 . S
C3240 C1460 1.057 . S
C3225 C13 1.178 . S
C3290 C387 1.849 . S
C3275 C138 1.892 . S
C3340 C1392 0.582 . S
C3325 C296 0.500 . S
C3375 C112 1.100 . S
C3390 C555 1.088 . S
C3425 C270 1.488 . S
C3440 C1292 1.383 . S
C3475 C140 1.906 . S
C3490 C704 1.764 . S
C3540 C1134 1.003 . S
C3525 C294 1.051 . S
C3575 C114 0.654 . S
C3590 C888 0.685 . S
C3625 C268 1.279 . S
C3640 C1479 1.216 . S
C3675 C169 1.415 . S
C3690 C384 1.343 1_554 S
C3725 C161 1.949 . S
C3740 C1059 1.892 . S
C3775 C234 2.145 . S
C3790 C799 1.990 . S
C3825 C226 0.395 . S
C3840 C1208 0.491 . S
C3890 C1476 0.568 . S
C3875 C247 0.534 . S
C3925 C195 1.366 . S
C3940 C552 1.302 . S
C3990 C639 2.138 . S
C3975 C239 2.187 . S
C4040 C452 0.588 . S
C4025 C187 0.517 . S
C4075 C75 1.648 . S
C4090 C1555 1.544 . S
C4140 C1386 2.140 . S
C4125 C83 2.157 . S
C4175 C99 1.493 . S
C4190 C1639 1.485 . S
C4225 C52 1.642 . S
C4240 C1299 1.535 . S
C4275 C47 1.591 . S
C4290 C1047 1.550 . S
C4340 C1140 0.912 . S
C4325 C5 0.957 . S
C4390 C1218 0.717 . S
C4375 C23 0.719 . S
C4440 C1471 1.134 . S
C4425 C26 1.179 . S
C4490 C1554 1.943 . S
C4475 C244 2.038 . S
C4525 C177 0.589 . S
C4540 C1383 0.636 . S
C4590 C1638 1.154 . S
C4575 C192 1.185 . S
C4640 C1303 1.503 . S
C4625 C203 1.515 . S
C4690 C1051 1.860 . S
C4675 C242 1.888 . S
C4725 C179 1.137 . S
C4740 C1143 1.072 . S
C4790 C1215 0.745 . S
C4775 C190 0.746 . S
C4825 C205 1.415 . S
C4840 C1470 1.321 . S
C4890 C1551 1.375 . S
C4875 C286 1.443 . S
C4925 C122 2.011 . S
C4940 C714 1.978 . S
C4990 C788 2.071 . S
C4975 C130 2.221 . S
C5040 C883 0.485 . S
C5025 C148 0.438 . S
C5090 C1467 0.591 . S
C5075 C273 0.597 . S
C5125 C260 1.354 1_556 S
C5140 C1635 1.332 . S
C5190 C630 2.236 . S
C5175 C135 2.265 . S
C5240 C463 0.635 . S
C5225 C109 0.606 . S
C5275 C86 1.577 . S
C5290 C1544 1.468 . S
C5340 C471 2.050 . S
C5325 C70 2.115 . S
C5375 C62 1.451 . S
C5390 C1628 1.363 . S
C5425 C91 1.573 . S
C5440 C636 1.457 . S
C5475 C36 1.568 . S
C5490 C1056 1.493 1_556 S
C5540 C795 0.857 . S
C5525 C18 0.881 . S
C5575 C8 0.623 . S
C5590 C1227 0.578 . S
C5625 C39 1.178 . S
C5640 C956 1.057 . S
C5690 C1563 1.848 . S
C5675 C307 1.891 . S
C5725 C153 0.499 . S
C5740 C468 0.582 . S
C5790 C1647 1.090 . S
C5775 C281 1.099 . S
C5825 C127 1.489 . S
C5840 C620 1.392 . S
C5875 C309 1.906 . S
C5890 C1040 1.765 . S
C5940 C798 1.004 . S
C5925 C151 1.051 . S
C5975 C283 0.654 . S
C5990 C1224 0.683 . S
C6040 C975 1.209 . S
C6025 C125 1.279 . S
C6090 C1560 1.343 . S
C6075 C221 1.415 . S
C6140 C723 1.891 1_655 S
C6125 C200 1.949 . S
C6175 C208 2.145 . S
C6190 C1135 1.989 . S
C6240 C872 0.489 . S
C6225 C174 0.391 . S
C6275 C182 0.534 . S
C6290 C972 0.568 . S
C6325 C156 1.366 . S
C6340 C1644 1.303 1_554 S
C6390 C1311 2.137 . S
C6375 C213 2.186 . S
C6440 C1376 0.586 . S
C6425 C252 0.517 . S
