# Generated by pormake.
# Topology pyr, (3,6)-cn, num edge types: 1
# Building blocks:
#     Node 0, Type 0, BuildingBlock: OLANEW_clean_sbu_2, # of connection points: 3
#     Node 1, Type 0, BuildingBlock: OLANEW_clean_sbu_2, # of connection points: 3
#     Node 2, Type 0, BuildingBlock: OLANEW_clean_sbu_2, # of connection points: 3
#     Node 3, Type 0, BuildingBlock: OLANEW_clean_sbu_2, # of connection points: 3
#     Node 4, Type 0, BuildingBlock: OLANEW_clean_sbu_2, # of connection points: 3
#     Node 5, Type 0, BuildingBlock: OLANEW_clean_sbu_2, # of connection points: 3
#     Node 6, Type 0, BuildingBlock: OLANEW_clean_sbu_2, # of connection points: 3
#     Node 7, Type 0, BuildingBlock: OLANEW_clean_sbu_2, # of connection points: 3
#     Node 8, Type 1, BuildingBlock: VOLQOD_clean_sbu_1, # of connection points: 6
#     Node 9, Type 1, BuildingBlock: VOLQOD_clean_sbu_1, # of connection points: 6
#     Node 10, Type 1, BuildingBlock: VOLQOD_clean_sbu_1, # of connection points: 6
#     Node 11, Type 1, BuildingBlock: VOLQOD_clean_sbu_1, # of connection points: 6
#     Edge 12, Type (0, 1), BuildingBlock: XIVTED_clean_linker_0, # of connection points: 2
#     Edge 13, Type (0, 1), BuildingBlock: XIVTED_clean_linker_0, # of connection points: 2
#     Edge 14, Type (0, 1), BuildingBlock: XIVTED_clean_linker_0, # of connection points: 2
#     Edge 15, Type (0, 1), BuildingBlock: XIVTED_clean_linker_0, # of connection points: 2
#     Edge 16, Type (0, 1), BuildingBlock: XIVTED_clean_linker_0, # of connection points: 2
#     Edge 17, Type (0, 1), BuildingBlock: XIVTED_clean_linker_0, # of connection points: 2
#     Edge 18, Type (0, 1), BuildingBlock: XIVTED_clean_linker_0, # of connection points: 2
#     Edge 19, Type (0, 1), BuildingBlock: XIVTED_clean_linker_0, # of connection points: 2
#     Edge 20, Type (0, 1), BuildingBlock: XIVTED_clean_linker_0, # of connection points: 2
#     Edge 21, Type (0, 1), BuildingBlock: XIVTED_clean_linker_0, # of connection points: 2
#     Edge 22, Type (0, 1), BuildingBlock: XIVTED_clean_linker_0, # of connection points: 2
#     Edge 23, Type (0, 1), BuildingBlock: XIVTED_clean_linker_0, # of connection points: 2
#     Edge 24, Type (0, 1), BuildingBlock: XIVTED_clean_linker_0, # of connection points: 2
#     Edge 25, Type (0, 1), BuildingBlock: XIVTED_clean_linker_0, # of connection points: 2
#     Edge 26, Type (0, 1), BuildingBlock: XIVTED_clean_linker_0, # of connection points: 2
#     Edge 27, Type (0, 1), BuildingBlock: XIVTED_clean_linker_0, # of connection points: 2
#     Edge 28, Type (0, 1), BuildingBlock: XIVTED_clean_linker_0, # of connection points: 2
#     Edge 29, Type (0, 1), BuildingBlock: XIVTED_clean_linker_0, # of connection points: 2
#     Edge 30, Type (0, 1), BuildingBlock: XIVTED_clean_linker_0, # of connection points: 2
#     Edge 31, Type (0, 1), BuildingBlock: XIVTED_clean_linker_0, # of connection points: 2
#     Edge 32, Type (0, 1), BuildingBlock: XIVTED_clean_linker_0, # of connection points: 2
#     Edge 33, Type (0, 1), BuildingBlock: XIVTED_clean_linker_0, # of connection points: 2
#     Edge 34, Type (0, 1), BuildingBlock: XIVTED_clean_linker_0, # of connection points: 2
#     Edge 35, Type (0, 1), BuildingBlock: XIVTED_clean_linker_0, # of connection points: 2
# Relax obj value: 0.091
# Max RMSD: 0.153
# Mean RMSD: 0.134
data_MOF--net-pry--node1-OLANEW_clean_sbu_2--node2-VOLQOD_clean_sbu_1--edge1-XIVTED_clean_linker_0
_symmetry_space_group_name_H-M    P1
_symmetry_Int_Tables_number       1
_symmetry_cell_setting            triclinic
loop_
_symmetry_equiv_pos_as_xyz
'x, y, z'
_cell_length_a     39.333072
_cell_length_b     39.559844
_cell_length_c     38.945411
_cell_angle_alpha  94.573979
_cell_angle_beta   89.354356
_cell_angle_gamma 95.268039
loop_
_atom_site_label
_atom_site_type_symbol
_atom_site_fract_x
_atom_site_fract_y
_atom_site_fract_z
_atom_type_partial_charge
O0 O 0.17476 0.12741 0.11079 0.0
Cd1 Cd 0.11632 0.14222 0.12209 0.0
O2 O 0.17553 0.10153 0.15876 0.0
Cd3 Cd 0.12778 0.11545 0.18231 0.0
O4 O 0.10235 0.11086 0.232 0.0
C5 C 0.08783 0.0819 0.23806 0.0
O6 O 0.08606 0.05727 0.21325 0.0
C7 C 0.18977 0.1097 0.13077 0.0
C8 C 0.101 0.20373 0.09802 0.0
O9 O 0.10942 0.20201 0.1295 0.0
O10 O 0.10047 0.17655 0.07772 0.0
O11 O 0.5061 0.96567 0.70038 0.0
Cd12 Cd 0.49846 0.95167 0.63842 0.0
O13 O 0.45066 0.9554 0.70093 0.0
Cd14 Cd 0.39793 0.95412 0.71936 0.0
O15 O 0.34427 0.95721 0.70671 0.0
C16 C 0.33857 0.97666 0.68334 0.0
O17 O 0.3646 0.99416 0.66967 0.0
C18 C 0.47829 0.9639 0.71732 0.0
C19 C 0.50204 0.88262 0.61933 0.0
O20 O 0.5274 0.90439 0.61416 0.0
O21 O 0.47513 0.89338 0.63355 0.0
O22 O 0.65525 0.50991 0.95642 0.0
Cd23 Cd 0.59414 0.51585 0.952 0.0
O24 O 0.64139 0.46078 0.97703 0.0
Cd25 Cd 0.64808 0.41039 0.9932 0.0
O26 O 0.63262 0.35758 0.00202 0.0
C27 C 0.63799 0.34506 0.03028 0.0
O28 O 0.65475 0.3641 0.05485 0.0
C29 C 0.6644 0.48303 0.96798 0.0
C30 C 0.57483 0.51733 0.8835 0.0
O31 O 0.58527 0.54465 0.90172 0.0
O32 O 0.57325 0.48912 0.89775 0.0
O33 O 0.02937 0.6465 0.44257 0.0
Cd34 Cd 0.02459 0.58504 0.42779 0.0
O35 O 0.98241 0.63356 0.47091 0.0
Cd36 Cd 0.93543 0.64256 0.49911 0.0
O37 O 0.88171 0.63311 0.5129 0.0
C38 C 0.86568 0.60739 0.49681 0.0
O39 O 0.88226 0.58892 0.47387 0.0
C40 C 0.00507 0.65605 0.46163 0.0
C41 C 0.01389 0.56872 0.35765 0.0
O42 O 0.98935 0.57706 0.37753 0.0
O43 O 0.0435 0.56808 0.37085 0.0
O44 O 0.92068 0.91269 0.90945 0.0
Cd45 Cd 0.89692 0.89699 0.9647 0.0
O46 O 0.93786 0.96584 0.92635 0.0
Cd47 Cd 0.91218 0.95995 0.97547 0.0
O48 O 0.86303 0.95547 0.0015 0.0
C49 C 0.85321 0.98068 0.01996 0.0
O50 O 0.87432 0.00827 0.02545 0.0
C51 C 0.93556 0.94141 0.903 0.0
C52 C 0.91377 0.83191 0.97527 0.0
O53 O 0.88642 0.83639 0.95932 0.0
O54 O 0.93278 0.85831 0.98689 0.0
O55 O 0.59336 0.03859 0.42925 0.0
Cd56 Cd 0.61202 0.05234 0.48883 0.0
O57 O 0.56951 0.0865 0.43418 0.0
Cd58 Cd 0.54646 0.13148 0.41933 0.0
O59 O 0.53739 0.18548 0.42577 0.0
C60 C 0.52385 0.19664 0.45373 0.0
O61 O 0.51427 0.1751 0.47674 0.0
C62 C 0.57662 0.06007 0.41571 0.0
C63 C 0.67858 0.03654 0.4997 0.0
O64 O 0.65291 0.0166 0.50833 0.0
O65 O 0.67283 0.06374 0.48583 0.0
O66 O 0.51272 0.66326 0.11652 0.0
Cd67 Cd 0.51315 0.60274 0.12467 0.0
O68 O 0.45719 0.65371 0.114 0.0
Cd69 Cd 0.40477 0.66346 0.10341 0.0
O70 O 0.35139 0.65181 0.08873 0.0
C71 C 0.34415 0.62501 0.06898 0.0
O72 O 0.36893 0.60671 0.05803 0.0
C73 C 0.4838 0.67441 0.1129 0.0
C74 C 0.51199 0.59045 0.1941 0.0
O75 O 0.54028 0.59433 0.17759 0.0
O76 O 0.48423 0.5924 0.17774 0.0
O77 O 0.08526 0.51767 0.64926 0.0
Cd78 Cd 0.10095 0.51633 0.58835 0.0
O79 O 0.09302 0.46353 0.6456 0.0
Cd80 Cd 0.0906 0.41144 0.66093 0.0
O81 O 0.08614 0.3559 0.65722 0.0
C82 C 0.05711 0.33941 0.66014 0.0
O83 O 0.03026 0.35626 0.66707 0.0
C84 C 0.08504 0.48991 0.66359 0.0
C85 C 0.17147 0.51924 0.57899 0.0
O86 O 0.15579 0.54634 0.58067 0.0
O87 O 0.15377 0.49071 0.58172 0.0
O88 O 0.99665 0.0708 0.60197 0.0
Zn89 Zn 0.98112 0.02075 0.59585 0.0
O90 O 0.01304 0.99594 0.5668 0.0
Zn91 Zn 0.98981 0.97554 0.52495 0.0
Zn92 Zn 0.05219 0.02727 0.55459 0.0
Zn93 Zn 0.02883 0.95978 0.59218 0.0
O94 O 0.99231 0.92448 0.51931 0.0
O95 O 0.01732 0.91362 0.56758 0.0
O96 O 0.93384 0.01514 0.57548 0.0
O97 O 0.94022 0.98523 0.52539 0.0
O98 O 0.0112 0.99529 0.48317 0.0
O99 O 0.05491 0.03077 0.50296 0.0
O100 O 0.09662 0.01276 0.57209 0.0
O101 O 0.97791 0.00419 0.64337 0.0
O102 O 0.07963 0.96655 0.59874 0.0
O103 O 0.00856 0.95966 0.63965 0.0
C104 C 0.02383 0.0883 0.59356 0.0
C105 C 0.00345 0.90355 0.53874 0.0
C106 C 0.03655 0.01673 0.47806 0.0
C107 C 0.92165 0.00087 0.54722 0.0
C108 C 0.1032 0.98832 0.58968 0.0
C109 C 0.98967 0.97939 0.65677 0.0
O110 O 0.04732 0.07465 0.57617 0.0
O111 O 0.51473 0.09287 0.04405 0.0
Zn112 Zn 0.49042 0.04552 0.04028 0.0
O113 O 0.51252 0.01495 0.06836 0.0
Zn114 Zn 0.53 0.97889 0.03775 0.0
Zn115 Zn 0.55053 0.04069 0.09301 0.0
Zn116 Zn 0.4803 0.99523 0.10217 0.0
O117 O 0.51251 0.93355 0.05287 0.0
O118 O 0.47651 0.9432 0.09615 0.0
O119 O 0.48973 0.02878 0.98984 0.0
O120 O 0.51496 0.9807 0.98852 0.0
O121 O 0.58163 0.98088 0.03905 0.0
O122 O 0.59481 0.0226 0.07946 0.0
O123 O 0.54583 0.03865 0.14392 0.0
O124 O 0.44181 0.04881 0.05598 0.0
O125 O 0.49588 0.00918 0.15153 0.0
O126 O 0.434 0.01262 0.09686 0.0
C127 C 0.53966 0.10667 0.06235 0.0
C128 C 0.4917 0.92268 0.0756 0.0
C129 C 0.60365 0.99936 0.05766 0.0
C130 C 0.49979 0.00238 0.97337 0.0
C131 C 0.52296 0.0259 0.16364 0.0
C132 C 0.4228 0.03418 0.07814 0.0
O133 O 0.55502 0.08971 0.08276 0.0
O134 O 0.54563 0.55486 0.61789 0.0
Zn135 Zn 0.54892 0.57057 0.57055 0.0
O136 O 0.51961 0.54069 0.53892 0.0
Zn137 Zn 0.54781 0.51904 0.50349 0.0
Zn138 Zn 0.49413 0.50548 0.56454 0.0
Zn139 Zn 0.48838 0.56838 0.51712 0.0
O140 O 0.53671 0.53267 0.45654 0.0
O141 O 0.49369 0.56496 0.46539 0.0
O142 O 0.59821 0.57167 0.55597 0.0
O143 O 0.59786 0.53313 0.51129 0.0
O144 O 0.53972 0.4679 0.50189 0.0
O145 O 0.50204 0.4582 0.54367 0.0
O146 O 0.44342 0.51044 0.56243 0.0
O147 O 0.53558 0.61848 0.57429 0.0
O148 O 0.43983 0.55306 0.52908 0.0
O149 O 0.49629 0.61829 0.53377 0.0
C150 C 0.52894 0.5307 0.63219 0.0
C151 C 0.51452 0.55041 0.44517 0.0
C152 C 0.5208 0.44736 0.51901 0.0
C153 C 0.61391 0.55492 0.53251 0.0
C154 C 0.42577 0.53027 0.5473 0.0
C155 C 0.51508 0.6339 0.55748 0.0
O156 O 0.50821 0.5092 0.61507 0.0
O157 O 0.98084 0.49778 0.08731 0.0
Zn158 Zn 0.98016 0.47944 0.03728 0.0
O159 O 0.00828 0.51021 0.00887 0.0
Zn160 Zn 0.98084 0.52368 0.97187 0.0
Zn161 Zn 0.02475 0.55131 0.03725 0.0
Zn162 Zn 0.04712 0.48742 0.9888 0.0
O163 O 0.00088 0.51138 0.92545 0.0
O164 O 0.04608 0.48439 0.93656 0.0
O165 O 0.93069 0.4725 0.02072 0.0
O166 O 0.93345 0.50115 0.97384 0.0
O167 O 0.97599 0.5741 0.97573 0.0
O168 O 0.00652 0.5933 0.02185 0.0
O169 O 0.0758 0.55845 0.03584 0.0
O170 O 0.00018 0.43428 0.037 0.0
O171 O 0.09189 0.51385 0.00351 0.0
O172 O 0.04704 0.43988 0.00469 0.0
C173 C 0.99392 0.52542 0.10277 0.0
C174 C 0.02642 0.49567 0.9152 0.0
C175 C 0.98743 0.59846 0.99701 0.0
C176 C 0.91657 0.48258 0.99448 0.0
C177 C 0.09912 0.54168 0.02187 0.0
C178 C 0.02682 0.42243 0.02372 0.0
O179 O 0.0109 0.54811 0.08664 0.0
H180 H 0.10072 0.12205 0.29807 0.0
H181 H 0.00965 0.98543 0.41799 0.0
H182 H 0.05125 0.02493 0.25883 0.0
H183 H 0.07948 0.07002 0.45704 0.0
H184 H 0.01997 0.00259 0.35975 0.0
H185 H 0.08768 0.10682 0.35677 0.0
C186 C 0.0868 0.09768 0.30176 0.0
C187 C 0.07717 0.07465 0.27348 0.0
C188 C 0.03309 0.01737 0.38104 0.0
C189 C 0.06235 0.05706 0.34055 0.0
C190 C 0.02723 0.00759 0.41435 0.0
C191 C 0.0438 0.02626 0.44252 0.0
C192 C 0.05548 0.04622 0.37573 0.0
C193 C 0.06629 0.05476 0.43611 0.0
C194 C 0.07958 0.08893 0.33528 0.0
C195 C 0.0593 0.0434 0.27984 0.0
N196 N 0.07138 0.06394 0.40339 0.0
N197 N 0.05252 0.03551 0.31269 0.0
H198 H 0.51866 0.01308 0.75423 0.0
H199 H 0.48672 0.94194 0.93467 0.0
H200 H 0.43911 0.9322 0.76584 0.0
H201 H 0.50004 0.05051 0.9268 0.0
H202 H 0.47822 0.93363 0.87201 0.0
H203 H 0.52137 0.02369 0.8172 0.0
C204 C 0.50167 0.99771 0.77009 0.0
C205 C 0.47848 0.97189 0.75498 0.0
C206 C 0.48284 0.95922 0.88415 0.0
C207 C 0.48216 0.98321 0.8266 0.0
C208 C 0.48789 0.96398 0.91973 0.0
C209 C 0.49406 0.99696 0.93582 0.0
C210 C 0.48508 0.98757 0.86451 0.0
C211 C 0.49517 0.02469 0.91535 0.0
C212 C 0.50316 0.00383 0.80586 0.0
C213 C 0.45705 0.95259 0.77658 0.0
N214 N 0.49122 0.01936 0.88063 0.0
N215 N 0.45977 0.95828 0.81142 0.0
H216 H 0.54792 0.46486 0.83847 0.0
H217 H 0.56118 0.5786 0.67769 0.0
H218 H 0.5808 0.57233 0.84506 0.0
H219 H 0.50808 0.4778 0.67205 0.0
H220 H 0.57049 0.57508 0.73873 0.0
H221 H 0.53478 0.46752 0.77737 0.0
C222 C 0.55229 0.48901 0.82713 0.0
C223 C 0.56559 0.51841 0.8469 0.0
C224 C 0.5567 0.55371 0.72428 0.0
C225 C 0.55078 0.52154 0.77714 0.0
C226 C 0.55145 0.55563 0.68927 0.0
C227 C 0.53388 0.52838 0.66956 0.0
C228 C 0.54459 0.52421 0.73998 0.0
C229 C 0.52173 0.49941 0.68623 0.0
C230 C 0.54472 0.4905 0.7923 0.0
C231 C 0.57065 0.54901 0.83088 0.0
N232 N 0.52748 0.498 0.72051 0.0
N233 N 0.5634 0.54971 0.79697 0.0
H234 H 0.04675 0.52449 0.31463 0.0
H235 H 0.98652 0.58478 0.14153 0.0
H236 H 0.96842 0.59413 0.31638 0.0
H237 H 0.99674 0.47808 0.14963 0.0
H238 H 0.98796 0.59389 0.20466 0.0
H239 H 0.03766 0.5118 0.25245 0.0
C240 C 0.02768 0.53708 0.30188 0.0
C241 C 0.00828 0.56036 0.32049 0.0
C242 C 0.98951 0.56847 0.19251 0.0
C243 C 0.99832 0.5465 0.2498 0.0
C244 C 0.98878 0.56327 0.15666 0.0
C245 C 0.9914 0.53062 0.14055 0.0
C246 C 0.99406 0.54105 0.21215 0.0
C247 C 0.99437 0.50357 0.16119 0.0
C248 C 0.02239 0.52968 0.26661 0.0
C249 C 0.98377 0.57591 0.30288 0.0
N250 N 0.99624 0.50947 0.19603 0.0
N251 N 0.97981 0.5691 0.26831 0.0
H252 H 0.22527 0.06729 0.16556 0.0
H253 H 0.38892 0.07763 0.0421 0.0
H254 H 0.2315 0.12479 0.07562 0.0
H255 H 0.37592 0.01259 0.12614 0.0
H256 H 0.33166 0.09534 0.05342 0.0
H257 H 0.28079 0.04762 0.15123 0.0
C258 C 0.23831 0.07585 0.14275 0.0
C259 C 0.22363 0.09785 0.1218 0.0
C260 C 0.3413 0.07708 0.06925 0.0
C261 C 0.28761 0.07521 0.10518 0.0
C262 C 0.37402 0.06692 0.06282 0.0
C263 C 0.3874 0.04364 0.08329 0.0
C264 C 0.32185 0.064 0.09643 0.0
C265 C 0.36679 0.03061 0.10971 0.0
C266 C 0.27008 0.06448 0.13453 0.0
C267 C 0.24183 0.10788 0.09251 0.0
N268 N 0.33518 0.0411 0.11559 0.0
N269 N 0.27296 0.09656 0.08512 0.0
H270 H 0.27942 0.93954 0.701 0.0
H271 H 0.1614 0.02892 0.57537 0.0
H272 H 0.318 0.01784 0.63587 0.0
H273 H 0.12563 0.94279 0.63176 0.0
H274 H 0.21868 0.0263 0.59825 0.0
H275 H 0.22237 0.94185 0.67746 0.0
C276 C 0.27589 0.9573 0.68186 0.0
C277 C 0.30357 0.9785 0.67039 0.0
C278 C 0.1983 0.00791 0.6055 0.0
C279 C 0.23832 0.98123 0.64323 0.0
C280 C 0.16557 0.00936 0.5924 0.0
C281 C 0.13856 0.98606 0.60162 0.0
C282 C 0.20408 0.9831 0.62814 0.0
C283 C 0.14559 0.96129 0.62386 0.0
C284 C 0.24332 0.95854 0.66833 0.0
C285 C 0.29745 0.00098 0.64545 0.0
N286 N 0.17757 0.96056 0.63642 0.0
N287 N 0.26552 0.00176 0.63274 0.0
H288 H 0.715 0.50693 0.92597 0.0
H289 H 0.8676 0.45372 0.03745 0.0
H290 H 0.69736 0.44847 0.01436 0.0
H291 H 0.88034 0.49528 0.93839 0.0
H292 H 0.80545 0.44922 0.02942 0.0
H293 H 0.77599 0.50156 0.93034 0.0
C294 C 0.724 0.4927 0.94617 0.0
C295 C 0.70106 0.47785 0.96963 0.0
C296 C 0.82197 0.45897 0.00935 0.0
C297 C 0.77109 0.47184 0.97511 0.0
C298 C 0.85743 0.46147 0.01387 0.0
C299 C 0.8793 0.47527 0.98875 0.0
C300 C 0.80839 0.47049 0.9796 0.0
C301 C 0.86462 0.48487 0.9587 0.0
C302 C 0.75884 0.48953 0.94861 0.0
C303 C 0.7141 0.4597 0.99531 0.0
N304 N 0.83021 0.48259 0.95516 0.0
N305 N 0.74835 0.45744 0.99758 0.0
H306 H 0.8242 0.55523 0.46511 0.0
H307 H 0.65671 0.60199 0.57047 0.0
H308 H 0.8234 0.63917 0.54301 0.0
H309 H 0.65678 0.52326 0.48698 0.0
H310 H 0.71826 0.61401 0.5631 0.0
H311 H 0.76338 0.54132 0.47505 0.0
C312 C 0.81126 0.57073 0.48437 0.0
C313 C 0.82893 0.59849 0.5032 0.0
C314 C 0.7048 0.59406 0.54645 0.0
C315 C 0.75916 0.58265 0.51471 0.0
C316 C 0.66964 0.58712 0.55067 0.0
C317 C 0.65144 0.56162 0.52924 0.0
C318 C 0.72198 0.57534 0.52067 0.0
C319 C 0.66965 0.54321 0.50405 0.0
C320 C 0.77648 0.56277 0.49001 0.0
C321 C 0.81078 0.6176 0.52785 0.0
N322 N 0.70387 0.55048 0.50044 0.0
N323 N 0.77687 0.60934 0.53286 0.0
H324 H 0.09942 0.2219 0.03163 0.0
H325 H 0.00485 0.38851 0.07937 0.0
H326 H 0.07937 0.25843 0.13662 0.0
H327 H 0.06979 0.37999 0.98957 0.0
H328 H 0.02319 0.33507 0.09688 0.0
H329 H 0.08074 0.27475 0.01214 0.0
C330 C 0.09112 0.24103 0.05055 0.0
C331 C 0.091 0.23584 0.0858 0.0
C332 C 0.03331 0.34488 0.07329 0.0
C333 C 0.06909 0.29577 0.06366 0.0
C334 C 0.02268 0.37522 0.06311 0.0
C335 C 0.03584 0.38877 0.03295 0.0
C336 C 0.0568 0.32756 0.05289 0.0
C337 C 0.05911 0.37052 0.01307 0.0
C338 C 0.08057 0.27113 0.03942 0.0
C339 C 0.08006 0.26147 0.10923 0.0
N340 N 0.06876 0.34071 0.02331 0.0
N341 N 0.06924 0.29019 0.09772 0.0
H342 H 0.64778 0.30812 0.08546 0.0
H343 H 0.52051 0.14883 0.01488 0.0
H344 H 0.59561 0.30221 0.9879 0.0
H345 H 0.58751 0.14654 0.10162 0.0
H346 H 0.544 0.20716 0.00762 0.0
H347 H 0.62265 0.25058 0.09447 0.0
C348 C 0.63111 0.29473 0.06592 0.0
C349 C 0.62384 0.30999 0.03586 0.0
C350 C 0.5535 0.19389 0.02828 0.0
C351 C 0.59483 0.24432 0.04611 0.0
C352 C 0.53999 0.16063 0.03254 0.0
C353 C 0.55213 0.14267 0.05882 0.0
C354 C 0.57919 0.20943 0.05058 0.0
C355 C 0.57747 0.15931 0.08089 0.0
C356 C 0.61677 0.2619 0.07107 0.0
C357 C 0.60202 0.29144 0.01142 0.0
N358 N 0.59017 0.19173 0.07625 0.0
N359 N 0.58824 0.25964 0.01713 0.0
H360 H 0.02411 0.71026 0.42439 0.0
H361 H 0.00374 0.85006 0.57892 0.0
H362 H 0.98215 0.68459 0.52274 0.0
H363 H 0.99807 0.87347 0.47289 0.0
H364 H 0.00222 0.78952 0.55973 0.0
H365 H 0.02145 0.77082 0.44258 0.0
C366 C 0.01423 0.71742 0.44975 0.0
C367 C 0.00294 0.69249 0.47199 0.0
C368 C 0.00111 0.80792 0.54071 0.0
C369 C 0.00034 0.7614 0.49305 0.0
C370 C 0.00212 0.84245 0.5516 0.0
C371 C 0.00105 0.86683 0.52744 0.0
C372 C -0.00025 0.79771 0.50538 0.0
C373 C 0.9988 0.85551 0.49237 0.0
C374 C 0.01257 0.75187 0.46001 0.0
C375 C 0.99044 0.70302 0.50459 0.0
N376 N 0.99859 0.82175 0.48234 0.0
N377 N 0.98975 0.73673 0.51429 0.0
H378 H 0.53628 0.85375 0.56479 0.0
H379 H 0.51861 0.66736 0.62127 0.0
H380 H 0.47175 0.82867 0.65111 0.0
H381 H 0.50603 0.68342 0.51407 0.0
H382 H 0.51439 0.72835 0.63605 0.0
H383 H 0.5384 0.79256 0.54854 0.0
C384 C 0.52271 0.83535 0.58035 0.0
C385 C 0.50377 0.84609 0.60927 0.0
C386 C 0.51256 0.7184 0.60934 0.0
C387 C 0.50674 0.77672 0.59135 0.0
C388 C 0.51511 0.6838 0.60088 0.0
C389 C 0.51258 0.6705 0.56643 0.0
C390 C 0.50856 0.73992 0.58307 0.0
C391 C 0.50789 0.69277 0.54094 0.0
C392 C 0.52379 0.80063 0.57097 0.0
C393 C 0.48648 0.82133 0.62853 0.0
N394 N 0.50647 0.72661 0.54972 0.0
N395 N 0.48874 0.7877 0.61949 0.0
H396 H 0.94726 0.89313 0.85115 0.0
H397 H 0.96509 0.02411 0.70615 0.0
H398 H 0.95078 0.00195 0.87433 0.0
H399 H 0.99791 0.92276 0.69074 0.0
H400 H 0.95477 0.01532 0.76695 0.0
H401 H 0.96191 0.90246 0.79128 0.0
C402 C 0.95138 0.91899 0.84369 0.0
C403 C 0.94773 0.94682 0.86771 0.0
C404 C 0.96432 0.99508 0.75024 0.0
C405 C 0.96395 0.9576 0.79924 0.0
C406 C 0.96998 -4e-05 0.7155 0.0
C407 C 0.98233 0.97409 0.69332 0.0
C408 C 0.97059 0.96395 0.76277 0.0
C409 C 0.98844 0.94341 0.70692 0.0
C410 C 0.95976 0.92429 0.80955 0.0
C411 C 0.95343 0.97978 0.85667 0.0
N412 N 0.98232 0.93911 0.74076 0.0
N413 N 0.96092 0.98427 0.82311 0.0
H414 H 0.61255 0.02883 0.36455 0.0
H415 H 0.47558 0.02727 0.21628 0.0
H416 H 0.52042 0.0789 0.38304 0.0
H417 H 0.58407 0.03429 0.19647 0.0
H418 H 0.48747 0.03599 0.27855 0.0
H419 H 0.59826 0.0199 0.30336 0.0
C420 C 0.58927 0.03792 0.35569 0.0
C421 C 0.56782 0.05497 0.37876 0.0
C422 C 0.50853 0.03562 0.26041 0.0
C423 C 0.55106 0.0443 0.30895 0.0
C424 C 0.50181 0.03046 0.22503 0.0
C425 C 0.5289 0.03016 0.20124 0.0
C426 C 0.5425 0.03956 0.27188 0.0
C427 C 0.56242 0.03457 0.21388 0.0
C428 C 0.58122 0.03291 0.32081 0.0
C429 C 0.53792 0.06617 0.36594 0.0
N430 N 0.56826 0.0388 0.2483 0.0
N431 N 0.53024 0.06042 0.33181 0.0
H432 H 0.45781 0.59108 0.23888 0.0
H433 H 0.56168 0.5335 0.39603 0.0
H434 H 0.56484 0.57482 0.23322 0.0
H435 H 0.4654 0.5775 0.40907 0.0
H436 H 0.56064 0.54246 0.33478 0.0
H437 H 0.45768 0.5804 0.29993 0.0
C438 C 0.48126 0.58521 0.25045 0.0
C439 C 0.51141 0.5839 0.23095 0.0
C440 C 0.53974 0.55015 0.35105 0.0
C441 C 0.51135 0.57148 0.30065 0.0
C442 C 0.54023 0.54492 0.38603 0.0
C443 C 0.51361 0.55484 0.40781 0.0
C444 C 0.51229 0.5651 0.33759 0.0
C445 C 0.48654 0.5696 0.39331 0.0
C446 C 0.48117 0.57921 0.2853 0.0
C447 C 0.54105 0.57622 0.2473 0.0
N448 N 0.48654 0.57421 0.35908 0.0
N449 N 0.54025 0.57019 0.28117 0.0
H450 H 0.04079 0.52865 0.69911 0.0
H451 H 0.07551 0.45986 0.88175 0.0
H452 H 0.10684 0.4493 0.71142 0.0
H453 H 0.99463 0.52288 0.86318 0.0
H454 H 0.08875 0.45644 0.82001 0.0
H455 H 0.02523 0.52814 0.75995 0.0
C456 C 0.05184 0.51094 0.71461 0.0
C457 C 0.07472 0.48861 0.70008 0.0
C458 C 0.068 0.47084 0.8295 0.0
C459 C 0.05731 0.48808 0.76989 0.0
C460 C 0.06045 0.47286 0.86474 0.0
C461 C 0.03396 0.49178 0.87778 0.0
C462 C 0.04914 0.48812 0.80719 0.0
C463 C 0.01528 0.50802 0.85443 0.0
C464 C 0.04288 0.51057 0.74932 0.0
C465 C 0.08839 0.46628 0.72135 0.0
N466 N 0.02336 0.50597 0.8204 0.0
N467 N 0.07962 0.46669 0.75528 0.0
H468 H 0.82352 0.02937 0.06082 0.0
H469 H 0.63344 0.94917 0.01831 0.0
H470 H 0.80044 0.93235 0.00305 0.0
H471 H 0.65758 0.03759 0.08916 0.0
H472 H 0.69446 0.94208 0.01265 0.0
H473 H 0.76268 0.03206 0.07254 0.0
C474 C 0.8057 0.00847 0.05088 0.0
C475 C 0.81707 0.98073 0.03072 0.0
C476 C 0.68633 0.96292 0.02956 0.0
C477 C 0.74734 0.9838 0.04368 0.0
C478 C 0.65151 0.96706 0.0327 0.0
C479 C 0.64033 0.99411 0.05411 0.0
C480 C 0.71012 0.98614 0.04777 0.0
C481 C 0.66494 0.0164 0.07227 0.0
C482 C 0.77094 0.01003 0.05754 0.0
C483 C 0.79281 0.9543 0.01862 0.0
N484 N 0.69862 0.01201 0.06855 0.0
N485 N 0.75905 0.95665 0.025 0.0
H486 H 0.70089 0.99879 0.54931 0.0
H487 H 0.89272 0.00189 0.4839 0.0
H488 H 0.73639 0.05663 0.46448 0.0
H489 H 0.86826 0.00582 0.59235 0.0
H490 H 0.83284 0.00897 0.47144 0.0
H491 H 0.76015 0.98817 0.56068 0.0
C492 C 0.72112 0.009 0.53294 0.0
C493 C 0.71386 0.02873 0.50602 0.0
C494 C 0.84068 0.00812 0.49791 0.0
C495 C 0.78118 0.01619 0.51847 0.0
C496 C 0.87468 0.00392 0.50503 0.0
C497 C 0.8854 0.00341 0.53921 0.0
C498 C 0.81714 0.01092 0.52509 0.0
C499 C 0.86104 0.00633 0.56566 0.0
C500 C 0.75481 0.00306 0.53953 0.0
C501 C 0.74099 0.04149 0.48564 0.0
N502 N 0.82794 0.00972 0.55804 0.0
N503 N 0.77349 0.03478 0.49211 0.0
H504 H 0.32021 0.5685 0.02817 0.0
H505 H 0.12383 0.60055 0.05854 0.0
H506 H 0.28638 0.65538 0.08885 0.0
H507 H 0.15694 0.51322 0.99795 0.0
H508 H 0.1833 0.62174 0.06836 0.0
H509 H 0.26075 0.54875 0.01517 0.0
C510 C 0.3003 0.58351 0.03867 0.0
C511 C 0.30832 0.61361 0.05974 0.0
C512 C 0.17761 0.59797 0.05286 0.0
C513 C 0.24013 0.59105 0.045 0.0
C514 C 0.14358 0.58579 0.04723 0.0
C515 C 0.13527 0.55494 0.02744 0.0
C516 C 0.20368 0.57921 0.03867 0.0
C517 C 0.16208 0.53707 0.01342 0.0
C518 C 0.26633 0.57219 0.03124 0.0
C519 C 0.28142 0.63201 0.07256 0.0
N520 N 0.19508 0.54944 0.01937 0.0
N521 N 0.24855 0.62038 0.06506 0.0
H522 H 0.21464 0.57391 0.56282 0.0
H523 H 0.38469 0.47958 0.57548 0.0
H524 H 0.21354 0.46831 0.58384 0.0
H525 H 0.38105 0.57464 0.52886 0.0
H526 H 0.32262 0.47639 0.58296 0.0
H527 H 0.27645 0.57616 0.55467 0.0
C528 C 0.2274 0.5512 0.56575 0.0
C529 C 0.20889 0.52087 0.57399 0.0
C530 C 0.33546 0.49787 0.57101 0.0
C531 C 0.2797 0.52331 0.56483 0.0
C532 C 0.37089 0.49976 0.56679 0.0
C533 C 0.38817 0.52742 0.5515 0.0
C534 C 0.31721 0.524 0.5602 0.0
C535 C 0.36888 0.55278 0.54068 0.0
C536 C 0.26268 0.55247 0.56099 0.0
C537 C 0.2268 0.4922 0.57741 0.0
N538 N 0.33451 0.55053 0.54539 0.0
N539 N 0.26124 0.49416 0.57295 0.0
H540 H 0.88286 0.77128 0.94744 0.0
H541 H 0.01206 0.65793 0.03285 0.0
H542 H 0.96737 0.8137 0.0118 0.0
H543 H 0.93996 0.61825 0.95352 0.0
H544 H 0.99388 0.71474 0.02812 0.0
H545 H 0.90095 0.71444 0.95246 0.0
C546 C 0.90514 0.76864 0.96275 0.0
C547 C 0.92365 0.79729 0.97921 0.0
C548 C 0.98211 0.69361 0.01168 0.0
C549 C 0.94452 0.7323 0.985 0.0
C550 C 0.99245 0.66113 0.01437 0.0
C551 C 0.97752 0.63322 0.99354 0.0
C552 C 0.95645 0.69823 0.98818 0.0
C553 C 0.95226 0.639 0.97004 0.0
C554 C 0.91552 0.73618 0.96549 0.0
C555 C 0.95236 0.79233 0.99864 0.0
N556 N 0.94244 0.67083 0.9681 0.0
N557 N 0.9619 0.76045 0.00102 0.0
H558 H 0.43347 0.71608 0.13218 0.0
H559 H 0.52443 0.87334 0.03945 0.0
H560 H 0.53025 0.71481 0.07913 0.0
H561 H 0.44856 0.88683 0.11925 0.0
H562 H 0.52009 0.81282 0.04714 0.0
H563 H 0.4324 0.77638 0.12154 0.0
C564 C 0.45418 0.72832 0.11784 0.0
C565 C 0.4818 0.71037 0.10612 0.0
C566 C 0.50431 0.82895 0.06296 0.0
C567 C 0.48089 0.77909 0.09422 0.0
C568 C 0.50664 0.86362 0.05852 0.0
C569 C 0.48699 0.88544 0.07893 0.0
C570 C 0.482 0.81563 0.08785 0.0
C571 C 0.46434 0.87104 0.10308 0.0
C572 C 0.45372 0.76277 0.11211 0.0
C573 C 0.50847 0.72771 0.08859 0.0
N574 N 0.46249 0.83696 0.10694 0.0
N575 N 0.50727 0.761 0.08304 0.0
H576 H 0.10617 0.29743 0.63883 0.0
H577 H 0.97766 0.12784 0.62642 0.0
H578 H 0.99915 0.29598 0.66517 0.0
H579 H 0.08065 0.1328 0.58624 0.0
H580 H 0.98611 0.18852 0.64473 0.0
H581 H 0.09841 0.2361 0.62392 0.0
C582 C 0.08107 0.2842 0.64168 0.0
C583 C 0.05322 0.30193 0.65314 0.0
C584 C 0.00684 0.17632 0.6319 0.0
C585 C 0.04416 0.23165 0.63598 0.0
C586 C 0.00206 0.14164 0.62143 0.0
C587 C 0.02846 0.12513 0.60465 0.0
C588 C 0.03831 0.19466 0.62573 0.0
C589 C 0.05951 0.14441 0.59895 0.0
C590 C 0.07664 0.24917 0.63304 0.0
C591 C 0.02131 0.28339 0.65633 0.0
N592 N 0.06357 0.17811 0.60949 0.0
N593 N 0.01763 0.24928 0.64772 0.0
H594 H 0.54782 0.24925 0.41552 0.0
H595 H 0.48738 0.39478 0.5517 0.0
H596 H 0.49416 0.22837 0.50991 0.0
H597 H 0.55257 0.4151 0.46436 0.0
H598 H 0.48639 0.33381 0.53492 0.0
H599 H 0.54613 0.31023 0.43085 0.0
C600 C 0.5355 0.25745 0.43937 0.0
C601 C 0.52121 0.23361 0.46151 0.0
C602 C 0.50092 0.35163 0.51944 0.0
C603 C 0.51929 0.30346 0.47928 0.0
C604 C 0.5015 0.38649 0.52901 0.0
C605 C 0.52017 0.41022 0.50949 0.0
C606 C 0.51897 0.34033 0.49003 0.0
C607 C 0.53792 0.39783 0.48031 0.0
C608 C 0.53465 0.2923 0.44816 0.0
C609 C 0.50561 0.24579 0.49209 0.0
N610 N 0.53685 0.36381 0.47147 0.0
N611 N 0.50512 0.27983 0.50008 0.0
loop_
_geom_bond_atom_site_label_1
_geom_bond_atom_site_label_2
_geom_bond_distance
_geom_bond_site_symmetry_2
_ccdc_geom_bond_type
O0 Cd1 2.300 . S
O0 C7 1.275 . S
Cd1 O0 2.300 . S
Cd1 O9 2.381 . S
Cd1 O10 2.378 . S
O2 Cd3 2.385 . S
O2 C7 1.255 . S
Cd3 O2 2.385 . S
Cd3 O4 2.317 . S
O4 Cd3 2.317 . S
O4 C5 1.232 . S
C5 O4 1.232 . S
C5 O6 1.218 . S
O6 C5 1.218 . S
C7 O0 1.275 . S
C7 O2 1.255 . S
C8 O9 1.258 . S
C8 O10 1.256 . S
O9 Cd1 2.381 . S
O9 C8 1.258 . S
O10 Cd1 2.378 . S
O10 C8 1.256 . S
O11 Cd12 2.300 . S
O11 C18 1.275 . S
Cd12 O11 2.300 . S
Cd12 O20 2.381 . S
Cd12 O21 2.378 . S
O13 Cd14 2.385 . S
O13 C18 1.255 . S
Cd14 O13 2.385 . S
Cd14 O15 2.317 . S
O15 Cd14 2.317 . S
O15 C16 1.232 . S
C16 O15 1.232 . S
C16 O17 1.218 . S
O17 C16 1.218 . S
C18 O11 1.275 . S
C18 O13 1.255 . S
C19 O20 1.258 . S
C19 O21 1.256 . S
O20 Cd12 2.381 . S
O20 C19 1.258 . S
O21 Cd12 2.378 . S
O21 C19 1.256 . S
O22 Cd23 2.300 . S
O22 C29 1.275 . S
Cd23 O22 2.300 . S
Cd23 O31 2.381 . S
Cd23 O32 2.378 . S
O24 Cd25 2.385 . S
O24 C29 1.255 . S
Cd25 O24 2.385 . S
Cd25 O26 2.317 . S
O26 Cd25 2.317 . S
O26 C27 1.232 . S
C27 O26 1.232 . S
C27 O28 1.218 . S
O28 C27 1.218 . S
C29 O22 1.275 . S
C29 O24 1.255 . S
C30 O31 1.258 . S
C30 O32 1.256 . S
O31 Cd23 2.381 . S
O31 C30 1.258 . S
O32 Cd23 2.378 . S
O32 C30 1.256 . S
O33 Cd34 2.300 . S
O33 C40 1.275 . S
Cd34 O33 2.300 . S
Cd34 O42 2.381 . S
Cd34 O43 2.378 . S
O35 Cd36 2.385 . S
O35 C40 1.255 . S
Cd36 O35 2.385 . S
Cd36 O37 2.317 . S
O37 Cd36 2.317 . S
O37 C38 1.232 . S
C38 O37 1.232 . S
C38 O39 1.218 . S
O39 C38 1.218 . S
C40 O33 1.275 . S
C40 O35 1.255 . S
C41 O42 1.258 . S
C41 O43 1.256 . S
O42 Cd34 2.381 . S
O42 C41 1.258 . S
O43 Cd34 2.378 . S
O43 C41 1.256 . S
O44 Cd45 2.300 . S
O44 C51 1.275 . S
Cd45 O44 2.300 . S
Cd45 O53 2.381 . S
Cd45 O54 2.378 1_556 S
O46 Cd47 2.385 1_565 S
O46 C51 1.255 . S
Cd47 O46 2.385 1_545 S
Cd47 O48 2.317 1_545 S
O48 Cd47 2.317 1_565 S
O48 C49 1.236 . S
C49 O48 1.236 . S
C49 O50 1.212 1_565 S
O50 C49 1.212 1_545 S
C51 O44 1.275 . S
C51 O46 1.255 . S
C52 O53 1.258 . S
C52 O54 1.256 1_556 S
O53 Cd45 2.381 . S
O53 C52 1.258 . S
O54 Cd45 2.378 1_554 S
O54 C52 1.256 1_554 S
O55 Cd56 2.300 . S
O55 C62 1.275 . S
Cd56 O55 2.300 . S
Cd56 O64 2.381 . S
Cd56 O65 2.378 . S
O57 Cd58 2.385 . S
O57 C62 1.255 . S
Cd58 O57 2.385 . S
Cd58 O59 2.317 . S
O59 Cd58 2.317 . S
O59 C60 1.232 . S
C60 O59 1.232 . S
C60 O61 1.218 . S
O61 C60 1.218 . S
C62 O55 1.275 . S
C62 O57 1.255 . S
C63 O64 1.258 . S
C63 O65 1.256 . S
O64 Cd56 2.381 . S
O64 C63 1.258 . S
O65 Cd56 2.378 . S
O65 C63 1.256 . S
O66 Cd67 2.300 . S
O66 C73 1.275 . S
Cd67 O66 2.300 . S
Cd67 O75 2.381 . S
Cd67 O76 2.378 . S
O68 Cd69 2.385 . S
O68 C73 1.255 . S
Cd69 O68 2.385 . S
Cd69 O70 2.317 . S
O70 Cd69 2.317 . S
O70 C71 1.232 . S
C71 O70 1.232 . S
C71 O72 1.218 . S
O72 C71 1.218 . S
C73 O66 1.275 . S
C73 O68 1.255 . S
C74 O75 1.258 . S
C74 O76 1.256 . S
O75 Cd67 2.381 . S
O75 C74 1.258 . S
O76 Cd67 2.378 . S
O76 C74 1.256 . S
O77 Cd78 2.300 . S
O77 C84 1.275 . S
Cd78 O77 2.300 . S
Cd78 O86 2.381 . S
Cd78 O87 2.378 . S
O79 Cd80 2.385 . S
O79 C84 1.255 . S
Cd80 O79 2.385 . S
Cd80 O81 2.317 . S
O81 Cd80 2.317 . S
O81 C82 1.232 . S
C82 O81 1.232 . S
C82 O83 1.218 . S
O83 C82 1.218 . S
C84 O77 1.275 . S
C84 O79 1.255 . S
C85 O86 1.258 . S
C85 O87 1.256 . S
O86 Cd78 2.381 . S
O86 C85 1.258 . S
O87 Cd78 2.378 . S
O87 C85 1.256 . S
O88 Zn89 1.953 . S
O88 C104 1.225 1_655 S
Zn89 O88 1.953 . S
Zn89 O90 1.949 1_655 S
Zn89 O96 1.919 . S
Zn89 O101 1.924 . S
O90 Zn89 1.949 1_455 S
O90 Zn91 1.923 1_445 S
O90 Zn92 1.950 . S
O90 Zn93 1.945 1_545 S
Zn91 O90 1.923 1_665 S
Zn91 O94 1.933 . S
Zn91 O97 1.941 1_565 S
Zn91 O98 1.965 1_665 S
Zn92 O90 1.950 . S
Zn92 O99 1.938 . S
Zn92 O100 1.906 . S
Zn92 O110 1.953 . S
Zn93 O90 1.945 1_565 S
Zn93 O95 1.932 1_455 S
Zn93 O102 1.977 . S
Zn93 O103 1.910 1_455 S
O94 Zn91 1.933 . S
O94 C105 1.226 . S
O95 Zn93 1.932 1_655 S
O95 C105 1.307 . S
O96 Zn89 1.919 . S
O96 C107 1.253 . S
O97 Zn91 1.941 1_545 S
O97 C107 1.283 . S
O98 Zn91 1.965 1_445 S
O98 C106 1.303 . S
O99 Zn92 1.938 . S
O99 C106 1.247 . S
O100 Zn92 1.906 . S
O100 C108 1.304 1_545 S
O101 Zn89 1.924 . S
O101 C109 1.311 . S
O102 Zn93 1.977 . S
O102 C108 1.272 . S
O103 Zn93 1.910 1_655 S
O103 C109 1.231 1_565 S
C104 O88 1.225 1_455 S
C104 O110 1.298 . S
C105 O94 1.226 . S
C105 O95 1.307 . S
C106 O98 1.303 . S
C106 O99 1.247 . S
C107 O96 1.253 . S
C107 O97 1.283 . S
C108 O100 1.304 1_565 S
C108 O102 1.272 . S
C109 O101 1.311 . S
C109 O103 1.231 1_545 S
O110 Zn92 1.953 . S
O110 C104 1.298 . S
O111 Zn112 1.953 . S
O111 C127 1.225 . S
Zn112 O111 1.953 . S
Zn112 O113 1.949 . S
Zn112 O119 1.919 1_554 S
Zn112 O124 1.924 . S
O113 Zn112 1.949 . S
O113 Zn114 1.923 1_545 S
O113 Zn115 1.950 . S
O113 Zn116 1.945 . S
Zn114 O113 1.923 1_565 S
Zn114 O117 1.933 . S
Zn114 O120 1.922 1_554 S
Zn114 O121 1.965 . S
Zn115 O113 1.950 . S
Zn115 O122 1.938 . S
Zn115 O123 1.906 . S
Zn115 O133 1.953 . S
Zn116 O113 1.945 . S
Zn116 O118 1.932 1_545 S
Zn116 O125 1.977 . S
Zn116 O126 1.910 . S
O117 Zn114 1.933 . S
O117 C128 1.226 . S
O118 Zn116 1.932 1_565 S
O118 C128 1.307 . S
O119 Zn112 1.919 1_556 S
O119 C130 1.253 1_545 S
O120 Zn114 1.922 1_556 S
O120 C130 1.293 . S
O121 Zn114 1.965 . S
O121 C129 1.303 1_565 S
O122 Zn115 1.938 . S
O122 C129 1.247 . S
O123 Zn115 1.906 . S
O123 C131 1.304 . S
O124 Zn112 1.924 . S
O124 C132 1.311 . S
O125 Zn116 1.977 . S
O125 C131 1.272 . S
O126 Zn116 1.910 . S
O126 C132 1.231 . S
C127 O111 1.225 . S
C127 O133 1.298 . S
C128 O117 1.226 . S
C128 O118 1.307 . S
C129 O121 1.303 1_545 S
C129 O122 1.247 . S
C130 O119 1.253 1_565 S
C130 O120 1.293 . S
C131 O123 1.304 . S
C131 O125 1.272 . S
C132 O124 1.311 . S
C132 O126 1.231 . S
O133 Zn115 1.953 . S
O133 C127 1.298 . S
O134 Zn135 1.953 . S
O134 C150 1.225 . S
Zn135 O134 1.953 . S
Zn135 O136 1.949 . S
Zn135 O142 1.919 . S
Zn135 O147 1.924 . S
O136 Zn135 1.949 . S
O136 Zn137 1.923 . S
O136 Zn138 1.950 . S
O136 Zn139 1.945 . S
Zn137 O136 1.923 . S
Zn137 O140 1.933 . S
Zn137 O143 1.941 . S
Zn137 O144 1.965 . S
Zn138 O136 1.950 . S
Zn138 O145 1.938 . S
Zn138 O146 1.906 . S
Zn138 O156 1.953 . S
Zn139 O136 1.945 . S
Zn139 O141 1.932 . S
Zn139 O148 1.977 . S
Zn139 O149 1.910 . S
O140 Zn137 1.933 . S
O140 C151 1.226 . S
O141 Zn139 1.932 . S
O141 C151 1.307 . S
O142 Zn135 1.919 . S
O142 C153 1.253 . S
O143 Zn137 1.941 . S
O143 C153 1.283 . S
O144 Zn137 1.965 . S
O144 C152 1.303 . S
O145 Zn138 1.938 . S
O145 C152 1.247 . S
O146 Zn138 1.906 . S
O146 C154 1.304 . S
O147 Zn135 1.924 . S
O147 C155 1.311 . S
O148 Zn139 1.977 . S
O148 C154 1.272 . S
O149 Zn139 1.910 . S
O149 C155 1.231 . S
C150 O134 1.225 . S
C150 O156 1.298 . S
C151 O140 1.226 . S
C151 O141 1.307 . S
C152 O144 1.303 . S
C152 O145 1.247 . S
C153 O142 1.253 . S
C153 O143 1.283 . S
C154 O146 1.304 . S
C154 O148 1.272 . S
C155 O147 1.311 . S
C155 O149 1.231 . S
O156 Zn138 1.953 . S
O156 C150 1.298 . S
O157 Zn158 1.953 . S
O157 C173 1.229 . S
Zn158 O157 1.953 . S
Zn158 O159 1.949 1_655 S
Zn158 O165 1.919 . S
Zn158 O170 1.924 1_655 S
O159 Zn158 1.949 1_455 S
O159 Zn160 1.923 1_554 S
O159 Zn161 1.950 . S
O159 Zn162 1.945 1_554 S
Zn160 O159 1.923 1_556 S
Zn160 O163 1.933 . S
Zn160 O166 1.941 1_455 S
Zn160 O167 1.965 . S
Zn161 O159 1.950 . S
Zn161 O168 1.938 . S
Zn161 O169 1.906 . S
Zn161 O179 1.953 . S
Zn162 O159 1.945 1_556 S
Zn162 O164 1.932 . S
Zn162 O171 1.977 1_556 S
Zn162 O172 1.910 1_556 S
O163 Zn160 1.933 . S
O163 C174 1.226 . S
O164 Zn162 1.932 . S
O164 C174 1.307 . S
O165 Zn158 1.919 . S
O165 C176 1.253 1_554 S
O166 Zn160 1.941 1_655 S
O166 C176 1.283 . S
O167 Zn160 1.965 . S
O167 C175 1.303 . S
O168 Zn161 1.938 . S
O168 C175 1.247 1_554 S
O169 Zn161 1.906 . S
O169 C177 1.304 . S
O170 Zn158 1.924 1_455 S
O170 C178 1.311 . S
O171 Zn162 1.977 1_554 S
O171 C177 1.272 . S
O172 Zn162 1.910 1_554 S
O172 C178 1.231 . S
C173 O157 1.229 . S
C173 O179 1.293 1_655 S
C174 O163 1.226 . S
C174 O164 1.307 . S
C175 O167 1.303 . S
C175 O168 1.247 1_556 S
C176 O165 1.253 1_556 S
C176 O166 1.283 . S
C177 O169 1.304 . S
C177 O171 1.272 . S
C178 O170 1.311 . S
C178 O172 1.231 . S
O179 Zn161 1.953 . S
O179 C173 1.293 1_455 S
H180 C186 0.930 . S
H181 C190 0.930 . S
H182 C195 0.929 . S
H183 C193 0.929 . S
H184 C188 0.929 . S
H185 C194 0.929 . S
C186 H180 0.930 . S
C186 C187 1.367 . S
C186 C194 1.378 . S
C187 C186 1.367 . S
C187 C195 1.433 . S
C188 H184 0.929 . S
C188 C190 1.378 . S
C188 C192 1.350 . S
C189 C192 1.463 . S
C189 C194 1.350 . S
C189 N197 1.427 . S
C190 H181 0.930 . S
C190 C188 1.378 . S
C190 C191 1.367 . S
C191 C190 1.367 . S
C191 C193 1.433 . S
C192 C188 1.350 . S
C192 C189 1.463 . S
C192 N196 1.427 . S
C193 H183 0.929 . S
C193 C191 1.433 . S
C193 N196 1.384 . S
C194 H185 0.929 . S
C194 C186 1.378 . S
C194 C189 1.350 . S
C195 H182 0.929 . S
C195 C187 1.433 . S
C195 N197 1.384 . S
N196 C192 1.427 . S
N196 C193 1.384 . S
N197 C189 1.427 . S
N197 C195 1.384 . S
H198 C204 0.930 . S
H199 C208 0.930 . S
H200 C213 0.929 . S
H201 C211 0.904 1_545 S
H202 C206 0.929 . S
H203 C212 0.929 . S
C204 H198 0.930 . S
C204 C205 1.367 . S
C204 C212 1.378 . S
C205 C204 1.367 . S
C205 C213 1.433 . S
C206 H202 0.929 . S
C206 C208 1.378 . S
C206 C210 1.350 . S
C207 C210 1.463 . S
C207 C212 1.350 . S
C207 N215 1.427 . S
C208 H199 0.930 . S
C208 C206 1.378 . S
C208 C209 1.367 . S
C209 C208 1.367 . S
C209 C211 1.453 . S
C210 C206 1.350 . S
C210 C207 1.463 . S
C210 N214 1.427 . S
C211 H201 0.904 1_565 S
C211 C209 1.453 . S
C211 N214 1.390 . S
C212 H203 0.929 . S
C212 C204 1.378 . S
C212 C207 1.350 . S
C213 H200 0.929 . S
C213 C205 1.433 . S
C213 N215 1.384 . S
N214 C210 1.427 . S
N214 C211 1.390 . S
N215 C207 1.427 . S
N215 C213 1.384 . S
H216 C222 0.930 . S
H217 C226 0.930 . S
H218 C231 0.929 . S
H219 C229 0.929 . S
H220 C224 0.929 . S
H221 C230 0.929 . S
C222 H216 0.930 . S
C222 C223 1.367 . S
C222 C230 1.378 . S
C223 C222 1.367 . S
C223 C231 1.433 . S
C224 H220 0.929 . S
C224 C226 1.378 . S
C224 C228 1.350 . S
C225 C228 1.463 . S
C225 C230 1.350 . S
C225 N233 1.427 . S
C226 H217 0.930 . S
C226 C224 1.378 . S
C226 C227 1.367 . S
C227 C226 1.367 . S
C227 C229 1.433 . S
C228 C224 1.350 . S
C228 C225 1.463 . S
C228 N232 1.427 . S
C229 H219 0.929 . S
C229 C227 1.433 . S
C229 N232 1.384 . S
C230 H221 0.929 . S
C230 C222 1.378 . S
C230 C225 1.350 . S
C231 H218 0.929 . S
C231 C223 1.433 . S
C231 N233 1.384 . S
N232 C228 1.427 . S
N232 C229 1.384 . S
N233 C225 1.427 . S
N233 C231 1.384 . S
H234 C240 0.930 . S
H235 C244 0.930 . S
H236 C249 0.929 . S
H237 C247 0.929 . S
H238 C242 0.929 . S
H239 C248 0.929 . S
C240 H234 0.930 . S
C240 C241 1.367 . S
C240 C248 1.378 . S
C241 C240 1.367 . S
C241 C249 1.433 . S
C242 H238 0.929 . S
C242 C244 1.378 . S
C242 C246 1.350 . S
C243 C246 1.463 . S
C243 C248 1.350 . S
C243 N251 1.427 . S
C244 H235 0.930 . S
C244 C242 1.378 . S
C244 C245 1.367 . S
C245 C244 1.367 . S
C245 C247 1.433 . S
C246 C242 1.350 . S
C246 C243 1.463 . S
C246 N250 1.427 . S
C247 H237 0.929 . S
C247 C245 1.433 . S
C247 N250 1.384 . S
C248 H239 0.929 . S
C248 C240 1.378 . S
C248 C243 1.350 . S
C249 H236 0.929 . S
C249 C241 1.433 . S
C249 N251 1.384 . S
N250 C246 1.427 . S
N250 C247 1.384 . S
N251 C243 1.427 . S
N251 C249 1.384 . S
H252 C258 0.930 . S
H253 C262 0.930 . S
H254 C267 0.929 . S
H255 C265 0.929 . S
H256 C260 0.929 . S
H257 C266 0.929 . S
C258 H252 0.930 . S
C258 C259 1.367 . S
C258 C266 1.378 . S
C259 C258 1.367 . S
C259 C267 1.433 . S
C260 H256 0.929 . S
C260 C262 1.378 . S
C260 C264 1.350 . S
C261 C264 1.463 . S
C261 C266 1.350 . S
C261 N269 1.427 . S
C262 H253 0.930 . S
C262 C260 1.378 . S
C262 C263 1.367 . S
C263 C262 1.367 . S
C263 C265 1.433 . S
C264 C260 1.350 . S
C264 C261 1.463 . S
C264 N268 1.427 . S
C265 H255 0.929 . S
C265 C263 1.433 . S
C265 N268 1.384 . S
C266 H257 0.929 . S
C266 C258 1.378 . S
C266 C261 1.350 . S
C267 H254 0.929 . S
C267 C259 1.433 . S
C267 N269 1.384 . S
N268 C264 1.427 . S
N268 C265 1.384 . S
N269 C261 1.427 . S
N269 C267 1.384 . S
H270 C276 0.930 . S
H271 C280 0.930 1_545 S
H272 C285 0.929 . S
H273 C283 0.929 . S
H274 C278 0.929 . S
H275 C284 0.929 . S
C276 H270 0.930 . S
C276 C277 1.367 . S
C276 C284 1.378 . S
C277 C276 1.367 . S
C277 C285 1.433 . S
C278 H274 0.929 . S
C278 C280 1.378 . S
C278 C282 1.350 . S
C279 C282 1.463 . S
C279 C284 1.350 . S
C279 N287 1.427 . S
C280 H271 0.930 1_565 S
C280 C278 1.378 . S
C280 C281 1.367 . S
C281 C280 1.367 . S
C281 C283 1.433 . S
C282 C278 1.350 . S
C282 C279 1.463 . S
C282 N286 1.427 . S
C283 H273 0.929 . S
C283 C281 1.433 . S
C283 N286 1.384 . S
C284 H275 0.929 . S
C284 C276 1.378 . S
C284 C279 1.350 . S
C285 H272 0.929 . S
C285 C277 1.433 . S
C285 N287 1.384 . S
N286 C282 1.427 . S
N286 C283 1.384 . S
N287 C279 1.427 . S
N287 C285 1.384 . S
H288 C294 0.930 . S
H289 C298 0.930 1_554 S
H290 C303 0.929 . S
H291 C301 0.929 . S
H292 C296 0.929 1_554 S
H293 C302 0.929 . S
C294 H288 0.930 . S
C294 C295 1.367 . S
C294 C302 1.378 . S
C295 C294 1.367 . S
C295 C303 1.433 . S
C296 H292 0.929 1_556 S
C296 C298 1.378 . S
C296 C300 1.350 . S
C297 C300 1.463 . S
C297 C302 1.350 . S
C297 N305 1.427 . S
C298 H289 0.930 1_556 S
C298 C296 1.378 . S
C298 C299 1.367 . S
C299 C298 1.367 . S
C299 C301 1.433 . S
C300 C296 1.350 . S
C300 C297 1.463 . S
C300 N304 1.427 . S
C301 H291 0.929 . S
C301 C299 1.433 . S
C301 N304 1.384 . S
C302 H293 0.929 . S
C302 C294 1.378 . S
C302 C297 1.350 . S
C303 H290 0.929 . S
C303 C295 1.433 . S
C303 N305 1.384 . S
N304 C300 1.427 . S
N304 C301 1.384 . S
N305 C297 1.427 . S
N305 C303 1.384 . S
H306 C312 0.930 . S
H307 C316 0.930 . S
H308 C321 0.929 . S
H309 C319 0.929 . S
H310 C314 0.929 . S
H311 C320 0.929 . S
C312 H306 0.930 . S
C312 C313 1.367 . S
C312 C320 1.378 . S
C313 C312 1.367 . S
C313 C321 1.433 . S
C314 H310 0.929 . S
C314 C316 1.378 . S
C314 C318 1.350 . S
C315 C318 1.463 . S
C315 C320 1.350 . S
C315 N323 1.427 . S
C316 H307 0.930 . S
C316 C314 1.378 . S
C316 C317 1.367 . S
C317 C316 1.367 . S
C317 C319 1.433 . S
C318 C314 1.350 . S
C318 C315 1.463 . S
C318 N322 1.427 . S
C319 H309 0.929 . S
C319 C317 1.433 . S
C319 N322 1.384 . S
C320 H311 0.929 . S
C320 C312 1.378 . S
C320 C315 1.350 . S
C321 H308 0.929 . S
C321 C313 1.433 . S
C321 N323 1.384 . S
N322 C318 1.427 . S
N322 C319 1.384 . S
N323 C315 1.427 . S
N323 C321 1.384 . S
H324 C330 0.930 . S
H325 C334 0.930 . S
H326 C339 0.929 . S
H327 C337 0.929 . S
H328 C332 0.929 . S
H329 C338 0.929 . S
C330 H324 0.930 . S
C330 C331 1.367 . S
C330 C338 1.378 . S
C331 C330 1.367 . S
C331 C339 1.433 . S
C332 H328 0.929 . S
C332 C334 1.378 . S
C332 C336 1.350 . S
C333 C336 1.463 . S
C333 C338 1.350 . S
C333 N341 1.427 . S
C334 H325 0.930 . S
C334 C332 1.378 . S
C334 C335 1.367 . S
C335 C334 1.367 . S
C335 C337 1.433 . S
C336 C332 1.350 . S
C336 C333 1.463 . S
C336 N340 1.427 . S
C337 H327 0.929 . S
C337 C335 1.433 . S
C337 N340 1.384 . S
C338 H329 0.929 . S
C338 C330 1.378 . S
C338 C333 1.350 . S
C339 H326 0.929 . S
C339 C331 1.433 . S
C339 N341 1.384 . S
N340 C336 1.427 . S
N340 C337 1.384 . S
N341 C333 1.427 . S
N341 C339 1.384 . S
H342 C348 0.930 . S
H343 C352 0.945 . S
H344 C357 0.929 . S
H345 C355 0.929 . S
H346 C350 0.929 . S
H347 C356 0.929 . S
C348 H342 0.930 . S
C348 C349 1.367 1_554 S
C348 C356 1.378 . S
C349 C348 1.367 1_556 S
C349 C357 1.433 . S
C350 H346 0.929 . S
C350 C352 1.387 . S
C350 C354 1.350 1_556 S
C351 C354 1.463 . S
C351 C356 1.350 . S
C351 N359 1.427 1_554 S
C352 H343 0.945 . S
C352 C350 1.387 . S
C352 C353 1.344 1_556 S
C353 C352 1.344 1_554 S
C353 C355 1.433 . S
C354 C350 1.350 1_554 S
C354 C351 1.463 . S
C354 N358 1.427 . S
C355 H345 0.929 . S
C355 C353 1.433 . S
C355 N358 1.384 . S
C356 H347 0.929 . S
C356 C348 1.378 . S
C356 C351 1.350 . S
C357 H344 0.929 . S
C357 C349 1.433 . S
C357 N359 1.384 . S
N358 C354 1.427 . S
N358 C355 1.384 . S
N359 C351 1.427 1_556 S
N359 C357 1.384 . S
H360 C366 0.930 . S
H361 C370 0.930 1_455 S
H362 C375 0.929 . S
H363 C373 0.929 . S
H364 C368 0.929 . S
H365 C374 0.929 . S
C366 H360 0.930 . S
C366 C367 1.367 . S
C366 C374 1.378 . S
C367 C366 1.367 . S
C367 C375 1.433 . S
C368 H364 0.929 . S
C368 C370 1.378 . S
C368 C372 1.350 . S
C369 C372 1.463 . S
C369 C374 1.350 . S
C369 N377 1.427 . S
C370 H361 0.930 1_655 S
C370 C368 1.378 . S
C370 C371 1.367 . S
C371 C370 1.367 . S
C371 C373 1.433 . S
C372 C368 1.350 . S
C372 C369 1.463 . S
C372 N376 1.427 . S
C373 H363 0.929 . S
C373 C371 1.433 . S
C373 N376 1.384 . S
C374 H365 0.929 . S
C374 C366 1.378 . S
C374 C369 1.350 . S
C375 H362 0.929 . S
C375 C367 1.433 . S
C375 N377 1.384 . S
N376 C372 1.427 . S
N376 C373 1.384 . S
N377 C369 1.427 . S
N377 C375 1.384 . S
H378 C384 0.930 . S
H379 C388 0.930 . S
H380 C393 0.929 . S
H381 C391 0.929 . S
H382 C386 0.929 . S
H383 C392 0.929 . S
C384 H378 0.930 . S
C384 C385 1.367 . S
C384 C392 1.378 . S
C385 C384 1.367 . S
C385 C393 1.433 . S
C386 H382 0.929 . S
C386 C388 1.378 . S
C386 C390 1.350 . S
C387 C390 1.463 . S
C387 C392 1.350 . S
C387 N395 1.427 . S
C388 H379 0.930 . S
C388 C386 1.378 . S
C388 C389 1.367 . S
C389 C388 1.367 . S
C389 C391 1.433 . S
C390 C386 1.350 . S
C390 C387 1.463 . S
C390 N394 1.427 . S
C391 H381 0.929 . S
C391 C389 1.433 . S
C391 N394 1.384 . S
C392 H383 0.929 . S
C392 C384 1.378 . S
C392 C387 1.350 . S
C393 H380 0.929 . S
C393 C385 1.433 . S
C393 N395 1.384 . S
N394 C390 1.427 . S
N394 C391 1.384 . S
N395 C387 1.427 . S
N395 C393 1.384 . S
H396 C402 0.930 . S
H397 C406 0.930 1_455 S
H398 C411 0.933 . S
H399 C409 0.929 . S
H400 C404 0.914 1_455 S
H401 C410 0.929 . S
C402 H396 0.930 . S
C402 C403 1.367 . S
C402 C410 1.378 . S
C403 C402 1.367 . S
C403 C411 1.428 1_565 S
C404 H400 0.914 1_655 S
C404 C406 1.378 . S
C404 C408 1.350 1_545 S
C405 C408 1.463 . S
C405 C410 1.350 . S
C405 N413 1.427 1_565 S
C406 H397 0.930 1_655 S
C406 C404 1.378 . S
C406 C407 1.367 . S
C407 C406 1.367 . S
C407 C409 1.433 1_545 S
C408 C404 1.350 1_565 S
C408 C405 1.463 . S
C408 N412 1.427 . S
C409 H399 0.929 . S
C409 C407 1.433 1_565 S
C409 N412 1.384 . S
C410 H401 0.929 . S
C410 C402 1.378 . S
C410 C405 1.350 . S
C411 H398 0.933 . S
C411 C403 1.428 1_545 S
C411 N413 1.385 . S
N412 C408 1.427 . S
N412 C409 1.384 . S
N413 C405 1.427 1_545 S
N413 C411 1.385 . S
H414 C420 0.930 . S
H415 C424 0.930 . S
H416 C429 0.929 . S
H417 C427 0.929 . S
H418 C422 0.929 . S
H419 C428 0.929 . S
C420 H414 0.930 . S
C420 C421 1.367 . S
C420 C428 1.378 . S
C421 C420 1.367 . S
C421 C429 1.433 . S
C422 H418 0.929 . S
C422 C424 1.378 . S
C422 C426 1.350 . S
C423 C426 1.463 . S
C423 C428 1.350 . S
C423 N431 1.427 . S
C424 H415 0.930 . S
C424 C422 1.378 . S
C424 C425 1.367 . S
C425 C424 1.367 . S
C425 C427 1.433 . S
C426 C422 1.350 . S
C426 C423 1.463 . S
C426 N430 1.427 . S
C427 H417 0.929 . S
C427 C425 1.433 . S
C427 N430 1.384 . S
C428 H419 0.929 . S
C428 C420 1.378 . S
C428 C423 1.350 . S
C429 H416 0.929 . S
C429 C421 1.433 . S
C429 N431 1.384 . S
N430 C426 1.427 . S
N430 C427 1.384 . S
N431 C423 1.427 . S
N431 C429 1.384 . S
H432 C438 0.930 . S
H433 C442 0.930 . S
H434 C447 0.929 . S
H435 C445 0.929 . S
H436 C440 0.929 . S
H437 C446 0.929 . S
C438 H432 0.930 . S
C438 C439 1.367 . S
C438 C446 1.378 . S
C439 C438 1.367 . S
C439 C447 1.433 . S
C440 H436 0.929 . S
C440 C442 1.378 . S
C440 C444 1.350 . S
C441 C444 1.463 . S
C441 C446 1.350 . S
C441 N449 1.427 . S
C442 H433 0.930 . S
C442 C440 1.378 . S
C442 C443 1.367 . S
C443 C442 1.367 . S
C443 C445 1.433 . S
C444 C440 1.350 . S
C444 C441 1.463 . S
C444 N448 1.427 . S
C445 H435 0.929 . S
C445 C443 1.433 . S
C445 N448 1.384 . S
C446 H437 0.929 . S
C446 C438 1.378 . S
C446 C441 1.350 . S
C447 H434 0.929 . S
C447 C439 1.433 . S
C447 N449 1.384 . S
N448 C444 1.427 . S
N448 C445 1.384 . S
N449 C441 1.427 . S
N449 C447 1.384 . S
H450 C456 0.930 . S
H451 C460 0.930 . S
H452 C465 0.929 . S
H453 C463 0.929 . S
H454 C458 0.929 . S
H455 C464 0.929 . S
C456 H450 0.930 . S
C456 C457 1.367 . S
C456 C464 1.378 . S
C457 C456 1.367 . S
C457 C465 1.433 . S
C458 H454 0.929 . S
C458 C460 1.378 . S
C458 C462 1.350 . S
C459 C462 1.463 . S
C459 C464 1.350 . S
C459 N467 1.427 . S
C460 H451 0.930 . S
C460 C458 1.378 . S
C460 C461 1.367 . S
C461 C460 1.367 . S
C461 C463 1.433 . S
C462 C458 1.350 . S
C462 C459 1.463 . S
C462 N466 1.427 . S
C463 H453 0.929 . S
C463 C461 1.433 . S
C463 N466 1.384 . S
C464 H455 0.929 . S
C464 C456 1.378 . S
C464 C459 1.350 . S
C465 H452 0.929 . S
C465 C457 1.433 . S
C465 N467 1.384 . S
N466 C462 1.427 . S
N466 C463 1.384 . S
N467 C459 1.427 . S
N467 C465 1.384 . S
H468 C474 0.930 . S
H469 C478 0.930 . S
H470 C483 0.929 . S
H471 C481 0.929 . S
H472 C476 0.929 . S
H473 C482 0.929 . S
C474 H468 0.930 . S
C474 C475 1.367 1_545 S
C474 C482 1.378 . S
C475 C474 1.367 1_565 S
C475 C483 1.433 1_556 S
C476 H472 0.929 . S
C476 C478 1.378 . S
C476 C480 1.350 1_565 S
C477 C480 1.463 . S
C477 C482 1.350 1_554 S
C477 N485 1.427 1_545 S
C478 H469 0.930 . S
C478 C476 1.378 . S
C478 C479 1.367 1_565 S
C479 C478 1.367 1_545 S
C479 C481 1.433 . S
C480 C476 1.350 1_545 S
C480 C477 1.463 . S
C480 N484 1.427 . S
C481 H471 0.929 . S
C481 C479 1.433 . S
C481 N484 1.384 . S
C482 H473 0.929 . S
C482 C474 1.378 . S
C482 C477 1.350 1_556 S
C483 H470 0.929 . S
C483 C475 1.433 1_554 S
C483 N485 1.384 . S
N484 C480 1.427 . S
N484 C481 1.384 . S
N485 C477 1.427 1_565 S
N485 C483 1.384 . S
H486 C492 0.930 . S
H487 C496 0.930 . S
H488 C501 0.929 . S
H489 C499 0.929 . S
H490 C494 0.929 . S
H491 C500 0.929 1_565 S
C492 H486 0.930 . S
C492 C493 1.367 . S
C492 C500 1.378 . S
C493 C492 1.367 . S
C493 C501 1.433 . S
C494 H490 0.929 . S
C494 C496 1.378 . S
C494 C498 1.350 . S
C495 C498 1.463 . S
C495 C500 1.350 . S
C495 N503 1.427 . S
C496 H487 0.930 . S
C496 C494 1.378 . S
C496 C497 1.367 . S
C497 C496 1.367 . S
C497 C499 1.433 1_545 S
C498 C494 1.350 . S
C498 C495 1.463 . S
C498 N502 1.427 . S
C499 H489 0.929 . S
C499 C497 1.433 1_565 S
C499 N502 1.384 1_565 S
C500 H491 0.929 1_545 S
C500 C492 1.378 . S
C500 C495 1.350 . S
C501 H488 0.929 . S
C501 C493 1.433 . S
C501 N503 1.384 . S
N502 C498 1.427 . S
N502 C499 1.384 1_545 S
N503 C495 1.427 . S
N503 C501 1.384 . S
H504 C510 0.930 . S
H505 C514 0.930 . S
H506 C519 0.929 . S
H507 C517 0.929 1_556 S
H508 C512 0.929 . S
H509 C518 0.929 . S
C510 H504 0.930 . S
C510 C511 1.367 . S
C510 C518 1.378 . S
C511 C510 1.367 . S
C511 C519 1.433 . S
C512 H508 0.929 . S
C512 C514 1.378 . S
C512 C516 1.350 . S
C513 C516 1.463 . S
C513 C518 1.350 . S
C513 N521 1.427 . S
C514 H505 0.930 . S
C514 C512 1.378 . S
C514 C515 1.367 . S
C515 C514 1.367 . S
C515 C517 1.433 . S
C516 C512 1.350 . S
C516 C513 1.463 . S
C516 N520 1.427 . S
C517 H507 0.929 1_554 S
C517 C515 1.433 . S
C517 N520 1.384 . S
C518 H509 0.929 . S
C518 C510 1.378 . S
C518 C513 1.350 . S
C519 H506 0.929 . S
C519 C511 1.433 . S
C519 N521 1.384 . S
N520 C516 1.427 . S
N520 C517 1.384 . S
N521 C513 1.427 . S
N521 C519 1.384 . S
H522 C528 0.930 . S
H523 C532 0.930 . S
H524 C537 0.929 . S
H525 C535 0.929 . S
H526 C530 0.929 . S
H527 C536 0.929 . S
C528 H522 0.930 . S
C528 C529 1.367 . S
C528 C536 1.378 . S
C529 C528 1.367 . S
C529 C537 1.433 . S
C530 H526 0.929 . S
C530 C532 1.378 . S
C530 C534 1.350 . S
C531 C534 1.463 . S
C531 C536 1.350 . S
C531 N539 1.427 . S
C532 H523 0.930 . S
C532 C530 1.378 . S
C532 C533 1.367 . S
C533 C532 1.367 . S
C533 C535 1.433 . S
C534 C530 1.350 . S
C534 C531 1.463 . S
C534 N538 1.427 . S
C535 H525 0.929 . S
C535 C533 1.433 . S
C535 N538 1.384 . S
C536 H527 0.929 . S
C536 C528 1.378 . S
C536 C531 1.350 . S
C537 H524 0.929 . S
C537 C529 1.433 . S
C537 N539 1.384 . S
N538 C534 1.427 . S
N538 C535 1.384 . S
N539 C531 1.427 . S
N539 C537 1.384 . S
H540 C546 0.930 . S
H541 C550 0.930 . S
H542 C555 0.929 . S
H543 C553 0.929 . S
H544 C548 0.929 . S
H545 C554 0.929 . S
C546 H540 0.930 . S
C546 C547 1.367 . S
C546 C554 1.378 . S
C547 C546 1.367 . S
C547 C555 1.433 1_655 S
C548 H544 0.929 . S
C548 C550 1.378 . S
C548 C552 1.350 1_455 S
C549 C552 1.463 . S
C549 C554 1.350 . S
C549 N557 1.427 1_655 S
C550 H541 0.930 . S
C550 C548 1.378 . S
C550 C551 1.367 1_455 S
C551 C550 1.367 1_655 S
C551 C553 1.433 . S
C552 C548 1.350 1_655 S
C552 C549 1.463 . S
C552 N556 1.427 . S
C553 H543 0.929 . S
C553 C551 1.433 . S
C553 N556 1.384 . S
C554 H545 0.929 . S
C554 C546 1.378 . S
C554 C549 1.350 . S
C555 H542 0.929 . S
C555 C547 1.433 1_455 S
C555 N557 1.384 . S
N556 C552 1.427 . S
N556 C553 1.384 . S
N557 C549 1.427 1_455 S
N557 C555 1.384 . S
H558 C564 0.930 . S
H559 C568 0.930 . S
H560 C573 0.929 . S
H561 C571 0.929 . S
H562 C566 0.929 . S
H563 C572 0.929 . S
C564 H558 0.930 . S
C564 C565 1.367 . S
C564 C572 1.378 . S
C565 C564 1.367 . S
C565 C573 1.433 . S
C566 H562 0.929 . S
C566 C568 1.378 . S
C566 C570 1.350 . S
C567 C570 1.463 . S
C567 C572 1.350 . S
C567 N575 1.427 . S
C568 H559 0.930 . S
C568 C566 1.378 . S
C568 C569 1.367 . S
C569 C568 1.367 . S
C569 C571 1.433 . S
C570 C566 1.350 . S
C570 C567 1.463 . S
C570 N574 1.427 . S
C571 H561 0.929 . S
C571 C569 1.433 . S
C571 N574 1.384 . S
C572 H563 0.929 . S
C572 C564 1.378 . S
C572 C567 1.350 . S
C573 H560 0.929 . S
C573 C565 1.433 . S
C573 N575 1.384 . S
N574 C570 1.427 . S
N574 C571 1.384 . S
N575 C567 1.427 . S
N575 C573 1.384 . S
H576 C582 0.930 . S
H577 C586 0.930 1_655 S
H578 C591 0.929 . S
H579 C589 0.929 . S
H580 C584 0.938 . S
H581 C590 0.929 . S
C582 H576 0.930 . S
C582 C583 1.367 . S
C582 C590 1.378 . S
C583 C582 1.367 . S
C583 C591 1.433 . S
C584 H580 0.938 . S
C584 C586 1.378 . S
C584 C588 1.350 . S
C585 C588 1.463 . S
C585 C590 1.350 . S
C585 N593 1.427 . S
C586 H577 0.930 1_455 S
C586 C584 1.378 . S
C586 C587 1.367 . S
C587 C586 1.367 . S
C587 C589 1.433 . S
C588 C584 1.350 . S
C588 C585 1.463 . S
C588 N592 1.427 . S
C589 H579 0.929 . S
C589 C587 1.433 . S
C589 N592 1.384 . S
C590 H581 0.929 . S
C590 C582 1.378 . S
C590 C585 1.350 . S
C591 H578 0.929 . S
C591 C583 1.433 . S
C591 N593 1.384 . S
N592 C588 1.427 . S
N592 C589 1.384 . S
N593 C585 1.427 . S
N593 C591 1.384 . S
H594 C600 0.930 . S
H595 C604 0.930 . S
H596 C609 0.929 . S
H597 C607 0.929 . S
H598 C602 0.929 . S
H599 C608 0.929 . S
C600 H594 0.930 . S
C600 C601 1.367 . S
C600 C608 1.378 . S
C601 C600 1.367 . S
C601 C609 1.433 . S
C602 H598 0.929 . S
C602 C604 1.378 . S
C602 C606 1.350 . S
C603 C606 1.463 . S
C603 C608 1.350 . S
C603 N611 1.427 . S
C604 H595 0.930 . S
C604 C602 1.378 . S
C604 C605 1.367 . S
C605 C604 1.367 . S
C605 C607 1.433 . S
C606 C602 1.350 . S
C606 C603 1.463 . S
C606 N610 1.427 . S
C607 H597 0.929 . S
C607 C605 1.433 . S
C607 N610 1.384 . S
C608 H599 0.929 . S
C608 C600 1.378 . S
C608 C603 1.350 . S
C609 H596 0.929 . S
C609 C601 1.433 . S
C609 N611 1.384 . S
N610 C606 1.427 . S
N610 C607 1.384 . S
N611 C603 1.427 . S
N611 C609 1.384 . S
C187 C5 1.739 . S
C191 C106 1.842 . S
C205 C18 1.602 . S
C209 C130 1.655 . S
C227 C150 1.258 . S
C223 C30 1.223 . S
C241 C41 1.197 . S
C245 C173 1.201 . S
C263 C132 1.934 . S
C259 C7 1.921 . S
C281 C108 1.875 . S
C277 C16 1.660 . S
C299 C176 1.642 . S
C295 C29 1.572 . S
C317 C153 1.165 . S
C313 C38 1.175 . S
C331 C8 1.551 . S
C335 C178 1.532 . S
C353 C127 1.766 . S
C349 C27 1.488 . S
C367 C40 1.614 . S
C371 C105 1.630 . S
C385 C19 1.135 . S
C389 C155 1.123 . S
C407 C109 1.690 . S
C403 C51 1.658 . S
C421 C62 1.620 . S
C425 C131 1.726 . S
C439 C74 1.586 . S
C443 C151 1.657 . S
C457 C84 1.488 . S
C461 C174 1.620 . S
C475 C49 1.832 . S
C479 C129 1.865 . S
C497 C107 1.495 . S
C493 C63 1.465 . S
C515 C177 1.396 . S
C511 C71 1.166 . S
C533 C154 1.199 . S
C529 C85 1.191 . S
C547 C52 1.863 . S
C551 C175 1.827 1_655 S
C569 C128 1.817 . S
C565 C73 1.662 . S
C587 C104 1.403 . S
C583 C82 1.058 . S
C601 C60 1.524 . S
C605 C152 1.878 . S
