# Generated by pormake.
# Topology pyr, (3,6)-cn, num edge types: 1
# Building blocks:
#     Node 0, Type 0, BuildingBlock: WUSLED_clean_sbu_0, # of connection points: 3
#     Node 1, Type 0, BuildingBlock: WUSLED_clean_sbu_0, # of connection points: 3
#     Node 2, Type 0, BuildingBlock: WUSLED_clean_sbu_0, # of connection points: 3
#     Node 3, Type 0, BuildingBlock: WUSLED_clean_sbu_0, # of connection points: 3
#     Node 4, Type 0, BuildingBlock: WUSLED_clean_sbu_0, # of connection points: 3
#     Node 5, Type 0, BuildingBlock: WUSLED_clean_sbu_0, # of connection points: 3
#     Node 6, Type 0, BuildingBlock: WUSLED_clean_sbu_0, # of connection points: 3
#     Node 7, Type 0, BuildingBlock: WUSLED_clean_sbu_0, # of connection points: 3
#     Node 8, Type 1, BuildingBlock: JUFBIX_clean_sbu_0, # of connection points: 6
#     Node 9, Type 1, BuildingBlock: JUFBIX_clean_sbu_0, # of connection points: 6
#     Node 10, Type 1, BuildingBlock: JUFBIX_clean_sbu_0, # of connection points: 6
#     Node 11, Type 1, BuildingBlock: JUFBIX_clean_sbu_0, # of connection points: 6
#     Edge 12, Type (0, 1), BuildingBlock: KIFKEQ_clean_linker_1, # of connection points: 2
#     Edge 13, Type (0, 1), BuildingBlock: KIFKEQ_clean_linker_1, # of connection points: 2
#     Edge 14, Type (0, 1), BuildingBlock: KIFKEQ_clean_linker_1, # of connection points: 2
#     Edge 15, Type (0, 1), BuildingBlock: KIFKEQ_clean_linker_1, # of connection points: 2
#     Edge 16, Type (0, 1), BuildingBlock: KIFKEQ_clean_linker_1, # of connection points: 2
#     Edge 17, Type (0, 1), BuildingBlock: KIFKEQ_clean_linker_1, # of connection points: 2
#     Edge 18, Type (0, 1), BuildingBlock: KIFKEQ_clean_linker_1, # of connection points: 2
#     Edge 19, Type (0, 1), BuildingBlock: KIFKEQ_clean_linker_1, # of connection points: 2
#     Edge 20, Type (0, 1), BuildingBlock: KIFKEQ_clean_linker_1, # of connection points: 2
#     Edge 21, Type (0, 1), BuildingBlock: KIFKEQ_clean_linker_1, # of connection points: 2
#     Edge 22, Type (0, 1), BuildingBlock: KIFKEQ_clean_linker_1, # of connection points: 2
#     Edge 23, Type (0, 1), BuildingBlock: KIFKEQ_clean_linker_1, # of connection points: 2
#     Edge 24, Type (0, 1), BuildingBlock: KIFKEQ_clean_linker_1, # of connection points: 2
#     Edge 25, Type (0, 1), BuildingBlock: KIFKEQ_clean_linker_1, # of connection points: 2
#     Edge 26, Type (0, 1), BuildingBlock: KIFKEQ_clean_linker_1, # of connection points: 2
#     Edge 27, Type (0, 1), BuildingBlock: KIFKEQ_clean_linker_1, # of connection points: 2
#     Edge 28, Type (0, 1), BuildingBlock: KIFKEQ_clean_linker_1, # of connection points: 2
#     Edge 29, Type (0, 1), BuildingBlock: KIFKEQ_clean_linker_1, # of connection points: 2
#     Edge 30, Type (0, 1), BuildingBlock: KIFKEQ_clean_linker_1, # of connection points: 2
#     Edge 31, Type (0, 1), BuildingBlock: KIFKEQ_clean_linker_1, # of connection points: 2
#     Edge 32, Type (0, 1), BuildingBlock: KIFKEQ_clean_linker_1, # of connection points: 2
#     Edge 33, Type (0, 1), BuildingBlock: KIFKEQ_clean_linker_1, # of connection points: 2
#     Edge 34, Type (0, 1), BuildingBlock: KIFKEQ_clean_linker_1, # of connection points: 2
#     Edge 35, Type (0, 1), BuildingBlock: KIFKEQ_clean_linker_1, # of connection points: 2
# Relax obj value: 0.040
# Max RMSD: 0.089
# Mean RMSD: 0.029
data_MOF--net-pry--node1-WUSLED_clean_sbu_0--node2-JUFBIX_clean_sbu_0--edge1-KIFKEQ_clean_linker_1
_symmetry_space_group_name_H-M    P1
_symmetry_Int_Tables_number       1
_symmetry_cell_setting            triclinic
loop_
_symmetry_equiv_pos_as_xyz
'x, y, z'
_cell_length_a     48.792365
_cell_length_b     46.817102
_cell_length_c     48.730532
_cell_angle_alpha  84.682697
_cell_angle_beta   90.032758
_cell_angle_gamma 92.117173
loop_
_atom_site_label
_atom_site_type_symbol
_atom_site_fract_x
_atom_site_fract_y
_atom_site_fract_z
_atom_type_partial_charge
C0 C 0.17696 0.24177 0.14049 0.0
C1 C 0.15949 0.25358 0.15903 0.0
C2 C 0.14606 0.29055 0.12302 0.0
C3 C 0.14414 0.27768 0.15037 0.0
C4 C 0.1633 0.27819 0.10456 0.0
C5 C 0.1785 0.25419 0.11319 0.0
U6 U 0.20029 0.17581 0.18885 0.0
O7 O 0.21532 0.13459 0.17718 0.0
O8 O 0.24257 0.16328 0.19874 0.0
C9 C 0.24011 0.13927 0.18676 0.0
C10 C 0.19452 0.21723 0.14888 0.0
C11 C 0.26365 0.1314 0.16986 0.0
C12 C 0.30297 0.14337 0.13925 0.0
C13 C 0.27968 0.15174 0.1532 0.0
C14 C 0.29433 0.09428 0.15812 0.0
C15 C 0.31088 0.11452 0.14182 0.0
C16 C 0.27113 0.10262 0.17188 0.0
C17 C 0.158 0.15493 0.25759 0.0
C18 C 0.14217 0.11094 0.28491 0.0
C19 C 0.14147 0.15635 0.30473 0.0
C20 C 0.15244 0.17029 0.28026 0.0
C21 C 0.13567 0.12654 0.30731 0.0
C22 C 0.15308 0.12498 0.26028 0.0
C23 C 0.16573 0.17135 0.23086 0.0
O24 O 0.21041 0.21971 0.17038 0.0
O25 O 0.18324 0.19136 0.14841 0.0
O26 O 0.16142 0.15886 0.20808 0.0
O27 O 0.18845 0.1874 0.23009 0.0
H28 H 0.15797 0.2444 0.18023 0.0
H29 H 0.13126 0.28662 0.16525 0.0
H30 H 0.16501 0.287 0.08326 0.0
H31 H 0.19173 0.24543 0.09847 0.0
H32 H 0.31519 0.15964 0.12705 0.0
H33 H 0.27447 0.17413 0.15132 0.0
H34 H 0.29929 0.07183 0.16028 0.0
H35 H 0.25916 0.08648 0.18456 0.0
H36 H 0.13789 0.088 0.28601 0.0
H37 H 0.13725 0.16908 0.32159 0.0
H38 H 0.15583 0.19339 0.27877 0.0
H39 H 0.15692 0.1125 0.24314 0.0
C40 C 0.34063 0.86406 0.61084 0.0
C41 C 0.32406 0.87682 0.62945 0.0
C42 C 0.2947 0.89501 0.59194 0.0
C43 C 0.30124 0.89186 0.62015 0.0
C44 C 0.31128 0.8821 0.57331 0.0
C45 C 0.33406 0.86671 0.58273 0.0
U46 U 0.40172 0.85983 0.65803 0.0
O47 O 0.41768 0.82363 0.68447 0.0
O48 O 0.44394 0.84653 0.6524 0.0
C49 C 0.44074 0.824 0.67051 0.0
C50 C 0.36522 0.84895 0.62063 0.0
C51 C 0.44708 0.79649 0.66036 0.0
C52 C 0.43958 0.76131 0.62734 0.0
C53 C 0.43413 0.78782 0.63665 0.0
C54 C 0.47074 0.75168 0.66558 0.0
C55 C 0.45795 0.7429 0.64169 0.0
C56 C 0.46533 0.7783 0.67483 0.0
C57 C 0.41222 0.91988 0.7053 0.0
C58 C 0.44974 0.92099 0.73798 0.0
C59 C 0.41448 0.95618 0.73766 0.0
C60 C 0.4014 0.94382 0.71595 0.0
C61 C 0.4387 0.94481 0.74909 0.0
C62 C 0.43656 0.9086 0.71624 0.0
C63 C 0.39741 0.90649 0.68338 0.0
O64 O 0.38872 0.86272 0.61454 0.0
O65 O 0.36397 0.83722 0.6462 0.0
O66 O 0.38413 0.88218 0.69122 0.0
O67 O 0.41094 0.90589 0.66013 0.0
H68 H 0.32878 0.87529 0.65126 0.0
H69 H 0.28865 0.90093 0.63519 0.0
H70 H 0.30699 0.88433 0.55143 0.0
H71 H 0.34673 0.85719 0.56804 0.0
H72 H 0.42971 0.75543 0.60865 0.0
H73 H 0.41982 0.8016 0.62535 0.0
H74 H 0.48472 0.73787 0.67729 0.0
H75 H 0.47525 0.78461 0.69335 0.0
H76 H 0.46846 0.91187 0.74616 0.0
H77 H 0.40512 0.97412 0.74603 0.0
H78 H 0.38253 0.95266 0.70778 0.0
H79 H 0.44516 0.89006 0.70818 0.0
C80 C 0.65713 0.38152 0.79746 0.0
C81 C 0.65111 0.41079 0.79627 0.0
C82 C 0.6381 0.41078 0.7478 0.0
C83 C 0.64177 0.42526 0.7717 0.0
C84 C 0.64505 0.38178 0.74888 0.0
C85 C 0.65433 0.36736 0.77338 0.0
U86 U 0.70056 0.36135 0.8633 0.0
O87 O 0.68591 0.34668 0.90526 0.0
O88 O 0.70986 0.31825 0.88205 0.0
C89 C 0.69573 0.321 0.90455 0.0
C90 C 0.66366 0.36454 0.82379 0.0
C91 C 0.67729 0.29644 0.91434 0.0
C92 C 0.64288 0.25906 0.90642 0.0
C93 C 0.65896 0.28339 0.89665 0.0
C94 C 0.66293 0.261 0.9517 0.0
C95 C 0.64493 0.24733 0.93403 0.0
C96 C 0.67891 0.28522 0.94194 0.0
C97 C 0.76773 0.40377 0.87831 0.0
C98 C 0.79015 0.4127 0.92163 0.0
C99 C 0.8166 0.41633 0.8794 0.0
C100 C 0.79302 0.4091 0.86478 0.0
C101 C 0.81548 0.4186 0.90799 0.0
C102 C 0.76654 0.40535 0.90697 0.0
C103 C 0.74294 0.39791 0.86179 0.0
O104 O 0.68501 0.34821 0.82367 0.0
O105 O 0.66137 0.3771 0.8467 0.0
O106 O 0.71907 0.40296 0.87254 0.0
O107 O 0.74261 0.37418 0.84932 0.0
H108 H 0.65287 0.42236 0.81447 0.0
H109 H 0.63643 0.4475 0.77175 0.0
H110 H 0.64299 0.37003 0.73083 0.0
H111 H 0.65868 0.3448 0.77368 0.0
H112 H 0.62938 0.24903 0.89219 0.0
H113 H 0.65739 0.29173 0.87523 0.0
H114 H 0.6647 0.25298 0.97317 0.0
H115 H 0.69284 0.29504 0.95595 0.0
H116 H 0.78836 0.41446 0.94355 0.0
H117 H 0.83575 0.42012 0.86821 0.0
H118 H 0.79451 0.40797 0.84272 0.0
H119 H 0.74732 0.40133 0.91801 0.0
C120 C 0.86771 0.60272 0.42638 0.0
C121 C 0.85667 0.62236 0.44301 0.0
C122 C 0.81501 0.59224 0.4496 0.0
C123 C 0.83051 0.6172 0.45446 0.0
C124 C 0.82663 0.57207 0.43383 0.0
C125 C 0.85276 0.57735 0.42221 0.0
U126 U 0.93315 0.64887 0.41496 0.0
O127 O 0.97485 0.63799 0.40344 0.0
O128 O 0.95164 0.66822 0.37615 0.0
C129 C 0.97328 0.65232 0.37897 0.0
C130 C 0.89384 0.6095 0.41185 0.0
C131 C 0.97935 0.63651 0.35496 0.0
C132 C 0.98203 0.5919 0.3333 0.0
C133 C 0.97841 0.60635 0.35683 0.0
C134 C 0.9878 0.63747 0.30572 0.0
C135 C 0.98633 0.60727 0.30734 0.0
C136 C 0.98446 0.65189 0.32929 0.0
C137 C 0.94528 0.71073 0.46089 0.0
C138 C 0.97659 0.75194 0.45056 0.0
C139 C 0.95106 0.74661 0.49348 0.0
C140 C 0.93907 0.72085 0.48621 0.0
C141 C 0.96946 0.76282 0.47547 0.0
C142 C 0.96453 0.72608 0.44329 0.0
C143 C 0.93003 0.68529 0.4526 0.0
O144 O 0.89478 0.63411 0.39651 0.0
O145 O 0.91616 0.6051 0.42654 0.0
O146 O 0.94224 0.66071 0.45685 0.0
O147 O 0.91772 0.68868 0.42858 0.0
H148 H 0.868 0.64203 0.44652 0.0
H149 H 0.82223 0.63294 0.46682 0.0
H150 H 0.8151 0.55277 0.42957 0.0
H151 H 0.86099 0.56201 0.40936 0.0
H152 H 0.98122 0.56866 0.33546 0.0
H153 H 0.9744 0.59388 0.37635 0.0
H154 H 0.99062 0.6501 0.2861 0.0
H155 H 0.9851 0.67515 0.32732 0.0
H156 H 0.99054 0.76401 0.43617 0.0
H157 H 0.94548 0.75416 0.51299 0.0
H158 H 0.92434 0.7092 0.50009 0.0
H159 H 0.96957 0.71852 0.42361 0.0
C160 C 0.86914 0.78783 0.91589 0.0
C161 C 0.89257 0.79141 0.93232 0.0
C162 C 0.90196 0.74026 0.93346 0.0
C163 C 0.90874 0.76804 0.94089 0.0
C164 C 0.87881 0.7368 0.91661 0.0
C165 C 0.86259 0.76017 0.90808 0.0
U166 U 0.8435 0.85619 0.87262 0.0
O167 O 0.80113 0.86876 0.86296 0.0
O168 O 0.82758 0.8958 0.8871 0.0
C169 C 0.80296 0.8915 0.87694 0.0
C170 C 0.85013 0.81193 0.90944 0.0
C171 C 0.77898 0.89796 0.89416 0.0
C172 C 0.73251 0.88725 0.91225 0.0
C173 C 0.75605 0.87892 0.89873 0.0
C174 C 0.75436 0.93361 0.91722 0.0
C175 C 0.73115 0.91488 0.92149 0.0
C176 C 0.7778 0.92528 0.90379 0.0
C177 C 0.8884 0.88367 0.80687 0.0
C178 C 0.88168 0.90437 0.75952 0.0
C179 C 0.92661 0.90724 0.78019 0.0
C180 C 0.91611 0.89285 0.80465 0.0
C181 C 0.90969 0.91296 0.75704 0.0
C182 C 0.87118 0.88983 0.78409 0.0
C183 C 0.87938 0.86492 0.83186 0.0
O184 O 0.85969 0.83808 0.91249 0.0
O185 O 0.83435 0.81085 0.88762 0.0
O186 O 0.85666 0.84908 0.83055 0.0
O187 O 0.8829 0.8751 0.85591 0.0
H188 H 0.89818 0.81222 0.93908 0.0
H189 H 0.92655 0.77177 0.95351 0.0
H190 H 0.87261 0.71578 0.91074 0.0
H191 H 0.84447 0.75639 0.8959 0.0
H192 H 0.71534 0.87199 0.91538 0.0
H193 H 0.75607 0.85776 0.89144 0.0
H194 H 0.75419 0.9552 0.92346 0.0
H195 H 0.79486 0.94066 0.90019 0.0
H196 H 0.86782 0.90868 0.7424 0.0
H197 H 0.94832 0.91291 0.77919 0.0
H198 H 0.93 0.888 0.82167 0.0
H199 H 0.84975 0.8829 0.78501 0.0
C200 C 0.59495 0.18289 0.32813 0.0
C201 C 0.58992 0.15307 0.33297 0.0
C202 C 0.58146 0.14978 0.28413 0.0
C203 C 0.58312 0.13675 0.31123 0.0
C204 C 0.58525 0.17979 0.27954 0.0
C205 C 0.59181 0.19616 0.30136 0.0
U206 U 0.65112 0.19597 0.37885 0.0
O207 O 0.67229 0.23534 0.39017 0.0
O208 O 0.65032 0.20682 0.42183 0.0
C209 C 0.66296 0.23186 0.41562 0.0
C210 C 0.60593 0.19985 0.35005 0.0
C211 C 0.64895 0.2565 0.42472 0.0
C212 C 0.61579 0.29371 0.41668 0.0
C213 C 0.62884 0.27002 0.40811 0.0
C214 C 0.64232 0.29012 0.45888 0.0
C215 C 0.62246 0.30404 0.44211 0.0
C216 C 0.65553 0.26654 0.45018 0.0
C217 C 0.71125 0.14623 0.37997 0.0
C218 C 0.75195 0.15331 0.40759 0.0
C219 C 0.74661 0.11115 0.38239 0.0
C220 C 0.7214 0.12056 0.37235 0.0
C221 C 0.76208 0.12733 0.40024 0.0
C222 C 0.72662 0.16266 0.39758 0.0
C223 C 0.68462 0.1555 0.36938 0.0
O224 O 0.60691 0.18643 0.37496 0.0
O225 O 0.62833 0.2154 0.34334 0.0
O226 O 0.68497 0.18073 0.3551 0.0
O227 O 0.66414 0.15151 0.38699 0.0
H228 H 0.59205 0.14212 0.35339 0.0
H229 H 0.57972 0.11379 0.3156 0.0
H230 H 0.58436 0.19054 0.25893 0.0
H231 H 0.59557 0.2191 0.2971 0.0
H232 H 0.60032 0.3038 0.40352 0.0
H233 H 0.62331 0.2623 0.38849 0.0
H234 H 0.64799 0.29779 0.47848 0.0
H235 H 0.67095 0.25624 0.46326 0.0
H236 H 0.76332 0.16606 0.4215 0.0
H237 H 0.75405 0.09124 0.37609 0.0
H238 H 0.70979 0.10773 0.35868 0.0
H239 H 0.71895 0.18258 0.40367 0.0
C240 C 0.28111 0.62394 0.18143 0.0
C241 C 0.26468 0.64563 0.16919 0.0
C242 C 0.23398 0.60972 0.15069 0.0
C243 C 0.24128 0.63858 0.15408 0.0
C244 C 0.2507 0.58816 0.16278 0.0
C245 C 0.27393 0.59521 0.178 0.0
U246 U 0.3454 0.67008 0.19647 0.0
O247 O 0.36174 0.68267 0.23589 0.0
O248 O 0.3864 0.65689 0.21053 0.0
C249 C 0.38443 0.66869 0.23386 0.0
C250 C 0.30553 0.63057 0.19813 0.0
C251 C 0.39378 0.65158 0.25892 0.0
C252 C 0.38536 0.62039 0.3012 0.0
C253 C 0.37559 0.63514 0.27691 0.0
C254 C 0.43151 0.63809 0.28952 0.0
C255 C 0.41349 0.62174 0.30786 0.0
C256 C 0.42176 0.65277 0.26539 0.0
C257 C 0.36364 0.73687 0.14608 0.0
C258 C 0.3997 0.77298 0.15258 0.0
C259 C 0.37466 0.77452 0.10958 0.0
C260 C 0.35917 0.75003 0.11954 0.0
C261 C 0.39501 0.7865 0.126 0.0
C262 C 0.38412 0.74837 0.16255 0.0
C263 C 0.34648 0.7114 0.15596 0.0
O264 O 0.32943 0.62757 0.18653 0.0
O265 O 0.30476 0.65367 0.21152 0.0
O266 O 0.33315 0.71283 0.1792 0.0
O267 O 0.35745 0.68642 0.15418 0.0
H268 H 0.26985 0.66801 0.17134 0.0
H269 H 0.22908 0.65574 0.1448 0.0
H270 H 0.24556 0.56572 0.1609 0.0
H271 H 0.28625 0.57812 0.18729 0.0
H272 H 0.37091 0.60781 0.31466 0.0
H273 H 0.35388 0.63388 0.27231 0.0
H274 H 0.45318 0.64015 0.29408 0.0
H275 H 0.43613 0.66548 0.25191 0.0
H276 H 0.41503 0.7817 0.16588 0.0
H277 H 0.3708 0.78394 0.08887 0.0
H278 H 0.34357 0.74137 0.10646 0.0
H279 H 0.38791 0.73846 0.18311 0.0
C280 C 0.0651 0.3165 0.63211 0.0
C281 C 0.07558 0.30988 0.60674 0.0
C282 C 0.04973 0.26412 0.61111 0.0
C283 C 0.06783 0.28393 0.59624 0.0
C284 C 0.03891 0.2712 0.63625 0.0
C285 C 0.04653 0.29717 0.64662 0.0
U286 U 0.11633 0.37943 0.63807 0.0
O287 O 0.10946 0.42367 0.64794 0.0
O288 O 0.13487 0.39538 0.67499 0.0
C289 C 0.12276 0.42007 0.67141 0.0
C290 C 0.07452 0.3425 0.64462 0.0
C291 C 0.10922 0.42982 0.69582 0.0
C292 C 0.09535 0.42218 0.74398 0.0
C293 C 0.10521 0.41153 0.72015 0.0
C294 C 0.09203 0.46922 0.71927 0.0
C295 C 0.08913 0.4513 0.74401 0.0
C296 C 0.10209 0.45861 0.6955 0.0
C297 C 0.17975 0.39119 0.59321 0.0
C298 C 0.22199 0.41433 0.60786 0.0
C299 C 0.21362 0.4108 0.55929 0.0
C300 C 0.1883 0.39666 0.56571 0.0
C301 C 0.23097 0.41954 0.58033 0.0
C302 C 0.19662 0.40056 0.6142 0.0
C303 C 0.15353 0.37541 0.59997 0.0
O304 O 0.09734 0.33993 0.6588 0.0
O305 O 0.07362 0.36684 0.62887 0.0
O306 O 0.13128 0.39013 0.59546 0.0
O307 O 0.15301 0.35951 0.62368 0.0
H308 H 0.09016 0.32447 0.59537 0.0
H309 H 0.07673 0.27894 0.57697 0.0
H310 H 0.02473 0.25652 0.64804 0.0
H311 H 0.03831 0.30192 0.66628 0.0
H312 H 0.09373 0.40779 0.76267 0.0
H313 H 0.11049 0.3892 0.72108 0.0
H314 H 0.087 0.49162 0.71837 0.0
H315 H 0.10497 0.47312 0.67699 0.0
H316 H 0.23484 0.42018 0.62473 0.0
H317 H 0.21957 0.41481 0.53784 0.0
H318 H 0.17548 0.38982 0.5492 0.0
H319 H 0.19041 0.3968 0.63561 0.0
Co320 Co 1.00093 0.02086 0.52128 0.0
C321 C 1.02014 0.96548 0.5153 0.0
Co322 Co 0.0415 1.01166 0.53905 0.0
C323 C 0.95438 0.04586 0.491 0.0
C324 C 0.94678 1.00282 0.50912 0.0
N325 N 0.96613 0.02427 0.50659 0.0
N326 N 0.9287 0.03827 0.48343 0.0
C327 C 0.92389 1.01128 0.49482 0.0
H328 H 0.9646 0.06637 0.48484 0.0
H329 H 0.94926 0.98212 0.52051 0.0
C330 C 1.02201 0.06704 0.54495 0.0
N331 N 0.07597 1.00739 0.55427 0.0
C332 C 0.09723 0.99297 0.54543 0.0
C333 C 0.08548 0.01946 0.57668 0.0
N334 N 0.11964 0.996 0.56125 0.0
C335 C 0.11239 1.01265 0.5809 0.0
C336 C 0.0433 0.03563 0.48382 0.0
O337 O 1.00072 0.05865 0.5325 0.0
O338 O 0.04154 0.04999 0.54934 0.0
O339 O 0.05776 0.02568 0.50406 0.0
O340 O 1.01734 0.03569 0.48677 0.0
O341 O 0.04104 0.97326 0.52866 0.0
H342 H 0.07362 0.03243 0.58918 0.0
H343 H 0.09645 0.98089 0.52753 0.0
O344 O 1.00137 0.98319 0.50999 0.0
O345 O 0.98475 1.00603 0.55601 0.0
O346 O 0.02511 0.99775 0.57389 0.0
C347 C 0.99915 0.99699 0.57656 0.0
H348 H 0.90501 0.99869 0.49307 0.0
H349 H 0.1255 0.01898 0.59739 0.0
Co350 Co 0.50844 0.01531 1.00933 0.0
C351 C 0.49902 0.96753 0.04756 0.0
Co352 Co 0.53141 0.01726 0.04805 0.0
C353 C 0.49656 1.01167 0.95122 0.0
C354 C 0.4604 1.01092 0.97618 0.0
N355 N 0.48804 1.01293 0.97745 0.0
N356 N 0.47529 1.00919 0.93375 0.0
C357 C 0.45254 1.0088 0.94939 0.0
H358 H 0.51791 1.01231 0.94506 0.0
H359 H 0.44674 1.01025 0.9937 0.0
C360 C 0.54083 0.06509 1.00984 0.0
N361 N 0.55109 0.01946 0.08023 0.0
C362 C 0.54961 0.03996 0.09781 0.0
C363 C 0.56885 1.00062 0.092 0.0
N364 N 0.56552 0.0346 0.12017 0.0
C365 C 0.57786 1.00996 0.11655 0.0
C366 C 0.56038 0.99177 1.00739 0.0
O367 O 0.52424 0.05159 0.99504 0.0
O368 O 0.54641 0.05405 0.03398 0.0
O369 O 0.56155 0.99932 0.03181 0.0
O370 O 0.53851 0.99626 0.99359 0.0
O371 O 0.51633 0.98058 0.06191 0.0
H372 H 0.5744 0.98103 0.08359 0.0
H373 H 0.53696 0.05846 0.09434 0.0
O374 O 0.49275 0.97898 0.0238 0.0
O375 O 0.47872 0.03451 0.02545 0.0
O376 O 0.50108 0.03511 0.06416 0.0
C377 C 0.47961 0.04084 0.05026 0.0
H378 H 0.43172 1.00599 0.94215 0.0
H379 H 0.59165 0.99899 0.13103 0.0
Co380 Co 0.54213 0.5338 0.52456 0.0
C381 C 0.49839 0.53938 0.48694 0.0
Co382 Co 0.50403 0.50968 0.53822 0.0
C383 C 0.59927 0.5491 0.51138 0.0
C384 C 0.57261 0.58424 0.50348 0.0
N385 N 0.5727 0.55614 0.51255 0.0
N386 N 0.6157 0.57187 0.50223 0.0
C387 C 0.59896 0.59398 0.49725 0.0
H388 H 0.60646 0.52787 0.51757 0.0
H389 H 0.55448 0.5969 0.5016 0.0
C390 C 0.54793 0.504 0.57573 0.0
N391 N 0.47341 0.48742 0.55045 0.0
C392 C 0.44648 0.49274 0.54737 0.0
C393 C 0.47396 0.4618 0.56559 0.0
N394 N 0.43038 0.4716 0.56036 0.0
C395 C 0.44759 0.45216 0.57187 0.0
C396 C 0.54031 0.47937 0.50842 0.0
O397 O 0.56098 0.52042 0.55755 0.0
O398 O 0.52295 0.49719 0.57134 0.0
O399 O 0.51741 0.47801 0.52103 0.0
O400 O 0.55478 0.50257 0.50701 0.0
O401 O 0.48553 0.52252 0.50491 0.0
H402 H 0.4924 0.45083 0.57178 0.0
H403 H 0.43883 0.51195 0.53634 0.0
O404 O 0.52316 0.54692 0.49163 0.0
O405 O 0.52919 0.56483 0.54236 0.0
O406 O 0.491 0.54144 0.55549 0.0
C407 C 0.50625 0.56411 0.55471 0.0
H408 H 0.60529 0.61557 0.48931 0.0
H409 H 0.44146 0.43225 0.58375 0.0
Co410 Co 0.03605 0.51564 1.01019 0.0
C411 C 0.98429 0.48894 1.0077 0.0
Co412 Co 1.01227 0.51622 0.04862 0.0
C413 C 0.04912 0.51307 0.95222 0.0
C414 C 0.08437 0.51018 0.97836 0.0
N415 N 0.05706 0.51362 0.97875 0.0
N416 N 0.07045 0.50941 0.93533 0.0
C417 C 0.09263 0.50768 0.9518 0.0
H418 H 0.02805 0.51489 0.94553 0.0
H419 H 0.09736 0.50862 0.99638 0.0
C420 C 0.06411 0.54295 0.05102 0.0
N421 N 0.99157 0.51837 0.08024 0.0
C422 C 1.00058 0.52022 0.10625 0.0
C423 C 0.96444 0.52251 0.0814 0.0
N424 N 0.98023 0.52587 0.12358 0.0
C425 C 0.95742 0.52708 0.10791 0.0
C426 C 0.04423 0.46836 0.04948 0.0
O427 O 0.06565 0.53612 0.02646 0.0
O428 O 0.04208 0.53674 0.0645 0.0
O429 O 0.02706 0.48058 0.06378 0.0
O430 O 0.05053 0.47997 0.02553 0.0
O431 O 0.98262 0.49564 0.03234 0.0
H432 H 0.95087 0.52369 0.0638 0.0
H433 H 1.02188 0.51844 0.11206 0.0
O434 O 1.00635 0.49528 0.99426 0.0
O435 O 1.0213 0.5513 0.99507 0.0
O436 O 0.9977 0.55184 0.03325 0.0
C437 C 1.00403 0.56346 1.00931 0.0
H438 H 0.11324 0.50362 0.94537 0.0
H439 H 0.93731 0.53262 0.1146 0.0
H440 H 0.09398 0.14637 0.33734 0.0
H441 H 0.1461 0.07407 0.33538 0.0
H442 H 0.07211 0.12393 0.37923 0.0
H443 H 0.12367 0.05119 0.37711 0.0
H444 H 0.09769 0.03516 0.46919 0.0
H445 H 0.1197 0.05611 0.4266 0.0
H446 H 0.04126 0.08412 0.3957 0.0
H447 H 1.01929 0.06342 0.43835 0.0
C448 C 0.10089 0.1257 0.34587 0.0
C449 C 0.12203 0.1122 0.33289 0.0
C450 C 0.08805 0.11262 0.36981 0.0
C451 C 0.09599 0.08563 0.38171 0.0
C452 C 0.11712 0.07207 0.36875 0.0
C453 C 0.12984 0.08509 0.34462 0.0
C454 C 0.08508 0.04571 0.45329 0.0
C455 C 0.05665 0.04759 0.45737 0.0
C456 C 0.09773 0.05761 0.42873 0.0
C457 C 0.08236 0.07196 0.40757 0.0
C458 C 0.05388 0.07361 0.41159 0.0
C459 C 0.04121 0.06155 0.43606 0.0
H460 H 0.4452 1.00134 0.75891 0.0
H461 H 0.46041 0.91547 0.79473 0.0
H462 H 0.45963 0.02046 0.80177 0.0
H463 H 0.47518 0.93467 0.83733 0.0
H464 H 0.51218 0.97919 0.90778 0.0
H465 H 0.50931 0.96622 0.86023 0.0
H466 H 0.43674 0.01589 0.84763 0.0
H467 H 0.43985 0.02892 0.89483 0.0
C468 C 0.45188 0.98658 0.77581 0.0
C469 C 0.45129 0.95683 0.77352 0.0
C470 C 0.46023 0.99755 0.80029 0.0
C471 C 0.46834 0.97904 0.82294 0.0
C472 C 0.46934 0.9495 0.82011 0.0
C473 C 0.46085 0.9385 0.79568 0.0
C474 C 0.49605 0.98782 0.89457 0.0
C475 C 0.47609 1.00486 0.90495 0.0
C476 C 0.49428 0.98024 0.86749 0.0
C477 C 0.47274 0.98995 0.85027 0.0
C478 C 0.45372 1.00828 0.86028 0.0
C479 C 0.45532 0.01554 0.88736 0.0
H480 H 0.60056 0.3882 0.71321 0.0
H481 H 0.64743 0.46629 0.72452 0.0
H482 H 0.58 0.41136 0.67191 0.0
H483 H 0.62597 0.48992 0.68351 0.0
H484 H 0.6016 0.51211 0.59173 0.0
H485 H 0.62397 0.49035 0.63311 0.0
H486 H 0.54725 0.44743 0.6593 0.0
H487 H 0.52514 0.46863 0.618 0.0
C488 C 0.60664 0.4103 0.70683 0.0
C489 C 0.62582 0.42527 0.72226 0.0
C490 C 0.59453 0.42374 0.68327 0.0
C491 C 0.60113 0.45263 0.67438 0.0
C492 C 0.6205 0.4676 0.68961 0.0
C493 C 0.63262 0.45413 0.71331 0.0
C494 C 0.58951 0.49811 0.60639 0.0
C495 C 0.56157 0.49206 0.60141 0.0
C496 C 0.60231 0.48572 0.63019 0.0
C497 C 0.58751 0.46691 0.64952 0.0
C498 C 0.55947 0.46134 0.64468 0.0
C499 C 0.54671 0.4737 0.621 0.0
H500 H 1.01887 0.62128 0.26173 0.0
H501 H 0.95742 0.5587 0.29504 0.0
H502 H 1.0183 0.59909 0.21858 0.0
H503 H 0.95829 0.5353 0.2526 0.0
H504 H 0.93963 0.52577 0.16173 0.0
H505 H 0.94276 0.54346 0.20687 0.0
H506 H 0.03007 0.55896 0.19559 0.0
H507 H 0.02667 0.54304 0.1497 0.0
C508 C 1.00539 0.60265 0.25998 0.0
C509 C 0.98801 0.59202 0.28189 0.0
C510 C 1.00538 0.5896 0.23531 0.0
C511 C 0.98817 0.56539 0.23196 0.0
C512 C 0.97149 0.55417 0.25422 0.0
C513 C 0.9713 0.56738 0.27879 0.0
C514 C 0.95951 0.53305 0.16872 0.0
C515 C 0.98278 0.53324 0.15167 0.0
C516 C 0.96138 0.54286 0.1949 0.0
C517 C 0.98666 0.55284 0.20494 0.0
C518 C 1.01016 0.55193 0.18838 0.0
C519 C 1.00824 0.54237 0.16208 0.0
H520 H 0.34847 0.07598 0.16272 0.0
H521 H 0.33153 0.13222 0.08991 0.0
H522 H 0.38883 0.05951 0.14041 0.0
H523 H 0.37255 0.11627 0.06776 0.0
H524 H 0.43045 0.05604 0.02638 0.0
H525 H 0.39062 0.0749 0.04805 0.0
H526 H 0.43454 0.07393 0.12505 0.0
H527 H 0.47417 0.05477 0.10349 0.0
C528 C 0.35329 0.08487 0.1419 0.0
C529 C 0.3364 0.10538 0.12816 0.0
C530 C 0.37676 0.07563 0.12916 0.0
C531 C 0.3842 0.08647 0.10216 0.0
C532 C 0.36745 0.10714 0.08843 0.0
C533 C 0.344 0.11655 0.10128 0.0
C534 C 0.43169 0.05997 0.04791 0.0
C535 C 0.45564 0.05372 0.06312 0.0
C536 C 0.40881 0.07097 0.06035 0.0
C537 C 0.4091 0.07593 0.08845 0.0
C538 C 0.43324 0.07004 0.10352 0.0
C539 C 0.45613 0.05917 0.09106 0.0
H540 H 0.2776 0.94456 0.61067 0.0
H541 H 0.2576 0.88397 0.55133 0.0
H542 H 0.23616 0.96956 0.59897 0.0
H543 H 0.21685 0.9105 0.53792 0.0
H544 H 0.12872 0.9413 0.55191 0.0
H545 H 0.17276 0.91798 0.55501 0.0
H546 H 0.21343 0.99962 0.56689 0.0
H547 H 0.16913 0.02213 0.56541 0.0
C548 C 0.26444 0.93668 0.59491 0.0
C549 C 0.27074 0.91191 0.58232 0.0
C550 C 0.24082 0.9514 0.58777 0.0
C551 C 0.223 0.94215 0.56741 0.0
C552 C 0.22985 0.91803 0.55397 0.0
C553 C 0.25342 0.90301 0.56141 0.0
C554 C 0.14724 0.95414 0.55478 0.0
C555 C 0.14572 0.9833 0.55882 0.0
C556 C 0.1725 0.9409 0.55644 0.0
C557 C 0.19673 0.95678 0.56167 0.0
C558 C 0.19518 0.98647 0.56372 0.0
C559 C 0.16991 0.99948 0.56269 0.0
H560 H 0.85547 0.45894 0.89049 0.0
H561 H 0.83231 0.39922 0.96026 0.0
H562 H 0.8963 0.47379 0.9149 0.0
H563 H 0.87319 0.41439 0.98485 0.0
H564 H 0.93349 0.47371 0.02981 0.0
H565 H 0.89308 0.45572 1.00626 0.0
H566 H 0.94021 0.45629 0.93121 0.0
H567 H 0.98044 0.4746 0.95458 0.0
C568 C 0.85919 0.44869 0.91093 0.0
C569 C 0.84051 0.42769 0.92325 0.0
C570 C 0.88268 0.45727 0.92497 0.0
C571 C 0.88821 0.44522 0.95184 0.0
C572 C 0.86948 0.42436 0.9643 0.0
C573 C 0.84598 0.41568 0.95018 0.0
C574 C 0.93531 0.46976 1.00835 0.0
C575 C 0.96026 0.4757 0.99411 0.0
C576 C 0.91213 0.45934 0.99485 0.0
C577 C 0.91326 0.45471 0.96674 0.0
C578 C 0.93841 0.46003 0.95273 0.0
C579 C 0.96158 0.47035 0.96622 0.0
H580 H 0.77545 0.63182 0.44631 0.0
H581 H 0.78945 0.54347 0.47468 0.0
H582 H 0.72788 0.6255 0.46093 0.0
H583 H 0.74171 0.53716 0.49009 0.0
H584 H 0.64658 0.53024 0.48459 0.0
H585 H 0.69554 0.5341 0.4734 0.0
H586 H 0.69978 0.6195 0.50056 0.0
H587 H 0.6509 0.61578 0.51076 0.0
C588 C 0.76843 0.61114 0.45613 0.0
C589 C 0.78624 0.5882 0.45952 0.0
C590 C 0.74112 0.60749 0.4646 0.0
C591 C 0.7309 0.58087 0.47696 0.0
C592 C 0.74877 0.55788 0.48041 0.0
C593 C 0.77613 0.56149 0.47167 0.0
C594 C 0.65816 0.54964 0.4884 0.0
C595 C 0.64494 0.57285 0.49818 0.0
C596 C 0.68621 0.55188 0.48207 0.0
C597 C 0.70162 0.57729 0.48571 0.0
C598 C 0.68848 0.59993 0.49674 0.0
C599 C 0.66049 0.5978 0.5027 0.0
H600 H 0.16401 0.33733 0.08875 0.0
H601 H 0.09318 0.30397 0.13602 0.0
H602 H 0.13899 0.3793 0.07186 0.0
H603 H 0.0679 0.34612 0.1189 0.0
H604 H 0.03943 0.4396 0.1014 0.0
H605 H 0.0635 0.39715 0.11998 0.0
H606 H 0.10322 0.3936 0.04124 0.0
H607 H 0.07979 0.4362 0.02302 0.0
C608 C 0.14297 0.33876 0.09539 0.0
C609 C 0.13065 0.31691 0.11362 0.0
C610 C 0.12852 0.36296 0.08562 0.0
C611 C 0.10116 0.36621 0.09366 0.0
C612 C 0.08896 0.34464 0.11234 0.0
C613 C 0.10349 0.32038 0.1222 0.0
C614 C 0.05323 0.42969 0.08803 0.0
C615 C 0.05766 0.44152 0.06069 0.0
C616 C 0.067 0.40519 0.09867 0.0
C617 C 0.0856 0.39183 0.08228 0.0
C618 C 0.08957 0.40347 0.05479 0.0
C619 C 0.07589 0.4279 0.04421 0.0
H620 H 0.59131 0.23179 0.92298 0.0
H621 H 0.66236 0.20217 0.96854 0.0
H622 H 0.56519 0.18859 0.94116 0.0
H623 H 0.63643 0.15917 0.98658 0.0
H624 H 0.57596 0.09989 0.03666 0.0
H625 H 0.59992 0.14406 1.01821 0.0
H626 H 0.56114 0.13698 0.9393 0.0
H627 H 0.53667 0.093 0.95797 0.0
C628 C 0.60144 0.21599 0.93668 0.0
C629 C 0.62892 0.22067 0.94444 0.0
C630 C 0.58646 0.19119 0.94713 0.0
C631 C 0.59858 0.1704 0.96557 0.0
C632 C 0.62616 0.17495 0.97296 0.0
C633 C 0.64109 0.19967 0.96256 0.0
C634 C 0.5724 0.10779 1.0154 0.0
C635 C 0.5544 0.09278 0.99881 0.0
C636 C 0.58632 0.13308 1.00474 0.0
C637 C 0.58271 0.14407 0.97714 0.0
C638 C 0.56428 0.12935 0.96069 0.0
C639 C 0.55032 0.10402 0.97138 0.0
H640 H 1.02147 0.78756 0.46919 0.0
H641 H 0.93953 0.80409 0.49563 0.0
H642 H 0.03636 0.83663 0.47777 0.0
H643 H 0.95443 0.85241 0.50461 0.0
H644 H 0.97883 0.9451 0.48435 0.0
H645 H 0.96899 0.896 0.47438 0.0
H646 H 0.04222 0.86908 0.51768 0.0
H647 H 0.05239 0.91884 0.5277 0.0
C648 C 1.00671 0.80159 0.47691 0.0
C649 C 0.97933 0.79192 0.48177 0.0
C650 C 1.01528 0.82954 0.48201 0.0
C651 C 0.99651 0.84839 0.49166 0.0
C652 C 0.9693 0.83851 0.49686 0.0
C653 C 0.96083 0.81068 0.49199 0.0
C654 C 0.99305 0.92888 0.49165 0.0
C655 C 1.01627 0.93589 0.50712 0.0
C656 C 0.9873 0.90066 0.486 0.0
C657 C 1.00458 0.87863 0.49563 0.0
C658 C 0.02854 0.88568 0.51001 0.0
C659 C 0.03431 0.91411 0.51579 0.0
H660 H 0.42227 0.70447 0.61989 0.0
H661 H 0.50775 0.71825 0.63993 0.0
H662 H 0.43324 0.66054 0.59963 0.0
H663 H 0.51846 0.67372 0.62091 0.0
H664 H 0.53309 0.61616 0.55287 0.0
H665 H 0.52065 0.65797 0.57527 0.0
H666 H 0.44868 0.61159 0.61002 0.0
H667 H 0.46088 0.56957 0.58692 0.0
C668 C 0.44337 0.69805 0.62011 0.0
C669 C 0.46418 0.71501 0.63131 0.0
C670 C 0.44959 0.67269 0.60881 0.0
C671 C 0.47675 0.66374 0.60849 0.0
C672 C 0.49739 0.68025 0.62045 0.0
C673 C 0.4912 0.70561 0.63167 0.0
C674 C 0.51459 0.61477 0.56528 0.0
C675 C 0.498 0.58948 0.56818 0.0
C676 C 0.50757 0.63873 0.5783 0.0
C677 C 0.48384 0.63803 0.59468 0.0
C678 C 0.46703 0.61284 0.59741 0.0
C679 C 0.47405 0.58877 0.58426 0.0
H680 H 0.95068 0.9552 0.74925 0.0
H681 H 0.89609 0.90223 0.70384 0.0
H682 H 0.97192 0.97546 0.7062 0.0
H683 H 0.91706 0.92297 0.66076 0.0
H684 H 0.94424 0.98661 0.58705 0.0
H685 H 0.92218 0.96742 0.63018 0.0
H686 H 1.00141 0.96162 0.66936 0.0
H687 H 0.02348 0.98101 0.62626 0.0
C688 C 0.9432 0.94771 0.73017 0.0
C689 C 0.9216 0.92682 0.73033 0.0
C690 C 0.95544 0.95942 0.70537 0.0
C691 C 0.94638 0.95083 0.67986 0.0
C692 C 0.92444 0.93041 0.67992 0.0
C693 C 0.9123 0.91854 0.70475 0.0
C694 C 0.957 0.98131 0.60486 0.0
C695 C 0.98571 0.98543 0.60307 0.0
C696 C 0.94432 0.97011 0.62961 0.0
C697 C 0.95992 0.9629 0.6534 0.0
C698 C 0.98864 0.9672 0.65163 0.0
C699 C 1.00135 0.97819 0.62681 0.0
H700 H 0.60327 0.09787 0.27751 0.0
H701 H 0.5511 0.16154 0.23725 0.0
H702 H 0.5983 0.06938 0.23851 0.0
H703 H 0.54756 0.13388 0.1974 0.0
H704 H 0.52522 0.06384 0.14158 0.0
H705 H 0.52805 0.09098 0.18185 0.0
H706 H 0.61319 0.06977 0.19209 0.0
H707 H 0.60994 0.04197 0.15219 0.0
C708 C 0.59057 0.10574 0.26042 0.0
C709 C 0.5775 0.132 0.2606 0.0
C710 C 0.5881 0.08959 0.23781 0.0
C711 C 0.57271 0.0994 0.21467 0.0
C712 C 0.55937 0.12551 0.21496 0.0
C713 C 0.56167 0.14157 0.23769 0.0
C714 C 0.54457 0.06518 0.15236 0.0
C715 C 0.56741 0.05088 0.14375 0.0
C716 C 0.54622 0.08075 0.17542 0.0
C717 C 0.57086 0.08262 0.19025 0.0
C718 C 0.59374 0.06837 0.1815 0.0
C719 C 0.59197 0.05253 0.15859 0.0
H720 H 0.38996 0.61625 0.35957 0.0
H721 H 0.46148 0.59333 0.31548 0.0
H722 H 0.40942 0.59504 0.40265 0.0
H723 H 0.48094 0.57248 0.35844 0.0
H724 H 0.52174 0.57196 0.44307 0.0
H725 H 0.50018 0.59005 0.40021 0.0
H726 H 0.42298 0.54954 0.4282 0.0
H727 H 0.44458 0.53153 0.47144 0.0
C728 C 0.40964 0.60636 0.35895 0.0
C729 C 0.42422 0.60683 0.33397 0.0
C730 C 0.42083 0.59423 0.3837 0.0
C731 C 0.44692 0.58232 0.38412 0.0
C732 C 0.46108 0.58201 0.35903 0.0
C733 C 0.44989 0.59401 0.33433 0.0
C734 C 0.50017 0.56683 0.44016 0.0
C735 C 0.48495 0.55021 0.46077 0.0
C736 C 0.48781 0.57708 0.41544 0.0
C737 C 0.45984 0.57115 0.41061 0.0
C738 C 0.44451 0.55469 0.43129 0.0
C739 C 0.45694 0.54424 0.45603 0.0
H740 H 0.05655 0.42625 0.78629 0.0
H741 H 0.10501 0.50342 0.76128 0.0
H742 H 0.04943 0.44338 0.83136 0.0
H743 H 0.09655 0.5212 0.80565 0.0
H744 H 0.11174 0.52109 0.89862 0.0
H745 H 0.11295 0.50939 0.85118 0.0
H746 H 0.02861 0.47791 0.85799 0.0
H747 H 0.02786 0.48852 0.90613 0.0
C748 C 0.06541 0.44702 0.79025 0.0
C749 C 0.08163 0.46326 0.77018 0.0
C750 C 0.061 0.45703 0.816 0.0
C751 C 0.07262 0.48359 0.82227 0.0
C752 C 0.08768 0.50044 0.80171 0.0
C753 C 0.09222 0.49037 0.77606 0.0
C754 C 0.09344 0.51167 0.89005 0.0
C755 C 0.06983 0.50545 0.90632 0.0
C756 C 0.094 0.5053 0.86266 0.0
C757 C 0.07088 0.49264 0.8507 0.0
C758 C 0.04688 0.48734 0.86665 0.0
C759 C 0.04635 0.49372 0.89416 0.0
H760 H 0.6768 0.90198 0.90987 0.0
H761 H 0.72713 0.95004 0.96366 0.0
H762 H 0.63567 0.91867 0.93085 0.0
H763 H 0.68619 0.96787 0.98356 0.0
H764 H 0.60841 0.97592 0.03277 0.0
H765 H 0.64847 0.95607 1.01287 0.0
H766 H 0.60805 0.959 0.93382 0.0
H767 H 0.56757 0.97811 0.95406 0.0
C768 C 0.67922 0.916 0.92624 0.0
C769 C 0.70561 0.92454 0.9349 0.0
C770 C 0.65548 0.92596 0.93807 0.0
C771 C 0.65727 0.94482 0.95902 0.0
C772 C 0.68367 0.95314 0.9678 0.0
C773 C 0.70736 0.94315 0.95603 0.0
C774 C 0.60796 0.97224 1.01115 0.0
C775 C 0.5846 0.97873 0.9951 0.0
C776 C 0.63115 0.96099 0.9996 0.0
C777 C 0.63191 0.95596 0.97153 0.0
C778 C 0.60835 0.96215 0.95555 0.0
C779 C 0.58507 0.97331 0.96716 0.0
H780 H 0.81098 0.15731 0.40535 0.0
H781 H 0.77218 0.07297 0.42122 0.0
H782 H 0.8545 0.13834 0.42273 0.0
H783 H 0.81518 0.0542 0.43863 0.0
H784 H 0.8979 0.01986 0.44274 0.0
H785 H 0.85938 0.04402 0.42029 0.0
H786 H 0.8767 0.11774 0.46557 0.0
H787 H 0.91602 0.09347 0.48744 0.0
C788 C 0.81173 0.1348 0.41272 0.0
C789 C 0.7883 0.11652 0.41162 0.0
C790 C 0.8366 0.12397 0.42262 0.0
C791 C 0.83839 0.09469 0.43159 0.0
C792 C 0.81472 0.07669 0.43111 0.0
C793 C 0.79003 0.08744 0.4212 0.0
C794 C 0.89369 0.04144 0.44744 0.0
C795 C 0.90954 0.05477 0.46694 0.0
C796 C 0.87159 0.0552 0.43479 0.0
C797 C 0.86457 0.08249 0.4417 0.0
C798 C 0.8816 0.0967 0.45984 0.0
C799 C 0.90405 0.08293 0.47232 0.0
H800 H 0.22829 0.56928 0.11364 0.0
H801 H 0.18295 0.63254 0.15184 0.0
H802 H 0.18711 0.55518 0.08913 0.0
H803 H 0.14182 0.61889 0.12675 0.0
H804 H 0.06777 0.56053 0.10313 0.0
H805 H 0.10856 0.57822 0.12624 0.0
H806 H 0.15619 0.5726 0.05241 0.0
H807 H 0.11554 0.55464 0.02938 0.0
C808 C 0.20954 0.58023 0.11679 0.0
C809 C 0.20898 0.602 0.13483 0.0
C810 C 0.18595 0.57235 0.10249 0.0
C811 C 0.16107 0.5859 0.1059 0.0
C812 C 0.16054 0.60782 0.12379 0.0
C813 C 0.18421 0.61585 0.13797 0.0
C814 C 0.08688 0.56332 0.09172 0.0
C815 C 0.08832 0.55608 0.06437 0.0
C816 C 0.11028 0.57358 0.10496 0.0
C817 C 0.13576 0.57671 0.09127 0.0
C818 C 0.13703 0.57007 0.06373 0.0
C819 C 0.11363 0.55996 0.05044 0.0
H820 H 0.26703 0.40754 0.5399 0.0
H821 H 0.25833 0.46174 0.60638 0.0
H822 H 0.31431 0.42557 0.53297 0.0
H823 H 0.30604 0.47847 0.60015 0.0
H824 H 0.40017 0.45526 0.60549 0.0
H825 H 0.35034 0.44755 0.60798 0.0
H826 H 0.34431 0.47472 0.52116 0.0
H827 H 0.39443 0.48307 0.51891 0.0
C828 C 0.2749 0.42365 0.55271 0.0
C829 C 0.2588 0.43284 0.57398 0.0
C830 C 0.30206 0.43389 0.54874 0.0
C831 C 0.31379 0.45322 0.56616 0.0
C832 C 0.2975 0.46334 0.58663 0.0
C833 C 0.27024 0.45351 0.59031 0.0
C834 C 0.3881 0.45991 0.58706 0.0
C835 C 0.40097 0.46968 0.56202 0.0
C836 C 0.35967 0.45567 0.58849 0.0
C837 C 0.34357 0.46056 0.56475 0.0
C838 C 0.35634 0.4708 0.53972 0.0
C839 C 0.38485 0.4757 0.53846 0.0
H840 H 0.91616 0.69366 0.90638 0.0
H841 H 0.92488 0.72907 0.98478 0.0
H842 H 0.94124 0.65179 0.92436 0.0
H843 H 0.95072 0.6878 1.00237 0.0
H844 H 0.96764 0.59517 0.03531 0.0
H845 H 0.94402 0.6376 1.01674 0.0
H846 H 0.98599 0.63531 0.93903 0.0
H847 H 1.00939 0.59241 0.95757 0.0
C848 C 0.92344 0.69261 0.92744 0.0
C849 C 0.91833 0.71495 0.94404 0.0
C850 C 0.93815 0.66866 0.93768 0.0
C851 C 0.9481 0.66618 0.96492 0.0
C852 C 0.94318 0.68864 0.98143 0.0
C853 C 0.92858 0.7126 0.97116 0.0
C854 C 0.97199 0.60372 1.01428 0.0
C855 C 0.99055 0.59024 0.99802 0.0
C856 C 0.95848 0.62826 1.00363 0.0
C857 C 0.96301 0.64014 0.9763 0.0
C858 C 0.98167 0.62671 0.96004 0.0
C859 C 0.99529 0.60216 0.97076 0.0
H860 H 0.37612 0.83393 0.0957 0.0
H861 H 0.45005 0.79952 0.13217 0.0
H862 H 0.40205 0.87663 0.07684 0.0
H863 H 0.47608 0.84248 0.11329 0.0
H864 H 0.5067 0.93764 0.09798 0.0
H865 H 0.48221 0.89394 0.11731 0.0
H866 H 0.43615 0.89121 0.04182 0.0
H867 H 0.46022 0.93507 0.0227 0.0
C868 C 0.39798 0.83533 0.09952 0.0
C869 C 0.41098 0.81307 0.11533 0.0
C870 C 0.41288 0.85988 0.08867 0.0
C871 C 0.44124 0.86298 0.09331 0.0
C872 C 0.45422 0.84096 0.10949 0.0
C873 C 0.43928 0.81631 0.12035 0.0
C874 C 0.49144 0.92764 0.08545 0.0
C875 C 0.48538 0.93998 0.0588 0.0
C876 C 0.47747 0.90248 0.09651 0.0
C877 C 0.45704 0.88908 0.08123 0.0
C878 C 0.4514 0.90118 0.05438 0.0
C879 C 0.46537 0.92627 0.04332 0.0
H880 H 0.04872 0.21208 0.64129 0.0
H881 H 0.03649 0.25148 0.55872 0.0
H882 H 0.04003 0.16481 0.62525 0.0
H883 H 0.02813 0.2039 0.54254 0.0
H884 H 0.989 0.11274 0.53229 0.0
H885 H 0.99404 0.16089 0.54812 0.0
H886 H 0.0657 0.13503 0.59472 0.0
H887 H 0.06079 0.0873 0.57908 0.0
C888 C 0.04389 0.21066 0.61975 0.0
C889 C 0.04329 0.23552 0.60127 0.0
C890 C 0.03915 0.18356 0.61053 0.0
C891 C 0.03352 0.18065 0.58262 0.0
C892 C 0.03226 0.20551 0.56419 0.0
C893 C 0.03728 0.23269 0.5734 0.0
C894 C 1.00577 0.11737 0.54597 0.0
C895 C 0.02446 0.09618 0.55446 0.0
C896 C 1.00872 0.14494 0.55489 0.0
C897 C 0.03019 0.15165 0.57276 0.0
C898 C 0.04875 0.1304 0.58126 0.0
C899 C 0.046 0.10307 0.57214 0.0
H900 H 0.6138 0.35461 0.41142 0.0
H901 H 0.60086 0.31091 0.49264 0.0
H902 H 0.59225 0.39698 0.42609 0.0
H903 H 0.57966 0.35345 0.50743 0.0
H904 H 0.51866 0.42451 0.51477 0.0
H905 H 0.53737 0.38183 0.4977 0.0
H906 H 0.6041 0.43376 0.45894 0.0
H907 H 0.58545 0.47647 0.47587 0.0
C908 C 0.60619 0.35403 0.43235 0.0
C909 C 0.609 0.32952 0.45092 0.0
C910 C 0.59407 0.37833 0.44078 0.0
C911 C 0.58431 0.37847 0.46788 0.0
C912 C 0.58679 0.35382 0.48635 0.0
C913 C 0.59914 0.32961 0.47798 0.0
C914 C 0.5372 0.42686 0.50241 0.0
C915 C 0.55061 0.45384 0.49669 0.0
C916 C 0.54798 0.4024 0.49281 0.0
C917 C 0.57221 0.40451 0.47709 0.0
C918 C 0.58526 0.43157 0.47082 0.0
C919 C 0.57463 0.45599 0.48062 0.0
loop_
_geom_bond_atom_site_label_1
_geom_bond_atom_site_label_2
_geom_bond_distance
_geom_bond_site_symmetry_2
_ccdc_geom_bond_type
C0 C1 1.264 . S
C0 C5 1.479 . S
C0 C10 1.465 . S
C1 C0 1.264 . S
C1 C3 1.339 . S
C1 H28 0.931 . S
C2 C3 1.395 . S
C2 C4 1.320 . S
C3 C1 1.339 . S
C3 C2 1.395 . S
C3 H29 0.929 . S
C4 C2 1.320 . S
C4 C5 1.405 . S
C4 H30 0.930 . S
C5 C0 1.479 . S
C5 C4 1.405 . S
C5 H31 0.931 . S
U6 O7 2.454 . S
U6 O8 2.458 . S
U6 C9 2.984 . S
U6 C10 2.847 . S
U6 C23 2.882 . S
U6 O24 2.441 . S
U6 O25 2.420 . S
U6 O26 2.455 . S
U6 O27 2.449 . S
O7 U6 2.454 . S
O7 C9 1.353 . S
O8 U6 2.458 . S
O8 C9 1.286 . S
C9 U6 2.984 . S
C9 O7 1.353 . S
C9 O8 1.286 . S
C9 C11 1.363 . S
C10 C0 1.465 . S
C10 U6 2.847 . S
C10 O24 1.249 . S
C10 O25 1.202 . S
C11 C9 1.363 . S
C11 C13 1.408 . S
C11 C16 1.342 . S
C12 C13 1.310 . S
C12 C15 1.461 . S
C12 H32 0.932 . S
C13 C11 1.408 . S
C13 C12 1.310 . S
C13 H33 0.930 . S
C14 C15 1.474 . S
C14 C16 1.285 . S
C14 H34 0.929 . S
C15 C12 1.461 . S
C15 C14 1.474 . S
C16 C11 1.342 . S
C16 C14 1.285 . S
C16 H35 0.930 . S
C17 C20 1.424 . S
C17 C22 1.245 . S
C17 C23 1.428 . S
C18 C21 1.260 . S
C18 C22 1.477 . S
C18 H36 0.932 . S
C19 C20 1.384 . S
C19 C21 1.479 . S
C19 H37 0.929 . S
C20 C17 1.424 . S
C20 C19 1.384 . S
C20 H38 0.928 . S
C21 C18 1.260 . S
C21 C19 1.479 . S
C22 C17 1.245 . S
C22 C18 1.477 . S
C22 H39 0.932 . S
C23 U6 2.882 . S
C23 C17 1.428 . S
C23 O26 1.301 . S
C23 O27 1.282 . S
O24 U6 2.441 . S
O24 C10 1.249 . S
O25 U6 2.420 . S
O25 C10 1.202 . S
O26 U6 2.455 . S
O26 C23 1.301 . S
O27 U6 2.449 . S
O27 C23 1.282 . S
H28 C1 0.931 . S
H29 C3 0.929 . S
H30 C4 0.930 . S
H31 C5 0.931 . S
H32 C12 0.932 . S
H33 C13 0.930 . S
H34 C14 0.929 . S
H35 C16 0.930 . S
H36 C18 0.932 . S
H37 C19 0.929 . S
H38 C20 0.928 . S
H39 C22 0.932 . S
C40 C41 1.264 . S
C40 C45 1.479 . S
C40 C50 1.465 . S
C41 C40 1.264 . S
C41 C43 1.339 . S
C41 H68 0.931 . S
C42 C43 1.395 . S
C42 C44 1.320 . S
C43 C41 1.339 . S
C43 C42 1.395 . S
C43 H69 0.929 . S
C44 C42 1.320 . S
C44 C45 1.405 . S
C44 H70 0.930 . S
C45 C40 1.479 . S
C45 C44 1.405 . S
C45 H71 0.931 . S
U46 O47 2.454 . S
U46 O48 2.458 . S
U46 C49 2.984 . S
U46 C50 2.847 . S
U46 C63 2.882 . S
U46 O64 2.441 . S
U46 O65 2.420 . S
U46 O66 2.455 . S
U46 O67 2.449 . S
O47 U46 2.454 . S
O47 C49 1.353 . S
O48 U46 2.458 . S
O48 C49 1.286 . S
C49 U46 2.984 . S
C49 O47 1.353 . S
C49 O48 1.286 . S
C49 C51 1.363 . S
C50 C40 1.465 . S
C50 U46 2.847 . S
C50 O64 1.249 . S
C50 O65 1.202 . S
C51 C49 1.363 . S
C51 C53 1.408 . S
C51 C56 1.342 . S
C52 C53 1.310 . S
C52 C55 1.461 . S
C52 H72 0.932 . S
C53 C51 1.408 . S
C53 C52 1.310 . S
C53 H73 0.930 . S
C54 C55 1.474 . S
C54 C56 1.285 . S
C54 H74 0.929 . S
C55 C52 1.461 . S
C55 C54 1.474 . S
C56 C51 1.342 . S
C56 C54 1.285 . S
C56 H75 0.930 . S
C57 C60 1.424 . S
C57 C62 1.245 . S
C57 C63 1.428 . S
C58 C61 1.260 . S
C58 C62 1.477 . S
C58 H76 0.932 . S
C59 C60 1.384 . S
C59 C61 1.479 . S
C59 H77 0.929 . S
C60 C57 1.424 . S
C60 C59 1.384 . S
C60 H78 0.928 . S
C61 C58 1.260 . S
C61 C59 1.479 . S
C62 C57 1.245 . S
C62 C58 1.477 . S
C62 H79 0.932 . S
C63 U46 2.882 . S
C63 C57 1.428 . S
C63 O66 1.301 . S
C63 O67 1.282 . S
O64 U46 2.441 . S
O64 C50 1.249 . S
O65 U46 2.420 . S
O65 C50 1.202 . S
O66 U46 2.455 . S
O66 C63 1.301 . S
O67 U46 2.449 . S
O67 C63 1.282 . S
H68 C41 0.931 . S
H69 C43 0.929 . S
H70 C44 0.930 . S
H71 C45 0.931 . S
H72 C52 0.932 . S
H73 C53 0.930 . S
H74 C54 0.929 . S
H75 C56 0.930 . S
H76 C58 0.932 . S
H77 C59 0.929 . S
H78 C60 0.928 . S
H79 C62 0.932 . S
C80 C81 1.264 . S
C80 C85 1.479 . S
C80 C90 1.465 . S
C81 C80 1.264 . S
C81 C83 1.339 . S
C81 H108 0.931 . S
C82 C83 1.395 . S
C82 C84 1.320 . S
C83 C81 1.339 . S
C83 C82 1.395 . S
C83 H109 0.929 . S
C84 C82 1.320 . S
C84 C85 1.405 . S
C84 H110 0.930 . S
C85 C80 1.479 . S
C85 C84 1.405 . S
C85 H111 0.931 . S
U86 O87 2.454 . S
U86 O88 2.458 . S
U86 C89 2.984 . S
U86 C90 2.847 . S
U86 C103 2.882 . S
U86 O104 2.441 . S
U86 O105 2.420 . S
U86 O106 2.455 . S
U86 O107 2.449 . S
O87 U86 2.454 . S
O87 C89 1.353 . S
O88 U86 2.458 . S
O88 C89 1.286 . S
C89 U86 2.984 . S
C89 O87 1.353 . S
C89 O88 1.286 . S
C89 C91 1.363 . S
C90 C80 1.465 . S
C90 U86 2.847 . S
C90 O104 1.249 . S
C90 O105 1.202 . S
C91 C89 1.363 . S
C91 C93 1.408 . S
C91 C96 1.342 . S
C92 C93 1.310 . S
C92 C95 1.461 . S
C92 H112 0.932 . S
C93 C91 1.408 . S
C93 C92 1.310 . S
C93 H113 0.930 . S
C94 C95 1.474 . S
C94 C96 1.285 . S
C94 H114 0.929 . S
C95 C92 1.461 . S
C95 C94 1.474 . S
C96 C91 1.342 . S
C96 C94 1.285 . S
C96 H115 0.930 . S
C97 C100 1.424 . S
C97 C102 1.245 . S
C97 C103 1.428 . S
C98 C101 1.260 . S
C98 C102 1.477 . S
C98 H116 0.932 . S
C99 C100 1.384 . S
C99 C101 1.479 . S
C99 H117 0.929 . S
C100 C97 1.424 . S
C100 C99 1.384 . S
C100 H118 0.928 . S
C101 C98 1.260 . S
C101 C99 1.479 . S
C102 C97 1.245 . S
C102 C98 1.477 . S
C102 H119 0.932 . S
C103 U86 2.882 . S
C103 C97 1.428 . S
C103 O106 1.301 . S
C103 O107 1.282 . S
O104 U86 2.441 . S
O104 C90 1.249 . S
O105 U86 2.420 . S
O105 C90 1.202 . S
O106 U86 2.455 . S
O106 C103 1.301 . S
O107 U86 2.449 . S
O107 C103 1.282 . S
H108 C81 0.931 . S
H109 C83 0.929 . S
H110 C84 0.930 . S
H111 C85 0.931 . S
H112 C92 0.932 . S
H113 C93 0.930 . S
H114 C94 0.929 . S
H115 C96 0.930 . S
H116 C98 0.932 . S
H117 C99 0.929 . S
H118 C100 0.928 . S
H119 C102 0.932 . S
C120 C121 1.264 . S
C120 C125 1.479 . S
C120 C130 1.465 . S
C121 C120 1.264 . S
C121 C123 1.339 . S
C121 H148 0.931 . S
C122 C123 1.395 . S
C122 C124 1.320 . S
C123 C121 1.339 . S
C123 C122 1.395 . S
C123 H149 0.929 . S
C124 C122 1.320 . S
C124 C125 1.405 . S
C124 H150 0.930 . S
C125 C120 1.479 . S
C125 C124 1.405 . S
C125 H151 0.931 . S
U126 O127 2.454 . S
U126 O128 2.458 . S
U126 C129 2.984 . S
U126 C130 2.847 . S
U126 C143 2.882 . S
U126 O144 2.441 . S
U126 O145 2.420 . S
U126 O146 2.455 . S
U126 O147 2.449 . S
O127 U126 2.454 . S
O127 C129 1.353 . S
O128 U126 2.458 . S
O128 C129 1.286 . S
C129 U126 2.984 . S
C129 O127 1.353 . S
C129 O128 1.286 . S
C129 C131 1.363 . S
C130 C120 1.465 . S
C130 U126 2.847 . S
C130 O144 1.249 . S
C130 O145 1.202 . S
C131 C129 1.363 . S
C131 C133 1.408 . S
C131 C136 1.342 . S
C132 C133 1.310 . S
C132 C135 1.461 . S
C132 H152 0.932 . S
C133 C131 1.408 . S
C133 C132 1.310 . S
C133 H153 0.930 . S
C134 C135 1.474 . S
C134 C136 1.285 . S
C134 H154 0.929 . S
C135 C132 1.461 . S
C135 C134 1.474 . S
C136 C131 1.342 . S
C136 C134 1.285 . S
C136 H155 0.930 . S
C137 C140 1.424 . S
C137 C142 1.245 . S
C137 C143 1.428 . S
C138 C141 1.260 . S
C138 C142 1.477 . S
C138 H156 0.932 . S
C139 C140 1.384 . S
C139 C141 1.479 . S
C139 H157 0.929 . S
C140 C137 1.424 . S
C140 C139 1.384 . S
C140 H158 0.928 . S
C141 C138 1.260 . S
C141 C139 1.479 . S
C142 C137 1.245 . S
C142 C138 1.477 . S
C142 H159 0.932 . S
C143 U126 2.882 . S
C143 C137 1.428 . S
C143 O146 1.301 . S
C143 O147 1.282 . S
O144 U126 2.441 . S
O144 C130 1.249 . S
O145 U126 2.420 . S
O145 C130 1.202 . S
O146 U126 2.455 . S
O146 C143 1.301 . S
O147 U126 2.449 . S
O147 C143 1.282 . S
H148 C121 0.931 . S
H149 C123 0.929 . S
H150 C124 0.930 . S
H151 C125 0.931 . S
H152 C132 0.932 . S
H153 C133 0.930 . S
H154 C134 0.929 . S
H155 C136 0.930 . S
H156 C138 0.932 . S
H157 C139 0.929 . S
H158 C140 0.928 . S
H159 C142 0.932 . S
C160 C161 1.264 . S
C160 C165 1.479 . S
C160 C170 1.465 . S
C161 C160 1.264 . S
C161 C163 1.339 . S
C161 H188 0.931 . S
C162 C163 1.395 . S
C162 C164 1.320 . S
C163 C161 1.339 . S
C163 C162 1.395 . S
C163 H189 0.929 . S
C164 C162 1.320 . S
C164 C165 1.405 . S
C164 H190 0.930 . S
C165 C160 1.479 . S
C165 C164 1.405 . S
C165 H191 0.931 . S
U166 O167 2.454 . S
U166 O168 2.458 . S
U166 C169 2.984 . S
U166 C170 2.847 . S
U166 C183 2.882 . S
U166 O184 2.441 . S
U166 O185 2.420 . S
U166 O186 2.455 . S
U166 O187 2.449 . S
O167 U166 2.454 . S
O167 C169 1.353 . S
O168 U166 2.458 . S
O168 C169 1.286 . S
C169 U166 2.984 . S
C169 O167 1.353 . S
C169 O168 1.286 . S
C169 C171 1.363 . S
C170 C160 1.465 . S
C170 U166 2.847 . S
C170 O184 1.249 . S
C170 O185 1.202 . S
C171 C169 1.363 . S
C171 C173 1.408 . S
C171 C176 1.342 . S
C172 C173 1.310 . S
C172 C175 1.461 . S
C172 H192 0.932 . S
C173 C171 1.408 . S
C173 C172 1.310 . S
C173 H193 0.930 . S
C174 C175 1.474 . S
C174 C176 1.285 . S
C174 H194 0.929 . S
C175 C172 1.461 . S
C175 C174 1.474 . S
C176 C171 1.342 . S
C176 C174 1.285 . S
C176 H195 0.930 . S
C177 C180 1.424 . S
C177 C182 1.245 . S
C177 C183 1.428 . S
C178 C181 1.260 . S
C178 C182 1.477 . S
C178 H196 0.932 . S
C179 C180 1.384 . S
C179 C181 1.479 . S
C179 H197 0.929 . S
C180 C177 1.424 . S
C180 C179 1.384 . S
C180 H198 0.928 . S
C181 C178 1.260 . S
C181 C179 1.479 . S
C182 C177 1.245 . S
C182 C178 1.477 . S
C182 H199 0.932 . S
C183 U166 2.882 . S
C183 C177 1.428 . S
C183 O186 1.301 . S
C183 O187 1.282 . S
O184 U166 2.441 . S
O184 C170 1.249 . S
O185 U166 2.420 . S
O185 C170 1.202 . S
O186 U166 2.455 . S
O186 C183 1.301 . S
O187 U166 2.449 . S
O187 C183 1.282 . S
H188 C161 0.931 . S
H189 C163 0.929 . S
H190 C164 0.930 . S
H191 C165 0.931 . S
H192 C172 0.932 . S
H193 C173 0.930 . S
H194 C174 0.929 . S
H195 C176 0.930 . S
H196 C178 0.932 . S
H197 C179 0.929 . S
H198 C180 0.928 . S
H199 C182 0.932 . S
C200 C201 1.264 . S
C200 C205 1.479 . S
C200 C210 1.465 . S
C201 C200 1.264 . S
C201 C203 1.339 . S
C201 H228 0.931 . S
C202 C203 1.395 . S
C202 C204 1.320 . S
C203 C201 1.339 . S
C203 C202 1.395 . S
C203 H229 0.929 . S
C204 C202 1.320 . S
C204 C205 1.405 . S
C204 H230 0.930 . S
C205 C200 1.479 . S
C205 C204 1.405 . S
C205 H231 0.931 . S
U206 O207 2.454 . S
U206 O208 2.458 . S
U206 C209 2.984 . S
U206 C210 2.847 . S
U206 C223 2.882 . S
U206 O224 2.441 . S
U206 O225 2.420 . S
U206 O226 2.455 . S
U206 O227 2.449 . S
O207 U206 2.454 . S
O207 C209 1.353 . S
O208 U206 2.458 . S
O208 C209 1.286 . S
C209 U206 2.984 . S
C209 O207 1.353 . S
C209 O208 1.286 . S
C209 C211 1.363 . S
C210 C200 1.465 . S
C210 U206 2.847 . S
C210 O224 1.249 . S
C210 O225 1.202 . S
C211 C209 1.363 . S
C211 C213 1.408 . S
C211 C216 1.342 . S
C212 C213 1.310 . S
C212 C215 1.461 . S
C212 H232 0.932 . S
C213 C211 1.408 . S
C213 C212 1.310 . S
C213 H233 0.930 . S
C214 C215 1.474 . S
C214 C216 1.285 . S
C214 H234 0.929 . S
C215 C212 1.461 . S
C215 C214 1.474 . S
C216 C211 1.342 . S
C216 C214 1.285 . S
C216 H235 0.930 . S
C217 C220 1.424 . S
C217 C222 1.245 . S
C217 C223 1.428 . S
C218 C221 1.260 . S
C218 C222 1.477 . S
C218 H236 0.932 . S
C219 C220 1.384 . S
C219 C221 1.479 . S
C219 H237 0.929 . S
C220 C217 1.424 . S
C220 C219 1.384 . S
C220 H238 0.928 . S
C221 C218 1.260 . S
C221 C219 1.479 . S
C222 C217 1.245 . S
C222 C218 1.477 . S
C222 H239 0.932 . S
C223 U206 2.882 . S
C223 C217 1.428 . S
C223 O226 1.301 . S
C223 O227 1.282 . S
O224 U206 2.441 . S
O224 C210 1.249 . S
O225 U206 2.420 . S
O225 C210 1.202 . S
O226 U206 2.455 . S
O226 C223 1.301 . S
O227 U206 2.449 . S
O227 C223 1.282 . S
H228 C201 0.931 . S
H229 C203 0.929 . S
H230 C204 0.930 . S
H231 C205 0.931 . S
H232 C212 0.932 . S
H233 C213 0.930 . S
H234 C214 0.929 . S
H235 C216 0.930 . S
H236 C218 0.932 . S
H237 C219 0.929 . S
H238 C220 0.928 . S
H239 C222 0.932 . S
C240 C241 1.264 . S
C240 C245 1.479 . S
C240 C250 1.465 . S
C241 C240 1.264 . S
C241 C243 1.339 . S
C241 H268 0.931 . S
C242 C243 1.395 . S
C242 C244 1.320 . S
C243 C241 1.339 . S
C243 C242 1.395 . S
C243 H269 0.929 . S
C244 C242 1.320 . S
C244 C245 1.405 . S
C244 H270 0.930 . S
C245 C240 1.479 . S
C245 C244 1.405 . S
C245 H271 0.931 . S
U246 O247 2.454 . S
U246 O248 2.458 . S
U246 C249 2.984 . S
U246 C250 2.847 . S
U246 C263 2.882 . S
U246 O264 2.441 . S
U246 O265 2.420 . S
U246 O266 2.455 . S
U246 O267 2.449 . S
O247 U246 2.454 . S
O247 C249 1.353 . S
O248 U246 2.458 . S
O248 C249 1.286 . S
C249 U246 2.984 . S
C249 O247 1.353 . S
C249 O248 1.286 . S
C249 C251 1.363 . S
C250 C240 1.465 . S
C250 U246 2.847 . S
C250 O264 1.249 . S
C250 O265 1.202 . S
C251 C249 1.363 . S
C251 C253 1.408 . S
C251 C256 1.342 . S
C252 C253 1.310 . S
C252 C255 1.461 . S
C252 H272 0.932 . S
C253 C251 1.408 . S
C253 C252 1.310 . S
C253 H273 0.930 . S
C254 C255 1.474 . S
C254 C256 1.285 . S
C254 H274 0.929 . S
C255 C252 1.461 . S
C255 C254 1.474 . S
C256 C251 1.342 . S
C256 C254 1.285 . S
C256 H275 0.930 . S
C257 C260 1.424 . S
C257 C262 1.245 . S
C257 C263 1.428 . S
C258 C261 1.260 . S
C258 C262 1.477 . S
C258 H276 0.932 . S
C259 C260 1.384 . S
C259 C261 1.479 . S
C259 H277 0.929 . S
C260 C257 1.424 . S
C260 C259 1.384 . S
C260 H278 0.928 . S
C261 C258 1.260 . S
C261 C259 1.479 . S
C262 C257 1.245 . S
C262 C258 1.477 . S
C262 H279 0.932 . S
C263 U246 2.882 . S
C263 C257 1.428 . S
C263 O266 1.301 . S
C263 O267 1.282 . S
O264 U246 2.441 . S
O264 C250 1.249 . S
O265 U246 2.420 . S
O265 C250 1.202 . S
O266 U246 2.455 . S
O266 C263 1.301 . S
O267 U246 2.449 . S
O267 C263 1.282 . S
H268 C241 0.931 . S
H269 C243 0.929 . S
H270 C244 0.930 . S
H271 C245 0.931 . S
H272 C252 0.932 . S
H273 C253 0.930 . S
H274 C254 0.929 . S
H275 C256 0.930 . S
H276 C258 0.932 . S
H277 C259 0.929 . S
H278 C260 0.928 . S
H279 C262 0.932 . S
C280 C281 1.264 . S
C280 C285 1.479 . S
C280 C290 1.465 . S
C281 C280 1.264 . S
C281 C283 1.339 . S
C281 H308 0.931 . S
C282 C283 1.395 . S
C282 C284 1.320 . S
C283 C281 1.339 . S
C283 C282 1.395 . S
C283 H309 0.929 . S
C284 C282 1.320 . S
C284 C285 1.405 . S
C284 H310 0.930 . S
C285 C280 1.479 . S
C285 C284 1.405 . S
C285 H311 0.931 . S
U286 O287 2.454 . S
U286 O288 2.458 . S
U286 C289 2.984 . S
U286 C290 2.847 . S
U286 C303 2.882 . S
U286 O304 2.441 . S
U286 O305 2.420 . S
U286 O306 2.455 . S
U286 O307 2.449 . S
O287 U286 2.454 . S
O287 C289 1.353 . S
O288 U286 2.458 . S
O288 C289 1.286 . S
C289 U286 2.984 . S
C289 O287 1.353 . S
C289 O288 1.286 . S
C289 C291 1.363 . S
C290 C280 1.465 . S
C290 U286 2.847 . S
C290 O304 1.249 . S
C290 O305 1.202 . S
C291 C289 1.363 . S
C291 C293 1.408 . S
C291 C296 1.342 . S
C292 C293 1.310 . S
C292 C295 1.461 . S
C292 H312 0.932 . S
C293 C291 1.408 . S
C293 C292 1.310 . S
C293 H313 0.930 . S
C294 C295 1.474 . S
C294 C296 1.285 . S
C294 H314 0.929 . S
C295 C292 1.461 . S
C295 C294 1.474 . S
C296 C291 1.342 . S
C296 C294 1.285 . S
C296 H315 0.930 . S
C297 C300 1.424 . S
C297 C302 1.245 . S
C297 C303 1.428 . S
C298 C301 1.260 . S
C298 C302 1.477 . S
C298 H316 0.932 . S
C299 C300 1.384 . S
C299 C301 1.479 . S
C299 H317 0.929 . S
C300 C297 1.424 . S
C300 C299 1.384 . S
C300 H318 0.928 . S
C301 C298 1.260 . S
C301 C299 1.479 . S
C302 C297 1.245 . S
C302 C298 1.477 . S
C302 H319 0.932 . S
C303 U286 2.882 . S
C303 C297 1.428 . S
C303 O306 1.301 . S
C303 O307 1.282 . S
O304 U286 2.441 . S
O304 C290 1.249 . S
O305 U286 2.420 . S
O305 C290 1.202 . S
O306 U286 2.455 . S
O306 C303 1.301 . S
O307 U286 2.449 . S
O307 C303 1.282 . S
H308 C281 0.931 . S
H309 C283 0.929 . S
H310 C284 0.930 . S
H311 C285 0.931 . S
H312 C292 0.932 . S
H313 C293 0.930 . S
H314 C294 0.929 . S
H315 C296 0.930 . S
H316 C298 0.932 . S
H317 C299 0.929 . S
H318 C300 0.928 . S
H319 C302 0.932 . S
Co320 N325 2.057 . S
Co320 O337 2.021 . S
Co320 O340 2.062 . S
Co320 O344 2.117 1_545 S
Co320 O345 2.022 . S
C321 O341 1.259 1_655 S
C321 O344 1.258 . S
Co322 N331 2.057 . S
Co322 O338 2.117 1_565 S
Co322 O339 2.020 1_565 S
Co322 O341 2.021 . S
Co322 O346 2.062 . S
C323 N325 1.316 . S
C323 N326 1.347 . S
C323 H328 0.931 . S
C324 N325 1.360 1_565 S
C324 C327 1.341 1_565 S
C324 H329 0.951 . S
N325 Co320 2.057 . S
N325 C323 1.316 . S
N325 C324 1.360 1_545 S
N326 C323 1.347 . S
N326 C327 1.373 . S
C327 C324 1.341 1_545 S
C327 N326 1.373 . S
C327 H348 0.931 . S
H328 C323 0.931 . S
H329 C324 0.951 . S
C330 O337 1.259 1_455 S
C330 O338 1.258 . S
N331 Co322 2.057 . S
N331 C332 1.316 . S
N331 C333 1.375 1_565 S
C332 N331 1.316 . S
C332 N334 1.347 . S
C332 H343 0.931 . S
C333 N331 1.375 1_545 S
C333 C335 1.350 1_545 S
C333 H342 0.930 . S
N334 C332 1.347 . S
N334 C335 1.373 . S
C335 C333 1.350 1_565 S
C335 N334 1.373 . S
C335 H349 0.931 1_565 S
C336 O339 1.256 . S
C336 O340 1.255 1_455 S
O337 Co320 2.021 . S
O337 C330 1.259 1_655 S
O338 Co322 2.117 1_545 S
O338 C330 1.258 . S
O339 Co322 2.020 1_545 S
O339 C336 1.256 . S
O340 Co320 2.062 . S
O340 C336 1.255 1_655 S
O341 C321 1.259 1_455 S
O341 Co322 2.021 . S
H342 C333 0.930 . S
H343 C332 0.931 . S
O344 Co320 2.117 1_565 S
O344 C321 1.258 . S
O345 Co320 2.022 . S
O345 C347 1.252 1_545 S
O346 Co322 2.062 . S
O346 C347 1.255 1_455 S
C347 O345 1.252 1_565 S
C347 O346 1.255 1_655 S
H348 C327 0.931 . S
H349 C335 0.931 1_545 S
Co350 N355 2.057 . S
Co350 O367 2.021 1_565 S
Co350 O370 2.062 . S
Co350 O374 2.117 1_556 S
Co350 O375 2.020 1_565 S
C351 O371 1.259 . S
C351 O374 1.258 . S
Co352 N361 2.057 . S
Co352 O368 2.117 . S
Co352 O369 2.020 1_545 S
Co352 O371 2.021 1_545 S
Co352 O376 2.062 . S
C353 N355 1.316 . S
C353 N356 1.347 . S
C353 H358 0.931 1_565 S
C354 N355 1.375 . S
C354 C357 1.350 . S
C354 H359 0.930 . S
N355 Co350 2.057 . S
N355 C353 1.316 . S
N355 C354 1.375 . S
N356 C353 1.347 . S
N356 C357 1.373 . S
C357 C354 1.350 . S
C357 N356 1.373 . S
C357 H378 0.931 . S
H358 C353 0.931 1_545 S
H359 C354 0.930 . S
C360 O367 1.259 . S
C360 O368 1.258 1_556 S
N361 Co352 2.057 . S
N361 C362 1.316 . S
N361 C363 1.375 . S
C362 N361 1.316 . S
C362 N364 1.347 . S
C362 H373 0.931 1_545 S
C363 N361 1.375 . S
C363 C365 1.350 . S
C363 H372 0.930 . S
N364 C362 1.347 . S
N364 C365 1.373 . S
C365 C363 1.350 . S
C365 N364 1.373 . S
C365 H379 0.931 . S
C366 O369 1.256 1_556 S
C366 O370 1.255 . S
O367 Co350 2.021 1_545 S
O367 C360 1.259 . S
O368 Co352 2.117 . S
O368 C360 1.258 1_554 S
O369 Co352 2.020 1_565 S
O369 C366 1.256 1_554 S
O370 Co350 2.062 . S
O370 C366 1.255 . S
O371 C351 1.259 . S
O371 Co352 2.021 1_565 S
H372 C363 0.930 . S
H373 C362 0.931 1_565 S
O374 Co350 2.117 1_554 S
O374 C351 1.258 . S
O375 Co350 2.020 1_545 S
O375 C377 1.256 1_556 S
O376 Co352 2.062 . S
O376 C377 1.255 . S
C377 O375 1.256 1_554 S
C377 O376 1.255 . S
H378 C357 0.931 . S
H379 C365 0.931 . S
Co380 N385 2.057 . S
Co380 O397 2.021 . S
Co380 O400 2.062 . S
Co380 O404 2.117 . S
Co380 O405 2.020 . S
C381 O401 1.259 . S
C381 O404 1.258 . S
Co382 N391 2.057 . S
Co382 O398 2.117 . S
Co382 O399 2.020 . S
Co382 O401 2.021 . S
Co382 O406 2.062 . S
C383 N385 1.316 . S
C383 N386 1.347 . S
C383 H388 0.931 . S
C384 N385 1.375 . S
C384 C387 1.350 . S
C384 H389 0.930 . S
N385 Co380 2.057 . S
N385 C383 1.316 . S
N385 C384 1.375 . S
N386 C383 1.347 . S
N386 C387 1.373 . S
C387 C384 1.350 . S
C387 N386 1.373 . S
C387 H408 0.931 . S
H388 C383 0.931 . S
H389 C384 0.930 . S
C390 O397 1.259 . S
C390 O398 1.258 . S
N391 Co382 2.057 . S
N391 C392 1.316 . S
N391 C393 1.375 . S
C392 N391 1.316 . S
C392 N394 1.347 . S
C392 H403 0.931 . S
C393 N391 1.375 . S
C393 C395 1.350 . S
C393 H402 0.930 . S
N394 C392 1.347 . S
N394 C395 1.373 . S
C395 C393 1.350 . S
C395 N394 1.373 . S
C395 H409 0.931 . S
C396 O399 1.256 . S
C396 O400 1.255 . S
O397 Co380 2.021 . S
O397 C390 1.259 . S
O398 Co382 2.117 . S
O398 C390 1.258 . S
O399 Co382 2.020 . S
O399 C396 1.256 . S
O400 Co380 2.062 . S
O400 C396 1.255 . S
O401 C381 1.259 . S
O401 Co382 2.021 . S
H402 C393 0.930 . S
H403 C392 0.931 . S
O404 Co380 2.117 . S
O404 C381 1.258 . S
O405 Co380 2.020 . S
O405 C407 1.256 . S
O406 Co382 2.062 . S
O406 C407 1.255 . S
C407 O405 1.256 . S
C407 O406 1.255 . S
H408 C387 0.931 . S
H409 C395 0.931 . S
Co410 N415 2.057 . S
Co410 O427 2.021 . S
Co410 O430 2.062 . S
Co410 O434 2.117 1_455 S
Co410 O435 2.018 1_455 S
C411 O431 1.259 1_556 S
C411 O434 1.258 . S
Co412 N421 2.057 . S
Co412 O428 2.117 1_655 S
Co412 O429 2.020 1_655 S
Co412 O431 2.021 . S
Co412 O436 2.062 . S
C413 N415 1.316 . S
C413 N416 1.347 . S
C413 H418 0.931 . S
C414 N415 1.375 1_655 S
C414 C417 1.350 1_655 S
C414 H419 0.930 . S
N415 Co410 2.057 . S
N415 C413 1.316 . S
N415 C414 1.375 1_455 S
N416 C413 1.347 . S
N416 C417 1.373 . S
C417 C414 1.350 1_455 S
C417 N416 1.373 . S
C417 H438 0.931 1_455 S
H418 C413 0.931 . S
H419 C414 0.930 . S
C420 O427 1.259 1_554 S
C420 O428 1.258 . S
N421 Co412 2.057 . S
N421 C422 1.316 . S
N421 C423 1.375 1_655 S
C422 N421 1.316 . S
C422 N424 1.347 . S
C422 H433 0.931 . S
C423 N421 1.375 1_455 S
C423 C425 1.350 1_455 S
C423 H432 0.930 . S
N424 C422 1.347 . S
N424 C425 1.373 . S
C425 C423 1.350 1_655 S
C425 N424 1.373 . S
C425 H439 0.931 1_655 S
C426 O429 1.256 . S
C426 O430 1.255 1_554 S
O427 Co410 2.021 . S
O427 C420 1.259 1_556 S
O428 Co412 2.117 1_455 S
O428 C420 1.258 . S
O429 Co412 2.020 1_455 S
O429 C426 1.256 . S
O430 Co410 2.062 . S
O430 C426 1.255 1_556 S
O431 C411 1.259 1_554 S
O431 Co412 2.021 . S
H432 C423 0.930 . S
H433 C422 0.931 . S
O434 Co410 2.117 1_655 S
O434 C411 1.258 . S
O435 Co410 2.018 1_655 S
O435 C437 1.258 . S
O436 Co412 2.062 . S
O436 C437 1.255 1_554 S
C437 O435 1.258 . S
C437 O436 1.255 1_556 S
H438 C417 0.931 1_655 S
H439 C425 0.931 1_455 S
H440 C448 0.950 . S
H441 C453 0.950 . S
H442 C450 0.950 . S
H443 C452 0.950 . S
H444 C454 0.950 . S
H445 C456 0.950 . S
H446 C458 0.950 . S
H447 C459 0.950 1_655 S
C448 H440 0.950 . S
C448 C449 1.386 . S
C448 C450 1.391 . S
C449 C448 1.386 . S
C449 C453 1.393 . S
C450 H442 0.950 . S
C450 C448 1.391 . S
C450 C451 1.400 . S
C451 C450 1.400 . S
C451 C452 1.398 . S
C451 C457 1.491 . S
C452 H443 0.950 . S
C452 C451 1.398 . S
C452 C453 1.391 . S
C453 H441 0.950 . S
C453 C449 1.393 . S
C453 C452 1.391 . S
C454 H444 0.950 . S
C454 C455 1.386 . S
C454 C456 1.391 . S
C455 C454 1.386 . S
C455 C459 1.393 . S
C456 H445 0.950 . S
C456 C454 1.391 . S
C456 C457 1.400 . S
C457 C451 1.491 . S
C457 C456 1.400 . S
C457 C458 1.398 . S
C458 H446 0.950 . S
C458 C457 1.398 . S
C458 C459 1.391 . S
C459 H447 0.950 1_455 S
C459 C455 1.393 . S
C459 C458 1.391 . S
H460 C468 0.950 . S
H461 C473 0.950 . S
H462 C470 0.950 . S
H463 C472 0.950 . S
H464 C474 0.950 . S
H465 C476 0.950 . S
H466 C478 0.950 . S
H467 C479 0.950 1_545 S
C468 H460 0.950 . S
C468 C469 1.386 . S
C468 C470 1.391 . S
C469 C468 1.386 . S
C469 C473 1.393 . S
C470 H462 0.950 . S
C470 C468 1.391 . S
C470 C471 1.400 . S
C471 C470 1.400 . S
C471 C472 1.398 . S
C471 C477 1.491 . S
C472 H463 0.950 . S
C472 C471 1.398 . S
C472 C473 1.391 . S
C473 H461 0.950 . S
C473 C469 1.393 . S
C473 C472 1.391 . S
C474 H464 0.950 . S
C474 C475 1.386 . S
C474 C476 1.391 . S
C475 C474 1.386 . S
C475 C479 1.393 . S
C476 H465 0.950 . S
C476 C474 1.391 . S
C476 C477 1.400 . S
C477 C471 1.491 . S
C477 C476 1.400 . S
C477 C478 1.398 . S
C478 H466 0.950 . S
C478 C477 1.398 . S
C478 C479 1.391 . S
C479 H467 0.950 1_565 S
C479 C475 1.393 . S
C479 C478 1.391 . S
H480 C488 0.950 . S
H481 C493 0.950 . S
H482 C490 0.950 . S
H483 C492 0.950 . S
H484 C494 0.950 . S
H485 C496 0.950 . S
H486 C498 0.950 . S
H487 C499 0.950 . S
C488 H480 0.950 . S
C488 C489 1.386 . S
C488 C490 1.391 . S
C489 C488 1.386 . S
C489 C493 1.393 . S
C490 H482 0.950 . S
C490 C488 1.391 . S
C490 C491 1.400 . S
C491 C490 1.400 . S
C491 C492 1.398 . S
C491 C497 1.491 . S
C492 H483 0.950 . S
C492 C491 1.398 . S
C492 C493 1.391 . S
C493 H481 0.950 . S
C493 C489 1.393 . S
C493 C492 1.391 . S
C494 H484 0.950 . S
C494 C495 1.386 . S
C494 C496 1.391 . S
C495 C494 1.386 . S
C495 C499 1.393 . S
C496 H485 0.950 . S
C496 C494 1.391 . S
C496 C497 1.400 . S
C497 C491 1.491 . S
C497 C496 1.400 . S
C497 C498 1.398 . S
C498 H486 0.950 . S
C498 C497 1.398 . S
C498 C499 1.391 . S
C499 H487 0.950 . S
C499 C495 1.393 . S
C499 C498 1.391 . S
H500 C508 0.950 . S
H501 C513 0.950 . S
H502 C510 0.950 . S
H503 C512 0.950 . S
H504 C514 0.950 . S
H505 C516 0.950 . S
H506 C518 0.950 . S
H507 C519 0.950 . S
C508 H500 0.950 . S
C508 C509 1.386 . S
C508 C510 1.391 . S
C509 C508 1.386 . S
C509 C513 1.393 . S
C510 H502 0.950 . S
C510 C508 1.391 . S
C510 C511 1.400 . S
C511 C510 1.400 . S
C511 C512 1.398 . S
C511 C517 1.491 . S
C512 H503 0.950 . S
C512 C511 1.398 . S
C512 C513 1.391 . S
C513 H501 0.950 . S
C513 C509 1.393 . S
C513 C512 1.391 . S
C514 H504 0.950 . S
C514 C515 1.386 . S
C514 C516 1.391 . S
C515 C514 1.386 . S
C515 C519 1.393 . S
C516 H505 0.950 . S
C516 C514 1.391 . S
C516 C517 1.400 . S
C517 C511 1.491 . S
C517 C516 1.400 . S
C517 C518 1.398 . S
C518 H506 0.950 . S
C518 C517 1.398 . S
C518 C519 1.391 . S
C519 H507 0.950 . S
C519 C515 1.393 . S
C519 C518 1.391 . S
H520 C528 0.950 . S
H521 C533 0.950 . S
H522 C530 0.950 . S
H523 C532 0.950 . S
H524 C534 0.950 1_556 S
H525 C536 0.950 . S
H526 C538 0.950 . S
H527 C539 0.950 . S
C528 H520 0.950 . S
C528 C529 1.386 . S
C528 C530 1.391 . S
C529 C528 1.386 . S
C529 C533 1.393 . S
C530 H522 0.950 . S
C530 C528 1.391 . S
C530 C531 1.400 . S
C531 C530 1.400 . S
C531 C532 1.398 . S
C531 C537 1.491 . S
C532 H523 0.950 . S
C532 C531 1.398 . S
C532 C533 1.391 . S
C533 H521 0.950 . S
C533 C529 1.393 . S
C533 C532 1.391 . S
C534 H524 0.950 1_554 S
C534 C535 1.386 . S
C534 C536 1.391 . S
C535 C534 1.386 . S
C535 C539 1.393 . S
C536 H525 0.950 . S
C536 C534 1.391 . S
C536 C537 1.400 . S
C537 C531 1.491 . S
C537 C536 1.400 . S
C537 C538 1.398 . S
C538 H526 0.950 . S
C538 C537 1.398 . S
C538 C539 1.391 . S
C539 H527 0.950 . S
C539 C535 1.393 . S
C539 C538 1.391 . S
H540 C548 0.950 . S
H541 C553 0.950 . S
H542 C550 0.950 . S
H543 C552 0.950 . S
H544 C554 0.950 . S
H545 C556 0.950 . S
H546 C558 0.950 . S
H547 C559 0.950 . S
C548 H540 0.950 . S
C548 C549 1.386 . S
C548 C550 1.391 . S
C549 C548 1.386 . S
C549 C553 1.393 . S
C550 H542 0.950 . S
C550 C548 1.391 . S
C550 C551 1.400 . S
C551 C550 1.400 . S
C551 C552 1.398 . S
C551 C557 1.491 . S
C552 H543 0.950 . S
C552 C551 1.398 . S
C552 C553 1.391 . S
C553 H541 0.950 . S
C553 C549 1.393 . S
C553 C552 1.391 . S
C554 H544 0.950 . S
C554 C555 1.386 . S
C554 C556 1.391 . S
C555 C554 1.386 . S
C555 C559 1.393 . S
C556 H545 0.950 . S
C556 C554 1.391 . S
C556 C557 1.400 . S
C557 C551 1.491 . S
C557 C556 1.400 . S
C557 C558 1.398 . S
C558 H546 0.950 . S
C558 C557 1.398 . S
C558 C559 1.391 . S
C559 H547 0.950 . S
C559 C555 1.393 . S
C559 C558 1.391 . S
H560 C568 0.950 . S
H561 C573 0.950 . S
H562 C570 0.950 . S
H563 C572 0.950 . S
H564 C574 0.950 1_554 S
H565 C576 0.950 . S
H566 C578 0.950 . S
H567 C579 0.950 . S
C568 H560 0.950 . S
C568 C569 1.386 . S
C568 C570 1.391 . S
C569 C568 1.386 . S
C569 C573 1.393 . S
C570 H562 0.950 . S
C570 C568 1.391 . S
C570 C571 1.400 . S
C571 C570 1.400 . S
C571 C572 1.398 . S
C571 C577 1.491 . S
C572 H563 0.950 . S
C572 C571 1.398 . S
C572 C573 1.391 . S
C573 H561 0.950 . S
C573 C569 1.393 . S
C573 C572 1.391 . S
C574 H564 0.950 1_556 S
C574 C575 1.386 . S
C574 C576 1.391 . S
C575 C574 1.386 . S
C575 C579 1.393 . S
C576 H565 0.950 . S
C576 C574 1.391 . S
C576 C577 1.400 . S
C577 C571 1.491 . S
C577 C576 1.400 . S
C577 C578 1.398 . S
C578 H566 0.950 . S
C578 C577 1.398 . S
C578 C579 1.391 . S
C579 H567 0.950 . S
C579 C575 1.393 . S
C579 C578 1.391 . S
H580 C588 0.950 . S
H581 C593 0.950 . S
H582 C590 0.950 . S
H583 C592 0.950 . S
H584 C594 0.950 . S
H585 C596 0.950 . S
H586 C598 0.950 . S
H587 C599 0.950 . S
C588 H580 0.950 . S
C588 C589 1.386 . S
C588 C590 1.391 . S
C589 C588 1.386 . S
C589 C593 1.393 . S
C590 H582 0.950 . S
C590 C588 1.391 . S
C590 C591 1.400 . S
C591 C590 1.400 . S
C591 C592 1.398 . S
C591 C597 1.491 . S
C592 H583 0.950 . S
C592 C591 1.398 . S
C592 C593 1.391 . S
C593 H581 0.950 . S
C593 C589 1.393 . S
C593 C592 1.391 . S
C594 H584 0.950 . S
C594 C595 1.386 . S
C594 C596 1.391 . S
C595 C594 1.386 . S
C595 C599 1.393 . S
C596 H585 0.950 . S
C596 C594 1.391 . S
C596 C597 1.400 . S
C597 C591 1.491 . S
C597 C596 1.400 . S
C597 C598 1.398 . S
C598 H586 0.950 . S
C598 C597 1.398 . S
C598 C599 1.391 . S
C599 H587 0.950 . S
C599 C595 1.393 . S
C599 C598 1.391 . S
H600 C608 0.950 . S
H601 C613 0.950 . S
H602 C610 0.950 . S
H603 C612 0.950 . S
H604 C614 0.950 1_655 S
H605 C616 0.950 . S
H606 C618 0.950 . S
H607 C619 0.950 . S
C608 H600 0.950 . S
C608 C609 1.386 . S
C608 C610 1.391 . S
C609 C608 1.386 . S
C609 C613 1.393 . S
C610 H602 0.950 . S
C610 C608 1.391 . S
C610 C611 1.400 . S
C611 C610 1.400 . S
C611 C612 1.398 . S
C611 C617 1.491 . S
C612 H603 0.950 . S
C612 C611 1.398 . S
C612 C613 1.391 . S
C613 H601 0.950 . S
C613 C609 1.393 . S
C613 C612 1.391 . S
C614 H604 0.950 1_455 S
C614 C615 1.386 . S
C614 C616 1.391 . S
C615 C614 1.386 . S
C615 C619 1.393 . S
C616 H605 0.950 . S
C616 C614 1.391 . S
C616 C617 1.400 . S
C617 C611 1.491 . S
C617 C616 1.400 . S
C617 C618 1.398 . S
C618 H606 0.950 . S
C618 C617 1.398 . S
C618 C619 1.391 . S
C619 H607 0.950 . S
C619 C615 1.393 . S
C619 C618 1.391 . S
H620 C628 0.950 . S
H621 C633 0.950 . S
H622 C630 0.950 . S
H623 C632 0.950 . S
H624 C634 0.950 . S
H625 C636 0.950 . S
H626 C638 0.950 . S
H627 C639 0.950 . S
C628 H620 0.950 . S
C628 C629 1.386 . S
C628 C630 1.391 . S
C629 C628 1.386 . S
C629 C633 1.393 . S
C630 H622 0.950 . S
C630 C628 1.391 . S
C630 C631 1.400 . S
C631 C630 1.400 . S
C631 C632 1.398 . S
C631 C637 1.491 . S
C632 H623 0.950 . S
C632 C631 1.398 . S
C632 C633 1.391 . S
C633 H621 0.950 . S
C633 C629 1.393 . S
C633 C632 1.391 . S
C634 H624 0.950 . S
C634 C635 1.386 . S
C634 C636 1.391 . S
C635 C634 1.386 . S
C635 C639 1.393 . S
C636 H625 0.950 . S
C636 C634 1.391 . S
C636 C637 1.400 . S
C637 C631 1.491 . S
C637 C636 1.400 . S
C637 C638 1.398 . S
C638 H626 0.950 . S
C638 C637 1.398 . S
C638 C639 1.391 . S
C639 H627 0.950 . S
C639 C635 1.393 . S
C639 C638 1.391 . S
H640 C648 0.950 1_455 S
H641 C653 0.950 . S
H642 C650 0.950 1_455 S
H643 C652 0.950 . S
H644 C654 0.950 . S
H645 C656 0.950 . S
H646 C658 0.950 1_455 S
H647 C659 0.974 . S
C648 H640 0.950 1_655 S
C648 C649 1.386 . S
C648 C650 1.391 . S
C649 C648 1.386 . S
C649 C653 1.393 . S
C650 H642 0.950 1_655 S
C650 C648 1.391 . S
C650 C651 1.400 . S
C651 C650 1.400 . S
C651 C652 1.398 . S
C651 C657 1.491 . S
C652 H643 0.950 . S
C652 C651 1.398 . S
C652 C653 1.391 . S
C653 H641 0.950 . S
C653 C649 1.393 . S
C653 C652 1.391 . S
C654 H644 0.950 . S
C654 C655 1.386 . S
C654 C656 1.391 . S
C655 C654 1.386 . S
C655 C659 1.371 1_655 S
C656 H645 0.950 . S
C656 C654 1.391 . S
C656 C657 1.400 . S
C657 C651 1.491 . S
C657 C656 1.400 . S
C657 C658 1.398 . S
C658 H646 0.950 1_655 S
C658 C657 1.398 . S
C658 C659 1.389 1_655 S
C659 H647 0.974 . S
C659 C655 1.371 1_455 S
C659 C658 1.389 1_455 S
H660 C668 0.950 . S
H661 C673 0.950 . S
H662 C670 0.950 . S
H663 C672 0.950 . S
H664 C674 0.950 . S
H665 C676 0.950 . S
H666 C678 0.950 . S
H667 C679 0.950 . S
C668 H660 0.950 . S
C668 C669 1.386 . S
C668 C670 1.391 . S
C669 C668 1.386 . S
C669 C673 1.393 . S
C670 H662 0.950 . S
C670 C668 1.391 . S
C670 C671 1.400 . S
C671 C670 1.400 . S
C671 C672 1.398 . S
C671 C677 1.491 . S
C672 H663 0.950 . S
C672 C671 1.398 . S
C672 C673 1.391 . S
C673 H661 0.950 . S
C673 C669 1.393 . S
C673 C672 1.391 . S
C674 H664 0.950 . S
C674 C675 1.386 . S
C674 C676 1.391 . S
C675 C674 1.386 . S
C675 C679 1.393 . S
C676 H665 0.950 . S
C676 C674 1.391 . S
C676 C677 1.400 . S
C677 C671 1.491 . S
C677 C676 1.400 . S
C677 C678 1.398 . S
C678 H666 0.950 . S
C678 C677 1.398 . S
C678 C679 1.391 . S
C679 H667 0.950 . S
C679 C675 1.393 . S
C679 C678 1.391 . S
H680 C688 0.950 . S
H681 C693 0.950 . S
H682 C690 0.950 . S
H683 C692 0.950 . S
H684 C694 0.950 . S
H685 C696 0.950 . S
H686 C698 0.950 . S
H687 C699 0.950 1_455 S
C688 H680 0.950 . S
C688 C689 1.386 . S
C688 C690 1.391 . S
C689 C688 1.386 . S
C689 C693 1.393 . S
C690 H682 0.950 . S
C690 C688 1.391 . S
C690 C691 1.400 . S
C691 C690 1.400 . S
C691 C692 1.398 . S
C691 C697 1.491 . S
C692 H683 0.950 . S
C692 C691 1.398 . S
C692 C693 1.391 . S
C693 H681 0.950 . S
C693 C689 1.393 . S
C693 C692 1.391 . S
C694 H684 0.950 . S
C694 C695 1.386 . S
C694 C696 1.391 . S
C695 C694 1.386 . S
C695 C699 1.393 . S
C696 H685 0.950 . S
C696 C694 1.391 . S
C696 C697 1.400 . S
C697 C691 1.491 . S
C697 C696 1.400 . S
C697 C698 1.398 . S
C698 H686 0.950 . S
C698 C697 1.398 . S
C698 C699 1.391 . S
C699 H687 0.950 1_655 S
C699 C695 1.393 . S
C699 C698 1.391 . S
H700 C708 0.950 . S
H701 C713 0.950 . S
H702 C710 0.950 . S
H703 C712 0.950 . S
H704 C714 0.980 . S
H705 C716 0.950 . S
H706 C718 0.950 . S
H707 C719 0.950 . S
C708 H700 0.950 . S
C708 C709 1.386 . S
C708 C710 1.391 . S
C709 C708 1.386 . S
C709 C713 1.393 . S
C710 H702 0.950 . S
C710 C708 1.391 . S
C710 C711 1.400 . S
C711 C710 1.400 . S
C711 C712 1.398 . S
C711 C717 1.491 . S
C712 H703 0.950 . S
C712 C711 1.398 . S
C712 C713 1.391 . S
C713 H701 0.950 . S
C713 C709 1.393 . S
C713 C712 1.391 . S
C714 H704 0.980 . S
C714 C715 1.386 . S
C714 C716 1.391 . S
C715 C714 1.386 . S
C715 C719 1.393 . S
C716 H705 0.950 . S
C716 C714 1.391 . S
C716 C717 1.400 . S
C717 C711 1.491 . S
C717 C716 1.400 . S
C717 C718 1.398 . S
C718 H706 0.950 . S
C718 C717 1.398 . S
C718 C719 1.391 . S
C719 H707 0.950 . S
C719 C715 1.393 . S
C719 C718 1.391 . S
H720 C728 0.950 . S
H721 C733 0.950 . S
H722 C730 0.950 . S
H723 C732 0.950 . S
H724 C734 0.950 . S
H725 C736 0.950 . S
H726 C738 0.950 . S
H727 C739 0.950 . S
C728 H720 0.950 . S
C728 C729 1.386 . S
C728 C730 1.391 . S
C729 C728 1.386 . S
C729 C733 1.393 . S
C730 H722 0.950 . S
C730 C728 1.391 . S
C730 C731 1.400 . S
C731 C730 1.400 . S
C731 C732 1.398 . S
C731 C737 1.491 . S
C732 H723 0.950 . S
C732 C731 1.398 . S
C732 C733 1.391 . S
C733 H721 0.950 . S
C733 C729 1.393 . S
C733 C732 1.391 . S
C734 H724 0.950 . S
C734 C735 1.386 . S
C734 C736 1.391 . S
C735 C734 1.386 . S
C735 C739 1.393 . S
C736 H725 0.950 . S
C736 C734 1.391 . S
C736 C737 1.400 . S
C737 C731 1.491 . S
C737 C736 1.400 . S
C737 C738 1.398 . S
C738 H726 0.950 . S
C738 C737 1.398 . S
C738 C739 1.391 . S
C739 H727 0.950 . S
C739 C735 1.393 . S
C739 C738 1.391 . S
H740 C748 0.950 . S
H741 C753 0.950 . S
H742 C750 0.950 . S
H743 C752 0.950 . S
H744 C754 0.950 . S
H745 C756 0.950 . S
H746 C758 0.950 . S
H747 C759 0.950 . S
C748 H740 0.950 . S
C748 C749 1.386 . S
C748 C750 1.391 . S
C749 C748 1.386 . S
C749 C753 1.393 . S
C750 H742 0.950 . S
C750 C748 1.391 . S
C750 C751 1.400 . S
C751 C750 1.400 . S
C751 C752 1.398 . S
C751 C757 1.491 . S
C752 H743 0.950 . S
C752 C751 1.398 . S
C752 C753 1.391 . S
C753 H741 0.950 . S
C753 C749 1.393 . S
C753 C752 1.391 . S
C754 H744 0.950 . S
C754 C755 1.386 . S
C754 C756 1.391 . S
C755 C754 1.386 . S
C755 C759 1.393 . S
C756 H745 0.950 . S
C756 C754 1.391 . S
C756 C757 1.400 . S
C757 C751 1.491 . S
C757 C756 1.400 . S
C757 C758 1.398 . S
C758 H746 0.950 . S
C758 C757 1.398 . S
C758 C759 1.391 . S
C759 H747 0.950 . S
C759 C755 1.393 . S
C759 C758 1.391 . S
H760 C768 0.950 . S
H761 C773 0.950 . S
H762 C770 0.950 . S
H763 C772 0.964 . S
H764 C774 0.950 1_545 S
H765 C776 0.950 1_545 S
H766 C778 0.950 . S
H767 C779 0.950 . S
C768 H760 0.950 . S
C768 C769 1.386 . S
C768 C770 1.391 . S
C769 C768 1.386 . S
C769 C773 1.393 . S
C770 H762 0.950 . S
C770 C768 1.391 . S
C770 C771 1.400 . S
C771 C770 1.400 . S
C771 C772 1.398 . S
C771 C777 1.491 . S
C772 H763 0.964 . S
C772 C771 1.398 . S
C772 C773 1.391 . S
C773 H761 0.950 . S
C773 C769 1.393 . S
C773 C772 1.391 . S
C774 H764 0.950 1_565 S
C774 C775 1.386 . S
C774 C776 1.391 . S
C775 C774 1.386 . S
C775 C779 1.393 . S
C776 H765 0.950 1_565 S
C776 C774 1.391 . S
C776 C777 1.400 . S
C777 C771 1.491 . S
C777 C776 1.400 . S
C777 C778 1.398 . S
C778 H766 0.950 . S
C778 C777 1.398 . S
C778 C779 1.391 . S
C779 H767 0.950 . S
C779 C775 1.393 . S
C779 C778 1.391 . S
H780 C788 0.950 . S
H781 C793 0.950 . S
H782 C790 0.950 . S
H783 C792 0.950 . S
H784 C794 0.950 . S
H785 C796 0.950 . S
H786 C798 0.950 . S
H787 C799 0.950 . S
C788 H780 0.950 . S
C788 C789 1.386 . S
C788 C790 1.391 . S
C789 C788 1.386 . S
C789 C793 1.393 . S
C790 H782 0.950 . S
C790 C788 1.391 . S
C790 C791 1.400 . S
C791 C790 1.400 . S
C791 C792 1.398 . S
C791 C797 1.491 . S
C792 H783 0.950 . S
C792 C791 1.398 . S
C792 C793 1.391 . S
C793 H781 0.950 . S
C793 C789 1.393 . S
C793 C792 1.391 . S
C794 H784 0.950 . S
C794 C795 1.386 . S
C794 C796 1.391 . S
C795 C794 1.386 . S
C795 C799 1.393 . S
C796 H785 0.950 . S
C796 C794 1.391 . S
C796 C797 1.400 . S
C797 C791 1.491 . S
C797 C796 1.400 . S
C797 C798 1.398 . S
C798 H786 0.950 . S
C798 C797 1.398 . S
C798 C799 1.391 . S
C799 H787 0.950 . S
C799 C795 1.393 . S
C799 C798 1.391 . S
H800 C808 0.950 . S
H801 C813 0.950 . S
H802 C810 0.950 . S
H803 C812 0.950 . S
H804 C814 0.950 . S
H805 C816 0.950 . S
H806 C818 0.950 . S
H807 C819 0.950 . S
C808 H800 0.950 . S
C808 C809 1.386 . S
C808 C810 1.391 . S
C809 C808 1.386 . S
C809 C813 1.393 . S
C810 H802 0.950 . S
C810 C808 1.391 . S
C810 C811 1.400 . S
C811 C810 1.400 . S
C811 C812 1.398 . S
C811 C817 1.491 . S
C812 H803 0.950 . S
C812 C811 1.398 . S
C812 C813 1.391 . S
C813 H801 0.950 . S
C813 C809 1.393 . S
C813 C812 1.391 . S
C814 H804 0.950 . S
C814 C815 1.386 . S
C814 C816 1.391 . S
C815 C814 1.386 . S
C815 C819 1.393 . S
C816 H805 0.950 . S
C816 C814 1.391 . S
C816 C817 1.400 . S
C817 C811 1.491 . S
C817 C816 1.400 . S
C817 C818 1.398 . S
C818 H806 0.950 . S
C818 C817 1.398 . S
C818 C819 1.391 . S
C819 H807 0.950 . S
C819 C815 1.393 . S
C819 C818 1.391 . S
H820 C828 0.950 . S
H821 C833 0.950 . S
H822 C830 0.950 . S
H823 C832 0.950 . S
H824 C834 0.950 . S
H825 C836 0.950 . S
H826 C838 0.950 . S
H827 C839 0.950 . S
C828 H820 0.950 . S
C828 C829 1.386 . S
C828 C830 1.391 . S
C829 C828 1.386 . S
C829 C833 1.393 . S
C830 H822 0.950 . S
C830 C828 1.391 . S
C830 C831 1.400 . S
C831 C830 1.400 . S
C831 C832 1.398 . S
C831 C837 1.491 . S
C832 H823 0.950 . S
C832 C831 1.398 . S
C832 C833 1.391 . S
C833 H821 0.950 . S
C833 C829 1.393 . S
C833 C832 1.391 . S
C834 H824 0.950 . S
C834 C835 1.386 . S
C834 C836 1.391 . S
C835 C834 1.386 . S
C835 C839 1.393 . S
C836 H825 0.950 . S
C836 C834 1.391 . S
C836 C837 1.400 . S
C837 C831 1.491 . S
C837 C836 1.400 . S
C837 C838 1.398 . S
C838 H826 0.950 . S
C838 C837 1.398 . S
C838 C839 1.391 . S
C839 H827 0.950 . S
C839 C835 1.393 . S
C839 C838 1.391 . S
H840 C848 0.950 . S
H841 C853 0.950 . S
H842 C850 0.950 . S
H843 C852 0.950 . S
H844 C854 0.950 1_455 S
H845 C856 0.950 1_455 S
H846 C858 0.950 . S
H847 C859 0.950 . S
C848 H840 0.950 . S
C848 C849 1.386 . S
C848 C850 1.391 . S
C849 C848 1.386 . S
C849 C853 1.393 . S
C850 H842 0.950 . S
C850 C848 1.391 . S
C850 C851 1.400 . S
C851 C850 1.400 . S
C851 C852 1.398 . S
C851 C857 1.491 . S
C852 H843 0.950 . S
C852 C851 1.398 . S
C852 C853 1.391 . S
C853 H841 0.950 . S
C853 C849 1.393 . S
C853 C852 1.391 . S
C854 H844 0.950 1_655 S
C854 C855 1.386 . S
C854 C856 1.391 . S
C855 C854 1.386 . S
C855 C859 1.393 . S
C856 H845 0.950 1_655 S
C856 C854 1.391 . S
C856 C857 1.400 . S
C857 C851 1.491 . S
C857 C856 1.400 . S
C857 C858 1.398 . S
C858 H846 0.950 . S
C858 C857 1.398 . S
C858 C859 1.391 . S
C859 H847 0.950 . S
C859 C855 1.393 . S
C859 C858 1.391 . S
H860 C868 0.950 . S
H861 C873 0.950 . S
H862 C870 0.950 . S
H863 C872 0.950 . S
H864 C874 0.950 . S
H865 C876 0.950 . S
H866 C878 0.950 . S
H867 C879 0.950 . S
C868 H860 0.950 . S
C868 C869 1.386 . S
C868 C870 1.391 . S
C869 C868 1.386 . S
C869 C873 1.393 . S
C870 H862 0.950 . S
C870 C868 1.391 . S
C870 C871 1.400 . S
C871 C870 1.400 . S
C871 C872 1.398 . S
C871 C877 1.491 . S
C872 H863 0.950 . S
C872 C871 1.398 . S
C872 C873 1.391 . S
C873 H861 0.950 . S
C873 C869 1.393 . S
C873 C872 1.391 . S
C874 H864 0.950 . S
C874 C875 1.386 . S
C874 C876 1.391 . S
C875 C874 1.386 . S
C875 C879 1.393 . S
C876 H865 0.950 . S
C876 C874 1.391 . S
C876 C877 1.400 . S
C877 C871 1.491 . S
C877 C876 1.400 . S
C877 C878 1.398 . S
C878 H866 0.950 . S
C878 C877 1.398 . S
C878 C879 1.391 . S
C879 H867 0.950 . S
C879 C875 1.393 . S
C879 C878 1.391 . S
H880 C888 0.950 . S
H881 C893 0.950 . S
H882 C890 0.950 . S
H883 C892 0.950 . S
H884 C894 0.950 . S
H885 C896 0.950 . S
H886 C898 0.950 . S
H887 C899 0.950 . S
C888 H880 0.950 . S
C888 C889 1.386 . S
C888 C890 1.391 . S
C889 C888 1.386 . S
C889 C893 1.393 . S
C890 H882 0.950 . S
C890 C888 1.391 . S
C890 C891 1.400 . S
C891 C890 1.400 . S
C891 C892 1.398 . S
C891 C897 1.491 . S
C892 H883 0.950 . S
C892 C891 1.398 . S
C892 C893 1.391 . S
C893 H881 0.950 . S
C893 C889 1.393 . S
C893 C892 1.391 . S
C894 H884 0.950 . S
C894 C895 1.386 . S
C894 C896 1.391 . S
C895 C894 1.386 . S
C895 C899 1.393 . S
C896 H885 0.950 . S
C896 C894 1.391 . S
C896 C897 1.400 . S
C897 C891 1.491 . S
C897 C896 1.400 . S
C897 C898 1.398 . S
C898 H886 0.950 . S
C898 C897 1.398 . S
C898 C899 1.391 . S
C899 H887 0.950 . S
C899 C895 1.393 . S
C899 C898 1.391 . S
H900 C908 0.950 . S
H901 C913 0.950 . S
H902 C910 0.950 . S
H903 C912 0.950 . S
H904 C914 0.950 . S
H905 C916 0.950 . S
H906 C918 0.950 . S
H907 C919 0.950 . S
C908 H900 0.950 . S
C908 C909 1.386 . S
C908 C910 1.391 . S
C909 C908 1.386 . S
C909 C913 1.393 . S
C910 H902 0.950 . S
C910 C908 1.391 . S
C910 C911 1.400 . S
C911 C910 1.400 . S
C911 C912 1.398 . S
C911 C917 1.491 . S
C912 H903 0.950 . S
C912 C911 1.398 . S
C912 C913 1.391 . S
C913 H901 0.950 . S
C913 C909 1.393 . S
C913 C912 1.391 . S
C914 H904 0.950 . S
C914 C915 1.386 . S
C914 C916 1.391 . S
C915 C914 1.386 . S
C915 C919 1.393 . S
C916 H905 0.950 . S
C916 C914 1.391 . S
C916 C917 1.400 . S
C917 C911 1.491 . S
C917 C916 1.400 . S
C917 C918 1.398 . S
C918 H906 0.950 . S
C918 C917 1.398 . S
C918 C919 1.391 . S
C919 H907 0.950 . S
C919 C915 1.393 . S
C919 C918 1.391 . S
C449 C21 2.242 . S
C455 C336 2.242 . S
C469 C61 1.116 . S
C475 N356 1.160 . S
C495 C390 1.970 . S
C489 C82 1.967 . S
C509 C135 1.404 . S
C515 N424 1.326 . S
C535 C377 2.386 . S
C529 C15 2.373 . S
C555 N334 1.216 . S
C549 C42 1.230 . S
C575 C411 2.017 . S
C569 C101 2.019 . S
C595 N386 1.061 . S
C589 C122 1.048 . S
C609 C2 1.914 . S
C615 C426 1.917 . S
C635 C360 1.701 . S
C629 C95 1.680 . S
C649 C141 1.573 . S
C655 C321 1.564 . S
C669 C55 1.487 . S
C675 C407 1.506 . S
C695 C347 2.251 . S
C689 C181 2.173 . S
C709 C202 1.117 . S
C715 N364 1.137 . S
C729 C255 1.971 . S
C735 C381 1.990 . S
C749 C295 1.372 . S
C755 N416 1.309 . S
C769 C175 2.358 . S
C775 C366 2.376 . S
C795 N326 1.256 . S
C789 C221 1.261 . S
C815 C420 1.957 . S
C809 C242 1.893 . S
C835 N394 1.107 . S
C829 C301 1.126 . S
C849 C162 1.802 . S
C855 C437 1.871 . S
C875 C351 1.733 . S
C869 C261 1.659 . S
C895 C330 1.545 . S
C889 C282 1.546 . S
C909 C215 1.523 . S
C915 C396 1.544 . S
