# Generated by pormake.
# Topology iac, (4,6)-cn, num edge types: 1
# Building blocks:
#     Node 0, Type 0, BuildingBlock: QUQFOY_clean_sbu_1, # of connection points: 4
#     Node 1, Type 0, BuildingBlock: QUQFOY_clean_sbu_1, # of connection points: 4
#     Node 2, Type 0, BuildingBlock: QUQFOY_clean_sbu_1, # of connection points: 4
#     Node 3, Type 0, BuildingBlock: QUQFOY_clean_sbu_1, # of connection points: 4
#     Node 4, Type 0, BuildingBlock: QUQFOY_clean_sbu_1, # of connection points: 4
#     Node 5, Type 0, BuildingBlock: QUQFOY_clean_sbu_1, # of connection points: 4
#     Node 6, Type 0, BuildingBlock: QUQFOY_clean_sbu_1, # of connection points: 4
#     Node 7, Type 0, BuildingBlock: QUQFOY_clean_sbu_1, # of connection points: 4
#     Node 8, Type 0, BuildingBlock: QUQFOY_clean_sbu_1, # of connection points: 4
#     Node 9, Type 0, BuildingBlock: QUQFOY_clean_sbu_1, # of connection points: 4
#     Node 10, Type 0, BuildingBlock: QUQFOY_clean_sbu_1, # of connection points: 4
#     Node 11, Type 0, BuildingBlock: QUQFOY_clean_sbu_1, # of connection points: 4
#     Node 12, Type 0, BuildingBlock: QUQFOY_clean_sbu_1, # of connection points: 4
#     Node 13, Type 0, BuildingBlock: QUQFOY_clean_sbu_1, # of connection points: 4
#     Node 14, Type 0, BuildingBlock: QUQFOY_clean_sbu_1, # of connection points: 4
#     Node 15, Type 0, BuildingBlock: QUQFOY_clean_sbu_1, # of connection points: 4
#     Node 16, Type 0, BuildingBlock: QUQFOY_clean_sbu_1, # of connection points: 4
#     Node 17, Type 0, BuildingBlock: QUQFOY_clean_sbu_1, # of connection points: 4
#     Node 18, Type 0, BuildingBlock: QUQFOY_clean_sbu_1, # of connection points: 4
#     Node 19, Type 0, BuildingBlock: QUQFOY_clean_sbu_1, # of connection points: 4
#     Node 20, Type 0, BuildingBlock: QUQFOY_clean_sbu_1, # of connection points: 4
#     Node 21, Type 0, BuildingBlock: QUQFOY_clean_sbu_1, # of connection points: 4
#     Node 22, Type 0, BuildingBlock: QUQFOY_clean_sbu_1, # of connection points: 4
#     Node 23, Type 0, BuildingBlock: QUQFOY_clean_sbu_1, # of connection points: 4
#     Node 24, Type 1, BuildingBlock: VOLQOD_clean_sbu_1, # of connection points: 6
#     Node 25, Type 1, BuildingBlock: VOLQOD_clean_sbu_1, # of connection points: 6
#     Node 26, Type 1, BuildingBlock: VOLQOD_clean_sbu_1, # of connection points: 6
#     Node 27, Type 1, BuildingBlock: VOLQOD_clean_sbu_1, # of connection points: 6
#     Node 28, Type 1, BuildingBlock: VOLQOD_clean_sbu_1, # of connection points: 6
#     Node 29, Type 1, BuildingBlock: VOLQOD_clean_sbu_1, # of connection points: 6
#     Node 30, Type 1, BuildingBlock: VOLQOD_clean_sbu_1, # of connection points: 6
#     Node 31, Type 1, BuildingBlock: VOLQOD_clean_sbu_1, # of connection points: 6
#     Node 32, Type 1, BuildingBlock: VOLQOD_clean_sbu_1, # of connection points: 6
#     Node 33, Type 1, BuildingBlock: VOLQOD_clean_sbu_1, # of connection points: 6
#     Node 34, Type 1, BuildingBlock: VOLQOD_clean_sbu_1, # of connection points: 6
#     Node 35, Type 1, BuildingBlock: VOLQOD_clean_sbu_1, # of connection points: 6
#     Node 36, Type 1, BuildingBlock: VOLQOD_clean_sbu_1, # of connection points: 6
#     Node 37, Type 1, BuildingBlock: VOLQOD_clean_sbu_1, # of connection points: 6
#     Node 38, Type 1, BuildingBlock: VOLQOD_clean_sbu_1, # of connection points: 6
#     Node 39, Type 1, BuildingBlock: VOLQOD_clean_sbu_1, # of connection points: 6
#     Edge 40, Type (0, 1), BuildingBlock: CIFDUS_clean_linker_0, # of connection points: 2
#     Edge 41, Type (0, 1), BuildingBlock: CIFDUS_clean_linker_0, # of connection points: 2
#     Edge 42, Type (0, 1), BuildingBlock: CIFDUS_clean_linker_0, # of connection points: 2
#     Edge 43, Type (0, 1), BuildingBlock: CIFDUS_clean_linker_0, # of connection points: 2
#     Edge 44, Type (0, 1), BuildingBlock: CIFDUS_clean_linker_0, # of connection points: 2
#     Edge 45, Type (0, 1), BuildingBlock: CIFDUS_clean_linker_0, # of connection points: 2
#     Edge 46, Type (0, 1), BuildingBlock: CIFDUS_clean_linker_0, # of connection points: 2
#     Edge 47, Type (0, 1), BuildingBlock: CIFDUS_clean_linker_0, # of connection points: 2
#     Edge 48, Type (0, 1), BuildingBlock: CIFDUS_clean_linker_0, # of connection points: 2
#     Edge 49, Type (0, 1), BuildingBlock: CIFDUS_clean_linker_0, # of connection points: 2
#     Edge 50, Type (0, 1), BuildingBlock: CIFDUS_clean_linker_0, # of connection points: 2
#     Edge 51, Type (0, 1), BuildingBlock: CIFDUS_clean_linker_0, # of connection points: 2
#     Edge 52, Type (0, 1), BuildingBlock: CIFDUS_clean_linker_0, # of connection points: 2
#     Edge 53, Type (0, 1), BuildingBlock: CIFDUS_clean_linker_0, # of connection points: 2
#     Edge 54, Type (0, 1), BuildingBlock: CIFDUS_clean_linker_0, # of connection points: 2
#     Edge 55, Type (0, 1), BuildingBlock: CIFDUS_clean_linker_0, # of connection points: 2
#     Edge 56, Type (0, 1), BuildingBlock: CIFDUS_clean_linker_0, # of connection points: 2
#     Edge 57, Type (0, 1), BuildingBlock: CIFDUS_clean_linker_0, # of connection points: 2
#     Edge 58, Type (0, 1), BuildingBlock: CIFDUS_clean_linker_0, # of connection points: 2
#     Edge 59, Type (0, 1), BuildingBlock: CIFDUS_clean_linker_0, # of connection points: 2
#     Edge 60, Type (0, 1), BuildingBlock: CIFDUS_clean_linker_0, # of connection points: 2
#     Edge 61, Type (0, 1), BuildingBlock: CIFDUS_clean_linker_0, # of connection points: 2
#     Edge 62, Type (0, 1), BuildingBlock: CIFDUS_clean_linker_0, # of connection points: 2
#     Edge 63, Type (0, 1), BuildingBlock: CIFDUS_clean_linker_0, # of connection points: 2
#     Edge 64, Type (0, 1), BuildingBlock: CIFDUS_clean_linker_0, # of connection points: 2
#     Edge 65, Type (0, 1), BuildingBlock: CIFDUS_clean_linker_0, # of connection points: 2
#     Edge 66, Type (0, 1), BuildingBlock: CIFDUS_clean_linker_0, # of connection points: 2
#     Edge 67, Type (0, 1), BuildingBlock: CIFDUS_clean_linker_0, # of connection points: 2
#     Edge 68, Type (0, 1), BuildingBlock: CIFDUS_clean_linker_0, # of connection points: 2
#     Edge 69, Type (0, 1), BuildingBlock: CIFDUS_clean_linker_0, # of connection points: 2
#     Edge 70, Type (0, 1), BuildingBlock: CIFDUS_clean_linker_0, # of connection points: 2
#     Edge 71, Type (0, 1), BuildingBlock: CIFDUS_clean_linker_0, # of connection points: 2
#     Edge 72, Type (0, 1), BuildingBlock: CIFDUS_clean_linker_0, # of connection points: 2
#     Edge 73, Type (0, 1), BuildingBlock: CIFDUS_clean_linker_0, # of connection points: 2
#     Edge 74, Type (0, 1), BuildingBlock: CIFDUS_clean_linker_0, # of connection points: 2
#     Edge 75, Type (0, 1), BuildingBlock: CIFDUS_clean_linker_0, # of connection points: 2
#     Edge 76, Type (0, 1), BuildingBlock: CIFDUS_clean_linker_0, # of connection points: 2
#     Edge 77, Type (0, 1), BuildingBlock: CIFDUS_clean_linker_0, # of connection points: 2
#     Edge 78, Type (0, 1), BuildingBlock: CIFDUS_clean_linker_0, # of connection points: 2
#     Edge 79, Type (0, 1), BuildingBlock: CIFDUS_clean_linker_0, # of connection points: 2
#     Edge 80, Type (0, 1), BuildingBlock: CIFDUS_clean_linker_0, # of connection points: 2
#     Edge 81, Type (0, 1), BuildingBlock: CIFDUS_clean_linker_0, # of connection points: 2
#     Edge 82, Type (0, 1), BuildingBlock: CIFDUS_clean_linker_0, # of connection points: 2
#     Edge 83, Type (0, 1), BuildingBlock: CIFDUS_clean_linker_0, # of connection points: 2
#     Edge 84, Type (0, 1), BuildingBlock: CIFDUS_clean_linker_0, # of connection points: 2
#     Edge 85, Type (0, 1), BuildingBlock: CIFDUS_clean_linker_0, # of connection points: 2
#     Edge 86, Type (0, 1), BuildingBlock: CIFDUS_clean_linker_0, # of connection points: 2
#     Edge 87, Type (0, 1), BuildingBlock: CIFDUS_clean_linker_0, # of connection points: 2
#     Edge 88, Type (0, 1), BuildingBlock: CIFDUS_clean_linker_0, # of connection points: 2
#     Edge 89, Type (0, 1), BuildingBlock: CIFDUS_clean_linker_0, # of connection points: 2
#     Edge 90, Type (0, 1), BuildingBlock: CIFDUS_clean_linker_0, # of connection points: 2
#     Edge 91, Type (0, 1), BuildingBlock: CIFDUS_clean_linker_0, # of connection points: 2
#     Edge 92, Type (0, 1), BuildingBlock: CIFDUS_clean_linker_0, # of connection points: 2
#     Edge 93, Type (0, 1), BuildingBlock: CIFDUS_clean_linker_0, # of connection points: 2
#     Edge 94, Type (0, 1), BuildingBlock: CIFDUS_clean_linker_0, # of connection points: 2
#     Edge 95, Type (0, 1), BuildingBlock: CIFDUS_clean_linker_0, # of connection points: 2
#     Edge 96, Type (0, 1), BuildingBlock: CIFDUS_clean_linker_0, # of connection points: 2
#     Edge 97, Type (0, 1), BuildingBlock: CIFDUS_clean_linker_0, # of connection points: 2
#     Edge 98, Type (0, 1), BuildingBlock: CIFDUS_clean_linker_0, # of connection points: 2
#     Edge 99, Type (0, 1), BuildingBlock: CIFDUS_clean_linker_0, # of connection points: 2
#     Edge 100, Type (0, 1), BuildingBlock: CIFDUS_clean_linker_0, # of connection points: 2
#     Edge 101, Type (0, 1), BuildingBlock: CIFDUS_clean_linker_0, # of connection points: 2
#     Edge 102, Type (0, 1), BuildingBlock: CIFDUS_clean_linker_0, # of connection points: 2
#     Edge 103, Type (0, 1), BuildingBlock: CIFDUS_clean_linker_0, # of connection points: 2
#     Edge 104, Type (0, 1), BuildingBlock: CIFDUS_clean_linker_0, # of connection points: 2
#     Edge 105, Type (0, 1), BuildingBlock: CIFDUS_clean_linker_0, # of connection points: 2
#     Edge 106, Type (0, 1), BuildingBlock: CIFDUS_clean_linker_0, # of connection points: 2
#     Edge 107, Type (0, 1), BuildingBlock: CIFDUS_clean_linker_0, # of connection points: 2
#     Edge 108, Type (0, 1), BuildingBlock: CIFDUS_clean_linker_0, # of connection points: 2
#     Edge 109, Type (0, 1), BuildingBlock: CIFDUS_clean_linker_0, # of connection points: 2
#     Edge 110, Type (0, 1), BuildingBlock: CIFDUS_clean_linker_0, # of connection points: 2
#     Edge 111, Type (0, 1), BuildingBlock: CIFDUS_clean_linker_0, # of connection points: 2
#     Edge 112, Type (0, 1), BuildingBlock: CIFDUS_clean_linker_0, # of connection points: 2
#     Edge 113, Type (0, 1), BuildingBlock: CIFDUS_clean_linker_0, # of connection points: 2
#     Edge 114, Type (0, 1), BuildingBlock: CIFDUS_clean_linker_0, # of connection points: 2
#     Edge 115, Type (0, 1), BuildingBlock: CIFDUS_clean_linker_0, # of connection points: 2
#     Edge 116, Type (0, 1), BuildingBlock: CIFDUS_clean_linker_0, # of connection points: 2
#     Edge 117, Type (0, 1), BuildingBlock: CIFDUS_clean_linker_0, # of connection points: 2
#     Edge 118, Type (0, 1), BuildingBlock: CIFDUS_clean_linker_0, # of connection points: 2
#     Edge 119, Type (0, 1), BuildingBlock: CIFDUS_clean_linker_0, # of connection points: 2
#     Edge 120, Type (0, 1), BuildingBlock: CIFDUS_clean_linker_0, # of connection points: 2
#     Edge 121, Type (0, 1), BuildingBlock: CIFDUS_clean_linker_0, # of connection points: 2
#     Edge 122, Type (0, 1), BuildingBlock: CIFDUS_clean_linker_0, # of connection points: 2
#     Edge 123, Type (0, 1), BuildingBlock: CIFDUS_clean_linker_0, # of connection points: 2
#     Edge 124, Type (0, 1), BuildingBlock: CIFDUS_clean_linker_0, # of connection points: 2
#     Edge 125, Type (0, 1), BuildingBlock: CIFDUS_clean_linker_0, # of connection points: 2
#     Edge 126, Type (0, 1), BuildingBlock: CIFDUS_clean_linker_0, # of connection points: 2
#     Edge 127, Type (0, 1), BuildingBlock: CIFDUS_clean_linker_0, # of connection points: 2
#     Edge 128, Type (0, 1), BuildingBlock: CIFDUS_clean_linker_0, # of connection points: 2
#     Edge 129, Type (0, 1), BuildingBlock: CIFDUS_clean_linker_0, # of connection points: 2
#     Edge 130, Type (0, 1), BuildingBlock: CIFDUS_clean_linker_0, # of connection points: 2
#     Edge 131, Type (0, 1), BuildingBlock: CIFDUS_clean_linker_0, # of connection points: 2
#     Edge 132, Type (0, 1), BuildingBlock: CIFDUS_clean_linker_0, # of connection points: 2
#     Edge 133, Type (0, 1), BuildingBlock: CIFDUS_clean_linker_0, # of connection points: 2
#     Edge 134, Type (0, 1), BuildingBlock: CIFDUS_clean_linker_0, # of connection points: 2
#     Edge 135, Type (0, 1), BuildingBlock: CIFDUS_clean_linker_0, # of connection points: 2
# Relax obj value: 0.337
# Max RMSD: 0.302
# Mean RMSD: 0.199
data_MOF--net-iac--node1-QUQFOY_clean_sbu_1--node2-VOLQOD_clean_sbu_1--edge1-CIFDUS_clean_linker_0
_symmetry_space_group_name_H-M    P1
_symmetry_Int_Tables_number       1
_symmetry_cell_setting            triclinic
loop_
_symmetry_equiv_pos_as_xyz
'x, y, z'
_cell_length_a     49.426873
_cell_length_b     49.357485
_cell_length_c     49.404358
_cell_angle_alpha  91.262961
_cell_angle_beta   90.496174
_cell_angle_gamma 93.687355
loop_
_atom_site_label
_atom_site_type_symbol
_atom_site_fract_x
_atom_site_fract_y
_atom_site_fract_z
_atom_type_partial_charge
O0 O 0.98695 0.20185 0.17089 0.0
Cd1 Cd 0.99168 0.23381 0.19797 0.0
Cd2 Cd 0.0163 0.26096 0.15475 0.0
O3 O -0.00235 0.22697 0.13576 0.0
O4 O 0.96594 0.2258 0.22756 0.0
O5 O 0.96173 0.25895 0.1983 0.0
C6 C 0.95238 0.24521 0.21854 0.0
C7 C 0.01734 0.30041 0.12979 0.0
C8 C 0.98838 0.20468 0.14548 0.0
C9 C 0.04969 0.25204 0.20507 0.0
O10 O 0.04929 0.25868 0.18037 0.0
O11 O 0.02826 0.24279 0.21645 0.0
O12 O 0.03184 0.28061 0.1232 0.0
O13 O 0.00188 0.29787 0.15064 0.0
O14 O 0.06375 0.73282 0.37685 0.0
Cd15 Cd 0.04233 0.74668 0.40935 0.0
Cd16 Cd 0.00678 0.76044 0.37097 0.0
O17 O 0.03358 0.74236 0.3459 0.0
O18 O 0.04835 0.72386 0.44105 0.0
O19 O 0.00902 0.72469 0.41907 0.0
C20 C 0.02327 0.71504 0.43823 0.0
C21 C 0.96081 0.75358 0.36135 0.0
C22 C 0.05578 0.73251 0.35232 0.0
C23 C 0.03148 0.80463 0.40898 0.0
O24 O 0.01649 0.79785 0.38864 0.0
O25 O 0.04465 0.78704 0.42087 0.0
O26 O 0.97669 0.76808 0.3461 0.0
O27 O 0.97127 0.74192 0.3817 0.0
O28 O 0.48126 0.66039 0.66721 0.0
Cd29 Cd 0.48101 0.69316 0.69315 0.0
Cd30 Cd 0.49916 0.72453 0.6497 0.0
O31 O 0.49002 0.68676 0.63251 0.0
O32 O 0.45134 0.68842 0.71929 0.0
O33 O 0.45194 0.71782 0.68563 0.0
C34 C 0.43979 0.70697 0.70619 0.0
C35 C 0.49738 0.75972 0.61983 0.0
C36 C 0.48403 0.66347 0.64194 0.0
C37 C 0.53159 0.72656 0.70283 0.0
O38 O 0.5287 0.73372 0.67854 0.0
O39 O 0.51492 0.7092 0.71309 0.0
O40 O 0.51569 0.74246 0.61795 0.0
O41 O 0.47928 0.75671 0.63837 0.0
O42 O 0.55338 0.2534 0.85359 0.0
Cd43 Cd 0.52554 0.26121 0.88339 0.0
Cd44 Cd 0.4969 0.27661 0.83936 0.0
O45 O 0.52976 0.26535 0.81811 0.0
O46 O 0.53567 0.24048 0.91579 0.0
O47 O 0.49724 0.23236 0.89274 0.0
C48 C 0.51286 0.22648 0.9126 0.0
C49 C 0.45334 0.26064 0.82732 0.0
C50 C 0.55107 0.25646 0.8282 0.0
C51 C 0.5095 0.31883 0.88281 0.0
O52 O 0.49969 0.31339 0.85935 0.0
O53 O 0.52049 0.30071 0.89622 0.0
O54 O 0.46645 0.27869 0.81316 0.0
O55 O 0.4656 0.25077 0.84773 0.0
O56 O 0.15165 0.99603 0.14989 0.0
Cd57 Cd 0.18337 0.99028 0.1759 0.0
Cd58 Cd 0.14289 -0.00068 0.21752 0.0
O59 O 0.12088 -0.00305 0.18204 0.0
O60 O 0.20675 0.96141 0.16287 0.0
O61 O 0.17907 0.9572 0.19798 0.0
C62 C 0.19655 0.94678 0.18213 0.0
C63 C 0.11552 0.00019 0.25574 0.0
C64 C 0.12711 -0.00303 0.15717 0.0
C65 C 0.19692 0.03541 0.21368 0.0
O66 O 0.17456 0.02756 0.2242 0.0
O67 O 0.20529 0.02345 0.19266 0.0
O68 O 0.1174 0.01994 0.23932 0.0
O69 O 0.12836 0.97888 0.25002 0.0
O70 O 0.24997 0.89932 0.5615 0.0
Cd71 Cd 0.26164 0.91807 0.52605 0.0
Cd72 Cd 0.26774 0.86662 0.5088 0.0
O73 O 0.24458 0.85878 0.54195 0.0
O74 O 0.24228 0.95191 0.52334 0.0
O75 O 0.23309 0.91508 0.49736 0.0
C76 C 0.22732 0.93929 0.50489 0.0
C77 C 0.26109 0.83783 0.47142 0.0
C78 C 0.24132 0.87451 0.56211 0.0
C79 C 0.31733 0.90507 0.51288 0.0
O80 O 0.3074 0.88074 0.51256 0.0
O81 O 0.30201 0.92457 0.51604 0.0
O82 O 0.2725 0.82996 0.49312 0.0
O83 O 0.25224 0.8619 0.47138 0.0
O84 O 0.39503 0.02874 0.6844 0.0
Cd85 Cd 0.36218 0.02325 0.71016 0.0
Cd86 Cd 0.39991 0.00759 0.74564 0.0
O87 O 0.42515 0.01753 0.71459 0.0
O88 O 0.33434 0.04963 0.70305 0.0
O89 O 0.35817 0.04898 0.74132 0.0
C90 C 0.33937 0.05929 0.72723 0.0
C91 C 0.41744 0.01641 0.7888 0.0
C92 C 0.41949 0.02537 0.69108 0.0
C93 C 0.35305 0.96756 0.73041 0.0
O94 O 0.37516 0.97285 0.74321 0.0
O95 O 0.34347 0.98508 0.71518 0.0
O96 O 0.42591 -0.00272 0.77365 0.0
O97 O 0.39923 0.03123 0.77911 0.0
O98 O 0.2382 0.1099 0.10924 0.0
Cd99 Cd 0.22758 0.08387 0.0769 0.0
Cd100 Cd 0.22465 0.13024 0.05196 0.0
O101 O 0.2501 0.14364 0.08252 0.0
O102 O 0.24745 0.05021 0.08011 0.0
O103 O 0.25724 0.08259 0.05055 0.0
C104 C 0.26309 0.06008 0.06141 0.0
C105 C 0.23245 0.14544 0.00854 0.0
C106 C 0.25025 0.13308 0.10565 0.0
C107 C 0.17389 0.0981 0.05793 0.0
O108 O 0.18438 0.12217 0.05953 0.0
O109 O 0.18859 0.0782 0.06112 0.0
O110 O 0.22441 0.16135 0.02742 0.0
O111 O 0.23721 0.12088 0.01463 0.0
O112 O 0.73527 0.36196 0.0541 0.0
Cd113 Cd 0.745 0.3825 0.01941 0.0
Cd114 Cd 0.76547 0.33393 0.00799 0.0
O115 O 0.7444 0.32062 0.04097 0.0
O116 O 0.72807 0.41738 0.02608 0.0
O117 O 0.71421 0.38784 0.99374 0.0
C118 C 0.71117 0.41037 0.00684 0.0
C119 C 0.7575 0.31614 0.96516 0.0
C120 C 0.73467 0.33664 0.05822 0.0
C121 C 0.80505 0.3809 0.01144 0.0
O122 O 0.80214 0.35526 0.01303 0.0
O123 O 0.78449 0.39505 0.01141 0.0
O124 O 0.77123 0.30338 0.9826 0.0
O125 O 0.74698 0.33837 0.97282 0.0
O126 O 0.85349 0.53911 0.21106 0.0
Cd127 Cd 0.82494 0.52987 0.23981 0.0
Cd128 Cd 0.86658 0.50963 0.26625 0.0
O129 O 0.88788 0.52314 0.23293 0.0
O130 O 0.79566 0.55464 0.23491 0.0
O131 O 0.82137 0.55437 0.27198 0.0
C132 C 0.80171 0.56431 0.25884 0.0
C133 C 0.88609 0.51651 0.30886 0.0
C134 C 0.87848 0.53473 0.21249 0.0
C135 C 0.81694 0.47234 0.25325 0.0
O136 O 0.84038 0.47556 0.26399 0.0
O137 O 0.80673 0.49169 0.24118 0.0
O138 O 0.8944 0.49856 0.2921 0.0
O139 O 0.8673 0.53161 0.30088 0.0
O140 O 0.72793 0.64297 0.61701 0.0
Cd141 Cd 0.72671 0.60851 0.59243 0.0
Cd142 Cd 0.70236 0.64291 0.55537 0.0
O143 O 0.70416 0.66722 0.58953 0.0
O144 O 0.75711 0.58586 0.60166 0.0
O145 O 0.75399 0.60781 0.56311 0.0
C146 C 0.76703 0.59194 0.5783 0.0
C147 C 0.70357 0.66722 0.51563 0.0
C148 C 0.71658 0.66467 0.61181 0.0
C149 C 0.67583 0.58661 0.56658 0.0
O150 O 0.67837 0.60771 0.55242 0.0
O151 O 0.69196 0.58346 0.58625 0.0
O152 O 0.68209 0.66502 0.53009 0.0
O153 O 0.72477 0.65561 0.52371 0.0
O154 O 0.64115 0.51341 0.66993 0.0
Cd155 Cd 0.6707 0.5314 0.69529 0.0
Cd156 Cd 0.62581 0.5422 0.72623 0.0
O157 O 0.60983 0.51174 0.70135 0.0
O158 O 0.70444 0.51312 0.68762 0.0
O159 O 0.68095 0.50836 0.72558 0.0
C160 C 0.70092 0.50158 0.71065 0.0
C161 C 0.60677 0.54361 0.76891 0.0
C162 C 0.61817 0.50438 0.67836 0.0
C163 C 0.66025 0.58907 0.70629 0.0
O164 O 0.63658 0.58022 0.71269 0.0
O165 O 0.67814 0.57265 0.7003 0.0
O166 O 0.59342 0.54961 0.74766 0.0
O167 O 0.63122 0.53633 0.76602 0.0
O168 O 0.03613 0.7694 0.89714 0.0
Cd169 Cd 0.00985 0.76685 0.92884 0.0
Cd170 Cd 0.97345 0.76205 0.89089 0.0
O171 O 0.00583 0.75117 0.86812 0.0
O172 O 0.02573 0.74687 0.95877 0.0
O173 O 0.98915 0.73173 0.93504 0.0
C174 C 0.00697 0.7279 0.95367 0.0
C175 C 0.93104 0.74332 0.87825 0.0
C176 C 0.03 0.75965 0.87378 0.0
C177 C 0.98028 0.81464 0.9235 0.0
O178 O 0.97144 0.80248 0.90198 0.0
O179 O 0.99497 0.80277 0.94012 0.0
O180 O 0.94525 0.75875 0.86249 0.0
O181 O 0.94125 0.73727 0.90127 0.0
O182 O 0.011 0.22453 0.60649 0.0
Cd183 Cd 0.01144 0.24461 0.64373 0.0
Cd184 Cd 0.05241 0.27247 0.6189 0.0
O185 O 0.05217 0.23873 0.59394 0.0
O186 O 0.97659 0.23567 0.66317 0.0
O187 O 0.98947 0.27689 0.64967 0.0
C188 C 0.97192 0.26101 0.66158 0.0
C189 C 0.03678 0.31054 0.59889 0.0
C190 C 0.03081 0.22335 0.59028 0.0
C191 C 0.06363 0.25391 0.67412 0.0
O192 O 0.07035 0.2718 0.65683 0.0
O193 O 0.04213 0.23864 0.67089 0.0
O194 O 0.06212 0.3056 0.59741 0.0
O195 O 0.02101 0.29452 0.61277 0.0
O196 O 0.52986 0.17443 0.40276 0.0
Cd197 Cd 0.51089 0.20938 0.39577 0.0
Cd198 Cd 0.4994 0.20385 0.45209 0.0
O199 O 0.52533 0.17322 0.44736 0.0
O200 O 0.52113 0.22098 0.35832 0.0
O201 O 0.53306 0.24476 0.39533 0.0
C202 C 0.53378 0.2421 0.36942 0.0
C203 C 0.51256 0.24704 0.4666 0.0
C204 C 0.53456 0.16378 0.42535 0.0
C205 C 0.4523 0.20232 0.41555 0.0
O206 O 0.45957 0.19838 0.43981 0.0
O207 O 0.46951 0.20765 0.39711 0.0
O208 O 0.50544 0.2291 0.48432 0.0
O209 O 0.51347 0.23954 0.44158 0.0
O210 O 0.50415 0.73326 0.12292 0.0
Cd211 Cd 0.50309 0.76058 0.15471 0.0
Cd212 Cd 0.5409 0.78593 0.1264 0.0
O213 O 0.54366 0.74869 0.10733 0.0
O214 O 0.47149 0.74866 0.17666 0.0
O215 O 0.47488 0.78822 0.15615 0.0
C216 C 0.46164 0.77161 0.1718 0.0
C217 C 0.52829 0.82037 0.0989 0.0
C218 C 0.52396 0.73089 0.10703 0.0
C219 C 0.55347 0.77942 0.18414 0.0
O220 O 0.55914 0.79377 0.16367 0.0
O221 O 0.53333 0.76221 0.18345 0.0
O222 O 0.55313 0.81377 0.10009 0.0
O223 O 0.51071 0.80791 0.11425 0.0
O224 O 0.89354 0.04121 0.6739 0.0
Cd225 Cd 0.87068 0.04127 0.70866 0.0
Cd226 Cd 0.91605 0.02059 0.72957 0.0
O227 O 0.93013 0.02408 0.69075 0.0
O228 O 0.83974 0.06469 0.70269 0.0
O229 O 0.87209 0.07404 0.73329 0.0
C230 C 0.8498 0.08033 0.72201 0.0
C231 C 0.93597 0.0445 0.76599 0.0
C232 C 0.91727 0.0331 0.67085 0.0
C233 C 0.86465 0.98636 0.73435 0.0
O234 O 0.89005 0.98806 0.73889 0.0
O235 O 0.85337 0.00524 0.72241 0.0
O236 O 0.94682 0.0234 0.75601 0.0
O237 O 0.9146 0.05263 0.75433 0.0
O238 O 0.79343 0.13575 0.55338 0.0
Cd239 Cd 0.78911 0.0976 0.53588 0.0
Cd240 Cd 0.7507 0.11609 0.50745 0.0
O241 O 0.75232 0.14351 0.53955 0.0
O242 O 0.82294 0.07848 0.53579 0.0
O243 O 0.80264 0.09157 0.49833 0.0
C244 C 0.82182 0.07913 0.50967 0.0
C245 C 0.74347 0.13748 0.46694 0.0
C246 C 0.77328 0.15044 0.55372 0.0
C247 C 0.74056 0.06256 0.53284 0.0
O248 O 0.73622 0.07628 0.51199 0.0
O249 O 0.75928 0.07035 0.54941 0.0
O250 O 0.72381 0.13131 0.48308 0.0
O251 O 0.76733 0.13019 0.47314 0.0
O252 O 0.61464 0.96907 0.20816 0.0
Cd253 Cd 0.64011 0.97851 0.24084 0.0
Cd254 Cd 0.59474 0.98698 0.26767 0.0
O255 O 0.57871 0.98296 0.22933 0.0
O256 O 0.67643 0.96294 0.23804 0.0
O257 O 0.64796 0.95529 0.27182 0.0
C258 C 0.67152 0.95262 0.26145 0.0
C259 C 0.5769 0.96032 0.30225 0.0
C260 C 0.59001 0.97526 0.20773 0.0
C261 C 0.63526 0.03374 0.2645 0.0
O262 O 0.61439 0.02432 0.27691 0.0
O263 O 0.6474 0.01887 0.24794 0.0
O264 O 0.56429 0.98058 0.29359 0.0
O265 O 0.59935 0.95497 0.29087 0.0
O266 O 0.72182 0.89308 0.09501 0.0
Cd267 Cd 0.72672 0.91322 0.05918 0.0
Cd268 Cd 0.74379 0.865 0.04072 0.0
O269 O 0.73776 0.85468 0.08031 0.0
O270 O 0.70309 0.94454 0.05837 0.0
O271 O 0.69796 0.90874 0.03056 0.0
C272 C 0.69018 0.93206 0.03843 0.0
C273 C 0.72367 0.83882 0.00561 0.0
C274 C 0.72842 0.86905 0.09928 0.0
C275 C 0.78275 0.91388 0.03698 0.0
O276 O 0.77793 0.88883 0.03114 0.0
O277 O 0.76522 0.92735 0.04902 0.0
O278 O 0.7444 0.83077 0.0185 0.0
O279 O 0.71382 0.8612 0.01351 0.0
O280 O 0.28694 0.62059 0.04093 0.0
Cd281 Cd 0.28089 0.60438 0.00217 0.0
Cd282 Cd 0.25565 0.64773 -0.00396 0.0
O283 O 0.27857 0.66172 0.02833 0.0
O284 O 0.30963 0.57981 0.99314 0.0
O285 O 0.30467 0.61888 0.97265 0.0
C286 C 0.31778 0.59726 0.97541 0.0
C287 C 0.25087 0.67786 0.96139 0.0
C288 C 0.28687 0.64594 0.046 0.0
C289 C 0.22299 0.59476 0.00045 0.0
O290 O 0.22344 0.62034 0.00391 0.0
O291 O 0.24455 0.58331 0.99504 0.0
O292 O 0.23758 0.68001 0.98355 0.0
O293 O 0.26686 0.65832 0.95874 0.0
O294 O 0.129 0.47763 0.71547 0.0
Cd295 Cd 0.15485 0.48401 0.74824 0.0
Cd296 Cd 0.11102 0.50035 0.77533 0.0
O297 O 0.09385 0.49149 0.73795 0.0
O298 O 0.18173 0.45604 0.75409 0.0
O299 O 0.14674 0.46236 0.78089 0.0
C300 C 0.16787 0.44929 0.77529 0.0
C301 C 0.08221 0.49313 0.81219 0.0
C302 C 0.10418 0.48299 0.71616 0.0
C303 C 0.15926 0.54079 0.76764 0.0
O304 O 0.13662 0.53493 0.77878 0.0
O305 O 0.17078 0.52319 0.7535 0.0
O306 O 0.07907 0.51226 0.79544 0.0
O307 O 0.10173 0.47752 0.80793 0.0
O308 O 0.18425 0.35626 0.59874 0.0
Cd309 Cd 0.19772 0.38547 0.57211 0.0
Cd310 Cd 0.21001 0.34414 0.5406 0.0
O311 O 0.19364 0.32204 0.57182 0.0
O312 O 0.17893 0.41916 0.57858 0.0
O313 O 0.17485 0.39454 0.54044 0.0
C314 C 0.16885 0.41572 0.55446 0.0
C315 C 0.2014 0.32865 0.49647 0.0
C316 C 0.18489 0.33087 0.5942 0.0
C317 C 0.25587 0.3831 0.55971 0.0
O318 O 0.24854 0.36179 0.54602 0.0
O319 O 0.23848 0.39625 0.57226 0.0
O320 O 0.21537 0.31531 0.51305 0.0
O321 O 0.19122 0.3506 0.5052 0.0
O322 O 0.41779 0.51132 0.20549 0.0
Cd323 Cd 0.39393 0.50837 0.23972 0.0
Cd324 Cd 0.43987 0.49188 0.26095 0.0
O325 O 0.45632 0.5006 0.22402 0.0
O326 O 0.35964 0.52541 0.23042 0.0
O327 O 0.38735 0.54141 0.2631 0.0
C328 C 0.36502 0.54299 0.24969 0.0
C329 C 0.45193 0.51368 0.30114 0.0
C330 C 0.44291 0.5074 0.2035 0.0
C331 C 0.39384 0.45122 0.26123 0.0
O332 O 0.4192 0.45493 0.26537 0.0
O333 O 0.38045 0.47015 0.25191 0.0
O334 O 0.46767 0.49682 0.29004 0.0
O335 O 0.43032 0.51961 0.28826 0.0
O336 O 0.96749 0.10105 0.00062 0.0
Zn337 Zn 0.98381 0.07659 0.97292 0.0
O338 O 0.97877 0.03905 0.98276 0.0
Zn339 Zn 0.01309 0.02478 0.97451 0.0
Zn340 Zn 0.9709 0.03632 0.02069 0.0
Zn341 Zn 0.95167 0.01956 0.96098 0.0
O342 O 0.00887 0.98853 0.95691 0.0
O343 O 0.96484 0.98363 0.94786 0.0
O344 O 0.02388 0.08602 0.97567 0.0
O345 O 0.03627 0.05039 0.95296 0.0
O346 O 0.03336 0.02012 0.00851 0.0
O347 O 0.00297 0.0226 0.0412 0.0
O348 O 0.93582 0.01364 0.02581 0.0
O349 O 0.9693 0.08076 0.93509 0.0
O350 O 0.91948 0.00922 0.98356 0.0
O351 O 0.94307 0.04238 0.92919 0.0
C352 C 0.96354 0.09693 0.02572 0.0
C353 C 0.98828 0.97432 0.94793 0.0
C354 C 0.027 0.01875 0.0333 0.0
C355 C 0.0426 0.07266 0.96545 0.0
C356 C 0.91699 0.00596 0.00896 0.0
C357 C 0.95232 0.06554 0.92116 0.0
O358 O 0.96541 0.07351 0.03565 0.0
O359 O 0.24098 0.68982 0.21032 0.0
Zn360 Zn 0.23906 0.69831 0.25003 0.0
O361 O 0.25313 0.73566 0.25754 0.0
Zn362 Zn 0.28262 0.73539 0.28451 0.0
Zn363 Zn 0.26544 0.75378 0.22473 0.0
Zn364 Zn 0.22384 0.75547 0.27109 0.0
O365 O 0.27239 0.75449 0.31943 0.0
O366 O 0.2331 0.77057 0.30754 0.0
O367 O 0.26366 0.6724 0.26597 0.0
O368 O 0.29387 0.69706 0.29099 0.0
O369 O 0.31643 0.75449 0.2698 0.0
O370 O 0.30471 0.76562 0.22821 0.0
O371 O 0.24516 0.78715 0.21571 0.0
O372 O 0.20112 0.68993 0.26433 0.0
O373 O 0.21527 0.78668 0.24876 0.0
O374 O 0.19032 0.73189 0.27457 0.0
C375 C 0.2525 0.70247 0.19093 0.0
C376 C 0.25212 0.76843 0.32464 0.0
C377 C 0.32236 0.76479 0.24701 0.0
C378 C 0.28454 0.67417 0.28126 0.0
C379 C 0.22534 0.79735 0.22768 0.0
C380 C 0.1841 0.7066 0.27227 0.0
O381 O 0.26268 0.72674 0.19398 0.0
O382 O 0.52853 0.89999 0.52776 0.0
Zn383 Zn 0.5256 0.92851 0.50004 0.0
O384 O 0.54275 0.96233 0.51337 0.0
Zn385 Zn 0.51866 0.99066 0.50531 0.0
Zn386 Zn 0.55079 0.96162 0.55185 0.0
Zn387 Zn 0.57652 0.96827 0.49483 0.0
O388 O 0.53741 0.01867 0.48256 0.0
O389 O 0.58 0.00638 0.48111 0.0
O390 O 0.48602 0.93252 0.49521 0.0
O391 O 0.48283 0.97653 0.48926 0.0
O392 O 0.50724 0.00876 0.53958 0.0
O393 O 0.52783 0.98733 0.57214 0.0
O394 O 0.59065 0.97192 0.55981 0.0
O395 O 0.54026 0.91765 0.46365 0.0
O396 O 0.60807 0.96494 0.51923 0.0
O397 O 0.57874 0.94344 0.46265 0.0
C398 C 0.53312 0.90163 0.55319 0.0
C399 C 0.56212 0.023 0.476 0.0
C400 C 0.51172 0.00487 0.56453 0.0
C401 C 0.472 0.95247 0.48981 0.0
C402 C 0.61109 0.97005 0.54445 0.0
C403 C 0.56237 0.92515 0.45216 0.0
O404 O 0.54093 0.92403 0.56504 0.0
O405 O 0.23823 0.24125 0.86151 0.0
Zn406 Zn 0.24595 0.26003 0.82647 0.0
O407 O 0.22452 0.24169 0.79902 0.0
Zn408 Zn 0.24383 0.24092 0.76549 0.0
Zn409 Zn 0.2122 0.20523 0.80818 0.0
Zn410 Zn 0.1923 0.26099 0.79729 0.0
O411 O 0.22239 0.25891 0.73677 0.0
O412 O 0.18486 0.26904 0.75857 0.0
O413 O 0.28437 0.25661 0.81654 0.0
O414 O 0.28274 0.25649 0.77142 0.0
O415 O 0.24866 0.20232 0.75358 0.0
O416 O 0.23523 0.17839 0.78924 0.0
O417 O 0.17329 0.19984 0.79384 0.0
O418 O 0.23899 0.30027 0.8281 0.0
O419 O 0.16193 0.23804 0.81245 0.0
O420 O 0.19568 0.29712 0.8159 0.0
C421 C 0.22676 0.2181 0.86692 0.0
C422 C 0.19877 0.26801 0.73706 0.0
C423 C 0.24673 0.18012 0.7663 0.0
C424 C 0.29612 0.25753 0.79372 0.0
C425 C 0.15532 0.2167 0.79855 0.0
C426 C 0.21656 0.31112 0.82453 0.0
O427 O 0.21601 0.2021 0.84857 0.0
O428 O 0.02612 0.02597 0.39908 0.0
Zn429 Zn 0.00495 0.01649 0.43194 0.0
O430 O 0.02468 0.03228 0.46356 0.0
Zn431 Zn 0.03406 0.00339 0.48796 0.0
Zn432 Zn 0.05733 0.055 0.45366 0.0
Zn433 Zn 0.00054 0.05514 0.4815 0.0
O434 O 0.01646 0.00665 0.52497 0.0
O435 O 0.99142 0.04151 0.51778 0.0
O436 O 0.00349 0.97606 0.43278 0.0
O437 O 0.02339 0.96657 0.47156 0.0
O438 O 0.07436 0.00333 0.49158 0.0
O439 O 0.09089 0.03834 0.46779 0.0
O440 O 0.05768 0.09386 0.46937 0.0
O441 O 0.96606 0.0275 0.4284 0.0
O442 O 0.01668 0.09199 0.48718 0.0
O443 O 0.96585 0.05767 0.46223 0.0
C444 C 0.04737 0.04093 0.39417 0.0
C445 C -0.00095 0.02297 0.53294 0.0
C446 C 0.09426 0.01781 0.48232 0.0
C447 C 0.01172 0.95899 0.44936 0.0
C448 C 0.03891 0.10507 0.48215 0.0
C449 C 0.95432 0.04534 0.44209 0.0
O450 O 0.06071 0.0544 0.41279 0.0
O451 O 0.28853 0.76266 0.75137 0.0
Zn452 Zn 0.25928 0.7799 0.77121 0.0
O453 O 0.22449 0.769 0.75462 0.0
Zn454 Zn 0.20455 0.8011 0.74798 0.0
Zn455 Zn 0.22925 0.74733 0.7214 0.0
Zn456 Zn 0.20425 0.74713 0.77956 0.0
O457 O 0.16957 0.80154 0.76911 0.0
O458 O 0.16752 0.75946 0.78436 0.0
O459 O 0.26702 0.81985 0.76784 0.0
O460 O 0.22804 0.83548 0.75464 0.0
O461 O 0.19618 0.80226 0.70852 0.0
O462 O 0.21297 0.76563 0.68973 0.0
O463 O 0.21443 0.70805 0.72475 0.0
O464 O 0.26234 0.76901 0.81009 0.0
O465 O 0.20083 0.70879 0.76734 0.0
O466 O 0.22194 0.7478 0.81582 0.0
C467 C 0.28996 0.75074 0.72843 0.0
C468 C 0.15692 0.78187 0.78085 0.0
C469 C 0.20101 0.78765 0.68779 0.0
C470 C 0.25298 0.83943 0.76117 0.0
C471 C 0.20489 0.69587 0.74542 0.0
C472 C 0.24507 0.75645 0.82496 0.0
O473 O 0.26903 0.74503 0.7137 0.0
O474 O 0.51937 0.03841 0.06739 0.0
Zn475 Zn 0.51771 0.0434 0.02725 0.0
O476 O 0.4874 0.02001 0.01237 0.0
Zn477 Zn 0.5012 0.99092 0.98966 0.0
Zn478 Zn 0.46423 0.00468 0.04107 0.0
Zn479 Zn 0.46555 0.04193 0.99082 0.0
O480 O 0.48839 0.99246 0.95059 0.0
O481 O 0.464 0.02858 0.95308 0.0
O482 O 0.55314 0.02977 0.01544 0.0
O483 O 0.54198 0.9925 0.99094 0.0
O484 O 0.49031 0.95467 0.00528 0.0
O485 O 0.463 0.96395 0.03923 0.0
O486 O 0.42568 0.01672 0.0399 0.0
O487 O 0.51703 0.08311 0.01623 0.0
O488 O 0.42778 0.04222 0.00356 0.0
O489 O 0.4804 0.07995 0.98993 0.0
C490 C 0.50434 0.02562 0.08431 0.0
C491 C 0.47355 0.00935 0.93949 0.0
C492 C 0.47528 0.94701 0.02484 0.0
C493 C 0.55983 0.00897 0.00205 0.0
C494 C 0.41448 0.03169 0.02296 0.0
C495 C 0.50041 0.0939 0.00046 0.0
O496 O 0.4819 0.01322 0.0773 0.0
O497 O 0.20189 0.24803 0.28188 0.0
Zn498 Zn 0.23233 0.23335 0.30285 0.0
O499 O 0.26633 0.24963 0.2899 0.0
Zn500 Zn 0.28892 0.22137 0.27855 0.0
Zn501 Zn 0.26077 0.27179 0.2589 0.0
Zn502 Zn 0.28445 0.27093 0.31868 0.0
O503 O 0.3177 0.21651 0.30539 0.0
O504 O 0.31395 0.2499 0.33568 0.0
O505 O 0.22912 0.19266 0.29633 0.0
O506 O 0.26746 0.18602 0.27495 0.0
O507 O 0.30461 0.22695 0.2421 0.0
O508 O 0.27388 0.25301 0.22554 0.0
O509 O 0.28117 0.30783 0.26352 0.0
O510 O 0.22662 0.24362 0.34193 0.0
O511 O 0.30083 0.30631 0.30415 0.0
O512 O 0.25747 0.27832 0.34774 0.0
C513 C 0.20023 0.26504 0.26303 0.0
C514 C 0.32499 0.22862 0.32744 0.0
C515 C 0.29264 0.23681 0.22208 0.0
C516 C 0.2445 0.17717 0.28351 0.0
C517 C 0.29676 0.31841 0.28206 0.0
C518 C 0.2367 0.26408 0.3556 0.0
O519 O 0.22133 0.27662 0.2527 0.0
O520 O 0.53601 0.5338 0.92163 0.0
Zn521 Zn 0.51119 0.51921 0.95 0.0
O522 O 0.52538 0.5315 0.98522 0.0
Zn523 Zn 0.52915 0.50028 0.00808 0.0
Zn524 Zn 0.56039 0.55297 0.98252 0.0
Zn525 Zn 0.49916 0.55374 0.00082 0.0
O526 O 0.50978 0.50412 0.04386 0.0
O527 O 0.48417 0.53825 0.03487 0.0
O528 O 0.50973 0.47881 0.94697 0.0
O529 O 0.51595 0.46535 0.989 0.0
O530 O 0.56845 0.49521 0.01374 0.0
O531 O 0.59066 0.53178 -0.00276 0.0
O532 O 0.56002 0.59 0.00206 0.0
O533 O 0.47344 0.53071 0.94193 0.0
O534 O 0.51619 0.58935 0.01122 0.0
O535 O 0.46839 0.55967 0.97615 0.0
C536 C 0.55803 0.54865 0.92133 0.0
C537 C 0.49118 0.5197 0.05042 0.0
C538 C 0.59044 0.50873 0.00834 0.0
C539 C 0.51085 0.46001 0.96407 0.0
C540 C 0.53964 0.60142 0.01166 0.0
C541 C 0.46008 0.54843 0.95401 0.0
O542 O 0.56955 0.55802 0.94307 0.0
O543 O 0.79159 0.25719 0.27352 0.0
Zn544 Zn 0.75793 0.26676 0.29283 0.0
O545 O 0.72598 0.25566 0.27077 0.0
Zn546 Zn 0.70897 0.2869 0.25662 0.0
Zn547 Zn 0.73612 0.23214 0.24088 0.0
Zn548 Zn 0.70039 0.23616 0.29314 0.0
O549 O 0.67046 0.28974 0.26887 0.0
O550 O 0.666 0.25447 0.29607 0.0
O551 O 0.76176 0.30742 0.29702 0.0
O552 O 0.73083 0.32054 0.26795 0.0
O553 O 0.70791 0.28526 0.21626 0.0
O554 O 0.7227 0.24499 0.20549 0.0
O555 O 0.72117 0.19379 0.24523 0.0
O556 O 0.75774 0.24836 0.32905 0.0
O557 O 0.69165 0.199 0.27821 0.0
O558 O 0.71558 0.23015 0.32968 0.0
C559 C 0.79584 0.24442 0.25149 0.0
C560 C 0.65663 0.27498 0.2851 0.0
C561 C 0.71304 0.26713 0.19869 0.0
C562 C 0.75053 0.326 0.28436 0.0
C563 C 0.70232 0.18426 0.26038 0.0
C564 C 0.73872 0.23472 0.34087 0.0
O565 O 0.77645 0.23352 0.23711 0.0
O566 O 0.01524 0.521 0.57695 0.0
Zn567 Zn 0.00824 0.52567 0.53776 0.0
O568 O 0.97425 0.50627 0.5269 0.0
Zn569 Zn 0.98193 0.47753 0.50075 0.0
Zn570 Zn 0.95556 0.49119 0.55879 0.0
Zn571 Zn 0.95156 0.53134 0.50978 0.0
O572 O 0.9629 0.48144 0.46494 0.0
O573 O 0.94255 0.51977 0.47163 0.0
O574 O 0.03974 0.50894 0.52087 0.0
O575 O 0.02191 0.47573 0.49428 0.0
O576 O 0.97269 0.44153 0.51693 0.0
O577 O 0.95347 0.45024 0.55641 0.0
O578 O 0.91838 0.50594 0.56391 0.0
O579 O 0.00978 0.56518 0.52868 0.0
O580 O 0.91703 0.53421 0.52966 0.0
O581 O 0.96997 0.56846 0.50842 0.0
C582 C 0.00212 0.50983 0.59617 0.0
C583 C 0.94823 0.49983 0.45643 0.0
C584 C 0.96241 0.43357 0.53913 0.0
C585 C 0.04249 0.48908 0.50456 0.0
C586 C 0.90624 0.52334 0.55038 0.0
C587 C 0.99277 0.57912 0.51661 0.0
O588 O 0.9783 0.49885 0.59264 0.0
O589 O 0.74433 0.77028 0.3765 0.0
Zn590 Zn 0.7559 0.7889 0.34232 0.0
O591 O 0.73459 0.7726 0.31168 0.0
Zn592 Zn 0.7582 0.75958 0.28351 0.0
Zn593 Zn 0.70885 0.74328 0.32319 0.0
Zn594 Zn 0.71426 0.79992 0.29621 0.0
O595 O 0.75443 0.77789 0.24786 0.0
O596 O 0.72375 0.80707 0.25795 0.0
O597 O 0.79508 0.78155 0.33743 0.0
O598 O 0.79701 0.76413 0.29558 0.0
O599 O 0.75016 0.71999 0.27697 0.0
O600 O 0.71973 0.70742 0.30802 0.0
O601 O 0.67019 0.748 0.30984 0.0
O602 O 0.75263 0.83016 0.34649 0.0
O603 O 0.67539 0.79009 0.29544 0.0
O604 O 0.72042 0.83434 0.31552 0.0
C605 C 0.7261 0.75181 0.38194 0.0
C606 C 0.73963 0.7968 0.24111 0.0
C607 C 0.73547 0.70184 0.28873 0.0
C608 C 0.80841 0.77217 0.31778 0.0
C609 C 0.66039 0.76888 0.2998 0.0
C610 C 0.73615 0.84441 0.33397 0.0
O611 O 0.71047 0.74066 0.36367 0.0
O612 O 0.73172 0.25429 0.67728 0.0
Zn613 Zn 0.73279 0.25349 0.71762 0.0
O614 O 0.75646 0.28336 0.73191 0.0
Zn615 Zn 0.78112 0.26948 0.75858 0.0
Zn616 Zn 0.77658 0.30167 0.70299 0.0
Zn617 Zn 0.73347 0.30843 0.74887 0.0
O618 O 0.77261 0.28229 0.79654 0.0
O619 O 0.74021 0.3103 0.7885 0.0
O620 O 0.74771 0.2178 0.72604 0.0
O621 O 0.77967 0.22876 0.75678 0.0
O622 O 0.81991 0.27941 0.74897 0.0
O623 O 0.81646 0.2979 0.70858 0.0
O624 O 0.76972 0.34193 0.70149 0.0
O625 O 0.69501 0.25387 0.73215 0.0
O626 O 0.74078 0.34545 0.7353 0.0
O627 O 0.69393 0.29735 0.74432 0.0
C628 C 0.74795 0.26519 0.66021 0.0
C629 C 0.75563 0.29892 0.80484 0.0
C630 C 0.83076 0.28911 0.72767 0.0
C631 C 0.76623 0.21107 0.74211 0.0
C632 C 0.75518 0.35616 0.71673 0.0
C633 C 0.68208 0.27401 0.74002 0.0
O634 O 0.76693 0.28264 0.66737 0.0
O635 O 0.67007 0.78704 0.78379 0.0
Zn636 Zn 0.70436 0.77665 0.80033 0.0
O637 O 0.73329 0.79796 0.78436 0.0
Zn638 Zn 0.76051 0.77516 0.77145 0.0
Zn639 Zn 0.72146 0.81753 0.75383 0.0
Zn640 Zn 0.74891 0.82162 0.81149 0.0
O641 O 0.79004 0.77297 0.79844 0.0
O642 O 0.78019 0.80417 0.82922 0.0
O643 O 0.70582 0.73716 0.78909 0.0
O644 O 0.74413 0.738 0.76584 0.0
O645 O 0.77308 0.78532 0.73456 0.0
O646 O 0.73258 0.79621 0.72123 0.0
O647 O 0.74038 0.85489 0.75425 0.0
O648 O 0.7025 0.78462 0.84063 0.0
O649 O 0.76204 0.85636 0.79414 0.0
O650 O 0.7215 0.82683 0.84039 0.0
C651 C 0.66304 0.8025 0.76508 0.0
C652 C 0.79445 0.78497 0.82123 0.0
C653 C 0.75481 0.78546 0.71626 0.0
C654 C 0.7226 0.72554 0.774 0.0
C655 C 0.75668 0.86687 0.77149 0.0
C656 C 0.70714 0.80805 0.8518 0.0
O657 O 0.68058 0.817 0.75205 0.0
O658 O 0.4684 0.52831 0.53581 0.0
Zn659 Zn 0.48395 0.50248 0.50956 0.0
O660 O 0.47654 0.46544 0.52116 0.0
Zn661 Zn 0.51079 0.4491 0.52581 0.0
Zn662 Zn 0.45718 0.46478 0.55571 0.0
Zn663 Zn 0.45533 0.44522 0.49335 0.0
O664 O 0.51301 0.41558 0.50384 0.0
O665 O 0.47478 0.41302 0.47964 0.0
O666 O 0.52371 0.51282 0.50968 0.0
O667 O 0.54291 0.47488 0.51973 0.0
O668 O 0.51603 0.43918 0.56353 0.0
O669 O 0.48011 0.45113 0.58606 0.0
O670 O 0.42152 0.44295 0.55225 0.0
O671 O 0.4696 0.50837 0.47235 0.0
O672 O 0.42021 0.43044 0.50869 0.0
O673 O 0.44725 0.46888 0.46202 0.0
C674 C 0.45609 0.5258 0.55823 0.0
C675 C 0.49729 0.40371 0.48626 0.0
C676 C 0.50352 0.44178 0.58561 0.0
C677 C 0.54467 0.49992 0.51417 0.0
C678 C 0.40957 0.43075 0.53207 0.0
C679 C 0.45474 0.49325 0.45635 0.0
O680 O 0.45008 0.50257 0.56797 0.0
O681 O 0.01386 0.444 0.04011 0.0
Zn682 Zn 0.00138 0.47111 0.01376 0.0
O683 O 0.0074 0.508 0.02846 0.0
Zn684 Zn 0.97377 0.5259 0.03222 0.0
Zn685 Zn 0.02719 0.50816 0.06289 0.0
Zn686 Zn 0.0284 0.52807 0.00286 0.0
O687 O 0.97386 0.56186 0.01339 0.0
O688 O 0.01608 0.5654 -0.00154 0.0
O689 O 0.9614 0.46276 0.00901 0.0
O690 O 0.94241 0.50128 0.01926 0.0
O691 O 0.96796 0.53391 0.07141 0.0
O692 O 0.00675 0.52671 0.09234 0.0
O693 O 0.06565 0.525 0.0593 0.0
O694 O 0.01849 0.46597 0.97688 0.0
O695 O 0.06654 0.53188 0.01494 0.0
O696 O 0.02748 0.50928 0.96697 0.0
C697 C 0.02328 0.44646 0.06418 0.0
C698 C 0.99338 0.57545 0.00239 0.0
C699 C 0.98261 0.53435 0.09276 0.0
C700 C 0.94055 0.47647 0.01144 0.0
C701 C 0.07839 0.53151 0.03782 0.0
C702 C 0.0254 0.48427 0.96006 0.0
O703 O 0.0289 0.46969 0.0753 0.0
H704 H 0.97969 0.20683 0.09132 0.0
H705 H 0.97622 0.15165 0.15803 0.0
H706 H 0.96414 0.11371 0.12678 0.0
H707 H 0.95894 0.09584 0.0804 0.0
H708 H 0.96379 0.15083 0.0135 0.0
H709 H 0.9702 0.18938 0.04518 0.0
C710 C 0.97619 0.18652 0.09907 0.0
C711 C 0.97932 0.18199 0.1269 0.0
C712 C 0.96935 0.16482 0.08101 0.0
C713 C 0.9742 0.15565 0.13666 0.0
C714 C 0.96726 0.13395 0.11882 0.0
C715 C 0.96093 0.11627 0.07267 0.0
C716 C 0.96129 0.12036 0.04455 0.0
C717 C 0.96536 0.13825 0.09091 0.0
C718 C 0.96361 0.14703 0.03501 0.0
C719 C 0.96749 0.16909 0.0531 0.0
H720 H 0.0944 0.69595 0.3566 0.0
H721 H 0.0564 0.74703 0.29963 0.0
H722 H 0.09058 0.73766 0.26603 0.0
H723 H 0.13581 0.72245 0.25659 0.0
H724 H 0.17434 0.67177 0.31319 0.0
H725 H 0.13495 0.67256 0.34287 0.0
C726 C 0.09338 0.7046 0.33665 0.0
C727 C 0.07343 0.72272 0.33081 0.0
C728 C 0.1131 0.69909 0.31737 0.0
C729 C 0.07182 0.73329 0.30471 0.0
C730 C 0.09135 0.72797 0.28548 0.0
C731 C 0.13493 0.71057 0.27484 0.0
C732 C 0.15771 0.69718 0.28292 0.0
C733 C 0.1127 0.71189 0.29205 0.0
C734 C 0.15675 0.68196 0.30656 0.0
C735 C 0.13447 0.68284 0.32373 0.0
H736 H 0.49913 0.81163 0.6371 0.0
H737 H 0.50237 0.76071 0.56542 0.0
H738 H 0.5137 0.80059 0.53807 0.0
H739 H 0.52512 0.84941 0.53528 0.0
H740 H 0.52574 0.89991 0.60783 0.0
H741 H 0.51109 0.8606 0.63435 0.0
C742 C 0.50172 0.80951 0.61538 0.0
C743 C 0.49941 0.78367 0.60297 0.0
C744 C 0.50958 0.83226 0.60018 0.0
C745 C 0.50367 0.78068 0.57509 0.0
C746 C 0.51038 0.80336 0.55959 0.0
C747 C 0.52213 0.85182 0.55691 0.0
C748 C 0.52658 0.87751 0.56956 0.0
C749 C 0.5139 0.82917 0.57204 0.0
C750 C 0.52272 0.88029 0.59763 0.0
C751 C 0.51411 0.85789 0.61278 0.0
H752 H 0.42297 0.27616 0.78484 0.0
H753 H 0.41846 0.22952 0.85783 0.0
H754 H 0.36932 0.22362 0.85288 0.0
H755 H 0.32763 0.23488 0.83018 0.0
H756 H 0.33126 0.28071 0.75684 0.0
H757 H 0.381 0.28375 0.75951 0.0
C758 C 0.41126 0.26441 0.79947 0.0
C759 C 0.42431 0.25357 0.82186 0.0
C760 C 0.38295 0.26125 0.79661 0.0
C761 C 0.40892 0.23817 0.84049 0.0
C762 C 0.3808 0.2349 0.83776 0.0
C763 C 0.33932 0.24554 0.81475 0.0
C764 C 0.32595 0.25806 0.79365 0.0
C765 C 0.36762 0.24694 0.81632 0.0
C766 C 0.34122 0.27113 0.77338 0.0
C767 C 0.36958 0.27288 0.77494 0.0
H768 H -0.00043 0.84378 0.39285 0.0
H769 H 0.06309 0.82849 0.45002 0.0
H770 H 0.06116 0.87454 0.46902 0.0
H771 H 0.04188 0.91932 0.46866 0.0
H772 H 0.97864 0.93395 0.41091 0.0
H773 H 0.97973 0.88758 0.39316 0.0
C774 C 0.01315 0.85046 0.40938 0.0
C775 C 0.0316 0.83277 0.41986 0.0
C776 C 0.01175 0.8767 0.4203 0.0
C777 C 0.0488 0.84177 0.44148 0.0
C778 C 0.04762 0.86803 0.45242 0.0
C779 C 0.02806 0.91222 0.45247 0.0
C780 C 0.01017 0.93003 0.44113 0.0
C781 C 0.02914 0.88566 0.44199 0.0
C782 C 0.99262 0.92065 0.41994 0.0
C783 C 0.9933 0.89419 0.40971 0.0
H784 H 0.39966 0.72265 0.67376 0.0
H785 H 0.42044 0.70917 0.75716 0.0
H786 H 0.37577 0.72217 0.77137 0.0
H787 H 0.33097 0.73687 0.76003 0.0
H788 H 0.30829 0.74695 0.67654 0.0
H789 H 0.35362 0.73549 0.66218 0.0
C790 C 0.39434 0.72275 0.69502 0.0
C791 C 0.41314 0.71526 0.71449 0.0
C792 C 0.36839 0.72942 0.70291 0.0
C793 C 0.40611 0.71491 0.74192 0.0
C794 C 0.38067 0.72233 0.75002 0.0
C795 C 0.336 0.73662 0.73869 0.0
C796 C 0.3166 0.74292 0.71933 0.0
C797 C 0.36167 0.72953 0.73068 0.0
C798 C 0.32304 0.74209 0.69173 0.0
C799 C 0.3489 0.73567 0.68357 0.0
H800 H 0.54411 0.20475 0.95131 0.0
H801 H 0.46436 0.19723 0.91438 0.0
H802 H 0.45254 0.15755 0.94137 0.0
H803 H 0.46593 0.123 0.97214 0.0
H804 H 0.5463 0.12818 0.00759 0.0
H805 H 0.55655 0.17129 0.98499 0.0
C806 C 0.52405 0.19458 0.94937 0.0
C807 C 0.50523 0.20378 0.93063 0.0
C808 C 0.5175 0.17144 0.96469 0.0
C809 C 0.47932 0.19043 0.92842 0.0
C810 C 0.47251 0.16776 0.94389 0.0
C811 C 0.48565 0.13362 0.97525 0.0
C812 C 0.50544 0.12216 0.9913 0.0
C813 C 0.49163 0.15778 0.9616 0.0
C814 C 0.5307 0.13649 0.99533 0.0
C815 C 0.53663 0.16103 0.98223 0.0
H816 H 0.09705 0.27859 0.19064 0.0
H817 H 0.05979 0.23156 0.25467 0.0
H818 H 0.10272 0.23373 0.27948 0.0
H819 H 0.15126 0.24624 0.28154 0.0
H820 H 0.18888 0.29293 0.21747 0.0
H821 H 0.14514 0.29401 0.19438 0.0
C822 C 0.0983 0.26888 0.21006 0.0
C823 C 0.07536 0.25465 0.22062 0.0
C824 C 0.12303 0.27019 0.22425 0.0
C825 C 0.07719 0.24252 0.24599 0.0
C826 C 0.10173 0.24373 0.26021 0.0
C827 C 0.1499 0.25691 0.26266 0.0
C828 C 0.17337 0.2692 0.25111 0.0
C829 C 0.12484 0.25714 0.24932 0.0
C830 C 0.17115 0.2832 0.22679 0.0
C831 C 0.14618 0.28371 0.21347 0.0
H832 H 0.13223 0.00375 0.10286 0.0
H833 H 0.07266 0.99487 0.16605 0.0
H834 H 0.03642 0.00027 0.13335 0.0
H835 H 0.02155 0.00867 0.08703 0.0
H836 H 0.08119 0.01793 0.02394 0.0
H837 H 0.11731 0.01131 0.05639 0.0
C838 C 0.11133 0.00283 0.10946 0.0
C839 C 0.10525 -0.00102 0.13686 0.0
C840 C 0.0905 0.00611 0.09058 0.0
C841 C 0.078 -0.00209 0.14507 0.0
C842 C 0.05719 0.001 0.12639 0.0
C843 C 0.04242 0.00913 0.08037 0.0
C844 C 0.04856 0.01372 0.05311 0.0
C845 C 0.06321 0.00531 0.09914 0.0
C846 C 0.07578 0.01426 0.0448 0.0
C847 C 0.09653 0.01052 0.06335 0.0
H848 H 0.23412 0.8459 0.42467 0.0
H849 H 0.28625 0.79089 0.46296 0.0
H850 H 0.28834 0.76442 0.42083 0.0
H851 H 0.27673 0.75794 0.37247 0.0
H852 H 0.22357 0.81252 0.33493 0.0
H853 H 0.22065 0.8381 0.37734 0.0
C854 C 0.24577 0.82801 0.42384 0.0
C855 C 0.26008 0.82045 0.44679 0.0
C856 C 0.24691 0.81289 0.39962 0.0
C857 C 0.27498 0.79712 0.44552 0.0
C858 C 0.27632 0.78203 0.42141 0.0
C859 C 0.26457 0.77545 0.37363 0.0
C860 C 0.25055 0.7834 0.35063 0.0
C861 C 0.26265 0.78994 0.39822 0.0
C862 C 0.23455 0.80593 0.35243 0.0
C863 C 0.23285 0.82062 0.37664 0.0
H864 H 0.41586 0.03776 0.6375 0.0
H865 H 0.47305 0.01866 0.6998 0.0
H866 H 0.50812 0.01445 0.66615 0.0
H867 H 0.52072 0.00968 0.61868 0.0
H868 H 0.46397 0.0285 0.55601 0.0
H869 H 0.43096 0.03989 0.59016 0.0
C870 C 0.43611 0.03315 0.64376 0.0
C871 C 0.44154 0.02789 0.67105 0.0
C872 C 0.45632 0.03053 0.62422 0.0
C873 C 0.46806 0.02235 0.67887 0.0
C874 C 0.48823 0.0199 0.65963 0.0
C875 C 0.50133 0.01678 0.6125 0.0
C876 C 0.49465 0.01773 0.5849 0.0
C877 C 0.48229 0.02292 0.63218 0.0
C878 C 0.46962 0.02743 0.57718 0.0
C879 C 0.4506 0.03376 0.59669 0.0
H880 H 0.23247 0.19719 0.99185 0.0
H881 H 0.23573 0.11451 0.96233 0.0
H882 H 0.23331 0.12976 0.91567 0.0
H883 H 0.22879 0.16646 0.88347 0.0
H884 H 0.22745 0.24926 0.91308 0.0
H885 H 0.23029 0.23402 0.95972 0.0
C886 C 0.23283 0.18251 0.9752 0.0
C887 C 0.23414 0.15477 0.98047 0.0
C888 C 0.23145 0.19141 0.94855 0.0
C889 C 0.23483 0.136 0.95875 0.0
C890 C 0.23326 0.14468 0.9321 0.0
C891 C 0.2289 0.18111 0.90018 0.0
C892 C 0.22754 0.20886 0.895 0.0
C893 C 0.2312 0.17228 0.92681 0.0
C894 C 0.22834 0.22776 0.91669 0.0
C895 C 0.23002 0.21908 0.94329 0.0
H896 H 0.10891 0.04664 0.28344 0.0
H897 H 0.08901 0.9603 0.28471 0.0
H898 H 0.06396 0.96604 0.32687 0.0
H899 H 0.04903 0.99553 0.36369 0.0
H900 H 0.07313 0.08109 0.36495 0.0
H901 H 0.09525 0.07591 0.32102 0.0
C902 C 0.0989 0.02911 0.29288 0.0
C903 C 0.10045 0.00311 0.28102 0.0
C904 C 0.08536 0.03252 0.31735 0.0
C905 C 0.08798 0.98046 0.2936 0.0
C906 C 0.07366 0.98378 0.31758 0.0
C907 C 0.0588 0.0131 0.35411 0.0
C908 C 0.05914 0.03876 0.36709 0.0
C909 C 0.07232 0.0097 0.32963 0.0
C910 C 0.0725 0.06125 0.35505 0.0
C911 C 0.08515 0.05825 0.33008 0.0
H912 H 0.22314 0.82233 0.56953 0.0
H913 H 0.22962 0.90135 0.60931 0.0
H914 H 0.21174 0.88137 0.65084 0.0
H915 H 0.20032 0.84096 0.67707 0.0
H916 H 0.19824 0.76155 0.63835 0.0
H917 H 0.20752 0.78241 0.59469 0.0
C918 C 0.22042 0.83531 0.58717 0.0
C919 C 0.22816 0.86324 0.58648 0.0
C920 C 0.21077 0.82363 0.61105 0.0
C921 C 0.22417 0.87975 0.60943 0.0
C922 C 0.21389 0.86834 0.63314 0.0
C923 C 0.20109 0.82819 0.65897 0.0
C924 C 0.19878 0.79972 0.66092 0.0
C925 C 0.2079 0.84021 0.63436 0.0
C926 C 0.20005 0.78349 0.63733 0.0
C927 C 0.2056 0.7954 0.61246 0.0
H928 H 0.45084 0.98448 0.81545 0.0
H929 H 0.40624 0.05649 0.82509 0.0
H930 H 0.4206 0.06081 0.87248 0.0
H931 H 0.44411 0.04333 0.91106 0.0
H932 H 0.48801 0.97074 0.9023 0.0
H933 H 0.47549 0.96747 0.85423 0.0
C934 C 0.4444 0.00125 0.82785 0.0
C935 C 0.42746 0.02014 0.81684 0.0
C936 C 0.45243 0.00339 0.85509 0.0
C937 C 0.41924 0.04169 0.83314 0.0
C938 C 0.4274 0.04413 0.8602 0.0
C939 C 0.45106 0.02674 0.89874 0.0
C940 C 0.46687 0.00719 0.91031 0.0
C941 C 0.44371 0.02493 0.87139 0.0
C942 C 0.47574 0.98599 0.89392 0.0
C943 C 0.4686 0.98413 0.86647 0.0
H944 H 0.26217 0.18717 0.10864 0.0
H945 H 0.26882 0.11356 0.1532 0.0
H946 H 0.28938 0.14002 0.19142 0.0
H947 H 0.29929 0.18387 0.21399 0.0
H948 H 0.2867 0.25768 0.17178 0.0
H949 H 0.27532 0.23121 0.13024 0.0
C950 C 0.26835 0.17686 0.12662 0.0
C951 C 0.26378 0.14852 0.12829 0.0
C952 C 0.27915 0.1922 0.14876 0.0
C953 C 0.2718 0.13541 0.15167 0.0
C954 C 0.28359 0.15047 0.17343 0.0
C955 C 0.295 0.19425 0.19545 0.0
C956 C 0.294 0.22266 0.19574 0.0
C957 C 0.28664 0.17888 0.17243 0.0
C958 C 0.28776 0.23582 0.17183 0.0
C959 C 0.28095 0.22068 0.14827 0.0
H960 H 0.15729 0.06178 0.01888 0.0
H961 H 0.13027 0.12681 0.06942 0.0
H962 H 0.08777 0.12623 0.04356 0.0
H963 H 0.05935 0.1084 0.00574 0.0
H964 H 0.08712 0.0445 0.95384 0.0
H965 H 0.12891 0.04426 0.98048 0.0
C966 C 0.14176 0.07533 0.02458 0.0
C967 C 0.14649 0.09395 0.04626 0.0
C968 C 0.11804 0.07573 0.00885 0.0
C969 C 0.12672 0.11204 0.05302 0.0
C970 C 0.10266 0.11194 0.03805 0.0
C971 C 0.07467 0.09468 -0.0001 0.0
C972 C 0.07004 0.07653 0.97772 0.0
C973 C 0.09837 0.09424 0.0156 0.0
C974 C 0.09018 0.05884 0.97067 0.0
C975 C 0.11395 0.05844 0.9861 0.0
H976 H 0.70583 0.46305 0.02141 0.0
H977 H 0.66358 0.39361 0.98186 0.0
H978 H 0.62221 0.41803 0.97984 0.0
H979 H 0.59758 0.45807 0.99133 0.0
H980 H 0.63994 0.52891 0.0278 0.0
H981 H 0.68196 0.50486 0.02936 0.0
C982 C 0.68762 0.4534 0.0121 0.0
C983 C 0.68763 0.42652 0.00197 0.0
C984 C 0.66398 0.46761 0.01088 0.0
C985 C 0.66406 0.41431 0.9897 0.0
C986 C 0.64037 0.42817 0.98874 0.0
C987 C 0.61602 0.46813 -0.00018 0.0
C988 C 0.61576 0.49485 0.01011 0.0
C989 C 0.64001 0.45458 -0.00028 0.0
C990 C 0.63979 0.50815 0.02019 0.0
C991 C 0.66371 0.49446 0.02096 0.0
H992 H 0.82673 0.43266 0.28827 0.0
H993 H 0.77054 0.45453 0.22623 0.0
H994 H 0.74329 0.41218 0.23272 0.0
H995 H 0.73667 0.36843 0.25448 0.0
H996 H 0.79325 0.34613 0.31604 0.0
H997 H 0.81878 0.38977 0.31171 0.0
C998 C 0.8086 0.42812 0.27606 0.0
C999 C 0.80084 0.44651 0.25655 0.0
C1000 C 0.79295 0.40393 0.28004 0.0
C1001 C 0.77703 0.44058 0.24124 0.0
C1002 C 0.7614 0.41645 0.24501 0.0
C1003 C 0.75436 0.37318 0.26727 0.0
C1004 C 0.76314 0.35393 0.28542 0.0
C1005 C 0.76928 0.39795 0.26423 0.0
C1006 C 0.78607 0.36054 0.30185 0.0
C1007 C 0.8008 0.3854 0.29926 0.0
H1008 H 0.79687 0.55559 0.60398 0.0
H1009 H 0.79446 0.6034 0.53191 0.0
H1010 H 0.83677 0.58557 0.51674 0.0
H1011 H 0.87461 0.55732 0.52419 0.0
H1012 H 0.87772 0.50934 0.59608 0.0
H1013 H 0.83468 0.52624 0.61096 0.0
C1014 C 0.8056 0.56212 0.58495 0.0
C1015 C 0.79258 0.5809 0.56915 0.0
C1016 C 0.82995 0.55174 0.5763 0.0
C1017 C 0.80408 0.58902 0.54449 0.0
C1018 C 0.82827 0.57883 0.53578 0.0
C1019 C 0.86594 0.55042 0.54312 0.0
C1020 C 0.8795 0.53214 0.55904 0.0
C1021 C 0.8414 0.56029 0.55157 0.0
C1022 C 0.86775 0.52339 0.58342 0.0
C1023 C 0.84318 0.53311 0.59197 0.0
H1024 H 0.18223 0.06479 0.25728 0.0
H1025 H 0.24494 0.06097 0.19718 0.0
H1026 H 0.26669 0.1035 0.21551 0.0
H1027 H 0.2655 0.14353 0.24597 0.0
H1028 H 0.20118 0.14775 0.30433 0.0
H1029 H 0.18232 0.10307 0.28902 0.0
C1030 C 0.20075 0.07309 0.24814 0.0
C1031 C 0.21182 0.05978 0.22569 0.0
C1032 C 0.21268 0.09773 0.25829 0.0
C1033 C 0.23592 0.07085 0.21437 0.0
C1034 C 0.24828 0.09523 0.22477 0.0
C1035 C 0.24756 0.13454 0.25564 0.0
C1036 C 0.23469 0.14901 0.27625 0.0
C1037 C 0.23651 0.1091 0.24636 0.0
C1038 C 0.21138 0.13713 0.28837 0.0
C1039 C 0.20058 0.11161 0.27961 0.0
H1040 H 0.34516 0.95313 0.50148 0.0
H1041 H 0.3554 0.86787 0.51322 0.0
H1042 H 0.40346 0.8747 0.50389 0.0
H1043 H 0.44277 0.90465 0.49421 0.0
H1044 H 0.43405 0.99029 0.4837 0.0
H1045 H 0.38508 0.98331 0.48998 0.0
C1046 C 0.35796 0.93611 0.50212 0.0
C1047 C 0.34668 0.91009 0.50824 0.0
C1048 C 0.38577 0.94011 0.4966 0.0
C1049 C 0.36349 0.88816 0.50866 0.0
C1050 C 0.39101 0.89198 0.50323 0.0
C1051 C 0.43021 0.92183 0.49292 0.0
C1052 C 0.44214 0.94796 0.48862 0.0
C1053 C 0.40235 0.91784 0.4973 0.0
C1054 C 0.42542 0.9699 0.48695 0.0
C1055 C 0.39744 0.96598 0.49078 0.0
H1056 H 0.76681 0.59455 0.23249 0.0
H1057 H 0.80385 0.58464 0.3108 0.0
H1058 H 0.78225 0.62452 0.32842 0.0
H1059 H 0.75692 0.66493 0.31997 0.0
H1060 H 0.72426 0.67703 0.24036 0.0
H1061 H 0.7395 0.63313 0.2248 0.0
C1062 C 0.76991 0.6009 0.25351 0.0
C1063 C 0.78706 0.58687 0.27028 0.0
C1064 C 0.75809 0.62414 0.26321 0.0
C1065 C 0.79092 0.59532 0.29745 0.0
C1066 C 0.77855 0.61806 0.30753 0.0
C1067 C 0.75256 0.65743 0.29947 0.0
C1068 C 0.73927 0.6736 0.2813 0.0
C1069 C 0.76262 0.63297 0.29041 0.0
C1070 C 0.73422 0.66445 0.25459 0.0
C1071 C 0.74311 0.63958 0.24571 0.0
H1072 H 0.73296 0.47279 0.6779 0.0
H1073 H 0.70433 0.47864 0.76003 0.0
H1074 H 0.72257 0.43517 0.77 0.0
H1075 H 0.74033 0.39305 0.75366 0.0
H1076 H 0.76656 0.38525 0.67093 0.0
H1077 H 0.75597 0.43229 0.66298 0.0
C1078 C 0.73129 0.46485 0.69816 0.0
C1079 C 0.71701 0.4787 0.71813 0.0
C1080 C 0.74105 0.43941 0.7035 0.0
C1081 C 0.71499 0.46821 0.74427 0.0
C1082 C 0.72532 0.44333 0.74995 0.0
C1083 C 0.74403 0.4017 0.73392 0.0
C1084 C 0.75363 0.38557 0.71272 0.0
C1085 C 0.73734 0.42832 0.72941 0.0
C1086 C 0.75896 0.39723 0.6875 0.0
C1087 C 0.75279 0.42405 0.68294 0.0
H1088 H 0.01794 0.85273 0.94014 0.0
H1089 H 0.93469 0.84124 0.9135 0.0
H1090 H 0.92985 0.89038 0.91733 0.0
H1091 H 0.94956 0.9364 0.929 0.0
H1092 H 0.03415 0.94707 0.95237 0.0
H1093 H 0.03836 0.89845 0.94839 0.0
C1094 C -0.00133 0.86103 0.93549 0.0
C1095 C 0.97652 0.84366 0.9272 0.0
C1096 C -0.00357 0.88911 0.9367 0.0
C1097 C 0.95186 0.85447 0.92031 0.0
C1098 C 0.94917 0.88246 0.92234 0.0
C1099 C 0.96898 0.92812 0.93289 0.0
C1100 C 0.99139 0.94541 0.9412 0.0
C1101 C 0.97138 0.89999 0.9305 0.0
C1102 C 0.01648 0.93432 0.946 0.0
C1103 C 0.01893 0.90645 0.94392 0.0
H1104 H 0.94401 0.24316 0.70532 0.0
H1105 H 0.9448 0.30313 0.64312 0.0
H1106 H 0.90222 0.31939 0.65996 0.0
H1107 H 0.86309 0.31402 0.69015 0.0
H1108 H 0.8634 0.25526 0.75361 0.0
H1109 H 0.90759 0.24163 0.73899 0.0
C1110 C 0.93484 0.25983 0.69557 0.0
C1111 C 0.94711 0.27163 0.67278 0.0
C1112 C 0.91072 0.26945 0.70571 0.0
C1113 C 0.9355 0.29363 0.66061 0.0
C1114 C 0.91121 0.30293 0.67023 0.0
C1115 C 0.87305 0.29859 0.7011 0.0
C1116 C 0.85979 0.2855 0.72274 0.0
C1117 C 0.89842 0.29069 0.69249 0.0
C1118 C 0.87312 0.26573 0.7369 0.0
C1119 C 0.8983 0.2577 0.72839 0.0
H1120 H 0.5677 0.14661 0.46424 0.0
H1121 H 0.52992 0.12305 0.38755 0.0
H1122 H 0.54043 0.07598 0.39417 0.0
H1123 H 0.55124 0.04084 0.42644 0.0
H1124 H 0.58935 0.06432 0.50283 0.0
H1125 H 0.58848 0.1123 0.49154 0.0
C1126 C 0.56251 0.13123 0.44869 0.0
C1127 C 0.54752 0.1379 0.42584 0.0
C1128 C 0.56849 0.10428 0.4527 0.0
C1129 C 0.5413 0.11817 0.40545 0.0
C1130 C 0.54713 0.09125 0.40929 0.0
C1131 C 0.56034 0.05654 0.43999 0.0
C1132 C 0.57018 0.04954 0.46535 0.0
C1133 C 0.55939 0.08392 0.43349 0.0
C1134 C 0.58184 0.06963 0.48309 0.0
C1135 C 0.58107 0.09696 0.47677 0.0
H1136 H 0.56352 0.74079 0.22042 0.0
H1137 H 0.58044 0.82552 0.20326 0.0
H1138 H 0.61013 0.83081 0.24303 0.0
H1139 H 0.6352 0.81039 0.27859 0.0
H1140 H 0.62451 0.72417 0.29177 0.0
H1141 H 0.5872 0.72063 0.25863 0.0
C1142 C 0.57353 0.76044 0.22563 0.0
C1143 C 0.57017 0.7827 0.20888 0.0
C1144 C 0.59137 0.76305 0.24792 0.0
C1145 C 0.58316 0.80806 0.21567 0.0
C1146 C 0.59994 0.81111 0.23846 0.0
C1147 C 0.6245 0.79079 0.27463 0.0
C1148 C 0.63306 0.76745 0.28722 0.0
C1149 C 0.60476 0.78858 0.2542 0.0
C1150 C 0.61847 0.74243 0.28226 0.0
C1151 C 0.5974 0.74035 0.26302 0.0
H1152 H 0.07179 0.20312 0.56083 0.0
H1153 H 0.98456 0.20156 0.56664 0.0
H1154 H 0.9799 0.16858 0.52929 0.0
H1155 H 0.00015 0.137 0.49867 0.0
H1156 H 0.08709 0.13393 0.49528 0.0
H1157 H 0.09242 0.17284 0.52714 0.0
C1158 C 0.0518 0.19569 0.55371 0.0
C1159 C 0.02854 0.20444 0.56672 0.0
C1160 C 0.04925 0.17614 0.53256 0.0
C1161 C 0.00276 0.19477 0.55729 0.0
C1162 C 7e-05 0.17605 0.53582 0.0
C1163 C 0.02036 0.14504 0.50455 0.0
C1164 C 0.04319 0.13235 0.49499 0.0
C1165 C 0.02313 0.16614 0.52383 0.0
C1166 C 0.06919 0.14335 0.50237 0.0
C1167 C 0.0722 0.16535 0.52085 0.0
H1168 H 0.54079 0.2415 0.31494 0.0
H1169 H 0.567 0.2845 0.38858 0.0
H1170 H 0.60589 0.3055 0.36533 0.0
H1171 H 0.63791 0.30171 0.32795 0.0
H1172 H 0.61311 0.25686 0.2553 0.0
H1173 H 0.5679 0.24709 0.27384 0.0
C1174 C 0.55457 0.25609 0.32567 0.0
C1175 C 0.55168 0.26064 0.35361 0.0
C1176 C 0.57728 0.26759 0.31234 0.0
C1177 C 0.56922 0.2801 0.36716 0.0
C1178 C 0.59153 0.2921 0.35391 0.0
C1179 C 0.62207 0.29103 0.31577 0.0
C1180 C 0.62844 0.27993 0.29051 0.0
C1181 C 0.59665 0.28459 0.32705 0.0
C1182 C 0.60824 0.26574 0.27477 0.0
C1183 C 0.58259 0.25984 0.28553 0.0
H1184 H 0.48036 0.84467 0.09705 0.0
H1185 H 0.55833 0.84314 0.05848 0.0
H1186 H 0.54641 0.87922 0.0286 0.0
H1187 H 0.51594 0.91397 0.01647 0.0
H1188 H 0.43951 0.91857 0.05732 0.0
H1189 H 0.44836 0.87797 0.08268 0.0
C1190 C 0.49463 0.85211 0.08196 0.0
C1191 C 0.5203 0.84145 0.0802 0.0
C1192 C 0.48784 0.87325 0.06511 0.0
C1193 C 0.53857 0.85123 0.0605 0.0
C1194 C 0.53173 0.87178 0.0433 0.0
C1195 C 0.50084 0.9057 0.03036 0.0
C1196 C 0.47708 0.91924 0.03498 0.0
C1197 C 0.50666 0.88327 0.04577 0.0
C1198 C 0.45794 0.90846 0.05338 0.0
C1199 C 0.46311 0.88541 0.06806 0.0
H1200 H 0.89059 0.76753 0.90149 0.0
H1201 H 0.90899 0.71005 0.83859 0.0
H1202 H 0.86528 0.71593 0.81653 0.0
H1203 H 0.8266 0.74363 0.81099 0.0
H1204 H 0.81076 0.80525 0.87124 0.0
H1205 H 0.84891 0.79182 0.89851 0.0
C1206 C 0.88431 0.75542 0.88365 0.0
C1207 C 0.90238 0.73803 0.87179 0.0
C1208 C 0.86021 0.7605 0.87014 0.0
C1209 C 0.89487 0.72306 0.84821 0.0
C1210 C 0.87019 0.72682 0.83541 0.0
C1211 C 0.8313 0.75404 0.83018 0.0
C1212 C 0.81625 0.77584 0.83877 0.0
C1213 C 0.85346 0.74657 0.84545 0.0
C1214 C 0.82235 0.78874 0.86392 0.0
C1215 C 0.84406 0.78098 0.87959 0.0
H1216 H 0.90529 0.06653 0.80424 0.0
H1217 H 0.98744 0.04799 0.78655 0.0
H1218 H 0.00098 0.05916 0.83346 0.0
H1219 H 0.98761 0.06642 0.88069 0.0
H1220 H 0.90402 0.07731 0.8993 0.0
H1221 H 0.89269 0.07742 0.85088 0.0
C1222 C 0.9263 0.06569 0.81053 0.0
C1223 C 0.9454 0.05647 0.79216 0.0
C1224 C 0.93349 0.07054 0.83778 0.0
C1225 C 0.97246 0.05498 0.8005 0.0
C1226 C 0.98014 0.06125 0.82728 0.0
C1227 C 0.96714 0.06971 0.87395 0.0
C1228 C 0.94666 0.07225 0.89312 0.0
C1229 C 0.96059 0.06796 0.8463 0.0
C1230 C 0.92002 0.07568 0.88461 0.0
C1231 C 0.91358 0.07552 0.85703 0.0
H1232 H 0.73087 0.1804 0.56614 0.0
H1233 H 0.8171 0.17691 0.57895 0.0
H1234 H 0.81743 0.21699 0.60888 0.0
H1235 H 0.79236 0.24921 0.63556 0.0
H1236 H 0.70552 0.24907 0.6269 0.0
H1237 H 0.70632 0.21485 0.59031 0.0
C1238 C 0.7498 0.18855 0.57526 0.0
C1239 C 0.77386 0.1755 0.57063 0.0
C1240 C 0.74972 0.21114 0.59291 0.0
C1241 C 0.79823 0.18635 0.58252 0.0
C1242 C 0.79846 0.20934 0.59951 0.0
C1243 C 0.77377 0.24238 0.62493 0.0
C1244 C 0.74895 0.25173 0.63352 0.0
C1245 C 0.77423 0.22148 0.60534 0.0
C1246 C 0.72484 0.24227 0.62027 0.0
C1247 C 0.72529 0.2225 0.59966 0.0
H1248 H 0.60703 0.93227 0.33633 0.0
H1249 H 0.52564 0.95586 0.32228 0.0
H1250 H 0.51203 0.9392 0.36668 0.0
H1251 H 0.52565 0.92664 0.41225 0.0
H1252 H 0.60871 0.9102 0.42841 0.0
H1253 H 0.61926 0.91436 0.3803 0.0
C1254 C 0.58615 0.93311 0.34273 0.0
C1255 C 0.56741 0.94555 0.32631 0.0
C1256 C 0.57888 0.92477 0.36876 0.0
C1257 C 0.54046 0.94666 0.3348 0.0
C1258 C 0.5327 0.93715 0.36016 0.0
C1259 C 0.54574 0.92284 0.40496 0.0
C1260 C 0.56638 0.91797 0.42358 0.0
C1261 C 0.55204 0.92734 0.37776 0.0
C1262 C 0.59254 0.91376 0.41423 0.0
C1263 C 0.5986 0.91647 0.38684 0.0
H1264 H 0.75146 0.82457 0.11777 0.0
H1265 H 0.70182 0.88937 0.14273 0.0
H1266 H 0.70094 0.87251 0.18884 0.0
H1267 H 0.71493 0.84006 0.222 0.0
H1268 H 0.76554 0.7759 0.19738 0.0
H1269 H 0.76548 0.79206 0.15101 0.0
C1270 C 0.74026 0.83492 0.13323 0.0
C1271 C 0.72667 0.85816 0.12682 0.0
C1272 C 0.74018 0.82538 0.15972 0.0
C1273 C 0.71248 0.87146 0.14715 0.0
C1274 C 0.71199 0.86186 0.17351 0.0
C1275 C 0.72595 0.82954 0.20653 0.0
C1276 C 0.74022 0.80679 0.21316 0.0
C1277 C 0.72591 0.83896 0.18002 0.0
C1278 C 0.75448 0.79352 0.19285 0.0
C1279 C 0.75438 0.80269 0.16633 0.0
H1280 H 0.96171 0.00761 0.65401 0.0
H1281 H 0.90063 0.05992 0.62679 0.0
H1282 H 0.92053 0.06083 0.58188 0.0
H1283 H 0.9549 0.04713 0.55056 0.0
H1284 H 0.0159 0.99419 0.57645 0.0
H1285 H -0.00388 0.99299 0.6218 0.0
C1286 C 0.95283 0.0193 0.63827 0.0
C1287 C 0.92977 0.03378 0.64379 0.0
C1288 C 0.96422 0.01953 0.61232 0.0
C1289 C 0.91834 0.04858 0.62311 0.0
C1290 C 0.9297 0.04913 0.59741 0.0
C1291 C 0.96402 0.03532 0.56607 0.0
C1292 C 0.98699 0.02091 0.56017 0.0
C1293 C 0.95259 0.0347 0.59184 0.0
C1294 C -0.00178 0.00546 0.58047 0.0
C1295 C 0.98697 0.00485 0.60639 0.0
H1296 H 0.78062 0.16872 0.43913 0.0
H1297 H 0.69537 0.1438 0.44189 0.0
H1298 H 0.68628 0.17344 0.40454 0.0
H1299 H 0.70233 0.20584 0.37108 0.0
H1300 H 0.78742 0.23139 0.36753 0.0
H1301 H 0.79668 0.2026 0.4058 0.0
C1302 C 0.76013 0.16962 0.43133 0.0
C1303 C 0.73873 0.15393 0.44304 0.0
C1304 C 0.75495 0.18711 0.4101 0.0
C1305 C 0.71219 0.15561 0.43312 0.0
C1306 C 0.70695 0.17263 0.41185 0.0
C1307 C 0.72293 0.20537 0.37874 0.0
C1308 C 0.74415 0.22071 0.36635 0.0
C1309 C 0.72814 0.1885 0.40028 0.0
C1310 C 0.77066 0.21988 0.37673 0.0
C1311 C 0.77601 0.20324 0.39846 0.0
H1312 H 0.53766 0.98737 0.19984 0.0
H1313 H 0.61136 0.97301 0.15691 0.0
H1314 H 0.59168 0.9896 0.11547 0.0
H1315 H 0.55472 0.01054 0.09216 0.0
H1316 H 0.48008 0.02274 0.13385 0.0
H1317 H 0.49934 0.00539 0.17555 0.0
C1318 C 0.54931 0.98745 0.18134 0.0
C1319 C 0.57607 0.97912 0.18159 0.0
C1320 C 0.53803 -0.00258 0.15768 0.0
C1321 C 0.59073 0.97919 0.15734 0.0
C1322 C 0.57962 0.98901 0.1337 0.0
C1323 C 0.54288 0.0099 0.11056 0.0
C1324 C 0.5164 0.01873 0.11038 0.0
C1325 C 0.55361 -0.00118 0.13387 0.0
C1326 C 0.50076 0.01667 0.13387 0.0
C1327 C 0.51166 0.00649 0.15752 0.0
H1328 H 0.6937 0.85948 0.96613 0.0
H1329 H 0.7326 0.78725 0.98821 0.0
H1330 H 0.72527 0.76843 0.94234 0.0
H1331 H 0.71541 0.77638 0.89435 0.0
H1332 H 0.68251 0.85147 0.8717 0.0
H1333 H 0.67932 0.86521 0.91937 0.0
C1334 C 0.69995 0.83932 0.96111 0.0
C1335 C 0.71395 0.82489 0.98035 0.0
C1336 C 0.69692 0.8293 0.93445 0.0
C1337 C 0.72201 0.79883 0.97359 0.0
C1338 C 0.71791 0.78812 0.94736 0.0
C1339 C 0.70675 0.79531 0.90004 0.0
C1340 C 0.69913 0.81295 0.87986 0.0
C1341 C 0.70651 0.80371 0.92734 0.0
C1342 C 0.68843 0.83769 0.88713 0.0
C1343 C 0.68677 0.84557 0.9143 0.0
H1344 H 0.81018 0.95648 0.0626 0.0
H1345 H 0.81313 0.90198 0.99334 0.0
H1346 H 0.85481 0.92619 0.97835 0.0
H1347 H 0.88976 0.96332 0.98444 0.0
H1348 H 0.88931 0.01571 0.05539 0.0
H1349 H 0.84719 0.99183 0.0704 0.0
C1350 C 0.82003 0.94995 0.04426 0.0
C1351 C 0.8086 0.9277 0.02893 0.0
C1352 C 0.84428 0.96358 0.0361 0.0
C1353 C 0.82166 0.91906 0.00545 0.0
C1354 C 0.84539 0.93293 -0.00317 0.0
C1355 C 0.88035 0.96952 0.00315 0.0
C1356 C 0.8922 0.99138 0.01866 0.0
C1357 C 0.85673 0.9553 0.0119 0.0
C1358 C 0.88033 -0.00107 0.04315 0.0
C1359 C 0.85631 0.98534 0.05167 0.0
H1360 H 0.33592 0.55021 0.95626 0.0
H1361 H 0.35647 0.63632 0.96292 0.0
H1362 H 0.40339 0.62901 0.95094 0.0
H1363 H 0.43967 0.59719 0.94842 0.0
H1364 H 0.41913 0.51118 0.94102 0.0
H1365 H 0.37083 0.51929 0.94264 0.0
C1366 C 0.35057 0.56737 0.95427 0.0
C1367 C 0.34316 0.59365 0.96098 0.0
C1368 C 0.37741 0.56298 0.94744 0.0
C1369 C 0.36193 0.6159 0.95796 0.0
C1370 C 0.38875 0.61171 0.95131 0.0
C1371 C 0.4245 0.58038 0.94608 0.0
C1372 C 0.43264 0.55367 0.94497 0.0
C1373 C 0.39694 0.58522 0.9474 0.0
C1374 C 0.41312 0.53191 0.94182 0.0
C1375 C 0.38557 0.53653 0.94309 0.0
H1376 H 0.18675 0.5685 0.72856 0.0
H1377 H 0.15533 0.57673 0.80934 0.0
H1378 H 0.16729 0.62546 0.80947 0.0
H1379 H 0.18379 0.66565 0.7859 0.0
H1380 H 0.21364 0.65892 0.70427 0.0
H1381 H 0.2048 0.60949 0.70505 0.0
C1382 C 0.18307 0.58096 0.74634 0.0
C1383 C 0.17037 0.56915 0.769 0.0
C1384 C 0.18918 0.60914 0.74592 0.0
C1385 C 0.16516 0.58546 0.79174 0.0
C1386 C 0.17184 0.61329 0.79176 0.0
C1387 C 0.18844 0.6535 0.76818 0.0
C1388 C 0.19922 0.66604 0.74498 0.0
C1389 C 0.18331 0.62536 0.76878 0.0
C1390 C 0.20514 0.64982 0.72232 0.0
C1391 C 0.20021 0.62157 0.72281 0.0
H1392 H 0.13481 0.40893 0.51081 0.0
H1393 H 0.16166 0.46655 0.57399 0.0
H1394 H 0.12803 0.49737 0.55967 0.0
H1395 H 0.08757 0.50516 0.53358 0.0
H1396 H 0.05738 0.44593 0.47321 0.0
H1397 H 0.09641 0.41909 0.4813 0.0
C1398 C 0.13353 0.42841 0.52115 0.0
C1399 C 0.1504 0.43529 0.54367 0.0
C1400 C 0.11364 0.44581 0.51324 0.0
C1401 C 0.14861 0.46061 0.55686 0.0
C1402 C 0.12947 0.47831 0.54862 0.0
C1403 C 0.08977 0.48674 0.52163 0.0
C1404 C 0.06931 0.4774 0.5031 0.0
C1405 C 0.11136 0.47074 0.52741 0.0
C1406 C 0.07272 0.45354 0.48774 0.0
C1407 C 0.0949 0.43802 0.49256 0.0
H1408 H 0.81257 0.97145 0.72012 0.0
H1409 H 0.87878 0.94875 0.77067 0.0
H1410 H 0.85024 0.91106 0.78822 0.0
H1411 H 0.80692 0.88416 0.78858 0.0
H1412 H 0.74153 0.905 0.73613 0.0
H1413 H 0.76927 0.94422 0.72019 0.0
C1414 C 0.82077 0.95826 0.73498 0.0
C1415 C 0.84776 0.96287 0.74406 0.0
C1416 C 0.80436 0.93651 0.74479 0.0
C1417 C 0.85813 0.94552 0.7632 0.0
C1418 C 0.84179 0.92407 0.77336 0.0
C1419 C 0.7986 0.89753 0.77396 0.0
C1420 C 0.77217 0.89194 0.76372 0.0
C1421 C 0.81491 0.91939 0.76429 0.0
C1422 C 0.76182 0.90903 0.74435 0.0
C1423 C 0.77768 0.93135 0.73518 0.0
H1424 H 0.70751 0.05136 0.57506 0.0
H1425 H 0.73577 0.01867 0.49961 0.0
H1426 H 0.70127 0.98101 0.50121 0.0
H1427 H 0.65827 0.9633 0.51897 0.0
H1428 H 0.62548 -0.00021 0.59069 0.0
H1429 H 0.66701 0.02913 0.59654 0.0
C1430 C 0.70644 0.03547 0.55948 0.0
C1431 C 0.7238 0.03755 0.53718 0.0
C1432 C 0.68564 0.01469 0.55987 0.0
C1433 C 0.72235 0.01728 0.51683 0.0
C1434 C 0.70267 0.99585 0.51775 0.0
C1435 C 0.66044 0.97719 0.53631 0.0
C1436 C 0.63852 0.97993 0.5539 0.0
C1437 C 0.68342 0.99517 0.53843 0.0
C1438 C 0.64192 -0.00252 0.57665 0.0
C1439 C 0.66554 0.01453 0.5798 0.0
H1440 H 0.21704 0.42773 0.7801 0.0
H1441 H 0.1345 0.41925 0.80799 0.0
H1442 H 0.14397 0.37747 0.83071 0.0
H1443 H 0.17371 0.34016 0.83676 0.0
H1444 H 0.25638 0.34841 0.80951 0.0
H1445 H 0.24921 0.39391 0.79333 0.0
C1446 C 0.20127 0.41688 0.79145 0.0
C1447 C 0.17497 0.42619 0.79187 0.0
C1448 C 0.20692 0.39294 0.80471 0.0
C1449 C 0.15484 0.41233 0.80713 0.0
C1450 C 0.16023 0.38843 0.82013 0.0
C1451 C 0.1904 0.35232 0.82809 0.0
C1452 C 0.21541 0.3409 0.82406 0.0
C1453 C 0.18593 0.37811 0.8183 0.0
C1454 C 0.23696 0.35683 0.81297 0.0
C1455 C 0.23274 0.38269 0.80333 0.0
H1456 H 0.37321 0.58774 0.28326 0.0
H1457 H 0.31362 0.54536 0.23059 0.0
H1458 H 0.2822 0.58049 0.239 0.0
H1459 H 0.27278 0.62449 0.25824 0.0
H1460 H 0.33272 0.66919 0.30869 0.0
H1461 H 0.36251 0.63155 0.3048 0.0
C1462 C 0.35328 0.58615 0.27378 0.0
C1463 C 0.3459 0.56407 0.25609 0.0
C1464 C 0.3353 0.60674 0.2784 0.0
C1465 C 0.31997 0.56225 0.24404 0.0
C1466 C 0.30191 0.5823 0.24891 0.0
C1467 C 0.29218 0.62599 0.26879 0.0
C1468 C 0.30049 0.64981 0.28361 0.0
C1469 C 0.30952 0.60481 0.26566 0.0
C1470 C 0.32573 0.65114 0.29713 0.0
C1471 C 0.34288 0.62969 0.29474 0.0
H1472 H 0.45842 0.61416 0.65164 0.0
H1473 H 0.49799 0.66132 0.58896 0.0
H1474 H 0.48911 0.62399 0.55652 0.0
H1475 H 0.47271 0.57744 0.54653 0.0
H1476 H 0.43431 0.52911 0.609 0.0
H1477 H 0.43934 0.56784 0.64067 0.0
C1478 C 0.46518 0.61618 0.63091 0.0
C1479 C 0.47912 0.64032 0.62282 0.0
C1480 C 0.4599 0.59464 0.61222 0.0
C1481 C 0.48736 0.64287 0.59578 0.0
C1482 C 0.48221 0.62159 0.57714 0.0
C1483 C 0.465 0.57539 0.56693 0.0
C1484 C 0.45343 0.55031 0.57543 0.0
C1485 C 0.46873 0.59735 0.58521 0.0
C1486 C 0.44341 0.54817 0.60192 0.0
C1487 C 0.4465 0.57023 0.62014 0.0
H1488 H 0.56462 0.28378 0.78319 0.0
H1489 H 0.58984 0.22013 0.83431 0.0
H1490 H 0.63116 0.21682 0.80777 0.0
H1491 H 0.66228 0.23575 0.77347 0.0
H1492 H 0.63975 0.30374 0.72696 0.0
H1493 H 0.59488 0.30148 0.74782 0.0
C1494 C 0.57895 0.26885 0.78817 0.0
C1495 C 0.57431 0.25218 0.81057 0.0
C1496 C 0.6031 0.26797 0.77366 0.0
C1497 C 0.59315 0.23321 0.81717 0.0
C1498 C 0.61671 0.23134 0.80203 0.0
C1499 C 0.64719 0.24955 0.76748 0.0
C1500 C 0.65388 0.26964 0.74858 0.0
C1501 C 0.6222 0.2491 0.78069 0.0
C1502 C 0.63471 0.288 0.74136 0.0
C1503 C 0.60923 0.28679 0.75337 0.0
H1504 H 0.01558 0.35225 0.14847 0.0
H1505 H 0.02341 0.30392 0.07556 0.0
H1506 H 0.0269 0.34499 0.04867 0.0
H1507 H 0.02693 0.39457 0.04588 0.0
H1508 H 0.02232 0.4432 0.11918 0.0
H1509 H 0.01893 0.40218 0.146 0.0
C1510 C 0.01791 0.35083 0.12668 0.0
C1511 C 0.01886 0.32526 0.11386 0.0
C1512 C 0.02079 0.37454 0.1115 0.0
C1513 C 0.02249 0.3235 0.08574 0.0
C1514 C 0.02454 0.34693 0.0704 0.0
C1515 C 0.02541 0.39618 0.06775 0.0
C1516 C 0.02476 0.42186 0.08049 0.0
C1517 C 0.02368 0.37255 0.08306 0.0
C1518 C 0.02304 0.42367 0.10887 0.0
C1519 C 0.02087 0.40022 0.12422 0.0
H1520 H 0.93475 0.76415 0.31488 0.0
H1521 H 0.92092 0.74092 0.39756 0.0
H1522 H 0.87224 0.74526 0.39146 0.0
H1523 H 0.83404 0.75792 0.3632 0.0
H1524 H 0.84764 0.77865 0.27985 0.0
H1525 H 0.89622 0.77329 0.28565 0.0
C1526 C 0.92103 0.7598 0.33148 0.0
C1527 C 0.93132 0.75244 0.35667 0.0
C1528 C 0.89319 0.76225 0.32779 0.0
C1529 C 0.91339 0.74654 0.37794 0.0
C1530 C 0.88562 0.74923 0.37453 0.0
C1531 C 0.84774 0.76138 0.3464 0.0
C1532 C 0.83757 0.76911 0.3213 0.0
C1533 C 0.8754 0.75753 0.34969 0.0
C1534 C 0.85522 0.77288 0.29941 0.0
C1535 C 0.8829 0.76977 0.3027 0.0
H1536 H 0.51863 0.33569 0.9352 0.0
H1537 H 0.49561 0.3639 0.85663 0.0
H1538 H 0.49218 0.40953 0.87541 0.0
H1539 H 0.49709 0.44168 0.91346 0.0
H1540 H 0.52023 0.41421 0.99224 0.0
H1541 H 0.52175 0.3679 0.97406 0.0
C1542 C 0.51292 0.35184 0.92219 0.0
C1543 C 0.50759 0.34641 0.89452 0.0
C1544 C 0.51081 0.3781 0.93315 0.0
C1545 C 0.4999 0.3675 0.87799 0.0
C1546 C 0.49789 0.39362 0.8887 0.0
C1547 C 0.50228 0.42557 0.92677 0.0
C1548 C 0.50868 0.43147 0.95413 0.0
C1549 C 0.50344 0.39916 0.91617 0.0
C1550 C 0.51517 0.41026 0.97109 0.0
C1551 C 0.51621 0.38379 0.96068 0.0
H1552 H 0.90669 0.24741 0.18955 0.0
H1553 H 0.93799 0.24981 0.27125 0.0
H1554 H 0.89182 0.25051 0.28898 0.0
H1555 H 0.84254 0.24829 0.28092 0.0
H1556 H 0.81142 0.24084 0.19901 0.0
H1557 H 0.85753 0.24377 0.18153 0.0
C1558 C 0.90328 0.2486 0.2112 0.0
C1559 C 0.92538 0.24915 0.22919 0.0
C1560 C 0.87679 0.24753 0.22111 0.0
C1561 C 0.92104 0.24978 0.25719 0.0
C1562 C 0.89474 0.24998 0.26726 0.0
C1563 C 0.84592 0.24726 0.25926 0.0
C1564 C 0.82371 0.24431 0.24127 0.0
C1565 C 0.87245 0.24844 0.24938 0.0
C1566 C 0.82826 0.24281 0.21326 0.0
C1567 C 0.85458 0.2447 0.20324 0.0
H1568 H 0.04912 0.68854 0.47731 0.0
H1569 H 0.97147 0.69236 0.43727 0.0
H1570 H 0.95408 0.6522 0.46106 0.0
H1571 H 0.96252 0.61343 0.48902 0.0
H1572 H 0.04081 0.6083 0.52749 0.0
H1573 H 0.05617 0.65193 0.50881 0.0
C1574 C 0.02828 0.68081 0.47405 0.0
C1575 C 0.01173 0.69315 0.45528 0.0
C1576 C 0.01856 0.65744 0.48738 0.0
C1577 C 0.98471 0.68305 0.45143 0.0
C1578 C 0.97475 0.66007 0.46499 0.0
C1579 C 0.98285 0.62197 0.49367 0.0
C1580 C 0.00062 0.60738 0.50927 0.0
C1581 C 0.99176 0.64668 0.48238 0.0
C1582 C 0.02677 0.61896 0.51532 0.0
C1583 C 0.03562 0.64387 0.50457 0.0
H1584 H 0.56378 0.77087 0.69002 0.0
H1585 H 0.54785 0.71352 0.75368 0.0
H1586 H 0.58418 0.73626 0.78116 0.0
H1587 H 0.6227 0.76936 0.78517 0.0
H1588 H 0.6407 0.82485 0.72034 0.0
H1589 H 0.6002 0.80666 0.69578 0.0
C1590 C 0.56824 0.76327 0.7099 0.0
C1591 C 0.55349 0.74018 0.71959 0.0
C1592 C 0.58913 0.77639 0.72554 0.0
C1593 C 0.55915 0.73101 0.7456 0.0
C1594 C 0.57979 0.74409 0.76138 0.0
C1595 C 0.61758 0.77794 0.7659 0.0
C1596 C 0.63505 0.79811 0.75439 0.0
C1597 C 0.59518 0.76646 0.75132 0.0
C1598 C 0.62774 0.80922 0.72962 0.0
C1599 C 0.60478 0.79857 0.7154 0.0
H1600 H 0.5649 0.49047 0.68576 0.0
H1601 H 0.63218 0.47548 0.63345 0.0
H1602 H 0.60217 0.44665 0.60388 0.0
H1603 H 0.5565 0.43182 0.58966 0.0
H1604 H 0.48821 0.45322 0.63786 0.0
H1605 H 0.51922 0.47166 0.67345 0.0
C1606 C 0.57309 0.48063 0.66807 0.0
C1607 C 0.60062 0.48545 0.6615 0.0
C1608 C 0.55559 0.46484 0.65075 0.0
C1609 C 0.61097 0.47245 0.63864 0.0
C1610 C 0.59387 0.45583 0.62186 0.0
C1611 C 0.54823 0.43993 0.6082 0.0
C1612 C 0.52004 0.44196 0.61069 0.0
C1613 C 0.56604 0.45267 0.62728 0.0
C1614 C 0.5098 0.45177 0.63521 0.0
C1615 C 0.52755 0.46273 0.65537 0.0
H1616 H 0.73466 0.34117 0.92335 0.0
H1617 H 0.77818 0.27091 0.94274 0.0
H1618 H 0.78152 0.25925 0.89465 0.0
H1619 H 0.77414 0.27043 0.84701 0.0
H1620 H 0.73077 0.34098 0.82813 0.0
H1621 H 0.72556 0.35116 0.87614 0.0
C1622 C 0.74459 0.32311 0.9171 0.0
C1623 C 0.75623 0.30701 0.93655 0.0
C1624 C 0.74681 0.31676 0.88949 0.0
C1625 C 0.76904 0.28368 0.92813 0.0
C1626 C 0.77111 0.27707 0.90064 0.0
C1627 C 0.76364 0.28807 0.85343 0.0
C1628 C 0.75306 0.305 0.83403 0.0
C1629 C 0.76051 0.29376 0.88113 0.0
C1630 C 0.73917 0.3276 0.84265 0.0
C1631 C 0.73612 0.33346 0.8701 0.0
H1632 H 0.93268 0.5286 0.2086 0.0
H1633 H 0.86437 0.5569 0.1647 0.0
H1634 H 0.89226 0.56326 0.12468 0.0
H1635 H 0.93407 0.55558 0.1007 0.0
H1636 H 0.00207 0.52567 0.14375 0.0
H1637 H 0.9764 0.52587 0.18575 0.0
C1638 C 0.92396 0.53645 0.19039 0.0
C1639 C 0.89634 0.54175 0.18952 0.0
C1640 C 0.94002 0.53977 0.16728 0.0
C1641 C 0.88548 0.5523 0.16586 0.0
C1642 C 0.9014 0.55597 0.14293 0.0
C1643 C 0.94349 0.5495 0.11934 0.0
C1644 C 0.96976 0.54015 0.11897 0.0
C1645 C 0.92842 0.54898 0.14319 0.0
C1646 C 0.9818 0.53281 0.1434 0.0
C1647 C 0.96706 0.53272 0.16741 0.0
H1648 H 0.74512 0.69798 0.49428 0.0
H1649 H 0.66124 0.67094 0.48121 0.0
H1650 H 0.66024 0.69602 0.43917 0.0
H1651 H 0.68366 0.72435 0.40546 0.0
H1652 H 0.76681 0.75374 0.41966 0.0
H1653 H 0.76751 0.72956 0.46222 0.0
C1654 C 0.72672 0.6976 0.48211 0.0
C1655 C 0.70341 0.68246 0.49045 0.0
C1656 C 0.72607 0.71268 0.45839 0.0
C1657 C 0.67945 0.68245 0.47499 0.0
C1658 C 0.67885 0.69678 0.45102 0.0
C1659 C 0.70184 0.72568 0.41802 0.0
C1660 C 0.72516 0.74064 0.40938 0.0
C1661 C 0.70208 0.71184 0.44247 0.0
C1662 C 0.74851 0.74245 0.42596 0.0
C1663 C 0.74902 0.72844 0.45018 0.0
H1664 H 0.63168 0.55195 0.81799 0.0
H1665 H 0.55311 0.53942 0.77928 0.0
H1666 H 0.53104 0.54209 0.82307 0.0
H1667 H 0.53402 0.5461 0.87219 0.0
H1668 H 0.61204 0.55981 0.91169 0.0
H1669 H 0.63442 0.55927 0.86766 0.0
C1670 C 0.60976 0.54974 0.81926 0.0
C1671 C 0.59401 0.54517 0.7956 0.0
C1672 C 0.59713 0.5518 0.84451 0.0
C1673 C 0.56562 0.54285 0.79731 0.0
C1674 C 0.55298 0.54441 0.82229 0.0
C1675 C 0.55592 0.54923 0.87116 0.0
C1676 C 0.57139 0.55275 0.89507 0.0
C1677 C 0.56854 0.54869 0.84598 0.0
C1678 C 0.5997 0.55715 0.89348 0.0
C1679 C 0.6125 0.55659 0.86836 0.0
H1680 H 0.73386 0.28475 0.07555 0.0
H1681 H 0.71088 0.36501 0.09849 0.0
H1682 H 0.698 0.34907 0.14314 0.0
H1683 H 0.69864 0.31413 0.17713 0.0
H1684 H 0.72374 0.23441 0.15514 0.0
H1685 H 0.72977 0.24829 0.10839 0.0
C1686 C 0.72573 0.29869 0.0902 0.0
C1687 C 0.72385 0.32612 0.0839 0.0
C1688 C 0.71879 0.28954 0.116 0.0
C1689 C 0.71295 0.34386 0.10297 0.0
C1690 C 0.70554 0.33478 0.12851 0.0
C1691 C 0.70498 0.2996 0.16207 0.0
C1692 C 0.71124 0.27347 0.16973 0.0
C1693 C 0.70918 0.3079 0.13548 0.0
C1694 C 0.71911 0.2548 0.14985 0.0
C1695 C 0.72269 0.26273 0.12313 0.0
H1696 H 0.91848 0.48179 0.33282 0.0
H1697 H 0.87694 0.55487 0.34792 0.0
H1698 H 0.89239 0.5559 0.39511 0.0
H1699 H 0.91697 0.53563 0.43198 0.0
H1700 H 0.95776 0.462 0.41691 0.0
H1701 H 0.943 0.46152 0.36964 0.0
C1702 C 0.91295 0.49809 0.34635 0.0
C1703 C 0.89669 0.5183 0.33688 0.0
C1704 C 0.92154 0.49832 0.37344 0.0
C1705 C 0.88951 0.53912 0.35473 0.0
C1706 C 0.89826 0.53967 0.3817 0.0
C1707 C 0.92262 0.5194 0.41842 0.0
C1708 C 0.93845 0.49886 0.42804 0.0
C1709 C 0.91412 0.51926 0.39129 0.0
C1710 C 0.94555 0.47803 0.41011 0.0
C1711 C 0.93719 0.47778 0.38305 0.0
H1712 H 0.7592 0.67882 0.64528 0.0
H1713 H 0.68166 0.70437 0.61865 0.0
H1714 H 0.68852 0.74615 0.64588 0.0
H1715 H 0.71583 0.77469 0.6779 0.0
H1716 H 0.79351 0.74953 0.70491 0.0
H1717 H 0.7878 0.70886 0.67589 0.0
C1718 C 0.74371 0.69343 0.64575 0.0
C1719 C 0.7198 0.68843 0.63036 0.0
C1720 C 0.74809 0.71773 0.66091 0.0
C1721 C 0.70013 0.70774 0.63055 0.0
C1722 C 0.70413 0.7317 0.64593 0.0
C1723 C 0.73181 0.76062 0.67714 0.0
C1724 C 0.75497 0.76514 0.69377 0.0
C1725 C 0.72805 0.73691 0.6611 0.0
C1726 C 0.77547 0.74666 0.69231 0.0
C1727 C 0.77207 0.72318 0.67599 0.0
H1728 H 0.64101 0.58775 0.52439 0.0
H1729 H 0.66156 0.53866 0.59197 0.0
H1730 H 0.62434 0.50541 0.57939 0.0
H1731 H 0.58428 0.49207 0.55071 0.0
H1732 H 0.56287 0.54331 0.48526 0.0
H1733 H 0.60274 0.57387 0.49519 0.0
C1734 C 0.63753 0.56977 0.53644 0.0
C1735 C 0.65395 0.56582 0.55925 0.0
C1736 C 0.61613 0.55106 0.52926 0.0
C1737 C 0.64913 0.54227 0.57441 0.0
C1738 C 0.62791 0.52325 0.56718 0.0
C1739 C 0.58878 0.5096 0.53826 0.0
C1740 C 0.57093 0.51543 0.51712 0.0
C1741 C 0.61113 0.5276 0.54479 0.0
C1742 C 0.57648 0.53847 0.50151 0.0
C1743 C 0.59912 0.55596 0.50729 0.0
H1744 H 0.21499 0.99223 0.5077 0.0
H1745 H 0.18363 0.91247 0.48057 0.0
H1746 H 0.13959 0.93004 0.47124 0.0
H1747 H 0.10912 0.96721 0.4739 0.0
H1748 H 0.14046 0.04768 0.49797 0.0
H1749 H 0.18553 0.03074 0.50559 0.0
C1750 C 0.1986 0.97881 0.49939 0.0
C1751 C 0.20246 0.95105 0.49506 0.0
C1752 C 0.17333 0.98909 0.49393 0.0
C1753 C 0.18119 0.93392 0.48403 0.0
C1754 C 0.15593 0.9439 0.47888 0.0
C1755 C 0.12589 0.98098 0.48081 0.0
C1756 C 0.12162 0.00844 0.48597 0.0
C1757 C 0.15164 0.97126 0.48434 0.0
C1758 C 0.14344 0.02638 0.49419 0.0
C1759 C 0.1691 0.0167 0.49849 0.0
H1760 H 0.29847 0.95595 0.72656 0.0
H1761 H 0.37384 0.92101 0.74629 0.0
H1762 H 0.34925 0.87913 0.75953 0.0
H1763 H 0.30679 0.85262 0.76578 0.0
H1764 H 0.23087 0.88656 0.7461 0.0
H1765 H 0.25526 0.92894 0.7332 0.0
C1766 C 0.30945 0.939 0.7334 0.0
C1767 C 0.3379 0.94147 0.7353 0.0
C1768 C 0.29513 0.91505 0.74149 0.0
C1769 C 0.35192 0.91956 0.74463 0.0
C1770 C 0.33789 0.89566 0.75233 0.0
C1771 C 0.29544 0.86933 0.75898 0.0
C1772 C 0.26702 0.86638 0.757 0.0
C1773 C 0.30954 0.8933 0.75108 0.0
C1774 C 0.25277 0.8883 0.74797 0.0
C1775 C 0.2667 0.91247 0.74037 0.0
H1776 H 0.2976 0.07477 0.02156 0.0
H1777 H 0.2863 0.01825 0.08652 0.0
H1778 H 0.33214 0.00351 0.07985 0.0
H1779 H 0.37677 0.00955 0.05784 0.0
H1780 H 0.38717 0.06701 0.99337 0.0
H1781 H 0.34043 0.07852 -0.00222 0.0
C1782 C 0.30499 0.05897 0.03406 0.0
C1783 C 0.28867 0.04779 0.05462 0.0
C1784 C 0.33139 0.051 0.03047 0.0
C1785 C 0.29849 0.0272 0.07051 0.0
C1786 C 0.32477 0.0189 0.06685 0.0
C1787 C 0.36877 0.02451 0.04473 0.0
C1788 C 0.38563 0.03755 0.02553 0.0
C1789 C 0.34166 0.03116 0.04731 0.0
C1790 C 0.3748 0.0567 0.00847 0.0
C1791 C 0.348 0.06334 0.01091 0.0
H1792 H 0.71113 0.61171 0.71446 0.0
H1793 H 0.62706 0.63069 0.71312 0.0
H1794 H 0.63897 0.67446 0.73546 0.0
H1795 H 0.67266 0.70544 0.75893 0.0
H1796 H 0.75669 0.68672 0.75993 0.0
H1797 H 0.74528 0.64427 0.73472 0.0
C1798 C 0.69548 0.62568 0.71843 0.0
C1799 C 0.66823 0.61786 0.71239 0.0
C1800 C 0.70233 0.65038 0.73205 0.0
C1801 C 0.6482 0.6362 0.71771 0.0
C1802 C 0.65493 0.66108 0.73076 0.0
C1803 C 0.68834 0.69178 0.75403 0.0
C1804 C 0.71529 0.69862 0.76191 0.0
C1805 C 0.68176 0.6679 0.7389 0.0
C1806 C 0.73569 0.68142 0.75454 0.0
C1807 C 0.72923 0.65737 0.7399 0.0
H1808 H 0.81782 0.43488 0.00781 0.0
H1809 H 0.85369 0.35742 0.01045 0.0
H1810 H 0.89888 0.38026 0.00829 0.0
H1811 H 0.92806 0.42221 0.00799 0.0
H1812 H 0.8921 0.49967 0.00682 0.0
H1813 H 0.84691 0.47665 0.0057 0.0
C1814 C 0.83549 0.42293 0.00784 0.0
C1815 C 0.83239 0.39451 0.0095 0.0
C1816 C 0.86134 0.43615 0.00677 0.0
C1817 C 0.85551 0.37936 0.00936 0.0
C1818 C 0.88136 0.39238 0.00807 0.0
C1819 C 0.91037 0.43408 0.00712 0.0
C1820 C 0.91343 0.46261 0.00758 0.0
C1821 C 0.88449 0.42077 0.00705 0.0
C1822 C 0.89028 0.47768 0.00661 0.0
C1823 C 0.86444 0.46455 0.00604 0.0
H1824 H 0.30726 0.09232 0.70013 0.0
H1825 H 0.33515 0.07439 0.78039 0.0
H1826 H 0.30698 0.10866 0.7998 0.0
H1827 H 0.27501 0.14437 0.79386 0.0
H1828 H 0.24998 0.16463 0.7134 0.0
H1829 H 0.2761 0.12854 0.69413 0.0
C1830 C 0.30717 0.09592 0.72187 0.0
C1831 C 0.32324 0.08084 0.73879 0.0
C1832 C 0.29125 0.11591 0.73284 0.0
C1833 C 0.32307 0.08585 0.76691 0.0
C1834 C 0.30687 0.10534 0.77803 0.0
C1835 C 0.27501 0.14055 0.77215 0.0
C1836 C 0.26039 0.15679 0.75504 0.0
C1837 C 0.29087 0.12048 0.7612 0.0
C1838 C 0.261 0.1522 0.72691 0.0
C1839 C 0.27599 0.13168 0.71591 0.0
H1840 H 0.17175 0.90833 0.21316 0.0
H1841 H 0.2393 0.92231 0.15941 0.0
H1842 H 0.25331 0.87644 0.16713 0.0
H1843 H 0.24755 0.83308 0.1911 0.0
H1844 H 0.17942 0.81982 0.24449 0.0
H1845 H 0.1644 0.8645 0.23466 0.0
C1846 C 0.18953 0.90136 0.20309 0.0
C1847 C 0.2046 0.91878 0.18598 0.0
C1848 C 0.19736 0.87501 0.20749 0.0
C1849 C 0.22738 0.9093 0.1728 0.0
C1850 C 0.23542 0.88308 0.17719 0.0
C1851 C 0.22923 0.83983 0.20028 0.0
C1852 C 0.21482 0.82314 0.21868 0.0
C1853 C 0.2207 0.86581 0.19473 0.0
C1854 C 0.1911 0.83227 0.23042 0.0
C1855 C 0.18246 0.85788 0.22487 0.0
H1856 H 0.50415 0.28805 0.43372 0.0
H1857 H 0.52812 0.27068 0.51541 0.0
H1858 H 0.52906 0.31921 0.52749 0.0
H1859 H 0.51871 0.36544 0.51572 0.0
H1860 H 0.4886 0.3813 0.43579 0.0
H1861 H 0.4946 0.33414 0.42177 0.0
C1862 C 0.51004 0.29493 0.45408 0.0
C1863 C 0.51619 0.27603 0.47371 0.0
C1864 C 0.50923 0.3224 0.46106 0.0
C1865 C 0.52331 0.28501 0.50007 0.0
C1866 C 0.52379 0.31264 0.50693 0.0
C1867 C 0.51396 0.35862 0.49509 0.0
C1868 C 0.50347 0.37658 0.47663 0.0
C1869 C 0.51618 0.33136 0.48772 0.0
C1870 C 0.49675 0.36763 0.45018 0.0
C1871 C 0.50014 0.34078 0.44225 0.0
H1872 H 0.44516 0.75878 0.22168 0.0
H1873 H 0.42126 0.79976 0.15002 0.0
H1874 H 0.37614 0.80496 0.16907 0.0
H1875 H 0.34226 0.7924 0.20362 0.0
H1876 H 0.36708 0.75189 0.27551 0.0
H1877 H 0.41345 0.75271 0.25918 0.0
C1878 C 0.43011 0.76912 0.21041 0.0
C1879 C 0.43605 0.77836 0.18435 0.0
C1880 C 0.40453 0.77215 0.22154 0.0
C1881 C 0.41685 0.79232 0.17008 0.0
C1882 C 0.39113 0.79521 0.18093 0.0
C1883 C 0.35792 0.78425 0.21598 0.0
C1884 C 0.35108 0.77158 0.24048 0.0
C1885 C 0.38452 0.78444 0.2063 0.0
C1886 C 0.3717 0.76157 0.25649 0.0
C1887 C 0.39821 0.76182 0.24707 0.0
H1888 H 0.96582 0.68869 0.95653 0.0
H1889 H 0.04901 0.70808 0.98102 0.0
H1890 H 0.05178 0.66265 -0.00121 0.0
H1891 H 0.03163 0.61666 0.00476 0.0
H1892 H 0.94793 0.5973 0.98273 0.0
H1893 H 0.94418 0.64359 0.96663 0.0
C1894 C 0.98444 0.68302 0.966 0.0
C1895 C 0.00724 0.70161 0.96725 0.0
C1896 C 0.98585 0.65689 0.9764 0.0
C1897 C 0.03116 0.69414 0.97983 0.0
C1898 C 0.03283 0.66813 0.98987 0.0
C1899 C 0.01255 0.62264 -0.0035 0.0
C1900 C 0.9902 0.60365 0.99449 0.0
C1901 C 0.01048 0.64923 0.9878 0.0
C1902 C 0.96541 0.61167 0.98433 0.0
C1903 C 0.96331 0.63805 0.97509 0.0
H1904 H 0.074 0.20745 0.69932 0.0
H1905 H 0.09051 0.29435 0.70349 0.0
H1906 H 0.11654 0.29029 0.74534 0.0
H1907 H 0.1356 0.26226 0.77945 0.0
H1908 H 0.12631 0.17489 0.77162 0.0
H1909 H 0.09536 0.17882 0.73293 0.0
C1910 C 0.08331 0.22544 0.7095 0.0
C1911 C 0.08032 0.25118 0.69858 0.0
C1912 C 0.09908 0.22283 0.73297 0.0
C1913 C 0.0927 0.27436 0.71156 0.0
C1914 C 0.1074 0.27205 0.73551 0.0
C1915 C 0.12666 0.24396 0.76953 0.0
C1916 C 0.13313 0.21825 0.7785 0.0
C1917 C 0.11077 0.24641 0.74629 0.0
C1918 C 0.12146 0.19487 0.7652 0.0
C1919 C 0.10403 0.19714 0.74297 0.0
H1920 H 0.56666 0.70866 0.0818 0.0
H1921 H 0.47938 0.70175 0.08831 0.0
H1922 H 0.47694 0.66304 0.05698 0.0
H1923 H 0.49904 0.63015 0.03001 0.0
H1924 H 0.58636 0.63312 0.02499 0.0
H1925 H 0.58933 0.67497 0.05307 0.0
C1926 C 0.54717 0.69869 0.07619 0.0
C1927 C 0.52324 0.70788 0.0875 0.0
C1928 C 0.5459 0.67593 0.05846 0.0
C1929 C 0.49809 0.69484 0.08016 0.0
C1930 C 0.49665 0.67279 0.06215 0.0
C1931 C 0.51887 0.63984 0.03485 0.0
C1932 C 0.54248 0.62831 0.02561 0.0
C1933 C 0.52039 0.66301 0.05154 0.0
C1934 C 0.56786 0.64154 0.03189 0.0
C1935 C 0.56955 0.66534 0.04806 0.0
H1936 H 0.0653 0.80155 0.86325 0.0
H1937 H 0.03915 0.72033 0.83627 0.0
H1938 H 0.07457 0.72161 0.8018 0.0
H1939 H 0.11533 0.74441 0.78263 0.0
H1940 H 0.14056 0.82625 0.80836 0.0
H1941 H 0.10234 0.82669 0.83961 0.0
C1942 C 0.06745 0.78419 0.84974 0.0
C1943 C 0.05039 0.7606 0.85251 0.0
C1944 C 0.08728 0.78541 0.82969 0.0
C1945 C 0.05251 0.73848 0.83456 0.0
C1946 C 0.0726 0.73927 0.81489 0.0
C1947 C 0.112 0.76254 0.79465 0.0
C1948 C 0.13064 0.78517 0.79356 0.0
C1949 C 0.09037 0.76244 0.81266 0.0
C1950 C 0.12625 0.8087 0.80888 0.0
C1951 C 0.10467 0.8088 0.82695 0.0
H1952 H 0.98752 0.33106 0.60549 0.0
H1953 H 0.06083 0.34002 0.5587 0.0
H1954 H 0.04175 0.37599 0.53292 0.0
H1955 H 0.00567 0.40634 0.52547 0.0
H1956 H 0.93422 0.40119 0.57512 0.0
H1957 H 0.95077 0.36146 0.59749 0.0
C1958 C -0.0007 0.34088 0.58962 0.0
C1959 C 0.02562 0.333 0.58408 0.0
C1960 C 0.98836 0.36182 0.57516 0.0
C1961 C 0.04066 0.34591 0.56353 0.0
C1962 C 0.02969 0.36632 0.54865 0.0
C1963 C 0.99329 0.3961 0.54066 0.0
C1964 C 0.96851 0.40637 0.54834 0.0
C1965 C 0.00366 0.37451 0.55442 0.0
C1966 C 0.95316 0.39338 0.56864 0.0
C1967 C 0.96278 0.37092 0.5816 0.0
H1968 H 0.42884 0.17811 0.37207 0.0
H1969 H 0.41271 0.22863 0.44148 0.0
H1970 H 0.36974 0.24031 0.42077 0.0
H1971 H 0.34059 0.24107 0.37977 0.0
H1972 H 0.35866 0.19067 0.31039 0.0
H1973 H 0.39711 0.17408 0.33422 0.0
C1974 C 0.41546 0.19106 0.38294 0.0
C1975 C 0.42367 0.20266 0.408 0.0
C1976 C 0.39153 0.19819 0.37064 0.0
C1977 C 0.40644 0.21933 0.42217 0.0
C1978 C 0.38216 0.2263 0.41016 0.0
C1979 C 0.35287 0.22635 0.36999 0.0
C1980 C 0.34708 0.21758 0.34316 0.0
C1981 C 0.37512 0.21674 0.38387 0.0
C1982 C 0.36281 0.19805 0.33091 0.0
C1983 C 0.38481 0.18845 0.34452 0.0
H1984 H 0.41349 0.51078 0.33863 0.0
H1985 H 0.49879 0.53056 0.32767 0.0
H1986 H 0.50616 0.53086 0.37683 0.0
H1987 H 0.48943 0.51784 0.42175 0.0
H1988 H 0.40572 0.48976 0.43095 0.0
H1989 H 0.3963 0.50038 0.38373 0.0
C1990 C 0.4335 0.51606 0.34716 0.0
C1991 C 0.45556 0.52099 0.32988 0.0
C1992 C 0.4378 0.5141 0.37506 0.0
C1993 C 0.48157 0.52699 0.34084 0.0
C1994 C 0.48577 0.5269 0.36883 0.0
C1995 C 0.46904 0.51468 0.41345 0.0
C1996 C 0.44821 0.50317 0.42949 0.0
C1997 C 0.46423 0.51932 0.386 0.0
C1998 C 0.42196 0.49858 0.41871 0.0
C1999 C 0.41662 0.50462 0.39181 0.0
H2000 H 0.26459 0.6238 0.09024 0.0
H2001 H 0.31343 0.69311 0.06275 0.0
H2002 H 0.30714 0.71693 0.10598 0.0
H2003 H 0.28397 0.71962 0.14926 0.0
H2004 H 0.23251 0.65136 0.17568 0.0
H2005 H 0.24306 0.6257 0.13475 0.0
C2006 C 0.27458 0.64375 0.09417 0.0
C2007 C 0.28978 0.65665 0.07376 0.0
C2008 C 0.2696 0.6578 0.11836 0.0
C2009 C 0.30199 0.68279 0.07852 0.0
C2010 C 0.29806 0.69649 0.103 0.0
C2011 C 0.2749 0.69919 0.14606 0.0
C2012 C 0.25719 0.68759 0.16535 0.0
C2013 C 0.28112 0.68454 0.12263 0.0
C2014 C 0.24597 0.66092 0.16101 0.0
C2015 C 0.25216 0.64613 0.13773 0.0
H2016 H 0.08354 0.45559 0.85201 0.0
H2017 H 0.04218 0.52543 0.82672 0.0
H2018 H 0.0182 0.52639 0.8694 0.0
H2019 H 0.01323 0.51122 0.91574 0.0
H2020 H 0.05388 0.44169 0.94218 0.0
H2021 H 0.07352 0.43638 0.89701 0.0
C2022 C 0.06898 0.47074 0.85572 0.0
C2023 C 0.06506 0.49072 0.83643 0.0
C2024 C 0.05524 0.4713 0.8805 0.0
C2025 C 0.04587 0.51002 0.84134 0.0
C2026 C 0.03212 0.51063 0.86577 0.0
C2027 C 0.02601 0.4946 0.91142 0.0
C2028 C 0.03248 0.47709 0.93211 0.0
C2029 C 0.03731 0.49195 0.88575 0.0
C2030 C 0.04868 0.45538 0.92639 0.0
C2031 C 0.06006 0.45252 0.90069 0.0
H2032 H 0.16216 0.34066 0.6432 0.0
H2033 H 0.1985 0.27831 0.59575 0.0
H2034 H 0.20374 0.25169 0.63608 0.0
H2035 H 0.20511 0.24988 0.68568 0.0
H2036 H 0.16773 0.31123 0.73324 0.0
H2037 H 0.15559 0.33436 0.69202 0.0
C2038 C 0.17061 0.32095 0.64159 0.0
C2039 C 0.18059 0.31187 0.61666 0.0
C2040 C 0.17386 0.30579 0.66494 0.0
C2041 C 0.19096 0.28601 0.61475 0.0
C2042 C 0.19419 0.27081 0.63786 0.0
C2043 C 0.19401 0.26813 0.6869 0.0
C2044 C 0.18792 0.27932 0.71226 0.0
C2045 C 0.18694 0.28115 0.66319 0.0
C2046 C 0.17289 0.3025 0.71379 0.0
C2047 C 0.166 0.31574 0.69028 0.0
H2048 H 0.42165 0.52428 0.15634 0.0
H2049 H 0.49392 0.49338 0.19053 0.0
H2050 H 0.51469 0.49293 0.14592 0.0
H2051 H 0.51235 0.5013 0.09703 0.0
H2052 H 0.44067 0.53379 0.06346 0.0
H2053 H 0.41957 0.53328 0.10791 0.0
C2054 C 0.44198 0.51754 0.15409 0.0
C2055 C 0.45615 0.50889 0.17678 0.0
C2056 C 0.45385 0.51736 0.12841 0.0
C2057 C 0.48254 0.50028 0.17345 0.0
C2058 C 0.49442 0.49987 0.1479 0.0
C2059 C 0.49201 0.50797 0.09945 0.0
C2060 C 0.47803 0.5174 0.07703 0.0
C2061 C 0.48021 0.50824 0.12521 0.0
C2062 C 0.45185 0.52644 0.08047 0.0
C2063 C 0.43978 0.52621 0.10587 0.0
H2064 H 0.28769 0.6947 0.92403 0.0
H2065 H 0.20561 0.70373 0.95007 0.0
H2066 H 0.19752 0.73224 0.91143 0.0
H2067 H 0.21238 0.75047 0.86796 0.0
H2068 H 0.29481 0.74306 0.84237 0.0
H2069 H 0.30453 0.71867 0.88359 0.0
C2070 C 0.26814 0.70311 0.92125 0.0
C2071 C 0.24709 0.69681 0.9394 0.0
C2072 C 0.26379 0.71985 0.89927 0.0
C2073 C 0.22201 0.70822 0.93613 0.0
C2074 C 0.21738 0.72448 0.91409 0.0
C2075 C 0.23262 0.74401 0.87175 0.0
C2076 C 0.25277 0.74819 0.8522 0.0
C2077 C 0.23793 0.7299 0.89524 0.0
C2078 C 0.27902 0.74009 0.85729 0.0
C2079 C 0.28448 0.72589 0.88066 0.0
H2080 H 0.04992 0.48778 0.71159 0.0
H2081 H 0.12198 0.47941 0.66405 0.0
H2082 H 0.09656 0.488 0.62288 0.0
H2083 H 0.05479 0.50051 0.6009 0.0
H2084 H 0.98212 0.50714 0.64765 0.0
H2085 H 0.00712 0.49707 0.689 0.0
C2086 C 0.06002 0.48752 0.6922 0.0
C2087 C 0.08789 0.48319 0.69094 0.0
C2088 C 0.04536 0.49273 0.66867 0.0
C2089 C 0.10058 0.48263 0.66561 0.0
C2090 C 0.08612 0.4878 0.64209 0.0
C2091 C 0.04449 0.50007 0.62021 0.0
C2092 C 0.01688 0.50525 0.62149 0.0
C2093 C 0.05872 0.49349 0.64352 0.0
C2094 C 0.0035 0.50365 0.64638 0.0
C2095 C 0.01773 0.49775 0.66989 0.0
H2096 H 0.19997 0.27761 0.47581 0.0
H2097 H 0.20118 0.3615 0.45305 0.0
H2098 H 0.21086 0.34857 0.40618 0.0
H2099 H 0.22489 0.31392 0.37337 0.0
H2100 H 0.22133 0.22982 0.39558 0.0
H2101 H 0.20657 0.2422 0.44116 0.0
C2102 C 0.20174 0.29293 0.4604 0.0
C2103 C 0.20023 0.32042 0.46772 0.0
C2104 C 0.2073 0.28534 0.43364 0.0
C2105 C 0.20221 0.34018 0.44772 0.0
C2106 C 0.20802 0.33283 0.42104 0.0
C2107 C 0.22053 0.29837 0.38819 0.0
C2108 C 0.22459 0.27114 0.3816 0.0
C2109 C 0.21159 0.30559 0.41404 0.0
C2110 C 0.21843 0.25094 0.4005 0.0
C2111 C 0.21007 0.25801 0.42647 0.0
H2112 H 0.29497 0.36796 0.5257 0.0
H2113 H 0.28114 0.42111 0.59407 0.0
H2114 H 0.3283 0.43928 0.59272 0.0
H2115 H 0.37276 0.44154 0.57065 0.0
H2116 H 0.38533 0.39009 0.50067 0.0
H2117 H 0.33929 0.36963 0.50424 0.0
C2118 C 0.3023 0.38335 0.54047 0.0
C2119 C 0.28462 0.39318 0.55994 0.0
C2120 C 0.32916 0.39405 0.53923 0.0
C2121 C 0.29437 0.41329 0.5788 0.0
C2122 C 0.32131 0.42367 0.57805 0.0
C2123 C 0.36548 0.42565 0.55637 0.0
C2124 C 0.38236 0.41734 0.53543 0.0
C2125 C 0.33879 0.41441 0.55816 0.0
C2126 C 0.37263 0.39694 0.51688 0.0
C2127 C 0.34634 0.38522 0.51891 0.0
H2128 H 0.84641 0.09644 0.46357 0.0
H2129 H 0.84179 0.03089 0.51994 0.0
H2130 H 0.87879 0.00972 0.49698 0.0
H2131 H 0.91729 0.01429 0.46671 0.0
H2132 H 0.92746 0.08373 0.41586 0.0
H2133 H 0.88305 0.0985 0.42965 0.0
C2134 C 0.85326 0.07726 0.47036 0.0
C2135 C 0.84179 0.0653 0.49349 0.0
C2136 C 0.87544 0.06588 0.45781 0.0
C2137 C 0.85074 0.04057 0.50237 0.0
C2138 C 0.87176 0.02842 0.4892 0.0
C2139 C 0.90906 0.03191 0.4577 0.0
C2140 C 0.92506 0.04764 0.43994 0.0
C2141 C 0.88491 0.04143 0.4676 0.0
C2142 C 0.91498 0.07102 0.42904 0.0
C2143 C 0.88989 0.0797 0.43737 0.0
H2144 H 0.6757 0.05983 0.23713 0.0
H2145 H 0.61688 0.072 0.29971 0.0
H2146 H 0.63268 0.11991 0.30385 0.0
H2147 H 0.66263 0.15805 0.28916 0.0
H2148 H 0.72092 0.1456 0.22607 0.0
H2149 H 0.70559 0.09768 0.22261 0.0
C2150 C 0.66634 0.07286 0.2518 0.0
C2151 C 0.64515 0.06238 0.26812 0.0
C2152 C 0.67529 0.10023 0.25386 0.0
C2153 C 0.63323 0.0796 0.28692 0.0
C2154 C 0.64221 0.10695 0.28926 0.0
C2155 C 0.67201 0.14491 0.27461 0.0
C2156 C 0.69287 0.1554 0.25786 0.0
C2157 C 0.66312 0.11746 0.27271 0.0
C2158 C 0.70479 0.13806 0.23915 0.0
C2159 C 0.69608 0.11067 0.23719 0.0
H2160 H 0.67573 0.98406 0.04268 0.0
H2161 H 0.65221 0.90641 0.00476 0.0
H2162 H 0.61124 0.92473 0.98654 0.0
H2163 H 0.58 0.96132 0.98549 0.0
H2164 H 0.60345 0.03885 0.02394 0.0
H2165 H 0.64688 0.0222 0.03717 0.0
C2166 C 0.66173 0.97121 0.03027 0.0
C2167 C 0.66674 0.94382 0.02547 0.0
C2168 C 0.63826 0.98186 0.01984 0.0
C2169 C 0.64869 0.92752 0.00894 0.0
C2170 C 0.62526 0.93798 -0.0015 0.0
C2171 C 0.59481 0.97483 -0.00378 0.0
C2172 C 0.58823 0.00119 0.00402 0.0
C2173 C 0.61955 0.96495 0.00434 0.0
C2174 C 0.60781 0.01839 0.01784 0.0
C2175 C 0.63263 0.00883 0.0256 0.0
H2176 H 0.34353 0.43284 0.24478 0.0
H2177 H 0.4119 0.41104 0.29273 0.0
H2178 H 0.38721 0.36855 0.30482 0.0
H2179 H 0.34621 0.33739 0.30129 0.0
H2180 H 0.27912 0.35864 0.25127 0.0
H2181 H 0.30321 0.40175 0.2407 0.0
C2182 C 0.35305 0.41883 0.25791 0.0
C2183 C 0.37947 0.4251 0.26787 0.0
C2184 C 0.33891 0.39442 0.26452 0.0
C2185 C 0.39161 0.40661 0.28467 0.0
C2186 C 0.37747 0.38238 0.29169 0.0
C2187 C 0.33683 0.35162 0.2883 0.0
C2188 C 0.31093 0.34499 0.27718 0.0
C2189 C 0.35109 0.37608 0.28173 0.0
C2190 C 0.29909 0.36334 0.26003 0.0
C2191 C 0.31284 0.38795 0.25396 0.0
H2192 H 0.18901 0.60011 0.04205 0.0
H2193 H 0.20178 0.55202 0.96995 0.0
H2194 H 0.1588 0.52564 0.97712 0.0
H2195 H 0.1162 0.51911 0.00194 0.0
H2196 H 0.10424 0.56556 0.07528 0.0
H2197 H 0.14894 0.5894 0.0702 0.0
C2198 C 0.18227 0.5838 0.02799 0.0
C2199 C 0.19789 0.57825 0.00517 0.0
C2200 C 0.15807 0.56838 0.03269 0.0
C2201 C 0.18969 0.55669 0.98742 0.0
C2202 C 0.16526 0.54165 0.99157 0.0
C2203 C 0.12371 0.53406 0.01708 0.0
C2204 C 0.10714 0.54086 0.03881 0.0
C2205 C 0.14914 0.54765 0.01388 0.0
C2206 C 0.11689 0.55999 0.05851 0.0
C2207 C 0.14222 0.5738 0.05541 0.0
H2208 H 0.66938 0.93603 0.31345 0.0
H2209 H 0.72093 0.93867 0.24332 0.0
H2210 H 0.75348 0.91201 0.2667 0.0
H2211 H 0.76198 0.88048 0.30281 0.0
H2212 H 0.70737 0.87309 0.36988 0.0
H2213 H 0.68252 0.9107 0.35325 0.0
C2214 C 0.68787 0.93102 0.30337 0.0
C2215 C 0.69236 0.93861 0.27639 0.0
C2216 C 0.70629 0.91536 0.31679 0.0
C2217 C 0.71672 0.93256 0.26386 0.0
C2218 C 0.73544 0.91748 0.27729 0.0
C2219 C 0.74566 0.88831 0.31462 0.0
C2220 C 0.73618 0.8739 0.33723 0.0
C2221 C 0.72988 0.90788 0.30331 0.0
C2222 C 0.71504 0.88397 0.35244 0.0
C2223 C 0.70031 0.90491 0.34241 0.0
H2224 H 0.79999 0.09507 0.70691 0.0
H2225 H 0.86909 0.12013 0.7576 0.0
H2226 H 0.84762 0.16147 0.77096 0.0
H2227 H 0.81094 0.19195 0.76556 0.0
H2228 H 0.74218 0.16737 0.71412 0.0
H2229 H 0.7616 0.12408 0.70428 0.0
C2230 C 0.81031 0.10953 0.72096 0.0
C2231 C 0.83623 0.10472 0.73096 0.0
C2232 C 0.79787 0.13326 0.72856 0.0
C2233 C 0.8492 0.12346 0.74943 0.0
C2234 C 0.83693 0.14709 0.75713 0.0
C2235 C 0.7999 0.17697 0.75258 0.0
C2236 C 0.77523 0.18306 0.74044 0.0
C2237 C 0.81146 0.15238 0.74649 0.0
C2238 C 0.76127 0.16332 0.72367 0.0
C2239 C 0.77243 0.1386 0.71788 0.0
loop_
_geom_bond_atom_site_label_1
_geom_bond_atom_site_label_2
_geom_bond_distance
_geom_bond_site_symmetry_2
_ccdc_geom_bond_type
O0 Cd1 2.223 . S
O0 C8 1.315 . S
Cd1 O0 2.223 . S
Cd1 O4 2.297 1_455 S
Cd1 O5 2.439 1_455 S
Cd1 O11 2.240 . S
Cd2 O3 2.240 . S
Cd2 O10 2.223 . S
Cd2 O12 2.297 . S
Cd2 O13 2.439 . S
O3 Cd2 2.240 . S
O3 C8 1.279 . S
O4 Cd1 2.297 1_655 S
O4 C6 1.247 . S
O5 Cd1 2.439 1_655 S
O5 C6 1.208 . S
C6 O4 1.247 . S
C6 O5 1.208 . S
C7 O12 1.247 . S
C7 O13 1.208 . S
C8 O0 1.315 . S
C8 O3 1.279 . S
C9 O10 1.315 . S
C9 O11 1.279 . S
O10 Cd2 2.223 . S
O10 C9 1.315 . S
O11 Cd1 2.240 . S
O11 C9 1.279 . S
O12 Cd2 2.297 . S
O12 C7 1.247 . S
O13 Cd2 2.439 . S
O13 C7 1.208 . S
O14 Cd15 2.223 . S
O14 C22 1.315 . S
Cd15 O14 2.223 . S
Cd15 O18 2.297 . S
Cd15 O19 2.439 1_455 S
Cd15 O25 2.240 1_455 S
Cd16 O17 2.240 1_655 S
Cd16 O24 2.223 1_655 S
Cd16 O26 2.297 . S
Cd16 O27 2.439 . S
O17 Cd16 2.240 1_455 S
O17 C22 1.279 . S
O18 Cd15 2.297 . S
O18 C20 1.247 . S
O19 Cd15 2.439 1_655 S
O19 C20 1.208 1_655 S
C20 O18 1.247 . S
C20 O19 1.208 1_455 S
C21 O26 1.247 . S
C21 O27 1.208 . S
C22 O14 1.315 . S
C22 O17 1.279 . S
C23 O24 1.315 . S
C23 O25 1.279 1_455 S
O24 Cd16 2.223 1_455 S
O24 C23 1.315 . S
O25 Cd15 2.240 1_655 S
O25 C23 1.279 1_655 S
O26 Cd16 2.297 . S
O26 C21 1.247 . S
O27 Cd16 2.439 . S
O27 C21 1.208 . S
O28 Cd29 2.223 . S
O28 C36 1.315 . S
Cd29 O28 2.223 . S
Cd29 O32 2.297 . S
Cd29 O33 2.439 . S
Cd29 O39 2.240 . S
Cd30 O31 2.240 . S
Cd30 O38 2.223 . S
Cd30 O40 2.297 . S
Cd30 O41 2.439 . S
O31 Cd30 2.240 . S
O31 C36 1.279 . S
O32 Cd29 2.297 . S
O32 C34 1.247 . S
O33 Cd29 2.439 . S
O33 C34 1.208 . S
C34 O32 1.247 . S
C34 O33 1.208 . S
C35 O40 1.247 . S
C35 O41 1.208 . S
C36 O28 1.315 . S
C36 O31 1.279 . S
C37 O38 1.315 . S
C37 O39 1.279 . S
O38 Cd30 2.223 . S
O38 C37 1.315 . S
O39 Cd29 2.240 . S
O39 C37 1.279 . S
O40 Cd30 2.297 . S
O40 C35 1.247 . S
O41 Cd30 2.439 . S
O41 C35 1.208 . S
O42 Cd43 2.223 . S
O42 C50 1.315 . S
Cd43 O42 2.223 . S
Cd43 O46 2.297 . S
Cd43 O47 2.439 . S
Cd43 O53 2.240 . S
Cd44 O45 2.240 . S
Cd44 O52 2.223 . S
Cd44 O54 2.297 . S
Cd44 O55 2.439 . S
O45 Cd44 2.240 . S
O45 C50 1.279 . S
O46 Cd43 2.297 . S
O46 C48 1.247 . S
O47 Cd43 2.439 . S
O47 C48 1.208 . S
C48 O46 1.247 . S
C48 O47 1.208 . S
C49 O54 1.247 . S
C49 O55 1.208 . S
C50 O42 1.315 . S
C50 O45 1.279 . S
C51 O52 1.315 . S
C51 O53 1.279 . S
O52 Cd44 2.223 . S
O52 C51 1.315 . S
O53 Cd43 2.240 . S
O53 C51 1.279 . S
O54 Cd44 2.297 . S
O54 C49 1.247 . S
O55 Cd44 2.439 . S
O55 C49 1.208 . S
O56 Cd57 2.223 . S
O56 C64 1.315 . S
Cd57 O56 2.223 . S
Cd57 O60 2.297 1_545 S
Cd57 O61 2.439 1_545 S
Cd57 O67 2.240 . S
Cd58 O59 2.240 . S
Cd58 O66 2.223 . S
Cd58 O68 2.297 . S
Cd58 O69 2.439 . S
O59 Cd58 2.240 . S
O59 C64 1.279 . S
O60 Cd57 2.297 1_565 S
O60 C62 1.247 . S
O61 Cd57 2.439 1_565 S
O61 C62 1.208 . S
C62 O60 1.247 . S
C62 O61 1.208 . S
C63 O68 1.247 . S
C63 O69 1.208 . S
C64 O56 1.315 . S
C64 O59 1.279 . S
C65 O66 1.315 . S
C65 O67 1.279 . S
O66 Cd58 2.223 . S
O66 C65 1.315 . S
O67 Cd57 2.240 . S
O67 C65 1.279 . S
O68 Cd58 2.297 . S
O68 C63 1.247 . S
O69 Cd58 2.439 . S
O69 C63 1.208 . S
O70 Cd71 2.223 . S
O70 C78 1.315 . S
Cd71 O70 2.223 . S
Cd71 O74 2.297 . S
Cd71 O75 2.439 . S
Cd71 O81 2.240 . S
Cd72 O73 2.240 . S
Cd72 O80 2.223 . S
Cd72 O82 2.297 . S
Cd72 O83 2.439 . S
O73 Cd72 2.240 . S
O73 C78 1.279 . S
O74 Cd71 2.297 . S
O74 C76 1.247 . S
O75 Cd71 2.439 . S
O75 C76 1.208 . S
C76 O74 1.247 . S
C76 O75 1.208 . S
C77 O82 1.247 . S
C77 O83 1.208 . S
C78 O70 1.315 . S
C78 O73 1.279 . S
C79 O80 1.315 . S
C79 O81 1.279 . S
O80 Cd72 2.223 . S
O80 C79 1.315 . S
O81 Cd71 2.240 . S
O81 C79 1.279 . S
O82 Cd72 2.297 . S
O82 C77 1.247 . S
O83 Cd72 2.439 . S
O83 C77 1.208 . S
O84 Cd85 2.223 . S
O84 C92 1.315 . S
Cd85 O84 2.223 . S
Cd85 O88 2.297 . S
Cd85 O89 2.439 . S
Cd85 O95 2.240 1_545 S
Cd86 O87 2.240 1_565 S
Cd86 O94 2.223 . S
Cd86 O96 2.297 . S
Cd86 O97 2.439 1_565 S
O87 Cd86 2.240 1_545 S
O87 C92 1.279 . S
O88 Cd85 2.297 . S
O88 C90 1.247 . S
O89 Cd85 2.439 . S
O89 C90 1.208 . S
C90 O88 1.247 . S
C90 O89 1.208 . S
C91 O96 1.247 . S
C91 O97 1.208 1_565 S
C92 O84 1.315 . S
C92 O87 1.279 . S
C93 O94 1.315 . S
C93 O95 1.279 . S
O94 Cd86 2.223 . S
O94 C93 1.315 . S
O95 Cd85 2.240 1_565 S
O95 C93 1.279 . S
O96 Cd86 2.297 . S
O96 C91 1.247 . S
O97 Cd86 2.439 1_545 S
O97 C91 1.208 1_545 S
O98 Cd99 2.223 . S
O98 C106 1.315 . S
Cd99 O98 2.223 . S
Cd99 O102 2.297 . S
Cd99 O103 2.439 . S
Cd99 O109 2.251 . S
Cd100 O101 2.240 1_556 S
Cd100 O108 2.223 1_556 S
Cd100 O110 2.297 . S
Cd100 O111 2.439 . S
O101 Cd100 2.240 1_554 S
O101 C106 1.279 . S
O102 Cd99 2.297 . S
O102 C104 1.247 . S
O103 Cd99 2.439 . S
O103 C104 1.208 . S
C104 O102 1.247 . S
C104 O103 1.208 . S
C105 O110 1.247 . S
C105 O111 1.208 . S
C106 O98 1.315 . S
C106 O101 1.279 . S
C107 O108 1.315 . S
C107 O109 1.288 . S
O108 Cd100 2.223 1_554 S
O108 C107 1.315 . S
O109 Cd99 2.251 . S
O109 C107 1.288 . S
O110 Cd100 2.297 . S
O110 C105 1.247 . S
O111 Cd100 2.439 . S
O111 C105 1.208 . S
O112 Cd113 2.223 . S
O112 C120 1.315 . S
Cd113 O112 2.223 . S
Cd113 O116 2.297 . S
Cd113 O117 2.439 . S
Cd113 O123 2.240 . S
Cd114 O115 2.240 . S
Cd114 O122 2.223 . S
Cd114 O124 2.297 1_554 S
Cd114 O125 2.439 1_554 S
O115 Cd114 2.240 . S
O115 C120 1.279 . S
O116 Cd113 2.297 . S
O116 C118 1.247 . S
O117 Cd113 2.439 . S
O117 C118 1.208 . S
C118 O116 1.247 . S
C118 O117 1.208 . S
C119 O124 1.247 . S
C119 O125 1.208 . S
C120 O112 1.315 . S
C120 O115 1.279 . S
C121 O122 1.315 . S
C121 O123 1.279 . S
O122 Cd114 2.223 . S
O122 C121 1.315 . S
O123 Cd113 2.240 . S
O123 C121 1.279 . S
O124 Cd114 2.297 1_556 S
O124 C119 1.247 . S
O125 Cd114 2.439 1_556 S
O125 C119 1.208 . S
O126 Cd127 2.223 . S
O126 C134 1.315 . S
Cd127 O126 2.223 . S
Cd127 O130 2.297 . S
Cd127 O131 2.439 . S
Cd127 O137 2.240 . S
Cd128 O129 2.240 . S
Cd128 O136 2.223 . S
Cd128 O138 2.297 . S
Cd128 O139 2.439 . S
O129 Cd128 2.240 . S
O129 C134 1.279 . S
O130 Cd127 2.297 . S
O130 C132 1.247 . S
O131 Cd127 2.439 . S
O131 C132 1.208 . S
C132 O130 1.247 . S
C132 O131 1.208 . S
C133 O138 1.247 . S
C133 O139 1.208 . S
C134 O126 1.315 . S
C134 O129 1.279 . S
C135 O136 1.315 . S
C135 O137 1.279 . S
O136 Cd128 2.223 . S
O136 C135 1.315 . S
O137 Cd127 2.240 . S
O137 C135 1.279 . S
O138 Cd128 2.297 . S
O138 C133 1.247 . S
O139 Cd128 2.439 . S
O139 C133 1.208 . S
O140 Cd141 2.223 . S
O140 C148 1.315 . S
Cd141 O140 2.223 . S
Cd141 O144 2.297 . S
Cd141 O145 2.439 . S
Cd141 O151 2.240 . S
Cd142 O143 2.240 . S
Cd142 O150 2.223 . S
Cd142 O152 2.297 . S
Cd142 O153 2.439 . S
O143 Cd142 2.240 . S
O143 C148 1.279 . S
O144 Cd141 2.297 . S
O144 C146 1.247 . S
O145 Cd141 2.439 . S
O145 C146 1.208 . S
C146 O144 1.247 . S
C146 O145 1.208 . S
C147 O152 1.247 . S
C147 O153 1.208 . S
C148 O140 1.315 . S
C148 O143 1.279 . S
C149 O150 1.315 . S
C149 O151 1.279 . S
O150 Cd142 2.223 . S
O150 C149 1.315 . S
O151 Cd141 2.240 . S
O151 C149 1.279 . S
O152 Cd142 2.297 . S
O152 C147 1.247 . S
O153 Cd142 2.439 . S
O153 C147 1.208 . S
O154 Cd155 2.223 . S
O154 C162 1.315 . S
Cd155 O154 2.223 . S
Cd155 O158 2.297 . S
Cd155 O159 2.439 . S
Cd155 O165 2.240 . S
Cd156 O157 2.240 . S
Cd156 O164 2.223 . S
Cd156 O166 2.297 . S
Cd156 O167 2.439 . S
O157 Cd156 2.240 . S
O157 C162 1.279 . S
O158 Cd155 2.297 . S
O158 C160 1.247 . S
O159 Cd155 2.439 . S
O159 C160 1.208 . S
C160 O158 1.247 . S
C160 O159 1.208 . S
C161 O166 1.247 . S
C161 O167 1.208 . S
C162 O154 1.315 . S
C162 O157 1.279 . S
C163 O164 1.315 . S
C163 O165 1.279 . S
O164 Cd156 2.223 . S
O164 C163 1.315 . S
O165 Cd155 2.240 . S
O165 C163 1.279 . S
O166 Cd156 2.297 . S
O166 C161 1.247 . S
O167 Cd156 2.439 . S
O167 C161 1.208 . S
O168 Cd169 2.223 . S
O168 C176 1.315 . S
Cd169 O168 2.223 . S
Cd169 O172 2.297 . S
Cd169 O173 2.439 1_455 S
Cd169 O179 2.240 1_455 S
Cd170 O171 2.240 1_655 S
Cd170 O178 2.223 1_655 S
Cd170 O180 2.297 . S
Cd170 O181 2.439 . S
O171 Cd170 2.240 1_455 S
O171 C176 1.279 . S
O172 Cd169 2.297 . S
O172 C174 1.247 . S
O173 Cd169 2.439 1_655 S
O173 C174 1.208 1_655 S
C174 O172 1.247 . S
C174 O173 1.208 1_455 S
C175 O180 1.247 . S
C175 O181 1.208 . S
C176 O168 1.315 . S
C176 O171 1.279 . S
C177 O178 1.315 . S
C177 O179 1.279 1_455 S
O178 Cd170 2.223 1_455 S
O178 C177 1.315 . S
O179 Cd169 2.240 1_655 S
O179 C177 1.279 1_655 S
O180 Cd170 2.297 . S
O180 C175 1.247 . S
O181 Cd170 2.439 . S
O181 C175 1.208 . S
O182 Cd183 2.223 1_455 S
O182 C190 1.317 . S
Cd183 O182 2.223 1_655 S
Cd183 O186 2.297 . S
Cd183 O187 2.439 . S
Cd183 O193 2.240 1_655 S
Cd184 O185 2.240 1_455 S
Cd184 O192 2.223 . S
Cd184 O194 2.297 . S
Cd184 O195 2.439 1_455 S
O185 Cd184 2.240 1_655 S
O185 C190 1.271 1_655 S
O186 Cd183 2.297 . S
O186 C188 1.247 . S
O187 Cd183 2.439 . S
O187 C188 1.208 . S
C188 O186 1.247 . S
C188 O187 1.208 . S
C189 O194 1.247 . S
C189 O195 1.208 1_455 S
C190 O182 1.317 . S
C190 O185 1.271 1_455 S
C191 O192 1.315 . S
C191 O193 1.279 . S
O192 Cd184 2.223 . S
O192 C191 1.315 . S
O193 Cd183 2.240 1_455 S
O193 C191 1.279 . S
O194 Cd184 2.297 . S
O194 C189 1.247 . S
O195 Cd184 2.439 1_655 S
O195 C189 1.208 1_655 S
O196 Cd197 2.223 . S
O196 C204 1.315 . S
Cd197 O196 2.223 . S
Cd197 O200 2.297 . S
Cd197 O201 2.439 . S
Cd197 O207 2.240 . S
Cd198 O199 2.240 . S
Cd198 O206 2.223 . S
Cd198 O208 2.297 . S
Cd198 O209 2.439 . S
O199 Cd198 2.240 . S
O199 C204 1.279 . S
O200 Cd197 2.297 . S
O200 C202 1.247 . S
O201 Cd197 2.439 . S
O201 C202 1.208 . S
C202 O200 1.247 . S
C202 O201 1.208 . S
C203 O208 1.247 . S
C203 O209 1.208 . S
C204 O196 1.315 . S
C204 O199 1.279 . S
C205 O206 1.315 . S
C205 O207 1.279 . S
O206 Cd198 2.223 . S
O206 C205 1.315 . S
O207 Cd197 2.240 . S
O207 C205 1.279 . S
O208 Cd198 2.297 . S
O208 C203 1.247 . S
O209 Cd198 2.439 . S
O209 C203 1.208 . S
O210 Cd211 2.223 . S
O210 C218 1.315 . S
Cd211 O210 2.223 . S
Cd211 O214 2.297 . S
Cd211 O215 2.439 . S
Cd211 O221 2.240 . S
Cd212 O213 2.240 . S
Cd212 O220 2.223 . S
Cd212 O222 2.297 . S
Cd212 O223 2.439 . S
O213 Cd212 2.240 . S
O213 C218 1.279 . S
O214 Cd211 2.297 . S
O214 C216 1.247 . S
O215 Cd211 2.439 . S
O215 C216 1.208 . S
C216 O214 1.247 . S
C216 O215 1.208 . S
C217 O222 1.247 . S
C217 O223 1.208 . S
C218 O210 1.315 . S
C218 O213 1.279 . S
C219 O220 1.315 . S
C219 O221 1.279 . S
O220 Cd212 2.223 . S
O220 C219 1.315 . S
O221 Cd211 2.240 . S
O221 C219 1.279 . S
O222 Cd212 2.297 . S
O222 C217 1.247 . S
O223 Cd212 2.439 . S
O223 C217 1.208 . S
O224 Cd225 2.223 . S
O224 C232 1.315 . S
Cd225 O224 2.223 . S
Cd225 O228 2.297 . S
Cd225 O229 2.439 . S
Cd225 O235 2.240 1_545 S
Cd226 O227 2.240 . S
Cd226 O234 2.223 1_545 S
Cd226 O236 2.297 1_545 S
Cd226 O237 2.439 . S
O227 Cd226 2.240 . S
O227 C232 1.279 . S
O228 Cd225 2.297 . S
O228 C230 1.247 . S
O229 Cd225 2.439 . S
O229 C230 1.208 . S
C230 O228 1.247 . S
C230 O229 1.208 . S
C231 O236 1.247 1_545 S
C231 O237 1.208 . S
C232 O224 1.315 . S
C232 O227 1.279 . S
C233 O234 1.315 . S
C233 O235 1.279 . S
O234 Cd226 2.223 1_565 S
O234 C233 1.315 . S
O235 Cd225 2.240 1_565 S
O235 C233 1.279 . S
O236 Cd226 2.297 1_565 S
O236 C231 1.247 1_565 S
O237 Cd226 2.439 . S
O237 C231 1.208 . S
O238 Cd239 2.223 . S
O238 C246 1.315 . S
Cd239 O238 2.223 . S
Cd239 O242 2.297 . S
Cd239 O243 2.439 . S
Cd239 O249 2.240 . S
Cd240 O241 2.240 . S
Cd240 O248 2.223 . S
Cd240 O250 2.297 . S
Cd240 O251 2.439 . S
O241 Cd240 2.240 . S
O241 C246 1.279 . S
O242 Cd239 2.297 . S
O242 C244 1.247 . S
O243 Cd239 2.439 . S
O243 C244 1.208 . S
C244 O242 1.247 . S
C244 O243 1.208 . S
C245 O250 1.247 . S
C245 O251 1.208 . S
C246 O238 1.315 . S
C246 O241 1.279 . S
C247 O248 1.315 . S
C247 O249 1.279 . S
O248 Cd240 2.223 . S
O248 C247 1.315 . S
O249 Cd239 2.240 . S
O249 C247 1.279 . S
O250 Cd240 2.297 . S
O250 C245 1.247 . S
O251 Cd240 2.439 . S
O251 C245 1.208 . S
O252 Cd253 2.223 1_545 S
O252 C260 1.315 . S
Cd253 O252 2.223 1_565 S
Cd253 O256 2.297 . S
Cd253 O257 2.439 . S
Cd253 O263 2.240 1_565 S
Cd254 O255 2.240 1_545 S
Cd254 O262 2.223 . S
Cd254 O264 2.297 . S
Cd254 O265 2.439 1_545 S
O255 Cd254 2.240 1_565 S
O255 C260 1.279 1_565 S
O256 Cd253 2.297 . S
O256 C258 1.247 . S
O257 Cd253 2.439 . S
O257 C258 1.208 . S
C258 O256 1.247 . S
C258 O257 1.208 . S
C259 O264 1.247 . S
C259 O265 1.208 1_545 S
C260 O252 1.315 . S
C260 O255 1.279 1_545 S
C261 O262 1.315 . S
C261 O263 1.279 . S
O262 Cd254 2.223 . S
O262 C261 1.315 . S
O263 Cd253 2.240 1_545 S
O263 C261 1.279 . S
O264 Cd254 2.297 . S
O264 C259 1.247 . S
O265 Cd254 2.439 1_565 S
O265 C259 1.208 1_565 S
O266 Cd267 2.223 . S
O266 C274 1.315 . S
Cd267 O266 2.223 . S
Cd267 O270 2.297 . S
Cd267 O271 2.439 1_554 S
Cd267 O277 2.240 1_554 S
Cd268 O269 2.240 1_556 S
Cd268 O276 2.223 1_556 S
Cd268 O278 2.297 . S
Cd268 O279 2.439 . S
O269 Cd268 2.240 1_554 S
O269 C274 1.279 . S
O270 Cd267 2.297 . S
O270 C272 1.247 . S
O271 Cd267 2.439 1_556 S
O271 C272 1.208 1_556 S
C272 O270 1.247 . S
C272 O271 1.208 1_554 S
C273 O278 1.247 . S
C273 O279 1.208 . S
C274 O266 1.315 . S
C274 O269 1.279 . S
C275 O276 1.315 . S
C275 O277 1.279 1_554 S
O276 Cd268 2.223 1_554 S
O276 C275 1.315 . S
O277 Cd267 2.240 1_556 S
O277 C275 1.279 1_556 S
O278 Cd268 2.297 . S
O278 C273 1.247 . S
O279 Cd268 2.439 . S
O279 C273 1.208 . S
O280 Cd281 2.223 . S
O280 C288 1.315 . S
Cd281 O280 2.223 . S
Cd281 O284 2.297 . S
Cd281 O285 2.439 . S
Cd281 O291 2.240 . S
Cd282 O283 2.251 . S
Cd282 O290 2.227 . S
Cd282 O292 2.285 1_554 S
Cd282 O293 2.427 1_554 S
O283 Cd282 2.251 . S
O283 C288 1.279 . S
O284 Cd281 2.297 . S
O284 C286 1.247 . S
O285 Cd281 2.439 . S
O285 C286 1.208 . S
C286 O284 1.247 . S
C286 O285 1.208 . S
C287 O292 1.247 . S
C287 O293 1.208 . S
C288 O280 1.315 . S
C288 O283 1.279 . S
C289 O290 1.315 . S
C289 O291 1.279 . S
O290 Cd282 2.227 . S
O290 C289 1.315 . S
O291 Cd281 2.240 . S
O291 C289 1.279 . S
O292 Cd282 2.285 1_556 S
O292 C287 1.247 . S
O293 Cd282 2.427 1_556 S
O293 C287 1.208 . S
O294 Cd295 2.223 . S
O294 C302 1.315 . S
Cd295 O294 2.223 . S
Cd295 O298 2.297 . S
Cd295 O299 2.439 . S
Cd295 O305 2.240 . S
Cd296 O297 2.240 . S
Cd296 O304 2.223 . S
Cd296 O306 2.297 . S
Cd296 O307 2.439 . S
O297 Cd296 2.240 . S
O297 C302 1.279 . S
O298 Cd295 2.297 . S
O298 C300 1.247 . S
O299 Cd295 2.439 . S
O299 C300 1.208 . S
C300 O298 1.247 . S
C300 O299 1.208 . S
C301 O306 1.247 . S
C301 O307 1.208 . S
C302 O294 1.315 . S
C302 O297 1.279 . S
C303 O304 1.315 . S
C303 O305 1.279 . S
O304 Cd296 2.223 . S
O304 C303 1.315 . S
O305 Cd295 2.240 . S
O305 C303 1.279 . S
O306 Cd296 2.297 . S
O306 C301 1.247 . S
O307 Cd296 2.439 . S
O307 C301 1.208 . S
O308 Cd309 2.223 . S
O308 C316 1.315 . S
Cd309 O308 2.223 . S
Cd309 O312 2.297 . S
Cd309 O313 2.439 . S
Cd309 O319 2.240 . S
Cd310 O311 2.240 . S
Cd310 O318 2.223 . S
Cd310 O320 2.297 . S
Cd310 O321 2.439 . S
O311 Cd310 2.240 . S
O311 C316 1.279 . S
O312 Cd309 2.297 . S
O312 C314 1.247 . S
O313 Cd309 2.439 . S
O313 C314 1.208 . S
C314 O312 1.247 . S
C314 O313 1.208 . S
C315 O320 1.247 . S
C315 O321 1.208 . S
C316 O308 1.315 . S
C316 O311 1.279 . S
C317 O318 1.315 . S
C317 O319 1.279 . S
O318 Cd310 2.223 . S
O318 C317 1.315 . S
O319 Cd309 2.240 . S
O319 C317 1.279 . S
O320 Cd310 2.297 . S
O320 C315 1.247 . S
O321 Cd310 2.439 . S
O321 C315 1.208 . S
O322 Cd323 2.223 . S
O322 C330 1.315 . S
Cd323 O322 2.223 . S
Cd323 O326 2.297 . S
Cd323 O327 2.439 . S
Cd323 O333 2.240 . S
Cd324 O325 2.240 . S
Cd324 O332 2.223 . S
Cd324 O334 2.297 . S
Cd324 O335 2.439 . S
O325 Cd324 2.240 . S
O325 C330 1.279 . S
O326 Cd323 2.297 . S
O326 C328 1.247 . S
O327 Cd323 2.439 . S
O327 C328 1.208 . S
C328 O326 1.247 . S
C328 O327 1.208 . S
C329 O334 1.247 . S
C329 O335 1.208 . S
C330 O322 1.315 . S
C330 O325 1.279 . S
C331 O332 1.315 . S
C331 O333 1.279 . S
O332 Cd324 2.223 . S
O332 C331 1.315 . S
O333 Cd323 2.240 . S
O333 C331 1.279 . S
O334 Cd324 2.297 . S
O334 C329 1.247 . S
O335 Cd324 2.439 . S
O335 C329 1.208 . S
O336 Zn337 1.953 . S
O336 C352 1.225 1_455 S
Zn337 O336 1.953 . S
Zn337 O338 1.939 1_545 S
Zn337 O344 1.919 . S
Zn337 O349 1.924 1_554 S
O338 Zn337 1.939 1_565 S
O338 Zn339 1.930 . S
O338 Zn340 1.948 1_465 S
O338 Zn341 1.951 1_455 S
Zn339 O338 1.930 . S
Zn339 O342 1.933 . S
Zn339 O345 1.941 . S
Zn339 O346 1.965 . S
Zn340 O338 1.948 1_645 S
Zn340 O347 1.945 1_655 S
Zn340 O348 1.906 1_545 S
Zn340 O358 1.953 . S
Zn341 O338 1.951 1_655 S
Zn341 O343 1.932 1_654 S
Zn341 O350 1.977 . S
Zn341 O351 1.908 1_564 S
O342 Zn339 1.933 . S
O342 C353 1.226 . S
O343 Zn341 1.932 1_456 S
O343 C353 1.307 1_556 S
O344 Zn337 1.919 . S
O344 C355 1.253 . S
O345 Zn339 1.941 . S
O345 C355 1.283 1_565 S
O346 Zn339 1.965 . S
O346 C354 1.303 . S
O347 Zn340 1.945 1_455 S
O347 C354 1.235 1_545 S
O348 Zn340 1.906 1_565 S
O348 C356 1.304 . S
O349 Zn337 1.924 1_556 S
O349 C357 1.311 1_455 S
O350 Zn341 1.977 . S
O350 C356 1.272 . S
O351 Zn341 1.908 1_546 S
O351 C357 1.231 . S
C352 O336 1.225 1_655 S
C352 O358 1.298 . S
C353 O342 1.226 . S
C353 O343 1.307 1_554 S
C354 O346 1.303 . S
C354 O347 1.235 1_565 S
C355 O344 1.253 . S
C355 O345 1.283 1_545 S
C356 O348 1.304 . S
C356 O350 1.272 . S
C357 O349 1.311 1_655 S
C357 O351 1.231 . S
O358 Zn340 1.953 . S
O358 C352 1.298 . S
O359 Zn360 1.953 . S
O359 C375 1.225 . S
Zn360 O359 1.953 . S
Zn360 O361 1.949 . S
Zn360 O367 1.919 . S
Zn360 O372 1.924 . S
O361 Zn360 1.949 . S
O361 Zn362 1.923 . S
O361 Zn363 1.950 . S
O361 Zn364 1.945 . S
Zn362 O361 1.923 . S
Zn362 O365 1.933 . S
Zn362 O368 1.941 . S
Zn362 O369 1.965 . S
Zn363 O361 1.950 . S
Zn363 O370 1.938 . S
Zn363 O371 1.906 . S
Zn363 O381 1.953 . S
Zn364 O361 1.945 . S
Zn364 O366 1.932 . S
Zn364 O373 1.977 . S
Zn364 O374 1.910 . S
O365 Zn362 1.933 . S
O365 C376 1.226 . S
O366 Zn364 1.932 . S
O366 C376 1.307 . S
O367 Zn360 1.919 . S
O367 C378 1.253 . S
O368 Zn362 1.941 . S
O368 C378 1.283 . S
O369 Zn362 1.965 . S
O369 C377 1.303 . S
O370 Zn363 1.938 . S
O370 C377 1.247 . S
O371 Zn363 1.906 . S
O371 C379 1.304 . S
O372 Zn360 1.924 . S
O372 C380 1.311 . S
O373 Zn364 1.977 . S
O373 C379 1.272 . S
O374 Zn364 1.910 . S
O374 C380 1.231 . S
C375 O359 1.225 . S
C375 O381 1.298 . S
C376 O365 1.226 . S
C376 O366 1.307 . S
C377 O369 1.303 . S
C377 O370 1.247 . S
C378 O367 1.253 . S
C378 O368 1.283 . S
C379 O371 1.304 . S
C379 O373 1.272 . S
C380 O372 1.311 . S
C380 O374 1.231 . S
O381 Zn363 1.953 . S
O381 C375 1.298 . S
O382 Zn383 1.953 . S
O382 C398 1.225 . S
Zn383 O382 1.953 . S
Zn383 O384 1.949 1_565 S
Zn383 O390 1.919 . S
Zn383 O395 1.924 . S
O384 Zn383 1.949 1_545 S
O384 Zn385 1.923 . S
O384 Zn386 1.950 . S
O384 Zn387 1.945 . S
Zn385 O384 1.923 . S
Zn385 O388 1.933 . S
Zn385 O391 1.941 . S
Zn385 O392 1.965 . S
Zn386 O384 1.950 . S
Zn386 O393 1.938 . S
Zn386 O394 1.906 . S
Zn386 O404 1.953 1_545 S
Zn387 O384 1.945 . S
Zn387 O389 1.932 . S
Zn387 O396 1.977 . S
Zn387 O397 1.910 . S
O388 Zn385 1.933 . S
O388 C399 1.226 . S
O389 Zn387 1.932 . S
O389 C399 1.307 . S
O390 Zn383 1.919 . S
O390 C401 1.253 1_565 S
O391 Zn385 1.941 . S
O391 C401 1.283 . S
O392 Zn385 1.965 . S
O392 C400 1.303 . S
O393 Zn386 1.938 . S
O393 C400 1.247 . S
O394 Zn386 1.906 . S
O394 C402 1.304 . S
O395 Zn383 1.924 . S
O395 C403 1.311 . S
O396 Zn387 1.977 . S
O396 C402 1.272 . S
O397 Zn387 1.910 . S
O397 C403 1.231 1_545 S
C398 O382 1.225 . S
C398 O404 1.298 . S
C399 O388 1.226 . S
C399 O389 1.307 . S
C400 O392 1.303 . S
C400 O393 1.247 . S
C401 O390 1.253 1_545 S
C401 O391 1.283 . S
C402 O394 1.304 . S
C402 O396 1.272 . S
C403 O395 1.311 . S
C403 O397 1.231 1_565 S
O404 Zn386 1.953 1_565 S
O404 C398 1.298 . S
O405 Zn406 1.953 . S
O405 C421 1.225 . S
Zn406 O405 1.953 . S
Zn406 O407 1.949 . S
Zn406 O413 1.919 . S
Zn406 O418 1.924 . S
O407 Zn406 1.949 . S
O407 Zn408 1.923 . S
O407 Zn409 1.950 . S
O407 Zn410 1.945 . S
Zn408 O407 1.923 . S
Zn408 O411 1.933 . S
Zn408 O414 1.941 . S
Zn408 O415 1.965 . S
Zn409 O407 1.950 . S
Zn409 O416 1.938 . S
Zn409 O417 1.906 . S
Zn409 O427 1.953 . S
Zn410 O407 1.945 . S
Zn410 O412 1.932 . S
Zn410 O419 1.977 . S
Zn410 O420 1.910 . S
O411 Zn408 1.933 . S
O411 C422 1.226 . S
O412 Zn410 1.932 . S
O412 C422 1.307 . S
O413 Zn406 1.919 . S
O413 C424 1.253 . S
O414 Zn408 1.941 . S
O414 C424 1.283 . S
O415 Zn408 1.965 . S
O415 C423 1.303 . S
O416 Zn409 1.938 . S
O416 C423 1.247 . S
O417 Zn409 1.906 . S
O417 C425 1.304 . S
O418 Zn406 1.924 . S
O418 C426 1.311 . S
O419 Zn410 1.977 . S
O419 C425 1.272 . S
O420 Zn410 1.910 . S
O420 C426 1.231 . S
C421 O405 1.225 . S
C421 O427 1.298 . S
C422 O411 1.226 . S
C422 O412 1.307 . S
C423 O415 1.303 . S
C423 O416 1.247 . S
C424 O413 1.253 . S
C424 O414 1.283 . S
C425 O417 1.304 . S
C425 O419 1.272 . S
C426 O418 1.311 . S
C426 O420 1.231 . S
O427 Zn409 1.953 . S
O427 C421 1.298 . S
O428 Zn429 1.953 1_445 S
O428 C444 1.225 . S
Zn429 O428 1.953 1_665 S
Zn429 O430 1.949 1_665 S
Zn429 O436 1.919 . S
Zn429 O441 1.924 1_565 S
O430 Zn429 1.949 1_445 S
O430 Zn431 1.923 1_545 S
O430 Zn432 1.950 . S
O430 Zn433 1.945 1_455 S
Zn431 O430 1.923 1_565 S
Zn431 O434 1.933 1_455 S
Zn431 O437 1.941 . S
Zn431 O438 1.965 . S
Zn432 O430 1.950 . S
Zn432 O439 1.938 . S
Zn432 O440 1.906 . S
Zn432 O450 1.953 . S
Zn433 O430 1.945 1_655 S
Zn433 O435 1.932 . S
Zn433 O442 1.977 . S
Zn433 O443 1.910 . S
O434 Zn431 1.933 1_655 S
O434 C445 1.226 . S
O435 Zn433 1.932 . S
O435 C445 1.307 1_545 S
O436 Zn429 1.919 . S
O436 C447 1.253 . S
O437 Zn431 1.941 . S
O437 C447 1.283 1_455 S
O438 Zn431 1.965 . S
O438 C446 1.303 . S
O439 Zn432 1.938 . S
O439 C446 1.247 1_545 S
O440 Zn432 1.906 . S
O440 C448 1.304 . S
O441 Zn429 1.924 1_545 S
O441 C449 1.311 . S
O442 Zn433 1.977 . S
O442 C448 1.272 1_655 S
O443 Zn433 1.910 . S
O443 C449 1.231 . S
C444 O428 1.225 . S
C444 O450 1.298 . S
C445 O434 1.226 . S
C445 O435 1.307 1_565 S
C446 O438 1.303 . S
C446 O439 1.247 1_565 S
C447 O436 1.253 . S
C447 O437 1.283 1_655 S
C448 O440 1.304 . S
C448 O442 1.272 1_455 S
C449 O441 1.311 . S
C449 O443 1.231 . S
O450 Zn432 1.953 . S
O450 C444 1.298 . S
O451 Zn452 1.953 . S
O451 C467 1.225 . S
Zn452 O451 1.953 . S
Zn452 O453 1.949 . S
Zn452 O459 1.919 . S
Zn452 O464 1.924 . S
O453 Zn452 1.949 . S
O453 Zn454 1.923 . S
O453 Zn455 1.950 . S
O453 Zn456 1.945 . S
Zn454 O453 1.923 . S
Zn454 O457 1.933 . S
Zn454 O460 1.941 . S
Zn454 O461 1.965 . S
Zn455 O453 1.950 . S
Zn455 O462 1.938 . S
Zn455 O463 1.906 . S
Zn455 O473 1.953 . S
Zn456 O453 1.945 . S
Zn456 O458 1.932 . S
Zn456 O465 1.977 . S
Zn456 O466 1.910 . S
O457 Zn454 1.933 . S
O457 C468 1.226 . S
O458 Zn456 1.932 . S
O458 C468 1.307 . S
O459 Zn452 1.919 . S
O459 C470 1.253 . S
O460 Zn454 1.941 . S
O460 C470 1.283 . S
O461 Zn454 1.965 . S
O461 C469 1.303 . S
O462 Zn455 1.938 . S
O462 C469 1.247 . S
O463 Zn455 1.906 . S
O463 C471 1.304 . S
O464 Zn452 1.924 . S
O464 C472 1.311 . S
O465 Zn456 1.977 . S
O465 C471 1.272 . S
O466 Zn456 1.910 . S
O466 C472 1.231 . S
C467 O451 1.225 . S
C467 O473 1.298 . S
C468 O457 1.226 . S
C468 O458 1.307 . S
C469 O461 1.303 . S
C469 O462 1.247 . S
C470 O459 1.253 . S
C470 O460 1.283 . S
C471 O463 1.304 . S
C471 O465 1.272 . S
C472 O464 1.311 . S
C472 O466 1.231 . S
O473 Zn455 1.953 . S
O473 C467 1.298 . S
O474 Zn475 1.953 . S
O474 C490 1.225 . S
Zn475 O474 1.953 . S
Zn475 O476 1.949 . S
Zn475 O482 1.919 . S
Zn475 O487 1.924 . S
O476 Zn475 1.949 . S
O476 Zn477 1.923 1_545 S
O476 Zn478 1.950 . S
O476 Zn479 1.945 . S
Zn477 O476 1.923 1_565 S
Zn477 O480 1.933 1_554 S
Zn477 O483 1.941 . S
Zn477 O484 1.965 . S
Zn478 O476 1.950 . S
Zn478 O485 1.938 1_545 S
Zn478 O486 1.906 . S
Zn478 O496 1.953 . S
Zn479 O476 1.945 . S
Zn479 O481 1.932 1_554 S
Zn479 O488 1.977 . S
Zn479 O489 1.911 . S
O480 Zn477 1.933 1_556 S
O480 C491 1.226 . S
O481 Zn479 1.932 1_556 S
O481 C491 1.307 1_545 S
O482 Zn475 1.919 . S
O482 C493 1.253 1_545 S
O483 Zn477 1.941 . S
O483 C493 1.283 . S
O484 Zn477 1.965 . S
O484 C492 1.303 . S
O485 Zn478 1.938 1_565 S
O485 C492 1.247 . S
O486 Zn478 1.906 . S
O486 C494 1.304 . S
O487 Zn475 1.924 . S
O487 C495 1.311 . S
O488 Zn479 1.977 . S
O488 C494 1.272 . S
O489 Zn479 1.911 . S
O489 C495 1.234 . S
C490 O474 1.225 . S
C490 O496 1.298 . S
C491 O480 1.226 . S
C491 O481 1.307 1_565 S
C492 O484 1.303 . S
C492 O485 1.247 . S
C493 O482 1.253 1_565 S
C493 O483 1.283 . S
C494 O486 1.304 . S
C494 O488 1.272 . S
C495 O487 1.311 . S
C495 O489 1.234 . S
O496 Zn478 1.953 . S
O496 C490 1.298 . S
O497 Zn498 1.953 . S
O497 C513 1.225 . S
Zn498 O497 1.953 . S
Zn498 O499 1.949 . S
Zn498 O505 1.919 . S
Zn498 O510 1.924 . S
O499 Zn498 1.949 . S
O499 Zn500 1.923 . S
O499 Zn501 1.950 . S
O499 Zn502 1.945 . S
Zn500 O499 1.923 . S
Zn500 O503 1.933 . S
Zn500 O506 1.941 . S
Zn500 O507 1.965 . S
Zn501 O499 1.950 . S
Zn501 O508 1.938 . S
Zn501 O509 1.906 . S
Zn501 O519 1.953 . S
Zn502 O499 1.945 . S
Zn502 O504 1.932 . S
Zn502 O511 1.977 . S
Zn502 O512 1.910 . S
O503 Zn500 1.933 . S
O503 C514 1.226 . S
O504 Zn502 1.932 . S
O504 C514 1.307 . S
O505 Zn498 1.919 . S
O505 C516 1.253 . S
O506 Zn500 1.941 . S
O506 C516 1.283 . S
O507 Zn500 1.965 . S
O507 C515 1.303 . S
O508 Zn501 1.938 . S
O508 C515 1.247 . S
O509 Zn501 1.906 . S
O509 C517 1.304 . S
O510 Zn498 1.924 . S
O510 C518 1.311 . S
O511 Zn502 1.977 . S
O511 C517 1.272 . S
O512 Zn502 1.910 . S
O512 C518 1.231 . S
C513 O497 1.225 . S
C513 O519 1.298 . S
C514 O503 1.226 . S
C514 O504 1.307 . S
C515 O507 1.303 . S
C515 O508 1.247 . S
C516 O505 1.253 . S
C516 O506 1.283 . S
C517 O509 1.304 . S
C517 O511 1.272 . S
C518 O510 1.311 . S
C518 O512 1.231 . S
O519 Zn501 1.953 . S
O519 C513 1.298 . S
O520 Zn521 1.953 1_556 S
O520 C536 1.225 . S
Zn521 O520 1.953 1_554 S
Zn521 O522 1.949 . S
Zn521 O528 1.919 . S
Zn521 O533 1.924 1_554 S
O522 Zn521 1.949 . S
O522 Zn523 1.923 . S
O522 Zn524 1.950 . S
O522 Zn525 1.945 . S
Zn523 O522 1.923 . S
Zn523 O526 1.933 . S
Zn523 O529 1.941 . S
Zn523 O530 1.965 . S
Zn524 O522 1.950 . S
Zn524 O531 1.938 . S
Zn524 O532 1.906 . S
Zn524 O542 1.953 1_554 S
Zn525 O522 1.945 . S
Zn525 O527 1.932 . S
Zn525 O534 1.977 . S
Zn525 O535 1.910 . S
O526 Zn523 1.933 . S
O526 C537 1.226 . S
O527 Zn525 1.932 . S
O527 C537 1.307 . S
O528 Zn521 1.919 . S
O528 C539 1.253 . S
O529 Zn523 1.941 . S
O529 C539 1.283 . S
O530 Zn523 1.965 . S
O530 C538 1.303 . S
O531 Zn524 1.938 . S
O531 C538 1.247 . S
O532 Zn524 1.906 . S
O532 C540 1.304 . S
O533 Zn521 1.924 1_556 S
O533 C541 1.311 1_556 S
O534 Zn525 1.977 . S
O534 C540 1.272 . S
O535 Zn525 1.910 . S
O535 C541 1.231 . S
C536 O520 1.225 . S
C536 O542 1.298 . S
C537 O526 1.226 . S
C537 O527 1.307 . S
C538 O530 1.303 . S
C538 O531 1.247 . S
C539 O528 1.253 . S
C539 O529 1.283 . S
C540 O532 1.304 . S
C540 O534 1.272 . S
C541 O533 1.311 1_554 S
C541 O535 1.231 . S
O542 Zn524 1.953 1_556 S
O542 C536 1.298 . S
O543 Zn544 1.953 . S
O543 C559 1.225 . S
Zn544 O543 1.953 . S
Zn544 O545 1.949 . S
Zn544 O551 1.919 . S
Zn544 O556 1.924 . S
O545 Zn544 1.949 . S
O545 Zn546 1.923 . S
O545 Zn547 1.950 . S
O545 Zn548 1.945 . S
Zn546 O545 1.923 . S
Zn546 O549 1.933 . S
Zn546 O552 1.941 . S
Zn546 O553 1.965 . S
Zn547 O545 1.950 . S
Zn547 O554 1.938 . S
Zn547 O555 1.906 . S
Zn547 O565 1.953 . S
Zn548 O545 1.945 . S
Zn548 O550 1.932 . S
Zn548 O557 1.977 . S
Zn548 O558 1.910 . S
O549 Zn546 1.933 . S
O549 C560 1.226 . S
O550 Zn548 1.932 . S
O550 C560 1.307 . S
O551 Zn544 1.919 . S
O551 C562 1.253 . S
O552 Zn546 1.941 . S
O552 C562 1.283 . S
O553 Zn546 1.965 . S
O553 C561 1.303 . S
O554 Zn547 1.938 . S
O554 C561 1.247 . S
O555 Zn547 1.906 . S
O555 C563 1.304 . S
O556 Zn544 1.924 . S
O556 C564 1.311 . S
O557 Zn548 1.977 . S
O557 C563 1.272 . S
O558 Zn548 1.910 . S
O558 C564 1.231 . S
C559 O543 1.225 . S
C559 O565 1.298 . S
C560 O549 1.226 . S
C560 O550 1.307 . S
C561 O553 1.303 . S
C561 O554 1.247 . S
C562 O551 1.253 . S
C562 O552 1.283 . S
C563 O555 1.304 . S
C563 O557 1.272 . S
C564 O556 1.311 . S
C564 O558 1.231 . S
O565 Zn547 1.953 . S
O565 C559 1.298 . S
O566 Zn567 1.953 . S
O566 C582 1.225 . S
Zn567 O566 1.953 . S
Zn567 O568 1.949 . S
Zn567 O574 1.919 . S
Zn567 O579 1.924 . S
O568 Zn567 1.949 . S
O568 Zn569 1.923 . S
O568 Zn570 1.950 1_455 S
O568 Zn571 1.945 1_455 S
Zn569 O568 1.923 . S
Zn569 O572 1.933 1_455 S
Zn569 O575 1.941 . S
Zn569 O576 1.965 1_455 S
Zn570 O568 1.950 1_655 S
Zn570 O577 1.938 . S
Zn570 O578 1.906 . S
Zn570 O588 1.953 1_655 S
Zn571 O568 1.945 1_655 S
Zn571 O573 1.932 . S
Zn571 O580 1.977 . S
Zn571 O581 1.910 1_655 S
O572 Zn569 1.933 1_655 S
O572 C583 1.226 . S
O573 Zn571 1.932 . S
O573 C583 1.307 . S
O574 Zn567 1.919 . S
O574 C585 1.253 . S
O575 Zn569 1.941 . S
O575 C585 1.283 . S
O576 Zn569 1.965 1_655 S
O576 C584 1.303 . S
O577 Zn570 1.938 . S
O577 C584 1.247 . S
O578 Zn570 1.906 . S
O578 C586 1.304 . S
O579 Zn567 1.924 . S
O579 C587 1.311 . S
O580 Zn571 1.977 . S
O580 C586 1.272 . S
O581 Zn571 1.910 1_455 S
O581 C587 1.231 . S
C582 O566 1.225 . S
C582 O588 1.298 . S
C583 O572 1.226 . S
C583 O573 1.307 . S
C584 O576 1.303 . S
C584 O577 1.247 . S
C585 O574 1.253 . S
C585 O575 1.283 . S
C586 O578 1.304 . S
C586 O580 1.272 . S
C587 O579 1.311 . S
C587 O581 1.231 . S
O588 Zn570 1.953 1_455 S
O588 C582 1.298 . S
O589 Zn590 1.953 . S
O589 C605 1.225 . S
Zn590 O589 1.953 . S
Zn590 O591 1.949 . S
Zn590 O597 1.919 . S
Zn590 O602 1.924 . S
O591 Zn590 1.949 . S
O591 Zn592 1.923 . S
O591 Zn593 1.950 . S
O591 Zn594 1.945 . S
Zn592 O591 1.923 . S
Zn592 O595 1.933 . S
Zn592 O598 1.941 . S
Zn592 O599 1.965 . S
Zn593 O591 1.950 . S
Zn593 O600 1.938 . S
Zn593 O601 1.906 . S
Zn593 O611 1.953 . S
Zn594 O591 1.945 . S
Zn594 O596 1.932 . S
Zn594 O603 1.977 . S
Zn594 O604 1.910 . S
O595 Zn592 1.933 . S
O595 C606 1.226 . S
O596 Zn594 1.932 . S
O596 C606 1.307 . S
O597 Zn590 1.919 . S
O597 C608 1.253 . S
O598 Zn592 1.941 . S
O598 C608 1.283 . S
O599 Zn592 1.965 . S
O599 C607 1.303 . S
O600 Zn593 1.938 . S
O600 C607 1.247 . S
O601 Zn593 1.906 . S
O601 C609 1.304 . S
O602 Zn590 1.924 . S
O602 C610 1.311 . S
O603 Zn594 1.977 . S
O603 C609 1.272 . S
O604 Zn594 1.910 . S
O604 C610 1.231 . S
C605 O589 1.225 . S
C605 O611 1.298 . S
C606 O595 1.226 . S
C606 O596 1.307 . S
C607 O599 1.303 . S
C607 O600 1.247 . S
C608 O597 1.253 . S
C608 O598 1.283 . S
C609 O601 1.304 . S
C609 O603 1.272 . S
C610 O602 1.311 . S
C610 O604 1.231 . S
O611 Zn593 1.953 . S
O611 C605 1.298 . S
O612 Zn613 1.953 . S
O612 C628 1.225 . S
Zn613 O612 1.953 . S
Zn613 O614 1.949 . S
Zn613 O620 1.919 . S
Zn613 O625 1.924 . S
O614 Zn613 1.949 . S
O614 Zn615 1.923 . S
O614 Zn616 1.950 . S
O614 Zn617 1.945 . S
Zn615 O614 1.923 . S
Zn615 O618 1.933 . S
Zn615 O621 1.941 . S
Zn615 O622 1.965 . S
Zn616 O614 1.950 . S
Zn616 O623 1.938 . S
Zn616 O624 1.906 . S
Zn616 O634 1.953 . S
Zn617 O614 1.945 . S
Zn617 O619 1.932 . S
Zn617 O626 1.977 . S
Zn617 O627 1.910 . S
O618 Zn615 1.933 . S
O618 C629 1.226 . S
O619 Zn617 1.932 . S
O619 C629 1.307 . S
O620 Zn613 1.919 . S
O620 C631 1.253 . S
O621 Zn615 1.941 . S
O621 C631 1.283 . S
O622 Zn615 1.965 . S
O622 C630 1.303 . S
O623 Zn616 1.938 . S
O623 C630 1.247 . S
O624 Zn616 1.906 . S
O624 C632 1.304 . S
O625 Zn613 1.924 . S
O625 C633 1.311 . S
O626 Zn617 1.977 . S
O626 C632 1.272 . S
O627 Zn617 1.910 . S
O627 C633 1.231 . S
C628 O612 1.225 . S
C628 O634 1.298 . S
C629 O618 1.226 . S
C629 O619 1.307 . S
C630 O622 1.303 . S
C630 O623 1.247 . S
C631 O620 1.253 . S
C631 O621 1.283 . S
C632 O624 1.304 . S
C632 O626 1.272 . S
C633 O625 1.311 . S
C633 O627 1.231 . S
O634 Zn616 1.953 . S
O634 C628 1.298 . S
O635 Zn636 1.953 . S
O635 C651 1.225 . S
Zn636 O635 1.953 . S
Zn636 O637 1.949 . S
Zn636 O643 1.919 . S
Zn636 O648 1.924 . S
O637 Zn636 1.949 . S
O637 Zn638 1.923 . S
O637 Zn639 1.950 . S
O637 Zn640 1.945 . S
Zn638 O637 1.923 . S
Zn638 O641 1.933 . S
Zn638 O644 1.941 . S
Zn638 O645 1.965 . S
Zn639 O637 1.950 . S
Zn639 O646 1.938 . S
Zn639 O647 1.906 . S
Zn639 O657 1.953 . S
Zn640 O637 1.945 . S
Zn640 O642 1.932 . S
Zn640 O649 1.977 . S
Zn640 O650 1.910 . S
O641 Zn638 1.933 . S
O641 C652 1.226 . S
O642 Zn640 1.932 . S
O642 C652 1.307 . S
O643 Zn636 1.919 . S
O643 C654 1.253 . S
O644 Zn638 1.941 . S
O644 C654 1.283 . S
O645 Zn638 1.965 . S
O645 C653 1.303 . S
O646 Zn639 1.938 . S
O646 C653 1.247 . S
O647 Zn639 1.906 . S
O647 C655 1.304 . S
O648 Zn636 1.924 . S
O648 C656 1.311 . S
O649 Zn640 1.977 . S
O649 C655 1.272 . S
O650 Zn640 1.910 . S
O650 C656 1.231 . S
C651 O635 1.225 . S
C651 O657 1.298 . S
C652 O641 1.226 . S
C652 O642 1.307 . S
C653 O645 1.303 . S
C653 O646 1.247 . S
C654 O643 1.253 . S
C654 O644 1.283 . S
C655 O647 1.304 . S
C655 O649 1.272 . S
C656 O648 1.311 . S
C656 O650 1.231 . S
O657 Zn639 1.953 . S
O657 C651 1.298 . S
O658 Zn659 1.953 . S
O658 C674 1.225 . S
Zn659 O658 1.953 . S
Zn659 O660 1.949 . S
Zn659 O666 1.919 . S
Zn659 O671 1.924 . S
O660 Zn659 1.949 . S
O660 Zn661 1.923 . S
O660 Zn662 1.950 . S
O660 Zn663 1.945 . S
Zn661 O660 1.923 . S
Zn661 O664 1.933 . S
Zn661 O667 1.941 . S
Zn661 O668 1.965 . S
Zn662 O660 1.950 . S
Zn662 O669 1.938 . S
Zn662 O670 1.906 . S
Zn662 O680 1.953 . S
Zn663 O660 1.945 . S
Zn663 O665 1.932 . S
Zn663 O672 1.977 . S
Zn663 O673 1.910 . S
O664 Zn661 1.933 . S
O664 C675 1.226 . S
O665 Zn663 1.932 . S
O665 C675 1.307 . S
O666 Zn659 1.919 . S
O666 C677 1.253 . S
O667 Zn661 1.941 . S
O667 C677 1.283 . S
O668 Zn661 1.965 . S
O668 C676 1.303 . S
O669 Zn662 1.938 . S
O669 C676 1.247 . S
O670 Zn662 1.906 . S
O670 C678 1.304 . S
O671 Zn659 1.924 . S
O671 C679 1.311 . S
O672 Zn663 1.977 . S
O672 C678 1.272 . S
O673 Zn663 1.910 . S
O673 C679 1.231 . S
C674 O658 1.225 . S
C674 O680 1.298 . S
C675 O664 1.226 . S
C675 O665 1.307 . S
C676 O668 1.303 . S
C676 O669 1.247 . S
C677 O666 1.253 . S
C677 O667 1.283 . S
C678 O670 1.304 . S
C678 O672 1.272 . S
C679 O671 1.311 . S
C679 O673 1.231 . S
O680 Zn662 1.953 . S
O680 C674 1.298 . S
O681 Zn682 1.953 1_455 S
O681 C697 1.225 . S
Zn682 O681 1.953 1_655 S
Zn682 O683 1.949 1_655 S
Zn682 O689 1.919 . S
Zn682 O694 1.924 1_654 S
O683 Zn682 1.949 1_455 S
O683 Zn684 1.923 1_455 S
O683 Zn685 1.950 . S
O683 Zn686 1.945 . S
Zn684 O683 1.923 1_655 S
Zn684 O687 1.933 . S
Zn684 O690 1.941 . S
Zn684 O691 1.965 . S
Zn685 O683 1.950 . S
Zn685 O692 1.938 . S
Zn685 O693 1.906 . S
Zn685 O703 1.953 . S
Zn686 O683 1.945 . S
Zn686 O688 1.932 1_554 S
Zn686 O695 1.977 . S
Zn686 O696 1.910 1_554 S
O687 Zn684 1.933 . S
O687 C698 1.226 . S
O688 Zn686 1.932 1_556 S
O688 C698 1.307 1_456 S
O689 Zn682 1.919 . S
O689 C700 1.253 . S
O690 Zn684 1.941 . S
O690 C700 1.283 . S
O691 Zn684 1.965 . S
O691 C699 1.303 . S
O692 Zn685 1.938 . S
O692 C699 1.247 1_455 S
O693 Zn685 1.906 . S
O693 C701 1.304 . S
O694 Zn682 1.924 1_456 S
O694 C702 1.311 . S
O695 Zn686 1.977 . S
O695 C701 1.272 . S
O696 Zn686 1.910 1_556 S
O696 C702 1.231 . S
C697 O681 1.225 . S
C697 O703 1.298 . S
C698 O687 1.226 . S
C698 O688 1.307 1_654 S
C699 O691 1.303 . S
C699 O692 1.247 1_655 S
C700 O689 1.253 . S
C700 O690 1.283 . S
C701 O693 1.304 . S
C701 O695 1.272 . S
C702 O694 1.311 . S
C702 O696 1.231 . S
O703 Zn685 1.953 . S
O703 C697 1.298 . S
H704 C710 0.930 . S
H705 C713 0.930 . S
H706 C714 0.930 . S
H707 C715 0.930 . S
H708 C718 0.930 . S
H709 C719 0.930 . S
C710 H704 0.930 . S
C710 C711 1.355 . S
C710 C712 1.415 . S
C711 C710 1.355 . S
C711 C713 1.419 1_455 S
C712 C710 1.415 . S
C712 C717 1.425 1_455 S
C712 C719 1.409 . S
C713 H705 0.930 . S
C713 C711 1.419 1_655 S
C713 C714 1.362 . S
C714 H706 0.930 . S
C714 C713 1.362 . S
C714 C717 1.409 . S
C715 H707 0.930 . S
C715 C716 1.355 . S
C715 C717 1.415 . S
C716 C715 1.355 . S
C716 C718 1.419 1_655 S
C717 C712 1.425 1_655 S
C717 C714 1.409 . S
C717 C715 1.415 . S
C718 H708 0.930 . S
C718 C716 1.419 1_455 S
C718 C719 1.362 . S
C719 H709 0.930 . S
C719 C712 1.409 . S
C719 C718 1.362 . S
H720 C726 0.930 . S
H721 C729 0.930 . S
H722 C730 0.930 . S
H723 C731 0.930 . S
H724 C734 0.930 . S
H725 C735 0.930 . S
C726 H720 0.930 . S
C726 C727 1.355 . S
C726 C728 1.415 . S
C727 C726 1.355 . S
C727 C729 1.419 . S
C728 C726 1.415 . S
C728 C733 1.425 . S
C728 C735 1.409 . S
C729 H721 0.930 . S
C729 C727 1.419 . S
C729 C730 1.362 . S
C730 H722 0.930 . S
C730 C729 1.362 . S
C730 C733 1.409 . S
C731 H723 0.930 . S
C731 C732 1.355 . S
C731 C733 1.415 . S
C732 C731 1.355 . S
C732 C734 1.419 . S
C733 C728 1.425 . S
C733 C730 1.409 . S
C733 C731 1.415 . S
C734 H724 0.930 . S
C734 C732 1.419 . S
C734 C735 1.362 . S
C735 H725 0.930 . S
C735 C728 1.409 . S
C735 C734 1.362 . S
H736 C742 0.930 . S
H737 C745 0.930 . S
H738 C746 0.930 . S
H739 C747 0.930 . S
H740 C750 0.930 . S
H741 C751 0.930 . S
C742 H736 0.930 . S
C742 C743 1.355 . S
C742 C744 1.415 . S
C743 C742 1.355 . S
C743 C745 1.419 . S
C744 C742 1.415 . S
C744 C749 1.425 . S
C744 C751 1.409 . S
C745 H737 0.930 . S
C745 C743 1.419 . S
C745 C746 1.362 . S
C746 H738 0.930 . S
C746 C745 1.362 . S
C746 C749 1.409 . S
C747 H739 0.930 . S
C747 C748 1.355 . S
C747 C749 1.415 . S
C748 C747 1.355 . S
C748 C750 1.419 . S
C749 C744 1.425 . S
C749 C746 1.409 . S
C749 C747 1.415 . S
C750 H740 0.930 . S
C750 C748 1.419 . S
C750 C751 1.362 . S
C751 H741 0.930 . S
C751 C744 1.409 . S
C751 C750 1.362 . S
H752 C758 0.930 . S
H753 C761 0.930 . S
H754 C762 0.930 . S
H755 C763 0.930 . S
H756 C766 0.930 . S
H757 C767 0.930 . S
C758 H752 0.930 . S
C758 C759 1.355 . S
C758 C760 1.415 . S
C759 C758 1.355 . S
C759 C761 1.419 . S
C760 C758 1.415 . S
C760 C765 1.425 . S
C760 C767 1.409 . S
C761 H753 0.930 . S
C761 C759 1.419 . S
C761 C762 1.362 . S
C762 H754 0.930 . S
C762 C761 1.362 . S
C762 C765 1.409 . S
C763 H755 0.930 . S
C763 C764 1.355 . S
C763 C765 1.415 . S
C764 C763 1.355 . S
C764 C766 1.419 . S
C765 C760 1.425 . S
C765 C762 1.409 . S
C765 C763 1.415 . S
C766 H756 0.930 . S
C766 C764 1.419 . S
C766 C767 1.362 . S
C767 H757 0.930 . S
C767 C760 1.409 . S
C767 C766 1.362 . S
H768 C774 0.930 . S
H769 C777 0.930 . S
H770 C778 0.930 . S
H771 C779 0.930 . S
H772 C782 0.930 . S
H773 C783 0.930 . S
C774 H768 0.930 . S
C774 C775 1.355 1_655 S
C774 C776 1.415 . S
C775 C774 1.355 1_455 S
C775 C777 1.419 . S
C776 C774 1.415 . S
C776 C781 1.425 1_655 S
C776 C783 1.409 . S
C777 H769 0.930 . S
C777 C775 1.419 . S
C777 C778 1.362 . S
C778 H770 0.930 . S
C778 C777 1.362 . S
C778 C781 1.409 . S
C779 H771 0.930 . S
C779 C780 1.355 1_455 S
C779 C781 1.415 . S
C780 C779 1.355 1_655 S
C780 C782 1.419 . S
C781 C776 1.425 1_455 S
C781 C778 1.409 . S
C781 C779 1.415 . S
C782 H772 0.930 . S
C782 C780 1.419 . S
C782 C783 1.362 . S
C783 H773 0.930 . S
C783 C776 1.409 . S
C783 C782 1.362 . S
H784 C790 0.930 . S
H785 C793 0.930 . S
H786 C794 0.930 . S
H787 C795 0.930 . S
H788 C798 0.930 . S
H789 C799 0.930 . S
C790 H784 0.930 . S
C790 C791 1.355 . S
C790 C792 1.415 . S
C791 C790 1.355 . S
C791 C793 1.419 . S
C792 C790 1.415 . S
C792 C797 1.425 . S
C792 C799 1.409 . S
C793 H785 0.930 . S
C793 C791 1.419 . S
C793 C794 1.362 . S
C794 H786 0.930 . S
C794 C793 1.362 . S
C794 C797 1.409 . S
C795 H787 0.930 . S
C795 C796 1.355 . S
C795 C797 1.415 . S
C796 C795 1.355 . S
C796 C798 1.419 . S
C797 C792 1.425 . S
C797 C794 1.409 . S
C797 C795 1.415 . S
C798 H788 0.930 . S
C798 C796 1.419 . S
C798 C799 1.362 . S
C799 H789 0.930 . S
C799 C792 1.409 . S
C799 C798 1.362 . S
H800 C806 0.930 . S
H801 C809 0.930 . S
H802 C810 0.930 . S
H803 C811 0.930 . S
H804 C814 0.930 . S
H805 C815 0.930 . S
C806 H800 0.930 . S
C806 C807 1.355 . S
C806 C808 1.415 . S
C807 C806 1.355 . S
C807 C809 1.419 . S
C808 C806 1.415 . S
C808 C813 1.425 . S
C808 C815 1.409 . S
C809 H801 0.930 . S
C809 C807 1.419 . S
C809 C810 1.362 . S
C810 H802 0.930 . S
C810 C809 1.362 . S
C810 C813 1.409 . S
C811 H803 0.930 . S
C811 C812 1.355 . S
C811 C813 1.415 1_554 S
C812 C811 1.355 . S
C812 C814 1.419 1_554 S
C813 C808 1.425 . S
C813 C810 1.409 . S
C813 C811 1.415 1_556 S
C814 H804 0.930 . S
C814 C812 1.419 1_556 S
C814 C815 1.362 . S
C815 H805 0.930 . S
C815 C808 1.409 . S
C815 C814 1.362 . S
H816 C822 0.930 . S
H817 C825 0.930 . S
H818 C826 0.930 . S
H819 C827 0.930 . S
H820 C830 0.930 . S
H821 C831 0.930 . S
C822 H816 0.930 . S
C822 C823 1.355 . S
C822 C824 1.415 . S
C823 C822 1.355 . S
C823 C825 1.419 . S
C824 C822 1.415 . S
C824 C829 1.425 . S
C824 C831 1.409 . S
C825 H817 0.930 . S
C825 C823 1.419 . S
C825 C826 1.362 . S
C826 H818 0.930 . S
C826 C825 1.362 . S
C826 C829 1.409 . S
C827 H819 0.930 . S
C827 C828 1.355 . S
C827 C829 1.415 . S
C828 C827 1.355 . S
C828 C830 1.419 . S
C829 C824 1.425 . S
C829 C826 1.409 . S
C829 C827 1.415 . S
C830 H820 0.930 . S
C830 C828 1.419 . S
C830 C831 1.362 . S
C831 H821 0.930 . S
C831 C824 1.409 . S
C831 C830 1.362 . S
H832 C838 0.930 . S
H833 C841 0.930 . S
H834 C842 0.930 . S
H835 C843 0.930 . S
H836 C846 0.930 . S
H837 C847 0.930 . S
C838 H832 0.930 . S
C838 C839 1.355 . S
C838 C840 1.415 . S
C839 C838 1.355 . S
C839 C841 1.419 . S
C840 C838 1.415 . S
C840 C845 1.425 . S
C840 C847 1.409 1_545 S
C841 H833 0.930 . S
C841 C839 1.419 . S
C841 C842 1.362 . S
C842 H834 0.930 . S
C842 C841 1.362 . S
C842 C845 1.409 . S
C843 H835 0.930 . S
C843 C844 1.355 1_545 S
C843 C845 1.415 . S
C844 C843 1.355 1_565 S
C844 C846 1.419 . S
C845 C840 1.425 . S
C845 C842 1.409 . S
C845 C843 1.415 . S
C846 H836 0.930 . S
C846 C844 1.419 . S
C846 C847 1.362 . S
C847 H837 0.930 . S
C847 C840 1.409 1_565 S
C847 C846 1.362 . S
H848 C854 0.930 . S
H849 C857 0.930 . S
H850 C858 0.930 . S
H851 C859 0.930 . S
H852 C862 0.930 . S
H853 C863 0.930 . S
C854 H848 0.930 . S
C854 C855 1.355 . S
C854 C856 1.415 . S
C855 C854 1.355 . S
C855 C857 1.419 . S
C856 C854 1.415 . S
C856 C861 1.425 . S
C856 C863 1.409 . S
C857 H849 0.930 . S
C857 C855 1.419 . S
C857 C858 1.362 . S
C858 H850 0.930 . S
C858 C857 1.362 . S
C858 C861 1.409 . S
C859 H851 0.930 . S
C859 C860 1.355 . S
C859 C861 1.415 . S
C860 C859 1.355 . S
C860 C862 1.419 . S
C861 C856 1.425 . S
C861 C858 1.409 . S
C861 C859 1.415 . S
C862 H852 0.930 . S
C862 C860 1.419 . S
C862 C863 1.362 . S
C863 H853 0.930 . S
C863 C856 1.409 . S
C863 C862 1.362 . S
H864 C870 0.914 1_565 S
H865 C873 0.930 . S
H866 C874 0.930 . S
H867 C875 0.930 . S
H868 C878 0.930 . S
H869 C879 0.930 1_565 S
C870 H864 0.914 1_545 S
C870 C871 1.361 . S
C870 C872 1.425 . S
C871 C870 1.361 . S
C871 C873 1.419 . S
C872 C870 1.425 . S
C872 C877 1.425 . S
C872 C879 1.409 . S
C873 H865 0.930 . S
C873 C871 1.419 . S
C873 C874 1.362 . S
C874 H866 0.930 . S
C874 C873 1.362 . S
C874 C877 1.409 . S
C875 H867 0.930 . S
C875 C876 1.355 . S
C875 C877 1.415 . S
C876 C875 1.355 . S
C876 C878 1.419 . S
C877 C872 1.425 . S
C877 C874 1.409 . S
C877 C875 1.415 . S
C878 H868 0.930 . S
C878 C876 1.419 . S
C878 C879 1.362 . S
C879 H869 0.930 1_545 S
C879 C872 1.409 . S
C879 C878 1.362 . S
H880 C886 0.930 . S
H881 C889 0.930 . S
H882 C890 0.930 . S
H883 C891 0.930 . S
H884 C894 0.930 . S
H885 C895 0.930 . S
C886 H880 0.930 . S
C886 C887 1.355 . S
C886 C888 1.415 . S
C887 C886 1.355 . S
C887 C889 1.419 . S
C888 C886 1.415 . S
C888 C893 1.425 . S
C888 C895 1.409 . S
C889 H881 0.930 . S
C889 C887 1.419 . S
C889 C890 1.362 . S
C890 H882 0.930 . S
C890 C889 1.362 . S
C890 C893 1.409 . S
C891 H883 0.930 . S
C891 C892 1.355 . S
C891 C893 1.415 . S
C892 C891 1.355 . S
C892 C894 1.419 . S
C893 C888 1.425 . S
C893 C890 1.409 . S
C893 C891 1.415 . S
C894 H884 0.930 . S
C894 C892 1.419 . S
C894 C895 1.362 . S
C895 H885 0.930 . S
C895 C888 1.409 . S
C895 C894 1.362 . S
H896 C902 0.930 . S
H897 C905 0.930 1_565 S
H898 C906 0.930 1_565 S
H899 C907 0.930 . S
H900 C910 0.930 . S
H901 C911 0.930 . S
C902 H896 0.930 . S
C902 C903 1.355 . S
C902 C904 1.415 . S
C903 C902 1.355 . S
C903 C905 1.419 . S
C904 C902 1.415 . S
C904 C909 1.425 . S
C904 C911 1.409 . S
C905 H897 0.930 1_545 S
C905 C903 1.419 . S
C905 C906 1.362 . S
C906 H898 0.930 1_545 S
C906 C905 1.362 . S
C906 C909 1.409 . S
C907 H899 0.930 . S
C907 C908 1.355 . S
C907 C909 1.415 . S
C908 C907 1.355 . S
C908 C910 1.419 . S
C909 C904 1.425 . S
C909 C906 1.409 . S
C909 C907 1.415 . S
C910 H900 0.930 . S
C910 C908 1.419 . S
C910 C911 1.362 . S
C911 H901 0.930 . S
C911 C904 1.409 . S
C911 C910 1.362 . S
H912 C918 0.930 . S
H913 C921 0.930 . S
H914 C922 0.930 . S
H915 C923 0.930 . S
H916 C926 0.930 . S
H917 C927 0.930 . S
C918 H912 0.930 . S
C918 C919 1.355 . S
C918 C920 1.415 . S
C919 C918 1.355 . S
C919 C921 1.419 . S
C920 C918 1.415 . S
C920 C925 1.425 . S
C920 C927 1.409 . S
C921 H913 0.930 . S
C921 C919 1.419 . S
C921 C922 1.362 . S
C922 H914 0.930 . S
C922 C921 1.362 . S
C922 C925 1.409 . S
C923 H915 0.930 . S
C923 C924 1.355 . S
C923 C925 1.415 . S
C924 C923 1.355 . S
C924 C926 1.419 . S
C925 C920 1.425 . S
C925 C922 1.409 . S
C925 C923 1.415 . S
C926 H916 0.930 . S
C926 C924 1.419 . S
C926 C927 1.362 . S
C927 H917 0.930 . S
C927 C920 1.409 . S
C927 C926 1.362 . S
H928 C934 0.930 . S
H929 C937 0.930 . S
H930 C938 0.930 . S
H931 C939 0.930 . S
H932 C942 0.930 . S
H933 C943 0.930 . S
C934 H928 0.930 . S
C934 C935 1.367 . S
C934 C936 1.415 . S
C935 C934 1.367 . S
C935 C937 1.409 1_565 S
C936 C934 1.415 . S
C936 C941 1.413 1_565 S
C936 C943 1.409 . S
C937 H929 0.930 . S
C937 C935 1.409 1_545 S
C937 C938 1.362 . S
C938 H930 0.930 . S
C938 C937 1.362 . S
C938 C941 1.423 . S
C939 H931 0.930 . S
C939 C940 1.355 1_545 S
C939 C941 1.414 . S
C940 C939 1.355 1_565 S
C940 C942 1.419 . S
C941 C936 1.413 1_545 S
C941 C938 1.423 . S
C941 C939 1.414 . S
C942 H932 0.930 . S
C942 C940 1.419 . S
C942 C943 1.362 . S
C943 H933 0.930 . S
C943 C936 1.409 . S
C943 C942 1.362 . S
H944 C950 0.930 . S
H945 C953 0.930 . S
H946 C954 0.930 . S
H947 C955 0.930 . S
H948 C958 0.930 . S
H949 C959 0.930 . S
C950 H944 0.930 . S
C950 C951 1.355 . S
C950 C952 1.415 . S
C951 C950 1.355 . S
C951 C953 1.419 . S
C952 C950 1.415 . S
C952 C957 1.425 . S
C952 C959 1.409 . S
C953 H945 0.930 . S
C953 C951 1.419 . S
C953 C954 1.362 . S
C954 H946 0.930 . S
C954 C953 1.362 . S
C954 C957 1.409 . S
C955 H947 0.930 . S
C955 C956 1.355 . S
C955 C957 1.415 . S
C956 C955 1.355 . S
C956 C958 1.419 . S
C957 C952 1.425 . S
C957 C954 1.409 . S
C957 C955 1.415 . S
C958 H948 0.930 . S
C958 C956 1.419 . S
C958 C959 1.362 . S
C959 H949 0.930 . S
C959 C952 1.409 . S
C959 C958 1.362 . S
H960 C966 0.930 . S
H961 C969 0.930 . S
H962 C970 0.930 . S
H963 C971 0.930 . S
H964 C974 0.930 1_565 S
H965 C975 0.930 . S
C966 H960 0.930 . S
C966 C967 1.355 . S
C966 C968 1.415 . S
C967 C966 1.355 . S
C967 C969 1.419 . S
C968 C966 1.415 . S
C968 C973 1.425 . S
C968 C975 1.409 . S
C969 H961 0.930 . S
C969 C967 1.419 . S
C969 C970 1.362 . S
C970 H962 0.930 . S
C970 C969 1.362 . S
C970 C973 1.409 . S
C971 H963 0.930 . S
C971 C972 1.355 . S
C971 C973 1.415 . S
C972 C971 1.355 . S
C972 C974 1.419 . S
C973 C968 1.425 . S
C973 C970 1.409 . S
C973 C971 1.415 . S
C974 H964 0.930 1_545 S
C974 C972 1.419 . S
C974 C975 1.362 . S
C975 H965 0.930 . S
C975 C968 1.409 . S
C975 C974 1.362 . S
H976 C982 0.930 . S
H977 C985 0.930 . S
H978 C986 0.930 . S
H979 C987 0.930 . S
H980 C990 0.930 . S
H981 C991 0.930 . S
C982 H976 0.930 . S
C982 C983 1.355 . S
C982 C984 1.415 . S
C983 C982 1.355 . S
C983 C985 1.419 . S
C984 C982 1.415 . S
C984 C989 1.425 . S
C984 C991 1.409 . S
C985 H977 0.930 . S
C985 C983 1.419 . S
C985 C986 1.362 . S
C986 H978 0.930 . S
C986 C985 1.362 . S
C986 C989 1.409 . S
C987 H979 0.930 . S
C987 C988 1.355 . S
C987 C989 1.415 . S
C988 C987 1.355 . S
C988 C990 1.419 . S
C989 C984 1.425 . S
C989 C986 1.409 . S
C989 C987 1.415 . S
C990 H980 0.930 . S
C990 C988 1.419 . S
C990 C991 1.362 . S
C991 H981 0.930 . S
C991 C984 1.409 . S
C991 C990 1.362 . S
H992 C998 0.930 . S
H993 C1001 0.930 . S
H994 C1002 0.930 . S
H995 C1003 0.930 . S
H996 C1006 0.930 . S
H997 C1007 0.930 . S
C998 H992 0.930 . S
C998 C999 1.355 . S
C998 C1000 1.415 . S
C999 C998 1.355 . S
C999 C1001 1.419 . S
C1000 C998 1.415 . S
C1000 C1005 1.425 . S
C1000 C1007 1.409 . S
C1001 H993 0.930 . S
C1001 C999 1.419 . S
C1001 C1002 1.362 . S
C1002 H994 0.930 . S
C1002 C1001 1.362 . S
C1002 C1005 1.409 . S
C1003 H995 0.930 . S
C1003 C1004 1.355 . S
C1003 C1005 1.415 . S
C1004 C1003 1.355 . S
C1004 C1006 1.419 . S
C1005 C1000 1.425 . S
C1005 C1002 1.409 . S
C1005 C1003 1.415 . S
C1006 H996 0.930 . S
C1006 C1004 1.419 . S
C1006 C1007 1.362 . S
C1007 H997 0.930 . S
C1007 C1000 1.409 . S
C1007 C1006 1.362 . S
H1008 C1014 0.930 . S
H1009 C1017 0.930 . S
H1010 C1018 0.930 . S
H1011 C1019 0.930 . S
H1012 C1022 0.930 . S
H1013 C1023 0.930 . S
C1014 H1008 0.930 . S
C1014 C1015 1.355 . S
C1014 C1016 1.415 . S
C1015 C1014 1.355 . S
C1015 C1017 1.419 . S
C1016 C1014 1.415 . S
C1016 C1021 1.425 . S
C1016 C1023 1.409 . S
C1017 H1009 0.930 . S
C1017 C1015 1.419 . S
C1017 C1018 1.362 . S
C1018 H1010 0.930 . S
C1018 C1017 1.362 . S
C1018 C1021 1.409 . S
C1019 H1011 0.930 . S
C1019 C1020 1.355 . S
C1019 C1021 1.415 . S
C1020 C1019 1.355 . S
C1020 C1022 1.419 . S
C1021 C1016 1.425 . S
C1021 C1018 1.409 . S
C1021 C1019 1.415 . S
C1022 H1012 0.930 . S
C1022 C1020 1.419 . S
C1022 C1023 1.362 . S
C1023 H1013 0.930 . S
C1023 C1016 1.409 . S
C1023 C1022 1.362 . S
H1024 C1030 0.930 . S
H1025 C1033 0.930 . S
H1026 C1034 0.930 . S
H1027 C1035 0.930 . S
H1028 C1038 0.930 . S
H1029 C1039 0.930 . S
C1030 H1024 0.930 . S
C1030 C1031 1.355 . S
C1030 C1032 1.415 . S
C1031 C1030 1.355 . S
C1031 C1033 1.419 . S
C1032 C1030 1.415 . S
C1032 C1037 1.425 . S
C1032 C1039 1.409 . S
C1033 H1025 0.930 . S
C1033 C1031 1.419 . S
C1033 C1034 1.362 . S
C1034 H1026 0.930 . S
C1034 C1033 1.362 . S
C1034 C1037 1.409 . S
C1035 H1027 0.930 . S
C1035 C1036 1.355 . S
C1035 C1037 1.415 . S
C1036 C1035 1.355 . S
C1036 C1038 1.419 . S
C1037 C1032 1.425 . S
C1037 C1034 1.409 . S
C1037 C1035 1.415 . S
C1038 H1028 0.930 . S
C1038 C1036 1.419 . S
C1038 C1039 1.362 . S
C1039 H1029 0.930 . S
C1039 C1032 1.409 . S
C1039 C1038 1.362 . S
H1040 C1046 0.930 . S
H1041 C1049 0.930 . S
H1042 C1050 0.930 . S
H1043 C1051 0.930 . S
H1044 C1054 0.930 . S
H1045 C1055 0.930 1_545 S
C1046 H1040 0.930 . S
C1046 C1047 1.355 . S
C1046 C1048 1.415 . S
C1047 C1046 1.355 . S
C1047 C1049 1.419 . S
C1048 C1046 1.415 . S
C1048 C1053 1.425 . S
C1048 C1055 1.409 . S
C1049 H1041 0.930 . S
C1049 C1047 1.419 . S
C1049 C1050 1.362 . S
C1050 H1042 0.930 . S
C1050 C1049 1.362 . S
C1050 C1053 1.409 . S
C1051 H1043 0.930 . S
C1051 C1052 1.355 . S
C1051 C1053 1.415 . S
C1052 C1051 1.355 . S
C1052 C1054 1.419 1_565 S
C1053 C1048 1.425 . S
C1053 C1050 1.409 . S
C1053 C1051 1.415 . S
C1054 H1044 0.930 . S
C1054 C1052 1.419 1_545 S
C1054 C1055 1.362 1_545 S
C1055 H1045 0.930 1_565 S
C1055 C1048 1.409 . S
C1055 C1054 1.362 1_565 S
H1056 C1062 0.930 . S
H1057 C1065 0.930 . S
H1058 C1066 0.930 . S
H1059 C1067 0.930 . S
H1060 C1070 0.930 . S
H1061 C1071 0.930 . S
C1062 H1056 0.930 . S
C1062 C1063 1.355 . S
C1062 C1064 1.415 . S
C1063 C1062 1.355 . S
C1063 C1065 1.419 . S
C1064 C1062 1.415 . S
C1064 C1069 1.425 . S
C1064 C1071 1.409 . S
C1065 H1057 0.930 . S
C1065 C1063 1.419 . S
C1065 C1066 1.362 . S
C1066 H1058 0.930 . S
C1066 C1065 1.362 . S
C1066 C1069 1.409 . S
C1067 H1059 0.930 . S
C1067 C1068 1.355 . S
C1067 C1069 1.415 . S
C1068 C1067 1.355 . S
C1068 C1070 1.419 . S
C1069 C1064 1.425 . S
C1069 C1066 1.409 . S
C1069 C1067 1.415 . S
C1070 H1060 0.930 . S
C1070 C1068 1.419 . S
C1070 C1071 1.362 . S
C1071 H1061 0.930 . S
C1071 C1064 1.409 . S
C1071 C1070 1.362 . S
H1072 C1078 0.930 . S
H1073 C1081 0.930 . S
H1074 C1082 0.930 . S
H1075 C1083 0.930 . S
H1076 C1086 0.930 . S
H1077 C1087 0.930 . S
C1078 H1072 0.930 . S
C1078 C1079 1.355 . S
C1078 C1080 1.415 . S
C1079 C1078 1.355 . S
C1079 C1081 1.419 . S
C1080 C1078 1.415 . S
C1080 C1085 1.425 . S
C1080 C1087 1.409 . S
C1081 H1073 0.930 . S
C1081 C1079 1.419 . S
C1081 C1082 1.362 . S
C1082 H1074 0.930 . S
C1082 C1081 1.362 . S
C1082 C1085 1.409 . S
C1083 H1075 0.930 . S
C1083 C1084 1.355 . S
C1083 C1085 1.415 . S
C1084 C1083 1.355 . S
C1084 C1086 1.419 . S
C1085 C1080 1.425 . S
C1085 C1082 1.409 . S
C1085 C1083 1.415 . S
C1086 H1076 0.930 . S
C1086 C1084 1.419 . S
C1086 C1087 1.362 . S
C1087 H1077 0.930 . S
C1087 C1080 1.409 . S
C1087 C1086 1.362 . S
H1088 C1094 0.930 . S
H1089 C1097 0.930 . S
H1090 C1098 0.930 . S
H1091 C1099 0.930 1_654 S
H1092 C1102 0.930 . S
H1093 C1103 0.930 . S
C1094 H1088 0.930 . S
C1094 C1095 1.355 . S
C1094 C1096 1.415 . S
C1095 C1094 1.355 . S
C1095 C1097 1.419 1_455 S
C1096 C1094 1.415 . S
C1096 C1101 1.425 . S
C1096 C1103 1.409 . S
C1097 H1089 0.930 . S
C1097 C1095 1.419 1_655 S
C1097 C1098 1.362 . S
C1098 H1090 0.930 . S
C1098 C1097 1.362 . S
C1098 C1101 1.409 1_655 S
C1099 H1091 0.930 1_456 S
C1099 C1100 1.355 . S
C1099 C1101 1.415 . S
C1100 C1099 1.355 . S
C1100 C1102 1.419 . S
C1101 C1096 1.425 . S
C1101 C1098 1.409 1_455 S
C1101 C1099 1.415 . S
C1102 H1092 0.930 . S
C1102 C1100 1.419 . S
C1102 C1103 1.362 . S
C1103 H1093 0.930 . S
C1103 C1096 1.409 . S
C1103 C1102 1.362 . S
H1104 C1110 0.930 . S
H1105 C1113 0.930 . S
H1106 C1114 0.930 . S
H1107 C1115 0.930 . S
H1108 C1118 0.930 . S
H1109 C1119 0.930 . S
C1110 H1104 0.930 . S
C1110 C1111 1.355 . S
C1110 C1112 1.415 . S
C1111 C1110 1.355 . S
C1111 C1113 1.419 . S
C1112 C1110 1.415 . S
C1112 C1117 1.425 . S
C1112 C1119 1.409 . S
C1113 H1105 0.930 . S
C1113 C1111 1.419 . S
C1113 C1114 1.362 . S
C1114 H1106 0.930 . S
C1114 C1113 1.362 . S
C1114 C1117 1.409 . S
C1115 H1107 0.930 . S
C1115 C1116 1.355 . S
C1115 C1117 1.415 . S
C1116 C1115 1.355 . S
C1116 C1118 1.419 . S
C1117 C1112 1.425 . S
C1117 C1114 1.409 . S
C1117 C1115 1.415 . S
C1118 H1108 0.930 . S
C1118 C1116 1.419 . S
C1118 C1119 1.362 . S
C1119 H1109 0.930 . S
C1119 C1112 1.409 . S
C1119 C1118 1.362 . S
H1120 C1126 0.930 . S
H1121 C1129 0.930 . S
H1122 C1130 0.930 . S
H1123 C1131 0.930 . S
H1124 C1134 0.930 . S
H1125 C1135 0.930 . S
C1126 H1120 0.930 . S
C1126 C1127 1.355 . S
C1126 C1128 1.415 . S
C1127 C1126 1.355 . S
C1127 C1129 1.419 . S
C1128 C1126 1.415 . S
C1128 C1133 1.425 . S
C1128 C1135 1.409 . S
C1129 H1121 0.930 . S
C1129 C1127 1.419 . S
C1129 C1130 1.362 . S
C1130 H1122 0.930 . S
C1130 C1129 1.362 . S
C1130 C1133 1.409 . S
C1131 H1123 0.930 . S
C1131 C1132 1.355 . S
C1131 C1133 1.415 . S
C1132 C1131 1.355 . S
C1132 C1134 1.419 . S
C1133 C1128 1.425 . S
C1133 C1130 1.409 . S
C1133 C1131 1.415 . S
C1134 H1124 0.930 . S
C1134 C1132 1.419 . S
C1134 C1135 1.362 . S
C1135 H1125 0.930 . S
C1135 C1128 1.409 . S
C1135 C1134 1.362 . S
H1136 C1142 0.930 . S
H1137 C1145 0.930 . S
H1138 C1146 0.930 . S
H1139 C1147 0.930 . S
H1140 C1150 0.930 . S
H1141 C1151 0.930 . S
C1142 H1136 0.930 . S
C1142 C1143 1.355 . S
C1142 C1144 1.415 . S
C1143 C1142 1.355 . S
C1143 C1145 1.419 . S
C1144 C1142 1.415 . S
C1144 C1149 1.425 . S
C1144 C1151 1.409 . S
C1145 H1137 0.930 . S
C1145 C1143 1.419 . S
C1145 C1146 1.362 . S
C1146 H1138 0.930 . S
C1146 C1145 1.362 . S
C1146 C1149 1.409 . S
C1147 H1139 0.930 . S
C1147 C1148 1.355 . S
C1147 C1149 1.415 . S
C1148 C1147 1.355 . S
C1148 C1150 1.419 . S
C1149 C1144 1.425 . S
C1149 C1146 1.409 . S
C1149 C1147 1.415 . S
C1150 H1140 0.930 . S
C1150 C1148 1.419 . S
C1150 C1151 1.362 . S
C1151 H1141 0.930 . S
C1151 C1144 1.409 . S
C1151 C1150 1.362 . S
H1152 C1158 0.930 . S
H1153 C1161 0.930 . S
H1154 C1162 0.930 . S
H1155 C1163 0.930 1_655 S
H1156 C1166 0.930 . S
H1157 C1167 0.930 . S
C1158 H1152 0.930 . S
C1158 C1159 1.355 . S
C1158 C1160 1.415 . S
C1159 C1158 1.355 . S
C1159 C1161 1.419 1_455 S
C1160 C1158 1.415 . S
C1160 C1165 1.425 . S
C1160 C1167 1.409 . S
C1161 H1153 0.930 . S
C1161 C1159 1.419 1_655 S
C1161 C1162 1.362 . S
C1162 H1154 0.930 . S
C1162 C1161 1.362 . S
C1162 C1165 1.409 1_655 S
C1163 H1155 0.930 1_455 S
C1163 C1164 1.355 . S
C1163 C1165 1.415 . S
C1164 C1163 1.355 . S
C1164 C1166 1.419 . S
C1165 C1160 1.425 . S
C1165 C1162 1.409 1_455 S
C1165 C1163 1.415 . S
C1166 H1156 0.930 . S
C1166 C1164 1.419 . S
C1166 C1167 1.362 . S
C1167 H1157 0.930 . S
C1167 C1160 1.409 . S
C1167 C1166 1.362 . S
H1168 C1174 0.930 . S
H1169 C1177 0.930 . S
H1170 C1178 0.930 . S
H1171 C1179 0.930 . S
H1172 C1182 0.930 . S
H1173 C1183 0.930 . S
C1174 H1168 0.930 . S
C1174 C1175 1.355 . S
C1174 C1176 1.415 . S
C1175 C1174 1.355 . S
C1175 C1177 1.419 . S
C1176 C1174 1.415 . S
C1176 C1181 1.425 . S
C1176 C1183 1.409 . S
C1177 H1169 0.930 . S
C1177 C1175 1.419 . S
C1177 C1178 1.362 . S
C1178 H1170 0.930 . S
C1178 C1177 1.362 . S
C1178 C1181 1.409 . S
C1179 H1171 0.930 . S
C1179 C1180 1.355 . S
C1179 C1181 1.415 . S
C1180 C1179 1.355 . S
C1180 C1182 1.419 . S
C1181 C1176 1.425 . S
C1181 C1178 1.409 . S
C1181 C1179 1.415 . S
C1182 H1172 0.930 . S
C1182 C1180 1.419 . S
C1182 C1183 1.362 . S
C1183 H1173 0.930 . S
C1183 C1176 1.409 . S
C1183 C1182 1.362 . S
H1184 C1190 0.930 . S
H1185 C1193 0.930 . S
H1186 C1194 0.930 . S
H1187 C1195 0.930 . S
H1188 C1198 0.930 . S
H1189 C1199 0.930 . S
C1190 H1184 0.930 . S
C1190 C1191 1.355 . S
C1190 C1192 1.415 . S
C1191 C1190 1.355 . S
C1191 C1193 1.419 . S
C1192 C1190 1.415 . S
C1192 C1197 1.425 . S
C1192 C1199 1.409 . S
C1193 H1185 0.930 . S
C1193 C1191 1.419 . S
C1193 C1194 1.362 . S
C1194 H1186 0.930 . S
C1194 C1193 1.362 . S
C1194 C1197 1.409 . S
C1195 H1187 0.930 . S
C1195 C1196 1.355 . S
C1195 C1197 1.415 . S
C1196 C1195 1.355 . S
C1196 C1198 1.419 . S
C1197 C1192 1.425 . S
C1197 C1194 1.409 . S
C1197 C1195 1.415 . S
C1198 H1188 0.930 . S
C1198 C1196 1.419 . S
C1198 C1199 1.362 . S
C1199 H1189 0.930 . S
C1199 C1192 1.409 . S
C1199 C1198 1.362 . S
H1200 C1206 0.930 . S
H1201 C1209 0.930 . S
H1202 C1210 0.930 . S
H1203 C1211 0.930 . S
H1204 C1214 0.930 . S
H1205 C1215 0.930 . S
C1206 H1200 0.930 . S
C1206 C1207 1.355 . S
C1206 C1208 1.415 . S
C1207 C1206 1.355 . S
C1207 C1209 1.419 . S
C1208 C1206 1.415 . S
C1208 C1213 1.425 . S
C1208 C1215 1.409 . S
C1209 H1201 0.930 . S
C1209 C1207 1.419 . S
C1209 C1210 1.362 . S
C1210 H1202 0.930 . S
C1210 C1209 1.362 . S
C1210 C1213 1.409 . S
C1211 H1203 0.930 . S
C1211 C1212 1.355 . S
C1211 C1213 1.415 . S
C1212 C1211 1.355 . S
C1212 C1214 1.419 . S
C1213 C1208 1.425 . S
C1213 C1210 1.409 . S
C1213 C1211 1.415 . S
C1214 H1204 0.930 . S
C1214 C1212 1.419 . S
C1214 C1215 1.362 . S
C1215 H1205 0.930 . S
C1215 C1208 1.409 . S
C1215 C1214 1.362 . S
H1216 C1222 0.930 1_565 S
H1217 C1225 0.930 . S
H1218 C1226 0.930 . S
H1219 C1227 0.930 . S
H1220 C1230 0.930 . S
H1221 C1231 0.930 1_565 S
C1222 H1216 0.930 1_545 S
C1222 C1223 1.355 . S
C1222 C1224 1.415 . S
C1223 C1222 1.355 . S
C1223 C1225 1.419 . S
C1224 C1222 1.415 . S
C1224 C1229 1.425 . S
C1224 C1231 1.409 . S
C1225 H1217 0.930 . S
C1225 C1223 1.419 . S
C1225 C1226 1.362 . S
C1226 H1218 0.930 . S
C1226 C1225 1.362 . S
C1226 C1229 1.409 . S
C1227 H1219 0.930 . S
C1227 C1228 1.355 . S
C1227 C1229 1.415 . S
C1228 C1227 1.355 . S
C1228 C1230 1.419 . S
C1229 C1224 1.425 . S
C1229 C1226 1.409 . S
C1229 C1227 1.415 . S
C1230 H1220 0.930 . S
C1230 C1228 1.419 . S
C1230 C1231 1.362 . S
C1231 H1221 0.930 1_545 S
C1231 C1224 1.409 . S
C1231 C1230 1.362 . S
H1232 C1238 0.930 . S
H1233 C1241 0.930 . S
H1234 C1242 0.930 . S
H1235 C1243 0.930 . S
H1236 C1246 0.930 . S
H1237 C1247 0.930 . S
C1238 H1232 0.930 . S
C1238 C1239 1.355 . S
C1238 C1240 1.415 . S
C1239 C1238 1.355 . S
C1239 C1241 1.419 . S
C1240 C1238 1.415 . S
C1240 C1245 1.425 . S
C1240 C1247 1.409 . S
C1241 H1233 0.930 . S
C1241 C1239 1.419 . S
C1241 C1242 1.362 . S
C1242 H1234 0.930 . S
C1242 C1241 1.362 . S
C1242 C1245 1.409 . S
C1243 H1235 0.930 . S
C1243 C1244 1.355 . S
C1243 C1245 1.415 . S
C1244 C1243 1.355 . S
C1244 C1246 1.419 . S
C1245 C1240 1.425 . S
C1245 C1242 1.409 . S
C1245 C1243 1.415 . S
C1246 H1236 0.930 . S
C1246 C1244 1.419 . S
C1246 C1247 1.362 . S
C1247 H1237 0.930 . S
C1247 C1240 1.409 . S
C1247 C1246 1.362 . S
H1248 C1254 0.930 . S
H1249 C1257 0.930 . S
H1250 C1258 0.930 . S
H1251 C1259 0.930 . S
H1252 C1262 0.930 . S
H1253 C1263 0.930 . S
C1254 H1248 0.930 . S
C1254 C1255 1.355 . S
C1254 C1256 1.415 . S
C1255 C1254 1.355 . S
C1255 C1257 1.419 1_545 S
C1256 C1254 1.415 . S
C1256 C1261 1.425 1_545 S
C1256 C1263 1.409 . S
C1257 H1249 0.930 . S
C1257 C1255 1.419 1_565 S
C1257 C1258 1.362 . S
C1258 H1250 0.930 . S
C1258 C1257 1.362 . S
C1258 C1261 1.409 . S
C1259 H1251 0.930 . S
C1259 C1260 1.355 . S
C1259 C1261 1.415 . S
C1260 C1259 1.355 . S
C1260 C1262 1.419 1_565 S
C1261 C1256 1.425 1_565 S
C1261 C1258 1.409 . S
C1261 C1259 1.415 . S
C1262 H1252 0.930 . S
C1262 C1260 1.419 1_545 S
C1262 C1263 1.362 . S
C1263 H1253 0.930 . S
C1263 C1256 1.409 . S
C1263 C1262 1.362 . S
H1264 C1270 0.930 . S
H1265 C1273 0.930 . S
H1266 C1274 0.930 . S
H1267 C1275 0.930 . S
H1268 C1278 0.930 . S
H1269 C1279 0.930 . S
C1270 H1264 0.930 . S
C1270 C1271 1.355 . S
C1270 C1272 1.415 . S
C1271 C1270 1.355 . S
C1271 C1273 1.419 . S
C1272 C1270 1.415 . S
C1272 C1277 1.425 . S
C1272 C1279 1.409 . S
C1273 H1265 0.930 . S
C1273 C1271 1.419 . S
C1273 C1274 1.362 . S
C1274 H1266 0.930 . S
C1274 C1273 1.362 . S
C1274 C1277 1.409 . S
C1275 H1267 0.930 . S
C1275 C1276 1.355 . S
C1275 C1277 1.415 . S
C1276 C1275 1.355 . S
C1276 C1278 1.419 . S
C1277 C1272 1.425 . S
C1277 C1274 1.409 . S
C1277 C1275 1.415 . S
C1278 H1268 0.930 . S
C1278 C1276 1.419 . S
C1278 C1279 1.362 . S
C1279 H1269 0.930 . S
C1279 C1272 1.409 . S
C1279 C1278 1.362 . S
H1280 C1286 0.930 . S
H1281 C1289 0.930 . S
H1282 C1290 0.930 . S
H1283 C1291 0.930 . S
H1284 C1294 0.930 . S
H1285 C1295 0.930 . S
C1286 H1280 0.930 . S
C1286 C1287 1.355 1_565 S
C1286 C1288 1.415 . S
C1287 C1286 1.355 1_545 S
C1287 C1289 1.419 . S
C1288 C1286 1.415 . S
C1288 C1293 1.425 1_565 S
C1288 C1295 1.409 . S
C1289 H1281 0.930 . S
C1289 C1287 1.419 . S
C1289 C1290 1.362 . S
C1290 H1282 0.930 . S
C1290 C1289 1.362 . S
C1290 C1293 1.409 . S
C1291 H1283 0.930 . S
C1291 C1292 1.355 1_545 S
C1291 C1293 1.415 . S
C1292 C1291 1.355 1_565 S
C1292 C1294 1.419 . S
C1293 C1288 1.425 1_545 S
C1293 C1290 1.409 . S
C1293 C1291 1.415 . S
C1294 H1284 0.930 . S
C1294 C1292 1.419 . S
C1294 C1295 1.362 . S
C1295 H1285 0.930 . S
C1295 C1288 1.409 . S
C1295 C1294 1.362 . S
H1296 C1302 0.930 . S
H1297 C1305 0.930 . S
H1298 C1306 0.930 . S
H1299 C1307 0.930 . S
H1300 C1310 0.930 . S
H1301 C1311 0.930 . S
C1302 H1296 0.930 . S
C1302 C1303 1.355 . S
C1302 C1304 1.415 . S
C1303 C1302 1.355 . S
C1303 C1305 1.419 . S
C1304 C1302 1.415 . S
C1304 C1309 1.425 . S
C1304 C1311 1.409 . S
C1305 H1297 0.930 . S
C1305 C1303 1.419 . S
C1305 C1306 1.362 . S
C1306 H1298 0.930 . S
C1306 C1305 1.362 . S
C1306 C1309 1.409 . S
C1307 H1299 0.930 . S
C1307 C1308 1.355 . S
C1307 C1309 1.415 . S
C1308 C1307 1.355 . S
C1308 C1310 1.419 . S
C1309 C1304 1.425 . S
C1309 C1306 1.409 . S
C1309 C1307 1.415 . S
C1310 H1300 0.930 . S
C1310 C1308 1.419 . S
C1310 C1311 1.362 . S
C1311 H1301 0.930 . S
C1311 C1304 1.409 . S
C1311 C1310 1.362 . S
H1312 C1318 0.930 . S
H1313 C1321 0.930 . S
H1314 C1322 0.930 . S
H1315 C1323 0.930 . S
H1316 C1326 0.930 . S
H1317 C1327 0.930 . S
C1318 H1312 0.930 . S
C1318 C1319 1.355 . S
C1318 C1320 1.415 . S
C1319 C1318 1.355 . S
C1319 C1321 1.419 . S
C1320 C1318 1.415 . S
C1320 C1325 1.425 . S
C1320 C1327 1.409 . S
C1321 H1313 0.930 . S
C1321 C1319 1.419 . S
C1321 C1322 1.362 . S
C1322 H1314 0.930 . S
C1322 C1321 1.362 . S
C1322 C1325 1.409 . S
C1323 H1315 0.930 . S
C1323 C1324 1.355 . S
C1323 C1325 1.415 . S
C1324 C1323 1.355 . S
C1324 C1326 1.419 . S
C1325 C1320 1.425 . S
C1325 C1322 1.409 . S
C1325 C1323 1.415 . S
C1326 H1316 0.930 . S
C1326 C1324 1.419 . S
C1326 C1327 1.362 . S
C1327 H1317 0.930 . S
C1327 C1320 1.409 . S
C1327 C1326 1.362 . S
H1328 C1334 0.930 . S
H1329 C1337 0.930 . S
H1330 C1338 0.930 . S
H1331 C1339 0.930 . S
H1332 C1342 0.930 . S
H1333 C1343 0.930 . S
C1334 H1328 0.930 . S
C1334 C1335 1.355 . S
C1334 C1336 1.415 . S
C1335 C1334 1.355 . S
C1335 C1337 1.419 . S
C1336 C1334 1.415 . S
C1336 C1341 1.425 . S
C1336 C1343 1.409 . S
C1337 H1329 0.930 . S
C1337 C1335 1.419 . S
C1337 C1338 1.362 . S
C1338 H1330 0.930 . S
C1338 C1337 1.362 . S
C1338 C1341 1.409 . S
C1339 H1331 0.930 . S
C1339 C1340 1.355 . S
C1339 C1341 1.415 . S
C1340 C1339 1.355 . S
C1340 C1342 1.419 . S
C1341 C1336 1.425 . S
C1341 C1338 1.409 . S
C1341 C1339 1.415 . S
C1342 H1332 0.930 . S
C1342 C1340 1.419 . S
C1342 C1343 1.362 . S
C1343 H1333 0.930 . S
C1343 C1336 1.409 . S
C1343 C1342 1.362 . S
H1344 C1350 0.930 1_556 S
H1345 C1353 0.930 . S
H1346 C1354 0.930 . S
H1347 C1355 0.930 . S
H1348 C1358 0.930 . S
H1349 C1359 0.930 . S
C1350 H1344 0.930 1_554 S
C1350 C1351 1.355 . S
C1350 C1352 1.415 . S
C1351 C1350 1.355 . S
C1351 C1353 1.419 . S
C1352 C1350 1.415 . S
C1352 C1357 1.425 . S
C1352 C1359 1.409 . S
C1353 H1345 0.930 . S
C1353 C1351 1.419 . S
C1353 C1354 1.362 . S
C1354 H1346 0.930 . S
C1354 C1353 1.362 . S
C1354 C1357 1.409 . S
C1355 H1347 0.930 . S
C1355 C1356 1.355 . S
C1355 C1357 1.415 . S
C1356 C1355 1.355 . S
C1356 C1358 1.419 . S
C1357 C1352 1.425 . S
C1357 C1354 1.409 . S
C1357 C1355 1.415 . S
C1358 H1348 0.930 . S
C1358 C1356 1.419 . S
C1358 C1359 1.362 . S
C1359 H1349 0.930 . S
C1359 C1352 1.409 . S
C1359 C1358 1.362 . S
H1360 C1366 0.930 . S
H1361 C1369 0.930 . S
H1362 C1370 0.930 . S
H1363 C1371 0.930 . S
H1364 C1374 0.930 . S
H1365 C1375 0.930 . S
C1366 H1360 0.930 . S
C1366 C1367 1.355 . S
C1366 C1368 1.415 . S
C1367 C1366 1.355 . S
C1367 C1369 1.419 . S
C1368 C1366 1.415 . S
C1368 C1373 1.425 . S
C1368 C1375 1.409 1_554 S
C1369 H1361 0.930 . S
C1369 C1367 1.419 . S
C1369 C1370 1.362 . S
C1370 H1362 0.930 . S
C1370 C1369 1.362 . S
C1370 C1373 1.409 . S
C1371 H1363 0.930 . S
C1371 C1372 1.368 . S
C1371 C1373 1.415 . S
C1372 C1371 1.368 . S
C1372 C1374 1.409 1_554 S
C1373 C1368 1.425 . S
C1373 C1370 1.409 . S
C1373 C1371 1.415 . S
C1374 H1364 0.930 . S
C1374 C1372 1.409 1_556 S
C1374 C1375 1.362 . S
C1375 H1365 0.930 . S
C1375 C1368 1.409 1_556 S
C1375 C1374 1.362 . S
H1376 C1382 0.930 . S
H1377 C1385 0.930 . S
H1378 C1386 0.930 . S
H1379 C1387 0.930 . S
H1380 C1390 0.930 . S
H1381 C1391 0.930 . S
C1382 H1376 0.930 . S
C1382 C1383 1.355 . S
C1382 C1384 1.415 . S
C1383 C1382 1.355 . S
C1383 C1385 1.419 . S
C1384 C1382 1.415 . S
C1384 C1389 1.425 . S
C1384 C1391 1.409 . S
C1385 H1377 0.930 . S
C1385 C1383 1.419 . S
C1385 C1386 1.362 . S
C1386 H1378 0.930 . S
C1386 C1385 1.362 . S
C1386 C1389 1.409 . S
C1387 H1379 0.930 . S
C1387 C1388 1.355 . S
C1387 C1389 1.415 . S
C1388 C1387 1.355 . S
C1388 C1390 1.419 . S
C1389 C1384 1.425 . S
C1389 C1386 1.409 . S
C1389 C1387 1.415 . S
C1390 H1380 0.930 . S
C1390 C1388 1.419 . S
C1390 C1391 1.362 . S
C1391 H1381 0.930 . S
C1391 C1384 1.409 . S
C1391 C1390 1.362 . S
H1392 C1398 0.930 . S
H1393 C1401 0.930 . S
H1394 C1402 0.930 . S
H1395 C1403 0.930 . S
H1396 C1406 0.930 . S
H1397 C1407 0.930 . S
C1398 H1392 0.930 . S
C1398 C1399 1.355 . S
C1398 C1400 1.415 . S
C1399 C1398 1.355 . S
C1399 C1401 1.419 . S
C1400 C1398 1.415 . S
C1400 C1405 1.425 . S
C1400 C1407 1.409 . S
C1401 H1393 0.930 . S
C1401 C1399 1.419 . S
C1401 C1402 1.362 . S
C1402 H1394 0.930 . S
C1402 C1401 1.362 . S
C1402 C1405 1.409 . S
C1403 H1395 0.930 . S
C1403 C1404 1.355 . S
C1403 C1405 1.415 . S
C1404 C1403 1.355 . S
C1404 C1406 1.419 . S
C1405 C1400 1.425 . S
C1405 C1402 1.409 . S
C1405 C1403 1.415 . S
C1406 H1396 0.930 . S
C1406 C1404 1.419 . S
C1406 C1407 1.362 . S
C1407 H1397 0.930 . S
C1407 C1400 1.409 . S
C1407 C1406 1.362 . S
H1408 C1414 0.930 . S
H1409 C1417 0.930 . S
H1410 C1418 0.930 . S
H1411 C1419 0.930 . S
H1412 C1422 0.930 . S
H1413 C1423 0.930 . S
C1414 H1408 0.930 . S
C1414 C1415 1.355 . S
C1414 C1416 1.415 . S
C1415 C1414 1.355 . S
C1415 C1417 1.419 . S
C1416 C1414 1.415 . S
C1416 C1421 1.425 . S
C1416 C1423 1.409 . S
C1417 H1409 0.930 . S
C1417 C1415 1.419 . S
C1417 C1418 1.362 . S
C1418 H1410 0.930 . S
C1418 C1417 1.362 . S
C1418 C1421 1.409 . S
C1419 H1411 0.930 . S
C1419 C1420 1.355 . S
C1419 C1421 1.415 . S
C1420 C1419 1.355 . S
C1420 C1422 1.419 . S
C1421 C1416 1.425 . S
C1421 C1418 1.409 . S
C1421 C1419 1.415 . S
C1422 H1412 0.930 . S
C1422 C1420 1.419 . S
C1422 C1423 1.362 . S
C1423 H1413 0.930 . S
C1423 C1416 1.409 . S
C1423 C1422 1.362 . S
H1424 C1430 0.930 . S
H1425 C1433 0.930 . S
H1426 C1434 0.930 . S
H1427 C1435 0.930 . S
H1428 C1438 0.930 . S
H1429 C1439 0.930 . S
C1430 H1424 0.930 . S
C1430 C1431 1.355 . S
C1430 C1432 1.415 . S
C1431 C1430 1.355 . S
C1431 C1433 1.419 . S
C1432 C1430 1.415 . S
C1432 C1437 1.425 . S
C1432 C1439 1.409 . S
C1433 H1425 0.930 . S
C1433 C1431 1.419 . S
C1433 C1434 1.362 . S
C1434 H1426 0.930 . S
C1434 C1433 1.362 . S
C1434 C1437 1.409 . S
C1435 H1427 0.930 . S
C1435 C1436 1.355 . S
C1435 C1437 1.415 . S
C1436 C1435 1.355 . S
C1436 C1438 1.419 . S
C1437 C1432 1.425 . S
C1437 C1434 1.409 . S
C1437 C1435 1.415 . S
C1438 H1428 0.930 . S
C1438 C1436 1.419 . S
C1438 C1439 1.362 . S
C1439 H1429 0.930 . S
C1439 C1432 1.409 . S
C1439 C1438 1.362 . S
H1440 C1446 0.930 . S
H1441 C1449 0.930 . S
H1442 C1450 0.930 . S
H1443 C1451 0.930 . S
H1444 C1454 0.930 . S
H1445 C1455 0.930 . S
C1446 H1440 0.930 . S
C1446 C1447 1.355 . S
C1446 C1448 1.415 . S
C1447 C1446 1.355 . S
C1447 C1449 1.419 . S
C1448 C1446 1.415 . S
C1448 C1453 1.425 . S
C1448 C1455 1.409 . S
C1449 H1441 0.930 . S
C1449 C1447 1.419 . S
C1449 C1450 1.362 . S
C1450 H1442 0.930 . S
C1450 C1449 1.362 . S
C1450 C1453 1.409 . S
C1451 H1443 0.930 . S
C1451 C1452 1.355 . S
C1451 C1453 1.415 . S
C1452 C1451 1.355 . S
C1452 C1454 1.419 . S
C1453 C1448 1.425 . S
C1453 C1450 1.409 . S
C1453 C1451 1.415 . S
C1454 H1444 0.930 . S
C1454 C1452 1.419 . S
C1454 C1455 1.362 . S
C1455 H1445 0.930 . S
C1455 C1448 1.409 . S
C1455 C1454 1.362 . S
H1456 C1462 0.930 . S
H1457 C1465 0.930 . S
H1458 C1466 0.930 . S
H1459 C1467 0.930 . S
H1460 C1470 0.930 . S
H1461 C1471 0.930 . S
C1462 H1456 0.930 . S
C1462 C1463 1.355 . S
C1462 C1464 1.415 . S
C1463 C1462 1.355 . S
C1463 C1465 1.419 . S
C1464 C1462 1.415 . S
C1464 C1469 1.425 . S
C1464 C1471 1.409 . S
C1465 H1457 0.930 . S
C1465 C1463 1.419 . S
C1465 C1466 1.362 . S
C1466 H1458 0.930 . S
C1466 C1465 1.362 . S
C1466 C1469 1.409 . S
C1467 H1459 0.930 . S
C1467 C1468 1.355 . S
C1467 C1469 1.415 . S
C1468 C1467 1.355 . S
C1468 C1470 1.419 . S
C1469 C1464 1.425 . S
C1469 C1466 1.409 . S
C1469 C1467 1.415 . S
C1470 H1460 0.930 . S
C1470 C1468 1.419 . S
C1470 C1471 1.362 . S
C1471 H1461 0.930 . S
C1471 C1464 1.409 . S
C1471 C1470 1.362 . S
H1472 C1478 0.930 . S
H1473 C1481 0.930 . S
H1474 C1482 0.930 . S
H1475 C1483 0.930 . S
H1476 C1486 0.930 . S
H1477 C1487 0.930 . S
C1478 H1472 0.930 . S
C1478 C1479 1.355 . S
C1478 C1480 1.415 . S
C1479 C1478 1.355 . S
C1479 C1481 1.419 . S
C1480 C1478 1.415 . S
C1480 C1485 1.425 . S
C1480 C1487 1.409 . S
C1481 H1473 0.930 . S
C1481 C1479 1.419 . S
C1481 C1482 1.362 . S
C1482 H1474 0.930 . S
C1482 C1481 1.362 . S
C1482 C1485 1.409 . S
C1483 H1475 0.930 . S
C1483 C1484 1.355 . S
C1483 C1485 1.415 . S
C1484 C1483 1.355 . S
C1484 C1486 1.419 . S
C1485 C1480 1.425 . S
C1485 C1482 1.409 . S
C1485 C1483 1.415 . S
C1486 H1476 0.930 . S
C1486 C1484 1.419 . S
C1486 C1487 1.362 . S
C1487 H1477 0.930 . S
C1487 C1480 1.409 . S
C1487 C1486 1.362 . S
H1488 C1494 0.930 . S
H1489 C1497 0.930 . S
H1490 C1498 0.930 . S
H1491 C1499 0.930 . S
H1492 C1502 0.930 . S
H1493 C1503 0.930 . S
C1494 H1488 0.930 . S
C1494 C1495 1.355 . S
C1494 C1496 1.415 . S
C1495 C1494 1.355 . S
C1495 C1497 1.419 . S
C1496 C1494 1.415 . S
C1496 C1501 1.425 . S
C1496 C1503 1.409 . S
C1497 H1489 0.930 . S
C1497 C1495 1.419 . S
C1497 C1498 1.362 . S
C1498 H1490 0.930 . S
C1498 C1497 1.362 . S
C1498 C1501 1.409 . S
C1499 H1491 0.930 . S
C1499 C1500 1.355 . S
C1499 C1501 1.415 . S
C1500 C1499 1.355 . S
C1500 C1502 1.419 . S
C1501 C1496 1.425 . S
C1501 C1498 1.409 . S
C1501 C1499 1.415 . S
C1502 H1492 0.930 . S
C1502 C1500 1.419 . S
C1502 C1503 1.362 . S
C1503 H1493 0.930 . S
C1503 C1496 1.409 . S
C1503 C1502 1.362 . S
H1504 C1510 0.930 1_655 S
H1505 C1513 0.930 . S
H1506 C1514 0.930 . S
H1507 C1515 0.930 . S
H1508 C1518 0.930 1_655 S
H1509 C1519 0.904 1_655 S
C1510 H1504 0.930 1_455 S
C1510 C1511 1.355 . S
C1510 C1512 1.415 . S
C1511 C1510 1.355 . S
C1511 C1513 1.419 . S
C1512 C1510 1.415 . S
C1512 C1517 1.425 . S
C1512 C1519 1.430 . S
C1513 H1505 0.930 . S
C1513 C1511 1.419 . S
C1513 C1514 1.362 . S
C1514 H1506 0.930 . S
C1514 C1513 1.362 . S
C1514 C1517 1.409 . S
C1515 H1507 0.930 . S
C1515 C1516 1.355 . S
C1515 C1517 1.415 . S
C1516 C1515 1.355 . S
C1516 C1518 1.419 . S
C1517 C1512 1.425 . S
C1517 C1514 1.409 . S
C1517 C1515 1.415 . S
C1518 H1508 0.930 1_455 S
C1518 C1516 1.419 . S
C1518 C1519 1.368 . S
C1519 H1509 0.904 1_455 S
C1519 C1512 1.430 . S
C1519 C1518 1.368 . S
H1520 C1526 0.930 . S
H1521 C1529 0.930 . S
H1522 C1530 0.930 . S
H1523 C1531 0.930 . S
H1524 C1534 0.930 . S
H1525 C1535 0.930 . S
C1526 H1520 0.930 . S
C1526 C1527 1.355 . S
C1526 C1528 1.415 . S
C1527 C1526 1.355 . S
C1527 C1529 1.419 . S
C1528 C1526 1.415 . S
C1528 C1533 1.425 . S
C1528 C1535 1.409 . S
C1529 H1521 0.930 . S
C1529 C1527 1.419 . S
C1529 C1530 1.362 . S
C1530 H1522 0.930 . S
C1530 C1529 1.362 . S
C1530 C1533 1.409 . S
C1531 H1523 0.930 . S
C1531 C1532 1.355 . S
C1531 C1533 1.415 . S
C1532 C1531 1.355 . S
C1532 C1534 1.419 . S
C1533 C1528 1.425 . S
C1533 C1530 1.409 . S
C1533 C1531 1.415 . S
C1534 H1524 0.930 . S
C1534 C1532 1.419 . S
C1534 C1535 1.362 . S
C1535 H1525 0.930 . S
C1535 C1528 1.409 . S
C1535 C1534 1.362 . S
H1536 C1542 0.930 . S
H1537 C1545 0.930 . S
H1538 C1546 0.930 . S
H1539 C1547 0.930 . S
H1540 C1550 0.930 1_554 S
H1541 C1551 0.930 . S
C1542 H1536 0.930 . S
C1542 C1543 1.355 . S
C1542 C1544 1.415 . S
C1543 C1542 1.355 . S
C1543 C1545 1.419 . S
C1544 C1542 1.415 . S
C1544 C1549 1.425 . S
C1544 C1551 1.409 . S
C1545 H1537 0.930 . S
C1545 C1543 1.419 . S
C1545 C1546 1.362 . S
C1546 H1538 0.930 . S
C1546 C1545 1.362 . S
C1546 C1549 1.409 . S
C1547 H1539 0.930 . S
C1547 C1548 1.355 1_556 S
C1547 C1549 1.415 . S
C1548 C1547 1.355 1_554 S
C1548 C1550 1.419 1_554 S
C1549 C1544 1.425 . S
C1549 C1546 1.409 . S
C1549 C1547 1.415 . S
C1550 H1540 0.930 1_556 S
C1550 C1548 1.419 1_556 S
C1550 C1551 1.362 . S
C1551 H1541 0.930 . S
C1551 C1544 1.409 . S
C1551 C1550 1.362 . S
H1552 C1558 0.930 . S
H1553 C1561 0.930 . S
H1554 C1562 0.930 . S
H1555 C1563 0.930 . S
H1556 C1566 0.930 . S
H1557 C1567 0.930 . S
C1558 H1552 0.930 . S
C1558 C1559 1.355 . S
C1558 C1560 1.415 . S
C1559 C1558 1.355 . S
C1559 C1561 1.419 . S
C1560 C1558 1.415 . S
C1560 C1565 1.425 . S
C1560 C1567 1.409 . S
C1561 H1553 0.930 . S
C1561 C1559 1.419 . S
C1561 C1562 1.362 . S
C1562 H1554 0.930 . S
C1562 C1561 1.362 . S
C1562 C1565 1.409 . S
C1563 H1555 0.930 . S
C1563 C1564 1.355 . S
C1563 C1565 1.415 . S
C1564 C1563 1.355 . S
C1564 C1566 1.419 . S
C1565 C1560 1.425 . S
C1565 C1562 1.409 . S
C1565 C1563 1.415 . S
C1566 H1556 0.930 . S
C1566 C1564 1.419 . S
C1566 C1567 1.362 . S
C1567 H1557 0.930 . S
C1567 C1560 1.409 . S
C1567 C1566 1.362 . S
H1568 C1574 0.930 . S
H1569 C1577 0.930 1_655 S
H1570 C1578 0.937 . S
H1571 C1579 0.930 . S
H1572 C1582 0.930 . S
H1573 C1583 0.930 . S
C1574 H1568 0.930 . S
C1574 C1575 1.355 . S
C1574 C1576 1.415 . S
C1575 C1574 1.355 . S
C1575 C1577 1.419 . S
C1576 C1574 1.415 . S
C1576 C1581 1.425 . S
C1576 C1583 1.409 . S
C1577 H1569 0.930 1_455 S
C1577 C1575 1.419 . S
C1577 C1578 1.362 . S
C1578 H1570 0.937 . S
C1578 C1577 1.362 . S
C1578 C1581 1.409 . S
C1579 H1571 0.930 . S
C1579 C1580 1.355 . S
C1579 C1581 1.415 . S
C1580 C1579 1.355 . S
C1580 C1582 1.419 . S
C1581 C1576 1.425 . S
C1581 C1578 1.409 . S
C1581 C1579 1.415 . S
C1582 H1572 0.930 . S
C1582 C1580 1.419 . S
C1582 C1583 1.362 . S
C1583 H1573 0.930 . S
C1583 C1576 1.409 . S
C1583 C1582 1.362 . S
H1584 C1590 0.930 . S
H1585 C1593 0.930 . S
H1586 C1594 0.930 . S
H1587 C1595 0.930 . S
H1588 C1598 0.930 . S
H1589 C1599 0.930 . S
C1590 H1584 0.930 . S
C1590 C1591 1.355 . S
C1590 C1592 1.415 . S
C1591 C1590 1.355 . S
C1591 C1593 1.419 . S
C1592 C1590 1.415 . S
C1592 C1597 1.425 . S
C1592 C1599 1.409 . S
C1593 H1585 0.930 . S
C1593 C1591 1.419 . S
C1593 C1594 1.362 . S
C1594 H1586 0.930 . S
C1594 C1593 1.362 . S
C1594 C1597 1.409 . S
C1595 H1587 0.930 . S
C1595 C1596 1.355 . S
C1595 C1597 1.415 . S
C1596 C1595 1.355 . S
C1596 C1598 1.419 . S
C1597 C1592 1.425 . S
C1597 C1594 1.409 . S
C1597 C1595 1.415 . S
C1598 H1588 0.930 . S
C1598 C1596 1.419 . S
C1598 C1599 1.362 . S
C1599 H1589 0.930 . S
C1599 C1592 1.409 . S
C1599 C1598 1.362 . S
H1600 C1606 0.930 . S
H1601 C1609 0.930 . S
H1602 C1610 0.930 . S
H1603 C1611 0.930 . S
H1604 C1614 0.930 . S
H1605 C1615 0.930 . S
C1606 H1600 0.930 . S
C1606 C1607 1.355 . S
C1606 C1608 1.415 . S
C1607 C1606 1.355 . S
C1607 C1609 1.419 . S
C1608 C1606 1.415 . S
C1608 C1613 1.425 . S
C1608 C1615 1.409 . S
C1609 H1601 0.930 . S
C1609 C1607 1.419 . S
C1609 C1610 1.362 . S
C1610 H1602 0.930 . S
C1610 C1609 1.362 . S
C1610 C1613 1.409 . S
C1611 H1603 0.930 . S
C1611 C1612 1.355 . S
C1611 C1613 1.415 . S
C1612 C1611 1.355 . S
C1612 C1614 1.419 . S
C1613 C1608 1.425 . S
C1613 C1610 1.409 . S
C1613 C1611 1.415 . S
C1614 H1604 0.930 . S
C1614 C1612 1.419 . S
C1614 C1615 1.362 . S
C1615 H1605 0.930 . S
C1615 C1608 1.409 . S
C1615 C1614 1.362 . S
H1616 C1622 0.930 . S
H1617 C1625 0.930 . S
H1618 C1626 0.930 . S
H1619 C1627 0.930 . S
H1620 C1630 0.930 . S
H1621 C1631 0.930 . S
C1622 H1616 0.930 . S
C1622 C1623 1.355 . S
C1622 C1624 1.415 . S
C1623 C1622 1.355 . S
C1623 C1625 1.419 . S
C1624 C1622 1.415 . S
C1624 C1629 1.425 . S
C1624 C1631 1.409 . S
C1625 H1617 0.930 . S
C1625 C1623 1.419 . S
C1625 C1626 1.362 . S
C1626 H1618 0.930 . S
C1626 C1625 1.362 . S
C1626 C1629 1.409 . S
C1627 H1619 0.930 . S
C1627 C1628 1.355 . S
C1627 C1629 1.415 . S
C1628 C1627 1.355 . S
C1628 C1630 1.419 . S
C1629 C1624 1.425 . S
C1629 C1626 1.409 . S
C1629 C1627 1.415 . S
C1630 H1620 0.930 . S
C1630 C1628 1.419 . S
C1630 C1631 1.362 . S
C1631 H1621 0.930 . S
C1631 C1624 1.409 . S
C1631 C1630 1.362 . S
H1632 C1638 0.930 . S
H1633 C1641 0.930 . S
H1634 C1642 0.930 . S
H1635 C1643 0.930 . S
H1636 C1646 0.930 1_455 S
H1637 C1647 0.930 . S
C1638 H1632 0.930 . S
C1638 C1639 1.355 . S
C1638 C1640 1.415 . S
C1639 C1638 1.355 . S
C1639 C1641 1.419 . S
C1640 C1638 1.415 . S
C1640 C1645 1.425 . S
C1640 C1647 1.409 . S
C1641 H1633 0.930 . S
C1641 C1639 1.419 . S
C1641 C1642 1.362 . S
C1642 H1634 0.930 . S
C1642 C1641 1.362 . S
C1642 C1645 1.409 . S
C1643 H1635 0.930 . S
C1643 C1644 1.355 . S
C1643 C1645 1.415 . S
C1644 C1643 1.355 . S
C1644 C1646 1.419 . S
C1645 C1640 1.425 . S
C1645 C1642 1.409 . S
C1645 C1643 1.415 . S
C1646 H1636 0.930 1_655 S
C1646 C1644 1.419 . S
C1646 C1647 1.362 . S
C1647 H1637 0.930 . S
C1647 C1640 1.409 . S
C1647 C1646 1.362 . S
H1648 C1654 0.930 . S
H1649 C1657 0.930 . S
H1650 C1658 0.930 . S
H1651 C1659 0.930 . S
H1652 C1662 0.930 . S
H1653 C1663 0.930 . S
C1654 H1648 0.930 . S
C1654 C1655 1.355 . S
C1654 C1656 1.415 . S
C1655 C1654 1.355 . S
C1655 C1657 1.419 . S
C1656 C1654 1.415 . S
C1656 C1661 1.425 . S
C1656 C1663 1.409 . S
C1657 H1649 0.930 . S
C1657 C1655 1.419 . S
C1657 C1658 1.362 . S
C1658 H1650 0.930 . S
C1658 C1657 1.362 . S
C1658 C1661 1.409 . S
C1659 H1651 0.930 . S
C1659 C1660 1.355 . S
C1659 C1661 1.415 . S
C1660 C1659 1.355 . S
C1660 C1662 1.419 . S
C1661 C1656 1.425 . S
C1661 C1658 1.409 . S
C1661 C1659 1.415 . S
C1662 H1652 0.930 . S
C1662 C1660 1.419 . S
C1662 C1663 1.362 . S
C1663 H1653 0.930 . S
C1663 C1656 1.409 . S
C1663 C1662 1.362 . S
H1664 C1670 0.930 . S
H1665 C1673 0.930 . S
H1666 C1674 0.930 . S
H1667 C1675 0.930 . S
H1668 C1678 0.930 . S
H1669 C1679 0.930 . S
C1670 H1664 0.930 . S
C1670 C1671 1.355 . S
C1670 C1672 1.415 . S
C1671 C1670 1.355 . S
C1671 C1673 1.419 . S
C1672 C1670 1.415 . S
C1672 C1677 1.425 . S
C1672 C1679 1.409 . S
C1673 H1665 0.930 . S
C1673 C1671 1.419 . S
C1673 C1674 1.362 . S
C1674 H1666 0.930 . S
C1674 C1673 1.362 . S
C1674 C1677 1.409 . S
C1675 H1667 0.930 . S
C1675 C1676 1.355 . S
C1675 C1677 1.415 . S
C1676 C1675 1.355 . S
C1676 C1678 1.419 . S
C1677 C1672 1.425 . S
C1677 C1674 1.409 . S
C1677 C1675 1.415 . S
C1678 H1668 0.930 . S
C1678 C1676 1.419 . S
C1678 C1679 1.362 . S
C1679 H1669 0.930 . S
C1679 C1672 1.409 . S
C1679 C1678 1.362 . S
H1680 C1686 0.930 . S
H1681 C1689 0.930 . S
H1682 C1690 0.930 . S
H1683 C1691 0.930 . S
H1684 C1694 0.930 . S
H1685 C1695 0.930 . S
C1686 H1680 0.930 . S
C1686 C1687 1.355 . S
C1686 C1688 1.415 . S
C1687 C1686 1.355 . S
C1687 C1689 1.419 . S
C1688 C1686 1.415 . S
C1688 C1693 1.425 . S
C1688 C1695 1.409 . S
C1689 H1681 0.930 . S
C1689 C1687 1.419 . S
C1689 C1690 1.362 . S
C1690 H1682 0.930 . S
C1690 C1689 1.362 . S
C1690 C1693 1.409 . S
C1691 H1683 0.930 . S
C1691 C1692 1.355 . S
C1691 C1693 1.415 . S
C1692 C1691 1.355 . S
C1692 C1694 1.419 . S
C1693 C1688 1.425 . S
C1693 C1690 1.409 . S
C1693 C1691 1.415 . S
C1694 H1684 0.930 . S
C1694 C1692 1.419 . S
C1694 C1695 1.362 . S
C1695 H1685 0.930 . S
C1695 C1688 1.409 . S
C1695 C1694 1.362 . S
H1696 C1702 0.930 . S
H1697 C1705 0.930 . S
H1698 C1706 0.930 . S
H1699 C1707 0.930 . S
H1700 C1710 0.930 1_455 S
H1701 C1711 0.930 . S
C1702 H1696 0.930 . S
C1702 C1703 1.355 . S
C1702 C1704 1.415 . S
C1703 C1702 1.355 . S
C1703 C1705 1.419 . S
C1704 C1702 1.415 . S
C1704 C1709 1.425 . S
C1704 C1711 1.409 . S
C1705 H1697 0.930 . S
C1705 C1703 1.419 . S
C1705 C1706 1.362 . S
C1706 H1698 0.930 . S
C1706 C1705 1.362 . S
C1706 C1709 1.409 . S
C1707 H1699 0.930 . S
C1707 C1708 1.355 . S
C1707 C1709 1.415 . S
C1708 C1707 1.355 . S
C1708 C1710 1.419 . S
C1709 C1704 1.425 . S
C1709 C1706 1.409 . S
C1709 C1707 1.415 . S
C1710 H1700 0.930 1_655 S
C1710 C1708 1.419 . S
C1710 C1711 1.362 . S
C1711 H1701 0.930 . S
C1711 C1704 1.409 . S
C1711 C1710 1.362 . S
H1712 C1718 0.930 . S
H1713 C1721 0.930 . S
H1714 C1722 0.930 . S
H1715 C1723 0.930 . S
H1716 C1726 0.930 . S
H1717 C1727 0.930 . S
C1718 H1712 0.930 . S
C1718 C1719 1.355 . S
C1718 C1720 1.415 . S
C1719 C1718 1.355 . S
C1719 C1721 1.419 . S
C1720 C1718 1.415 . S
C1720 C1725 1.425 . S
C1720 C1727 1.409 . S
C1721 H1713 0.930 . S
C1721 C1719 1.419 . S
C1721 C1722 1.362 . S
C1722 H1714 0.930 . S
C1722 C1721 1.362 . S
C1722 C1725 1.409 . S
C1723 H1715 0.930 . S
C1723 C1724 1.355 . S
C1723 C1725 1.415 . S
C1724 C1723 1.355 . S
C1724 C1726 1.419 . S
C1725 C1720 1.425 . S
C1725 C1722 1.409 . S
C1725 C1723 1.415 . S
C1726 H1716 0.930 . S
C1726 C1724 1.419 . S
C1726 C1727 1.362 . S
C1727 H1717 0.930 . S
C1727 C1720 1.409 . S
C1727 C1726 1.362 . S
H1728 C1734 0.930 . S
H1729 C1737 0.930 . S
H1730 C1738 0.930 . S
H1731 C1739 0.930 . S
H1732 C1742 0.930 . S
H1733 C1743 0.930 . S
C1734 H1728 0.930 . S
C1734 C1735 1.355 . S
C1734 C1736 1.415 . S
C1735 C1734 1.355 . S
C1735 C1737 1.419 . S
C1736 C1734 1.415 . S
C1736 C1741 1.425 . S
C1736 C1743 1.409 . S
C1737 H1729 0.930 . S
C1737 C1735 1.419 . S
C1737 C1738 1.362 . S
C1738 H1730 0.930 . S
C1738 C1737 1.362 . S
C1738 C1741 1.409 . S
C1739 H1731 0.930 . S
C1739 C1740 1.355 . S
C1739 C1741 1.415 . S
C1740 C1739 1.355 . S
C1740 C1742 1.419 . S
C1741 C1736 1.425 . S
C1741 C1738 1.409 . S
C1741 C1739 1.415 . S
C1742 H1732 0.930 . S
C1742 C1740 1.419 . S
C1742 C1743 1.362 . S
C1743 H1733 0.930 . S
C1743 C1736 1.409 . S
C1743 C1742 1.362 . S
H1744 C1750 0.930 . S
H1745 C1753 0.930 . S
H1746 C1754 0.930 . S
H1747 C1755 0.930 . S
H1748 C1758 0.930 . S
H1749 C1759 0.930 1_545 S
C1750 H1744 0.930 . S
C1750 C1751 1.355 . S
C1750 C1752 1.415 . S
C1751 C1750 1.355 . S
C1751 C1753 1.419 . S
C1752 C1750 1.415 . S
C1752 C1757 1.425 . S
C1752 C1759 1.409 . S
C1753 H1745 0.930 . S
C1753 C1751 1.419 . S
C1753 C1754 1.362 . S
C1754 H1746 0.930 . S
C1754 C1753 1.362 . S
C1754 C1757 1.409 . S
C1755 H1747 0.930 . S
C1755 C1756 1.355 . S
C1755 C1757 1.415 . S
C1756 C1755 1.355 . S
C1756 C1758 1.419 1_565 S
C1757 C1752 1.425 . S
C1757 C1754 1.409 . S
C1757 C1755 1.415 . S
C1758 H1748 0.930 . S
C1758 C1756 1.419 1_545 S
C1758 C1759 1.362 1_545 S
C1759 H1749 0.930 1_565 S
C1759 C1752 1.409 . S
C1759 C1758 1.362 1_565 S
H1760 C1766 0.930 . S
H1761 C1769 0.930 . S
H1762 C1770 0.930 . S
H1763 C1771 0.930 . S
H1764 C1774 0.930 . S
H1765 C1775 0.930 . S
C1766 H1760 0.930 . S
C1766 C1767 1.355 . S
C1766 C1768 1.415 . S
C1767 C1766 1.355 . S
C1767 C1769 1.419 . S
C1768 C1766 1.415 . S
C1768 C1773 1.425 . S
C1768 C1775 1.409 . S
C1769 H1761 0.930 . S
C1769 C1767 1.419 . S
C1769 C1770 1.362 . S
C1770 H1762 0.930 . S
C1770 C1769 1.362 . S
C1770 C1773 1.409 . S
C1771 H1763 0.930 . S
C1771 C1772 1.355 . S
C1771 C1773 1.415 . S
C1772 C1771 1.355 . S
C1772 C1774 1.419 . S
C1773 C1768 1.425 . S
C1773 C1770 1.409 . S
C1773 C1771 1.415 . S
C1774 H1764 0.930 . S
C1774 C1772 1.419 . S
C1774 C1775 1.362 . S
C1775 H1765 0.930 . S
C1775 C1768 1.409 . S
C1775 C1774 1.362 . S
H1776 C1782 0.930 1_556 S
H1777 C1785 0.930 . S
H1778 C1786 0.930 . S
H1779 C1787 0.930 . S
H1780 C1790 0.930 . S
H1781 C1791 0.930 1_556 S
C1782 H1776 0.930 1_554 S
C1782 C1783 1.355 . S
C1782 C1784 1.415 . S
C1783 C1782 1.355 . S
C1783 C1785 1.419 . S
C1784 C1782 1.415 . S
C1784 C1789 1.425 . S
C1784 C1791 1.409 . S
C1785 H1777 0.930 . S
C1785 C1783 1.419 . S
C1785 C1786 1.362 . S
C1786 H1778 0.930 . S
C1786 C1785 1.362 . S
C1786 C1789 1.409 . S
C1787 H1779 0.930 . S
C1787 C1788 1.355 . S
C1787 C1789 1.415 . S
C1788 C1787 1.355 . S
C1788 C1790 1.419 . S
C1789 C1784 1.425 . S
C1789 C1786 1.409 . S
C1789 C1787 1.415 . S
C1790 H1780 0.930 . S
C1790 C1788 1.419 . S
C1790 C1791 1.362 . S
C1791 H1781 0.930 1_554 S
C1791 C1784 1.409 . S
C1791 C1790 1.362 . S
H1792 C1798 0.930 . S
H1793 C1801 0.930 . S
H1794 C1802 0.930 . S
H1795 C1803 0.930 . S
H1796 C1806 0.930 . S
H1797 C1807 0.930 . S
C1798 H1792 0.930 . S
C1798 C1799 1.355 . S
C1798 C1800 1.415 . S
C1799 C1798 1.355 . S
C1799 C1801 1.419 . S
C1800 C1798 1.415 . S
C1800 C1805 1.425 . S
C1800 C1807 1.409 . S
C1801 H1793 0.930 . S
C1801 C1799 1.419 . S
C1801 C1802 1.362 . S
C1802 H1794 0.930 . S
C1802 C1801 1.362 . S
C1802 C1805 1.409 . S
C1803 H1795 0.930 . S
C1803 C1804 1.355 . S
C1803 C1805 1.415 . S
C1804 C1803 1.355 . S
C1804 C1806 1.419 . S
C1805 C1800 1.425 . S
C1805 C1802 1.409 . S
C1805 C1803 1.415 . S
C1806 H1796 0.930 . S
C1806 C1804 1.419 . S
C1806 C1807 1.362 . S
C1807 H1797 0.930 . S
C1807 C1800 1.409 . S
C1807 C1806 1.362 . S
H1808 C1814 0.930 . S
H1809 C1817 0.930 . S
H1810 C1818 0.930 . S
H1811 C1819 0.930 . S
H1812 C1822 0.930 . S
H1813 C1823 0.930 . S
C1814 H1808 0.930 . S
C1814 C1815 1.355 . S
C1814 C1816 1.415 . S
C1815 C1814 1.355 . S
C1815 C1817 1.419 . S
C1816 C1814 1.415 . S
C1816 C1821 1.425 . S
C1816 C1823 1.409 . S
C1817 H1809 0.930 . S
C1817 C1815 1.419 . S
C1817 C1818 1.362 . S
C1818 H1810 0.930 . S
C1818 C1817 1.362 . S
C1818 C1821 1.409 . S
C1819 H1811 0.930 . S
C1819 C1820 1.355 . S
C1819 C1821 1.415 . S
C1820 C1819 1.355 . S
C1820 C1822 1.419 . S
C1821 C1816 1.425 . S
C1821 C1818 1.409 . S
C1821 C1819 1.415 . S
C1822 H1812 0.930 . S
C1822 C1820 1.419 . S
C1822 C1823 1.362 . S
C1823 H1813 0.930 . S
C1823 C1816 1.409 . S
C1823 C1822 1.362 . S
H1824 C1830 0.930 . S
H1825 C1833 0.930 . S
H1826 C1834 0.930 . S
H1827 C1835 0.930 . S
H1828 C1838 0.930 . S
H1829 C1839 0.930 . S
C1830 H1824 0.930 . S
C1830 C1831 1.355 . S
C1830 C1832 1.415 . S
C1831 C1830 1.355 . S
C1831 C1833 1.419 . S
C1832 C1830 1.415 . S
C1832 C1837 1.425 . S
C1832 C1839 1.409 . S
C1833 H1825 0.930 . S
C1833 C1831 1.419 . S
C1833 C1834 1.362 . S
C1834 H1826 0.930 . S
C1834 C1833 1.362 . S
C1834 C1837 1.409 . S
C1835 H1827 0.930 . S
C1835 C1836 1.355 . S
C1835 C1837 1.415 . S
C1836 C1835 1.355 . S
C1836 C1838 1.419 . S
C1837 C1832 1.425 . S
C1837 C1834 1.409 . S
C1837 C1835 1.415 . S
C1838 H1828 0.930 . S
C1838 C1836 1.419 . S
C1838 C1839 1.362 . S
C1839 H1829 0.930 . S
C1839 C1832 1.409 . S
C1839 C1838 1.362 . S
H1840 C1846 0.930 . S
H1841 C1849 0.930 . S
H1842 C1850 0.930 . S
H1843 C1851 0.930 . S
H1844 C1854 0.930 . S
H1845 C1855 0.930 . S
C1846 H1840 0.930 . S
C1846 C1847 1.355 . S
C1846 C1848 1.415 . S
C1847 C1846 1.355 . S
C1847 C1849 1.419 . S
C1848 C1846 1.415 . S
C1848 C1853 1.425 . S
C1848 C1855 1.409 . S
C1849 H1841 0.930 . S
C1849 C1847 1.419 . S
C1849 C1850 1.362 . S
C1850 H1842 0.930 . S
C1850 C1849 1.362 . S
C1850 C1853 1.409 . S
C1851 H1843 0.930 . S
C1851 C1852 1.355 . S
C1851 C1853 1.415 . S
C1852 C1851 1.355 . S
C1852 C1854 1.419 . S
C1853 C1848 1.425 . S
C1853 C1850 1.409 . S
C1853 C1851 1.415 . S
C1854 H1844 0.930 . S
C1854 C1852 1.419 . S
C1854 C1855 1.362 . S
C1855 H1845 0.930 . S
C1855 C1848 1.409 . S
C1855 C1854 1.362 . S
H1856 C1862 0.930 . S
H1857 C1865 0.930 . S
H1858 C1866 0.930 . S
H1859 C1867 0.930 . S
H1860 C1870 0.930 . S
H1861 C1871 0.930 . S
C1862 H1856 0.930 . S
C1862 C1863 1.355 . S
C1862 C1864 1.415 . S
C1863 C1862 1.355 . S
C1863 C1865 1.419 . S
C1864 C1862 1.415 . S
C1864 C1869 1.425 . S
C1864 C1871 1.409 . S
C1865 H1857 0.930 . S
C1865 C1863 1.419 . S
C1865 C1866 1.362 . S
C1866 H1858 0.930 . S
C1866 C1865 1.362 . S
C1866 C1869 1.409 . S
C1867 H1859 0.930 . S
C1867 C1868 1.355 . S
C1867 C1869 1.415 . S
C1868 C1867 1.355 . S
C1868 C1870 1.419 . S
C1869 C1864 1.425 . S
C1869 C1866 1.409 . S
C1869 C1867 1.415 . S
C1870 H1860 0.930 . S
C1870 C1868 1.419 . S
C1870 C1871 1.362 . S
C1871 H1861 0.930 . S
C1871 C1864 1.409 . S
C1871 C1870 1.362 . S
H1872 C1878 0.930 . S
H1873 C1881 0.930 . S
H1874 C1882 0.930 . S
H1875 C1883 0.930 . S
H1876 C1886 0.930 . S
H1877 C1887 0.930 . S
C1878 H1872 0.930 . S
C1878 C1879 1.355 . S
C1878 C1880 1.415 . S
C1879 C1878 1.355 . S
C1879 C1881 1.419 . S
C1880 C1878 1.415 . S
C1880 C1885 1.425 . S
C1880 C1887 1.409 . S
C1881 H1873 0.930 . S
C1881 C1879 1.419 . S
C1881 C1882 1.362 . S
C1882 H1874 0.930 . S
C1882 C1881 1.362 . S
C1882 C1885 1.409 . S
C1883 H1875 0.930 . S
C1883 C1884 1.355 . S
C1883 C1885 1.415 . S
C1884 C1883 1.355 . S
C1884 C1886 1.419 . S
C1885 C1880 1.425 . S
C1885 C1882 1.409 . S
C1885 C1883 1.415 . S
C1886 H1876 0.930 . S
C1886 C1884 1.419 . S
C1886 C1887 1.362 . S
C1887 H1877 0.930 . S
C1887 C1880 1.409 . S
C1887 C1886 1.362 . S
H1888 C1894 0.930 . S
H1889 C1897 0.930 . S
H1890 C1898 0.930 . S
H1891 C1899 0.930 1_554 S
H1892 C1902 0.930 . S
H1893 C1903 0.930 . S
C1894 H1888 0.930 . S
C1894 C1895 1.355 . S
C1894 C1896 1.415 . S
C1895 C1894 1.355 . S
C1895 C1897 1.419 1_455 S
C1896 C1894 1.415 . S
C1896 C1901 1.425 1_455 S
C1896 C1903 1.409 . S
C1897 H1889 0.930 . S
C1897 C1895 1.419 1_655 S
C1897 C1898 1.362 . S
C1898 H1890 0.930 . S
C1898 C1897 1.362 . S
C1898 C1901 1.409 . S
C1899 H1891 0.930 1_556 S
C1899 C1900 1.355 . S
C1899 C1901 1.415 . S
C1900 C1899 1.355 . S
C1900 C1902 1.419 1_655 S
C1901 C1896 1.425 1_655 S
C1901 C1898 1.409 . S
C1901 C1899 1.415 . S
C1902 H1892 0.930 . S
C1902 C1900 1.419 1_455 S
C1902 C1903 1.362 . S
C1903 H1893 0.930 . S
C1903 C1896 1.409 . S
C1903 C1902 1.362 . S
H1904 C1910 0.930 . S
H1905 C1913 0.930 . S
H1906 C1914 0.930 . S
H1907 C1915 0.930 . S
H1908 C1918 0.930 . S
H1909 C1919 0.930 . S
C1910 H1904 0.930 . S
C1910 C1911 1.355 . S
C1910 C1912 1.415 . S
C1911 C1910 1.355 . S
C1911 C1913 1.419 . S
C1912 C1910 1.415 . S
C1912 C1917 1.425 . S
C1912 C1919 1.409 . S
C1913 H1905 0.930 . S
C1913 C1911 1.419 . S
C1913 C1914 1.362 . S
C1914 H1906 0.930 . S
C1914 C1913 1.362 . S
C1914 C1917 1.409 . S
C1915 H1907 0.930 . S
C1915 C1916 1.355 . S
C1915 C1917 1.415 . S
C1916 C1915 1.355 . S
C1916 C1918 1.419 . S
C1917 C1912 1.425 . S
C1917 C1914 1.409 . S
C1917 C1915 1.415 . S
C1918 H1908 0.930 . S
C1918 C1916 1.419 . S
C1918 C1919 1.362 . S
C1919 H1909 0.930 . S
C1919 C1912 1.409 . S
C1919 C1918 1.362 . S
H1920 C1926 0.930 . S
H1921 C1929 0.930 . S
H1922 C1930 0.930 . S
H1923 C1931 0.930 . S
H1924 C1934 0.930 . S
H1925 C1935 0.930 . S
C1926 H1920 0.930 . S
C1926 C1927 1.355 . S
C1926 C1928 1.415 . S
C1927 C1926 1.355 . S
C1927 C1929 1.419 . S
C1928 C1926 1.415 . S
C1928 C1933 1.425 . S
C1928 C1935 1.409 . S
C1929 H1921 0.930 . S
C1929 C1927 1.419 . S
C1929 C1930 1.362 . S
C1930 H1922 0.930 . S
C1930 C1929 1.362 . S
C1930 C1933 1.409 . S
C1931 H1923 0.930 . S
C1931 C1932 1.355 . S
C1931 C1933 1.415 . S
C1932 C1931 1.355 . S
C1932 C1934 1.419 . S
C1933 C1928 1.425 . S
C1933 C1930 1.409 . S
C1933 C1931 1.415 . S
C1934 H1924 0.930 . S
C1934 C1932 1.419 . S
C1934 C1935 1.362 . S
C1935 H1925 0.930 . S
C1935 C1928 1.409 . S
C1935 C1934 1.362 . S
H1936 C1942 0.930 . S
H1937 C1945 0.930 . S
H1938 C1946 0.930 . S
H1939 C1947 0.930 . S
H1940 C1950 0.930 . S
H1941 C1951 0.930 . S
C1942 H1936 0.930 . S
C1942 C1943 1.355 . S
C1942 C1944 1.415 . S
C1943 C1942 1.355 . S
C1943 C1945 1.419 . S
C1944 C1942 1.415 . S
C1944 C1949 1.425 . S
C1944 C1951 1.409 . S
C1945 H1937 0.930 . S
C1945 C1943 1.419 . S
C1945 C1946 1.362 . S
C1946 H1938 0.930 . S
C1946 C1945 1.362 . S
C1946 C1949 1.409 . S
C1947 H1939 0.930 . S
C1947 C1948 1.355 . S
C1947 C1949 1.415 . S
C1948 C1947 1.355 . S
C1948 C1950 1.419 . S
C1949 C1944 1.425 . S
C1949 C1946 1.409 . S
C1949 C1947 1.415 . S
C1950 H1940 0.930 . S
C1950 C1948 1.419 . S
C1950 C1951 1.362 . S
C1951 H1941 0.930 . S
C1951 C1944 1.409 . S
C1951 C1950 1.362 . S
H1952 C1958 0.930 . S
H1953 C1961 0.930 . S
H1954 C1962 0.930 . S
H1955 C1963 0.930 . S
H1956 C1966 0.930 . S
H1957 C1967 0.930 . S
C1958 H1952 0.930 . S
C1958 C1959 1.355 . S
C1958 C1960 1.415 . S
C1959 C1958 1.355 . S
C1959 C1961 1.419 1_455 S
C1960 C1958 1.415 . S
C1960 C1965 1.425 1_455 S
C1960 C1967 1.409 . S
C1961 H1953 0.930 . S
C1961 C1959 1.419 1_655 S
C1961 C1962 1.362 . S
C1962 H1954 0.930 . S
C1962 C1961 1.362 . S
C1962 C1965 1.409 . S
C1963 H1955 0.930 . S
C1963 C1964 1.355 . S
C1963 C1965 1.415 . S
C1964 C1963 1.355 . S
C1964 C1966 1.419 1_655 S
C1965 C1960 1.425 1_655 S
C1965 C1962 1.409 . S
C1965 C1963 1.415 . S
C1966 H1956 0.930 . S
C1966 C1964 1.419 1_455 S
C1966 C1967 1.362 . S
C1967 H1957 0.930 . S
C1967 C1960 1.409 . S
C1967 C1966 1.362 . S
H1968 C1974 0.930 . S
H1969 C1977 0.930 . S
H1970 C1978 0.930 . S
H1971 C1979 0.930 . S
H1972 C1982 0.930 . S
H1973 C1983 0.930 . S
C1974 H1968 0.930 . S
C1974 C1975 1.355 . S
C1974 C1976 1.415 . S
C1975 C1974 1.355 . S
C1975 C1977 1.419 . S
C1976 C1974 1.415 . S
C1976 C1981 1.425 . S
C1976 C1983 1.409 . S
C1977 H1969 0.930 . S
C1977 C1975 1.419 . S
C1977 C1978 1.362 . S
C1978 H1970 0.930 . S
C1978 C1977 1.362 . S
C1978 C1981 1.409 . S
C1979 H1971 0.930 . S
C1979 C1980 1.355 . S
C1979 C1981 1.415 . S
C1980 C1979 1.355 . S
C1980 C1982 1.419 . S
C1981 C1976 1.425 . S
C1981 C1978 1.409 . S
C1981 C1979 1.415 . S
C1982 H1972 0.930 . S
C1982 C1980 1.419 . S
C1982 C1983 1.362 . S
C1983 H1973 0.930 . S
C1983 C1976 1.409 . S
C1983 C1982 1.362 . S
H1984 C1990 0.930 . S
H1985 C1993 0.930 . S
H1986 C1994 0.930 . S
H1987 C1995 0.930 . S
H1988 C1998 0.930 . S
H1989 C1999 0.930 . S
C1990 H1984 0.930 . S
C1990 C1991 1.355 . S
C1990 C1992 1.415 . S
C1991 C1990 1.355 . S
C1991 C1993 1.419 . S
C1992 C1990 1.415 . S
C1992 C1997 1.425 . S
C1992 C1999 1.409 . S
C1993 H1985 0.930 . S
C1993 C1991 1.419 . S
C1993 C1994 1.362 . S
C1994 H1986 0.930 . S
C1994 C1993 1.362 . S
C1994 C1997 1.409 . S
C1995 H1987 0.930 . S
C1995 C1996 1.355 . S
C1995 C1997 1.415 . S
C1996 C1995 1.355 . S
C1996 C1998 1.419 . S
C1997 C1992 1.425 . S
C1997 C1994 1.409 . S
C1997 C1995 1.415 . S
C1998 H1988 0.930 . S
C1998 C1996 1.419 . S
C1998 C1999 1.362 . S
C1999 H1989 0.930 . S
C1999 C1992 1.409 . S
C1999 C1998 1.362 . S
H2000 C2006 0.930 . S
H2001 C2009 0.930 . S
H2002 C2010 0.930 . S
H2003 C2011 0.930 . S
H2004 C2014 0.930 . S
H2005 C2015 0.930 . S
C2006 H2000 0.930 . S
C2006 C2007 1.355 . S
C2006 C2008 1.415 . S
C2007 C2006 1.355 . S
C2007 C2009 1.419 . S
C2008 C2006 1.415 . S
C2008 C2013 1.425 . S
C2008 C2015 1.409 . S
C2009 H2001 0.930 . S
C2009 C2007 1.419 . S
C2009 C2010 1.362 . S
C2010 H2002 0.930 . S
C2010 C2009 1.362 . S
C2010 C2013 1.409 . S
C2011 H2003 0.930 . S
C2011 C2012 1.355 . S
C2011 C2013 1.415 . S
C2012 C2011 1.355 . S
C2012 C2014 1.419 . S
C2013 C2008 1.425 . S
C2013 C2010 1.409 . S
C2013 C2011 1.415 . S
C2014 H2004 0.930 . S
C2014 C2012 1.419 . S
C2014 C2015 1.362 . S
C2015 H2005 0.930 . S
C2015 C2008 1.409 . S
C2015 C2014 1.362 . S
H2016 C2022 0.930 . S
H2017 C2025 0.930 . S
H2018 C2026 0.930 . S
H2019 C2027 0.930 . S
H2020 C2030 0.930 . S
H2021 C2031 0.930 . S
C2022 H2016 0.930 . S
C2022 C2023 1.355 . S
C2022 C2024 1.415 . S
C2023 C2022 1.355 . S
C2023 C2025 1.419 . S
C2024 C2022 1.415 . S
C2024 C2029 1.425 . S
C2024 C2031 1.409 . S
C2025 H2017 0.930 . S
C2025 C2023 1.419 . S
C2025 C2026 1.362 . S
C2026 H2018 0.930 . S
C2026 C2025 1.362 . S
C2026 C2029 1.409 . S
C2027 H2019 0.930 . S
C2027 C2028 1.355 . S
C2027 C2029 1.415 . S
C2028 C2027 1.355 . S
C2028 C2030 1.419 . S
C2029 C2024 1.425 . S
C2029 C2026 1.409 . S
C2029 C2027 1.415 . S
C2030 H2020 0.930 . S
C2030 C2028 1.419 . S
C2030 C2031 1.362 . S
C2031 H2021 0.930 . S
C2031 C2024 1.409 . S
C2031 C2030 1.362 . S
H2032 C2038 0.930 . S
H2033 C2041 0.930 . S
H2034 C2042 0.930 . S
H2035 C2043 0.930 . S
H2036 C2046 0.930 . S
H2037 C2047 0.930 . S
C2038 H2032 0.930 . S
C2038 C2039 1.355 . S
C2038 C2040 1.415 . S
C2039 C2038 1.355 . S
C2039 C2041 1.419 . S
C2040 C2038 1.415 . S
C2040 C2045 1.425 . S
C2040 C2047 1.409 . S
C2041 H2033 0.930 . S
C2041 C2039 1.419 . S
C2041 C2042 1.362 . S
C2042 H2034 0.930 . S
C2042 C2041 1.362 . S
C2042 C2045 1.409 . S
C2043 H2035 0.930 . S
C2043 C2044 1.355 . S
C2043 C2045 1.415 . S
C2044 C2043 1.355 . S
C2044 C2046 1.419 . S
C2045 C2040 1.425 . S
C2045 C2042 1.409 . S
C2045 C2043 1.415 . S
C2046 H2036 0.930 . S
C2046 C2044 1.419 . S
C2046 C2047 1.362 . S
C2047 H2037 0.930 . S
C2047 C2040 1.409 . S
C2047 C2046 1.362 . S
H2048 C2054 0.930 . S
H2049 C2057 0.930 . S
H2050 C2058 0.930 . S
H2051 C2059 0.930 . S
H2052 C2062 0.930 . S
H2053 C2063 0.930 . S
C2054 H2048 0.930 . S
C2054 C2055 1.355 . S
C2054 C2056 1.415 . S
C2055 C2054 1.355 . S
C2055 C2057 1.419 . S
C2056 C2054 1.415 . S
C2056 C2061 1.425 . S
C2056 C2063 1.409 . S
C2057 H2049 0.930 . S
C2057 C2055 1.419 . S
C2057 C2058 1.362 . S
C2058 H2050 0.930 . S
C2058 C2057 1.362 . S
C2058 C2061 1.409 . S
C2059 H2051 0.930 . S
C2059 C2060 1.355 . S
C2059 C2061 1.415 . S
C2060 C2059 1.355 . S
C2060 C2062 1.419 . S
C2061 C2056 1.425 . S
C2061 C2058 1.409 . S
C2061 C2059 1.415 . S
C2062 H2052 0.930 . S
C2062 C2060 1.419 . S
C2062 C2063 1.362 . S
C2063 H2053 0.930 . S
C2063 C2056 1.409 . S
C2063 C2062 1.362 . S
H2064 C2070 0.930 . S
H2065 C2073 0.930 . S
H2066 C2074 0.930 . S
H2067 C2075 0.930 . S
H2068 C2078 0.930 . S
H2069 C2079 0.930 . S
C2070 H2064 0.930 . S
C2070 C2071 1.355 . S
C2070 C2072 1.415 . S
C2071 C2070 1.355 . S
C2071 C2073 1.419 . S
C2072 C2070 1.415 . S
C2072 C2077 1.425 . S
C2072 C2079 1.409 . S
C2073 H2065 0.930 . S
C2073 C2071 1.419 . S
C2073 C2074 1.362 . S
C2074 H2066 0.930 . S
C2074 C2073 1.362 . S
C2074 C2077 1.409 . S
C2075 H2067 0.930 . S
C2075 C2076 1.355 . S
C2075 C2077 1.415 . S
C2076 C2075 1.355 . S
C2076 C2078 1.419 . S
C2077 C2072 1.425 . S
C2077 C2074 1.409 . S
C2077 C2075 1.415 . S
C2078 H2068 0.930 . S
C2078 C2076 1.419 . S
C2078 C2079 1.362 . S
C2079 H2069 0.930 . S
C2079 C2072 1.409 . S
C2079 C2078 1.362 . S
H2080 C2086 0.930 . S
H2081 C2089 0.930 . S
H2082 C2090 0.930 . S
H2083 C2091 0.930 . S
H2084 C2094 0.930 . S
H2085 C2095 0.930 . S
C2086 H2080 0.930 . S
C2086 C2087 1.355 . S
C2086 C2088 1.415 . S
C2087 C2086 1.355 . S
C2087 C2089 1.419 . S
C2088 C2086 1.415 . S
C2088 C2093 1.425 . S
C2088 C2095 1.409 . S
C2089 H2081 0.930 . S
C2089 C2087 1.419 . S
C2089 C2090 1.362 . S
C2090 H2082 0.930 . S
C2090 C2089 1.362 . S
C2090 C2093 1.409 . S
C2091 H2083 0.930 . S
C2091 C2092 1.355 . S
C2091 C2093 1.415 . S
C2092 C2091 1.355 . S
C2092 C2094 1.419 . S
C2093 C2088 1.425 . S
C2093 C2090 1.409 . S
C2093 C2091 1.415 . S
C2094 H2084 0.930 . S
C2094 C2092 1.419 . S
C2094 C2095 1.362 . S
C2095 H2085 0.930 . S
C2095 C2088 1.409 . S
C2095 C2094 1.362 . S
H2096 C2102 0.930 . S
H2097 C2105 0.930 . S
H2098 C2106 0.930 . S
H2099 C2107 0.930 . S
H2100 C2110 0.930 . S
H2101 C2111 0.930 . S
C2102 H2096 0.930 . S
C2102 C2103 1.355 . S
C2102 C2104 1.415 . S
C2103 C2102 1.355 . S
C2103 C2105 1.419 . S
C2104 C2102 1.415 . S
C2104 C2109 1.425 . S
C2104 C2111 1.409 . S
C2105 H2097 0.930 . S
C2105 C2103 1.419 . S
C2105 C2106 1.362 . S
C2106 H2098 0.930 . S
C2106 C2105 1.362 . S
C2106 C2109 1.409 . S
C2107 H2099 0.930 . S
C2107 C2108 1.355 . S
C2107 C2109 1.415 . S
C2108 C2107 1.355 . S
C2108 C2110 1.419 . S
C2109 C2104 1.425 . S
C2109 C2106 1.409 . S
C2109 C2107 1.415 . S
C2110 H2100 0.930 . S
C2110 C2108 1.419 . S
C2110 C2111 1.362 . S
C2111 H2101 0.930 . S
C2111 C2104 1.409 . S
C2111 C2110 1.362 . S
H2112 C2118 0.930 . S
H2113 C2121 0.930 . S
H2114 C2122 0.930 . S
H2115 C2123 0.930 . S
H2116 C2126 0.930 . S
H2117 C2127 0.930 . S
C2118 H2112 0.930 . S
C2118 C2119 1.355 . S
C2118 C2120 1.415 . S
C2119 C2118 1.355 . S
C2119 C2121 1.419 . S
C2120 C2118 1.415 . S
C2120 C2125 1.425 . S
C2120 C2127 1.409 . S
C2121 H2113 0.930 . S
C2121 C2119 1.419 . S
C2121 C2122 1.362 . S
C2122 H2114 0.930 . S
C2122 C2121 1.362 . S
C2122 C2125 1.409 . S
C2123 H2115 0.930 . S
C2123 C2124 1.355 . S
C2123 C2125 1.415 . S
C2124 C2123 1.355 . S
C2124 C2126 1.419 . S
C2125 C2120 1.425 . S
C2125 C2122 1.409 . S
C2125 C2123 1.415 . S
C2126 H2116 0.930 . S
C2126 C2124 1.419 . S
C2126 C2127 1.362 . S
C2127 H2117 0.930 . S
C2127 C2120 1.409 . S
C2127 C2126 1.362 . S
H2128 C2134 0.930 . S
H2129 C2137 0.930 . S
H2130 C2138 0.930 . S
H2131 C2139 0.930 . S
H2132 C2142 0.930 . S
H2133 C2143 0.930 . S
C2134 H2128 0.930 . S
C2134 C2135 1.355 . S
C2134 C2136 1.415 . S
C2135 C2134 1.355 . S
C2135 C2137 1.419 . S
C2136 C2134 1.415 . S
C2136 C2141 1.425 . S
C2136 C2143 1.409 . S
C2137 H2129 0.930 . S
C2137 C2135 1.419 . S
C2137 C2138 1.362 . S
C2138 H2130 0.930 . S
C2138 C2137 1.362 . S
C2138 C2141 1.409 . S
C2139 H2131 0.930 . S
C2139 C2140 1.355 . S
C2139 C2141 1.415 . S
C2140 C2139 1.355 . S
C2140 C2142 1.419 . S
C2141 C2136 1.425 . S
C2141 C2138 1.409 . S
C2141 C2139 1.415 . S
C2142 H2132 0.930 . S
C2142 C2140 1.419 . S
C2142 C2143 1.362 . S
C2143 H2133 0.930 . S
C2143 C2136 1.409 . S
C2143 C2142 1.362 . S
H2144 C2150 0.930 . S
H2145 C2153 0.930 . S
H2146 C2154 0.930 . S
H2147 C2155 0.930 . S
H2148 C2158 0.930 . S
H2149 C2159 0.930 . S
C2150 H2144 0.930 . S
C2150 C2151 1.355 . S
C2150 C2152 1.415 . S
C2151 C2150 1.355 . S
C2151 C2153 1.419 . S
C2152 C2150 1.415 . S
C2152 C2157 1.425 . S
C2152 C2159 1.409 . S
C2153 H2145 0.930 . S
C2153 C2151 1.419 . S
C2153 C2154 1.362 . S
C2154 H2146 0.930 . S
C2154 C2153 1.362 . S
C2154 C2157 1.409 . S
C2155 H2147 0.930 . S
C2155 C2156 1.355 . S
C2155 C2157 1.415 . S
C2156 C2155 1.355 . S
C2156 C2158 1.419 . S
C2157 C2152 1.425 . S
C2157 C2154 1.409 . S
C2157 C2155 1.415 . S
C2158 H2148 0.930 . S
C2158 C2156 1.419 . S
C2158 C2159 1.362 . S
C2159 H2149 0.930 . S
C2159 C2152 1.409 . S
C2159 C2158 1.362 . S
H2160 C2166 0.930 . S
H2161 C2169 0.930 . S
H2162 C2170 0.930 . S
H2163 C2171 0.930 . S
H2164 C2174 0.930 1_545 S
H2165 C2175 0.930 . S
C2166 H2160 0.930 . S
C2166 C2167 1.355 . S
C2166 C2168 1.415 . S
C2167 C2166 1.355 . S
C2167 C2169 1.419 . S
C2168 C2166 1.415 . S
C2168 C2173 1.429 . S
C2168 C2175 1.409 . S
C2169 H2161 0.930 . S
C2169 C2167 1.419 . S
C2169 C2170 1.362 . S
C2170 H2162 0.930 . S
C2170 C2169 1.362 . S
C2170 C2173 1.414 . S
C2171 H2163 0.930 . S
C2171 C2172 1.355 . S
C2171 C2173 1.408 1_556 S
C2172 C2171 1.355 . S
C2172 C2174 1.419 . S
C2173 C2168 1.429 . S
C2173 C2170 1.414 . S
C2173 C2171 1.408 1_554 S
C2174 H2164 0.930 1_565 S
C2174 C2172 1.419 . S
C2174 C2175 1.362 1_556 S
C2175 H2165 0.930 . S
C2175 C2168 1.409 . S
C2175 C2174 1.362 1_554 S
H2176 C2182 0.930 . S
H2177 C2185 0.930 . S
H2178 C2186 0.930 . S
H2179 C2187 0.930 . S
H2180 C2190 0.930 . S
H2181 C2191 0.930 . S
C2182 H2176 0.930 . S
C2182 C2183 1.355 . S
C2182 C2184 1.415 . S
C2183 C2182 1.355 . S
C2183 C2185 1.419 . S
C2184 C2182 1.415 . S
C2184 C2189 1.425 . S
C2184 C2191 1.409 . S
C2185 H2177 0.930 . S
C2185 C2183 1.419 . S
C2185 C2186 1.362 . S
C2186 H2178 0.930 . S
C2186 C2185 1.362 . S
C2186 C2189 1.409 . S
C2187 H2179 0.930 . S
C2187 C2188 1.355 . S
C2187 C2189 1.415 . S
C2188 C2187 1.355 . S
C2188 C2190 1.419 . S
C2189 C2184 1.425 . S
C2189 C2186 1.409 . S
C2189 C2187 1.415 . S
C2190 H2180 0.930 . S
C2190 C2188 1.419 . S
C2190 C2191 1.362 . S
C2191 H2181 0.930 . S
C2191 C2184 1.409 . S
C2191 C2190 1.362 . S
H2192 C2198 0.930 . S
H2193 C2201 0.930 . S
H2194 C2202 0.930 . S
H2195 C2203 0.930 . S
H2196 C2206 0.930 . S
H2197 C2207 0.930 . S
C2198 H2192 0.930 . S
C2198 C2199 1.355 . S
C2198 C2200 1.415 . S
C2199 C2198 1.355 . S
C2199 C2201 1.419 1_554 S
C2200 C2198 1.415 . S
C2200 C2205 1.425 . S
C2200 C2207 1.409 . S
C2201 H2193 0.930 . S
C2201 C2199 1.419 1_556 S
C2201 C2202 1.362 . S
C2202 H2194 0.930 . S
C2202 C2201 1.362 . S
C2202 C2205 1.409 1_556 S
C2203 H2195 0.930 . S
C2203 C2204 1.355 . S
C2203 C2205 1.415 . S
C2204 C2203 1.355 . S
C2204 C2206 1.419 . S
C2205 C2200 1.425 . S
C2205 C2202 1.409 1_554 S
C2205 C2203 1.415 . S
C2206 H2196 0.930 . S
C2206 C2204 1.419 . S
C2206 C2207 1.362 . S
C2207 H2197 0.930 . S
C2207 C2200 1.409 . S
C2207 C2206 1.362 . S
H2208 C2214 0.930 . S
H2209 C2217 0.930 . S
H2210 C2218 0.930 . S
H2211 C2219 0.930 . S
H2212 C2222 0.930 . S
H2213 C2223 0.930 . S
C2214 H2208 0.930 . S
C2214 C2215 1.355 . S
C2214 C2216 1.415 . S
C2215 C2214 1.355 . S
C2215 C2217 1.419 . S
C2216 C2214 1.415 . S
C2216 C2221 1.425 . S
C2216 C2223 1.409 . S
C2217 H2209 0.930 . S
C2217 C2215 1.419 . S
C2217 C2218 1.362 . S
C2218 H2210 0.930 . S
C2218 C2217 1.362 . S
C2218 C2221 1.409 . S
C2219 H2211 0.930 . S
C2219 C2220 1.355 . S
C2219 C2221 1.415 . S
C2220 C2219 1.355 . S
C2220 C2222 1.419 . S
C2221 C2216 1.425 . S
C2221 C2218 1.409 . S
C2221 C2219 1.415 . S
C2222 H2212 0.930 . S
C2222 C2220 1.419 . S
C2222 C2223 1.362 . S
C2223 H2213 0.930 . S
C2223 C2216 1.409 . S
C2223 C2222 1.362 . S
H2224 C2230 0.930 . S
H2225 C2233 0.930 . S
H2226 C2234 0.930 . S
H2227 C2235 0.930 . S
H2228 C2238 0.930 . S
H2229 C2239 0.930 . S
C2230 H2224 0.930 . S
C2230 C2231 1.355 . S
C2230 C2232 1.415 . S
C2231 C2230 1.355 . S
C2231 C2233 1.419 . S
C2232 C2230 1.415 . S
C2232 C2237 1.425 . S
C2232 C2239 1.409 . S
C2233 H2225 0.930 . S
C2233 C2231 1.419 . S
C2233 C2234 1.362 . S
C2234 H2226 0.930 . S
C2234 C2233 1.362 . S
C2234 C2237 1.409 . S
C2235 H2227 0.930 . S
C2235 C2236 1.355 . S
C2235 C2237 1.415 . S
C2236 C2235 1.355 . S
C2236 C2238 1.419 . S
C2237 C2232 1.425 . S
C2237 C2234 1.409 . S
C2237 C2235 1.415 . S
C2238 H2228 0.930 . S
C2238 C2236 1.419 . S
C2238 C2239 1.362 . S
C2239 H2229 0.930 . S
C2239 C2232 1.409 . S
C2239 C2238 1.362 . S
C716 C352 1.282 . S
C711 C8 1.288 . S
C727 C22 1.814 . S
C732 C380 1.603 . S
C743 C35 1.066 . S
C748 C398 1.080 . S
C764 C424 1.428 . S
C759 C49 1.516 . S
C775 C23 1.929 . S
C780 C447 1.716 . S
C796 C467 1.051 . S
C791 C34 1.012 . S
C812 C495 1.302 . S
C807 C48 1.377 . S
C823 C9 1.353 . S
C828 C513 1.335 . S
C839 C64 1.511 . S
C844 C354 1.505 . S
C855 C77 1.042 . S
C860 C376 1.067 . S
C876 C400 1.633 . S
C871 C92 1.619 . S
C892 C421 1.255 . S
C887 C105 1.253 . S
C903 C63 1.200 . S
C908 C444 1.206 . S
C924 C469 1.663 . S
C919 C78 1.630 . S
C940 C491 1.241 . S
C935 C91 1.232 . S
C956 C515 1.513 . S
C951 C106 1.466 . S
C972 C355 1.194 . S
C967 C107 1.270 . S
C988 C538 1.184 . S
C983 C118 1.173 . S
C999 C135 1.409 . S
C1004 C562 1.321 . S
C1020 C586 1.267 . S
C1015 C146 1.264 . S
C1031 C65 1.281 . S
C1036 C516 1.125 . S
C1052 C401 1.288 1_565 S
C1047 C79 1.400 . S
C1063 C132 1.235 . S
C1068 C607 1.278 . S
C1084 C632 1.162 . S
C1079 C160 1.152 . S
C1095 C177 1.347 . S
C1100 C353 1.316 1_556 S
C1116 C630 1.005 . S
C1111 C188 1.041 . S
C1127 C204 1.390 . S
C1132 C399 1.396 . S
C1143 C219 1.124 . S
C1148 C609 1.115 . S
C1164 C448 1.177 . S
C1159 C190 1.180 . S
C1180 C560 1.143 . S
C1175 C202 1.168 . S
C1196 C492 1.043 . S
C1191 C217 1.050 . S
C1212 C652 1.111 . S
C1207 C175 1.124 . S
C1228 C357 0.943 . S
C1223 C231 0.997 . S
C1239 C246 1.500 . S
C1244 C628 1.452 . S
C1260 C403 0.920 . S
C1255 C259 0.965 . S
C1271 C274 1.465 . S
C1276 C606 1.466 . S
C1287 C232 1.465 . S
C1292 C445 1.463 . S
C1303 C245 1.042 . S
C1308 C564 1.050 . S
C1324 C490 1.381 . S
C1319 C260 1.381 . S
C1335 C273 0.981 . S
C1340 C656 0.975 . S
C1351 C275 1.524 . S
C1356 C356 1.442 . S
C1367 C286 1.299 . S
C1372 C541 1.275 . S
C1383 C303 1.483 . S
C1388 C471 1.410 . S
C1399 C314 1.146 . S
C1404 C585 1.066 . S
C1420 C655 1.377 . S
C1415 C233 1.483 . S
C1436 C402 1.449 . S
C1431 C247 1.522 . S
C1452 C426 1.184 . S
C1447 C300 1.237 . S
C1468 C378 1.112 . S
C1463 C328 1.205 . S
C1479 C36 1.324 . S
C1484 C674 1.300 . S
C1500 C633 1.683 . S
C1495 C50 1.813 . S
C1516 C697 1.022 . S
C1511 C7 1.005 . S
C1527 C21 1.508 . S
C1532 C608 1.432 . S
C1543 C51 1.894 . S
C1548 C539 1.643 . S
C1564 C559 1.024 . S
C1559 C6 0.990 . S
C1580 C587 1.282 . S
C1575 C20 1.363 . S
C1596 C651 1.314 . S
C1591 C37 1.338 . S
C1612 C676 1.500 . S
C1607 C162 1.472 . S
C1623 C119 1.059 . S
C1628 C629 1.076 . S
C1639 C134 1.602 . S
C1644 C699 1.638 . S
C1660 C605 1.250 . S
C1655 C147 1.241 . S
C1676 C536 1.168 . S
C1671 C161 1.105 . S
C1687 C120 1.651 . S
C1692 C561 1.635 . S
C1708 C583 1.227 . S
C1703 C133 1.217 . S
C1719 C148 1.494 . S
C1724 C653 1.467 . S
C1740 C677 1.120 . S
C1735 C149 1.268 . S
C1756 C446 1.124 . S
C1751 C76 1.123 . S
C1772 C470 1.246 . S
C1767 C93 1.384 . S
C1783 C104 1.126 . S
C1788 C494 1.133 . S
C1804 C654 1.224 . S
C1799 C163 1.268 . S
C1815 C121 1.378 . S
C1820 C700 1.290 . S
C1836 C423 1.207 . S
C1831 C90 1.166 . S
C1852 C379 1.043 . S
C1847 C62 1.039 . S
C1863 C203 1.087 . S
C1868 C675 1.083 . S
C1884 C377 1.053 . S
C1879 C216 1.066 . S
C1900 C698 1.127 1_556 S
C1895 C174 1.130 . S
C1911 C191 1.156 . S
C1916 C425 1.153 . S
C1927 C218 1.142 . S
C1932 C540 1.136 . S
C1943 C176 1.377 . S
C1948 C468 1.309 . S
C1959 C189 0.993 . S
C1964 C584 1.013 . S
C1975 C205 1.372 . S
C1980 C514 1.377 . S
C1996 C679 0.929 . S
C1991 C329 1.002 . S
C2007 C288 1.471 . S
C2012 C375 1.398 . S
C2028 C702 1.017 . S
C2023 C301 0.997 . S
C2039 C316 1.418 . S
C2044 C422 1.353 . S
C2055 C330 1.537 . S
C2060 C537 1.471 . S
C2076 C472 1.054 . S
C2071 C287 1.022 . S
C2087 C302 1.436 . S
C2092 C582 1.437 . S
C2108 C518 0.962 . S
C2103 C315 1.062 . S
C2124 C678 1.372 . S
C2119 C317 1.477 . S
C2140 C449 1.154 . S
C2135 C244 1.255 . S
C2151 C261 1.449 . S
C2156 C563 1.398 . S
C2172 C493 1.135 1_556 S
C2167 C272 1.220 . S
C2188 C517 1.506 . S
C2183 C331 1.563 . S
C2199 C289 1.458 . S
C2204 C701 1.427 . S
C2220 C610 1.208 . S
C2215 C258 1.177 . S
C2236 C631 1.120 . S
C2231 C230 1.271 . S
