# Generated by pormake.
# Topology ocu, (6,8)-cn, num edge types: 1
# Building blocks:
#     Node 0, Type 0, BuildingBlock: BETDEL_clean_sbu_0, # of connection points: 6
#     Node 1, Type 0, BuildingBlock: BETDEL_clean_sbu_0, # of connection points: 6
#     Node 2, Type 0, BuildingBlock: BETDEL_clean_sbu_0, # of connection points: 6
#     Node 3, Type 0, BuildingBlock: BETDEL_clean_sbu_0, # of connection points: 6
#     Node 4, Type 0, BuildingBlock: BETDEL_clean_sbu_0, # of connection points: 6
#     Node 5, Type 0, BuildingBlock: BETDEL_clean_sbu_0, # of connection points: 6
#     Node 6, Type 0, BuildingBlock: BETDEL_clean_sbu_0, # of connection points: 6
#     Node 7, Type 0, BuildingBlock: BETDEL_clean_sbu_0, # of connection points: 6
#     Node 8, Type 1, BuildingBlock: TAGTUT_clean_sbu_1, # of connection points: 8
#     Node 9, Type 1, BuildingBlock: TAGTUT_clean_sbu_1, # of connection points: 8
#     Node 10, Type 1, BuildingBlock: TAGTUT_clean_sbu_1, # of connection points: 8
#     Node 11, Type 1, BuildingBlock: TAGTUT_clean_sbu_1, # of connection points: 8
#     Node 12, Type 1, BuildingBlock: TAGTUT_clean_sbu_1, # of connection points: 8
#     Node 13, Type 1, BuildingBlock: TAGTUT_clean_sbu_1, # of connection points: 8
#     Edge 14, Type (0, 1), BuildingBlock: MIFKUJ_clean_linker_0, # of connection points: 2
#     Edge 15, Type (0, 1), BuildingBlock: MIFKUJ_clean_linker_0, # of connection points: 2
#     Edge 16, Type (0, 1), BuildingBlock: MIFKUJ_clean_linker_0, # of connection points: 2
#     Edge 17, Type (0, 1), BuildingBlock: MIFKUJ_clean_linker_0, # of connection points: 2
#     Edge 18, Type (0, 1), BuildingBlock: MIFKUJ_clean_linker_0, # of connection points: 2
#     Edge 19, Type (0, 1), BuildingBlock: MIFKUJ_clean_linker_0, # of connection points: 2
#     Edge 20, Type (0, 1), BuildingBlock: MIFKUJ_clean_linker_0, # of connection points: 2
#     Edge 21, Type (0, 1), BuildingBlock: MIFKUJ_clean_linker_0, # of connection points: 2
#     Edge 22, Type (0, 1), BuildingBlock: MIFKUJ_clean_linker_0, # of connection points: 2
#     Edge 23, Type (0, 1), BuildingBlock: MIFKUJ_clean_linker_0, # of connection points: 2
#     Edge 24, Type (0, 1), BuildingBlock: MIFKUJ_clean_linker_0, # of connection points: 2
#     Edge 25, Type (0, 1), BuildingBlock: MIFKUJ_clean_linker_0, # of connection points: 2
#     Edge 26, Type (0, 1), BuildingBlock: MIFKUJ_clean_linker_0, # of connection points: 2
#     Edge 27, Type (0, 1), BuildingBlock: MIFKUJ_clean_linker_0, # of connection points: 2
#     Edge 28, Type (0, 1), BuildingBlock: MIFKUJ_clean_linker_0, # of connection points: 2
#     Edge 29, Type (0, 1), BuildingBlock: MIFKUJ_clean_linker_0, # of connection points: 2
#     Edge 30, Type (0, 1), BuildingBlock: MIFKUJ_clean_linker_0, # of connection points: 2
#     Edge 31, Type (0, 1), BuildingBlock: MIFKUJ_clean_linker_0, # of connection points: 2
#     Edge 32, Type (0, 1), BuildingBlock: MIFKUJ_clean_linker_0, # of connection points: 2
#     Edge 33, Type (0, 1), BuildingBlock: MIFKUJ_clean_linker_0, # of connection points: 2
#     Edge 34, Type (0, 1), BuildingBlock: MIFKUJ_clean_linker_0, # of connection points: 2
#     Edge 35, Type (0, 1), BuildingBlock: MIFKUJ_clean_linker_0, # of connection points: 2
#     Edge 36, Type (0, 1), BuildingBlock: MIFKUJ_clean_linker_0, # of connection points: 2
#     Edge 37, Type (0, 1), BuildingBlock: MIFKUJ_clean_linker_0, # of connection points: 2
#     Edge 38, Type (0, 1), BuildingBlock: MIFKUJ_clean_linker_0, # of connection points: 2
#     Edge 39, Type (0, 1), BuildingBlock: MIFKUJ_clean_linker_0, # of connection points: 2
#     Edge 40, Type (0, 1), BuildingBlock: MIFKUJ_clean_linker_0, # of connection points: 2
#     Edge 41, Type (0, 1), BuildingBlock: MIFKUJ_clean_linker_0, # of connection points: 2
#     Edge 42, Type (0, 1), BuildingBlock: MIFKUJ_clean_linker_0, # of connection points: 2
#     Edge 43, Type (0, 1), BuildingBlock: MIFKUJ_clean_linker_0, # of connection points: 2
#     Edge 44, Type (0, 1), BuildingBlock: MIFKUJ_clean_linker_0, # of connection points: 2
#     Edge 45, Type (0, 1), BuildingBlock: MIFKUJ_clean_linker_0, # of connection points: 2
#     Edge 46, Type (0, 1), BuildingBlock: MIFKUJ_clean_linker_0, # of connection points: 2
#     Edge 47, Type (0, 1), BuildingBlock: MIFKUJ_clean_linker_0, # of connection points: 2
#     Edge 48, Type (0, 1), BuildingBlock: MIFKUJ_clean_linker_0, # of connection points: 2
#     Edge 49, Type (0, 1), BuildingBlock: MIFKUJ_clean_linker_0, # of connection points: 2
#     Edge 50, Type (0, 1), BuildingBlock: MIFKUJ_clean_linker_0, # of connection points: 2
#     Edge 51, Type (0, 1), BuildingBlock: MIFKUJ_clean_linker_0, # of connection points: 2
#     Edge 52, Type (0, 1), BuildingBlock: MIFKUJ_clean_linker_0, # of connection points: 2
#     Edge 53, Type (0, 1), BuildingBlock: MIFKUJ_clean_linker_0, # of connection points: 2
#     Edge 54, Type (0, 1), BuildingBlock: MIFKUJ_clean_linker_0, # of connection points: 2
#     Edge 55, Type (0, 1), BuildingBlock: MIFKUJ_clean_linker_0, # of connection points: 2
#     Edge 56, Type (0, 1), BuildingBlock: MIFKUJ_clean_linker_0, # of connection points: 2
#     Edge 57, Type (0, 1), BuildingBlock: MIFKUJ_clean_linker_0, # of connection points: 2
#     Edge 58, Type (0, 1), BuildingBlock: MIFKUJ_clean_linker_0, # of connection points: 2
#     Edge 59, Type (0, 1), BuildingBlock: MIFKUJ_clean_linker_0, # of connection points: 2
#     Edge 60, Type (0, 1), BuildingBlock: MIFKUJ_clean_linker_0, # of connection points: 2
#     Edge 61, Type (0, 1), BuildingBlock: MIFKUJ_clean_linker_0, # of connection points: 2
# Relax obj value: 0.092
# Max RMSD: 0.255
# Mean RMSD: 0.153
data_MOF--net-ocu--node1-BETDEL_clean_sbu_0--node2-TAGTUT_clean_sbu_1--edge1-MIFKUJ_clean_linker_0
_symmetry_space_group_name_H-M    P1
_symmetry_Int_Tables_number       1
_symmetry_cell_setting            triclinic
loop_
_symmetry_equiv_pos_as_xyz
'x, y, z'
_cell_length_a     48.520023
_cell_length_b     47.099802
_cell_length_c     49.254914
_cell_angle_alpha  91.455438
_cell_angle_beta   93.526342
_cell_angle_gamma 104.45337
loop_
_atom_site_label
_atom_site_type_symbol
_atom_site_fract_x
_atom_site_fract_y
_atom_site_fract_z
_atom_type_partial_charge
Dy0 Dy 0.27622 0.24936 0.26958 0.0
C1 C 0.20576 0.28398 0.18943 0.0
C2 C 0.30742 0.2252 0.30587 0.0
Dy3 Dy 0.23395 0.25603 0.2251 0.0
O4 O 0.31589 0.25113 0.29631 0.0
O5 O 0.28155 0.21289 0.2963 0.0
O6 O 0.30399 0.29409 0.26233 0.0
O7 O 0.28021 0.2683 0.22961 0.0
C8 C 0.29656 0.29308 0.23642 0.0
C9 C 0.21313 0.21264 0.25859 0.0
O10 O 0.25753 0.2298 0.20042 0.0
O11 O 0.28029 0.21479 0.23797 0.0
O12 O 0.1973 0.25634 0.19473 0.0
O13 O 0.22986 0.29579 0.20294 0.0
O14 O 0.20556 0.21155 0.23268 0.0
O15 O 0.22979 0.23732 0.2651 0.0
O16 O 0.2532 0.27577 0.29453 0.0
O17 O 0.22903 0.28973 0.2573 0.0
C18 C 0.27354 0.21325 0.21128 0.0
C19 C 0.23657 0.29178 0.28385 0.0
Dy20 Dy 0.77886 0.23039 0.24783 0.0
C21 C 0.69121 0.28216 0.20357 0.0
C22 C 0.8192 0.20869 0.27483 0.0
Dy23 Dy 0.73134 0.25949 0.22986 0.0
O24 O 0.81451 0.20797 0.24859 0.0
O25 O 0.80157 0.22099 0.28651 0.0
O26 O 0.78217 0.2162 0.20463 0.0
O27 O 0.74275 0.21957 0.21762 0.0
C28 C 0.75584 0.21533 0.19722 0.0
C29 C 0.75521 0.27447 0.28037 0.0
O30 O 0.70468 0.21734 0.24337 0.0
O31 O 0.74107 0.20271 0.26755 0.0
O32 O 0.69979 0.28715 0.22909 0.0
O33 O 0.70487 0.26513 0.1922 0.0
O34 O 0.7285 0.27261 0.27368 0.0
O35 O 0.76776 0.27047 0.2596 0.0
O36 O 0.805 0.27294 0.23469 0.0
O37 O 0.76874 0.2857 0.2087 0.0
C38 C 0.71355 0.20006 0.26084 0.0
C39 C 0.79623 0.28896 0.21593 0.0
Dy40 Dy 0.74414 0.76127 0.2687 0.0
C41 C 0.7875 0.73186 0.16904 0.0
C42 C 0.73316 0.78135 0.31789 0.0
Dy43 Dy 0.77412 0.75047 0.21805 0.0
O44 O 0.71667 0.75917 0.30385 0.0
O45 O 0.75554 0.7927 0.30495 0.0
O46 O 0.70488 0.72754 0.25331 0.0
O47 O 0.74568 0.7227 0.24448 0.0
C48 C 0.71915 0.71224 0.2403 0.0
C49 C 0.79688 0.801 0.24616 0.0
O50 O 0.73745 0.76792 0.19951 0.0
O51 O 0.72299 0.78649 0.23888 0.0
O52 O 0.80225 0.75492 0.1831 0.0
O53 O 0.76547 0.71891 0.18179 0.0
O54 O 0.81242 0.78649 0.23393 0.0
O55 O 0.77096 0.78867 0.24142 0.0
O56 O 0.77941 0.74181 0.28702 0.0
O57 O 0.79566 0.72539 0.24766 0.0
C58 C 0.72159 0.78316 0.21182 0.0
C59 C 0.7958 0.72726 0.27471 0.0
Dy60 Dy 0.26788 0.71718 0.23889 0.0
C61 C 0.21972 0.81572 0.26246 0.0
C62 C 0.2866 0.67781 0.2086 0.0
Dy63 Dy 0.24258 0.77235 0.2439 0.0
O64 O 0.28585 0.67732 0.23505 0.0
O65 O 0.27704 0.69926 0.19938 0.0
O66 O 0.2786 0.71738 0.28415 0.0
O67 O 0.27565 0.7561 0.26497 0.0
C68 C 0.27691 0.74448 0.28762 0.0
C69 C 0.23405 0.74324 0.19581 0.0
O70 O 0.28549 0.79492 0.23097 0.0
O71 O 0.30195 0.75316 0.22275 0.0
O72 O 0.2058 0.7927 0.24782 0.0
O73 O 0.24635 0.81543 0.26635 0.0
O74 O 0.23502 0.77106 0.19806 0.0
O75 O 0.23388 0.73265 0.2189 0.0
O76 O 0.22368 0.69584 0.24937 0.0
O77 O 0.21518 0.73819 0.2688 0.0
C78 C 0.30478 0.78193 0.22217 0.0
C79 C 0.20856 0.70922 0.26446 0.0
Dy80 Dy 0.27724 0.73271 0.75666 0.0
C81 C 0.19874 0.78311 0.69384 0.0
C82 C 0.31125 0.70657 0.78819 0.0
Dy83 Dy 0.23471 0.76226 0.72797 0.0
O84 O 0.29 0.69299 0.77162 0.0
O85 O 0.31371 0.7347 0.78808 0.0
O86 O 0.28342 0.7127 0.71623 0.0
O87 O 0.24361 0.71955 0.7241 0.0
C88 C 0.25774 0.71133 0.70628 0.0
C89 C 0.25295 0.78395 0.77841 0.0
O90 O 0.20451 0.72742 0.74843 0.0
O91 O 0.23816 0.71765 0.77998 0.0
O92 O 0.2184 0.79913 0.71076 0.0
O93 O 0.19908 0.7557 0.69515 0.0
O94 O 0.22789 0.78344 0.76725 0.0
O95 O 0.26784 0.77546 0.76129 0.0
O96 O 0.30771 0.76813 0.73701 0.0
O97 O 0.27411 0.77764 0.70522 0.0
C98 C 0.21129 0.715 0.77079 0.0
C99 C 0.30095 0.78035 0.7145 0.0
Dy100 Dy 0.23242 0.25127 0.76794 0.0
C101 C 0.27656 0.20919 0.67335 0.0
C102 C 0.21748 0.27285 0.81517 0.0
Dy103 Dy 0.26157 0.23512 0.71808 0.0
O104 O 0.20422 0.24809 0.80285 0.0
O105 O 0.23893 0.28582 0.80173 0.0
O106 O 0.19171 0.21992 0.75102 0.0
O107 O 0.23142 0.21108 0.74505 0.0
C108 C 0.20496 0.2024 0.73972 0.0
C109 C 0.289 0.28522 0.74449 0.0
O110 O 0.22467 0.25157 0.69836 0.0
O111 O 0.21575 0.27774 0.73612 0.0
O112 O 0.27909 0.2372 0.67662 0.0
O113 O 0.26531 0.19553 0.69407 0.0
O114 O 0.30216 0.26872 0.73156 0.0
O115 O 0.26247 0.27531 0.74073 0.0
O116 O 0.26599 0.23108 0.78856 0.0
O117 O 0.28335 0.21329 0.75043 0.0
C118 C 0.21247 0.27119 0.70945 0.0
C119 C 0.28247 0.21585 0.77731 0.0
Dy120 Dy 0.7757 0.2196 0.75275 0.0
C121 C 0.72265 0.31545 0.76847 0.0
C122 C 0.79881 0.17518 0.73726 0.0
Dy123 Dy 0.7458 0.27148 0.7516 0.0
O124 O 0.81244 0.19861 0.75156 0.0
O125 O 0.77243 0.1758 0.73206 0.0
O126 O 0.78897 0.23071 0.79753 0.0
O127 O 0.78402 0.26319 0.77063 0.0
C128 C 0.78857 0.25811 0.79512 0.0
C129 C 0.73396 0.23501 0.70805 0.0
O130 O 0.78481 0.29243 0.73097 0.0
O131 O 0.79855 0.24934 0.72159 0.0
O132 O 0.70859 0.29157 0.75508 0.0
O133 O 0.74942 0.31566 0.77164 0.0
O134 O 0.73305 0.2624 0.70715 0.0
O135 O 0.73767 0.22808 0.73233 0.0
O136 O 0.73709 0.19857 0.77367 0.0
O137 O 0.7236 0.24173 0.78306 0.0
C138 C 0.801 0.27783 0.71869 0.0
C139 C 0.7211 0.21325 0.78602 0.0
Dy140 Dy 0.77053 0.74691 0.76555 0.0
C141 C 0.6953 0.77356 0.68449 0.0
C142 C 0.8007 0.72196 0.80207 0.0
Dy143 Dy 0.72679 0.74911 0.72019 0.0
O144 O 0.80918 0.7486 0.79393 0.0
O145 O 0.77547 0.70956 0.79098 0.0
O146 O 0.79537 0.79272 0.75784 0.0
O147 O 0.77291 0.76516 0.72542 0.0
C148 C 0.78765 0.79078 0.73191 0.0
C149 C 0.7097 0.70552 0.75422 0.0
O150 O 0.75205 0.72435 0.69597 0.0
O151 O 0.77938 0.71518 0.73343 0.0
O152 O 0.68887 0.74603 0.69045 0.0
O153 O 0.71939 0.78717 0.69716 0.0
O154 O 0.70179 0.70336 0.72835 0.0
O155 O 0.72442 0.73118 0.76035 0.0
O156 O 0.74602 0.77251 0.78963 0.0
O157 O 0.7182 0.78104 0.75227 0.0
C158 C 0.77121 0.71135 0.70699 0.0
C159 C 0.72676 0.78534 0.77861 0.0
C160 C 0.93854 0.06162 0.53165 0.0
C161 C 0.96792 0.06255 0.45006 0.0
C162 C 0.94848 0.94812 0.45508 0.0
Mg163 Mg 0.99638 0.0619 0.50695 0.0
O164 O 0.97988 0.02147 0.50789 0.0
Mg165 Mg 0.94107 0.00539 0.48898 0.0
Mg166 Mg 1.00003 0.99359 0.49228 0.0
O167 O 0.01973 0.96535 0.47681 0.0
Mg168 Mg 1.00231 0.92491 0.47565 0.0
Mg169 Mg 0.05739 0.97983 0.49806 0.0
C170 C 0.05013 0.03904 0.52947 0.0
C171 C 0.05008 0.02822 0.45379 0.0
O172 O 0.92635 0.03811 0.51732 0.0
O173 O 0.96521 0.07413 0.53104 0.0
O174 O 0.94977 0.03963 0.45673 0.0
O175 O 0.99007 0.07451 0.46556 0.0
O176 O 0.03831 0.06037 0.52546 0.0
O177 O 0.03798 0.01259 0.52117 0.0
C178 C 0.95214 0.95779 0.53188 0.0
O179 O 0.97777 0.96198 0.52462 0.0
O180 O 0.93462 0.97133 0.52132 0.0
O181 O 0.07269 0.94666 0.47089 0.0
O182 O 0.03424 0.9126 0.45279 0.0
O183 O 0.04574 0.94485 0.53014 0.0
C184 C 0.06124 0.92417 0.45499 0.0
O185 O 0.00658 0.91008 0.51626 0.0
O186 O 0.9603 0.92659 0.4574 0.0
C187 C 0.02687 0.92124 0.53409 0.0
O188 O 0.96102 0.97415 0.46421 0.0
O189 O 0.02407 0.02561 0.45992 0.0
O190 O 0.06585 0.01356 0.46579 0.0
C191 C 0.43098 0.06118 0.03911 0.0
C192 C 0.44208 0.05635 0.95352 0.0
C193 C 0.44782 0.93985 0.97273 0.0
Mg194 Mg 0.48453 0.06378 0.00573 0.0
O195 O 0.47522 0.02323 0.01005 0.0
Mg196 Mg 0.43492 0.00126 -0.00065 0.0
Mg197 Mg 0.49787 0.9958 -0.00435 0.0
O198 O 0.52065 0.96838 0.98123 0.0
Mg199 Mg 0.51168 0.92769 0.98465 0.0
Mg200 Mg 0.56083 0.99028 0.99226 0.0
C201 C 0.54824 0.05158 0.01725 0.0
C202 C 0.5338 0.02706 0.94655 0.0
O203 O 0.41953 0.03581 0.02727 0.0
O204 O 0.45674 0.07515 0.03529 0.0
O205 O 0.42958 0.03093 0.96177 0.0
O206 O 0.46504 0.07177 0.96617 0.0
O207 O 0.53122 0.06868 0.01407 0.0
O208 O 0.53945 0.02337 0.0156 0.0
C209 C 0.4625 0.96523 0.04549 0.0
O210 O 0.48598 0.96958 0.03375 0.0
O211 O 0.44143 0.97483 0.03617 0.0
O212 O 0.57695 0.95622 0.96453 0.0
O213 O 0.5398 0.91718 0.9548 0.0
O214 O 0.56564 0.96035 0.02947 0.0
C215 C 0.56574 0.93124 0.95192 0.0
O216 O 0.53076 0.91906 0.02434 0.0
O217 O 0.46522 0.92309 0.97549 0.0
C218 C 0.55336 0.93473 0.03741 0.0
O219 O 0.45618 0.96806 0.97573 0.0
O220 O 0.51006 0.02257 0.95785 0.0
O221 O 0.55466 0.01712 0.95582 0.0
C222 C 0.941 0.57887 0.01242 0.0
C223 C 0.96631 0.55706 0.93501 0.0
C224 C 0.95233 0.44859 0.97461 0.0
Mg225 Mg 0.99802 0.57303 0.99123 0.0
O226 O 0.98413 0.5348 0.00252 0.0
Mg227 Mg 0.94513 0.51307 0.98716 0.0
Mg228 Mg 0.00489 0.50447 -0.00579 0.0
O229 O 0.0254 0.47408 0.9858 0.0
Mg230 Mg 0.01083 0.43611 -0.00268 0.0
Mg231 Mg 0.06474 0.4953 0.00059 0.0
C232 C 0.05683 0.56071 0.01487 0.0
C233 C 0.04749 0.52728 0.94675 0.0
O234 O 0.93005 0.55193 0.00473 0.0
O235 O 0.96733 0.59169 0.01014 0.0
O236 O 0.94954 0.53588 0.94616 0.0
O237 O 0.98842 0.57315 0.94815 0.0
O238 O 0.04224 0.57867 0.00673 0.0
O239 O 0.04568 0.53295 0.01561 0.0
C240 C 0.96189 0.48154 0.04139 0.0
O241 O 0.98705 0.48364 0.03347 0.0
O242 O 0.9433 0.49125 0.02744 0.0
O243 O 0.07897 0.45534 0.98257 0.0
O244 O 0.04036 0.41683 0.97779 0.0
O245 O 0.06094 0.47257 0.04168 0.0
C246 C 0.06686 0.42849 0.97507 0.0
O247 O 0.02153 0.43594 0.04004 0.0
O248 O 0.96621 0.43018 0.98306 0.0
C249 C 0.04404 0.45158 0.05292 0.0
O250 O 0.96441 0.47596 0.97279 0.0
O251 O 0.02248 0.52525 0.95497 0.0
O252 O 0.06617 0.51731 0.96033 0.0
C253 C 0.43946 0.55712 0.01892 0.0
C254 C 0.47839 0.55694 0.9415 0.0
C255 C 0.46068 0.44205 0.95446 0.0
Mg256 Mg 0.50035 0.55906 0.00141 0.0
O257 O 0.48491 0.51849 0.0031 0.0
Mg258 Mg 0.44864 0.50038 0.98053 0.0
Mg259 Mg 0.50751 0.49063 0.99273 0.0
O260 O 0.52966 0.46246 0.98209 0.0
Mg261 Mg 0.51244 0.42218 0.9841 0.0
Mg262 Mg 0.56514 0.47953 0.00604 0.0
C263 C 0.5537 0.54 0.03019 0.0
C264 C 0.56036 0.52437 0.95772 0.0
O265 O 0.42974 0.5332 0.00442 0.0
O266 O 0.46601 0.57068 0.02105 0.0
O267 O 0.46023 0.5333 0.94674 0.0
O268 O 0.49783 0.57034 0.9593 0.0
O269 O 0.54138 0.56029 0.02338 0.0
O270 O 0.54259 0.5128 0.02381 0.0
C271 C 0.45542 0.45563 0.02835 0.0
O272 O 0.48215 0.46058 0.02457 0.0
O273 O 0.43897 0.46781 0.01411 0.0
O274 O 0.58388 0.44477 0.98406 0.0
O275 O 0.54699 0.408 0.96739 0.0
O276 O 0.55044 0.44769 0.04002 0.0
C277 C 0.57382 0.42036 0.97032 0.0
O278 O 0.51158 0.41254 0.02636 0.0
O279 O 0.47207 0.42103 0.96092 0.0
C280 C 0.53043 0.42536 0.04486 0.0
O281 O 0.47226 0.46889 0.96157 0.0
O282 O 0.53365 0.52061 0.96141 0.0
O283 O 0.57609 0.51128 0.97198 0.0
C284 C 0.93525 0.566 0.53583 0.0
C285 C 0.95291 0.56642 0.45144 0.0
C286 C 0.955 0.44769 0.46824 0.0
Mg287 Mg 0.99125 0.56984 0.50609 0.0
O288 O 0.98099 0.52892 0.50786 0.0
Mg289 Mg 0.94128 0.5083 0.49385 0.0
Mg290 Mg 0.0044 0.50178 0.49419 0.0
O291 O 0.02786 0.47468 0.48062 0.0
Mg292 Mg 0.01744 0.43377 0.48353 0.0
Mg293 Mg 0.06739 0.4954 0.49548 0.0
C294 C 0.05369 0.55573 0.52154 0.0
C295 C 0.04603 0.53663 0.45022 0.0
O296 O 0.92417 0.54168 0.52199 0.0
O297 O 0.96161 0.57962 0.53453 0.0
O298 O 0.93968 0.5405 0.45785 0.0
O299 O 0.97498 0.58105 0.46599 0.0
O300 O 0.03713 0.57322 0.5177 0.0
O301 O 0.04469 0.52757 0.51837 0.0
C302 C 0.96358 0.46781 0.53917 0.0
O303 O 0.98829 0.47269 0.52968 0.0
O304 O 0.94383 0.47892 0.52915 0.0
O305 O 0.08439 0.46256 0.46707 0.0
O306 O 0.04778 0.423 0.45644 0.0
O307 O 0.06889 0.46259 0.53138 0.0
C308 C 0.07373 0.43751 0.45438 0.0
O309 O 0.03312 0.42251 0.52346 0.0
O310 O 0.97149 0.4302 0.47238 0.0
C311 C 0.05543 0.43675 0.53781 0.0
O312 O 0.9639 0.4759 0.47052 0.0
O313 O 0.02065 0.53064 0.45834 0.0
O314 O 0.06562 0.52583 0.46104 0.0
C315 C 0.43417 0.06096 0.51168 0.0
C316 C 0.46697 0.05139 0.43444 0.0
C317 C 0.4597 0.94019 0.45808 0.0
Mg318 Mg 0.49418 0.06189 0.4926 0.0
O319 O 0.48115 0.02225 0.49978 0.0
Mg320 Mg 0.44401 -9e-05 0.48058 0.0
Mg321 Mg 0.50555 0.99575 0.49069 0.0
O322 O 0.52974 0.96894 0.48164 0.0
Mg323 Mg 0.51569 0.92915 0.48785 0.0
Mg324 Mg 0.56562 0.99047 0.50321 0.0
C325 C 0.55211 0.05167 0.5195 0.0
C326 C 0.55326 0.0271 0.45054 0.0
O327 O 0.42436 0.0348 0.50113 0.0
O328 O 0.46046 0.075 0.51142 0.0
O329 O 0.4501 0.02841 0.44289 0.0
O330 O 0.48795 0.06662 0.44966 0.0
O331 O 0.53755 0.06949 0.51109 0.0
O332 O 0.54191 0.02373 0.51806 0.0
C333 C 0.45934 0.96275 0.53161 0.0
O334 O 0.48541 0.96901 0.52558 0.0
O335 O 0.44017 0.97193 0.51793 0.0
O336 O 0.58613 0.95531 0.48518 0.0
O337 O 0.55088 0.91499 0.47329 0.0
O338 O 0.55585 0.96205 0.54084 0.0
C339 C 0.57728 0.92894 0.47503 0.0
O340 O 0.51778 0.92457 0.53093 0.0
O341 O 0.47439 0.92197 0.46497 0.0
C342 C 0.53748 0.9393 0.54782 0.0
O343 O 0.46855 0.96787 0.46359 0.0
O344 O 0.52686 0.02232 0.45569 0.0
O345 O 0.57129 0.01742 0.46545 0.0
H346 H 0.21152 0.22472 0.31292 0.0
H347 H 0.18107 0.19588 0.34526 0.0
H348 H 0.14533 0.1295 0.28201 0.0
H349 H 0.17501 0.15908 0.24922 0.0
H350 H 0.10442 0.13553 0.31097 0.0
H351 H 0.1968 0.1206 0.33284 0.0
H352 H 0.24875 0.13491 0.34413 0.0
H353 H 0.23642 0.1814 0.41669 0.0
H354 H 0.18432 0.1674 0.40574 0.0
H355 H 0.09787 0.02659 0.42863 0.0
H356 H 0.12198 0.05883 0.39531 0.0
H357 H 0.05715 0.10702 0.3956 0.0
H358 H 0.03219 0.0738 0.4292 0.0
H359 H 0.14747 0.11275 0.39903 0.0
H360 H 0.055 0.13988 0.33281 0.0
H361 H 0.00616 0.1166 0.31345 0.0
H362 H 0.0219 0.03139 0.32178 0.0
H363 H 0.07082 0.05413 0.341 0.0
C364 C 0.19729 0.2039 0.3059 0.0
C365 C 0.19586 0.19405 0.27851 0.0
C366 C 0.17986 0.18735 0.32448 0.0
C367 C 0.16103 0.16017 0.31633 0.0
C368 C 0.15956 0.15036 0.28892 0.0
C369 C 0.17671 0.16716 0.2702 0.0
C370 C 0.14332 0.14181 0.33646 0.0
C371 C 0.11383 0.13071 0.33031 0.0
C372 C 0.15546 0.13486 0.36154 0.0
C373 C 0.18672 0.14322 0.36833 0.0
C374 C 0.20519 0.13403 0.35112 0.0
C375 C 0.23465 0.14206 0.35747 0.0
C376 C 0.24591 0.1592 0.38104 0.0
C377 C 0.22768 0.16818 0.3984 0.0
C378 C 0.19817 0.16015 0.39217 0.0
C379 C 0.08849 0.04397 0.42175 0.0
C380 C 0.0631 0.04773 0.43203 0.0
C381 C 0.10249 0.06255 0.40257 0.0
C382 C 0.09176 0.08572 0.39294 0.0
C383 C 0.06595 0.08928 0.40255 0.0
C384 C 0.05167 0.07034 0.42183 0.0
C385 C 0.10846 0.10613 0.37351 0.0
C386 C 0.13787 0.11786 0.3799 0.0
C387 C 0.09641 0.11256 0.34819 0.0
C388 C 0.06643 0.09871 0.3386 0.0
C389 C 0.04793 0.11617 0.33069 0.0
C390 C 0.02029 0.10308 0.31968 0.0
C391 C 0.01103 0.07256 0.31629 0.0
C392 C 0.02914 0.05502 0.32443 0.0
C393 C 0.05678 0.068 0.33548 0.0
H394 H 0.98995 0.0625 0.30708 0.0
H395 H 0.26874 0.16543 0.38589 0.0
H396 H 0.82917 0.20526 0.3295 0.0
H397 H 0.86477 0.18389 0.35272 0.0
H398 H 0.89506 0.16546 0.27524 0.0
H399 H 0.85903 0.18616 0.25193 0.0
H400 H 0.88659 0.11907 0.30475 0.0
H401 H 0.93592 0.21952 0.31979 0.0
H402 H 0.94141 0.27156 0.33312 0.0
H403 H 0.92298 0.24815 0.41493 0.0
H404 H 0.91697 0.19592 0.40204 0.0
H405 H 1.00177 0.10843 0.42412 0.0
H406 H 0.98674 0.13462 0.38576 0.0
H407 H 0.90209 0.07685 0.38394 0.0
H408 H 0.91726 0.04961 0.42023 0.0
H409 H 0.95006 0.16539 0.38505 0.0
H410 H 0.86458 0.07168 0.32461 0.0
H411 H 0.85717 0.01909 0.31269 0.0
H412 H 0.94746 0.02805 0.32155 0.0
H413 H 0.95558 0.08106 0.33279 0.0
C414 C 0.84358 0.19683 0.3175 0.0
C415 C 0.84136 0.19718 0.289 0.0
C416 C 0.86405 0.18487 0.33075 0.0
C417 C 0.88283 0.17346 0.3157 0.0
C418 C 0.88086 0.17425 0.28721 0.0
C419 C 0.86028 0.18603 0.27396 0.0
C420 C 0.9029 0.15864 0.32965 0.0
C421 C 0.90077 0.1292 0.32213 0.0
C422 C 0.92181 0.17223 0.35189 0.0
C423 C 0.9259 0.20373 0.35989 0.0
C424 C 0.93291 0.22544 0.3406 0.0
C425 C 0.93612 0.25499 0.34808 0.0
C426 C 0.93251 0.26316 0.37484 0.0
C427 C 0.92578 0.2418 0.39421 0.0
C428 C 0.92253 0.21221 0.38683 0.0
C429 C 0.98024 0.10084 0.41492 0.0
C430 C 0.96081 0.07683 0.42516 0.0
C431 C 0.97162 0.1159 0.39313 0.0
C432 C 0.94338 0.10744 0.38162 0.0
C433 C 0.92423 0.08327 0.3917 0.0
C434 C 0.93296 0.06782 0.41278 0.0
C435 C 0.93271 0.12525 0.36102 0.0
C436 C 0.93656 0.15533 0.36724 0.0
C437 C 0.91528 0.11216 0.33756 0.0
C438 C 0.91076 0.08051 0.3295 0.0
C439 C 0.88296 0.06264 0.3236 0.0
C440 C 0.87861 0.03272 0.31702 0.0
C441 C 0.90186 0.0203 0.31629 0.0
C442 C 0.92952 0.0378 0.322 0.0
C443 C 0.93402 0.0678 0.32842 0.0
H444 H 0.89844 -0.00288 0.31135 0.0
H445 H 0.93494 0.28604 0.38057 0.0
H446 H 0.76552 0.83704 0.26389 0.0
H447 H 0.78096 0.87868 0.29661 0.0
H448 H 0.86685 0.86788 0.29922 0.0
H449 H 0.85144 0.82622 0.26631 0.0
H450 H 0.79875 0.87411 0.34632 0.0
H451 H 0.91489 0.92973 0.31677 0.0
H452 H 0.93913 0.94727 0.2756 0.0
H453 H 0.85934 0.95213 0.23572 0.0
H454 H 0.83463 0.93505 0.27679 0.0
H455 H 0.90962 0.89593 0.44324 0.0
H456 H 0.87007 0.88645 0.40867 0.0
H457 H 0.88506 0.97933 0.39638 0.0
H458 H 0.92499 0.98894 0.43085 0.0
H459 H 0.88959 0.95124 0.3512 0.0
H460 H 0.81868 0.94089 0.41261 0.0
H461 H 0.79199 0.92657 0.45319 0.0
H462 H 0.77776 0.83565 0.42876 0.0
H463 H 0.80481 0.84928 0.38836 0.0
C464 C 0.78782 0.84389 0.27111 0.0
C465 C 0.80729 0.82824 0.26298 0.0
C466 C 0.79659 0.86777 0.28967 0.0
C467 C 0.82505 0.87653 0.30022 0.0
C468 C 0.84487 0.86186 0.29095 0.0
C469 C 0.83606 0.83793 0.27234 0.0
C470 C 0.83327 0.89769 0.32383 0.0
C471 C 0.81841 0.89119 0.34738 0.0
C472 C 0.8581 0.92106 0.3248 0.0
C473 C 0.87286 0.93097 0.29989 0.0
C474 C 0.9025 0.93465 0.29928 0.0
C475 C 0.91633 0.9445 0.27594 0.0
C476 C 0.90078 0.95077 0.25305 0.0
C477 C 0.87135 0.94719 0.25345 0.0
C478 C 0.8574 0.93737 0.27674 0.0
C479 C 0.90398 0.91441 0.43378 0.0
C480 C 0.92069 0.94312 0.43942 0.0
C481 C 0.88112 0.90901 0.41421 0.0
C482 C 0.87458 0.93222 0.39996 0.0
C483 C 0.88968 0.96115 0.40724 0.0
C484 C 0.91249 0.96658 0.42697 0.0
C485 C 0.85655 0.92537 0.37417 0.0
C486 C 0.86945 0.93469 0.35008 0.0
C487 C 0.82974 0.90474 0.37269 0.0
C488 C 0.81389 0.89619 0.39736 0.0
C489 C 0.81011 0.91782 0.41599 0.0
C490 C 0.79488 0.90981 0.43898 0.0
C491 C 0.78326 0.88022 0.44358 0.0
C492 C 0.78684 0.85856 0.42521 0.0
C493 C 0.80209 0.86644 0.40222 0.0
H494 H 0.77144 0.87406 0.46136 0.0
H495 H 0.91154 0.95842 0.23501 0.0
H496 H 0.16341 0.81437 0.26037 0.0
H497 H 0.1396 0.83915 0.29213 0.0
H498 H 0.2213 0.885 0.33109 0.0
H499 H 0.24523 0.85961 0.29963 0.0
H500 H 0.18707 0.85846 0.36726 0.0
H501 H 0.17854 0.922 0.29533 0.0
H502 H 0.16735 0.9355 0.24866 0.0
H503 H 0.07935 0.8904 0.25374 0.0
H504 H 0.09007 0.87626 0.30032 0.0
H505 H 0.11956 0.94007 0.45548 0.0
H506 H 0.14926 0.92561 0.4221 0.0
H507 H 0.07441 0.86909 0.37967 0.0
H508 H 0.04447 0.88336 0.41283 0.0
H509 H 0.10872 0.90646 0.34575 0.0
H510 H 0.11867 0.83971 0.41616 0.0
H511 H 0.1301 0.8261 0.46275 0.0
H512 H 0.21618 0.87815 0.4602 0.0
H513 H 0.20514 0.89242 0.41371 0.0
C514 C 0.17632 0.8303 0.27525 0.0
C515 C 0.2061 0.8351 0.27764 0.0
C516 C 0.1627 0.84453 0.29335 0.0
C517 C 0.17869 0.86404 0.31391 0.0
C518 C 0.20859 0.87003 0.31536 0.0
C519 C 0.22222 0.85568 0.29731 0.0
C520 C 0.16398 0.87557 0.33548 0.0
C521 C 0.17037 0.86958 0.3626 0.0
C522 C 0.14175 0.8894 0.32931 0.0
C523 C 0.13517 0.8979 0.30129 0.0
C524 C 0.15684 0.91477 0.28643 0.0
C525 C 0.15057 0.92257 0.26 0.0
C526 C 0.12267 0.91377 0.24822 0.0
C527 C 0.10096 0.8972 0.26288 0.0
C528 C 0.10711 0.88932 0.28932 0.0
C529 C 0.1094 0.92429 0.43924 0.0
C530 C 0.0796 0.91295 0.43679 0.0
C531 C 0.12643 0.91606 0.42021 0.0
C532 C 0.11396 0.89637 0.39844 0.0
C533 C 0.08436 0.88443 0.3963 0.0
C534 C 0.06733 0.8925 0.41538 0.0
C535 C 0.13159 0.88894 0.3773 0.0
C536 C 0.1257 0.89571 0.35033 0.0
C537 C 0.15434 0.87593 0.3836 0.0
C538 C 0.16098 0.86743 0.41158 0.0
C539 C 0.13996 0.8485 0.42564 0.0
C540 C 0.14638 0.84061 0.45201 0.0
C541 C 0.17382 0.85133 0.46447 0.0
C542 C 0.19492 0.86991 0.45055 0.0
C543 C 0.18859 0.87789 0.42419 0.0
H544 H 0.17876 0.84518 0.48488 0.0
H545 H 0.11786 0.91984 0.22775 0.0
H546 H 0.15335 0.75131 0.6615 0.0
H547 H 0.11577 0.76958 0.6377 0.0
H548 H 0.15813 0.85784 0.66681 0.0
H549 H 0.19542 0.83963 0.69091 0.0
H550 H 0.10139 0.84564 0.67309 0.0
H551 H 0.16271 0.83426 0.60155 0.0
H552 H 0.18805 0.80674 0.573 0.0
H553 H 0.1085 0.74651 0.54586 0.0
H554 H 0.08272 0.77351 0.57451 0.0
H555 H 0.05983 0.94095 0.58089 0.0
H556 H 0.07937 0.91109 0.6127 0.0
H557 H 0.02645 0.83242 0.57178 0.0
H558 H 0.00677 0.86224 0.53974 0.0
H559 H 0.081 0.83209 0.57303 0.0
H560 H 0.01897 0.84579 0.64065 0.0
H561 H 0.99303 0.87409 0.66771 0.0
H562 H 0.07262 0.9291 0.70192 0.0
H563 H 0.09895 0.90145 0.67461 0.0
C564 C 0.15469 0.77462 0.66261 0.0
C565 C 0.17726 0.79413 0.6779 0.0
C566 C 0.13323 0.78501 0.64907 0.0
C567 C 0.13422 0.81507 0.65047 0.0
C568 C 0.15691 0.83455 0.6656 0.0
C569 C 0.17828 0.82417 0.67917 0.0
C570 C 0.11179 0.82649 0.63609 0.0
C571 C 0.09697 0.84279 0.6512 0.0
C572 C 0.10534 0.82186 0.60768 0.0
C573 C 0.12084 0.80568 0.59043 0.0
C574 C 0.15066 0.815 0.58966 0.0
C575 C 0.16509 0.79953 0.57343 0.0
C576 C 0.14991 0.77483 0.5577 0.0
C577 C 0.12024 0.76561 0.5581 0.0
C578 C 0.10571 0.781 0.57432 0.0
C579 C 0.05163 0.91732 0.5792 0.0
C580 C 0.03204 0.90396 0.5576 0.0
C581 C 0.06274 0.90023 0.5975 0.0
C582 C 0.05442 0.86948 0.59458 0.0
C583 C 0.03322 0.85611 0.57432 0.0
C584 C 0.02184 0.87322 0.55616 0.0
C585 C 0.07098 0.85184 0.60992 0.0
C586 C 0.08483 0.8344 0.59501 0.0
C587 C 0.07647 0.85534 0.63848 0.0
C588 C 0.06087 0.87176 0.65537 0.0
C589 C 0.03088 0.86413 0.65373 0.0
C590 C 0.01613 0.88 0.66915 0.0
C591 C 0.03117 0.90344 0.68648 0.0
C592 C 0.06099 0.91096 0.68848 0.0
C593 C 0.07584 0.89516 0.67306 0.0
H594 H 0.01973 0.91572 0.6984 0.0
H595 H 0.16112 0.76287 0.54515 0.0
H596 H 0.22048 0.15096 0.73671 0.0
H597 H 0.19747 0.10731 0.70802 0.0
H598 H 0.1377 0.15316 0.67334 0.0
H599 H 0.15897 0.19547 0.70402 0.0
H600 H 0.11027 0.10178 0.67948 0.0
H601 H 0.20572 0.13166 0.62616 0.0
H602 H 0.25745 0.13747 0.6246 0.0
H603 H 0.25332 0.06591 0.67785 0.0
H604 H 0.20117 0.05882 0.67851 0.0
H605 H 0.08744 0.09154 0.54311 0.0
H606 H 0.11925 0.10283 0.58431 0.0
H607 H 0.10213 0.01084 0.60071 0.0
H608 H 0.0699 -0.00084 0.55945 0.0
H609 H 0.16679 0.06385 0.61322 0.0
H610 H 0.06936 0.02278 0.63767 0.0
H611 H 0.01732 0.01391 0.6281 0.0
H612 H 0.0253 0.10681 0.62875 0.0
H613 H 0.07746 0.11618 0.63787 0.0
C614 C 0.20227 0.15142 0.72299 0.0
C615 C 0.19129 0.1763 0.72245 0.0
C616 C 0.18939 0.12663 0.70628 0.0
C617 C 0.16617 0.12691 0.68788 0.0
C618 C 0.15541 0.15208 0.68745 0.0
C619 C 0.16756 0.17634 0.70488 0.0
C620 C 0.15272 0.10164 0.66869 0.0
C621 C 0.12276 0.09314 0.66536 0.0
C622 C 0.16858 0.08894 0.65081 0.0
C623 C 0.19993 0.09535 0.65307 0.0
C624 C 0.21601 0.11757 0.6379 0.0
C625 C 0.24535 0.1209 0.637 0.0
C626 C 0.25882 0.10241 0.65153 0.0
C627 C 0.24292 0.08038 0.66681 0.0
C628 C 0.21346 0.07656 0.6673 0.0
C629 C 0.09114 0.07358 0.55493 0.0
C630 C 0.07574 0.04456 0.5484 0.0
C631 C 0.10933 0.08007 0.57841 0.0
C632 C 0.11243 0.05765 0.59557 0.0
C633 C 0.09975 0.02833 0.58762 0.0
C634 C 0.08146 0.02176 0.56401 0.0
C635 C 0.12498 0.06607 0.6234 0.0
C636 C 0.15447 0.0714 0.62826 0.0
C637 C 0.10871 0.07563 0.64282 0.0
C638 C 0.07728 0.07015 0.63833 0.0
C639 C 0.06001 0.04129 0.63565 0.0
C640 C 0.0305 0.03618 0.63031 0.0
C641 C 0.01801 0.05979 0.62779 0.0
C642 C 0.035 0.08855 0.63071 0.0
C643 C 0.06453 0.09377 0.63601 0.0
H644 H 0.99517 0.0558 0.62359 0.0
H645 H 0.2815 0.10482 0.65072 0.0
H646 H 0.77303 0.12661 0.70541 0.0
H647 H 0.79598 0.10131 0.67308 0.0
H648 H 0.87842 0.1549 0.70319 0.0
H649 H 0.85565 0.17981 0.73597 0.0
H650 H 0.86662 0.16103 0.64917 0.0
H651 H 0.86101 0.08082 0.70954 0.0
H652 H 0.83675 0.04124 0.7381 0.0
H653 H 0.78238 -0.00054 0.66883 0.0
H654 H 0.80603 0.03904 0.63992 0.0
H655 H 0.95837 0.1056 0.5705 0.0
H656 H 0.9322 0.12119 0.60614 0.0
H657 H 0.85484 0.05973 0.57376 0.0
H658 H 0.88111 0.04335 0.53819 0.0
H659 H 0.86072 0.05627 0.6272 0.0
H660 H 0.86425 0.13375 0.56668 0.0
H661 H 0.88563 0.17301 0.53649 0.0
H662 H 0.93962 0.22007 0.60384 0.0
H663 H 0.91885 0.18087 0.63437 0.0
C664 C 0.79611 0.13229 0.70572 0.0
C665 C 0.81261 0.15532 0.72293 0.0
C666 C 0.80918 0.11789 0.68718 0.0
C667 C 0.83884 0.12659 0.68545 0.0
C668 C 0.85547 0.14801 0.70413 0.0
C669 C 0.84246 0.16215 0.72289 0.0
C670 C 0.85205 0.11668 0.66191 0.0
C671 C 0.86583 0.13816 0.64465 0.0
C672 C 0.84949 0.08673 0.65521 0.0
C673 C 0.83512 0.06305 0.67262 0.0
C674 C 0.84369 0.06335 0.70045 0.0
C675 C 0.83009 0.04088 0.71669 0.0
C676 C 0.80797 0.01791 0.70531 0.0
C677 C 0.79947 0.0173 0.67763 0.0
C678 C 0.81299 0.03973 0.66131 0.0
C679 C 0.93572 0.0956 0.57064 0.0
C680 C 0.92185 0.07324 0.55139 0.0
C681 C 0.92075 0.10461 0.59106 0.0
C682 C 0.8915 0.09182 0.59248 0.0
C683 C 0.87742 0.06988 0.57304 0.0
C684 C 0.89244 0.06067 0.55264 0.0
C685 C 0.87609 0.10075 0.61495 0.0
C686 C 0.86162 0.07915 0.63179 0.0
C687 C 0.87752 0.1306 0.62107 0.0
C688 C 0.89017 0.15421 0.60277 0.0
C689 C 0.88086 0.15234 0.57501 0.0
C690 C 0.89283 0.17461 0.55784 0.0
C691 C 0.91402 0.19899 0.56823 0.0
C692 C 0.92323 0.20116 0.59582 0.0
C693 C 0.91134 0.17893 0.61307 0.0
H694 H 0.92326 0.21621 0.5549 0.0
H695 H 0.79749 0.00053 0.71792 0.0
H696 H 0.82526 0.84462 0.74153 0.0
H697 H 0.85535 0.87396 0.70882 0.0
H698 H 0.81694 0.80957 0.64474 0.0
H699 H 0.78669 0.78045 0.67713 0.0
H700 H 0.87556 0.82394 0.64634 0.0
H701 H 0.80066 0.87384 0.64701 0.0
H702 H 0.76867 0.90044 0.66729 0.0
H703 H 0.84092 0.96913 0.69762 0.0
H704 H 0.87342 0.94265 0.67793 0.0
H705 H 0.91789 0.90255 0.52711 0.0
H706 H 0.89332 0.87416 0.56362 0.0
H707 H 0.93736 0.94209 0.62266 0.0
H708 H 0.96229 0.97022 0.58612 0.0
H709 H 0.87849 0.92721 0.62598 0.0
H710 H 0.95328 0.87918 0.62445 0.0
H711 H 0.98592 0.85342 0.60465 0.0
H712 H 0.9152 0.78168 0.57717 0.0
H713 H 0.88186 0.80753 0.59617 0.0
C714 C 0.82297 0.83698 0.72038 0.0
C715 C 0.80364 0.81023 0.71192 0.0
C716 C 0.84017 0.85374 0.70172 0.0
C717 C 0.83843 0.84395 0.67432 0.0
C718 C 0.81871 0.81753 0.66578 0.0
C719 C 0.80133 0.80097 0.68431 0.0
C720 C 0.85781 0.86057 0.65468 0.0
C721 C 0.87595 0.84641 0.64164 0.0
C722 C 0.85899 0.89021 0.64921 0.0
C723 C 0.83951 0.90604 0.66131 0.0
C724 C 0.80976 0.89444 0.65828 0.0
C725 C 0.79153 0.90953 0.66961 0.0
C726 C 0.80276 0.9364 0.68383 0.0
C727 C 0.83225 0.94827 0.68667 0.0
C728 C 0.85059 0.93322 0.67544 0.0
C729 C 0.92294 0.91086 0.54802 0.0
C730 C 0.9423 0.93817 0.55401 0.0
C731 C 0.90883 0.89477 0.56883 0.0
C732 C 0.91348 0.906 0.59591 0.0
C733 C 0.93346 0.93299 0.60196 0.0
C734 C 0.94789 0.94888 0.58117 0.0
C735 C 0.89602 0.89046 0.61744 0.0
C736 C 0.87822 0.9048 0.63081 0.0
C737 C 0.8952 0.86102 0.62331 0.0
C738 C 0.91503 0.84548 0.61147 0.0
C739 C 0.94461 0.85809 0.61388 0.0
C740 C 0.96328 0.84342 0.60282 0.0
C741 C 0.95272 0.81592 0.58957 0.0
C742 C 0.92338 0.80304 0.58734 0.0
C743 C 0.90456 0.81773 0.59822 0.0
H744 H 0.96728 0.80458 0.5811 0.0
H745 H 0.78859 0.94803 0.69257 0.0
H746 H 0.30627 0.17544 0.22644 0.0
H747 H 0.33157 0.14899 0.1975 0.0
H748 H 0.29749 0.18321 0.12623 0.0
H749 H 0.27224 0.21001 0.15508 0.0
H750 H 0.31801 0.10708 0.15976 0.0
H751 H 0.34676 0.19355 0.07701 0.0
H752 H 0.35829 0.24718 0.07255 0.0
H753 H 0.38267 0.26022 0.15813 0.0
H754 H 0.37176 0.20666 0.16303 0.0
H755 H 0.37378 0.04262 0.04882 0.0
H756 H 0.34617 0.0667 0.0776 0.0
H757 H 0.42181 0.13549 0.10026 0.0
H758 H 0.44926 0.11201 0.07108 0.0
H759 H 0.38115 0.16005 0.09211 0.0
H760 H 0.39078 0.07861 0.14417 0.0
H761 H 0.38738 0.02664 0.15327 0.0
H762 H 0.29643 0.00635 0.13718 0.0
H763 H 0.29934 0.05816 0.12763 0.0
C764 C 0.3039 0.17726 0.20459 0.0
C765 C 0.28705 0.19505 0.19326 0.0
C766 C 0.31846 0.16199 0.18799 0.0
C767 C 0.31691 0.16416 0.15953 0.0
C768 C 0.29955 0.18135 0.14808 0.0
C769 C 0.28487 0.19658 0.16468 0.0
C770 C 0.3338 0.14887 0.14205 0.0
C771 C 0.33165 0.11872 0.14486 0.0
C772 C 0.35236 0.16385 0.12294 0.0
C773 C 0.3581 0.19607 0.12041 0.0
C774 C 0.35454 0.20786 0.09488 0.0
C775 C 0.36102 0.23825 0.09227 0.0
C776 C 0.37118 0.25707 0.11505 0.0
C777 C 0.37472 0.24558 0.14052 0.0
C778 C 0.36835 0.21521 0.14323 0.0
C779 C 0.38463 0.06281 0.05999 0.0
C780 C 0.41394 0.07518 0.05747 0.0
C781 C 0.36875 0.07659 0.07665 0.0
C782 C 0.38173 0.10299 0.09158 0.0
C783 C 0.411 0.11529 0.08907 0.0
C784 C 0.42681 0.10166 0.07233 0.0
C785 C 0.36498 0.11814 0.10941 0.0
C786 C 0.36723 0.1483 0.10675 0.0
C787 C 0.34716 0.10335 0.12918 0.0
C788 C 0.34532 0.0722 0.1349 0.0
C789 C 0.37008 0.06302 0.14237 0.0
C790 C 0.36824 0.0336 0.14764 0.0
C791 C 0.34171 0.01319 0.14572 0.0
C792 C 0.31697 0.02218 0.1386 0.0
C793 C 0.3187 0.05157 0.13328 0.0
H794 H 0.34033 0.99043 0.14982 0.0
H795 H 0.37651 0.28054 0.11294 0.0
H796 H 0.85394 0.30401 0.22782 0.0
H797 H 0.89012 0.33725 0.20339 0.0
H798 H 0.82405 0.35657 0.1498 0.0
H799 H 0.78769 0.32319 0.17388 0.0
H800 H 0.86574 0.34113 0.12237 0.0
H801 H 0.85933 0.40552 0.19897 0.0
H802 H 0.86185 0.41972 0.24778 0.0
H803 H 0.94938 0.41565 0.25616 0.0
H804 H 0.94725 0.40103 0.20744 0.0
H805 H 0.90934 0.47068 0.06097 0.0
H806 H 0.89121 0.43803 0.09658 0.0
H807 H 0.97445 0.42283 0.11362 0.0
H808 H 0.99324 0.45614 0.07772 0.0
H809 H 0.93465 0.43119 0.16181 0.0
H810 H 0.94177 0.37252 0.08249 0.0
H811 H 0.93779 0.35965 0.03332 0.0
H812 H 0.84788 0.35362 0.03006 0.0
H813 H 0.8514 0.36701 0.07912 0.0
C814 C 0.84705 0.3155 0.21097 0.0
C815 C 0.81791 0.31087 0.20268 0.0
C816 C 0.86779 0.33454 0.19712 0.0
C817 C 0.8597 0.34928 0.17485 0.0
C818 C 0.83065 0.34524 0.16693 0.0
C819 C 0.80991 0.32626 0.18076 0.0
C820 C 0.88136 0.36798 0.15885 0.0
C821 C 0.88086 0.36077 0.13102 0.0
C822 C 0.90175 0.39296 0.17042 0.0
C823 C 0.90303 0.40182 0.19966 0.0
C824 C 0.87904 0.40739 0.21128 0.0
C825 C 0.88041 0.41557 0.23891 0.0
C826 C 0.90573 0.41849 0.25508 0.0
C827 C 0.92976 0.41332 0.24363 0.0
C828 C 0.92849 0.4051 0.21601 0.0
C829 C 0.92411 0.46088 0.07243 0.0
C830 C 0.95267 0.46543 0.06595 0.0
C831 C 0.91364 0.44226 0.09285 0.0
C832 C 0.93144 0.42787 0.10731 0.0
C833 C 0.96045 0.43377 0.10244 0.0
C834 C 0.97104 0.45253 0.0818 0.0
C835 C 0.91828 0.40468 0.12534 0.0
C836 C 0.9202 0.41101 0.15344 0.0
C837 C 0.89911 0.37879 0.11409 0.0
C838 C 0.89689 0.37089 0.0845 0.0
C839 C 0.9212 0.36873 0.07125 0.0
C840 C 0.91901 0.36128 0.0434 0.0
C841 C 0.89258 0.35573 0.02861 0.0
C842 C 0.86832 0.35783 0.04158 0.0
C843 C 0.8704 0.36533 0.06941 0.0
H844 H 0.89088 0.34972 0.00711 0.0
H845 H 0.90676 0.42483 0.27647 0.0
H846 H 0.69362 0.82427 0.22841 0.0
H847 H 0.66484 0.85006 0.20079 0.0
H848 H 0.6779 0.80239 0.12884 0.0
H849 H 0.70757 0.77722 0.15633 0.0
H850 H 0.68096 0.85496 0.11513 0.0
H851 H 0.61171 0.78774 0.16337 0.0
H852 H 0.59096 0.76418 0.20416 0.0
H853 H 0.58276 0.84725 0.23581 0.0
H854 H 0.60373 0.87135 0.1953 0.0
H855 H 0.53447 0.88102 0.06062 0.0
H856 H 0.56149 0.85592 0.09121 0.0
H857 H 0.63317 0.93169 0.095 0.0
H858 H 0.60643 0.95681 0.06429 0.0
H859 H 0.5862 0.86308 0.14176 0.0
H860 H 0.69553 0.91022 0.09802 0.0
H861 H 0.71464 0.92954 0.05502 0.0
H862 H 0.63895 0.87879 0.01016 0.0
H863 H 0.61959 0.85884 0.05282 0.0
C864 C 0.69034 0.81909 0.20672 0.0
C865 C 0.70305 0.79837 0.19481 0.0
C866 C 0.6736 0.83387 0.19081 0.0
C867 C 0.66846 0.82813 0.16245 0.0
C868 C 0.68127 0.80751 0.15054 0.0
C869 C 0.69826 0.79293 0.1664 0.0
C870 C 0.6501 0.84368 0.14525 0.0
C871 C 0.6603 0.85671 0.12115 0.0
C872 C 0.62271 0.8459 0.15236 0.0
C873 C 0.60949 0.83137 0.17641 0.0
C874 C 0.60556 0.80099 0.17907 0.0
C875 C 0.59376 0.78754 0.20214 0.0
C876 C 0.58561 0.80422 0.22259 0.0
C877 C 0.5891 0.83436 0.21995 0.0
C878 C 0.6009 0.84792 0.19693 0.0
C879 C 0.55584 0.89261 0.06822 0.0
C880 C 0.56808 0.92112 0.05965 0.0
C881 C 0.57138 0.87811 0.08582 0.0
C882 C 0.5998 0.89146 0.09529 0.0
C883 C 0.61158 0.92043 0.08777 0.0
C884 C 0.59604 0.93498 0.07027 0.0
C885 C 0.61737 0.87479 0.11203 0.0
C886 C 0.60697 0.86148 0.13592 0.0
C887 C 0.64434 0.87181 0.10447 0.0
C888 C 0.65601 0.8833 0.07866 0.0
C889 C 0.68303 0.9031 0.07897 0.0
C890 C 0.69389 0.91417 0.05465 0.0
C891 C 0.67798 0.90547 0.02989 0.0
C892 C 0.65121 0.88558 0.02936 0.0
C893 C 0.64028 0.87441 0.0536 0.0
H894 H 0.6864 0.9141 0.0111 0.0
H895 H 0.57656 0.79379 0.24047 0.0
H896 H 0.26623 0.73212 0.15542 0.0
H897 H 0.25144 0.69285 0.11965 0.0
H898 H 0.16557 0.67356 0.14583 0.0
H899 H 0.18089 0.71124 0.18235 0.0
H900 H 0.17938 0.62492 0.13845 0.0
H901 H 0.18962 0.7147 0.08595 0.0
H902 H 0.21768 0.76129 0.06912 0.0
H903 H 0.27575 0.71635 0.03599 0.0
H904 H 0.24811 0.66956 0.05286 0.0
H905 H 0.08612 0.61795 0.01546 0.0
H906 H 0.13195 0.64038 0.03852 0.0
H907 H 0.14382 0.55488 0.0569 0.0
H908 H 0.09641 0.53202 0.03522 0.0
H909 H 0.18554 0.64401 0.04021 0.0
H910 H 0.17588 0.55808 0.11528 0.0
H911 H 0.14167 0.51429 0.13059 0.0
H912 H 0.07354 0.55687 0.11816 0.0
H913 H 0.10747 0.60089 0.10281 0.0
C914 C 0.24414 0.71968 0.15303 0.0
C915 C 0.22447 0.72466 0.17114 0.0
C916 C 0.23574 0.69722 0.13277 0.0
C917 C 0.2074 0.68011 0.13008 0.0
C918 C 0.18765 0.68611 0.1477 0.0
C919 C 0.1962 0.70793 0.16824 0.0
C920 C 0.19747 0.65608 0.10896 0.0
C921 C 0.1811 0.62897 0.11695 0.0
C922 C 0.20046 0.66076 0.08092 0.0
C923 C 0.21707 0.6888 0.07092 0.0
C924 C 0.20849 0.71485 0.07522 0.0
C925 C 0.22428 0.74125 0.06566 0.0
C926 C 0.24854 0.7418 0.05158 0.0
C927 C 0.25701 0.71591 0.04697 0.0
C928 C 0.24129 0.68945 0.05651 0.0
C929 C 0.09844 0.60369 0.0241 0.0
C930 C 0.08711 0.57317 0.02421 0.0
C931 C 0.12502 0.61664 0.03703 0.0
C932 C 0.14117 0.59942 0.05009 0.0
C933 C 0.13139 0.56868 0.04762 0.0
C934 C 0.10431 0.55562 0.03512 0.0
C935 C 0.16503 0.61442 0.0698 0.0
C936 C 0.18472 0.63949 0.06168 0.0
C937 C 0.16438 0.6084 0.09779 0.0
C938 C 0.14412 0.58261 0.10793 0.0
C939 C 0.15365 0.55812 0.11604 0.0
C940 C 0.13431 0.53326 0.12463 0.0
C941 C 0.10545 0.5328 0.12535 0.0
C942 C 0.09589 0.55726 0.1176 0.0
C943 C 0.11515 0.58216 0.10898 0.0
H944 H 0.0905 0.5135 0.13191 0.0
H945 H 0.26074 0.76226 0.04418 0.0
H946 H 0.30316 0.78492 0.80671 0.0
H947 H 0.32351 0.81415 0.84839 0.0
H948 H 0.25023 0.85035 0.8488 0.0
H949 H 0.22924 0.82037 0.80766 0.0
H950 H 0.31346 0.89136 0.85199 0.0
H951 H 0.24744 0.81481 0.89465 0.0
H952 H 0.22324 0.76326 0.90203 0.0
H953 H 0.30368 0.74586 0.9266 0.0
H954 H 0.32842 0.7972 0.91895 0.0
H955 H 0.40295 0.96553 0.96332 0.0
H956 H 0.3561 0.94216 0.94078 0.0
H957 H 0.37905 0.8593 0.93759 0.0
H958 H 0.42442 0.88171 0.96159 0.0
H959 H 0.32619 0.84777 0.94109 0.0
H960 H 0.392 0.91538 0.88435 0.0
H961 H 0.42035 0.96495 0.87474 0.0
H962 H 0.34501 -0.00279 0.87431 0.0
H963 H 0.31626 0.94781 0.88411 0.0
C964 C 0.29126 0.7988 0.8159 0.0
C965 C 0.26468 0.80037 0.80409 0.0
C966 C 0.30286 0.81546 0.8396 0.0
C967 C 0.28824 0.83425 0.85151 0.0
C968 C 0.26168 0.83586 0.83983 0.0
C969 C 0.24977 0.81871 0.81644 0.0
C970 C 0.30165 0.85291 0.87561 0.0
C971 C 0.31571 0.88219 0.87176 0.0
C972 C 0.30461 0.84066 0.90112 0.0
C973 C 0.28979 0.80984 0.90608 0.0
C974 C 0.25999 0.79994 0.90142 0.0
C975 C 0.24617 0.77076 0.90569 0.0
C976 C 0.26192 0.75128 0.91474 0.0
C977 C 0.29151 0.76097 0.9196 0.0
C978 C 0.30544 0.79012 0.91534 0.0
C979 C 0.39765 0.94217 0.95851 0.0
C980 C 0.41776 0.92568 0.96372 0.0
C981 C 0.37091 0.92887 0.94543 0.0
C982 C 0.36433 0.89914 0.93664 0.0
C983 C 0.38351 0.88229 0.94394 0.0
C984 C 0.40975 0.89531 0.95752 0.0
C985 C 0.3396 0.88586 0.91713 0.0
C986 C 0.32323 0.85747 0.92174 0.0
C987 C 0.33506 0.89871 0.89203 0.0
C988 C 0.3521 0.92808 0.88525 0.0
C989 C 0.38152 0.93307 0.88219 0.0
C990 C 0.39764 0.96111 0.87675 0.0
C991 C 0.38449 0.98423 0.87404 0.0
C992 C 0.35515 0.97929 0.8765 0.0
C993 C 0.33894 0.95129 0.88198 0.0
H994 H 0.39705 0.00596 0.87003 0.0
H995 H 0.25118 0.7287 0.91803 0.0
H996 H 0.18076 0.24498 0.8512 0.0
H997 H 0.15816 0.26797 0.88589 0.0
H998 H 0.20695 0.35339 0.86515 0.0
H999 H 0.23063 0.33049 0.83134 0.0
H1000 H 0.19097 0.32979 0.93046 0.0
H1001 H 0.13559 0.36801 0.83999 0.0
H1002 H 0.1157 0.35305 0.793 0.0
H1003 H 0.0967 0.26251 0.81354 0.0
H1004 H 0.11525 0.27707 0.86093 0.0
H1005 H 0.12463 0.44239 0.96988 0.0
H1006 H 0.15221 0.41191 0.9488 0.0
H1007 H 0.07543 0.34268 0.93207 0.0
H1008 H 0.04768 0.37297 0.95258 0.0
H1009 H 0.10436 0.35357 0.88814 0.0
H1010 H 0.12485 0.33537 0.98105 0.0
H1011 H 0.1403 0.34813 0.0294 0.0
H1012 H 0.22366 0.39327 0.0073 0.0
H1013 H 0.20871 0.38086 0.95875 0.0
C1014 C 0.18714 0.2686 0.85456 0.0
C1015 C 0.20717 0.28606 0.83856 0.0
C1016 C 0.17428 0.28165 0.87433 0.0
C1017 C 0.18073 0.31228 0.87769 0.0
C1018 C 0.20181 0.32967 0.86275 0.0
C1019 C 0.21522 0.31661 0.84346 0.0
C1020 C 0.16308 0.32632 0.89415 0.0
C1021 C 0.17198 0.33498 0.92138 0.0
C1022 C 0.13815 0.33255 0.88227 0.0
C1023 C 0.12755 0.32357 0.85374 0.0
C1024 C 0.12732 0.34492 0.83439 0.0
C1025 C 0.11617 0.33652 0.80772 0.0
C1026 C 0.10535 0.30683 0.80015 0.0
C1027 C 0.10537 0.28549 0.81933 0.0
C1028 C 0.11618 0.2938 0.84611 0.0
C1029 C 0.11362 0.42067 0.96174 0.0
C1030 C 0.08391 0.41019 0.96279 0.0
C1031 C 0.12945 0.40319 0.94994 0.0
C1032 C 0.11586 0.37497 0.9391 0.0
C1033 C 0.08631 0.3644 0.94035 0.0
C1034 C 0.07049 0.3818 0.95207 0.0
C1035 C 0.13201 0.35717 0.92473 0.0
C1036 C 0.12309 0.34814 0.89759 0.0
C1037 C 0.15642 0.35003 0.93704 0.0
C1038 C 0.16559 0.35738 0.96622 0.0
C1039 C 0.14643 0.34818 0.98646 0.0
C1040 C 0.1551 0.35532 0.01392 0.0
C1041 C 0.18289 0.37163 0.0214 0.0
C1042 C 0.20212 0.38068 0.00146 0.0
C1043 C 0.19359 0.37352 0.97397 0.0
H1044 H 0.18954 0.37718 0.04266 0.0
H1045 H 0.09669 0.30036 0.77951 0.0
H1046 H 0.70933 0.15518 0.79743 0.0
H1047 H 0.67157 0.12806 0.82416 0.0
H1048 H 0.64526 0.20737 0.84085 0.0
H1049 H 0.68288 0.23478 0.81382 0.0
H1050 H 0.6617 0.13392 0.87709 0.0
H1051 H 0.5713 0.18702 0.84397 0.0
H1052 H 0.55669 0.21391 0.80555 0.0
H1053 H 0.59968 0.16978 0.75107 0.0
H1054 H 0.61421 0.14238 0.78909 0.0
H1055 H 0.52438 0.08144 0.94202 0.0
H1056 H 0.5491 0.11881 0.91182 0.0
H1057 H 0.58053 0.05309 0.86982 0.0
H1058 H 0.55665 0.01614 0.90021 0.0
H1059 H 0.55954 0.12638 0.85073 0.0
H1060 H 0.65044 0.07432 0.88273 0.0
H1061 H 0.662 0.04355 0.91942 0.0
H1062 H 0.61699 0.08402 0.97489 0.0
H1063 H 0.60558 0.11537 0.93872 0.0
C1064 C 0.69562 0.16696 0.80681 0.0
C1065 C 0.69908 0.19715 0.80335 0.0
C1066 C 0.67408 0.15142 0.82215 0.0
C1067 C 0.65549 0.16566 0.83426 0.0
C1068 C 0.65917 0.1959 0.83136 0.0
C1069 C 0.68076 0.21153 0.81599 0.0
C1070 C 0.63217 0.14849 0.84966 0.0
C1071 C 0.63941 0.13237 0.87131 0.0
C1072 C 0.60307 0.14698 0.84255 0.0
C1073 C 0.59412 0.16296 0.81944 0.0
C1074 C 0.57756 0.18302 0.82377 0.0
C1075 C 0.5693 0.19835 0.80207 0.0
C1076 C 0.57735 0.19364 0.77591 0.0
C1077 C 0.59356 0.1735 0.77137 0.0
C1078 C 0.60184 0.15809 0.79299 0.0
C1079 C 0.53545 0.07483 0.92547 0.0
C1080 C 0.53901 0.04618 0.92344 0.0
C1081 C 0.54953 0.09613 0.90829 0.0
C1082 C 0.56693 0.08865 0.889 0.0
C1083 C 0.56731 0.05921 0.88476 0.0
C1084 C 0.55371 0.03816 0.90209 0.0
C1085 C 0.58925 0.1115 0.87751 0.0
C1086 C 0.58187 0.1286 0.85679 0.0
C1087 C 0.61832 0.11409 0.88547 0.0
C1088 C 0.62698 0.097 0.90794 0.0
C1089 C 0.64328 0.07686 0.90284 0.0
C1090 C 0.64969 0.05924 0.92352 0.0
C1091 C 0.63999 0.06165 0.94941 0.0
C1092 C 0.62423 0.08199 0.95478 0.0
C1093 C 0.61785 0.09973 0.93422 0.0
H1094 H 0.6449 0.04794 0.96538 0.0
H1095 H 0.57096 0.20555 0.75914 0.0
H1096 H 0.85798 0.74023 0.81535 0.0
H1097 H 0.88922 0.71006 0.83264 0.0
H1098 H 0.81593 0.63679 0.83731 0.0
H1099 H 0.78471 0.6668 0.82019 0.0
H1100 H 0.85283 0.64267 0.88178 0.0
H1101 H 0.85669 0.64031 0.78478 0.0
H1102 H 0.86407 0.6619 0.73991 0.0
H1103 H 0.9515 0.70271 0.76561 0.0
H1104 H 0.9445 0.68176 0.81085 0.0
H1105 H 0.91796 0.53154 0.90286 0.0
H1106 H 0.89271 0.55769 0.87208 0.0
H1107 H 0.96554 0.63235 0.87769 0.0
H1108 H 0.99125 0.60629 0.90834 0.0
H1109 H 0.92987 0.62572 0.82639 0.0
H1110 H 0.92395 0.63228 0.92425 0.0
H1111 H 0.91658 0.61126 0.96918 0.0
H1112 H 0.83205 0.56259 0.94101 0.0
H1113 H 0.83916 0.58317 0.89559 0.0
C1114 C 0.84856 0.71785 0.82055 0.0
C1115 C 0.81901 0.70578 0.81647 0.0
C1116 C 0.86641 0.70058 0.83012 0.0
C1117 C 0.85489 0.67107 0.83575 0.0
C1118 C 0.82523 0.65947 0.83291 0.0
C1119 C 0.80744 0.67664 0.82323 0.0
C1120 C 0.87363 0.65207 0.84447 0.0
C1121 C 0.86937 0.63868 0.86944 0.0
C1122 C 0.8956 0.64733 0.82859 0.0
C1123 C 0.89998 0.6597 0.80131 0.0
C1124 C 0.87743 0.65408 0.78095 0.0
C1125 C 0.88155 0.66617 0.75543 0.0
C1126 C 0.90822 0.68373 0.74993 0.0
C1127 C 0.93084 0.68914 0.76992 0.0
C1128 C 0.92681 0.67715 0.7955 0.0
C1129 C 0.92916 0.55304 0.89671 0.0
C1130 C 0.95624 0.5673 0.90891 0.0
C1131 C 0.91464 0.56796 0.87907 0.0
C1132 C 0.92703 0.59722 0.87332 0.0
C1133 C 0.95559 0.60986 0.88211 0.0
C1134 C 0.9702 0.59493 0.89975 0.0
C1135 C 0.90866 0.61613 0.86343 0.0
C1136 C 0.91313 0.62963 0.83847 0.0
C1137 C 0.88674 0.62104 0.87921 0.0
C1138 C 0.88222 0.60894 0.90651 0.0
C1139 C 0.90388 0.61691 0.92759 0.0
C1140 C 0.89973 0.60507 0.95316 0.0
C1141 C 0.87389 0.58543 0.95798 0.0
C1142 C 0.85209 0.57771 0.93722 0.0
C1143 C 0.85616 0.58947 0.91156 0.0
H1144 H 0.87066 0.57628 0.97778 0.0
H1145 H 0.91137 0.69307 0.73016 0.0
H1146 H 0.22048 0.34235 0.18126 0.0
H1147 H 0.18962 0.37228 0.16327 0.0
H1148 H 0.12066 0.29451 0.1479 0.0
H1149 H 0.15159 0.26432 0.16589 0.0
H1150 H 0.12578 0.33238 0.10576 0.0
H1151 H 0.12234 0.33783 0.20301 0.0
H1152 H 0.14269 0.3469 0.2505 0.0
H1153 H 0.18075 0.43679 0.2342 0.0
H1154 H 0.16111 0.42814 0.18647 0.0
H1155 H 0.0186 0.40215 0.07884 0.0
H1156 H 0.04352 0.37527 0.10916 0.0
H1157 H 0.11748 0.44883 0.11573 0.0
H1158 H 0.09298 0.47588 0.08497 0.0
H1159 H 0.10803 0.41255 0.16427 0.0
H1160 H 0.1182 0.40666 0.06764 0.0
H1161 H 0.10126 0.39909 0.01921 0.0
H1162 H 0.05378 0.31154 0.03377 0.0
H1163 H 0.07011 0.31881 0.08251 0.0
C1164 C 0.19884 0.33158 0.17372 0.0
C1165 C 0.18832 0.30106 0.175 0.0
C1166 C 0.18119 0.34873 0.16368 0.0
C1167 C 0.15272 0.33565 0.15483 0.0
C1168 C 0.14253 0.305 0.15489 0.0
C1169 C 0.1602 0.2878 0.16503 0.0
C1170 C 0.13363 0.35405 0.14553 0.0
C1171 C 0.12148 0.34952 0.11874 0.0
C1172 C 0.12874 0.37699 0.16228 0.0
C1173 C 0.14043 0.38226 0.19107 0.0
C1174 C 0.13525 0.35947 0.20948 0.0
C1175 C 0.14664 0.36455 0.23646 0.0
C1176 C 0.16302 0.3924 0.24535 0.0
C1177 C 0.16806 0.41523 0.22728 0.0
C1178 C 0.1568 0.41025 0.20027 0.0
C1179 C 0.03978 0.41314 0.08745 0.0
C1180 C 0.05417 0.44079 0.0787 0.0
C1181 C 0.05398 0.39767 0.10481 0.0
C1182 C 0.08253 0.40983 0.11399 0.0
C1183 C 0.0955 0.43902 0.10857 0.0
C1184 C 0.08143 0.45444 0.09094 0.0
C1185 C 0.1001 0.39058 0.12469 0.0
C1186 C 0.11207 0.3951 0.15154 0.0
C1187 C 0.10517 0.36777 0.10797 0.0
C1188 C 0.09499 0.36345 0.07878 0.0
C1189 C 0.10381 0.38595 0.0606 0.0
C1190 C 0.09436 0.38169 0.03307 0.0
C1191 C 0.07631 0.3549 0.02343 0.0
C1192 C 0.06769 0.33231 0.0413 0.0
C1193 C 0.07702 0.3365 0.06888 0.0
H1194 H 0.06912 0.35153 0.0021 0.0
H1195 H 0.17176 0.39634 0.26624 0.0
H1196 H 0.21628 0.68156 0.81439 0.0
H1197 H 0.17795 0.64806 0.83598 0.0
H1198 H 0.11544 0.67275 0.7818 0.0
H1199 H 0.1537 0.70656 0.75996 0.0
H1200 H 0.10181 0.66799 0.83828 0.0
H1201 H 0.12861 0.61185 0.76654 0.0
H1202 H 0.16344 0.59544 0.73973 0.0
H1203 H 0.19385 0.55782 0.81045 0.0
H1204 H 0.15968 0.57462 0.83786 0.0
H1205 H 0.01431 0.548 0.90835 0.0
H1206 H 0.03095 0.57759 0.8694 0.0
H1207 H 0.11686 0.57135 0.89055 0.0
H1208 H 0.10067 0.5422 0.92881 0.0
H1209 H 0.10498 0.56349 0.83749 0.0
H1210 H 0.09008 0.62987 0.91049 0.0
H1211 H 0.06068 0.65039 0.94085 0.0
H1212 H 0.01226 0.67093 0.8715 0.0
H1213 H 0.0409 0.64979 0.84074 0.0
C1214 C 0.19442 0.68012 0.80715 0.0
C1215 C 0.18807 0.69652 0.78529 0.0
C1216 C 0.17256 0.66092 0.81947 0.0
C1217 C 0.144 0.65773 0.81013 0.0
C1218 C 0.13741 0.67489 0.78911 0.0
C1219 C 0.15932 0.69408 0.77666 0.0
C1220 C 0.12139 0.63555 0.82199 0.0
C1221 C 0.10191 0.64496 0.83764 0.0
C1222 C 0.12167 0.60562 0.82098 0.0
C1223 C 0.14157 0.59455 0.80427 0.0
C1224 C 0.14277 0.60015 0.7764 0.0
C1225 C 0.16242 0.59078 0.76109 0.0
C1226 C 0.18083 0.57556 0.77337 0.0
C1227 C 0.17955 0.56958 0.80096 0.0
C1228 C 0.16002 0.579 0.81638 0.0
C1229 C 0.03668 0.55296 0.90458 0.0
C1230 C 0.05618 0.54304 0.92189 0.0
C1231 C 0.04612 0.56973 0.8823 0.0
C1232 C 0.07515 0.57672 0.87717 0.0
C1233 C 0.09432 0.56605 0.89399 0.0
C1234 C 0.08498 0.5494 0.916 0.0
C1235 C 0.08676 0.59623 0.85535 0.0
C1236 C 0.10405 0.58627 0.83744 0.0
C1237 C 0.08484 0.62572 0.85477 0.0
C1238 C 0.06731 0.63782 0.87334 0.0
C1239 C 0.07292 0.6384 0.90173 0.0
C1240 C 0.05642 0.65019 0.91901 0.0
C1241 C 0.03456 0.66188 0.90812 0.0
C1242 C 0.02912 0.66176 0.87992 0.0
C1243 C 0.04541 0.6498 0.86256 0.0
H1244 H 0.02183 0.67103 0.92152 0.0
H1245 H 0.19613 0.56843 0.76158 0.0
H1246 H 0.27698 0.20277 0.83151 0.0
H1247 H 0.30342 0.17532 0.85998 0.0
H1248 H 0.35358 0.16507 0.79286 0.0
H1249 H 0.32654 0.19174 0.76409 0.0
H1250 H 0.34268 0.11614 0.81599 0.0
H1251 H 0.38465 0.21595 0.85817 0.0
H1252 H 0.38321 0.26265 0.8815 0.0
H1253 H 0.32902 0.21523 0.93957 0.0
H1254 H 0.33112 0.1683 0.91735 0.0
H1255 H 0.45946 0.11184 0.93392 0.0
H1256 H 0.43289 0.13716 0.90338 0.0
H1257 H 0.36394 0.05895 0.89298 0.0
H1258 H 0.39053 0.03335 0.92356 0.0
H1259 H 0.38427 0.15171 0.90879 0.0
H1260 H 0.32544 0.05965 0.83218 0.0
H1261 H 0.33159 0.01348 0.81162 0.0
H1262 H 0.42262 0.04647 0.82165 0.0
H1263 H 0.41701 0.0929 0.84206 0.0
C1264 C 0.2938 0.19493 0.82278 0.0
C1265 C 0.29956 0.1999 0.79532 0.0
C1266 C 0.30922 0.17927 0.8393 0.0
C1267 C 0.33126 0.16824 0.82912 0.0
C1268 C 0.3369 0.17312 0.80162 0.0
C1269 C 0.32134 0.18858 0.78505 0.0
C1270 C 0.34781 0.15099 0.84658 0.0
C1271 C 0.3517 0.1241 0.83628 0.0
C1272 C 0.35986 0.16064 0.8733 0.0
C1273 C 0.35773 0.18875 0.88593 0.0
C1274 C 0.3723 0.21555 0.87581 0.0
C1275 C 0.37146 0.24202 0.88888 0.0
C1276 C 0.3557 0.24191 0.9117 0.0
C1277 C 0.34109 0.21531 0.9218 0.0
C1278 C 0.34229 0.18878 0.90914 0.0
C1279 C 0.43885 0.0997 0.92487 0.0
C1280 C 0.42742 0.07027 0.93143 0.0
C1281 C 0.42346 0.11442 0.90743 0.0
C1282 C 0.39614 0.10029 0.8956 0.0
C1283 C 0.38498 0.07059 0.90142 0.0
C1284 C 0.40034 0.05584 0.91901 0.0
C1285 C 0.37925 0.11707 0.87813 0.0
C1286 C 0.37523 0.14378 0.88849 0.0
C1287 C 0.36711 0.1072 0.85153 0.0
C1288 C 0.37078 0.07964 0.8388 0.0
C1289 C 0.34676 0.05709 0.82986 0.0
C1290 C 0.35015 0.03088 0.81825 0.0
C1291 C 0.37748 0.02705 0.81532 0.0
C1292 C 0.40147 0.04946 0.82395 0.0
C1293 C 0.3982 0.0757 0.83558 0.0
H1294 H 0.38006 0.00671 0.80643 0.0
H1295 H 0.35499 0.26244 0.92166 0.0
H1296 H 0.79134 0.25206 0.8506 0.0
H1297 H 0.8035 0.29208 0.88581 0.0
H1298 H 0.80886 0.35548 0.8233 0.0
H1299 H 0.79956 0.31623 0.7886 0.0
H1300 H 0.85436 0.36795 0.85272 0.0
H1301 H 0.75739 0.34406 0.87006 0.0
H1302 H 0.71001 0.31428 0.88014 0.0
H1303 H 0.74359 0.29693 0.95886 0.0
H1304 H 0.79156 0.32524 0.94883 0.0
H1305 H 0.91741 0.47637 0.94558 0.0
H1306 H 0.87131 0.45263 0.92203 0.0
H1307 H 0.87209 0.372 0.96124 0.0
H1308 H 0.9178 0.39556 0.98511 0.0
H1309 H 0.81488 0.37722 0.94213 0.0
H1310 H 0.91254 0.38423 0.90977 0.0
H1311 H 0.95981 0.41546 0.9007 0.0
H1312 H 0.91975 0.46827 0.84951 0.0
H1313 H 0.87225 0.43741 0.85853 0.0
C1314 C 0.795 0.27459 0.84457 0.0
C1315 C 0.79418 0.28111 0.81695 0.0
C1316 C 0.80145 0.29737 0.86463 0.0
C1317 C 0.80671 0.32681 0.85719 0.0
C1318 C 0.80469 0.33301 0.82958 0.0
C1319 C 0.7991 0.31048 0.80973 0.0
C1320 C 0.81899 0.35122 0.8774 0.0
C1321 C 0.84504 0.37034 0.87186 0.0
C1322 C 0.80714 0.35438 0.90258 0.0
C1323 C 0.77833 0.33666 0.90854 0.0
C1324 C 0.75488 0.33353 0.88937 0.0
C1325 C 0.72786 0.31692 0.8951 0.0
C1326 C 0.72378 0.30385 0.92015 0.0
C1327 C 0.74679 0.30708 0.93944 0.0
C1328 C 0.77395 0.32331 0.9337 0.0
C1329 C 0.90722 0.45397 0.95009 0.0
C1330 C 0.92168 0.43744 0.96636 0.0
C1331 C 0.88071 0.44052 0.93682 0.0
C1332 C 0.86869 0.41043 0.9395 0.0
C1333 C 0.88108 0.39521 0.95883 0.0
C1334 C 0.90748 0.4086 0.97211 0.0
C1335 C 0.84983 0.39306 0.91714 0.0
C1336 C 0.82308 0.37515 0.92239 0.0
C1337 C 0.86053 0.39105 0.89134 0.0
C1338 C 0.88899 0.40869 0.88489 0.0
C1339 C 0.91389 0.40247 0.89654 0.0
C1340 C 0.94068 0.42012 0.89145 0.0
C1341 C 0.94278 0.44385 0.87455 0.0
C1342 C 0.91809 0.44988 0.86259 0.0
C1343 C 0.89124 0.43232 0.86765 0.0
H1344 H 0.96353 0.45756 0.87071 0.0
H1345 H 0.70278 0.29125 0.92463 0.0
H1346 H 0.74133 0.80563 0.83202 0.0
H1347 H 0.71581 0.83172 0.86121 0.0
H1348 H 0.65218 0.82854 0.79532 0.0
H1349 H 0.67828 0.80383 0.76578 0.0
H1350 H 0.65933 0.87774 0.81906 0.0
H1351 H 0.64248 0.78195 0.85313 0.0
H1352 H 0.65414 0.73763 0.8711 0.0
H1353 H 0.70027 0.78819 0.94079 0.0
H1354 H 0.68921 0.83292 0.92303 0.0
H1355 H 0.54745 0.89286 0.90769 0.0
H1356 H 0.57613 0.87036 0.87848 0.0
H1357 H 0.65248 0.91549 0.92634 0.0
H1358 H 0.62406 0.93898 0.95506 0.0
H1359 H 0.63898 0.84601 0.91256 0.0
H1360 H 0.65034 0.94243 0.87477 0.0
H1361 H 0.63249 0.98239 0.85468 0.0
H1362 H 0.58862 0.92385 0.78876 0.0
H1363 H 0.6057 0.88335 0.8088 0.0
C1364 C 0.722 0.81065 0.82365 0.0
C1365 C 0.71202 0.80247 0.79641 0.0
C1366 C 0.70718 0.82543 0.84052 0.0
C1367 C 0.68151 0.83189 0.83089 0.0
C1368 C 0.67182 0.82409 0.80352 0.0
C1369 C 0.68686 0.80977 0.78655 0.0
C1370 C 0.66478 0.84671 0.84908 0.0
C1371 C 0.65474 0.87045 0.83938 0.0
C1372 C 0.65853 0.83765 0.87584 0.0
C1373 C 0.66529 0.81085 0.88659 0.0
C1374 C 0.65531 0.78366 0.87218 0.0
C1375 C 0.66177 0.75846 0.88234 0.0
C1376 C 0.678 0.76011 0.90703 0.0
C1377 C 0.68774 0.78696 0.92164 0.0
C1378 C 0.68137 0.81224 0.91155 0.0
C1379 C 0.57037 0.89816 0.91197 0.0
C1380 C 0.58337 0.91791 0.93377 0.0
C1381 C 0.58676 0.88524 0.8952 0.0
C1382 C 0.61654 0.89114 0.90012 0.0
C1383 C 0.62958 0.91056 0.92205 0.0
C1384 C 0.61328 0.9241 0.93841 0.0
C1385 C 0.63392 0.87691 0.88247 0.0
C1386 C 0.64384 0.85322 0.89226 0.0
C1387 C 0.63928 0.88538 0.85551 0.0
C1388 C 0.62892 0.90972 0.84356 0.0
C1389 C 0.63653 0.93795 0.85623 0.0
C1390 C 0.62663 0.96074 0.84479 0.0
C1391 C 0.60932 0.95563 0.82053 0.0
C1392 C 0.60194 0.92775 0.80761 0.0
C1393 C 0.61171 0.90487 0.81901 0.0
H1394 H 0.60171 0.97331 0.81168 0.0
H1395 H 0.68298 0.74058 0.91488 0.0
H1396 H 0.76353 0.67931 0.14314 0.0
H1397 H 0.78497 0.65435 0.10912 0.0
H1398 H 0.85399 0.73204 0.10578 0.0
H1399 H 0.83293 0.75677 0.14034 0.0
H1400 H 0.83556 0.69902 0.0538 0.0
H1401 H 0.86242 0.68782 0.1479 0.0
H1402 H 0.85579 0.67446 0.1955 0.0
H1403 H 0.81897 0.58463 0.16922 0.0
H1404 H 0.82366 0.59778 0.12137 0.0
H1405 H 0.95151 0.63836 0.02112 0.0
H1406 H 0.92007 0.66554 0.04069 0.0
H1407 H 0.85692 0.58433 0.04955 0.0
H1408 H 0.88811 0.55698 0.03025 0.0
H1409 H 0.8702 0.61874 0.09627 0.0
H1410 H 0.84376 0.62895 0.00244 0.0
H1411 H 0.85241 0.64138 0.95485 0.0
H1412 H 0.89208 0.73078 0.98054 0.0
H1413 H 0.88367 0.71894 0.02833 0.0
C1414 C 0.78292 0.69117 0.13469 0.0
C1415 C 0.79695 0.71958 0.14465 0.0
C1416 C 0.79505 0.67702 0.11523 0.0
C1417 C 0.82116 0.69135 0.10528 0.0
C1418 C 0.83381 0.72073 0.11329 0.0
C1419 C 0.82187 0.73472 0.13308 0.0
C1420 C 0.8373 0.67448 0.08992 0.0
C1421 C 0.84325 0.68152 0.06303 0.0
C1422 C 0.847 0.65151 0.10207 0.0
C1423 C 0.84283 0.64395 0.13091 0.0
C1424 C 0.85215 0.66538 0.15217 0.0
C1425 C 0.84875 0.65783 0.17925 0.0
C1426 C 0.83669 0.62876 0.1854 0.0
C1427 C 0.82796 0.60722 0.16446 0.0
C1428 C 0.83077 0.61475 0.13734 0.0
C1429 C 0.93093 0.6263 0.02724 0.0
C1430 C 0.92232 0.59553 0.02425 0.0
C1431 C 0.9129 0.64188 0.0381 0.0
C1432 C 0.88614 0.62688 0.04622 0.0
C1433 C 0.87748 0.59623 0.04321 0.0
C1434 C 0.89537 0.58067 0.03226 0.0
C1435 C 0.86813 0.64288 0.06003 0.0
C1436 C 0.86209 0.63589 0.08682 0.0
C1437 C 0.85842 0.66574 0.04777 0.0
C1438 C 0.86328 0.67301 0.01902 0.0
C1439 C 0.85449 0.65123 -0.00202 0.0
C1440 C 0.85931 0.65817 0.97096 0.0
C1441 C 0.87294 0.68678 0.96469 0.0
C1442 C 0.88157 0.7086 0.98543 0.0
C1443 C 0.87669 0.70182 0.01248 0.0
H1444 H 0.87672 0.69207 0.94377 0.0
H1445 H 0.83428 0.6229 0.20638 0.0
H1446 H 0.34918 0.76383 0.20188 0.0
H1447 H 0.38981 0.79352 0.18001 0.0
H1448 H 0.35904 0.87063 0.19428 0.0
H1449 H 0.31873 0.84135 0.21657 0.0
H1450 H 0.38747 0.82165 0.13476 0.0
H1451 H 0.41127 0.93124 0.20065 0.0
H1452 H 0.41345 0.94673 0.24911 0.0
H1453 H 0.42962 0.86487 0.27244 0.0
H1454 H 0.42794 0.849 0.22416 0.0
H1455 H 0.42927 0.97131 0.08626 0.0
H1456 H 0.41741 0.93943 0.12424 0.0
H1457 H 0.4753 0.88917 0.09915 0.0
H1458 H 0.4876 0.92147 0.06093 0.0
H1459 H 0.44659 0.91941 0.16853 0.0
H1460 H 0.43552 0.8168 0.10172 0.0
H1461 H 0.43199 0.80139 0.05304 0.0
H1462 H 0.38926 0.86849 0.03295 0.0
H1463 H 0.39216 0.88394 0.08151 0.0
C1464 C 0.35126 0.78719 0.20076 0.0
C1465 C 0.33059 0.80019 0.2109 0.0
C1466 C 0.37453 0.80411 0.18825 0.0
C1467 C 0.37766 0.83432 0.18578 0.0
C1468 C 0.35744 0.84746 0.19648 0.0
C1469 C 0.33422 0.8306 0.20903 0.0
C1470 C 0.4002 0.85177 0.16965 0.0
C1471 C 0.40107 0.84259 0.14244 0.0
C1472 C 0.41781 0.87921 0.17957 0.0
C1473 C 0.41937 0.88888 0.20871 0.0
C1474 C 0.41551 0.91661 0.21609 0.0
C1475 C 0.41659 0.92544 0.24355 0.0
C1476 C 0.42164 0.90678 0.26383 0.0
C1477 C 0.42565 0.87927 0.25671 0.0
C1478 C 0.42459 0.87033 0.2293 0.0
C1479 C 0.43989 0.9538 0.08908 0.0
C1480 C 0.45897 0.9485 0.07044 0.0
C1481 C 0.43332 0.93581 0.11097 0.0
C1482 C 0.44536 0.91191 0.11437 0.0
C1483 C 0.46582 0.90757 0.09679 0.0
C1484 C 0.47275 0.92593 0.075 0.0
C1485 C 0.43298 0.88956 0.13369 0.0
C1486 C 0.43386 0.89789 0.16134 0.0
C1487 C 0.41698 0.8613 0.12428 0.0
C1488 C 0.41442 0.85172 0.09514 0.0
C1489 C 0.4253 0.82816 0.08689 0.0
C1490 C 0.4234 0.81943 0.05934 0.0
C1491 C 0.41051 0.83403 0.03991 0.0
C1492 C 0.39932 0.85727 0.048 0.0
C1493 C 0.40109 0.86601 0.07553 0.0
H1494 H 0.40913 0.82729 0.01859 0.0
H1495 H 0.4225 0.91365 0.28507 0.0
H1496 H 0.70005 0.20779 0.18067 0.0
H1497 H 0.67439 0.17916 0.14081 0.0
H1498 H 0.75282 0.16245 0.11601 0.0
H1499 H 0.77894 0.19215 0.15552 0.0
H1500 H 0.71439 0.16924 0.07157 0.0
H1501 H 0.71454 0.11324 0.15243 0.0
H1502 H 0.70902 0.10748 0.20161 0.0
H1503 H 0.62137 0.11039 0.19005 0.0
H1504 H 0.62645 0.11656 0.14087 0.0
H1505 H 0.5895 0.02504 0.03619 0.0
H1506 H 0.63691 0.04959 0.05669 0.0
H1507 H 0.62312 0.13345 0.0352 0.0
H1508 H 0.5761 0.10925 0.01451 0.0
H1509 H 0.63956 0.08507 0.10038 0.0
H1510 H 0.68144 0.18343 0.03262 0.0
H1511 H 0.68702 0.19281 0.98396 0.0
H1512 H 0.69224 0.10421 0.96894 0.0
H1513 H 0.68607 0.09407 0.01739 0.0
C1514 C 0.71196 0.19872 0.16636 0.0
C1515 C 0.74137 0.20186 0.17126 0.0
C1516 C 0.69729 0.18232 0.14366 0.0
C1517 C 0.7117 0.16829 0.12586 0.0
C1518 C 0.74139 0.17306 0.12963 0.0
C1519 C 0.75619 0.18984 0.15223 0.0
C1520 C 0.69509 0.14607 0.1055 0.0
C1521 C 0.69821 0.15062 0.07772 0.0
C1522 C 0.67461 0.12138 0.11373 0.0
C1523 C 0.67092 0.11544 0.14296 0.0
C1524 C 0.69407 0.11256 0.16037 0.0
C1525 C 0.69104 0.1093 0.18826 0.0
C1526 C 0.66489 0.10869 0.19895 0.0
C1527 C 0.64161 0.1109 0.18173 0.0
C1528 C 0.64453 0.1142 0.15383 0.0
C1529 C 0.59691 0.04862 0.03507 0.0
C1530 C 0.57879 0.06527 0.02429 0.0
C1531 C 0.62404 0.06259 0.04674 0.0
C1532 C 0.63353 0.09332 0.04748 0.0
C1533 C 0.61644 0.1097 0.03457 0.0
C1534 C 0.58933 0.09582 0.02306 0.0
C1535 C 0.65799 0.10869 0.06619 0.0
C1536 C 0.65631 0.10301 0.09395 0.0
C1537 C 0.6798 0.13214 0.05785 0.0
C1538 C 0.68327 0.13801 0.02864 0.0
C1539 C 0.68379 0.16595 0.01894 0.0
C1540 C 0.68686 0.17133 0.99135 0.0
C1541 C 0.68977 0.14904 0.97333 0.0
C1542 C 0.68964 0.12134 0.98286 0.0
C1543 C 0.68618 0.1157 0.01035 0.0
H1544 H 0.69221 0.15326 0.952 0.0
H1545 H 0.66268 0.10659 0.22059 0.0
H1546 H 0.7109 0.71629 0.80901 0.0
H1547 H 0.68321 0.68565 0.84224 0.0
H1548 H 0.64587 0.62019 0.77872 0.0
H1549 H 0.67337 0.65098 0.74524 0.0
H1550 H 0.62444 0.66443 0.84522 0.0
H1551 H 0.63998 0.55267 0.80746 0.0
H1552 H 0.67508 0.53299 0.78383 0.0
H1553 H 0.74203 0.60732 0.81369 0.0
H1554 H 0.70742 0.62718 0.83781 0.0
H1555 H 0.53447 0.54971 0.91676 0.0
H1556 H 0.55768 0.57979 0.88063 0.0
H1557 H 0.63989 0.57321 0.91449 0.0
H1558 H 0.61705 0.5429 0.95001 0.0
H1559 H 0.63723 0.56482 0.86153 0.0
H1560 H 0.61793 0.63881 0.9233 0.0
H1561 H 0.58532 0.6582 0.95081 0.0
H1562 H 0.53139 0.66076 0.87901 0.0
H1563 H 0.56389 0.64148 0.85103 0.0
C1564 C 0.69689 0.69531 0.80211 0.0
C1565 C 0.69436 0.68597 0.7745 0.0
C1566 C 0.68089 0.67794 0.82111 0.0
C1567 C 0.6624 0.65066 0.81299 0.0
C1568 C 0.66004 0.64114 0.78546 0.0
C1569 C 0.67582 0.65868 0.76637 0.0
C1570 C 0.64628 0.63185 0.8335 0.0
C1571 C 0.62715 0.6426 0.84868 0.0
C1572 C 0.64997 0.60349 0.83832 0.0
C1573 C 0.67102 0.59157 0.82414 0.0
C1574 C 0.6622 0.56476 0.80903 0.0
C1575 C 0.68201 0.55357 0.79556 0.0
C1576 C 0.71074 0.56895 0.79717 0.0
C1577 C 0.71975 0.59549 0.81236 0.0
C1578 C 0.70003 0.60674 0.8259 0.0
C1579 C 0.55749 0.5548 0.91656 0.0
C1580 C 0.57383 0.5438 0.93633 0.0
C1581 C 0.57076 0.57204 0.8959 0.0
C1582 C 0.60063 0.57889 0.89484 0.0
C1583 C 0.61686 0.5681 0.91469 0.0
C1584 C 0.60368 0.55081 0.93512 0.0
C1585 C 0.61533 0.5973 0.87325 0.0
C1586 C 0.63424 0.5865 0.85785 0.0
C1587 C 0.61188 0.62579 0.86865 0.0
C1588 C 0.59325 0.6388 0.88511 0.0
C1589 C 0.59919 0.64369 0.91338 0.0
C1590 C 0.58076 0.65463 0.92903 0.0
C1591 C 0.55634 0.66078 0.91661 0.0
C1592 C 0.55041 0.65617 0.8885 0.0
C1593 C 0.56887 0.64537 0.87273 0.0
H1594 H 0.54198 0.66906 0.92877 0.0
H1595 H 0.72603 0.56026 0.78671 0.0
H1596 H 0.30852 0.64845 0.78691 0.0
H1597 H 0.34244 0.62394 0.80832 0.0
H1598 H 0.39286 0.70706 0.8432 0.0
H1599 H 0.35898 0.73191 0.82126 0.0
H1600 H 0.42604 0.67383 0.82135 0.0
H1601 H 0.35083 0.65937 0.88278 0.0
H1602 H 0.30104 0.64475 0.89555 0.0
H1603 H 0.29359 0.55671 0.86509 0.0
H1604 H 0.34319 0.57096 0.85171 0.0
H1605 H 0.4986 0.61476 0.92982 0.0
H1606 H 0.47654 0.6409 0.89609 0.0
H1607 H 0.42339 0.5585 0.8624 0.0
H1608 H 0.44505 0.53229 0.89616 0.0
H1609 H 0.39247 0.59206 0.88236 0.0
H1610 H 0.46862 0.60496 0.824 0.0
H1611 H 0.51725 0.61934 0.80839 0.0
H1612 H 0.5233 0.70936 0.83129 0.0
H1613 H 0.47491 0.69548 0.8476 0.0
C1614 C 0.32673 0.66151 0.79927 0.0
C1615 C 0.33108 0.69203 0.80262 0.0
C1616 C 0.3461 0.64747 0.8115 0.0
C1617 C 0.37004 0.66364 0.82755 0.0
C1618 C 0.37451 0.6942 0.83088 0.0
C1619 C 0.3551 0.70832 0.81854 0.0
C1620 C 0.39012 0.64836 0.84094 0.0
C1621 C 0.41894 0.65625 0.83508 0.0
C1622 C 0.38052 0.62485 0.85811 0.0
C1623 C 0.35067 0.61627 0.86612 0.0
C1624 C 0.33851 0.63694 0.87864 0.0
C1625 C 0.31032 0.62872 0.88599 0.0
C1626 C 0.29415 0.59983 0.8811 0.0
C1627 C 0.30614 0.57909 0.86887 0.0
C1628 C 0.33429 0.58721 0.86142 0.0
C1629 C 0.48304 0.60211 0.91456 0.0
C1630 C 0.47299 0.57151 0.91614 0.0
C1631 C 0.47044 0.61713 0.89521 0.0
C1632 C 0.44794 0.60168 0.87704 0.0
C1633 C 0.44049 0.57088 0.87645 0.0
C1634 C 0.45292 0.55592 0.8958 0.0
C1635 C 0.42865 0.6173 0.86274 0.0
C1636 C 0.39983 0.60959 0.86861 0.0
C1637 C 0.43839 0.6409 0.84563 0.0
C1638 C 0.46815 0.6491 0.83728 0.0
C1639 C 0.48044 0.62776 0.82612 0.0
C1640 C 0.50793 0.63586 0.81698 0.0
C1641 C 0.52329 0.66526 0.81871 0.0
C1642 C 0.51132 0.68661 0.82984 0.0
C1643 C 0.48388 0.67862 0.83908 0.0
H1644 H 0.54453 0.67149 0.81156 0.0
H1645 H 0.27234 0.59351 0.88681 0.0
H1646 H 0.34591 0.30926 0.75365 0.0
H1647 H 0.36891 0.34865 0.78693 0.0
H1648 H 0.28665 0.36083 0.8051 0.0
H1649 H 0.26377 0.32338 0.7697 0.0
H1650 H 0.33171 0.41249 0.81618 0.0
H1651 H 0.30718 0.31039 0.84194 0.0
H1652 H 0.30487 0.25834 0.83175 0.0
H1653 H 0.39575 0.27932 0.82689 0.0
H1654 H 0.39861 0.33154 0.83763 0.0
H1655 H 0.41269 0.3989 0.95984 0.0
H1656 H 0.37259 0.38236 0.92572 0.0
H1657 H 0.41181 0.45184 0.87412 0.0
H1658 H 0.45023 0.46979 0.90927 0.0
H1659 H 0.37933 0.35927 0.88243 0.0
H1660 H 0.37052 0.4618 0.82164 0.0
H1661 H 0.37119 0.51358 0.83155 0.0
H1662 H 0.34075 0.4918 0.91029 0.0
H1663 H 0.3396 0.43985 0.9008 0.0
C1664 C 0.33282 0.32097 0.76411 0.0
C1665 C 0.30301 0.31231 0.76038 0.0
C1666 C 0.34595 0.34355 0.78298 0.0
C1667 C 0.32933 0.35682 0.79908 0.0
C1668 C 0.29978 0.35053 0.79314 0.0
C1669 C 0.28672 0.32865 0.77348 0.0
C1670 C 0.34203 0.37172 0.82526 0.0
C1671 C 0.34208 0.40108 0.83088 0.0
C1672 C 0.3544 0.3563 0.84477 0.0
C1673 C 0.3531 0.32473 0.84058 0.0
C1674 C 0.32668 0.30381 0.83893 0.0
C1675 C 0.32527 0.27431 0.83298 0.0
C1676 C 0.35013 0.26553 0.82845 0.0
C1677 C 0.37651 0.28619 0.83029 0.0
C1678 C 0.37808 0.31568 0.8366 0.0
C1679 C 0.412 0.41113 0.94157 0.0
C1680 C 0.43439 0.43529 0.9368 0.0
C1681 C 0.3892 0.40176 0.92211 0.0
C1682 C 0.38913 0.41571 0.89719 0.0
C1683 C 0.41081 0.44103 0.8933 0.0
C1684 C 0.43299 0.4511 0.91326 0.0
C1685 C 0.36988 0.40079 0.87376 0.0
C1686 C 0.36854 0.37104 0.86843 0.0
C1687 C 0.35575 0.41587 0.85513 0.0
C1688 C 0.3551 0.44688 0.86052 0.0
C1689 C 0.36369 0.46798 0.84097 0.0
C1690 C 0.36425 0.4974 0.84655 0.0
C1691 C 0.35609 0.50598 0.87156 0.0
C1692 C 0.34716 0.48513 0.89096 0.0
C1693 C 0.34658 0.4557 0.8855 0.0
H1694 H 0.35671 0.52877 0.87592 0.0
H1695 H 0.34906 0.24272 0.82373 0.0
H1696 H 0.66606 0.31093 0.77213 0.0
H1697 H 0.64464 0.33536 0.80628 0.0
H1698 H 0.72815 0.38754 0.83534 0.0
H1699 H 0.74973 0.36246 0.80161 0.0
H1700 H 0.70201 0.36271 0.8756 0.0
H1701 H 0.67636 0.41907 0.80483 0.0
H1702 H 0.65723 0.42925 0.7596 0.0
H1703 H 0.57413 0.3774 0.77577 0.0
H1704 H 0.59282 0.36656 0.82097 0.0
H1705 H 0.63202 0.44047 0.96876 0.0
H1706 H 0.66182 0.42582 0.93537 0.0
H1707 H 0.5895 0.35845 0.90174 0.0
H1708 H 0.55969 0.37257 0.93493 0.0
H1709 H 0.61472 0.39891 0.86407 0.0
H1710 H 0.64159 0.33964 0.93382 0.0
H1711 H 0.66189 0.32733 0.97771 0.0
H1712 H 0.74364 0.38294 0.96252 0.0
H1713 H 0.72368 0.39618 0.9188 0.0
C1714 C 0.67975 0.32823 0.78526 0.0
C1715 C 0.70949 0.33483 0.78427 0.0
C1716 C 0.6675 0.34228 0.80475 0.0
C1717 C 0.68476 0.36346 0.82332 0.0
C1718 C 0.71441 0.37131 0.82122 0.0
C1719 C 0.72669 0.35711 0.80184 0.0
C1720 C 0.67212 0.37461 0.84675 0.0
C1721 C 0.68319 0.37107 0.87311 0.0
C1722 C 0.64746 0.38538 0.84345 0.0
C1723 C 0.63606 0.39185 0.81626 0.0
C1724 C 0.65405 0.40966 0.79868 0.0
C1725 C 0.64327 0.41558 0.77305 0.0
C1726 C 0.61449 0.40394 0.7648 0.0
C1727 C 0.59642 0.3864 0.78219 0.0
C1728 C 0.60708 0.3804 0.80784 0.0
C1729 C 0.62259 0.42209 0.95467 0.0
C1730 C 0.59331 0.40803 0.95427 0.0
C1731 C 0.63969 0.41375 0.93564 0.0
C1732 C 0.62772 0.3913 0.91595 0.0
C1733 C 0.59904 0.376 0.91667 0.0
C1734 C 0.58205 0.3841 0.93575 0.0
C1735 C 0.64395 0.38568 0.89281 0.0
C1736 C 0.63363 0.3906 0.86653 0.0
C1737 C 0.66931 0.37615 0.89623 0.0
C1738 C 0.68093 0.36944 0.92324 0.0
C1739 C 0.66373 0.34978 0.94007 0.0
C1740 C 0.67523 0.3425 0.96488 0.0
C1741 C 0.70398 0.35451 0.97299 0.0
C1742 C 0.72131 0.37383 0.95632 0.0
C1743 C 0.7099 0.38127 0.93154 0.0
H1744 H 0.71288 0.3487 0.99213 0.0
H1745 H 0.60619 0.40855 0.74494 0.0
H1746 H 0.66244 0.31883 0.22533 0.0
H1747 H 0.62545 0.33847 0.20246 0.0
H1748 H 0.63162 0.29002 0.12845 0.0
H1749 H 0.66906 0.27074 0.15117 0.0
H1750 H 0.63325 0.34467 0.11835 0.0
H1751 H 0.5733 0.26978 0.1661 0.0
H1752 H 0.55618 0.24086 0.20549 0.0
H1753 H 0.54045 0.31715 0.24476 0.0
H1754 H 0.55787 0.34666 0.20577 0.0
H1755 H 0.50139 0.37045 0.05865 0.0
H1756 H 0.51839 0.34187 0.09367 0.0
H1757 H 0.58082 0.41951 0.12529 0.0
H1758 H 0.56419 0.44827 0.09045 0.0
H1759 H 0.53969 0.34423 0.15433 0.0
H1760 H 0.64197 0.40475 0.10823 0.0
H1761 H 0.65653 0.43153 0.06688 0.0
H1762 H 0.58401 0.37661 0.0206 0.0
H1763 H 0.56938 0.34919 0.06155 0.0
C1764 C 0.65579 0.3123 0.20421 0.0
C1765 C 0.66862 0.29346 0.1899 0.0
C1766 C 0.6345 0.3233 0.19125 0.0
C1767 C 0.62554 0.3154 0.16386 0.0
C1768 C 0.63818 0.2963 0.14963 0.0
C1769 C 0.65955 0.28537 0.16257 0.0
C1770 C 0.60457 0.32884 0.14955 0.0
C1771 C 0.61273 0.34426 0.12617 0.0
C1772 C 0.57764 0.32815 0.15957 0.0
C1773 C 0.56712 0.3105 0.18308 0.0
C1774 C 0.56641 0.28046 0.18323 0.0
C1775 C 0.55661 0.26394 0.20547 0.0
C1776 C 0.54729 0.27717 0.22764 0.0
C1777 C 0.54769 0.30694 0.22758 0.0
C1778 C 0.5575 0.32357 0.2054 0.0
C1779 C 0.51789 0.38174 0.07378 0.0
C1780 C 0.53236 0.41131 0.07111 0.0
C1781 C 0.52742 0.36537 0.09391 0.0
C1782 C 0.55128 0.37855 0.11145 0.0
C1783 C 0.56255 0.409 0.11162 0.0
C1784 C 0.55314 0.42534 0.09154 0.0
C1785 C 0.5689 0.36034 0.12384 0.0
C1786 C 0.56015 0.34421 0.14663 0.0
C1787 C 0.59506 0.35967 0.113 0.0
C1788 C 0.60445 0.37515 0.088 0.0
C1789 C 0.62927 0.39828 0.08918 0.0
C1790 C 0.63752 0.41358 0.06582 0.0
C1791 C 0.62115 0.40584 0.04115 0.0
C1792 C 0.59662 0.38264 0.03974 0.0
C1793 C 0.58835 0.36723 0.06301 0.0
H1794 H 0.62751 0.41776 0.02312 0.0
H1795 H 0.5397 0.26435 0.24484 0.0
H1796 H 0.71723 0.65436 0.24367 0.0
H1797 H 0.69124 0.61443 0.21158 0.0
H1798 H 0.66704 0.67823 0.15981 0.0
H1799 H 0.69096 0.71746 0.19287 0.0
H1800 H 0.62327 0.63569 0.16507 0.0
H1801 H 0.72479 0.63885 0.14932 0.0
H1802 H 0.77184 0.63404 0.16819 0.0
H1803 H 0.7332 0.54689 0.19218 0.0
H1804 H 0.68613 0.55136 0.17362 0.0
H1805 H 0.59264 0.59262 0.03444 0.0
H1806 H 0.6266 0.61108 0.07323 0.0
H1807 H 0.60691 0.52532 0.10694 0.0
H1808 H 0.57291 0.50643 0.06781 0.0
H1809 H 0.66828 0.56575 0.11871 0.0
H1810 H 0.56919 0.55797 0.12969 0.0
H1811 H 0.52067 0.56111 0.1145 0.0
H1812 H 0.55186 0.65352 0.10392 0.0
H1813 H 0.60066 0.65084 0.11862 0.0
C1814 C 0.70637 0.65956 0.22529 0.0
C1815 C 0.70594 0.68863 0.22039 0.0
C1816 C 0.69171 0.63688 0.20694 0.0
C1817 C 0.67743 0.64331 0.18307 0.0
C1818 C 0.67775 0.67266 0.17812 0.0
C1819 C 0.69153 0.69508 0.19683 0.0
C1820 C 0.66127 0.61998 0.16326 0.0
C1821 C 0.63321 0.62048 0.15498 0.0
C1822 C 0.6735 0.59884 0.1511 0.0
C1823 C 0.70208 0.59558 0.16035 0.0
C1824 C 0.72651 0.6187 0.15853 0.0
C1825 C 0.75309 0.61604 0.16921 0.0
C1826 C 0.7554 0.59025 0.18155 0.0
C1827 C 0.73132 0.56688 0.18272 0.0
C1828 C 0.70473 0.56944 0.17208 0.0
C1829 C 0.59628 0.57742 0.04959 0.0
C1830 C 0.57974 0.54833 0.04852 0.0
C1831 C 0.61576 0.58794 0.07164 0.0
C1832 C 0.61872 0.56961 0.09301 0.0
C1833 C 0.60479 0.53969 0.09054 0.0
C1834 C 0.58537 0.52901 0.06823 0.0
C1835 C 0.63143 0.58336 0.11953 0.0
C1836 C 0.65838 0.58074 0.1292 0.0
C1837 C 0.61805 0.60227 0.13343 0.0
C1838 C 0.58862 0.60414 0.12506 0.0
C1839 C 0.56574 0.57891 0.12392 0.0
C1840 C 0.53818 0.58061 0.11542 0.0
C1841 C 0.53321 0.60747 0.10816 0.0
C1842 C 0.55576 0.63272 0.10951 0.0
C1843 C 0.58336 0.63113 0.11796 0.0
H1844 H 0.51187 0.60874 0.10155 0.0
H1845 H 0.77578 0.58837 0.19038 0.0
H1846 H 0.29212 0.68284 0.1549 0.0
H1847 H 0.31422 0.65496 0.12489 0.0
H1848 H 0.33014 0.60201 0.1915 0.0
H1849 H 0.30845 0.63098 0.22231 0.0
H1850 H 0.37582 0.61784 0.16373 0.0
H1851 H 0.27857 0.57338 0.13946 0.0
H1852 H 0.22791 0.56991 0.12682 0.0
H1853 H 0.25047 0.61484 0.05352 0.0
H1854 H 0.30141 0.61914 0.06597 0.0
H1855 H 0.38616 0.52709 0.03114 0.0
H1856 H 0.35724 0.54074 0.06556 0.0
H1857 H 0.41937 0.62373 0.0809 0.0
H1858 H 0.44892 0.60988 0.04709 0.0
H1859 H 0.33109 0.58149 0.07192 0.0
H1860 H 0.42525 0.64451 0.147 0.0
H1861 H 0.47475 0.6432 0.16034 0.0
H1862 H 0.45566 0.55218 0.13469 0.0
H1863 H 0.40593 0.55279 0.1216 0.0
C1864 C 0.30001 0.66507 0.16322 0.0
C1865 C 0.29847 0.65893 0.1909 0.0
C1866 C 0.31252 0.64901 0.14594 0.0
C1867 C 0.32332 0.62599 0.15578 0.0
C1868 C 0.32171 0.61958 0.18347 0.0
C1869 C 0.3093 0.63599 0.20099 0.0
C1870 C 0.33757 0.61008 0.13704 0.0
C1871 C 0.36595 0.60957 0.14378 0.0
C1872 C 0.32448 0.59874 0.11119 0.0
C1873 C 0.29387 0.59658 0.10369 0.0
C1874 C 0.27278 0.58273 0.12075 0.0
C1875 C 0.24399 0.58061 0.1136 0.0
C1876 C 0.23598 0.59207 0.08933 0.0
C1877 C 0.25674 0.60593 0.07228 0.0
C1878 C 0.28558 0.60817 0.07936 0.0
C1879 C 0.39355 0.54841 0.04157 0.0
C1880 C 0.41997 0.56733 0.03651 0.0
C1881 C 0.37701 0.55612 0.06133 0.0
C1882 C 0.38648 0.58292 0.07625 0.0
C1883 C 0.41205 0.60256 0.07016 0.0
C1884 C 0.42878 0.59473 0.05064 0.0
C1885 C 0.36965 0.59037 0.09822 0.0
C1886 C 0.34081 0.58929 0.09204 0.0
C1887 C 0.38212 0.59953 0.12477 0.0
C1888 C 0.41187 0.59878 0.13316 0.0
C1889 C 0.43154 0.62416 0.14438 0.0
C1890 C 0.45966 0.62355 0.15186 0.0
C1891 C 0.46834 0.59763 0.14834 0.0
C1892 C 0.44891 0.57225 0.13737 0.0
C1893 C 0.42076 0.57273 0.1299 0.0
H1894 H 0.49011 0.59721 0.15415 0.0
H1895 H 0.2137 0.59003 0.08364 0.0
H1896 H 0.34786 0.33367 0.24594 0.0
H1897 H 0.37789 0.36083 0.21228 0.0
H1898 H 0.31308 0.32307 0.14846 0.0
H1899 H 0.28375 0.29475 0.18196 0.0
H1900 H 0.36023 0.3209 0.13129 0.0
H1901 H 0.32934 0.39848 0.17465 0.0
H1902 H 0.32159 0.42993 0.21275 0.0
H1903 H 0.41192 0.45738 0.23296 0.0
H1904 H 0.42018 0.42579 0.19517 0.0
H1905 H 0.40037 0.42432 0.02954 0.0
H1906 H 0.37763 0.39612 0.06662 0.0
H1907 H 0.45832 0.41534 0.11395 0.0
H1908 H 0.48154 0.44343 0.07642 0.0
H1909 H 0.40779 0.42718 0.141 0.0
H1910 H 0.43739 0.34973 0.09475 0.0
H1911 H 0.44295 0.31991 0.05455 0.0
H1912 H 0.35204 0.29454 0.03768 0.0
H1913 H 0.34595 0.32442 0.0777 0.0
C1914 C 0.33989 0.33145 0.22477 0.0
C1915 C 0.31337 0.31217 0.21661 0.0
C1916 C 0.35706 0.34711 0.20547 0.0
C1917 C 0.34778 0.34442 0.17766 0.0
C1918 C 0.32093 0.32559 0.16968 0.0
C1919 C 0.30402 0.30954 0.18888 0.0
C1920 C 0.36634 0.36019 0.15671 0.0
C1921 C 0.37042 0.34417 0.13346 0.0
C1922 C 0.38026 0.39056 0.1595 0.0
C1923 C 0.37535 0.40951 0.18228 0.0
C1924 C 0.34753 0.41104 0.18736 0.0
C1925 C 0.34305 0.42893 0.20887 0.0
C1926 C 0.36624 0.44557 0.22532 0.0
C1927 C 0.39397 0.44443 0.22024 0.0
C1928 C 0.39857 0.42655 0.19876 0.0
C1929 C 0.41341 0.42236 0.04771 0.0
C1930 C 0.44278 0.43619 0.05004 0.0
C1931 C 0.40035 0.4062 0.06889 0.0
C1932 C 0.41622 0.40373 0.09309 0.0
C1933 C 0.44567 0.41707 0.09546 0.0
C1934 C 0.45893 0.4329 0.07395 0.0
C1935 C 0.40142 0.38776 0.11589 0.0
C1936 C 0.39792 0.40379 0.13927 0.0
C1937 C 0.38771 0.35752 0.11311 0.0
C1938 C 0.39123 0.33944 0.08911 0.0
C1939 C 0.41859 0.33793 0.08237 0.0
C1940 C 0.42184 0.32098 0.05965 0.0
C1941 C 0.39786 0.30537 0.04355 0.0
C1942 C 0.37059 0.30668 0.05015 0.0
C1943 C 0.36722 0.32356 0.07288 0.0
H1944 H 0.40041 0.29223 0.02598 0.0
H1945 H 0.36273 0.45942 0.24196 0.0
H1946 H 0.82264 0.69815 0.71819 0.0
H1947 H 0.84889 0.67345 0.6885 0.0
H1948 H 0.78077 0.66144 0.62565 0.0
H1949 H 0.75461 0.68703 0.65503 0.0
H1950 H 0.80396 0.60874 0.63758 0.0
H1951 H 0.83442 0.71097 0.61589 0.0
H1952 H 0.854 0.76378 0.62719 0.0
H1953 H 0.9313 0.74671 0.66197 0.0
H1954 H 0.91195 0.69371 0.65138 0.0
H1955 H 0.87673 0.55793 0.53206 0.0
H1956 H 0.84799 0.58187 0.55958 0.0
H1957 H 0.92388 0.62739 0.60826 0.0
H1958 H 0.95272 0.60484 0.57976 0.0
H1959 H 0.8952 0.66368 0.6032 0.0
H1960 H 0.86758 0.56412 0.62918 0.0
H1961 H 0.84989 0.51038 0.62287 0.0
H1962 H 0.77041 0.52044 0.58632 0.0
H1963 H 0.78777 0.57429 0.5921 0.0
C1964 C 0.81305 0.69017 0.69812 0.0
C1965 C 0.78632 0.69466 0.68914 0.0
C1966 C 0.82822 0.67607 0.68108 0.0
C1967 C 0.81695 0.66552 0.65471 0.0
C1968 C 0.78999 0.66931 0.64587 0.0
C1969 C 0.77504 0.68402 0.66271 0.0
C1970 C 0.83356 0.65099 0.6364 0.0
C1971 C 0.82371 0.62082 0.6297 0.0
C1972 C 0.8599 0.66639 0.62685 0.0
C1973 C 0.8716 0.6983 0.63308 0.0
C1974 C 0.85548 0.71843 0.62619 0.0
C1975 C 0.86656 0.74841 0.63242 0.0
C1976 C 0.89385 0.75857 0.64535 0.0
C1977 C 0.91014 0.73879 0.652 0.0
C1978 C 0.89913 0.70878 0.64588 0.0
C1979 C 0.88729 0.57291 0.54872 0.0
C1980 C 0.91716 0.57924 0.55361 0.0
C1981 C 0.87073 0.58658 0.5647 0.0
C1982 C 0.88335 0.60634 0.58668 0.0
C1983 C 0.91323 0.61246 0.59158 0.0
C1984 C 0.92983 0.59934 0.57525 0.0
C1985 C 0.8658 0.62102 0.60421 0.0
C1986 C 0.87546 0.65135 0.61089 0.0
C1987 C 0.83961 0.60558 0.61434 0.0
C1988 C 0.8291 0.57324 0.61081 0.0
C1989 C 0.84641 0.55487 0.61962 0.0
C1990 C 0.83643 0.5244 0.61616 0.0
C1991 C 0.80908 0.51201 0.60413 0.0
C1992 C 0.79161 0.53007 0.59559 0.0
C1993 C 0.8015 0.56057 0.59897 0.0
H1994 H 0.80139 0.48841 0.60147 0.0
H1995 H 0.90241 0.78178 0.65016 0.0
H1996 H 0.35732 0.80187 0.73145 0.0
H1997 H 0.39536 0.83003 0.70507 0.0
H1998 H 0.33492 0.82402 0.63587 0.0
H1999 H 0.29688 0.79616 0.66194 0.0
H2000 H 0.38747 0.81206 0.62318 0.0
H2001 H 0.35107 0.88374 0.67508 0.0
H2002 H 0.34131 0.90658 0.71787 0.0
H2003 H 0.43012 0.92544 0.74478 0.0
H2004 H 0.44032 0.90234 0.70225 0.0
H2005 H 0.40739 0.92597 0.53643 0.0
H2006 H 0.39289 0.89191 0.5724 0.0
H2007 H 0.47696 0.92055 0.61324 0.0
H2008 H 0.49179 0.95494 0.57697 0.0
H2009 H 0.42774 0.91804 0.64684 0.0
H2010 H 0.46595 0.85658 0.59118 0.0
H2011 H 0.47659 0.83504 0.54809 0.0
H2012 H 0.38718 0.79697 0.52906 0.0
H2013 H 0.37602 0.8186 0.5719 0.0
C2014 C 0.35219 0.80646 0.71057 0.0
C2015 C 0.32409 0.79698 0.69878 0.0
C2016 C 0.37392 0.8225 0.69559 0.0
C2017 C 0.36785 0.82898 0.6686 0.0
C2018 C 0.33998 0.81905 0.65667 0.0
C2019 C 0.31824 0.80335 0.67166 0.0
C2020 C 0.38995 0.84724 0.65277 0.0
C2021 C 0.3965 0.83517 0.62842 0.0
C2022 C 0.40256 0.87707 0.66024 0.0
C2023 C 0.39639 0.89098 0.6857 0.0
C2024 C 0.36846 0.89252 0.69024 0.0
C2025 C 0.36286 0.90556 0.71441 0.0
C2026 C 0.38506 0.91735 0.73408 0.0
C2027 C 0.41293 0.91622 0.72957 0.0
C2028 C 0.41864 0.90317 0.70544 0.0
C2029 C 0.42279 0.92515 0.5531 0.0
C2030 C 0.45071 0.94302 0.55394 0.0
C2031 C 0.41456 0.90554 0.57348 0.0
C2032 C 0.43399 0.90361 0.5952 0.0
C2033 C 0.4618 0.9217 0.59647 0.0
C2034 C 0.47021 0.94115 0.57577 0.0
C2035 C 0.42417 0.8831 0.61674 0.0
C2036 C 0.41976 0.89468 0.64212 0.0
C2037 C 0.41377 0.85275 0.61038 0.0
C2038 C 0.42017 0.83936 0.58467 0.0
C2039 C 0.44856 0.8438 0.57769 0.0
C2040 C 0.45469 0.83154 0.55334 0.0
C2041 C 0.43257 0.8147 0.53582 0.0
C2042 C 0.40429 0.81002 0.54267 0.0
C2043 C 0.39806 0.82222 0.56701 0.0
H2044 H 0.43733 0.80524 0.51697 0.0
H2045 H 0.38068 0.92744 0.75278 0.0
H2046 H 0.21628 0.33003 0.71203 0.0
H2047 H 0.19083 0.35832 0.68369 0.0
H2048 H 0.14477 0.27878 0.63924 0.0
H2049 H 0.17251 0.25088 0.66618 0.0
H2050 H 0.15055 0.31653 0.605 0.0
H2051 H 0.11843 0.32237 0.69526 0.0
H2052 H 0.12486 0.33305 0.74482 0.0
H2053 H 0.16445 0.42344 0.73175 0.0
H2054 H 0.15878 0.41317 0.68209 0.0
H2055 H 0.03956 0.37825 0.54985 0.0
H2056 H 0.06521 0.35098 0.57938 0.0
H2057 H 0.12752 0.43122 0.60436 0.0
H2058 H 0.10219 0.45874 0.57443 0.0
H2059 H 0.1123 0.39356 0.64821 0.0
H2060 H 0.14344 0.38744 0.55818 0.0
H2061 H 0.1365 0.37693 0.50858 0.0
H2062 H 0.09659 0.28663 0.52167 0.0
H2063 H 0.10282 0.29673 0.57138 0.0
C2064 C 0.20075 0.31853 0.69617 0.0
C2065 C 0.19637 0.28804 0.69164 0.0
C2066 C 0.18575 0.33478 0.68002 0.0
C2067 C 0.1646 0.321 0.65957 0.0
C2068 C 0.16058 0.29043 0.65479 0.0
C2069 C 0.17645 0.2743 0.67033 0.0
C2070 C 0.14704 0.33831 0.64321 0.0
C2071 C 0.14188 0.33295 0.61478 0.0
C2072 C 0.13582 0.3606 0.65518 0.0
C2073 C 0.13841 0.36693 0.68498 0.0
C2074 C 0.12856 0.3445 0.70297 0.0
C2075 C 0.1321 0.35049 0.73109 0.0
C2076 C 0.14511 0.3789 0.74144 0.0
C2077 C 0.15443 0.40143 0.7237 0.0
C2078 C 0.15106 0.39554 0.69557 0.0
C2079 C 0.05847 0.39036 0.56187 0.0
C2080 C 0.0686 0.42098 0.55947 0.0
C2081 C 0.07332 0.37455 0.57872 0.0
C2082 C 0.09872 0.38876 0.59403 0.0
C2083 C 0.10813 0.4195 0.5928 0.0
C2084 C 0.09348 0.43532 0.57563 0.0
C2085 C 0.11586 0.37147 0.61042 0.0
C2086 C 0.1209 0.37691 0.6387 0.0
C2087 C 0.12672 0.34914 0.59839 0.0
C2088 C 0.12333 0.34291 0.56852 0.0
C2089 C 0.13298 0.36539 0.55049 0.0
C2090 C 0.1292 0.35951 0.52235 0.0
C2091 C 0.11606 0.33115 0.51198 0.0
C2092 C 0.10674 0.3086 0.52974 0.0
C2093 C 0.11039 0.31439 0.5579 0.0
H2094 H 0.11314 0.32665 0.49019 0.0
H2095 H 0.14802 0.38351 0.7632 0.0
H2096 H 0.72297 0.17528 0.70813 0.0
H2097 H 0.7054 0.14063 0.66929 0.0
H2098 H 0.71008 0.21298 0.61636 0.0
H2099 H 0.72852 0.2477 0.65493 0.0
H2100 H 0.65476 0.1753 0.62225 0.0
H2101 H 0.74844 0.17165 0.60247 0.0
H2102 H 0.79694 0.16445 0.60929 0.0
H2103 H 0.76217 0.07427 0.62678 0.0
H2104 H 0.71339 0.08101 0.62066 0.0
H2105 H 0.5881 0.10256 0.50641 0.0
H2106 H 0.63154 0.12926 0.53254 0.0
H2107 H 0.62565 0.05656 0.58524 0.0
H2108 H 0.5822 0.02927 0.55866 0.0
H2109 H 0.68497 0.09332 0.57775 0.0
H2110 H 0.59196 0.09995 0.60425 0.0
H2111 H 0.54343 0.10634 0.59464 0.0
H2112 H 0.57836 0.19167 0.5645 0.0
H2113 H 0.62712 0.18553 0.5735 0.0
C2114 C 0.72129 0.18374 0.68805 0.0
C2115 C 0.72697 0.2141 0.68447 0.0
C2116 C 0.71132 0.16394 0.66589 0.0
C2117 C 0.70666 0.17433 0.64002 0.0
C2118 C 0.71382 0.20463 0.63619 0.0
C2119 C 0.72407 0.22439 0.65823 0.0
C2120 C 0.68909 0.15423 0.6186 0.0
C2121 C 0.66162 0.15769 0.61224 0.0
C2122 C 0.69781 0.13073 0.60628 0.0
C2123 C 0.72716 0.12694 0.61137 0.0
C2124 C 0.75108 0.15039 0.60824 0.0
C2125 C 0.77864 0.14636 0.61185 0.0
C2126 C 0.78261 0.11891 0.61836 0.0
C2127 C 0.75903 0.0955 0.62163 0.0
C2128 C 0.73142 0.09943 0.61813 0.0
C2129 C 0.59651 0.09189 0.52306 0.0
C2130 C 0.58146 0.06424 0.53106 0.0
C2131 C 0.62146 0.10705 0.53779 0.0
C2132 C 0.63141 0.09502 0.56102 0.0
C2133 C 0.61823 0.06612 0.56732 0.0
C2134 C 0.59334 0.05069 0.55228 0.0
C2135 C 0.651 0.11478 0.58147 0.0
C2136 C 0.67844 0.11108 0.58781 0.0
C2137 C 0.64239 0.13813 0.59412 0.0
C2138 C 0.61314 0.14216 0.58928 0.0
C2139 C 0.58927 0.11998 0.59539 0.0
C2140 C 0.56173 0.12356 0.59008 0.0
C2141 C 0.55781 0.14936 0.5789 0.0
C2142 C 0.58143 0.17168 0.57312 0.0
C2143 C 0.60902 0.16817 0.57833 0.0
H2144 H 0.53647 0.15209 0.57479 0.0
H2145 H 0.80393 0.11574 0.62083 0.0
H2146 H 0.73238 0.28991 0.32624 0.0
H2147 H 0.75859 0.31707 0.36702 0.0
H2148 H 0.83824 0.31791 0.33202 0.0
H2149 H 0.81233 0.29001 0.29212 0.0
H2150 H 0.84377 0.3094 0.38263 0.0
H2151 H 0.80561 0.37712 0.32882 0.0
H2152 H 0.76734 0.3955 0.30569 0.0
H2153 H 0.7295 0.40011 0.38172 0.0
H2154 H 0.76741 0.38142 0.40523 0.0
H2155 H 0.92304 0.46437 0.42741 0.0
H2156 H 0.87976 0.43321 0.40384 0.0
H2157 H 0.87614 0.36934 0.46575 0.0
H2158 H 0.9203 0.39977 0.48844 0.0
H2159 H 0.82674 0.40591 0.40803 0.0
H2160 H 0.86195 0.30109 0.43579 0.0
H2161 H 0.90529 0.28582 0.45109 0.0
H2162 H 0.95745 0.36113 0.41552 0.0
H2163 H 0.91442 0.37658 0.39967 0.0
C2164 C 0.75549 0.2956 0.32755 0.0
C2165 C 0.77038 0.28815 0.30602 0.0
C2166 C 0.77041 0.31123 0.35073 0.0
C2167 C 0.80038 0.31993 0.3524 0.0
C2168 C 0.81514 0.31144 0.33126 0.0
C2169 C 0.80031 0.29558 0.30837 0.0
C2170 C 0.81681 0.33886 0.37542 0.0
C2171 C 0.83978 0.33032 0.38844 0.0
C2172 C 0.81185 0.36633 0.38279 0.0
C2173 C 0.78909 0.37753 0.3687 0.0
C2174 C 0.78899 0.38185 0.34055 0.0
C2175 C 0.7674 0.39236 0.32739 0.0
C2176 C 0.74595 0.39887 0.34221 0.0
C2177 C 0.74609 0.39498 0.37025 0.0
C2178 C 0.76762 0.38444 0.38351 0.0
C2179 C 0.91244 0.44411 0.43638 0.0
C2180 C 0.9251 0.43406 0.45932 0.0
C2181 C 0.88771 0.4263 0.42295 0.0
C2182 C 0.87522 0.39851 0.4326 0.0
C2183 C 0.88589 0.39031 0.45753 0.0
C2184 C 0.91099 0.40772 0.47054 0.0
C2185 C 0.85414 0.37674 0.41465 0.0
C2186 C 0.83024 0.38465 0.40273 0.0
C2187 C 0.85895 0.34915 0.40732 0.0
C2188 C 0.885 0.34023 0.41698 0.0
C2189 C 0.88268 0.31439 0.43128 0.0
C2190 C 0.90718 0.30569 0.44001 0.0
C2191 C 0.93411 0.32258 0.43441 0.0
C2192 C 0.93659 0.34815 0.41997 0.0
C2193 C 0.91216 0.3569 0.41112 0.0
H2194 H 0.95304 0.31578 0.44116 0.0
H2195 H 0.72925 0.40701 0.33199 0.0
H2196 H 0.68823 0.75871 0.34758 0.0
H2197 H 0.66913 0.78518 0.3821 0.0
H2198 H 0.74056 0.86037 0.37752 0.0
H2199 H 0.76 0.83364 0.34314 0.0
H2200 H 0.71767 0.85091 0.43169 0.0
H2201 H 0.68957 0.86213 0.33824 0.0
H2202 H 0.67239 0.8448 0.29109 0.0
H2203 H 0.59386 0.79396 0.31922 0.0
H2204 H 0.61082 0.81055 0.36664 0.0
H2205 H 0.63427 0.95225 0.46925 0.0
H2206 H 0.66747 0.92789 0.44877 0.0
H2207 H 0.60068 0.8478 0.43733 0.0
H2208 H 0.56737 0.87187 0.45721 0.0
H2209 H 0.62599 0.86471 0.39089 0.0
H2210 H 0.65547 0.85433 0.48532 0.0
H2211 H 0.67371 0.87288 0.53194 0.0
H2212 H 0.75031 0.92494 0.50122 0.0
H2213 H 0.73221 0.90716 0.45434 0.0
C2214 C 0.70028 0.78054 0.35455 0.0
C2215 C 0.72527 0.7945 0.34253 0.0
C2216 C 0.68945 0.79555 0.37429 0.0
C2217 C 0.70333 0.82475 0.38194 0.0
C2218 C 0.72969 0.83779 0.37185 0.0
C2219 C 0.74064 0.82264 0.35218 0.0
C2220 C 0.68778 0.84279 0.39648 0.0
C2221 C 0.6978 0.85431 0.42278 0.0
C2222 C 0.662 0.8472 0.38457 0.0
C2223 C 0.65159 0.83737 0.35603 0.0
C2224 C 0.66874 0.84705 0.33441 0.0
C2225 C 0.65903 0.83739 0.30763 0.0
C2226 C 0.63207 0.81825 0.30216 0.0
C2227 C 0.61475 0.80876 0.32348 0.0
C2228 C 0.6244 0.81829 0.35032 0.0
C2229 C 0.62674 0.92938 0.46259 0.0
C2230 C 0.5981 0.91408 0.46456 0.0
C2231 C 0.64577 0.91548 0.45106 0.0
C2232 C 0.63645 0.8861 0.44162 0.0
C2233 C 0.60819 0.87055 0.44444 0.0
C2234 C 0.58918 0.88439 0.45576 0.0
C2235 C 0.65516 0.87195 0.42667 0.0
C2236 C 0.64588 0.86144 0.39995 0.0
C2237 C 0.68165 0.86885 0.43816 0.0
C2238 C 0.69243 0.87957 0.46633 0.0
C2239 C 0.67609 0.86993 0.48849 0.0
C2240 C 0.68641 0.88028 0.51497 0.0
C2241 C 0.71314 0.90011 0.51955 0.0
C2242 C 0.7296 0.90961 0.49765 0.0
C2243 C 0.71933 0.89939 0.47114 0.0
H2244 H 0.7211 0.90808 0.54006 0.0
H2245 H 0.62457 0.81082 0.28141 0.0
H2246 H 0.17775 0.65385 0.24866 0.0
H2247 H 0.13772 0.62329 0.27076 0.0
H2248 H 0.14362 0.69313 0.33104 0.0
H2249 H 0.18275 0.72411 0.30836 0.0
H2250 H 0.13892 0.60224 0.3169 0.0
H2251 H 0.08383 0.68906 0.36114 0.0
H2252 H 0.07051 0.73376 0.3464 0.0
H2253 H 0.06989 0.70566 0.2627 0.0
H2254 H 0.0828 0.66058 0.27691 0.0
H2255 H 0.09804 0.57179 0.44382 0.0
H2256 H 0.11412 0.59952 0.40437 0.0
H2257 H 0.02858 0.57479 0.36632 0.0
H2258 H 0.01199 0.54688 0.40651 0.0
H2259 H 0.06016 0.63448 0.35771 0.0
H2260 H 0.06977 0.537 0.34579 0.0
H2261 H 0.08215 0.4915 0.35968 0.0
H2262 H 0.17007 0.53846 0.37398 0.0
H2263 H 0.15821 0.58426 0.36069 0.0
C2264 C 0.17024 0.66279 0.26644 0.0
C2265 C 0.18348 0.69128 0.27692 0.0
C2266 C 0.14728 0.64535 0.27898 0.0
C2267 C 0.13734 0.65595 0.30242 0.0
C2268 C 0.15026 0.68466 0.31257 0.0
C2269 C 0.17288 0.70228 0.29975 0.0
C2270 C 0.11602 0.636 0.31819 0.0
C2271 C 0.1214 0.60914 0.32536 0.0
C2272 C 0.09266 0.64455 0.32883 0.0
C2273 C 0.08442 0.67144 0.32012 0.0
C2274 C 0.08065 0.69228 0.33959 0.0
C2275 C 0.07323 0.71773 0.33132 0.0
C2276 C 0.06941 0.72257 0.30363 0.0
C2277 C 0.07293 0.70193 0.28415 0.0
C2278 C 0.08034 0.67643 0.2923 0.0
C2279 C 0.0825 0.57242 0.42722 0.0
C2280 C 0.05389 0.55669 0.42791 0.0
C2281 C 0.09173 0.58832 0.40472 0.0
C2282 C 0.07267 0.58853 0.38224 0.0
C2283 C 0.04361 0.57457 0.38347 0.0
C2284 C 0.0342 0.55871 0.40633 0.0
C2285 C 0.08425 0.60187 0.35718 0.0
C2286 C 0.07712 0.62735 0.3484 0.0
C2287 C 0.10571 0.59185 0.34458 0.0
C2288 C 0.11306 0.56413 0.35224 0.0
C2289 C 0.09173 0.53765 0.35202 0.0
C2290 C 0.09866 0.51178 0.3598 0.0
C2291 C 0.12689 0.51206 0.3677 0.0
C2292 C 0.14823 0.53821 0.36782 0.0
C2293 C 0.14142 0.56413 0.36012 0.0
H2294 H 0.13222 0.49203 0.37372 0.0
H2295 H 0.06369 0.74231 0.29728 0.0
H2296 H 0.36538 0.24009 0.31007 0.0
H2297 H 0.39662 0.20977 0.32692 0.0
H2298 H 0.32325 0.14445 0.34977 0.0
H2299 H 0.29185 0.17436 0.33228 0.0
H2300 H 0.37212 0.16032 0.38989 0.0
H2301 H 0.34701 0.12983 0.29564 0.0
H2302 H 0.3422 0.13819 0.24661 0.0
H2303 H 0.43275 0.17389 0.24664 0.0
H2304 H 0.43803 0.16615 0.29588 0.0
H2305 H 0.41718 0.03209 0.40277 0.0
H2306 H 0.39495 0.06275 0.37418 0.0
H2307 H 0.47301 0.13117 0.38081 0.0
H2308 H 0.49562 0.1009 0.41 0.0
H2309 H 0.42476 0.11554 0.32452 0.0
H2310 H 0.44875 0.1535 0.41944 0.0
H2311 H 0.45288 0.14959 0.46929 0.0
H2312 H 0.36475 0.10239 0.46763 0.0
H2313 H 0.36028 0.10557 0.41761 0.0
C2314 C 0.35599 0.21949 0.3191 0.0
C2315 C 0.32627 0.20946 0.31998 0.0
C2316 C 0.3738 0.20214 0.32848 0.0
C2317 C 0.36211 0.17482 0.33921 0.0
C2318 C 0.33256 0.16545 0.34138 0.0
C2319 C 0.31471 0.18253 0.33153 0.0
C2320 C 0.38069 0.15577 0.34787 0.0
C2321 C 0.3835 0.15044 0.37557 0.0
C2322 C 0.39592 0.1434 0.32916 0.0
C2323 C 0.39287 0.14773 0.29951 0.0
C2324 C 0.36587 0.13972 0.28525 0.0
C2325 C 0.36306 0.1443 0.2574 0.0
C2326 C 0.38714 0.15667 0.2435 0.0
C2327 C 0.4141 0.16437 0.25744 0.0
C2328 C 0.41702 0.15987 0.28532 0.0
C2329 C 0.43013 0.05317 0.39737 0.0
C2330 C 0.45794 0.06443 0.40942 0.0
C2331 C 0.41731 0.07065 0.38097 0.0
C2332 C 0.43229 0.09929 0.37591 0.0
C2333 C 0.46122 0.10908 0.38467 0.0
C2334 C 0.47403 0.09175 0.40139 0.0
C2335 C 0.41619 0.12033 0.36653 0.0
C2336 C 0.41362 0.12577 0.33877 0.0
C2337 C 0.4013 0.13315 0.38514 0.0
C2338 C 0.40433 0.12936 0.41482 0.0
C2339 C 0.43043 0.14176 0.42965 0.0
C2340 C 0.43279 0.13981 0.45792 0.0
C2341 C 0.40909 0.12579 0.47157 0.0
C2342 C 0.38309 0.11323 0.45698 0.0
C2343 C 0.38064 0.11505 0.42867 0.0
H2344 H 0.4108 0.12503 0.49348 0.0
H2345 H 0.38493 0.16021 0.22194 0.0
H2346 H 0.70415 0.83204 0.67802 0.0
H2347 H 0.66923 0.85825 0.66175 0.0
H2348 H 0.60665 0.77588 0.64481 0.0
H2349 H 0.64162 0.74939 0.6613 0.0
H2350 H 0.60861 0.8152 0.60338 0.0
H2351 H 0.60186 0.81488 0.69952 0.0
H2352 H 0.61914 0.8222 0.74793 0.0
H2353 H 0.65118 0.9145 0.7374 0.0
H2354 H 0.63468 0.90769 0.68875 0.0
H2355 H 0.50654 0.88827 0.56756 0.0
H2356 H 0.52504 0.85827 0.6001 0.0
H2357 H 0.59947 0.92961 0.61932 0.0
H2358 H 0.58112 0.95986 0.58692 0.0
H2359 H 0.58471 0.89083 0.66324 0.0
H2360 H 0.60394 0.88893 0.5674 0.0
H2361 H 0.58905 0.88428 0.5184 0.0
H2362 H 0.53559 0.79819 0.52875 0.0
H2363 H 0.55005 0.80251 0.57798 0.0
C2364 C 0.68306 0.81947 0.67053 0.0
C2365 C 0.67552 0.7887 0.6709 0.0
C2366 C 0.66307 0.83449 0.66151 0.0
C2367 C 0.63523 0.819 0.65267 0.0
C2368 C 0.62798 0.78819 0.65185 0.0
C2369 C 0.64797 0.77312 0.66109 0.0
C2370 C 0.614 0.83519 0.64381 0.0
C2371 C 0.60283 0.83118 0.61669 0.0
C2372 C 0.60701 0.85654 0.66108 0.0
C2373 C 0.61719 0.86072 0.69036 0.0
C2374 C 0.61286 0.83671 0.70742 0.0
C2375 C 0.62248 0.84077 0.73494 0.0
C2376 C 0.63628 0.86879 0.74572 0.0
C2377 C 0.64051 0.8928 0.72901 0.0
C2378 C 0.63101 0.88885 0.70145 0.0
C2379 C 0.52627 0.89805 0.57949 0.0
C2380 C 0.54284 0.92609 0.57394 0.0
C2381 C 0.5368 0.88084 0.59813 0.0
C2382 C 0.56396 0.89151 0.61147 0.0
C2383 C 0.57855 0.92093 0.609 0.0
C2384 C 0.56804 0.93817 0.59035 0.0
C2385 C 0.57963 0.87085 0.62289 0.0
C2386 C 0.58994 0.87423 0.65029 0.0
C2387 C 0.58617 0.84908 0.60591 0.0
C2388 C 0.57783 0.84615 0.57632 0.0
C2389 C 0.58891 0.86907 0.55922 0.0
C2390 C 0.58057 0.86649 0.53141 0.0
C2391 C 0.56132 0.84098 0.52045 0.0
C2392 C 0.55047 0.81795 0.53728 0.0
C2393 C 0.55875 0.82044 0.56512 0.0
H2394 H 0.55486 0.83901 0.49893 0.0
H2395 H 0.64363 0.87193 0.76704 0.0
H2396 H 0.7222 0.16299 0.30044 0.0
H2397 H 0.68605 0.1279 0.32306 0.0
H2398 H 0.61973 0.14962 0.27152 0.0
H2399 H 0.65577 0.18515 0.24893 0.0
H2400 H 0.60811 0.15108 0.32362 0.0
H2401 H 0.63161 0.08153 0.26426 0.0
H2402 H 0.66218 0.05672 0.23936 0.0
H2403 H 0.69894 0.03477 0.31499 0.0
H2404 H 0.66871 0.05951 0.34038 0.0
H2405 H 0.52167 0.04405 0.40839 0.0
H2406 H 0.53973 0.06827 0.36714 0.0
H2407 H 0.6258 0.07067 0.39705 0.0
H2408 H 0.60822 0.04662 0.43776 0.0
H2409 H 0.6149 0.05042 0.34422 0.0
H2410 H 0.59761 0.13038 0.40189 0.0
H2411 H 0.56586 0.15427 0.42613 0.0
H2412 H 0.51577 0.1555 0.3514 0.0
H2413 H 0.54696 0.13115 0.32682 0.0
C2414 C 0.69997 0.16009 0.29364 0.0
C2415 C 0.69189 0.17702 0.27302 0.0
C2416 C 0.67931 0.13986 0.30648 0.0
C2417 C 0.6502 0.13595 0.29877 0.0
C2418 C 0.64207 0.15228 0.27773 0.0
C2419 C 0.66274 0.17258 0.26488 0.0
C2420 C 0.6285 0.11653 0.31437 0.0
C2421 C 0.60906 0.12878 0.32759 0.0
C2422 C 0.62961 0.08741 0.3194 0.0
C2423 C 0.64791 0.07248 0.30424 0.0
C2424 C 0.64632 0.07156 0.2756 0.0
C2425 C 0.66357 0.05749 0.26139 0.0
C2426 C 0.68254 0.04428 0.27558 0.0
C2427 C 0.68423 0.04501 0.30402 0.0
C2428 C 0.66696 0.05897 0.31833 0.0
C2429 C 0.54443 0.04992 0.40619 0.0
C2430 C 0.56349 0.04329 0.42632 0.0
C2431 C 0.55468 0.06364 0.3826 0.0
C2432 C 0.58407 0.071 0.37901 0.0
C2433 C 0.60301 0.0648 0.39928 0.0
C2434 C 0.59288 0.05116 0.42264 0.0
C2435 C 0.59594 0.08566 0.35459 0.0
C2436 C 0.61338 0.0724 0.33958 0.0
C2437 C 0.59285 0.11373 0.34781 0.0
C2438 C 0.57439 0.12866 0.3626 0.0
C2439 C 0.5797 0.13556 0.39068 0.0
C2440 C 0.56182 0.1492 0.40448 0.0
C2441 C 0.53877 0.15633 0.39033 0.0
C2442 C 0.5336 0.14991 0.36234 0.0
C2443 C 0.55135 0.13618 0.34848 0.0
H2444 H 0.52493 0.16685 0.40105 0.0
H2445 H 0.6959 0.03343 0.26454 0.0
H2446 H 0.79679 0.71954 0.33014 0.0
H2447 H 0.82445 0.69249 0.35758 0.0
H2448 H 0.86359 0.67165 0.28599 0.0
H2449 H 0.83519 0.69793 0.25825 0.0
H2450 H 0.85433 0.62584 0.3138 0.0
H2451 H 0.89891 0.726 0.33892 0.0
H2452 H 0.90162 0.77674 0.35491 0.0
H2453 H 0.86952 0.74556 0.43087 0.0
H2454 H 0.86625 0.69457 0.41519 0.0
H2455 H 0.97407 0.62124 0.43095 0.0
H2456 H 0.94994 0.64788 0.39919 0.0
H2457 H 0.8767 0.5736 0.39093 0.0
H2458 H 0.90101 0.54664 0.42194 0.0
H2459 H 0.90632 0.66847 0.40108 0.0
H2460 H 0.83671 0.5722 0.33203 0.0
H2461 H 0.83928 0.524 0.31306 0.0
H2462 H 0.9308 0.55174 0.31983 0.0
H2463 H 0.92878 0.60021 0.3385 0.0
C2464 C 0.81134 0.70935 0.32012 0.0
C2465 C 0.81365 0.7113 0.29177 0.0
C2466 C 0.82742 0.69387 0.33601 0.0
C2467 C 0.84682 0.68011 0.32428 0.0
C2468 C 0.849 0.68189 0.2959 0.0
C2469 C 0.83272 0.69717 0.27995 0.0
C2470 C 0.86448 0.66375 0.34141 0.0
C2471 C 0.86561 0.63528 0.3329 0.0
C2472 C 0.88005 0.67583 0.36623 0.0
C2473 C 0.88209 0.70645 0.37578 0.0
C2474 C 0.89225 0.72995 0.35897 0.0
C2475 C 0.89391 0.75876 0.36798 0.0
C2476 C 0.88568 0.76436 0.39386 0.0
C2477 C 0.87585 0.74118 0.41081 0.0
C2478 C 0.87411 0.71232 0.40188 0.0
C2479 C 0.95304 0.61027 0.422 0.0
C2480 C 0.93981 0.58145 0.42911 0.0
C2481 C 0.93904 0.62574 0.40388 0.0
C2482 C 0.91127 0.61304 0.39215 0.0
C2483 C 0.89822 0.58408 0.39894 0.0
C2484 C 0.91228 0.56853 0.41689 0.0
C2485 C 0.89571 0.63031 0.37375 0.0
C2486 C 0.89499 0.65898 0.38202 0.0
C2487 C 0.88113 0.6187 0.34838 0.0
C2488 C 0.88256 0.58972 0.33692 0.0
C2489 C 0.85737 0.56804 0.32937 0.0
C2490 C 0.85874 0.54067 0.31869 0.0
C2491 C 0.88519 0.53478 0.31533 0.0
C2492 C 0.91033 0.55629 0.32254 0.0
C2493 C 0.90909 0.5837 0.3332 0.0
H2494 H 0.88619 0.51357 0.30708 0.0
H2495 H 0.88697 0.78668 0.4008 0.0
H2496 H 0.31694 0.74316 0.32848 0.0
H2497 H 0.33349 0.78 0.36589 0.0
H2498 H 0.26642 0.82154 0.3419 0.0
H2499 H 0.24948 0.78403 0.30512 0.0
H2500 H 0.31807 0.85893 0.34167 0.0
H2501 H 0.2677 0.79578 0.40417 0.0
H2502 H 0.24937 0.7498 0.42735 0.0
H2503 H 0.33468 0.74944 0.45591 0.0
H2504 H 0.35361 0.79517 0.43255 0.0
H2505 H 0.40665 0.93573 0.47573 0.0
H2506 H 0.36114 0.90751 0.45265 0.0
H2507 H 0.40625 0.88899 0.38419 0.0
H2508 H 0.45136 0.91651 0.40733 0.0
H2509 H 0.35012 0.84756 0.43745 0.0
H2510 H 0.36481 0.88759 0.32645 0.0
H2511 H 0.38233 0.93417 0.30395 0.0
H2512 H 0.36529 0.98215 0.37354 0.0
H2513 H 0.34694 0.93584 0.39623 0.0
C2514 C 0.30525 0.7596 0.33183 0.0
C2515 C 0.28263 0.76164 0.31354 0.0
C2516 C 0.31463 0.78061 0.35318 0.0
C2517 C 0.30132 0.80369 0.35651 0.0
C2518 C 0.27718 0.80414 0.33953 0.0
C2519 C 0.26779 0.78308 0.31832 0.0
C2520 C 0.31535 0.82942 0.3747 0.0
C2521 C 0.3247 0.8566 0.36276 0.0
C2522 C 0.32327 0.82654 0.40239 0.0
C2523 C 0.31209 0.79893 0.41649 0.0
C2524 C 0.28259 0.7858 0.41521 0.0
C2525 C 0.27208 0.75978 0.42842 0.0
C2526 C 0.29084 0.74669 0.44307 0.0
C2527 C 0.32016 0.75961 0.44457 0.0
C2528 C 0.33079 0.78563 0.43138 0.0
C2529 C 0.40652 0.92621 0.45546 0.0
C2530 C 0.43214 0.92834 0.44299 0.0
C2531 C 0.38069 0.91005 0.44242 0.0
C2532 C 0.38038 0.89644 0.41666 0.0
C2533 C 0.40598 0.89972 0.40387 0.0
C2534 C 0.43168 0.91536 0.41703 0.0
C2535 C 0.3542 0.87629 0.40381 0.0
C2536 C 0.34268 0.85013 0.41666 0.0
C2537 C 0.3441 0.88016 0.37697 0.0
C2538 C 0.35456 0.90813 0.36312 0.0
C2539 C 0.36452 0.90802 0.33689 0.0
C2540 C 0.37466 0.93441 0.3241 0.0
C2541 C 0.37499 0.96109 0.33733 0.0
C2542 C 0.36507 0.96146 0.36334 0.0
C2543 C 0.35479 0.93514 0.37617 0.0
H2544 H 0.38292 0.98149 0.32743 0.0
H2545 H 0.28266 0.72655 0.45329 0.0
H2546 H 0.23256 0.28921 0.33932 0.0
H2547 H 0.2065 0.31506 0.36826 0.0
H2548 H 0.18328 0.36025 0.29895 0.0
H2549 H 0.209 0.33429 0.26978 0.0
H2550 H 0.20109 0.39741 0.34738 0.0
H2551 H 0.13585 0.30432 0.31916 0.0
H2552 H 0.12258 0.2503 0.31394 0.0
H2553 H 0.13262 0.24401 0.40062 0.0
H2554 H 0.14643 0.29803 0.40634 0.0
H2555 H 0.09509 0.45562 0.40576 0.0
H2556 H 0.12298 0.43203 0.37677 0.0
H2557 H 0.12289 0.36653 0.43659 0.0
H2558 H 0.0932 0.38903 0.46443 0.0
H2559 H 0.1179 0.33946 0.39249 0.0
H2560 H 0.18459 0.429 0.42311 0.0
H2561 H 0.20339 0.4824 0.43145 0.0
H2562 H 0.19606 0.49525 0.34557 0.0
H2563 H 0.17695 0.44191 0.33673 0.0
C2564 C 0.22225 0.30491 0.33023 0.0
C2565 C 0.22306 0.30961 0.30211 0.0
C2566 C 0.20717 0.31961 0.34684 0.0
C2567 C 0.1927 0.33961 0.33587 0.0
C2568 C 0.19424 0.34504 0.30799 0.0
C2569 C 0.20898 0.33007 0.29129 0.0
C2570 C 0.1752 0.35409 0.35319 0.0
C2571 C 0.18268 0.3848 0.357 0.0
C2572 C 0.15167 0.3377 0.36651 0.0
C2573 C 0.14242 0.30523 0.36316 0.0
C2574 C 0.13537 0.29142 0.3371 0.0
C2575 C 0.12775 0.2608 0.33405 0.0
C2576 C 0.12684 0.24373 0.35693 0.0
C2577 C 0.13338 0.25726 0.38292 0.0
C2578 C 0.14108 0.28788 0.38608 0.0
C2579 C 0.10118 0.43625 0.41268 0.0
C2580 C 0.09214 0.4243 0.43743 0.0
C2581 C 0.11739 0.42279 0.39618 0.0
C2582 C 0.12594 0.39757 0.40444 0.0
C2583 C 0.11683 0.3858 0.42938 0.0
C2584 C 0.09995 0.3988 0.44548 0.0
C2585 C 0.14376 0.38316 0.38706 0.0
C2586 C 0.13631 0.35233 0.38307 0.0
C2587 C 0.1678 0.39942 0.3741 0.0
C2588 C 0.17913 0.4315 0.37929 0.0
C2589 C 0.18682 0.44324 0.40602 0.0
C2590 C 0.19757 0.47348 0.41083 0.0
C2591 C 0.20094 0.49219 0.38905 0.0
C2592 C 0.1935 0.48071 0.36241 0.0
C2593 C 0.18273 0.45048 0.35748 0.0
H2594 H 0.20935 0.51558 0.39283 0.0
H2595 H 0.12102 0.22002 0.35452 0.0
H2596 H 0.30485 0.16772 0.68166 0.0
H2597 H 0.32872 0.14476 0.64854 0.0
H2598 H 0.30218 0.19617 0.58537 0.0
H2599 H 0.27964 0.22073 0.61926 0.0
H2600 H 0.30606 0.11059 0.60589 0.0
H2601 H 0.35247 0.20431 0.53663 0.0
H2602 H 0.36896 0.25838 0.5382 0.0
H2603 H 0.39089 0.25869 0.62404 0.0
H2604 H 0.37485 0.20466 0.62288 0.0
H2605 H 0.37585 0.04895 0.50402 0.0
H2606 H 0.34441 0.07535 0.52499 0.0
H2607 H 0.41733 0.13222 0.57012 0.0
H2608 H 0.44871 0.10665 0.54888 0.0
H2609 H 0.38354 0.16352 0.55096 0.0
H2610 H 0.37259 0.07283 0.59838 0.0
H2611 H 0.36051 0.01908 0.60225 0.0
H2612 H 0.2751 0.01319 0.56942 0.0
H2613 H 0.28682 0.0669 0.56503 0.0
C2614 C 0.30419 0.17416 0.66071 0.0
C2615 C 0.2902 0.19559 0.65274 0.0
C2616 C 0.31776 0.16103 0.64181 0.0
C2617 C 0.3169 0.16845 0.61444 0.0
C2618 C 0.3031 0.19015 0.60642 0.0
C2619 C 0.29017 0.20402 0.62564 0.0
C2620 C 0.33046 0.15298 0.59472 0.0
C2621 C 0.32283 0.12217 0.59367 0.0
C2622 C 0.35226 0.16807 0.57876 0.0
C2623 C 0.36208 0.20052 0.57971 0.0
C2624 C 0.36083 0.21595 0.55582 0.0
C2625 C 0.37011 0.24657 0.55664 0.0
C2626 C 0.38084 0.26197 0.58123 0.0
C2627 C 0.38244 0.24676 0.60503 0.0
C2628 C 0.37322 0.21614 0.60431 0.0
C2629 C 0.38508 0.067 0.51851 0.0
C2630 C 0.41472 0.07571 0.52485 0.0
C2631 C 0.36714 0.08211 0.53039 0.0
C2632 C 0.37855 0.10573 0.54913 0.0
C2633 C 0.40809 0.11428 0.5555 0.0
C2634 C 0.42599 0.09949 0.54346 0.0
C2635 C 0.36 0.12116 0.56312 0.0
C2636 C 0.3664 0.15193 0.56278 0.0
C2637 C 0.33768 0.10607 0.57855 0.0
C2638 C 0.3307 0.07379 0.58099 0.0
C2639 C 0.35132 0.06003 0.59174 0.0
C2640 C 0.34452 0.02959 0.59408 0.0
C2641 C 0.31709 0.01272 0.58597 0.0
C2642 C 0.29637 0.02627 0.57559 0.0
C2643 C 0.30308 0.0567 0.57317 0.0
H2644 H 0.31186 0.98916 0.58782 0.0
H2645 H 0.388 0.28567 0.58182 0.0
H2646 H 0.81244 0.33587 0.70754 0.0
H2647 H 0.84669 0.36222 0.67711 0.0
H2648 H 0.87327 0.28334 0.65942 0.0
H2649 H 0.83897 0.25652 0.69014 0.0
H2650 H 0.91964 0.3362 0.666 0.0
H2651 H 0.83152 0.29848 0.61437 0.0
H2652 H 0.77936 0.28681 0.60477 0.0
H2653 H 0.78208 0.37867 0.60739 0.0
H2654 H 0.83422 0.3909 0.61752 0.0
H2655 H 0.97985 0.41691 0.54787 0.0
H2656 H 0.95862 0.3787 0.57898 0.0
H2657 H 0.90967 0.43531 0.61094 0.0
H2658 H 0.93017 0.47288 0.57975 0.0
H2659 H 0.87646 0.38275 0.59092 0.0
H2660 H 0.96544 0.41853 0.64855 0.0
H2661 H 0.01782 0.42871 0.65582 0.0
H2662 H 0.0137 0.33797 0.638 0.0
H2663 H 0.96128 0.32732 0.63037 0.0
C2664 C 0.8256 0.32404 0.69737 0.0
C2665 C 0.82269 0.29398 0.70106 0.0
C2666 C 0.84525 0.33918 0.68004 0.0
C2667 C 0.86229 0.32462 0.66592 0.0
C2668 C 0.86029 0.2949 0.67021 0.0
C2669 C 0.84053 0.27963 0.6876 0.0
C2670 C 0.88046 0.34039 0.64529 0.0
C2671 C 0.91029 0.34602 0.64927 0.0
C2672 C 0.86817 0.35277 0.6233 0.0
C2673 C 0.8368 0.34559 0.61687 0.0
C2674 C 0.82099 0.31619 0.61309 0.0
C2675 C 0.79141 0.30948 0.60753 0.0
C2676 C 0.77741 0.33198 0.6055 0.0
C2677 C 0.79296 0.36126 0.60897 0.0
C2678 C 0.82254 0.3681 0.61459 0.0
C2679 C 0.96517 0.42136 0.56213 0.0
C2680 C 0.95637 0.44761 0.56137 0.0
C2681 C 0.95302 0.39956 0.57978 0.0
C2682 C 0.93237 0.40413 0.59701 0.0
C2683 C 0.92533 0.43125 0.59757 0.0
C2684 C 0.93709 0.45271 0.57983 0.0
C2685 C 0.91564 0.38019 0.61263 0.0
C2686 C 0.88591 0.37267 0.60741 0.0
C2687 C 0.92813 0.36591 0.63311 0.0
C2688 C 0.95949 0.37219 0.63866 0.0
C2689 C 0.97572 0.40078 0.64609 0.0
C2690 C 0.00541 0.40663 0.65028 0.0
C2691 C 0.01909 0.38402 0.64729 0.0
C2692 C 1.00308 0.35547 0.64028 0.0
C2693 C 0.97338 0.3495 0.63607 0.0
H2694 H 0.04208 0.38861 0.65043 0.0
H2695 H 0.75452 0.32674 0.6012 0.0
H2696 H 0.20141 0.69321 0.69059 0.0
H2697 H 0.1793 0.66252 0.65051 0.0
H2698 H 0.2624 0.66231 0.62419 0.0
H2699 H 0.28487 0.69283 0.66483 0.0
H2700 H 0.21762 0.67234 0.58191 0.0
H2701 H 0.23653 0.60452 0.64483 0.0
H2702 H 0.23954 0.58155 0.68895 0.0
H2703 H 0.14869 0.56446 0.69227 0.0
H2704 H 0.14516 0.58791 0.64844 0.0
H2705 H 0.09614 0.52787 0.53421 0.0
H2706 H 0.14436 0.55037 0.55385 0.0
H2707 H 0.12731 0.6359 0.54965 0.0
H2708 H 0.08007 0.61394 0.52885 0.0
H2709 H 0.15524 0.575 0.60027 0.0
H2710 H 0.18319 0.69106 0.55232 0.0
H2711 H 0.18181 0.7113 0.50677 0.0
H2712 H 0.18327 0.62811 0.47 0.0
H2713 H 0.18515 0.60743 0.51534 0.0
C2714 C 0.21501 0.68687 0.67618 0.0
C2715 C 0.24481 0.69517 0.68082 0.0
C2716 C 0.20237 0.66931 0.65337 0.0
C2717 C 0.21929 0.66003 0.63466 0.0
C2718 C 0.2491 0.66926 0.63854 0.0
C2719 C 0.26182 0.68657 0.66169 0.0
C2720 C 0.20513 0.63989 0.61172 0.0
C2721 C 0.20421 0.65085 0.58559 0.0
C2722 C 0.18865 0.61149 0.61656 0.0
C2723 C 0.19062 0.5981 0.64336 0.0
C2724 C 0.21723 0.5962 0.65511 0.0
C2725 C 0.21902 0.58304 0.68005 0.0
C2726 C 0.19432 0.57153 0.69337 0.0
C2727 C 0.1678 0.57335 0.6819 0.0
C2728 C 0.16589 0.58658 0.657 0.0
C2729 C 0.10297 0.55153 0.53666 0.0
C2730 C 0.08407 0.56903 0.53013 0.0
C2731 C 0.13058 0.56438 0.54794 0.0
C2732 C 0.13969 0.5949 0.55306 0.0
C2733 C 0.12126 0.61242 0.5453 0.0
C2734 C 0.09392 0.59969 0.53373 0.0
C2735 C 0.16604 0.60812 0.57054 0.0
C2736 C 0.16923 0.59597 0.59591 0.0
C2737 C 0.18494 0.63514 0.56471 0.0
C2738 C 0.18429 0.64765 0.53733 0.0
C2739 C 0.18351 0.67712 0.53457 0.0
C2740 C 0.18256 0.68866 0.50875 0.0
C2741 C 0.18245 0.671 0.48551 0.0
C2742 C 0.18332 0.64176 0.48802 0.0
C2743 C 0.18429 0.6301 0.51378 0.0
H2744 H 0.18169 0.67998 0.46554 0.0
H2745 H 0.19573 0.56107 0.71252 0.0
loop_
_geom_bond_atom_site_label_1
_geom_bond_atom_site_label_2
_geom_bond_distance
_geom_bond_site_symmetry_2
_ccdc_geom_bond_type
Dy0 O4 2.398 . S
Dy0 O5 2.491 . S
Dy0 O6 2.403 . S
Dy0 O7 2.664 . S
Dy0 O11 2.326 . S
Dy0 O15 2.310 . S
Dy0 O16 2.351 . S
C1 O12 1.185 . S
C1 O13 1.355 . S
C2 O4 1.185 . S
C2 O5 1.355 . S
Dy3 O7 2.310 . S
Dy3 O10 2.351 . S
Dy3 O12 2.398 . S
Dy3 O13 2.491 . S
Dy3 O14 2.403 . S
Dy3 O15 2.664 . S
Dy3 O17 2.326 . S
O4 Dy0 2.398 . S
O4 C2 1.185 . S
O5 Dy0 2.491 . S
O5 C2 1.355 . S
O6 Dy0 2.403 . S
O6 C8 1.254 . S
O7 Dy0 2.664 . S
O7 Dy3 2.310 . S
O7 C8 1.268 . S
C8 O6 1.254 . S
C8 O7 1.268 . S
C9 O14 1.254 . S
C9 O15 1.268 . S
O10 Dy3 2.351 . S
O10 C18 1.249 . S
O11 Dy0 2.326 . S
O11 C18 1.267 . S
O12 C1 1.185 . S
O12 Dy3 2.398 . S
O13 C1 1.355 . S
O13 Dy3 2.491 . S
O14 Dy3 2.403 . S
O14 C9 1.254 . S
O15 Dy0 2.310 . S
O15 Dy3 2.664 . S
O15 C9 1.268 . S
O16 Dy0 2.351 . S
O16 C19 1.249 . S
O17 Dy3 2.326 . S
O17 C19 1.267 . S
C18 O10 1.249 . S
C18 O11 1.267 . S
C19 O16 1.249 . S
C19 O17 1.267 . S
Dy20 O24 2.398 . S
Dy20 O25 2.491 . S
Dy20 O26 2.403 . S
Dy20 O27 2.664 . S
Dy20 O31 2.326 . S
Dy20 O35 2.310 . S
Dy20 O36 2.351 . S
C21 O32 1.185 . S
C21 O33 1.355 . S
C22 O24 1.185 . S
C22 O25 1.355 . S
Dy23 O27 2.310 . S
Dy23 O30 2.351 . S
Dy23 O32 2.398 . S
Dy23 O33 2.491 . S
Dy23 O34 2.403 . S
Dy23 O35 2.664 . S
Dy23 O37 2.326 . S
O24 Dy20 2.398 . S
O24 C22 1.185 . S
O25 Dy20 2.491 . S
O25 C22 1.355 . S
O26 Dy20 2.403 . S
O26 C28 1.254 . S
O27 Dy20 2.664 . S
O27 Dy23 2.310 . S
O27 C28 1.268 . S
C28 O26 1.254 . S
C28 O27 1.268 . S
C29 O34 1.254 . S
C29 O35 1.268 . S
O30 Dy23 2.351 . S
O30 C38 1.249 . S
O31 Dy20 2.326 . S
O31 C38 1.267 . S
O32 C21 1.185 . S
O32 Dy23 2.398 . S
O33 C21 1.355 . S
O33 Dy23 2.491 . S
O34 Dy23 2.403 . S
O34 C29 1.254 . S
O35 Dy20 2.310 . S
O35 Dy23 2.664 . S
O35 C29 1.268 . S
O36 Dy20 2.351 . S
O36 C39 1.249 . S
O37 Dy23 2.326 . S
O37 C39 1.267 . S
C38 O30 1.249 . S
C38 O31 1.267 . S
C39 O36 1.249 . S
C39 O37 1.267 . S
Dy40 O44 2.398 . S
Dy40 O45 2.491 . S
Dy40 O46 2.403 . S
Dy40 O47 2.664 . S
Dy40 O51 2.326 . S
Dy40 O55 2.310 . S
Dy40 O56 2.351 . S
C41 O52 1.185 . S
C41 O53 1.355 . S
C42 O44 1.185 . S
C42 O45 1.355 . S
Dy43 O47 2.310 . S
Dy43 O50 2.351 . S
Dy43 O52 2.398 . S
Dy43 O53 2.491 . S
Dy43 O54 2.403 . S
Dy43 O55 2.664 . S
Dy43 O57 2.326 . S
O44 Dy40 2.398 . S
O44 C42 1.185 . S
O45 Dy40 2.491 . S
O45 C42 1.355 . S
O46 Dy40 2.403 . S
O46 C48 1.254 . S
O47 Dy40 2.664 . S
O47 Dy43 2.310 . S
O47 C48 1.268 . S
C48 O46 1.254 . S
C48 O47 1.268 . S
C49 O54 1.254 . S
C49 O55 1.268 . S
O50 Dy43 2.351 . S
O50 C58 1.249 . S
O51 Dy40 2.326 . S
O51 C58 1.267 . S
O52 C41 1.185 . S
O52 Dy43 2.398 . S
O53 C41 1.355 . S
O53 Dy43 2.491 . S
O54 Dy43 2.403 . S
O54 C49 1.254 . S
O55 Dy40 2.310 . S
O55 Dy43 2.664 . S
O55 C49 1.268 . S
O56 Dy40 2.351 . S
O56 C59 1.249 . S
O57 Dy43 2.326 . S
O57 C59 1.267 . S
C58 O50 1.249 . S
C58 O51 1.267 . S
C59 O56 1.249 . S
C59 O57 1.267 . S
Dy60 O64 2.398 . S
Dy60 O65 2.491 . S
Dy60 O66 2.403 . S
Dy60 O67 2.664 . S
Dy60 O71 2.326 . S
Dy60 O75 2.310 . S
Dy60 O76 2.351 . S
C61 O72 1.185 . S
C61 O73 1.355 . S
C62 O64 1.185 . S
C62 O65 1.355 . S
Dy63 O67 2.310 . S
Dy63 O70 2.351 . S
Dy63 O72 2.398 . S
Dy63 O73 2.491 . S
Dy63 O74 2.403 . S
Dy63 O75 2.664 . S
Dy63 O77 2.326 . S
O64 Dy60 2.398 . S
O64 C62 1.185 . S
O65 Dy60 2.491 . S
O65 C62 1.355 . S
O66 Dy60 2.403 . S
O66 C68 1.254 . S
O67 Dy60 2.664 . S
O67 Dy63 2.310 . S
O67 C68 1.268 . S
C68 O66 1.254 . S
C68 O67 1.268 . S
C69 O74 1.254 . S
C69 O75 1.268 . S
O70 Dy63 2.351 . S
O70 C78 1.249 . S
O71 Dy60 2.326 . S
O71 C78 1.267 . S
O72 C61 1.185 . S
O72 Dy63 2.398 . S
O73 C61 1.355 . S
O73 Dy63 2.491 . S
O74 Dy63 2.403 . S
O74 C69 1.254 . S
O75 Dy60 2.310 . S
O75 Dy63 2.664 . S
O75 C69 1.268 . S
O76 Dy60 2.351 . S
O76 C79 1.249 . S
O77 Dy63 2.326 . S
O77 C79 1.267 . S
C78 O70 1.249 . S
C78 O71 1.267 . S
C79 O76 1.249 . S
C79 O77 1.267 . S
Dy80 O84 2.398 . S
Dy80 O85 2.491 . S
Dy80 O86 2.403 . S
Dy80 O87 2.664 . S
Dy80 O91 2.326 . S
Dy80 O95 2.310 . S
Dy80 O96 2.351 . S
C81 O92 1.185 . S
C81 O93 1.355 . S
C82 O84 1.185 . S
C82 O85 1.355 . S
Dy83 O87 2.310 . S
Dy83 O90 2.351 . S
Dy83 O92 2.398 . S
Dy83 O93 2.491 . S
Dy83 O94 2.403 . S
Dy83 O95 2.664 . S
Dy83 O97 2.326 . S
O84 Dy80 2.398 . S
O84 C82 1.185 . S
O85 Dy80 2.491 . S
O85 C82 1.355 . S
O86 Dy80 2.403 . S
O86 C88 1.254 . S
O87 Dy80 2.664 . S
O87 Dy83 2.310 . S
O87 C88 1.268 . S
C88 O86 1.254 . S
C88 O87 1.268 . S
C89 O94 1.254 . S
C89 O95 1.268 . S
O90 Dy83 2.351 . S
O90 C98 1.249 . S
O91 Dy80 2.326 . S
O91 C98 1.267 . S
O92 C81 1.185 . S
O92 Dy83 2.398 . S
O93 C81 1.355 . S
O93 Dy83 2.491 . S
O94 Dy83 2.403 . S
O94 C89 1.254 . S
O95 Dy80 2.310 . S
O95 Dy83 2.664 . S
O95 C89 1.268 . S
O96 Dy80 2.351 . S
O96 C99 1.249 . S
O97 Dy83 2.326 . S
O97 C99 1.267 . S
C98 O90 1.249 . S
C98 O91 1.267 . S
C99 O96 1.249 . S
C99 O97 1.267 . S
Dy100 O104 2.398 . S
Dy100 O105 2.491 . S
Dy100 O106 2.403 . S
Dy100 O107 2.664 . S
Dy100 O111 2.326 . S
Dy100 O115 2.310 . S
Dy100 O116 2.351 . S
C101 O112 1.185 . S
C101 O113 1.355 . S
C102 O104 1.185 . S
C102 O105 1.355 . S
Dy103 O107 2.310 . S
Dy103 O110 2.351 . S
Dy103 O112 2.398 . S
Dy103 O113 2.491 . S
Dy103 O114 2.403 . S
Dy103 O115 2.664 . S
Dy103 O117 2.326 . S
O104 Dy100 2.398 . S
O104 C102 1.185 . S
O105 Dy100 2.491 . S
O105 C102 1.355 . S
O106 Dy100 2.403 . S
O106 C108 1.254 . S
O107 Dy100 2.664 . S
O107 Dy103 2.310 . S
O107 C108 1.268 . S
C108 O106 1.254 . S
C108 O107 1.268 . S
C109 O114 1.254 . S
C109 O115 1.268 . S
O110 Dy103 2.351 . S
O110 C118 1.249 . S
O111 Dy100 2.326 . S
O111 C118 1.267 . S
O112 C101 1.185 . S
O112 Dy103 2.398 . S
O113 C101 1.355 . S
O113 Dy103 2.491 . S
O114 Dy103 2.403 . S
O114 C109 1.254 . S
O115 Dy100 2.310 . S
O115 Dy103 2.664 . S
O115 C109 1.268 . S
O116 Dy100 2.351 . S
O116 C119 1.249 . S
O117 Dy103 2.326 . S
O117 C119 1.267 . S
C118 O110 1.249 . S
C118 O111 1.267 . S
C119 O116 1.249 . S
C119 O117 1.267 . S
Dy120 O124 2.398 . S
Dy120 O125 2.491 . S
Dy120 O126 2.403 . S
Dy120 O127 2.664 . S
Dy120 O131 2.326 . S
Dy120 O135 2.310 . S
Dy120 O136 2.351 . S
C121 O132 1.185 . S
C121 O133 1.355 . S
C122 O124 1.185 . S
C122 O125 1.355 . S
Dy123 O127 2.310 . S
Dy123 O130 2.351 . S
Dy123 O132 2.398 . S
Dy123 O133 2.491 . S
Dy123 O134 2.403 . S
Dy123 O135 2.664 . S
Dy123 O137 2.326 . S
O124 Dy120 2.398 . S
O124 C122 1.185 . S
O125 Dy120 2.491 . S
O125 C122 1.355 . S
O126 Dy120 2.403 . S
O126 C128 1.254 . S
O127 Dy120 2.664 . S
O127 Dy123 2.310 . S
O127 C128 1.268 . S
C128 O126 1.254 . S
C128 O127 1.268 . S
C129 O134 1.254 . S
C129 O135 1.268 . S
O130 Dy123 2.351 . S
O130 C138 1.249 . S
O131 Dy120 2.326 . S
O131 C138 1.267 . S
O132 C121 1.185 . S
O132 Dy123 2.398 . S
O133 C121 1.355 . S
O133 Dy123 2.491 . S
O134 Dy123 2.403 . S
O134 C129 1.254 . S
O135 Dy120 2.310 . S
O135 Dy123 2.664 . S
O135 C129 1.268 . S
O136 Dy120 2.351 . S
O136 C139 1.249 . S
O137 Dy123 2.326 . S
O137 C139 1.267 . S
C138 O130 1.249 . S
C138 O131 1.267 . S
C139 O136 1.249 . S
C139 O137 1.267 . S
Dy140 O144 2.398 . S
Dy140 O145 2.491 . S
Dy140 O146 2.403 . S
Dy140 O147 2.664 . S
Dy140 O151 2.326 . S
Dy140 O155 2.310 . S
Dy140 O156 2.351 . S
C141 O152 1.185 . S
C141 O153 1.355 . S
C142 O144 1.185 . S
C142 O145 1.355 . S
Dy143 O147 2.310 . S
Dy143 O150 2.351 . S
Dy143 O152 2.398 . S
Dy143 O153 2.491 . S
Dy143 O154 2.403 . S
Dy143 O155 2.664 . S
Dy143 O157 2.326 . S
O144 Dy140 2.398 . S
O144 C142 1.185 . S
O145 Dy140 2.491 . S
O145 C142 1.355 . S
O146 Dy140 2.403 . S
O146 C148 1.254 . S
O147 Dy140 2.664 . S
O147 Dy143 2.310 . S
O147 C148 1.268 . S
C148 O146 1.254 . S
C148 O147 1.268 . S
C149 O154 1.254 . S
C149 O155 1.268 . S
O150 Dy143 2.351 . S
O150 C158 1.249 . S
O151 Dy140 2.326 . S
O151 C158 1.267 . S
O152 C141 1.185 . S
O152 Dy143 2.398 . S
O153 C141 1.355 . S
O153 Dy143 2.491 . S
O154 Dy143 2.403 . S
O154 C149 1.254 . S
O155 Dy140 2.310 . S
O155 Dy143 2.664 . S
O155 C149 1.268 . S
O156 Dy140 2.351 . S
O156 C159 1.249 . S
O157 Dy143 2.326 . S
O157 C159 1.267 . S
C158 O150 1.249 . S
C158 O151 1.267 . S
C159 O156 1.249 . S
C159 O157 1.267 . S
C160 O172 1.241 . S
C160 O173 1.280 . S
C161 O174 1.277 . S
C161 O175 1.245 . S
C162 O186 1.247 . S
C162 O188 1.289 . S
Mg163 O164 1.926 . S
Mg163 O173 1.984 . S
Mg163 O175 1.988 . S
Mg163 O176 2.061 1_655 S
O164 Mg163 1.926 . S
O164 Mg165 1.986 . S
O164 Mg166 1.917 1_655 S
Mg165 O164 1.986 . S
Mg165 O172 2.042 . S
Mg165 O174 2.041 . S
Mg165 O180 2.038 1_545 S
Mg165 O188 2.238 1_545 S
Mg166 O164 1.917 1_455 S
Mg166 O167 1.917 1_545 S
Mg166 O177 2.106 . S
Mg166 O179 2.079 1_445 S
Mg166 O188 2.106 1_445 S
Mg166 O189 2.079 . S
O167 Mg166 1.917 1_565 S
O167 Mg168 1.926 . S
O167 Mg169 1.986 . S
Mg168 O167 1.926 . S
Mg168 O182 1.984 . S
Mg168 O185 1.988 . S
Mg168 O186 2.061 1_455 S
Mg169 O167 1.986 . S
Mg169 O177 2.238 1_565 S
Mg169 O181 2.042 . S
Mg169 O183 2.041 . S
Mg169 O190 2.038 1_565 S
C170 O176 1.247 . S
C170 O177 1.289 . S
C171 O189 1.245 . S
C171 O190 1.274 . S
O172 C160 1.241 . S
O172 Mg165 2.042 . S
O173 C160 1.280 . S
O173 Mg163 1.984 . S
O174 C161 1.277 . S
O174 Mg165 2.041 . S
O175 C161 1.245 . S
O175 Mg163 1.988 . S
O176 Mg163 2.061 1_455 S
O176 C170 1.247 . S
O177 Mg166 2.106 . S
O177 Mg169 2.238 1_545 S
O177 C170 1.289 . S
C178 O179 1.245 . S
C178 O180 1.274 . S
O179 Mg166 2.079 1_665 S
O179 C178 1.245 . S
O180 Mg165 2.038 1_565 S
O180 C178 1.274 . S
O181 Mg169 2.042 . S
O181 C184 1.241 . S
O182 Mg168 1.984 . S
O182 C184 1.280 . S
O183 Mg169 2.041 . S
O183 C187 1.277 . S
C184 O181 1.241 . S
C184 O182 1.280 . S
O185 Mg168 1.988 . S
O185 C187 1.245 . S
O186 C162 1.247 . S
O186 Mg168 2.061 1_655 S
C187 O183 1.277 . S
C187 O185 1.245 . S
O188 C162 1.289 . S
O188 Mg165 2.238 1_565 S
O188 Mg166 2.106 1_665 S
O189 Mg166 2.079 . S
O189 C171 1.245 . S
O190 Mg169 2.038 1_545 S
O190 C171 1.274 . S
C191 O203 1.241 . S
C191 O204 1.280 . S
C192 O205 1.277 . S
C192 O206 1.245 . S
C193 O217 1.247 . S
C193 O219 1.289 . S
Mg194 O195 1.926 . S
Mg194 O204 1.984 . S
Mg194 O206 1.988 1_554 S
Mg194 O207 2.061 . S
O195 Mg194 1.926 . S
O195 Mg196 1.980 1_554 S
O195 Mg197 1.917 . S
Mg196 O195 1.980 1_556 S
Mg196 O203 2.017 1_556 S
Mg196 O205 2.071 . S
Mg196 O211 2.010 1_546 S
Mg196 O219 2.259 1_545 S
Mg197 O195 1.917 . S
Mg197 O198 1.917 1_544 S
Mg197 O208 2.106 . S
Mg197 O210 2.079 1_545 S
Mg197 O219 2.106 1_544 S
Mg197 O220 2.079 1_554 S
O198 Mg197 1.917 1_566 S
O198 Mg199 1.926 . S
O198 Mg200 1.986 1_556 S
Mg199 O198 1.926 . S
Mg199 O213 1.984 . S
Mg199 O216 1.988 1_556 S
Mg199 O217 2.061 . S
Mg200 O198 1.986 1_554 S
Mg200 O208 2.238 1_565 S
Mg200 O212 2.042 1_554 S
Mg200 O214 2.041 . S
Mg200 O221 2.038 1_564 S
C201 O207 1.247 . S
C201 O208 1.289 . S
C202 O220 1.245 . S
C202 O221 1.274 . S
O203 C191 1.241 . S
O203 Mg196 2.017 1_554 S
O204 C191 1.280 . S
O204 Mg194 1.984 . S
O205 C192 1.277 . S
O205 Mg196 2.071 . S
O206 C192 1.245 . S
O206 Mg194 1.988 1_556 S
O207 Mg194 2.061 . S
O207 C201 1.247 . S
O208 Mg197 2.106 . S
O208 Mg200 2.238 1_545 S
O208 C201 1.289 . S
C209 O210 1.245 . S
C209 O211 1.274 . S
O210 Mg197 2.079 1_565 S
O210 C209 1.245 . S
O211 Mg196 2.010 1_564 S
O211 C209 1.274 . S
O212 Mg200 2.042 1_556 S
O212 C215 1.241 . S
O213 Mg199 1.984 . S
O213 C215 1.280 . S
O214 Mg200 2.041 . S
O214 C218 1.277 . S
C215 O212 1.241 . S
C215 O213 1.280 . S
O216 Mg199 1.988 1_554 S
O216 C218 1.245 . S
O217 C193 1.247 . S
O217 Mg199 2.061 . S
C218 O214 1.277 . S
C218 O216 1.245 . S
O219 C193 1.289 . S
O219 Mg196 2.259 1_565 S
O219 Mg197 2.106 1_566 S
O220 Mg197 2.079 1_556 S
O220 C202 1.245 . S
O221 Mg200 2.038 1_546 S
O221 C202 1.274 . S
C222 O234 1.241 . S
C222 O235 1.280 . S
C223 O236 1.277 . S
C223 O237 1.245 . S
C224 O248 1.247 . S
C224 O250 1.289 . S
Mg225 O226 1.926 . S
Mg225 O235 1.984 . S
Mg225 O237 1.988 1_554 S
Mg225 O238 2.061 1_655 S
O226 Mg225 1.926 . S
O226 Mg227 1.980 1_554 S
O226 Mg228 1.917 1_655 S
Mg227 O226 1.980 1_556 S
Mg227 O234 2.017 1_556 S
Mg227 O236 2.071 . S
Mg227 O242 2.010 1_556 S
Mg227 O250 2.259 . S
Mg228 O226 1.917 1_455 S
Mg228 O229 1.917 1_554 S
Mg228 O239 2.106 . S
Mg228 O241 2.079 1_455 S
Mg228 O250 2.106 1_454 S
Mg228 O251 2.079 1_554 S
O229 Mg228 1.917 1_556 S
O229 Mg230 1.926 . S
O229 Mg231 1.986 1_556 S
Mg230 O229 1.926 . S
Mg230 O244 1.984 . S
Mg230 O247 1.988 1_556 S
Mg230 O248 2.061 1_455 S
Mg231 O229 1.986 1_554 S
Mg231 O239 2.238 . S
Mg231 O243 2.042 1_554 S
Mg231 O245 2.041 . S
Mg231 O252 2.038 1_554 S
C232 O238 1.247 . S
C232 O239 1.289 . S
C233 O251 1.245 . S
C233 O252 1.274 . S
O234 C222 1.241 . S
O234 Mg227 2.017 1_554 S
O235 C222 1.280 . S
O235 Mg225 1.984 . S
O236 C223 1.277 . S
O236 Mg227 2.071 . S
O237 C223 1.245 . S
O237 Mg225 1.988 1_556 S
O238 Mg225 2.061 1_455 S
O238 C232 1.247 . S
O239 Mg228 2.106 . S
O239 Mg231 2.238 . S
O239 C232 1.289 . S
C240 O241 1.245 . S
C240 O242 1.274 . S
O241 Mg228 2.079 1_655 S
O241 C240 1.245 . S
O242 Mg227 2.010 1_554 S
O242 C240 1.274 . S
O243 Mg231 2.042 1_556 S
O243 C246 1.241 . S
O244 Mg230 1.984 . S
O244 C246 1.280 . S
O245 Mg231 2.041 . S
O245 C249 1.277 . S
C246 O243 1.241 . S
C246 O244 1.280 . S
O247 Mg230 1.988 1_554 S
O247 C249 1.245 . S
O248 C224 1.247 . S
O248 Mg230 2.061 1_655 S
C249 O245 1.277 . S
C249 O247 1.245 . S
O250 C224 1.289 . S
O250 Mg227 2.259 . S
O250 Mg228 2.106 1_656 S
O251 Mg228 2.079 1_556 S
O251 C233 1.245 . S
O252 Mg231 2.038 1_556 S
O252 C233 1.274 . S
C253 O265 1.241 . S
C253 O266 1.280 . S
C254 O267 1.277 . S
C254 O268 1.245 . S
C255 O279 1.247 . S
C255 O281 1.289 . S
Mg256 O257 1.926 . S
Mg256 O266 1.984 . S
Mg256 O268 1.988 1_554 S
Mg256 O269 2.061 . S
O257 Mg256 1.926 . S
O257 Mg258 1.980 1_554 S
O257 Mg259 1.917 . S
Mg258 O257 1.980 1_556 S
Mg258 O265 2.017 1_556 S
Mg258 O267 2.071 . S
Mg258 O273 2.010 1_556 S
Mg258 O281 2.259 . S
Mg259 O257 1.917 . S
Mg259 O260 1.917 1_554 S
Mg259 O270 2.106 . S
Mg259 O272 2.079 . S
Mg259 O281 2.106 1_554 S
Mg259 O282 2.079 1_554 S
O260 Mg259 1.917 1_556 S
O260 Mg261 1.926 . S
O260 Mg262 1.986 1_556 S
Mg261 O260 1.926 . S
Mg261 O275 1.984 . S
Mg261 O278 1.988 1_556 S
Mg261 O279 2.061 . S
Mg262 O260 1.986 1_554 S
Mg262 O270 2.238 . S
Mg262 O274 2.042 1_554 S
Mg262 O276 2.041 . S
Mg262 O283 2.038 1_554 S
C263 O269 1.247 . S
C263 O270 1.289 . S
C264 O282 1.245 . S
C264 O283 1.274 . S
O265 C253 1.241 . S
O265 Mg258 2.017 1_554 S
O266 C253 1.280 . S
O266 Mg256 1.984 . S
O267 C254 1.277 . S
O267 Mg258 2.071 . S
O268 C254 1.245 . S
O268 Mg256 1.988 1_556 S
O269 Mg256 2.061 . S
O269 C263 1.247 . S
O270 Mg259 2.106 . S
O270 Mg262 2.238 . S
O270 C263 1.289 . S
C271 O272 1.245 . S
C271 O273 1.274 . S
O272 Mg259 2.079 . S
O272 C271 1.245 . S
O273 Mg258 2.010 1_554 S
O273 C271 1.274 . S
O274 Mg262 2.042 1_556 S
O274 C277 1.241 . S
O275 Mg261 1.984 . S
O275 C277 1.280 . S
O276 Mg262 2.041 . S
O276 C280 1.277 . S
C277 O274 1.241 . S
C277 O275 1.280 . S
O278 Mg261 1.988 1_554 S
O278 C280 1.245 . S
O279 C255 1.247 . S
O279 Mg261 2.061 . S
C280 O276 1.277 . S
C280 O278 1.245 . S
O281 C255 1.289 . S
O281 Mg258 2.259 . S
O281 Mg259 2.106 1_556 S
O282 Mg259 2.079 1_556 S
O282 C264 1.245 . S
O283 Mg262 2.038 1_556 S
O283 C264 1.274 . S
C284 O296 1.241 . S
C284 O297 1.280 . S
C285 O298 1.277 . S
C285 O299 1.245 . S
C286 O310 1.247 . S
C286 O312 1.289 . S
Mg287 O288 1.926 . S
Mg287 O297 1.984 . S
Mg287 O299 1.988 . S
Mg287 O300 2.061 1_655 S
O288 Mg287 1.926 . S
O288 Mg289 1.986 . S
O288 Mg290 1.917 1_655 S
Mg289 O288 1.986 . S
Mg289 O296 2.042 . S
Mg289 O298 2.041 . S
Mg289 O304 2.038 . S
Mg289 O312 2.238 . S
Mg290 O288 1.917 1_455 S
Mg290 O291 1.917 . S
Mg290 O301 2.106 . S
Mg290 O303 2.079 1_455 S
Mg290 O312 2.106 1_455 S
Mg290 O313 2.079 . S
O291 Mg290 1.917 . S
O291 Mg292 1.926 . S
O291 Mg293 1.986 . S
Mg292 O291 1.926 . S
Mg292 O306 1.984 . S
Mg292 O309 1.988 . S
Mg292 O310 2.061 1_455 S
Mg293 O291 1.986 . S
Mg293 O301 2.238 . S
Mg293 O305 2.042 . S
Mg293 O307 2.041 . S
Mg293 O314 2.038 . S
C294 O300 1.247 . S
C294 O301 1.289 . S
C295 O313 1.245 . S
C295 O314 1.274 . S
O296 C284 1.241 . S
O296 Mg289 2.042 . S
O297 C284 1.280 . S
O297 Mg287 1.984 . S
O298 C285 1.277 . S
O298 Mg289 2.041 . S
O299 C285 1.245 . S
O299 Mg287 1.988 . S
O300 Mg287 2.061 1_455 S
O300 C294 1.247 . S
O301 Mg290 2.106 . S
O301 Mg293 2.238 . S
O301 C294 1.289 . S
C302 O303 1.245 . S
C302 O304 1.274 . S
O303 Mg290 2.079 1_655 S
O303 C302 1.245 . S
O304 Mg289 2.038 . S
O304 C302 1.274 . S
O305 Mg293 2.042 . S
O305 C308 1.241 . S
O306 Mg292 1.984 . S
O306 C308 1.280 . S
O307 Mg293 2.041 . S
O307 C311 1.277 . S
C308 O305 1.241 . S
C308 O306 1.280 . S
O309 Mg292 1.988 . S
O309 C311 1.245 . S
O310 C286 1.247 . S
O310 Mg292 2.061 1_655 S
C311 O307 1.277 . S
C311 O309 1.245 . S
O312 C286 1.289 . S
O312 Mg289 2.238 . S
O312 Mg290 2.106 1_655 S
O313 Mg290 2.079 . S
O313 C295 1.245 . S
O314 Mg293 2.038 . S
O314 C295 1.274 . S
C315 O327 1.241 . S
C315 O328 1.280 . S
C316 O329 1.277 . S
C316 O330 1.245 . S
C317 O341 1.247 . S
C317 O343 1.289 . S
Mg318 O319 1.926 . S
Mg318 O328 1.984 . S
Mg318 O330 1.988 . S
Mg318 O331 2.061 . S
O319 Mg318 1.926 . S
O319 Mg320 1.986 . S
O319 Mg321 1.917 . S
Mg320 O319 1.986 . S
Mg320 O327 2.042 . S
Mg320 O329 2.041 . S
Mg320 O335 2.038 1_545 S
Mg320 O343 2.238 1_545 S
Mg321 O319 1.917 . S
Mg321 O322 1.917 1_545 S
Mg321 O332 2.106 . S
Mg321 O334 2.079 1_545 S
Mg321 O343 2.106 1_545 S
Mg321 O344 2.079 . S
O322 Mg321 1.917 1_565 S
O322 Mg323 1.926 . S
O322 Mg324 1.986 . S
Mg323 O322 1.926 . S
Mg323 O337 1.984 . S
Mg323 O340 1.988 . S
Mg323 O341 2.061 . S
Mg324 O322 1.986 . S
Mg324 O332 2.238 1_565 S
Mg324 O336 2.042 . S
Mg324 O338 2.041 . S
Mg324 O345 2.038 1_565 S
C325 O331 1.247 . S
C325 O332 1.289 . S
C326 O344 1.245 . S
C326 O345 1.274 . S
O327 C315 1.241 . S
O327 Mg320 2.042 . S
O328 C315 1.280 . S
O328 Mg318 1.984 . S
O329 C316 1.277 . S
O329 Mg320 2.041 . S
O330 C316 1.245 . S
O330 Mg318 1.988 . S
O331 Mg318 2.061 . S
O331 C325 1.247 . S
O332 Mg321 2.106 . S
O332 Mg324 2.238 1_545 S
O332 C325 1.289 . S
C333 O334 1.245 . S
C333 O335 1.274 . S
O334 Mg321 2.079 1_565 S
O334 C333 1.245 . S
O335 Mg320 2.038 1_565 S
O335 C333 1.274 . S
O336 Mg324 2.042 . S
O336 C339 1.241 . S
O337 Mg323 1.984 . S
O337 C339 1.280 . S
O338 Mg324 2.041 . S
O338 C342 1.277 . S
C339 O336 1.241 . S
C339 O337 1.280 . S
O340 Mg323 1.988 . S
O340 C342 1.245 . S
O341 C317 1.247 . S
O341 Mg323 2.061 . S
C342 O338 1.277 . S
C342 O340 1.245 . S
O343 C317 1.289 . S
O343 Mg320 2.238 1_565 S
O343 Mg321 2.106 1_565 S
O344 Mg321 2.079 . S
O344 C326 1.245 . S
O345 Mg324 2.038 1_545 S
O345 C326 1.274 . S
H346 C364 0.951 . S
H347 C366 0.951 . S
H348 C368 0.950 . S
H349 C369 0.950 . S
H350 C371 0.950 . S
H351 C374 0.950 . S
H352 C375 0.950 . S
H353 C377 0.950 . S
H354 C378 0.950 . S
H355 C379 0.951 . S
H356 C381 0.951 . S
H357 C383 0.950 . S
H358 C384 0.950 . S
H359 C386 0.950 . S
H360 C389 0.950 . S
H361 C390 0.960 . S
H362 C392 0.950 . S
H363 C393 0.950 . S
C364 H346 0.951 . S
C364 C365 1.366 . S
C364 C366 1.388 . S
C365 C364 1.366 . S
C365 C369 1.385 . S
C366 H347 0.951 . S
C366 C364 1.388 . S
C366 C367 1.366 . S
C367 C366 1.366 . S
C367 C368 1.414 . S
C367 C370 1.499 . S
C368 H348 0.950 . S
C368 C367 1.414 . S
C368 C369 1.374 . S
C369 H349 0.950 . S
C369 C365 1.385 . S
C369 C368 1.374 . S
C370 C367 1.499 . S
C370 C371 1.373 . S
C370 C372 1.389 . S
C371 H350 0.950 . S
C371 C370 1.373 . S
C371 C387 1.377 . S
C372 C370 1.389 . S
C372 C373 1.524 . S
C372 C386 1.377 . S
C373 C372 1.524 . S
C373 C374 1.397 . S
C373 C378 1.363 . S
C374 H351 0.950 . S
C374 C373 1.397 . S
C374 C375 1.334 . S
C375 H352 0.950 . S
C375 C374 1.334 . S
C375 C376 1.287 . S
C376 C375 1.287 . S
C376 C377 1.524 . S
C376 H395 0.913 . S
C377 H353 0.950 . S
C377 C376 1.524 . S
C377 C378 1.415 . S
C378 H354 0.950 . S
C378 C373 1.363 . S
C378 C377 1.415 . S
C379 H355 0.951 . S
C379 C380 1.366 . S
C379 C381 1.388 . S
C380 C379 1.366 . S
C380 C384 1.385 . S
C381 H356 0.951 . S
C381 C379 1.388 . S
C381 C382 1.366 . S
C382 C381 1.366 . S
C382 C383 1.414 . S
C382 C385 1.499 . S
C383 H357 0.950 . S
C383 C382 1.414 . S
C383 C384 1.374 . S
C384 H358 0.950 . S
C384 C380 1.385 . S
C384 C383 1.374 . S
C385 C382 1.499 . S
C385 C386 1.373 . S
C385 C387 1.389 . S
C386 H359 0.950 . S
C386 C372 1.377 . S
C386 C385 1.373 . S
C387 C371 1.377 . S
C387 C385 1.389 . S
C387 C388 1.524 . S
C388 C387 1.524 . S
C388 C389 1.397 . S
C388 C393 1.363 . S
C389 H360 0.950 . S
C389 C388 1.397 . S
C389 C390 1.334 . S
C390 H361 0.960 . S
C390 C389 1.334 . S
C390 C391 1.287 . S
C391 C390 1.287 . S
C391 C392 1.524 . S
C391 H394 0.999 1_455 S
C392 H362 0.950 . S
C392 C391 1.524 . S
C392 C393 1.415 . S
C393 H363 0.950 . S
C393 C388 1.363 . S
C393 C392 1.415 . S
H394 C391 0.999 1_655 S
H395 C376 0.913 . S
H396 C414 0.951 . S
H397 C416 0.951 . S
H398 C418 0.950 . S
H399 C419 0.950 . S
H400 C421 0.950 . S
H401 C424 0.950 . S
H402 C425 0.950 . S
H403 C427 0.950 . S
H404 C428 0.950 . S
H405 C429 0.951 . S
H406 C431 0.951 . S
H407 C433 0.950 . S
H408 C434 0.950 . S
H409 C436 0.950 . S
H410 C439 0.950 . S
H411 C440 0.950 1_565 S
H412 C442 0.950 . S
H413 C443 0.950 . S
C414 H396 0.951 . S
C414 C415 1.366 . S
C414 C416 1.388 . S
C415 C414 1.366 . S
C415 C419 1.385 . S
C416 H397 0.951 . S
C416 C414 1.388 . S
C416 C417 1.366 . S
C417 C416 1.366 . S
C417 C418 1.414 . S
C417 C420 1.499 . S
C418 H398 0.950 . S
C418 C417 1.414 . S
C418 C419 1.374 . S
C419 H399 0.950 . S
C419 C415 1.385 . S
C419 C418 1.374 . S
C420 C417 1.499 . S
C420 C421 1.373 . S
C420 C422 1.389 . S
C421 H400 0.950 . S
C421 C420 1.373 . S
C421 C437 1.377 . S
C422 C420 1.389 . S
C422 C423 1.524 . S
C422 C436 1.377 . S
C423 C422 1.524 . S
C423 C424 1.397 . S
C423 C428 1.363 . S
C424 H401 0.950 . S
C424 C423 1.397 . S
C424 C425 1.334 . S
C425 H402 0.950 . S
C425 C424 1.334 . S
C425 C426 1.287 . S
C426 C425 1.287 . S
C426 C427 1.524 . S
C426 H445 0.913 . S
C427 H403 0.950 . S
C427 C426 1.524 . S
C427 C428 1.415 . S
C428 H404 0.950 . S
C428 C423 1.363 . S
C428 C427 1.415 . S
C429 H405 0.951 . S
C429 C430 1.366 . S
C429 C431 1.388 . S
C430 C429 1.366 . S
C430 C434 1.385 . S
C431 H406 0.951 . S
C431 C429 1.388 . S
C431 C432 1.366 . S
C432 C431 1.366 . S
C432 C433 1.414 . S
C432 C435 1.499 . S
C433 H407 0.950 . S
C433 C432 1.414 . S
C433 C434 1.374 . S
C434 H408 0.950 . S
C434 C430 1.385 . S
C434 C433 1.374 . S
C435 C432 1.499 . S
C435 C436 1.373 . S
C435 C437 1.389 . S
C436 H409 0.950 . S
C436 C422 1.377 . S
C436 C435 1.373 . S
C437 C421 1.377 . S
C437 C435 1.389 . S
C437 C438 1.524 . S
C438 C437 1.524 . S
C438 C439 1.397 . S
C438 C443 1.363 . S
C439 H410 0.950 . S
C439 C438 1.397 . S
C439 C440 1.334 . S
C440 H411 0.950 1_545 S
C440 C439 1.334 . S
C440 C441 1.287 1_545 S
C441 C440 1.287 1_565 S
C441 C442 1.524 1_565 S
C441 H444 0.999 . S
C442 H412 0.950 . S
C442 C441 1.524 1_545 S
C442 C443 1.415 . S
C443 H413 0.950 . S
C443 C438 1.363 . S
C443 C442 1.415 . S
H444 C441 0.999 . S
H445 C426 0.913 . S
H446 C464 0.951 . S
H447 C466 0.951 . S
H448 C468 0.950 . S
H449 C469 0.950 . S
H450 C471 0.950 . S
H451 C474 0.950 . S
H452 C475 0.950 . S
H453 C477 0.950 . S
H454 C478 0.950 . S
H455 C479 0.951 . S
H456 C481 0.951 . S
H457 C483 0.950 . S
H458 C484 0.950 . S
H459 C486 0.950 . S
H460 C489 0.950 . S
H461 C490 0.950 . S
H462 C492 0.950 . S
H463 C493 0.950 . S
C464 H446 0.951 . S
C464 C465 1.366 . S
C464 C466 1.388 . S
C465 C464 1.366 . S
C465 C469 1.385 . S
C466 H447 0.951 . S
C466 C464 1.388 . S
C466 C467 1.366 . S
C467 C466 1.366 . S
C467 C468 1.414 . S
C467 C470 1.499 . S
C468 H448 0.950 . S
C468 C467 1.414 . S
C468 C469 1.374 . S
C469 H449 0.950 . S
C469 C465 1.385 . S
C469 C468 1.374 . S
C470 C467 1.499 . S
C470 C471 1.373 . S
C470 C472 1.389 . S
C471 H450 0.950 . S
C471 C470 1.373 . S
C471 C487 1.377 . S
C472 C470 1.389 . S
C472 C473 1.524 . S
C472 C486 1.377 . S
C473 C472 1.524 . S
C473 C474 1.397 . S
C473 C478 1.363 . S
C474 H451 0.950 . S
C474 C473 1.397 . S
C474 C475 1.334 . S
C475 H452 0.950 . S
C475 C474 1.334 . S
C475 C476 1.287 . S
C476 C475 1.287 . S
C476 C477 1.524 . S
C476 H495 0.913 . S
C477 H453 0.950 . S
C477 C476 1.524 . S
C477 C478 1.415 . S
C478 H454 0.950 . S
C478 C473 1.363 . S
C478 C477 1.415 . S
C479 H455 0.951 . S
C479 C480 1.366 . S
C479 C481 1.388 . S
C480 C479 1.366 . S
C480 C484 1.385 . S
C481 H456 0.951 . S
C481 C479 1.388 . S
C481 C482 1.366 . S
C482 C481 1.366 . S
C482 C483 1.414 . S
C482 C485 1.499 . S
C483 H457 0.950 . S
C483 C482 1.414 . S
C483 C484 1.374 . S
C484 H458 0.950 . S
C484 C480 1.385 . S
C484 C483 1.374 . S
C485 C482 1.499 . S
C485 C486 1.373 . S
C485 C487 1.389 . S
C486 H459 0.950 . S
C486 C472 1.377 . S
C486 C485 1.373 . S
C487 C471 1.377 . S
C487 C485 1.389 . S
C487 C488 1.524 . S
C488 C487 1.524 . S
C488 C489 1.397 . S
C488 C493 1.363 . S
C489 H460 0.950 . S
C489 C488 1.397 . S
C489 C490 1.334 . S
C490 H461 0.950 . S
C490 C489 1.334 . S
C490 C491 1.287 . S
C491 C490 1.287 . S
C491 C492 1.524 . S
C491 H494 0.999 . S
C492 H462 0.950 . S
C492 C491 1.524 . S
C492 C493 1.415 . S
C493 H463 0.950 . S
C493 C488 1.363 . S
C493 C492 1.415 . S
H494 C491 0.999 . S
H495 C476 0.913 . S
H496 C514 0.951 . S
H497 C516 0.951 . S
H498 C518 0.950 . S
H499 C519 0.950 . S
H500 C521 0.950 . S
H501 C524 0.950 . S
H502 C525 0.950 . S
H503 C527 0.950 . S
H504 C528 0.950 . S
H505 C529 0.951 . S
H506 C531 0.951 . S
H507 C533 0.950 . S
H508 C534 0.950 . S
H509 C536 0.950 . S
H510 C539 0.950 . S
H511 C540 0.950 . S
H512 C542 0.950 . S
H513 C543 0.950 . S
C514 H496 0.951 . S
C514 C515 1.366 . S
C514 C516 1.388 . S
C515 C514 1.366 . S
C515 C519 1.385 . S
C516 H497 0.951 . S
C516 C514 1.388 . S
C516 C517 1.366 . S
C517 C516 1.366 . S
C517 C518 1.414 . S
C517 C520 1.499 . S
C518 H498 0.950 . S
C518 C517 1.414 . S
C518 C519 1.374 . S
C519 H499 0.950 . S
C519 C515 1.385 . S
C519 C518 1.374 . S
C520 C517 1.499 . S
C520 C521 1.373 . S
C520 C522 1.389 . S
C521 H500 0.950 . S
C521 C520 1.373 . S
C521 C537 1.377 . S
C522 C520 1.389 . S
C522 C523 1.524 . S
C522 C536 1.377 . S
C523 C522 1.524 . S
C523 C524 1.397 . S
C523 C528 1.363 . S
C524 H501 0.950 . S
C524 C523 1.397 . S
C524 C525 1.334 . S
C525 H502 0.950 . S
C525 C524 1.334 . S
C525 C526 1.287 . S
C526 C525 1.287 . S
C526 C527 1.524 . S
C526 H545 0.913 . S
C527 H503 0.950 . S
C527 C526 1.524 . S
C527 C528 1.415 . S
C528 H504 0.950 . S
C528 C523 1.363 . S
C528 C527 1.415 . S
C529 H505 0.951 . S
C529 C530 1.366 . S
C529 C531 1.388 . S
C530 C529 1.366 . S
C530 C534 1.385 . S
C531 H506 0.951 . S
C531 C529 1.388 . S
C531 C532 1.366 . S
C532 C531 1.366 . S
C532 C533 1.414 . S
C532 C535 1.499 . S
C533 H507 0.950 . S
C533 C532 1.414 . S
C533 C534 1.374 . S
C534 H508 0.950 . S
C534 C530 1.385 . S
C534 C533 1.374 . S
C535 C532 1.499 . S
C535 C536 1.373 . S
C535 C537 1.389 . S
C536 H509 0.950 . S
C536 C522 1.377 . S
C536 C535 1.373 . S
C537 C521 1.377 . S
C537 C535 1.389 . S
C537 C538 1.524 . S
C538 C537 1.524 . S
C538 C539 1.397 . S
C538 C543 1.363 . S
C539 H510 0.950 . S
C539 C538 1.397 . S
C539 C540 1.334 . S
C540 H511 0.950 . S
C540 C539 1.334 . S
C540 C541 1.287 . S
C541 C540 1.287 . S
C541 C542 1.524 . S
C541 H544 0.999 . S
C542 H512 0.950 . S
C542 C541 1.524 . S
C542 C543 1.415 . S
C543 H513 0.950 . S
C543 C538 1.363 . S
C543 C542 1.415 . S
H544 C541 0.999 . S
H545 C526 0.913 . S
H546 C564 0.951 . S
H547 C566 0.951 . S
H548 C568 0.950 . S
H549 C569 0.950 . S
H550 C571 0.950 . S
H551 C574 0.950 . S
H552 C575 0.950 . S
H553 C577 0.950 . S
H554 C578 0.950 . S
H555 C579 0.951 . S
H556 C581 0.951 . S
H557 C583 0.950 . S
H558 C584 0.950 . S
H559 C586 0.950 . S
H560 C589 0.950 . S
H561 C590 0.950 . S
H562 C592 0.950 . S
H563 C593 0.950 . S
C564 H546 0.951 . S
C564 C565 1.366 . S
C564 C566 1.388 . S
C565 C564 1.366 . S
C565 C569 1.385 . S
C566 H547 0.951 . S
C566 C564 1.388 . S
C566 C567 1.366 . S
C567 C566 1.366 . S
C567 C568 1.414 . S
C567 C570 1.499 . S
C568 H548 0.950 . S
C568 C567 1.414 . S
C568 C569 1.374 . S
C569 H549 0.950 . S
C569 C565 1.385 . S
C569 C568 1.374 . S
C570 C567 1.499 . S
C570 C571 1.373 . S
C570 C572 1.389 . S
C571 H550 0.950 . S
C571 C570 1.373 . S
C571 C587 1.377 . S
C572 C570 1.389 . S
C572 C573 1.524 . S
C572 C586 1.377 . S
C573 C572 1.524 . S
C573 C574 1.397 . S
C573 C578 1.363 . S
C574 H551 0.950 . S
C574 C573 1.397 . S
C574 C575 1.334 . S
C575 H552 0.950 . S
C575 C574 1.334 . S
C575 C576 1.287 . S
C576 C575 1.287 . S
C576 C577 1.524 . S
C576 H595 0.913 . S
C577 H553 0.950 . S
C577 C576 1.524 . S
C577 C578 1.415 . S
C578 H554 0.950 . S
C578 C573 1.363 . S
C578 C577 1.415 . S
C579 H555 0.951 . S
C579 C580 1.366 . S
C579 C581 1.388 . S
C580 C579 1.366 . S
C580 C584 1.385 . S
C581 H556 0.951 . S
C581 C579 1.388 . S
C581 C582 1.366 . S
C582 C581 1.366 . S
C582 C583 1.414 . S
C582 C585 1.499 . S
C583 H557 0.950 . S
C583 C582 1.414 . S
C583 C584 1.374 . S
C584 H558 0.950 . S
C584 C580 1.385 . S
C584 C583 1.374 . S
C585 C582 1.499 . S
C585 C586 1.373 . S
C585 C587 1.389 . S
C586 H559 0.950 . S
C586 C572 1.377 . S
C586 C585 1.373 . S
C587 C571 1.377 . S
C587 C585 1.389 . S
C587 C588 1.524 . S
C588 C587 1.524 . S
C588 C589 1.397 . S
C588 C593 1.363 . S
C589 H560 0.950 . S
C589 C588 1.397 . S
C589 C590 1.334 . S
C590 H561 0.950 . S
C590 C589 1.334 . S
C590 C591 1.287 . S
C591 C590 1.287 . S
C591 C592 1.524 . S
C591 H594 0.999 . S
C592 H562 0.950 . S
C592 C591 1.524 . S
C592 C593 1.415 . S
C593 H563 0.950 . S
C593 C588 1.363 . S
C593 C592 1.415 . S
H594 C591 0.999 . S
H595 C576 0.913 . S
H596 C614 0.951 . S
H597 C616 0.951 . S
H598 C618 0.950 . S
H599 C619 0.950 . S
H600 C621 0.950 . S
H601 C624 0.950 . S
H602 C625 0.950 . S
H603 C627 0.950 . S
H604 C628 0.950 . S
H605 C629 0.951 . S
H606 C631 0.951 . S
H607 C633 0.950 . S
H608 C634 0.950 . S
H609 C636 0.950 . S
H610 C639 0.950 . S
H611 C640 0.950 . S
H612 C642 0.950 . S
H613 C643 0.950 . S
C614 H596 0.951 . S
C614 C615 1.366 . S
C614 C616 1.388 . S
C615 C614 1.366 . S
C615 C619 1.385 . S
C616 H597 0.951 . S
C616 C614 1.388 . S
C616 C617 1.366 . S
C617 C616 1.366 . S
C617 C618 1.414 . S
C617 C620 1.499 . S
C618 H598 0.950 . S
C618 C617 1.414 . S
C618 C619 1.374 . S
C619 H599 0.950 . S
C619 C615 1.385 . S
C619 C618 1.374 . S
C620 C617 1.499 . S
C620 C621 1.373 . S
C620 C622 1.389 . S
C621 H600 0.950 . S
C621 C620 1.373 . S
C621 C637 1.377 . S
C622 C620 1.389 . S
C622 C623 1.524 . S
C622 C636 1.377 . S
C623 C622 1.524 . S
C623 C624 1.397 . S
C623 C628 1.363 . S
C624 H601 0.950 . S
C624 C623 1.397 . S
C624 C625 1.334 . S
C625 H602 0.950 . S
C625 C624 1.334 . S
C625 C626 1.287 . S
C626 C625 1.287 . S
C626 C627 1.524 . S
C626 H645 0.913 . S
C627 H603 0.950 . S
C627 C626 1.524 . S
C627 C628 1.415 . S
C628 H604 0.950 . S
C628 C623 1.363 . S
C628 C627 1.415 . S
C629 H605 0.951 . S
C629 C630 1.366 . S
C629 C631 1.388 . S
C630 C629 1.366 . S
C630 C634 1.385 . S
C631 H606 0.951 . S
C631 C629 1.388 . S
C631 C632 1.366 . S
C632 C631 1.366 . S
C632 C633 1.414 . S
C632 C635 1.499 . S
C633 H607 0.950 . S
C633 C632 1.414 . S
C633 C634 1.374 . S
C634 H608 0.950 . S
C634 C630 1.385 . S
C634 C633 1.374 . S
C635 C632 1.499 . S
C635 C636 1.373 . S
C635 C637 1.389 . S
C636 H609 0.950 . S
C636 C622 1.377 . S
C636 C635 1.373 . S
C637 C621 1.377 . S
C637 C635 1.389 . S
C637 C638 1.524 . S
C638 C637 1.524 . S
C638 C639 1.397 . S
C638 C643 1.363 . S
C639 H610 0.950 . S
C639 C638 1.397 . S
C639 C640 1.334 . S
C640 H611 0.950 . S
C640 C639 1.334 . S
C640 C641 1.287 . S
C641 C640 1.287 . S
C641 C642 1.524 . S
C641 H644 0.999 1_455 S
C642 H612 0.950 . S
C642 C641 1.524 . S
C642 C643 1.415 . S
C643 H613 0.950 . S
C643 C638 1.363 . S
C643 C642 1.415 . S
H644 C641 0.999 1_655 S
H645 C626 0.913 . S
H646 C664 0.951 . S
H647 C666 0.951 . S
H648 C668 0.950 . S
H649 C669 0.950 . S
H650 C671 0.950 . S
H651 C674 0.950 . S
H652 C675 0.950 . S
H653 C677 0.950 . S
H654 C678 0.950 . S
H655 C679 0.951 . S
H656 C681 0.951 . S
H657 C683 0.950 . S
H658 C684 0.950 . S
H659 C686 0.950 . S
H660 C689 0.950 . S
H661 C690 0.950 . S
H662 C692 0.950 . S
H663 C693 0.950 . S
C664 H646 0.951 . S
C664 C665 1.366 . S
C664 C666 1.388 . S
C665 C664 1.366 . S
C665 C669 1.385 . S
C666 H647 0.951 . S
C666 C664 1.388 . S
C666 C667 1.366 . S
C667 C666 1.366 . S
C667 C668 1.414 . S
C667 C670 1.499 . S
C668 H648 0.950 . S
C668 C667 1.414 . S
C668 C669 1.374 . S
C669 H649 0.950 . S
C669 C665 1.385 . S
C669 C668 1.374 . S
C670 C667 1.499 . S
C670 C671 1.373 . S
C670 C672 1.389 . S
C671 H650 0.950 . S
C671 C670 1.373 . S
C671 C687 1.377 . S
C672 C670 1.389 . S
C672 C673 1.524 . S
C672 C686 1.377 . S
C673 C672 1.524 . S
C673 C674 1.397 . S
C673 C678 1.363 . S
C674 H651 0.950 . S
C674 C673 1.397 . S
C674 C675 1.334 . S
C675 H652 0.950 . S
C675 C674 1.334 . S
C675 C676 1.287 . S
C676 C675 1.287 . S
C676 C677 1.524 . S
C676 H695 0.913 . S
C677 H653 0.950 . S
C677 C676 1.524 . S
C677 C678 1.415 . S
C678 H654 0.950 . S
C678 C673 1.363 . S
C678 C677 1.415 . S
C679 H655 0.951 . S
C679 C680 1.366 . S
C679 C681 1.388 . S
C680 C679 1.366 . S
C680 C684 1.385 . S
C681 H656 0.951 . S
C681 C679 1.388 . S
C681 C682 1.366 . S
C682 C681 1.366 . S
C682 C683 1.414 . S
C682 C685 1.499 . S
C683 H657 0.950 . S
C683 C682 1.414 . S
C683 C684 1.374 . S
C684 H658 0.950 . S
C684 C680 1.385 . S
C684 C683 1.374 . S
C685 C682 1.499 . S
C685 C686 1.373 . S
C685 C687 1.389 . S
C686 H659 0.950 . S
C686 C672 1.377 . S
C686 C685 1.373 . S
C687 C671 1.377 . S
C687 C685 1.389 . S
C687 C688 1.524 . S
C688 C687 1.524 . S
C688 C689 1.397 . S
C688 C693 1.363 . S
C689 H660 0.950 . S
C689 C688 1.397 . S
C689 C690 1.334 . S
C690 H661 0.950 . S
C690 C689 1.334 . S
C690 C691 1.287 . S
C691 C690 1.287 . S
C691 C692 1.524 . S
C691 H694 0.999 . S
C692 H662 0.950 . S
C692 C691 1.524 . S
C692 C693 1.415 . S
C693 H663 0.950 . S
C693 C688 1.363 . S
C693 C692 1.415 . S
H694 C691 0.999 . S
H695 C676 0.913 . S
H696 C714 0.951 . S
H697 C716 0.951 . S
H698 C718 0.950 . S
H699 C719 0.950 . S
H700 C721 0.950 . S
H701 C724 0.950 . S
H702 C725 0.950 . S
H703 C727 0.950 . S
H704 C728 0.950 . S
H705 C729 0.951 . S
H706 C731 0.951 . S
H707 C733 0.950 . S
H708 C734 0.950 . S
H709 C736 0.950 . S
H710 C739 0.950 . S
H711 C740 0.962 . S
H712 C742 0.950 . S
H713 C743 0.950 . S
C714 H696 0.951 . S
C714 C715 1.366 . S
C714 C716 1.388 . S
C715 C714 1.366 . S
C715 C719 1.385 . S
C716 H697 0.951 . S
C716 C714 1.388 . S
C716 C717 1.366 . S
C717 C716 1.366 . S
C717 C718 1.414 . S
C717 C720 1.499 . S
C718 H698 0.950 . S
C718 C717 1.414 . S
C718 C719 1.374 . S
C719 H699 0.950 . S
C719 C715 1.385 . S
C719 C718 1.374 . S
C720 C717 1.499 . S
C720 C721 1.373 . S
C720 C722 1.389 . S
C721 H700 0.950 . S
C721 C720 1.373 . S
C721 C737 1.377 . S
C722 C720 1.389 . S
C722 C723 1.524 . S
C722 C736 1.377 . S
C723 C722 1.524 . S
C723 C724 1.397 . S
C723 C728 1.363 . S
C724 H701 0.950 . S
C724 C723 1.397 . S
C724 C725 1.334 . S
C725 H702 0.950 . S
C725 C724 1.334 . S
C725 C726 1.287 . S
C726 C725 1.287 . S
C726 C727 1.524 . S
C726 H745 0.913 . S
C727 H703 0.950 . S
C727 C726 1.524 . S
C727 C728 1.415 . S
C728 H704 0.950 . S
C728 C723 1.363 . S
C728 C727 1.415 . S
C729 H705 0.951 . S
C729 C730 1.366 . S
C729 C731 1.388 . S
C730 C729 1.366 . S
C730 C734 1.385 . S
C731 H706 0.951 . S
C731 C729 1.388 . S
C731 C732 1.366 . S
C732 C731 1.366 . S
C732 C733 1.414 . S
C732 C735 1.499 . S
C733 H707 0.950 . S
C733 C732 1.414 . S
C733 C734 1.374 . S
C734 H708 0.950 . S
C734 C730 1.385 . S
C734 C733 1.374 . S
C735 C732 1.499 . S
C735 C736 1.373 . S
C735 C737 1.389 . S
C736 H709 0.950 . S
C736 C722 1.377 . S
C736 C735 1.373 . S
C737 C721 1.377 . S
C737 C735 1.389 . S
C737 C738 1.524 . S
C738 C737 1.524 . S
C738 C739 1.397 . S
C738 C743 1.363 . S
C739 H710 0.950 . S
C739 C738 1.397 . S
C739 C740 1.334 . S
C740 H711 0.962 . S
C740 C739 1.334 . S
C740 C741 1.287 . S
C741 C740 1.287 . S
C741 C742 1.524 . S
C741 H744 0.999 1_655 S
C742 H712 0.950 . S
C742 C741 1.524 . S
C742 C743 1.415 . S
C743 H713 0.950 . S
C743 C738 1.363 . S
C743 C742 1.415 . S
H744 C741 0.999 1_455 S
H745 C726 0.913 . S
H746 C764 0.951 . S
H747 C766 0.951 . S
H748 C768 0.950 . S
H749 C769 0.950 . S
H750 C771 0.950 . S
H751 C774 0.950 . S
H752 C775 0.950 . S
H753 C777 0.950 . S
H754 C778 0.950 . S
H755 C779 0.951 . S
H756 C781 0.951 . S
H757 C783 0.950 . S
H758 C784 0.950 . S
H759 C786 0.950 . S
H760 C789 0.950 . S
H761 C790 0.950 . S
H762 C792 0.948 1_565 S
H763 C793 0.950 . S
C764 H746 0.951 . S
C764 C765 1.366 . S
C764 C766 1.388 . S
C765 C764 1.366 . S
C765 C769 1.385 . S
C766 H747 0.951 . S
C766 C764 1.388 . S
C766 C767 1.366 . S
C767 C766 1.366 . S
C767 C768 1.414 . S
C767 C770 1.499 . S
C768 H748 0.950 . S
C768 C767 1.414 . S
C768 C769 1.374 . S
C769 H749 0.950 . S
C769 C765 1.385 . S
C769 C768 1.374 . S
C770 C767 1.499 . S
C770 C771 1.373 . S
C770 C772 1.389 . S
C771 H750 0.950 . S
C771 C770 1.373 . S
C771 C787 1.377 . S
C772 C770 1.389 . S
C772 C773 1.524 . S
C772 C786 1.377 . S
C773 C772 1.524 . S
C773 C774 1.397 . S
C773 C778 1.363 . S
C774 H751 0.950 . S
C774 C773 1.397 . S
C774 C775 1.334 . S
C775 H752 0.950 . S
C775 C774 1.334 . S
C775 C776 1.287 . S
C776 C775 1.287 . S
C776 C777 1.524 . S
C776 H795 0.913 . S
C777 H753 0.950 . S
C777 C776 1.524 . S
C777 C778 1.415 . S
C778 H754 0.950 . S
C778 C773 1.363 . S
C778 C777 1.415 . S
C779 H755 0.951 . S
C779 C780 1.366 . S
C779 C781 1.388 . S
C780 C779 1.366 . S
C780 C784 1.385 . S
C781 H756 0.951 . S
C781 C779 1.388 . S
C781 C782 1.366 . S
C782 C781 1.366 . S
C782 C783 1.414 . S
C782 C785 1.499 . S
C783 H757 0.950 . S
C783 C782 1.414 . S
C783 C784 1.374 . S
C784 H758 0.950 . S
C784 C780 1.385 . S
C784 C783 1.374 . S
C785 C782 1.499 . S
C785 C786 1.373 . S
C785 C787 1.389 . S
C786 H759 0.950 . S
C786 C772 1.377 . S
C786 C785 1.373 . S
C787 C771 1.377 . S
C787 C785 1.389 . S
C787 C788 1.524 . S
C788 C787 1.524 . S
C788 C789 1.397 . S
C788 C793 1.363 . S
C789 H760 0.950 . S
C789 C788 1.397 . S
C789 C790 1.334 . S
C790 H761 0.950 . S
C790 C789 1.334 . S
C790 C791 1.287 . S
C791 C790 1.287 . S
C791 C792 1.524 . S
C791 H794 0.999 1_545 S
C792 H762 0.948 1_545 S
C792 C791 1.524 . S
C792 C793 1.415 . S
C793 H763 0.950 . S
C793 C788 1.363 . S
C793 C792 1.415 . S
H794 C791 0.999 1_565 S
H795 C776 0.913 . S
H796 C814 0.951 . S
H797 C816 0.951 . S
H798 C818 0.950 . S
H799 C819 0.950 . S
H800 C821 0.950 . S
H801 C824 0.950 . S
H802 C825 0.950 . S
H803 C827 0.950 . S
H804 C828 0.950 . S
H805 C829 0.951 . S
H806 C831 0.951 . S
H807 C833 0.950 . S
H808 C834 0.950 . S
H809 C836 0.950 . S
H810 C839 0.950 . S
H811 C840 0.950 . S
H812 C842 0.950 . S
H813 C843 0.950 . S
C814 H796 0.951 . S
C814 C815 1.366 . S
C814 C816 1.388 . S
C815 C814 1.366 . S
C815 C819 1.385 . S
C816 H797 0.951 . S
C816 C814 1.388 . S
C816 C817 1.366 . S
C817 C816 1.366 . S
C817 C818 1.414 . S
C817 C820 1.499 . S
C818 H798 0.950 . S
C818 C817 1.414 . S
C818 C819 1.374 . S
C819 H799 0.950 . S
C819 C815 1.385 . S
C819 C818 1.374 . S
C820 C817 1.499 . S
C820 C821 1.373 . S
C820 C822 1.389 . S
C821 H800 0.950 . S
C821 C820 1.373 . S
C821 C837 1.377 . S
C822 C820 1.389 . S
C822 C823 1.524 . S
C822 C836 1.377 . S
C823 C822 1.524 . S
C823 C824 1.397 . S
C823 C828 1.363 . S
C824 H801 0.950 . S
C824 C823 1.397 . S
C824 C825 1.334 . S
C825 H802 0.950 . S
C825 C824 1.334 . S
C825 C826 1.287 . S
C826 C825 1.287 . S
C826 C827 1.524 . S
C826 H845 0.913 . S
C827 H803 0.950 . S
C827 C826 1.524 . S
C827 C828 1.415 . S
C828 H804 0.950 . S
C828 C823 1.363 . S
C828 C827 1.415 . S
C829 H805 0.951 . S
C829 C830 1.366 . S
C829 C831 1.388 . S
C830 C829 1.366 . S
C830 C834 1.385 . S
C831 H806 0.951 . S
C831 C829 1.388 . S
C831 C832 1.366 . S
C832 C831 1.366 . S
C832 C833 1.414 . S
C832 C835 1.499 . S
C833 H807 0.950 . S
C833 C832 1.414 . S
C833 C834 1.374 . S
C834 H808 0.950 . S
C834 C830 1.385 . S
C834 C833 1.374 . S
C835 C832 1.499 . S
C835 C836 1.373 . S
C835 C837 1.389 . S
C836 H809 0.950 . S
C836 C822 1.377 . S
C836 C835 1.373 . S
C837 C821 1.377 . S
C837 C835 1.389 . S
C837 C838 1.524 . S
C838 C837 1.524 . S
C838 C839 1.397 . S
C838 C843 1.363 . S
C839 H810 0.950 . S
C839 C838 1.397 . S
C839 C840 1.334 . S
C840 H811 0.950 . S
C840 C839 1.334 . S
C840 C841 1.287 . S
C841 C840 1.287 . S
C841 C842 1.524 . S
C841 H844 0.999 . S
C842 H812 0.950 . S
C842 C841 1.524 . S
C842 C843 1.415 . S
C843 H813 0.950 . S
C843 C838 1.363 . S
C843 C842 1.415 . S
H844 C841 0.999 . S
H845 C826 0.913 . S
H846 C864 0.951 . S
H847 C866 0.951 . S
H848 C868 0.950 . S
H849 C869 0.950 . S
H850 C871 0.950 . S
H851 C874 0.950 . S
H852 C875 0.950 . S
H853 C877 0.950 . S
H854 C878 0.950 . S
H855 C879 0.951 . S
H856 C881 0.951 . S
H857 C883 0.950 . S
H858 C884 0.950 . S
H859 C886 0.950 . S
H860 C889 0.950 . S
H861 C890 0.950 . S
H862 C892 0.950 . S
H863 C893 0.950 . S
C864 H846 0.951 . S
C864 C865 1.366 . S
C864 C866 1.388 . S
C865 C864 1.366 . S
C865 C869 1.385 . S
C866 H847 0.951 . S
C866 C864 1.388 . S
C866 C867 1.366 . S
C867 C866 1.366 . S
C867 C868 1.414 . S
C867 C870 1.499 . S
C868 H848 0.950 . S
C868 C867 1.414 . S
C868 C869 1.374 . S
C869 H849 0.950 . S
C869 C865 1.385 . S
C869 C868 1.374 . S
C870 C867 1.499 . S
C870 C871 1.373 . S
C870 C872 1.389 . S
C871 H850 0.950 . S
C871 C870 1.373 . S
C871 C887 1.377 . S
C872 C870 1.389 . S
C872 C873 1.524 . S
C872 C886 1.377 . S
C873 C872 1.524 . S
C873 C874 1.397 . S
C873 C878 1.363 . S
C874 H851 0.950 . S
C874 C873 1.397 . S
C874 C875 1.334 . S
C875 H852 0.950 . S
C875 C874 1.334 . S
C875 C876 1.287 . S
C876 C875 1.287 . S
C876 C877 1.524 . S
C876 H895 0.913 . S
C877 H853 0.950 . S
C877 C876 1.524 . S
C877 C878 1.415 . S
C878 H854 0.950 . S
C878 C873 1.363 . S
C878 C877 1.415 . S
C879 H855 0.951 . S
C879 C880 1.366 . S
C879 C881 1.388 . S
C880 C879 1.366 . S
C880 C884 1.385 . S
C881 H856 0.951 . S
C881 C879 1.388 . S
C881 C882 1.366 . S
C882 C881 1.366 . S
C882 C883 1.414 . S
C882 C885 1.499 . S
C883 H857 0.950 . S
C883 C882 1.414 . S
C883 C884 1.374 . S
C884 H858 0.950 . S
C884 C880 1.385 . S
C884 C883 1.374 . S
C885 C882 1.499 . S
C885 C886 1.373 . S
C885 C887 1.389 . S
C886 H859 0.950 . S
C886 C872 1.377 . S
C886 C885 1.373 . S
C887 C871 1.377 . S
C887 C885 1.389 . S
C887 C888 1.524 . S
C888 C887 1.524 . S
C888 C889 1.397 . S
C888 C893 1.363 . S
C889 H860 0.950 . S
C889 C888 1.397 . S
C889 C890 1.334 . S
C890 H861 0.950 . S
C890 C889 1.334 . S
C890 C891 1.287 . S
C891 C890 1.287 . S
C891 C892 1.524 . S
C891 H894 0.999 . S
C892 H862 0.950 . S
C892 C891 1.524 . S
C892 C893 1.415 . S
C893 H863 0.950 . S
C893 C888 1.363 . S
C893 C892 1.415 . S
H894 C891 0.999 . S
H895 C876 0.913 . S
H896 C914 0.951 . S
H897 C916 0.951 . S
H898 C918 0.950 . S
H899 C919 0.950 . S
H900 C921 0.950 . S
H901 C924 0.950 . S
H902 C925 0.950 . S
H903 C927 0.950 . S
H904 C928 0.950 . S
H905 C929 0.951 . S
H906 C931 0.951 . S
H907 C933 0.950 . S
H908 C934 0.950 . S
H909 C936 0.950 . S
H910 C939 0.950 . S
H911 C940 0.950 . S
H912 C942 0.950 . S
H913 C943 0.950 . S
C914 H896 0.951 . S
C914 C915 1.366 . S
C914 C916 1.388 . S
C915 C914 1.366 . S
C915 C919 1.385 . S
C916 H897 0.951 . S
C916 C914 1.388 . S
C916 C917 1.366 . S
C917 C916 1.366 . S
C917 C918 1.414 . S
C917 C920 1.499 . S
C918 H898 0.950 . S
C918 C917 1.414 . S
C918 C919 1.374 . S
C919 H899 0.950 . S
C919 C915 1.385 . S
C919 C918 1.374 . S
C920 C917 1.499 . S
C920 C921 1.373 . S
C920 C922 1.389 . S
C921 H900 0.950 . S
C921 C920 1.373 . S
C921 C937 1.377 . S
C922 C920 1.389 . S
C922 C923 1.524 . S
C922 C936 1.377 . S
C923 C922 1.524 . S
C923 C924 1.397 . S
C923 C928 1.363 . S
C924 H901 0.950 . S
C924 C923 1.397 . S
C924 C925 1.334 . S
C925 H902 0.950 . S
C925 C924 1.334 . S
C925 C926 1.287 . S
C926 C925 1.287 . S
C926 C927 1.524 . S
C926 H945 0.913 . S
C927 H903 0.950 . S
C927 C926 1.524 . S
C927 C928 1.415 . S
C928 H904 0.950 . S
C928 C923 1.363 . S
C928 C927 1.415 . S
C929 H905 0.951 . S
C929 C930 1.366 . S
C929 C931 1.388 . S
C930 C929 1.366 . S
C930 C934 1.385 . S
C931 H906 0.951 . S
C931 C929 1.388 . S
C931 C932 1.366 . S
C932 C931 1.366 . S
C932 C933 1.414 . S
C932 C935 1.499 . S
C933 H907 0.950 . S
C933 C932 1.414 . S
C933 C934 1.374 . S
C934 H908 0.950 . S
C934 C930 1.385 . S
C934 C933 1.374 . S
C935 C932 1.499 . S
C935 C936 1.373 . S
C935 C937 1.389 . S
C936 H909 0.950 . S
C936 C922 1.377 . S
C936 C935 1.373 . S
C937 C921 1.377 . S
C937 C935 1.389 . S
C937 C938 1.524 . S
C938 C937 1.524 . S
C938 C939 1.397 . S
C938 C943 1.363 . S
C939 H910 0.950 . S
C939 C938 1.397 . S
C939 C940 1.334 . S
C940 H911 0.950 . S
C940 C939 1.334 . S
C940 C941 1.287 . S
C941 C940 1.287 . S
C941 C942 1.524 . S
C941 H944 0.999 . S
C942 H912 0.950 . S
C942 C941 1.524 . S
C942 C943 1.415 . S
C943 H913 0.950 . S
C943 C938 1.363 . S
C943 C942 1.415 . S
H944 C941 0.999 . S
H945 C926 0.913 . S
H946 C964 0.951 . S
H947 C966 0.951 . S
H948 C968 0.950 . S
H949 C969 0.950 . S
H950 C971 0.950 . S
H951 C974 0.950 . S
H952 C975 0.950 . S
H953 C977 0.950 . S
H954 C978 0.950 . S
H955 C979 0.951 . S
H956 C981 0.951 . S
H957 C983 0.950 . S
H958 C984 0.950 . S
H959 C986 0.950 . S
H960 C989 0.950 . S
H961 C990 0.950 . S
H962 C992 0.950 . S
H963 C993 0.950 . S
C964 H946 0.951 . S
C964 C965 1.366 . S
C964 C966 1.388 . S
C965 C964 1.366 . S
C965 C969 1.385 . S
C966 H947 0.951 . S
C966 C964 1.388 . S
C966 C967 1.366 . S
C967 C966 1.366 . S
C967 C968 1.414 . S
C967 C970 1.499 . S
C968 H948 0.950 . S
C968 C967 1.414 . S
C968 C969 1.374 . S
C969 H949 0.950 . S
C969 C965 1.385 . S
C969 C968 1.374 . S
C970 C967 1.499 . S
C970 C971 1.373 . S
C970 C972 1.389 . S
C971 H950 0.950 . S
C971 C970 1.373 . S
C971 C987 1.377 . S
C972 C970 1.389 . S
C972 C973 1.524 . S
C972 C986 1.377 . S
C973 C972 1.524 . S
C973 C974 1.397 . S
C973 C978 1.363 . S
C974 H951 0.950 . S
C974 C973 1.397 . S
C974 C975 1.334 . S
C975 H952 0.950 . S
C975 C974 1.334 . S
C975 C976 1.287 . S
C976 C975 1.287 . S
C976 C977 1.524 . S
C976 H995 0.913 . S
C977 H953 0.950 . S
C977 C976 1.524 . S
C977 C978 1.415 . S
C978 H954 0.950 . S
C978 C973 1.363 . S
C978 C977 1.415 . S
C979 H955 0.951 . S
C979 C980 1.366 . S
C979 C981 1.388 . S
C980 C979 1.366 . S
C980 C984 1.385 . S
C981 H956 0.951 . S
C981 C979 1.388 . S
C981 C982 1.366 . S
C982 C981 1.366 . S
C982 C983 1.414 . S
C982 C985 1.499 . S
C983 H957 0.950 . S
C983 C982 1.414 . S
C983 C984 1.374 . S
C984 H958 0.950 . S
C984 C980 1.385 . S
C984 C983 1.374 . S
C985 C982 1.499 . S
C985 C986 1.373 . S
C985 C987 1.389 . S
C986 H959 0.950 . S
C986 C972 1.377 . S
C986 C985 1.373 . S
C987 C971 1.377 . S
C987 C985 1.389 . S
C987 C988 1.524 . S
C988 C987 1.524 . S
C988 C989 1.397 . S
C988 C993 1.363 . S
C989 H960 0.950 . S
C989 C988 1.397 . S
C989 C990 1.334 . S
C990 H961 0.950 . S
C990 C989 1.334 . S
C990 C991 1.287 . S
C991 C990 1.287 . S
C991 C992 1.524 . S
C991 H994 0.999 . S
C992 H962 0.950 . S
C992 C991 1.524 . S
C992 C993 1.415 . S
C993 H963 0.950 . S
C993 C988 1.363 . S
C993 C992 1.415 . S
H994 C991 0.999 . S
H995 C976 0.913 . S
H996 C1014 0.951 . S
H997 C1016 0.951 . S
H998 C1018 0.950 . S
H999 C1019 0.950 . S
H1000 C1021 0.950 . S
H1001 C1024 0.950 . S
H1002 C1025 0.950 . S
H1003 C1027 0.950 . S
H1004 C1028 0.950 . S
H1005 C1029 0.951 . S
H1006 C1031 0.951 . S
H1007 C1033 0.950 . S
H1008 C1034 0.950 . S
H1009 C1036 0.950 . S
H1010 C1039 0.950 . S
H1011 C1040 0.950 . S
H1012 C1042 0.950 . S
H1013 C1043 0.950 . S
C1014 H996 0.951 . S
C1014 C1015 1.366 . S
C1014 C1016 1.388 . S
C1015 C1014 1.366 . S
C1015 C1019 1.385 . S
C1016 H997 0.951 . S
C1016 C1014 1.388 . S
C1016 C1017 1.366 . S
C1017 C1016 1.366 . S
C1017 C1018 1.414 . S
C1017 C1020 1.499 . S
C1018 H998 0.950 . S
C1018 C1017 1.414 . S
C1018 C1019 1.374 . S
C1019 H999 0.950 . S
C1019 C1015 1.385 . S
C1019 C1018 1.374 . S
C1020 C1017 1.499 . S
C1020 C1021 1.373 . S
C1020 C1022 1.389 . S
C1021 H1000 0.950 . S
C1021 C1020 1.373 . S
C1021 C1037 1.377 . S
C1022 C1020 1.389 . S
C1022 C1023 1.524 . S
C1022 C1036 1.377 . S
C1023 C1022 1.524 . S
C1023 C1024 1.397 . S
C1023 C1028 1.363 . S
C1024 H1001 0.950 . S
C1024 C1023 1.397 . S
C1024 C1025 1.334 . S
C1025 H1002 0.950 . S
C1025 C1024 1.334 . S
C1025 C1026 1.287 . S
C1026 C1025 1.287 . S
C1026 C1027 1.524 . S
C1026 H1045 0.913 . S
C1027 H1003 0.950 . S
C1027 C1026 1.524 . S
C1027 C1028 1.415 . S
C1028 H1004 0.950 . S
C1028 C1023 1.363 . S
C1028 C1027 1.415 . S
C1029 H1005 0.951 . S
C1029 C1030 1.366 . S
C1029 C1031 1.388 . S
C1030 C1029 1.366 . S
C1030 C1034 1.385 . S
C1031 H1006 0.951 . S
C1031 C1029 1.388 . S
C1031 C1032 1.366 . S
C1032 C1031 1.366 . S
C1032 C1033 1.414 . S
C1032 C1035 1.499 . S
C1033 H1007 0.950 . S
C1033 C1032 1.414 . S
C1033 C1034 1.374 . S
C1034 H1008 0.950 . S
C1034 C1030 1.385 . S
C1034 C1033 1.374 . S
C1035 C1032 1.499 . S
C1035 C1036 1.373 . S
C1035 C1037 1.389 . S
C1036 H1009 0.950 . S
C1036 C1022 1.377 . S
C1036 C1035 1.373 . S
C1037 C1021 1.377 . S
C1037 C1035 1.389 . S
C1037 C1038 1.524 . S
C1038 C1037 1.524 . S
C1038 C1039 1.397 . S
C1038 C1043 1.363 . S
C1039 H1010 0.950 . S
C1039 C1038 1.397 . S
C1039 C1040 1.334 . S
C1040 H1011 0.950 . S
C1040 C1039 1.334 . S
C1040 C1041 1.287 . S
C1041 C1040 1.287 . S
C1041 C1042 1.524 . S
C1041 H1044 1.013 . S
C1042 H1012 0.950 . S
C1042 C1041 1.524 . S
C1042 C1043 1.415 . S
C1043 H1013 0.950 . S
C1043 C1038 1.363 . S
C1043 C1042 1.415 . S
H1044 C1041 1.013 . S
H1045 C1026 0.913 . S
H1046 C1064 0.951 . S
H1047 C1066 0.951 . S
H1048 C1068 0.950 . S
H1049 C1069 0.950 . S
H1050 C1071 0.950 . S
H1051 C1074 0.950 . S
H1052 C1075 0.950 . S
H1053 C1077 0.950 . S
H1054 C1078 0.950 . S
H1055 C1079 0.951 . S
H1056 C1081 0.951 . S
H1057 C1083 0.950 . S
H1058 C1084 0.950 . S
H1059 C1086 0.950 . S
H1060 C1089 0.950 . S
H1061 C1090 0.950 . S
H1062 C1092 0.950 . S
H1063 C1093 0.950 . S
C1064 H1046 0.951 . S
C1064 C1065 1.366 . S
C1064 C1066 1.388 . S
C1065 C1064 1.366 . S
C1065 C1069 1.385 . S
C1066 H1047 0.951 . S
C1066 C1064 1.388 . S
C1066 C1067 1.366 . S
C1067 C1066 1.366 . S
C1067 C1068 1.414 . S
C1067 C1070 1.499 . S
C1068 H1048 0.950 . S
C1068 C1067 1.414 . S
C1068 C1069 1.374 . S
C1069 H1049 0.950 . S
C1069 C1065 1.385 . S
C1069 C1068 1.374 . S
C1070 C1067 1.499 . S
C1070 C1071 1.373 . S
C1070 C1072 1.389 . S
C1071 H1050 0.950 . S
C1071 C1070 1.373 . S
C1071 C1087 1.377 . S
C1072 C1070 1.389 . S
C1072 C1073 1.524 . S
C1072 C1086 1.377 . S
C1073 C1072 1.524 . S
C1073 C1074 1.397 . S
C1073 C1078 1.363 . S
C1074 H1051 0.950 . S
C1074 C1073 1.397 . S
C1074 C1075 1.334 . S
C1075 H1052 0.950 . S
C1075 C1074 1.334 . S
C1075 C1076 1.287 . S
C1076 C1075 1.287 . S
C1076 C1077 1.524 . S
C1076 H1095 0.913 . S
C1077 H1053 0.950 . S
C1077 C1076 1.524 . S
C1077 C1078 1.415 . S
C1078 H1054 0.950 . S
C1078 C1073 1.363 . S
C1078 C1077 1.415 . S
C1079 H1055 0.951 . S
C1079 C1080 1.366 . S
C1079 C1081 1.388 . S
C1080 C1079 1.366 . S
C1080 C1084 1.385 . S
C1081 H1056 0.951 . S
C1081 C1079 1.388 . S
C1081 C1082 1.366 . S
C1082 C1081 1.366 . S
C1082 C1083 1.414 . S
C1082 C1085 1.499 . S
C1083 H1057 0.950 . S
C1083 C1082 1.414 . S
C1083 C1084 1.374 . S
C1084 H1058 0.950 . S
C1084 C1080 1.385 . S
C1084 C1083 1.374 . S
C1085 C1082 1.499 . S
C1085 C1086 1.373 . S
C1085 C1087 1.389 . S
C1086 H1059 0.950 . S
C1086 C1072 1.377 . S
C1086 C1085 1.373 . S
C1087 C1071 1.377 . S
C1087 C1085 1.389 . S
C1087 C1088 1.524 . S
C1088 C1087 1.524 . S
C1088 C1089 1.397 . S
C1088 C1093 1.363 . S
C1089 H1060 0.950 . S
C1089 C1088 1.397 . S
C1089 C1090 1.334 . S
C1090 H1061 0.950 . S
C1090 C1089 1.334 . S
C1090 C1091 1.287 . S
C1091 C1090 1.287 . S
C1091 C1092 1.524 . S
C1091 H1094 0.999 . S
C1092 H1062 0.950 . S
C1092 C1091 1.524 . S
C1092 C1093 1.415 . S
C1093 H1063 0.950 . S
C1093 C1088 1.363 . S
C1093 C1092 1.415 . S
H1094 C1091 0.999 . S
H1095 C1076 0.913 . S
H1096 C1114 0.951 . S
H1097 C1116 0.951 . S
H1098 C1118 0.950 . S
H1099 C1119 0.950 . S
H1100 C1121 0.950 . S
H1101 C1124 0.950 . S
H1102 C1125 0.950 . S
H1103 C1127 0.950 . S
H1104 C1128 0.950 . S
H1105 C1129 0.951 . S
H1106 C1131 0.951 . S
H1107 C1133 0.950 . S
H1108 C1134 0.950 . S
H1109 C1136 0.950 . S
H1110 C1139 0.950 . S
H1111 C1140 0.950 . S
H1112 C1142 0.950 . S
H1113 C1143 0.950 . S
C1114 H1096 0.951 . S
C1114 C1115 1.366 . S
C1114 C1116 1.388 . S
C1115 C1114 1.366 . S
C1115 C1119 1.385 . S
C1116 H1097 0.951 . S
C1116 C1114 1.388 . S
C1116 C1117 1.366 . S
C1117 C1116 1.366 . S
C1117 C1118 1.414 . S
C1117 C1120 1.499 . S
C1118 H1098 0.950 . S
C1118 C1117 1.414 . S
C1118 C1119 1.374 . S
C1119 H1099 0.950 . S
C1119 C1115 1.385 . S
C1119 C1118 1.374 . S
C1120 C1117 1.499 . S
C1120 C1121 1.373 . S
C1120 C1122 1.389 . S
C1121 H1100 0.950 . S
C1121 C1120 1.373 . S
C1121 C1137 1.377 . S
C1122 C1120 1.389 . S
C1122 C1123 1.524 . S
C1122 C1136 1.377 . S
C1123 C1122 1.524 . S
C1123 C1124 1.397 . S
C1123 C1128 1.363 . S
C1124 H1101 0.950 . S
C1124 C1123 1.397 . S
C1124 C1125 1.334 . S
C1125 H1102 0.950 . S
C1125 C1124 1.334 . S
C1125 C1126 1.287 . S
C1126 C1125 1.287 . S
C1126 C1127 1.524 . S
C1126 H1145 0.913 . S
C1127 H1103 0.950 . S
C1127 C1126 1.524 . S
C1127 C1128 1.415 . S
C1128 H1104 0.950 . S
C1128 C1123 1.363 . S
C1128 C1127 1.415 . S
C1129 H1105 0.951 . S
C1129 C1130 1.366 . S
C1129 C1131 1.388 . S
C1130 C1129 1.366 . S
C1130 C1134 1.385 . S
C1131 H1106 0.951 . S
C1131 C1129 1.388 . S
C1131 C1132 1.366 . S
C1132 C1131 1.366 . S
C1132 C1133 1.414 . S
C1132 C1135 1.499 . S
C1133 H1107 0.950 . S
C1133 C1132 1.414 . S
C1133 C1134 1.374 . S
C1134 H1108 0.950 . S
C1134 C1130 1.385 . S
C1134 C1133 1.374 . S
C1135 C1132 1.499 . S
C1135 C1136 1.373 . S
C1135 C1137 1.389 . S
C1136 H1109 0.950 . S
C1136 C1122 1.377 . S
C1136 C1135 1.373 . S
C1137 C1121 1.377 . S
C1137 C1135 1.389 . S
C1137 C1138 1.524 . S
C1138 C1137 1.524 . S
C1138 C1139 1.397 . S
C1138 C1143 1.363 . S
C1139 H1110 0.950 . S
C1139 C1138 1.397 . S
C1139 C1140 1.334 . S
C1140 H1111 0.950 . S
C1140 C1139 1.334 . S
C1140 C1141 1.287 . S
C1141 C1140 1.287 . S
C1141 C1142 1.524 . S
C1141 H1144 0.999 . S
C1142 H1112 0.950 . S
C1142 C1141 1.524 . S
C1142 C1143 1.415 . S
C1143 H1113 0.950 . S
C1143 C1138 1.363 . S
C1143 C1142 1.415 . S
H1144 C1141 0.999 . S
H1145 C1126 0.913 . S
H1146 C1164 0.951 . S
H1147 C1166 0.951 . S
H1148 C1168 0.950 . S
H1149 C1169 0.950 . S
H1150 C1171 0.950 . S
H1151 C1174 0.950 . S
H1152 C1175 0.950 . S
H1153 C1177 0.950 . S
H1154 C1178 0.950 . S
H1155 C1179 0.951 . S
H1156 C1181 0.951 . S
H1157 C1183 0.950 . S
H1158 C1184 0.950 . S
H1159 C1186 0.950 . S
H1160 C1189 0.950 . S
H1161 C1190 0.950 . S
H1162 C1192 0.950 . S
H1163 C1193 0.950 . S
C1164 H1146 0.951 . S
C1164 C1165 1.366 . S
C1164 C1166 1.388 . S
C1165 C1164 1.366 . S
C1165 C1169 1.385 . S
C1166 H1147 0.951 . S
C1166 C1164 1.388 . S
C1166 C1167 1.366 . S
C1167 C1166 1.366 . S
C1167 C1168 1.414 . S
C1167 C1170 1.499 . S
C1168 H1148 0.950 . S
C1168 C1167 1.414 . S
C1168 C1169 1.374 . S
C1169 H1149 0.950 . S
C1169 C1165 1.385 . S
C1169 C1168 1.374 . S
C1170 C1167 1.499 . S
C1170 C1171 1.373 . S
C1170 C1172 1.389 . S
C1171 H1150 0.950 . S
C1171 C1170 1.373 . S
C1171 C1187 1.377 . S
C1172 C1170 1.389 . S
C1172 C1173 1.524 . S
C1172 C1186 1.377 . S
C1173 C1172 1.524 . S
C1173 C1174 1.397 . S
C1173 C1178 1.363 . S
C1174 H1151 0.950 . S
C1174 C1173 1.397 . S
C1174 C1175 1.334 . S
C1175 H1152 0.950 . S
C1175 C1174 1.334 . S
C1175 C1176 1.287 . S
C1176 C1175 1.287 . S
C1176 C1177 1.524 . S
C1176 H1195 0.913 . S
C1177 H1153 0.950 . S
C1177 C1176 1.524 . S
C1177 C1178 1.415 . S
C1178 H1154 0.950 . S
C1178 C1173 1.363 . S
C1178 C1177 1.415 . S
C1179 H1155 0.951 . S
C1179 C1180 1.366 . S
C1179 C1181 1.388 . S
C1180 C1179 1.366 . S
C1180 C1184 1.385 . S
C1181 H1156 0.951 . S
C1181 C1179 1.388 . S
C1181 C1182 1.366 . S
C1182 C1181 1.366 . S
C1182 C1183 1.414 . S
C1182 C1185 1.499 . S
C1183 H1157 0.950 . S
C1183 C1182 1.414 . S
C1183 C1184 1.374 . S
C1184 H1158 0.950 . S
C1184 C1180 1.385 . S
C1184 C1183 1.374 . S
C1185 C1182 1.499 . S
C1185 C1186 1.373 . S
C1185 C1187 1.389 . S
C1186 H1159 0.950 . S
C1186 C1172 1.377 . S
C1186 C1185 1.373 . S
C1187 C1171 1.377 . S
C1187 C1185 1.389 . S
C1187 C1188 1.524 . S
C1188 C1187 1.524 . S
C1188 C1189 1.397 . S
C1188 C1193 1.363 . S
C1189 H1160 0.950 . S
C1189 C1188 1.397 . S
C1189 C1190 1.334 . S
C1190 H1161 0.950 . S
C1190 C1189 1.334 . S
C1190 C1191 1.287 . S
C1191 C1190 1.287 . S
C1191 C1192 1.524 . S
C1191 H1194 0.999 . S
C1192 H1162 0.950 . S
C1192 C1191 1.524 . S
C1192 C1193 1.415 . S
C1193 H1163 0.950 . S
C1193 C1188 1.363 . S
C1193 C1192 1.415 . S
H1194 C1191 0.999 . S
H1195 C1176 0.913 . S
H1196 C1214 0.951 . S
H1197 C1216 0.951 . S
H1198 C1218 0.950 . S
H1199 C1219 0.950 . S
H1200 C1221 0.950 . S
H1201 C1224 0.950 . S
H1202 C1225 0.950 . S
H1203 C1227 0.950 . S
H1204 C1228 0.950 . S
H1205 C1229 0.951 . S
H1206 C1231 0.951 . S
H1207 C1233 0.950 . S
H1208 C1234 0.950 . S
H1209 C1236 0.950 . S
H1210 C1239 0.950 . S
H1211 C1240 0.950 . S
H1212 C1242 0.950 . S
H1213 C1243 0.950 . S
C1214 H1196 0.951 . S
C1214 C1215 1.366 . S
C1214 C1216 1.388 . S
C1215 C1214 1.366 . S
C1215 C1219 1.385 . S
C1216 H1197 0.951 . S
C1216 C1214 1.388 . S
C1216 C1217 1.366 . S
C1217 C1216 1.366 . S
C1217 C1218 1.414 . S
C1217 C1220 1.499 . S
C1218 H1198 0.950 . S
C1218 C1217 1.414 . S
C1218 C1219 1.374 . S
C1219 H1199 0.950 . S
C1219 C1215 1.385 . S
C1219 C1218 1.374 . S
C1220 C1217 1.499 . S
C1220 C1221 1.373 . S
C1220 C1222 1.389 . S
C1221 H1200 0.950 . S
C1221 C1220 1.373 . S
C1221 C1237 1.377 . S
C1222 C1220 1.389 . S
C1222 C1223 1.524 . S
C1222 C1236 1.377 . S
C1223 C1222 1.524 . S
C1223 C1224 1.397 . S
C1223 C1228 1.363 . S
C1224 H1201 0.950 . S
C1224 C1223 1.397 . S
C1224 C1225 1.334 . S
C1225 H1202 0.950 . S
C1225 C1224 1.334 . S
C1225 C1226 1.287 . S
C1226 C1225 1.287 . S
C1226 C1227 1.524 . S
C1226 H1245 0.913 . S
C1227 H1203 0.950 . S
C1227 C1226 1.524 . S
C1227 C1228 1.415 . S
C1228 H1204 0.950 . S
C1228 C1223 1.363 . S
C1228 C1227 1.415 . S
C1229 H1205 0.951 . S
C1229 C1230 1.366 . S
C1229 C1231 1.388 . S
C1230 C1229 1.366 . S
C1230 C1234 1.385 . S
C1231 H1206 0.951 . S
C1231 C1229 1.388 . S
C1231 C1232 1.366 . S
C1232 C1231 1.366 . S
C1232 C1233 1.414 . S
C1232 C1235 1.499 . S
C1233 H1207 0.950 . S
C1233 C1232 1.414 . S
C1233 C1234 1.374 . S
C1234 H1208 0.950 . S
C1234 C1230 1.385 . S
C1234 C1233 1.374 . S
C1235 C1232 1.499 . S
C1235 C1236 1.373 . S
C1235 C1237 1.389 . S
C1236 H1209 0.950 . S
C1236 C1222 1.377 . S
C1236 C1235 1.373 . S
C1237 C1221 1.377 . S
C1237 C1235 1.389 . S
C1237 C1238 1.524 . S
C1238 C1237 1.524 . S
C1238 C1239 1.397 . S
C1238 C1243 1.363 . S
C1239 H1210 0.950 . S
C1239 C1238 1.397 . S
C1239 C1240 1.334 . S
C1240 H1211 0.950 . S
C1240 C1239 1.334 . S
C1240 C1241 1.287 . S
C1241 C1240 1.287 . S
C1241 C1242 1.524 . S
C1241 H1244 0.999 . S
C1242 H1212 0.950 . S
C1242 C1241 1.524 . S
C1242 C1243 1.415 . S
C1243 H1213 0.950 . S
C1243 C1238 1.363 . S
C1243 C1242 1.415 . S
H1244 C1241 0.999 . S
H1245 C1226 0.913 . S
H1246 C1264 0.951 . S
H1247 C1266 0.951 . S
H1248 C1268 0.950 . S
H1249 C1269 0.950 . S
H1250 C1271 0.950 . S
H1251 C1274 0.950 . S
H1252 C1275 0.950 . S
H1253 C1277 0.950 . S
H1254 C1278 0.950 . S
H1255 C1279 0.951 . S
H1256 C1281 0.951 . S
H1257 C1283 0.950 . S
H1258 C1284 0.950 . S
H1259 C1286 0.950 . S
H1260 C1289 0.950 . S
H1261 C1290 0.950 . S
H1262 C1292 0.950 . S
H1263 C1293 0.950 . S
C1264 H1246 0.951 . S
C1264 C1265 1.366 . S
C1264 C1266 1.388 . S
C1265 C1264 1.366 . S
C1265 C1269 1.385 . S
C1266 H1247 0.951 . S
C1266 C1264 1.388 . S
C1266 C1267 1.366 . S
C1267 C1266 1.366 . S
C1267 C1268 1.414 . S
C1267 C1270 1.499 . S
C1268 H1248 0.950 . S
C1268 C1267 1.414 . S
C1268 C1269 1.374 . S
C1269 H1249 0.950 . S
C1269 C1265 1.385 . S
C1269 C1268 1.374 . S
C1270 C1267 1.499 . S
C1270 C1271 1.373 . S
C1270 C1272 1.389 . S
C1271 H1250 0.950 . S
C1271 C1270 1.373 . S
C1271 C1287 1.377 . S
C1272 C1270 1.389 . S
C1272 C1273 1.524 . S
C1272 C1286 1.377 . S
C1273 C1272 1.524 . S
C1273 C1274 1.397 . S
C1273 C1278 1.363 . S
C1274 H1251 0.950 . S
C1274 C1273 1.397 . S
C1274 C1275 1.334 . S
C1275 H1252 0.950 . S
C1275 C1274 1.334 . S
C1275 C1276 1.287 . S
C1276 C1275 1.287 . S
C1276 C1277 1.524 . S
C1276 H1295 0.913 . S
C1277 H1253 0.950 . S
C1277 C1276 1.524 . S
C1277 C1278 1.415 . S
C1278 H1254 0.950 . S
C1278 C1273 1.363 . S
C1278 C1277 1.415 . S
C1279 H1255 0.951 . S
C1279 C1280 1.366 . S
C1279 C1281 1.388 . S
C1280 C1279 1.366 . S
C1280 C1284 1.385 . S
C1281 H1256 0.951 . S
C1281 C1279 1.388 . S
C1281 C1282 1.366 . S
C1282 C1281 1.366 . S
C1282 C1283 1.414 . S
C1282 C1285 1.499 . S
C1283 H1257 0.950 . S
C1283 C1282 1.414 . S
C1283 C1284 1.374 . S
C1284 H1258 0.950 . S
C1284 C1280 1.385 . S
C1284 C1283 1.374 . S
C1285 C1282 1.499 . S
C1285 C1286 1.373 . S
C1285 C1287 1.389 . S
C1286 H1259 0.950 . S
C1286 C1272 1.377 . S
C1286 C1285 1.373 . S
C1287 C1271 1.377 . S
C1287 C1285 1.389 . S
C1287 C1288 1.524 . S
C1288 C1287 1.524 . S
C1288 C1289 1.397 . S
C1288 C1293 1.363 . S
C1289 H1260 0.950 . S
C1289 C1288 1.397 . S
C1289 C1290 1.334 . S
C1290 H1261 0.950 . S
C1290 C1289 1.334 . S
C1290 C1291 1.287 . S
C1291 C1290 1.287 . S
C1291 C1292 1.524 . S
C1291 H1294 0.999 . S
C1292 H1262 0.950 . S
C1292 C1291 1.524 . S
C1292 C1293 1.415 . S
C1293 H1263 0.950 . S
C1293 C1288 1.363 . S
C1293 C1292 1.415 . S
H1294 C1291 0.999 . S
H1295 C1276 0.913 . S
H1296 C1314 0.951 . S
H1297 C1316 0.951 . S
H1298 C1318 0.950 . S
H1299 C1319 0.950 . S
H1300 C1321 0.950 . S
H1301 C1324 0.950 . S
H1302 C1325 0.950 . S
H1303 C1327 0.950 . S
H1304 C1328 0.950 . S
H1305 C1329 0.951 . S
H1306 C1331 0.951 . S
H1307 C1333 0.950 . S
H1308 C1334 0.950 . S
H1309 C1336 0.950 . S
H1310 C1339 0.950 . S
H1311 C1340 0.950 . S
H1312 C1342 0.950 . S
H1313 C1343 0.950 . S
C1314 H1296 0.951 . S
C1314 C1315 1.366 . S
C1314 C1316 1.388 . S
C1315 C1314 1.366 . S
C1315 C1319 1.385 . S
C1316 H1297 0.951 . S
C1316 C1314 1.388 . S
C1316 C1317 1.366 . S
C1317 C1316 1.366 . S
C1317 C1318 1.414 . S
C1317 C1320 1.499 . S
C1318 H1298 0.950 . S
C1318 C1317 1.414 . S
C1318 C1319 1.374 . S
C1319 H1299 0.950 . S
C1319 C1315 1.385 . S
C1319 C1318 1.374 . S
C1320 C1317 1.499 . S
C1320 C1321 1.373 . S
C1320 C1322 1.389 . S
C1321 H1300 0.950 . S
C1321 C1320 1.373 . S
C1321 C1337 1.377 . S
C1322 C1320 1.389 . S
C1322 C1323 1.524 . S
C1322 C1336 1.377 . S
C1323 C1322 1.524 . S
C1323 C1324 1.397 . S
C1323 C1328 1.363 . S
C1324 H1301 0.950 . S
C1324 C1323 1.397 . S
C1324 C1325 1.334 . S
C1325 H1302 0.950 . S
C1325 C1324 1.334 . S
C1325 C1326 1.287 . S
C1326 C1325 1.287 . S
C1326 C1327 1.524 . S
C1326 H1345 0.913 . S
C1327 H1303 0.950 . S
C1327 C1326 1.524 . S
C1327 C1328 1.415 . S
C1328 H1304 0.950 . S
C1328 C1323 1.363 . S
C1328 C1327 1.415 . S
C1329 H1305 0.951 . S
C1329 C1330 1.366 . S
C1329 C1331 1.388 . S
C1330 C1329 1.366 . S
C1330 C1334 1.385 . S
C1331 H1306 0.951 . S
C1331 C1329 1.388 . S
C1331 C1332 1.366 . S
C1332 C1331 1.366 . S
C1332 C1333 1.414 . S
C1332 C1335 1.499 . S
C1333 H1307 0.950 . S
C1333 C1332 1.414 . S
C1333 C1334 1.374 . S
C1334 H1308 0.950 . S
C1334 C1330 1.385 . S
C1334 C1333 1.374 . S
C1335 C1332 1.499 . S
C1335 C1336 1.373 . S
C1335 C1337 1.389 . S
C1336 H1309 0.950 . S
C1336 C1322 1.377 . S
C1336 C1335 1.373 . S
C1337 C1321 1.377 . S
C1337 C1335 1.389 . S
C1337 C1338 1.524 . S
C1338 C1337 1.524 . S
C1338 C1339 1.397 . S
C1338 C1343 1.363 . S
C1339 H1310 0.950 . S
C1339 C1338 1.397 . S
C1339 C1340 1.334 . S
C1340 H1311 0.950 . S
C1340 C1339 1.334 . S
C1340 C1341 1.287 . S
C1341 C1340 1.287 . S
C1341 C1342 1.524 . S
C1341 H1344 0.999 . S
C1342 H1312 0.950 . S
C1342 C1341 1.524 . S
C1342 C1343 1.415 . S
C1343 H1313 0.950 . S
C1343 C1338 1.363 . S
C1343 C1342 1.415 . S
H1344 C1341 0.999 . S
H1345 C1326 0.913 . S
H1346 C1364 0.951 . S
H1347 C1366 0.951 . S
H1348 C1368 0.950 . S
H1349 C1369 0.950 . S
H1350 C1371 0.950 . S
H1351 C1374 0.950 . S
H1352 C1375 0.950 . S
H1353 C1377 0.950 . S
H1354 C1378 0.950 . S
H1355 C1379 0.951 . S
H1356 C1381 0.951 . S
H1357 C1383 0.950 . S
H1358 C1384 0.950 . S
H1359 C1386 0.950 . S
H1360 C1389 0.950 . S
H1361 C1390 0.950 . S
H1362 C1392 0.950 . S
H1363 C1393 0.950 . S
C1364 H1346 0.951 . S
C1364 C1365 1.366 . S
C1364 C1366 1.388 . S
C1365 C1364 1.366 . S
C1365 C1369 1.385 . S
C1366 H1347 0.951 . S
C1366 C1364 1.388 . S
C1366 C1367 1.366 . S
C1367 C1366 1.366 . S
C1367 C1368 1.414 . S
C1367 C1370 1.499 . S
C1368 H1348 0.950 . S
C1368 C1367 1.414 . S
C1368 C1369 1.374 . S
C1369 H1349 0.950 . S
C1369 C1365 1.385 . S
C1369 C1368 1.374 . S
C1370 C1367 1.499 . S
C1370 C1371 1.373 . S
C1370 C1372 1.389 . S
C1371 H1350 0.950 . S
C1371 C1370 1.373 . S
C1371 C1387 1.377 . S
C1372 C1370 1.389 . S
C1372 C1373 1.524 . S
C1372 C1386 1.377 . S
C1373 C1372 1.524 . S
C1373 C1374 1.397 . S
C1373 C1378 1.363 . S
C1374 H1351 0.950 . S
C1374 C1373 1.397 . S
C1374 C1375 1.334 . S
C1375 H1352 0.950 . S
C1375 C1374 1.334 . S
C1375 C1376 1.287 . S
C1376 C1375 1.287 . S
C1376 C1377 1.524 . S
C1376 H1395 0.913 . S
C1377 H1353 0.950 . S
C1377 C1376 1.524 . S
C1377 C1378 1.415 . S
C1378 H1354 0.950 . S
C1378 C1373 1.363 . S
C1378 C1377 1.415 . S
C1379 H1355 0.951 . S
C1379 C1380 1.366 . S
C1379 C1381 1.388 . S
C1380 C1379 1.366 . S
C1380 C1384 1.385 . S
C1381 H1356 0.951 . S
C1381 C1379 1.388 . S
C1381 C1382 1.366 . S
C1382 C1381 1.366 . S
C1382 C1383 1.414 . S
C1382 C1385 1.499 . S
C1383 H1357 0.950 . S
C1383 C1382 1.414 . S
C1383 C1384 1.374 . S
C1384 H1358 0.950 . S
C1384 C1380 1.385 . S
C1384 C1383 1.374 . S
C1385 C1382 1.499 . S
C1385 C1386 1.373 . S
C1385 C1387 1.389 . S
C1386 H1359 0.950 . S
C1386 C1372 1.377 . S
C1386 C1385 1.373 . S
C1387 C1371 1.377 . S
C1387 C1385 1.389 . S
C1387 C1388 1.524 . S
C1388 C1387 1.524 . S
C1388 C1389 1.397 . S
C1388 C1393 1.363 . S
C1389 H1360 0.950 . S
C1389 C1388 1.397 . S
C1389 C1390 1.334 . S
C1390 H1361 0.950 . S
C1390 C1389 1.334 . S
C1390 C1391 1.287 . S
C1391 C1390 1.287 . S
C1391 C1392 1.524 . S
C1391 H1394 0.999 . S
C1392 H1362 0.950 . S
C1392 C1391 1.524 . S
C1392 C1393 1.415 . S
C1393 H1363 0.950 . S
C1393 C1388 1.363 . S
C1393 C1392 1.415 . S
H1394 C1391 0.999 . S
H1395 C1376 0.913 . S
H1396 C1414 0.951 . S
H1397 C1416 0.951 . S
H1398 C1418 0.950 . S
H1399 C1419 0.950 . S
H1400 C1421 0.950 . S
H1401 C1424 0.950 . S
H1402 C1425 0.950 . S
H1403 C1427 0.950 . S
H1404 C1428 0.950 . S
H1405 C1429 0.951 . S
H1406 C1431 0.951 . S
H1407 C1433 0.950 . S
H1408 C1434 0.950 . S
H1409 C1436 0.950 . S
H1410 C1439 0.950 . S
H1411 C1440 0.950 . S
H1412 C1442 0.950 . S
H1413 C1443 0.950 . S
C1414 H1396 0.951 . S
C1414 C1415 1.366 . S
C1414 C1416 1.388 . S
C1415 C1414 1.366 . S
C1415 C1419 1.385 . S
C1416 H1397 0.951 . S
C1416 C1414 1.388 . S
C1416 C1417 1.366 . S
C1417 C1416 1.366 . S
C1417 C1418 1.414 . S
C1417 C1420 1.499 . S
C1418 H1398 0.950 . S
C1418 C1417 1.414 . S
C1418 C1419 1.374 . S
C1419 H1399 0.950 . S
C1419 C1415 1.385 . S
C1419 C1418 1.374 . S
C1420 C1417 1.499 . S
C1420 C1421 1.373 . S
C1420 C1422 1.389 . S
C1421 H1400 0.950 . S
C1421 C1420 1.373 . S
C1421 C1437 1.377 . S
C1422 C1420 1.389 . S
C1422 C1423 1.524 . S
C1422 C1436 1.377 . S
C1423 C1422 1.524 . S
C1423 C1424 1.397 . S
C1423 C1428 1.363 . S
C1424 H1401 0.950 . S
C1424 C1423 1.397 . S
C1424 C1425 1.334 . S
C1425 H1402 0.950 . S
C1425 C1424 1.334 . S
C1425 C1426 1.287 . S
C1426 C1425 1.287 . S
C1426 C1427 1.524 . S
C1426 H1445 0.913 . S
C1427 H1403 0.950 . S
C1427 C1426 1.524 . S
C1427 C1428 1.415 . S
C1428 H1404 0.950 . S
C1428 C1423 1.363 . S
C1428 C1427 1.415 . S
C1429 H1405 0.951 . S
C1429 C1430 1.366 . S
C1429 C1431 1.388 . S
C1430 C1429 1.366 . S
C1430 C1434 1.385 . S
C1431 H1406 0.951 . S
C1431 C1429 1.388 . S
C1431 C1432 1.366 . S
C1432 C1431 1.366 . S
C1432 C1433 1.414 . S
C1432 C1435 1.499 . S
C1433 H1407 0.950 . S
C1433 C1432 1.414 . S
C1433 C1434 1.374 . S
C1434 H1408 0.950 . S
C1434 C1430 1.385 . S
C1434 C1433 1.374 . S
C1435 C1432 1.499 . S
C1435 C1436 1.373 . S
C1435 C1437 1.389 . S
C1436 H1409 0.950 . S
C1436 C1422 1.377 . S
C1436 C1435 1.373 . S
C1437 C1421 1.377 . S
C1437 C1435 1.389 . S
C1437 C1438 1.524 . S
C1438 C1437 1.524 . S
C1438 C1439 1.397 . S
C1438 C1443 1.363 . S
C1439 H1410 0.950 . S
C1439 C1438 1.397 . S
C1439 C1440 1.334 . S
C1440 H1411 0.950 . S
C1440 C1439 1.334 . S
C1440 C1441 1.287 . S
C1441 C1440 1.287 . S
C1441 C1442 1.524 . S
C1441 H1444 0.999 . S
C1442 H1412 0.950 . S
C1442 C1441 1.524 . S
C1442 C1443 1.415 . S
C1443 H1413 0.950 . S
C1443 C1438 1.363 . S
C1443 C1442 1.415 . S
H1444 C1441 0.999 . S
H1445 C1426 0.913 . S
H1446 C1464 0.951 . S
H1447 C1466 0.951 . S
H1448 C1468 0.950 . S
H1449 C1469 0.950 . S
H1450 C1471 0.950 . S
H1451 C1474 0.950 . S
H1452 C1475 0.950 . S
H1453 C1477 0.950 . S
H1454 C1478 0.950 . S
H1455 C1479 0.951 . S
H1456 C1481 0.951 . S
H1457 C1483 0.950 . S
H1458 C1484 0.950 . S
H1459 C1486 0.950 . S
H1460 C1489 0.950 . S
H1461 C1490 0.950 . S
H1462 C1492 0.950 . S
H1463 C1493 0.950 . S
C1464 H1446 0.951 . S
C1464 C1465 1.366 . S
C1464 C1466 1.388 . S
C1465 C1464 1.366 . S
C1465 C1469 1.385 . S
C1466 H1447 0.951 . S
C1466 C1464 1.388 . S
C1466 C1467 1.366 . S
C1467 C1466 1.366 . S
C1467 C1468 1.414 . S
C1467 C1470 1.499 . S
C1468 H1448 0.950 . S
C1468 C1467 1.414 . S
C1468 C1469 1.374 . S
C1469 H1449 0.950 . S
C1469 C1465 1.385 . S
C1469 C1468 1.374 . S
C1470 C1467 1.499 . S
C1470 C1471 1.373 . S
C1470 C1472 1.389 . S
C1471 H1450 0.950 . S
C1471 C1470 1.373 . S
C1471 C1487 1.377 . S
C1472 C1470 1.389 . S
C1472 C1473 1.524 . S
C1472 C1486 1.377 . S
C1473 C1472 1.524 . S
C1473 C1474 1.397 . S
C1473 C1478 1.363 . S
C1474 H1451 0.950 . S
C1474 C1473 1.397 . S
C1474 C1475 1.334 . S
C1475 H1452 0.950 . S
C1475 C1474 1.334 . S
C1475 C1476 1.287 . S
C1476 C1475 1.287 . S
C1476 C1477 1.524 . S
C1476 H1495 0.913 . S
C1477 H1453 0.950 . S
C1477 C1476 1.524 . S
C1477 C1478 1.415 . S
C1478 H1454 0.950 . S
C1478 C1473 1.363 . S
C1478 C1477 1.415 . S
C1479 H1455 0.951 . S
C1479 C1480 1.366 . S
C1479 C1481 1.388 . S
C1480 C1479 1.366 . S
C1480 C1484 1.385 . S
C1481 H1456 0.951 . S
C1481 C1479 1.388 . S
C1481 C1482 1.366 . S
C1482 C1481 1.366 . S
C1482 C1483 1.414 . S
C1482 C1485 1.499 . S
C1483 H1457 0.950 . S
C1483 C1482 1.414 . S
C1483 C1484 1.374 . S
C1484 H1458 0.950 . S
C1484 C1480 1.385 . S
C1484 C1483 1.374 . S
C1485 C1482 1.499 . S
C1485 C1486 1.373 . S
C1485 C1487 1.389 . S
C1486 H1459 0.950 . S
C1486 C1472 1.377 . S
C1486 C1485 1.373 . S
C1487 C1471 1.377 . S
C1487 C1485 1.389 . S
C1487 C1488 1.524 . S
C1488 C1487 1.524 . S
C1488 C1489 1.397 . S
C1488 C1493 1.363 . S
C1489 H1460 0.950 . S
C1489 C1488 1.397 . S
C1489 C1490 1.334 . S
C1490 H1461 0.950 . S
C1490 C1489 1.334 . S
C1490 C1491 1.287 . S
C1491 C1490 1.287 . S
C1491 C1492 1.524 . S
C1491 H1494 0.999 1_554 S
C1492 H1462 0.950 . S
C1492 C1491 1.524 . S
C1492 C1493 1.415 . S
C1493 H1463 0.950 . S
C1493 C1488 1.363 . S
C1493 C1492 1.415 . S
H1494 C1491 0.999 1_556 S
H1495 C1476 0.913 . S
H1496 C1514 0.951 . S
H1497 C1516 0.951 . S
H1498 C1518 0.950 . S
H1499 C1519 0.950 . S
H1500 C1521 0.950 . S
H1501 C1524 0.950 . S
H1502 C1525 0.950 . S
H1503 C1527 0.950 . S
H1504 C1528 0.950 . S
H1505 C1529 0.951 . S
H1506 C1531 0.951 . S
H1507 C1533 0.950 . S
H1508 C1534 0.950 . S
H1509 C1536 0.950 . S
H1510 C1539 0.950 . S
H1511 C1540 0.950 . S
H1512 C1542 0.950 . S
H1513 C1543 0.950 . S
C1514 H1496 0.951 . S
C1514 C1515 1.366 . S
C1514 C1516 1.388 . S
C1515 C1514 1.366 . S
C1515 C1519 1.385 . S
C1516 H1497 0.951 . S
C1516 C1514 1.388 . S
C1516 C1517 1.366 . S
C1517 C1516 1.366 . S
C1517 C1518 1.414 . S
C1517 C1520 1.499 . S
C1518 H1498 0.950 . S
C1518 C1517 1.414 . S
C1518 C1519 1.374 . S
C1519 H1499 0.950 . S
C1519 C1515 1.385 . S
C1519 C1518 1.374 . S
C1520 C1517 1.499 . S
C1520 C1521 1.373 . S
C1520 C1522 1.389 . S
C1521 H1500 0.950 . S
C1521 C1520 1.373 . S
C1521 C1537 1.377 . S
C1522 C1520 1.389 . S
C1522 C1523 1.524 . S
C1522 C1536 1.377 . S
C1523 C1522 1.524 . S
C1523 C1524 1.397 . S
C1523 C1528 1.363 . S
C1524 H1501 0.950 . S
C1524 C1523 1.397 . S
C1524 C1525 1.334 . S
C1525 H1502 0.950 . S
C1525 C1524 1.334 . S
C1525 C1526 1.287 . S
C1526 C1525 1.287 . S
C1526 C1527 1.524 . S
C1526 H1545 0.913 . S
C1527 H1503 0.950 . S
C1527 C1526 1.524 . S
C1527 C1528 1.415 . S
C1528 H1504 0.950 . S
C1528 C1523 1.363 . S
C1528 C1527 1.415 . S
C1529 H1505 0.951 . S
C1529 C1530 1.366 . S
C1529 C1531 1.388 . S
C1530 C1529 1.366 . S
C1530 C1534 1.385 . S
C1531 H1506 0.951 . S
C1531 C1529 1.388 . S
C1531 C1532 1.366 . S
C1532 C1531 1.366 . S
C1532 C1533 1.414 . S
C1532 C1535 1.499 . S
C1533 H1507 0.950 . S
C1533 C1532 1.414 . S
C1533 C1534 1.374 . S
C1534 H1508 0.950 . S
C1534 C1530 1.385 . S
C1534 C1533 1.374 . S
C1535 C1532 1.499 . S
C1535 C1536 1.373 . S
C1535 C1537 1.389 . S
C1536 H1509 0.950 . S
C1536 C1522 1.377 . S
C1536 C1535 1.373 . S
C1537 C1521 1.377 . S
C1537 C1535 1.389 . S
C1537 C1538 1.524 . S
C1538 C1537 1.524 . S
C1538 C1539 1.397 . S
C1538 C1543 1.363 . S
C1539 H1510 0.950 . S
C1539 C1538 1.397 . S
C1539 C1540 1.334 . S
C1540 H1511 0.950 . S
C1540 C1539 1.334 . S
C1540 C1541 1.287 . S
C1541 C1540 1.287 . S
C1541 C1542 1.524 . S
C1541 H1544 0.999 . S
C1542 H1512 0.950 . S
C1542 C1541 1.524 . S
C1542 C1543 1.415 . S
C1543 H1513 0.950 . S
C1543 C1538 1.363 . S
C1543 C1542 1.415 . S
H1544 C1541 0.999 . S
H1545 C1526 0.913 . S
H1546 C1564 0.951 . S
H1547 C1566 0.951 . S
H1548 C1568 0.950 . S
H1549 C1569 0.950 . S
H1550 C1571 0.950 . S
H1551 C1574 0.950 . S
H1552 C1575 0.950 . S
H1553 C1577 0.950 . S
H1554 C1578 0.950 . S
H1555 C1579 0.951 . S
H1556 C1581 0.951 . S
H1557 C1583 0.950 . S
H1558 C1584 0.950 . S
H1559 C1586 0.950 . S
H1560 C1589 0.950 . S
H1561 C1590 0.950 . S
H1562 C1592 0.950 . S
H1563 C1593 0.950 . S
C1564 H1546 0.951 . S
C1564 C1565 1.366 . S
C1564 C1566 1.388 . S
C1565 C1564 1.366 . S
C1565 C1569 1.385 . S
C1566 H1547 0.951 . S
C1566 C1564 1.388 . S
C1566 C1567 1.366 . S
C1567 C1566 1.366 . S
C1567 C1568 1.414 . S
C1567 C1570 1.499 . S
C1568 H1548 0.950 . S
C1568 C1567 1.414 . S
C1568 C1569 1.374 . S
C1569 H1549 0.950 . S
C1569 C1565 1.385 . S
C1569 C1568 1.374 . S
C1570 C1567 1.499 . S
C1570 C1571 1.373 . S
C1570 C1572 1.389 . S
C1571 H1550 0.950 . S
C1571 C1570 1.373 . S
C1571 C1587 1.377 . S
C1572 C1570 1.389 . S
C1572 C1573 1.524 . S
C1572 C1586 1.377 . S
C1573 C1572 1.524 . S
C1573 C1574 1.397 . S
C1573 C1578 1.363 . S
C1574 H1551 0.950 . S
C1574 C1573 1.397 . S
C1574 C1575 1.334 . S
C1575 H1552 0.950 . S
C1575 C1574 1.334 . S
C1575 C1576 1.287 . S
C1576 C1575 1.287 . S
C1576 C1577 1.524 . S
C1576 H1595 0.913 . S
C1577 H1553 0.950 . S
C1577 C1576 1.524 . S
C1577 C1578 1.415 . S
C1578 H1554 0.950 . S
C1578 C1573 1.363 . S
C1578 C1577 1.415 . S
C1579 H1555 0.951 . S
C1579 C1580 1.366 . S
C1579 C1581 1.388 . S
C1580 C1579 1.366 . S
C1580 C1584 1.385 . S
C1581 H1556 0.951 . S
C1581 C1579 1.388 . S
C1581 C1582 1.366 . S
C1582 C1581 1.366 . S
C1582 C1583 1.414 . S
C1582 C1585 1.499 . S
C1583 H1557 0.950 . S
C1583 C1582 1.414 . S
C1583 C1584 1.374 . S
C1584 H1558 0.950 . S
C1584 C1580 1.385 . S
C1584 C1583 1.374 . S
C1585 C1582 1.499 . S
C1585 C1586 1.373 . S
C1585 C1587 1.389 . S
C1586 H1559 0.950 . S
C1586 C1572 1.377 . S
C1586 C1585 1.373 . S
C1587 C1571 1.377 . S
C1587 C1585 1.389 . S
C1587 C1588 1.524 . S
C1588 C1587 1.524 . S
C1588 C1589 1.397 . S
C1588 C1593 1.363 . S
C1589 H1560 0.950 . S
C1589 C1588 1.397 . S
C1589 C1590 1.334 . S
C1590 H1561 0.950 . S
C1590 C1589 1.334 . S
C1590 C1591 1.287 . S
C1591 C1590 1.287 . S
C1591 C1592 1.524 . S
C1591 H1594 0.999 . S
C1592 H1562 0.950 . S
C1592 C1591 1.524 . S
C1592 C1593 1.415 . S
C1593 H1563 0.950 . S
C1593 C1588 1.363 . S
C1593 C1592 1.415 . S
H1594 C1591 0.999 . S
H1595 C1576 0.913 . S
H1596 C1614 0.951 . S
H1597 C1616 0.951 . S
H1598 C1618 0.950 . S
H1599 C1619 0.950 . S
H1600 C1621 0.950 . S
H1601 C1624 0.950 . S
H1602 C1625 0.950 . S
H1603 C1627 0.950 . S
H1604 C1628 0.950 . S
H1605 C1629 0.951 . S
H1606 C1631 0.951 . S
H1607 C1633 0.950 . S
H1608 C1634 0.950 . S
H1609 C1636 0.950 . S
H1610 C1639 0.950 . S
H1611 C1640 0.950 . S
H1612 C1642 0.950 . S
H1613 C1643 0.950 . S
C1614 H1596 0.951 . S
C1614 C1615 1.366 . S
C1614 C1616 1.388 . S
C1615 C1614 1.366 . S
C1615 C1619 1.385 . S
C1616 H1597 0.951 . S
C1616 C1614 1.388 . S
C1616 C1617 1.366 . S
C1617 C1616 1.366 . S
C1617 C1618 1.414 . S
C1617 C1620 1.499 . S
C1618 H1598 0.950 . S
C1618 C1617 1.414 . S
C1618 C1619 1.374 . S
C1619 H1599 0.950 . S
C1619 C1615 1.385 . S
C1619 C1618 1.374 . S
C1620 C1617 1.499 . S
C1620 C1621 1.373 . S
C1620 C1622 1.389 . S
C1621 H1600 0.950 . S
C1621 C1620 1.373 . S
C1621 C1637 1.377 . S
C1622 C1620 1.389 . S
C1622 C1623 1.524 . S
C1622 C1636 1.377 . S
C1623 C1622 1.524 . S
C1623 C1624 1.397 . S
C1623 C1628 1.363 . S
C1624 H1601 0.950 . S
C1624 C1623 1.397 . S
C1624 C1625 1.334 . S
C1625 H1602 0.950 . S
C1625 C1624 1.334 . S
C1625 C1626 1.287 . S
C1626 C1625 1.287 . S
C1626 C1627 1.524 . S
C1626 H1645 0.913 . S
C1627 H1603 0.950 . S
C1627 C1626 1.524 . S
C1627 C1628 1.415 . S
C1628 H1604 0.950 . S
C1628 C1623 1.363 . S
C1628 C1627 1.415 . S
C1629 H1605 0.951 . S
C1629 C1630 1.366 . S
C1629 C1631 1.388 . S
C1630 C1629 1.366 . S
C1630 C1634 1.385 . S
C1631 H1606 0.951 . S
C1631 C1629 1.388 . S
C1631 C1632 1.366 . S
C1632 C1631 1.366 . S
C1632 C1633 1.414 . S
C1632 C1635 1.499 . S
C1633 H1607 0.950 . S
C1633 C1632 1.414 . S
C1633 C1634 1.374 . S
C1634 H1608 0.950 . S
C1634 C1630 1.385 . S
C1634 C1633 1.374 . S
C1635 C1632 1.499 . S
C1635 C1636 1.373 . S
C1635 C1637 1.389 . S
C1636 H1609 0.950 . S
C1636 C1622 1.377 . S
C1636 C1635 1.373 . S
C1637 C1621 1.377 . S
C1637 C1635 1.389 . S
C1637 C1638 1.524 . S
C1638 C1637 1.524 . S
C1638 C1639 1.397 . S
C1638 C1643 1.363 . S
C1639 H1610 0.950 . S
C1639 C1638 1.397 . S
C1639 C1640 1.334 . S
C1640 H1611 0.950 . S
C1640 C1639 1.334 . S
C1640 C1641 1.287 . S
C1641 C1640 1.287 . S
C1641 C1642 1.524 . S
C1641 H1644 0.999 . S
C1642 H1612 0.950 . S
C1642 C1641 1.524 . S
C1642 C1643 1.415 . S
C1643 H1613 0.950 . S
C1643 C1638 1.363 . S
C1643 C1642 1.415 . S
H1644 C1641 0.999 . S
H1645 C1626 0.913 . S
H1646 C1664 0.951 . S
H1647 C1666 0.951 . S
H1648 C1668 0.950 . S
H1649 C1669 0.950 . S
H1650 C1671 0.950 . S
H1651 C1674 0.950 . S
H1652 C1675 0.950 . S
H1653 C1677 0.950 . S
H1654 C1678 0.950 . S
H1655 C1679 0.951 . S
H1656 C1681 0.951 . S
H1657 C1683 0.950 . S
H1658 C1684 0.950 . S
H1659 C1686 0.950 . S
H1660 C1689 0.950 . S
H1661 C1690 0.950 . S
H1662 C1692 0.950 . S
H1663 C1693 0.950 . S
C1664 H1646 0.951 . S
C1664 C1665 1.366 . S
C1664 C1666 1.388 . S
C1665 C1664 1.366 . S
C1665 C1669 1.385 . S
C1666 H1647 0.951 . S
C1666 C1664 1.388 . S
C1666 C1667 1.366 . S
C1667 C1666 1.366 . S
C1667 C1668 1.414 . S
C1667 C1670 1.499 . S
C1668 H1648 0.950 . S
C1668 C1667 1.414 . S
C1668 C1669 1.374 . S
C1669 H1649 0.950 . S
C1669 C1665 1.385 . S
C1669 C1668 1.374 . S
C1670 C1667 1.499 . S
C1670 C1671 1.373 . S
C1670 C1672 1.389 . S
C1671 H1650 0.950 . S
C1671 C1670 1.373 . S
C1671 C1687 1.377 . S
C1672 C1670 1.389 . S
C1672 C1673 1.524 . S
C1672 C1686 1.377 . S
C1673 C1672 1.524 . S
C1673 C1674 1.397 . S
C1673 C1678 1.363 . S
C1674 H1651 0.950 . S
C1674 C1673 1.397 . S
C1674 C1675 1.334 . S
C1675 H1652 0.950 . S
C1675 C1674 1.334 . S
C1675 C1676 1.287 . S
C1676 C1675 1.287 . S
C1676 C1677 1.524 . S
C1676 H1695 0.913 . S
C1677 H1653 0.950 . S
C1677 C1676 1.524 . S
C1677 C1678 1.415 . S
C1678 H1654 0.950 . S
C1678 C1673 1.363 . S
C1678 C1677 1.415 . S
C1679 H1655 0.951 . S
C1679 C1680 1.366 . S
C1679 C1681 1.388 . S
C1680 C1679 1.366 . S
C1680 C1684 1.385 . S
C1681 H1656 0.951 . S
C1681 C1679 1.388 . S
C1681 C1682 1.366 . S
C1682 C1681 1.366 . S
C1682 C1683 1.414 . S
C1682 C1685 1.499 . S
C1683 H1657 0.950 . S
C1683 C1682 1.414 . S
C1683 C1684 1.374 . S
C1684 H1658 0.950 . S
C1684 C1680 1.385 . S
C1684 C1683 1.374 . S
C1685 C1682 1.499 . S
C1685 C1686 1.373 . S
C1685 C1687 1.389 . S
C1686 H1659 0.950 . S
C1686 C1672 1.377 . S
C1686 C1685 1.373 . S
C1687 C1671 1.377 . S
C1687 C1685 1.389 . S
C1687 C1688 1.524 . S
C1688 C1687 1.524 . S
C1688 C1689 1.397 . S
C1688 C1693 1.363 . S
C1689 H1660 0.950 . S
C1689 C1688 1.397 . S
C1689 C1690 1.334 . S
C1690 H1661 0.950 . S
C1690 C1689 1.334 . S
C1690 C1691 1.287 . S
C1691 C1690 1.287 . S
C1691 C1692 1.524 . S
C1691 H1694 0.999 . S
C1692 H1662 0.950 . S
C1692 C1691 1.524 . S
C1692 C1693 1.415 . S
C1693 H1663 0.950 . S
C1693 C1688 1.363 . S
C1693 C1692 1.415 . S
H1694 C1691 0.999 . S
H1695 C1676 0.913 . S
H1696 C1714 0.951 . S
H1697 C1716 0.951 . S
H1698 C1718 0.950 . S
H1699 C1719 0.950 . S
H1700 C1721 0.950 . S
H1701 C1724 0.950 . S
H1702 C1725 0.950 . S
H1703 C1727 0.950 . S
H1704 C1728 0.950 . S
H1705 C1729 0.951 . S
H1706 C1731 0.951 . S
H1707 C1733 0.950 . S
H1708 C1734 0.950 . S
H1709 C1736 0.950 . S
H1710 C1739 0.950 . S
H1711 C1740 0.950 . S
H1712 C1742 0.950 . S
H1713 C1743 0.950 . S
C1714 H1696 0.951 . S
C1714 C1715 1.366 . S
C1714 C1716 1.388 . S
C1715 C1714 1.366 . S
C1715 C1719 1.385 . S
C1716 H1697 0.951 . S
C1716 C1714 1.388 . S
C1716 C1717 1.366 . S
C1717 C1716 1.366 . S
C1717 C1718 1.414 . S
C1717 C1720 1.499 . S
C1718 H1698 0.950 . S
C1718 C1717 1.414 . S
C1718 C1719 1.374 . S
C1719 H1699 0.950 . S
C1719 C1715 1.385 . S
C1719 C1718 1.374 . S
C1720 C1717 1.499 . S
C1720 C1721 1.373 . S
C1720 C1722 1.389 . S
C1721 H1700 0.950 . S
C1721 C1720 1.373 . S
C1721 C1737 1.377 . S
C1722 C1720 1.389 . S
C1722 C1723 1.524 . S
C1722 C1736 1.377 . S
C1723 C1722 1.524 . S
C1723 C1724 1.397 . S
C1723 C1728 1.363 . S
C1724 H1701 0.950 . S
C1724 C1723 1.397 . S
C1724 C1725 1.334 . S
C1725 H1702 0.950 . S
C1725 C1724 1.334 . S
C1725 C1726 1.287 . S
C1726 C1725 1.287 . S
C1726 C1727 1.524 . S
C1726 H1745 0.913 . S
C1727 H1703 0.950 . S
C1727 C1726 1.524 . S
C1727 C1728 1.415 . S
C1728 H1704 0.950 . S
C1728 C1723 1.363 . S
C1728 C1727 1.415 . S
C1729 H1705 0.951 . S
C1729 C1730 1.366 . S
C1729 C1731 1.388 . S
C1730 C1729 1.366 . S
C1730 C1734 1.385 . S
C1731 H1706 0.951 . S
C1731 C1729 1.388 . S
C1731 C1732 1.366 . S
C1732 C1731 1.366 . S
C1732 C1733 1.414 . S
C1732 C1735 1.499 . S
C1733 H1707 0.950 . S
C1733 C1732 1.414 . S
C1733 C1734 1.374 . S
C1734 H1708 0.950 . S
C1734 C1730 1.385 . S
C1734 C1733 1.374 . S
C1735 C1732 1.499 . S
C1735 C1736 1.373 . S
C1735 C1737 1.389 . S
C1736 H1709 0.950 . S
C1736 C1722 1.377 . S
C1736 C1735 1.373 . S
C1737 C1721 1.377 . S
C1737 C1735 1.389 . S
C1737 C1738 1.524 . S
C1738 C1737 1.524 . S
C1738 C1739 1.397 . S
C1738 C1743 1.363 . S
C1739 H1710 0.950 . S
C1739 C1738 1.397 . S
C1739 C1740 1.334 . S
C1740 H1711 0.950 . S
C1740 C1739 1.334 . S
C1740 C1741 1.287 . S
C1741 C1740 1.287 . S
C1741 C1742 1.524 . S
C1741 H1744 0.999 . S
C1742 H1712 0.950 . S
C1742 C1741 1.524 . S
C1742 C1743 1.415 . S
C1743 H1713 0.950 . S
C1743 C1738 1.363 . S
C1743 C1742 1.415 . S
H1744 C1741 0.999 . S
H1745 C1726 0.913 . S
H1746 C1764 0.951 . S
H1747 C1766 0.951 . S
H1748 C1768 0.950 . S
H1749 C1769 0.950 . S
H1750 C1771 0.950 . S
H1751 C1774 0.950 . S
H1752 C1775 0.950 . S
H1753 C1777 0.950 . S
H1754 C1778 0.950 . S
H1755 C1779 0.951 . S
H1756 C1781 0.951 . S
H1757 C1783 0.950 . S
H1758 C1784 0.950 . S
H1759 C1786 0.950 . S
H1760 C1789 0.950 . S
H1761 C1790 0.950 . S
H1762 C1792 0.950 . S
H1763 C1793 0.950 . S
C1764 H1746 0.951 . S
C1764 C1765 1.366 . S
C1764 C1766 1.388 . S
C1765 C1764 1.366 . S
C1765 C1769 1.385 . S
C1766 H1747 0.951 . S
C1766 C1764 1.388 . S
C1766 C1767 1.366 . S
C1767 C1766 1.366 . S
C1767 C1768 1.414 . S
C1767 C1770 1.499 . S
C1768 H1748 0.950 . S
C1768 C1767 1.414 . S
C1768 C1769 1.374 . S
C1769 H1749 0.950 . S
C1769 C1765 1.385 . S
C1769 C1768 1.374 . S
C1770 C1767 1.499 . S
C1770 C1771 1.373 . S
C1770 C1772 1.389 . S
C1771 H1750 0.950 . S
C1771 C1770 1.373 . S
C1771 C1787 1.377 . S
C1772 C1770 1.389 . S
C1772 C1773 1.524 . S
C1772 C1786 1.377 . S
C1773 C1772 1.524 . S
C1773 C1774 1.397 . S
C1773 C1778 1.363 . S
C1774 H1751 0.950 . S
C1774 C1773 1.397 . S
C1774 C1775 1.334 . S
C1775 H1752 0.950 . S
C1775 C1774 1.334 . S
C1775 C1776 1.287 . S
C1776 C1775 1.287 . S
C1776 C1777 1.524 . S
C1776 H1795 0.913 . S
C1777 H1753 0.950 . S
C1777 C1776 1.524 . S
C1777 C1778 1.415 . S
C1778 H1754 0.950 . S
C1778 C1773 1.363 . S
C1778 C1777 1.415 . S
C1779 H1755 0.951 . S
C1779 C1780 1.366 . S
C1779 C1781 1.388 . S
C1780 C1779 1.366 . S
C1780 C1784 1.385 . S
C1781 H1756 0.951 . S
C1781 C1779 1.388 . S
C1781 C1782 1.366 . S
C1782 C1781 1.366 . S
C1782 C1783 1.414 . S
C1782 C1785 1.499 . S
C1783 H1757 0.950 . S
C1783 C1782 1.414 . S
C1783 C1784 1.374 . S
C1784 H1758 0.950 . S
C1784 C1780 1.385 . S
C1784 C1783 1.374 . S
C1785 C1782 1.499 . S
C1785 C1786 1.373 . S
C1785 C1787 1.389 . S
C1786 H1759 0.950 . S
C1786 C1772 1.377 . S
C1786 C1785 1.373 . S
C1787 C1771 1.377 . S
C1787 C1785 1.389 . S
C1787 C1788 1.524 . S
C1788 C1787 1.524 . S
C1788 C1789 1.397 . S
C1788 C1793 1.363 . S
C1789 H1760 0.950 . S
C1789 C1788 1.397 . S
C1789 C1790 1.334 . S
C1790 H1761 0.950 . S
C1790 C1789 1.334 . S
C1790 C1791 1.287 . S
C1791 C1790 1.287 . S
C1791 C1792 1.524 . S
C1791 H1794 0.999 . S
C1792 H1762 0.950 . S
C1792 C1791 1.524 . S
C1792 C1793 1.415 . S
C1793 H1763 0.950 . S
C1793 C1788 1.363 . S
C1793 C1792 1.415 . S
H1794 C1791 0.999 . S
H1795 C1776 0.913 . S
H1796 C1814 0.951 . S
H1797 C1816 0.951 . S
H1798 C1818 0.950 . S
H1799 C1819 0.950 . S
H1800 C1821 0.950 . S
H1801 C1824 0.950 . S
H1802 C1825 0.950 . S
H1803 C1827 0.950 . S
H1804 C1828 0.950 . S
H1805 C1829 0.951 . S
H1806 C1831 0.951 . S
H1807 C1833 0.950 . S
H1808 C1834 0.950 . S
H1809 C1836 0.950 . S
H1810 C1839 0.950 . S
H1811 C1840 0.950 . S
H1812 C1842 0.950 . S
H1813 C1843 0.950 . S
C1814 H1796 0.951 . S
C1814 C1815 1.366 . S
C1814 C1816 1.388 . S
C1815 C1814 1.366 . S
C1815 C1819 1.385 . S
C1816 H1797 0.951 . S
C1816 C1814 1.388 . S
C1816 C1817 1.366 . S
C1817 C1816 1.366 . S
C1817 C1818 1.414 . S
C1817 C1820 1.499 . S
C1818 H1798 0.950 . S
C1818 C1817 1.414 . S
C1818 C1819 1.374 . S
C1819 H1799 0.950 . S
C1819 C1815 1.385 . S
C1819 C1818 1.374 . S
C1820 C1817 1.499 . S
C1820 C1821 1.373 . S
C1820 C1822 1.389 . S
C1821 H1800 0.950 . S
C1821 C1820 1.373 . S
C1821 C1837 1.377 . S
C1822 C1820 1.389 . S
C1822 C1823 1.524 . S
C1822 C1836 1.377 . S
C1823 C1822 1.524 . S
C1823 C1824 1.397 . S
C1823 C1828 1.363 . S
C1824 H1801 0.950 . S
C1824 C1823 1.397 . S
C1824 C1825 1.334 . S
C1825 H1802 0.950 . S
C1825 C1824 1.334 . S
C1825 C1826 1.287 . S
C1826 C1825 1.287 . S
C1826 C1827 1.524 . S
C1826 H1845 0.913 . S
C1827 H1803 0.950 . S
C1827 C1826 1.524 . S
C1827 C1828 1.415 . S
C1828 H1804 0.950 . S
C1828 C1823 1.363 . S
C1828 C1827 1.415 . S
C1829 H1805 0.951 . S
C1829 C1830 1.366 . S
C1829 C1831 1.388 . S
C1830 C1829 1.366 . S
C1830 C1834 1.385 . S
C1831 H1806 0.951 . S
C1831 C1829 1.388 . S
C1831 C1832 1.366 . S
C1832 C1831 1.366 . S
C1832 C1833 1.414 . S
C1832 C1835 1.499 . S
C1833 H1807 0.950 . S
C1833 C1832 1.414 . S
C1833 C1834 1.374 . S
C1834 H1808 0.950 . S
C1834 C1830 1.385 . S
C1834 C1833 1.374 . S
C1835 C1832 1.499 . S
C1835 C1836 1.373 . S
C1835 C1837 1.389 . S
C1836 H1809 0.950 . S
C1836 C1822 1.377 . S
C1836 C1835 1.373 . S
C1837 C1821 1.377 . S
C1837 C1835 1.389 . S
C1837 C1838 1.524 . S
C1838 C1837 1.524 . S
C1838 C1839 1.397 . S
C1838 C1843 1.363 . S
C1839 H1810 0.950 . S
C1839 C1838 1.397 . S
C1839 C1840 1.334 . S
C1840 H1811 0.950 . S
C1840 C1839 1.334 . S
C1840 C1841 1.287 . S
C1841 C1840 1.287 . S
C1841 C1842 1.524 . S
C1841 H1844 0.999 . S
C1842 H1812 0.950 . S
C1842 C1841 1.524 . S
C1842 C1843 1.415 . S
C1843 H1813 0.950 . S
C1843 C1838 1.363 . S
C1843 C1842 1.415 . S
H1844 C1841 0.999 . S
H1845 C1826 0.913 . S
H1846 C1864 0.951 . S
H1847 C1866 0.951 . S
H1848 C1868 0.950 . S
H1849 C1869 0.950 . S
H1850 C1871 0.950 . S
H1851 C1874 0.950 . S
H1852 C1875 0.950 . S
H1853 C1877 0.950 . S
H1854 C1878 0.950 . S
H1855 C1879 0.951 . S
H1856 C1881 0.951 . S
H1857 C1883 0.950 . S
H1858 C1884 0.950 . S
H1859 C1886 0.950 . S
H1860 C1889 0.950 . S
H1861 C1890 0.950 . S
H1862 C1892 0.950 . S
H1863 C1893 0.950 . S
C1864 H1846 0.951 . S
C1864 C1865 1.366 . S
C1864 C1866 1.388 . S
C1865 C1864 1.366 . S
C1865 C1869 1.385 . S
C1866 H1847 0.951 . S
C1866 C1864 1.388 . S
C1866 C1867 1.366 . S
C1867 C1866 1.366 . S
C1867 C1868 1.414 . S
C1867 C1870 1.499 . S
C1868 H1848 0.950 . S
C1868 C1867 1.414 . S
C1868 C1869 1.374 . S
C1869 H1849 0.950 . S
C1869 C1865 1.385 . S
C1869 C1868 1.374 . S
C1870 C1867 1.499 . S
C1870 C1871 1.373 . S
C1870 C1872 1.389 . S
C1871 H1850 0.950 . S
C1871 C1870 1.373 . S
C1871 C1887 1.377 . S
C1872 C1870 1.389 . S
C1872 C1873 1.524 . S
C1872 C1886 1.377 . S
C1873 C1872 1.524 . S
C1873 C1874 1.397 . S
C1873 C1878 1.363 . S
C1874 H1851 0.950 . S
C1874 C1873 1.397 . S
C1874 C1875 1.334 . S
C1875 H1852 0.950 . S
C1875 C1874 1.334 . S
C1875 C1876 1.287 . S
C1876 C1875 1.287 . S
C1876 C1877 1.524 . S
C1876 H1895 0.913 . S
C1877 H1853 0.950 . S
C1877 C1876 1.524 . S
C1877 C1878 1.415 . S
C1878 H1854 0.950 . S
C1878 C1873 1.363 . S
C1878 C1877 1.415 . S
C1879 H1855 0.951 . S
C1879 C1880 1.366 . S
C1879 C1881 1.388 . S
C1880 C1879 1.366 . S
C1880 C1884 1.385 . S
C1881 H1856 0.951 . S
C1881 C1879 1.388 . S
C1881 C1882 1.366 . S
C1882 C1881 1.366 . S
C1882 C1883 1.414 . S
C1882 C1885 1.499 . S
C1883 H1857 0.950 . S
C1883 C1882 1.414 . S
C1883 C1884 1.374 . S
C1884 H1858 0.950 . S
C1884 C1880 1.385 . S
C1884 C1883 1.374 . S
C1885 C1882 1.499 . S
C1885 C1886 1.373 . S
C1885 C1887 1.389 . S
C1886 H1859 0.950 . S
C1886 C1872 1.377 . S
C1886 C1885 1.373 . S
C1887 C1871 1.377 . S
C1887 C1885 1.389 . S
C1887 C1888 1.524 . S
C1888 C1887 1.524 . S
C1888 C1889 1.397 . S
C1888 C1893 1.363 . S
C1889 H1860 0.950 . S
C1889 C1888 1.397 . S
C1889 C1890 1.334 . S
C1890 H1861 0.950 . S
C1890 C1889 1.334 . S
C1890 C1891 1.287 . S
C1891 C1890 1.287 . S
C1891 C1892 1.524 . S
C1891 H1894 0.999 . S
C1892 H1862 0.950 . S
C1892 C1891 1.524 . S
C1892 C1893 1.415 . S
C1893 H1863 0.950 . S
C1893 C1888 1.363 . S
C1893 C1892 1.415 . S
H1894 C1891 0.999 . S
H1895 C1876 0.913 . S
H1896 C1914 0.951 . S
H1897 C1916 0.951 . S
H1898 C1918 0.950 . S
H1899 C1919 0.950 . S
H1900 C1921 0.950 . S
H1901 C1924 0.950 . S
H1902 C1925 0.950 . S
H1903 C1927 0.950 . S
H1904 C1928 0.950 . S
H1905 C1929 0.951 . S
H1906 C1931 0.951 . S
H1907 C1933 0.950 . S
H1908 C1934 0.950 . S
H1909 C1936 0.950 . S
H1910 C1939 0.950 . S
H1911 C1940 0.950 . S
H1912 C1942 0.950 . S
H1913 C1943 0.950 . S
C1914 H1896 0.951 . S
C1914 C1915 1.366 . S
C1914 C1916 1.388 . S
C1915 C1914 1.366 . S
C1915 C1919 1.385 . S
C1916 H1897 0.951 . S
C1916 C1914 1.388 . S
C1916 C1917 1.366 . S
C1917 C1916 1.366 . S
C1917 C1918 1.414 . S
C1917 C1920 1.499 . S
C1918 H1898 0.950 . S
C1918 C1917 1.414 . S
C1918 C1919 1.374 . S
C1919 H1899 0.950 . S
C1919 C1915 1.385 . S
C1919 C1918 1.374 . S
C1920 C1917 1.499 . S
C1920 C1921 1.373 . S
C1920 C1922 1.389 . S
C1921 H1900 0.950 . S
C1921 C1920 1.373 . S
C1921 C1937 1.377 . S
C1922 C1920 1.389 . S
C1922 C1923 1.524 . S
C1922 C1936 1.377 . S
C1923 C1922 1.524 . S
C1923 C1924 1.397 . S
C1923 C1928 1.363 . S
C1924 H1901 0.950 . S
C1924 C1923 1.397 . S
C1924 C1925 1.334 . S
C1925 H1902 0.950 . S
C1925 C1924 1.334 . S
C1925 C1926 1.287 . S
C1926 C1925 1.287 . S
C1926 C1927 1.524 . S
C1926 H1945 0.913 . S
C1927 H1903 0.950 . S
C1927 C1926 1.524 . S
C1927 C1928 1.415 . S
C1928 H1904 0.950 . S
C1928 C1923 1.363 . S
C1928 C1927 1.415 . S
C1929 H1905 0.951 . S
C1929 C1930 1.366 . S
C1929 C1931 1.388 . S
C1930 C1929 1.366 . S
C1930 C1934 1.385 . S
C1931 H1906 0.951 . S
C1931 C1929 1.388 . S
C1931 C1932 1.366 . S
C1932 C1931 1.366 . S
C1932 C1933 1.414 . S
C1932 C1935 1.499 . S
C1933 H1907 0.950 . S
C1933 C1932 1.414 . S
C1933 C1934 1.374 . S
C1934 H1908 0.950 . S
C1934 C1930 1.385 . S
C1934 C1933 1.374 . S
C1935 C1932 1.499 . S
C1935 C1936 1.373 . S
C1935 C1937 1.389 . S
C1936 H1909 0.950 . S
C1936 C1922 1.377 . S
C1936 C1935 1.373 . S
C1937 C1921 1.377 . S
C1937 C1935 1.389 . S
C1937 C1938 1.524 . S
C1938 C1937 1.524 . S
C1938 C1939 1.397 . S
C1938 C1943 1.363 . S
C1939 H1910 0.950 . S
C1939 C1938 1.397 . S
C1939 C1940 1.334 . S
C1940 H1911 0.950 . S
C1940 C1939 1.334 . S
C1940 C1941 1.287 . S
C1941 C1940 1.287 . S
C1941 C1942 1.524 . S
C1941 H1944 0.999 . S
C1942 H1912 0.950 . S
C1942 C1941 1.524 . S
C1942 C1943 1.415 . S
C1943 H1913 0.950 . S
C1943 C1938 1.363 . S
C1943 C1942 1.415 . S
H1944 C1941 0.999 . S
H1945 C1926 0.913 . S
H1946 C1964 0.951 . S
H1947 C1966 0.951 . S
H1948 C1968 0.950 . S
H1949 C1969 0.950 . S
H1950 C1971 0.950 . S
H1951 C1974 0.950 . S
H1952 C1975 0.950 . S
H1953 C1977 0.950 . S
H1954 C1978 0.950 . S
H1955 C1979 0.951 . S
H1956 C1981 0.951 . S
H1957 C1983 0.950 . S
H1958 C1984 0.950 . S
H1959 C1986 0.950 . S
H1960 C1989 0.950 . S
H1961 C1990 0.950 . S
H1962 C1992 0.950 . S
H1963 C1993 0.950 . S
C1964 H1946 0.951 . S
C1964 C1965 1.366 . S
C1964 C1966 1.388 . S
C1965 C1964 1.366 . S
C1965 C1969 1.385 . S
C1966 H1947 0.951 . S
C1966 C1964 1.388 . S
C1966 C1967 1.366 . S
C1967 C1966 1.366 . S
C1967 C1968 1.414 . S
C1967 C1970 1.499 . S
C1968 H1948 0.950 . S
C1968 C1967 1.414 . S
C1968 C1969 1.374 . S
C1969 H1949 0.950 . S
C1969 C1965 1.385 . S
C1969 C1968 1.374 . S
C1970 C1967 1.499 . S
C1970 C1971 1.373 . S
C1970 C1972 1.389 . S
C1971 H1950 0.950 . S
C1971 C1970 1.373 . S
C1971 C1987 1.377 . S
C1972 C1970 1.389 . S
C1972 C1973 1.524 . S
C1972 C1986 1.377 . S
C1973 C1972 1.524 . S
C1973 C1974 1.397 . S
C1973 C1978 1.363 . S
C1974 H1951 0.950 . S
C1974 C1973 1.397 . S
C1974 C1975 1.334 . S
C1975 H1952 0.950 . S
C1975 C1974 1.334 . S
C1975 C1976 1.287 . S
C1976 C1975 1.287 . S
C1976 C1977 1.524 . S
C1976 H1995 0.913 . S
C1977 H1953 0.950 . S
C1977 C1976 1.524 . S
C1977 C1978 1.415 . S
C1978 H1954 0.950 . S
C1978 C1973 1.363 . S
C1978 C1977 1.415 . S
C1979 H1955 0.951 . S
C1979 C1980 1.366 . S
C1979 C1981 1.388 . S
C1980 C1979 1.366 . S
C1980 C1984 1.385 . S
C1981 H1956 0.951 . S
C1981 C1979 1.388 . S
C1981 C1982 1.366 . S
C1982 C1981 1.366 . S
C1982 C1983 1.414 . S
C1982 C1985 1.499 . S
C1983 H1957 0.950 . S
C1983 C1982 1.414 . S
C1983 C1984 1.374 . S
C1984 H1958 0.950 . S
C1984 C1980 1.385 . S
C1984 C1983 1.374 . S
C1985 C1982 1.499 . S
C1985 C1986 1.373 . S
C1985 C1987 1.389 . S
C1986 H1959 0.950 . S
C1986 C1972 1.377 . S
C1986 C1985 1.373 . S
C1987 C1971 1.377 . S
C1987 C1985 1.389 . S
C1987 C1988 1.524 . S
C1988 C1987 1.524 . S
C1988 C1989 1.397 . S
C1988 C1993 1.363 . S
C1989 H1960 0.950 . S
C1989 C1988 1.397 . S
C1989 C1990 1.334 . S
C1990 H1961 0.950 . S
C1990 C1989 1.334 . S
C1990 C1991 1.287 . S
C1991 C1990 1.287 . S
C1991 C1992 1.524 . S
C1991 H1994 0.999 . S
C1992 H1962 0.950 . S
C1992 C1991 1.524 . S
C1992 C1993 1.415 . S
C1993 H1963 0.950 . S
C1993 C1988 1.363 . S
C1993 C1992 1.415 . S
H1994 C1991 0.999 . S
H1995 C1976 0.913 . S
H1996 C2014 0.951 . S
H1997 C2016 0.951 . S
H1998 C2018 0.950 . S
H1999 C2019 0.950 . S
H2000 C2021 0.950 . S
H2001 C2024 0.950 . S
H2002 C2025 0.950 . S
H2003 C2027 0.950 . S
H2004 C2028 0.950 . S
H2005 C2029 0.951 . S
H2006 C2031 0.951 . S
H2007 C2033 0.950 . S
H2008 C2034 0.950 . S
H2009 C2036 0.950 . S
H2010 C2039 0.950 . S
H2011 C2040 0.950 . S
H2012 C2042 0.950 . S
H2013 C2043 0.950 . S
C2014 H1996 0.951 . S
C2014 C2015 1.366 . S
C2014 C2016 1.388 . S
C2015 C2014 1.366 . S
C2015 C2019 1.385 . S
C2016 H1997 0.951 . S
C2016 C2014 1.388 . S
C2016 C2017 1.366 . S
C2017 C2016 1.366 . S
C2017 C2018 1.414 . S
C2017 C2020 1.499 . S
C2018 H1998 0.950 . S
C2018 C2017 1.414 . S
C2018 C2019 1.374 . S
C2019 H1999 0.950 . S
C2019 C2015 1.385 . S
C2019 C2018 1.374 . S
C2020 C2017 1.499 . S
C2020 C2021 1.373 . S
C2020 C2022 1.389 . S
C2021 H2000 0.950 . S
C2021 C2020 1.373 . S
C2021 C2037 1.377 . S
C2022 C2020 1.389 . S
C2022 C2023 1.524 . S
C2022 C2036 1.377 . S
C2023 C2022 1.524 . S
C2023 C2024 1.397 . S
C2023 C2028 1.363 . S
C2024 H2001 0.950 . S
C2024 C2023 1.397 . S
C2024 C2025 1.334 . S
C2025 H2002 0.950 . S
C2025 C2024 1.334 . S
C2025 C2026 1.287 . S
C2026 C2025 1.287 . S
C2026 C2027 1.524 . S
C2026 H2045 0.913 . S
C2027 H2003 0.950 . S
C2027 C2026 1.524 . S
C2027 C2028 1.415 . S
C2028 H2004 0.950 . S
C2028 C2023 1.363 . S
C2028 C2027 1.415 . S
C2029 H2005 0.951 . S
C2029 C2030 1.366 . S
C2029 C2031 1.388 . S
C2030 C2029 1.366 . S
C2030 C2034 1.385 . S
C2031 H2006 0.951 . S
C2031 C2029 1.388 . S
C2031 C2032 1.366 . S
C2032 C2031 1.366 . S
C2032 C2033 1.414 . S
C2032 C2035 1.499 . S
C2033 H2007 0.950 . S
C2033 C2032 1.414 . S
C2033 C2034 1.374 . S
C2034 H2008 0.950 . S
C2034 C2030 1.385 . S
C2034 C2033 1.374 . S
C2035 C2032 1.499 . S
C2035 C2036 1.373 . S
C2035 C2037 1.389 . S
C2036 H2009 0.950 . S
C2036 C2022 1.377 . S
C2036 C2035 1.373 . S
C2037 C2021 1.377 . S
C2037 C2035 1.389 . S
C2037 C2038 1.524 . S
C2038 C2037 1.524 . S
C2038 C2039 1.397 . S
C2038 C2043 1.363 . S
C2039 H2010 0.950 . S
C2039 C2038 1.397 . S
C2039 C2040 1.334 . S
C2040 H2011 0.950 . S
C2040 C2039 1.334 . S
C2040 C2041 1.287 . S
C2041 C2040 1.287 . S
C2041 C2042 1.524 . S
C2041 H2044 0.999 . S
C2042 H2012 0.950 . S
C2042 C2041 1.524 . S
C2042 C2043 1.415 . S
C2043 H2013 0.950 . S
C2043 C2038 1.363 . S
C2043 C2042 1.415 . S
H2044 C2041 0.999 . S
H2045 C2026 0.913 . S
H2046 C2064 0.951 . S
H2047 C2066 0.951 . S
H2048 C2068 0.950 . S
H2049 C2069 0.950 . S
H2050 C2071 0.950 . S
H2051 C2074 0.950 . S
H2052 C2075 0.950 . S
H2053 C2077 0.950 . S
H2054 C2078 0.950 . S
H2055 C2079 0.951 . S
H2056 C2081 0.951 . S
H2057 C2083 0.950 . S
H2058 C2084 0.950 . S
H2059 C2086 0.950 . S
H2060 C2089 0.950 . S
H2061 C2090 0.950 . S
H2062 C2092 0.950 . S
H2063 C2093 0.950 . S
C2064 H2046 0.951 . S
C2064 C2065 1.366 . S
C2064 C2066 1.388 . S
C2065 C2064 1.366 . S
C2065 C2069 1.385 . S
C2066 H2047 0.951 . S
C2066 C2064 1.388 . S
C2066 C2067 1.366 . S
C2067 C2066 1.366 . S
C2067 C2068 1.414 . S
C2067 C2070 1.499 . S
C2068 H2048 0.950 . S
C2068 C2067 1.414 . S
C2068 C2069 1.374 . S
C2069 H2049 0.950 . S
C2069 C2065 1.385 . S
C2069 C2068 1.374 . S
C2070 C2067 1.499 . S
C2070 C2071 1.373 . S
C2070 C2072 1.389 . S
C2071 H2050 0.950 . S
C2071 C2070 1.373 . S
C2071 C2087 1.377 . S
C2072 C2070 1.389 . S
C2072 C2073 1.524 . S
C2072 C2086 1.377 . S
C2073 C2072 1.524 . S
C2073 C2074 1.397 . S
C2073 C2078 1.363 . S
C2074 H2051 0.950 . S
C2074 C2073 1.397 . S
C2074 C2075 1.334 . S
C2075 H2052 0.950 . S
C2075 C2074 1.334 . S
C2075 C2076 1.287 . S
C2076 C2075 1.287 . S
C2076 C2077 1.524 . S
C2076 H2095 0.913 . S
C2077 H2053 0.950 . S
C2077 C2076 1.524 . S
C2077 C2078 1.415 . S
C2078 H2054 0.950 . S
C2078 C2073 1.363 . S
C2078 C2077 1.415 . S
C2079 H2055 0.951 . S
C2079 C2080 1.366 . S
C2079 C2081 1.388 . S
C2080 C2079 1.366 . S
C2080 C2084 1.385 . S
C2081 H2056 0.951 . S
C2081 C2079 1.388 . S
C2081 C2082 1.366 . S
C2082 C2081 1.366 . S
C2082 C2083 1.414 . S
C2082 C2085 1.499 . S
C2083 H2057 0.950 . S
C2083 C2082 1.414 . S
C2083 C2084 1.374 . S
C2084 H2058 0.950 . S
C2084 C2080 1.385 . S
C2084 C2083 1.374 . S
C2085 C2082 1.499 . S
C2085 C2086 1.373 . S
C2085 C2087 1.389 . S
C2086 H2059 0.950 . S
C2086 C2072 1.377 . S
C2086 C2085 1.373 . S
C2087 C2071 1.377 . S
C2087 C2085 1.389 . S
C2087 C2088 1.524 . S
C2088 C2087 1.524 . S
C2088 C2089 1.397 . S
C2088 C2093 1.363 . S
C2089 H2060 0.950 . S
C2089 C2088 1.397 . S
C2089 C2090 1.334 . S
C2090 H2061 0.950 . S
C2090 C2089 1.334 . S
C2090 C2091 1.287 . S
C2091 C2090 1.287 . S
C2091 C2092 1.524 . S
C2091 H2094 0.999 . S
C2092 H2062 0.950 . S
C2092 C2091 1.524 . S
C2092 C2093 1.415 . S
C2093 H2063 0.950 . S
C2093 C2088 1.363 . S
C2093 C2092 1.415 . S
H2094 C2091 0.999 . S
H2095 C2076 0.913 . S
H2096 C2114 0.951 . S
H2097 C2116 0.951 . S
H2098 C2118 0.950 . S
H2099 C2119 0.950 . S
H2100 C2121 0.950 . S
H2101 C2124 0.950 . S
H2102 C2125 0.950 . S
H2103 C2127 0.950 . S
H2104 C2128 0.950 . S
H2105 C2129 0.951 . S
H2106 C2131 0.951 . S
H2107 C2133 0.950 . S
H2108 C2134 0.950 . S
H2109 C2136 0.950 . S
H2110 C2139 0.950 . S
H2111 C2140 0.950 . S
H2112 C2142 0.950 . S
H2113 C2143 0.950 . S
C2114 H2096 0.951 . S
C2114 C2115 1.366 . S
C2114 C2116 1.388 . S
C2115 C2114 1.366 . S
C2115 C2119 1.385 . S
C2116 H2097 0.951 . S
C2116 C2114 1.388 . S
C2116 C2117 1.366 . S
C2117 C2116 1.366 . S
C2117 C2118 1.414 . S
C2117 C2120 1.499 . S
C2118 H2098 0.950 . S
C2118 C2117 1.414 . S
C2118 C2119 1.374 . S
C2119 H2099 0.950 . S
C2119 C2115 1.385 . S
C2119 C2118 1.374 . S
C2120 C2117 1.499 . S
C2120 C2121 1.373 . S
C2120 C2122 1.389 . S
C2121 H2100 0.950 . S
C2121 C2120 1.373 . S
C2121 C2137 1.377 . S
C2122 C2120 1.389 . S
C2122 C2123 1.524 . S
C2122 C2136 1.377 . S
C2123 C2122 1.524 . S
C2123 C2124 1.397 . S
C2123 C2128 1.363 . S
C2124 H2101 0.950 . S
C2124 C2123 1.397 . S
C2124 C2125 1.334 . S
C2125 H2102 0.950 . S
C2125 C2124 1.334 . S
C2125 C2126 1.287 . S
C2126 C2125 1.287 . S
C2126 C2127 1.524 . S
C2126 H2145 0.913 . S
C2127 H2103 0.950 . S
C2127 C2126 1.524 . S
C2127 C2128 1.415 . S
C2128 H2104 0.950 . S
C2128 C2123 1.363 . S
C2128 C2127 1.415 . S
C2129 H2105 0.951 . S
C2129 C2130 1.366 . S
C2129 C2131 1.388 . S
C2130 C2129 1.366 . S
C2130 C2134 1.385 . S
C2131 H2106 0.951 . S
C2131 C2129 1.388 . S
C2131 C2132 1.366 . S
C2132 C2131 1.366 . S
C2132 C2133 1.414 . S
C2132 C2135 1.499 . S
C2133 H2107 0.950 . S
C2133 C2132 1.414 . S
C2133 C2134 1.374 . S
C2134 H2108 0.950 . S
C2134 C2130 1.385 . S
C2134 C2133 1.374 . S
C2135 C2132 1.499 . S
C2135 C2136 1.373 . S
C2135 C2137 1.389 . S
C2136 H2109 0.950 . S
C2136 C2122 1.377 . S
C2136 C2135 1.373 . S
C2137 C2121 1.377 . S
C2137 C2135 1.389 . S
C2137 C2138 1.524 . S
C2138 C2137 1.524 . S
C2138 C2139 1.397 . S
C2138 C2143 1.363 . S
C2139 H2110 0.950 . S
C2139 C2138 1.397 . S
C2139 C2140 1.334 . S
C2140 H2111 0.950 . S
C2140 C2139 1.334 . S
C2140 C2141 1.287 . S
C2141 C2140 1.287 . S
C2141 C2142 1.524 . S
C2141 H2144 0.999 . S
C2142 H2112 0.950 . S
C2142 C2141 1.524 . S
C2142 C2143 1.415 . S
C2143 H2113 0.950 . S
C2143 C2138 1.363 . S
C2143 C2142 1.415 . S
H2144 C2141 0.999 . S
H2145 C2126 0.913 . S
H2146 C2164 0.951 . S
H2147 C2166 0.951 . S
H2148 C2168 0.950 . S
H2149 C2169 0.950 . S
H2150 C2171 0.950 . S
H2151 C2174 0.950 . S
H2152 C2175 0.950 . S
H2153 C2177 0.950 . S
H2154 C2178 0.950 . S
H2155 C2179 0.951 . S
H2156 C2181 0.951 . S
H2157 C2183 0.950 . S
H2158 C2184 0.950 . S
H2159 C2186 0.950 . S
H2160 C2189 0.950 . S
H2161 C2190 0.950 . S
H2162 C2192 0.950 . S
H2163 C2193 0.950 . S
C2164 H2146 0.951 . S
C2164 C2165 1.366 . S
C2164 C2166 1.388 . S
C2165 C2164 1.366 . S
C2165 C2169 1.385 . S
C2166 H2147 0.951 . S
C2166 C2164 1.388 . S
C2166 C2167 1.366 . S
C2167 C2166 1.366 . S
C2167 C2168 1.414 . S
C2167 C2170 1.499 . S
C2168 H2148 0.950 . S
C2168 C2167 1.414 . S
C2168 C2169 1.374 . S
C2169 H2149 0.950 . S
C2169 C2165 1.385 . S
C2169 C2168 1.374 . S
C2170 C2167 1.499 . S
C2170 C2171 1.373 . S
C2170 C2172 1.389 . S
C2171 H2150 0.950 . S
C2171 C2170 1.373 . S
C2171 C2187 1.377 . S
C2172 C2170 1.389 . S
C2172 C2173 1.524 . S
C2172 C2186 1.377 . S
C2173 C2172 1.524 . S
C2173 C2174 1.397 . S
C2173 C2178 1.363 . S
C2174 H2151 0.950 . S
C2174 C2173 1.397 . S
C2174 C2175 1.334 . S
C2175 H2152 0.950 . S
C2175 C2174 1.334 . S
C2175 C2176 1.287 . S
C2176 C2175 1.287 . S
C2176 C2177 1.524 . S
C2176 H2195 0.913 . S
C2177 H2153 0.950 . S
C2177 C2176 1.524 . S
C2177 C2178 1.415 . S
C2178 H2154 0.950 . S
C2178 C2173 1.363 . S
C2178 C2177 1.415 . S
C2179 H2155 0.951 . S
C2179 C2180 1.366 . S
C2179 C2181 1.388 . S
C2180 C2179 1.366 . S
C2180 C2184 1.385 . S
C2181 H2156 0.951 . S
C2181 C2179 1.388 . S
C2181 C2182 1.366 . S
C2182 C2181 1.366 . S
C2182 C2183 1.414 . S
C2182 C2185 1.499 . S
C2183 H2157 0.950 . S
C2183 C2182 1.414 . S
C2183 C2184 1.374 . S
C2184 H2158 0.950 . S
C2184 C2180 1.385 . S
C2184 C2183 1.374 . S
C2185 C2182 1.499 . S
C2185 C2186 1.373 . S
C2185 C2187 1.389 . S
C2186 H2159 0.950 . S
C2186 C2172 1.377 . S
C2186 C2185 1.373 . S
C2187 C2171 1.377 . S
C2187 C2185 1.389 . S
C2187 C2188 1.524 . S
C2188 C2187 1.524 . S
C2188 C2189 1.397 . S
C2188 C2193 1.363 . S
C2189 H2160 0.950 . S
C2189 C2188 1.397 . S
C2189 C2190 1.334 . S
C2190 H2161 0.950 . S
C2190 C2189 1.334 . S
C2190 C2191 1.287 . S
C2191 C2190 1.287 . S
C2191 C2192 1.524 . S
C2191 H2194 0.999 . S
C2192 H2162 0.950 . S
C2192 C2191 1.524 . S
C2192 C2193 1.415 . S
C2193 H2163 0.950 . S
C2193 C2188 1.363 . S
C2193 C2192 1.415 . S
H2194 C2191 0.999 . S
H2195 C2176 0.913 . S
H2196 C2214 0.951 . S
H2197 C2216 0.951 . S
H2198 C2218 0.950 . S
H2199 C2219 0.950 . S
H2200 C2221 0.950 . S
H2201 C2224 0.950 . S
H2202 C2225 0.950 . S
H2203 C2227 0.950 . S
H2204 C2228 0.950 . S
H2205 C2229 0.951 . S
H2206 C2231 0.951 . S
H2207 C2233 0.950 . S
H2208 C2234 0.950 . S
H2209 C2236 0.950 . S
H2210 C2239 0.950 . S
H2211 C2240 0.950 . S
H2212 C2242 0.950 . S
H2213 C2243 0.950 . S
C2214 H2196 0.951 . S
C2214 C2215 1.366 . S
C2214 C2216 1.388 . S
C2215 C2214 1.366 . S
C2215 C2219 1.385 . S
C2216 H2197 0.951 . S
C2216 C2214 1.388 . S
C2216 C2217 1.366 . S
C2217 C2216 1.366 . S
C2217 C2218 1.414 . S
C2217 C2220 1.499 . S
C2218 H2198 0.950 . S
C2218 C2217 1.414 . S
C2218 C2219 1.374 . S
C2219 H2199 0.950 . S
C2219 C2215 1.385 . S
C2219 C2218 1.374 . S
C2220 C2217 1.499 . S
C2220 C2221 1.373 . S
C2220 C2222 1.389 . S
C2221 H2200 0.950 . S
C2221 C2220 1.373 . S
C2221 C2237 1.377 . S
C2222 C2220 1.389 . S
C2222 C2223 1.524 . S
C2222 C2236 1.377 . S
C2223 C2222 1.524 . S
C2223 C2224 1.397 . S
C2223 C2228 1.363 . S
C2224 H2201 0.950 . S
C2224 C2223 1.397 . S
C2224 C2225 1.334 . S
C2225 H2202 0.950 . S
C2225 C2224 1.334 . S
C2225 C2226 1.287 . S
C2226 C2225 1.287 . S
C2226 C2227 1.524 . S
C2226 H2245 0.913 . S
C2227 H2203 0.950 . S
C2227 C2226 1.524 . S
C2227 C2228 1.415 . S
C2228 H2204 0.950 . S
C2228 C2223 1.363 . S
C2228 C2227 1.415 . S
C2229 H2205 0.951 . S
C2229 C2230 1.366 . S
C2229 C2231 1.388 . S
C2230 C2229 1.366 . S
C2230 C2234 1.385 . S
C2231 H2206 0.951 . S
C2231 C2229 1.388 . S
C2231 C2232 1.366 . S
C2232 C2231 1.366 . S
C2232 C2233 1.414 . S
C2232 C2235 1.499 . S
C2233 H2207 0.950 . S
C2233 C2232 1.414 . S
C2233 C2234 1.374 . S
C2234 H2208 0.950 . S
C2234 C2230 1.385 . S
C2234 C2233 1.374 . S
C2235 C2232 1.499 . S
C2235 C2236 1.373 . S
C2235 C2237 1.389 . S
C2236 H2209 0.950 . S
C2236 C2222 1.377 . S
C2236 C2235 1.373 . S
C2237 C2221 1.377 . S
C2237 C2235 1.389 . S
C2237 C2238 1.524 . S
C2238 C2237 1.524 . S
C2238 C2239 1.397 . S
C2238 C2243 1.363 . S
C2239 H2210 0.950 . S
C2239 C2238 1.397 . S
C2239 C2240 1.334 . S
C2240 H2211 0.950 . S
C2240 C2239 1.334 . S
C2240 C2241 1.287 . S
C2241 C2240 1.287 . S
C2241 C2242 1.524 . S
C2241 H2244 0.999 1_565 S
C2242 H2212 0.950 . S
C2242 C2241 1.524 . S
C2242 C2243 1.415 . S
C2243 H2213 0.950 . S
C2243 C2238 1.363 . S
C2243 C2242 1.415 . S
H2244 C2241 0.999 1_545 S
H2245 C2226 0.913 . S
H2246 C2264 0.951 . S
H2247 C2266 0.951 . S
H2248 C2268 0.950 . S
H2249 C2269 0.950 . S
H2250 C2271 0.950 . S
H2251 C2274 0.950 . S
H2252 C2275 0.950 . S
H2253 C2277 0.950 . S
H2254 C2278 0.950 . S
H2255 C2279 0.951 . S
H2256 C2281 0.951 . S
H2257 C2283 0.950 . S
H2258 C2284 0.950 . S
H2259 C2286 0.950 . S
H2260 C2289 0.950 . S
H2261 C2290 0.950 . S
H2262 C2292 0.950 . S
H2263 C2293 0.950 . S
C2264 H2246 0.951 . S
C2264 C2265 1.366 . S
C2264 C2266 1.388 . S
C2265 C2264 1.366 . S
C2265 C2269 1.385 . S
C2266 H2247 0.951 . S
C2266 C2264 1.388 . S
C2266 C2267 1.366 . S
C2267 C2266 1.366 . S
C2267 C2268 1.414 . S
C2267 C2270 1.499 . S
C2268 H2248 0.950 . S
C2268 C2267 1.414 . S
C2268 C2269 1.374 . S
C2269 H2249 0.950 . S
C2269 C2265 1.385 . S
C2269 C2268 1.374 . S
C2270 C2267 1.499 . S
C2270 C2271 1.373 . S
C2270 C2272 1.389 . S
C2271 H2250 0.950 . S
C2271 C2270 1.373 . S
C2271 C2287 1.377 . S
C2272 C2270 1.389 . S
C2272 C2273 1.524 . S
C2272 C2286 1.377 . S
C2273 C2272 1.524 . S
C2273 C2274 1.397 . S
C2273 C2278 1.363 . S
C2274 H2251 0.950 . S
C2274 C2273 1.397 . S
C2274 C2275 1.334 . S
C2275 H2252 0.950 . S
C2275 C2274 1.334 . S
C2275 C2276 1.287 . S
C2276 C2275 1.287 . S
C2276 C2277 1.524 . S
C2276 H2295 0.913 . S
C2277 H2253 0.950 . S
C2277 C2276 1.524 . S
C2277 C2278 1.415 . S
C2278 H2254 0.950 . S
C2278 C2273 1.363 . S
C2278 C2277 1.415 . S
C2279 H2255 0.951 . S
C2279 C2280 1.366 . S
C2279 C2281 1.388 . S
C2280 C2279 1.366 . S
C2280 C2284 1.385 . S
C2281 H2256 0.951 . S
C2281 C2279 1.388 . S
C2281 C2282 1.366 . S
C2282 C2281 1.366 . S
C2282 C2283 1.414 . S
C2282 C2285 1.499 . S
C2283 H2257 0.950 . S
C2283 C2282 1.414 . S
C2283 C2284 1.374 . S
C2284 H2258 0.950 . S
C2284 C2280 1.385 . S
C2284 C2283 1.374 . S
C2285 C2282 1.499 . S
C2285 C2286 1.373 . S
C2285 C2287 1.389 . S
C2286 H2259 0.950 . S
C2286 C2272 1.377 . S
C2286 C2285 1.373 . S
C2287 C2271 1.377 . S
C2287 C2285 1.389 . S
C2287 C2288 1.524 . S
C2288 C2287 1.524 . S
C2288 C2289 1.397 . S
C2288 C2293 1.363 . S
C2289 H2260 0.950 . S
C2289 C2288 1.397 . S
C2289 C2290 1.334 . S
C2290 H2261 0.950 . S
C2290 C2289 1.334 . S
C2290 C2291 1.287 . S
C2291 C2290 1.287 . S
C2291 C2292 1.524 . S
C2291 H2294 0.999 . S
C2292 H2262 0.950 . S
C2292 C2291 1.524 . S
C2292 C2293 1.415 . S
C2293 H2263 0.950 . S
C2293 C2288 1.363 . S
C2293 C2292 1.415 . S
H2294 C2291 0.999 . S
H2295 C2276 0.913 . S
H2296 C2314 0.951 . S
H2297 C2316 0.951 . S
H2298 C2318 0.950 . S
H2299 C2319 0.950 . S
H2300 C2321 0.950 . S
H2301 C2324 0.950 . S
H2302 C2325 0.950 . S
H2303 C2327 0.950 . S
H2304 C2328 0.950 . S
H2305 C2329 0.951 . S
H2306 C2331 0.951 . S
H2307 C2333 0.950 . S
H2308 C2334 0.950 . S
H2309 C2336 0.950 . S
H2310 C2339 0.950 . S
H2311 C2340 0.950 . S
H2312 C2342 0.950 . S
H2313 C2343 0.950 . S
C2314 H2296 0.951 . S
C2314 C2315 1.366 . S
C2314 C2316 1.388 . S
C2315 C2314 1.366 . S
C2315 C2319 1.385 . S
C2316 H2297 0.951 . S
C2316 C2314 1.388 . S
C2316 C2317 1.366 . S
C2317 C2316 1.366 . S
C2317 C2318 1.414 . S
C2317 C2320 1.499 . S
C2318 H2298 0.950 . S
C2318 C2317 1.414 . S
C2318 C2319 1.374 . S
C2319 H2299 0.950 . S
C2319 C2315 1.385 . S
C2319 C2318 1.374 . S
C2320 C2317 1.499 . S
C2320 C2321 1.373 . S
C2320 C2322 1.389 . S
C2321 H2300 0.950 . S
C2321 C2320 1.373 . S
C2321 C2337 1.377 . S
C2322 C2320 1.389 . S
C2322 C2323 1.524 . S
C2322 C2336 1.377 . S
C2323 C2322 1.524 . S
C2323 C2324 1.397 . S
C2323 C2328 1.363 . S
C2324 H2301 0.950 . S
C2324 C2323 1.397 . S
C2324 C2325 1.334 . S
C2325 H2302 0.950 . S
C2325 C2324 1.334 . S
C2325 C2326 1.287 . S
C2326 C2325 1.287 . S
C2326 C2327 1.524 . S
C2326 H2345 0.913 . S
C2327 H2303 0.950 . S
C2327 C2326 1.524 . S
C2327 C2328 1.415 . S
C2328 H2304 0.950 . S
C2328 C2323 1.363 . S
C2328 C2327 1.415 . S
C2329 H2305 0.951 . S
C2329 C2330 1.366 . S
C2329 C2331 1.388 . S
C2330 C2329 1.366 . S
C2330 C2334 1.385 . S
C2331 H2306 0.951 . S
C2331 C2329 1.388 . S
C2331 C2332 1.366 . S
C2332 C2331 1.366 . S
C2332 C2333 1.414 . S
C2332 C2335 1.499 . S
C2333 H2307 0.950 . S
C2333 C2332 1.414 . S
C2333 C2334 1.374 . S
C2334 H2308 0.950 . S
C2334 C2330 1.385 . S
C2334 C2333 1.374 . S
C2335 C2332 1.499 . S
C2335 C2336 1.373 . S
C2335 C2337 1.389 . S
C2336 H2309 0.950 . S
C2336 C2322 1.377 . S
C2336 C2335 1.373 . S
C2337 C2321 1.377 . S
C2337 C2335 1.389 . S
C2337 C2338 1.524 . S
C2338 C2337 1.524 . S
C2338 C2339 1.397 . S
C2338 C2343 1.363 . S
C2339 H2310 0.950 . S
C2339 C2338 1.397 . S
C2339 C2340 1.334 . S
C2340 H2311 0.950 . S
C2340 C2339 1.334 . S
C2340 C2341 1.287 . S
C2341 C2340 1.287 . S
C2341 C2342 1.524 . S
C2341 H2344 0.999 . S
C2342 H2312 0.950 . S
C2342 C2341 1.524 . S
C2342 C2343 1.415 . S
C2343 H2313 0.950 . S
C2343 C2338 1.363 . S
C2343 C2342 1.415 . S
H2344 C2341 0.999 . S
H2345 C2326 0.913 . S
H2346 C2364 0.951 . S
H2347 C2366 0.951 . S
H2348 C2368 0.950 . S
H2349 C2369 0.950 . S
H2350 C2371 0.950 . S
H2351 C2374 0.950 . S
H2352 C2375 0.950 . S
H2353 C2377 0.950 . S
H2354 C2378 0.950 . S
H2355 C2379 0.951 . S
H2356 C2381 0.951 . S
H2357 C2383 0.950 . S
H2358 C2384 0.950 . S
H2359 C2386 0.950 . S
H2360 C2389 0.950 . S
H2361 C2390 0.950 . S
H2362 C2392 0.950 . S
H2363 C2393 0.950 . S
C2364 H2346 0.951 . S
C2364 C2365 1.366 . S
C2364 C2366 1.388 . S
C2365 C2364 1.366 . S
C2365 C2369 1.385 . S
C2366 H2347 0.951 . S
C2366 C2364 1.388 . S
C2366 C2367 1.366 . S
C2367 C2366 1.366 . S
C2367 C2368 1.414 . S
C2367 C2370 1.499 . S
C2368 H2348 0.950 . S
C2368 C2367 1.414 . S
C2368 C2369 1.374 . S
C2369 H2349 0.950 . S
C2369 C2365 1.385 . S
C2369 C2368 1.374 . S
C2370 C2367 1.499 . S
C2370 C2371 1.373 . S
C2370 C2372 1.389 . S
C2371 H2350 0.950 . S
C2371 C2370 1.373 . S
C2371 C2387 1.377 . S
C2372 C2370 1.389 . S
C2372 C2373 1.524 . S
C2372 C2386 1.377 . S
C2373 C2372 1.524 . S
C2373 C2374 1.397 . S
C2373 C2378 1.363 . S
C2374 H2351 0.950 . S
C2374 C2373 1.397 . S
C2374 C2375 1.334 . S
C2375 H2352 0.950 . S
C2375 C2374 1.334 . S
C2375 C2376 1.287 . S
C2376 C2375 1.287 . S
C2376 C2377 1.524 . S
C2376 H2395 0.913 . S
C2377 H2353 0.950 . S
C2377 C2376 1.524 . S
C2377 C2378 1.415 . S
C2378 H2354 0.950 . S
C2378 C2373 1.363 . S
C2378 C2377 1.415 . S
C2379 H2355 0.951 . S
C2379 C2380 1.366 . S
C2379 C2381 1.388 . S
C2380 C2379 1.366 . S
C2380 C2384 1.385 . S
C2381 H2356 0.951 . S
C2381 C2379 1.388 . S
C2381 C2382 1.366 . S
C2382 C2381 1.366 . S
C2382 C2383 1.414 . S
C2382 C2385 1.499 . S
C2383 H2357 0.950 . S
C2383 C2382 1.414 . S
C2383 C2384 1.374 . S
C2384 H2358 0.950 . S
C2384 C2380 1.385 . S
C2384 C2383 1.374 . S
C2385 C2382 1.499 . S
C2385 C2386 1.373 . S
C2385 C2387 1.389 . S
C2386 H2359 0.950 . S
C2386 C2372 1.377 . S
C2386 C2385 1.373 . S
C2387 C2371 1.377 . S
C2387 C2385 1.389 . S
C2387 C2388 1.524 . S
C2388 C2387 1.524 . S
C2388 C2389 1.397 . S
C2388 C2393 1.363 . S
C2389 H2360 0.950 . S
C2389 C2388 1.397 . S
C2389 C2390 1.334 . S
C2390 H2361 0.950 . S
C2390 C2389 1.334 . S
C2390 C2391 1.287 . S
C2391 C2390 1.287 . S
C2391 C2392 1.524 . S
C2391 H2394 0.999 . S
C2392 H2362 0.950 . S
C2392 C2391 1.524 . S
C2392 C2393 1.415 . S
C2393 H2363 0.950 . S
C2393 C2388 1.363 . S
C2393 C2392 1.415 . S
H2394 C2391 0.999 . S
H2395 C2376 0.913 . S
H2396 C2414 0.951 . S
H2397 C2416 0.951 . S
H2398 C2418 0.950 . S
H2399 C2419 0.950 . S
H2400 C2421 0.950 . S
H2401 C2424 0.950 . S
H2402 C2425 0.950 . S
H2403 C2427 0.950 . S
H2404 C2428 0.950 . S
H2405 C2429 0.951 . S
H2406 C2431 0.951 . S
H2407 C2433 0.950 . S
H2408 C2434 0.950 . S
H2409 C2436 0.950 . S
H2410 C2439 0.950 . S
H2411 C2440 0.950 . S
H2412 C2442 0.950 . S
H2413 C2443 0.950 . S
C2414 H2396 0.951 . S
C2414 C2415 1.366 . S
C2414 C2416 1.388 . S
C2415 C2414 1.366 . S
C2415 C2419 1.385 . S
C2416 H2397 0.951 . S
C2416 C2414 1.388 . S
C2416 C2417 1.366 . S
C2417 C2416 1.366 . S
C2417 C2418 1.414 . S
C2417 C2420 1.499 . S
C2418 H2398 0.950 . S
C2418 C2417 1.414 . S
C2418 C2419 1.374 . S
C2419 H2399 0.950 . S
C2419 C2415 1.385 . S
C2419 C2418 1.374 . S
C2420 C2417 1.499 . S
C2420 C2421 1.373 . S
C2420 C2422 1.389 . S
C2421 H2400 0.950 . S
C2421 C2420 1.373 . S
C2421 C2437 1.377 . S
C2422 C2420 1.389 . S
C2422 C2423 1.524 . S
C2422 C2436 1.377 . S
C2423 C2422 1.524 . S
C2423 C2424 1.397 . S
C2423 C2428 1.363 . S
C2424 H2401 0.950 . S
C2424 C2423 1.397 . S
C2424 C2425 1.334 . S
C2425 H2402 0.950 . S
C2425 C2424 1.334 . S
C2425 C2426 1.287 . S
C2426 C2425 1.287 . S
C2426 C2427 1.524 . S
C2426 H2445 0.913 . S
C2427 H2403 0.950 . S
C2427 C2426 1.524 . S
C2427 C2428 1.415 . S
C2428 H2404 0.950 . S
C2428 C2423 1.363 . S
C2428 C2427 1.415 . S
C2429 H2405 0.951 . S
C2429 C2430 1.366 . S
C2429 C2431 1.388 . S
C2430 C2429 1.366 . S
C2430 C2434 1.385 . S
C2431 H2406 0.951 . S
C2431 C2429 1.388 . S
C2431 C2432 1.366 . S
C2432 C2431 1.366 . S
C2432 C2433 1.414 . S
C2432 C2435 1.499 . S
C2433 H2407 0.950 . S
C2433 C2432 1.414 . S
C2433 C2434 1.374 . S
C2434 H2408 0.950 . S
C2434 C2430 1.385 . S
C2434 C2433 1.374 . S
C2435 C2432 1.499 . S
C2435 C2436 1.373 . S
C2435 C2437 1.389 . S
C2436 H2409 0.950 . S
C2436 C2422 1.377 . S
C2436 C2435 1.373 . S
C2437 C2421 1.377 . S
C2437 C2435 1.389 . S
C2437 C2438 1.524 . S
C2438 C2437 1.524 . S
C2438 C2439 1.397 . S
C2438 C2443 1.363 . S
C2439 H2410 0.950 . S
C2439 C2438 1.397 . S
C2439 C2440 1.334 . S
C2440 H2411 0.950 . S
C2440 C2439 1.334 . S
C2440 C2441 1.287 . S
C2441 C2440 1.287 . S
C2441 C2442 1.524 . S
C2441 H2444 0.999 . S
C2442 H2412 0.950 . S
C2442 C2441 1.524 . S
C2442 C2443 1.415 . S
C2443 H2413 0.950 . S
C2443 C2438 1.363 . S
C2443 C2442 1.415 . S
H2444 C2441 0.999 . S
H2445 C2426 0.913 . S
H2446 C2464 0.951 . S
H2447 C2466 0.951 . S
H2448 C2468 0.950 . S
H2449 C2469 0.950 . S
H2450 C2471 0.950 . S
H2451 C2474 0.950 . S
H2452 C2475 0.950 . S
H2453 C2477 0.950 . S
H2454 C2478 0.950 . S
H2455 C2479 0.951 . S
H2456 C2481 0.951 . S
H2457 C2483 0.950 . S
H2458 C2484 0.950 . S
H2459 C2486 0.950 . S
H2460 C2489 0.950 . S
H2461 C2490 0.950 . S
H2462 C2492 0.950 . S
H2463 C2493 0.950 . S
C2464 H2446 0.951 . S
C2464 C2465 1.366 . S
C2464 C2466 1.388 . S
C2465 C2464 1.366 . S
C2465 C2469 1.385 . S
C2466 H2447 0.951 . S
C2466 C2464 1.388 . S
C2466 C2467 1.366 . S
C2467 C2466 1.366 . S
C2467 C2468 1.414 . S
C2467 C2470 1.499 . S
C2468 H2448 0.950 . S
C2468 C2467 1.414 . S
C2468 C2469 1.374 . S
C2469 H2449 0.950 . S
C2469 C2465 1.385 . S
C2469 C2468 1.374 . S
C2470 C2467 1.499 . S
C2470 C2471 1.373 . S
C2470 C2472 1.389 . S
C2471 H2450 0.950 . S
C2471 C2470 1.373 . S
C2471 C2487 1.377 . S
C2472 C2470 1.389 . S
C2472 C2473 1.524 . S
C2472 C2486 1.377 . S
C2473 C2472 1.524 . S
C2473 C2474 1.397 . S
C2473 C2478 1.363 . S
C2474 H2451 0.950 . S
C2474 C2473 1.397 . S
C2474 C2475 1.334 . S
C2475 H2452 0.950 . S
C2475 C2474 1.334 . S
C2475 C2476 1.287 . S
C2476 C2475 1.287 . S
C2476 C2477 1.524 . S
C2476 H2495 0.913 . S
C2477 H2453 0.950 . S
C2477 C2476 1.524 . S
C2477 C2478 1.415 . S
C2478 H2454 0.950 . S
C2478 C2473 1.363 . S
C2478 C2477 1.415 . S
C2479 H2455 0.951 . S
C2479 C2480 1.366 . S
C2479 C2481 1.388 . S
C2480 C2479 1.366 . S
C2480 C2484 1.385 . S
C2481 H2456 0.951 . S
C2481 C2479 1.388 . S
C2481 C2482 1.366 . S
C2482 C2481 1.366 . S
C2482 C2483 1.414 . S
C2482 C2485 1.499 . S
C2483 H2457 0.950 . S
C2483 C2482 1.414 . S
C2483 C2484 1.374 . S
C2484 H2458 0.950 . S
C2484 C2480 1.385 . S
C2484 C2483 1.374 . S
C2485 C2482 1.499 . S
C2485 C2486 1.373 . S
C2485 C2487 1.389 . S
C2486 H2459 0.950 . S
C2486 C2472 1.377 . S
C2486 C2485 1.373 . S
C2487 C2471 1.377 . S
C2487 C2485 1.389 . S
C2487 C2488 1.524 . S
C2488 C2487 1.524 . S
C2488 C2489 1.397 . S
C2488 C2493 1.363 . S
C2489 H2460 0.950 . S
C2489 C2488 1.397 . S
C2489 C2490 1.334 . S
C2490 H2461 0.950 . S
C2490 C2489 1.334 . S
C2490 C2491 1.287 . S
C2491 C2490 1.287 . S
C2491 C2492 1.524 . S
C2491 H2494 0.999 . S
C2492 H2462 0.950 . S
C2492 C2491 1.524 . S
C2492 C2493 1.415 . S
C2493 H2463 0.950 . S
C2493 C2488 1.363 . S
C2493 C2492 1.415 . S
H2494 C2491 0.999 . S
H2495 C2476 0.913 . S
H2496 C2514 0.951 . S
H2497 C2516 0.951 . S
H2498 C2518 0.950 . S
H2499 C2519 0.950 . S
H2500 C2521 0.950 . S
H2501 C2524 0.950 . S
H2502 C2525 0.950 . S
H2503 C2527 0.950 . S
H2504 C2528 0.950 . S
H2505 C2529 0.951 . S
H2506 C2531 0.951 . S
H2507 C2533 0.950 . S
H2508 C2534 0.950 . S
H2509 C2536 0.950 . S
H2510 C2539 0.950 . S
H2511 C2540 0.950 . S
H2512 C2542 0.950 . S
H2513 C2543 0.950 . S
C2514 H2496 0.951 . S
C2514 C2515 1.366 . S
C2514 C2516 1.388 . S
C2515 C2514 1.366 . S
C2515 C2519 1.385 . S
C2516 H2497 0.951 . S
C2516 C2514 1.388 . S
C2516 C2517 1.366 . S
C2517 C2516 1.366 . S
C2517 C2518 1.414 . S
C2517 C2520 1.499 . S
C2518 H2498 0.950 . S
C2518 C2517 1.414 . S
C2518 C2519 1.374 . S
C2519 H2499 0.950 . S
C2519 C2515 1.385 . S
C2519 C2518 1.374 . S
C2520 C2517 1.499 . S
C2520 C2521 1.373 . S
C2520 C2522 1.389 . S
C2521 H2500 0.950 . S
C2521 C2520 1.373 . S
C2521 C2537 1.377 . S
C2522 C2520 1.389 . S
C2522 C2523 1.524 . S
C2522 C2536 1.377 . S
C2523 C2522 1.524 . S
C2523 C2524 1.397 . S
C2523 C2528 1.363 . S
C2524 H2501 0.950 . S
C2524 C2523 1.397 . S
C2524 C2525 1.334 . S
C2525 H2502 0.950 . S
C2525 C2524 1.334 . S
C2525 C2526 1.287 . S
C2526 C2525 1.287 . S
C2526 C2527 1.524 . S
C2526 H2545 0.913 . S
C2527 H2503 0.950 . S
C2527 C2526 1.524 . S
C2527 C2528 1.415 . S
C2528 H2504 0.950 . S
C2528 C2523 1.363 . S
C2528 C2527 1.415 . S
C2529 H2505 0.951 . S
C2529 C2530 1.366 . S
C2529 C2531 1.388 . S
C2530 C2529 1.366 . S
C2530 C2534 1.385 . S
C2531 H2506 0.951 . S
C2531 C2529 1.388 . S
C2531 C2532 1.366 . S
C2532 C2531 1.366 . S
C2532 C2533 1.414 . S
C2532 C2535 1.499 . S
C2533 H2507 0.950 . S
C2533 C2532 1.414 . S
C2533 C2534 1.374 . S
C2534 H2508 0.950 . S
C2534 C2530 1.385 . S
C2534 C2533 1.374 . S
C2535 C2532 1.499 . S
C2535 C2536 1.373 . S
C2535 C2537 1.389 . S
C2536 H2509 0.950 . S
C2536 C2522 1.377 . S
C2536 C2535 1.373 . S
C2537 C2521 1.377 . S
C2537 C2535 1.389 . S
C2537 C2538 1.524 . S
C2538 C2537 1.524 . S
C2538 C2539 1.397 . S
C2538 C2543 1.363 . S
C2539 H2510 0.950 . S
C2539 C2538 1.397 . S
C2539 C2540 1.334 . S
C2540 H2511 0.950 . S
C2540 C2539 1.334 . S
C2540 C2541 1.287 . S
C2541 C2540 1.287 . S
C2541 C2542 1.524 . S
C2541 H2544 0.988 1_565 S
C2542 H2512 0.950 . S
C2542 C2541 1.524 . S
C2542 C2543 1.415 . S
C2543 H2513 0.950 . S
C2543 C2538 1.363 . S
C2543 C2542 1.415 . S
H2544 C2541 0.988 1_545 S
H2545 C2526 0.913 . S
H2546 C2564 0.951 . S
H2547 C2566 0.951 . S
H2548 C2568 0.950 . S
H2549 C2569 0.950 . S
H2550 C2571 0.950 . S
H2551 C2574 0.950 . S
H2552 C2575 0.950 . S
H2553 C2577 0.950 . S
H2554 C2578 0.950 . S
H2555 C2579 0.951 . S
H2556 C2581 0.951 . S
H2557 C2583 0.950 . S
H2558 C2584 0.950 . S
H2559 C2586 0.950 . S
H2560 C2589 0.950 . S
H2561 C2590 0.950 . S
H2562 C2592 0.950 . S
H2563 C2593 0.950 . S
C2564 H2546 0.951 . S
C2564 C2565 1.366 . S
C2564 C2566 1.388 . S
C2565 C2564 1.366 . S
C2565 C2569 1.385 . S
C2566 H2547 0.951 . S
C2566 C2564 1.388 . S
C2566 C2567 1.366 . S
C2567 C2566 1.366 . S
C2567 C2568 1.414 . S
C2567 C2570 1.499 . S
C2568 H2548 0.950 . S
C2568 C2567 1.414 . S
C2568 C2569 1.374 . S
C2569 H2549 0.950 . S
C2569 C2565 1.385 . S
C2569 C2568 1.374 . S
C2570 C2567 1.499 . S
C2570 C2571 1.373 . S
C2570 C2572 1.389 . S
C2571 H2550 0.950 . S
C2571 C2570 1.373 . S
C2571 C2587 1.377 . S
C2572 C2570 1.389 . S
C2572 C2573 1.524 . S
C2572 C2586 1.377 . S
C2573 C2572 1.524 . S
C2573 C2574 1.397 . S
C2573 C2578 1.363 . S
C2574 H2551 0.950 . S
C2574 C2573 1.397 . S
C2574 C2575 1.334 . S
C2575 H2552 0.950 . S
C2575 C2574 1.334 . S
C2575 C2576 1.287 . S
C2576 C2575 1.287 . S
C2576 C2577 1.524 . S
C2576 H2595 0.913 . S
C2577 H2553 0.950 . S
C2577 C2576 1.524 . S
C2577 C2578 1.415 . S
C2578 H2554 0.950 . S
C2578 C2573 1.363 . S
C2578 C2577 1.415 . S
C2579 H2555 0.951 . S
C2579 C2580 1.366 . S
C2579 C2581 1.388 . S
C2580 C2579 1.366 . S
C2580 C2584 1.385 . S
C2581 H2556 0.951 . S
C2581 C2579 1.388 . S
C2581 C2582 1.366 . S
C2582 C2581 1.366 . S
C2582 C2583 1.414 . S
C2582 C2585 1.499 . S
C2583 H2557 0.950 . S
C2583 C2582 1.414 . S
C2583 C2584 1.374 . S
C2584 H2558 0.950 . S
C2584 C2580 1.385 . S
C2584 C2583 1.374 . S
C2585 C2582 1.499 . S
C2585 C2586 1.373 . S
C2585 C2587 1.389 . S
C2586 H2559 0.950 . S
C2586 C2572 1.377 . S
C2586 C2585 1.373 . S
C2587 C2571 1.377 . S
C2587 C2585 1.389 . S
C2587 C2588 1.524 . S
C2588 C2587 1.524 . S
C2588 C2589 1.397 . S
C2588 C2593 1.363 . S
C2589 H2560 0.950 . S
C2589 C2588 1.397 . S
C2589 C2590 1.334 . S
C2590 H2561 0.950 . S
C2590 C2589 1.334 . S
C2590 C2591 1.287 . S
C2591 C2590 1.287 . S
C2591 C2592 1.524 . S
C2591 H2594 0.999 . S
C2592 H2562 0.950 . S
C2592 C2591 1.524 . S
C2592 C2593 1.415 . S
C2593 H2563 0.950 . S
C2593 C2588 1.363 . S
C2593 C2592 1.415 . S
H2594 C2591 0.999 . S
H2595 C2576 0.913 . S
H2596 C2614 0.951 . S
H2597 C2616 0.951 . S
H2598 C2618 0.950 . S
H2599 C2619 0.950 . S
H2600 C2621 0.950 . S
H2601 C2624 0.950 . S
H2602 C2625 0.950 . S
H2603 C2627 0.950 . S
H2604 C2628 0.950 . S
H2605 C2629 0.951 . S
H2606 C2631 0.951 . S
H2607 C2633 0.950 . S
H2608 C2634 0.950 . S
H2609 C2636 0.950 . S
H2610 C2639 0.950 . S
H2611 C2640 0.950 . S
H2612 C2642 0.950 . S
H2613 C2643 0.950 . S
C2614 H2596 0.951 . S
C2614 C2615 1.366 . S
C2614 C2616 1.388 . S
C2615 C2614 1.366 . S
C2615 C2619 1.385 . S
C2616 H2597 0.951 . S
C2616 C2614 1.388 . S
C2616 C2617 1.366 . S
C2617 C2616 1.366 . S
C2617 C2618 1.414 . S
C2617 C2620 1.499 . S
C2618 H2598 0.950 . S
C2618 C2617 1.414 . S
C2618 C2619 1.374 . S
C2619 H2599 0.950 . S
C2619 C2615 1.385 . S
C2619 C2618 1.374 . S
C2620 C2617 1.499 . S
C2620 C2621 1.373 . S
C2620 C2622 1.389 . S
C2621 H2600 0.950 . S
C2621 C2620 1.373 . S
C2621 C2637 1.377 . S
C2622 C2620 1.389 . S
C2622 C2623 1.524 . S
C2622 C2636 1.377 . S
C2623 C2622 1.524 . S
C2623 C2624 1.397 . S
C2623 C2628 1.363 . S
C2624 H2601 0.950 . S
C2624 C2623 1.397 . S
C2624 C2625 1.334 . S
C2625 H2602 0.950 . S
C2625 C2624 1.334 . S
C2625 C2626 1.287 . S
C2626 C2625 1.287 . S
C2626 C2627 1.524 . S
C2626 H2645 0.913 . S
C2627 H2603 0.950 . S
C2627 C2626 1.524 . S
C2627 C2628 1.415 . S
C2628 H2604 0.950 . S
C2628 C2623 1.363 . S
C2628 C2627 1.415 . S
C2629 H2605 0.951 . S
C2629 C2630 1.366 . S
C2629 C2631 1.388 . S
C2630 C2629 1.366 . S
C2630 C2634 1.385 . S
C2631 H2606 0.951 . S
C2631 C2629 1.388 . S
C2631 C2632 1.366 . S
C2632 C2631 1.366 . S
C2632 C2633 1.414 . S
C2632 C2635 1.499 . S
C2633 H2607 0.950 . S
C2633 C2632 1.414 . S
C2633 C2634 1.374 . S
C2634 H2608 0.950 . S
C2634 C2630 1.385 . S
C2634 C2633 1.374 . S
C2635 C2632 1.499 . S
C2635 C2636 1.373 . S
C2635 C2637 1.389 . S
C2636 H2609 0.950 . S
C2636 C2622 1.377 . S
C2636 C2635 1.373 . S
C2637 C2621 1.377 . S
C2637 C2635 1.389 . S
C2637 C2638 1.524 . S
C2638 C2637 1.524 . S
C2638 C2639 1.397 . S
C2638 C2643 1.363 . S
C2639 H2610 0.950 . S
C2639 C2638 1.397 . S
C2639 C2640 1.334 . S
C2640 H2611 0.950 . S
C2640 C2639 1.334 . S
C2640 C2641 1.287 . S
C2641 C2640 1.287 . S
C2641 C2642 1.524 . S
C2641 H2644 0.999 . S
C2642 H2612 0.950 . S
C2642 C2641 1.524 . S
C2642 C2643 1.415 . S
C2643 H2613 0.950 . S
C2643 C2638 1.363 . S
C2643 C2642 1.415 . S
H2644 C2641 0.999 . S
H2645 C2626 0.913 . S
H2646 C2664 0.951 . S
H2647 C2666 0.951 . S
H2648 C2668 0.950 . S
H2649 C2669 0.950 . S
H2650 C2671 0.950 . S
H2651 C2674 0.950 . S
H2652 C2675 0.950 . S
H2653 C2677 0.950 . S
H2654 C2678 0.950 . S
H2655 C2679 0.951 . S
H2656 C2681 0.951 . S
H2657 C2683 0.950 . S
H2658 C2684 0.950 . S
H2659 C2686 0.950 . S
H2660 C2689 0.950 . S
H2661 C2690 0.950 . S
H2662 C2692 0.950 . S
H2663 C2693 0.950 . S
C2664 H2646 0.951 . S
C2664 C2665 1.366 . S
C2664 C2666 1.388 . S
C2665 C2664 1.366 . S
C2665 C2669 1.385 . S
C2666 H2647 0.951 . S
C2666 C2664 1.388 . S
C2666 C2667 1.366 . S
C2667 C2666 1.366 . S
C2667 C2668 1.414 . S
C2667 C2670 1.499 . S
C2668 H2648 0.950 . S
C2668 C2667 1.414 . S
C2668 C2669 1.374 . S
C2669 H2649 0.950 . S
C2669 C2665 1.385 . S
C2669 C2668 1.374 . S
C2670 C2667 1.499 . S
C2670 C2671 1.373 . S
C2670 C2672 1.389 . S
C2671 H2650 0.950 . S
C2671 C2670 1.373 . S
C2671 C2687 1.377 . S
C2672 C2670 1.389 . S
C2672 C2673 1.524 . S
C2672 C2686 1.377 . S
C2673 C2672 1.524 . S
C2673 C2674 1.397 . S
C2673 C2678 1.363 . S
C2674 H2651 0.950 . S
C2674 C2673 1.397 . S
C2674 C2675 1.334 . S
C2675 H2652 0.950 . S
C2675 C2674 1.334 . S
C2675 C2676 1.287 . S
C2676 C2675 1.287 . S
C2676 C2677 1.524 . S
C2676 H2695 0.913 . S
C2677 H2653 0.950 . S
C2677 C2676 1.524 . S
C2677 C2678 1.415 . S
C2678 H2654 0.950 . S
C2678 C2673 1.363 . S
C2678 C2677 1.415 . S
C2679 H2655 0.951 . S
C2679 C2680 1.366 . S
C2679 C2681 1.388 . S
C2680 C2679 1.366 . S
C2680 C2684 1.385 . S
C2681 H2656 0.951 . S
C2681 C2679 1.388 . S
C2681 C2682 1.366 . S
C2682 C2681 1.366 . S
C2682 C2683 1.414 . S
C2682 C2685 1.499 . S
C2683 H2657 0.950 . S
C2683 C2682 1.414 . S
C2683 C2684 1.374 . S
C2684 H2658 0.950 . S
C2684 C2680 1.385 . S
C2684 C2683 1.374 . S
C2685 C2682 1.499 . S
C2685 C2686 1.373 . S
C2685 C2687 1.389 . S
C2686 H2659 0.950 . S
C2686 C2672 1.377 . S
C2686 C2685 1.373 . S
C2687 C2671 1.377 . S
C2687 C2685 1.389 . S
C2687 C2688 1.524 . S
C2688 C2687 1.524 . S
C2688 C2689 1.397 . S
C2688 C2693 1.363 . S
C2689 H2660 0.950 . S
C2689 C2688 1.397 . S
C2689 C2690 1.334 . S
C2690 H2661 0.950 . S
C2690 C2689 1.334 . S
C2690 C2691 1.287 . S
C2691 C2690 1.287 . S
C2691 C2692 1.524 . S
C2691 H2694 0.999 . S
C2692 H2662 0.950 . S
C2692 C2691 1.524 . S
C2692 C2693 1.415 . S
C2693 H2663 0.950 . S
C2693 C2688 1.363 . S
C2693 C2692 1.415 . S
H2694 C2691 0.999 . S
H2695 C2676 0.913 . S
H2696 C2714 0.951 . S
H2697 C2716 0.951 . S
H2698 C2718 0.950 . S
H2699 C2719 0.950 . S
H2700 C2721 0.950 . S
H2701 C2724 0.950 . S
H2702 C2725 0.950 . S
H2703 C2727 0.950 . S
H2704 C2728 0.950 . S
H2705 C2729 0.951 . S
H2706 C2731 0.951 . S
H2707 C2733 0.950 . S
H2708 C2734 0.950 . S
H2709 C2736 0.950 . S
H2710 C2739 0.950 . S
H2711 C2740 0.950 . S
H2712 C2742 0.950 . S
H2713 C2743 0.950 . S
C2714 H2696 0.951 . S
C2714 C2715 1.366 . S
C2714 C2716 1.388 . S
C2715 C2714 1.366 . S
C2715 C2719 1.385 . S
C2716 H2697 0.951 . S
C2716 C2714 1.388 . S
C2716 C2717 1.366 . S
C2717 C2716 1.366 . S
C2717 C2718 1.414 . S
C2717 C2720 1.499 . S
C2718 H2698 0.950 . S
C2718 C2717 1.414 . S
C2718 C2719 1.374 . S
C2719 H2699 0.950 . S
C2719 C2715 1.385 . S
C2719 C2718 1.374 . S
C2720 C2717 1.499 . S
C2720 C2721 1.373 . S
C2720 C2722 1.389 . S
C2721 H2700 0.950 . S
C2721 C2720 1.373 . S
C2721 C2737 1.377 . S
C2722 C2720 1.389 . S
C2722 C2723 1.524 . S
C2722 C2736 1.377 . S
C2723 C2722 1.524 . S
C2723 C2724 1.397 . S
C2723 C2728 1.363 . S
C2724 H2701 0.950 . S
C2724 C2723 1.397 . S
C2724 C2725 1.334 . S
C2725 H2702 0.950 . S
C2725 C2724 1.334 . S
C2725 C2726 1.287 . S
C2726 C2725 1.287 . S
C2726 C2727 1.524 . S
C2726 H2745 0.913 . S
C2727 H2703 0.950 . S
C2727 C2726 1.524 . S
C2727 C2728 1.415 . S
C2728 H2704 0.950 . S
C2728 C2723 1.363 . S
C2728 C2727 1.415 . S
C2729 H2705 0.951 . S
C2729 C2730 1.366 . S
C2729 C2731 1.388 . S
C2730 C2729 1.366 . S
C2730 C2734 1.385 . S
C2731 H2706 0.951 . S
C2731 C2729 1.388 . S
C2731 C2732 1.366 . S
C2732 C2731 1.366 . S
C2732 C2733 1.414 . S
C2732 C2735 1.499 . S
C2733 H2707 0.950 . S
C2733 C2732 1.414 . S
C2733 C2734 1.374 . S
C2734 H2708 0.950 . S
C2734 C2730 1.385 . S
C2734 C2733 1.374 . S
C2735 C2732 1.499 . S
C2735 C2736 1.373 . S
C2735 C2737 1.389 . S
C2736 H2709 0.950 . S
C2736 C2722 1.377 . S
C2736 C2735 1.373 . S
C2737 C2721 1.377 . S
C2737 C2735 1.389 . S
C2737 C2738 1.524 . S
C2738 C2737 1.524 . S
C2738 C2739 1.397 . S
C2738 C2743 1.363 . S
C2739 H2710 0.950 . S
C2739 C2738 1.397 . S
C2739 C2740 1.334 . S
C2740 H2711 0.950 . S
C2740 C2739 1.334 . S
C2740 C2741 1.287 . S
C2741 C2740 1.287 . S
C2741 C2742 1.524 . S
C2741 H2744 0.999 . S
C2742 H2712 0.950 . S
C2742 C2741 1.524 . S
C2742 C2743 1.415 . S
C2743 H2713 0.950 . S
C2743 C2738 1.363 . S
C2743 C2742 1.415 . S
H2744 C2741 0.999 . S
H2745 C2726 0.913 . S
C380 C171 1.477 . S
C365 C9 1.507 . S
C430 C161 1.401 . S
C415 C22 1.412 . S
C480 C162 0.656 . S
C465 C49 0.649 . S
C515 C61 1.339 . S
C530 C184 1.316 . S
C565 C81 1.412 . S
C580 C187 1.401 . S
C630 C170 0.656 . S
C615 C108 0.644 . S
C665 C122 1.339 . S
C680 C160 1.316 . S
C715 C148 1.509 . S
C730 C178 1.479 . S
C780 C191 2.203 . S
C765 C18 2.192 . S
C815 C39 1.377 . S
C830 C240 1.349 . S
C880 C218 2.280 . S
C865 C58 2.270 . S
C930 C232 0.647 . S
C915 C69 0.629 . S
C965 C89 0.628 . S
C980 C193 0.643 . S
C1030 C246 1.333 . S
C1015 C102 1.363 . S
C1065 C139 1.375 . S
C1080 C202 1.349 . S
C1115 C142 1.430 . S
C1130 C223 1.414 . S
C1165 C1 1.430 . S
C1180 C249 1.409 . S
C1215 C98 1.376 . S
C1230 C233 1.350 . S
C1280 C192 2.279 . S
C1265 C119 2.268 . S
C1330 C224 0.648 . S
C1315 C128 0.631 . S
C1365 C159 2.196 . S
C1380 C215 2.206 . S
C1415 C41 1.364 . S
C1430 C222 1.333 . S
C1480 C209 1.349 . S
C1465 C78 1.374 . S
C1515 C28 0.628 . S
C1530 C201 0.643 . S
C1565 C149 1.510 . S
C1580 C264 1.479 . S
C1615 C82 1.412 . S
C1630 C254 1.402 . S
C1680 C255 0.655 . S
C1665 C109 0.649 . S
C1730 C277 1.316 . S
C1715 C121 1.340 . S
C1765 C21 1.412 . S
C1780 C280 1.400 . S
C1830 C263 0.657 . S
C1815 C48 0.645 . S
C1865 C62 1.339 . S
C1880 C253 1.314 . S
C1915 C8 1.510 . S
C1930 C271 1.476 . S
C1965 C158 2.196 . S
C1980 C284 2.205 . S
C2030 C333 1.350 . S
C2015 C99 1.378 . S
C2065 C118 2.269 . S
C2080 C311 2.278 . S
C2115 C129 0.629 . S
C2130 C325 0.650 . S
C2180 C286 0.644 . S
C2165 C29 0.631 . S
C2215 C42 1.364 . S
C2230 C339 1.333 . S
C2280 C295 1.348 . S
C2265 C79 1.373 . S
C2330 C316 1.412 . S
C2315 C2 1.428 . S
C2380 C342 1.411 . S
C2365 C141 1.433 . S
C2415 C38 1.376 . S
C2430 C326 1.347 . S
C2465 C59 2.269 . S
C2480 C285 2.281 . S
C2530 C317 0.647 . S
C2515 C68 0.632 . S
C2565 C19 2.196 . S
C2580 C308 2.202 . S
C2615 C101 1.364 . S
C2630 C315 1.330 . S
C2680 C302 1.348 . S
C2665 C138 1.375 . S
C2730 C294 0.645 . S
C2715 C88 0.627 . S
