# Generated by pormake.
# Topology csq, (4,8)-cn, num edge types: 1
# Building blocks:
#     Node 0, Type 0, BuildingBlock: KOZSID_clean_sbu_0, # of connection points: 4
#     Node 1, Type 0, BuildingBlock: KOZSID_clean_sbu_0, # of connection points: 4
#     Node 2, Type 0, BuildingBlock: KOZSID_clean_sbu_0, # of connection points: 4
#     Node 3, Type 0, BuildingBlock: KOZSID_clean_sbu_0, # of connection points: 4
#     Node 4, Type 0, BuildingBlock: KOZSID_clean_sbu_0, # of connection points: 4
#     Node 5, Type 0, BuildingBlock: KOZSID_clean_sbu_0, # of connection points: 4
#     Node 6, Type 1, BuildingBlock: TAGTUT_clean_sbu_3, # of connection points: 8
#     Node 7, Type 1, BuildingBlock: TAGTUT_clean_sbu_3, # of connection points: 8
#     Node 8, Type 1, BuildingBlock: TAGTUT_clean_sbu_3, # of connection points: 8
#     Edge 9, Type (0, 1), BuildingBlock: XIVTED_clean_linker_0, # of connection points: 2
#     Edge 10, Type (0, 1), BuildingBlock: XIVTED_clean_linker_0, # of connection points: 2
#     Edge 11, Type (0, 1), BuildingBlock: XIVTED_clean_linker_0, # of connection points: 2
#     Edge 12, Type (0, 1), BuildingBlock: XIVTED_clean_linker_0, # of connection points: 2
#     Edge 13, Type (0, 1), BuildingBlock: XIVTED_clean_linker_0, # of connection points: 2
#     Edge 14, Type (0, 1), BuildingBlock: XIVTED_clean_linker_0, # of connection points: 2
#     Edge 15, Type (0, 1), BuildingBlock: XIVTED_clean_linker_0, # of connection points: 2
#     Edge 16, Type (0, 1), BuildingBlock: XIVTED_clean_linker_0, # of connection points: 2
#     Edge 17, Type (0, 1), BuildingBlock: XIVTED_clean_linker_0, # of connection points: 2
#     Edge 18, Type (0, 1), BuildingBlock: XIVTED_clean_linker_0, # of connection points: 2
#     Edge 19, Type (0, 1), BuildingBlock: XIVTED_clean_linker_0, # of connection points: 2
#     Edge 20, Type (0, 1), BuildingBlock: XIVTED_clean_linker_0, # of connection points: 2
#     Edge 21, Type (0, 1), BuildingBlock: XIVTED_clean_linker_0, # of connection points: 2
#     Edge 22, Type (0, 1), BuildingBlock: XIVTED_clean_linker_0, # of connection points: 2
#     Edge 23, Type (0, 1), BuildingBlock: XIVTED_clean_linker_0, # of connection points: 2
#     Edge 24, Type (0, 1), BuildingBlock: XIVTED_clean_linker_0, # of connection points: 2
#     Edge 25, Type (0, 1), BuildingBlock: XIVTED_clean_linker_0, # of connection points: 2
#     Edge 26, Type (0, 1), BuildingBlock: XIVTED_clean_linker_0, # of connection points: 2
#     Edge 27, Type (0, 1), BuildingBlock: XIVTED_clean_linker_0, # of connection points: 2
#     Edge 28, Type (0, 1), BuildingBlock: XIVTED_clean_linker_0, # of connection points: 2
#     Edge 29, Type (0, 1), BuildingBlock: XIVTED_clean_linker_0, # of connection points: 2
#     Edge 30, Type (0, 1), BuildingBlock: XIVTED_clean_linker_0, # of connection points: 2
#     Edge 31, Type (0, 1), BuildingBlock: XIVTED_clean_linker_0, # of connection points: 2
#     Edge 32, Type (0, 1), BuildingBlock: XIVTED_clean_linker_0, # of connection points: 2
# Relax obj value: 0.032
# Max RMSD: 0.125
# Mean RMSD: 0.043
data_MOF--net-csq--node1-KOZSID_clean_sbu_0--node2-TAGTUT_clean_sbu_3--edge1-XIVTED_clean_linker_0
_symmetry_space_group_name_H-M    P1
_symmetry_Int_Tables_number       1
_symmetry_cell_setting            triclinic
loop_
_symmetry_equiv_pos_as_xyz
'x, y, z'
_cell_length_a     57.36458
_cell_length_b     56.53464
_cell_length_c     20.415215
_cell_angle_alpha  87.840723
_cell_angle_beta   97.332208
_cell_angle_gamma 119.91425
loop_
_atom_site_label
_atom_site_type_symbol
_atom_site_fract_x
_atom_site_fract_y
_atom_site_fract_z
_atom_type_partial_charge
C0 C 0.29329 0.52252 0.26042 0.0
C1 C 0.31 0.5506 0.26379 0.0
C2 C 0.29919 0.56073 0.21464 0.0
C3 C 0.27674 0.53824 0.18414 0.0
N4 N 0.27209 0.51448 0.21222 0.0
Co5 Co 0.24453 0.47644 0.17901 0.0
N6 N 0.23228 0.4905 0.09839 0.0
C7 C 0.24115 0.51692 0.08335 0.0
C8 C 0.22777 0.52009 0.02611 0.0
C9 C 0.20888 0.49418 0.00406 0.0
C10 C 0.21191 0.47664 0.04924 0.0
N11 N 0.21788 0.43833 0.14509 0.0
C12 C 0.19956 0.42963 0.09025 0.0
C13 C 0.18486 0.40137 0.0842 0.0
C14 C 0.19392 0.3918 0.13813 0.0
C15 C 0.21359 0.41471 0.17364 0.0
N16 N 0.25618 0.46243 0.26037 0.0
C17 C 0.24534 0.43634 0.2799 0.0
C18 C 0.25839 0.43351 0.33826 0.0
C19 C 0.27919 0.45926 0.35587 0.0
C20 C 0.27751 0.47622 0.30694 0.0
N21 N 0.21647 0.47748 0.22573 0.0
C22 C 0.1785 0.47933 0.29857 0.0
C23 C 0.17883 0.45506 0.29016 0.0
C24 C 0.19777 0.45462 0.25424 0.0
C25 C 0.19693 0.50244 0.2676 0.0
C26 C 0.2154 0.50102 0.23143 0.0
N27 N 0.27259 0.47554 0.13299 0.0
C28 C 0.29823 0.45393 0.11094 0.0
C29 C 0.315 0.47618 0.07474 0.0
C30 C 0.30974 0.49781 0.06717 0.0
C31 C 0.28852 0.49699 0.09597 0.0
C32 C 0.27741 0.45408 0.13966 0.0
H33 H 0.2855 0.51407 0.08811 0.0
H34 H 0.26587 0.43693 0.16838 0.0
H35 H 0.19686 0.43547 0.25069 0.0
H36 H 0.22873 0.51936 0.20912 0.0
C37 C 0.26172 0.53828 0.12454 0.0
C38 C 0.29928 0.50385 0.29959 0.0
C39 C 0.19352 0.44722 0.0465 0.0
C40 C 0.2262 0.41479 0.2371 0.0
H41 H 0.32859 0.56235 0.29653 0.0
H42 H 0.30764 0.58178 0.2003 0.0
H43 H 0.23094 0.53899 0.0039 0.0
H44 H 0.19405 0.4888 0.96066 0.0
H45 H 0.16856 0.38905 0.04603 0.0
H46 H 0.18625 0.3707 0.15133 0.0
H47 H 0.25455 0.41476 0.36242 0.0
H48 H 0.29499 0.46472 0.39711 0.0
H49 H 0.1645 0.43629 0.31122 0.0
H50 H 0.19764 0.5218 0.27234 0.0
H51 H 0.30157 0.43673 0.11869 0.0
H52 H 0.32173 0.51524 0.03837 0.0
C53 C 0.82008 0.27362 0.04865 0.0
C54 C 0.842 0.27285 0.02894 0.0
C55 C 0.83999 0.24872 0.04933 0.0
C56 C 0.8172 0.23625 0.08067 0.0
N57 N 0.80458 0.25102 0.08199 0.0
Co58 Co 0.77121 0.24079 0.1244 0.0
N59 N 0.76636 0.20382 0.14714 0.0
C60 C 0.78264 0.19397 0.13495 0.0
C61 C 0.77301 0.16721 0.15078 0.0
C62 C 0.74893 0.15929 0.17364 0.0
C63 C 0.74536 0.18189 0.17112 0.0
N64 N 0.73797 0.23065 0.16723 0.0
C65 C 0.72012 0.20648 0.19139 0.0
C66 C 0.69963 0.2082 0.21666 0.0
C67 C 0.70428 0.2341 0.20644 0.0
C68 C 0.72734 0.24676 0.17613 0.0
N69 N 0.77564 0.27747 0.09999 0.0
C70 C 0.75983 0.28764 0.11396 0.0
C71 C 0.76689 0.31269 0.08805 0.0
C72 C 0.78837 0.31888 0.05504 0.0
C73 C 0.79338 0.29724 0.06322 0.0
N74 N 0.74832 0.22513 0.0397 0.0
C75 C 0.70939 0.19352 0.93505 0.0
C76 C 0.70689 0.2131 0.96847 0.0
C77 C 0.72656 0.2287 0.02028 0.0
C78 C 0.73309 0.19207 0.9507 0.0
C79 C 0.75232 0.20824 0.00226 0.0
N80 N 0.79422 0.25642 0.21023 0.0
C81 C 0.81017 0.28891 0.30163 0.0
C82 C 0.83114 0.28357 0.32295 0.0
C83 C 0.83208 0.26295 0.29007 0.0
C84 C 0.81345 0.24962 0.23457 0.0
C85 C 0.79205 0.27515 0.24583 0.0
H86 H 0.81564 0.23448 0.21149 0.0
H87 H 0.7771 0.28077 0.2315 0.0
H88 H 0.72321 0.24265 0.04574 0.0
H89 H 0.76962 0.20574 0.01315 0.0
C90 C 0.80603 0.20987 0.10484 0.0
C91 C 0.81479 0.29614 0.03391 0.0
C92 C 0.72127 0.18127 0.18979 0.0
C93 C 0.73793 0.27275 0.14972 0.0
H94 H 0.85772 0.28803 0.00199 0.0
H95 H 0.85324 0.24094 0.04105 0.0
H96 H 0.78198 0.15468 0.14436 0.0
H97 H 0.7353 0.13893 0.18883 0.0
H98 H 0.68272 0.19222 0.23891 0.0
H99 H 0.6918 0.24241 0.2177 0.0
H100 H 0.75722 0.32477 0.09164 0.0
H101 H 0.79887 0.33712 0.02732 0.0
H102 H 0.68937 0.2157 0.95649 0.0
H103 H 0.7362 0.17737 0.92627 0.0
H104 H 0.80863 0.30481 0.32537 0.0
H105 H 0.8477 0.25775 0.30567 0.0
C106 C 0.55401 0.73801 0.12862 0.0
C107 C 0.57767 0.74112 0.16451 0.0
C108 C 0.59798 0.76646 0.15184 0.0
C109 C 0.5857 0.77731 0.10879 0.0
N110 N 0.55877 0.76032 0.09258 0.0
Co111 Co 0.53309 0.768 0.03166 0.0
N112 N 0.56258 0.8062 0.01734 0.0
C113 C 0.58885 0.81824 0.04458 0.0
C114 C 0.60453 0.84419 0.02379 0.0
C115 C 0.58736 0.84903 0.98034 0.0
C116 C 0.56201 0.82569 0.97733 0.0
N117 N 0.50742 0.77554 0.97037 0.0
C118 C 0.51201 0.79793 0.93497 0.0
C119 C 0.48831 0.79461 0.89864 0.0
C120 C 0.46821 0.76906 0.91023 0.0
C121 C 0.48062 0.75832 0.95313 0.0
N122 N 0.50354 0.72987 0.04634 0.0
C123 C 0.47724 0.71792 0.01948 0.0
C124 C 0.46135 0.69223 0.04123 0.0
C125 C 0.47838 0.68746 0.08522 0.0
C126 C 0.5039 0.71057 0.08739 0.0
N127 N 0.52445 0.78131 0.1084 0.0
C128 C 0.51279 0.79929 0.22026 0.0
C129 C 0.49197 0.78149 0.17284 0.0
C130 C 0.49822 0.77295 0.11755 0.0
C131 C 0.53948 0.80774 0.2107 0.0
C132 C 0.54476 0.79854 0.15521 0.0
N133 N 0.5419 0.75463 0.95532 0.0
C134 C 0.52762 0.72358 0.86166 0.0
C135 C 0.55452 0.73136 0.85594 0.0
C136 C 0.57499 0.75246 0.8974 0.0
C137 C 0.56828 0.76365 0.94638 0.0
C138 C 0.52183 0.73556 0.91103 0.0
H139 H 0.58487 0.77902 0.97742 0.0
H140 H 0.50096 0.72844 0.91371 0.0
H141 H 0.48151 0.75963 0.08292 0.0
H142 H 0.56551 0.80582 0.15121 0.0
C143 C 0.59856 0.80392 0.08593 0.0
C144 C 0.52752 0.71365 0.13126 0.0
C145 C 0.5383 0.8227 0.93392 0.0
C146 C 0.46772 0.73196 0.97692 0.0
H147 H 0.57997 0.72668 0.19715 0.0
H148 H 0.61909 0.77605 0.1726 0.0
H149 H 0.62606 0.85768 0.03716 0.0
H150 H 0.59305 0.86747 0.95288 0.0
H151 H 0.48574 0.80907 0.86674 0.0
H152 H 0.4471 0.75937 0.88943 0.0
H153 H 0.43978 0.67888 0.02816 0.0
H154 H 0.47238 0.66923 0.11362 0.0
H155 H 0.47093 0.77423 0.17803 0.0
H156 H 0.55644 0.82208 0.24484 0.0
H157 H 0.51096 0.70723 0.83081 0.0
H158 H 0.59616 0.75962 0.89386 0.0
C159 C 0.83648 0.57858 0.1445 0.0
C160 C 0.85721 0.60559 0.14657 0.0
C161 C 0.84799 0.61924 0.10432 0.0
C162 C 0.8224 0.59984 0.07851 0.0
N163 N 0.81435 0.57474 0.10309 0.0
Co164 Co 0.78038 0.53981 0.07244 0.0
N165 N 0.76864 0.55899 0.00278 0.0
C166 C 0.78141 0.5861 0.99175 0.0
C167 C 0.76749 0.59362 0.94408 0.0
C168 C 0.74415 0.57002 0.92428 0.0
C169 C 0.74527 0.54931 0.96095 0.0
N170 N 0.74704 0.50464 0.04015 0.0
C171 C 0.72613 0.50001 0.99326 0.0
C172 C 0.70685 0.47248 0.98623 0.0
C173 C 0.71562 0.45928 0.03136 0.0
C174 C 0.73971 0.4794 0.06296 0.0
N175 N 0.79155 0.52079 0.14354 0.0
C176 C 0.77736 0.49433 0.15985 0.0
C177 C 0.79068 0.48723 0.21032 0.0
C178 C 0.81508 0.51038 0.226 0.0
C179 C 0.81525 0.53022 0.18359 0.0
N180 N 0.75995 0.54637 0.13415 0.0
C181 C 0.72622 0.55431 0.20829 0.0
C182 C 0.7229 0.5284 0.20001 0.0
C183 C 0.74 0.52496 0.16366 0.0
C184 C 0.74768 0.57648 0.18243 0.0
C185 C 0.76419 0.57207 0.14563 0.0
N186 N 0.80095 0.53338 0.01128 0.0
C187 C 0.82127 0.50746 0.98118 0.0
C188 C 0.83808 0.5287 0.94281 0.0
C189 C 0.8345 0.55141 0.93548 0.0
C190 C 0.81592 0.55329 0.96973 0.0
C191 C 0.80277 0.51009 0.01417 0.0
H192 H 0.81465 0.57143 0.96346 0.0
H193 H 0.79088 0.49345 0.04368 0.0
H194 H 0.73617 0.50465 0.15888 0.0
H195 H 0.77973 0.5897 0.12565 0.0
C196 C 0.8063 0.60403 0.02757 0.0
C197 C 0.83921 0.5568 0.17859 0.0
C198 C 0.72304 0.52109 0.95676 0.0
C199 C 0.75396 0.4758 0.11965 0.0
H200 H 0.87731 0.61443 0.17367 0.0
H201 H 0.8591 0.64048 0.09155 0.0
H202 H 0.77334 0.61395 0.92684 0.0
H203 H 0.72788 0.56841 0.88805 0.0
H204 H 0.688 0.46307 0.95331 0.0
H205 H 0.70507 0.43776 0.04193 0.0
H206 H 0.78419 0.4672 0.23035 0.0
H207 H 0.83143 0.5121 0.26213 0.0
H208 H 0.70682 0.51071 0.22058 0.0
H209 H 0.75101 0.59696 0.18808 0.0
H210 H 0.82306 0.48932 0.9881 0.0
H211 H 0.84634 0.56799 0.90437 0.0
C212 C 0.26655 0.82458 0.18056 0.0
C213 C 0.26375 0.84448 0.21075 0.0
C214 C 0.23823 0.83974 0.18933 0.0
C215 C 0.22684 0.81721 0.14783 0.0
N216 N 0.24346 0.80708 0.1419 0.0
Co217 Co 0.23499 0.77436 0.08725 0.0
N218 N 0.19812 0.7686 0.05183 0.0
C219 C 0.18711 0.78379 0.06633 0.0
C220 C 0.16166 0.77511 0.03368 0.0
C221 C 0.15602 0.75302 0.99601 0.0
C222 C 0.17842 0.74946 0.00816 0.0
N223 N 0.22656 0.7416 0.03283 0.0
C224 C 0.20408 0.7249 0.99146 0.0
C225 C 0.20633 0.70395 0.96479 0.0
C226 C 0.23115 0.70769 0.98964 0.0
C227 C 0.24255 0.73045 0.03016 0.0
N228 N 0.27199 0.78028 0.12187 0.0
C229 C 0.28294 0.76503 0.1073 0.0
C230 C 0.30924 0.77497 0.13492 0.0
C231 C 0.31566 0.79809 0.16898 0.0
C232 C 0.29265 0.80077 0.16076 0.0
N233 N 0.2196 0.7505 0.16255 0.0
C234 C 0.1982 0.71733 0.27084 0.0
C235 C 0.21742 0.71568 0.23841 0.0
C236 C 0.22761 0.73215 0.1847 0.0
C237 C 0.18998 0.73597 0.24799 0.0
C238 C 0.2009 0.75223 0.19465 0.0
N239 N 0.25045 0.79837 0.01283 0.0
C240 C 0.28371 0.81616 0.93632 0.0
C241 C 0.27905 0.83793 0.92294 0.0
C242 C 0.2585 0.83855 0.9511 0.0
C243 C 0.24455 0.81869 0.99586 0.0
C244 C 0.26891 0.79644 0.98028 0.0
H245 H 0.22988 0.82085 0.01803 0.0
H246 H 0.27345 0.7804 0.98906 0.0
H247 H 0.24193 0.72961 0.162 0.0
H248 H 0.19369 0.7659 0.18023 0.0
C249 C 0.20113 0.80592 0.11142 0.0
C250 C 0.29165 0.82345 0.18945 0.0
C251 C 0.17992 0.72754 0.97717 0.0
C252 C 0.26843 0.74212 0.06511 0.0
H253 H 0.2787 0.86091 0.2443 0.0
H254 H 0.2292 0.85158 0.2017 0.0
H255 H 0.14875 0.78379 0.03696 0.0
H256 H 0.1375 0.74086 0.96331 0.0
H257 H 0.19156 0.68747 0.93115 0.0
H258 H 0.23985 0.69528 0.97938 0.0
H259 H 0.32238 0.76674 0.12958 0.0
H260 H 0.33531 0.81164 0.19574 0.0
H261 H 0.22475 0.70181 0.25435 0.0
H262 H 0.17472 0.73773 0.27014 0.0
H263 H 0.29936 0.8149 0.91465 0.0
H264 H 0.25435 0.85518 0.94179 0.0
C265 C 0.4956 0.21757 0.25955 0.0
C266 C 0.52025 0.22362 0.29562 0.0
C267 C 0.53929 0.24797 0.27414 0.0
C268 C 0.52531 0.25529 0.22612 0.0
N269 N 0.49838 0.2373 0.21613 0.0
Co270 Co 0.4709 0.23904 0.14758 0.0
N271 N 0.49912 0.27446 0.11462 0.0
C272 C 0.52562 0.28905 0.13951 0.0
C273 C 0.54021 0.31222 0.10588 0.0
C274 C 0.52196 0.31263 0.0568 0.0
C275 C 0.49706 0.28967 0.06365 0.0
N276 N 0.44362 0.24009 0.07709 0.0
C277 C 0.44679 0.25837 0.02912 0.0
C278 C 0.42241 0.25114 0.98997 0.0
C279 C 0.40328 0.22732 0.01337 0.0
C280 C 0.41691 0.2214 0.06541 0.0
N281 N 0.44249 0.20424 0.1823 0.0
C282 C 0.41552 0.19113 0.16217 0.0
C283 C 0.40102 0.16808 0.19645 0.0
C284 C 0.41988 0.16626 0.24098 0.0
C285 C 0.44488 0.18831 0.23084 0.0
N286 N 0.46359 0.25985 0.21046 0.0
C287 C 0.4538 0.28986 0.29966 0.0
C288 C 0.43273 0.2706 0.25527 0.0
C289 C 0.43801 0.25586 0.21163 0.0
C290 C 0.47974 0.29364 0.29904 0.0
C291 C 0.48415 0.27868 0.25436 0.0
N292 N 0.47827 0.21825 0.08508 0.0
C293 C 0.46283 0.17874 0.01362 0.0
C294 C 0.48909 0.18842 0.99882 0.0
C295 C 0.50982 0.21319 0.02705 0.0
C296 C 0.50406 0.22757 0.07027 0.0
C297 C 0.45782 0.19406 0.05609 0.0
H298 H 0.52089 0.24604 0.09147 0.0
H299 H 0.4373 0.18589 0.06503 0.0
H300 H 0.42108 0.24154 0.17906 0.0
H301 H 0.50449 0.28307 0.25589 0.0
C302 C 0.53678 0.27906 0.19018 0.0
C303 C 0.47035 0.19235 0.26617 0.0
C304 C 0.47216 0.28321 0.02019 0.0
C305 C 0.40485 0.19949 0.10689 0.0
H306 H 0.5242 0.21156 0.333 0.0
H307 H 0.56082 0.25891 0.29104 0.0
H308 H 0.56173 0.32666 0.11477 0.0
H309 H 0.52663 0.32796 0.01959 0.0
H310 H 0.41865 0.2621 0.94927 0.0
H311 H 0.38187 0.21596 0.99542 0.0
H312 H 0.37943 0.15385 0.18861 0.0
H313 H 0.41583 0.1502 0.27597 0.0
H314 H 0.41226 0.26694 0.25401 0.0
H315 H 0.49687 0.30878 0.33144 0.0
H316 H 0.44626 0.15949 0.99238 0.0
H317 H 0.53048 0.22114 0.01689 0.0
C318 C 0.04614 0.47921 0.57931 0.0
C319 C 0.03115 0.43904 0.81782 0.0
C320 C 0.95579 0.43895 0.7825 0.0
Mg321 Mg 0.02298 0.51628 0.50215 0.0
Mg322 Mg 0.01528 0.55916 0.58932 0.0
O323 O 0.00484 0.52249 0.5723 0.0
Mg324 Mg 0.013 0.50283 0.64646 0.0
O325 O 0.02091 0.48116 0.71638 0.0
Mg326 Mg 0.99843 0.44347 0.67396 0.0
Mg327 Mg 0.01473 0.48407 0.80285 0.0
C328 C 0.98165 0.53001 0.70907 0.0
O329 O 0.0451 0.54203 0.70617 0.0
O330 O 0.00108 0.5347 0.43071 0.0
O331 O 0.0368 0.52849 0.81047 0.0
O332 O 0.06069 0.55875 0.51737 0.0
O333 O 0.99691 0.56357 0.49535 0.0
O334 O 0.05837 0.58574 0.58951 0.0
O335 O 0.9808 0.46267 0.59571 0.0
O336 O 0.98632 0.47302 0.49013 0.0
C337 C 0.97469 0.45587 0.53433 0.0
C338 C 0.99331 0.5521 0.43911 0.0
O339 O 0.9835 0.5085 0.70187 0.0
O340 O 0.02021 0.4302 0.75838 0.0
O341 O 0.99431 0.55178 0.67636 0.0
O342 O 0.96261 0.42999 0.73604 0.0
O343 O 0.03141 0.4594 0.84439 0.0
O344 O 0.97223 0.46192 0.81166 0.0
O345 O 0.042 0.49931 0.58477 0.0
O346 O 0.03335 0.45725 0.61088 0.0
C347 C 0.07147 0.58122 0.55043 0.0
C348 C 0.0481 0.54717 0.76861 0.0
C349 C 0.49639 0.04089 0.45667 0.0
C350 C 0.57246 0.02274 0.38854 0.0
C351 C 0.52249 0.94294 0.47601 0.0
Mg352 Mg 0.4612 0.01697 0.58001 0.0
Mg353 Mg 0.4871 0.00036 0.71384 0.0
O354 O 0.47663 0.99413 0.62303 0.0
Mg355 Mg 0.50549 0.0022 0.56666 0.0
O356 O 0.53262 0.01059 0.50485 0.0
Mg357 Mg 0.50754 0.99185 0.42261 0.0
Mg358 Mg 0.55925 0.00069 0.52946 0.0
C359 C 0.51496 0.96589 0.68671 0.0
O360 O 0.54121 0.03228 0.64032 0.0
O361 O 0.42685 0.99452 0.64883 0.0
O362 O 0.57408 0.02304 0.62346 0.0
O363 O 0.48446 0.05263 0.65811 0.0
O364 O 0.44709 0.98423 0.73864 0.0
O365 O 0.5078 0.04272 0.73897 0.0
O366 O 0.47232 0.97304 0.48773 0.0
O367 O 0.43976 0.98271 0.50106 0.0
C368 C 0.44854 0.96975 0.47119 0.0
C369 C 0.42636 0.98408 0.70625 0.0
O370 O 0.51274 0.96915 0.62375 0.0
O371 O 0.54711 0.01414 0.36962 0.0
O372 O 0.50837 0.97767 0.72738 0.0
O373 O 0.51114 0.95345 0.43705 0.0
O374 O 0.58106 0.01901 0.44691 0.0
O375 O 0.54125 0.95704 0.52215 0.0
O376 O 0.4972 0.03497 0.51786 0.0
O377 O 0.50158 0.0288 0.41367 0.0
C378 C 0.50099 0.05931 0.71141 0.0
C379 C 0.56514 0.03551 0.65503 0.0
C380 C 0.53374 0.56345 0.69996 0.0
C381 C 0.45219 0.48016 0.80944 0.0
C382 C 0.48393 0.43411 0.73369 0.0
Mg383 Mg 0.55852 0.56179 0.56827 0.0
Mg384 Mg 0.51935 0.51648 0.45127 0.0
O385 O 0.5354 0.52225 0.53941 0.0
Mg386 Mg 0.51022 0.50901 0.60837 0.0
O387 O 0.48651 0.49775 0.67982 0.0
Mg388 Mg 0.51359 0.5028 0.75818 0.0
Mg389 Mg 0.45525 0.46297 0.66773 0.0
C390 C 0.48551 0.4567 0.50521 0.0
O391 O 0.47541 0.50853 0.54069 0.0
O392 O 0.58555 0.56439 0.48853 0.0
O393 O 0.43926 0.47013 0.57022 0.0
O394 O 0.5366 0.57779 0.4915 0.0
O395 O 0.55692 0.53192 0.41155 0.0
O396 O 0.50488 0.54433 0.42333 0.0
O397 O 0.54358 0.50873 0.68249 0.0
O398 O 0.57877 0.54511 0.64535 0.0
C399 C 0.56918 0.52522 0.68491 0.0
C400 C 0.58069 0.55106 0.43397 0.0
O401 O 0.49289 0.46521 0.56601 0.0
O402 O 0.47831 0.49465 0.82098 0.0
O403 O 0.49145 0.47292 0.45644 0.0
O404 O 0.50012 0.4574 0.76184 0.0
O405 O 0.43987 0.46677 0.75479 0.0
O406 O 0.46552 0.4311 0.68697 0.0
O407 O 0.52808 0.55292 0.6419 0.0
O408 O 0.52846 0.54863 0.75102 0.0
C409 C 0.51739 0.5692 0.44356 0.0
C410 C 0.45015 0.49052 0.53224 0.0
H411 H 0.16182 0.45219 0.4126 0.0
H412 H 0.07196 0.51764 0.4869 0.0
H413 H 0.15212 0.50937 0.28174 0.0
H414 H 0.06583 0.44438 0.5748 0.0
H415 H 0.10476 0.51887 0.41811 0.0
H416 H 0.13011 0.45304 0.47954 0.0
C417 C 0.15288 0.46477 0.39739 0.0
C418 C 0.15953 0.48044 0.34058 0.0
C419 C 0.09613 0.50255 0.45246 0.0
C420 C 0.12337 0.48198 0.41869 0.0
C421 C 0.07748 0.50187 0.49184 0.0
C422 C 0.06601 0.48084 0.5367 0.0
C423 C 0.10357 0.48226 0.45868 0.0
C424 C 0.07394 0.46093 0.54084 0.0
C425 C 0.13484 0.46538 0.43609 0.0
C426 C 0.14781 0.49704 0.32518 0.0
N427 N 0.09221 0.46221 0.50266 0.0
N428 N 0.13029 0.49736 0.36396 0.0
H429 H 0.66881 0.15217 0.13075 0.0
H430 H 0.62596 0.03744 0.40386 0.0
H431 H 0.72257 0.15226 0.2987 0.0
H432 H 0.5669 0.04984 0.27729 0.0
H433 H 0.66185 0.07388 0.34918 0.0
H434 H 0.63154 0.11016 0.16983 0.0
C435 C 0.67271 0.14316 0.1756 0.0
C436 C 0.6987 0.15542 0.2115 0.0
C437 C 0.64104 0.0685 0.33284 0.0
C438 C 0.65658 0.10757 0.25591 0.0
C439 C 0.62043 0.04754 0.36382 0.0
C440 C 0.59328 0.04071 0.34584 0.0
C441 C 0.63464 0.08291 0.28319 0.0
C442 C 0.58751 0.05442 0.29297 0.0
C443 C 0.65155 0.11929 0.19779 0.0
C444 C 0.70284 0.14321 0.26939 0.0
N445 N 0.60807 0.0751 0.26391 0.0
N446 N 0.68205 0.11993 0.28967 0.0
H447 H 0.51477 0.66135 0.10347 0.0
H448 H 0.53532 0.62273 0.47664 0.0
H449 H 0.53349 0.71683 0.26624 0.0
H450 H 0.49052 0.56232 0.31858 0.0
H451 H 0.53595 0.65788 0.40189 0.0
H452 H 0.50814 0.62526 0.18207 0.0
C453 C 0.51747 0.66583 0.15592 0.0
C454 C 0.52449 0.6919 0.17869 0.0
C455 C 0.52566 0.63686 0.3839 0.0
C456 C 0.51722 0.65099 0.26885 0.0
C457 C 0.5252 0.61675 0.42661 0.0
C458 C 0.51303 0.5895 0.40381 0.0
C459 C 0.51425 0.62978 0.31764 0.0
C460 C 0.50019 0.58301 0.33843 0.0
C461 C 0.51357 0.64527 0.2007 0.0
C462 C 0.52803 0.6969 0.24701 0.0
N463 N 0.50152 0.60305 0.29742 0.0
N464 N 0.52448 0.67665 0.28982 0.0
H465 H 0.87335 0.59018 0.28227 0.0
H466 H 0.96453 0.521 0.32592 0.0
H467 H 0.86528 0.53175 0.13886 0.0
H468 H 0.98498 0.59549 0.4289 0.0
H469 H 0.93034 0.52595 0.25094 0.0
H470 H 0.91595 0.59365 0.33302 0.0
C471 C 0.88093 0.57848 0.26093 0.0
C472 C 0.86618 0.56092 0.2062 0.0
C473 C 0.9427 0.54145 0.28924 0.0
C474 C 0.91432 0.56403 0.26471 0.0
C475 C 0.96229 0.53869 0.33182 0.0
C476 C 0.97721 0.55754 0.38456 0.0
C477 C 0.93802 0.56308 0.30004 0.0
C478 C 0.9735 0.58011 0.38984 0.0
C479 C 0.90516 0.58037 0.2898 0.0
C480 C 0.87634 0.54561 0.18103 0.0
N481 N 0.95401 0.58201 0.34887 0.0
N482 N 0.8997 0.54727 0.21096 0.0
H483 H 0.31831 0.81939 0.30614 0.0
H484 H 0.41444 0.97607 0.37696 0.0
H485 H 0.32087 0.8771 0.15919 0.0
H486 H 0.43986 0.91857 0.44719 0.0
H487 H 0.37793 0.94055 0.30167 0.0
H488 H 0.36032 0.85567 0.36652 0.0
C489 C 0.32782 0.83976 0.28682 0.0
C490 C 0.3164 0.84544 0.22781 0.0
C491 C 0.39177 0.93585 0.33277 0.0
C492 C 0.36385 0.8868 0.29644 0.0
C493 C 0.41253 0.95603 0.37562 0.0
C494 C 0.42999 0.95006 0.41819 0.0
C495 C 0.388 0.90937 0.33412 0.0
C496 C 0.4268 0.92389 0.41479 0.0
C497 C 0.35176 0.86031 0.32083 0.0
C498 C 0.32917 0.87209 0.2047 0.0
N499 N 0.40576 0.90423 0.37433 0.0
N500 N 0.35216 0.89194 0.23947 0.0
H501 H 0.47455 0.30559 0.42935 0.0
H502 H 0.44857 0.43016 0.39874 0.0
H503 H 0.42373 0.31488 0.26761 0.0
H504 H 0.49013 0.41631 0.57424 0.0
H505 H 0.43245 0.38376 0.35943 0.0
H506 H 0.4742 0.34145 0.49183 0.0
C507 C 0.463 0.31492 0.40737 0.0
C508 C 0.44957 0.30761 0.34268 0.0
C509 C 0.44471 0.39059 0.40707 0.0
C510 C 0.44913 0.34867 0.41376 0.0
C511 C 0.45394 0.41712 0.42948 0.0
C512 C 0.47117 0.42719 0.48907 0.0
C513 C 0.45325 0.37417 0.44382 0.0
C514 C 0.4771 0.40936 0.52762 0.0
C515 C 0.4627 0.33529 0.44319 0.0
C516 C 0.43444 0.31991 0.31718 0.0
N517 N 0.46866 0.38384 0.50358 0.0
N518 N 0.43503 0.34016 0.35233 0.0
H519 H 0.5319 0.82474 0.79874 0.0
H520 H 0.54193 0.97092 0.8087 0.0
H521 H 0.54833 0.87242 0.97578 0.0
H522 H 0.5109 0.91967 0.63173 0.0
H523 H 0.55227 0.93805 0.86498 0.0
H524 H 0.53096 0.86163 0.7323 0.0
C525 C 0.53564 0.84318 0.82335 0.0
C526 C 0.5402 0.84572 0.89259 0.0
C527 C 0.54336 0.93393 0.81374 0.0
C528 C 0.53927 0.88776 0.81758 0.0
C529 C 0.53747 0.95275 0.78143 0.0
C530 C 0.52506 0.94779 0.71574 0.0
C531 C 0.53666 0.90966 0.78059 0.0
C532 C 0.5203 0.92418 0.68255 0.0
C533 C 0.53506 0.86412 0.78561 0.0
C534 C 0.54486 0.86981 0.92248 0.0
N535 N 0.52577 0.90572 0.7157 0.0
N536 N 0.5442 0.88983 0.88485 0.0
H537 H 0.71188 0.51579 0.82313 0.0
H538 H 0.56417 0.49962 0.80484 0.0
H539 H 0.6758 0.51131 0.99899 0.0
H540 H 0.61863 0.53715 0.65736 0.0
H541 H 0.5992 0.49266 0.87194 0.0
H542 H 0.67117 0.51116 0.75587 0.0
C543 C 0.69509 0.51338 0.84726 0.0
C544 C 0.69703 0.51421 0.91615 0.0
C545 C 0.60323 0.50226 0.82466 0.0
C546 C 0.65071 0.50913 0.84034 0.0
C547 C 0.58334 0.50621 0.78652 0.0
C548 C 0.58873 0.51937 0.72609 0.0
C549 C 0.62817 0.51095 0.80097 0.0
C550 C 0.61378 0.52737 0.70421 0.0
C551 C 0.67198 0.51086 0.80916 0.0
C552 C 0.67486 0.51091 0.94571 0.0
N553 N 0.63247 0.52301 0.7415 0.0
N554 N 0.65258 0.50876 0.90755 0.0
H555 H 0.17064 0.71663 0.8442 0.0
H556 H 0.04593 0.56755 0.88494 0.0
H557 H 0.13489 0.68766 0.02436 0.0
H558 H 0.08667 0.59197 0.71016 0.0
H559 H 0.0735 0.61408 0.92938 0.0
H560 H 0.13477 0.67422 0.78658 0.0
C561 C 0.15475 0.70153 0.87096 0.0
C562 C 0.15554 0.70527 0.93881 0.0
C563 C 0.07636 0.60938 0.88113 0.0
C564 C 0.11503 0.65691 0.87431 0.0
C565 C 0.06071 0.58272 0.8558 0.0
C566 C 0.06424 0.57575 0.794 0.0
C567 C 0.0959 0.62932 0.84475 0.0
C568 C 0.0833 0.59645 0.75798 0.0
C569 C 0.13448 0.67733 0.8384 0.0
C570 C 0.13481 0.68531 0.97193 0.0
N571 N 0.09863 0.62229 0.7842 0.0
N572 N 0.11553 0.66181 0.93949 0.0
H573 H 0.4912 0.14248 0.02981 0.0
H574 H 0.49324 0.10187 0.66861 0.0
H575 H 0.50075 0.19811 0.87187 0.0
H576 H 0.52445 0.07396 0.83936 0.0
H577 H 0.49504 0.1371 0.73879 0.0
H578 H 0.50095 0.11542 0.95826 0.0
C579 C 0.49541 0.14891 0.97993 0.0
C580 C 0.49509 0.17227 0.9561 0.0
C581 C 0.50197 0.12356 0.76044 0.0
C582 C 0.50608 0.14165 0.87424 0.0
C583 C 0.501 0.10349 0.72046 0.0
C584 C 0.50825 0.08459 0.74831 0.0
C585 C 0.50971 0.12433 0.82873 0.0
C586 C 0.51834 0.08782 0.81576 0.0
C587 C 0.50116 0.13368 0.93938 0.0
C588 C 0.50076 0.18005 0.89146 0.0
N589 N 0.5182 0.10688 0.85392 0.0
N590 N 0.50571 0.16453 0.85222 0.0
H591 H 0.36645 0.51934 0.06734 0.0
H592 H 0.40297 0.43755 0.82787 0.0
H593 H 0.31474 0.43406 0.01176 0.0
H594 H 0.46146 0.51883 0.90382 0.0
H595 H 0.37138 0.43599 0.89901 0.0
H596 H 0.40204 0.51992 0.01112 0.0
C597 C 0.36256 0.50073 0.04337 0.0
C598 C 0.33743 0.47663 0.04397 0.0
C599 C 0.39116 0.45414 0.90083 0.0
C600 C 0.37819 0.47715 0.97994 0.0
C601 C 0.40926 0.45506 0.86007 0.0
C602 C 0.43486 0.47845 0.85952 0.0
C603 C 0.39838 0.47693 0.94112 0.0
C604 C 0.44195 0.50038 0.90281 0.0
C605 C 0.38298 0.50105 0.01173 0.0
C606 C 0.33378 0.45305 0.0131 0.0
N607 N 0.42365 0.49924 0.94134 0.0
N608 N 0.3538 0.45398 0.98205 0.0
H609 H 0.81787 0.29288 0.90245 0.0
H610 H 0.93696 0.44824 0.89027 0.0
H611 H 0.85115 0.34957 0.06905 0.0
H612 H 0.91625 0.38715 0.73901 0.0
H613 H 0.8997 0.41454 0.94735 0.0
H614 H 0.84855 0.32907 0.83427 0.0
C615 C 0.83151 0.31309 0.92429 0.0
C616 C 0.83205 0.31841 0.99114 0.0
C617 C 0.90314 0.40859 0.90131 0.0
C618 C 0.86705 0.35983 0.91393 0.0
C619 C 0.92434 0.42789 0.86835 0.0
C620 C 0.9301 0.42049 0.81006 0.0
C621 C 0.88741 0.38166 0.87582 0.0
C622 C 0.91281 0.39378 0.78407 0.0
C623 C 0.84899 0.33369 0.88557 0.0
C624 C 0.85009 0.3448 0.0175 0.0
N625 N 0.89245 0.37528 0.81744 0.0
N626 N 0.8669 0.36452 0.97888 0.0
H627 H 0.83696 0.48453 0.88643 0.0
H628 H 0.98202 0.57349 0.7637 0.0
H629 H 0.88931 0.57069 0.93215 0.0
H630 H 0.93859 0.48535 0.75483 0.0
H631 H 0.94812 0.57259 0.82604 0.0
H632 H 0.87359 0.48401 0.83803 0.0
C633 C 0.85615 0.50331 0.88663 0.0
C634 C 0.85991 0.52777 0.91286 0.0
C635 C 0.94608 0.55342 0.81103 0.0
C636 C 0.9018 0.52731 0.85705 0.0
C637 C 0.96544 0.55392 0.77533 0.0
C638 C 0.96301 0.52946 0.75356 0.0
C639 C 0.9239 0.52828 0.82448 0.0
C640 C 0.94125 0.5047 0.77068 0.0
C641 C 0.87704 0.50298 0.8589 0.0
C642 C 0.88519 0.55149 0.91114 0.0
N643 N 0.92232 0.50473 0.80451 0.0
N644 N 0.90507 0.55069 0.88344 0.0
H645 H 0.26829 0.86005 0.80855 0.0
H646 H 0.42119 0.98215 0.83614 0.0
H647 H 0.33261 0.86983 0.95923 0.0
H648 H 0.37416 0.9522 0.6451 0.0
H649 H 0.38226 0.94914 0.88867 0.0
H650 H 0.30153 0.90043 0.75346 0.0
C651 C 0.28937 0.87076 0.82983 0.0
C652 C 0.298 0.86163 0.88773 0.0
C653 C 0.38028 0.95004 0.83526 0.0
C654 C 0.33538 0.90767 0.82712 0.0
C655 C 0.4024 0.96896 0.80527 0.0
C656 C 0.40095 0.96952 0.73624 0.0
C657 C 0.3565 0.93138 0.79607 0.0
C658 C 0.37604 0.95226 0.69856 0.0
C659 C 0.30817 0.89365 0.79867 0.0
C660 C 0.32533 0.8761 0.91409 0.0
N661 N 0.35476 0.93341 0.72903 0.0
N662 N 0.34301 0.89845 0.88375 0.0
H663 H 0.4618 0.27739 0.88471 0.0
H664 H 0.52054 0.43461 0.83324 0.0
H665 H 0.48319 0.33485 0.04507 0.0
H666 H 0.44929 0.37903 0.70308 0.0
H667 H 0.51697 0.39622 0.89778 0.0
H668 H 0.46495 0.31273 0.80545 0.0
C669 C 0.467 0.29738 0.90299 0.0
C670 C 0.47235 0.30343 0.9712 0.0
C671 C 0.50231 0.39245 0.85462 0.0
C672 C 0.4768 0.34361 0.88191 0.0
C673 C 0.50434 0.4143 0.81738 0.0
C674 C 0.4848 0.41017 0.76321 0.0
C675 C 0.48094 0.3661 0.83725 0.0
C676 C 0.4646 0.38319 0.74486 0.0
C677 C 0.46881 0.31738 0.85803 0.0
C678 C 0.47912 0.32955 0.99281 0.0
N679 N 0.46303 0.36204 0.78224 0.0
N680 N 0.48153 0.34881 0.9483 0.0
H681 H 0.1744 0.43248 0.9164 0.0
H682 H 0.04201 0.43773 0.95126 0.0
H683 H 0.14983 0.43784 0.1034 0.0
H684 H 0.05746 0.41603 0.76767 0.0
H685 H 0.07744 0.43033 0.01 0.0
H686 H 0.12879 0.41983 0.86212 0.0
C687 C 0.15913 0.43055 0.94583 0.0
C688 C 0.16556 0.43646 0.01378 0.0
C689 C 0.07278 0.42662 0.95702 0.0
C690 C 0.11389 0.4223 0.95306 0.0
C691 C 0.05252 0.43083 0.92352 0.0
C692 C 0.04721 0.42797 0.8545 0.0
C693 C 0.08825 0.42014 0.92101 0.0
C694 C 0.06112 0.41866 0.82094 0.0
C695 C 0.13318 0.42327 0.91518 0.0
C696 C 0.14542 0.43363 0.05058 0.0
N697 N 0.08151 0.4157 0.8544 0.0
N698 N 0.12052 0.4271 0.01958 0.0
H699 H 0.65497 0.16914 0.94485 0.0
H700 H 0.61701 0.04781 0.69944 0.0
H701 H 0.71153 0.17005 0.82225 0.0
H702 H 0.55821 0.07256 0.72137 0.0
H703 H 0.65131 0.08769 0.76597 0.0
H704 H 0.61827 0.13007 0.87913 0.0
C705 C 0.65968 0.16155 0.90347 0.0
C706 C 0.68652 0.17281 0.88951 0.0
C707 C 0.6308 0.08418 0.75651 0.0
C708 C 0.64483 0.12757 0.81655 0.0
C709 C 0.61112 0.06133 0.719 0.0
C710 C 0.58459 0.05681 0.70446 0.0
C711 C 0.62387 0.10244 0.78051 0.0
C712 C 0.57825 0.07505 0.73173 0.0
C713 C 0.63874 0.13909 0.86659 0.0
C714 C 0.69134 0.16167 0.83598 0.0
N715 N 0.59783 0.09719 0.76853 0.0
N716 N 0.67073 0.13939 0.80203 0.0
H717 H 0.53062 0.70866 0.73136 0.0
H718 H 0.56802 0.59512 0.80482 0.0
H719 H 0.59254 0.71588 0.88698 0.0
H720 H 0.52732 0.59899 0.61529 0.0
H721 H 0.58237 0.64273 0.82745 0.0
H722 H 0.53394 0.67253 0.67838 0.0
C723 C 0.5453 0.70307 0.75362 0.0
C724 C 0.56085 0.71486 0.81448 0.0
C725 C 0.57073 0.63343 0.78032 0.0
C726 C 0.56469 0.67364 0.75451 0.0
C727 C 0.56241 0.60619 0.76765 0.0
C728 C 0.54604 0.59311 0.70884 0.0
C729 C 0.56191 0.64741 0.73463 0.0
C730 C 0.53971 0.6084 0.66164 0.0
C731 C 0.54731 0.68257 0.72317 0.0
C732 C 0.58002 0.70733 0.84032 0.0
N733 N 0.54711 0.63467 0.67624 0.0
N734 N 0.58097 0.6868 0.81094 0.0
H735 H 0.47996 0.18525 0.39863 0.0
H736 H 0.47672 0.04516 0.33167 0.0
H737 H 0.46225 0.14644 0.20708 0.0
H738 H 0.49732 0.08226 0.52693 0.0
H739 H 0.46719 0.08035 0.28848 0.0
H740 H 0.48292 0.14647 0.44964 0.0
C741 C 0.47661 0.16844 0.36763 0.0
C742 C 0.47115 0.16889 0.29884 0.0
C743 C 0.4737 0.08089 0.34085 0.0
C744 C 0.47421 0.12478 0.35603 0.0
C745 C 0.4792 0.06076 0.36564 0.0
C746 C 0.48825 0.06102 0.4329 0.0
C747 C 0.47744 0.10176 0.38331 0.0
C748 C 0.49055 0.08144 0.47465 0.0
C749 C 0.47823 0.14639 0.39653 0.0
C750 C 0.46667 0.14675 0.26034 0.0
N751 N 0.48546 0.10127 0.449 0.0
N752 N 0.46841 0.12565 0.28944 0.0
H753 H 0.32219 0.48063 0.23837 0.0
H754 H 0.40477 0.45176 0.4582 0.0
H755 H 0.33905 0.53771 0.39568 0.0
H756 H 0.45525 0.53893 0.49032 0.0
H757 H 0.3724 0.45937 0.38319 0.0
H758 H 0.3639 0.48002 0.27907 0.0
C759 C 0.33517 0.49363 0.28034 0.0
C760 C 0.32733 0.5091 0.31416 0.0
C761 C 0.39092 0.47683 0.40544 0.0
C762 C 0.37443 0.50821 0.36129 0.0
C763 C 0.40918 0.47248 0.44852 0.0
C764 C 0.4325 0.49474 0.48038 0.0
C765 C 0.39578 0.50356 0.39574 0.0
C766 C 0.43744 0.52125 0.46635 0.0
C767 C 0.35874 0.49312 0.3037 0.0
C768 C 0.34461 0.52559 0.36846 0.0
N769 N 0.41881 0.52495 0.42621 0.0
N770 N 0.3674 0.52452 0.39102 0.0
H771 H 0.82895 0.30496 0.43937 0.0
H772 H 0.97414 0.42946 0.42539 0.0
H773 H 0.8851 0.30512 0.31706 0.0
H774 H 0.93316 0.41698 0.59745 0.0
H775 H 0.94179 0.38265 0.3882 0.0
H776 H 0.86678 0.3439 0.50369 0.0
C777 C 0.8493 0.31281 0.42699 0.0
C778 C 0.85385 0.30212 0.37214 0.0
C779 C 0.93999 0.38997 0.4345 0.0
C780 C 0.89692 0.3466 0.44464 0.0
C781 C 0.95829 0.41679 0.45538 0.0
C782 C 0.95598 0.42715 0.51394 0.0
C783 C 0.91882 0.37353 0.47166 0.0
C784 C 0.93542 0.40973 0.55165 0.0
C785 C 0.87085 0.33494 0.46379 0.0
C786 C 0.88062 0.31272 0.35882 0.0
N787 N 0.91724 0.3838 0.52921 0.0
N788 N 0.90106 0.33473 0.39396 0.0
H789 H 0.5391 0.81171 0.34741 0.0
H790 H 0.47502 0.90362 0.41093 0.0
H791 H 0.47389 0.81392 0.22083 0.0
H792 H 0.55184 0.91703 0.51058 0.0
H793 H 0.46616 0.86015 0.36655 0.0
H794 H 0.53586 0.8399 0.42981 0.0
C795 C 0.52386 0.81778 0.33722 0.0
C796 C 0.50724 0.81104 0.27615 0.0
C797 C 0.48476 0.87234 0.39903 0.0
C798 C 0.50316 0.84279 0.37075 0.0
C799 C 0.48985 0.89717 0.42439 0.0
C800 C 0.51458 0.91428 0.46285 0.0
C801 C 0.50468 0.8647 0.41148 0.0
C802 C 0.53273 0.90462 0.48014 0.0
C803 C 0.52193 0.83371 0.3845 0.0
C804 C 0.48724 0.81865 0.26681 0.0
N805 N 0.52769 0.88066 0.45303 0.0
N806 N 0.48606 0.83446 0.31314 0.0
H807 H 0.73529 0.59113 0.30629 0.0
H808 H 0.57674 0.53328 0.3089 0.0
H809 H 0.67158 0.52512 0.18048 0.0
H810 H 0.63586 0.58139 0.47264 0.0
H811 H 0.61301 0.53761 0.25112 0.0
H812 H 0.70063 0.59448 0.35878 0.0
C813 C 0.71404 0.57749 0.28962 0.0
C814 C 0.70616 0.5576 0.2397 0.0
C815 C 0.61814 0.54735 0.29958 0.0
C816 C 0.66678 0.56149 0.29837 0.0
C817 C 0.5974 0.54492 0.33271 0.0
C818 C 0.6032 0.55663 0.39629 0.0
C819 C 0.64501 0.56156 0.32998 0.0
C820 C 0.63047 0.57188 0.42388 0.0
C821 C 0.69436 0.57935 0.31956 0.0
C822 C 0.67846 0.54042 0.21961 0.0
N823 N 0.65045 0.57371 0.39074 0.0
N824 N 0.65981 0.54277 0.24899 0.0
H825 H 0.18582 0.66396 0.28569 0.0
H826 H 0.09371 0.63668 0.56904 0.0
H827 H 0.18212 0.72858 0.38185 0.0
H828 H 0.1089 0.57636 0.4913 0.0
H829 H 0.13058 0.6721 0.51312 0.0
H830 H 0.16207 0.6331 0.37049 0.0
C831 C 0.18045 0.67187 0.32515 0.0
C832 C 0.18583 0.69898 0.32587 0.0
C833 C 0.12619 0.65118 0.50945 0.0
C834 C 0.15784 0.66327 0.42297 0.0
C835 C 0.10527 0.63098 0.54181 0.0
C836 C 0.09785 0.60345 0.53372 0.0
C837 C 0.13962 0.6437 0.46873 0.0
C838 C 0.11356 0.59726 0.49784 0.0
C839 C 0.16669 0.65411 0.37359 0.0
C840 C 0.17784 0.70771 0.37811 0.0
N841 N 0.13334 0.61712 0.46582 0.0
N842 N 0.16396 0.68984 0.42404 0.0
loop_
_geom_bond_atom_site_label_1
_geom_bond_atom_site_label_2
_geom_bond_distance
_geom_bond_site_symmetry_2
_ccdc_geom_bond_type
C0 C1 1.443 . S
C0 N4 1.376 . S
C0 C38 1.389 . S
C1 C0 1.443 . S
C1 C2 1.340 . S
C1 H41 0.951 . S
C2 C1 1.340 . S
C2 C3 1.439 . S
C2 H42 0.950 . S
C3 C2 1.439 . S
C3 N4 1.374 . S
C3 C37 1.395 . S
N4 C0 1.376 . S
N4 C3 1.374 . S
N4 Co5 2.008 . S
Co5 N4 2.008 . S
Co5 N6 1.995 . S
Co5 N11 2.008 . S
Co5 N16 1.995 . S
Co5 N21 2.282 . S
Co5 N27 2.282 . S
N6 Co5 1.995 . S
N6 C7 1.376 . S
N6 C10 1.383 . S
C7 N6 1.376 . S
C7 C8 1.446 . S
C7 C37 1.391 . S
C8 C7 1.446 . S
C8 C9 1.339 . S
C8 H43 0.949 . S
C9 C8 1.339 . S
C9 C10 1.439 . S
C9 H44 0.950 . S
C10 N6 1.383 . S
C10 C9 1.439 . S
C10 C39 1.392 . S
N11 Co5 2.008 . S
N11 C12 1.376 . S
N11 C15 1.374 . S
C12 N11 1.376 . S
C12 C13 1.443 . S
C12 C39 1.389 . S
C13 C12 1.443 . S
C13 C14 1.340 . S
C13 H45 0.951 . S
C14 C13 1.340 . S
C14 C15 1.439 . S
C14 H46 0.950 . S
C15 N11 1.374 . S
C15 C14 1.439 . S
C15 C40 1.395 . S
N16 Co5 1.995 . S
N16 C17 1.376 . S
N16 C20 1.383 . S
C17 N16 1.376 . S
C17 C18 1.446 . S
C17 C40 1.391 . S
C18 C17 1.446 . S
C18 C19 1.339 . S
C18 H47 0.949 . S
C19 C18 1.339 . S
C19 C20 1.439 . S
C19 H48 0.950 . S
C20 N16 1.383 . S
C20 C19 1.439 . S
C20 C38 1.392 . S
N21 Co5 2.282 . S
N21 C24 1.332 . S
N21 C26 1.332 . S
C22 C23 1.386 . S
C22 C25 1.388 . S
C23 C22 1.386 . S
C23 C24 1.382 . S
C23 H49 0.950 . S
C24 N21 1.332 . S
C24 C23 1.382 . S
C24 H35 0.952 . S
C25 C22 1.388 . S
C25 C26 1.382 . S
C25 H50 0.950 . S
C26 N21 1.332 . S
C26 C25 1.382 . S
C26 H36 0.948 . S
N27 Co5 2.282 . S
N27 C31 1.332 . S
N27 C32 1.332 . S
C28 C29 1.388 . S
C28 C32 1.382 . S
C28 H51 0.950 . S
C29 C28 1.388 . S
C29 C30 1.386 . S
C30 C29 1.386 . S
C30 C31 1.382 . S
C30 H52 0.950 . S
C31 N27 1.332 . S
C31 C30 1.382 . S
C31 H33 0.952 . S
C32 N27 1.332 . S
C32 C28 1.382 . S
C32 H34 0.948 . S
H33 C31 0.952 . S
H34 C32 0.948 . S
H35 C24 0.952 . S
H36 C26 0.948 . S
C37 C3 1.395 . S
C37 C7 1.391 . S
C38 C0 1.389 . S
C38 C20 1.392 . S
C39 C10 1.392 . S
C39 C12 1.389 . S
C40 C15 1.395 . S
C40 C17 1.391 . S
H41 C1 0.951 . S
H42 C2 0.950 . S
H43 C8 0.949 . S
H44 C9 0.950 . S
H45 C13 0.951 . S
H46 C14 0.950 . S
H47 C18 0.949 . S
H48 C19 0.950 . S
H49 C23 0.950 . S
H50 C25 0.950 . S
H51 C28 0.950 . S
H52 C30 0.950 . S
C53 C54 1.443 . S
C53 N57 1.376 . S
C53 C91 1.389 . S
C54 C53 1.443 . S
C54 C55 1.340 . S
C54 H94 0.951 . S
C55 C54 1.340 . S
C55 C56 1.439 . S
C55 H95 0.950 . S
C56 C55 1.439 . S
C56 N57 1.374 . S
C56 C90 1.395 . S
N57 C53 1.376 . S
N57 C56 1.374 . S
N57 Co58 2.008 . S
Co58 N57 2.008 . S
Co58 N59 1.995 . S
Co58 N64 2.008 . S
Co58 N69 1.995 . S
Co58 N74 2.282 . S
Co58 N80 2.282 . S
N59 Co58 1.995 . S
N59 C60 1.376 . S
N59 C63 1.383 . S
C60 N59 1.376 . S
C60 C61 1.446 . S
C60 C90 1.391 . S
C61 C60 1.446 . S
C61 C62 1.339 . S
C61 H96 0.949 . S
C62 C61 1.339 . S
C62 C63 1.439 . S
C62 H97 0.950 . S
C63 N59 1.383 . S
C63 C62 1.439 . S
C63 C92 1.392 . S
N64 Co58 2.008 . S
N64 C65 1.376 . S
N64 C68 1.374 . S
C65 N64 1.376 . S
C65 C66 1.443 . S
C65 C92 1.389 . S
C66 C65 1.443 . S
C66 C67 1.340 . S
C66 H98 0.951 . S
C67 C66 1.340 . S
C67 C68 1.439 . S
C67 H99 0.950 . S
C68 N64 1.374 . S
C68 C67 1.439 . S
C68 C93 1.395 . S
N69 Co58 1.995 . S
N69 C70 1.376 . S
N69 C73 1.383 . S
C70 N69 1.376 . S
C70 C71 1.446 . S
C70 C93 1.391 . S
C71 C70 1.446 . S
C71 C72 1.340 . S
C71 H100 0.949 . S
C72 C71 1.340 . S
C72 C73 1.440 . S
C72 H101 0.948 1_554 S
C73 N69 1.383 . S
C73 C72 1.440 . S
C73 C91 1.392 . S
N74 Co58 2.282 . S
N74 C77 1.332 1_554 S
N74 C79 1.332 . S
C75 C76 1.386 . S
C75 C78 1.388 . S
C76 C75 1.386 . S
C76 C77 1.382 . S
C76 H102 0.950 . S
C77 N74 1.332 1_556 S
C77 C76 1.382 . S
C77 H88 0.951 1_556 S
C78 C75 1.388 . S
C78 C79 1.382 1_556 S
C78 H103 0.950 . S
C79 N74 1.332 . S
C79 C78 1.382 1_554 S
C79 H89 0.948 . S
N80 Co58 2.282 . S
N80 C84 1.332 . S
N80 C85 1.332 . S
C81 C82 1.388 . S
C81 C85 1.382 . S
C81 H104 0.950 . S
C82 C81 1.388 . S
C82 C83 1.386 . S
C83 C82 1.386 . S
C83 C84 1.382 . S
C83 H105 0.950 . S
C84 N80 1.332 . S
C84 C83 1.382 . S
C84 H86 0.952 . S
C85 N80 1.332 . S
C85 C81 1.382 . S
C85 H87 0.948 . S
H86 C84 0.952 . S
H87 C85 0.948 . S
H88 C77 0.951 1_554 S
H89 C79 0.948 . S
C90 C56 1.395 . S
C90 C60 1.391 . S
C91 C53 1.389 . S
C91 C73 1.392 . S
C92 C63 1.392 . S
C92 C65 1.389 . S
C93 C68 1.395 . S
C93 C70 1.391 . S
H94 C54 0.951 . S
H95 C55 0.950 . S
H96 C61 0.949 . S
H97 C62 0.950 . S
H98 C66 0.951 . S
H99 C67 0.950 . S
H100 C71 0.949 . S
H101 C72 0.948 1_556 S
H102 C76 0.950 . S
H103 C78 0.950 . S
H104 C81 0.950 . S
H105 C83 0.950 . S
C106 C107 1.443 . S
C106 N110 1.376 . S
C106 C144 1.389 . S
C107 C106 1.443 . S
C107 C108 1.340 . S
C107 H147 0.951 . S
C108 C107 1.340 . S
C108 C109 1.439 . S
C108 H148 0.950 . S
C109 C108 1.439 . S
C109 N110 1.374 . S
C109 C143 1.395 . S
N110 C106 1.376 . S
N110 C109 1.374 . S
N110 Co111 2.008 . S
Co111 N110 2.008 . S
Co111 N112 1.995 1_554 S
Co111 N117 2.008 1_554 S
Co111 N122 1.995 . S
Co111 N127 2.282 . S
Co111 N133 2.282 1_554 S
N112 Co111 1.995 1_556 S
N112 C113 1.376 . S
N112 C116 1.383 . S
C113 N112 1.376 . S
C113 C114 1.446 . S
C113 C143 1.391 1_556 S
C114 C113 1.446 . S
C114 C115 1.339 . S
C114 H149 0.949 . S
C115 C114 1.339 . S
C115 C116 1.439 . S
C115 H150 0.950 . S
C116 N112 1.383 . S
C116 C115 1.439 . S
C116 C145 1.392 . S
N117 Co111 2.008 1_556 S
N117 C118 1.376 . S
N117 C121 1.374 . S
C118 N117 1.376 . S
C118 C119 1.443 . S
C118 C145 1.389 . S
C119 C118 1.443 . S
C119 C120 1.340 . S
C119 H151 0.951 . S
C120 C119 1.340 . S
C120 C121 1.439 . S
C120 H152 0.950 . S
C121 N117 1.374 . S
C121 C120 1.439 . S
C121 C146 1.395 1_556 S
N122 Co111 1.995 . S
N122 C123 1.376 . S
N122 C126 1.383 . S
C123 N122 1.376 . S
C123 C124 1.446 . S
C123 C146 1.391 . S
C124 C123 1.446 . S
C124 C125 1.339 . S
C124 H153 0.949 . S
C125 C124 1.339 . S
C125 C126 1.439 . S
C125 H154 0.950 . S
C126 N122 1.383 . S
C126 C125 1.439 . S
C126 C144 1.392 . S
N127 Co111 2.282 . S
N127 C130 1.332 . S
N127 C132 1.332 . S
C128 C129 1.386 . S
C128 C131 1.388 . S
C129 C128 1.386 . S
C129 C130 1.382 . S
C129 H155 0.950 . S
C130 N127 1.332 . S
C130 C129 1.382 . S
C130 H141 0.952 . S
C131 C128 1.388 . S
C131 C132 1.382 . S
C131 H156 0.950 . S
C132 N127 1.332 . S
C132 C131 1.382 . S
C132 H142 0.948 . S
N133 Co111 2.282 1_556 S
N133 C137 1.332 . S
N133 C138 1.332 . S
C134 C135 1.388 . S
C134 C138 1.382 . S
C134 H157 0.950 . S
C135 C134 1.388 . S
C135 C136 1.386 . S
C136 C135 1.386 . S
C136 C137 1.382 . S
C136 H158 0.950 . S
C137 N133 1.332 . S
C137 C136 1.382 . S
C137 H139 0.952 . S
C138 N133 1.332 . S
C138 C134 1.382 . S
C138 H140 0.948 . S
H139 C137 0.952 . S
H140 C138 0.948 . S
H141 C130 0.952 . S
H142 C132 0.948 . S
C143 C109 1.395 . S
C143 C113 1.391 1_554 S
C144 C106 1.389 . S
C144 C126 1.392 . S
C145 C116 1.392 . S
C145 C118 1.389 . S
C146 C121 1.395 1_554 S
C146 C123 1.391 . S
H147 C107 0.951 . S
H148 C108 0.950 . S
H149 C114 0.949 . S
H150 C115 0.950 . S
H151 C119 0.951 . S
H152 C120 0.950 . S
H153 C124 0.949 . S
H154 C125 0.950 . S
H155 C129 0.950 . S
H156 C131 0.950 . S
H157 C134 0.950 . S
H158 C136 0.950 . S
C159 C160 1.443 . S
C159 N163 1.376 . S
C159 C197 1.389 . S
C160 C159 1.443 . S
C160 C161 1.340 . S
C160 H200 0.951 . S
C161 C160 1.340 . S
C161 C162 1.439 . S
C161 H201 0.950 . S
C162 C161 1.439 . S
C162 N163 1.374 . S
C162 C196 1.395 . S
N163 C159 1.376 . S
N163 C162 1.374 . S
N163 Co164 2.008 . S
Co164 N163 2.008 . S
Co164 N165 1.995 1_554 S
Co164 N170 2.008 1_554 S
Co164 N175 1.995 . S
Co164 N180 2.282 . S
Co164 N186 2.282 1_554 S
N165 Co164 1.995 1_556 S
N165 C166 1.376 . S
N165 C169 1.383 . S
C166 N165 1.376 . S
C166 C167 1.446 . S
C166 C196 1.391 1_556 S
C167 C166 1.446 . S
C167 C168 1.339 . S
C167 H202 0.949 . S
C168 C167 1.339 . S
C168 C169 1.439 . S
C168 H203 0.950 . S
C169 N165 1.383 . S
C169 C168 1.439 . S
C169 C198 1.392 . S
N170 Co164 2.008 1_556 S
N170 C171 1.376 . S
N170 C174 1.374 . S
C171 N170 1.376 . S
C171 C172 1.443 . S
C171 C198 1.389 . S
C172 C171 1.443 . S
C172 C173 1.340 . S
C172 H204 0.951 . S
C173 C172 1.340 . S
C173 C174 1.439 . S
C173 H205 0.950 . S
C174 N170 1.374 . S
C174 C173 1.439 . S
C174 C199 1.395 1_556 S
N175 Co164 1.995 . S
N175 C176 1.376 . S
N175 C179 1.383 . S
C176 N175 1.376 . S
C176 C177 1.446 . S
C176 C199 1.391 . S
C177 C176 1.446 . S
C177 C178 1.339 . S
C177 H206 0.949 . S
C178 C177 1.339 . S
C178 C179 1.439 . S
C178 H207 0.950 . S
C179 N175 1.383 . S
C179 C178 1.439 . S
C179 C197 1.392 . S
N180 Co164 2.282 . S
N180 C183 1.332 . S
N180 C185 1.332 . S
C181 C182 1.386 . S
C181 C184 1.388 . S
C182 C181 1.386 . S
C182 C183 1.382 . S
C182 H208 0.950 . S
C183 N180 1.332 . S
C183 C182 1.382 . S
C183 H194 0.952 . S
C184 C181 1.388 . S
C184 C185 1.382 . S
C184 H209 0.950 . S
C185 N180 1.332 . S
C185 C184 1.382 . S
C185 H195 0.948 . S
N186 Co164 2.282 1_556 S
N186 C190 1.332 . S
N186 C191 1.332 . S
C187 C188 1.388 . S
C187 C191 1.382 . S
C187 H210 0.950 . S
C188 C187 1.388 . S
C188 C189 1.386 . S
C189 C188 1.386 . S
C189 C190 1.382 . S
C189 H211 0.950 . S
C190 N186 1.332 . S
C190 C189 1.382 . S
C190 H192 0.952 . S
C191 N186 1.332 . S
C191 C187 1.382 . S
C191 H193 0.948 . S
H192 C190 0.952 . S
H193 C191 0.948 . S
H194 C183 0.952 . S
H195 C185 0.948 . S
C196 C162 1.395 . S
C196 C166 1.391 1_554 S
C197 C159 1.389 . S
C197 C179 1.392 . S
C198 C169 1.392 . S
C198 C171 1.389 . S
C199 C174 1.395 1_554 S
C199 C176 1.391 . S
H200 C160 0.951 . S
H201 C161 0.950 . S
H202 C167 0.949 . S
H203 C168 0.950 . S
H204 C172 0.951 . S
H205 C173 0.950 . S
H206 C177 0.949 . S
H207 C178 0.950 . S
H208 C182 0.950 . S
H209 C184 0.950 . S
H210 C187 0.950 . S
H211 C189 0.950 . S
C212 C213 1.443 . S
C212 N216 1.376 . S
C212 C250 1.389 . S
C213 C212 1.443 . S
C213 C214 1.340 . S
C213 H253 0.951 . S
C214 C213 1.340 . S
C214 C215 1.439 . S
C214 H254 0.950 . S
C215 C214 1.439 . S
C215 N216 1.374 . S
C215 C249 1.395 . S
N216 C212 1.376 . S
N216 C215 1.374 . S
N216 Co217 2.008 . S
Co217 N216 2.008 . S
Co217 N218 1.995 . S
Co217 N223 2.008 . S
Co217 N228 1.995 . S
Co217 N233 2.282 . S
Co217 N239 2.282 . S
N218 Co217 1.995 . S
N218 C219 1.376 . S
N218 C222 1.383 . S
C219 N218 1.376 . S
C219 C220 1.446 1_554 S
C219 C249 1.391 . S
C220 C219 1.446 1_556 S
C220 C221 1.339 . S
C220 H255 0.949 . S
C221 C220 1.339 . S
C221 C222 1.439 1_556 S
C221 H256 0.950 . S
C222 N218 1.383 . S
C222 C221 1.439 1_554 S
C222 C251 1.392 1_554 S
N223 Co217 2.008 . S
N223 C224 1.376 . S
N223 C227 1.374 . S
C224 N223 1.376 . S
C224 C225 1.443 . S
C224 C251 1.389 1_554 S
C225 C224 1.443 . S
C225 C226 1.340 . S
C225 H257 0.951 1_554 S
C226 C225 1.340 . S
C226 C227 1.439 . S
C226 H258 0.950 . S
C227 N223 1.374 . S
C227 C226 1.439 . S
C227 C252 1.395 . S
N228 Co217 1.995 . S
N228 C229 1.376 . S
N228 C232 1.383 . S
C229 N228 1.376 . S
C229 C230 1.446 . S
C229 C252 1.391 . S
C230 C229 1.446 . S
C230 C231 1.339 . S
C230 H259 0.949 . S
C231 C230 1.339 . S
C231 C232 1.439 . S
C231 H260 0.950 . S
C232 N228 1.383 . S
C232 C231 1.439 . S
C232 C250 1.392 . S
N233 Co217 2.282 . S
N233 C236 1.332 . S
N233 C238 1.332 . S
C234 C235 1.386 . S
C234 C237 1.388 . S
C235 C234 1.386 . S
C235 C236 1.382 . S
C235 H261 0.950 . S
C236 N233 1.332 . S
C236 C235 1.382 . S
C236 H247 0.952 . S
C237 C234 1.388 . S
C237 C238 1.382 . S
C237 H262 0.950 . S
C238 N233 1.332 . S
C238 C237 1.382 . S
C238 H248 0.948 . S
N239 Co217 2.282 . S
N239 C243 1.332 1_554 S
N239 C244 1.332 . S
C240 C241 1.388 . S
C240 C244 1.382 1_556 S
C240 H263 0.950 . S
C241 C240 1.388 . S
C241 C242 1.386 . S
C242 C241 1.386 . S
C242 C243 1.382 . S
C242 H264 0.950 . S
C243 N239 1.332 1_556 S
C243 C242 1.382 . S
C243 H245 0.952 . S
C244 N239 1.332 . S
C244 C240 1.382 1_554 S
C244 H246 0.948 . S
H245 C243 0.952 . S
H246 C244 0.948 . S
H247 C236 0.952 . S
H248 C238 0.948 . S
C249 C215 1.395 . S
C249 C219 1.391 . S
C250 C212 1.389 . S
C250 C232 1.392 . S
C251 C222 1.392 1_556 S
C251 C224 1.389 1_556 S
C252 C227 1.395 . S
C252 C229 1.391 . S
H253 C213 0.951 . S
H254 C214 0.950 . S
H255 C220 0.949 . S
H256 C221 0.950 . S
H257 C225 0.951 1_556 S
H258 C226 0.950 . S
H259 C230 0.949 . S
H260 C231 0.950 . S
H261 C235 0.950 . S
H262 C237 0.950 . S
H263 C240 0.950 . S
H264 C242 0.950 . S
C265 C266 1.443 . S
C265 N269 1.376 . S
C265 C303 1.389 . S
C266 C265 1.443 . S
C266 C267 1.340 . S
C266 H306 0.951 . S
C267 C266 1.340 . S
C267 C268 1.439 . S
C267 H307 0.950 . S
C268 C267 1.439 . S
C268 N269 1.374 . S
C268 C302 1.395 . S
N269 C265 1.376 . S
N269 C268 1.374 . S
N269 Co270 2.008 . S
Co270 N269 2.008 . S
Co270 N271 1.995 . S
Co270 N276 2.008 . S
Co270 N281 1.995 . S
Co270 N286 2.282 . S
Co270 N292 2.282 . S
N271 Co270 1.995 . S
N271 C272 1.376 . S
N271 C275 1.383 . S
C272 N271 1.376 . S
C272 C273 1.446 . S
C272 C302 1.391 . S
C273 C272 1.446 . S
C273 C274 1.339 . S
C273 H308 0.949 . S
C274 C273 1.339 . S
C274 C275 1.439 . S
C274 H309 0.950 . S
C275 N271 1.383 . S
C275 C274 1.439 . S
C275 C304 1.392 . S
N276 Co270 2.008 . S
N276 C277 1.376 . S
N276 C280 1.374 . S
C277 N276 1.376 . S
C277 C278 1.443 . S
C277 C304 1.389 . S
C278 C277 1.443 . S
C278 C279 1.340 . S
C278 H310 0.951 . S
C279 C278 1.340 . S
C279 C280 1.439 . S
C279 H311 0.950 . S
C280 N276 1.374 . S
C280 C279 1.439 . S
C280 C305 1.395 . S
N281 Co270 1.995 . S
N281 C282 1.376 . S
N281 C285 1.383 . S
C282 N281 1.376 . S
C282 C283 1.446 . S
C282 C305 1.391 . S
C283 C282 1.446 . S
C283 C284 1.339 . S
C283 H312 0.949 . S
C284 C283 1.339 . S
C284 C285 1.439 . S
C284 H313 0.950 . S
C285 N281 1.383 . S
C285 C284 1.439 . S
C285 C303 1.392 . S
N286 Co270 2.282 . S
N286 C289 1.332 . S
N286 C291 1.332 . S
C287 C288 1.386 . S
C287 C290 1.388 . S
C288 C287 1.386 . S
C288 C289 1.382 . S
C288 H314 0.950 . S
C289 N286 1.332 . S
C289 C288 1.382 . S
C289 H300 0.952 . S
C290 C287 1.388 . S
C290 C291 1.382 . S
C290 H315 0.950 . S
C291 N286 1.332 . S
C291 C290 1.382 . S
C291 H301 0.948 . S
N292 Co270 2.282 . S
N292 C296 1.332 . S
N292 C297 1.332 . S
C293 C294 1.388 . S
C293 C297 1.382 . S
C293 H316 0.950 . S
C294 C293 1.388 . S
C294 C295 1.386 . S
C295 C294 1.386 . S
C295 C296 1.382 . S
C295 H317 0.950 . S
C296 N292 1.332 . S
C296 C295 1.382 . S
C296 H298 0.952 . S
C297 N292 1.332 . S
C297 C293 1.382 . S
C297 H299 0.948 . S
H298 C296 0.952 . S
H299 C297 0.948 . S
H300 C289 0.952 . S
H301 C291 0.948 . S
C302 C268 1.395 . S
C302 C272 1.391 . S
C303 C265 1.389 . S
C303 C285 1.392 . S
C304 C275 1.392 . S
C304 C277 1.389 . S
C305 C280 1.395 . S
C305 C282 1.391 . S
H306 C266 0.951 . S
H307 C267 0.950 . S
H308 C273 0.949 . S
H309 C274 0.950 . S
H310 C278 0.951 . S
H311 C279 0.950 . S
H312 C283 0.949 . S
H313 C284 0.950 . S
H314 C288 0.950 . S
H315 C290 0.950 . S
H316 C293 0.950 . S
H317 C295 0.950 . S
C318 O345 1.312 . S
C318 O346 1.208 . S
C319 O340 1.331 . S
C319 O343 1.244 . S
C320 O342 1.264 . S
C320 O344 1.273 . S
Mg321 O323 1.936 1_455 S
Mg321 O330 2.081 1_455 S
Mg321 O332 2.023 . S
Mg321 O336 2.031 1_455 S
Mg321 O345 2.291 . S
Mg322 O323 1.963 . S
Mg322 O333 1.942 . S
Mg322 O334 1.955 1_655 S
Mg322 O341 1.986 . S
O323 Mg321 1.936 1_655 S
O323 Mg322 1.963 . S
O323 Mg324 1.915 1_655 S
Mg324 O323 1.915 1_455 S
Mg324 O325 1.915 . S
Mg324 O329 2.013 . S
Mg324 O335 2.114 1_455 S
Mg324 O339 2.013 1_455 S
Mg324 O345 2.114 . S
O325 Mg324 1.915 . S
O325 Mg326 1.936 . S
O325 Mg327 1.963 . S
Mg326 O325 1.936 . S
Mg326 O335 2.291 1_455 S
Mg326 O340 2.081 . S
Mg326 O342 2.023 1_455 S
Mg326 O346 2.031 . S
Mg327 O325 1.963 . S
Mg327 O331 1.986 . S
Mg327 O343 1.942 . S
Mg327 O344 1.955 1_455 S
C328 O339 1.191 . S
C328 O341 1.307 . S
O329 Mg324 2.013 . S
O329 C348 1.191 . S
O330 Mg321 2.081 1_655 S
O330 C338 1.331 . S
O331 Mg327 1.986 . S
O331 C348 1.307 . S
O332 Mg321 2.023 . S
O332 C347 1.264 . S
O333 Mg322 1.942 . S
O333 C338 1.244 . S
O334 Mg322 1.955 1_455 S
O334 C347 1.273 . S
O335 Mg324 2.114 1_655 S
O335 Mg326 2.291 1_655 S
O335 C337 1.312 . S
O336 Mg321 2.031 1_655 S
O336 C337 1.208 . S
C337 O335 1.312 . S
C337 O336 1.208 . S
C338 O330 1.331 . S
C338 O333 1.244 . S
O339 Mg324 2.013 1_655 S
O339 C328 1.191 . S
O340 C319 1.331 . S
O340 Mg326 2.081 . S
O341 Mg322 1.986 . S
O341 C328 1.307 . S
O342 C320 1.264 . S
O342 Mg326 2.023 1_655 S
O343 C319 1.244 . S
O343 Mg327 1.942 . S
O344 C320 1.273 . S
O344 Mg327 1.955 1_655 S
O345 C318 1.312 . S
O345 Mg321 2.291 . S
O345 Mg324 2.114 . S
O346 C318 1.208 . S
O346 Mg326 2.031 . S
C347 O332 1.264 . S
C347 O334 1.273 . S
C348 O329 1.191 . S
C348 O331 1.307 . S
C349 O376 1.312 . S
C349 O377 1.208 . S
C350 O371 1.331 . S
C350 O374 1.244 . S
C351 O373 1.264 . S
C351 O375 1.273 . S
Mg352 O354 1.936 1_545 S
Mg352 O361 2.081 1_545 S
Mg352 O363 2.023 . S
Mg352 O367 2.031 1_545 S
Mg352 O376 2.291 . S
Mg353 O354 1.963 . S
Mg353 O364 1.942 . S
Mg353 O365 1.955 1_565 S
Mg353 O372 1.986 . S
O354 Mg352 1.936 1_565 S
O354 Mg353 1.963 . S
O354 Mg355 1.915 1_565 S
Mg355 O354 1.915 1_545 S
Mg355 O356 1.915 . S
Mg355 O360 2.013 . S
Mg355 O366 2.114 1_545 S
Mg355 O370 2.013 1_545 S
Mg355 O376 2.114 . S
O356 Mg355 1.915 . S
O356 Mg357 1.936 . S
O356 Mg358 1.963 . S
Mg357 O356 1.936 . S
Mg357 O366 2.291 1_545 S
Mg357 O371 2.081 . S
Mg357 O373 2.023 1_545 S
Mg357 O377 2.031 . S
Mg358 O356 1.963 . S
Mg358 O362 1.986 . S
Mg358 O374 1.942 . S
Mg358 O375 1.955 1_545 S
C359 O370 1.191 . S
C359 O372 1.307 . S
O360 Mg355 2.013 . S
O360 C379 1.191 . S
O361 Mg352 2.081 1_565 S
O361 C369 1.331 . S
O362 Mg358 1.986 . S
O362 C379 1.307 . S
O363 Mg352 2.023 . S
O363 C378 1.264 . S
O364 Mg353 1.942 . S
O364 C369 1.244 . S
O365 Mg353 1.955 1_545 S
O365 C378 1.273 . S
O366 Mg355 2.114 1_565 S
O366 Mg357 2.291 1_565 S
O366 C368 1.312 . S
O367 Mg352 2.031 1_565 S
O367 C368 1.208 . S
C368 O366 1.312 . S
C368 O367 1.208 . S
C369 O361 1.331 . S
C369 O364 1.244 . S
O370 Mg355 2.013 1_565 S
O370 C359 1.191 . S
O371 C350 1.331 . S
O371 Mg357 2.081 . S
O372 Mg353 1.986 . S
O372 C359 1.307 . S
O373 C351 1.264 . S
O373 Mg357 2.023 1_565 S
O374 C350 1.244 . S
O374 Mg358 1.942 . S
O375 C351 1.273 . S
O375 Mg358 1.955 1_565 S
O376 C349 1.312 . S
O376 Mg352 2.291 . S
O376 Mg355 2.114 . S
O377 C349 1.208 . S
O377 Mg357 2.031 . S
C378 O363 1.264 . S
C378 O365 1.273 . S
C379 O360 1.191 . S
C379 O362 1.307 . S
C380 O407 1.312 . S
C380 O408 1.208 . S
C381 O402 1.331 . S
C381 O405 1.244 . S
C382 O404 1.264 . S
C382 O406 1.273 . S
Mg383 O385 1.936 . S
Mg383 O392 2.081 . S
Mg383 O394 2.023 . S
Mg383 O398 2.031 . S
Mg383 O407 2.291 . S
Mg384 O385 1.963 . S
Mg384 O395 1.942 . S
Mg384 O396 1.955 . S
Mg384 O403 1.986 . S
O385 Mg383 1.936 . S
O385 Mg384 1.963 . S
O385 Mg386 1.915 . S
Mg386 O385 1.915 . S
Mg386 O387 1.915 . S
Mg386 O391 2.013 . S
Mg386 O397 2.114 . S
Mg386 O401 2.013 . S
Mg386 O407 2.114 . S
O387 Mg386 1.915 . S
O387 Mg388 1.936 . S
O387 Mg389 1.963 . S
Mg388 O387 1.936 . S
Mg388 O397 2.291 . S
Mg388 O402 2.081 . S
Mg388 O404 2.023 . S
Mg388 O408 2.031 . S
Mg389 O387 1.963 . S
Mg389 O393 1.986 . S
Mg389 O405 1.942 . S
Mg389 O406 1.955 . S
C390 O401 1.191 . S
C390 O403 1.307 . S
O391 Mg386 2.013 . S
O391 C410 1.191 . S
O392 Mg383 2.081 . S
O392 C400 1.331 . S
O393 Mg389 1.986 . S
O393 C410 1.307 . S
O394 Mg383 2.023 . S
O394 C409 1.264 . S
O395 Mg384 1.942 . S
O395 C400 1.244 . S
O396 Mg384 1.955 . S
O396 C409 1.273 . S
O397 Mg386 2.114 . S
O397 Mg388 2.291 . S
O397 C399 1.312 . S
O398 Mg383 2.031 . S
O398 C399 1.208 . S
C399 O397 1.312 . S
C399 O398 1.208 . S
C400 O392 1.331 . S
C400 O395 1.244 . S
O401 Mg386 2.013 . S
O401 C390 1.191 . S
O402 C381 1.331 . S
O402 Mg388 2.081 . S
O403 Mg384 1.986 . S
O403 C390 1.307 . S
O404 C382 1.264 . S
O404 Mg388 2.023 . S
O405 C381 1.244 . S
O405 Mg389 1.942 . S
O406 C382 1.273 . S
O406 Mg389 1.955 . S
O407 C380 1.312 . S
O407 Mg383 2.291 . S
O407 Mg386 2.114 . S
O408 C380 1.208 . S
O408 Mg388 2.031 . S
C409 O394 1.264 . S
C409 O396 1.273 . S
C410 O391 1.191 . S
C410 O393 1.307 . S
H411 C417 0.930 . S
H412 C421 0.930 . S
H413 C426 0.929 . S
H414 C424 0.929 . S
H415 C419 0.929 . S
H416 C425 0.929 . S
C417 H411 0.930 . S
C417 C418 1.367 . S
C417 C425 1.378 . S
C418 C417 1.367 . S
C418 C426 1.433 . S
C419 H415 0.929 . S
C419 C421 1.378 . S
C419 C423 1.350 . S
C420 C423 1.463 . S
C420 C425 1.350 . S
C420 N428 1.427 . S
C421 H412 0.930 . S
C421 C419 1.378 . S
C421 C422 1.367 . S
C422 C421 1.367 . S
C422 C424 1.433 . S
C423 C419 1.350 . S
C423 C420 1.463 . S
C423 N427 1.427 . S
C424 H414 0.929 . S
C424 C422 1.433 . S
C424 N427 1.384 . S
C425 H416 0.929 . S
C425 C417 1.378 . S
C425 C420 1.350 . S
C426 H413 0.929 . S
C426 C418 1.433 . S
C426 N428 1.384 . S
N427 C423 1.427 . S
N427 C424 1.384 . S
N428 C420 1.427 . S
N428 C426 1.384 . S
H429 C435 0.930 . S
H430 C439 0.930 . S
H431 C444 0.929 . S
H432 C442 0.929 . S
H433 C437 0.929 . S
H434 C443 0.929 . S
C435 H429 0.930 . S
C435 C436 1.367 . S
C435 C443 1.378 . S
C436 C435 1.367 . S
C436 C444 1.433 . S
C437 H433 0.929 . S
C437 C439 1.378 . S
C437 C441 1.350 . S
C438 C441 1.463 . S
C438 C443 1.350 . S
C438 N446 1.427 . S
C439 H430 0.930 . S
C439 C437 1.378 . S
C439 C440 1.367 . S
C440 C439 1.367 . S
C440 C442 1.433 . S
C441 C437 1.350 . S
C441 C438 1.463 . S
C441 N445 1.427 . S
C442 H432 0.929 . S
C442 C440 1.433 . S
C442 N445 1.384 . S
C443 H434 0.929 . S
C443 C435 1.378 . S
C443 C438 1.350 . S
C444 H431 0.929 . S
C444 C436 1.433 . S
C444 N446 1.384 . S
N445 C441 1.427 . S
N445 C442 1.384 . S
N446 C438 1.427 . S
N446 C444 1.384 . S
H447 C453 0.930 . S
H448 C457 0.930 . S
H449 C462 0.929 . S
H450 C460 0.929 . S
H451 C455 0.929 . S
H452 C461 0.929 . S
C453 H447 0.930 . S
C453 C454 1.367 . S
C453 C461 1.378 . S
C454 C453 1.367 . S
C454 C462 1.433 . S
C455 H451 0.929 . S
C455 C457 1.378 . S
C455 C459 1.350 . S
C456 C459 1.463 . S
C456 C461 1.350 . S
C456 N464 1.427 . S
C457 H448 0.930 . S
C457 C455 1.378 . S
C457 C458 1.367 . S
C458 C457 1.367 . S
C458 C460 1.433 . S
C459 C455 1.350 . S
C459 C456 1.463 . S
C459 N463 1.427 . S
C460 H450 0.929 . S
C460 C458 1.433 . S
C460 N463 1.384 . S
C461 H452 0.929 . S
C461 C453 1.378 . S
C461 C456 1.350 . S
C462 H449 0.929 . S
C462 C454 1.433 . S
C462 N464 1.384 . S
N463 C459 1.427 . S
N463 C460 1.384 . S
N464 C456 1.427 . S
N464 C462 1.384 . S
H465 C471 0.930 . S
H466 C475 0.930 . S
H467 C480 0.929 . S
H468 C478 0.929 . S
H469 C473 0.929 . S
H470 C479 0.929 . S
C471 H465 0.930 . S
C471 C472 1.367 . S
C471 C479 1.378 . S
C472 C471 1.367 . S
C472 C480 1.433 . S
C473 H469 0.929 . S
C473 C475 1.378 . S
C473 C477 1.350 . S
C474 C477 1.463 . S
C474 C479 1.350 . S
C474 N482 1.427 . S
C475 H466 0.930 . S
C475 C473 1.378 . S
C475 C476 1.367 . S
C476 C475 1.367 . S
C476 C478 1.433 . S
C477 C473 1.350 . S
C477 C474 1.463 . S
C477 N481 1.427 . S
C478 H468 0.929 . S
C478 C476 1.433 . S
C478 N481 1.384 . S
C479 H470 0.929 . S
C479 C471 1.378 . S
C479 C474 1.350 . S
C480 H467 0.929 . S
C480 C472 1.433 . S
C480 N482 1.384 . S
N481 C477 1.427 . S
N481 C478 1.384 . S
N482 C474 1.427 . S
N482 C480 1.384 . S
H483 C489 0.930 . S
H484 C493 0.930 . S
H485 C498 0.929 . S
H486 C496 0.929 . S
H487 C491 0.929 . S
H488 C497 0.929 . S
C489 H483 0.930 . S
C489 C490 1.367 . S
C489 C497 1.378 . S
C490 C489 1.367 . S
C490 C498 1.433 . S
C491 H487 0.929 . S
C491 C493 1.378 . S
C491 C495 1.350 . S
C492 C495 1.463 . S
C492 C497 1.350 . S
C492 N500 1.427 . S
C493 H484 0.930 . S
C493 C491 1.378 . S
C493 C494 1.367 . S
C494 C493 1.367 . S
C494 C496 1.433 . S
C495 C491 1.350 . S
C495 C492 1.463 . S
C495 N499 1.427 . S
C496 H486 0.929 . S
C496 C494 1.433 . S
C496 N499 1.384 . S
C497 H488 0.929 . S
C497 C489 1.378 . S
C497 C492 1.350 . S
C498 H485 0.929 . S
C498 C490 1.433 . S
C498 N500 1.384 . S
N499 C495 1.427 . S
N499 C496 1.384 . S
N500 C492 1.427 . S
N500 C498 1.384 . S
H501 C507 0.930 . S
H502 C511 0.930 . S
H503 C516 0.929 . S
H504 C514 0.929 . S
H505 C509 0.929 . S
H506 C515 0.929 . S
C507 H501 0.930 . S
C507 C508 1.367 . S
C507 C515 1.378 . S
C508 C507 1.367 . S
C508 C516 1.433 . S
C509 H505 0.929 . S
C509 C511 1.378 . S
C509 C513 1.350 . S
C510 C513 1.463 . S
C510 C515 1.350 . S
C510 N518 1.427 . S
C511 H502 0.930 . S
C511 C509 1.378 . S
C511 C512 1.367 . S
C512 C511 1.367 . S
C512 C514 1.433 . S
C513 C509 1.350 . S
C513 C510 1.463 . S
C513 N517 1.427 . S
C514 H504 0.929 . S
C514 C512 1.433 . S
C514 N517 1.384 . S
C515 H506 0.929 . S
C515 C507 1.378 . S
C515 C510 1.350 . S
C516 H503 0.929 . S
C516 C508 1.433 . S
C516 N518 1.384 . S
N517 C513 1.427 . S
N517 C514 1.384 . S
N518 C510 1.427 . S
N518 C516 1.384 . S
H519 C525 0.930 . S
H520 C529 0.930 . S
H521 C534 0.929 . S
H522 C532 0.929 . S
H523 C527 0.929 . S
H524 C533 0.929 . S
C525 H519 0.930 . S
C525 C526 1.367 . S
C525 C533 1.378 . S
C526 C525 1.367 . S
C526 C534 1.433 . S
C527 H523 0.929 . S
C527 C529 1.378 . S
C527 C531 1.350 . S
C528 C531 1.463 . S
C528 C533 1.350 . S
C528 N536 1.427 . S
C529 H520 0.930 . S
C529 C527 1.378 . S
C529 C530 1.367 . S
C530 C529 1.367 . S
C530 C532 1.433 . S
C531 C527 1.350 . S
C531 C528 1.463 . S
C531 N535 1.427 . S
C532 H522 0.929 . S
C532 C530 1.433 . S
C532 N535 1.384 . S
C533 H524 0.929 . S
C533 C525 1.378 . S
C533 C528 1.350 . S
C534 H521 0.929 . S
C534 C526 1.433 . S
C534 N536 1.384 . S
N535 C531 1.427 . S
N535 C532 1.384 . S
N536 C528 1.427 . S
N536 C534 1.384 . S
H537 C543 0.930 . S
H538 C547 0.930 . S
H539 C552 0.929 . S
H540 C550 0.929 . S
H541 C545 0.929 . S
H542 C551 0.929 . S
C543 H537 0.930 . S
C543 C544 1.367 . S
C543 C551 1.378 . S
C544 C543 1.367 . S
C544 C552 1.433 . S
C545 H541 0.929 . S
C545 C547 1.378 . S
C545 C549 1.350 . S
C546 C549 1.463 . S
C546 C551 1.350 . S
C546 N554 1.427 . S
C547 H538 0.930 . S
C547 C545 1.378 . S
C547 C548 1.367 . S
C548 C547 1.367 . S
C548 C550 1.433 . S
C549 C545 1.350 . S
C549 C546 1.463 . S
C549 N553 1.427 . S
C550 H540 0.929 . S
C550 C548 1.433 . S
C550 N553 1.384 . S
C551 H542 0.929 . S
C551 C543 1.378 . S
C551 C546 1.350 . S
C552 H539 0.929 . S
C552 C544 1.433 . S
C552 N554 1.384 . S
N553 C549 1.427 . S
N553 C550 1.384 . S
N554 C546 1.427 . S
N554 C552 1.384 . S
H555 C561 0.930 . S
H556 C565 0.930 . S
H557 C570 0.929 1_554 S
H558 C568 0.929 . S
H559 C563 0.929 . S
H560 C569 0.929 . S
C561 H555 0.930 . S
C561 C562 1.367 . S
C561 C569 1.378 . S
C562 C561 1.367 . S
C562 C570 1.433 . S
C563 H559 0.929 . S
C563 C565 1.378 . S
C563 C567 1.350 . S
C564 C567 1.463 . S
C564 C569 1.350 . S
C564 N572 1.427 . S
C565 H556 0.930 . S
C565 C563 1.378 . S
C565 C566 1.367 . S
C566 C565 1.367 . S
C566 C568 1.433 . S
C567 C563 1.350 . S
C567 C564 1.463 . S
C567 N571 1.427 . S
C568 H558 0.929 . S
C568 C566 1.433 . S
C568 N571 1.384 . S
C569 H560 0.929 . S
C569 C561 1.378 . S
C569 C564 1.350 . S
C570 H557 0.929 1_556 S
C570 C562 1.433 . S
C570 N572 1.384 . S
N571 C567 1.427 . S
N571 C568 1.384 . S
N572 C564 1.427 . S
N572 C570 1.384 . S
H573 C579 0.930 1_554 S
H574 C583 0.930 . S
H575 C588 0.929 . S
H576 C586 0.929 . S
H577 C581 0.929 . S
H578 C587 0.929 . S
C579 H573 0.930 1_556 S
C579 C580 1.367 . S
C579 C587 1.378 . S
C580 C579 1.367 . S
C580 C588 1.433 . S
C581 H577 0.929 . S
C581 C583 1.378 . S
C581 C585 1.350 . S
C582 C585 1.463 . S
C582 C587 1.350 . S
C582 N590 1.427 . S
C583 H574 0.930 . S
C583 C581 1.378 . S
C583 C584 1.367 . S
C584 C583 1.367 . S
C584 C586 1.433 . S
C585 C581 1.350 . S
C585 C582 1.463 . S
C585 N589 1.427 . S
C586 H576 0.929 . S
C586 C584 1.433 . S
C586 N589 1.384 . S
C587 H578 0.929 . S
C587 C579 1.378 . S
C587 C582 1.350 . S
C588 H575 0.929 . S
C588 C580 1.433 . S
C588 N590 1.384 . S
N589 C585 1.427 . S
N589 C586 1.384 . S
N590 C582 1.427 . S
N590 C588 1.384 . S
H591 C597 0.930 . S
H592 C601 0.930 . S
H593 C606 0.929 . S
H594 C604 0.929 . S
H595 C599 0.929 . S
H596 C605 0.929 . S
C597 H591 0.930 . S
C597 C598 1.367 . S
C597 C605 1.378 1_554 S
C598 C597 1.367 . S
C598 C606 1.433 . S
C599 H595 0.929 . S
C599 C601 1.378 . S
C599 C603 1.350 . S
C600 C603 1.463 . S
C600 C605 1.350 . S
C600 N608 1.427 . S
C601 H592 0.930 . S
C601 C599 1.378 . S
C601 C602 1.367 . S
C602 C601 1.367 . S
C602 C604 1.433 . S
C603 C599 1.350 . S
C603 C600 1.463 . S
C603 N607 1.427 . S
C604 H594 0.929 . S
C604 C602 1.433 . S
C604 N607 1.384 . S
C605 H596 0.929 . S
C605 C597 1.378 1_556 S
C605 C600 1.350 . S
C606 H593 0.929 . S
C606 C598 1.433 . S
C606 N608 1.384 1_554 S
N607 C603 1.427 . S
N607 C604 1.384 . S
N608 C600 1.427 . S
N608 C606 1.384 1_556 S
H609 C615 0.930 . S
H610 C619 0.930 . S
H611 C624 0.929 . S
H612 C622 0.929 . S
H613 C617 0.929 . S
H614 C623 0.929 . S
C615 H609 0.930 . S
C615 C616 1.367 . S
C615 C623 1.378 . S
C616 C615 1.367 . S
C616 C624 1.433 1_556 S
C617 H613 0.929 . S
C617 C619 1.378 . S
C617 C621 1.350 . S
C618 C621 1.463 . S
C618 C623 1.350 . S
C618 N626 1.427 . S
C619 H610 0.930 . S
C619 C617 1.378 . S
C619 C620 1.367 . S
C620 C619 1.367 . S
C620 C622 1.433 . S
C621 C617 1.350 . S
C621 C618 1.463 . S
C621 N625 1.427 . S
C622 H612 0.929 . S
C622 C620 1.433 . S
C622 N625 1.384 . S
C623 H614 0.929 . S
C623 C615 1.378 . S
C623 C618 1.350 . S
C624 H611 0.929 . S
C624 C616 1.433 1_554 S
C624 N626 1.384 1_554 S
N625 C621 1.427 . S
N625 C622 1.384 . S
N626 C618 1.427 . S
N626 C624 1.384 1_556 S
H627 C633 0.930 . S
H628 C637 0.930 . S
H629 C642 0.929 . S
H630 C640 0.929 . S
H631 C635 0.929 . S
H632 C641 0.929 . S
C633 H627 0.930 . S
C633 C634 1.367 . S
C633 C641 1.378 . S
C634 C633 1.367 . S
C634 C642 1.433 . S
C635 H631 0.929 . S
C635 C637 1.378 . S
C635 C639 1.350 . S
C636 C639 1.463 . S
C636 C641 1.350 . S
C636 N644 1.427 . S
C637 H628 0.930 . S
C637 C635 1.378 . S
C637 C638 1.367 . S
C638 C637 1.367 . S
C638 C640 1.433 . S
C639 C635 1.350 . S
C639 C636 1.463 . S
C639 N643 1.427 . S
C640 H630 0.929 . S
C640 C638 1.433 . S
C640 N643 1.384 . S
C641 H632 0.929 . S
C641 C633 1.378 . S
C641 C636 1.350 . S
C642 H629 0.929 . S
C642 C634 1.433 . S
C642 N644 1.384 . S
N643 C639 1.427 . S
N643 C640 1.384 . S
N644 C636 1.427 . S
N644 C642 1.384 . S
H645 C651 0.930 . S
H646 C655 0.930 . S
H647 C660 0.929 . S
H648 C658 0.929 . S
H649 C653 0.929 . S
H650 C659 0.929 . S
C651 H645 0.930 . S
C651 C652 1.367 . S
C651 C659 1.378 . S
C652 C651 1.367 . S
C652 C660 1.433 . S
C653 H649 0.929 . S
C653 C655 1.378 . S
C653 C657 1.350 . S
C654 C657 1.463 . S
C654 C659 1.350 . S
C654 N662 1.427 . S
C655 H646 0.930 . S
C655 C653 1.378 . S
C655 C656 1.367 . S
C656 C655 1.367 . S
C656 C658 1.433 . S
C657 C653 1.350 . S
C657 C654 1.463 . S
C657 N661 1.427 . S
C658 H648 0.929 . S
C658 C656 1.433 . S
C658 N661 1.384 . S
C659 H650 0.929 . S
C659 C651 1.378 . S
C659 C654 1.350 . S
C660 H647 0.929 . S
C660 C652 1.433 . S
C660 N662 1.384 . S
N661 C657 1.427 . S
N661 C658 1.384 . S
N662 C654 1.427 . S
N662 C660 1.384 . S
H663 C669 0.930 . S
H664 C673 0.930 . S
H665 C678 0.929 . S
H666 C676 0.929 . S
H667 C671 0.929 . S
H668 C677 0.929 . S
C669 H663 0.930 . S
C669 C670 1.367 . S
C669 C677 1.378 . S
C670 C669 1.367 . S
C670 C678 1.433 1_556 S
C671 H667 0.929 . S
C671 C673 1.378 . S
C671 C675 1.350 . S
C672 C675 1.463 . S
C672 C677 1.350 . S
C672 N680 1.427 . S
C673 H664 0.930 . S
C673 C671 1.378 . S
C673 C674 1.367 . S
C674 C673 1.367 . S
C674 C676 1.433 . S
C675 C671 1.350 . S
C675 C672 1.463 . S
C675 N679 1.427 . S
C676 H666 0.929 . S
C676 C674 1.433 . S
C676 N679 1.384 . S
C677 H668 0.929 . S
C677 C669 1.378 . S
C677 C672 1.350 . S
C678 H665 0.929 . S
C678 C670 1.433 1_554 S
C678 N680 1.384 1_554 S
N679 C675 1.427 . S
N679 C676 1.384 . S
N680 C672 1.427 . S
N680 C678 1.384 1_556 S
H681 C687 0.930 . S
H682 C691 0.930 . S
H683 C696 0.929 . S
H684 C694 0.929 . S
H685 C689 0.929 . S
H686 C695 0.929 . S
C687 H681 0.930 . S
C687 C688 1.367 . S
C687 C695 1.378 1_554 S
C688 C687 1.367 . S
C688 C696 1.433 . S
C689 H685 0.929 . S
C689 C691 1.378 . S
C689 C693 1.350 . S
C690 C693 1.463 . S
C690 C695 1.350 . S
C690 N698 1.427 1_556 S
C691 H682 0.930 . S
C691 C689 1.378 . S
C691 C692 1.367 . S
C692 C691 1.367 . S
C692 C694 1.433 . S
C693 C689 1.350 . S
C693 C690 1.463 . S
C693 N697 1.427 . S
C694 H684 0.929 . S
C694 C692 1.433 . S
C694 N697 1.384 . S
C695 H686 0.929 . S
C695 C687 1.378 1_556 S
C695 C690 1.350 . S
C696 H683 0.929 . S
C696 C688 1.433 . S
C696 N698 1.384 . S
N697 C693 1.427 . S
N697 C694 1.384 . S
N698 C690 1.427 1_554 S
N698 C696 1.384 . S
H699 C705 0.930 . S
H700 C709 0.930 . S
H701 C714 0.929 . S
H702 C712 0.929 . S
H703 C707 0.929 . S
H704 C713 0.929 . S
C705 H699 0.930 . S
C705 C706 1.367 . S
C705 C713 1.378 . S
C706 C705 1.367 . S
C706 C714 1.433 . S
C707 H703 0.929 . S
C707 C709 1.378 . S
C707 C711 1.350 . S
C708 C711 1.463 . S
C708 C713 1.350 . S
C708 N716 1.427 . S
C709 H700 0.930 . S
C709 C707 1.378 . S
C709 C710 1.367 . S
C710 C709 1.367 . S
C710 C712 1.433 . S
C711 C707 1.350 . S
C711 C708 1.463 . S
C711 N715 1.427 . S
C712 H702 0.929 . S
C712 C710 1.433 . S
C712 N715 1.384 . S
C713 H704 0.929 . S
C713 C705 1.378 . S
C713 C708 1.350 . S
C714 H701 0.929 . S
C714 C706 1.433 . S
C714 N716 1.384 . S
N715 C711 1.427 . S
N715 C712 1.384 . S
N716 C708 1.427 . S
N716 C714 1.384 . S
H717 C723 0.930 . S
H718 C727 0.930 . S
H719 C732 0.929 . S
H720 C730 0.929 . S
H721 C725 0.929 . S
H722 C731 0.929 . S
C723 H717 0.930 . S
C723 C724 1.367 . S
C723 C731 1.378 . S
C724 C723 1.367 . S
C724 C732 1.433 . S
C725 H721 0.929 . S
C725 C727 1.378 . S
C725 C729 1.350 . S
C726 C729 1.463 . S
C726 C731 1.350 . S
C726 N734 1.427 . S
C727 H718 0.930 . S
C727 C725 1.378 . S
C727 C728 1.367 . S
C728 C727 1.367 . S
C728 C730 1.433 . S
C729 C725 1.350 . S
C729 C726 1.463 . S
C729 N733 1.427 . S
C730 H720 0.929 . S
C730 C728 1.433 . S
C730 N733 1.384 . S
C731 H722 0.929 . S
C731 C723 1.378 . S
C731 C726 1.350 . S
C732 H719 0.929 . S
C732 C724 1.433 . S
C732 N734 1.384 . S
N733 C729 1.427 . S
N733 C730 1.384 . S
N734 C726 1.427 . S
N734 C732 1.384 . S
H735 C741 0.930 . S
H736 C745 0.930 . S
H737 C750 0.929 . S
H738 C748 0.929 . S
H739 C743 0.929 . S
H740 C749 0.929 . S
C741 H735 0.930 . S
C741 C742 1.367 . S
C741 C749 1.378 . S
C742 C741 1.367 . S
C742 C750 1.433 . S
C743 H739 0.929 . S
C743 C745 1.378 . S
C743 C747 1.350 . S
C744 C747 1.463 . S
C744 C749 1.350 . S
C744 N752 1.427 . S
C745 H736 0.930 . S
C745 C743 1.378 . S
C745 C746 1.367 . S
C746 C745 1.367 . S
C746 C748 1.433 . S
C747 C743 1.350 . S
C747 C744 1.463 . S
C747 N751 1.427 . S
C748 H738 0.929 . S
C748 C746 1.433 . S
C748 N751 1.384 . S
C749 H740 0.929 . S
C749 C741 1.378 . S
C749 C744 1.350 . S
C750 H737 0.929 . S
C750 C742 1.433 . S
C750 N752 1.384 . S
N751 C747 1.427 . S
N751 C748 1.384 . S
N752 C744 1.427 . S
N752 C750 1.384 . S
H753 C759 0.930 . S
H754 C763 0.930 . S
H755 C768 0.929 . S
H756 C766 0.929 . S
H757 C761 0.929 . S
H758 C767 0.929 . S
C759 H753 0.930 . S
C759 C760 1.367 . S
C759 C767 1.378 . S
C760 C759 1.367 . S
C760 C768 1.433 . S
C761 H757 0.929 . S
C761 C763 1.378 . S
C761 C765 1.350 . S
C762 C765 1.463 . S
C762 C767 1.350 . S
C762 N770 1.427 . S
C763 H754 0.930 . S
C763 C761 1.378 . S
C763 C764 1.367 . S
C764 C763 1.367 . S
C764 C766 1.433 . S
C765 C761 1.350 . S
C765 C762 1.463 . S
C765 N769 1.427 . S
C766 H756 0.929 . S
C766 C764 1.433 . S
C766 N769 1.384 . S
C767 H758 0.929 . S
C767 C759 1.378 . S
C767 C762 1.350 . S
C768 H755 0.929 . S
C768 C760 1.433 . S
C768 N770 1.384 . S
N769 C765 1.427 . S
N769 C766 1.384 . S
N770 C762 1.427 . S
N770 C768 1.384 . S
H771 C777 0.930 . S
H772 C781 0.930 . S
H773 C786 0.929 . S
H774 C784 0.929 . S
H775 C779 0.929 . S
H776 C785 0.929 . S
C777 H771 0.930 . S
C777 C778 1.367 . S
C777 C785 1.378 . S
C778 C777 1.367 . S
C778 C786 1.433 . S
C779 H775 0.929 . S
C779 C781 1.378 . S
C779 C783 1.350 . S
C780 C783 1.463 . S
C780 C785 1.350 . S
C780 N788 1.427 . S
C781 H772 0.930 . S
C781 C779 1.378 . S
C781 C782 1.367 . S
C782 C781 1.367 . S
C782 C784 1.433 . S
C783 C779 1.350 . S
C783 C780 1.463 . S
C783 N787 1.427 . S
C784 H774 0.929 . S
C784 C782 1.433 . S
C784 N787 1.384 . S
C785 H776 0.929 . S
C785 C777 1.378 . S
C785 C780 1.350 . S
C786 H773 0.929 . S
C786 C778 1.433 . S
C786 N788 1.384 . S
N787 C783 1.427 . S
N787 C784 1.384 . S
N788 C780 1.427 . S
N788 C786 1.384 . S
H789 C795 0.930 . S
H790 C799 0.930 . S
H791 C804 0.929 . S
H792 C802 0.929 . S
H793 C797 0.929 . S
H794 C803 0.929 . S
C795 H789 0.930 . S
C795 C796 1.367 . S
C795 C803 1.378 . S
C796 C795 1.367 . S
C796 C804 1.433 . S
C797 H793 0.929 . S
C797 C799 1.378 . S
C797 C801 1.350 . S
C798 C801 1.463 . S
C798 C803 1.350 . S
C798 N806 1.427 . S
C799 H790 0.930 . S
C799 C797 1.378 . S
C799 C800 1.367 . S
C800 C799 1.367 . S
C800 C802 1.433 . S
C801 C797 1.350 . S
C801 C798 1.463 . S
C801 N805 1.427 . S
C802 H792 0.929 . S
C802 C800 1.433 . S
C802 N805 1.384 . S
C803 H794 0.929 . S
C803 C795 1.378 . S
C803 C798 1.350 . S
C804 H791 0.929 . S
C804 C796 1.433 . S
C804 N806 1.384 . S
N805 C801 1.427 . S
N805 C802 1.384 . S
N806 C798 1.427 . S
N806 C804 1.384 . S
H807 C813 0.930 . S
H808 C817 0.930 . S
H809 C822 0.929 . S
H810 C820 0.929 . S
H811 C815 0.929 . S
H812 C821 0.929 . S
C813 H807 0.930 . S
C813 C814 1.367 . S
C813 C821 1.378 . S
C814 C813 1.367 . S
C814 C822 1.433 . S
C815 H811 0.929 . S
C815 C817 1.378 . S
C815 C819 1.350 . S
C816 C819 1.463 . S
C816 C821 1.350 . S
C816 N824 1.427 . S
C817 H808 0.930 . S
C817 C815 1.378 . S
C817 C818 1.367 . S
C818 C817 1.367 . S
C818 C820 1.433 . S
C819 C815 1.350 . S
C819 C816 1.463 . S
C819 N823 1.427 . S
C820 H810 0.929 . S
C820 C818 1.433 . S
C820 N823 1.384 . S
C821 H812 0.929 . S
C821 C813 1.378 . S
C821 C816 1.350 . S
C822 H809 0.929 . S
C822 C814 1.433 . S
C822 N824 1.384 . S
N823 C819 1.427 . S
N823 C820 1.384 . S
N824 C816 1.427 . S
N824 C822 1.384 . S
H825 C831 0.930 . S
H826 C835 0.930 . S
H827 C840 0.929 . S
H828 C838 0.929 . S
H829 C833 0.929 . S
H830 C839 0.929 . S
C831 H825 0.930 . S
C831 C832 1.367 . S
C831 C839 1.378 . S
C832 C831 1.367 . S
C832 C840 1.433 . S
C833 H829 0.929 . S
C833 C835 1.378 . S
C833 C837 1.350 . S
C834 C837 1.463 . S
C834 C839 1.350 . S
C834 N842 1.427 . S
C835 H826 0.930 . S
C835 C833 1.378 . S
C835 C836 1.367 . S
C836 C835 1.367 . S
C836 C838 1.433 . S
C837 C833 1.350 . S
C837 C834 1.463 . S
C837 N841 1.427 . S
C838 H828 0.929 . S
C838 C836 1.433 . S
C838 N841 1.384 . S
C839 H830 0.929 . S
C839 C831 1.378 . S
C839 C834 1.350 . S
C840 H827 0.929 . S
C840 C832 1.433 . S
C840 N842 1.384 . S
N841 C837 1.427 . S
N841 C838 1.384 . S
N842 C834 1.427 . S
N842 C840 1.384 . S
C418 C22 1.783 . S
C422 C318 1.698 . S
C436 C92 1.782 . S
C440 C350 1.751 . S
C458 C409 2.016 . S
C454 C144 2.073 . S
C476 C338 1.572 . S
C472 C197 1.601 . S
C490 C250 1.876 . S
C494 C368 1.782 . S
C512 C390 1.264 . S
C508 C287 1.289 . S
C530 C359 1.810 . S
C526 C145 1.840 . S
C544 C198 1.456 . S
C548 C399 1.391 . S
C566 C348 1.796 . S
C562 C251 1.824 . S
C580 C294 1.529 1_556 S
C584 C378 1.493 . S
C598 C29 1.820 . S
C602 C381 1.778 . S
C620 C320 1.838 . S
C616 C91 1.863 1_556 S
C638 C328 1.470 . S
C634 C188 1.519 . S
C656 C369 1.279 . S
C652 C241 1.314 . S
C674 C382 1.869 . S
C670 C304 1.912 1_556 S
C692 C319 1.422 . S
C688 C39 1.447 . S
C710 C379 1.325 . S
C706 C75 1.368 . S
C724 C135 1.134 . S
C728 C380 1.097 . S
C746 C349 1.575 . S
C742 C303 1.633 . S
C764 C410 1.157 . S
C760 C38 1.193 . S
C782 C337 1.329 . S
C778 C82 1.395 . S
C800 C351 1.374 . S
C796 C128 1.402 . S
C814 C181 1.671 . S
C818 C400 1.631 . S
C832 C234 1.416 . S
C836 C347 1.389 . S
