# Generated by pormake.
# Topology ocu, (6,8)-cn, num edge types: 1
# Building blocks:
#     Node 0, Type 0, BuildingBlock: JUFBIX_clean_sbu_0, # of connection points: 6
#     Node 1, Type 0, BuildingBlock: JUFBIX_clean_sbu_0, # of connection points: 6
#     Node 2, Type 0, BuildingBlock: JUFBIX_clean_sbu_0, # of connection points: 6
#     Node 3, Type 0, BuildingBlock: JUFBIX_clean_sbu_0, # of connection points: 6
#     Node 4, Type 0, BuildingBlock: JUFBIX_clean_sbu_0, # of connection points: 6
#     Node 5, Type 0, BuildingBlock: JUFBIX_clean_sbu_0, # of connection points: 6
#     Node 6, Type 0, BuildingBlock: JUFBIX_clean_sbu_0, # of connection points: 6
#     Node 7, Type 0, BuildingBlock: JUFBIX_clean_sbu_0, # of connection points: 6
#     Node 8, Type 1, BuildingBlock: TAGTUT_clean_sbu_1, # of connection points: 8
#     Node 9, Type 1, BuildingBlock: TAGTUT_clean_sbu_1, # of connection points: 8
#     Node 10, Type 1, BuildingBlock: TAGTUT_clean_sbu_1, # of connection points: 8
#     Node 11, Type 1, BuildingBlock: TAGTUT_clean_sbu_1, # of connection points: 8
#     Node 12, Type 1, BuildingBlock: TAGTUT_clean_sbu_1, # of connection points: 8
#     Node 13, Type 1, BuildingBlock: TAGTUT_clean_sbu_1, # of connection points: 8
#     Edge 14, Type (0, 1), BuildingBlock: CIFDUS_clean_linker_0, # of connection points: 2
#     Edge 15, Type (0, 1), BuildingBlock: CIFDUS_clean_linker_0, # of connection points: 2
#     Edge 16, Type (0, 1), BuildingBlock: CIFDUS_clean_linker_0, # of connection points: 2
#     Edge 17, Type (0, 1), BuildingBlock: CIFDUS_clean_linker_0, # of connection points: 2
#     Edge 18, Type (0, 1), BuildingBlock: CIFDUS_clean_linker_0, # of connection points: 2
#     Edge 19, Type (0, 1), BuildingBlock: CIFDUS_clean_linker_0, # of connection points: 2
#     Edge 20, Type (0, 1), BuildingBlock: CIFDUS_clean_linker_0, # of connection points: 2
#     Edge 21, Type (0, 1), BuildingBlock: CIFDUS_clean_linker_0, # of connection points: 2
#     Edge 22, Type (0, 1), BuildingBlock: CIFDUS_clean_linker_0, # of connection points: 2
#     Edge 23, Type (0, 1), BuildingBlock: CIFDUS_clean_linker_0, # of connection points: 2
#     Edge 24, Type (0, 1), BuildingBlock: CIFDUS_clean_linker_0, # of connection points: 2
#     Edge 25, Type (0, 1), BuildingBlock: CIFDUS_clean_linker_0, # of connection points: 2
#     Edge 26, Type (0, 1), BuildingBlock: CIFDUS_clean_linker_0, # of connection points: 2
#     Edge 27, Type (0, 1), BuildingBlock: CIFDUS_clean_linker_0, # of connection points: 2
#     Edge 28, Type (0, 1), BuildingBlock: CIFDUS_clean_linker_0, # of connection points: 2
#     Edge 29, Type (0, 1), BuildingBlock: CIFDUS_clean_linker_0, # of connection points: 2
#     Edge 30, Type (0, 1), BuildingBlock: CIFDUS_clean_linker_0, # of connection points: 2
#     Edge 31, Type (0, 1), BuildingBlock: CIFDUS_clean_linker_0, # of connection points: 2
#     Edge 32, Type (0, 1), BuildingBlock: CIFDUS_clean_linker_0, # of connection points: 2
#     Edge 33, Type (0, 1), BuildingBlock: CIFDUS_clean_linker_0, # of connection points: 2
#     Edge 34, Type (0, 1), BuildingBlock: CIFDUS_clean_linker_0, # of connection points: 2
#     Edge 35, Type (0, 1), BuildingBlock: CIFDUS_clean_linker_0, # of connection points: 2
#     Edge 36, Type (0, 1), BuildingBlock: CIFDUS_clean_linker_0, # of connection points: 2
#     Edge 37, Type (0, 1), BuildingBlock: CIFDUS_clean_linker_0, # of connection points: 2
#     Edge 38, Type (0, 1), BuildingBlock: CIFDUS_clean_linker_0, # of connection points: 2
#     Edge 39, Type (0, 1), BuildingBlock: CIFDUS_clean_linker_0, # of connection points: 2
#     Edge 40, Type (0, 1), BuildingBlock: CIFDUS_clean_linker_0, # of connection points: 2
#     Edge 41, Type (0, 1), BuildingBlock: CIFDUS_clean_linker_0, # of connection points: 2
#     Edge 42, Type (0, 1), BuildingBlock: CIFDUS_clean_linker_0, # of connection points: 2
#     Edge 43, Type (0, 1), BuildingBlock: CIFDUS_clean_linker_0, # of connection points: 2
#     Edge 44, Type (0, 1), BuildingBlock: CIFDUS_clean_linker_0, # of connection points: 2
#     Edge 45, Type (0, 1), BuildingBlock: CIFDUS_clean_linker_0, # of connection points: 2
#     Edge 46, Type (0, 1), BuildingBlock: CIFDUS_clean_linker_0, # of connection points: 2
#     Edge 47, Type (0, 1), BuildingBlock: CIFDUS_clean_linker_0, # of connection points: 2
#     Edge 48, Type (0, 1), BuildingBlock: CIFDUS_clean_linker_0, # of connection points: 2
#     Edge 49, Type (0, 1), BuildingBlock: CIFDUS_clean_linker_0, # of connection points: 2
#     Edge 50, Type (0, 1), BuildingBlock: CIFDUS_clean_linker_0, # of connection points: 2
#     Edge 51, Type (0, 1), BuildingBlock: CIFDUS_clean_linker_0, # of connection points: 2
#     Edge 52, Type (0, 1), BuildingBlock: CIFDUS_clean_linker_0, # of connection points: 2
#     Edge 53, Type (0, 1), BuildingBlock: CIFDUS_clean_linker_0, # of connection points: 2
#     Edge 54, Type (0, 1), BuildingBlock: CIFDUS_clean_linker_0, # of connection points: 2
#     Edge 55, Type (0, 1), BuildingBlock: CIFDUS_clean_linker_0, # of connection points: 2
#     Edge 56, Type (0, 1), BuildingBlock: CIFDUS_clean_linker_0, # of connection points: 2
#     Edge 57, Type (0, 1), BuildingBlock: CIFDUS_clean_linker_0, # of connection points: 2
#     Edge 58, Type (0, 1), BuildingBlock: CIFDUS_clean_linker_0, # of connection points: 2
#     Edge 59, Type (0, 1), BuildingBlock: CIFDUS_clean_linker_0, # of connection points: 2
#     Edge 60, Type (0, 1), BuildingBlock: CIFDUS_clean_linker_0, # of connection points: 2
#     Edge 61, Type (0, 1), BuildingBlock: CIFDUS_clean_linker_0, # of connection points: 2
# Relax obj value: 0.197
# Max RMSD: 0.316
# Mean RMSD: 0.180
data_MOF--net-ocu--node1-JUFBIX_clean_sbu_0--node2-TAGTUT_clean_sbu_1--edge1-CIFDUS_clean_linker_0
_symmetry_space_group_name_H-M    P1
_symmetry_Int_Tables_number       1
_symmetry_cell_setting            triclinic
loop_
_symmetry_equiv_pos_as_xyz
'x, y, z'
_cell_length_a     32.935406
_cell_length_b     32.30556
_cell_length_c     35.50259
_cell_angle_alpha  92.700918
_cell_angle_beta   94.274439
_cell_angle_gamma 101.00385
loop_
_atom_site_label
_atom_site_type_symbol
_atom_site_fract_x
_atom_site_fract_y
_atom_site_fract_z
_atom_type_partial_charge
Co0 Co 0.25649 0.24596 0.24232 0.0
C1 C 0.24789 0.30024 0.30448 0.0
Co2 Co 0.30713 0.30102 0.2547 0.0
C3 C 0.19769 0.17505 0.25998 0.0
C4 C 0.18056 0.19435 0.20527 0.0
N5 N 0.211 0.20217 0.2339 0.0
N6 N 0.1603 0.15099 0.24915 0.0
C7 C 0.14889 0.163 0.21487 0.0
H8 H 0.21378 0.17479 0.28767 0.0
H9 H 0.18034 0.2117 0.17996 0.0
C10 C 0.31608 0.24686 0.1922 0.0
N11 N 0.35256 0.34434 0.26415 0.0
C12 C 0.3753 0.36252 0.23735 0.0
C13 C 0.37628 0.35619 0.29705 0.0
N14 N 0.41259 0.38399 0.25184 0.0
C15 C 0.41372 0.38041 0.28941 0.0
C16 C 0.32039 0.22894 0.29241 0.0
O17 O 0.28104 0.22589 0.19947 0.0
O18 O 0.3321 0.27994 0.21287 0.0
O19 O 0.33449 0.26751 0.28739 0.0
O20 O 0.28564 0.21161 0.27495 0.0
O21 O 0.28219 0.32156 0.29611 0.0
H22 H 0.36854 0.34464 0.32424 0.0
H23 H 0.36644 0.35674 0.20728 0.0
O24 O 0.23207 0.26617 0.28501 0.0
O25 O 0.22821 0.28076 0.21044 0.0
O26 O 0.27945 0.33502 0.22177 0.0
C27 C 0.24367 0.3192 0.20548 0.0
H28 H 0.1196 0.15078 0.19856 0.0
H29 H 0.4406 0.39155 0.30926 0.0
Co30 Co 0.80972 0.24752 0.23629 0.0
C31 C 0.80975 0.2955 0.30491 0.0
Co32 Co 0.75413 0.23164 0.26633 0.0
C33 C 0.87352 0.28181 0.19031 0.0
C34 C 0.89745 0.25585 0.23942 0.0
N35 N 0.86166 0.2582 0.21898 0.0
N36 N 0.9148 0.29651 0.19338 0.0
C37 C 0.93025 0.27934 0.22358 0.0
H38 H 0.852 0.29275 0.17041 0.0
H39 H 0.89951 0.2431 0.26691 0.0
C40 C 0.75291 0.18426 0.19738 0.0
N41 N 0.70294 0.22239 0.28407 0.0
C42 C 0.67571 0.18561 0.28212 0.0
C43 C 0.6808 0.25222 0.29227 0.0
N44 N 0.63708 0.19109 0.28808 0.0
C45 C 0.64028 0.23309 0.2947 0.0
C46 C 0.75362 0.29487 0.21189 0.0
O47 O 0.78884 0.20644 0.19486 0.0
O48 O 0.73403 0.18999 0.22644 0.0
O49 O 0.7353 0.27263 0.23628 0.0
O50 O 0.79053 0.29105 0.20641 0.0
O51 O 0.77401 0.27298 0.30642 0.0
H52 H 0.69293 0.28589 0.29447 0.0
H53 H 0.68432 0.15538 0.27638 0.0
O54 O 0.83034 0.28939 0.27703 0.0
O55 O 0.82783 0.20428 0.26578 0.0
O56 O 0.77259 0.18968 0.29671 0.0
C57 C 0.80866 0.18343 0.29074 0.0
H58 H 0.96185 0.28803 0.2363 0.0
H59 H 0.6153 0.24899 0.30106 0.0
Co60 Co 0.76525 0.73928 0.2605 0.0
C61 C 0.82238 0.81059 0.28996 0.0
Co62 Co 0.76449 0.79626 0.23026 0.0
C63 C 0.81427 0.68445 0.28424 0.0
C64 C 0.75171 0.65572 0.29193 0.0
N65 N 0.77536 0.69122 0.281 0.0
N66 N 0.81668 0.64664 0.2969 0.0
C67 C 0.77737 0.628 0.30201 0.0
H68 H 0.84068 0.70703 0.27677 0.0
H69 H 0.71829 0.65028 0.29223 0.0
C70 C 0.70762 0.72429 0.20122 0.0
N71 N 0.7562 0.84452 0.20963 0.0
C72 C 0.71943 0.85657 0.2065 0.0
C73 C 0.78384 0.87735 0.19908 0.0
N74 N 0.72253 0.8957 0.1944 0.0
C75 C 0.76308 0.90897 0.18942 0.0
C76 C 0.81414 0.75353 0.19626 0.0
O77 O 0.72182 0.70789 0.22972 0.0
O78 O 0.72103 0.76313 0.19628 0.0
O79 O 0.80286 0.78875 0.19424 0.0
O80 O 0.80156 0.73 0.22228 0.0
O81 O 0.80712 0.82855 0.26303 0.0
H82 H 0.81684 0.87835 0.19887 0.0
H83 H 0.69094 0.83688 0.2135 0.0
O84 O 0.80961 0.77143 0.2928 0.0
O85 O 0.72863 0.74781 0.29765 0.0
O86 O 0.72616 0.80438 0.26674 0.0
C87 C 0.71512 0.78178 0.2939 0.0
H88 H 0.76806 0.59728 0.31308 0.0
H89 H 0.77659 0.9387 0.17844 0.0
Co90 Co 0.25126 0.79286 0.22395 0.0
C91 C 0.30451 0.82382 0.28769 0.0
Co92 Co 0.29665 0.75348 0.24001 0.0
C93 C 0.17733 0.82446 0.23232 0.0
C94 C 0.22201 0.86808 0.2063 0.0
N95 N 0.21229 0.8271 0.21439 0.0
N96 N 0.16811 0.86252 0.24033 0.0
C97 C 0.19505 0.88986 0.22238 0.0
H98 H 0.16352 0.79689 0.24626 0.0
H99 H 0.2509 0.883 0.19592 0.0
C100 C 0.24176 0.72119 0.17734 0.0
N101 N 0.33579 0.72086 0.24906 0.0
C102 C 0.35344 0.7046 0.2205 0.0
C103 C 0.34899 0.70299 0.28015 0.0
N104 N 0.37618 0.67661 0.23186 0.0
C105 C 0.37414 0.67537 0.26949 0.0
C106 C 0.22482 0.72926 0.27801 0.0
O107 O 0.22697 0.7544 0.18257 0.0
O108 O 0.27198 0.71511 0.1991 0.0
O109 O 0.26026 0.72019 0.27367 0.0
O110 O 0.21503 0.75922 0.25917 0.0
O111 O 0.31992 0.79121 0.2815 0.0
H112 H 0.33915 0.70785 0.30815 0.0
H113 H 0.34772 0.71124 0.19116 0.0
O114 O 0.2753 0.83115 0.26527 0.0
O115 O 0.2883 0.82522 0.19023 0.0
O116 O 0.3341 0.78715 0.20563 0.0
C117 C 0.32422 0.81706 0.18677 0.0
H118 H 0.20004 0.92392 0.22683 0.0
H119 H 0.38764 0.6544 0.28734 0.0
Co120 Co 0.32392 0.76766 0.74048 0.0
C121 C 0.29701 0.79298 0.8105 0.0
Co122 Co 0.264 0.73385 0.75578 0.0
C123 C 0.40619 0.78081 0.71668 0.0
C124 C 0.39756 0.83168 0.75389 0.0
N125 N 0.3777 0.79458 0.73662 0.0
N126 N 0.44236 0.8091 0.71845 0.0
C127 C 0.43717 0.84046 0.74307 0.0
H128 H 0.39924 0.75237 0.6981 0.0
H129 H 0.38354 0.85243 0.77138 0.0
C130 C 0.28762 0.71002 0.68431 0.0
N131 N 0.2102 0.70537 0.75871 0.0
C132 C 0.19775 0.66919 0.77541 0.0
C133 C 0.17576 0.71144 0.73802 0.0
N134 N 0.15741 0.65272 0.76588 0.0
C135 C 0.14313 0.67942 0.74289 0.0
C136 C 0.26383 0.80868 0.71479 0.0
O137 O 0.32011 0.73854 0.69129 0.0
O138 O 0.26228 0.70299 0.70937 0.0
O139 O 0.24224 0.77781 0.72977 0.0
O140 O 0.30294 0.81179 0.71688 0.0
O141 O 0.26445 0.76485 0.80287 0.0
H142 H 0.17422 0.73637 0.71913 0.0
H143 H 0.21767 0.65496 0.7943 0.0
O144 O 0.32551 0.79691 0.78809 0.0
O145 O 0.34622 0.72426 0.76384 0.0
O146 O 0.28797 0.69053 0.78214 0.0
C147 C 0.32715 0.69415 0.78132 0.0
H148 H 0.45833 0.87056 0.74866 0.0
H149 H 0.11156 0.67573 0.73033 0.0
Co150 Co 0.25313 0.22319 0.78044 0.0
C151 C 0.31608 0.2871 0.815 0.0
Co152 Co 0.27069 0.27823 0.74764 0.0
C153 C 0.25599 0.13907 0.79519 0.0
C154 C 0.24163 0.17273 0.84407 0.0
N155 N 0.24382 0.17475 0.80655 0.0
N156 N 0.26877 0.11858 0.82448 0.0
C157 C 0.25653 0.13784 0.85509 0.0
H158 H 0.26453 0.13334 0.76684 0.0
H159 H 0.23714 0.19853 0.86284 0.0
C160 C 0.20818 0.21613 0.71207 0.0
N161 N 0.2781 0.32646 0.72223 0.0
C162 C 0.24501 0.3427 0.71135 0.0
C163 C 0.31096 0.35342 0.71114 0.0
N164 N 0.25496 0.37819 0.69346 0.0
C165 C 0.29662 0.3857 0.69319 0.0
C166 C 0.31402 0.21961 0.72721 0.0
O167 O 0.21379 0.19567 0.741 0.0
O168 O 0.22788 0.2536 0.71108 0.0
O169 O 0.30814 0.25577 0.71846 0.0
O170 O 0.29592 0.20282 0.75469 0.0
O171 O 0.31292 0.30283 0.7832 0.0
H172 H 0.3429 0.34976 0.71561 0.0
H173 H 0.21363 0.3285 0.71666 0.0
O174 O 0.29362 0.25145 0.82022 0.0
O175 O 0.211 0.24404 0.80579 0.0
O176 O 0.23322 0.30104 0.77705 0.0
C177 C 0.21014 0.28247 0.80054 0.0
H178 H 0.26653 0.13312 0.88407 0.0
H179 H 0.31504 0.4117 0.68017 0.0
Co180 Co 0.74477 0.29491 0.72694 0.0
C181 C 0.79951 0.32388 0.78987 0.0
Co182 Co 0.79473 0.25958 0.73467 0.0
C183 C 0.67847 0.33269 0.74563 0.0
C184 C 0.6996 0.35446 0.69335 0.0
N185 N 0.7042 0.32624 0.7195 0.0
N186 N 0.65932 0.36487 0.7381 0.0
C187 C 0.67259 0.37911 0.70534 0.0
H188 H 0.67846 0.31849 0.77267 0.0
H189 H 0.71772 0.35974 0.66925 0.0
C190 C 0.73922 0.23256 0.67112 0.0
N191 N 0.83547 0.22838 0.74034 0.0
C192 C 0.85288 0.21443 0.71054 0.0
C193 C 0.85165 0.21102 0.77042 0.0
N194 N 0.8784 0.18832 0.72022 0.0
C195 C 0.87846 0.18612 0.75797 0.0
C196 C 0.72317 0.22469 0.77339 0.0
O197 O 0.72253 0.26207 0.6833 0.0
O198 O 0.77085 0.22445 0.68976 0.0
O199 O 0.75983 0.22128 0.7659 0.0
O200 O 0.70868 0.25492 0.7587 0.0
O201 O 0.81747 0.29434 0.77916 0.0
H202 H 0.84317 0.21476 0.79907 0.0
H203 H 0.84576 0.22198 0.68169 0.0
O204 O 0.76715 0.32971 0.77092 0.0
O205 O 0.78081 0.33326 0.69622 0.0
O206 O 0.83075 0.29828 0.70322 0.0
C207 C 0.81728 0.32906 0.68897 0.0
H208 H 0.66672 0.40776 0.69324 0.0
H209 H 0.89482 0.1664 0.77478 0.0
Co210 Co 0.7462 0.74432 0.73642 0.0
C211 C 0.74135 0.8026 0.79703 0.0
Co212 Co 0.80117 0.79536 0.74866 0.0
C213 C 0.69392 0.66296 0.74413 0.0
C214 C 0.66005 0.70451 0.71638 0.0
N215 N 0.69889 0.70108 0.72913 0.0
N216 N 0.6538 0.64335 0.74279 0.0
C217 C 0.63235 0.66925 0.72486 0.0
H218 H 0.71859 0.65145 0.75955 0.0
H219 H 0.65161 0.73237 0.7049 0.0
C220 C 0.8079 0.73904 0.68785 0.0
N221 N 0.84731 0.838 0.75718 0.0
C222 C 0.87096 0.85467 0.73037 0.0
C223 C 0.86507 0.85918 0.78989 0.0
N224 N 0.90277 0.88493 0.74484 0.0
C225 C 0.89919 0.88872 0.78222 0.0
C226 C 0.80794 0.72426 0.78799 0.0
O227 O 0.77191 0.71974 0.69496 0.0
O228 O 0.82466 0.77226 0.70792 0.0
O229 O 0.82749 0.76106 0.78234 0.0
O230 O 0.77193 0.71176 0.77135 0.0
O231 O 0.77772 0.81826 0.78915 0.0
H232 H 0.85387 0.85368 0.81744 0.0
H233 H 0.86454 0.84558 0.70046 0.0
O234 O 0.72142 0.76967 0.77773 0.0
O235 O 0.72137 0.77779 0.702 0.0
O236 O 0.7746 0.82988 0.71449 0.0
C237 C 0.73892 0.81552 0.6972 0.0
H238 H 0.59885 0.66478 0.72102 0.0
H239 H 0.91965 0.91098 0.80223 0.0
C240 C 0.9436 0.08659 0.53504 0.0
C241 C 0.96074 0.06824 0.41728 0.0
C242 C 0.97975 0.90919 0.4629 0.0
Mg243 Mg 1.02122 0.08881 0.48996 0.0
O244 O 1.00931 0.03318 0.50292 0.0
Mg245 Mg 0.95335 0.99825 0.48754 0.0
Mg246 Mg 0.04681 0.99346 0.49328 0.0
O247 O 0.08337 0.95304 0.4842 0.0
Mg248 Mg 0.06905 0.8979 0.49943 0.0
Mg249 Mg 0.13836 0.98734 0.50391 0.0
C250 C 0.111 0.07812 0.52737 0.0
C251 C 0.10459 0.02738 0.42766 0.0
O252 O 0.92736 0.04954 0.52017 0.0
O253 O 0.97935 0.10677 0.52796 0.0
O254 O 0.944 0.03437 0.43224 0.0
O255 O 0.9939 0.09215 0.43277 0.0
O256 O 0.08678 0.10085 0.51208 0.0
O257 O 0.10113 0.03756 0.52608 0.0
C258 C 0.99323 0.95795 0.56069 0.0
O259 O 0.02863 0.9639 0.54752 0.0
O260 O 0.96143 0.96755 0.5431 0.0
O261 O 0.16466 0.93486 0.47266 0.0
O262 O 0.11259 0.87781 0.46483 0.0
O263 O 0.14206 0.95204 0.5603 0.0
C264 C 0.14808 0.8981 0.45712 0.0
O265 O 0.09043 0.89584 0.55804 0.0
O266 O 1.00381 0.88555 0.47669 0.0
C267 C 0.12261 0.91945 0.57529 0.0
O268 O 0.99097 0.94948 0.46262 0.0
O269 O 0.06758 0.02263 0.43798 0.0
O270 O 0.13426 0.01791 0.44865 0.0
C271 C 0.42243 0.13162 0.0321 0.0
C272 C 0.4662 0.11394 0.9178 0.0
C273 C 0.4398 0.95306 0.94223 0.0
Mg274 Mg 0.50688 0.1268 -0.00175 0.0
O275 O 0.48681 0.0684 0.00389 0.0
Mg276 Mg 0.42947 0.04299 0.97939 0.0
Mg277 Mg 0.51646 0.026 0.98126 0.0
O278 O 0.54572 0.98346 0.95867 0.0
Mg279 Mg 0.52426 0.92712 0.96941 0.0
Mg280 Mg 0.60363 1.00749 0.98202 0.0
C281 C 0.5922 0.09804 0.02512 0.0
C282 C 0.58524 0.07349 0.91844 0.0
O283 O 0.40712 0.09563 0.01461 0.0
O284 O 0.46056 0.14971 0.03057 0.0
O285 O 0.44156 0.0837 0.93078 0.0
O286 O 0.49617 0.1368 0.93859 0.0
O287 O 0.57127 0.12765 0.02108 0.0
O288 O 0.57644 0.05903 0.01524 0.0
C289 C 0.44754 0.97901 0.04361 0.0
O290 O 0.48491 0.98198 0.03255 0.0
O291 O 0.42247 0.99992 0.02773 0.0
O292 O 0.62292 0.95048 0.94666 0.0
O293 O 0.56618 0.89843 0.93882 0.0
O294 O 0.59341 0.96884 0.03302 0.0
C295 C 0.60404 0.91327 0.93325 0.0
O296 O 0.53492 0.92062 0.02854 0.0
O297 O 0.46042 0.92392 0.9489 0.0
C298 C 0.56712 0.94137 0.04763 0.0
O299 O 0.45655 0.99255 0.94711 0.0
O300 O 0.54837 0.07053 0.93074 0.0
O301 O 0.61018 0.05109 0.93248 0.0
C302 C 0.91582 0.62048 0.0465 0.0
C303 C 0.93696 0.60057 0.9292 0.0
C304 C 0.933 0.43243 0.97073 0.0
Mg305 Mg 0.99359 0.61368 0.00442 0.0
O306 O 0.97743 0.55672 0.01267 0.0
Mg307 Mg 0.91897 0.5285 -0.00302 0.0
Mg308 Mg 1.00842 0.51139 -0.00123 0.0
O309 O 0.0391 0.46539 0.9857 0.0
Mg310 Mg 1.02216 0.41036 -0.00031 0.0
Mg311 Mg 0.09829 0.49287 -0.00169 0.0
C312 C 0.08416 0.58995 0.02582 0.0
C313 C 0.05825 0.53745 0.9276 0.0
O314 O 0.89907 0.58385 0.03086 0.0
O315 O 0.95332 0.63817 0.04193 0.0
O316 O 0.91575 0.56706 0.94169 0.0
O317 O 0.96994 0.62122 0.9477 0.0
O318 O 0.05986 0.61606 0.01874 0.0
O319 O 0.07087 0.54967 0.02592 0.0
C320 C 0.9559 0.48346 0.06821 0.0
O321 O 0.9905 0.48543 0.05364 0.0
O322 O 0.92506 0.49596 0.05147 0.0
O323 O 0.11454 0.43438 0.96442 0.0
O324 O 0.05874 0.38135 0.96272 0.0
O325 O 0.10706 0.45604 0.05408 0.0
C326 C 0.09527 0.39657 0.95361 0.0
O327 O 0.05176 0.40399 0.05516 0.0
O328 O 0.95585 0.40649 0.98243 0.0
C329 C 0.08767 0.4234 0.06926 0.0
O330 O 0.94718 0.47255 0.9704 0.0
O331 O 1.02488 0.53769 0.94351 0.0
O332 O 0.08883 0.52364 0.94331 0.0
C333 C 0.43006 0.57712 0.04237 0.0
C334 C 0.44111 0.55653 0.92231 0.0
C335 C 0.48055 0.40404 0.97473 0.0
Mg336 Mg 0.50418 0.58603 0.99252 0.0
O337 O 0.49912 0.5311 0.0072 0.0
Mg338 Mg 0.44551 0.4906 -0.00446 0.0
Mg339 Mg 0.5404 0.49595 -0.00269 0.0
O340 O 0.58154 0.46082 0.98719 0.0
Mg341 Mg 0.57682 0.40528 0.00062 0.0
Mg342 Mg 0.63507 0.50155 -0.00121 0.0
C343 C 0.59968 0.58727 0.02075 0.0
C344 C 0.58539 0.53232 0.92488 0.0
O345 O 0.41567 0.53961 0.02759 0.0
O346 O 0.46385 0.60002 0.03361 0.0
O347 O 0.42903 0.52165 0.93805 0.0
O348 O 0.47184 0.58431 0.93711 0.0
O349 O 0.57105 0.60618 0.00768 0.0
O350 O 0.59375 0.547 0.02333 0.0
C351 C 0.49572 0.46336 0.07034 0.0
O352 O 0.53027 0.47124 0.05552 0.0
O353 O 0.46144 0.46677 0.05262 0.0
O354 O 0.6649 0.45408 0.9658 0.0
O355 O 0.61681 0.39375 0.95876 0.0
O356 O 0.65212 0.46865 0.05534 0.0
C357 C 0.64947 0.41782 0.94903 0.0
O358 O 0.60935 0.40584 0.05556 0.0
O359 O 0.5097 0.3848 0.98594 0.0
C360 C 0.64029 0.43329 0.07045 0.0
O361 O 0.48679 0.44438 0.97222 0.0
O362 O 0.55085 0.52248 0.93956 0.0
O363 O 0.6197 0.52832 0.9423 0.0
C364 C 0.93001 0.62487 0.53877 0.0
C365 C 0.98731 0.61578 0.42887 0.0
C366 C 0.96664 0.45317 0.44506 0.0
Mg367 Mg 1.01938 0.62715 0.51188 0.0
O368 O 1.00128 0.56779 0.5129 0.0
Mg369 Mg 0.94663 0.54028 0.48474 0.0
Mg370 Mg 0.03526 0.52888 0.49141 0.0
O371 O 0.06978 0.48965 0.47159 0.0
Mg372 Mg 0.05197 0.43191 0.47941 0.0
Mg373 Mg 0.12492 0.5181 0.49871 0.0
C374 C 0.10536 0.60334 0.54126 0.0
C375 C 0.10527 0.57881 0.43162 0.0
O376 O 0.91778 0.5893 0.51955 0.0
O377 O 0.96786 0.64498 0.54033 0.0
O378 O 0.96174 0.58399 0.43847 0.0
O379 O 1.0143 0.63863 0.45263 0.0
O380 O 0.08331 0.63213 0.53833 0.0
O381 O 0.09114 0.56492 0.52873 0.0
C382 C 0.96369 0.47604 0.54878 0.0
O383 O 1.00227 0.48232 0.54021 0.0
O384 O 0.93791 0.4951 0.53149 0.0
O385 O 0.15238 0.4669 0.46591 0.0
O386 O 0.10096 0.41031 0.45154 0.0
O387 O 0.11505 0.47707 0.54748 0.0
C388 C 0.13868 0.42957 0.45024 0.0
O389 O 0.06072 0.42393 0.53898 0.0
O390 O 0.98892 0.42559 0.45297 0.0
C391 C 0.09084 0.4462 0.55994 0.0
O392 O 0.97979 0.49299 0.45334 0.0
O393 O 0.06714 0.57402 0.44107 0.0
O394 O 0.13118 0.56044 0.4496 0.0
C395 C 0.41147 0.10255 0.56288 0.0
C396 C 0.4217 0.08965 0.44329 0.0
C397 C 0.43388 0.92616 0.46774 0.0
Mg398 Mg 0.48543 0.10117 0.51337 0.0
O399 O 0.47279 0.04408 0.52462 0.0
Mg400 Mg 0.41486 0.01324 0.50862 0.0
Mg401 Mg 0.50544 1.00539 0.50068 0.0
O402 O 0.53835 0.96646 0.47679 0.0
Mg403 Mg 0.52716 0.90895 0.48586 0.0
Mg404 Mg 0.59603 0.99763 0.49244 0.0
C405 C 0.57813 0.08424 0.53294 0.0
C406 C 0.54842 0.05101 0.43332 0.0
O407 O 0.39479 0.06428 0.55061 0.0
O408 O 0.44612 0.12208 0.5526 0.0
O409 O 0.4038 0.05613 0.458 0.0
O410 O 0.45654 0.1106 0.45812 0.0
O411 O 0.55302 0.10995 0.52736 0.0
O412 O 0.56594 0.04395 0.52887 0.0
C413 C 0.45984 0.95478 0.56441 0.0
O414 O 0.49379 0.96561 0.54921 0.0
O415 O 0.42701 0.9692 0.55507 0.0
O416 O 0.61728 0.94847 0.45198 0.0
O417 O 0.56768 0.88939 0.44594 0.0
O418 O 0.60806 0.95512 0.54334 0.0
C419 C 0.60255 0.91074 0.43767 0.0
O420 O 0.55484 0.90059 0.54144 0.0
O421 O 0.45971 0.90105 0.47264 0.0
C422 C 0.58956 0.92113 0.55701 0.0
O423 O 0.44516 0.96664 0.47194 0.0
O424 O 0.51626 0.04442 0.4516 0.0
O425 O 0.58138 0.03691 0.44278 0.0
H426 H 0.18621 0.08789 0.28133 0.0
H427 H 0.08363 0.15226 0.27094 0.0
H428 H 0.05342 0.11578 0.32459 0.0
H429 H 0.06256 0.07305 0.3802 0.0
H430 H 0.16806 0.01131 0.3894 0.0
H431 H 0.19064 0.03889 0.33063 0.0
C432 C 0.15661 0.09278 0.29031 0.0
C433 C 0.13702 0.12234 0.27272 0.0
C434 C 0.14049 0.07283 0.32148 0.0
C435 C 0.09881 0.12907 0.28416 0.0
C436 C 0.08195 0.10867 0.31506 0.0
C437 C 0.09014 0.06534 0.369 0.0
C438 C 0.11423 0.04128 0.38977 0.0
C439 C 0.10345 0.0817 0.33493 0.0
C440 C 0.14961 0.0309 0.37466 0.0
C441 C 0.16251 0.04637 0.34085 0.0
H442 H 0.88977 0.17463 0.29205 0.0
H443 H 0.77557 0.12672 0.34126 0.0
H444 H 0.81153 0.08262 0.38102 0.0
H445 H 0.87674 0.06154 0.40532 0.0
H446 H 0.99165 0.11508 0.36003 0.0
H447 H 0.95419 0.15254 0.31504 0.0
C448 C 0.8725 0.15445 0.31128 0.0
C449 C 0.82977 0.15438 0.31354 0.0
C450 C 0.89369 0.12994 0.33478 0.0
C451 C 0.80833 0.12775 0.33882 0.0
C452 C 0.82897 0.10244 0.36162 0.0
C453 C 0.89345 0.08058 0.38496 0.0
C454 C 0.93707 0.08479 0.38567 0.0
C455 C 0.8718 0.10367 0.36025 0.0
C456 C 0.95821 0.11073 0.3598 0.0
C457 C 0.93675 0.13245 0.33426 0.0
H458 H 0.84866 0.78382 0.35675 0.0
H459 H 0.85832 0.89402 0.2911 0.0
H460 H 0.90248 0.93646 0.34271 0.0
H461 H 0.94182 0.94085 0.4042 0.0
H462 H 0.9348 0.82998 0.4686 0.0
H463 H 0.88448 0.78937 0.42007 0.0
C464 C 0.86058 0.81708 0.35363 0.0
C465 C 0.85085 0.83566 0.32002 0.0
C466 C 0.88564 0.84124 0.38336 0.0
C467 C 0.8659 0.87891 0.31659 0.0
C468 C 0.89083 0.90324 0.34614 0.0
C469 C 0.92846 0.90811 0.40813 0.0
C470 C 0.94204 0.88828 0.43972 0.0
C471 C 0.90115 0.88461 0.37947 0.0
C472 C 0.92478 0.84578 0.44435 0.0
C473 C 0.89641 0.82249 0.41649 0.0
H474 H 0.21841 0.90244 0.29847 0.0
H475 H 0.09329 0.8371 0.26553 0.0
H476 H 0.07837 0.83538 0.33219 0.0
H477 H 0.10125 0.85228 0.39867 0.0
H478 H 0.22576 0.92059 0.43214 0.0
H479 H 0.24174 0.91915 0.36583 0.0
C480 C 0.18746 0.88927 0.30596 0.0
C481 C 0.15627 0.87137 0.27736 0.0
C482 C 0.17983 0.88724 0.34412 0.0
C483 C 0.11698 0.85236 0.28723 0.0
C484 C 0.10889 0.85063 0.32519 0.0
C485 C 0.1323 0.86604 0.39181 0.0
C486 C 0.16242 0.88635 0.42045 0.0
C487 C 0.14028 0.8675 0.35377 0.0
C488 C 0.20221 0.90443 0.41069 0.0
C489 C 0.21106 0.90431 0.37279 0.0
H490 H 0.18071 0.80914 0.70288 0.0
H491 H 0.30085 0.87578 0.67691 0.0
H492 H 0.26761 0.9202 0.63561 0.0
H493 H 0.20448 0.9354 0.60175 0.0
H494 H 0.08449 0.86607 0.6252 0.0
H495 H 0.11752 0.82813 0.67282 0.0
C496 C 0.19973 0.83356 0.68848 0.0
C497 C 0.24338 0.8386 0.69287 0.0
C498 C 0.18033 0.85868 0.66418 0.0
C499 C 0.26727 0.87085 0.67407 0.0
C500 C 0.24824 0.89633 0.65033 0.0
C501 C 0.18543 0.9128 0.61795 0.0
C502 C 0.14193 0.90374 0.60978 0.0
C503 C 0.20478 0.88997 0.64451 0.0
C504 C 0.11796 0.87378 0.63079 0.0
C505 C 0.13688 0.85181 0.65791 0.0
H506 H 0.20351 0.13495 0.68671 0.0
H507 H 0.16771 0.25185 0.65737 0.0
H508 H 0.14261 0.22143 0.59376 0.0
H509 H 0.12922 0.1618 0.54768 0.0
H510 H 0.16102 0.04295 0.577 0.0
H511 H 0.19208 0.07502 0.63875 0.0
C512 C 0.18928 0.15329 0.66658 0.0
C513 C 0.18634 0.19511 0.67679 0.0
C514 C 0.17577 0.13591 0.62979 0.0
C515 C 0.16939 0.21926 0.6502 0.0
C516 C 0.15564 0.20213 0.61375 0.0
C517 C 0.14348 0.14284 0.56718 0.0
C518 C 0.14193 0.09971 0.55786 0.0
C519 C 0.15882 0.1606 0.60327 0.0
C520 C 0.16147 0.07615 0.58341 0.0
C521 C 0.17859 0.09426 0.61901 0.0
H522 H 0.83742 0.14184 0.66097 0.0
H523 H 0.95882 0.18271 0.71928 0.0
H524 H 0.99043 0.15497 0.6653 0.0
H525 H 0.983 0.12454 0.59987 0.0
H526 H 0.86105 0.08236 0.54209 0.0
H527 H 0.82951 0.10623 0.59753 0.0
C528 C 0.87074 0.14385 0.66189 0.0
C529 C 0.8961 0.16418 0.69349 0.0
C530 C 0.88826 0.12881 0.63072 0.0
C531 C 0.93908 0.16671 0.69511 0.0
C532 C 0.95696 0.15146 0.66418 0.0
C533 C 0.94953 0.12109 0.59931 0.0
C534 C 0.9242 0.10299 0.56681 0.0
C535 C 0.93185 0.13363 0.63147 0.0
C536 C 0.88092 0.09703 0.5667 0.0
C537 C 0.86302 0.11032 0.59837 0.0
H538 H 0.95442 0.85526 0.702 0.0
H539 H 0.91246 0.96813 0.73668 0.0
H540 H 0.94215 1.00384 0.68267 0.0
H541 H 0.96794 0.99723 0.61981 0.0
H542 H 1.00998 0.88412 0.58494 0.0
H543 H 0.99267 0.85357 0.64507 0.0
C544 C 0.95352 0.88823 0.69833 0.0
C545 C 0.93156 0.90938 0.72267 0.0
C546 C 0.96963 0.90774 0.6669 0.0
C547 C 0.92979 0.95183 0.71816 0.0
C548 C 0.94614 0.97183 0.6871 0.0
C549 C 0.9739 0.96621 0.62589 0.0
C550 C 0.98918 0.94226 0.5983 0.0
C551 C 0.96414 0.94926 0.66033 0.0
C552 C 0.99779 0.90258 0.60607 0.0
C553 C 0.98789 0.88525 0.64026 0.0
H554 H 0.29208 0.17842 0.14133 0.0
H555 H 0.39302 0.28352 0.17345 0.0
H556 H 0.43383 0.25884 0.12575 0.0
H557 H 0.44263 0.20546 0.07684 0.0
H558 H 0.34158 0.10046 0.0445 0.0
H559 H 0.29943 0.12725 0.08982 0.0
C560 C 0.3229 0.19606 0.13776 0.0
C561 C 0.33938 0.23262 0.16128 0.0
C562 C 0.34646 0.18167 0.11012 0.0
C563 C 0.37941 0.25515 0.15599 0.0
C564 C 0.40292 0.24105 0.12864 0.0
C565 C 0.41127 0.18859 0.07939 0.0
C566 C 0.39566 0.15077 0.05722 0.0
C567 C 0.387 0.20405 0.10582 0.0
C568 C 0.35475 0.12957 0.06109 0.0
C569 C 0.33049 0.14481 0.08717 0.0
H570 H 0.88186 0.36502 0.1868 0.0
H571 H 0.99194 0.31502 0.1702 0.0
H572 H 1.02065 0.37841 0.13795 0.0
H573 H 1.00673 0.43786 0.10267 0.0
H574 H 0.89168 0.48153 0.11268 0.0
H575 H 0.87238 0.4304 0.15965 0.0
C576 C 0.912 0.36782 0.17569 0.0
C577 C 0.93405 0.3349 0.17864 0.0
C578 C 0.92698 0.40261 0.15579 0.0
C579 C 0.97413 0.33971 0.16673 0.0
C580 C 0.99032 0.37557 0.14831 0.0
C581 C 0.97779 0.43668 0.11557 0.0
C582 C 0.94979 0.46189 0.10317 0.0
C583 C 0.9659 0.40582 0.14079 0.0
C584 C 0.91309 0.46132 0.12104 0.0
C585 C 0.902 0.43212 0.14775 0.0
H586 H 0.64307 0.85676 0.1759 0.0
H587 H 0.72497 0.97907 0.18663 0.0
H588 H 0.67406 1.00805 0.1484 0.0
H589 H 0.61612 0.99371 0.10018 0.0
H590 H 0.53989 0.86889 0.083 0.0
H591 H 0.5771 0.84641 0.13813 0.0
C592 C 0.64938 0.89016 0.17133 0.0
C593 C 0.68859 0.91537 0.18265 0.0
C594 C 0.62062 0.90614 0.14837 0.0
C595 C 0.69566 0.95871 0.17685 0.0
C596 C 0.66638 0.97538 0.15531 0.0
C597 C 0.60694 0.96189 0.10915 0.0
C598 C 0.57699 0.93227 0.08683 0.0
C599 C 0.63024 0.94862 0.13885 0.0
C600 C 0.56381 0.89178 0.09936 0.0
C601 C 0.58531 0.87891 0.1306 0.0
H602 H 0.21951 0.73036 0.10387 0.0
H603 H 0.2205 0.6376 0.187 0.0
H604 H 0.17816 0.5832 0.14256 0.0
H605 H 0.13072 0.56625 0.08435 0.0
H606 H 0.1318 0.65909 0.00091 0.0
H607 H 0.18509 0.70858 0.04022 0.0
C608 C 0.21093 0.69803 0.11184 0.0
C609 C 0.22184 0.68793 0.14864 0.0
C610 C 0.18733 0.66689 0.08598 0.0
C611 C 0.21172 0.64592 0.15874 0.0
C612 C 0.18762 0.61487 0.13339 0.0
C613 C 0.14408 0.59653 0.07406 0.0
C614 C 0.12686 0.60948 0.04031 0.0
C615 C 0.17389 0.6254 0.0974 0.0
C616 C 0.14437 0.64877 0.02715 0.0
C617 C 0.17441 0.67731 0.04982 0.0
H618 H 0.31317 0.8773 0.81169 0.0
H619 H 0.29728 0.77328 0.88424 0.0
H620 H 0.33295 0.82029 0.93778 0.0
H621 H 0.38348 0.88539 0.95788 0.0
H622 H 0.40283 0.98794 0.88377 0.0
H623 H 0.34949 0.94795 0.83723 0.0
C624 C 0.31604 0.8655 0.8397 0.0
C625 C 0.30322 0.8221 0.84431 0.0
C626 C 0.33758 0.89242 0.86977 0.0
C627 C 0.30686 0.80669 0.88036 0.0
C628 C 0.32763 0.83349 0.91076 0.0
C629 C 0.37468 0.89959 0.93218 0.0
C630 C 0.39757 0.93897 0.92365 0.0
C631 C 0.34534 0.87567 0.90505 0.0
C632 C 0.38573 0.95758 0.89074 0.0
C633 C 0.35566 0.93443 0.86392 0.0
H634 H 0.16174 0.25698 0.85821 0.0
H635 H 0.20829 0.36588 0.79667 0.0
H636 H 0.1792 0.41091 0.83958 0.0
H637 H 0.14191 0.42044 0.8957 0.0
H638 H 0.0911 0.31179 0.9552 0.0
H639 H 0.12063 0.26599 0.91248 0.0
C640 C 0.16506 0.29044 0.85394 0.0
C641 C 0.18737 0.30782 0.82426 0.0
C642 C 0.14795 0.31652 0.87876 0.0
C643 C 0.19135 0.35139 0.81923 0.0
C644 C 0.17489 0.37741 0.84392 0.0
C645 C 0.13768 0.38679 0.89945 0.0
C646 C 0.11494 0.36957 0.92879 0.0
C647 C 0.1536 0.36048 0.87407 0.0
C648 C 0.10876 0.32577 0.93286 0.0
C649 C 0.12552 0.29956 0.90839 0.0
H650 H 0.64253 0.21832 0.80077 0.0
H651 H 0.74984 0.15932 0.80646 0.0
H652 H 0.7172 0.10916 0.84902 0.0
H653 H 0.65966 0.08113 0.88626 0.0
H654 H 0.55069 0.13685 0.8829 0.0
H655 H 0.58195 0.18771 0.83859 0.0
C656 C 0.65882 0.19445 0.81115 0.0
C657 C 0.69943 0.19359 0.79955 0.0
C658 C 0.63936 0.16447 0.83651 0.0
C659 C 0.71911 0.16178 0.81407 0.0
C660 C 0.70027 0.13262 0.83878 0.0
C661 C 0.64218 0.10413 0.87597 0.0
C662 C 0.60217 0.10424 0.88877 0.0
C663 C 0.66056 0.13355 0.8504 0.0
C664 C 0.58111 0.13505 0.87421 0.0
C665 C 0.5993 0.16453 0.84865 0.0
H666 H 0.89008 0.72735 0.81052 0.0
H667 H 0.76727 0.65561 0.82113 0.0
H668 H 0.79627 0.60792 0.86201 0.0
H669 H 0.85633 0.58871 0.89812 0.0
H670 H 0.97923 0.65998 0.88677 0.0
H671 H 0.9506 0.70457 0.84252 0.0
C672 C 0.86967 0.70132 0.82183 0.0
C673 C 0.82645 0.69556 0.813 0.0
C674 C 0.88666 0.67343 0.84506 0.0
C675 C 0.80061 0.6611 0.82747 0.0
C676 C 0.8172 0.63364 0.85088 0.0
C677 C 0.87699 0.61331 0.88529 0.0
C678 C 0.91999 0.62079 0.89606 0.0
C679 C 0.86018 0.63961 0.86017 0.0
C680 C 0.94604 0.65332 0.87925 0.0
C681 C 0.92964 0.67918 0.85405 0.0
H682 H 0.16301 0.29815 0.17471 0.0
H683 H 0.26987 0.39977 0.18317 0.0
H684 H 0.23086 0.44235 0.14469 0.0
H685 H 0.16651 0.45007 0.10631 0.0
H686 H 0.061 0.34661 0.09744 0.0
H687 H 0.09878 0.30662 0.13867 0.0
C688 C 0.17791 0.32962 0.16821 0.0
C689 C 0.21968 0.34534 0.18185 0.0
C690 C 0.15515 0.35418 0.14614 0.0
C691 C 0.23797 0.38649 0.17312 0.0
C692 C 0.21555 0.41101 0.15107 0.0
C693 C 0.15146 0.4191 0.11389 0.0
C694 C 0.11012 0.4023 0.09911 0.0
C695 C 0.17406 0.39519 0.13719 0.0
C696 C 0.09199 0.36148 0.10895 0.0
C697 C 0.11391 0.33804 0.13229 0.0
H698 H 0.08302 0.64934 0.7912 0.0
H699 H 0.17991 0.57858 0.77787 0.0
H700 H 0.15089 0.52922 0.82351 0.0
H701 H 0.10838 0.51735 0.87654 0.0
H702 H 1.01555 0.5925 0.8943 0.0
H703 H 0.03181 0.62886 0.83692 0.0
C704 C 0.09662 0.62211 0.79731 0.0
C705 C 0.13377 0.61766 0.78232 0.0
C706 C 0.08109 0.59555 0.82488 0.0
C707 C 0.15159 0.58256 0.79002 0.0
C708 C 0.1352 0.55468 0.81612 0.0
C709 C 0.09139 0.54136 0.86756 0.0
C710 C 0.0621 0.55366 0.89008 0.0
C711 C 0.10171 0.5627 0.83544 0.0
C712 C 0.03898 0.58342 0.87763 0.0
C713 C 0.04826 0.60415 0.84493 0.0
H714 H 0.33693 0.17731 0.8319 0.0
H715 H 0.29238 0.04287 0.81788 0.0
H716 H 0.36396 0.03129 0.82906 0.0
H717 H 0.43331 0.05938 0.85947 0.0
H718 H 0.47018 0.19245 0.89042 0.0
H719 H 0.40996 0.20601 0.85203 0.0
C720 C 0.34333 0.14557 0.83065 0.0
C721 C 0.31008 0.11074 0.82547 0.0
C722 C 0.38361 0.13954 0.83918 0.0
C723 C 0.31782 0.06971 0.82292 0.0
C724 C 0.35856 0.06334 0.82902 0.0
C725 C 0.42889 0.09153 0.85629 0.0
C726 C 0.45411 0.12461 0.87941 0.0
C727 C 0.39112 0.09796 0.83948 0.0
C728 C 0.45021 0.16635 0.87383 0.0
C729 C 0.41511 0.17388 0.85277 0.0
H730 H 0.81448 0.30161 0.86111 0.0
H731 H 0.82134 0.40926 0.79319 0.0
H732 H 0.85673 0.45598 0.84708 0.0
H733 H 0.8948 0.46366 0.91047 0.0
H734 H 0.88474 0.35578 0.97885 0.0
H735 H 0.8399 0.31212 0.92857 0.0
C736 C 0.82341 0.33539 0.85843 0.0
C737 C 0.81663 0.35209 0.82331 0.0
C738 C 0.84276 0.36202 0.88968 0.0
C739 C 0.82706 0.39589 0.82005 0.0
C740 C 0.84713 0.42253 0.85081 0.0
C741 C 0.88146 0.43107 0.91498 0.0
C742 C 0.89394 0.41277 0.94803 0.0
C743 C 0.85632 0.40573 0.88549 0.0
C744 C 0.87613 0.37049 0.95343 0.0
C745 C 0.85086 0.34531 0.9245 0.0
H746 H 0.66195 0.78404 0.81869 0.0
H747 H 0.7783 0.87234 0.84189 0.0
H748 H 0.74706 0.91376 0.8864 0.0
H749 H 0.68578 0.92728 0.91704 0.0
H750 H 0.56963 0.83839 0.89428 0.0
H751 H 0.60167 0.79548 0.85192 0.0
C752 C 0.68056 0.81209 0.83375 0.0
C753 C 0.72237 0.82495 0.82663 0.0
C754 C 0.66236 0.83615 0.85947 0.0
C755 C 0.74596 0.86153 0.84654 0.0
C756 C 0.72811 0.88547 0.87207 0.0
C757 C 0.66751 0.89845 0.90298 0.0
C758 C 0.62523 0.88653 0.90896 0.0
C759 C 0.68617 0.87346 0.87844 0.0
C760 C 0.60224 0.84874 0.89045 0.0
C761 C 0.62051 0.82397 0.86602 0.0
H762 H 0.80511 0.67258 0.17097 0.0
H763 H 0.87355 0.79712 0.15446 0.0
H764 H 0.91151 0.76716 0.10623 0.0
H765 H 0.92579 0.70455 0.06967 0.0
H766 H 0.85242 0.58141 0.08452 0.0
H767 H 0.81568 0.6119 0.13227 0.0
C768 C 0.82851 0.69321 0.15695 0.0
C769 C 0.83712 0.73687 0.16665 0.0
C770 C 0.84914 0.67597 0.12881 0.0
C771 C 0.86666 0.76335 0.14759 0.0
C772 C 0.8883 0.7462 0.12007 0.0
C773 C 0.90163 0.68451 0.08327 0.0
C774 C 0.89203 0.64068 0.0735 0.0
C775 C 0.87991 0.70243 0.11054 0.0
C776 C 0.86035 0.61521 0.09118 0.0
C777 C 0.8394 0.63257 0.11871 0.0
H778 H 0.33199 0.90044 0.16916 0.0
H779 H 0.38435 0.79062 0.14599 0.0
H780 H 0.42954 0.82971 0.10206 0.0
H781 H 0.45218 0.89571 0.06645 0.0
H782 H 0.40171 1.00573 0.0956 0.0
H783 H 0.35955 0.96681 0.14025 0.0
C784 C 0.35334 0.8849 0.15467 0.0
C785 C 0.35385 0.84202 0.16102 0.0
C786 C 0.38035 0.90811 0.13005 0.0
C787 C 0.38267 0.82331 0.14201 0.0
C788 C 0.40874 0.84585 0.11664 0.0
C789 C 0.43285 0.91154 0.08323 0.0
C790 C 0.43071 0.95437 0.07682 0.0
C791 C 0.40785 0.88847 0.10998 0.0
C792 C 0.40451 0.97323 0.09914 0.0
C793 C 0.37986 0.95076 0.12487 0.0
H794 H 0.75211 0.19522 0.12157 0.0
H795 H 0.69986 0.11047 0.20334 0.0
H796 H 0.64876 0.07179 0.15464 0.0
H797 H 0.61348 0.06721 0.09093 0.0
H798 H 0.65941 0.15706 0.01104 0.0
H799 H 0.71922 0.1874 0.05588 0.0
C800 C 0.73063 0.16721 0.12824 0.0
C801 C 0.7301 0.15539 0.1659 0.0
C802 C 0.70025 0.14579 0.10018 0.0
C803 C 0.70117 0.11987 0.17448 0.0
C804 C 0.6719 0.09771 0.14662 0.0
C805 C 0.63754 0.0923 0.08292 0.0
C806 C 0.63276 0.10927 0.04756 0.0
C807 C 0.67041 0.111 0.10963 0.0
C808 C 0.66299 0.14309 0.03794 0.0
C809 C 0.69696 0.16062 0.06371 0.0
H810 H 0.58508 0.63705 0.7808 0.0
H811 H 0.68826 0.57681 0.76073 0.0
H812 H 0.67353 0.53344 0.81449 0.0
H813 H 0.63787 0.52072 0.87231 0.0
H814 H 0.53454 0.58064 0.89245 0.0
H815 H 0.54232 0.61581 0.83311 0.0
C816 C 0.60351 0.61349 0.78735 0.0
C817 C 0.63821 0.61065 0.76719 0.0
C818 C 0.59531 0.5893 0.81872 0.0
C819 C 0.66184 0.58001 0.77626 0.0
C820 C 0.65356 0.5554 0.80706 0.0
C821 C 0.61686 0.54122 0.86347 0.0
C822 C 0.58631 0.549 0.88698 0.0
C823 C 0.62156 0.56121 0.82945 0.0
C824 C 0.5585 0.57459 0.87489 0.0
C825 C 0.56304 0.59474 0.84104 0.0
H826 H 0.30174 0.62157 0.82065 0.0
H827 H 0.41099 0.70524 0.78903 0.0
H828 H 0.45523 0.66761 0.82574 0.0
H829 H 0.46429 0.61503 0.87121 0.0
H830 H 0.35734 0.529 0.90304 0.0
H831 H 0.31175 0.5624 0.86166 0.0
C832 C 0.33519 0.63129 0.82153 0.0
C833 C 0.35249 0.66688 0.8021 0.0
C834 C 0.36135 0.6089 0.84284 0.0
C835 C 0.39618 0.67843 0.80358 0.0
C836 C 0.42189 0.65682 0.82471 0.0
C837 C 0.43106 0.60291 0.86858 0.0
C838 C 0.41454 0.56948 0.8905 0.0
C839 C 0.40496 0.62254 0.84501 0.0
C840 C 0.37125 0.55435 0.8864 0.0
C841 C 0.345 0.57387 0.86297 0.0
H842 H 0.35208 0.26275 0.88028 0.0
H843 H 0.33399 0.372 0.82035 0.0
H844 H 0.37637 0.41861 0.86972 0.0
H845 H 0.42509 0.42838 0.92522 0.0
H846 H 0.44968 0.3203 0.98336 0.0
H847 H 0.39733 0.27352 0.94038 0.0
C848 C 0.35736 0.29674 0.87834 0.0
C849 C 0.34088 0.31384 0.84638 0.0
C850 C 0.38268 0.32369 0.90663 0.0
C851 C 0.34738 0.35797 0.84421 0.0
C852 C 0.37128 0.38478 0.87259 0.0
C853 C 0.41828 0.39474 0.92924 0.0
C854 C 0.4416 0.37781 0.95703 0.0
C855 C 0.38999 0.36798 0.90334 0.0
C856 C 0.43233 0.33409 0.96183 0.0
C857 C 0.40268 0.30726 0.93707 0.0
H858 H 0.70944 0.42009 0.78558 0.0
H859 H 0.58237 0.35793 0.75921 0.0
H860 H 0.56834 0.36825 0.82541 0.0
H861 H 0.59549 0.38383 0.89094 0.0
H862 H 0.72414 0.44218 0.91917 0.0
H863 H 0.73555 0.44223 0.85161 0.0
C864 C 0.67828 0.411 0.79434 0.0
C865 C 0.64672 0.38868 0.76815 0.0
C866 C 0.67178 0.41365 0.83269 0.0
C867 C 0.6066 0.37582 0.77914 0.0
C868 C 0.59908 0.3806 0.81701 0.0
C869 C 0.62634 0.39583 0.88251 0.0
C870 C 0.65944 0.41147 0.90992 0.0
C871 C 0.63209 0.3971 0.84413 0.0
C872 C 0.69864 0.42872 0.89845 0.0
C873 C 0.70489 0.42949 0.85998 0.0
H874 H 0.77985 0.36609 0.17081 0.0
H875 H 0.67038 0.28132 0.20049 0.0
H876 H 0.62633 0.31891 0.16347 0.0
H877 H 0.61745 0.37303 0.11982 0.0
H878 H 0.72438 0.4602 0.08951 0.0
H879 H 0.76998 0.42567 0.12992 0.0
C880 C 0.7464 0.35599 0.16918 0.0
C881 C 0.72886 0.32049 0.18858 0.0
C882 C 0.72035 0.37853 0.14787 0.0
C883 C 0.68521 0.30837 0.18622 0.0
C884 C 0.65966 0.32992 0.16493 0.0
C885 C 0.65068 0.38512 0.12252 0.0
C886 C 0.66716 0.41935 0.10149 0.0
C887 C 0.67673 0.36479 0.14541 0.0
C888 C 0.71048 0.43432 0.1056 0.0
C889 C 0.73674 0.41413 0.12842 0.0
H890 H 0.70004 0.73705 0.12617 0.0
H891 H 0.66237 0.64655 0.20882 0.0
H892 H 0.63399 0.59284 0.15851 0.0
H893 H 0.61858 0.572 0.09186 0.0
H894 H 0.64839 0.66307 0.00833 0.0
H895 H 0.68347 0.71584 0.05817 0.0
C896 C 0.68479 0.70584 0.13307 0.0
C897 C 0.68292 0.6958 0.17105 0.0
C898 C 0.66879 0.6749 0.10396 0.0
C899 C 0.66383 0.65505 0.17971 0.0
C900 C 0.64812 0.62418 0.15103 0.0
C901 C 0.63405 0.60295 0.08442 0.0
C902 C 0.63194 0.61359 0.04664 0.0
C903 C 0.65087 0.63365 0.11317 0.0
C904 C 0.65066 0.65417 0.03734 0.0
C905 C 0.66985 0.68444 0.06583 0.0
H906 H 0.33173 0.62512 0.1774 0.0
H907 H 0.45599 0.67063 0.22792 0.0
H908 H 0.48424 0.64255 0.17211 0.0
H909 H 0.4728 0.61324 0.1063 0.0
H910 H 0.34819 0.56799 0.05537 0.0
H911 H 0.32012 0.58871 0.114 0.0
C912 C 0.36494 0.62754 0.17641 0.0
C913 C 0.39204 0.64956 0.20626 0.0
C914 C 0.3805 0.61288 0.14389 0.0
C915 C 0.43493 0.65315 0.20524 0.0
C916 C 0.45087 0.63783 0.17318 0.0
C917 C 0.43947 0.60834 0.10798 0.0
C918 C 0.41233 0.59063 0.07642 0.0
C919 C 0.42389 0.61929 0.14181 0.0
C920 C 0.36937 0.58258 0.0792 0.0
C921 C 0.35347 0.59405 0.11268 0.0
H922 H 0.43932 0.46166 0.23198 0.0
H923 H 0.45773 0.33388 0.21973 0.0
H924 H 0.49483 0.34974 0.16321 0.0
H925 H 0.50691 0.39601 0.11001 0.0
H926 H 0.48251 0.5222 0.12057 0.0
H927 H 0.46377 0.51192 0.18515 0.0
C928 C 0.45343 0.4382 0.21782 0.0
C929 C 0.44639 0.39701 0.22952 0.0
C930 C 0.4728 0.44721 0.18458 0.0
C931 C 0.46361 0.366 0.21098 0.0
C932 C 0.48419 0.37494 0.17849 0.0
C933 C 0.49885 0.42147 0.12714 0.0
C934 C 0.49554 0.4595 0.11106 0.0
C935 C 0.48677 0.41479 0.16382 0.0
C936 C 0.48489 0.49256 0.13286 0.0
C937 C 0.47408 0.48668 0.16961 0.0
H938 H 0.79069 0.66396 0.64286 0.0
H939 H 0.88057 0.7805 0.66496 0.0
H940 H 0.92462 0.75671 0.62039 0.0
H941 H 0.94037 0.70197 0.57719 0.0
H942 H 0.85175 0.5851 0.55349 0.0
H943 H 0.80508 0.60991 0.59589 0.0
C944 C 0.8197 0.68423 0.63765 0.0
C945 C 0.83206 0.72392 0.65777 0.0
C946 C 0.84558 0.67028 0.61159 0.0
C947 C 0.86996 0.74968 0.65039 0.0
C948 C 0.89547 0.73613 0.62474 0.0
C949 C 0.91076 0.68192 0.58101 0.0
C950 C 0.89998 0.64158 0.56211 0.0
C951 C 0.88397 0.69631 0.60555 0.0
C952 C 0.86114 0.61635 0.56749 0.0
C953 C 0.83434 0.63048 0.59194 0.0
H954 H 0.41647 0.78878 0.64534 0.0
H955 H 0.5227 0.85029 0.71905 0.0
H956 H 0.54185 0.90169 0.67173 0.0
H957 H 0.51563 0.94037 0.61946 0.0
H958 H 0.39882 0.88634 0.55662 0.0
H959 H 0.39441 0.82218 0.59084 0.0
C960 C 0.44465 0.81251 0.65075 0.0
C961 C 0.46648 0.81778 0.68669 0.0
C962 C 0.45148 0.84512 0.62642 0.0
C963 C 0.50442 0.84682 0.69204 0.0
C964 C 0.51457 0.87693 0.66555 0.0
C965 C 0.4892 0.9145 0.61368 0.0
C966 C 0.45661 0.91827 0.58711 0.0
C967 C 0.48605 0.87857 0.63453 0.0
C968 C 0.42312 0.88447 0.57846 0.0
C969 C 0.42107 0.84761 0.59735 0.0
H970 H 0.17895 0.34203 0.66374 0.0
H971 H 0.2637 0.46199 0.68381 0.0
H972 H 0.21163 0.4971 0.65262 0.0
H973 H 0.14685 0.49084 0.61314 0.0
H974 H 0.06608 0.36906 0.58861 0.0
H975 H 0.11026 0.33763 0.63253 0.0
C976 C 0.18577 0.37606 0.66244 0.0
C977 C 0.22507 0.39959 0.67593 0.0
C978 C 0.15604 0.39551 0.64483 0.0
C979 C 0.23386 0.44339 0.67293 0.0
C980 C 0.20399 0.46334 0.65566 0.0
C981 C 0.13828 0.45762 0.61804 0.0
C982 C 0.1044 0.43185 0.59649 0.0
C983 C 0.16552 0.43937 0.64063 0.0
C984 C 0.09255 0.38932 0.60429 0.0
C985 C 0.11819 0.37125 0.62882 0.0
H986 H 0.72613 0.14747 0.654 0.0
H987 H 0.71146 0.2658 0.60875 0.0
H988 H 0.66643 0.22846 0.55536 0.0
H989 H 0.62068 0.16376 0.52929 0.0
H990 H 0.6299 0.04499 0.57648 0.0
H991 H 0.68829 0.08042 0.6204 0.0
C992 C 0.71398 0.1648 0.63177 0.0
C993 C 0.72129 0.20913 0.6354 0.0
C994 C 0.68669 0.14304 0.60175 0.0
C995 C 0.70554 0.23155 0.60663 0.0
C996 C 0.67978 0.21027 0.57617 0.0
C997 C 0.63614 0.14544 0.54855 0.0
C998 C 0.62037 0.10214 0.55034 0.0
C999 C 0.66842 0.16619 0.57458 0.0
C1000 C 0.64124 0.07855 0.57479 0.0
C1001 C 0.67439 0.09887 0.6002 0.0
H1002 H 0.85243 0.376 0.3019 0.0
H1003 H 0.80998 0.28148 0.37936 0.0
H1004 H 0.85042 0.32582 0.43216 0.0
H1005 H 0.90544 0.38686 0.45429 0.0
H1006 H 0.9449 0.48364 0.37813 0.0
H1007 H 0.89702 0.44399 0.32703 0.0
C1008 C 0.85156 0.36563 0.3305 0.0
C1009 C 0.82893 0.3254 0.33685 0.0
C1010 C 0.87412 0.39178 0.36087 0.0
C1011 C 0.82736 0.31233 0.37394 0.0
C1012 C 0.85052 0.33761 0.40408 0.0
C1013 C 0.90231 0.39993 0.42686 0.0
C1014 C 0.92856 0.43795 0.41983 0.0
C1015 C 0.87496 0.37681 0.39768 0.0
C1016 C 0.92456 0.45466 0.38424 0.0
C1017 C 0.89767 0.43164 0.35488 0.0
H1018 H 0.71095 0.86298 0.30961 0.0
H1019 H 0.66442 0.737 0.34237 0.0
H1020 H 0.62431 0.76565 0.38941 0.0
H1021 H 0.60302 0.8272 0.42133 0.0
H1022 H 0.65467 0.95289 0.3905 0.0
H1023 H 0.69235 0.92362 0.34258 0.0
C1024 C 0.69182 0.84165 0.32685 0.0
C1025 C 0.69022 0.79787 0.32223 0.0
C1026 C 0.66995 0.85839 0.35428 0.0
C1027 C 0.66599 0.7708 0.34533 0.0
C1028 C 0.64311 0.7872 0.37218 0.0
C1029 C 0.62251 0.84809 0.40406 0.0
C1030 C 0.62595 0.89218 0.40942 0.0
C1031 C 0.64491 0.83102 0.37694 0.0
C1032 C 0.65167 0.9189 0.38714 0.0
C1033 C 0.67312 0.90219 0.35961 0.0
H1034 H 0.2182 0.64759 0.30074 0.0
H1035 H 0.16533 0.75834 0.31759 0.0
H1036 H 0.1213 0.72281 0.36407 0.0
H1037 H 0.09964 0.65987 0.40368 0.0
H1038 H 0.15107 0.54874 0.38156 0.0
H1039 H 0.19203 0.58398 0.3342 0.0
C1040 C 0.19696 0.66408 0.31436 0.0
C1041 C 0.19591 0.70615 0.30536 0.0
C1042 C 0.17068 0.64291 0.34065 0.0
C1043 C 0.16735 0.72616 0.32348 0.0
C1044 C 0.14195 0.70568 0.35036 0.0
C1045 C 0.11896 0.64297 0.38789 0.0
C1046 C 0.12167 0.60099 0.39702 0.0
C1047 C 0.14333 0.66388 0.35963 0.0
C1048 C 0.14783 0.58069 0.37591 0.0
C1049 C 0.17178 0.60103 0.34861 0.0
H1050 H 0.2984 0.14838 0.31831 0.0
H1051 H 0.3984 0.25725 0.3259 0.0
H1052 H 0.43908 0.22311 0.37026 0.0
H1053 H 0.446 0.16406 0.40961 0.0
H1054 H 0.34644 0.05512 0.40413 0.0
H1055 H 0.30674 0.08714 0.3565 0.0
C1056 C 0.32916 0.16453 0.3295 0.0
C1057 C 0.34489 0.20569 0.31856 0.0
C1058 C 0.35281 0.14464 0.35565 0.0
C1059 C 0.385 0.22584 0.33364 0.0
C1060 C 0.40854 0.20626 0.35916 0.0
C1061 C 0.4158 0.14696 0.39782 0.0
C1062 C 0.39949 0.10704 0.41088 0.0
C1063 C 0.39271 0.16587 0.37073 0.0
C1064 C 0.3601 0.08579 0.39493 0.0
C1065 C 0.33716 0.10423 0.36765 0.0
H1066 H 0.65671 0.80159 0.67282 0.0
H1067 H 0.77132 0.89052 0.66681 0.0
H1068 H 0.73505 0.93306 0.62551 0.0
H1069 H 0.67089 0.94314 0.58831 0.0
H1070 H 0.5569 0.85324 0.59559 0.0
H1071 H 0.59253 0.8139 0.63955 0.0
C1072 C 0.67392 0.83026 0.66252 0.0
C1073 C 0.71698 0.84237 0.67269 0.0
C1074 C 0.65275 0.85478 0.63908 0.0
C1075 C 0.73832 0.88013 0.6594 0.0
C1076 C 0.71751 0.90455 0.63574 0.0
C1077 C 0.65365 0.91534 0.59995 0.0
C1078 C 0.61093 0.9015 0.58835 0.0
C1079 C 0.6747 0.89203 0.62506 0.0
C1080 C 0.58954 0.86504 0.60379 0.0
C1081 C 0.61004 0.84217 0.62887 0.0
H1082 H 0.57447 0.19908 0.33062 0.0
H1083 H 0.6223 0.10837 0.26239 0.0
H1084 H 0.59056 0.05177 0.30012 0.0
H1085 H 0.56865 0.03384 0.36323 0.0
H1086 H 0.52723 0.1272 0.43353 0.0
H1087 H 0.5365 0.17717 0.38415 0.0
C1088 C 0.57677 0.16683 0.32294 0.0
C1089 C 0.60344 0.15826 0.29591 0.0
C1090 C 0.56043 0.13515 0.34591 0.0
C1091 C 0.60406 0.11598 0.28493 0.0
C1092 C 0.58612 0.08365 0.30656 0.0
C1093 C 0.56096 0.06489 0.3671 0.0
C1094 C 0.54799 0.0776 0.40163 0.0
C1095 C 0.56771 0.09375 0.33915 0.0
C1096 C 0.537 0.11715 0.40674 0.0
C1097 C 0.54257 0.1457 0.37869 0.0
H1098 H 0.88907 0.69736 0.32045 0.0
H1099 H 0.83005 0.56645 0.29713 0.0
H1100 H 0.89266 0.54483 0.32473 0.0
H1101 H 0.95459 0.56403 0.3686 0.0
H1102 H 1.00398 0.695 0.40233 0.0
H1103 H 0.95748 0.71639 0.35342 0.0
C1104 C 0.89022 0.66407 0.31993 0.0
C1105 C 0.85478 0.63336 0.30744 0.0
C1106 C 0.92525 0.65227 0.33698 0.0
C1107 C 0.85668 0.59042 0.3076 0.0
C1108 C 0.89251 0.57822 0.32295 0.0
C1109 C 0.95604 0.59729 0.36422 0.0
C1110 C 0.98042 0.62803 0.39015 0.0
C1111 C 0.92579 0.60895 0.33972 0.0
C1112 C 0.9843 0.67088 0.38334 0.0
C1113 C 0.95709 0.68301 0.35596 0.0
H1114 H 0.31745 0.79908 0.35771 0.0
H1115 H 0.32062 0.90988 0.29426 0.0
H1116 H 0.35239 0.95503 0.35041 0.0
H1117 H 0.39113 0.96039 0.41322 0.0
H1118 H 0.38768 0.84866 0.47577 0.0
H1119 H 0.34199 0.80653 0.42502 0.0
C1120 C 0.32477 0.83318 0.35645 0.0
C1121 C 0.31853 0.85136 0.32199 0.0
C1122 C 0.34238 0.85863 0.38873 0.0
C1123 C 0.32635 0.89546 0.32058 0.0
C1124 C 0.34429 0.92115 0.35262 0.0
C1125 C 0.37883 0.92723 0.41645 0.0
C1126 C 0.39351 0.90727 0.44757 0.0
C1127 C 0.35406 0.90286 0.3864 0.0
C1128 C 0.37719 0.86441 0.45166 0.0
C1129 C 0.35158 0.84022 0.42245 0.0
H1130 H 0.27033 0.37406 0.34799 0.0
H1131 H 0.17377 0.26245 0.32859 0.0
H1132 H 0.13275 0.29155 0.37377 0.0
H1133 H 0.12218 0.35039 0.41553 0.0
H1134 H 0.21811 0.46263 0.43431 0.0
H1135 H 0.26148 0.43132 0.39287 0.0
C1136 C 0.24049 0.3559 0.3539 0.0
C1137 C 0.22508 0.31625 0.33467 0.0
C1138 C 0.21679 0.37299 0.37968 0.0
C1139 C 0.18638 0.29313 0.34281 0.0
C1140 C 0.16281 0.30977 0.36862 0.0
C1141 C 0.15269 0.36799 0.41085 0.0
C1142 C 0.16659 0.40903 0.42789 0.0
C1143 C 0.17738 0.34997 0.38671 0.0
C1144 C 0.20642 0.43107 0.42158 0.0
C1145 C 0.23128 0.41322 0.39776 0.0
H1146 H 0.3406 0.238 0.658 0.0
H1147 H 0.33468 0.14289 0.73985 0.0
H1148 H 0.36074 0.09639 0.69529 0.0
H1149 H 0.38476 0.08214 0.63209 0.0
H1150 H 0.39292 0.17882 0.55191 0.0
H1151 H 0.36584 0.22474 0.59625 0.0
C1152 C 0.34554 0.20736 0.66636 0.0
C1153 C 0.33568 0.19416 0.70234 0.0
C1154 C 0.36023 0.18055 0.64045 0.0
C1155 C 0.34198 0.15405 0.7124 0.0
C1156 C 0.35668 0.12723 0.68679 0.0
C1157 C 0.37987 0.11297 0.62427 0.0
C1158 C 0.39006 0.12687 0.58859 0.0
C1159 C 0.36545 0.13988 0.65051 0.0
C1160 C 0.38475 0.16734 0.57908 0.0
C1161 C 0.36958 0.19372 0.60451 0.0
H1162 H 0.89852 0.33328 0.66502 0.0
H1163 H 0.79339 0.39531 0.65498 0.0
H1164 H 0.82931 0.44485 0.61356 0.0
H1165 H 0.88892 0.47104 0.57867 0.0
H1166 H 0.99613 0.41246 0.58633 0.0
H1167 H 0.96162 0.36236 0.62985 0.0
C1168 C 0.88344 0.35768 0.65388 0.0
C1169 C 0.84246 0.35969 0.66372 0.0
C1170 C 0.90486 0.38717 0.62937 0.0
C1171 C 0.82429 0.39208 0.64852 0.0
C1172 C 0.84502 0.42081 0.62455 0.0
C1173 C 0.90531 0.44751 0.58967 0.0
C1174 C 0.94567 0.44619 0.57838 0.0
C1175 C 0.88512 0.41869 0.61458 0.0
C1176 C 0.96547 0.41505 0.59397 0.0
C1177 C 0.94541 0.38604 0.61895 0.0
H1178 H 0.25711 0.62834 0.66275 0.0
H1179 H 0.27905 0.75315 0.62151 0.0
H1180 H 0.22491 0.73002 0.5697 0.0
H1181 H 0.16227 0.67771 0.54428 0.0
H1182 H 0.1415 0.55297 0.58575 0.0
H1183 H 0.20415 0.57222 0.62907 0.0
C1184 C 0.25147 0.64981 0.64122 0.0
C1185 C 0.27214 0.69226 0.64576 0.0
C1186 C 0.21952 0.63653 0.61224 0.0
C1187 C 0.26415 0.7201 0.61815 0.0
C1188 C 0.23249 0.70707 0.58899 0.0
C1189 C 0.17203 0.65459 0.5623 0.0
C1190 C 0.14703 0.61399 0.56222 0.0
C1191 C 0.20847 0.66597 0.58704 0.0
C1192 C 0.16031 0.5842 0.58528 0.0
C1193 C 0.19604 0.59532 0.61018 0.0
loop_
_geom_bond_atom_site_label_1
_geom_bond_atom_site_label_2
_geom_bond_distance
_geom_bond_site_symmetry_2
_ccdc_geom_bond_type
Co0 N5 2.057 . S
Co0 O17 2.021 . S
Co0 O20 2.062 . S
Co0 O24 2.117 . S
Co0 O25 2.020 . S
C1 O21 1.259 . S
C1 O24 1.258 . S
Co2 N11 2.057 . S
Co2 O18 2.117 . S
Co2 O19 2.020 . S
Co2 O21 2.021 . S
Co2 O26 2.062 . S
C3 N5 1.316 . S
C3 N6 1.347 . S
C3 H8 0.931 . S
C4 N5 1.375 . S
C4 C7 1.350 . S
C4 H9 0.930 . S
N5 Co0 2.057 . S
N5 C3 1.316 . S
N5 C4 1.375 . S
N6 C3 1.347 . S
N6 C7 1.373 . S
C7 C4 1.350 . S
C7 N6 1.373 . S
C7 H28 0.931 . S
H8 C3 0.931 . S
H9 C4 0.930 . S
C10 O17 1.259 . S
C10 O18 1.258 . S
N11 Co2 2.057 . S
N11 C12 1.316 . S
N11 C13 1.375 . S
C12 N11 1.316 . S
C12 N14 1.347 . S
C12 H23 0.931 . S
C13 N11 1.375 . S
C13 C15 1.350 . S
C13 H22 0.930 . S
N14 C12 1.347 . S
N14 C15 1.373 . S
C15 C13 1.350 . S
C15 N14 1.373 . S
C15 H29 0.931 . S
C16 O19 1.256 . S
C16 O20 1.255 . S
O17 Co0 2.021 . S
O17 C10 1.259 . S
O18 Co2 2.117 . S
O18 C10 1.258 . S
O19 Co2 2.020 . S
O19 C16 1.256 . S
O20 Co0 2.062 . S
O20 C16 1.255 . S
O21 C1 1.259 . S
O21 Co2 2.021 . S
H22 C13 0.930 . S
H23 C12 0.931 . S
O24 Co0 2.117 . S
O24 C1 1.258 . S
O25 Co0 2.020 . S
O25 C27 1.256 . S
O26 Co2 2.062 . S
O26 C27 1.255 . S
C27 O25 1.256 . S
C27 O26 1.255 . S
H28 C7 0.931 . S
H29 C15 0.931 . S
Co30 N35 2.057 . S
Co30 O47 2.021 . S
Co30 O50 2.062 . S
Co30 O54 2.117 . S
Co30 O55 2.020 . S
C31 O51 1.259 . S
C31 O54 1.258 . S
Co32 N41 2.057 . S
Co32 O48 2.117 . S
Co32 O49 2.020 . S
Co32 O51 2.021 . S
Co32 O56 2.062 . S
C33 N35 1.316 . S
C33 N36 1.347 . S
C33 H38 0.931 . S
C34 N35 1.375 . S
C34 C37 1.350 . S
C34 H39 0.930 . S
N35 Co30 2.057 . S
N35 C33 1.316 . S
N35 C34 1.375 . S
N36 C33 1.347 . S
N36 C37 1.373 . S
C37 C34 1.350 . S
C37 N36 1.373 . S
C37 H58 0.931 . S
H38 C33 0.931 . S
H39 C34 0.930 . S
C40 O47 1.259 . S
C40 O48 1.258 . S
N41 Co32 2.057 . S
N41 C42 1.316 . S
N41 C43 1.375 . S
C42 N41 1.316 . S
C42 N44 1.347 . S
C42 H53 0.931 . S
C43 N41 1.375 . S
C43 C45 1.350 . S
C43 H52 0.930 . S
N44 C42 1.347 . S
N44 C45 1.373 . S
C45 C43 1.350 . S
C45 N44 1.373 . S
C45 H59 0.931 . S
C46 O49 1.256 . S
C46 O50 1.255 . S
O47 Co30 2.021 . S
O47 C40 1.259 . S
O48 Co32 2.117 . S
O48 C40 1.258 . S
O49 Co32 2.020 . S
O49 C46 1.256 . S
O50 Co30 2.062 . S
O50 C46 1.255 . S
O51 C31 1.259 . S
O51 Co32 2.021 . S
H52 C43 0.930 . S
H53 C42 0.931 . S
O54 Co30 2.117 . S
O54 C31 1.258 . S
O55 Co30 2.020 . S
O55 C57 1.256 . S
O56 Co32 2.062 . S
O56 C57 1.255 . S
C57 O55 1.256 . S
C57 O56 1.255 . S
H58 C37 0.931 . S
H59 C45 0.931 . S
Co60 N65 2.057 . S
Co60 O77 2.021 . S
Co60 O80 2.062 . S
Co60 O84 2.117 . S
Co60 O85 2.020 . S
C61 O81 1.259 . S
C61 O84 1.258 . S
Co62 N71 2.057 . S
Co62 O78 2.117 . S
Co62 O79 2.020 . S
Co62 O81 2.021 . S
Co62 O86 2.062 . S
C63 N65 1.316 . S
C63 N66 1.347 . S
C63 H68 0.931 . S
C64 N65 1.375 . S
C64 C67 1.350 . S
C64 H69 0.930 . S
N65 Co60 2.057 . S
N65 C63 1.316 . S
N65 C64 1.375 . S
N66 C63 1.347 . S
N66 C67 1.373 . S
C67 C64 1.350 . S
C67 N66 1.373 . S
C67 H88 0.931 . S
H68 C63 0.931 . S
H69 C64 0.930 . S
C70 O77 1.259 . S
C70 O78 1.258 . S
N71 Co62 2.057 . S
N71 C72 1.316 . S
N71 C73 1.375 . S
C72 N71 1.316 . S
C72 N74 1.347 . S
C72 H83 0.931 . S
C73 N71 1.375 . S
C73 C75 1.350 . S
C73 H82 0.930 . S
N74 C72 1.347 . S
N74 C75 1.373 . S
C75 C73 1.350 . S
C75 N74 1.373 . S
C75 H89 0.931 . S
C76 O79 1.256 . S
C76 O80 1.255 . S
O77 Co60 2.021 . S
O77 C70 1.259 . S
O78 Co62 2.117 . S
O78 C70 1.258 . S
O79 Co62 2.020 . S
O79 C76 1.256 . S
O80 Co60 2.062 . S
O80 C76 1.255 . S
O81 C61 1.259 . S
O81 Co62 2.021 . S
H82 C73 0.930 . S
H83 C72 0.931 . S
O84 Co60 2.117 . S
O84 C61 1.258 . S
O85 Co60 2.020 . S
O85 C87 1.256 . S
O86 Co62 2.062 . S
O86 C87 1.255 . S
C87 O85 1.256 . S
C87 O86 1.255 . S
H88 C67 0.931 . S
H89 C75 0.931 . S
Co90 N95 2.057 . S
Co90 O107 2.021 . S
Co90 O110 2.062 . S
Co90 O114 2.117 . S
Co90 O115 2.020 . S
C91 O111 1.259 . S
C91 O114 1.258 . S
Co92 N101 2.057 . S
Co92 O108 2.117 . S
Co92 O109 2.020 . S
Co92 O111 2.021 . S
Co92 O116 2.062 . S
C93 N95 1.316 . S
C93 N96 1.347 . S
C93 H98 0.931 . S
C94 N95 1.375 . S
C94 C97 1.350 . S
C94 H99 0.930 . S
N95 Co90 2.057 . S
N95 C93 1.316 . S
N95 C94 1.375 . S
N96 C93 1.347 . S
N96 C97 1.373 . S
C97 C94 1.350 . S
C97 N96 1.373 . S
C97 H118 0.931 . S
H98 C93 0.931 . S
H99 C94 0.930 . S
C100 O107 1.259 . S
C100 O108 1.258 . S
N101 Co92 2.057 . S
N101 C102 1.316 . S
N101 C103 1.375 . S
C102 N101 1.316 . S
C102 N104 1.347 . S
C102 H113 0.931 . S
C103 N101 1.375 . S
C103 C105 1.350 . S
C103 H112 0.930 . S
N104 C102 1.347 . S
N104 C105 1.373 . S
C105 C103 1.350 . S
C105 N104 1.373 . S
C105 H119 0.931 . S
C106 O109 1.256 . S
C106 O110 1.255 . S
O107 Co90 2.021 . S
O107 C100 1.259 . S
O108 Co92 2.117 . S
O108 C100 1.258 . S
O109 Co92 2.020 . S
O109 C106 1.256 . S
O110 Co90 2.062 . S
O110 C106 1.255 . S
O111 C91 1.259 . S
O111 Co92 2.021 . S
H112 C103 0.930 . S
H113 C102 0.931 . S
O114 Co90 2.117 . S
O114 C91 1.258 . S
O115 Co90 2.020 . S
O115 C117 1.256 . S
O116 Co92 2.062 . S
O116 C117 1.255 . S
C117 O115 1.256 . S
C117 O116 1.255 . S
H118 C97 0.931 . S
H119 C105 0.931 . S
Co120 N125 2.057 . S
Co120 O137 2.021 . S
Co120 O140 2.062 . S
Co120 O144 2.117 . S
Co120 O145 2.020 . S
C121 O141 1.259 . S
C121 O144 1.258 . S
Co122 N131 2.057 . S
Co122 O138 2.117 . S
Co122 O139 2.020 . S
Co122 O141 2.021 . S
Co122 O146 2.062 . S
C123 N125 1.316 . S
C123 N126 1.347 . S
C123 H128 0.931 . S
C124 N125 1.375 . S
C124 C127 1.350 . S
C124 H129 0.930 . S
N125 Co120 2.057 . S
N125 C123 1.316 . S
N125 C124 1.375 . S
N126 C123 1.347 . S
N126 C127 1.373 . S
C127 C124 1.350 . S
C127 N126 1.373 . S
C127 H148 0.931 . S
H128 C123 0.931 . S
H129 C124 0.930 . S
C130 O137 1.259 . S
C130 O138 1.258 . S
N131 Co122 2.057 . S
N131 C132 1.316 . S
N131 C133 1.375 . S
C132 N131 1.316 . S
C132 N134 1.347 . S
C132 H143 0.931 . S
C133 N131 1.375 . S
C133 C135 1.350 . S
C133 H142 0.930 . S
N134 C132 1.347 . S
N134 C135 1.373 . S
C135 C133 1.350 . S
C135 N134 1.373 . S
C135 H149 0.931 . S
C136 O139 1.256 . S
C136 O140 1.255 . S
O137 Co120 2.021 . S
O137 C130 1.259 . S
O138 Co122 2.117 . S
O138 C130 1.258 . S
O139 Co122 2.020 . S
O139 C136 1.256 . S
O140 Co120 2.062 . S
O140 C136 1.255 . S
O141 C121 1.259 . S
O141 Co122 2.021 . S
H142 C133 0.930 . S
H143 C132 0.931 . S
O144 Co120 2.117 . S
O144 C121 1.258 . S
O145 Co120 2.020 . S
O145 C147 1.256 . S
O146 Co122 2.062 . S
O146 C147 1.255 . S
C147 O145 1.256 . S
C147 O146 1.255 . S
H148 C127 0.931 . S
H149 C135 0.931 . S
Co150 N155 2.057 . S
Co150 O167 2.021 . S
Co150 O170 2.062 . S
Co150 O174 2.117 . S
Co150 O175 2.020 . S
C151 O171 1.259 . S
C151 O174 1.258 . S
Co152 N161 2.057 . S
Co152 O168 2.117 . S
Co152 O169 2.020 . S
Co152 O171 2.021 . S
Co152 O176 2.062 . S
C153 N155 1.316 . S
C153 N156 1.347 . S
C153 H158 0.931 . S
C154 N155 1.375 . S
C154 C157 1.350 . S
C154 H159 0.930 . S
N155 Co150 2.057 . S
N155 C153 1.316 . S
N155 C154 1.375 . S
N156 C153 1.347 . S
N156 C157 1.373 . S
C157 C154 1.350 . S
C157 N156 1.373 . S
C157 H178 0.931 . S
H158 C153 0.931 . S
H159 C154 0.930 . S
C160 O167 1.259 . S
C160 O168 1.258 . S
N161 Co152 2.057 . S
N161 C162 1.316 . S
N161 C163 1.375 . S
C162 N161 1.316 . S
C162 N164 1.347 . S
C162 H173 0.931 . S
C163 N161 1.375 . S
C163 C165 1.350 . S
C163 H172 0.930 . S
N164 C162 1.347 . S
N164 C165 1.373 . S
C165 C163 1.350 . S
C165 N164 1.373 . S
C165 H179 0.931 . S
C166 O169 1.256 . S
C166 O170 1.255 . S
O167 Co150 2.021 . S
O167 C160 1.259 . S
O168 Co152 2.117 . S
O168 C160 1.258 . S
O169 Co152 2.020 . S
O169 C166 1.256 . S
O170 Co150 2.062 . S
O170 C166 1.255 . S
O171 C151 1.259 . S
O171 Co152 2.021 . S
H172 C163 0.930 . S
H173 C162 0.931 . S
O174 Co150 2.117 . S
O174 C151 1.258 . S
O175 Co150 2.020 . S
O175 C177 1.256 . S
O176 Co152 2.062 . S
O176 C177 1.255 . S
C177 O175 1.256 . S
C177 O176 1.255 . S
H178 C157 0.931 . S
H179 C165 0.931 . S
Co180 N185 2.057 . S
Co180 O197 2.021 . S
Co180 O200 2.062 . S
Co180 O204 2.117 . S
Co180 O205 2.020 . S
C181 O201 1.259 . S
C181 O204 1.258 . S
Co182 N191 2.057 . S
Co182 O198 2.117 . S
Co182 O199 2.020 . S
Co182 O201 2.021 . S
Co182 O206 2.062 . S
C183 N185 1.316 . S
C183 N186 1.347 . S
C183 H188 0.931 . S
C184 N185 1.375 . S
C184 C187 1.350 . S
C184 H189 0.930 . S
N185 Co180 2.057 . S
N185 C183 1.316 . S
N185 C184 1.375 . S
N186 C183 1.347 . S
N186 C187 1.373 . S
C187 C184 1.350 . S
C187 N186 1.373 . S
C187 H208 0.931 . S
H188 C183 0.931 . S
H189 C184 0.930 . S
C190 O197 1.259 . S
C190 O198 1.258 . S
N191 Co182 2.057 . S
N191 C192 1.316 . S
N191 C193 1.375 . S
C192 N191 1.316 . S
C192 N194 1.347 . S
C192 H203 0.931 . S
C193 N191 1.375 . S
C193 C195 1.350 . S
C193 H202 0.930 . S
N194 C192 1.347 . S
N194 C195 1.373 . S
C195 C193 1.350 . S
C195 N194 1.373 . S
C195 H209 0.931 . S
C196 O199 1.256 . S
C196 O200 1.255 . S
O197 Co180 2.021 . S
O197 C190 1.259 . S
O198 Co182 2.117 . S
O198 C190 1.258 . S
O199 Co182 2.020 . S
O199 C196 1.256 . S
O200 Co180 2.062 . S
O200 C196 1.255 . S
O201 C181 1.259 . S
O201 Co182 2.021 . S
H202 C193 0.930 . S
H203 C192 0.931 . S
O204 Co180 2.117 . S
O204 C181 1.258 . S
O205 Co180 2.020 . S
O205 C207 1.256 . S
O206 Co182 2.062 . S
O206 C207 1.255 . S
C207 O205 1.256 . S
C207 O206 1.255 . S
H208 C187 0.931 . S
H209 C195 0.931 . S
Co210 N215 2.057 . S
Co210 O227 2.021 . S
Co210 O230 2.062 . S
Co210 O234 2.117 . S
Co210 O235 2.020 . S
C211 O231 1.259 . S
C211 O234 1.258 . S
Co212 N221 2.057 . S
Co212 O228 2.117 . S
Co212 O229 2.020 . S
Co212 O231 2.021 . S
Co212 O236 2.062 . S
C213 N215 1.316 . S
C213 N216 1.347 . S
C213 H218 0.931 . S
C214 N215 1.375 . S
C214 C217 1.350 . S
C214 H219 0.930 . S
N215 Co210 2.057 . S
N215 C213 1.316 . S
N215 C214 1.375 . S
N216 C213 1.347 . S
N216 C217 1.373 . S
C217 C214 1.350 . S
C217 N216 1.373 . S
C217 H238 0.931 . S
H218 C213 0.931 . S
H219 C214 0.930 . S
C220 O227 1.259 . S
C220 O228 1.258 . S
N221 Co212 2.057 . S
N221 C222 1.316 . S
N221 C223 1.375 . S
C222 N221 1.316 . S
C222 N224 1.347 . S
C222 H233 0.931 . S
C223 N221 1.375 . S
C223 C225 1.350 . S
C223 H232 0.930 . S
N224 C222 1.347 . S
N224 C225 1.373 . S
C225 C223 1.350 . S
C225 N224 1.373 . S
C225 H239 0.931 . S
C226 O229 1.256 . S
C226 O230 1.255 . S
O227 Co210 2.021 . S
O227 C220 1.259 . S
O228 Co212 2.117 . S
O228 C220 1.258 . S
O229 Co212 2.020 . S
O229 C226 1.256 . S
O230 Co210 2.062 . S
O230 C226 1.255 . S
O231 C211 1.259 . S
O231 Co212 2.021 . S
H232 C223 0.930 . S
H233 C222 0.931 . S
O234 Co210 2.117 . S
O234 C211 1.258 . S
O235 Co210 2.020 . S
O235 C237 1.256 . S
O236 Co212 2.062 . S
O236 C237 1.255 . S
C237 O235 1.256 . S
C237 O236 1.255 . S
H238 C217 0.931 . S
H239 C225 0.931 . S
C240 O252 1.241 . S
C240 O253 1.280 . S
C241 O254 1.277 . S
C241 O255 1.245 . S
C242 O266 1.247 . S
C242 O268 1.289 . S
Mg243 O244 1.926 . S
Mg243 O253 1.984 . S
Mg243 O255 1.988 . S
Mg243 O256 2.061 1_655 S
O244 Mg243 1.926 . S
O244 Mg245 1.986 . S
O244 Mg246 1.917 1_655 S
Mg245 O244 1.986 . S
Mg245 O252 2.042 . S
Mg245 O254 2.041 . S
Mg245 O260 2.038 1_545 S
Mg245 O268 2.238 1_545 S
Mg246 O244 1.917 1_455 S
Mg246 O247 1.917 1_545 S
Mg246 O257 2.106 . S
Mg246 O259 2.079 1_445 S
Mg246 O268 2.106 1_445 S
Mg246 O269 2.079 . S
O247 Mg246 1.917 1_565 S
O247 Mg248 1.926 . S
O247 Mg249 1.986 . S
Mg248 O247 1.926 . S
Mg248 O262 1.984 . S
Mg248 O265 1.988 . S
Mg248 O266 2.061 1_455 S
Mg249 O247 1.986 . S
Mg249 O257 2.238 1_565 S
Mg249 O261 2.042 . S
Mg249 O263 2.041 . S
Mg249 O270 2.038 1_565 S
C250 O256 1.247 . S
C250 O257 1.289 . S
C251 O269 1.245 . S
C251 O270 1.274 . S
O252 C240 1.241 . S
O252 Mg245 2.042 . S
O253 C240 1.280 . S
O253 Mg243 1.984 . S
O254 C241 1.277 . S
O254 Mg245 2.041 . S
O255 C241 1.245 . S
O255 Mg243 1.988 . S
O256 Mg243 2.061 1_455 S
O256 C250 1.247 . S
O257 Mg246 2.106 . S
O257 Mg249 2.238 1_545 S
O257 C250 1.289 . S
C258 O259 1.245 . S
C258 O260 1.274 . S
O259 Mg246 2.079 1_665 S
O259 C258 1.245 . S
O260 Mg245 2.038 1_565 S
O260 C258 1.274 . S
O261 Mg249 2.042 . S
O261 C264 1.241 . S
O262 Mg248 1.984 . S
O262 C264 1.280 . S
O263 Mg249 2.041 . S
O263 C267 1.277 . S
C264 O261 1.241 . S
C264 O262 1.280 . S
O265 Mg248 1.988 . S
O265 C267 1.245 . S
O266 C242 1.247 . S
O266 Mg248 2.061 1_655 S
C267 O263 1.277 . S
C267 O265 1.245 . S
O268 C242 1.289 . S
O268 Mg245 2.238 1_565 S
O268 Mg246 2.106 1_665 S
O269 Mg246 2.079 . S
O269 C251 1.245 . S
O270 Mg249 2.038 1_545 S
O270 C251 1.274 . S
C271 O283 1.241 . S
C271 O284 1.280 . S
C272 O285 1.277 . S
C272 O286 1.245 . S
C273 O297 1.247 . S
C273 O299 1.289 . S
Mg274 O275 1.926 . S
Mg274 O284 1.984 . S
Mg274 O286 1.988 1_554 S
Mg274 O287 2.061 . S
O275 Mg274 1.926 . S
O275 Mg276 1.986 1_554 S
O275 Mg277 1.917 . S
Mg276 O275 1.986 1_556 S
Mg276 O283 2.042 1_556 S
Mg276 O285 2.041 . S
Mg276 O291 2.038 1_546 S
Mg276 O299 2.238 1_545 S
Mg277 O275 1.917 . S
Mg277 O278 1.917 1_544 S
Mg277 O288 2.107 . S
Mg277 O290 2.079 1_545 S
Mg277 O299 2.106 1_544 S
Mg277 O300 2.078 1_554 S
O278 Mg277 1.917 1_566 S
O278 Mg279 1.926 . S
O278 Mg280 1.986 1_556 S
Mg279 O278 1.926 . S
Mg279 O293 1.984 . S
Mg279 O296 1.988 1_556 S
Mg279 O297 2.061 . S
Mg280 O278 1.986 1_554 S
Mg280 O288 2.238 1_565 S
Mg280 O292 2.042 1_554 S
Mg280 O294 2.041 . S
Mg280 O301 2.038 1_564 S
C281 O287 1.247 . S
C281 O288 1.289 . S
C282 O300 1.245 . S
C282 O301 1.274 . S
O283 C271 1.241 . S
O283 Mg276 2.042 1_554 S
O284 C271 1.280 . S
O284 Mg274 1.984 . S
O285 C272 1.277 . S
O285 Mg276 2.041 . S
O286 C272 1.245 . S
O286 Mg274 1.988 1_556 S
O287 Mg274 2.061 . S
O287 C281 1.247 . S
O288 Mg277 2.107 . S
O288 Mg280 2.238 1_545 S
O288 C281 1.289 . S
C289 O290 1.245 . S
C289 O291 1.274 . S
O290 Mg277 2.079 1_565 S
O290 C289 1.245 . S
O291 Mg276 2.038 1_564 S
O291 C289 1.274 . S
O292 Mg280 2.042 1_556 S
O292 C295 1.241 . S
O293 Mg279 1.984 . S
O293 C295 1.280 . S
O294 Mg280 2.041 . S
O294 C298 1.277 . S
C295 O292 1.241 . S
C295 O293 1.280 . S
O296 Mg279 1.988 1_554 S
O296 C298 1.245 . S
O297 C273 1.247 . S
O297 Mg279 2.061 . S
C298 O294 1.277 . S
C298 O296 1.245 . S
O299 C273 1.289 . S
O299 Mg276 2.238 1_565 S
O299 Mg277 2.106 1_566 S
O300 Mg277 2.078 1_556 S
O300 C282 1.245 . S
O301 Mg280 2.038 1_546 S
O301 C282 1.274 . S
C302 O314 1.241 . S
C302 O315 1.280 . S
C303 O316 1.277 . S
C303 O317 1.245 . S
C304 O328 1.247 . S
C304 O330 1.289 . S
Mg305 O306 1.926 . S
Mg305 O315 1.984 . S
Mg305 O317 1.988 1_554 S
Mg305 O318 2.061 1_655 S
O306 Mg305 1.926 . S
O306 Mg307 1.986 1_554 S
O306 Mg308 1.917 1_655 S
Mg307 O306 1.986 1_556 S
Mg307 O314 2.042 1_556 S
Mg307 O316 2.041 . S
Mg307 O322 2.038 1_556 S
Mg307 O330 2.238 . S
Mg308 O306 1.917 1_455 S
Mg308 O309 1.917 1_554 S
Mg308 O319 2.107 . S
Mg308 O321 2.079 1_455 S
Mg308 O330 2.106 1_454 S
Mg308 O331 2.078 1_554 S
O309 Mg308 1.917 1_556 S
O309 Mg310 1.926 . S
O309 Mg311 1.986 1_556 S
Mg310 O309 1.926 . S
Mg310 O324 1.984 . S
Mg310 O327 1.988 1_556 S
Mg310 O328 2.061 1_455 S
Mg311 O309 1.986 1_554 S
Mg311 O319 2.238 . S
Mg311 O323 2.042 1_554 S
Mg311 O325 2.041 . S
Mg311 O332 2.038 1_554 S
C312 O318 1.247 . S
C312 O319 1.289 . S
C313 O331 1.245 . S
C313 O332 1.274 . S
O314 C302 1.241 . S
O314 Mg307 2.042 1_554 S
O315 C302 1.280 . S
O315 Mg305 1.984 . S
O316 C303 1.277 . S
O316 Mg307 2.041 . S
O317 C303 1.245 . S
O317 Mg305 1.988 1_556 S
O318 Mg305 2.061 1_455 S
O318 C312 1.247 . S
O319 Mg308 2.107 . S
O319 Mg311 2.238 . S
O319 C312 1.289 . S
C320 O321 1.245 . S
C320 O322 1.274 . S
O321 Mg308 2.079 1_655 S
O321 C320 1.245 . S
O322 Mg307 2.038 1_554 S
O322 C320 1.274 . S
O323 Mg311 2.042 1_556 S
O323 C326 1.241 . S
O324 Mg310 1.984 . S
O324 C326 1.280 . S
O325 Mg311 2.041 . S
O325 C329 1.277 . S
C326 O323 1.241 . S
C326 O324 1.280 . S
O327 Mg310 1.988 1_554 S
O327 C329 1.245 . S
O328 C304 1.247 . S
O328 Mg310 2.061 1_655 S
C329 O325 1.277 . S
C329 O327 1.245 . S
O330 C304 1.289 . S
O330 Mg307 2.238 . S
O330 Mg308 2.106 1_656 S
O331 Mg308 2.078 1_556 S
O331 C313 1.245 . S
O332 Mg311 2.038 1_556 S
O332 C313 1.274 . S
C333 O345 1.241 . S
C333 O346 1.280 . S
C334 O347 1.277 . S
C334 O348 1.245 . S
C335 O359 1.247 . S
C335 O361 1.289 . S
Mg336 O337 1.926 . S
Mg336 O346 1.984 . S
Mg336 O348 1.988 1_554 S
Mg336 O349 2.061 . S
O337 Mg336 1.926 . S
O337 Mg338 1.986 1_554 S
O337 Mg339 1.917 . S
Mg338 O337 1.986 1_556 S
Mg338 O345 2.042 1_556 S
Mg338 O347 2.041 . S
Mg338 O353 2.038 1_556 S
Mg338 O361 2.238 . S
Mg339 O337 1.917 . S
Mg339 O340 1.917 1_554 S
Mg339 O350 2.107 . S
Mg339 O352 2.079 . S
Mg339 O361 2.106 1_554 S
Mg339 O362 2.078 1_554 S
O340 Mg339 1.917 1_556 S
O340 Mg341 1.926 . S
O340 Mg342 1.986 1_556 S
Mg341 O340 1.926 . S
Mg341 O355 1.984 . S
Mg341 O358 1.988 1_556 S
Mg341 O359 2.061 . S
Mg342 O340 1.986 1_554 S
Mg342 O350 2.238 . S
Mg342 O354 2.042 1_554 S
Mg342 O356 2.041 . S
Mg342 O363 2.038 1_554 S
C343 O349 1.247 . S
C343 O350 1.289 . S
C344 O362 1.245 . S
C344 O363 1.274 . S
O345 C333 1.241 . S
O345 Mg338 2.042 1_554 S
O346 C333 1.280 . S
O346 Mg336 1.984 . S
O347 C334 1.277 . S
O347 Mg338 2.041 . S
O348 C334 1.245 . S
O348 Mg336 1.988 1_556 S
O349 Mg336 2.061 . S
O349 C343 1.247 . S
O350 Mg339 2.107 . S
O350 Mg342 2.238 . S
O350 C343 1.289 . S
C351 O352 1.245 . S
C351 O353 1.274 . S
O352 Mg339 2.079 . S
O352 C351 1.245 . S
O353 Mg338 2.038 1_554 S
O353 C351 1.274 . S
O354 Mg342 2.042 1_556 S
O354 C357 1.241 . S
O355 Mg341 1.984 . S
O355 C357 1.280 . S
O356 Mg342 2.041 . S
O356 C360 1.277 . S
C357 O354 1.241 . S
C357 O355 1.280 . S
O358 Mg341 1.988 1_554 S
O358 C360 1.245 . S
O359 C335 1.247 . S
O359 Mg341 2.061 . S
C360 O356 1.277 . S
C360 O358 1.245 . S
O361 C335 1.289 . S
O361 Mg338 2.238 . S
O361 Mg339 2.106 1_556 S
O362 Mg339 2.078 1_556 S
O362 C344 1.245 . S
O363 Mg342 2.038 1_556 S
O363 C344 1.274 . S
C364 O376 1.241 . S
C364 O377 1.280 . S
C365 O378 1.277 . S
C365 O379 1.245 . S
C366 O390 1.247 . S
C366 O392 1.289 . S
Mg367 O368 1.926 . S
Mg367 O377 1.984 . S
Mg367 O379 1.988 . S
Mg367 O380 2.061 1_655 S
O368 Mg367 1.926 . S
O368 Mg369 1.986 . S
O368 Mg370 1.917 1_655 S
Mg369 O368 1.986 . S
Mg369 O376 2.042 . S
Mg369 O378 2.041 . S
Mg369 O384 2.038 . S
Mg369 O392 2.238 . S
Mg370 O368 1.917 1_455 S
Mg370 O371 1.917 . S
Mg370 O381 2.106 . S
Mg370 O383 2.079 1_455 S
Mg370 O392 2.106 1_455 S
Mg370 O393 2.079 . S
O371 Mg370 1.917 . S
O371 Mg372 1.926 . S
O371 Mg373 1.986 . S
Mg372 O371 1.926 . S
Mg372 O386 1.984 . S
Mg372 O389 1.988 . S
Mg372 O390 2.061 1_455 S
Mg373 O371 1.986 . S
Mg373 O381 2.238 . S
Mg373 O385 2.042 . S
Mg373 O387 2.041 . S
Mg373 O394 2.038 . S
C374 O380 1.247 . S
C374 O381 1.289 . S
C375 O393 1.245 . S
C375 O394 1.274 . S
O376 C364 1.241 . S
O376 Mg369 2.042 . S
O377 C364 1.280 . S
O377 Mg367 1.984 . S
O378 C365 1.277 . S
O378 Mg369 2.041 . S
O379 C365 1.245 . S
O379 Mg367 1.988 . S
O380 Mg367 2.061 1_455 S
O380 C374 1.247 . S
O381 Mg370 2.106 . S
O381 Mg373 2.238 . S
O381 C374 1.289 . S
C382 O383 1.245 . S
C382 O384 1.274 . S
O383 Mg370 2.079 1_655 S
O383 C382 1.245 . S
O384 Mg369 2.038 . S
O384 C382 1.274 . S
O385 Mg373 2.042 . S
O385 C388 1.241 . S
O386 Mg372 1.984 . S
O386 C388 1.280 . S
O387 Mg373 2.041 . S
O387 C391 1.277 . S
C388 O385 1.241 . S
C388 O386 1.280 . S
O389 Mg372 1.988 . S
O389 C391 1.245 . S
O390 C366 1.247 . S
O390 Mg372 2.061 1_655 S
C391 O387 1.277 . S
C391 O389 1.245 . S
O392 C366 1.289 . S
O392 Mg369 2.238 . S
O392 Mg370 2.106 1_655 S
O393 Mg370 2.079 . S
O393 C375 1.245 . S
O394 Mg373 2.038 . S
O394 C375 1.274 . S
C395 O407 1.241 . S
C395 O408 1.280 . S
C396 O409 1.277 . S
C396 O410 1.245 . S
C397 O421 1.247 . S
C397 O423 1.289 . S
Mg398 O399 1.926 . S
Mg398 O408 1.984 . S
Mg398 O410 1.988 . S
Mg398 O411 2.061 . S
O399 Mg398 1.926 . S
O399 Mg400 1.986 . S
O399 Mg401 1.917 . S
Mg400 O399 1.986 . S
Mg400 O407 2.042 . S
Mg400 O409 2.041 . S
Mg400 O415 2.038 1_545 S
Mg400 O423 2.238 1_545 S
Mg401 O399 1.917 . S
Mg401 O402 1.917 1_545 S
Mg401 O412 2.106 . S
Mg401 O414 2.079 1_545 S
Mg401 O423 2.106 1_545 S
Mg401 O424 2.079 . S
O402 Mg401 1.917 1_565 S
O402 Mg403 1.926 . S
O402 Mg404 1.986 . S
Mg403 O402 1.926 . S
Mg403 O417 1.984 . S
Mg403 O420 1.988 . S
Mg403 O421 2.061 . S
Mg404 O402 1.986 . S
Mg404 O412 2.238 1_565 S
Mg404 O416 2.042 . S
Mg404 O418 2.041 . S
Mg404 O425 2.038 1_565 S
C405 O411 1.247 . S
C405 O412 1.289 . S
C406 O424 1.245 . S
C406 O425 1.274 . S
O407 C395 1.241 . S
O407 Mg400 2.042 . S
O408 C395 1.280 . S
O408 Mg398 1.984 . S
O409 C396 1.277 . S
O409 Mg400 2.041 . S
O410 C396 1.245 . S
O410 Mg398 1.988 . S
O411 Mg398 2.061 . S
O411 C405 1.247 . S
O412 Mg401 2.106 . S
O412 Mg404 2.238 1_545 S
O412 C405 1.289 . S
C413 O414 1.245 . S
C413 O415 1.274 . S
O414 Mg401 2.079 1_565 S
O414 C413 1.245 . S
O415 Mg400 2.038 1_565 S
O415 C413 1.274 . S
O416 Mg404 2.042 . S
O416 C419 1.241 . S
O417 Mg403 1.984 . S
O417 C419 1.280 . S
O418 Mg404 2.041 . S
O418 C422 1.277 . S
C419 O416 1.241 . S
C419 O417 1.280 . S
O420 Mg403 1.988 . S
O420 C422 1.245 . S
O421 C397 1.247 . S
O421 Mg403 2.061 . S
C422 O418 1.277 . S
C422 O420 1.245 . S
O423 C397 1.289 . S
O423 Mg400 2.238 1_565 S
O423 Mg401 2.106 1_565 S
O424 Mg401 2.079 . S
O424 C406 1.245 . S
O425 Mg404 2.038 1_545 S
O425 C406 1.274 . S
H426 C432 0.930 . S
H427 C435 0.930 . S
H428 C436 0.930 . S
H429 C437 0.930 . S
H430 C440 0.930 . S
H431 C441 0.930 . S
C432 H426 0.930 . S
C432 C433 1.355 . S
C432 C434 1.415 . S
C433 C432 1.355 . S
C433 C435 1.419 . S
C434 C432 1.415 . S
C434 C439 1.425 . S
C434 C441 1.409 . S
C435 H427 0.930 . S
C435 C433 1.419 . S
C435 C436 1.362 . S
C436 H428 0.930 . S
C436 C435 1.362 . S
C436 C439 1.409 . S
C437 H429 0.930 . S
C437 C438 1.355 . S
C437 C439 1.415 . S
C438 C437 1.355 . S
C438 C440 1.419 . S
C439 C434 1.425 . S
C439 C436 1.409 . S
C439 C437 1.415 . S
C440 H430 0.930 . S
C440 C438 1.419 . S
C440 C441 1.362 . S
C441 H431 0.930 . S
C441 C434 1.409 . S
C441 C440 1.362 . S
H442 C448 0.930 . S
H443 C451 0.930 . S
H444 C452 0.930 . S
H445 C453 0.930 . S
H446 C456 0.930 . S
H447 C457 0.930 . S
C448 H442 0.930 . S
C448 C449 1.355 . S
C448 C450 1.415 . S
C449 C448 1.355 . S
C449 C451 1.419 . S
C450 C448 1.415 . S
C450 C455 1.425 . S
C450 C457 1.409 . S
C451 H443 0.930 . S
C451 C449 1.419 . S
C451 C452 1.362 . S
C452 H444 0.930 . S
C452 C451 1.362 . S
C452 C455 1.409 . S
C453 H445 0.930 . S
C453 C454 1.355 . S
C453 C455 1.415 . S
C454 C453 1.355 . S
C454 C456 1.419 . S
C455 C450 1.425 . S
C455 C452 1.409 . S
C455 C453 1.415 . S
C456 H446 0.930 . S
C456 C454 1.419 . S
C456 C457 1.362 . S
C457 H447 0.930 . S
C457 C450 1.409 . S
C457 C456 1.362 . S
H458 C464 0.930 . S
H459 C467 0.930 . S
H460 C468 0.930 . S
H461 C469 0.930 . S
H462 C472 0.930 . S
H463 C473 0.930 . S
C464 H458 0.930 . S
C464 C465 1.355 . S
C464 C466 1.415 . S
C465 C464 1.355 . S
C465 C467 1.419 . S
C466 C464 1.415 . S
C466 C471 1.425 . S
C466 C473 1.409 . S
C467 H459 0.930 . S
C467 C465 1.419 . S
C467 C468 1.362 . S
C468 H460 0.930 . S
C468 C467 1.362 . S
C468 C471 1.409 . S
C469 H461 0.930 . S
C469 C470 1.355 . S
C469 C471 1.415 . S
C470 C469 1.355 . S
C470 C472 1.419 . S
C471 C466 1.425 . S
C471 C468 1.409 . S
C471 C469 1.415 . S
C472 H462 0.930 . S
C472 C470 1.419 . S
C472 C473 1.362 . S
C473 H463 0.930 . S
C473 C466 1.409 . S
C473 C472 1.362 . S
H474 C480 0.930 . S
H475 C483 0.930 . S
H476 C484 0.930 . S
H477 C485 0.930 . S
H478 C488 0.930 . S
H479 C489 0.930 . S
C480 H474 0.930 . S
C480 C481 1.355 . S
C480 C482 1.415 . S
C481 C480 1.355 . S
C481 C483 1.419 . S
C482 C480 1.415 . S
C482 C487 1.425 . S
C482 C489 1.409 . S
C483 H475 0.930 . S
C483 C481 1.419 . S
C483 C484 1.362 . S
C484 H476 0.930 . S
C484 C483 1.362 . S
C484 C487 1.409 . S
C485 H477 0.930 . S
C485 C486 1.355 . S
C485 C487 1.415 . S
C486 C485 1.355 . S
C486 C488 1.419 . S
C487 C482 1.425 . S
C487 C484 1.409 . S
C487 C485 1.415 . S
C488 H478 0.930 . S
C488 C486 1.419 . S
C488 C489 1.362 . S
C489 H479 0.930 . S
C489 C482 1.409 . S
C489 C488 1.362 . S
H490 C496 0.930 . S
H491 C499 0.930 . S
H492 C500 0.930 . S
H493 C501 0.930 . S
H494 C504 0.930 . S
H495 C505 0.930 . S
C496 H490 0.930 . S
C496 C497 1.355 . S
C496 C498 1.415 . S
C497 C496 1.355 . S
C497 C499 1.419 . S
C498 C496 1.415 . S
C498 C503 1.425 . S
C498 C505 1.409 . S
C499 H491 0.930 . S
C499 C497 1.419 . S
C499 C500 1.362 . S
C500 H492 0.930 . S
C500 C499 1.362 . S
C500 C503 1.409 . S
C501 H493 0.930 . S
C501 C502 1.355 . S
C501 C503 1.415 . S
C502 C501 1.355 . S
C502 C504 1.419 . S
C503 C498 1.425 . S
C503 C500 1.409 . S
C503 C501 1.415 . S
C504 H494 0.930 . S
C504 C502 1.419 . S
C504 C505 1.362 . S
C505 H495 0.930 . S
C505 C498 1.409 . S
C505 C504 1.362 . S
H506 C512 0.930 . S
H507 C515 0.930 . S
H508 C516 0.930 . S
H509 C517 0.930 . S
H510 C520 0.930 . S
H511 C521 0.930 . S
C512 H506 0.930 . S
C512 C513 1.355 . S
C512 C514 1.415 . S
C513 C512 1.355 . S
C513 C515 1.419 . S
C514 C512 1.415 . S
C514 C519 1.425 . S
C514 C521 1.409 . S
C515 H507 0.930 . S
C515 C513 1.419 . S
C515 C516 1.362 . S
C516 H508 0.930 . S
C516 C515 1.362 . S
C516 C519 1.409 . S
C517 H509 0.930 . S
C517 C518 1.355 . S
C517 C519 1.415 . S
C518 C517 1.355 . S
C518 C520 1.419 . S
C519 C514 1.425 . S
C519 C516 1.409 . S
C519 C517 1.415 . S
C520 H510 0.930 . S
C520 C518 1.419 . S
C520 C521 1.362 . S
C521 H511 0.930 . S
C521 C514 1.409 . S
C521 C520 1.362 . S
H522 C528 0.930 . S
H523 C531 0.930 . S
H524 C532 0.930 . S
H525 C533 0.930 . S
H526 C536 0.930 . S
H527 C537 0.930 . S
C528 H522 0.930 . S
C528 C529 1.355 . S
C528 C530 1.415 . S
C529 C528 1.355 . S
C529 C531 1.419 . S
C530 C528 1.415 . S
C530 C535 1.425 . S
C530 C537 1.409 . S
C531 H523 0.930 . S
C531 C529 1.419 . S
C531 C532 1.362 . S
C532 H524 0.930 . S
C532 C531 1.362 . S
C532 C535 1.409 . S
C533 H525 0.930 . S
C533 C534 1.355 . S
C533 C535 1.415 . S
C534 C533 1.355 . S
C534 C536 1.419 . S
C535 C530 1.425 . S
C535 C532 1.409 . S
C535 C533 1.415 . S
C536 H526 0.930 . S
C536 C534 1.419 . S
C536 C537 1.362 . S
C537 H527 0.930 . S
C537 C530 1.409 . S
C537 C536 1.362 . S
H538 C544 0.930 . S
H539 C547 0.930 . S
H540 C548 0.930 . S
H541 C549 0.930 . S
H542 C552 0.930 . S
H543 C553 0.930 . S
C544 H538 0.930 . S
C544 C545 1.355 . S
C544 C546 1.415 . S
C545 C544 1.355 . S
C545 C547 1.419 . S
C546 C544 1.415 . S
C546 C551 1.425 . S
C546 C553 1.409 . S
C547 H539 0.930 . S
C547 C545 1.419 . S
C547 C548 1.362 . S
C548 H540 0.930 . S
C548 C547 1.362 . S
C548 C551 1.409 . S
C549 H541 0.930 . S
C549 C550 1.355 . S
C549 C551 1.415 . S
C550 C549 1.355 . S
C550 C552 1.419 . S
C551 C546 1.425 . S
C551 C548 1.409 . S
C551 C549 1.415 . S
C552 H542 0.930 . S
C552 C550 1.419 . S
C552 C553 1.362 . S
C553 H543 0.930 . S
C553 C546 1.409 . S
C553 C552 1.362 . S
H554 C560 0.930 . S
H555 C563 0.930 . S
H556 C564 0.930 . S
H557 C565 0.930 . S
H558 C568 0.930 . S
H559 C569 0.930 . S
C560 H554 0.930 . S
C560 C561 1.355 . S
C560 C562 1.415 . S
C561 C560 1.355 . S
C561 C563 1.419 . S
C562 C560 1.415 . S
C562 C567 1.425 . S
C562 C569 1.409 . S
C563 H555 0.930 . S
C563 C561 1.419 . S
C563 C564 1.362 . S
C564 H556 0.930 . S
C564 C563 1.362 . S
C564 C567 1.409 . S
C565 H557 0.930 . S
C565 C566 1.355 . S
C565 C567 1.415 . S
C566 C565 1.355 . S
C566 C568 1.419 . S
C567 C562 1.425 . S
C567 C564 1.409 . S
C567 C565 1.415 . S
C568 H558 0.930 . S
C568 C566 1.419 . S
C568 C569 1.362 . S
C569 H559 0.930 . S
C569 C562 1.409 . S
C569 C568 1.362 . S
H570 C576 0.930 . S
H571 C579 0.930 . S
H572 C580 0.930 . S
H573 C581 0.930 . S
H574 C584 0.930 . S
H575 C585 0.930 . S
C576 H570 0.930 . S
C576 C577 1.355 . S
C576 C578 1.415 . S
C577 C576 1.355 . S
C577 C579 1.419 . S
C578 C576 1.415 . S
C578 C583 1.425 . S
C578 C585 1.409 . S
C579 H571 0.930 . S
C579 C577 1.419 . S
C579 C580 1.362 . S
C580 H572 0.930 . S
C580 C579 1.362 . S
C580 C583 1.409 . S
C581 H573 0.930 . S
C581 C582 1.355 . S
C581 C583 1.415 . S
C582 C581 1.355 . S
C582 C584 1.419 . S
C583 C578 1.425 . S
C583 C580 1.409 . S
C583 C581 1.415 . S
C584 H574 0.930 . S
C584 C582 1.419 . S
C584 C585 1.362 . S
C585 H575 0.930 . S
C585 C578 1.409 . S
C585 C584 1.362 . S
H586 C592 0.930 . S
H587 C595 0.930 . S
H588 C596 0.930 . S
H589 C597 0.930 . S
H590 C600 0.930 . S
H591 C601 0.930 . S
C592 H586 0.930 . S
C592 C593 1.355 . S
C592 C594 1.415 . S
C593 C592 1.355 . S
C593 C595 1.419 . S
C594 C592 1.415 . S
C594 C599 1.425 . S
C594 C601 1.409 . S
C595 H587 0.930 . S
C595 C593 1.419 . S
C595 C596 1.362 . S
C596 H588 0.930 . S
C596 C595 1.362 . S
C596 C599 1.409 . S
C597 H589 0.930 . S
C597 C598 1.355 . S
C597 C599 1.415 . S
C598 C597 1.355 . S
C598 C600 1.419 . S
C599 C594 1.425 . S
C599 C596 1.409 . S
C599 C597 1.415 . S
C600 H590 0.930 . S
C600 C598 1.419 . S
C600 C601 1.362 . S
C601 H591 0.930 . S
C601 C594 1.409 . S
C601 C600 1.362 . S
H602 C608 0.930 . S
H603 C611 0.930 . S
H604 C612 0.930 . S
H605 C613 0.930 . S
H606 C616 0.930 . S
H607 C617 0.930 . S
C608 H602 0.930 . S
C608 C609 1.355 . S
C608 C610 1.415 . S
C609 C608 1.355 . S
C609 C611 1.419 . S
C610 C608 1.415 . S
C610 C615 1.425 . S
C610 C617 1.409 . S
C611 H603 0.930 . S
C611 C609 1.419 . S
C611 C612 1.362 . S
C612 H604 0.930 . S
C612 C611 1.362 . S
C612 C615 1.409 . S
C613 H605 0.930 . S
C613 C614 1.355 . S
C613 C615 1.415 . S
C614 C613 1.355 . S
C614 C616 1.419 . S
C615 C610 1.425 . S
C615 C612 1.409 . S
C615 C613 1.415 . S
C616 H606 0.930 . S
C616 C614 1.419 . S
C616 C617 1.362 . S
C617 H607 0.930 . S
C617 C610 1.409 . S
C617 C616 1.362 . S
H618 C624 0.930 . S
H619 C627 0.930 . S
H620 C628 0.930 . S
H621 C629 0.930 . S
H622 C632 0.930 . S
H623 C633 0.930 . S
C624 H618 0.930 . S
C624 C625 1.355 . S
C624 C626 1.415 . S
C625 C624 1.355 . S
C625 C627 1.419 . S
C626 C624 1.415 . S
C626 C631 1.425 . S
C626 C633 1.409 . S
C627 H619 0.930 . S
C627 C625 1.419 . S
C627 C628 1.362 . S
C628 H620 0.930 . S
C628 C627 1.362 . S
C628 C631 1.409 . S
C629 H621 0.930 . S
C629 C630 1.355 . S
C629 C631 1.415 . S
C630 C629 1.355 . S
C630 C632 1.419 . S
C631 C626 1.425 . S
C631 C628 1.409 . S
C631 C629 1.415 . S
C632 H622 0.930 . S
C632 C630 1.419 . S
C632 C633 1.362 . S
C633 H623 0.930 . S
C633 C626 1.409 . S
C633 C632 1.362 . S
H634 C640 0.930 . S
H635 C643 0.930 . S
H636 C644 0.930 . S
H637 C645 0.930 . S
H638 C648 0.930 . S
H639 C649 0.930 . S
C640 H634 0.930 . S
C640 C641 1.355 . S
C640 C642 1.415 . S
C641 C640 1.355 . S
C641 C643 1.419 . S
C642 C640 1.415 . S
C642 C647 1.425 . S
C642 C649 1.409 . S
C643 H635 0.930 . S
C643 C641 1.419 . S
C643 C644 1.362 . S
C644 H636 0.930 . S
C644 C643 1.362 . S
C644 C647 1.409 . S
C645 H637 0.930 . S
C645 C646 1.355 . S
C645 C647 1.415 . S
C646 C645 1.355 . S
C646 C648 1.419 . S
C647 C642 1.425 . S
C647 C644 1.409 . S
C647 C645 1.415 . S
C648 H638 0.930 . S
C648 C646 1.419 . S
C648 C649 1.362 . S
C649 H639 0.930 . S
C649 C642 1.409 . S
C649 C648 1.362 . S
H650 C656 0.930 . S
H651 C659 0.930 . S
H652 C660 0.930 . S
H653 C661 0.930 . S
H654 C664 0.930 . S
H655 C665 0.930 . S
C656 H650 0.930 . S
C656 C657 1.355 . S
C656 C658 1.415 . S
C657 C656 1.355 . S
C657 C659 1.419 . S
C658 C656 1.415 . S
C658 C663 1.425 . S
C658 C665 1.409 . S
C659 H651 0.930 . S
C659 C657 1.419 . S
C659 C660 1.362 . S
C660 H652 0.930 . S
C660 C659 1.362 . S
C660 C663 1.409 . S
C661 H653 0.930 . S
C661 C662 1.355 . S
C661 C663 1.415 . S
C662 C661 1.355 . S
C662 C664 1.419 . S
C663 C658 1.425 . S
C663 C660 1.409 . S
C663 C661 1.415 . S
C664 H654 0.930 . S
C664 C662 1.419 . S
C664 C665 1.362 . S
C665 H655 0.930 . S
C665 C658 1.409 . S
C665 C664 1.362 . S
H666 C672 0.930 . S
H667 C675 0.930 . S
H668 C676 0.930 . S
H669 C677 0.930 . S
H670 C680 0.930 . S
H671 C681 0.930 . S
C672 H666 0.930 . S
C672 C673 1.355 . S
C672 C674 1.415 . S
C673 C672 1.355 . S
C673 C675 1.419 . S
C674 C672 1.415 . S
C674 C679 1.425 . S
C674 C681 1.409 . S
C675 H667 0.930 . S
C675 C673 1.419 . S
C675 C676 1.362 . S
C676 H668 0.930 . S
C676 C675 1.362 . S
C676 C679 1.409 . S
C677 H669 0.930 . S
C677 C678 1.355 . S
C677 C679 1.415 . S
C678 C677 1.355 . S
C678 C680 1.419 . S
C679 C674 1.425 . S
C679 C676 1.409 . S
C679 C677 1.415 . S
C680 H670 0.930 . S
C680 C678 1.419 . S
C680 C681 1.362 . S
C681 H671 0.930 . S
C681 C674 1.409 . S
C681 C680 1.362 . S
H682 C688 0.930 . S
H683 C691 0.930 . S
H684 C692 0.930 . S
H685 C693 0.930 . S
H686 C696 0.930 . S
H687 C697 0.930 . S
C688 H682 0.930 . S
C688 C689 1.355 . S
C688 C690 1.415 . S
C689 C688 1.355 . S
C689 C691 1.419 . S
C690 C688 1.415 . S
C690 C695 1.425 . S
C690 C697 1.409 . S
C691 H683 0.930 . S
C691 C689 1.419 . S
C691 C692 1.362 . S
C692 H684 0.930 . S
C692 C691 1.362 . S
C692 C695 1.409 . S
C693 H685 0.930 . S
C693 C694 1.355 . S
C693 C695 1.415 . S
C694 C693 1.355 . S
C694 C696 1.419 . S
C695 C690 1.425 . S
C695 C692 1.409 . S
C695 C693 1.415 . S
C696 H686 0.930 . S
C696 C694 1.419 . S
C696 C697 1.362 . S
C697 H687 0.930 . S
C697 C690 1.409 . S
C697 C696 1.362 . S
H698 C704 0.930 . S
H699 C707 0.930 . S
H700 C708 0.930 . S
H701 C709 0.930 . S
H702 C712 0.937 . S
H703 C713 0.930 . S
C704 H698 0.930 . S
C704 C705 1.355 . S
C704 C706 1.415 . S
C705 C704 1.355 . S
C705 C707 1.419 . S
C706 C704 1.415 . S
C706 C711 1.425 . S
C706 C713 1.409 . S
C707 H699 0.930 . S
C707 C705 1.419 . S
C707 C708 1.362 . S
C708 H700 0.930 . S
C708 C707 1.362 . S
C708 C711 1.409 . S
C709 H701 0.930 . S
C709 C710 1.355 . S
C709 C711 1.415 . S
C710 C709 1.355 . S
C710 C712 1.419 . S
C711 C706 1.425 . S
C711 C708 1.409 . S
C711 C709 1.415 . S
C712 H702 0.937 . S
C712 C710 1.419 . S
C712 C713 1.362 . S
C713 H703 0.930 . S
C713 C706 1.409 . S
C713 C712 1.362 . S
H714 C720 0.930 . S
H715 C723 0.930 . S
H716 C724 0.930 . S
H717 C725 0.930 . S
H718 C728 0.930 . S
H719 C729 0.930 . S
C720 H714 0.930 . S
C720 C721 1.355 . S
C720 C722 1.415 . S
C721 C720 1.355 . S
C721 C723 1.419 . S
C722 C720 1.415 . S
C722 C727 1.425 . S
C722 C729 1.409 . S
C723 H715 0.930 . S
C723 C721 1.419 . S
C723 C724 1.362 . S
C724 H716 0.930 . S
C724 C723 1.362 . S
C724 C727 1.409 . S
C725 H717 0.930 . S
C725 C726 1.355 . S
C725 C727 1.415 . S
C726 C725 1.355 . S
C726 C728 1.419 . S
C727 C722 1.425 . S
C727 C724 1.409 . S
C727 C725 1.415 . S
C728 H718 0.930 . S
C728 C726 1.419 . S
C728 C729 1.362 . S
C729 H719 0.930 . S
C729 C722 1.409 . S
C729 C728 1.362 . S
H730 C736 0.930 . S
H731 C739 0.930 . S
H732 C740 0.930 . S
H733 C741 0.930 . S
H734 C744 0.930 . S
H735 C745 0.930 . S
C736 H730 0.930 . S
C736 C737 1.355 . S
C736 C738 1.415 . S
C737 C736 1.355 . S
C737 C739 1.419 . S
C738 C736 1.415 . S
C738 C743 1.425 . S
C738 C745 1.409 . S
C739 H731 0.930 . S
C739 C737 1.419 . S
C739 C740 1.362 . S
C740 H732 0.930 . S
C740 C739 1.362 . S
C740 C743 1.409 . S
C741 H733 0.930 . S
C741 C742 1.355 . S
C741 C743 1.415 . S
C742 C741 1.355 . S
C742 C744 1.419 . S
C743 C738 1.425 . S
C743 C740 1.409 . S
C743 C741 1.415 . S
C744 H734 0.930 . S
C744 C742 1.419 . S
C744 C745 1.362 . S
C745 H735 0.930 . S
C745 C738 1.409 . S
C745 C744 1.362 . S
H746 C752 0.930 . S
H747 C755 0.930 . S
H748 C756 0.930 . S
H749 C757 0.930 . S
H750 C760 0.930 . S
H751 C761 0.930 . S
C752 H746 0.930 . S
C752 C753 1.355 . S
C752 C754 1.415 . S
C753 C752 1.355 . S
C753 C755 1.419 . S
C754 C752 1.415 . S
C754 C759 1.425 . S
C754 C761 1.409 . S
C755 H747 0.930 . S
C755 C753 1.419 . S
C755 C756 1.362 . S
C756 H748 0.930 . S
C756 C755 1.362 . S
C756 C759 1.409 . S
C757 H749 0.930 . S
C757 C758 1.355 . S
C757 C759 1.415 . S
C758 C757 1.355 . S
C758 C760 1.419 . S
C759 C754 1.425 . S
C759 C756 1.409 . S
C759 C757 1.415 . S
C760 H750 0.930 . S
C760 C758 1.419 . S
C760 C761 1.362 . S
C761 H751 0.930 . S
C761 C754 1.409 . S
C761 C760 1.362 . S
H762 C768 0.930 . S
H763 C771 0.930 . S
H764 C772 0.930 . S
H765 C773 0.930 . S
H766 C776 0.930 . S
H767 C777 0.930 . S
C768 H762 0.930 . S
C768 C769 1.355 . S
C768 C770 1.415 . S
C769 C768 1.355 . S
C769 C771 1.419 . S
C770 C768 1.415 . S
C770 C775 1.425 . S
C770 C777 1.409 . S
C771 H763 0.930 . S
C771 C769 1.419 . S
C771 C772 1.362 . S
C772 H764 0.930 . S
C772 C771 1.362 . S
C772 C775 1.409 . S
C773 H765 0.930 . S
C773 C774 1.355 . S
C773 C775 1.415 . S
C774 C773 1.355 . S
C774 C776 1.419 . S
C775 C770 1.425 . S
C775 C772 1.409 . S
C775 C773 1.415 . S
C776 H766 0.930 . S
C776 C774 1.419 . S
C776 C777 1.362 . S
C777 H767 0.930 . S
C777 C770 1.409 . S
C777 C776 1.362 . S
H778 C784 0.930 . S
H779 C787 0.930 . S
H780 C788 0.930 . S
H781 C789 0.930 . S
H782 C792 0.930 . S
H783 C793 0.930 . S
C784 H778 0.930 . S
C784 C785 1.355 . S
C784 C786 1.415 . S
C785 C784 1.355 . S
C785 C787 1.419 . S
C786 C784 1.415 . S
C786 C791 1.425 . S
C786 C793 1.409 . S
C787 H779 0.930 . S
C787 C785 1.419 . S
C787 C788 1.362 . S
C788 H780 0.930 . S
C788 C787 1.362 . S
C788 C791 1.409 . S
C789 H781 0.930 . S
C789 C790 1.355 . S
C789 C791 1.415 . S
C790 C789 1.355 . S
C790 C792 1.419 . S
C791 C786 1.425 . S
C791 C788 1.409 . S
C791 C789 1.415 . S
C792 H782 0.930 . S
C792 C790 1.419 . S
C792 C793 1.362 . S
C793 H783 0.930 . S
C793 C786 1.409 . S
C793 C792 1.362 . S
H794 C800 0.930 . S
H795 C803 0.930 . S
H796 C804 0.930 . S
H797 C805 0.930 . S
H798 C808 0.930 . S
H799 C809 0.930 . S
C800 H794 0.930 . S
C800 C801 1.355 . S
C800 C802 1.415 . S
C801 C800 1.355 . S
C801 C803 1.419 . S
C802 C800 1.415 . S
C802 C807 1.425 . S
C802 C809 1.409 . S
C803 H795 0.930 . S
C803 C801 1.419 . S
C803 C804 1.362 . S
C804 H796 0.930 . S
C804 C803 1.362 . S
C804 C807 1.409 . S
C805 H797 0.930 . S
C805 C806 1.355 . S
C805 C807 1.415 . S
C806 C805 1.355 . S
C806 C808 1.419 . S
C807 C802 1.425 . S
C807 C804 1.409 . S
C807 C805 1.415 . S
C808 H798 0.930 . S
C808 C806 1.419 . S
C808 C809 1.362 . S
C809 H799 0.930 . S
C809 C802 1.409 . S
C809 C808 1.362 . S
H810 C816 0.930 . S
H811 C819 0.930 . S
H812 C820 0.930 . S
H813 C821 0.930 . S
H814 C824 0.930 . S
H815 C825 0.930 . S
C816 H810 0.930 . S
C816 C817 1.355 . S
C816 C818 1.415 . S
C817 C816 1.355 . S
C817 C819 1.419 . S
C818 C816 1.415 . S
C818 C823 1.425 . S
C818 C825 1.409 . S
C819 H811 0.930 . S
C819 C817 1.419 . S
C819 C820 1.362 . S
C820 H812 0.930 . S
C820 C819 1.362 . S
C820 C823 1.409 . S
C821 H813 0.930 . S
C821 C822 1.355 . S
C821 C823 1.415 . S
C822 C821 1.355 . S
C822 C824 1.419 . S
C823 C818 1.425 . S
C823 C820 1.409 . S
C823 C821 1.415 . S
C824 H814 0.930 . S
C824 C822 1.419 . S
C824 C825 1.362 . S
C825 H815 0.930 . S
C825 C818 1.409 . S
C825 C824 1.362 . S
H826 C832 0.930 . S
H827 C835 0.930 . S
H828 C836 0.930 . S
H829 C837 0.930 . S
H830 C840 0.930 . S
H831 C841 0.930 . S
C832 H826 0.930 . S
C832 C833 1.355 . S
C832 C834 1.415 . S
C833 C832 1.355 . S
C833 C835 1.419 . S
C834 C832 1.415 . S
C834 C839 1.425 . S
C834 C841 1.409 . S
C835 H827 0.930 . S
C835 C833 1.419 . S
C835 C836 1.362 . S
C836 H828 0.930 . S
C836 C835 1.362 . S
C836 C839 1.409 . S
C837 H829 0.930 . S
C837 C838 1.355 . S
C837 C839 1.415 . S
C838 C837 1.355 . S
C838 C840 1.419 . S
C839 C834 1.425 . S
C839 C836 1.409 . S
C839 C837 1.415 . S
C840 H830 0.930 . S
C840 C838 1.419 . S
C840 C841 1.362 . S
C841 H831 0.930 . S
C841 C834 1.409 . S
C841 C840 1.362 . S
H842 C848 0.930 . S
H843 C851 0.930 . S
H844 C852 0.930 . S
H845 C853 0.930 . S
H846 C856 0.930 . S
H847 C857 0.930 . S
C848 H842 0.930 . S
C848 C849 1.355 . S
C848 C850 1.415 . S
C849 C848 1.355 . S
C849 C851 1.419 . S
C850 C848 1.415 . S
C850 C855 1.425 . S
C850 C857 1.409 . S
C851 H843 0.930 . S
C851 C849 1.419 . S
C851 C852 1.362 . S
C852 H844 0.930 . S
C852 C851 1.362 . S
C852 C855 1.409 . S
C853 H845 0.930 . S
C853 C854 1.355 . S
C853 C855 1.415 . S
C854 C853 1.355 . S
C854 C856 1.419 . S
C855 C850 1.425 . S
C855 C852 1.409 . S
C855 C853 1.415 . S
C856 H846 0.930 . S
C856 C854 1.419 . S
C856 C857 1.362 . S
C857 H847 0.930 . S
C857 C850 1.409 . S
C857 C856 1.362 . S
H858 C864 0.930 . S
H859 C867 0.930 . S
H860 C868 0.930 . S
H861 C869 0.930 . S
H862 C872 0.930 . S
H863 C873 0.930 . S
C864 H858 0.930 . S
C864 C865 1.355 . S
C864 C866 1.415 . S
C865 C864 1.355 . S
C865 C867 1.419 . S
C866 C864 1.415 . S
C866 C871 1.425 . S
C866 C873 1.409 . S
C867 H859 0.930 . S
C867 C865 1.419 . S
C867 C868 1.362 . S
C868 H860 0.930 . S
C868 C867 1.362 . S
C868 C871 1.409 . S
C869 H861 0.930 . S
C869 C870 1.355 . S
C869 C871 1.415 . S
C870 C869 1.355 . S
C870 C872 1.419 . S
C871 C866 1.425 . S
C871 C868 1.409 . S
C871 C869 1.415 . S
C872 H862 0.930 . S
C872 C870 1.419 . S
C872 C873 1.362 . S
C873 H863 0.930 . S
C873 C866 1.409 . S
C873 C872 1.362 . S
H874 C880 0.930 . S
H875 C883 0.930 . S
H876 C884 0.930 . S
H877 C885 0.930 . S
H878 C888 0.930 . S
H879 C889 0.930 . S
C880 H874 0.930 . S
C880 C881 1.355 . S
C880 C882 1.415 . S
C881 C880 1.355 . S
C881 C883 1.419 . S
C882 C880 1.415 . S
C882 C887 1.425 . S
C882 C889 1.409 . S
C883 H875 0.930 . S
C883 C881 1.419 . S
C883 C884 1.362 . S
C884 H876 0.930 . S
C884 C883 1.362 . S
C884 C887 1.409 . S
C885 H877 0.930 . S
C885 C886 1.355 . S
C885 C887 1.415 . S
C886 C885 1.355 . S
C886 C888 1.419 . S
C887 C882 1.425 . S
C887 C884 1.409 . S
C887 C885 1.415 . S
C888 H878 0.930 . S
C888 C886 1.419 . S
C888 C889 1.362 . S
C889 H879 0.930 . S
C889 C882 1.409 . S
C889 C888 1.362 . S
H890 C896 0.930 . S
H891 C899 0.930 . S
H892 C900 0.930 . S
H893 C901 0.930 . S
H894 C904 0.930 . S
H895 C905 0.930 . S
C896 H890 0.930 . S
C896 C897 1.355 . S
C896 C898 1.415 . S
C897 C896 1.355 . S
C897 C899 1.419 . S
C898 C896 1.415 . S
C898 C903 1.425 . S
C898 C905 1.409 . S
C899 H891 0.930 . S
C899 C897 1.419 . S
C899 C900 1.362 . S
C900 H892 0.930 . S
C900 C899 1.362 . S
C900 C903 1.409 . S
C901 H893 0.930 . S
C901 C902 1.355 . S
C901 C903 1.415 . S
C902 C901 1.355 . S
C902 C904 1.419 . S
C903 C898 1.425 . S
C903 C900 1.409 . S
C903 C901 1.415 . S
C904 H894 0.930 . S
C904 C902 1.419 . S
C904 C905 1.362 . S
C905 H895 0.930 . S
C905 C898 1.409 . S
C905 C904 1.362 . S
H906 C912 0.930 . S
H907 C915 0.930 . S
H908 C916 0.930 . S
H909 C917 0.930 . S
H910 C920 0.930 . S
H911 C921 0.930 . S
C912 H906 0.930 . S
C912 C913 1.355 . S
C912 C914 1.415 . S
C913 C912 1.355 . S
C913 C915 1.419 . S
C914 C912 1.415 . S
C914 C919 1.425 . S
C914 C921 1.409 . S
C915 H907 0.930 . S
C915 C913 1.419 . S
C915 C916 1.362 . S
C916 H908 0.930 . S
C916 C915 1.362 . S
C916 C919 1.409 . S
C917 H909 0.930 . S
C917 C918 1.355 . S
C917 C919 1.415 . S
C918 C917 1.355 . S
C918 C920 1.419 . S
C919 C914 1.425 . S
C919 C916 1.409 . S
C919 C917 1.415 . S
C920 H910 0.930 . S
C920 C918 1.419 . S
C920 C921 1.362 . S
C921 H911 0.930 . S
C921 C914 1.409 . S
C921 C920 1.362 . S
H922 C928 0.930 . S
H923 C931 0.930 . S
H924 C932 0.930 . S
H925 C933 0.930 . S
H926 C936 0.930 . S
H927 C937 0.930 . S
C928 H922 0.930 . S
C928 C929 1.355 . S
C928 C930 1.415 . S
C929 C928 1.355 . S
C929 C931 1.419 . S
C930 C928 1.415 . S
C930 C935 1.425 . S
C930 C937 1.409 . S
C931 H923 0.930 . S
C931 C929 1.419 . S
C931 C932 1.362 . S
C932 H924 0.930 . S
C932 C931 1.362 . S
C932 C935 1.409 . S
C933 H925 0.930 . S
C933 C934 1.355 . S
C933 C935 1.415 . S
C934 C933 1.355 . S
C934 C936 1.419 . S
C935 C930 1.425 . S
C935 C932 1.409 . S
C935 C933 1.415 . S
C936 H926 0.930 . S
C936 C934 1.419 . S
C936 C937 1.362 . S
C937 H927 0.930 . S
C937 C930 1.409 . S
C937 C936 1.362 . S
H938 C944 0.930 . S
H939 C947 0.930 . S
H940 C948 0.930 . S
H941 C949 0.930 . S
H942 C952 0.930 . S
H943 C953 0.930 . S
C944 H938 0.930 . S
C944 C945 1.355 . S
C944 C946 1.415 . S
C945 C944 1.355 . S
C945 C947 1.419 . S
C946 C944 1.415 . S
C946 C951 1.425 . S
C946 C953 1.409 . S
C947 H939 0.930 . S
C947 C945 1.419 . S
C947 C948 1.362 . S
C948 H940 0.930 . S
C948 C947 1.362 . S
C948 C951 1.409 . S
C949 H941 0.930 . S
C949 C950 1.355 . S
C949 C951 1.415 . S
C950 C949 1.355 . S
C950 C952 1.419 . S
C951 C946 1.425 . S
C951 C948 1.409 . S
C951 C949 1.415 . S
C952 H942 0.930 . S
C952 C950 1.419 . S
C952 C953 1.362 . S
C953 H943 0.930 . S
C953 C946 1.409 . S
C953 C952 1.362 . S
H954 C960 0.930 . S
H955 C963 0.930 . S
H956 C964 0.930 . S
H957 C965 0.930 . S
H958 C968 0.930 . S
H959 C969 0.930 . S
C960 H954 0.930 . S
C960 C961 1.355 . S
C960 C962 1.415 . S
C961 C960 1.355 . S
C961 C963 1.419 . S
C962 C960 1.415 . S
C962 C967 1.425 . S
C962 C969 1.409 . S
C963 H955 0.930 . S
C963 C961 1.419 . S
C963 C964 1.362 . S
C964 H956 0.930 . S
C964 C963 1.362 . S
C964 C967 1.409 . S
C965 H957 0.930 . S
C965 C966 1.355 . S
C965 C967 1.415 . S
C966 C965 1.355 . S
C966 C968 1.419 . S
C967 C962 1.425 . S
C967 C964 1.409 . S
C967 C965 1.415 . S
C968 H958 0.930 . S
C968 C966 1.419 . S
C968 C969 1.362 . S
C969 H959 0.930 . S
C969 C962 1.409 . S
C969 C968 1.362 . S
H970 C976 0.930 . S
H971 C979 0.930 . S
H972 C980 0.930 . S
H973 C981 0.930 . S
H974 C984 0.930 . S
H975 C985 0.930 . S
C976 H970 0.930 . S
C976 C977 1.355 . S
C976 C978 1.415 . S
C977 C976 1.355 . S
C977 C979 1.419 . S
C978 C976 1.415 . S
C978 C983 1.425 . S
C978 C985 1.409 . S
C979 H971 0.930 . S
C979 C977 1.419 . S
C979 C980 1.362 . S
C980 H972 0.930 . S
C980 C979 1.362 . S
C980 C983 1.409 . S
C981 H973 0.930 . S
C981 C982 1.355 . S
C981 C983 1.415 . S
C982 C981 1.355 . S
C982 C984 1.419 . S
C983 C978 1.425 . S
C983 C980 1.409 . S
C983 C981 1.415 . S
C984 H974 0.930 . S
C984 C982 1.419 . S
C984 C985 1.362 . S
C985 H975 0.930 . S
C985 C978 1.409 . S
C985 C984 1.362 . S
H986 C992 0.930 . S
H987 C995 0.930 . S
H988 C996 0.930 . S
H989 C997 0.930 . S
H990 C1000 0.930 . S
H991 C1001 0.930 . S
C992 H986 0.930 . S
C992 C993 1.355 . S
C992 C994 1.415 . S
C993 C992 1.355 . S
C993 C995 1.419 . S
C994 C992 1.415 . S
C994 C999 1.425 . S
C994 C1001 1.409 . S
C995 H987 0.930 . S
C995 C993 1.419 . S
C995 C996 1.362 . S
C996 H988 0.930 . S
C996 C995 1.362 . S
C996 C999 1.409 . S
C997 H989 0.930 . S
C997 C998 1.355 . S
C997 C999 1.415 . S
C998 C997 1.355 . S
C998 C1000 1.419 . S
C999 C994 1.425 . S
C999 C996 1.409 . S
C999 C997 1.415 . S
C1000 H990 0.930 . S
C1000 C998 1.419 . S
C1000 C1001 1.362 . S
C1001 H991 0.930 . S
C1001 C994 1.409 . S
C1001 C1000 1.362 . S
H1002 C1008 0.930 . S
H1003 C1011 0.930 . S
H1004 C1012 0.930 . S
H1005 C1013 0.930 . S
H1006 C1016 0.930 . S
H1007 C1017 0.930 . S
C1008 H1002 0.930 . S
C1008 C1009 1.355 . S
C1008 C1010 1.415 . S
C1009 C1008 1.355 . S
C1009 C1011 1.419 . S
C1010 C1008 1.415 . S
C1010 C1015 1.425 . S
C1010 C1017 1.409 . S
C1011 H1003 0.930 . S
C1011 C1009 1.419 . S
C1011 C1012 1.362 . S
C1012 H1004 0.930 . S
C1012 C1011 1.362 . S
C1012 C1015 1.409 . S
C1013 H1005 0.930 . S
C1013 C1014 1.355 . S
C1013 C1015 1.415 . S
C1014 C1013 1.355 . S
C1014 C1016 1.419 . S
C1015 C1010 1.425 . S
C1015 C1012 1.409 . S
C1015 C1013 1.415 . S
C1016 H1006 0.930 . S
C1016 C1014 1.419 . S
C1016 C1017 1.362 . S
C1017 H1007 0.930 . S
C1017 C1010 1.409 . S
C1017 C1016 1.362 . S
H1018 C1024 0.930 . S
H1019 C1027 0.930 . S
H1020 C1028 0.930 . S
H1021 C1029 0.930 . S
H1022 C1032 0.930 . S
H1023 C1033 0.930 . S
C1024 H1018 0.930 . S
C1024 C1025 1.355 . S
C1024 C1026 1.415 . S
C1025 C1024 1.355 . S
C1025 C1027 1.419 . S
C1026 C1024 1.415 . S
C1026 C1031 1.425 . S
C1026 C1033 1.409 . S
C1027 H1019 0.930 . S
C1027 C1025 1.419 . S
C1027 C1028 1.362 . S
C1028 H1020 0.930 . S
C1028 C1027 1.362 . S
C1028 C1031 1.409 . S
C1029 H1021 0.930 . S
C1029 C1030 1.355 . S
C1029 C1031 1.415 . S
C1030 C1029 1.355 . S
C1030 C1032 1.419 . S
C1031 C1026 1.425 . S
C1031 C1028 1.409 . S
C1031 C1029 1.415 . S
C1032 H1022 0.930 . S
C1032 C1030 1.419 . S
C1032 C1033 1.362 . S
C1033 H1023 0.930 . S
C1033 C1026 1.409 . S
C1033 C1032 1.362 . S
H1034 C1040 0.930 . S
H1035 C1043 0.930 . S
H1036 C1044 0.930 . S
H1037 C1045 0.930 . S
H1038 C1048 0.930 . S
H1039 C1049 0.930 . S
C1040 H1034 0.930 . S
C1040 C1041 1.355 . S
C1040 C1042 1.415 . S
C1041 C1040 1.355 . S
C1041 C1043 1.419 . S
C1042 C1040 1.415 . S
C1042 C1047 1.425 . S
C1042 C1049 1.409 . S
C1043 H1035 0.930 . S
C1043 C1041 1.419 . S
C1043 C1044 1.362 . S
C1044 H1036 0.930 . S
C1044 C1043 1.362 . S
C1044 C1047 1.409 . S
C1045 H1037 0.930 . S
C1045 C1046 1.355 . S
C1045 C1047 1.415 . S
C1046 C1045 1.355 . S
C1046 C1048 1.419 . S
C1047 C1042 1.425 . S
C1047 C1044 1.409 . S
C1047 C1045 1.415 . S
C1048 H1038 0.930 . S
C1048 C1046 1.419 . S
C1048 C1049 1.362 . S
C1049 H1039 0.930 . S
C1049 C1042 1.409 . S
C1049 C1048 1.362 . S
H1050 C1056 0.930 . S
H1051 C1059 0.930 . S
H1052 C1060 0.930 . S
H1053 C1061 0.930 . S
H1054 C1064 0.930 . S
H1055 C1065 0.930 . S
C1056 H1050 0.930 . S
C1056 C1057 1.355 . S
C1056 C1058 1.415 . S
C1057 C1056 1.355 . S
C1057 C1059 1.419 . S
C1058 C1056 1.415 . S
C1058 C1063 1.425 . S
C1058 C1065 1.409 . S
C1059 H1051 0.930 . S
C1059 C1057 1.419 . S
C1059 C1060 1.362 . S
C1060 H1052 0.930 . S
C1060 C1059 1.362 . S
C1060 C1063 1.409 . S
C1061 H1053 0.930 . S
C1061 C1062 1.355 . S
C1061 C1063 1.415 . S
C1062 C1061 1.355 . S
C1062 C1064 1.419 . S
C1063 C1058 1.425 . S
C1063 C1060 1.409 . S
C1063 C1061 1.415 . S
C1064 H1054 0.930 . S
C1064 C1062 1.419 . S
C1064 C1065 1.362 . S
C1065 H1055 0.930 . S
C1065 C1058 1.409 . S
C1065 C1064 1.362 . S
H1066 C1072 0.930 . S
H1067 C1075 0.930 . S
H1068 C1076 0.930 . S
H1069 C1077 0.930 . S
H1070 C1080 0.930 . S
H1071 C1081 0.930 . S
C1072 H1066 0.930 . S
C1072 C1073 1.355 . S
C1072 C1074 1.415 . S
C1073 C1072 1.355 . S
C1073 C1075 1.419 . S
C1074 C1072 1.415 . S
C1074 C1079 1.425 . S
C1074 C1081 1.409 . S
C1075 H1067 0.930 . S
C1075 C1073 1.419 . S
C1075 C1076 1.362 . S
C1076 H1068 0.930 . S
C1076 C1075 1.362 . S
C1076 C1079 1.409 . S
C1077 H1069 0.930 . S
C1077 C1078 1.355 . S
C1077 C1079 1.415 . S
C1078 C1077 1.355 . S
C1078 C1080 1.419 . S
C1079 C1074 1.425 . S
C1079 C1076 1.409 . S
C1079 C1077 1.415 . S
C1080 H1070 0.930 . S
C1080 C1078 1.419 . S
C1080 C1081 1.362 . S
C1081 H1071 0.930 . S
C1081 C1074 1.409 . S
C1081 C1080 1.362 . S
H1082 C1088 0.930 . S
H1083 C1091 0.930 . S
H1084 C1092 0.930 . S
H1085 C1093 0.930 . S
H1086 C1096 0.930 . S
H1087 C1097 0.930 . S
C1088 H1082 0.930 . S
C1088 C1089 1.355 . S
C1088 C1090 1.415 . S
C1089 C1088 1.355 . S
C1089 C1091 1.419 . S
C1090 C1088 1.415 . S
C1090 C1095 1.425 . S
C1090 C1097 1.409 . S
C1091 H1083 0.930 . S
C1091 C1089 1.419 . S
C1091 C1092 1.362 . S
C1092 H1084 0.930 . S
C1092 C1091 1.362 . S
C1092 C1095 1.409 . S
C1093 H1085 0.930 . S
C1093 C1094 1.355 . S
C1093 C1095 1.415 . S
C1094 C1093 1.355 . S
C1094 C1096 1.419 . S
C1095 C1090 1.425 . S
C1095 C1092 1.409 . S
C1095 C1093 1.415 . S
C1096 H1086 0.930 . S
C1096 C1094 1.419 . S
C1096 C1097 1.362 . S
C1097 H1087 0.930 . S
C1097 C1090 1.409 . S
C1097 C1096 1.362 . S
H1098 C1104 0.930 . S
H1099 C1107 0.930 . S
H1100 C1108 0.930 . S
H1101 C1109 0.930 . S
H1102 C1112 0.930 . S
H1103 C1113 0.930 . S
C1104 H1098 0.930 . S
C1104 C1105 1.355 . S
C1104 C1106 1.415 . S
C1105 C1104 1.355 . S
C1105 C1107 1.419 . S
C1106 C1104 1.415 . S
C1106 C1111 1.425 . S
C1106 C1113 1.409 . S
C1107 H1099 0.930 . S
C1107 C1105 1.419 . S
C1107 C1108 1.362 . S
C1108 H1100 0.930 . S
C1108 C1107 1.362 . S
C1108 C1111 1.409 . S
C1109 H1101 0.930 . S
C1109 C1110 1.355 . S
C1109 C1111 1.415 . S
C1110 C1109 1.355 . S
C1110 C1112 1.419 . S
C1111 C1106 1.425 . S
C1111 C1108 1.409 . S
C1111 C1109 1.415 . S
C1112 H1102 0.930 . S
C1112 C1110 1.419 . S
C1112 C1113 1.362 . S
C1113 H1103 0.930 . S
C1113 C1106 1.409 . S
C1113 C1112 1.362 . S
H1114 C1120 0.930 . S
H1115 C1123 0.930 . S
H1116 C1124 0.930 . S
H1117 C1125 0.930 . S
H1118 C1128 0.930 . S
H1119 C1129 0.930 . S
C1120 H1114 0.930 . S
C1120 C1121 1.355 . S
C1120 C1122 1.415 . S
C1121 C1120 1.355 . S
C1121 C1123 1.419 . S
C1122 C1120 1.415 . S
C1122 C1127 1.425 . S
C1122 C1129 1.409 . S
C1123 H1115 0.930 . S
C1123 C1121 1.419 . S
C1123 C1124 1.362 . S
C1124 H1116 0.930 . S
C1124 C1123 1.362 . S
C1124 C1127 1.409 . S
C1125 H1117 0.930 . S
C1125 C1126 1.355 . S
C1125 C1127 1.415 . S
C1126 C1125 1.355 . S
C1126 C1128 1.419 . S
C1127 C1122 1.425 . S
C1127 C1124 1.409 . S
C1127 C1125 1.415 . S
C1128 H1118 0.930 . S
C1128 C1126 1.419 . S
C1128 C1129 1.362 . S
C1129 H1119 0.930 . S
C1129 C1122 1.409 . S
C1129 C1128 1.362 . S
H1130 C1136 0.930 . S
H1131 C1139 0.930 . S
H1132 C1140 0.930 . S
H1133 C1141 0.930 . S
H1134 C1144 0.930 . S
H1135 C1145 0.930 . S
C1136 H1130 0.930 . S
C1136 C1137 1.355 . S
C1136 C1138 1.415 . S
C1137 C1136 1.355 . S
C1137 C1139 1.419 . S
C1138 C1136 1.415 . S
C1138 C1143 1.425 . S
C1138 C1145 1.409 . S
C1139 H1131 0.930 . S
C1139 C1137 1.419 . S
C1139 C1140 1.362 . S
C1140 H1132 0.930 . S
C1140 C1139 1.362 . S
C1140 C1143 1.409 . S
C1141 H1133 0.930 . S
C1141 C1142 1.355 . S
C1141 C1143 1.415 . S
C1142 C1141 1.355 . S
C1142 C1144 1.419 . S
C1143 C1138 1.425 . S
C1143 C1140 1.409 . S
C1143 C1141 1.415 . S
C1144 H1134 0.930 . S
C1144 C1142 1.419 . S
C1144 C1145 1.362 . S
C1145 H1135 0.930 . S
C1145 C1138 1.409 . S
C1145 C1144 1.362 . S
H1146 C1152 0.930 . S
H1147 C1155 0.930 . S
H1148 C1156 0.930 . S
H1149 C1157 0.930 . S
H1150 C1160 0.930 . S
H1151 C1161 0.930 . S
C1152 H1146 0.930 . S
C1152 C1153 1.355 . S
C1152 C1154 1.415 . S
C1153 C1152 1.355 . S
C1153 C1155 1.419 . S
C1154 C1152 1.415 . S
C1154 C1159 1.425 . S
C1154 C1161 1.409 . S
C1155 H1147 0.930 . S
C1155 C1153 1.419 . S
C1155 C1156 1.362 . S
C1156 H1148 0.930 . S
C1156 C1155 1.362 . S
C1156 C1159 1.409 . S
C1157 H1149 0.930 . S
C1157 C1158 1.355 . S
C1157 C1159 1.415 . S
C1158 C1157 1.355 . S
C1158 C1160 1.419 . S
C1159 C1154 1.425 . S
C1159 C1156 1.409 . S
C1159 C1157 1.415 . S
C1160 H1150 0.930 . S
C1160 C1158 1.419 . S
C1160 C1161 1.362 . S
C1161 H1151 0.930 . S
C1161 C1154 1.409 . S
C1161 C1160 1.362 . S
H1162 C1168 0.930 . S
H1163 C1171 0.930 . S
H1164 C1172 0.930 . S
H1165 C1173 0.930 . S
H1166 C1176 0.930 . S
H1167 C1177 0.930 . S
C1168 H1162 0.930 . S
C1168 C1169 1.355 . S
C1168 C1170 1.415 . S
C1169 C1168 1.355 . S
C1169 C1171 1.419 . S
C1170 C1168 1.415 . S
C1170 C1175 1.425 . S
C1170 C1177 1.409 . S
C1171 H1163 0.930 . S
C1171 C1169 1.419 . S
C1171 C1172 1.362 . S
C1172 H1164 0.930 . S
C1172 C1171 1.362 . S
C1172 C1175 1.409 . S
C1173 H1165 0.930 . S
C1173 C1174 1.355 . S
C1173 C1175 1.415 . S
C1174 C1173 1.355 . S
C1174 C1176 1.419 . S
C1175 C1170 1.425 . S
C1175 C1172 1.409 . S
C1175 C1173 1.415 . S
C1176 H1166 0.930 . S
C1176 C1174 1.419 . S
C1176 C1177 1.362 . S
C1177 H1167 0.930 . S
C1177 C1170 1.409 . S
C1177 C1176 1.362 . S
H1178 C1184 0.930 . S
H1179 C1187 0.930 . S
H1180 C1188 0.930 . S
H1181 C1189 0.930 . S
H1182 C1192 0.930 . S
H1183 C1193 0.930 . S
C1184 H1178 0.930 . S
C1184 C1185 1.355 . S
C1184 C1186 1.415 . S
C1185 C1184 1.355 . S
C1185 C1187 1.419 . S
C1186 C1184 1.415 . S
C1186 C1191 1.425 . S
C1186 C1193 1.409 . S
C1187 H1179 0.930 . S
C1187 C1185 1.419 . S
C1187 C1188 1.362 . S
C1188 H1180 0.930 . S
C1188 C1187 1.362 . S
C1188 C1191 1.409 . S
C1189 H1181 0.930 . S
C1189 C1190 1.355 . S
C1189 C1191 1.415 . S
C1190 C1189 1.355 . S
C1190 C1192 1.419 . S
C1191 C1186 1.425 . S
C1191 C1188 1.409 . S
C1191 C1189 1.415 . S
C1192 H1182 0.930 . S
C1192 C1190 1.419 . S
C1192 C1193 1.362 . S
C1193 H1183 0.930 . S
C1193 C1186 1.409 . S
C1193 C1192 1.362 . S
C438 C251 1.009 . S
C433 N6 1.000 . S
C454 C241 2.022 . S
C449 C57 2.034 . S
C470 C242 1.038 . S
C465 C61 1.116 . S
C481 N96 0.609 . S
C486 C264 0.692 . S
C497 C136 2.030 . S
C502 C267 2.029 . S
C518 C250 1.116 . S
C513 C160 1.086 . S
C529 N194 0.830 . S
C534 C240 0.715 . S
C545 N224 0.966 . S
C550 C258 1.001 . S
C566 C271 1.901 . S
C561 C10 1.941 . S
C577 N36 0.898 . S
C582 C320 0.881 . S
C598 C298 0.834 . S
C593 N74 0.844 . S
C614 C312 1.087 . S
C609 C100 1.110 . S
C625 C121 1.090 . S
C630 C273 1.102 . S
C646 C326 1.851 . S
C641 C177 1.894 . S
C657 C196 2.299 . S
C662 C282 2.231 . S
C673 C226 2.015 . S
C678 C303 1.976 . S
C689 C27 2.014 . S
C694 C329 1.996 . S
C705 N134 0.966 . S
C710 C313 0.984 . S
C726 C272 0.805 . S
C721 N156 0.862 . S
C742 C304 1.009 . S
C737 C181 1.091 . S
C753 C211 1.967 . S
C758 C295 1.910 . S
C769 C76 1.911 . S
C774 C302 1.892 . S
C790 C289 2.218 . S
C785 C117 2.290 . S
C801 C40 1.073 . S
C806 C281 1.031 . S
C817 N216 0.894 . S
C822 C344 1.018 . S
C833 C147 2.040 . S
C838 C334 2.008 . S
C854 C335 1.041 . S
C849 C151 1.098 . S
C870 C357 0.732 . S
C865 N186 0.831 . S
C881 C46 2.019 . S
C886 C360 2.024 . S
C902 C343 1.036 . S
C897 C70 1.102 . S
C913 N104 0.796 . S
C918 C333 0.689 . S
C929 N14 0.894 . S
C934 C351 1.032 . S
C945 C220 1.941 . S
C950 C364 1.908 . S
C966 C413 0.852 . S
C961 N126 0.846 . S
C977 N164 0.681 . S
C982 C391 0.798 . S
C993 C190 1.085 . S
C998 C405 1.036 . S
C1014 C366 1.059 . S
C1009 C31 1.070 . S
C1025 C87 1.933 . S
C1030 C419 1.894 . S
C1046 C375 2.177 . S
C1041 C106 2.273 . S
C1062 C396 2.024 . S
C1057 C16 2.044 . S
C1078 C422 2.021 . S
C1073 C237 2.034 . S
C1089 N44 0.869 . S
C1094 C406 0.913 . S
C1105 N66 0.690 . S
C1110 C365 0.704 . S
C1126 C397 1.017 . S
C1121 C91 1.094 . S
C1137 C1 1.941 . S
C1142 C388 1.920 . S
C1153 C166 1.895 . S
C1158 C395 1.846 . S
C1174 C382 2.213 . S
C1169 C207 2.294 . S
C1190 C374 1.054 . S
C1185 C130 1.070 . S
