# Generated by pormake.
# Topology gar, (4,6)-cn, num edge types: 1
# Building blocks:
#     Node 0, Type 0, BuildingBlock: AZAVOO_clean_sbu_0, # of connection points: 4
#     Node 1, Type 0, BuildingBlock: AZAVOO_clean_sbu_0, # of connection points: 4
#     Node 2, Type 0, BuildingBlock: AZAVOO_clean_sbu_0, # of connection points: 4
#     Node 3, Type 0, BuildingBlock: AZAVOO_clean_sbu_0, # of connection points: 4
#     Node 4, Type 0, BuildingBlock: AZAVOO_clean_sbu_0, # of connection points: 4
#     Node 5, Type 0, BuildingBlock: AZAVOO_clean_sbu_0, # of connection points: 4
#     Node 6, Type 0, BuildingBlock: AZAVOO_clean_sbu_0, # of connection points: 4
#     Node 7, Type 0, BuildingBlock: AZAVOO_clean_sbu_0, # of connection points: 4
#     Node 8, Type 0, BuildingBlock: AZAVOO_clean_sbu_0, # of connection points: 4
#     Node 9, Type 0, BuildingBlock: AZAVOO_clean_sbu_0, # of connection points: 4
#     Node 10, Type 0, BuildingBlock: AZAVOO_clean_sbu_0, # of connection points: 4
#     Node 11, Type 0, BuildingBlock: AZAVOO_clean_sbu_0, # of connection points: 4
#     Node 12, Type 0, BuildingBlock: AZAVOO_clean_sbu_0, # of connection points: 4
#     Node 13, Type 0, BuildingBlock: AZAVOO_clean_sbu_0, # of connection points: 4
#     Node 14, Type 0, BuildingBlock: AZAVOO_clean_sbu_0, # of connection points: 4
#     Node 15, Type 0, BuildingBlock: AZAVOO_clean_sbu_0, # of connection points: 4
#     Node 16, Type 0, BuildingBlock: AZAVOO_clean_sbu_0, # of connection points: 4
#     Node 17, Type 0, BuildingBlock: AZAVOO_clean_sbu_0, # of connection points: 4
#     Node 18, Type 0, BuildingBlock: AZAVOO_clean_sbu_0, # of connection points: 4
#     Node 19, Type 0, BuildingBlock: AZAVOO_clean_sbu_0, # of connection points: 4
#     Node 20, Type 0, BuildingBlock: AZAVOO_clean_sbu_0, # of connection points: 4
#     Node 21, Type 0, BuildingBlock: AZAVOO_clean_sbu_0, # of connection points: 4
#     Node 22, Type 0, BuildingBlock: AZAVOO_clean_sbu_0, # of connection points: 4
#     Node 23, Type 0, BuildingBlock: AZAVOO_clean_sbu_0, # of connection points: 4
#     Node 24, Type 1, BuildingBlock: PAMTUU_clean_sbu_0, # of connection points: 6
#     Node 25, Type 1, BuildingBlock: PAMTUU_clean_sbu_0, # of connection points: 6
#     Node 26, Type 1, BuildingBlock: PAMTUU_clean_sbu_0, # of connection points: 6
#     Node 27, Type 1, BuildingBlock: PAMTUU_clean_sbu_0, # of connection points: 6
#     Node 28, Type 1, BuildingBlock: PAMTUU_clean_sbu_0, # of connection points: 6
#     Node 29, Type 1, BuildingBlock: PAMTUU_clean_sbu_0, # of connection points: 6
#     Node 30, Type 1, BuildingBlock: PAMTUU_clean_sbu_0, # of connection points: 6
#     Node 31, Type 1, BuildingBlock: PAMTUU_clean_sbu_0, # of connection points: 6
#     Node 32, Type 1, BuildingBlock: PAMTUU_clean_sbu_0, # of connection points: 6
#     Node 33, Type 1, BuildingBlock: PAMTUU_clean_sbu_0, # of connection points: 6
#     Node 34, Type 1, BuildingBlock: PAMTUU_clean_sbu_0, # of connection points: 6
#     Node 35, Type 1, BuildingBlock: PAMTUU_clean_sbu_0, # of connection points: 6
#     Node 36, Type 1, BuildingBlock: PAMTUU_clean_sbu_0, # of connection points: 6
#     Node 37, Type 1, BuildingBlock: PAMTUU_clean_sbu_0, # of connection points: 6
#     Node 38, Type 1, BuildingBlock: PAMTUU_clean_sbu_0, # of connection points: 6
#     Node 39, Type 1, BuildingBlock: PAMTUU_clean_sbu_0, # of connection points: 6
#     Edge 40, Type (0, 1), None
#     Edge 41, Type (0, 1), None
#     Edge 42, Type (0, 1), None
#     Edge 43, Type (0, 1), None
#     Edge 44, Type (0, 1), None
#     Edge 45, Type (0, 1), None
#     Edge 46, Type (0, 1), None
#     Edge 47, Type (0, 1), None
#     Edge 48, Type (0, 1), None
#     Edge 49, Type (0, 1), None
#     Edge 50, Type (0, 1), None
#     Edge 51, Type (0, 1), None
#     Edge 52, Type (0, 1), None
#     Edge 53, Type (0, 1), None
#     Edge 54, Type (0, 1), None
#     Edge 55, Type (0, 1), None
#     Edge 56, Type (0, 1), None
#     Edge 57, Type (0, 1), None
#     Edge 58, Type (0, 1), None
#     Edge 59, Type (0, 1), None
#     Edge 60, Type (0, 1), None
#     Edge 61, Type (0, 1), None
#     Edge 62, Type (0, 1), None
#     Edge 63, Type (0, 1), None
#     Edge 64, Type (0, 1), None
#     Edge 65, Type (0, 1), None
#     Edge 66, Type (0, 1), None
#     Edge 67, Type (0, 1), None
#     Edge 68, Type (0, 1), None
#     Edge 69, Type (0, 1), None
#     Edge 70, Type (0, 1), None
#     Edge 71, Type (0, 1), None
#     Edge 72, Type (0, 1), None
#     Edge 73, Type (0, 1), None
#     Edge 74, Type (0, 1), None
#     Edge 75, Type (0, 1), None
#     Edge 76, Type (0, 1), None
#     Edge 77, Type (0, 1), None
#     Edge 78, Type (0, 1), None
#     Edge 79, Type (0, 1), None
#     Edge 80, Type (0, 1), None
#     Edge 81, Type (0, 1), None
#     Edge 82, Type (0, 1), None
#     Edge 83, Type (0, 1), None
#     Edge 84, Type (0, 1), None
#     Edge 85, Type (0, 1), None
#     Edge 86, Type (0, 1), None
#     Edge 87, Type (0, 1), None
#     Edge 88, Type (0, 1), None
#     Edge 89, Type (0, 1), None
#     Edge 90, Type (0, 1), None
#     Edge 91, Type (0, 1), None
#     Edge 92, Type (0, 1), None
#     Edge 93, Type (0, 1), None
#     Edge 94, Type (0, 1), None
#     Edge 95, Type (0, 1), None
#     Edge 96, Type (0, 1), None
#     Edge 97, Type (0, 1), None
#     Edge 98, Type (0, 1), None
#     Edge 99, Type (0, 1), None
#     Edge 100, Type (0, 1), None
#     Edge 101, Type (0, 1), None
#     Edge 102, Type (0, 1), None
#     Edge 103, Type (0, 1), None
#     Edge 104, Type (0, 1), None
#     Edge 105, Type (0, 1), None
#     Edge 106, Type (0, 1), None
#     Edge 107, Type (0, 1), None
#     Edge 108, Type (0, 1), None
#     Edge 109, Type (0, 1), None
#     Edge 110, Type (0, 1), None
#     Edge 111, Type (0, 1), None
#     Edge 112, Type (0, 1), None
#     Edge 113, Type (0, 1), None
#     Edge 114, Type (0, 1), None
#     Edge 115, Type (0, 1), None
#     Edge 116, Type (0, 1), None
#     Edge 117, Type (0, 1), None
#     Edge 118, Type (0, 1), None
#     Edge 119, Type (0, 1), None
#     Edge 120, Type (0, 1), None
#     Edge 121, Type (0, 1), None
#     Edge 122, Type (0, 1), None
#     Edge 123, Type (0, 1), None
#     Edge 124, Type (0, 1), None
#     Edge 125, Type (0, 1), None
#     Edge 126, Type (0, 1), None
#     Edge 127, Type (0, 1), None
#     Edge 128, Type (0, 1), None
#     Edge 129, Type (0, 1), None
#     Edge 130, Type (0, 1), None
#     Edge 131, Type (0, 1), None
#     Edge 132, Type (0, 1), None
#     Edge 133, Type (0, 1), None
#     Edge 134, Type (0, 1), None
#     Edge 135, Type (0, 1), None
# Relax obj value: 0.457
# Max RMSD: 0.498
# Mean RMSD: 0.251
data_MOF--net-gar--node1-AZAVOO_clean_sbu_0--node2-PAMTUU_clean_sbu_0--edge1-none
_symmetry_space_group_name_H-M    P1
_symmetry_Int_Tables_number       1
_symmetry_cell_setting            triclinic
loop_
_symmetry_equiv_pos_as_xyz
'x, y, z'
_cell_length_a     29.080796
_cell_length_b     25.675378
_cell_length_c     29.007434
_cell_angle_alpha  96.206514
_cell_angle_beta   95.443629
_cell_angle_gamma 113.15654
loop_
_atom_site_label
_atom_site_type_symbol
_atom_site_fract_x
_atom_site_fract_y
_atom_site_fract_z
_atom_type_partial_charge
Mg0 Mg 0.15588 0.3828 0.44525 0.0
O1 O 0.18029 0.47711 0.50131 0.0
O2 O 0.1197 0.4433 0.54349 0.0
Mg3 Mg 0.10337 0.35417 0.50296 0.0
C4 C 0.15568 0.48677 0.53406 0.0
C5 C 0.26546 0.38507 0.37993 0.0
O6 O 0.22857 0.35049 0.34702 0.0
O7 O 0.162 0.30563 0.49957 0.0
O8 O 0.1341 0.32552 0.56375 0.0
O9 O 0.10567 0.41584 0.39085 0.0
O10 O 1.06376 0.36929 0.4409 0.0
C11 C 0.15114 0.29373 0.5413 0.0
C12 C 1.06218 0.39304 0.40461 0.0
O13 O 0.25083 0.40355 0.41838 0.0
Mg14 Mg 0.16318 0.91734 0.75321 0.0
O15 O 0.1484 0.81372 0.72594 0.0
O16 O 0.16891 0.84851 0.66208 0.0
Mg17 Mg 0.12616 0.88852 0.70648 0.0
C18 C 0.16063 0.80648 0.68452 0.0
C19 C 0.27917 0.90878 0.80737 0.0
O20 O 0.24562 0.86754 0.8248 0.0
O21 O 0.17849 1.01465 0.72912 0.0
O22 O 0.13519 0.96263 0.66317 0.0
O23 O 0.10965 0.91334 0.81718 0.0
O24 O 1.06973 0.90307 0.74986 0.0
C25 C 0.16055 1.01286 0.68593 0.0
C26 C 1.06712 0.90564 0.79403 0.0
O27 O 0.26066 0.93621 0.7803 0.0
Mg28 Mg 0.66055 0.88118 0.94212 0.0
O29 O 0.68323 0.97461 0.99762 0.0
O30 O 0.62228 0.94023 0.03946 0.0
Mg31 Mg 0.60638 0.85195 0.998 0.0
C32 C 0.65782 0.98384 0.02974 0.0
C33 C 0.76893 0.88232 0.87705 0.0
O34 O 0.73184 0.84743 0.84444 0.0
O35 O 0.66505 0.8031 0.9964 0.0
O36 O 0.63392 0.82095 0.05908 0.0
O37 O 0.61629 0.92003 0.88884 0.0
O38 O 0.56999 0.87025 0.93552 0.0
C39 C 0.65223 0.78999 0.03739 0.0
C40 C 0.57195 0.89785 0.90107 0.0
O41 O 0.75481 0.90136 0.9155 0.0
Mg42 Mg 0.65483 0.40846 0.25064 0.0
O43 O 0.64058 0.30318 0.22289 0.0
O44 O 0.65955 0.3378 0.15902 0.0
Mg45 Mg 0.61798 0.37998 0.20363 0.0
C46 C 0.65268 0.29582 0.1813 0.0
C47 C 0.76555 0.39719 0.30946 0.0
O48 O 0.73009 0.3558 0.32498 0.0
O49 O 0.67283 0.50659 0.22522 0.0
O50 O 0.62893 0.45508 0.15952 0.0
O51 O 0.60383 0.40968 0.31566 0.0
O52 O 0.56252 0.39688 0.24835 0.0
C53 C 0.65538 0.50533 0.18194 0.0
C54 C 0.56119 0.40237 0.29292 0.0
O55 O 0.74981 0.42599 0.28171 0.0
Mg56 Mg 0.27889 0.98523 0.1826 0.0
O57 O 0.2351 0.87719 0.16179 0.0
O58 O 0.15502 0.82147 0.13081 0.0
Mg59 Mg 0.14544 0.90033 0.13685 0.0
C60 C 0.19885 0.82668 0.14681 0.0
C61 C 0.35205 0.98915 0.26979 0.0
O62 O 0.34661 0.0369 0.28175 0.0
O63 O 0.22999 1.03185 0.14819 0.0
O64 O 0.14577 0.9865 0.14107 0.0
O65 O 0.24915 0.99562 0.25327 0.0
O66 O 0.20718 0.92767 0.19732 0.0
C67 C 0.18535 1.03101 0.14025 0.0
C68 C 0.20956 0.95127 0.23805 0.0
O69 O 0.33152 0.95878 0.2295 0.0
Mg70 Mg 0.57315 0.85971 0.52122 0.0
O71 O 0.62479 0.95798 0.53863 0.0
O72 O 0.57937 0.9442 0.5947 0.0
Mg73 Mg 0.54869 0.85326 0.5514 0.0
C74 C 0.61284 0.97908 0.57491 0.0
C75 C 0.62091 0.87315 0.40916 0.0
O76 O 0.59403 0.85834 0.36711 0.0
O77 O 0.63523 0.82701 0.54144 0.0
O78 O 0.59264 0.81756 0.59971 0.0
O79 O 0.54115 0.85625 0.44616 0.0
O80 O 0.50418 0.88228 0.49895 0.0
C81 C 0.62717 0.80917 0.58048 0.0
C82 C 0.50679 0.87237 0.45569 0.0
O83 O 0.59726 0.8646 0.44478 0.0
Mg84 Mg 0.77817 0.48365 0.67863 0.0
O85 O 0.73501 0.37582 0.66095 0.0
O86 O 0.65384 0.31939 0.6349 0.0
Mg87 Mg 0.64333 0.39774 0.63929 0.0
C88 C 0.69842 0.32511 0.64844 0.0
C89 C 0.85371 0.48864 0.76485 0.0
O90 O 0.8497 0.53728 0.77663 0.0
O91 O 0.72699 0.52836 0.64505 0.0
O92 O 0.64299 0.48347 0.64147 0.0
O93 O 0.75269 0.49848 0.75069 0.0
O94 O 0.70781 0.42841 0.69733 0.0
C95 C 0.68221 0.52748 0.63874 0.0
C96 C 0.71247 0.45426 0.73773 0.0
O97 O 0.83217 0.45797 0.72485 0.0
Mg98 Mg 1.06961 0.36062 1.01846 0.0
O99 O 0.12059 0.45935 0.03737 0.0
O100 O 1.07881 0.44443 0.09576 0.0
Mg101 Mg 1.04993 0.35507 0.04992 0.0
C102 C 0.11064 0.47988 0.07507 0.0
C103 C 0.11765 0.39298 0.9094 0.0
O104 O 1.08748 0.39571 0.87389 0.0
O105 O 0.13111 0.32673 0.02857 0.0
O106 O 0.09987 0.32136 0.09363 0.0
O107 O 1.03109 0.34897 0.94493 0.0
O108 O 1.00069 0.38242 1.00029 0.0
C109 C 0.12987 0.31105 0.06857 0.0
C110 C 0.99846 0.36729 0.95659 0.0
O111 O 0.10061 0.38155 0.94785 0.0
Mg112 Mg 0.56145 0.22293 0.44913 0.0
O113 O 0.52616 0.12069 0.4307 0.0
O114 O 0.50394 0.07665 0.49277 0.0
Mg115 Mg 0.50059 0.14776 0.54651 0.0
C116 C 0.51192 0.07507 0.45013 0.0
C117 C 0.61673 0.22014 0.36868 0.0
O118 O 0.65395 0.23861 0.40394 0.0
O119 O 0.48365 0.1501 0.4309 0.0
O120 O 0.44586 0.16064 0.49144 0.0
O121 O 0.61921 0.19644 0.47832 0.0
O122 O 0.56562 0.2112 0.52112 0.0
C123 C 0.44485 0.15034 0.44735 0.0
C124 C 0.6023 0.19632 0.51726 0.0
O125 O 0.57477 0.222 0.37495 0.0
Mg126 Mg 0.40251 0.32822 0.59028 0.0
O127 O 0.39707 0.32518 0.67127 0.0
O128 O 0.45848 0.40965 0.68646 0.0
Mg129 Mg 0.45888 0.40543 0.60433 0.0
C130 C 0.42707 0.36712 0.70176 0.0
C131 C 0.29831 0.22907 0.58201 0.0
O132 O 0.32148 0.19841 0.5649 0.0
O133 O 0.40265 0.32544 0.50604 0.0
O134 O 0.46611 0.40828 0.52352 0.0
O135 O 0.41501 0.25141 0.58914 0.0
O136 O 0.48385 0.33146 0.60657 0.0
C137 C 0.43551 0.36813 0.49171 0.0
C138 C 0.46166 0.27679 0.60527 0.0
O139 O 0.3173 0.28338 0.58396 0.0
Mg140 Mg 0.28113 0.15754 0.92987 0.0
O141 O 0.30625 0.20855 0.87099 0.0
O142 O 0.37225 0.24263 0.92573 0.0
Mg143 Mg 0.31726 0.18574 0.96247 0.0
C144 C 0.35295 0.23947 0.88409 0.0
C145 C 0.17365 0.08778 0.863 0.0
O146 O 0.13125 0.04233 0.84867 0.0
O147 O 0.32836 0.11246 0.90423 0.0
O148 O 0.37415 0.14716 0.97269 0.0
O149 O 0.23102 0.18809 0.962 0.0
O150 O 0.2567 0.12624 0.99409 0.0
C151 C 0.36873 0.12256 0.93108 0.0
C152 C 0.22773 0.15354 0.99211 0.0
O153 O 0.20879 0.08363 0.8899 0.0
Mg154 Mg 0.41762 0.05173 0.07073 0.0
O155 O 0.41613 1.00191 0.99963 0.0
O156 O 0.48229 0.97669 1.00463 0.0
Mg157 Mg 0.49378 0.96718 0.07915 0.0
C158 C 0.44615 0.98337 0.98128 0.0
C159 C 0.44229 0.15822 0.15021 0.0
O160 O 0.48353 0.1865 0.133 0.0
O161 O 0.36719 0.97016 0.09807 0.0
O162 O 0.40808 0.92864 0.06258 0.0
O163 O 0.48958 0.1219 0.05729 0.0
O164 O 0.4887 0.0512 0.09387 0.0
C165 C 0.38921 0.93612 0.09869 0.0
C166 C 0.51355 0.09482 0.07564 0.0
O167 O 0.42067 0.10384 0.14 0.0
Mg168 Mg 0.42392 0.44981 0.1023 0.0
O169 O 0.42195 0.42898 0.02028 0.0
O170 O 0.47217 0.38638 0.02731 0.0
Mg171 Mg 0.45784 0.3979 0.10642 0.0
C172 C 0.44618 0.40388 1.0005 0.0
C173 C 0.37193 0.51173 0.0488 0.0
O174 O 0.41077 0.51978 0.02653 0.0
O175 O 0.41533 0.46669 0.18352 0.0
O176 O 0.44491 0.40178 0.18607 0.0
O177 O 0.47277 0.54444 0.10511 0.0
O178 O 0.5145 0.49259 0.11753 0.0
C179 C 0.42595 0.43291 0.2072 0.0
C180 C 0.51487 0.54176 0.1136 0.0
O181 O 0.36403 0.48027 0.08088 0.0
Mg182 Mg 0.92902 0.25291 0.1557 0.0
O183 O 0.9107 0.28066 0.22286 0.0
O184 O 0.97204 0.35797 0.21031 0.0
Mg185 Mg 0.96141 0.28924 0.14961 0.0
C186 C 0.93839 0.33339 0.23485 0.0
C187 C 0.81017 0.1933 0.15658 0.0
O188 O 0.82392 0.18091 0.19691 0.0
O189 O 0.86833 0.27064 0.11156 0.0
O190 O 0.93699 0.33946 0.10034 0.0
O191 O 0.89842 0.1576 0.13549 0.0
O192 O 0.94148 0.2151 0.08956 0.0
C193 C 0.88927 0.31498 0.09299 0.0
C194 C 0.91482 0.1641 0.09615 0.0
O195 O 0.84338 0.22229 0.1328 0.0
Mg196 Mg 0.32691 0.64798 0.27077 0.0
O197 O 0.31681 0.73457 0.26298 0.0
O198 O 0.36054 0.73451 0.32605 0.0
Mg199 Mg 0.42177 0.75299 0.38208 0.0
C200 C 0.34584 0.76294 0.30049 0.0
C201 C 0.24078 0.58784 0.20002 0.0
O202 O 0.22302 0.55079 0.22857 0.0
O203 O 0.40687 0.69146 0.25048 0.0
O204 O 0.44764 0.76082 0.30858 0.0
O205 O 0.26447 0.6202 0.31297 0.0
O206 O 0.34417 0.67377 0.34618 0.0
C207 C 0.44164 0.71287 0.28611 0.0
C208 C 0.29644 0.64746 0.35046 0.0
O209 O 0.28792 0.61022 0.19867 0.0
Mg210 Mg 0.92557 0.95 0.60117 0.0
O211 O 0.92292 0.93086 0.51874 0.0
O212 O 0.97347 0.88856 0.52374 0.0
Mg213 Mg 0.95854 0.89748 0.60275 0.0
C214 C 0.94684 0.90622 0.49786 0.0
C215 C 0.87353 1.0127 0.54913 0.0
O216 O 0.91297 1.022 0.52752 0.0
O217 O 0.91838 0.96554 0.68242 0.0
O218 O 0.94348 0.89654 0.68173 0.0
O219 O 0.97364 0.04505 0.60635 0.0
O220 O 1.01586 0.99326 0.61674 0.0
C221 C 0.92703 0.92929 0.70436 0.0
C222 C 1.01589 0.04284 0.61508 0.0
O223 O 0.86549 0.98065 0.58081 0.0
Mg224 Mg 1.00659 0.08935 0.24001 0.0
O225 O 0.97608 1.00782 0.26904 0.0
O226 O 0.94336 0.04221 0.32231 0.0
Mg227 Mg 0.97965 0.13332 0.35791 0.0
C228 C 0.97178 1.01715 0.31177 0.0
C229 C 1.07924 0.15405 0.19547 0.0
O230 O 1.07189 0.09975 0.1895 0.0
O231 O 0.93164 0.1008 0.22954 0.0
O232 O 0.91694 0.07149 0.2965 0.0
O233 O 1.08091 0.09452 0.27581 0.0
O234 O 1.03868 0.13567 0.31176 0.0
C235 C 0.90292 0.08925 0.26091 0.0
C236 C 1.07405 0.11757 0.31432 0.0
O237 O 1.04689 0.16899 0.21237 0.0
Mg238 Mg 0.38098 0.70538 0.66943 0.0
O239 O 0.41396 0.78484 0.71584 0.0
O240 O 0.48851 0.84575 0.7041 0.0
Mg241 Mg 0.49703 0.79345 0.63629 0.0
C242 C 0.45087 0.83254 0.72633 0.0
C243 C 0.2766 0.67231 0.71517 0.0
O244 O 0.25693 0.65892 0.75341 0.0
O245 O 0.35798 0.75845 0.61941 0.0
O246 O 0.43425 0.81382 0.60141 0.0
O247 O 0.35795 0.62954 0.61981 0.0
O248 O 0.43089 0.70706 0.62542 0.0
C249 C 0.38643 0.79857 0.59881 0.0
C250 C 0.40163 0.65443 0.60684 0.0
O251 O 0.32218 0.68158 0.71495 0.0
Mg252 Mg 0.50057 0.58268 0.73293 0.0
O253 O 0.47155 0.49822 0.76179 0.0
O254 O 0.43291 0.53032 0.811 0.0
Mg255 Mg 0.47294 0.61733 0.8545 0.0
C256 C 0.45767 0.50045 0.80182 0.0
C257 C 0.58467 0.69475 0.71648 0.0
O258 O 0.6069 0.70925 0.76026 0.0
O259 O 0.42507 0.5943 0.72448 0.0
O260 O 0.41084 0.56269 0.79042 0.0
O261 O 0.57549 0.58803 0.76688 0.0
O262 O 0.53103 0.62423 0.80558 0.0
C263 C 0.39819 0.58499 0.75732 0.0
C264 C 0.56702 0.60712 0.80656 0.0
O265 O 0.53702 0.66713 0.70724 0.0
Mg266 Mg 0.82322 0.14391 0.77204 0.0
O267 O 0.81273 0.22979 0.762 0.0
O268 O 0.85388 0.2305 0.82692 0.0
Mg269 Mg 0.91328 0.24983 0.88492 0.0
C270 C 0.84034 0.25858 0.80007 0.0
C271 C 0.73986 0.08366 0.69902 0.0
O272 O 0.7201 0.04425 0.72522 0.0
O273 O 0.90386 0.18875 0.75394 0.0
O274 O 0.94228 0.25778 0.81269 0.0
O275 O 0.75848 0.11487 0.81076 0.0
O276 O 0.83612 0.17041 0.84791 0.0
C277 C 0.93772 0.21051 0.79018 0.0
C278 C 0.78751 0.14427 0.84928 0.0
O279 O 0.78729 0.10516 0.69915 0.0
Mg280 Mg 0.90241 0.83145 0.08856 0.0
O281 O 0.8977 0.83294 0.16996 0.0
O282 O 0.95648 0.91932 0.18293 0.0
Mg283 Mg 0.95809 0.90998 0.10111 0.0
C284 C 0.92607 0.87715 0.19932 0.0
C285 C 0.79895 0.72631 0.07856 0.0
O286 O 0.82335 0.69693 0.06174 0.0
O287 O 0.90353 0.82556 1.00419 0.0
O288 O 0.9661 0.90929 0.02053 0.0
O289 O 0.91617 0.75588 0.09039 0.0
O290 O 0.98422 0.83663 0.10733 0.0
C291 C 0.93632 0.86784 0.98928 0.0
C292 C 0.9626 0.78203 0.10688 0.0
O293 O 0.81732 0.78086 0.08176 0.0
Mg294 Mg 1.0546 0.72 0.95135 0.0
O295 O 1.02003 0.61713 0.92976 0.0
O296 O 0.99891 0.57122 0.99105 0.0
Mg297 Mg 0.99527 0.64067 0.04651 0.0
C298 C 1.00644 0.57072 0.94829 0.0
C299 C 0.10796 0.72271 0.86924 0.0
O300 O 0.1462 0.73973 0.90341 0.0
O301 O 0.97796 0.64602 0.93259 0.0
O302 O 0.93988 0.65527 0.99302 0.0
O303 O 0.11374 0.69393 0.97762 0.0
O304 O 1.06002 0.7058 0.022 0.0
C305 C 0.93907 0.64602 0.9489 0.0
C306 C 0.09739 0.69247 1.01693 0.0
O307 O 1.06654 0.72446 0.87764 0.0
Mg308 Mg 0.93956 0.56039 0.52417 0.0
O309 O 0.984 0.52083 0.48813 0.0
O310 O 1.00253 0.45049 0.4642 0.0
Mg311 Mg 1.06659 0.52457 0.50875 0.0
C312 C 0.96963 0.47065 0.46621 0.0
C313 C 0.9175 0.63205 0.60659 0.0
O314 O 0.96416 0.64172 0.6233 0.0
O315 O 0.95767 0.5157 0.58272 0.0
O316 O 1.02365 0.49388 0.56831 0.0
O317 O 1.00706 0.64471 0.54789 0.0
O318 O 1.01993 0.57851 0.50705 0.0
C319 C 0.98771 0.49117 0.59136 0.0
C320 C 1.03841 0.62725 0.53254 0.0
O321 O 0.89557 0.59781 0.56813 0.0
Mg322 Mg 0.78 0.68716 0.43313 0.0
O323 O 0.79481 0.72904 0.36835 0.0
O324 O 0.85997 0.77947 0.42212 0.0
Mg325 Mg 0.81472 0.7225 0.46403 0.0
C326 C 0.8401 0.76599 0.37957 0.0
C327 C 0.67768 0.59565 0.36978 0.0
O328 O 0.63978 0.54523 0.35739 0.0
O329 O 0.83461 0.65391 0.4073 0.0
O330 O 0.88017 0.69736 0.47497 0.0
O331 O 0.72461 0.70758 0.46701 0.0
O332 O 0.76524 0.65956 0.50059 0.0
C333 C 0.87578 0.67049 0.43448 0.0
C334 C 0.73027 0.67839 0.49919 0.0
O335 O 0.71407 0.60165 0.40067 0.0
Tb336 Tb 0.21678 0.21587 0.1338 0.0
Tb337 Tb 0.10496 0.12757 0.06991 0.0
C338 C 0.11398 0.18919 0.16902 0.0
C339 C 0.34403 0.24373 0.16857 0.0
C340 C 0.40921 0.18733 0.16051 0.0
C341 C 0.4278 0.24368 0.18454 0.0
C342 C 0.3949 0.27121 0.18925 0.0
C343 C 0.32649 0.18772 0.14456 0.0
C344 C 0.35806 0.15954 0.14111 0.0
C345 C 0.30768 0.27079 0.16992 0.0
O346 O 0.20797 0.13277 0.1516 0.0
O347 O 0.14103 0.0737 0.09528 0.0
O348 O 0.15364 0.14848 1.01918 0.0
O349 O 0.22428 0.16709 0.0716 0.0
O350 O 1.03845 0.05927 0.07729 0.0
O351 O 1.05122 0.08584 1.00965 0.0
O352 O 0.11169 0.21223 0.05749 0.0
O353 O 0.18469 0.27416 0.10848 0.0
O354 O 0.16132 0.19795 0.18079 0.0
O355 O 0.09447 0.18239 0.12561 0.0
C356 C 0.17823 0.08202 0.1285 0.0
O357 O 0.28949 0.27626 0.12864 0.0
O358 O 0.27154 0.24835 0.19461 0.0
C359 C 0.20019 0.15572 0.02912 0.0
C360 C 0.96919 0.05906 0.03014 0.0
C361 C 0.9128 0.11568 0.06341 0.0
C362 C 0.93299 0.12798 0.02198 0.0
C363 C 0.96305 0.10133 1.00655 0.0
C364 C 0.93665 0.03579 0.0625 0.0
C365 C 0.90895 0.06504 0.08003 0.0
C366 C 1.01812 0.05471 0.03404 0.0
C367 C 0.14501 0.26417 0.07691 0.0
H368 H 0.46728 0.26604 0.19982 0.0
H369 H 0.40899 0.31272 0.21005 0.0
H370 H 0.28839 0.16535 0.12739 0.0
H371 H 0.34252 0.11659 0.12119 0.0
H372 H 0.93426 0.16552 1.00728 0.0
H373 H 0.98742 0.1206 0.98169 0.0
H374 H 0.93968 1.00194 0.0802 0.0
H375 H 0.89187 0.05355 0.11112 0.0
Tb376 Tb 0.3821 0.91625 0.39301 0.0
Tb377 Tb 0.46985 0.93642 0.3274 0.0
C378 C 0.38018 0.97009 0.30356 0.0
C379 C 0.32787 0.86193 0.48795 0.0
C380 C 0.36369 0.81943 0.56208 0.0
C381 C 0.34112 0.85807 0.57143 0.0
C382 C 0.32368 0.87984 0.53429 0.0
C383 C 0.34915 0.82186 0.47941 0.0
C384 C 0.36769 0.80183 0.51601 0.0
C385 C 0.31969 0.89106 0.44897 0.0
O386 O 0.34745 0.85315 0.32977 0.0
O387 O 0.42072 0.84652 0.31851 0.0
O388 O 0.5034 0.91631 0.38843 0.0
O389 O 0.42946 0.87357 0.41916 0.0
O390 O 0.50168 0.90133 0.27699 0.0
O391 O 0.52834 0.993 0.29677 0.0
O392 O 0.49009 1.0167 0.37421 0.0
O393 O 0.45052 0.97982 0.43483 0.0
O394 O 0.37643 0.97729 0.3484 0.0
O395 O 0.4054 0.94167 0.28759 0.0
C396 C 0.37134 0.82501 0.31064 0.0
O397 O 0.35345 0.94326 0.45083 0.0
O398 O 0.31132 0.86105 0.40744 0.0
C399 C 0.47821 0.88729 0.41906 0.0
C400 C 0.49577 0.95378 0.21769 0.0
C401 C 0.42108 0.9392 0.14227 0.0
C402 C 0.44368 0.89982 0.14415 0.0
C403 C 0.4811 0.90742 0.1812 0.0
C404 C 0.4732 0.99325 0.2155 0.0
C405 C 0.43615 0.98588 0.1784 0.0
C406 C 0.52107 0.95117 0.26319 0.0
C407 C 0.48579 1.02034 0.41893 0.0
H408 H 0.33852 0.87259 0.60716 0.0
H409 H 0.30855 0.91171 0.54178 0.0
H410 H 0.35217 0.80605 0.4442 0.0
H411 H 0.38493 0.77196 0.5082 0.0
H412 H 0.433 0.86368 0.11628 0.0
H413 H 0.49659 0.87543 0.18262 0.0
H414 H 0.48183 1.02829 0.24384 0.0
H415 H 0.4197 1.01699 0.17799 0.0
Tb416 Tb 0.62433 0.1465 0.65608 0.0
Tb417 Tb 0.71863 0.16805 0.59559 0.0
C418 C 0.7129 0.11834 0.68615 0.0
C419 C 0.52735 0.18487 0.68432 0.0
C420 C 0.485 0.24535 0.63171 0.0
C421 C 0.45379 0.19462 0.64716 0.0
C422 C 0.47483 0.1645 0.67308 0.0
C423 C 0.55807 0.23785 0.6723 0.0
C424 C 0.53716 0.26778 0.646 0.0
C425 C 0.55034 0.14469 0.69361 0.0
O426 O 0.68269 0.23568 0.67656 0.0
O427 O 0.71512 0.25075 0.60835 0.0
O428 O 0.65444 0.15367 0.54579 0.0
O429 O 0.61032 0.18336 0.59603 0.0
O430 O 0.79771 0.2051 0.6019 0.0
O431 O 0.751 0.16535 0.53449 0.0
O432 O 0.68072 0.0741 0.58603 0.0
O433 O 0.60536 0.06295 0.61298 0.0
O434 O 0.66458 0.10106 0.68733 0.0
O435 O 0.73668 0.16436 0.66844 0.0
C436 C 0.70537 0.27105 0.64769 0.0
O437 O 0.54602 0.10965 0.6558 0.0
O438 O 0.59641 0.16692 0.71684 0.0
C439 C 0.62093 0.17384 0.55417 0.0
C440 C 0.81621 0.13991 0.55493 0.0
C441 C 0.84853 0.05155 0.54612 0.0
C442 C 0.8655 0.09575 0.51878 0.0
C443 C 0.84926 0.14 0.52322 0.0
C444 C 0.79779 0.09473 0.58069 0.0
C445 C 0.81338 0.05045 0.57603 0.0
C446 C 0.79574 0.18267 0.55882 0.0
C447 C 0.63418 0.04186 0.59197 0.0
H448 H 0.41298 0.1775 0.6386 0.0
H449 H 0.45036 0.12358 0.68165 0.0
H450 H 0.59861 0.25416 0.681 0.0
H451 H 0.56159 0.30759 0.6359 0.0
H452 H 0.89267 0.09737 0.49527 0.0
H453 H 0.86266 0.17417 0.50246 0.0
H454 H 0.77172 0.09408 0.60496 0.0
H455 H 0.79964 1.01694 0.59737 0.0
Tb456 Tb 0.48942 0.37114 0.85504 0.0
Tb457 Tb 0.37776 0.3845 0.84708 0.0
C458 C 0.38521 0.27345 0.85451 0.0
C459 C 0.60689 0.37856 0.82642 0.0
C460 C 0.67659 0.43071 0.76886 0.0
C461 C 0.69325 0.42018 0.81244 0.0
C462 C 0.65823 0.39378 0.84125 0.0
C463 C 0.59055 0.38907 0.78264 0.0
C464 C 0.62527 0.41439 0.75365 0.0
C465 C 0.57084 0.36027 0.85867 0.0
O466 O 0.45985 0.35373 0.77855 0.0
O467 O 0.39331 0.38276 0.77375 0.0
O468 O 0.44613 0.45978 0.87018 0.0
O469 O 0.50252 0.4492 0.82795 0.0
O470 O 0.29988 0.34719 0.84597 0.0
O471 O 0.33819 0.43788 0.84134 0.0
O472 O 0.39718 0.38205 0.92234 0.0
O473 O 0.48244 0.39961 0.92797 0.0
O474 O 0.43255 0.29776 0.87342 0.0
O475 O 0.3667 0.29757 0.8253 0.0
C476 C 0.42584 0.36655 0.75383 0.0
O477 O 0.56582 0.40305 0.88312 0.0
O478 O 0.52739 0.31845 0.8403 0.0
C479 C 0.47565 0.47726 0.83908 0.0
C480 C 0.25995 0.40667 0.8731 0.0
C481 C 0.17032 0.4039 0.90394 0.0
C482 C 0.19527 0.44386 0.87549 0.0
C483 C 0.23989 0.44545 0.86041 0.0
C484 C 0.23787 0.37077 0.90561 0.0
C485 C 0.19336 0.36963 0.92115 0.0
C486 C 0.29538 0.3956 0.84433 0.0
C487 C 0.44176 0.39408 0.94764 0.0
H488 H 0.73308 0.43167 0.82378 0.0
H489 H 0.67115 0.38658 0.87528 0.0
H490 H 0.55112 0.37891 0.77123 0.0
H491 H 0.61221 0.42221 0.71991 0.0
H492 H 0.17858 0.4715 0.86253 0.0
H493 H 0.2563 0.4737 0.83566 0.0
H494 H 0.25265 0.34048 0.91622 0.0
H495 H 0.17484 0.3386 0.94323 0.0
Tb496 Tb 0.16746 0.19208 0.66026 0.0
Tb497 Tb 0.15055 0.11329 0.563 0.0
C498 C 1.06289 0.09415 0.61599 0.0
C499 C 0.19288 0.22168 0.78245 0.0
C500 C 0.18347 0.1385 0.84049 0.0
C501 C 0.15301 0.16943 0.84311 0.0
C502 C 0.15771 0.21102 0.81409 0.0
C503 C 0.22575 0.19344 0.78313 0.0
C504 C 0.21947 0.15067 0.81028 0.0
C505 C 0.18651 0.24769 0.74075 0.0
O506 O 0.18426 0.11889 0.68252 0.0
O507 O 0.14729 0.05399 0.61503 0.0
O508 O 0.22857 0.14518 0.59237 0.0
O509 O 0.23165 0.23032 0.62385 0.0
O510 O 0.10526 0.04058 0.51361 0.0
O511 O 0.18091 0.09524 0.50381 0.0
O512 O 0.16026 0.19885 0.54099 0.0
O513 O 0.14403 0.23928 0.60854 0.0
O514 O 0.09501 0.11761 0.65474 0.0
O515 O 1.07724 0.10811 0.5762 0.0
C516 C 0.16555 0.06493 0.66052 0.0
O517 O 0.22093 0.25351 0.71357 0.0
O518 O 0.14092 0.2254 0.7166 0.0
C519 C 0.25225 0.20055 0.60152 0.0
C520 C 0.11836 0.06715 0.44015 0.0
C521 C 0.09335 0.10493 0.35842 0.0
C522 C 0.11885 0.06813 0.3573 0.0
C523 C 0.13132 0.04939 0.39804 0.0
C524 C 0.0932 0.10395 0.44152 0.0
C525 C 1.08095 0.1229 0.40096 0.0
C526 C 0.13747 0.05533 0.48405 0.0
C527 C 0.15318 0.24207 0.56436 0.0
H528 H 0.12403 0.15936 0.86563 0.0
H529 H 0.13148 0.23151 0.81379 0.0
H530 H 0.25343 0.20012 0.75939 0.0
H531 H 0.24205 0.12584 0.80667 0.0
H532 H 0.12839 0.05286 0.32482 0.0
H533 H 0.15161 1.02186 0.39682 0.0
H534 H 1.08387 0.11895 0.47422 0.0
H535 H 1.06155 0.15121 0.40295 0.0
Tb536 Tb 0.4607 0.97332 0.83411 0.0
Tb537 Tb 0.39996 0.85064 0.85917 0.0
C538 C 0.44682 0.8688 0.76661 0.0
C539 C 0.4886 0.11701 0.86051 0.0
C540 C 0.41279 0.12543 0.90915 0.0
C541 C 0.4145 0.13688 0.86278 0.0
C542 C 0.45275 0.13377 0.83886 0.0
C543 C 0.49238 0.11693 0.90956 0.0
C544 C 0.45408 0.12036 0.93363 0.0
C545 C 0.5039 0.07759 0.83148 0.0
O546 O 0.37691 0.94798 0.80329 0.0
O547 O 0.34342 0.88873 0.85531 0.0
O548 O 0.42629 0.90268 0.92592 0.0
O549 O 0.43332 0.98545 0.89969 0.0
O550 O 0.33234 0.77682 0.83928 0.0
O551 O 0.38864 0.78037 0.8947 0.0
O552 O 0.47924 0.85658 0.87177 0.0
O553 O 0.52286 0.95202 0.86891 0.0
O554 O 0.47868 0.92153 0.78095 0.0
O555 O 0.4058 0.84691 0.78557 0.0
C556 C 0.33613 0.91792 0.82243 0.0
O557 O 0.52488 0.05059 0.8554 0.0
O558 O 0.46909 0.04223 0.79741 0.0
C559 C 0.43274 0.95587 0.93349 0.0
C560 C 0.35886 0.70357 0.83411 0.0
C561 C 0.37759 0.62558 0.77267 0.0
C562 C 0.33493 0.60671 0.79589 0.0
C563 C 0.32549 0.6458 0.82668 0.0
C564 C 0.40056 0.72218 0.80993 0.0
C565 C 0.4098 0.68368 0.77924 0.0
C566 C 0.35012 0.74725 0.86337 0.0
C567 C 0.52297 0.90231 0.87797 0.0
H568 H 0.38474 0.1452 0.84396 0.0
H569 H 0.44989 0.13616 0.80168 0.0
H570 H 0.52085 0.10626 0.92808 0.0
H571 H 0.45475 0.11467 0.97003 0.0
H572 H 0.31076 0.5614 0.79222 0.0
H573 H 0.29277 0.63109 0.84465 0.0
H574 H 0.42679 0.76662 0.81539 0.0
H575 H 0.44411 0.69878 0.76348 0.0
Tb576 Tb 0.64489 0.10798 0.14702 0.0
Tb577 Tb 0.67394 0.17539 0.06206 0.0
C578 C 0.75706 0.17583 0.1389 0.0
C579 C 0.60722 0.09339 0.25647 0.0
C580 C 0.61643 0.17971 0.32905 0.0
C581 C 0.64625 0.14818 0.33357 0.0
C582 C 0.64138 0.10493 0.29757 0.0
C583 C 0.57659 0.12418 0.25276 0.0
C584 C 0.58112 0.16677 0.28872 0.0
C585 C 0.61207 0.06056 0.21417 0.0
O586 O 0.63767 0.19071 0.17156 0.0
O587 O 0.67763 0.24473 0.11767 0.0
O588 O 0.59702 0.16117 0.06972 0.0
O589 O 0.58594 0.07551 0.08772 0.0
O590 O 0.72083 0.24346 0.03152 0.0
O591 O 0.65063 0.17847 0.9923 0.0
O592 O 0.66426 0.08513 0.03406 0.0
O593 O 0.66544 0.04755 0.10218 0.0
O594 O 0.72413 0.16078 0.16775 0.0
O595 O 0.74409 0.17566 0.09444 0.0
C596 C 0.65703 0.24122 0.15684 0.0
O597 O 0.58248 0.05787 0.17645 0.0
O598 O 0.65855 0.07342 0.2066 0.0
C599 C 0.56665 0.10988 0.07405 0.0
C600 C 0.72102 0.20548 0.95464 0.0
C601 C 0.76471 0.16449 0.88584 0.0
C602 C 0.72797 0.18536 0.87316 0.0
C603 C 0.7065 0.20626 0.90753 0.0
C604 C 0.75716 0.18376 0.96717 0.0
C605 C 0.77987 0.16468 0.93293 0.0
C606 C 0.69401 0.21994 0.99015 0.0
C607 C 0.66659 0.04325 0.05646 0.0
H608 H 0.67289 0.1564 0.36505 0.0
H609 H 0.66583 0.08233 0.30089 0.0
H610 H 0.5504 0.11728 0.22125 0.0
H611 H 0.55723 0.18995 0.28482 0.0
H612 H 0.7162 0.18591 0.83668 0.0
H613 H 0.67782 0.22161 0.89736 0.0
H614 H 0.76788 0.18156 1.00345 0.0
H615 H 0.80826 0.14893 0.94305 0.0
Tb616 Tb 0.38983 0.33644 0.32689 0.0
Tb617 Tb 0.44713 0.45898 0.37017 0.0
C618 C 0.41341 0.42462 0.25664 0.0
C619 C 0.37473 0.2031 0.34092 0.0
C620 C 0.41441 0.16857 0.41671 0.0
C621 C 0.36994 0.12942 0.38778 0.0
C622 C 0.34894 0.14747 0.35042 0.0
C623 C 0.42033 0.24034 0.36906 0.0
C624 C 0.43884 0.22412 0.40751 0.0
C625 C 0.35347 0.22954 0.30829 0.0
O626 O 0.46758 0.35605 0.30385 0.0
O627 O 0.51423 0.44263 0.34852 0.0
O628 O 0.46799 0.42303 0.42913 0.0
O629 O 0.40034 0.33923 0.40589 0.0
O630 O 0.5062 0.5411 0.37876 0.0
O631 O 0.44197 0.52591 0.41449 0.0
O632 O 0.36579 0.43388 0.39005 0.0
O633 O 0.32367 0.3587 0.33276 0.0
O634 O 0.38339 0.37312 0.2633 0.0
O635 O 0.43911 0.46437 0.29334 0.0
C636 C 0.51255 0.40027 0.31645 0.0
O637 O 0.3293 0.2569 0.32771 0.0
O638 O 0.38662 0.2622 0.28543 0.0
C639 C 0.43579 0.37547 0.43984 0.0
C640 C 0.46751 0.60364 0.3755 0.0
C641 C 0.44957 0.67422 0.3163 0.0
C642 C 0.49061 0.69692 0.35323 0.0
C643 C 0.49967 0.66166 0.38267 0.0
C644 C 0.42584 0.58102 0.33943 0.0
C645 C 0.41715 0.61595 0.30963 0.0
C646 C 0.48017 0.56415 0.40042 0.0
C647 C 0.32101 0.39387 0.36837 0.0
H648 H 0.35234 0.08533 0.39357 0.0
H649 H 0.31351 0.11853 0.32914 0.0
H650 H 0.44148 0.28324 0.36217 0.0
H651 H 0.47437 0.25395 0.42839 0.0
H652 H 0.51619 0.74189 0.3588 0.0
H653 H 0.53232 0.67919 0.40995 0.0
H654 H 0.40087 0.5358 0.33338 0.0
H655 H 0.38535 0.59727 0.28156 0.0
Tb656 Tb 0.66756 0.68761 0.15614 0.0
Tb657 Tb 0.64946 0.60837 0.05842 0.0
C658 C 0.5622 0.59185 0.11308 0.0
C659 C 0.69244 0.71764 0.27796 0.0
C660 C 0.68364 0.63984 0.34066 0.0
C661 C 0.65566 0.67361 0.34323 0.0
C662 C 0.6599 0.71241 0.31169 0.0
C663 C 0.72216 0.68556 0.27778 0.0
C664 C 0.71648 0.64579 0.30773 0.0
C665 C 0.68705 0.74382 0.23629 0.0
O666 O 0.68136 0.61224 0.17838 0.0
O667 O 0.64525 0.54805 0.11032 0.0
O668 O 0.72829 0.64097 0.08632 0.0
O669 O 0.7317 0.72566 0.11988 0.0
O670 O 0.60337 0.5371 1.00787 0.0
O671 O 0.67932 0.59049 0.99865 0.0
O672 O 0.65997 0.69437 0.03685 0.0
O673 O 0.64441 0.73516 0.10453 0.0
O674 O 0.59468 0.61507 0.15148 0.0
O675 O 0.57636 0.60403 0.07272 0.0
C676 C 0.66222 0.5582 0.15618 0.0
O677 O 0.72154 0.74848 0.20939 0.0
O678 O 0.64156 0.7224 0.21205 0.0
C679 C 0.75209 0.69638 0.09664 0.0
C680 C 0.61719 0.56314 0.934 0.0
C681 C 0.58837 0.59598 0.85063 0.0
C682 C 0.61423 0.55962 0.85001 0.0
C683 C 0.62877 0.5435 0.89161 0.0
C684 C 0.59207 0.5999 0.93473 0.0
C685 C 0.57802 0.61639 0.89348 0.0
C686 C 0.63577 0.55127 0.97844 0.0
C687 C 0.65367 0.73801 0.06039 0.0
H688 H 0.62955 0.66858 0.36837 0.0
H689 H 0.63594 0.73577 0.3119 0.0
H690 H 0.74779 0.68822 0.25249 0.0
H691 H 0.73814 0.61978 0.30534 0.0
H692 H 0.62227 0.54266 0.81737 0.0
H693 H 0.64908 0.516 0.89073 0.0
H694 H 0.58375 0.61642 0.9674 0.0
H695 H 0.55873 0.64483 0.89524 0.0
Tb696 Tb 0.94532 0.46619 0.34549 0.0
Tb697 Tb 0.88477 0.33773 0.3697 0.0
C698 C 0.93109 0.36317 0.27619 0.0
C699 C 0.97509 0.61412 0.37176 0.0
C700 C 0.91735 0.66161 0.41703 0.0
C701 C 0.92814 0.67294 0.37193 0.0
C702 C 0.95816 0.65031 0.34965 0.0
C703 C 0.96694 0.60716 0.41797 0.0
C704 C 0.93941 0.63184 0.44106 0.0
C705 C 0.98756 0.57158 0.34435 0.0
O706 O 0.86324 0.439 0.31099 0.0
O707 O 0.82624 0.37287 0.35826 0.0
O708 O 0.90253 0.38432 0.43925 0.0
O709 O 0.90623 0.45892 0.4062 0.0
O710 O 0.81797 0.26303 0.34816 0.0
O711 O 0.87631 0.26424 0.4001 0.0
O712 O 0.96708 0.35049 0.38313 0.0
O713 O 1.01013 0.44315 0.37047 0.0
O714 O 0.96011 0.41685 0.29014 0.0
O715 O 0.89268 0.33478 0.29645 0.0
C716 C 0.82134 0.40499 0.32657 0.0
O717 O 1.00725 0.54429 0.36956 0.0
O718 O 0.9514 0.53646 0.31142 0.0
C719 C 0.91866 0.43942 0.4428 0.0
C720 C 0.84856 0.19351 0.33449 0.0
C721 C 0.8757 0.1246 0.27142 0.0
C722 C 0.83028 0.10081 0.29016 0.0
C723 C 0.81624 0.13556 0.32128 0.0
C724 C 0.89211 0.21719 0.31343 0.0
C725 C 0.90488 0.1835 0.28123 0.0
C726 C 0.83805 0.23241 0.36797 0.0
C727 C 1.011 0.39488 0.38266 0.0
H728 H 0.90993 0.6948 0.35238 0.0
H729 H 0.96317 0.65565 0.31367 0.0
H730 H 0.97654 0.57692 0.4339 0.0
H731 H 0.92998 0.6219 0.47508 0.0
H732 H 0.80814 0.05485 0.28383 0.0
H733 H 0.78202 0.11689 0.33663 0.0
H734 H 0.91804 0.26149 0.32363 0.0
H735 H 0.94093 0.20242 0.26871 0.0
Tb736 Tb 0.13335 0.61673 0.64691 0.0
Tb737 Tb 0.19951 0.68223 0.5784 0.0
C738 C 0.24482 0.67674 0.67576 0.0
C739 C 0.09111 0.59594 0.75425 0.0
C740 C 0.10533 0.68247 0.82849 0.0
C741 C 0.1363 0.65204 0.82961 0.0
C742 C 0.12902 0.60873 0.79274 0.0
C743 C 1.05859 0.62443 0.75473 0.0
C744 C 1.06613 0.66776 0.79111 0.0
C745 C 0.09381 0.56559 0.70962 0.0
O746 O 0.13795 0.70203 0.67619 0.0
O747 O 0.1877 0.7513 0.62495 0.0
O748 O 0.12286 0.63689 0.54364 0.0
O749 O 1.08351 0.64191 0.60564 0.0
O750 O 0.26667 0.72946 0.55536 0.0
O751 O 0.19525 0.72034 0.51835 0.0
O752 O 0.19453 0.59561 0.54912 0.0
O753 O 0.1377 0.54782 0.59521 0.0
O754 O 0.20283 0.6767 0.68545 0.0
O755 O 0.25122 0.66992 0.63192 0.0
C756 C 0.16245 0.75086 0.66119 0.0
O757 O 1.06777 0.57185 0.67298 0.0
O758 O 0.13948 0.57265 0.70247 0.0
C759 C 1.08567 0.64305 0.56141 0.0
C760 C 0.25361 0.70835 0.47326 0.0
C761 C 0.2781 0.66406 0.39183 0.0
C762 C 0.24944 0.69701 0.38899 0.0
C763 C 0.23747 0.71949 0.42977 0.0
C764 C 0.27973 0.67252 0.47529 0.0
C765 C 0.2927 0.65141 0.43481 0.0
C766 C 0.2429 0.73341 0.51638 0.0
C767 C 0.16477 0.54655 0.56105 0.0
H768 H 0.16578 0.6613 0.85896 0.0
H769 H 0.15459 0.58735 0.79319 0.0
H770 H 1.0289 0.61569 0.7257 0.0
H771 H 1.04117 0.68988 0.78994 0.0
H772 H 0.23823 0.70725 0.35561 0.0
H773 H 0.21677 0.74643 0.42755 0.0
H774 H 0.29158 0.66214 0.50832 0.0
H775 H 0.31462 0.6258 0.4371 0.0
Tb776 Tb 0.98391 0.86811 0.3503 0.0
Tb777 Tb 0.88083 0.90002 0.34572 0.0
C778 C 0.874 0.78335 0.34585 0.0
C779 C 0.09921 0.86786 0.3207 0.0
C780 C 0.17192 0.92491 0.26709 0.0
C781 C 0.1869 0.91442 0.31127 0.0
C782 C 0.15045 0.88563 0.33806 0.0
C783 C 1.08454 0.87804 0.2762 0.0
C784 C 0.12079 0.90584 0.24924 0.0
C785 C 1.0617 0.84932 0.35179 0.0
O786 O 0.95437 0.85646 0.27444 0.0
O787 O 0.89946 0.90272 0.27324 0.0
O788 O 0.95226 0.96758 0.37403 0.0
O789 O 1.00364 0.95034 0.32842 0.0
O790 O 0.80271 0.86658 0.33932 0.0
O791 O 0.84632 0.95904 0.34798 0.0
O792 O 0.89891 0.89347 0.42038 0.0
O793 O 0.97967 0.8948 0.42444 0.0
O794 O 0.92076 0.79637 0.36379 0.0
O795 O 0.8654 0.81416 0.31689 0.0
C796 C 0.926 0.87824 0.25152 0.0
O797 O 1.05939 0.89216 0.37868 0.0
O798 O 1.01703 0.81118 0.33192 0.0
C799 C 0.98317 0.98407 0.34417 0.0
C800 C 0.76805 0.92317 0.37942 0.0
C801 C 0.67606 0.90173 0.41283 0.0
C802 C 0.69614 0.94682 0.38713 0.0
C803 C 0.74202 0.95757 0.37056 0.0
C804 C 0.75175 0.88403 0.41116 0.0
C805 C 0.70571 0.87321 0.42769 0.0
C806 C 0.80176 0.91722 0.34632 0.0
C807 C 0.94162 0.89745 0.44489 0.0
H808 H 0.2266 0.928 0.32474 0.0
H809 H 0.16216 0.87898 0.37272 0.0
H810 H 1.04516 0.8661 0.2628 0.0
H811 H 0.10898 0.91361 0.21504 0.0
H812 H 0.67363 0.96925 0.37529 0.0
H813 H 0.75399 0.98814 0.34648 0.0
H814 H 0.77145 0.85715 0.41886 0.0
H815 H 0.69059 0.83783 0.447 0.0
Tb816 Tb 0.87513 0.41201 0.88861 0.0
Tb817 Tb 0.96534 0.42955 0.8277 0.0
C818 C 0.87937 0.46775 0.79935 0.0
C819 C 0.81489 0.35799 0.98007 0.0
C820 C 0.86047 0.32764 0.05569 0.0
C821 C 0.83857 0.36696 0.06401 0.0
C822 C 0.81597 0.38243 0.02607 0.0
C823 C 0.83358 0.31524 0.97291 0.0
C824 C 0.85659 0.30071 1.01034 0.0
C825 C 0.80854 0.38644 0.94014 0.0
O826 O 0.8426 0.35054 0.82425 0.0
O827 O 0.91539 0.34084 0.82259 0.0
O828 O 0.99592 0.41207 0.89097 0.0
O829 O 0.92087 0.36961 0.91971 0.0
O830 O 0.99284 0.38706 0.77895 0.0
O831 O 1.03151 0.4786 0.80235 0.0
O832 O 0.98603 0.51164 0.87233 0.0
O833 O 0.9423 0.47688 0.93159 0.0
O834 O 0.87313 0.47404 0.8436 0.0
O835 O 0.90464 0.43869 0.78462 0.0
C836 C 0.86673 0.32057 0.80931 0.0
O837 O 0.84217 0.43895 0.94288 0.0
O838 O 0.80274 0.35636 0.89916 0.0
C839 C 0.96983 0.38312 0.92085 0.0
C840 C 1.01164 0.44507 0.72248 0.0
C841 C 0.98598 0.46468 0.63337 0.0
C842 C 1.013 0.43019 0.63957 0.0
C843 C 1.02553 0.42006 0.6842 0.0
C844 C 0.98121 0.47545 0.71556 0.0
C845 C 0.96719 0.48385 0.67112 0.0
C846 C 1.02387 0.43584 0.76955 0.0
C847 C 0.97944 0.51636 0.91651 0.0
H848 H 0.84111 0.38751 0.09936 0.0
H849 H 0.80259 0.41604 0.03238 0.0
H850 H 0.8337 0.29544 0.93802 0.0
H851 H 0.87303 0.26982 1.00367 0.0
H852 H 1.02701 0.41403 0.61044 0.0
H853 H 1.04737 0.39472 0.68901 0.0
H854 H 0.97094 0.49612 0.74479 0.0
H855 H 0.94677 0.51089 0.6674 0.0
Tb856 Tb 0.8939 0.83375 0.82435 0.0
Tb857 Tb 0.94938 0.95679 0.8673 0.0
C858 C 0.91537 0.92038 0.75361 0.0
C859 C 0.87655 0.70019 0.83917 0.0
C860 C 0.90952 0.66551 0.91847 0.0
C861 C 0.86661 0.62666 0.8874 0.0
C862 C 0.84877 0.64491 0.84836 0.0
C863 C 0.92063 0.73712 0.8695 0.0
C864 C 0.93539 0.72112 0.90986 0.0
C865 C 0.85802 0.72707 0.80493 0.0
O866 O 0.97317 0.85596 0.80363 0.0
O867 O 1.01791 0.94316 0.84803 0.0
O868 O 0.97019 0.92027 0.92592 0.0
O869 O 0.90218 0.83686 0.90334 0.0
O870 O 1.00657 0.03956 0.87301 0.0
O871 O 0.94637 1.02252 0.91444 0.0
O872 O 0.86858 0.93179 0.88716 0.0
O873 O 0.82749 0.85607 0.83004 0.0
O874 O 0.88841 0.86787 0.75986 0.0
O875 O 0.93854 0.96125 0.79033 0.0
C876 C 1.01756 0.90122 0.81663 0.0
O877 O 0.83249 0.75413 0.82208 0.0
O878 O 0.89326 0.75998 0.78392 0.0
C879 C 0.93746 0.87343 0.93718 0.0
C880 C 0.96685 0.10098 0.87653 0.0
C881 C 0.94582 0.17207 0.82025 0.0
C882 C 0.98687 0.19506 0.85711 0.0
C883 C 0.99753 0.15946 0.88508 0.0
C884 C 0.92444 0.07824 0.8413 0.0
C885 C 0.91421 0.11351 0.81287 0.0
C886 C 0.98229 0.0615 0.89839 0.0
C887 C 0.82431 0.89123 0.86547 0.0
H888 H 0.84807 0.58247 0.89267 0.0
H889 H 0.81439 0.61627 0.82542 0.0
H890 H 0.94342 0.77965 0.86275 0.0
H891 H 0.96997 0.75064 0.9323 0.0
H892 H 1.01165 0.24035 0.86328 0.0
H893 H 1.0306 0.17704 0.91191 0.0
H894 H 0.90059 0.03267 0.8344 0.0
H895 H 0.88229 0.09475 0.78493 0.0
Tb896 Tb 0.71477 0.71179 0.64139 0.0
Tb897 Tb 0.60771 0.62816 0.57536 0.0
C898 C 0.61382 0.68743 0.68022 0.0
C899 C 0.8378 0.72459 0.66735 0.0
C900 C 0.89139 0.66302 0.63086 0.0
C901 C 0.91766 0.71911 0.65609 0.0
C902 C 0.89081 0.75006 0.67387 0.0
C903 C 0.81285 0.66753 0.64494 0.0
C904 C 0.83888 0.63732 0.62643 0.0
C905 C 0.80611 0.75643 0.67695 0.0
O906 O 0.69075 0.62502 0.65905 0.0
O907 O 0.64877 0.575 0.58739 0.0
O908 O 0.65847 0.67355 0.53135 0.0
O909 O 0.72287 0.6687 0.57719 0.0
O910 O 0.54232 0.55189 0.56396 0.0
O911 O 0.56253 0.60383 0.50934 0.0
O912 O 0.60323 0.71095 0.58626 0.0
O913 O 0.68828 0.77099 0.60818 0.0
O914 O 0.66178 0.72254 0.68439 0.0
O915 O 0.58993 0.64474 0.6451 0.0
C916 C 0.67477 0.57842 0.62769 0.0
O917 O 0.78898 0.77142 0.63964 0.0
O918 O 0.76979 0.73207 0.70103 0.0
C919 C 0.70301 0.67407 0.53717 0.0
C920 C 0.47872 0.57044 0.52436 0.0
C921 C 0.4201 0.61565 0.57293 0.0
C922 C 0.45124 0.64814 0.53959 0.0
C923 C 0.47831 0.62337 0.51549 0.0
C924 C 0.4421 0.53304 0.54766 0.0
C925 C 0.41179 0.55109 0.57325 0.0
C926 C 0.52629 0.56351 0.5244 0.0
C927 C 0.64092 0.76215 0.59289 0.0
H928 H 0.95856 0.73981 0.66017 0.0
H929 H 0.91119 0.79361 0.69163 0.0
H930 H 0.77264 0.64662 0.63966 0.0
H931 H 0.81769 0.59407 0.60774 0.0
H932 H 0.45567 0.69142 0.53629 0.0
H933 H 0.50454 0.64961 0.49464 0.0
H934 H 0.44154 0.49136 0.55143 0.0
H935 H 0.41191 0.58351 0.57787 0.0
Tb936 Tb 0.12416 0.6484 0.15675 0.0
Tb937 Tb 0.21738 0.66841 0.09474 0.0
C938 C 0.21238 0.62041 0.18585 0.0
C939 C 1.02886 0.6898 0.18509 0.0
C940 C 0.98627 0.75113 0.13371 0.0
C941 C 0.9552 0.70144 0.1506 0.0
C942 C 0.97633 0.67089 0.17588 0.0
C943 C 1.05967 0.74173 0.17147 0.0
C944 C 1.03863 0.77215 0.14586 0.0
C945 C 1.05112 0.649 0.19473 0.0
O946 O 0.18302 0.73765 0.1758 0.0
O947 O 0.21371 0.75103 0.10665 0.0
O948 O 0.15324 0.6541 0.04494 0.0
O949 O 0.10898 0.68285 0.09582 0.0
O950 O 0.2965 0.70479 0.10165 0.0
O951 O 0.25028 0.66543 0.034 0.0
O952 O 0.17868 0.57456 0.08552 0.0
O953 O 0.10446 0.56391 0.11475 0.0
O954 O 0.16432 0.60306 0.18819 0.0
O955 O 0.23525 0.66646 0.16788 0.0
C956 C 0.20524 0.7723 0.14628 0.0
O957 O 1.04592 0.61292 0.15732 0.0
O958 O 0.09736 0.6708 0.21757 0.0
C959 C 0.11861 0.67232 0.05373 0.0
C960 C 0.31532 0.63973 0.05485 0.0
C961 C 0.34763 0.55131 0.04606 0.0
C962 C 0.36568 0.59633 1.01965 0.0
C963 C 0.34944 0.64059 0.02408 0.0
C964 C 0.29613 0.59399 0.07992 0.0
C965 C 0.31173 0.54971 0.07525 0.0
C966 C 0.29486 0.68254 0.05861 0.0
C967 C 0.1325 0.5426 0.09263 0.0
H968 H 0.91434 0.68537 0.14354 0.0
H969 H 0.95175 0.63077 0.18562 0.0
H970 H 0.10024 0.75683 0.17842 0.0
H971 H 1.06304 0.81098 0.13438 0.0
H972 H 0.39359 0.59849 0.99686 0.0
H973 H 0.36363 0.67534 1.004 0.0
H974 H 0.26939 0.59284 0.1036 0.0
H975 H 0.29722 0.51563 0.09593 0.0
loop_
_geom_bond_atom_site_label_1
_geom_bond_atom_site_label_2
_geom_bond_distance
_geom_bond_site_symmetry_2
_ccdc_geom_bond_type
Mg0 O1 2.028 . S
Mg0 O7 1.986 . S
Mg0 O9 2.114 . S
Mg0 O10 2.251 1_455 S
Mg0 O13 2.010 . S
O1 Mg0 2.028 . S
O1 C4 1.250 . S
O2 Mg3 2.028 1_455 S
O2 C4 1.248 . S
Mg3 O2 2.028 1_655 S
Mg3 O8 2.032 1_655 S
Mg3 O10 2.079 . S
C4 O1 1.250 . S
C4 O2 1.248 . S
C5 O6 1.264 . S
C5 O13 1.249 . S
O6 C5 1.264 . S
O7 Mg0 1.986 . S
O7 C11 1.246 . S
O8 Mg3 2.032 1_455 S
O8 C11 1.259 . S
O9 Mg0 2.114 . S
O9 C12 1.252 1_455 S
O10 Mg0 2.251 1_655 S
O10 Mg3 2.079 . S
O10 C12 1.273 . S
C11 O7 1.246 . S
C11 O8 1.259 . S
C12 O9 1.252 1_655 S
C12 O10 1.273 . S
O13 Mg0 2.010 . S
O13 C5 1.249 . S
Mg14 O15 2.028 . S
Mg14 O21 1.986 . S
Mg14 O23 2.114 . S
Mg14 O24 2.251 . S
Mg14 O27 2.010 . S
O15 Mg14 2.028 . S
O15 C18 1.250 . S
O16 Mg17 2.028 1_455 S
O16 C18 1.248 . S
Mg17 O16 2.028 1_655 S
Mg17 O22 2.032 1_655 S
Mg17 O24 2.079 1_655 S
C18 O15 1.250 . S
C18 O16 1.248 . S
C19 O20 1.264 . S
C19 O27 1.249 . S
O20 C19 1.264 . S
O21 Mg14 1.986 . S
O21 C25 1.246 . S
O22 Mg17 2.032 1_455 S
O22 C25 1.259 . S
O23 Mg14 2.114 . S
O23 C26 1.252 . S
O24 Mg14 2.251 . S
O24 Mg17 2.079 1_455 S
O24 C26 1.273 . S
C25 O21 1.246 . S
C25 O22 1.259 . S
C26 O23 1.252 . S
C26 O24 1.273 . S
O27 Mg14 2.010 . S
O27 C19 1.249 . S
Mg28 O29 2.028 . S
Mg28 O35 1.986 . S
Mg28 O37 2.114 . S
Mg28 O38 2.251 . S
Mg28 O41 2.010 . S
O29 Mg28 2.028 . S
O29 C32 1.250 . S
O30 Mg31 2.028 . S
O30 C32 1.248 . S
Mg31 O30 2.028 . S
Mg31 O36 2.032 . S
Mg31 O38 2.079 . S
C32 O29 1.250 . S
C32 O30 1.248 . S
C33 O34 1.264 . S
C33 O41 1.249 . S
O34 C33 1.264 . S
O35 Mg28 1.986 . S
O35 C39 1.246 . S
O36 Mg31 2.032 . S
O36 C39 1.259 . S
O37 Mg28 2.114 . S
O37 C40 1.252 . S
O38 Mg28 2.251 . S
O38 Mg31 2.079 . S
O38 C40 1.273 . S
C39 O35 1.246 . S
C39 O36 1.259 . S
C40 O37 1.252 . S
C40 O38 1.273 . S
O41 Mg28 2.010 . S
O41 C33 1.249 . S
Mg42 O43 2.028 . S
Mg42 O49 1.986 . S
Mg42 O51 2.114 . S
Mg42 O52 2.251 . S
Mg42 O55 2.010 . S
O43 Mg42 2.028 . S
O43 C46 1.250 . S
O44 Mg45 2.028 . S
O44 C46 1.248 . S
Mg45 O44 2.028 . S
Mg45 O50 2.032 . S
Mg45 O52 2.079 . S
C46 O43 1.250 . S
C46 O44 1.248 . S
C47 O48 1.264 . S
C47 O55 1.249 . S
O48 C47 1.264 . S
O49 Mg42 1.986 . S
O49 C53 1.246 . S
O50 Mg45 2.032 . S
O50 C53 1.259 . S
O51 Mg42 2.114 . S
O51 C54 1.252 . S
O52 Mg42 2.251 . S
O52 Mg45 2.079 . S
O52 C54 1.273 . S
C53 O49 1.246 . S
C53 O50 1.259 . S
C54 O51 1.252 . S
C54 O52 1.273 . S
O55 Mg42 2.010 . S
O55 C47 1.249 . S
Mg56 O57 2.028 . S
Mg56 O63 1.986 . S
Mg56 O65 2.114 . S
Mg56 O66 2.251 . S
Mg56 O69 2.010 . S
O57 Mg56 2.028 . S
O57 C60 1.250 . S
O58 Mg59 2.028 . S
O58 C60 1.248 . S
Mg59 O58 2.028 . S
Mg59 O64 2.032 . S
Mg59 O66 2.079 . S
C60 O57 1.250 . S
C60 O58 1.248 . S
C61 O62 1.271 . S
C61 O69 1.249 . S
O62 C61 1.271 . S
O63 Mg56 1.986 . S
O63 C67 1.246 . S
O64 Mg59 2.032 . S
O64 C67 1.259 . S
O65 Mg56 2.114 . S
O65 C68 1.252 . S
O66 Mg56 2.251 . S
O66 Mg59 2.079 . S
O66 C68 1.273 . S
C67 O63 1.246 . S
C67 O64 1.259 . S
C68 O65 1.252 . S
C68 O66 1.273 . S
O69 Mg56 2.010 . S
O69 C61 1.249 . S
Mg70 O71 2.028 . S
Mg70 O77 1.986 . S
Mg70 O79 2.114 . S
Mg70 O80 2.251 . S
Mg70 O83 2.010 . S
O71 Mg70 2.028 . S
O71 C74 1.250 . S
O72 Mg73 2.028 . S
O72 C74 1.248 . S
Mg73 O72 2.028 . S
Mg73 O78 2.032 . S
Mg73 O80 2.079 . S
C74 O71 1.250 . S
C74 O72 1.248 . S
C75 O76 1.264 . S
C75 O83 1.249 . S
O76 C75 1.264 . S
O77 Mg70 1.986 . S
O77 C81 1.246 . S
O78 Mg73 2.032 . S
O78 C81 1.259 . S
O79 Mg70 2.114 . S
O79 C82 1.252 . S
O80 Mg70 2.251 . S
O80 Mg73 2.079 . S
O80 C82 1.273 . S
C81 O77 1.246 . S
C81 O78 1.259 . S
C82 O79 1.252 . S
C82 O80 1.273 . S
O83 Mg70 2.010 . S
O83 C75 1.249 . S
Mg84 O85 2.028 . S
Mg84 O91 1.986 . S
Mg84 O93 2.114 . S
Mg84 O94 2.251 . S
Mg84 O97 2.010 . S
O85 Mg84 2.028 . S
O85 C88 1.250 . S
O86 Mg87 2.028 . S
O86 C88 1.248 . S
Mg87 O86 2.028 . S
Mg87 O92 2.032 . S
Mg87 O94 2.079 . S
C88 O85 1.250 . S
C88 O86 1.248 . S
C89 O90 1.264 . S
C89 O97 1.249 . S
O90 C89 1.264 . S
O91 Mg84 1.986 . S
O91 C95 1.246 . S
O92 Mg87 2.032 . S
O92 C95 1.259 . S
O93 Mg84 2.114 . S
O93 C96 1.252 . S
O94 Mg84 2.251 . S
O94 Mg87 2.079 . S
O94 C96 1.273 . S
C95 O91 1.246 . S
C95 O92 1.259 . S
C96 O93 1.252 . S
C96 O94 1.273 . S
O97 Mg84 2.010 . S
O97 C89 1.249 . S
Mg98 O99 2.028 1_656 S
Mg98 O105 1.984 1_656 S
Mg98 O107 2.114 . S
Mg98 O108 2.251 . S
Mg98 O111 2.010 1_655 S
O99 Mg98 2.028 1_454 S
O99 C102 1.250 . S
O100 Mg101 2.028 . S
O100 C102 1.248 1_655 S
Mg101 O100 2.028 . S
Mg101 O106 2.032 . S
Mg101 O108 2.079 1_554 S
C102 O99 1.250 . S
C102 O100 1.248 1_455 S
C103 O104 1.264 . S
C103 O111 1.249 . S
O104 C103 1.264 . S
O105 Mg98 1.984 1_454 S
O105 C109 1.242 1_455 S
O106 Mg101 2.032 . S
O106 C109 1.259 . S
O107 Mg98 2.114 . S
O107 C110 1.252 . S
O108 Mg98 2.251 . S
O108 Mg101 2.079 1_556 S
O108 C110 1.273 . S
C109 O105 1.242 1_655 S
C109 O106 1.259 . S
C110 O107 1.252 . S
C110 O108 1.273 . S
O111 Mg98 2.010 1_455 S
O111 C103 1.249 . S
Mg112 O113 2.028 1_545 S
Mg112 O119 1.986 . S
Mg112 O121 2.114 . S
Mg112 O122 2.251 . S
Mg112 O125 2.010 . S
O113 Mg112 2.028 1_565 S
O113 C116 1.250 . S
O114 Mg115 2.028 1_565 S
O114 C116 1.248 . S
Mg115 O114 2.028 1_545 S
Mg115 O120 2.032 . S
Mg115 O122 2.079 . S
C116 O113 1.250 . S
C116 O114 1.248 . S
C117 O118 1.264 . S
C117 O125 1.249 . S
O118 C117 1.264 . S
O119 Mg112 1.986 . S
O119 C123 1.246 . S
O120 Mg115 2.032 . S
O120 C123 1.259 . S
O121 Mg112 2.114 . S
O121 C124 1.252 . S
O122 Mg112 2.251 . S
O122 Mg115 2.079 . S
O122 C124 1.273 . S
C123 O119 1.246 . S
C123 O120 1.259 . S
C124 O121 1.252 . S
C124 O122 1.273 . S
O125 Mg112 2.010 . S
O125 C117 1.249 . S
Mg126 O127 2.028 . S
Mg126 O133 1.986 . S
Mg126 O135 2.114 . S
Mg126 O136 2.251 . S
Mg126 O139 2.010 . S
O127 Mg126 2.028 . S
O127 C130 1.250 . S
O128 Mg129 2.028 . S
O128 C130 1.248 . S
Mg129 O128 2.028 . S
Mg129 O134 2.032 . S
Mg129 O136 2.079 . S
C130 O127 1.250 . S
C130 O128 1.248 . S
C131 O132 1.264 . S
C131 O139 1.249 . S
O132 C131 1.264 . S
O133 Mg126 1.986 . S
O133 C137 1.246 . S
O134 Mg129 2.032 . S
O134 C137 1.259 . S
O135 Mg126 2.114 . S
O135 C138 1.252 . S
O136 Mg126 2.251 . S
O136 Mg129 2.079 . S
O136 C138 1.273 . S
C137 O133 1.246 . S
C137 O134 1.259 . S
C138 O135 1.252 . S
C138 O136 1.273 . S
O139 Mg126 2.010 . S
O139 C131 1.249 . S
Mg140 O141 2.028 . S
Mg140 O147 1.986 . S
Mg140 O149 2.114 . S
Mg140 O150 2.251 1_556 S
Mg140 O153 2.010 . S
O141 Mg140 2.028 . S
O141 C144 1.250 . S
O142 Mg143 2.028 . S
O142 C144 1.248 1_554 S
Mg143 O142 2.028 . S
Mg143 O148 2.032 . S
Mg143 O150 2.079 . S
C144 O141 1.250 . S
C144 O142 1.248 1_556 S
C145 O146 1.264 . S
C145 O153 1.249 . S
O146 C145 1.264 . S
O147 Mg140 1.986 . S
O147 C151 1.246 . S
O148 Mg143 2.032 . S
O148 C151 1.259 1_554 S
O149 Mg140 2.114 . S
O149 C152 1.252 1_556 S
O150 Mg140 2.251 1_554 S
O150 Mg143 2.079 . S
O150 C152 1.273 . S
C151 O147 1.246 . S
C151 O148 1.259 1_556 S
C152 O149 1.252 1_554 S
C152 O150 1.273 . S
O153 Mg140 2.010 . S
O153 C145 1.249 . S
Mg154 O155 2.028 1_544 S
Mg154 O161 1.986 1_545 S
Mg154 O163 2.114 1_554 S
Mg154 O164 2.251 . S
Mg154 O167 2.010 . S
O155 Mg154 2.028 1_566 S
O155 C158 1.250 . S
O156 Mg157 2.028 1_556 S
O156 C158 1.248 . S
Mg157 O156 2.028 1_554 S
Mg157 O162 2.032 . S
Mg157 O164 2.079 1_565 S
C158 O155 1.250 . S
C158 O156 1.248 . S
C159 O160 1.264 . S
C159 O167 1.249 . S
O160 C159 1.264 . S
O161 Mg154 1.986 1_565 S
O161 C165 1.246 . S
O162 Mg157 2.032 . S
O162 C165 1.259 . S
O163 Mg154 2.114 1_556 S
O163 C166 1.252 1_556 S
O164 Mg154 2.251 . S
O164 Mg157 2.079 1_545 S
O164 C166 1.273 . S
C165 O161 1.246 . S
C165 O162 1.259 . S
C166 O163 1.252 1_554 S
C166 O164 1.273 . S
O167 Mg154 2.010 . S
O167 C159 1.249 . S
Mg168 O169 2.028 . S
Mg168 O175 1.986 . S
Mg168 O177 2.114 . S
Mg168 O178 2.251 . S
Mg168 O181 2.010 . S
O169 Mg168 2.028 . S
O169 C172 1.250 . S
O170 Mg171 2.028 . S
O170 C172 1.248 . S
Mg171 O170 2.028 . S
Mg171 O176 2.032 . S
Mg171 O178 2.079 . S
C172 O169 1.250 . S
C172 O170 1.248 . S
C173 O174 1.264 . S
C173 O181 1.249 . S
O174 C173 1.264 . S
O175 Mg168 1.986 . S
O175 C179 1.246 . S
O176 Mg171 2.032 . S
O176 C179 1.259 . S
O177 Mg168 2.114 . S
O177 C180 1.252 . S
O178 Mg168 2.251 . S
O178 Mg171 2.079 . S
O178 C180 1.273 . S
C179 O175 1.246 . S
C179 O176 1.259 . S
C180 O177 1.252 . S
C180 O178 1.273 . S
O181 Mg168 2.010 . S
O181 C173 1.249 . S
Mg182 O183 2.028 . S
Mg182 O189 1.986 . S
Mg182 O191 2.114 . S
Mg182 O192 2.251 . S
Mg182 O195 2.010 . S
O183 Mg182 2.028 . S
O183 C186 1.250 . S
O184 Mg185 2.028 . S
O184 C186 1.248 . S
Mg185 O184 2.028 . S
Mg185 O190 2.032 . S
Mg185 O192 2.079 . S
C186 O183 1.250 . S
C186 O184 1.248 . S
C187 O188 1.264 . S
C187 O195 1.249 . S
O188 C187 1.264 . S
O189 Mg182 1.986 . S
O189 C193 1.246 . S
O190 Mg185 2.032 . S
O190 C193 1.259 . S
O191 Mg182 2.114 . S
O191 C194 1.252 . S
O192 Mg182 2.251 . S
O192 Mg185 2.079 . S
O192 C194 1.273 . S
C193 O189 1.246 . S
C193 O190 1.259 . S
C194 O191 1.252 . S
C194 O192 1.273 . S
O195 Mg182 2.010 . S
O195 C187 1.249 . S
Mg196 O197 2.028 . S
Mg196 O203 1.986 . S
Mg196 O205 2.114 . S
Mg196 O206 2.251 . S
Mg196 O209 2.010 . S
O197 Mg196 2.028 . S
O197 C200 1.250 . S
O198 Mg199 2.028 . S
O198 C200 1.248 . S
Mg199 O198 2.028 . S
Mg199 O204 2.032 . S
Mg199 O206 2.079 . S
C200 O197 1.250 . S
C200 O198 1.248 . S
C201 O202 1.264 . S
C201 O209 1.249 . S
O202 C201 1.264 . S
O203 Mg196 1.986 . S
O203 C207 1.246 . S
O204 Mg199 2.032 . S
O204 C207 1.259 . S
O205 Mg196 2.114 . S
O205 C208 1.252 . S
O206 Mg196 2.251 . S
O206 Mg199 2.079 . S
O206 C208 1.273 . S
C207 O203 1.246 . S
C207 O204 1.259 . S
C208 O205 1.252 . S
C208 O206 1.273 . S
O209 Mg196 2.010 . S
O209 C201 1.249 . S
Mg210 O211 2.028 . S
Mg210 O217 1.986 . S
Mg210 O219 2.114 1_565 S
Mg210 O220 2.251 . S
Mg210 O223 2.010 . S
O211 Mg210 2.028 . S
O211 C214 1.250 . S
O212 Mg213 2.028 . S
O212 C214 1.248 . S
Mg213 O212 2.028 . S
Mg213 O218 2.032 . S
Mg213 O220 2.079 . S
C214 O211 1.250 . S
C214 O212 1.248 . S
C215 O216 1.264 1_565 S
C215 O223 1.249 . S
O216 C215 1.264 1_545 S
O217 Mg210 1.986 . S
O217 C221 1.246 . S
O218 Mg213 2.032 . S
O218 C221 1.259 . S
O219 Mg210 2.114 1_545 S
O219 C222 1.252 1_545 S
O220 Mg210 2.251 . S
O220 Mg213 2.079 . S
O220 C222 1.273 . S
C221 O217 1.246 . S
C221 O218 1.259 . S
C222 O219 1.252 1_565 S
C222 O220 1.273 . S
O223 Mg210 2.010 . S
O223 C215 1.249 . S
Mg224 O225 2.028 1_545 S
Mg224 O231 1.986 . S
Mg224 O233 2.114 . S
Mg224 O234 2.251 . S
Mg224 O237 2.010 . S
O225 Mg224 2.028 1_565 S
O225 C228 1.250 . S
O226 Mg227 2.028 . S
O226 C228 1.248 . S
Mg227 O226 2.028 . S
Mg227 O232 2.032 1_565 S
Mg227 O234 2.079 1_565 S
C228 O225 1.250 . S
C228 O226 1.248 . S
C229 O230 1.264 1_655 S
C229 O237 1.249 . S
O230 C229 1.264 1_455 S
O231 Mg224 1.986 . S
O231 C235 1.246 . S
O232 Mg227 2.032 1_545 S
O232 C235 1.259 . S
O233 Mg224 2.114 . S
O233 C236 1.252 . S
O234 Mg224 2.251 . S
O234 Mg227 2.079 1_545 S
O234 C236 1.273 . S
C235 O231 1.246 . S
C235 O232 1.259 . S
C236 O233 1.252 . S
C236 O234 1.273 . S
O237 Mg224 2.010 . S
O237 C229 1.249 . S
Mg238 O239 2.028 . S
Mg238 O245 1.986 . S
Mg238 O247 2.114 . S
Mg238 O248 2.251 . S
Mg238 O251 2.010 . S
O239 Mg238 2.028 . S
O239 C242 1.250 . S
O240 Mg241 2.028 . S
O240 C242 1.248 . S
Mg241 O240 2.028 . S
Mg241 O246 2.032 . S
Mg241 O248 2.079 . S
C242 O239 1.250 . S
C242 O240 1.248 . S
C243 O244 1.264 . S
C243 O251 1.249 . S
O244 C243 1.264 . S
O245 Mg238 1.986 . S
O245 C249 1.246 . S
O246 Mg241 2.032 . S
O246 C249 1.259 . S
O247 Mg238 2.114 . S
O247 C250 1.252 . S
O248 Mg238 2.251 . S
O248 Mg241 2.079 . S
O248 C250 1.273 . S
C249 O245 1.246 . S
C249 O246 1.259 . S
C250 O247 1.252 . S
C250 O248 1.273 . S
O251 Mg238 2.010 . S
O251 C243 1.249 . S
Mg252 O253 2.028 . S
Mg252 O259 1.986 . S
Mg252 O261 2.114 . S
Mg252 O262 2.251 . S
Mg252 O265 2.010 . S
O253 Mg252 2.028 . S
O253 C256 1.250 . S
O254 Mg255 2.028 . S
O254 C256 1.248 . S
Mg255 O254 2.028 . S
Mg255 O260 2.032 . S
Mg255 O262 2.079 . S
C256 O253 1.250 . S
C256 O254 1.248 . S
C257 O258 1.264 . S
C257 O265 1.249 . S
O258 C257 1.264 . S
O259 Mg252 1.986 . S
O259 C263 1.246 . S
O260 Mg255 2.032 . S
O260 C263 1.259 . S
O261 Mg252 2.114 . S
O261 C264 1.252 . S
O262 Mg252 2.251 . S
O262 Mg255 2.079 . S
O262 C264 1.273 . S
C263 O259 1.246 . S
C263 O260 1.259 . S
C264 O261 1.252 . S
C264 O262 1.273 . S
O265 Mg252 2.010 . S
O265 C257 1.249 . S
Mg266 O267 2.028 . S
Mg266 O273 1.986 . S
Mg266 O275 2.114 . S
Mg266 O276 2.251 . S
Mg266 O279 2.010 . S
O267 Mg266 2.028 . S
O267 C270 1.250 . S
O268 Mg269 2.028 . S
O268 C270 1.248 . S
Mg269 O268 2.028 . S
Mg269 O274 2.032 . S
Mg269 O276 2.079 . S
C270 O267 1.250 . S
C270 O268 1.248 . S
C271 O272 1.264 . S
C271 O279 1.249 . S
O272 C271 1.264 . S
O273 Mg266 1.986 . S
O273 C277 1.246 . S
O274 Mg269 2.032 . S
O274 C277 1.259 . S
O275 Mg266 2.114 . S
O275 C278 1.252 . S
O276 Mg266 2.251 . S
O276 Mg269 2.079 . S
O276 C278 1.273 . S
C277 O273 1.246 . S
C277 O274 1.259 . S
C278 O275 1.252 . S
C278 O276 1.273 . S
O279 Mg266 2.010 . S
O279 C271 1.249 . S
Mg280 O281 2.028 . S
Mg280 O287 1.986 . S
Mg280 O289 2.114 . S
Mg280 O290 2.251 . S
Mg280 O293 2.010 . S
O281 Mg280 2.028 . S
O281 C284 1.250 . S
O282 Mg283 2.028 . S
O282 C284 1.248 . S
Mg283 O282 2.028 . S
Mg283 O288 2.032 . S
Mg283 O290 2.079 . S
C284 O281 1.250 . S
C284 O282 1.248 . S
C285 O286 1.264 . S
C285 O293 1.249 . S
O286 C285 1.264 . S
O287 Mg280 1.986 . S
O287 C291 1.246 . S
O288 Mg283 2.032 . S
O288 C291 1.259 . S
O289 Mg280 2.114 . S
O289 C292 1.252 . S
O290 Mg280 2.251 . S
O290 Mg283 2.079 . S
O290 C292 1.273 . S
C291 O287 1.246 . S
C291 O288 1.259 . S
C292 O289 1.252 . S
C292 O290 1.273 . S
O293 Mg280 2.010 . S
O293 C285 1.249 . S
Mg294 O295 2.028 . S
Mg294 O301 1.986 . S
Mg294 O303 2.114 1_655 S
Mg294 O304 2.251 . S
Mg294 O307 2.009 . S
O295 Mg294 2.028 . S
O295 C298 1.250 . S
O296 Mg297 2.028 . S
O296 C298 1.248 . S
Mg297 O296 2.028 . S
Mg297 O302 2.032 . S
Mg297 O304 2.079 . S
C298 O295 1.250 . S
C298 O296 1.248 . S
C299 O300 1.264 . S
C299 O307 1.251 1_455 S
O300 C299 1.264 . S
O301 Mg294 1.986 . S
O301 C305 1.246 . S
O302 Mg297 2.032 . S
O302 C305 1.259 . S
O303 Mg294 2.114 1_455 S
O303 C306 1.252 . S
O304 Mg294 2.251 . S
O304 Mg297 2.079 . S
O304 C306 1.273 1_655 S
C305 O301 1.246 . S
C305 O302 1.259 . S
C306 O303 1.252 . S
C306 O304 1.273 1_455 S
O307 Mg294 2.009 . S
O307 C299 1.251 1_655 S
Mg308 O309 2.028 . S
Mg308 O315 1.986 . S
Mg308 O317 2.114 . S
Mg308 O318 2.251 . S
Mg308 O321 2.010 . S
O309 Mg308 2.028 . S
O309 C312 1.250 . S
O310 Mg311 2.028 . S
O310 C312 1.248 . S
Mg311 O310 2.028 . S
Mg311 O316 2.032 . S
Mg311 O318 2.079 . S
C312 O309 1.250 . S
C312 O310 1.248 . S
C313 O314 1.264 . S
C313 O321 1.249 . S
O314 C313 1.264 . S
O315 Mg308 1.986 . S
O315 C319 1.246 . S
O316 Mg311 2.032 . S
O316 C319 1.259 . S
O317 Mg308 2.114 . S
O317 C320 1.252 . S
O318 Mg308 2.251 . S
O318 Mg311 2.079 . S
O318 C320 1.273 . S
C319 O315 1.246 . S
C319 O316 1.259 . S
C320 O317 1.252 . S
C320 O318 1.273 . S
O321 Mg308 2.010 . S
O321 C313 1.249 . S
Mg322 O323 2.028 . S
Mg322 O329 1.986 . S
Mg322 O331 2.114 . S
Mg322 O332 2.251 . S
Mg322 O335 2.010 . S
O323 Mg322 2.028 . S
O323 C326 1.250 . S
O324 Mg325 2.028 . S
O324 C326 1.248 . S
Mg325 O324 2.028 . S
Mg325 O330 2.032 . S
Mg325 O332 2.079 . S
C326 O323 1.250 . S
C326 O324 1.248 . S
C327 O328 1.264 . S
C327 O335 1.249 . S
O328 C327 1.264 . S
O329 Mg322 1.986 . S
O329 C333 1.246 . S
O330 Mg325 2.032 . S
O330 C333 1.259 . S
O331 Mg322 2.114 . S
O331 C334 1.252 . S
O332 Mg322 2.251 . S
O332 Mg325 2.079 . S
O332 C334 1.273 . S
C333 O329 1.246 . S
C333 O330 1.259 . S
C334 O331 1.252 . S
C334 O332 1.273 . S
O335 Mg322 2.010 . S
O335 C327 1.249 . S
Tb336 C345 2.764 . S
Tb336 O346 2.325 . S
Tb336 O349 2.303 . S
Tb336 O353 2.322 . S
Tb336 O354 2.349 . S
Tb336 O357 2.415 . S
Tb336 O358 2.399 . S
Tb337 O347 2.322 . S
Tb337 O348 2.349 1_554 S
Tb337 O350 2.415 1_455 S
Tb337 O351 2.399 1_454 S
Tb337 O352 2.325 . S
Tb337 O355 2.303 . S
Tb337 C366 2.764 1_455 S
C338 O354 1.261 . S
C338 O355 1.257 . S
C339 C342 1.358 . S
C339 C343 1.332 . S
C339 C345 1.504 . S
C340 C341 1.373 . S
C340 C344 1.308 . S
C341 C340 1.373 . S
C341 C342 1.429 . S
C341 H368 0.932 . S
C342 C339 1.358 . S
C342 C341 1.429 . S
C342 H369 0.930 . S
C343 C339 1.332 . S
C343 C344 1.394 . S
C343 H370 0.932 . S
C344 C340 1.308 . S
C344 C343 1.394 . S
C344 H371 0.929 . S
C345 Tb336 2.764 . S
C345 C339 1.504 . S
C345 O357 1.239 . S
C345 O358 1.263 . S
O346 Tb336 2.325 . S
O346 C356 1.236 . S
O347 Tb337 2.322 . S
O347 C356 1.257 . S
O348 Tb337 2.349 1_556 S
O348 C359 1.260 1_556 S
O349 Tb336 2.303 . S
O349 C359 1.262 . S
O350 Tb337 2.415 1_655 S
O350 C366 1.239 . S
O351 Tb337 2.399 1_656 S
O351 C366 1.263 1_556 S
O352 Tb337 2.325 . S
O352 C367 1.236 . S
O353 Tb336 2.322 . S
O353 C367 1.257 . S
O354 Tb336 2.349 . S
O354 C338 1.261 . S
O355 Tb337 2.303 . S
O355 C338 1.257 . S
C356 O346 1.236 . S
C356 O347 1.257 . S
O357 Tb336 2.415 . S
O357 C345 1.239 . S
O358 Tb336 2.399 . S
O358 C345 1.263 . S
C359 O348 1.260 1_554 S
C359 O349 1.262 . S
C360 C363 1.358 . S
C360 C364 1.332 1_556 S
C360 C366 1.504 1_556 S
C361 C362 1.373 . S
C361 C365 1.308 1_556 S
C362 C361 1.373 . S
C362 C363 1.429 . S
C362 H372 0.932 . S
C363 C360 1.358 . S
C363 C362 1.429 . S
C363 H373 0.930 . S
C364 C360 1.332 1_554 S
C364 C365 1.394 . S
C364 H374 0.932 . S
C365 C361 1.308 1_554 S
C365 C364 1.394 . S
C365 H375 0.929 . S
C366 Tb337 2.764 1_655 S
C366 O350 1.239 . S
C366 O351 1.263 1_554 S
C366 C360 1.504 1_554 S
C367 O352 1.236 . S
C367 O353 1.257 . S
H368 C341 0.932 . S
H369 C342 0.930 . S
H370 C343 0.932 . S
H371 C344 0.929 . S
H372 C362 0.932 . S
H373 C363 0.930 . S
H374 C364 0.932 . S
H375 C365 0.929 . S
Tb376 C385 2.764 . S
Tb376 O386 2.325 . S
Tb376 O389 2.303 . S
Tb376 O393 2.322 . S
Tb376 O394 2.349 . S
Tb376 O397 2.415 . S
Tb376 O398 2.399 . S
Tb377 O387 2.322 . S
Tb377 O388 2.349 . S
Tb377 O390 2.415 . S
Tb377 O391 2.399 . S
Tb377 O392 2.325 . S
Tb377 O395 2.303 . S
Tb377 C406 2.764 . S
C378 O394 1.261 . S
C378 O395 1.257 . S
C379 C382 1.358 . S
C379 C383 1.332 . S
C379 C385 1.504 . S
C380 C381 1.373 . S
C380 C384 1.308 . S
C381 C380 1.373 . S
C381 C382 1.429 . S
C381 H408 0.932 . S
C382 C379 1.358 . S
C382 C381 1.429 . S
C382 H409 0.930 . S
C383 C379 1.332 . S
C383 C384 1.394 . S
C383 H410 0.932 . S
C384 C380 1.308 . S
C384 C383 1.394 . S
C384 H411 0.929 . S
C385 Tb376 2.764 . S
C385 C379 1.504 . S
C385 O397 1.239 . S
C385 O398 1.263 . S
O386 Tb376 2.325 . S
O386 C396 1.236 . S
O387 Tb377 2.322 . S
O387 C396 1.257 . S
O388 Tb377 2.349 . S
O388 C399 1.261 . S
O389 Tb376 2.303 . S
O389 C399 1.257 . S
O390 Tb377 2.415 . S
O390 C406 1.239 . S
O391 Tb377 2.399 . S
O391 C406 1.263 . S
O392 Tb377 2.325 . S
O392 C407 1.236 . S
O393 Tb376 2.322 . S
O393 C407 1.257 . S
O394 Tb376 2.349 . S
O394 C378 1.261 . S
O395 Tb377 2.303 . S
O395 C378 1.257 . S
C396 O386 1.236 . S
C396 O387 1.257 . S
O397 Tb376 2.415 . S
O397 C385 1.239 . S
O398 Tb376 2.399 . S
O398 C385 1.263 . S
C399 O388 1.261 . S
C399 O389 1.257 . S
C400 C403 1.358 . S
C400 C404 1.332 . S
C400 C406 1.504 . S
C401 C402 1.373 1_545 S
C401 C405 1.308 . S
C402 C401 1.373 1_565 S
C402 C403 1.429 . S
C402 H412 0.932 . S
C403 C400 1.358 . S
C403 C402 1.429 . S
C403 H413 0.930 . S
C404 C400 1.332 . S
C404 C405 1.394 1_565 S
C404 H414 0.932 1_565 S
C405 C401 1.308 . S
C405 C404 1.394 1_545 S
C405 H415 0.929 . S
C406 Tb377 2.764 . S
C406 O390 1.239 . S
C406 O391 1.263 . S
C406 C400 1.504 . S
C407 O392 1.236 . S
C407 O393 1.257 . S
H408 C381 0.932 . S
H409 C382 0.930 . S
H410 C383 0.932 . S
H411 C384 0.929 . S
H412 C402 0.932 . S
H413 C403 0.930 . S
H414 C404 0.932 1_545 S
H415 C405 0.929 . S
Tb416 C425 2.764 . S
Tb416 O426 2.325 . S
Tb416 O429 2.303 . S
Tb416 O433 2.322 . S
Tb416 O434 2.349 . S
Tb416 O437 2.415 . S
Tb416 O438 2.399 . S
Tb417 O427 2.322 . S
Tb417 O428 2.349 . S
Tb417 O430 2.415 . S
Tb417 O431 2.399 . S
Tb417 O432 2.325 . S
Tb417 O435 2.303 . S
Tb417 C446 2.764 . S
C418 O434 1.261 . S
C418 O435 1.257 . S
C419 C422 1.358 . S
C419 C423 1.332 . S
C419 C425 1.504 . S
C420 C421 1.373 . S
C420 C424 1.308 . S
C421 C420 1.373 . S
C421 C422 1.429 . S
C421 H448 0.932 . S
C422 C419 1.358 . S
C422 C421 1.429 . S
C422 H449 0.930 . S
C423 C419 1.332 . S
C423 C424 1.394 . S
C423 H450 0.932 . S
C424 C420 1.308 . S
C424 C423 1.394 . S
C424 H451 0.929 . S
C425 Tb416 2.764 . S
C425 C419 1.504 . S
C425 O437 1.239 . S
C425 O438 1.263 . S
O426 Tb416 2.325 . S
O426 C436 1.236 . S
O427 Tb417 2.322 . S
O427 C436 1.257 . S
O428 Tb417 2.349 . S
O428 C439 1.261 . S
O429 Tb416 2.303 . S
O429 C439 1.257 . S
O430 Tb417 2.415 . S
O430 C446 1.239 . S
O431 Tb417 2.399 . S
O431 C446 1.263 . S
O432 Tb417 2.325 . S
O432 C447 1.236 . S
O433 Tb416 2.322 . S
O433 C447 1.257 . S
O434 Tb416 2.349 . S
O434 C418 1.261 . S
O435 Tb417 2.303 . S
O435 C418 1.257 . S
C436 O426 1.236 . S
C436 O427 1.257 . S
O437 Tb416 2.415 . S
O437 C425 1.239 . S
O438 Tb416 2.399 . S
O438 C425 1.263 . S
C439 O428 1.261 . S
C439 O429 1.257 . S
C440 C443 1.358 . S
C440 C444 1.332 . S
C440 C446 1.504 . S
C441 C442 1.373 . S
C441 C445 1.308 . S
C442 C441 1.373 . S
C442 C443 1.429 . S
C442 H452 0.932 . S
C443 C440 1.358 . S
C443 C442 1.429 . S
C443 H453 0.930 . S
C444 C440 1.332 . S
C444 C445 1.394 . S
C444 H454 0.932 . S
C445 C441 1.308 . S
C445 C444 1.394 . S
C445 H455 0.929 1_545 S
C446 Tb417 2.764 . S
C446 O430 1.239 . S
C446 O431 1.263 . S
C446 C440 1.504 . S
C447 O432 1.236 . S
C447 O433 1.257 . S
H448 C421 0.932 . S
H449 C422 0.930 . S
H450 C423 0.932 . S
H451 C424 0.929 . S
H452 C442 0.932 . S
H453 C443 0.930 . S
H454 C444 0.932 . S
H455 C445 0.929 1_565 S
Tb456 C465 2.764 . S
Tb456 O466 2.325 . S
Tb456 O469 2.303 . S
Tb456 O473 2.322 . S
Tb456 O474 2.349 . S
Tb456 O477 2.415 . S
Tb456 O478 2.399 . S
Tb457 O467 2.322 . S
Tb457 O468 2.349 . S
Tb457 O470 2.415 . S
Tb457 O471 2.399 . S
Tb457 O472 2.325 . S
Tb457 O475 2.303 . S
Tb457 C486 2.764 . S
C458 O474 1.261 . S
C458 O475 1.257 . S
C459 C462 1.358 . S
C459 C463 1.332 . S
C459 C465 1.504 . S
C460 C461 1.373 . S
C460 C464 1.308 . S
C461 C460 1.373 . S
C461 C462 1.429 . S
C461 H488 0.932 . S
C462 C459 1.358 . S
C462 C461 1.429 . S
C462 H489 0.930 . S
C463 C459 1.332 . S
C463 C464 1.394 . S
C463 H490 0.932 . S
C464 C460 1.308 . S
C464 C463 1.394 . S
C464 H491 0.929 . S
C465 Tb456 2.764 . S
C465 C459 1.504 . S
C465 O477 1.239 . S
C465 O478 1.263 . S
O466 Tb456 2.325 . S
O466 C476 1.236 . S
O467 Tb457 2.322 . S
O467 C476 1.257 . S
O468 Tb457 2.349 . S
O468 C479 1.261 . S
O469 Tb456 2.303 . S
O469 C479 1.257 . S
O470 Tb457 2.415 . S
O470 C486 1.239 . S
O471 Tb457 2.399 . S
O471 C486 1.263 . S
O472 Tb457 2.325 . S
O472 C487 1.236 . S
O473 Tb456 2.322 . S
O473 C487 1.257 . S
O474 Tb456 2.349 . S
O474 C458 1.261 . S
O475 Tb457 2.303 . S
O475 C458 1.257 . S
C476 O466 1.236 . S
C476 O467 1.257 . S
O477 Tb456 2.415 . S
O477 C465 1.239 . S
O478 Tb456 2.399 . S
O478 C465 1.263 . S
C479 O468 1.261 . S
C479 O469 1.257 . S
C480 C483 1.358 . S
C480 C484 1.332 . S
C480 C486 1.504 . S
C481 C482 1.373 . S
C481 C485 1.308 . S
C482 C481 1.373 . S
C482 C483 1.429 . S
C482 H492 0.932 . S
C483 C480 1.358 . S
C483 C482 1.429 . S
C483 H493 0.930 . S
C484 C480 1.332 . S
C484 C485 1.394 . S
C484 H494 0.932 . S
C485 C481 1.308 . S
C485 C484 1.394 . S
C485 H495 0.929 . S
C486 Tb457 2.764 . S
C486 O470 1.239 . S
C486 O471 1.263 . S
C486 C480 1.504 . S
C487 O472 1.236 . S
C487 O473 1.257 . S
H488 C461 0.932 . S
H489 C462 0.930 . S
H490 C463 0.932 . S
H491 C464 0.929 . S
H492 C482 0.932 . S
H493 C483 0.930 . S
H494 C484 0.932 . S
H495 C485 0.929 . S
Tb496 C505 2.764 . S
Tb496 O506 2.325 . S
Tb496 O509 2.303 . S
Tb496 O513 2.322 . S
Tb496 O514 2.326 1_455 S
Tb496 O517 2.415 . S
Tb496 O518 2.399 . S
Tb497 O507 2.322 . S
Tb497 O508 2.349 . S
Tb497 O510 2.415 . S
Tb497 O511 2.399 . S
Tb497 O512 2.325 . S
Tb497 O515 2.303 . S
Tb497 C526 2.764 . S
C498 O514 1.258 . S
C498 O515 1.257 1_655 S
C499 C502 1.358 . S
C499 C503 1.332 . S
C499 C505 1.504 . S
C500 C501 1.373 . S
C500 C504 1.308 . S
C501 C500 1.373 . S
C501 C502 1.429 . S
C501 H528 0.932 . S
C502 C499 1.358 . S
C502 C501 1.429 . S
C502 H529 0.930 . S
C503 C499 1.332 . S
C503 C504 1.394 . S
C503 H530 0.932 . S
C504 C500 1.308 . S
C504 C503 1.394 . S
C504 H531 0.929 . S
C505 Tb496 2.764 . S
C505 C499 1.504 . S
C505 O517 1.239 . S
C505 O518 1.263 . S
O506 Tb496 2.325 . S
O506 C516 1.236 . S
O507 Tb497 2.322 . S
O507 C516 1.257 . S
O508 Tb497 2.349 . S
O508 C519 1.261 . S
O509 Tb496 2.303 . S
O509 C519 1.257 . S
O510 Tb497 2.415 . S
O510 C526 1.239 . S
O511 Tb497 2.399 . S
O511 C526 1.263 . S
O512 Tb497 2.325 . S
O512 C527 1.236 . S
O513 Tb496 2.322 . S
O513 C527 1.257 . S
O514 Tb496 2.326 1_655 S
O514 C498 1.258 . S
O515 Tb497 2.303 . S
O515 C498 1.257 1_455 S
C516 O506 1.236 . S
C516 O507 1.257 . S
O517 Tb496 2.415 . S
O517 C505 1.239 . S
O518 Tb496 2.399 . S
O518 C505 1.263 . S
C519 O508 1.261 . S
C519 O509 1.257 . S
C520 C523 1.358 . S
C520 C524 1.332 1_455 S
C520 C526 1.504 . S
C521 C522 1.373 1_655 S
C521 C525 1.308 . S
C522 C521 1.373 1_455 S
C522 C523 1.429 . S
C522 H532 0.932 . S
C523 C520 1.358 . S
C523 C522 1.429 . S
C523 H533 0.930 . S
C524 C520 1.332 1_655 S
C524 C525 1.394 . S
C524 H534 0.932 . S
C525 C521 1.308 . S
C525 C524 1.394 . S
C525 H535 0.929 . S
C526 Tb497 2.764 . S
C526 O510 1.239 . S
C526 O511 1.263 . S
C526 C520 1.504 . S
C527 O512 1.236 . S
C527 O513 1.257 . S
H528 C501 0.932 . S
H529 C502 0.930 . S
H530 C503 0.932 . S
H531 C504 0.929 . S
H532 C522 0.932 . S
H533 C523 0.930 . S
H534 C524 0.932 . S
H535 C525 0.929 . S
Tb536 C545 2.764 1_565 S
Tb536 O546 2.325 . S
Tb536 O549 2.303 . S
Tb536 O553 2.322 . S
Tb536 O554 2.349 . S
Tb536 O557 2.415 1_565 S
Tb536 O558 2.399 . S
Tb537 O547 2.322 . S
Tb537 O548 2.349 . S
Tb537 O550 2.415 . S
Tb537 O551 2.399 . S
Tb537 O552 2.325 . S
Tb537 O555 2.303 . S
Tb537 C566 2.764 . S
C538 O554 1.261 . S
C538 O555 1.257 . S
C539 C542 1.358 . S
C539 C543 1.332 . S
C539 C545 1.504 . S
C540 C541 1.373 . S
C540 C544 1.308 . S
C541 C540 1.373 . S
C541 C542 1.429 . S
C541 H568 0.932 . S
C542 C539 1.358 . S
C542 C541 1.429 . S
C542 H569 0.930 . S
C543 C539 1.332 . S
C543 C544 1.394 . S
C543 H570 0.932 . S
C544 C540 1.308 . S
C544 C543 1.394 . S
C544 H571 0.929 . S
C545 Tb536 2.764 1_545 S
C545 C539 1.504 . S
C545 O557 1.239 . S
C545 O558 1.263 1_545 S
O546 Tb536 2.325 . S
O546 C556 1.236 . S
O547 Tb537 2.322 . S
O547 C556 1.257 . S
O548 Tb537 2.349 . S
O548 C559 1.261 . S
O549 Tb536 2.303 . S
O549 C559 1.257 . S
O550 Tb537 2.415 . S
O550 C566 1.239 . S
O551 Tb537 2.399 . S
O551 C566 1.263 . S
O552 Tb537 2.325 . S
O552 C567 1.236 . S
O553 Tb536 2.322 . S
O553 C567 1.257 . S
O554 Tb536 2.349 . S
O554 C538 1.261 . S
O555 Tb537 2.303 . S
O555 C538 1.257 . S
C556 O546 1.236 . S
C556 O547 1.257 . S
O557 Tb536 2.415 1_545 S
O557 C545 1.239 . S
O558 Tb536 2.399 . S
O558 C545 1.263 1_565 S
C559 O548 1.261 . S
C559 O549 1.257 . S
C560 C563 1.358 . S
C560 C564 1.332 . S
C560 C566 1.504 . S
C561 C562 1.373 . S
C561 C565 1.308 . S
C562 C561 1.373 . S
C562 C563 1.429 . S
C562 H572 0.932 . S
C563 C560 1.358 . S
C563 C562 1.429 . S
C563 H573 0.930 . S
C564 C560 1.332 . S
C564 C565 1.394 . S
C564 H574 0.932 . S
C565 C561 1.308 . S
C565 C564 1.394 . S
C565 H575 0.929 . S
C566 Tb537 2.764 . S
C566 O550 1.239 . S
C566 O551 1.263 . S
C566 C560 1.504 . S
C567 O552 1.236 . S
C567 O553 1.257 . S
H568 C541 0.932 . S
H569 C542 0.930 . S
H570 C543 0.932 . S
H571 C544 0.929 . S
H572 C562 0.932 . S
H573 C563 0.930 . S
H574 C564 0.932 . S
H575 C565 0.929 . S
Tb576 C585 2.764 . S
Tb576 O586 2.325 . S
Tb576 O589 2.303 . S
Tb576 O593 2.322 . S
Tb576 O594 2.349 . S
Tb576 O597 2.415 . S
Tb576 O598 2.399 . S
Tb577 O587 2.322 . S
Tb577 O588 2.349 . S
Tb577 O590 2.415 1_554 S
Tb577 O591 2.399 1_554 S
Tb577 O592 2.325 . S
Tb577 O595 2.303 . S
Tb577 C606 2.764 1_554 S
C578 O594 1.261 . S
C578 O595 1.257 . S
C579 C582 1.358 . S
C579 C583 1.332 . S
C579 C585 1.504 . S
C580 C581 1.373 . S
C580 C584 1.308 . S
C581 C580 1.373 . S
C581 C582 1.429 . S
C581 H608 0.932 . S
C582 C579 1.358 . S
C582 C581 1.429 . S
C582 H609 0.930 . S
C583 C579 1.332 . S
C583 C584 1.394 . S
C583 H610 0.932 . S
C584 C580 1.308 . S
C584 C583 1.394 . S
C584 H611 0.929 . S
C585 Tb576 2.764 . S
C585 C579 1.504 . S
C585 O597 1.239 . S
C585 O598 1.263 . S
O586 Tb576 2.325 . S
O586 C596 1.236 . S
O587 Tb577 2.322 . S
O587 C596 1.257 . S
O588 Tb577 2.349 . S
O588 C599 1.261 . S
O589 Tb576 2.303 . S
O589 C599 1.257 . S
O590 Tb577 2.415 1_556 S
O590 C606 1.239 . S
O591 Tb577 2.399 1_556 S
O591 C606 1.263 . S
O592 Tb577 2.325 . S
O592 C607 1.236 . S
O593 Tb576 2.322 . S
O593 C607 1.257 . S
O594 Tb576 2.349 . S
O594 C578 1.261 . S
O595 Tb577 2.303 . S
O595 C578 1.257 . S
C596 O586 1.236 . S
C596 O587 1.257 . S
O597 Tb576 2.415 . S
O597 C585 1.239 . S
O598 Tb576 2.399 . S
O598 C585 1.263 . S
C599 O588 1.261 . S
C599 O589 1.257 . S
C600 C603 1.358 . S
C600 C604 1.332 . S
C600 C606 1.504 . S
C601 C602 1.373 . S
C601 C605 1.308 . S
C602 C601 1.373 . S
C602 C603 1.429 . S
C602 H612 0.932 . S
C603 C600 1.358 . S
C603 C602 1.429 . S
C603 H613 0.930 . S
C604 C600 1.332 . S
C604 C605 1.394 . S
C604 H614 0.932 . S
C605 C601 1.308 . S
C605 C604 1.394 . S
C605 H615 0.929 . S
C606 Tb577 2.764 1_556 S
C606 O590 1.239 . S
C606 O591 1.263 . S
C606 C600 1.504 . S
C607 O592 1.236 . S
C607 O593 1.257 . S
H608 C581 0.932 . S
H609 C582 0.930 . S
H610 C583 0.932 . S
H611 C584 0.929 . S
H612 C602 0.932 . S
H613 C603 0.930 . S
H614 C604 0.932 . S
H615 C605 0.929 . S
Tb616 C625 2.764 . S
Tb616 O626 2.325 . S
Tb616 O629 2.303 . S
Tb616 O633 2.322 . S
Tb616 O634 2.349 . S
Tb616 O637 2.415 . S
Tb616 O638 2.399 . S
Tb617 O627 2.322 . S
Tb617 O628 2.349 . S
Tb617 O630 2.415 . S
Tb617 O631 2.399 . S
Tb617 O632 2.325 . S
Tb617 O635 2.303 . S
Tb617 C646 2.764 . S
C618 O634 1.261 . S
C618 O635 1.257 . S
C619 C622 1.358 . S
C619 C623 1.332 . S
C619 C625 1.504 . S
C620 C621 1.373 . S
C620 C624 1.308 . S
C621 C620 1.373 . S
C621 C622 1.429 . S
C621 H648 0.932 . S
C622 C619 1.358 . S
C622 C621 1.429 . S
C622 H649 0.930 . S
C623 C619 1.332 . S
C623 C624 1.394 . S
C623 H650 0.932 . S
C624 C620 1.308 . S
C624 C623 1.394 . S
C624 H651 0.929 . S
C625 Tb616 2.764 . S
C625 C619 1.504 . S
C625 O637 1.239 . S
C625 O638 1.263 . S
O626 Tb616 2.325 . S
O626 C636 1.236 . S
O627 Tb617 2.322 . S
O627 C636 1.257 . S
O628 Tb617 2.349 . S
O628 C639 1.261 . S
O629 Tb616 2.303 . S
O629 C639 1.257 . S
O630 Tb617 2.415 . S
O630 C646 1.239 . S
O631 Tb617 2.399 . S
O631 C646 1.263 . S
O632 Tb617 2.325 . S
O632 C647 1.236 . S
O633 Tb616 2.322 . S
O633 C647 1.257 . S
O634 Tb616 2.349 . S
O634 C618 1.261 . S
O635 Tb617 2.303 . S
O635 C618 1.257 . S
C636 O626 1.236 . S
C636 O627 1.257 . S
O637 Tb616 2.415 . S
O637 C625 1.239 . S
O638 Tb616 2.399 . S
O638 C625 1.263 . S
C639 O628 1.261 . S
C639 O629 1.257 . S
C640 C643 1.358 . S
C640 C644 1.332 . S
C640 C646 1.504 . S
C641 C642 1.373 . S
C641 C645 1.308 . S
C642 C641 1.373 . S
C642 C643 1.429 . S
C642 H652 0.932 . S
C643 C640 1.358 . S
C643 C642 1.429 . S
C643 H653 0.930 . S
C644 C640 1.332 . S
C644 C645 1.394 . S
C644 H654 0.932 . S
C645 C641 1.308 . S
C645 C644 1.394 . S
C645 H655 0.929 . S
C646 Tb617 2.764 . S
C646 O630 1.239 . S
C646 O631 1.263 . S
C646 C640 1.504 . S
C647 O632 1.236 . S
C647 O633 1.257 . S
H648 C621 0.932 . S
H649 C622 0.930 . S
H650 C623 0.932 . S
H651 C624 0.929 . S
H652 C642 0.932 . S
H653 C643 0.930 . S
H654 C644 0.932 . S
H655 C645 0.929 . S
Tb656 C665 2.764 . S
Tb656 O666 2.325 . S
Tb656 O669 2.303 . S
Tb656 O673 2.322 . S
Tb656 O674 2.349 . S
Tb656 O677 2.415 . S
Tb656 O678 2.399 . S
Tb657 O667 2.322 . S
Tb657 O668 2.349 . S
Tb657 O670 2.415 1_554 S
Tb657 O671 2.399 1_554 S
Tb657 O672 2.325 . S
Tb657 O675 2.303 . S
Tb657 C686 2.764 1_554 S
C658 O674 1.261 . S
C658 O675 1.257 . S
C659 C662 1.358 . S
C659 C663 1.332 . S
C659 C665 1.504 . S
C660 C661 1.373 . S
C660 C664 1.308 . S
C661 C660 1.373 . S
C661 C662 1.429 . S
C661 H688 0.932 . S
C662 C659 1.358 . S
C662 C661 1.429 . S
C662 H689 0.930 . S
C663 C659 1.332 . S
C663 C664 1.394 . S
C663 H690 0.932 . S
C664 C660 1.308 . S
C664 C663 1.394 . S
C664 H691 0.929 . S
C665 Tb656 2.764 . S
C665 C659 1.504 . S
C665 O677 1.239 . S
C665 O678 1.263 . S
O666 Tb656 2.325 . S
O666 C676 1.236 . S
O667 Tb657 2.322 . S
O667 C676 1.257 . S
O668 Tb657 2.349 . S
O668 C679 1.261 . S
O669 Tb656 2.303 . S
O669 C679 1.257 . S
O670 Tb657 2.415 1_556 S
O670 C686 1.239 . S
O671 Tb657 2.399 1_556 S
O671 C686 1.263 . S
O672 Tb657 2.325 . S
O672 C687 1.236 . S
O673 Tb656 2.322 . S
O673 C687 1.257 . S
O674 Tb656 2.349 . S
O674 C658 1.261 . S
O675 Tb657 2.303 . S
O675 C658 1.257 . S
C676 O666 1.236 . S
C676 O667 1.257 . S
O677 Tb656 2.415 . S
O677 C665 1.239 . S
O678 Tb656 2.399 . S
O678 C665 1.263 . S
C679 O668 1.261 . S
C679 O669 1.257 . S
C680 C683 1.358 . S
C680 C684 1.332 . S
C680 C686 1.504 . S
C681 C682 1.373 . S
C681 C685 1.308 . S
C682 C681 1.373 . S
C682 C683 1.429 . S
C682 H692 0.932 . S
C683 C680 1.358 . S
C683 C682 1.429 . S
C683 H693 0.930 . S
C684 C680 1.332 . S
C684 C685 1.394 . S
C684 H694 0.932 . S
C685 C681 1.308 . S
C685 C684 1.394 . S
C685 H695 0.929 . S
C686 Tb657 2.764 1_556 S
C686 O670 1.239 . S
C686 O671 1.263 . S
C686 C680 1.504 . S
C687 O672 1.236 . S
C687 O673 1.257 . S
H688 C661 0.932 . S
H689 C662 0.930 . S
H690 C663 0.932 . S
H691 C664 0.929 . S
H692 C682 0.932 . S
H693 C683 0.930 . S
H694 C684 0.932 . S
H695 C685 0.929 . S
Tb696 C705 2.764 . S
Tb696 O706 2.325 . S
Tb696 O709 2.303 . S
Tb696 O713 2.322 . S
Tb696 O714 2.349 . S
Tb696 O717 2.415 . S
Tb696 O718 2.399 . S
Tb697 O707 2.322 . S
Tb697 O708 2.349 . S
Tb697 O710 2.415 . S
Tb697 O711 2.399 . S
Tb697 O712 2.325 . S
Tb697 O715 2.303 . S
Tb697 C726 2.764 . S
C698 O714 1.261 . S
C698 O715 1.257 . S
C699 C702 1.358 . S
C699 C703 1.332 . S
C699 C705 1.504 . S
C700 C701 1.373 . S
C700 C704 1.308 . S
C701 C700 1.373 . S
C701 C702 1.429 . S
C701 H728 0.932 . S
C702 C699 1.358 . S
C702 C701 1.429 . S
C702 H729 0.930 . S
C703 C699 1.332 . S
C703 C704 1.394 . S
C703 H730 0.932 . S
C704 C700 1.308 . S
C704 C703 1.394 . S
C704 H731 0.929 . S
C705 Tb696 2.764 . S
C705 C699 1.504 . S
C705 O717 1.239 . S
C705 O718 1.263 . S
O706 Tb696 2.325 . S
O706 C716 1.236 . S
O707 Tb697 2.322 . S
O707 C716 1.257 . S
O708 Tb697 2.349 . S
O708 C719 1.261 . S
O709 Tb696 2.303 . S
O709 C719 1.257 . S
O710 Tb697 2.415 . S
O710 C726 1.239 . S
O711 Tb697 2.399 . S
O711 C726 1.263 . S
O712 Tb697 2.325 . S
O712 C727 1.236 . S
O713 Tb696 2.322 . S
O713 C727 1.257 . S
O714 Tb696 2.349 . S
O714 C698 1.261 . S
O715 Tb697 2.303 . S
O715 C698 1.257 . S
C716 O706 1.236 . S
C716 O707 1.257 . S
O717 Tb696 2.415 . S
O717 C705 1.239 . S
O718 Tb696 2.399 . S
O718 C705 1.263 . S
C719 O708 1.261 . S
C719 O709 1.257 . S
C720 C723 1.358 . S
C720 C724 1.332 . S
C720 C726 1.504 . S
C721 C722 1.373 . S
C721 C725 1.308 . S
C722 C721 1.373 . S
C722 C723 1.429 . S
C722 H732 0.932 . S
C723 C720 1.358 . S
C723 C722 1.429 . S
C723 H733 0.930 . S
C724 C720 1.332 . S
C724 C725 1.394 . S
C724 H734 0.932 . S
C725 C721 1.308 . S
C725 C724 1.394 . S
C725 H735 0.929 . S
C726 Tb697 2.764 . S
C726 O710 1.239 . S
C726 O711 1.263 . S
C726 C720 1.504 . S
C727 O712 1.236 . S
C727 O713 1.257 . S
H728 C701 0.932 . S
H729 C702 0.930 . S
H730 C703 0.932 . S
H731 C704 0.929 . S
H732 C722 0.932 . S
H733 C723 0.930 . S
H734 C724 0.932 . S
H735 C725 0.929 . S
Tb736 C745 2.764 . S
Tb736 O746 2.325 . S
Tb736 O749 2.303 . S
Tb736 O753 2.322 . S
Tb736 O754 2.349 . S
Tb736 O757 2.415 . S
Tb736 O758 2.399 . S
Tb737 O747 2.322 . S
Tb737 O748 2.349 . S
Tb737 O750 2.415 . S
Tb737 O751 2.399 . S
Tb737 O752 2.325 . S
Tb737 O755 2.303 . S
Tb737 C766 2.764 . S
C738 O754 1.261 . S
C738 O755 1.257 . S
C739 C742 1.358 . S
C739 C743 1.332 1_455 S
C739 C745 1.504 . S
C740 C741 1.373 1_655 S
C740 C744 1.308 . S
C741 C740 1.373 1_455 S
C741 C742 1.429 . S
C741 H768 0.932 . S
C742 C739 1.358 . S
C742 C741 1.429 . S
C742 H769 0.930 . S
C743 C739 1.332 1_655 S
C743 C744 1.394 . S
C743 H770 0.932 . S
C744 C740 1.308 . S
C744 C743 1.394 . S
C744 H771 0.929 . S
C745 Tb736 2.764 . S
C745 C739 1.504 . S
C745 O757 1.239 . S
C745 O758 1.263 . S
O746 Tb736 2.325 . S
O746 C756 1.236 . S
O747 Tb737 2.322 . S
O747 C756 1.257 . S
O748 Tb737 2.349 . S
O748 C759 1.261 1_455 S
O749 Tb736 2.303 . S
O749 C759 1.257 1_455 S
O750 Tb737 2.415 . S
O750 C766 1.239 . S
O751 Tb737 2.399 . S
O751 C766 1.263 . S
O752 Tb737 2.325 . S
O752 C767 1.236 . S
O753 Tb736 2.322 . S
O753 C767 1.257 . S
O754 Tb736 2.349 . S
O754 C738 1.261 . S
O755 Tb737 2.303 . S
O755 C738 1.257 . S
C756 O746 1.236 . S
C756 O747 1.257 . S
O757 Tb736 2.415 . S
O757 C745 1.239 . S
O758 Tb736 2.399 . S
O758 C745 1.263 . S
C759 O748 1.261 1_655 S
C759 O749 1.257 1_655 S
C760 C763 1.358 . S
C760 C764 1.332 . S
C760 C766 1.504 . S
C761 C762 1.373 . S
C761 C765 1.308 . S
C762 C761 1.373 . S
C762 C763 1.429 . S
C762 H772 0.932 . S
C763 C760 1.358 . S
C763 C762 1.429 . S
C763 H773 0.930 . S
C764 C760 1.332 . S
C764 C765 1.394 . S
C764 H774 0.932 . S
C765 C761 1.308 . S
C765 C764 1.394 . S
C765 H775 0.929 . S
C766 Tb737 2.764 . S
C766 O750 1.239 . S
C766 O751 1.263 . S
C766 C760 1.504 . S
C767 O752 1.236 . S
C767 O753 1.257 . S
H768 C741 0.932 . S
H769 C742 0.930 . S
H770 C743 0.932 . S
H771 C744 0.929 . S
H772 C762 0.932 . S
H773 C763 0.930 . S
H774 C764 0.932 . S
H775 C765 0.929 . S
Tb776 C785 2.764 . S
Tb776 O786 2.325 . S
Tb776 O789 2.303 . S
Tb776 O793 2.322 . S
Tb776 O794 2.349 . S
Tb776 O797 2.415 . S
Tb776 O798 2.399 . S
Tb777 O787 2.322 . S
Tb777 O788 2.349 . S
Tb777 O790 2.415 . S
Tb777 O791 2.399 . S
Tb777 O792 2.325 . S
Tb777 O795 2.303 . S
Tb777 C806 2.764 . S
C778 O794 1.261 . S
C778 O795 1.257 . S
C779 C782 1.358 1_655 S
C779 C783 1.332 1_655 S
C779 C785 1.504 . S
C780 C781 1.373 . S
C780 C784 1.308 . S
C781 C780 1.373 . S
C781 C782 1.429 . S
C781 H808 0.932 . S
C782 C779 1.358 1_455 S
C782 C781 1.429 . S
C782 H809 0.930 1_455 S
C783 C779 1.332 1_455 S
C783 C784 1.394 . S
C783 H810 0.932 1_455 S
C784 C780 1.308 . S
C784 C783 1.394 . S
C784 H811 0.929 . S
C785 Tb776 2.764 . S
C785 C779 1.504 . S
C785 O797 1.239 . S
C785 O798 1.263 . S
O786 Tb776 2.325 . S
O786 C796 1.236 . S
O787 Tb777 2.322 . S
O787 C796 1.257 . S
O788 Tb777 2.349 . S
O788 C799 1.261 . S
O789 Tb776 2.303 . S
O789 C799 1.257 . S
O790 Tb777 2.415 . S
O790 C806 1.239 . S
O791 Tb777 2.399 . S
O791 C806 1.263 . S
O792 Tb777 2.325 . S
O792 C807 1.236 . S
O793 Tb776 2.322 . S
O793 C807 1.257 . S
O794 Tb776 2.349 . S
O794 C778 1.261 . S
O795 Tb777 2.303 . S
O795 C778 1.257 . S
C796 O786 1.236 . S
C796 O787 1.257 . S
O797 Tb776 2.415 . S
O797 C785 1.239 . S
O798 Tb776 2.399 . S
O798 C785 1.263 . S
C799 O788 1.261 . S
C799 O789 1.257 . S
C800 C803 1.358 . S
C800 C804 1.332 . S
C800 C806 1.504 . S
C801 C802 1.373 . S
C801 C805 1.308 . S
C802 C801 1.373 . S
C802 C803 1.429 . S
C802 H812 0.932 . S
C803 C800 1.358 . S
C803 C802 1.429 . S
C803 H813 0.930 . S
C804 C800 1.332 . S
C804 C805 1.394 . S
C804 H814 0.932 . S
C805 C801 1.308 . S
C805 C804 1.394 . S
C805 H815 0.929 . S
C806 Tb777 2.764 . S
C806 O790 1.239 . S
C806 O791 1.263 . S
C806 C800 1.504 . S
C807 O792 1.236 . S
C807 O793 1.257 . S
H808 C781 0.932 . S
H809 C782 0.930 1_655 S
H810 C783 0.932 1_655 S
H811 C784 0.929 . S
H812 C802 0.932 . S
H813 C803 0.930 . S
H814 C804 0.932 . S
H815 C805 0.929 . S
Tb816 C825 2.764 . S
Tb816 O826 2.325 . S
Tb816 O829 2.303 . S
Tb816 O833 2.322 . S
Tb816 O834 2.349 . S
Tb816 O837 2.415 . S
Tb816 O838 2.399 . S
Tb817 O827 2.322 . S
Tb817 O828 2.349 . S
Tb817 O830 2.415 . S
Tb817 O831 2.399 . S
Tb817 O832 2.325 . S
Tb817 O835 2.303 . S
Tb817 C846 2.764 . S
C818 O834 1.261 . S
C818 O835 1.257 . S
C819 C822 1.358 . S
C819 C823 1.332 . S
C819 C825 1.504 . S
C820 C821 1.373 . S
C820 C824 1.308 . S
C821 C820 1.373 . S
C821 C822 1.429 1_554 S
C821 H848 0.932 . S
C822 C819 1.358 . S
C822 C821 1.429 1_556 S
C822 H849 0.930 . S
C823 C819 1.332 . S
C823 C824 1.394 1_556 S
C823 H850 0.932 . S
C824 C820 1.308 . S
C824 C823 1.394 1_554 S
C824 H851 0.929 . S
C825 Tb816 2.764 . S
C825 C819 1.504 . S
C825 O837 1.239 . S
C825 O838 1.263 . S
O826 Tb816 2.325 . S
O826 C836 1.236 . S
O827 Tb817 2.322 . S
O827 C836 1.257 . S
O828 Tb817 2.349 . S
O828 C839 1.261 . S
O829 Tb816 2.303 . S
O829 C839 1.257 . S
O830 Tb817 2.415 . S
O830 C846 1.239 . S
O831 Tb817 2.399 . S
O831 C846 1.263 . S
O832 Tb817 2.325 . S
O832 C847 1.236 . S
O833 Tb816 2.322 . S
O833 C847 1.257 . S
O834 Tb816 2.349 . S
O834 C818 1.261 . S
O835 Tb817 2.303 . S
O835 C818 1.257 . S
C836 O826 1.236 . S
C836 O827 1.257 . S
O837 Tb816 2.415 . S
O837 C825 1.239 . S
O838 Tb816 2.399 . S
O838 C825 1.263 . S
C839 O828 1.261 . S
C839 O829 1.257 . S
C840 C843 1.358 . S
C840 C844 1.332 . S
C840 C846 1.504 . S
C841 C842 1.373 . S
C841 C845 1.308 . S
C842 C841 1.373 . S
C842 C843 1.429 . S
C842 H852 0.932 1_655 S
C843 C840 1.358 . S
C843 C842 1.429 . S
C843 H853 0.930 . S
C844 C840 1.332 . S
C844 C845 1.394 . S
C844 H854 0.932 . S
C845 C841 1.308 . S
C845 C844 1.394 . S
C845 H855 0.929 . S
C846 Tb817 2.764 . S
C846 O830 1.239 . S
C846 O831 1.263 . S
C846 C840 1.504 . S
C847 O832 1.236 . S
C847 O833 1.257 . S
H848 C821 0.932 . S
H849 C822 0.930 . S
H850 C823 0.932 . S
H851 C824 0.929 . S
H852 C842 0.932 1_455 S
H853 C843 0.930 . S
H854 C844 0.932 . S
H855 C845 0.929 . S
Tb856 C865 2.764 . S
Tb856 O866 2.325 . S
Tb856 O869 2.303 . S
Tb856 O873 2.322 . S
Tb856 O874 2.349 . S
Tb856 O877 2.415 . S
Tb856 O878 2.399 . S
Tb857 O867 2.322 . S
Tb857 O868 2.349 . S
Tb857 O870 2.400 1_565 S
Tb857 O871 2.399 1_565 S
Tb857 O872 2.325 . S
Tb857 O875 2.303 . S
Tb857 C886 2.764 1_565 S
C858 O874 1.261 . S
C858 O875 1.257 . S
C859 C862 1.358 . S
C859 C863 1.332 . S
C859 C865 1.504 . S
C860 C861 1.373 . S
C860 C864 1.308 . S
C861 C860 1.373 . S
C861 C862 1.429 . S
C861 H888 0.932 . S
C862 C859 1.358 . S
C862 C861 1.429 . S
C862 H889 0.930 . S
C863 C859 1.332 . S
C863 C864 1.394 . S
C863 H890 0.932 . S
C864 C860 1.308 . S
C864 C863 1.394 . S
C864 H891 0.929 . S
C865 Tb856 2.764 . S
C865 C859 1.504 . S
C865 O877 1.239 . S
C865 O878 1.263 . S
O866 Tb856 2.325 . S
O866 C876 1.236 . S
O867 Tb857 2.322 . S
O867 C876 1.257 . S
O868 Tb857 2.349 . S
O868 C879 1.261 . S
O869 Tb856 2.303 . S
O869 C879 1.257 . S
O870 Tb857 2.400 1_545 S
O870 C886 1.247 . S
O871 Tb857 2.399 1_545 S
O871 C886 1.263 . S
O872 Tb857 2.325 . S
O872 C887 1.236 . S
O873 Tb856 2.322 . S
O873 C887 1.257 . S
O874 Tb856 2.349 . S
O874 C858 1.261 . S
O875 Tb857 2.303 . S
O875 C858 1.257 . S
C876 O866 1.236 . S
C876 O867 1.257 . S
O877 Tb856 2.415 . S
O877 C865 1.239 . S
O878 Tb856 2.399 . S
O878 C865 1.263 . S
C879 O868 1.261 . S
C879 O869 1.257 . S
C880 C883 1.358 . S
C880 C884 1.332 . S
C880 C886 1.504 . S
C881 C882 1.373 . S
C881 C885 1.308 . S
C882 C881 1.373 . S
C882 C883 1.429 . S
C882 H892 0.932 . S
C883 C880 1.358 . S
C883 C882 1.429 . S
C883 H893 0.930 . S
C884 C880 1.332 . S
C884 C885 1.394 . S
C884 H894 0.932 . S
C885 C881 1.308 . S
C885 C884 1.394 . S
C885 H895 0.929 . S
C886 Tb857 2.764 1_545 S
C886 O870 1.247 . S
C886 O871 1.263 . S
C886 C880 1.504 . S
C887 O872 1.236 . S
C887 O873 1.257 . S
H888 C861 0.932 . S
H889 C862 0.930 . S
H890 C863 0.932 . S
H891 C864 0.929 . S
H892 C882 0.932 . S
H893 C883 0.930 . S
H894 C884 0.932 . S
H895 C885 0.929 . S
Tb896 C905 2.764 . S
Tb896 O906 2.325 . S
Tb896 O909 2.303 . S
Tb896 O913 2.322 . S
Tb896 O914 2.349 . S
Tb896 O917 2.415 . S
Tb896 O918 2.399 . S
Tb897 O907 2.322 . S
Tb897 O908 2.349 . S
Tb897 O910 2.415 . S
Tb897 O911 2.399 . S
Tb897 O912 2.325 . S
Tb897 O915 2.303 . S
Tb897 C926 2.764 . S
C898 O914 1.261 . S
C898 O915 1.257 . S
C899 C902 1.358 . S
C899 C903 1.332 . S
C899 C905 1.504 . S
C900 C901 1.373 . S
C900 C904 1.308 . S
C901 C900 1.373 . S
C901 C902 1.429 . S
C901 H928 0.932 . S
C902 C899 1.358 . S
C902 C901 1.429 . S
C902 H929 0.930 . S
C903 C899 1.332 . S
C903 C904 1.394 . S
C903 H930 0.932 . S
C904 C900 1.308 . S
C904 C903 1.394 . S
C904 H931 0.929 . S
C905 Tb896 2.764 . S
C905 C899 1.504 . S
C905 O917 1.239 . S
C905 O918 1.263 . S
O906 Tb896 2.325 . S
O906 C916 1.236 . S
O907 Tb897 2.322 . S
O907 C916 1.257 . S
O908 Tb897 2.349 . S
O908 C919 1.261 . S
O909 Tb896 2.303 . S
O909 C919 1.257 . S
O910 Tb897 2.415 . S
O910 C926 1.239 . S
O911 Tb897 2.399 . S
O911 C926 1.263 . S
O912 Tb897 2.325 . S
O912 C927 1.236 . S
O913 Tb896 2.322 . S
O913 C927 1.257 . S
O914 Tb896 2.349 . S
O914 C898 1.261 . S
O915 Tb897 2.303 . S
O915 C898 1.257 . S
C916 O906 1.236 . S
C916 O907 1.257 . S
O917 Tb896 2.415 . S
O917 C905 1.239 . S
O918 Tb896 2.399 . S
O918 C905 1.263 . S
C919 O908 1.261 . S
C919 O909 1.257 . S
C920 C923 1.358 . S
C920 C924 1.332 . S
C920 C926 1.504 . S
C921 C922 1.373 . S
C921 C925 1.308 . S
C922 C921 1.373 . S
C922 C923 1.429 . S
C922 H932 0.932 . S
C923 C920 1.358 . S
C923 C922 1.429 . S
C923 H933 0.930 . S
C924 C920 1.332 . S
C924 C925 1.394 . S
C924 H934 0.932 . S
C925 C921 1.308 . S
C925 C924 1.394 . S
C925 H935 0.929 . S
C926 Tb897 2.764 . S
C926 O910 1.239 . S
C926 O911 1.263 . S
C926 C920 1.504 . S
C927 O912 1.236 . S
C927 O913 1.257 . S
H928 C901 0.932 . S
H929 C902 0.930 . S
H930 C903 0.932 . S
H931 C904 0.929 . S
H932 C922 0.932 . S
H933 C923 0.930 . S
H934 C924 0.932 . S
H935 C925 0.929 . S
Tb936 C945 2.764 1_455 S
Tb936 O946 2.325 . S
Tb936 O949 2.303 . S
Tb936 O953 2.322 . S
Tb936 O954 2.349 . S
Tb936 O957 2.415 1_455 S
Tb936 O958 2.399 1_455 S
Tb937 O947 2.322 . S
Tb937 O948 2.349 1_554 S
Tb937 O950 2.415 . S
Tb937 O951 2.399 . S
Tb937 O952 2.325 . S
Tb937 O955 2.303 . S
Tb937 C966 2.764 . S
C938 O954 1.261 . S
C938 O955 1.257 . S
C939 C942 1.358 . S
C939 C943 1.332 . S
C939 C945 1.504 . S
C940 C941 1.373 . S
C940 C944 1.308 . S
C941 C940 1.373 . S
C941 C942 1.429 . S
C941 H968 0.932 . S
C942 C939 1.358 . S
C942 C941 1.429 . S
C942 H969 0.930 . S
C943 C939 1.332 . S
C943 C944 1.394 . S
C943 H970 0.932 . S
C944 C940 1.308 . S
C944 C943 1.394 . S
C944 H971 0.929 . S
C945 Tb936 2.764 1_655 S
C945 C939 1.504 . S
C945 O957 1.239 . S
C945 O958 1.263 . S
O946 Tb936 2.325 . S
O946 C956 1.236 . S
O947 Tb937 2.322 . S
O947 C956 1.257 . S
O948 Tb937 2.349 1_556 S
O948 C959 1.261 . S
O949 Tb936 2.303 . S
O949 C959 1.257 1_554 S
O950 Tb937 2.415 . S
O950 C966 1.239 . S
O951 Tb937 2.399 . S
O951 C966 1.263 . S
O952 Tb937 2.325 . S
O952 C967 1.236 . S
O953 Tb936 2.322 . S
O953 C967 1.257 . S
O954 Tb936 2.349 . S
O954 C938 1.261 . S
O955 Tb937 2.303 . S
O955 C938 1.257 . S
C956 O946 1.236 . S
C956 O947 1.257 . S
O957 Tb936 2.415 1_655 S
O957 C945 1.239 . S
O958 Tb936 2.399 1_655 S
O958 C945 1.263 . S
C959 O948 1.261 . S
C959 O949 1.257 1_556 S
C960 C963 1.358 1_554 S
C960 C964 1.332 . S
C960 C966 1.504 . S
C961 C962 1.373 1_554 S
C961 C965 1.308 . S
C962 C961 1.373 1_556 S
C962 C963 1.429 . S
C962 H972 0.932 . S
C963 C960 1.358 1_556 S
C963 C962 1.429 . S
C963 H973 0.930 . S
C964 C960 1.332 . S
C964 C965 1.394 . S
C964 H974 0.932 . S
C965 C961 1.308 . S
C965 C964 1.394 . S
C965 H975 0.929 . S
C966 Tb937 2.764 . S
C966 O950 1.239 . S
C966 O951 1.263 . S
C966 C960 1.504 . S
C967 O952 1.236 . S
C967 O953 1.257 . S
H968 C941 0.932 . S
H969 C942 0.930 . S
H970 C943 0.932 . S
H971 C944 0.929 . S
H972 C962 0.932 . S
H973 C963 0.930 . S
H974 C964 0.932 . S
H975 C965 0.929 . S
C109 C367 4.035 1_655 S
C61 C378 2.686 . S
C74 C447 2.593 1_565 S
C460 C96 1.315 . S
C25 C516 3.440 1_565 S
C567 C40 3.548 . S
C596 C46 3.431 . S
C5 C647 3.327 . S
C338 C229 2.357 1_455 S
C249 C380 2.941 . S
C418 C271 0.617 . S
C487 C172 3.639 1_556 S
C236 C521 0.272 . S
C538 C242 1.382 . S
C601 C278 1.066 . S
C618 C179 3.506 . S
C340 C159 5.098 . S
C285 C679 1.518 . S
C700 C333 4.322 . S
C759 C320 1.002 . S
C123 C620 2.842 . S
C138 C420 2.256 . S
C326 C778 3.502 . S
C847 C298 1.656 . S
C356 C67 3.691 1_545 S
C839 C110 2.698 . S
C88 C436 2.530 . S
C75 C801 1.806 . S
C527 C11 3.344 . S
C47 C716 3.602 . S
C607 C32 2.895 1_544 S
C876 C26 4.027 1_655 S
C359 C152 3.595 . S
C841 C319 2.781 . S
C124 C439 1.335 . S
C284 C796 3.588 . S
C145 C500 0.752 . S
C719 C312 1.617 . S
C117 C580 1.372 . S
C291 C879 3.168 1_554 S
C194 C361 5.897 1_554 S
C180 C658 1.916 . S
C263 C561 3.883 . S
C243 C738 1.082 . S
C881 C277 2.427 . S
C215 C441 2.661 1_565 S
C479 C256 3.019 . S
C396 C200 1.107 . S
C81 C927 4.008 . S
C818 C89 2.679 . S
C102 C967 2.597 . S
C68 C780 1.317 . S
C53 C676 3.423 . S
C727 C12 3.566 . S
C756 C18 3.387 . S
C887 C33 3.318 . S
C898 C257 2.534 . S
C193 C820 2.947 . S
C938 C201 0.622 . S
C807 C214 3.634 . S
C681 C264 0.327 . S
C186 C698 1.488 . S
C761 C208 1.064 . S
C221 C858 3.503 . S
C900 C313 4.915 . S
C131 C519 1.502 . S
C540 C151 4.241 . S
C599 C166 0.998 . S
C860 C305 2.904 . S
C292 C940 2.286 . S
C458 C144 3.495 . S
C407 C116 1.644 . S
C95 C916 3.689 . S
C399 C82 2.678 . S
C60 C956 2.531 . S
C103 C481 1.703 . S
C39 C687 3.351 1_556 S
C556 C19 3.632 . S
C4 C767 2.906 . S
C54 C636 4.026 . S
C919 C334 3.553 . S
C165 C401 3.008 1_565 S
C959 C306 1.289 . S
C130 C476 3.634 . S
C327 C660 0.716 . S
C559 C158 1.340 . S
C299 C740 1.420 1_455 S
C639 C137 3.181 . S
C921 C250 5.986 . S
C498 C222 1.962 1_545 S
C235 C721 3.979 . S
C578 C187 1.069 . S
C207 C641 2.424 . S
C173 C961 2.637 . S
C799 C228 2.926 . S
C836 C270 1.091 . S
