# Generated by pormake.
# Topology pth, (4,4)-cn, num edge types: 1
# Building blocks:
#     Node 0, Type 0, BuildingBlock: UXUYUI_clean_sbu_0, # of connection points: 4
#     Node 1, Type 0, BuildingBlock: UXUYUI_clean_sbu_0, # of connection points: 4
#     Node 2, Type 0, BuildingBlock: UXUYUI_clean_sbu_0, # of connection points: 4
#     Node 3, Type 1, BuildingBlock: KOZSID_clean_sbu_0, # of connection points: 4
#     Node 4, Type 1, BuildingBlock: KOZSID_clean_sbu_0, # of connection points: 4
#     Node 5, Type 1, BuildingBlock: KOZSID_clean_sbu_0, # of connection points: 4
#     Edge 6, Type (0, 1), BuildingBlock: MIFKUJ_clean_linker_0, # of connection points: 2
#     Edge 7, Type (0, 1), BuildingBlock: MIFKUJ_clean_linker_0, # of connection points: 2
#     Edge 8, Type (0, 1), BuildingBlock: MIFKUJ_clean_linker_0, # of connection points: 2
#     Edge 9, Type (0, 1), BuildingBlock: MIFKUJ_clean_linker_0, # of connection points: 2
#     Edge 10, Type (0, 1), BuildingBlock: MIFKUJ_clean_linker_0, # of connection points: 2
#     Edge 11, Type (0, 1), BuildingBlock: MIFKUJ_clean_linker_0, # of connection points: 2
#     Edge 12, Type (0, 1), BuildingBlock: MIFKUJ_clean_linker_0, # of connection points: 2
#     Edge 13, Type (0, 1), BuildingBlock: MIFKUJ_clean_linker_0, # of connection points: 2
#     Edge 14, Type (0, 1), BuildingBlock: MIFKUJ_clean_linker_0, # of connection points: 2
#     Edge 15, Type (0, 1), BuildingBlock: MIFKUJ_clean_linker_0, # of connection points: 2
#     Edge 16, Type (0, 1), BuildingBlock: MIFKUJ_clean_linker_0, # of connection points: 2
#     Edge 17, Type (0, 1), BuildingBlock: MIFKUJ_clean_linker_0, # of connection points: 2
# Relax obj value: 0.074
# Max RMSD: 0.211
# Mean RMSD: 0.112
data_MOF--net-pth--node1-UXUYUI_clean_sbu_0--node2-KOZSID_clean_sbu_0--edge1-MIFKUJ_clean_linker_0
_symmetry_space_group_name_H-M    P1
_symmetry_Int_Tables_number       1
_symmetry_cell_setting            triclinic
loop_
_symmetry_equiv_pos_as_xyz
'x, y, z'
_cell_length_a     39.212911
_cell_length_b     39.218185
_cell_length_c     89.148088
_cell_angle_alpha  88.200685
_cell_angle_beta   88.241781
_cell_angle_gamma 119.99865
loop_
_atom_site_label
_atom_site_type_symbol
_atom_site_fract_x
_atom_site_fract_y
_atom_site_fract_z
_atom_type_partial_charge
Li0 Li 0.09141 0.06963 0.03056 0.0
Li1 Li 0.04515 0.07033 0.0497 0.0
Li2 Li 0.06172 0.0171 0.05005 0.0
Li3 Li 0.01876 0.0174 0.03148 0.0
C4 C 0.13457 0.09943 0.05572 0.0
N5 N 0.21192 0.15251 0.06138 0.0
C6 C 0.14361 0.13294 0.0636 0.0
C7 C 0.16484 0.09286 0.05076 0.0
C8 C 0.1829 0.15943 0.06635 0.0
C9 C 0.20377 0.12006 0.05371 0.0
C10 C 0.03354 0.09894 0.01985 0.0
C11 C 0.98395 0.10829 0.00806 0.0
N12 N 0.01176 0.14607 0.00388 0.0
C13 C 0.06166 0.13774 0.01526 0.0
C14 C 0.99438 0.08398 0.01607 0.0
C15 C 0.05007 0.16115 0.00728 0.0
C16 C 0.14532 0.09223 0.00502 0.0
N17 N 0.13622 0.10462 0.01782 0.0
C18 C 0.18841 0.17059 0.01204 0.0
C19 C 0.15708 0.1429 0.02146 0.0
C20 C 0.19821 0.15894 0.99862 0.0
C21 C 0.17639 0.11911 0.99517 0.0
H22 H 0.12793 0.06167 0.00232 0.0
H23 H 0.14855 0.15228 0.03146 0.0
C24 C 0.0208 0.09457 0.07561 0.0
N25 N 0.03799 0.10613 0.0615 0.0
C26 C 0.01912 0.1218 0.08489 0.0
C27 C 0.05275 0.17221 0.06493 0.0
C28 C 0.0538 0.14404 0.05606 0.0
C29 C 0.03567 0.16136 0.07963 0.0
H30 H 0.00938 0.06443 0.0798 0.0
H31 H 0.06845 0.15276 0.04503 0.0
C32 C 0.07436 0.98204 0.02804 0.0
N33 N 0.09056 0.92112 0.02928 0.0
C34 C 0.04357 0.94296 0.02966 0.0
C35 C 0.11335 0.99016 0.02686 0.0
C36 C 0.05237 0.91257 0.03032 0.0
C37 C 0.12094 0.95894 0.02755 0.0
C38 C 0.97092 0.00373 0.05759 0.0
C39 C 0.94577 0.97068 0.06699 0.0
C40 C 0.95754 0.02861 0.05226 0.0
C41 C 0.9075 0.96276 0.07064 0.0
C42 C 0.91911 0.01975 0.05618 0.0
N43 N 0.89505 0.98723 0.0652 0.0
C44 C 0.10404 0.98776 0.06721 0.0
C45 C 0.03465 0.94705 0.06693 0.0
C46 C 0.1064 0.95968 0.07651 0.0
N47 N 0.06845 0.98101 0.06271 0.0
C48 C 0.03554 0.91855 0.07636 0.0
C49 C 0.07172 0.9248 0.08132 0.0
H50 H 0.13055 0.01481 0.06362 0.0
H51 H 0.00697 0.94198 0.06281 0.0
C52 C 0.97922 0.993 0.00455 0.0
N53 N 0.97674 0.98388 0.01953 0.0
C54 C 0.95096 0.96662 0.99523 0.0
C55 C 0.91818 0.92204 0.01695 0.0
C56 C 0.94699 0.94928 0.02583 0.0
C57 C 0.92022 0.9303 0.00139 0.0
H58 H 0.00378 0.02033 0.99979 0.0
H59 H 0.94637 0.94214 0.03767 0.0
O60 O 0.09629 0.07355 0.05274 0.0
O61 O 0.04454 0.0753 0.02745 0.0
O62 O 0.06635 0.01221 0.02784 0.0
O63 O 0.0085 0.0118 0.05385 0.0
H64 H 0.12054 0.13845 0.06756 0.0
H65 H 0.15843 0.06738 0.04448 0.0
H66 H 0.19033 0.1855 0.07242 0.0
H67 H 0.22751 0.11545 0.04986 0.0
H68 H 0.95373 0.09706 0.00513 0.0
H69 H 0.09208 0.1499 0.01794 0.0
H70 H 0.97218 0.05385 0.01921 0.0
H71 H 0.07155 0.19131 0.00377 0.0
H72 H 0.20384 0.20112 0.01498 0.0
H73 H 0.18308 0.10895 0.98493 0.0
H74 H 0.00625 0.11227 0.09623 0.0
H75 H 0.06563 0.20227 0.06036 0.0
H76 H 0.01323 0.93619 0.03063 0.0
H77 H 0.1375 0.02023 0.02546 0.0
H78 H 0.02886 0.88219 0.03171 0.0
H79 H 0.151 0.96478 0.02674 0.0
H80 H 0.95558 0.95126 0.07142 0.0
H81 H 0.97682 0.05488 0.04541 0.0
H82 H 0.88771 0.93718 0.07784 0.0
H83 H 0.90849 0.03885 0.05211 0.0
H84 H 0.13484 0.96546 0.08013 0.0
H85 H 0.00826 0.89166 0.07961 0.0
H86 H 0.95402 0.97392 0.98327 0.0
H87 H 0.89488 0.89453 0.02218 0.0
Li88 Li 0.03078 0.02293 0.36503 0.0
Li89 Li 0.07759 0.06843 0.38218 0.0
Li90 Li 0.00707 0.04625 0.38513 0.0
Li91 Li 0.04785 0.09219 0.36447 0.0
C92 C 0.01477 0.99232 0.39967 0.0
N93 N 0.97625 0.95046 0.42621 0.0
C94 C 0.03388 0.00256 0.41316 0.0
C95 C 0.97616 0.96067 0.39966 0.0
C96 C 0.01389 0.98103 0.42646 0.0
C97 C 0.95716 0.93993 0.4132 0.0
C98 C 0.12039 0.07958 0.35683 0.0
C99 C 0.1903 0.12578 0.35605 0.0
N100 N 0.1974 0.09673 0.3519 0.0
C101 C 0.12836 0.05022 0.35248 0.0
C102 C 0.15156 0.11772 0.35856 0.0
C103 C 0.1675 0.05948 0.35006 0.0
C104 C 0.02768 0.98709 0.33782 0.0
N105 N 0.02069 0.98014 0.35295 0.0
C106 C 0.00505 0.91333 0.35093 0.0
C107 C 0.00934 0.94414 0.3596 0.0
C108 C 0.01257 0.91975 0.33528 0.0
C109 C 0.02352 0.95708 0.32871 0.0
H110 H 0.03753 0.01629 0.33289 0.0
H111 H 0.0045 0.9396 0.37167 0.0
C112 C 0.13806 0.1083 0.40264 0.0
N113 N 0.123 0.07919 0.39275 0.0
C114 C 0.16941 0.11357 0.41123 0.0
C115 C 0.16961 0.05944 0.39904 0.0
C116 C 0.13782 0.05471 0.39094 0.0
C117 C 0.18548 0.0889 0.40945 0.0
H118 H 0.12509 0.12675 0.40411 0.0
H119 H 0.12432 0.0309 0.38342 0.0
C120 C 0.97187 0.02395 0.3527 0.0
N121 N 0.92739 0.98052 0.32965 0.0
C122 C 0.97916 0.04102 0.3381 0.0
C123 C 0.94186 0.98486 0.35559 0.0
C124 C 0.95634 0.01857 0.3266 0.0
C125 C 0.91975 0.96337 0.34378 0.0
C126 C 0.0585 0.13714 0.38719 0.0
C127 C 0.02674 0.14264 0.39088 0.0
C128 C 0.09584 0.16987 0.38378 0.0
C129 C 0.03283 0.18091 0.39096 0.0
C130 C 0.10071 0.20766 0.38396 0.0
N131 N 0.06937 0.21235 0.3875 0.0
C132 C 0.97366 0.04614 0.4136 0.0
C133 C 0.9285 0.02279 0.39423 0.0
C134 C 0.9446 0.04412 0.42364 0.0
N135 N 0.96521 0.03589 0.39919 0.0
C136 C 0.8986 0.02045 0.40387 0.0
C137 C 0.90669 0.03192 0.41871 0.0
H138 H 0.00342 0.05743 0.41711 0.0
H139 H 0.92281 0.01557 0.38264 0.0
C140 C 0.08414 0.15676 0.34232 0.0
N141 N 0.05279 0.13499 0.35216 0.0
C142 C 0.0852 0.18677 0.33306 0.0
C143 C 0.02193 0.17138 0.34438 0.0
C144 C 0.02195 0.14156 0.35328 0.0
C145 C 0.05374 0.19432 0.33404 0.0
H146 H 0.10802 0.15051 0.34152 0.0
H147 H 0.99704 0.12316 0.36099 0.0
O148 O 0.03354 0.01349 0.38658 0.0
O149 O 0.08229 0.071 0.35944 0.0
O150 O 0.99435 0.04517 0.36406 0.0
O151 O 0.05299 0.0999 0.38673 0.0
H152 H 0.0637 0.02704 0.41339 0.0
H153 H 0.96089 0.95252 0.38933 0.0
H154 H 0.02825 0.98871 0.437 0.0
H155 H 0.9272 0.91553 0.41337 0.0
H156 H 0.21471 0.15512 0.35743 0.0
H157 H 0.10463 0.0205 0.35114 0.0
H158 H 0.14591 0.14077 0.36191 0.0
H159 H 0.17411 0.037 0.34676 0.0
H160 H 0.99633 0.88491 0.35642 0.0
H161 H 0.03022 0.96346 0.31673 0.0
H162 H 0.18084 0.13647 0.41923 0.0
H163 H 0.18076 0.03938 0.39759 0.0
H164 H 0.00244 0.07112 0.33563 0.0
H165 H 0.93602 0.97112 0.3668 0.0
H166 H 0.96176 0.03134 0.31524 0.0
H167 H 0.8966 0.93302 0.34583 0.0
H168 H 0.99759 0.11765 0.39347 0.0
H169 H 0.12073 0.16612 0.38093 0.0
H170 H 0.00848 0.18561 0.3937 0.0
H171 H 0.1294 0.23325 0.38126 0.0
H172 H 0.95224 0.05377 0.43492 0.0
H173 H 0.86968 0.01057 0.39965 0.0
H174 H 0.1103 0.20389 0.32524 0.0
H175 H 0.99679 0.17575 0.3453 0.0
Li176 Li 0.07775 0.03568 0.69603 0.0
Li177 Li 0.07984 0.08041 0.71522 0.0
Li178 Li 0.02931 0.01009 0.71664 0.0
Li179 Li 0.02686 0.05522 0.6975 0.0
C180 C 0.089 0.01256 0.72943 0.0
N181 N 0.08869 0.96734 0.75387 0.0
C182 C 0.09456 0.0273 0.74376 0.0
C183 C 0.08357 0.97497 0.72749 0.0
C184 C 0.09426 0.00395 0.75599 0.0
C185 C 0.0834 0.95252 0.74 0.0
C186 C 0.11209 0.12632 0.68874 0.0
C187 C 0.1334 0.19545 0.6852 0.0
N188 N 0.17001 0.20283 0.68065 0.0
C189 C 0.14978 0.1345 0.68387 0.0
C190 C 0.10367 0.15694 0.68928 0.0
C191 C 0.17872 0.17341 0.67989 0.0
C192 C 0.10946 0.0313 0.6676 0.0
N193 N 0.11171 0.02791 0.68271 0.0
C194 C 0.16937 0.02239 0.67929 0.0
C195 C 0.14067 0.02324 0.68866 0.0
C196 C 0.16816 0.02616 0.66359 0.0
C197 C 0.13714 0.02992 0.6578 0.0
H198 H 0.08674 0.03608 0.66317 0.0
H199 H 0.14236 0.02168 0.70072 0.0
C200 C 0.10156 0.13361 0.73885 0.0
N201 N 0.11494 0.12303 0.72662 0.0
C202 C 0.1282 0.16188 0.74811 0.0
C203 C 0.18174 0.16823 0.73185 0.0
C204 C 0.15414 0.1395 0.72306 0.0
C205 C 0.16902 0.17937 0.74475 0.0
H206 H 0.07028 0.11906 0.74174 0.0
H207 H 0.16404 0.12947 0.71363 0.0
C208 C 0.01619 0.97942 0.68329 0.0
N209 N 0.01184 0.93575 0.65895 0.0
C210 C 0.00321 0.98617 0.66968 0.0
C211 C 0.02661 0.95022 0.68457 0.0
C212 C 0.00128 0.96382 0.6575 0.0
C213 C 0.02433 0.92854 0.67212 0.0
C214 C 0.99831 0.07016 0.72369 0.0
C215 C 0.96059 0.04433 0.73009 0.0
C216 C 0.01045 0.11003 0.7211 0.0
C217 C 0.9354 0.05883 0.73364 0.0
C218 C 0.98441 0.12338 0.7248 0.0
N219 N 0.94772 0.09771 0.73093 0.0
C220 C 0.99217 0.97324 0.74473 0.0
C221 C 0.97472 0.93011 0.72471 0.0
C222 C 0.96485 0.94262 0.75457 0.0
N223 N 0.99627 0.96652 0.7301 0.0
C224 C 0.94698 0.89867 0.73414 0.0
C225 C 0.94131 0.90488 0.74923 0.0
H226 H 0.00923 0.00272 0.74862 0.0
H227 H 0.97825 0.92573 0.71299 0.0
C228 C 0.0062 0.08834 0.67318 0.0
N229 N 0.99236 0.06531 0.68613 0.0
C230 C 0.98021 0.09248 0.66392 0.0
C231 C 0.92653 0.05008 0.68174 0.0
C232 C 0.95337 0.04609 0.69047 0.0
C233 C 0.93984 0.07307 0.66819 0.0
H234 H 0.03721 0.10246 0.66981 0.0
H235 H 0.94292 0.02666 0.70047 0.0
O236 O 0.08824 0.03455 0.71738 0.0
O237 O 0.08338 0.08841 0.69267 0.0
O238 O 0.01862 0.00122 0.6953 0.0
O239 O 0.02325 0.05643 0.72005 0.0
H240 H 0.09868 0.05628 0.74546 0.0
H241 H 0.07924 0.96317 0.71646 0.0
H242 H 0.09832 0.01488 0.76716 0.0
H243 H 0.07902 0.92328 0.73869 0.0
H244 H 0.12734 0.21947 0.68561 0.0
H245 H 0.15675 0.11112 0.68331 0.0
H246 H 0.07445 0.15101 0.69272 0.0
H247 H 0.2081 0.18021 0.67621 0.0
H248 H 0.19305 0.02031 0.68435 0.0
H249 H 0.13453 0.03239 0.64581 0.0
H250 H 0.11691 0.16881 0.75809 0.0
H251 H 0.21277 0.18111 0.72865 0.0
H252 H 0.99487 0.00852 0.6685 0.0
H253 H 0.03675 0.94465 0.69501 0.0
H254 H 0.99144 0.96883 0.64688 0.0
H255 H 0.03257 0.90604 0.67292 0.0
H256 H 0.95075 0.01336 0.73216 0.0
H257 H 0.03972 0.13045 0.71634 0.0
H258 H 0.90604 0.03915 0.73852 0.0
H259 H 0.99338 0.15417 0.72283 0.0
H260 H 0.96108 0.94883 0.76606 0.0
H261 H 0.92971 0.86995 0.72961 0.0
H262 H 0.99143 0.1103 0.65349 0.0
H263 H 0.89548 0.03409 0.68523 0.0
C264 C 0.08104 0.61602 0.18468 0.0
C265 C 0.11877 0.64624 0.1802 0.0
C266 C 0.14425 0.64132 0.18881 0.0
C267 C 0.12087 0.60882 0.19811 0.0
N268 N 0.08186 0.59237 0.19593 0.0
Co269 Co 0.03743 0.54647 0.20783 0.0
N270 N 0.07515 0.5408 0.22098 0.0
C271 C 0.11492 0.56351 0.22035 0.0
C272 C 0.13289 0.55192 0.23062 0.0
C273 C 0.10287 0.51945 0.23815 0.0
C274 C 0.06823 0.5131 0.23196 0.0
N275 N 0.99301 0.50062 0.21977 0.0
C276 C 0.994 0.47676 0.23089 0.0
C277 C 0.9564 0.44748 0.23589 0.0
C278 C 0.93067 0.45277 0.22753 0.0
C279 C 0.95392 0.48479 0.21794 0.0
N280 N 0.9997 0.55199 0.19462 0.0
C281 C 0.9599 0.52924 0.19531 0.0
C282 C 0.94199 0.53989 0.18468 0.0
C283 C 0.97206 0.57163 0.1768 0.0
C284 C 0.00672 0.57874 0.18321 0.0
N285 N 0.0404 0.50947 0.19387 0.0
C286 C 0.04359 0.45416 0.17524 0.0
C287 C 0.00779 0.45207 0.17913 0.0
C288 C 0.00686 0.47956 0.18841 0.0
C289 C 0.07797 0.48509 0.1806 0.0
C290 C 0.07574 0.51232 0.18974 0.0
N291 N 0.03432 0.58344 0.22182 0.0
C292 C 0.99605 0.60736 0.23487 0.0
C293 C 0.02985 0.63733 0.24083 0.0
C294 C 0.0659 0.63966 0.23729 0.0
C295 C 0.06748 0.61277 0.22778 0.0
C296 C 0.99889 0.58083 0.22557 0.0
H297 H 0.09592 0.61658 0.22532 0.0
H298 H 0.97197 0.55859 0.22152 0.0
H299 H 0.97854 0.47574 0.19109 0.0
H300 H 0.10291 0.53515 0.19348 0.0
C301 C 0.13461 0.59445 0.20952 0.0
C302 C 0.04534 0.61198 0.17834 0.0
C303 C 0.02974 0.47949 0.23649 0.0
C304 C 0.94011 0.49881 0.20639 0.0
H305 H 0.12721 0.67004 0.17184 0.0
H306 H 0.176 0.65991 0.18859 0.0
H307 H 0.16414 0.56499 0.23221 0.0
H308 H 0.10612 0.50195 0.24702 0.0
H309 H 0.94843 0.42415 0.24444 0.0
H310 H 0.89884 0.43467 0.22806 0.0
H311 H 0.91076 0.5265 0.18298 0.0
H312 H 0.96879 0.58804 0.16752 0.0
H313 H 0.98035 0.42935 0.175 0.0
H314 H 0.10649 0.48798 0.17801 0.0
H315 H 0.96736 0.60409 0.2375 0.0
H316 H 0.09293 0.66263 0.24159 0.0
C317 C 0.48376 0.02408 0.56307 0.0
C318 C 0.45429 0.98721 0.56879 0.0
C319 C 0.45856 0.95994 0.56113 0.0
C320 C 0.49011 0.98147 0.55117 0.0
N321 N 0.50637 0.02094 0.55199 0.0
Co322 Co 0.55276 0.06285 0.53947 0.0
N323 N 0.55684 0.02251 0.52751 0.0
C324 C 0.53142 0.98321 0.52825 0.0
C325 C 0.54134 0.96307 0.51839 0.0
C326 C 0.57536 0.99117 0.51098 0.0
C327 C 0.58437 0.02689 0.51689 0.0
N328 N 0.60079 0.1046 0.52758 0.0
C329 C 0.62543 0.10103 0.51757 0.0
C330 C 0.65742 0.13748 0.5129 0.0
C331 C 0.65292 0.16508 0.52025 0.0
C332 C 0.6188 0.14399 0.52905 0.0
N333 N 0.54726 0.10331 0.55085 0.0
C334 C 0.56947 0.14294 0.54863 0.0
C335 C 0.55793 0.16324 0.55775 0.0
C336 C 0.52602 0.13489 0.56614 0.0
C337 C 0.51985 0.09877 0.56159 0.0
N338 N 0.58812 0.06066 0.55442 0.0
C339 C 0.64175 0.05898 0.57428 0.0
C340 C 0.64082 0.09362 0.57128 0.0
C341 C 0.61414 0.09387 0.56134 0.0
C342 C 0.61486 0.02493 0.56743 0.0
C343 C 0.58819 0.02631 0.55772 0.0
N344 N 0.51736 0.06522 0.52445 0.0
C345 C 0.50258 0.10251 0.50625 0.0
C346 C 0.46565 0.06986 0.50432 0.0
C347 C 0.45517 0.03464 0.51237 0.0
C348 C 0.48145 0.03282 0.52215 0.0
C349 C 0.52763 0.09969 0.51638 0.0
H350 H 0.47181 0.00489 0.52776 0.0
H351 H 0.5549 0.12602 0.51758 0.0
H352 H 0.61555 0.12146 0.55929 0.0
H353 H 0.56812 0.99932 0.55291 0.0
C354 C 0.50187 0.96567 0.53967 0.0
C355 C 0.4875 0.06106 0.56781 0.0
C356 C 0.62033 0.06378 0.51259 0.0
C357 C 0.60255 0.16018 0.53864 0.0
H358 H 0.43117 0.98048 0.57727 0.0
H359 H 0.43981 0.92821 0.56224 0.0
H360 H 0.52656 0.93155 0.51718 0.0
H361 H 0.59227 0.98584 0.50251 0.0
H362 H 0.68178 0.14352 0.50513 0.0
H363 H 0.67245 0.19671 0.51942 0.0
H364 H 0.57139 0.19487 0.55834 0.0
H365 H 0.50924 0.14023 0.57466 0.0
H366 H 0.66134 0.12078 0.57626 0.0
H367 H 0.61425 0.9973 0.56961 0.0
H368 H 0.51173 0.13046 0.50026 0.0
H369 H 0.42689 0.00849 0.51104 0.0
C370 C 0.62291 0.57393 0.85047 0.0
C371 C 0.65035 0.56445 0.84482 0.0
C372 C 0.64391 0.53136 0.85282 0.0
C373 C 0.61289 0.52242 0.86277 0.0
N374 N 0.59884 0.54758 0.86153 0.0
Co375 Co 0.55352 0.54505 0.87356 0.0
N376 N 0.54708 0.49913 0.88648 0.0
C377 C 0.5697 0.48206 0.88577 0.0
C378 C 0.55792 0.45086 0.89597 0.0
C379 C 0.52569 0.44759 0.90361 0.0
C380 C 0.51969 0.47718 0.8976 0.0
N381 N 0.50718 0.54153 0.88525 0.0
C382 C 0.48266 0.51458 0.89609 0.0
C383 C 0.45272 0.52159 0.90073 0.0
C384 C 0.45814 0.55382 0.89237 0.0
C385 C 0.49092 0.56456 0.88314 0.0
N386 N 0.56106 0.59204 0.86103 0.0
C387 C 0.53991 0.61058 0.8623 0.0
C388 C 0.55361 0.64356 0.85287 0.0
C389 C 0.58584 0.6467 0.84526 0.0
C390 C 0.58976 0.61512 0.85044 0.0
N391 N 0.51652 0.50856 0.85917 0.0
C392 C 0.46014 0.4546 0.84029 0.0
C393 C 0.46265 0.49074 0.84283 0.0
C394 C 0.49061 0.51689 0.85225 0.0
C395 C 0.48717 0.44646 0.84707 0.0
C396 C 0.51504 0.47372 0.85629 0.0
N397 N 0.59036 0.58155 0.88793 0.0
C398 C 0.61179 0.63841 0.9029 0.0
C399 C 0.64529 0.63694 0.90674 0.0
C400 C 0.65029 0.60656 0.90135 0.0
C401 C 0.62267 0.57938 0.89203 0.0
C402 C 0.58492 0.61063 0.89363 0.0
H403 H 0.62833 0.55719 0.88811 0.0
H404 H 0.56015 0.61357 0.89112 0.0
H405 H 0.49035 0.54351 0.85382 0.0
H406 H 0.53469 0.46566 0.8611 0.0
C407 C 0.59906 0.49325 0.87437 0.0
C408 C 0.62205 0.60915 0.84541 0.0
C409 C 0.48617 0.48162 0.90217 0.0
C410 C 0.50741 0.59636 0.87252 0.0
H411 H 0.67326 0.58037 0.83607 0.0
H412 H 0.6607 0.51639 0.85184 0.0
H413 H 0.57033 0.4318 0.89729 0.0
H414 H 0.50794 0.42515 0.91231 0.0
H415 H 0.42924 0.50492 0.90922 0.0
H416 H 0.44018 0.56762 0.89288 0.0
H417 H 0.54194 0.66332 0.85184 0.0
H418 H 0.60468 0.67002 0.83701 0.0
H419 H 0.44314 0.49904 0.83757 0.0
H420 H 0.48642 0.41881 0.84556 0.0
H421 H 0.60618 0.66089 0.90708 0.0
H422 H 0.67585 0.60425 0.904 0.0
H423 H 0.09619 0.23669 0.0823 0.0
H424 H 0.09798 0.28625 0.09864 0.0
H425 H 0.98007 0.20363 0.11632 0.0
H426 H 0.97746 0.15424 0.09955 0.0
H427 H 0.98816 0.27449 0.11062 0.0
H428 H 0.06024 0.22445 0.13651 0.0
H429 H 0.11107 0.20566 0.13955 0.0
H430 H 0.20203 0.32565 0.12938 0.0
H431 H 0.1517 0.34507 0.12606 0.0
H432 H 0.99018 0.375 0.17569 0.0
H433 H 0.98998 0.32629 0.15929 0.0
H434 H 0.0998 0.41535 0.13737 0.0
H435 H 0.09962 0.46491 0.15335 0.0
H436 H 0.09631 0.34193 0.1453 0.0
H437 H 0.02222 0.39096 0.11957 0.0
H438 H 0.97023 0.40842 0.11735 0.0
H439 H 0.88148 0.28798 0.12828 0.0
H440 H 0.93303 0.2699 0.13079 0.0
C441 C 0.07042 0.22915 0.08953 0.0
C442 C 0.03662 0.19148 0.08959 0.0
C443 C 0.07168 0.2574 0.09899 0.0
C444 C 0.03936 0.24849 0.10885 0.0
C445 C 0.00542 0.21108 0.10885 0.0
C446 C 0.00409 0.18279 0.09935 0.0
C447 C 0.04088 0.2784 0.11902 0.0
C448 C 0.01151 0.28882 0.11834 0.0
C449 C 0.0718 0.29769 0.12889 0.0
C450 C 0.10217 0.28614 0.13089 0.0
C451 C 0.09107 0.24678 0.1348 0.0
C452 C 0.1198 0.23602 0.13659 0.0
C453 C 0.15975 0.26442 0.13462 0.0
C454 C 0.17107 0.30367 0.13088 0.0
C455 C 0.14245 0.31457 0.12905 0.0
C456 C 0.01412 0.3845 0.16728 0.0
C457 C 0.0447 0.42411 0.16575 0.0
C458 C 0.01405 0.35649 0.15799 0.0
C459 C 0.0447 0.36735 0.14707 0.0
C460 C 0.0759 0.40646 0.14577 0.0
C461 C 0.0758 0.43468 0.15496 0.0
C462 C 0.04363 0.33785 0.13686 0.0
C463 C 0.07303 0.32754 0.13754 0.0
C464 C 0.01258 0.31842 0.12709 0.0
C465 C 0.98151 0.32916 0.12552 0.0
C466 C 0.99164 0.36826 0.12163 0.0
C467 C 0.96225 0.37826 0.1203 0.0
C468 C 0.92258 0.34935 0.12271 0.0
C469 C 0.91222 0.31035 0.12643 0.0
C470 C 0.94152 0.30021 0.1278 0.0
H471 H 0.89986 0.35714 0.12167 0.0
H472 H 0.18195 0.25604 0.13602 0.0
H473 H 0.88833 0.00894 0.44861 0.0
H474 H 0.8406 0.01483 0.4651 0.0
H475 H 0.80954 0.06475 0.42779 0.0
H476 H 0.85768 0.05976 0.41134 0.0
H477 H 0.82101 0.10649 0.45277 0.0
H478 H 0.74908 0.97074 0.44017 0.0
H479 H 0.73784 0.90343 0.43788 0.0
H480 H 0.74498 0.89197 0.48557 0.0
H481 H 0.75683 0.95947 0.48812 0.0
H482 H 0.6425 0.08799 0.48319 0.0
H483 H 0.69276 0.08314 0.46777 0.0
H484 H 0.71857 0.03163 0.50616 0.0
H485 H 0.66804 0.03627 0.5215 0.0
H486 H 0.71128 0.99119 0.48139 0.0
H487 H 0.78086 0.12608 0.49418 0.0
H488 H 0.79133 0.19307 0.49653 0.0
H489 H 0.78879 0.20638 0.44865 0.0
H490 H 0.77762 0.13916 0.44603 0.0
C491 C 0.87135 0.02121 0.44394 0.0
C492 C 0.8766 0.03367 0.42866 0.0
C493 C 0.84395 0.02434 0.45334 0.0
C494 C 0.82135 0.03999 0.44764 0.0
C495 C 0.82663 0.05253 0.43241 0.0
C496 C 0.85386 0.04928 0.423 0.0
C497 C 0.79247 0.04374 0.45754 0.0
C498 C 0.79674 0.08123 0.4589 0.0
C499 C 0.76144 0.01091 0.46582 0.0
C500 C 0.75427 0.97031 0.46432 0.0
C501 C 0.7486 0.954 0.45015 0.0
C502 C 0.74205 0.91579 0.44881 0.0
C503 C 0.74081 0.89348 0.46156 0.0
C504 C 0.74602 0.90931 0.4757 0.0
C505 C 0.75262 0.94753 0.4771 0.0
C506 C 0.65931 0.07605 0.48828 0.0
C507 C 0.65205 0.06287 0.50346 0.0
C508 C 0.68791 0.07329 0.47953 0.0
C509 C 0.70967 0.05738 0.48587 0.0
C510 C 0.70218 0.04406 0.50106 0.0
C511 C 0.6736 0.04685 0.50981 0.0
C512 C 0.73966 0.05391 0.47656 0.0
C513 C 0.73563 0.01649 0.47532 0.0
C514 C 0.77095 0.08682 0.4684 0.0
C515 C 0.77804 0.12742 0.46992 0.0
C516 C 0.78223 0.14316 0.48416 0.0
C517 C 0.78832 0.1812 0.48554 0.0
C518 C 0.79064 0.20394 0.47275 0.0
C519 C 0.78695 0.18871 0.45855 0.0
C520 C 0.78076 0.15065 0.45711 0.0
H521 H 0.79537 0.23338 0.47385 0.0
H522 H 0.73573 0.8639 0.4605 0.0
H523 H 0.94432 0.88514 0.77874 0.0
H524 H 0.89055 0.83429 0.7952 0.0
H525 H 0.81284 0.80143 0.75848 0.0
H526 H 0.86609 0.85271 0.74208 0.0
H527 H 0.77832 0.80894 0.78399 0.0
H528 H 0.84993 0.74425 0.76966 0.0
H529 H 0.9086 0.73698 0.76643 0.0
H530 H 0.92274 0.74286 0.81402 0.0
H531 H 0.86442 0.75074 0.81751 0.0
H532 H 0.62148 0.62745 0.81574 0.0
H533 H 0.67683 0.67757 0.79949 0.0
H534 H 0.75227 0.70876 0.83694 0.0
H535 H 0.69686 0.65844 0.85313 0.0
H536 H 0.78845 0.70258 0.81144 0.0
H537 H 0.7163 0.76618 0.82587 0.0
H538 H 0.65709 0.7725 0.8292 0.0
H539 H 0.64403 0.76884 0.78153 0.0
H540 H 0.70279 0.76176 0.77794 0.0
C541 C 0.91576 0.86709 0.77419 0.0
C542 C 0.9095 0.87284 0.75909 0.0
C543 C 0.88516 0.8379 0.78357 0.0
C544 C 0.84779 0.8139 0.77802 0.0
C545 C 0.84148 0.81956 0.76297 0.0
C546 C 0.87205 0.84863 0.75358 0.0
C547 C 0.81496 0.78341 0.78797 0.0
C548 C 0.78033 0.78538 0.78984 0.0
C549 C 0.81801 0.75328 0.79589 0.0
C550 C 0.85305 0.7485 0.79383 0.0
C551 C 0.86575 0.74434 0.77942 0.0
C552 C 0.8989 0.74004 0.77755 0.0
C553 C 0.91945 0.73957 0.79001 0.0
C554 C 0.90682 0.7433 0.80438 0.0
C555 C 0.87371 0.74765 0.80631 0.0
C556 C 0.64991 0.64525 0.82043 0.0
C557 C 0.65518 0.63972 0.83561 0.0
C558 C 0.6814 0.67376 0.8112 0.0
C559 C 0.71854 0.69714 0.81706 0.0
C560 C 0.72386 0.69108 0.83221 0.0
C561 C 0.69234 0.66261 0.84144 0.0
C562 C 0.75177 0.72802 0.80739 0.0
C563 C 0.78648 0.72617 0.8056 0.0
C564 C 0.74882 0.75831 0.79955 0.0
C565 C 0.71375 0.76306 0.80165 0.0
C566 C 0.70064 0.76642 0.81611 0.0
C567 C 0.66717 0.77016 0.81804 0.0
C568 C 0.64676 0.77098 0.80559 0.0
C569 C 0.65984 0.76815 0.79117 0.0
C570 C 0.69324 0.76429 0.78918 0.0
H571 H 0.62086 0.77389 0.8071 0.0
H572 H 0.94511 0.73623 0.78853 0.0
H573 H 0.11881 0.89212 0.0785 0.0
H574 H 0.11747 0.83976 0.09484 0.0
H575 H 0.02592 0.83821 0.12344 0.0
H576 H 0.02691 0.89017 0.10713 0.0
H577 H 0.0888 0.83727 0.13902 0.0
H578 H 0.99905 0.77092 0.09972 0.0
H579 H 0.98202 0.75807 0.0733 0.0
H580 H 0.07101 0.72596 0.06651 0.0
H581 H 0.08896 0.73921 0.09285 0.0
H582 H 0.0161 0.66086 0.18294 0.0
H583 H 0.02212 0.71413 0.16598 0.0
H584 H 0.08856 0.68812 0.13337 0.0
H585 H 0.08003 0.63303 0.14998 0.0
H586 H 0.04338 0.7053 0.11921 0.0
H587 H 0.13269 0.76765 0.15773 0.0
H588 H 0.15364 0.78182 0.18369 0.0
H589 H 0.07294 0.82412 0.19149 0.0
H590 H 0.05106 0.80965 0.16564 0.0
C591 C 0.09871 0.8808 0.08836 0.0
C592 C 0.07283 0.89495 0.09155 0.0
C593 C 0.09786 0.85088 0.09762 0.0
C594 C 0.07145 0.83509 0.11027 0.0
C595 C 0.04647 0.85005 0.11371 0.0
C596 C 0.04692 0.8795 0.10437 0.0
C597 C 0.06882 0.80209 0.11973 0.0
C598 C 0.07859 0.80829 0.13477 0.0
C599 C 0.05668 0.76476 0.11398 0.0
C600 C 0.04563 0.75647 0.0982 0.0
C601 C 0.01521 0.76145 0.09256 0.0
C602 C 0.00535 0.75403 0.07761 0.0
C603 C 0.0255 0.74132 0.06822 0.0
C604 C 0.05547 0.73588 0.07378 0.0
C605 C 0.06548 0.74331 0.08872 0.0
C606 C 0.03163 0.66643 0.17207 0.0
C607 C 0.04807 0.64341 0.16777 0.0
C608 C 0.03545 0.69707 0.16246 0.0
C609 C 0.0568 0.70597 0.14854 0.0
C610 C 0.07225 0.68211 0.14408 0.0
C611 C 0.0676 0.65085 0.15357 0.0
C612 C 0.06302 0.74014 0.13869 0.0
C613 C 0.05394 0.73426 0.12353 0.0
C614 C 0.07656 0.77803 0.14427 0.0
C615 C 0.09002 0.78727 0.15978 0.0
C616 C 0.11925 0.77978 0.165 0.0
C617 C 0.1313 0.78787 0.1797 0.0
C618 C 0.11458 0.8038 0.18924 0.0
C619 C 0.08584 0.81176 0.18409 0.0
C620 C 0.07363 0.80366 0.16941 0.0
H621 H 0.12392 0.81002 0.20062 0.0
H622 H 0.01782 0.73559 0.05665 0.0
H623 H 0.25516 0.09466 0.40023 0.0
H624 H 0.30542 0.09515 0.41599 0.0
H625 H 0.23633 0.08879 0.45575 0.0
H626 H 0.18696 0.09009 0.43996 0.0
H627 H 0.30916 0.13469 0.46046 0.0
H628 H 0.23736 0.0059 0.44168 0.0
H629 H 0.20856 0.95652 0.42252 0.0
H630 H 0.32413 0.99556 0.40258 0.0
H631 H 0.3536 0.04558 0.42151 0.0
H632 H 0.38939 0.04965 0.51091 0.0
H633 H 0.34404 0.05635 0.49429 0.0
H634 H 0.43406 0.10277 0.45828 0.0
H635 H 0.47985 0.09696 0.47496 0.0
H636 H 0.35264 0.03757 0.45163 0.0
H637 H 0.4226 0.16603 0.47247 0.0
H638 H 0.44749 0.21085 0.49326 0.0
H639 H 0.32905 0.16554 0.51136 0.0
H640 H 0.30349 0.11998 0.49078 0.0
C641 C 0.25099 0.09371 0.41234 0.0
C642 C 0.21723 0.0922 0.41891 0.0
C643 C 0.27955 0.09374 0.42134 0.0
C644 C 0.2743 0.09108 0.43709 0.0
C645 C 0.24107 0.09077 0.44365 0.0
C646 C 0.21289 0.09152 0.43463 0.0
C647 C 0.3029 0.08774 0.44674 0.0
C648 C 0.31827 0.11314 0.45858 0.0
C649 C 0.31524 0.05988 0.44428 0.0
C650 C 0.29764 0.02976 0.43291 0.0
C651 C 0.25661 0.00415 0.43314 0.0
C652 C 0.24017 0.97602 0.42234 0.0
C653 C 0.26449 0.97298 0.41132 0.0
C654 C 0.30532 0.998 0.41111 0.0
C655 C 0.32191 0.02623 0.42188 0.0
C656 C 0.39937 0.06113 0.49943 0.0
C657 C 0.438 0.0728 0.49417 0.0
C658 C 0.37358 0.06507 0.49 0.0
C659 C 0.38587 0.08014 0.47512 0.0
C660 C 0.42418 0.09113 0.46975 0.0
C661 C 0.45024 0.08793 0.47926 0.0
C662 C 0.35862 0.08446 0.46518 0.0
C663 C 0.3435 0.05916 0.45337 0.0
C664 C 0.34588 0.11175 0.46786 0.0
C665 C 0.36118 0.13931 0.48017 0.0
C666 C 0.40189 0.16535 0.48096 0.0
C667 C 0.41611 0.19095 0.49269 0.0
C668 C 0.38987 0.19097 0.50365 0.0
C669 C 0.34934 0.16545 0.50288 0.0
C670 C 0.33497 0.13976 0.49118 0.0
H671 H 0.40094 0.21081 0.51272 0.0
H672 H 0.25171 0.95118 0.40296 0.0
H673 H 0.16413 0.23574 0.76081 0.0
H674 H 0.21168 0.28119 0.77776 0.0
H675 H 0.28839 0.23439 0.76811 0.0
H676 H 0.23993 0.18708 0.75202 0.0
H677 H 0.28766 0.24471 0.79651 0.0
H678 H 0.30432 0.32506 0.75204 0.0
H679 H 0.28326 0.35374 0.73184 0.0
H680 H 0.24399 0.40639 0.76458 0.0
H681 H 0.26436 0.37759 0.78499 0.0
H682 H 0.46635 0.40506 0.82065 0.0
H683 H 0.41528 0.35744 0.80524 0.0
H684 H 0.33355 0.39169 0.82253 0.0
H685 H 0.38378 0.4383 0.83841 0.0
H686 H 0.33608 0.38823 0.79089 0.0
H687 H 0.3226 0.30864 0.83528 0.0
H688 H 0.3466 0.28135 0.8549 0.0
H689 H 0.38334 0.22857 0.8213 0.0
H690 H 0.36009 0.25607 0.80145 0.0
C691 C 0.19088 0.23473 0.76242 0.0
C692 C 0.19819 0.20782 0.7549 0.0
C693 C 0.21832 0.26114 0.77199 0.0
C694 C 0.25402 0.26176 0.77403 0.0
C695 C 0.2612 0.23469 0.76667 0.0
C696 C 0.23359 0.20794 0.75728 0.0
C697 C 0.28388 0.29039 0.78386 0.0
C698 C 0.29855 0.27613 0.79513 0.0
C699 C 0.29766 0.33138 0.7823 0.0
C700 C 0.2855 0.34883 0.77005 0.0
C701 C 0.29093 0.34251 0.75493 0.0
C702 C 0.27916 0.35883 0.74345 0.0
C703 C 0.2622 0.38178 0.74693 0.0
C704 C 0.25708 0.38856 0.7619 0.0
C705 C 0.26876 0.37228 0.77343 0.0
C706 C 0.43739 0.40215 0.82136 0.0
C707 C 0.4293 0.42565 0.8308 0.0
C708 C 0.40831 0.37506 0.81247 0.0
C709 C 0.37068 0.37105 0.81279 0.0
C710 C 0.36251 0.39454 0.82208 0.0
C711 C 0.39139 0.42133 0.83108 0.0
C712 C 0.33984 0.34246 0.80337 0.0
C713 C 0.32504 0.35677 0.79222 0.0
C714 C 0.32628 0.30161 0.80492 0.0
C715 C 0.33994 0.28474 0.81686 0.0
C716 C 0.33609 0.29149 0.83206 0.0
C717 C 0.3495 0.27594 0.84323 0.0
C718 C 0.36657 0.25333 0.83935 0.0
C719 C 0.37015 0.24613 0.82429 0.0
C720 C 0.35683 0.26166 0.81308 0.0
H721 H 0.37695 0.24132 0.84801 0.0
H722 H 0.2531 0.39439 0.73802 0.0
H723 H 0.93127 0.05724 0.63861 0.0
H724 H 0.88086 0.05526 0.62259 0.0
H725 H 0.83403 0.09168 0.65927 0.0
H726 H 0.8834 0.0918 0.6755 0.0
H727 H 0.77638 0.03634 0.64676 0.0
H728 H 0.89076 0.15492 0.62741 0.0
H729 H 0.95908 0.19659 0.61701 0.0
H730 H 0.9325 0.12543 0.57872 0.0
H731 H 0.86413 0.083 0.58898 0.0
H732 H 0.66094 0.09009 0.60179 0.0
H733 H 0.71184 0.09241 0.6177 0.0
H734 H 0.74047 0.03051 0.58504 0.0
H735 H 0.68952 0.02805 0.56907 0.0
H736 H 0.80686 0.09906 0.59522 0.0
H737 H 0.69081 0.98129 0.61548 0.0
H738 H 0.62243 0.94296 0.62617 0.0
H739 H 0.65304 0.0182 0.66333 0.0
H740 H 0.72151 0.05735 0.65274 0.0
C741 C 0.91044 0.06524 0.64316 0.0
C742 C 0.91125 0.07489 0.65823 0.0
C743 C 0.88171 0.06424 0.634 0.0
C744 C 0.8539 0.07394 0.63961 0.0
C745 C 0.85508 0.08405 0.65465 0.0
C746 C 0.88332 0.08427 0.6639 0.0
C747 C 0.82271 0.07211 0.63 0.0
C748 C 0.78324 0.05063 0.63559 0.0
C749 C 0.83135 0.09002 0.61527 0.0
C750 C 0.87242 0.11557 0.60904 0.0
C751 C 0.89956 0.14799 0.61682 0.0
C752 C 0.93828 0.17177 0.61095 0.0
C753 C 0.95015 0.1636 0.59723 0.0
C754 C 0.92328 0.13169 0.58935 0.0
C755 C 0.88453 0.10779 0.59518 0.0
C756 C 0.67806 0.07693 0.59803 0.0
C757 C 0.67127 0.05882 0.58423 0.0
C758 C 0.70697 0.07814 0.60714 0.0
C759 C 0.72977 0.06152 0.60254 0.0
C760 C 0.72311 0.04346 0.58877 0.0
C761 C 0.69386 0.04181 0.57973 0.0
C762 C 0.76097 0.06352 0.61205 0.0
C763 C 0.80029 0.08495 0.60642 0.0
C764 C 0.75229 0.04614 0.62682 0.0
C765 C 0.71119 0.02248 0.63324 0.0
C766 C 0.68288 0.98987 0.62586 0.0
C767 C 0.64412 0.96795 0.63192 0.0
C768 C 0.63337 0.9782 0.6454 0.0
C769 C 0.66139 0.01032 0.65288 0.0
C770 C 0.70019 0.03236 0.64686 0.0
H771 H 0.60335 0.96119 0.65007 0.0
H772 H 0.98014 0.18205 0.5927 0.0
H773 H 0.89186 0.85082 0.00297 0.0
H774 H 0.84555 0.80164 0.98669 0.0
H775 H 0.83847 0.89278 0.96101 0.0
H776 H 0.88404 0.94216 0.97757 0.0
H777 H 0.76622 0.82817 0.96696 0.0
H778 H 0.89296 0.85472 0.94742 0.0
H779 H 0.95893 0.86186 0.94868 0.0
H780 H 0.90657 0.74034 0.96405 0.0
H781 H 0.84026 0.73262 0.96309 0.0
H782 H 0.67404 0.7164 0.90468 0.0
H783 H 0.72106 0.76619 0.92061 0.0
H784 H 0.73067 0.67611 0.94597 0.0
H785 H 0.68357 0.62603 0.93001 0.0
H786 H 0.80189 0.74057 0.94006 0.0
H787 H 0.67529 0.71404 0.95985 0.0
H788 H 0.60923 0.70673 0.9587 0.0
H789 H 0.66118 0.82798 0.94302 0.0
H790 H 0.72758 0.83587 0.94388 0.0
C791 C 0.88012 0.86039 0.99397 0.0
C792 C 0.8916 0.90043 0.99158 0.0
C793 C 0.85397 0.83228 0.98457 0.0
C794 C 0.83895 0.84362 0.97253 0.0
C795 C 0.84987 0.88344 0.97021 0.0
C796 C 0.8761 0.91163 0.97961 0.0
C797 C 0.81169 0.81381 0.9624 0.0
C798 C 0.77421 0.8094 0.9609 0.0
C799 C 0.82181 0.78868 0.95479 0.0
C800 C 0.86165 0.7932 0.95532 0.0
C801 C 0.89552 0.8296 0.95119 0.0
C802 C 0.93297 0.83374 0.95182 0.0
C803 C 0.93694 0.8016 0.95648 0.0
C804 C 0.90345 0.76522 0.96047 0.0
C805 C 0.86592 0.76094 0.95986 0.0
C806 C 0.68595 0.70713 0.91371 0.0
C807 C 0.67481 0.66722 0.91618 0.0
C808 C 0.71286 0.73563 0.9228 0.0
C809 C 0.72891 0.72479 0.93463 0.0
C810 C 0.71857 0.68511 0.93691 0.0
C811 C 0.69174 0.65655 0.92778 0.0
C812 C 0.75638 0.75489 0.94463 0.0
C813 C 0.7939 0.75936 0.94611 0.0
C814 C 0.74628 0.78004 0.95224 0.0
C815 C 0.70639 0.77543 0.95179 0.0
C816 C 0.67262 0.73906 0.95605 0.0
C817 C 0.63511 0.73483 0.95547 0.0
C818 C 0.631 0.76684 0.95075 0.0
C819 C 0.66441 0.80319 0.94665 0.0
C820 C 0.70199 0.80758 0.94719 0.0
H821 H 0.60194 0.7635 0.95031 0.0
H822 H 0.96597 0.80486 0.95697 0.0
H823 H 0.04168 0.87083 0.34151 0.0
H824 H 0.04253 0.82163 0.32557 0.0
H825 H 0.98208 0.84925 0.29189 0.0
H826 H 0.98057 0.8982 0.30791 0.0
H827 H 0.95249 0.76842 0.29675 0.0
H828 H 0.07812 0.8866 0.28709 0.0
H829 H 0.14079 0.94317 0.29409 0.0
H830 H 0.17482 0.86415 0.3139 0.0
H831 H 0.11205 0.80708 0.3072 0.0
H832 H 0.99006 0.67694 0.23617 0.0
H833 H 0.98569 0.72396 0.25234 0.0
H834 H 0.05918 0.70892 0.28384 0.0
H835 H 0.06436 0.66252 0.26749 0.0
H836 H 0.08154 0.78358 0.28016 0.0
H837 H 0.95695 0.66536 0.29017 0.0
H838 H 0.89399 0.60802 0.28386 0.0
H839 H 0.85748 0.68532 0.26431 0.0
H840 H 0.92047 0.74314 0.27032 0.0
C841 C 0.02806 0.86605 0.33081 0.0
C842 C 0.01111 0.88843 0.32594 0.0
C843 C 0.02885 0.83816 0.32167 0.0
C844 C 0.01275 0.83214 0.3075 0.0
C845 C 0.99479 0.85358 0.30278 0.0
C846 C 0.99417 0.88168 0.31188 0.0
C847 C 0.01554 0.80412 0.29747 0.0
C848 C 0.98067 0.77192 0.29295 0.0
C849 C 0.05233 0.8083 0.29284 0.0
C850 C 0.09022 0.84258 0.29677 0.0
C851 C 0.09883 0.88129 0.29305 0.0
C852 C 0.13439 0.91345 0.29694 0.0
C853 C 0.16173 0.90726 0.30447 0.0
C854 C 0.1536 0.8689 0.30808 0.0
C855 C 0.11805 0.83664 0.30423 0.0
C856 C 0.00509 0.68354 0.24659 0.0
C857 C 0.0274 0.66597 0.25062 0.0
C858 C 0.0025 0.71033 0.25584 0.0
C859 C 0.02156 0.71951 0.26945 0.0
C860 C 0.04419 0.70227 0.27341 0.0
C861 C 0.04717 0.67582 0.26407 0.0
C862 C 0.01842 0.74754 0.27944 0.0
C863 C 0.05328 0.77988 0.28395 0.0
C864 C 0.98157 0.74329 0.28414 0.0
C865 C 0.94359 0.70857 0.28057 0.0
C866 C 0.93561 0.67012 0.28442 0.0
C867 C 0.8999 0.63754 0.28092 0.0
C868 C 0.8718 0.64302 0.27365 0.0
C869 C 0.8793 0.68112 0.26992 0.0
C870 C 0.91499 0.71381 0.27339 0.0
H871 H 0.84416 0.61776 0.27095 0.0
H872 H 0.18925 0.93219 0.30748 0.0
H873 H 0.20018 0.07071 0.63715 0.0
H874 H 0.25374 0.07541 0.62091 0.0
H875 H 0.26429 0.99341 0.651 0.0
H876 H 0.20927 0.9867 0.66699 0.0
H877 H 0.33777 0.06745 0.64208 0.0
H878 H 0.22503 0.95899 0.62105 0.0
H879 H 0.15955 0.92674 0.61036 0.0
H880 H 0.20313 0.01556 0.57422 0.0
H881 H 0.26877 0.0487 0.58483 0.0
H882 H 0.47044 0.0352 0.59729 0.0
H883 H 0.41625 0.02937 0.61366 0.0
H884 H 0.38213 0.08109 0.57786 0.0
H885 H 0.43498 0.08464 0.56126 0.0
H886 H 0.31987 0.02247 0.59002 0.0
H887 H 0.43093 0.13205 0.6098 0.0
H888 H 0.49671 0.16866 0.62007 0.0
H889 H 0.4579 0.085 0.65788 0.0
H890 H 0.392 0.04755 0.64772 0.0
C891 C 0.21315 0.05291 0.64021 0.0
C892 C 0.2001 0.02817 0.65342 0.0
C893 C 0.24406 0.05598 0.63096 0.0
C894 C 0.26288 0.0348 0.6348 0.0
C895 C 0.25018 0.01016 0.64793 0.0
C896 C 0.21884 0.00655 0.65708 0.0
C897 C 0.29616 0.03877 0.62515 0.0
C898 C 0.33394 0.05718 0.63076 0.0
C899 C 0.29109 0.02655 0.61025 0.0
C900 C 0.2517 0.00655 0.60382 0.0
C901 C 0.22056 0.97186 0.6109 0.0
C902 C 0.18343 0.95337 0.60484 0.0
C903 C 0.17715 0.96915 0.59164 0.0
C904 C 0.20802 0.0034 0.58446 0.0
C905 C 0.2452 0.02203 0.59048 0.0
C906 C 0.4513 0.04533 0.59301 0.0
C907 C 0.45653 0.06021 0.57809 0.0
C908 C 0.42057 0.04232 0.60237 0.0
C909 C 0.3953 0.05526 0.59708 0.0
C910 C 0.40113 0.07085 0.5822 0.0
C911 C 0.43139 0.07313 0.57277 0.0
C912 C 0.36198 0.05132 0.60688 0.0
C913 C 0.32403 0.03289 0.60132 0.0
C914 C 0.36706 0.06425 0.62174 0.0
C915 C 0.40662 0.08679 0.62792 0.0
C916 C 0.4365 0.12129 0.62025 0.0
C917 C 0.4738 0.14222 0.62606 0.0
C918 C 0.48151 0.12911 0.6396 0.0
C919 C 0.4519 0.0951 0.64738 0.0
C920 C 0.41455 0.07402 0.64161 0.0
H921 H 0.51041 0.14536 0.64408 0.0
H922 H 0.14839 0.95479 0.58697 0.0
H923 H 0.27063 0.21895 0.00526 0.0
H924 H 0.31906 0.27291 0.98831 0.0
H925 H 0.24521 0.22119 0.95115 0.0
H926 H 0.19661 0.16698 0.96808 0.0
H927 H 0.32271 0.25123 0.94289 0.0
H928 H 0.24386 0.29548 0.96852 0.0
H929 H 0.21258 0.3075 0.99057 0.0
H930 H 0.32651 0.38417 0.00715 0.0
H931 H 0.35848 0.37212 0.9853 0.0
H932 H 0.41522 0.42319 0.89418 0.0
H933 H 0.36457 0.36785 0.91028 0.0
H934 H 0.43558 0.41484 0.94856 0.0
H935 H 0.48584 0.47047 0.93244 0.0
H936 H 0.35786 0.38686 0.95572 0.0
H937 H 0.43652 0.34177 0.92997 0.0
H938 H 0.46734 0.33087 0.9075 0.0
H939 H 0.35305 0.25633 0.89076 0.0
H940 H 0.32155 0.26732 0.91304 0.0
C941 C 0.26481 0.21896 0.99346 0.0
C942 C 0.22964 0.18894 0.98803 0.0
C943 C 0.29249 0.24979 0.98379 0.0
C944 C 0.28537 0.25145 0.96853 0.0
C945 C 0.25121 0.22053 0.96291 0.0
C946 C 0.22354 0.18953 0.97258 0.0
C947 C 0.31273 0.28633 0.95862 0.0
C948 C 0.33002 0.28083 0.94559 0.0
C949 C 0.32266 0.32502 0.96225 0.0
C950 C 0.30354 0.3326 0.97534 0.0
C951 C 0.26224 0.31468 0.97692 0.0
C952 C 0.24438 0.32152 0.98938 0.0
C953 C 0.26754 0.34651 0.00027 0.0
C954 C 0.30861 0.36478 0.99871 0.0
C955 C 0.32661 0.35798 0.98629 0.0
C956 C 0.41952 0.42177 0.90608 0.0
C957 C 0.4541 0.4506 0.91218 0.0
C958 C 0.39085 0.3902 0.91523 0.0
C959 C 0.39664 0.38695 0.93057 0.0
C960 C 0.4306 0.41675 0.93676 0.0
C961 C 0.45921 0.44837 0.9276 0.0
C962 C 0.36806 0.35179 0.94007 0.0
C963 C 0.35051 0.35724 0.95301 0.0
C964 C 0.35784 0.3131 0.93633 0.0
C965 C 0.37668 0.30564 0.92311 0.0
C966 C 0.41796 0.32321 0.92147 0.0
C967 C 0.43555 0.31701 0.90877 0.0
C968 C 0.41217 0.29296 0.8977 0.0
C969 C 0.37112 0.27496 0.89934 0.0
C970 C 0.35338 0.28114 0.91201 0.0
H971 H 0.42584 0.28823 0.88787 0.0
H972 H 0.25366 0.35177 0.00991 0.0
H973 H 0.07237 0.20861 0.30384 0.0
H974 H 0.0676 0.25662 0.28717 0.0
H975 H 0.0289 0.29711 0.32499 0.0
H976 H 0.03319 0.24882 0.34167 0.0
H977 H 0.98391 0.2871 0.30215 0.0
H978 H 0.12336 0.35139 0.3085 0.0
H979 H 0.18894 0.35714 0.30826 0.0
H980 H 0.18417 0.33814 0.26102 0.0
H981 H 0.11829 0.33174 0.26101 0.0
H982 H 0.01016 0.46477 0.26648 0.0
H983 H 0.01291 0.41496 0.283 0.0
H984 H 0.04843 0.37287 0.24476 0.0
H985 H 0.0462 0.42312 0.22835 0.0
H986 H 0.09457 0.38327 0.26764 0.0
H987 H 0.95536 0.32027 0.2613 0.0
H988 H 0.89022 0.31553 0.26161 0.0
H989 H 0.89485 0.33287 0.30898 0.0
H990 H 0.96033 0.33835 0.30892 0.0
C991 C 0.06337 0.22812 0.30862 0.0
C992 C 0.05322 0.22502 0.32406 0.0
C993 C 0.0606 0.25551 0.29908 0.0
C994 C 0.0482 0.28072 0.30484 0.0
C995 C 0.03841 0.27789 0.32028 0.0
C996 C 0.04088 0.25032 0.3298 0.0
C997 C 0.04457 0.30944 0.29474 0.0
C998 C 0.00828 0.30849 0.29475 0.0
C999 C 0.07605 0.33673 0.28482 0.0
C1000 C 0.11573 0.34071 0.28479 0.0
C1001 C 0.13617 0.34814 0.29808 0.0
C1002 C 0.17341 0.35157 0.29799 0.0
C1003 C 0.19067 0.34791 0.28464 0.0
C1004 C 0.17075 0.34092 0.27135 0.0
C1005 C 0.13347 0.33742 0.27138 0.0
C1006 C 0.01796 0.44439 0.26167 0.0
C1007 C 0.0276 0.44715 0.24624 0.0
C1008 C 0.01953 0.41603 0.27105 0.0
C1009 C 0.03057 0.38997 0.26509 0.0
C1010 C 0.03981 0.39262 0.24959 0.0
C1011 C 0.03832 0.42103 0.24024 0.0
C1012 C 0.03395 0.36093 0.27507 0.0
C1013 C 0.0702 0.36184 0.27503 0.0
C1014 C 0.00246 0.33369 0.28498 0.0
C1015 C 0.96293 0.33008 0.28507 0.0
C1016 C 0.94263 0.32337 0.27176 0.0
C1017 C 0.90562 0.32051 0.2719 0.0
C1018 C 0.88845 0.32399 0.2853 0.0
C1019 C 0.90821 0.33023 0.2986 0.0
C1020 C 0.94526 0.33318 0.29853 0.0
H1021 H 0.8598 0.32176 0.28538 0.0
H1022 H 0.21951 0.35057 0.28459 0.0
loop_
_geom_bond_atom_site_label_1
_geom_bond_atom_site_label_2
_geom_bond_distance
_geom_bond_site_symmetry_2
_ccdc_geom_bond_type
Li0 N17 1.990 . S
Li0 O60 1.956 . S
Li0 O61 1.970 . S
Li0 O62 1.961 . S
Li1 N25 1.990 . S
Li1 O60 1.970 . S
Li1 O61 1.956 . S
Li1 O63 1.961 . S
Li2 N47 1.990 1_545 S
Li2 O60 1.961 . S
Li2 O62 1.956 . S
Li2 O63 1.970 . S
Li3 N53 1.990 1_445 S
Li3 O61 1.961 . S
Li3 O62 1.970 . S
Li3 O63 1.956 . S
C4 C6 1.348 . S
C4 C7 1.356 . S
C4 O60 1.325 . S
N5 C8 1.314 . S
N5 C9 1.279 . S
C6 C4 1.348 . S
C6 C8 1.353 . S
C6 H64 0.929 . S
C7 C4 1.356 . S
C7 C9 1.358 . S
C7 H65 0.930 . S
C8 N5 1.314 . S
C8 C6 1.353 . S
C8 H66 0.930 . S
C9 N5 1.279 . S
C9 C7 1.358 . S
C9 H67 0.930 . S
C10 C13 1.348 . S
C10 C14 1.356 . S
C10 O61 1.325 . S
C11 N12 1.279 . S
C11 C14 1.358 . S
C11 H68 0.930 1_455 S
N12 C11 1.279 . S
N12 C15 1.314 . S
C13 C10 1.348 . S
C13 C15 1.353 . S
C13 H69 0.929 . S
C14 C10 1.356 . S
C14 C11 1.358 . S
C14 H70 0.930 1_455 S
C15 N12 1.314 . S
C15 C13 1.353 . S
C15 H71 0.923 1_554 S
C16 N17 1.314 . S
C16 C21 1.353 1_554 S
C16 H22 0.916 1_554 S
N17 Li0 1.990 . S
N17 C16 1.314 . S
N17 C19 1.279 . S
C18 C19 1.358 . S
C18 C20 1.356 1_554 S
C18 H72 0.930 . S
C19 N17 1.279 . S
C19 C18 1.358 . S
C19 H23 0.930 . S
C20 C18 1.356 1_556 S
C20 C21 1.348 . S
C21 C16 1.353 1_556 S
C21 C20 1.348 . S
C21 H73 0.929 . S
H22 C16 0.916 1_556 S
H23 C19 0.930 . S
C24 N25 1.314 . S
C24 C26 1.353 . S
C24 H30 0.930 . S
N25 Li1 1.990 . S
N25 C24 1.314 . S
N25 C28 1.279 . S
C26 C24 1.353 . S
C26 C29 1.348 . S
C26 H74 0.929 . S
C27 C28 1.358 . S
C27 C29 1.356 . S
C27 H75 0.930 . S
C28 N25 1.279 . S
C28 C27 1.358 . S
C28 H31 0.930 . S
C29 C26 1.348 . S
C29 C27 1.356 . S
H30 C24 0.930 . S
H31 C28 0.930 . S
C32 C34 1.348 . S
C32 C35 1.356 1_565 S
C32 O62 1.325 1_565 S
N33 C36 1.314 . S
N33 C37 1.279 . S
C34 C32 1.348 . S
C34 C36 1.353 . S
C34 H76 0.929 . S
C35 C32 1.356 1_545 S
C35 C37 1.358 1_545 S
C35 H77 0.930 . S
C36 N33 1.314 . S
C36 C34 1.353 . S
C36 H78 0.930 . S
C37 N33 1.279 . S
C37 C35 1.358 1_565 S
C37 H79 0.930 . S
C38 C39 1.348 . S
C38 C40 1.356 . S
C38 O63 1.325 1_665 S
C39 C38 1.348 . S
C39 C41 1.353 . S
C39 H80 0.930 1_655 S
C40 C38 1.356 . S
C40 C42 1.358 . S
C40 H81 0.930 1_565 S
C41 C39 1.353 . S
C41 N43 1.314 . S
C41 H82 0.930 . S
C42 C40 1.358 . S
C42 N43 1.279 . S
C42 H83 0.930 . S
N43 C41 1.314 . S
N43 C42 1.279 . S
C44 C46 1.353 . S
C44 N47 1.314 . S
C44 H50 0.930 1_565 S
C45 N47 1.279 . S
C45 C48 1.358 . S
C45 H51 0.930 . S
C46 C44 1.353 . S
C46 C49 1.348 . S
C46 H84 0.929 . S
N47 Li2 1.990 1_565 S
N47 C44 1.314 . S
N47 C45 1.279 . S
C48 C45 1.358 . S
C48 C49 1.356 . S
C48 H85 0.930 . S
C49 C46 1.348 . S
C49 C48 1.356 . S
H50 C44 0.930 1_545 S
H51 C45 0.930 . S
C52 N53 1.314 . S
C52 C54 1.353 1_554 S
C52 H58 0.928 1_665 S
N53 Li3 1.990 1_665 S
N53 C52 1.314 . S
N53 C56 1.279 . S
C54 C52 1.353 1_556 S
C54 C57 1.350 . S
C54 H86 0.929 . S
C55 C56 1.358 . S
C55 C57 1.346 1_554 S
C55 H87 0.930 . S
C56 N53 1.279 . S
C56 C55 1.358 . S
C56 H59 0.930 . S
C57 C54 1.350 . S
C57 C55 1.346 1_556 S
H58 C52 0.928 1_445 S
H59 C56 0.930 . S
O60 Li0 1.956 . S
O60 Li1 1.970 . S
O60 Li2 1.961 . S
O60 C4 1.325 . S
O61 Li0 1.970 . S
O61 Li1 1.956 . S
O61 Li3 1.961 . S
O61 C10 1.325 . S
O62 Li0 1.961 . S
O62 Li2 1.956 . S
O62 Li3 1.970 . S
O62 C32 1.325 1_545 S
O63 Li1 1.961 . S
O63 Li2 1.970 . S
O63 Li3 1.956 . S
O63 C38 1.325 1_445 S
H64 C6 0.929 . S
H65 C7 0.930 . S
H66 C8 0.930 . S
H67 C9 0.930 . S
H68 C11 0.930 1_655 S
H69 C13 0.929 . S
H70 C14 0.930 1_655 S
H71 C15 0.923 1_556 S
H72 C18 0.930 . S
H73 C21 0.929 . S
H74 C26 0.929 . S
H75 C27 0.930 . S
H76 C34 0.929 . S
H77 C35 0.930 . S
H78 C36 0.930 . S
H79 C37 0.930 . S
H80 C39 0.930 1_455 S
H81 C40 0.930 1_545 S
H82 C41 0.930 . S
H83 C42 0.930 . S
H84 C46 0.929 . S
H85 C48 0.930 . S
H86 C54 0.929 . S
H87 C55 0.930 . S
Li88 N105 1.990 1_545 S
Li88 O148 1.956 . S
Li88 O149 1.970 . S
Li88 O150 1.961 1_455 S
Li89 N113 1.990 . S
Li89 O148 1.970 . S
Li89 O149 1.956 . S
Li89 O151 1.961 . S
Li90 N135 1.990 . S
Li90 O148 1.961 1_655 S
Li90 O150 1.956 . S
Li90 O151 1.970 1_655 S
Li91 N141 1.990 . S
Li91 O149 1.961 . S
Li91 O150 1.970 1_455 S
Li91 O151 1.956 . S
C92 C94 1.348 . S
C92 C95 1.356 1_455 S
C92 O148 1.325 1_565 S
N93 C96 1.314 1_655 S
N93 C97 1.279 . S
C94 C92 1.348 . S
C94 C96 1.353 . S
C94 H152 0.929 1_565 S
C95 C92 1.356 1_655 S
C95 C97 1.358 . S
C95 H153 0.930 . S
C96 N93 1.314 1_455 S
C96 C94 1.353 . S
C96 H154 0.930 . S
C97 N93 1.279 . S
C97 C95 1.358 . S
C97 H155 0.930 . S
C98 C101 1.348 . S
C98 C102 1.356 . S
C98 O149 1.325 . S
C99 N100 1.279 . S
C99 C102 1.358 . S
C99 H156 0.930 . S
N100 C99 1.279 . S
N100 C103 1.314 . S
C101 C98 1.348 . S
C101 C103 1.353 . S
C101 H157 0.929 . S
C102 C98 1.356 . S
C102 C99 1.358 . S
C102 H158 0.930 . S
C103 N100 1.314 . S
C103 C101 1.353 . S
C103 H159 0.930 . S
C104 N105 1.314 . S
C104 C109 1.353 1_455 S
C104 H110 0.930 . S
N105 Li88 1.990 1_565 S
N105 C104 1.314 . S
N105 C107 1.279 . S
C106 C107 1.358 . S
C106 C108 1.356 1_455 S
C106 H160 0.930 . S
C107 N105 1.279 . S
C107 C106 1.358 . S
C107 H111 0.930 . S
C108 C106 1.356 1_655 S
C108 C109 1.348 . S
C109 C104 1.353 1_655 S
C109 C108 1.348 . S
C109 H161 0.929 . S
H110 C104 0.930 . S
H111 C107 0.930 . S
C112 N113 1.314 . S
C112 C114 1.353 . S
C112 H118 0.930 . S
N113 Li89 1.990 . S
N113 C112 1.314 . S
N113 C116 1.279 . S
C114 C112 1.353 . S
C114 C117 1.348 . S
C114 H162 0.929 . S
C115 C116 1.358 . S
C115 C117 1.356 . S
C115 H163 0.930 . S
C116 N113 1.279 . S
C116 C115 1.358 . S
C116 H119 0.930 . S
C117 C114 1.348 . S
C117 C115 1.356 . S
H118 C112 0.930 . S
H119 C116 0.930 . S
C120 C122 1.348 . S
C120 C123 1.356 . S
C120 O150 1.325 . S
N121 C124 1.314 . S
N121 C125 1.252 1_545 S
C122 C120 1.348 . S
C122 C124 1.353 . S
C122 H164 0.929 . S
C123 C120 1.356 . S
C123 C125 1.366 1_545 S
C123 H165 0.930 1_545 S
C124 N121 1.314 . S
C124 C122 1.353 . S
C124 H166 0.930 . S
C125 N121 1.252 1_565 S
C125 C123 1.366 1_565 S
C125 H167 0.953 . S
C126 C127 1.348 . S
C126 C128 1.356 . S
C126 O151 1.325 . S
C127 C126 1.348 . S
C127 C129 1.353 . S
C127 H168 0.929 . S
C128 C126 1.356 . S
C128 C130 1.358 . S
C128 H169 0.930 . S
C129 C127 1.353 . S
C129 N131 1.314 . S
C129 H170 0.930 . S
C130 C128 1.358 . S
C130 N131 1.279 . S
C130 H171 0.930 . S
N131 C129 1.314 . S
N131 C130 1.279 . S
C132 C134 1.353 . S
C132 N135 1.314 . S
C132 H138 0.930 . S
C133 N135 1.279 . S
C133 C136 1.358 . S
C133 H139 0.930 . S
C134 C132 1.353 . S
C134 C137 1.348 . S
C134 H172 0.929 . S
N135 Li90 1.990 . S
N135 C132 1.314 . S
N135 C133 1.279 . S
C136 C133 1.358 . S
C136 C137 1.356 . S
C136 H173 0.930 . S
C137 C134 1.348 . S
C137 C136 1.356 . S
H138 C132 0.930 . S
H139 C133 0.930 . S
C140 N141 1.314 . S
C140 C142 1.353 . S
C140 H146 0.930 . S
N141 Li91 1.990 . S
N141 C140 1.314 . S
N141 C144 1.279 . S
C142 C140 1.353 . S
C142 C145 1.348 . S
C142 H174 0.929 . S
C143 C144 1.358 . S
C143 C145 1.356 . S
C143 H175 0.930 . S
C144 N141 1.279 . S
C144 C143 1.358 . S
C144 H147 0.930 . S
C145 C142 1.348 . S
C145 C143 1.356 . S
H146 C140 0.930 . S
H147 C144 0.930 . S
O148 Li88 1.956 . S
O148 Li89 1.970 . S
O148 Li90 1.961 1_455 S
O148 C92 1.325 1_545 S
O149 Li88 1.970 . S
O149 Li89 1.956 . S
O149 Li91 1.961 . S
O149 C98 1.325 . S
O150 Li88 1.961 1_655 S
O150 Li90 1.956 . S
O150 Li91 1.970 1_655 S
O150 C120 1.325 . S
O151 Li89 1.961 . S
O151 Li90 1.970 1_455 S
O151 Li91 1.956 . S
O151 C126 1.325 . S
H152 C94 0.929 1_545 S
H153 C95 0.930 . S
H154 C96 0.930 . S
H155 C97 0.930 . S
H156 C99 0.930 . S
H157 C101 0.929 . S
H158 C102 0.930 . S
H159 C103 0.930 . S
H160 C106 0.930 . S
H161 C109 0.929 . S
H162 C114 0.929 . S
H163 C115 0.930 . S
H164 C122 0.929 . S
H165 C123 0.930 1_565 S
H166 C124 0.930 . S
H167 C125 0.953 . S
H168 C127 0.929 . S
H169 C128 0.930 . S
H170 C129 0.930 . S
H171 C130 0.930 . S
H172 C134 0.929 . S
H173 C136 0.930 . S
H174 C142 0.929 . S
H175 C143 0.930 . S
Li176 N193 1.990 . S
Li176 O236 1.956 . S
Li176 O237 1.970 . S
Li176 O238 1.961 1_545 S
Li177 N201 1.990 . S
Li177 O236 1.970 . S
Li177 O237 1.956 . S
Li177 O239 1.961 . S
Li178 N223 1.990 1_455 S
Li178 O236 1.961 1_565 S
Li178 O238 1.956 . S
Li178 O239 1.970 1_565 S
Li179 N229 1.990 1_455 S
Li179 O237 1.961 . S
Li179 O238 1.970 1_545 S
Li179 O239 1.956 . S
C180 C182 1.348 . S
C180 C183 1.356 1_545 S
C180 O236 1.325 . S
N181 C184 1.314 1_565 S
N181 C185 1.279 . S
C182 C180 1.348 . S
C182 C184 1.353 . S
C182 H240 0.929 . S
C183 C180 1.356 1_565 S
C183 C185 1.358 . S
C183 H241 0.930 . S
C184 N181 1.314 1_545 S
C184 C182 1.353 . S
C184 H242 0.930 . S
C185 N181 1.279 . S
C185 C183 1.358 . S
C185 H243 0.930 . S
C186 C189 1.348 . S
C186 C190 1.356 . S
C186 O237 1.325 . S
C187 N188 1.279 . S
C187 C190 1.358 . S
C187 H244 0.930 . S
N188 C187 1.279 . S
N188 C191 1.314 . S
C189 C186 1.348 . S
C189 C191 1.353 . S
C189 H245 0.929 . S
C190 C186 1.356 . S
C190 C187 1.358 . S
C190 H246 0.930 . S
C191 N188 1.314 . S
C191 C189 1.353 . S
C191 H247 0.930 . S
C192 N193 1.314 . S
C192 C197 1.353 . S
C192 H198 0.930 . S
N193 Li176 1.990 . S
N193 C192 1.314 . S
N193 C195 1.279 . S
C194 C195 1.358 . S
C194 C196 1.356 . S
C194 H248 0.930 . S
C195 N193 1.279 . S
C195 C194 1.358 . S
C195 H199 0.930 . S
C196 C194 1.356 . S
C196 C197 1.348 . S
C197 C192 1.353 . S
C197 C196 1.348 . S
C197 H249 0.929 1_545 S
H198 C192 0.930 . S
H199 C195 0.930 . S
C200 N201 1.314 . S
C200 C202 1.353 . S
C200 H206 0.930 . S
N201 Li177 1.990 . S
N201 C200 1.314 . S
N201 C204 1.279 . S
C202 C200 1.353 . S
C202 C205 1.348 . S
C202 H250 0.929 . S
C203 C204 1.358 . S
C203 C205 1.356 . S
C203 H251 0.930 . S
C204 N201 1.279 . S
C204 C203 1.358 . S
C204 H207 0.930 . S
C205 C202 1.348 . S
C205 C203 1.356 . S
H206 C200 0.930 . S
H207 C204 0.930 . S
C208 C210 1.348 1_455 S
C208 C211 1.356 . S
C208 O238 1.325 . S
N209 C212 1.314 . S
N209 C213 1.279 . S
C210 C208 1.348 1_655 S
C210 C212 1.353 . S
C210 H252 0.929 . S
C211 C208 1.356 . S
C211 C213 1.358 1_455 S
C211 H253 0.930 . S
C212 N209 1.314 . S
C212 C210 1.353 . S
C212 H254 0.930 . S
C213 N209 1.279 . S
C213 C211 1.358 1_655 S
C213 H255 0.930 . S
C214 C215 1.348 1_455 S
C214 C216 1.356 . S
C214 O239 1.325 . S
C215 C214 1.348 1_655 S
C215 C217 1.353 . S
C215 H256 0.950 . S
C216 C214 1.356 . S
C216 C218 1.358 1_455 S
C216 H257 0.930 . S
C217 C215 1.353 . S
C217 N219 1.314 . S
C217 H258 0.930 . S
C218 C216 1.358 1_655 S
C218 N219 1.279 . S
C218 H259 0.930 . S
N219 C217 1.314 . S
N219 C218 1.279 . S
C220 C222 1.353 . S
C220 N223 1.314 . S
C220 H226 0.930 1_655 S
C221 N223 1.279 . S
C221 C224 1.358 . S
C221 H227 0.930 . S
C222 C220 1.353 . S
C222 C225 1.348 . S
C222 H260 0.929 . S
N223 Li178 1.990 1_655 S
N223 C220 1.314 . S
N223 C221 1.279 . S
C224 C221 1.358 . S
C224 C225 1.356 . S
C224 H261 0.930 . S
C225 C222 1.348 . S
C225 C224 1.356 . S
H226 C220 0.930 1_455 S
H227 C221 0.930 . S
C228 N229 1.314 1_455 S
C228 C230 1.353 1_455 S
C228 H234 0.930 . S
N229 Li179 1.990 1_655 S
N229 C228 1.314 1_655 S
N229 C232 1.279 . S
C230 C228 1.353 1_655 S
C230 C233 1.348 . S
C230 H262 0.929 . S
C231 C232 1.358 . S
C231 C233 1.356 . S
C231 H263 0.930 . S
C232 N229 1.279 . S
C232 C231 1.358 . S
C232 H235 0.930 . S
C233 C230 1.348 . S
C233 C231 1.356 . S
H234 C228 0.930 . S
H235 C232 0.930 . S
O236 Li176 1.956 . S
O236 Li177 1.970 . S
O236 Li178 1.961 1_545 S
O236 C180 1.325 . S
O237 Li176 1.970 . S
O237 Li177 1.956 . S
O237 Li179 1.961 . S
O237 C186 1.325 . S
O238 Li176 1.961 1_565 S
O238 Li178 1.956 . S
O238 Li179 1.970 1_565 S
O238 C208 1.325 . S
O239 Li177 1.961 . S
O239 Li178 1.970 1_545 S
O239 Li179 1.956 . S
O239 C214 1.325 . S
H240 C182 0.929 . S
H241 C183 0.930 . S
H242 C184 0.930 . S
H243 C185 0.930 . S
H244 C187 0.930 . S
H245 C189 0.929 . S
H246 C190 0.930 . S
H247 C191 0.930 . S
H248 C194 0.930 . S
H249 C197 0.929 1_565 S
H250 C202 0.929 . S
H251 C203 0.930 . S
H252 C210 0.929 . S
H253 C211 0.930 . S
H254 C212 0.930 . S
H255 C213 0.930 . S
H256 C215 0.950 . S
H257 C216 0.930 . S
H258 C217 0.930 . S
H259 C218 0.930 . S
H260 C222 0.929 . S
H261 C224 0.930 . S
H262 C230 0.929 . S
H263 C231 0.930 . S
C264 C265 1.443 . S
C264 N268 1.376 . S
C264 C302 1.389 . S
C265 C264 1.443 . S
C265 C266 1.340 . S
C265 H305 0.951 . S
C266 C265 1.340 . S
C266 C267 1.439 . S
C266 H306 0.950 . S
C267 C266 1.439 . S
C267 N268 1.374 . S
C267 C301 1.395 . S
N268 C264 1.376 . S
N268 C267 1.374 . S
N268 Co269 2.008 . S
Co269 N268 2.008 . S
Co269 N270 1.995 . S
Co269 N275 2.008 1_455 S
Co269 N280 1.995 1_455 S
Co269 N285 2.282 . S
Co269 N291 2.282 . S
N270 Co269 1.995 . S
N270 C271 1.376 . S
N270 C274 1.383 . S
C271 N270 1.376 . S
C271 C272 1.446 . S
C271 C301 1.391 . S
C272 C271 1.446 . S
C272 C273 1.339 . S
C272 H307 0.949 . S
C273 C272 1.339 . S
C273 C274 1.439 . S
C273 H308 0.950 . S
C274 N270 1.383 . S
C274 C273 1.439 . S
C274 C303 1.392 . S
N275 Co269 2.008 1_655 S
N275 C276 1.376 . S
N275 C279 1.374 . S
C276 N275 1.376 . S
C276 C277 1.443 . S
C276 C303 1.389 1_655 S
C277 C276 1.443 . S
C277 C278 1.340 . S
C277 H309 0.951 . S
C278 C277 1.340 . S
C278 C279 1.439 . S
C278 H310 0.950 . S
C279 N275 1.374 . S
C279 C278 1.439 . S
C279 C304 1.395 . S
N280 Co269 1.995 1_655 S
N280 C281 1.376 . S
N280 C284 1.383 . S
C281 N280 1.376 . S
C281 C282 1.446 . S
C281 C304 1.391 . S
C282 C281 1.446 . S
C282 C283 1.339 . S
C282 H311 0.949 . S
C283 C282 1.339 . S
C283 C284 1.439 . S
C283 H312 0.950 . S
C284 N280 1.383 . S
C284 C283 1.439 . S
C284 C302 1.392 1_655 S
N285 Co269 2.282 . S
N285 C288 1.332 . S
N285 C290 1.332 . S
C286 C287 1.417 . S
C286 C289 1.388 . S
C287 C286 1.417 . S
C287 C288 1.371 . S
C287 H313 0.931 1_455 S
C288 N285 1.332 . S
C288 C287 1.371 . S
C288 H299 0.952 1_455 S
C289 C286 1.388 . S
C289 C290 1.382 . S
C289 H314 0.950 . S
C290 N285 1.332 . S
C290 C289 1.382 . S
C290 H300 0.948 . S
N291 Co269 2.282 . S
N291 C295 1.332 . S
N291 C296 1.332 1_455 S
C292 C293 1.388 1_655 S
C292 C296 1.382 . S
C292 H315 0.950 . S
C293 C292 1.388 1_455 S
C293 C294 1.386 . S
C294 C293 1.386 . S
C294 C295 1.382 . S
C294 H316 0.950 . S
C295 N291 1.332 . S
C295 C294 1.382 . S
C295 H297 0.952 . S
C296 N291 1.332 1_655 S
C296 C292 1.382 . S
C296 H298 0.948 . S
H297 C295 0.952 . S
H298 C296 0.948 . S
H299 C288 0.952 1_655 S
H300 C290 0.948 . S
C301 C267 1.395 . S
C301 C271 1.391 . S
C302 C264 1.389 . S
C302 C284 1.392 1_455 S
C303 C274 1.392 . S
C303 C276 1.389 1_455 S
C304 C279 1.395 . S
C304 C281 1.391 . S
H305 C265 0.951 . S
H306 C266 0.950 . S
H307 C272 0.949 . S
H308 C273 0.950 . S
H309 C277 0.951 . S
H310 C278 0.950 . S
H311 C282 0.949 . S
H312 C283 0.950 . S
H313 C287 0.931 1_655 S
H314 C289 0.950 . S
H315 C292 0.950 . S
H316 C294 0.950 . S
C317 C318 1.443 1_545 S
C317 N321 1.376 . S
C317 C355 1.389 . S
C318 C317 1.443 1_565 S
C318 C319 1.340 . S
C318 H358 0.951 . S
C319 C318 1.340 . S
C319 C320 1.439 . S
C319 H359 0.950 . S
C320 C319 1.439 . S
C320 N321 1.374 1_565 S
C320 C354 1.395 . S
N321 C317 1.376 . S
N321 C320 1.374 1_545 S
N321 Co322 2.008 . S
Co322 N321 2.008 . S
Co322 N323 1.995 . S
Co322 N328 2.008 . S
Co322 N333 1.995 . S
Co322 N338 2.282 . S
Co322 N344 2.282 . S
N323 Co322 1.995 . S
N323 C324 1.376 1_545 S
N323 C327 1.383 . S
C324 N323 1.376 1_565 S
C324 C325 1.446 . S
C324 C354 1.391 . S
C325 C324 1.446 . S
C325 C326 1.339 . S
C325 H360 0.949 . S
C326 C325 1.339 . S
C326 C327 1.439 1_565 S
C326 H361 0.950 . S
C327 N323 1.383 . S
C327 C326 1.439 1_545 S
C327 C356 1.392 . S
N328 Co322 2.008 . S
N328 C329 1.376 . S
N328 C332 1.374 . S
C329 N328 1.376 . S
C329 C330 1.443 . S
C329 C356 1.389 . S
C330 C329 1.443 . S
C330 C331 1.340 . S
C330 H362 0.951 . S
C331 C330 1.340 . S
C331 C332 1.439 . S
C331 H363 0.950 . S
C332 N328 1.374 . S
C332 C331 1.439 . S
C332 C357 1.395 . S
N333 Co322 1.995 . S
N333 C334 1.376 . S
N333 C337 1.383 . S
C334 N333 1.376 . S
C334 C335 1.446 . S
C334 C357 1.391 . S
C335 C334 1.446 . S
C335 C336 1.339 . S
C335 H364 0.949 . S
C336 C335 1.339 . S
C336 C337 1.439 . S
C336 H365 0.950 . S
C337 N333 1.383 . S
C337 C336 1.439 . S
C337 C355 1.392 . S
N338 Co322 2.282 . S
N338 C341 1.332 . S
N338 C343 1.332 . S
C339 C340 1.386 . S
C339 C342 1.388 . S
C340 C339 1.386 . S
C340 C341 1.382 . S
C340 H366 0.950 . S
C341 N338 1.332 . S
C341 C340 1.382 . S
C341 H352 0.952 . S
C342 C339 1.388 . S
C342 C343 1.382 . S
C342 H367 0.950 . S
C343 N338 1.332 . S
C343 C342 1.382 . S
C343 H353 0.948 . S
N344 Co322 2.282 . S
N344 C348 1.332 . S
N344 C349 1.332 . S
C345 C346 1.388 . S
C345 C349 1.382 . S
C345 H368 0.950 . S
C346 C345 1.388 . S
C346 C347 1.386 . S
C347 C346 1.386 . S
C347 C348 1.382 . S
C347 H369 0.950 . S
C348 N344 1.332 . S
C348 C347 1.382 . S
C348 H350 0.952 . S
C349 N344 1.332 . S
C349 C345 1.382 . S
C349 H351 0.948 . S
H350 C348 0.952 . S
H351 C349 0.948 . S
H352 C341 0.952 . S
H353 C343 0.948 . S
C354 C320 1.395 . S
C354 C324 1.391 . S
C355 C317 1.389 . S
C355 C337 1.392 . S
C356 C327 1.392 . S
C356 C329 1.389 . S
C357 C332 1.395 . S
C357 C334 1.391 . S
H358 C318 0.951 . S
H359 C319 0.950 . S
H360 C325 0.949 . S
H361 C326 0.950 . S
H362 C330 0.951 . S
H363 C331 0.950 . S
H364 C335 0.949 . S
H365 C336 0.950 . S
H366 C340 0.950 . S
H367 C342 0.950 . S
H368 C345 0.950 . S
H369 C347 0.950 . S
C370 C371 1.443 . S
C370 N374 1.376 . S
C370 C408 1.389 . S
C371 C370 1.443 . S
C371 C372 1.340 . S
C371 H411 0.951 . S
C372 C371 1.340 . S
C372 C373 1.439 . S
C372 H412 0.950 . S
C373 C372 1.439 . S
C373 N374 1.374 . S
C373 C407 1.395 . S
N374 C370 1.376 . S
N374 C373 1.374 . S
N374 Co375 2.008 . S
Co375 N374 2.008 . S
Co375 N376 1.995 . S
Co375 N381 2.008 . S
Co375 N386 1.995 . S
Co375 N391 2.282 . S
Co375 N397 2.282 . S
N376 Co375 1.995 . S
N376 C377 1.376 . S
N376 C380 1.383 . S
C377 N376 1.376 . S
C377 C378 1.446 . S
C377 C407 1.391 . S
C378 C377 1.446 . S
C378 C379 1.339 . S
C378 H413 0.949 . S
C379 C378 1.339 . S
C379 C380 1.439 . S
C379 H414 0.950 . S
C380 N376 1.383 . S
C380 C379 1.439 . S
C380 C409 1.392 . S
N381 Co375 2.008 . S
N381 C382 1.376 . S
N381 C385 1.374 . S
C382 N381 1.376 . S
C382 C383 1.443 . S
C382 C409 1.389 . S
C383 C382 1.443 . S
C383 C384 1.340 . S
C383 H415 0.951 . S
C384 C383 1.340 . S
C384 C385 1.439 . S
C384 H416 0.950 . S
C385 N381 1.374 . S
C385 C384 1.439 . S
C385 C410 1.395 . S
N386 Co375 1.995 . S
N386 C387 1.376 . S
N386 C390 1.383 . S
C387 N386 1.376 . S
C387 C388 1.446 . S
C387 C410 1.391 . S
C388 C387 1.446 . S
C388 C389 1.339 . S
C388 H417 0.949 . S
C389 C388 1.339 . S
C389 C390 1.439 . S
C389 H418 0.950 . S
C390 N386 1.383 . S
C390 C389 1.439 . S
C390 C408 1.392 . S
N391 Co375 2.282 . S
N391 C394 1.332 . S
N391 C396 1.332 . S
C392 C393 1.386 . S
C392 C395 1.388 . S
C393 C392 1.386 . S
C393 C394 1.382 . S
C393 H419 0.950 . S
C394 N391 1.332 . S
C394 C393 1.382 . S
C394 H405 0.952 . S
C395 C392 1.388 . S
C395 C396 1.382 . S
C395 H420 0.950 . S
C396 N391 1.332 . S
C396 C395 1.382 . S
C396 H406 0.948 . S
N397 Co375 2.282 . S
N397 C401 1.332 . S
N397 C402 1.332 . S
C398 C399 1.388 . S
C398 C402 1.382 . S
C398 H421 0.950 . S
C399 C398 1.388 . S
C399 C400 1.386 . S
C400 C399 1.386 . S
C400 C401 1.382 . S
C400 H422 0.950 . S
C401 N397 1.332 . S
C401 C400 1.382 . S
C401 H403 0.952 . S
C402 N397 1.332 . S
C402 C398 1.382 . S
C402 H404 0.948 . S
H403 C401 0.952 . S
H404 C402 0.948 . S
H405 C394 0.952 . S
H406 C396 0.948 . S
C407 C373 1.395 . S
C407 C377 1.391 . S
C408 C370 1.389 . S
C408 C390 1.392 . S
C409 C380 1.392 . S
C409 C382 1.389 . S
C410 C385 1.395 . S
C410 C387 1.391 . S
H411 C371 0.951 . S
H412 C372 0.950 . S
H413 C378 0.949 . S
H414 C379 0.950 . S
H415 C383 0.951 . S
H416 C384 0.950 . S
H417 C388 0.949 . S
H418 C389 0.950 . S
H419 C393 0.950 . S
H420 C395 0.950 . S
H421 C398 0.950 . S
H422 C400 0.950 . S
H423 C441 0.951 . S
H424 C443 0.951 . S
H425 C445 0.950 . S
H426 C446 0.950 . S
H427 C448 0.950 1_655 S
H428 C451 0.950 . S
H429 C452 0.950 . S
H430 C454 0.950 . S
H431 C455 0.950 . S
H432 C456 0.951 . S
H433 C458 0.951 . S
H434 C460 0.950 . S
H435 C461 0.950 . S
H436 C463 0.950 . S
H437 C466 0.950 . S
H438 C467 0.950 . S
H439 C469 0.950 . S
H440 C470 0.950 . S
C441 H423 0.951 . S
C441 C442 1.366 . S
C441 C443 1.388 . S
C442 C441 1.366 . S
C442 C446 1.385 1_455 S
C443 H424 0.951 . S
C443 C441 1.388 . S
C443 C444 1.366 . S
C444 C443 1.366 . S
C444 C445 1.414 1_455 S
C444 C447 1.499 . S
C445 H425 0.950 . S
C445 C444 1.414 1_655 S
C445 C446 1.374 . S
C446 H426 0.950 . S
C446 C442 1.385 1_655 S
C446 C445 1.374 . S
C447 C444 1.499 . S
C447 C448 1.373 . S
C447 C449 1.389 . S
C448 H427 0.950 1_455 S
C448 C447 1.373 . S
C448 C464 1.377 . S
C449 C447 1.389 . S
C449 C450 1.524 . S
C449 C463 1.377 . S
C450 C449 1.524 . S
C450 C451 1.397 . S
C450 C455 1.363 . S
C451 H428 0.950 . S
C451 C450 1.397 . S
C451 C452 1.334 . S
C452 H429 0.950 . S
C452 C451 1.334 . S
C452 C453 1.287 . S
C453 C452 1.287 . S
C453 C454 1.524 . S
C453 H472 0.913 . S
C454 H430 0.950 . S
C454 C453 1.524 . S
C454 C455 1.415 . S
C455 H431 0.950 . S
C455 C450 1.363 . S
C455 C454 1.415 . S
C456 H432 0.951 . S
C456 C457 1.366 1_655 S
C456 C458 1.388 . S
C457 C456 1.366 1_455 S
C457 C461 1.385 . S
C458 H433 0.951 . S
C458 C456 1.388 . S
C458 C459 1.366 1_655 S
C459 C458 1.366 1_455 S
C459 C460 1.414 . S
C459 C462 1.499 . S
C460 H434 0.950 . S
C460 C459 1.414 . S
C460 C461 1.374 . S
C461 H435 0.950 . S
C461 C457 1.385 . S
C461 C460 1.374 . S
C462 C459 1.499 . S
C462 C463 1.373 . S
C462 C464 1.389 . S
C463 H436 0.950 . S
C463 C449 1.377 . S
C463 C462 1.373 . S
C464 C448 1.377 . S
C464 C462 1.389 . S
C464 C465 1.524 1_455 S
C465 C464 1.524 1_655 S
C465 C466 1.397 1_655 S
C465 C470 1.363 . S
C466 H437 0.950 . S
C466 C465 1.397 1_455 S
C466 C467 1.334 . S
C467 H438 0.950 . S
C467 C466 1.334 . S
C467 C468 1.287 1_455 S
C468 C467 1.287 1_655 S
C468 C469 1.524 . S
C468 H471 0.999 . S
C469 H439 0.950 . S
C469 C468 1.524 . S
C469 C470 1.415 . S
C470 H440 0.950 . S
C470 C465 1.363 . S
C470 C469 1.415 . S
H471 C468 0.999 . S
H472 C453 0.913 . S
H473 C491 0.951 1_565 S
H474 C493 0.951 1_565 S
H475 C495 0.950 . S
H476 C496 0.950 . S
H477 C498 0.950 . S
H478 C501 0.950 . S
H479 C502 0.950 . S
H480 C504 0.950 . S
H481 C505 0.950 . S
H482 C506 0.951 . S
H483 C508 0.951 . S
H484 C510 0.950 . S
H485 C511 0.950 . S
H486 C513 0.950 1_565 S
H487 C516 0.950 . S
H488 C517 0.950 . S
H489 C519 0.950 . S
H490 C520 0.950 . S
C491 H473 0.951 1_545 S
C491 C492 1.366 . S
C491 C493 1.388 . S
C492 C491 1.366 . S
C492 C496 1.385 . S
C493 H474 0.951 1_545 S
C493 C491 1.388 . S
C493 C494 1.366 . S
C494 C493 1.366 . S
C494 C495 1.414 . S
C494 C497 1.499 . S
C495 H475 0.950 . S
C495 C494 1.414 . S
C495 C496 1.374 . S
C496 H476 0.950 . S
C496 C492 1.385 . S
C496 C495 1.374 . S
C497 C494 1.499 . S
C497 C498 1.373 . S
C497 C499 1.389 . S
C498 H477 0.950 . S
C498 C497 1.373 . S
C498 C514 1.377 . S
C499 C497 1.389 . S
C499 C500 1.524 1_545 S
C499 C513 1.377 . S
C500 C499 1.524 1_565 S
C500 C501 1.397 . S
C500 C505 1.363 . S
C501 H478 0.950 . S
C501 C500 1.397 . S
C501 C502 1.334 . S
C502 H479 0.950 . S
C502 C501 1.334 . S
C502 C503 1.287 . S
C503 C502 1.287 . S
C503 C504 1.524 . S
C503 H522 0.913 . S
C504 H480 0.950 . S
C504 C503 1.524 . S
C504 C505 1.415 . S
C505 H481 0.950 . S
C505 C500 1.363 . S
C505 C504 1.415 . S
C506 H482 0.951 . S
C506 C507 1.366 . S
C506 C508 1.388 . S
C507 C506 1.366 . S
C507 C511 1.385 . S
C508 H483 0.951 . S
C508 C506 1.388 . S
C508 C509 1.366 . S
C509 C508 1.366 . S
C509 C510 1.414 . S
C509 C512 1.499 . S
C510 H484 0.950 . S
C510 C509 1.414 . S
C510 C511 1.374 . S
C511 H485 0.950 . S
C511 C507 1.385 . S
C511 C510 1.374 . S
C512 C509 1.499 . S
C512 C513 1.373 . S
C512 C514 1.389 . S
C513 H486 0.950 1_545 S
C513 C499 1.377 . S
C513 C512 1.373 . S
C514 C498 1.377 . S
C514 C512 1.389 . S
C514 C515 1.524 . S
C515 C514 1.524 . S
C515 C516 1.397 . S
C515 C520 1.363 . S
C516 H487 0.950 . S
C516 C515 1.397 . S
C516 C517 1.334 . S
C517 H488 0.950 . S
C517 C516 1.334 . S
C517 C518 1.287 . S
C518 C517 1.287 . S
C518 C519 1.524 . S
C518 H521 0.999 . S
C519 H489 0.950 . S
C519 C518 1.524 . S
C519 C520 1.415 . S
C520 H490 0.950 . S
C520 C515 1.363 . S
C520 C519 1.415 . S
H521 C518 0.999 . S
H522 C503 0.913 . S
H523 C541 0.951 . S
H524 C543 0.951 . S
H525 C545 0.950 . S
H526 C546 0.950 . S
H527 C548 0.950 . S
H528 C551 0.950 . S
H529 C552 0.950 . S
H530 C554 0.950 . S
H531 C555 0.950 . S
H532 C556 0.951 . S
H533 C558 0.951 . S
H534 C560 0.950 . S
H535 C561 0.950 . S
H536 C563 0.950 . S
H537 C566 0.950 . S
H538 C567 0.950 . S
H539 C569 0.950 . S
H540 C570 0.950 . S
C541 H523 0.951 . S
C541 C542 1.366 . S
C541 C543 1.388 . S
C542 C541 1.366 . S
C542 C546 1.385 . S
C543 H524 0.951 . S
C543 C541 1.388 . S
C543 C544 1.366 . S
C544 C543 1.366 . S
C544 C545 1.414 . S
C544 C547 1.499 . S
C545 H525 0.950 . S
C545 C544 1.414 . S
C545 C546 1.374 . S
C546 H526 0.950 . S
C546 C542 1.385 . S
C546 C545 1.374 . S
C547 C544 1.499 . S
C547 C548 1.373 . S
C547 C549 1.389 . S
C548 H527 0.950 . S
C548 C547 1.373 . S
C548 C564 1.377 . S
C549 C547 1.389 . S
C549 C550 1.524 . S
C549 C563 1.377 . S
C550 C549 1.524 . S
C550 C551 1.397 . S
C550 C555 1.363 . S
C551 H528 0.950 . S
C551 C550 1.397 . S
C551 C552 1.334 . S
C552 H529 0.950 . S
C552 C551 1.334 . S
C552 C553 1.287 . S
C553 C552 1.287 . S
C553 C554 1.524 . S
C553 H572 0.913 . S
C554 H530 0.950 . S
C554 C553 1.524 . S
C554 C555 1.415 . S
C555 H531 0.950 . S
C555 C550 1.363 . S
C555 C554 1.415 . S
C556 H532 0.951 . S
C556 C557 1.366 . S
C556 C558 1.388 . S
C557 C556 1.366 . S
C557 C561 1.385 . S
C558 H533 0.951 . S
C558 C556 1.388 . S
C558 C559 1.366 . S
C559 C558 1.366 . S
C559 C560 1.414 . S
C559 C562 1.499 . S
C560 H534 0.950 . S
C560 C559 1.414 . S
C560 C561 1.374 . S
C561 H535 0.950 . S
C561 C557 1.385 . S
C561 C560 1.374 . S
C562 C559 1.499 . S
C562 C563 1.373 . S
C562 C564 1.389 . S
C563 H536 0.950 . S
C563 C549 1.377 . S
C563 C562 1.373 . S
C564 C548 1.377 . S
C564 C562 1.389 . S
C564 C565 1.524 . S
C565 C564 1.524 . S
C565 C566 1.397 . S
C565 C570 1.363 . S
C566 H537 0.950 . S
C566 C565 1.397 . S
C566 C567 1.334 . S
C567 H538 0.950 . S
C567 C566 1.334 . S
C567 C568 1.287 . S
C568 C567 1.287 . S
C568 C569 1.524 . S
C568 H571 0.999 . S
C569 H539 0.950 . S
C569 C568 1.524 . S
C569 C570 1.415 . S
C570 H540 0.950 . S
C570 C565 1.363 . S
C570 C569 1.415 . S
H571 C568 0.999 . S
H572 C553 0.913 . S
H573 C591 0.951 . S
H574 C593 0.951 . S
H575 C595 0.950 . S
H576 C596 0.950 . S
H577 C598 0.950 . S
H578 C601 0.950 . S
H579 C602 0.950 . S
H580 C604 0.950 . S
H581 C605 0.950 . S
H582 C606 0.951 1_655 S
H583 C608 0.951 1_655 S
H584 C610 0.950 . S
H585 C611 0.950 . S
H586 C613 0.950 . S
H587 C616 0.950 . S
H588 C617 0.950 . S
H589 C619 0.950 . S
H590 C620 0.950 . S
C591 H573 0.951 . S
C591 C592 1.366 . S
C591 C593 1.388 . S
C592 C591 1.366 . S
C592 C596 1.385 . S
C593 H574 0.951 . S
C593 C591 1.388 . S
C593 C594 1.366 . S
C594 C593 1.366 . S
C594 C595 1.414 . S
C594 C597 1.499 . S
C595 H575 0.950 . S
C595 C594 1.414 . S
C595 C596 1.374 . S
C596 H576 0.950 . S
C596 C592 1.385 . S
C596 C595 1.374 . S
C597 C594 1.499 . S
C597 C598 1.373 . S
C597 C599 1.389 . S
C598 H577 0.950 . S
C598 C597 1.373 . S
C598 C614 1.377 . S
C599 C597 1.389 . S
C599 C600 1.524 . S
C599 C613 1.377 . S
C600 C599 1.524 . S
C600 C601 1.397 . S
C600 C605 1.363 . S
C601 H578 0.950 . S
C601 C600 1.397 . S
C601 C602 1.334 . S
C602 H579 0.950 . S
C602 C601 1.334 . S
C602 C603 1.287 . S
C603 C602 1.287 . S
C603 C604 1.524 . S
C603 H622 0.913 . S
C604 H580 0.950 . S
C604 C603 1.524 . S
C604 C605 1.415 . S
C605 H581 0.950 . S
C605 C600 1.363 . S
C605 C604 1.415 . S
C606 H582 0.951 1_455 S
C606 C607 1.366 . S
C606 C608 1.388 . S
C607 C606 1.366 . S
C607 C611 1.385 . S
C608 H583 0.951 1_455 S
C608 C606 1.388 . S
C608 C609 1.366 . S
C609 C608 1.366 . S
C609 C610 1.414 . S
C609 C612 1.499 . S
C610 H584 0.950 . S
C610 C609 1.414 . S
C610 C611 1.374 . S
C611 H585 0.950 . S
C611 C607 1.385 . S
C611 C610 1.374 . S
C612 C609 1.499 . S
C612 C613 1.373 . S
C612 C614 1.389 . S
C613 H586 0.950 . S
C613 C599 1.377 . S
C613 C612 1.373 . S
C614 C598 1.377 . S
C614 C612 1.389 . S
C614 C615 1.524 . S
C615 C614 1.524 . S
C615 C616 1.397 . S
C615 C620 1.363 1_455 S
C616 H587 0.950 . S
C616 C615 1.397 . S
C616 C617 1.334 . S
C617 H588 0.950 . S
C617 C616 1.334 . S
C617 C618 1.287 1_455 S
C618 C617 1.287 1_655 S
C618 C619 1.524 . S
C618 H621 0.999 . S
C619 H589 0.950 . S
C619 C618 1.524 . S
C619 C620 1.415 . S
C620 H590 0.950 . S
C620 C615 1.363 1_655 S
C620 C619 1.415 . S
H621 C618 0.999 . S
H622 C603 0.913 . S
H623 C641 0.951 . S
H624 C643 0.951 . S
H625 C645 0.950 . S
H626 C646 0.950 . S
H627 C648 0.950 . S
H628 C651 0.950 . S
H629 C652 0.950 . S
H630 C654 0.950 . S
H631 C655 0.950 . S
H632 C656 0.951 . S
H633 C658 0.951 . S
H634 C660 0.950 . S
H635 C661 0.950 . S
H636 C663 0.950 . S
H637 C666 0.950 . S
H638 C667 0.950 . S
H639 C669 0.950 . S
H640 C670 0.950 . S
C641 H623 0.951 . S
C641 C642 1.366 . S
C641 C643 1.388 . S
C642 C641 1.366 . S
C642 C646 1.385 . S
C643 H624 0.951 . S
C643 C641 1.388 . S
C643 C644 1.366 . S
C644 C643 1.366 . S
C644 C645 1.414 . S
C644 C647 1.499 . S
C645 H625 0.950 . S
C645 C644 1.414 . S
C645 C646 1.374 . S
C646 H626 0.950 . S
C646 C642 1.385 . S
C646 C645 1.374 . S
C647 C644 1.499 . S
C647 C648 1.373 . S
C647 C649 1.389 . S
C648 H627 0.950 . S
C648 C647 1.373 . S
C648 C664 1.377 . S
C649 C647 1.389 . S
C649 C650 1.524 . S
C649 C663 1.377 . S
C650 C649 1.524 . S
C650 C651 1.397 . S
C650 C655 1.363 . S
C651 H628 0.950 . S
C651 C650 1.397 . S
C651 C652 1.334 1_545 S
C652 H629 0.950 . S
C652 C651 1.334 1_565 S
C652 C653 1.287 . S
C653 C652 1.287 . S
C653 C654 1.524 . S
C653 H672 0.913 . S
C654 H630 0.950 . S
C654 C653 1.524 . S
C654 C655 1.415 1_565 S
C655 H631 0.950 . S
C655 C650 1.363 . S
C655 C654 1.415 1_545 S
C656 H632 0.951 . S
C656 C657 1.366 . S
C656 C658 1.388 . S
C657 C656 1.366 . S
C657 C661 1.385 . S
C658 H633 0.951 . S
C658 C656 1.388 . S
C658 C659 1.366 . S
C659 C658 1.366 . S
C659 C660 1.414 . S
C659 C662 1.499 . S
C660 H634 0.950 . S
C660 C659 1.414 . S
C660 C661 1.374 . S
C661 H635 0.950 . S
C661 C657 1.385 . S
C661 C660 1.374 . S
C662 C659 1.499 . S
C662 C663 1.373 . S
C662 C664 1.389 . S
C663 H636 0.950 . S
C663 C649 1.377 . S
C663 C662 1.373 . S
C664 C648 1.377 . S
C664 C662 1.389 . S
C664 C665 1.524 . S
C665 C664 1.524 . S
C665 C666 1.397 . S
C665 C670 1.363 . S
C666 H637 0.950 . S
C666 C665 1.397 . S
C666 C667 1.334 . S
C667 H638 0.950 . S
C667 C666 1.334 . S
C667 C668 1.287 . S
C668 C667 1.287 . S
C668 C669 1.524 . S
C668 H671 0.999 . S
C669 H639 0.950 . S
C669 C668 1.524 . S
C669 C670 1.415 . S
C670 H640 0.950 . S
C670 C665 1.363 . S
C670 C669 1.415 . S
H671 C668 0.999 . S
H672 C653 0.913 . S
H673 C691 0.951 . S
H674 C693 0.951 . S
H675 C695 0.950 . S
H676 C696 0.950 . S
H677 C698 0.950 . S
H678 C701 0.950 . S
H679 C702 0.950 . S
H680 C704 0.950 . S
H681 C705 0.950 . S
H682 C706 0.951 . S
H683 C708 0.951 . S
H684 C710 0.950 . S
H685 C711 0.950 . S
H686 C713 0.950 . S
H687 C716 0.950 . S
H688 C717 0.950 . S
H689 C719 0.950 . S
H690 C720 0.950 . S
C691 H673 0.951 . S
C691 C692 1.366 . S
C691 C693 1.388 . S
C692 C691 1.366 . S
C692 C696 1.385 . S
C693 H674 0.951 . S
C693 C691 1.388 . S
C693 C694 1.366 . S
C694 C693 1.366 . S
C694 C695 1.414 . S
C694 C697 1.499 . S
C695 H675 0.950 . S
C695 C694 1.414 . S
C695 C696 1.374 . S
C696 H676 0.950 . S
C696 C692 1.385 . S
C696 C695 1.374 . S
C697 C694 1.499 . S
C697 C698 1.373 . S
C697 C699 1.389 . S
C698 H677 0.950 . S
C698 C697 1.373 . S
C698 C714 1.377 . S
C699 C697 1.389 . S
C699 C700 1.524 . S
C699 C713 1.377 . S
C700 C699 1.524 . S
C700 C701 1.397 . S
C700 C705 1.363 . S
C701 H678 0.950 . S
C701 C700 1.397 . S
C701 C702 1.334 . S
C702 H679 0.950 . S
C702 C701 1.334 . S
C702 C703 1.287 . S
C703 C702 1.287 . S
C703 C704 1.524 . S
C703 H722 0.913 . S
C704 H680 0.950 . S
C704 C703 1.524 . S
C704 C705 1.415 . S
C705 H681 0.950 . S
C705 C700 1.363 . S
C705 C704 1.415 . S
C706 H682 0.951 . S
C706 C707 1.366 . S
C706 C708 1.388 . S
C707 C706 1.366 . S
C707 C711 1.385 . S
C708 H683 0.951 . S
C708 C706 1.388 . S
C708 C709 1.366 . S
C709 C708 1.366 . S
C709 C710 1.414 . S
C709 C712 1.499 . S
C710 H684 0.950 . S
C710 C709 1.414 . S
C710 C711 1.374 . S
C711 H685 0.950 . S
C711 C707 1.385 . S
C711 C710 1.374 . S
C712 C709 1.499 . S
C712 C713 1.373 . S
C712 C714 1.389 . S
C713 H686 0.950 . S
C713 C699 1.377 . S
C713 C712 1.373 . S
C714 C698 1.377 . S
C714 C712 1.389 . S
C714 C715 1.524 . S
C715 C714 1.524 . S
C715 C716 1.397 . S
C715 C720 1.363 . S
C716 H687 0.950 . S
C716 C715 1.397 . S
C716 C717 1.334 . S
C717 H688 0.950 . S
C717 C716 1.334 . S
C717 C718 1.287 . S
C718 C717 1.287 . S
C718 C719 1.524 . S
C718 H721 0.999 . S
C719 H689 0.950 . S
C719 C718 1.524 . S
C719 C720 1.415 . S
C720 H690 0.950 . S
C720 C715 1.363 . S
C720 C719 1.415 . S
H721 C718 0.999 . S
H722 C703 0.913 . S
H723 C741 0.951 . S
H724 C743 0.951 . S
H725 C745 0.950 . S
H726 C746 0.950 . S
H727 C748 0.950 . S
H728 C751 0.950 . S
H729 C752 0.950 . S
H730 C754 0.950 . S
H731 C755 0.950 . S
H732 C756 0.951 . S
H733 C758 0.951 . S
H734 C760 0.950 . S
H735 C761 0.950 . S
H736 C763 0.950 . S
H737 C766 0.950 . S
H738 C767 0.950 . S
H739 C769 0.950 . S
H740 C770 0.950 . S
C741 H723 0.951 . S
C741 C742 1.366 . S
C741 C743 1.388 . S
C742 C741 1.366 . S
C742 C746 1.385 . S
C743 H724 0.951 . S
C743 C741 1.388 . S
C743 C744 1.366 . S
C744 C743 1.366 . S
C744 C745 1.414 . S
C744 C747 1.499 . S
C745 H725 0.950 . S
C745 C744 1.414 . S
C745 C746 1.374 . S
C746 H726 0.950 . S
C746 C742 1.385 . S
C746 C745 1.374 . S
C747 C744 1.499 . S
C747 C748 1.373 . S
C747 C749 1.389 . S
C748 H727 0.950 . S
C748 C747 1.373 . S
C748 C764 1.377 . S
C749 C747 1.389 . S
C749 C750 1.524 . S
C749 C763 1.377 . S
C750 C749 1.524 . S
C750 C751 1.397 . S
C750 C755 1.363 . S
C751 H728 0.950 . S
C751 C750 1.397 . S
C751 C752 1.334 . S
C752 H729 0.950 . S
C752 C751 1.334 . S
C752 C753 1.287 . S
C753 C752 1.287 . S
C753 C754 1.524 . S
C753 H772 0.913 . S
C754 H730 0.950 . S
C754 C753 1.524 . S
C754 C755 1.415 . S
C755 H731 0.950 . S
C755 C750 1.363 . S
C755 C754 1.415 . S
C756 H732 0.951 . S
C756 C757 1.366 . S
C756 C758 1.388 . S
C757 C756 1.366 . S
C757 C761 1.385 . S
C758 H733 0.951 . S
C758 C756 1.388 . S
C758 C759 1.366 . S
C759 C758 1.366 . S
C759 C760 1.414 . S
C759 C762 1.499 . S
C760 H734 0.950 . S
C760 C759 1.414 . S
C760 C761 1.374 . S
C761 H735 0.950 . S
C761 C757 1.385 . S
C761 C760 1.374 . S
C762 C759 1.499 . S
C762 C763 1.373 . S
C762 C764 1.389 . S
C763 H736 0.950 . S
C763 C749 1.377 . S
C763 C762 1.373 . S
C764 C748 1.377 . S
C764 C762 1.389 . S
C764 C765 1.524 . S
C765 C764 1.524 . S
C765 C766 1.397 . S
C765 C770 1.363 . S
C766 H737 0.950 . S
C766 C765 1.397 . S
C766 C767 1.334 1_545 S
C767 H738 0.950 . S
C767 C766 1.334 1_565 S
C767 C768 1.287 1_565 S
C768 C767 1.287 1_545 S
C768 C769 1.524 . S
C768 H771 0.997 . S
C769 H739 0.950 . S
C769 C768 1.524 . S
C769 C770 1.415 . S
C770 H740 0.950 . S
C770 C765 1.363 . S
C770 C769 1.415 . S
H771 C768 0.997 . S
H772 C753 0.913 . S
H773 C791 0.951 1_554 S
H774 C793 0.951 . S
H775 C795 0.950 . S
H776 C796 0.950 . S
H777 C798 0.950 . S
H778 C801 0.950 . S
H779 C802 0.950 . S
H780 C804 0.950 . S
H781 C805 0.950 . S
H782 C806 0.951 . S
H783 C808 0.951 . S
H784 C810 0.950 . S
H785 C811 0.950 . S
H786 C813 0.950 . S
H787 C816 0.950 . S
H788 C817 0.950 . S
H789 C819 0.950 . S
H790 C820 0.950 . S
C791 H773 0.951 1_556 S
C791 C792 1.366 . S
C791 C793 1.388 . S
C792 C791 1.366 . S
C792 C796 1.385 . S
C793 H774 0.951 . S
C793 C791 1.388 . S
C793 C794 1.366 . S
C794 C793 1.366 . S
C794 C795 1.414 . S
C794 C797 1.499 . S
C795 H775 0.950 . S
C795 C794 1.414 . S
C795 C796 1.374 . S
C796 H776 0.950 . S
C796 C792 1.385 . S
C796 C795 1.374 . S
C797 C794 1.499 . S
C797 C798 1.373 . S
C797 C799 1.389 . S
C798 H777 0.950 . S
C798 C797 1.373 . S
C798 C814 1.377 . S
C799 C797 1.389 . S
C799 C800 1.524 . S
C799 C813 1.377 . S
C800 C799 1.524 . S
C800 C801 1.397 . S
C800 C805 1.363 . S
C801 H778 0.950 . S
C801 C800 1.397 . S
C801 C802 1.334 . S
C802 H779 0.950 . S
C802 C801 1.334 . S
C802 C803 1.287 . S
C803 C802 1.287 . S
C803 C804 1.524 . S
C803 H822 0.913 . S
C804 H780 0.950 . S
C804 C803 1.524 . S
C804 C805 1.415 . S
C805 H781 0.950 . S
C805 C800 1.363 . S
C805 C804 1.415 . S
C806 H782 0.951 . S
C806 C807 1.366 . S
C806 C808 1.388 . S
C807 C806 1.366 . S
C807 C811 1.385 . S
C808 H783 0.951 . S
C808 C806 1.388 . S
C808 C809 1.366 . S
C809 C808 1.366 . S
C809 C810 1.414 . S
C809 C812 1.499 . S
C810 H784 0.950 . S
C810 C809 1.414 . S
C810 C811 1.374 . S
C811 H785 0.950 . S
C811 C807 1.385 . S
C811 C810 1.374 . S
C812 C809 1.499 . S
C812 C813 1.373 . S
C812 C814 1.389 . S
C813 H786 0.950 . S
C813 C799 1.377 . S
C813 C812 1.373 . S
C814 C798 1.377 . S
C814 C812 1.389 . S
C814 C815 1.524 . S
C815 C814 1.524 . S
C815 C816 1.397 . S
C815 C820 1.363 . S
C816 H787 0.950 . S
C816 C815 1.397 . S
C816 C817 1.334 . S
C817 H788 0.950 . S
C817 C816 1.334 . S
C817 C818 1.287 . S
C818 C817 1.287 . S
C818 C819 1.524 . S
C818 H821 0.999 . S
C819 H789 0.950 . S
C819 C818 1.524 . S
C819 C820 1.415 . S
C820 H790 0.950 . S
C820 C815 1.363 . S
C820 C819 1.415 . S
H821 C818 0.999 . S
H822 C803 0.913 . S
H823 C841 0.951 . S
H824 C843 0.951 . S
H825 C845 0.950 . S
H826 C846 0.950 . S
H827 C848 0.950 . S
H828 C851 0.950 . S
H829 C852 0.950 . S
H830 C854 0.950 . S
H831 C855 0.950 . S
H832 C856 0.951 . S
H833 C858 0.951 1_655 S
H834 C860 0.950 . S
H835 C861 0.950 . S
H836 C863 0.950 . S
H837 C866 0.950 . S
H838 C867 0.950 . S
H839 C869 0.950 . S
H840 C870 0.950 . S
C841 H823 0.951 . S
C841 C842 1.366 1_455 S
C841 C843 1.388 . S
C842 C841 1.366 1_655 S
C842 C846 1.385 . S
C843 H824 0.951 . S
C843 C841 1.388 . S
C843 C844 1.366 . S
C844 C843 1.366 . S
C844 C845 1.414 1_455 S
C844 C847 1.499 . S
C845 H825 0.950 . S
C845 C844 1.414 1_655 S
C845 C846 1.374 . S
C846 H826 0.950 . S
C846 C842 1.385 . S
C846 C845 1.374 . S
C847 C844 1.499 . S
C847 C848 1.373 1_455 S
C847 C849 1.389 . S
C848 H827 0.950 . S
C848 C847 1.373 1_655 S
C848 C864 1.377 . S
C849 C847 1.389 . S
C849 C850 1.524 . S
C849 C863 1.377 . S
C850 C849 1.524 . S
C850 C851 1.397 . S
C850 C855 1.363 . S
C851 H828 0.950 . S
C851 C850 1.397 . S
C851 C852 1.334 . S
C852 H829 0.950 . S
C852 C851 1.334 . S
C852 C853 1.287 . S
C853 C852 1.287 . S
C853 C854 1.524 . S
C853 H872 0.913 . S
C854 H830 0.950 . S
C854 C853 1.524 . S
C854 C855 1.415 . S
C855 H831 0.950 . S
C855 C850 1.363 . S
C855 C854 1.415 . S
C856 H832 0.951 . S
C856 C857 1.366 . S
C856 C858 1.388 . S
C857 C856 1.366 . S
C857 C861 1.385 . S
C858 H833 0.951 1_455 S
C858 C856 1.388 . S
C858 C859 1.366 . S
C859 C858 1.366 . S
C859 C860 1.414 . S
C859 C862 1.499 . S
C860 H834 0.950 . S
C860 C859 1.414 . S
C860 C861 1.374 . S
C861 H835 0.950 . S
C861 C857 1.385 . S
C861 C860 1.374 . S
C862 C859 1.499 . S
C862 C863 1.373 . S
C862 C864 1.389 1_455 S
C863 H836 0.950 . S
C863 C849 1.377 . S
C863 C862 1.373 . S
C864 C848 1.377 . S
C864 C862 1.389 1_655 S
C864 C865 1.524 . S
C865 C864 1.524 . S
C865 C866 1.397 . S
C865 C870 1.363 . S
C866 H837 0.950 . S
C866 C865 1.397 . S
C866 C867 1.334 . S
C867 H838 0.950 . S
C867 C866 1.334 . S
C867 C868 1.287 . S
C868 C867 1.287 . S
C868 C869 1.524 . S
C868 H871 0.999 . S
C869 H839 0.950 . S
C869 C868 1.524 . S
C869 C870 1.415 . S
C870 H840 0.950 . S
C870 C865 1.363 . S
C870 C869 1.415 . S
H871 C868 0.999 . S
H872 C853 0.913 . S
H873 C891 0.951 . S
H874 C893 0.951 . S
H875 C895 0.950 . S
H876 C896 0.950 . S
H877 C898 0.950 . S
H878 C901 0.950 . S
H879 C902 0.950 . S
H880 C904 0.950 . S
H881 C905 0.950 . S
H882 C906 0.951 . S
H883 C908 0.951 . S
H884 C910 0.950 . S
H885 C911 0.950 . S
H886 C913 0.950 . S
H887 C916 0.950 . S
H888 C917 0.950 . S
H889 C919 0.950 . S
H890 C920 0.950 . S
C891 H873 0.951 . S
C891 C892 1.366 . S
C891 C893 1.388 . S
C892 C891 1.366 . S
C892 C896 1.385 1_545 S
C893 H874 0.951 . S
C893 C891 1.388 . S
C893 C894 1.366 . S
C894 C893 1.366 . S
C894 C895 1.414 1_545 S
C894 C897 1.499 . S
C895 H875 0.950 . S
C895 C894 1.414 1_565 S
C895 C896 1.374 . S
C896 H876 0.950 . S
C896 C892 1.385 1_565 S
C896 C895 1.374 . S
C897 C894 1.499 . S
C897 C898 1.373 . S
C897 C899 1.389 . S
C898 H877 0.950 . S
C898 C897 1.373 . S
C898 C914 1.377 . S
C899 C897 1.389 . S
C899 C900 1.524 . S
C899 C913 1.377 . S
C900 C899 1.524 . S
C900 C901 1.397 1_545 S
C900 C905 1.363 . S
C901 H878 0.950 . S
C901 C900 1.397 1_565 S
C901 C902 1.334 . S
C902 H879 0.950 . S
C902 C901 1.334 . S
C902 C903 1.287 . S
C903 C902 1.287 . S
C903 C904 1.524 1_565 S
C903 H922 0.913 . S
C904 H880 0.950 . S
C904 C903 1.524 1_545 S
C904 C905 1.415 . S
C905 H881 0.950 . S
C905 C900 1.363 . S
C905 C904 1.415 . S
C906 H882 0.951 . S
C906 C907 1.366 . S
C906 C908 1.388 . S
C907 C906 1.366 . S
C907 C911 1.385 . S
C908 H883 0.951 . S
C908 C906 1.388 . S
C908 C909 1.366 . S
C909 C908 1.366 . S
C909 C910 1.414 . S
C909 C912 1.499 . S
C910 H884 0.950 . S
C910 C909 1.414 . S
C910 C911 1.374 . S
C911 H885 0.950 . S
C911 C907 1.385 . S
C911 C910 1.374 . S
C912 C909 1.499 . S
C912 C913 1.373 . S
C912 C914 1.389 . S
C913 H886 0.950 . S
C913 C899 1.377 . S
C913 C912 1.373 . S
C914 C898 1.377 . S
C914 C912 1.389 . S
C914 C915 1.524 . S
C915 C914 1.524 . S
C915 C916 1.397 . S
C915 C920 1.363 . S
C916 H887 0.950 . S
C916 C915 1.397 . S
C916 C917 1.334 . S
C917 H888 0.950 . S
C917 C916 1.334 . S
C917 C918 1.287 . S
C918 C917 1.287 . S
C918 C919 1.524 . S
C918 H921 0.999 . S
C919 H889 0.950 . S
C919 C918 1.524 . S
C919 C920 1.415 . S
C920 H890 0.950 . S
C920 C915 1.363 . S
C920 C919 1.415 . S
H921 C918 0.999 . S
H922 C903 0.913 . S
H923 C941 0.951 1_554 S
H924 C943 0.951 . S
H925 C945 0.950 . S
H926 C946 0.950 . S
H927 C948 0.950 . S
H928 C951 0.950 . S
H929 C952 0.950 . S
H930 C954 0.950 1_554 S
H931 C955 0.950 . S
H932 C956 0.951 . S
H933 C958 0.951 . S
H934 C960 0.950 . S
H935 C961 0.950 . S
H936 C963 0.950 . S
H937 C966 0.950 . S
H938 C967 0.950 . S
H939 C969 0.950 . S
H940 C970 0.950 . S
C941 H923 0.951 1_556 S
C941 C942 1.366 . S
C941 C943 1.388 . S
C942 C941 1.366 . S
C942 C946 1.385 . S
C943 H924 0.951 . S
C943 C941 1.388 . S
C943 C944 1.366 . S
C944 C943 1.366 . S
C944 C945 1.414 . S
C944 C947 1.499 . S
C945 H925 0.950 . S
C945 C944 1.414 . S
C945 C946 1.374 . S
C946 H926 0.950 . S
C946 C942 1.385 . S
C946 C945 1.374 . S
C947 C944 1.499 . S
C947 C948 1.373 . S
C947 C949 1.389 . S
C948 H927 0.950 . S
C948 C947 1.373 . S
C948 C964 1.377 . S
C949 C947 1.389 . S
C949 C950 1.524 . S
C949 C963 1.377 . S
C950 C949 1.524 . S
C950 C951 1.397 . S
C950 C955 1.363 . S
C951 H928 0.950 . S
C951 C950 1.397 . S
C951 C952 1.334 . S
C952 H929 0.950 . S
C952 C951 1.334 . S
C952 C953 1.287 . S
C953 C952 1.287 . S
C953 C954 1.524 . S
C953 H972 0.913 1_556 S
C954 H930 0.950 1_556 S
C954 C953 1.524 . S
C954 C955 1.415 . S
C955 H931 0.950 . S
C955 C950 1.363 . S
C955 C954 1.415 . S
C956 H932 0.951 . S
C956 C957 1.366 . S
C956 C958 1.388 . S
C957 C956 1.366 . S
C957 C961 1.385 . S
C958 H933 0.951 . S
C958 C956 1.388 . S
C958 C959 1.366 . S
C959 C958 1.366 . S
C959 C960 1.414 . S
C959 C962 1.499 . S
C960 H934 0.950 . S
C960 C959 1.414 . S
C960 C961 1.374 . S
C961 H935 0.950 . S
C961 C957 1.385 . S
C961 C960 1.374 . S
C962 C959 1.499 . S
C962 C963 1.373 . S
C962 C964 1.389 . S
C963 H936 0.950 . S
C963 C949 1.377 . S
C963 C962 1.373 . S
C964 C948 1.377 . S
C964 C962 1.389 . S
C964 C965 1.524 . S
C965 C964 1.524 . S
C965 C966 1.397 . S
C965 C970 1.363 . S
C966 H937 0.950 . S
C966 C965 1.397 . S
C966 C967 1.334 . S
C967 H938 0.950 . S
C967 C966 1.334 . S
C967 C968 1.287 . S
C968 C967 1.287 . S
C968 C969 1.524 . S
C968 H971 0.999 . S
C969 H939 0.950 . S
C969 C968 1.524 . S
C969 C970 1.415 . S
C970 H940 0.950 . S
C970 C965 1.363 . S
C970 C969 1.415 . S
H971 C968 0.999 . S
H972 C953 0.913 1_554 S
H973 C991 0.951 . S
H974 C993 0.951 . S
H975 C995 0.950 . S
H976 C996 0.950 . S
H977 C998 0.950 . S
H978 C1001 0.950 . S
H979 C1002 0.950 . S
H980 C1004 0.950 . S
H981 C1005 0.950 . S
H982 C1006 0.951 . S
H983 C1008 0.951 . S
H984 C1010 0.950 . S
H985 C1011 0.950 . S
H986 C1013 0.950 . S
H987 C1016 0.950 . S
H988 C1017 0.950 . S
H989 C1019 0.950 . S
H990 C1020 0.950 . S
C991 H973 0.951 . S
C991 C992 1.366 . S
C991 C993 1.388 . S
C992 C991 1.366 . S
C992 C996 1.385 . S
C993 H974 0.951 . S
C993 C991 1.388 . S
C993 C994 1.366 . S
C994 C993 1.366 . S
C994 C995 1.414 . S
C994 C997 1.499 . S
C995 H975 0.950 . S
C995 C994 1.414 . S
C995 C996 1.374 . S
C996 H976 0.950 . S
C996 C992 1.385 . S
C996 C995 1.374 . S
C997 C994 1.499 . S
C997 C998 1.373 . S
C997 C999 1.389 . S
C998 H977 0.950 . S
C998 C997 1.373 . S
C998 C1014 1.377 . S
C999 C997 1.389 . S
C999 C1000 1.524 . S
C999 C1013 1.377 . S
C1000 C999 1.524 . S
C1000 C1001 1.397 . S
C1000 C1005 1.363 . S
C1001 H978 0.950 . S
C1001 C1000 1.397 . S
C1001 C1002 1.334 . S
C1002 H979 0.950 . S
C1002 C1001 1.334 . S
C1002 C1003 1.287 . S
C1003 C1002 1.287 . S
C1003 C1004 1.524 . S
C1003 H1022 0.913 . S
C1004 H980 0.950 . S
C1004 C1003 1.524 . S
C1004 C1005 1.415 . S
C1005 H981 0.950 . S
C1005 C1000 1.363 . S
C1005 C1004 1.415 . S
C1006 H982 0.951 . S
C1006 C1007 1.366 . S
C1006 C1008 1.388 . S
C1007 C1006 1.366 . S
C1007 C1011 1.385 . S
C1008 H983 0.951 . S
C1008 C1006 1.388 . S
C1008 C1009 1.366 . S
C1009 C1008 1.366 . S
C1009 C1010 1.414 . S
C1009 C1012 1.499 . S
C1010 H984 0.950 . S
C1010 C1009 1.414 . S
C1010 C1011 1.374 . S
C1011 H985 0.950 . S
C1011 C1007 1.385 . S
C1011 C1010 1.374 . S
C1012 C1009 1.499 . S
C1012 C1013 1.373 . S
C1012 C1014 1.389 . S
C1013 H986 0.950 . S
C1013 C999 1.377 . S
C1013 C1012 1.373 . S
C1014 C998 1.377 . S
C1014 C1012 1.389 . S
C1014 C1015 1.524 1_455 S
C1015 C1014 1.524 1_655 S
C1015 C1016 1.397 . S
C1015 C1020 1.363 . S
C1016 H987 0.950 . S
C1016 C1015 1.397 . S
C1016 C1017 1.334 . S
C1017 H988 0.950 . S
C1017 C1016 1.334 . S
C1017 C1018 1.287 . S
C1018 C1017 1.287 . S
C1018 C1019 1.524 . S
C1018 H1021 0.999 . S
C1019 H989 0.950 . S
C1019 C1018 1.524 . S
C1019 C1020 1.415 . S
C1020 H990 0.950 . S
C1020 C1015 1.363 . S
C1020 C1019 1.415 . S
H1021 C1018 0.999 . S
H1022 C1003 0.913 . S
C457 C286 1.398 . S
C442 C29 1.388 . S
C492 C137 1.404 . S
C507 C356 1.418 . S
C542 C225 1.408 . S
C557 C408 1.422 . S
C592 C49 1.414 . S
C607 C302 1.427 . S
C657 C346 1.404 . S
C642 C117 1.393 . S
C692 C205 1.389 . S
C707 C392 1.400 . S
C757 C339 1.399 . S
C742 C233 1.388 . S
C792 C57 1.396 . S
C807 C399 1.399 . S
C857 C293 1.403 . S
C842 C108 1.393 . S
C907 C355 1.427 . S
C892 C196 1.414 . S
C957 C409 1.425 . S
C942 C20 1.409 . S
C992 C145 1.404 . S
C1007 C303 1.419 . S
