# Generated by pormake.
# Topology gar, (4,6)-cn, num edge types: 1
# Building blocks:
#     Node 0, Type 0, BuildingBlock: GALJAG_clean_sbu_0, # of connection points: 4
#     Node 1, Type 0, BuildingBlock: GALJAG_clean_sbu_0, # of connection points: 4
#     Node 2, Type 0, BuildingBlock: GALJAG_clean_sbu_0, # of connection points: 4
#     Node 3, Type 0, BuildingBlock: GALJAG_clean_sbu_0, # of connection points: 4
#     Node 4, Type 0, BuildingBlock: GALJAG_clean_sbu_0, # of connection points: 4
#     Node 5, Type 0, BuildingBlock: GALJAG_clean_sbu_0, # of connection points: 4
#     Node 6, Type 0, BuildingBlock: GALJAG_clean_sbu_0, # of connection points: 4
#     Node 7, Type 0, BuildingBlock: GALJAG_clean_sbu_0, # of connection points: 4
#     Node 8, Type 0, BuildingBlock: GALJAG_clean_sbu_0, # of connection points: 4
#     Node 9, Type 0, BuildingBlock: GALJAG_clean_sbu_0, # of connection points: 4
#     Node 10, Type 0, BuildingBlock: GALJAG_clean_sbu_0, # of connection points: 4
#     Node 11, Type 0, BuildingBlock: GALJAG_clean_sbu_0, # of connection points: 4
#     Node 12, Type 0, BuildingBlock: GALJAG_clean_sbu_0, # of connection points: 4
#     Node 13, Type 0, BuildingBlock: GALJAG_clean_sbu_0, # of connection points: 4
#     Node 14, Type 0, BuildingBlock: GALJAG_clean_sbu_0, # of connection points: 4
#     Node 15, Type 0, BuildingBlock: GALJAG_clean_sbu_0, # of connection points: 4
#     Node 16, Type 0, BuildingBlock: GALJAG_clean_sbu_0, # of connection points: 4
#     Node 17, Type 0, BuildingBlock: GALJAG_clean_sbu_0, # of connection points: 4
#     Node 18, Type 0, BuildingBlock: GALJAG_clean_sbu_0, # of connection points: 4
#     Node 19, Type 0, BuildingBlock: GALJAG_clean_sbu_0, # of connection points: 4
#     Node 20, Type 0, BuildingBlock: GALJAG_clean_sbu_0, # of connection points: 4
#     Node 21, Type 0, BuildingBlock: GALJAG_clean_sbu_0, # of connection points: 4
#     Node 22, Type 0, BuildingBlock: GALJAG_clean_sbu_0, # of connection points: 4
#     Node 23, Type 0, BuildingBlock: GALJAG_clean_sbu_0, # of connection points: 4
#     Node 24, Type 1, BuildingBlock: NUHQIS_clean_sbu_0, # of connection points: 6
#     Node 25, Type 1, BuildingBlock: NUHQIS_clean_sbu_0, # of connection points: 6
#     Node 26, Type 1, BuildingBlock: NUHQIS_clean_sbu_0, # of connection points: 6
#     Node 27, Type 1, BuildingBlock: NUHQIS_clean_sbu_0, # of connection points: 6
#     Node 28, Type 1, BuildingBlock: NUHQIS_clean_sbu_0, # of connection points: 6
#     Node 29, Type 1, BuildingBlock: NUHQIS_clean_sbu_0, # of connection points: 6
#     Node 30, Type 1, BuildingBlock: NUHQIS_clean_sbu_0, # of connection points: 6
#     Node 31, Type 1, BuildingBlock: NUHQIS_clean_sbu_0, # of connection points: 6
#     Node 32, Type 1, BuildingBlock: NUHQIS_clean_sbu_0, # of connection points: 6
#     Node 33, Type 1, BuildingBlock: NUHQIS_clean_sbu_0, # of connection points: 6
#     Node 34, Type 1, BuildingBlock: NUHQIS_clean_sbu_0, # of connection points: 6
#     Node 35, Type 1, BuildingBlock: NUHQIS_clean_sbu_0, # of connection points: 6
#     Node 36, Type 1, BuildingBlock: NUHQIS_clean_sbu_0, # of connection points: 6
#     Node 37, Type 1, BuildingBlock: NUHQIS_clean_sbu_0, # of connection points: 6
#     Node 38, Type 1, BuildingBlock: NUHQIS_clean_sbu_0, # of connection points: 6
#     Node 39, Type 1, BuildingBlock: NUHQIS_clean_sbu_0, # of connection points: 6
#     Edge 40, Type (0, 1), BuildingBlock: KIFKEQ_clean_linker_1, # of connection points: 2
#     Edge 41, Type (0, 1), BuildingBlock: KIFKEQ_clean_linker_1, # of connection points: 2
#     Edge 42, Type (0, 1), BuildingBlock: KIFKEQ_clean_linker_1, # of connection points: 2
#     Edge 43, Type (0, 1), BuildingBlock: KIFKEQ_clean_linker_1, # of connection points: 2
#     Edge 44, Type (0, 1), BuildingBlock: KIFKEQ_clean_linker_1, # of connection points: 2
#     Edge 45, Type (0, 1), BuildingBlock: KIFKEQ_clean_linker_1, # of connection points: 2
#     Edge 46, Type (0, 1), BuildingBlock: KIFKEQ_clean_linker_1, # of connection points: 2
#     Edge 47, Type (0, 1), BuildingBlock: KIFKEQ_clean_linker_1, # of connection points: 2
#     Edge 48, Type (0, 1), BuildingBlock: KIFKEQ_clean_linker_1, # of connection points: 2
#     Edge 49, Type (0, 1), BuildingBlock: KIFKEQ_clean_linker_1, # of connection points: 2
#     Edge 50, Type (0, 1), BuildingBlock: KIFKEQ_clean_linker_1, # of connection points: 2
#     Edge 51, Type (0, 1), BuildingBlock: KIFKEQ_clean_linker_1, # of connection points: 2
#     Edge 52, Type (0, 1), BuildingBlock: KIFKEQ_clean_linker_1, # of connection points: 2
#     Edge 53, Type (0, 1), BuildingBlock: KIFKEQ_clean_linker_1, # of connection points: 2
#     Edge 54, Type (0, 1), BuildingBlock: KIFKEQ_clean_linker_1, # of connection points: 2
#     Edge 55, Type (0, 1), BuildingBlock: KIFKEQ_clean_linker_1, # of connection points: 2
#     Edge 56, Type (0, 1), BuildingBlock: KIFKEQ_clean_linker_1, # of connection points: 2
#     Edge 57, Type (0, 1), BuildingBlock: KIFKEQ_clean_linker_1, # of connection points: 2
#     Edge 58, Type (0, 1), BuildingBlock: KIFKEQ_clean_linker_1, # of connection points: 2
#     Edge 59, Type (0, 1), BuildingBlock: KIFKEQ_clean_linker_1, # of connection points: 2
#     Edge 60, Type (0, 1), BuildingBlock: KIFKEQ_clean_linker_1, # of connection points: 2
#     Edge 61, Type (0, 1), BuildingBlock: KIFKEQ_clean_linker_1, # of connection points: 2
#     Edge 62, Type (0, 1), BuildingBlock: KIFKEQ_clean_linker_1, # of connection points: 2
#     Edge 63, Type (0, 1), BuildingBlock: KIFKEQ_clean_linker_1, # of connection points: 2
#     Edge 64, Type (0, 1), BuildingBlock: KIFKEQ_clean_linker_1, # of connection points: 2
#     Edge 65, Type (0, 1), BuildingBlock: KIFKEQ_clean_linker_1, # of connection points: 2
#     Edge 66, Type (0, 1), BuildingBlock: KIFKEQ_clean_linker_1, # of connection points: 2
#     Edge 67, Type (0, 1), BuildingBlock: KIFKEQ_clean_linker_1, # of connection points: 2
#     Edge 68, Type (0, 1), BuildingBlock: KIFKEQ_clean_linker_1, # of connection points: 2
#     Edge 69, Type (0, 1), BuildingBlock: KIFKEQ_clean_linker_1, # of connection points: 2
#     Edge 70, Type (0, 1), BuildingBlock: KIFKEQ_clean_linker_1, # of connection points: 2
#     Edge 71, Type (0, 1), BuildingBlock: KIFKEQ_clean_linker_1, # of connection points: 2
#     Edge 72, Type (0, 1), BuildingBlock: KIFKEQ_clean_linker_1, # of connection points: 2
#     Edge 73, Type (0, 1), BuildingBlock: KIFKEQ_clean_linker_1, # of connection points: 2
#     Edge 74, Type (0, 1), BuildingBlock: KIFKEQ_clean_linker_1, # of connection points: 2
#     Edge 75, Type (0, 1), BuildingBlock: KIFKEQ_clean_linker_1, # of connection points: 2
#     Edge 76, Type (0, 1), BuildingBlock: KIFKEQ_clean_linker_1, # of connection points: 2
#     Edge 77, Type (0, 1), BuildingBlock: KIFKEQ_clean_linker_1, # of connection points: 2
#     Edge 78, Type (0, 1), BuildingBlock: KIFKEQ_clean_linker_1, # of connection points: 2
#     Edge 79, Type (0, 1), BuildingBlock: KIFKEQ_clean_linker_1, # of connection points: 2
#     Edge 80, Type (0, 1), BuildingBlock: KIFKEQ_clean_linker_1, # of connection points: 2
#     Edge 81, Type (0, 1), BuildingBlock: KIFKEQ_clean_linker_1, # of connection points: 2
#     Edge 82, Type (0, 1), BuildingBlock: KIFKEQ_clean_linker_1, # of connection points: 2
#     Edge 83, Type (0, 1), BuildingBlock: KIFKEQ_clean_linker_1, # of connection points: 2
#     Edge 84, Type (0, 1), BuildingBlock: KIFKEQ_clean_linker_1, # of connection points: 2
#     Edge 85, Type (0, 1), BuildingBlock: KIFKEQ_clean_linker_1, # of connection points: 2
#     Edge 86, Type (0, 1), BuildingBlock: KIFKEQ_clean_linker_1, # of connection points: 2
#     Edge 87, Type (0, 1), BuildingBlock: KIFKEQ_clean_linker_1, # of connection points: 2
#     Edge 88, Type (0, 1), BuildingBlock: KIFKEQ_clean_linker_1, # of connection points: 2
#     Edge 89, Type (0, 1), BuildingBlock: KIFKEQ_clean_linker_1, # of connection points: 2
#     Edge 90, Type (0, 1), BuildingBlock: KIFKEQ_clean_linker_1, # of connection points: 2
#     Edge 91, Type (0, 1), BuildingBlock: KIFKEQ_clean_linker_1, # of connection points: 2
#     Edge 92, Type (0, 1), BuildingBlock: KIFKEQ_clean_linker_1, # of connection points: 2
#     Edge 93, Type (0, 1), BuildingBlock: KIFKEQ_clean_linker_1, # of connection points: 2
#     Edge 94, Type (0, 1), BuildingBlock: KIFKEQ_clean_linker_1, # of connection points: 2
#     Edge 95, Type (0, 1), BuildingBlock: KIFKEQ_clean_linker_1, # of connection points: 2
#     Edge 96, Type (0, 1), BuildingBlock: KIFKEQ_clean_linker_1, # of connection points: 2
#     Edge 97, Type (0, 1), BuildingBlock: KIFKEQ_clean_linker_1, # of connection points: 2
#     Edge 98, Type (0, 1), BuildingBlock: KIFKEQ_clean_linker_1, # of connection points: 2
#     Edge 99, Type (0, 1), BuildingBlock: KIFKEQ_clean_linker_1, # of connection points: 2
#     Edge 100, Type (0, 1), BuildingBlock: KIFKEQ_clean_linker_1, # of connection points: 2
#     Edge 101, Type (0, 1), BuildingBlock: KIFKEQ_clean_linker_1, # of connection points: 2
#     Edge 102, Type (0, 1), BuildingBlock: KIFKEQ_clean_linker_1, # of connection points: 2
#     Edge 103, Type (0, 1), BuildingBlock: KIFKEQ_clean_linker_1, # of connection points: 2
#     Edge 104, Type (0, 1), BuildingBlock: KIFKEQ_clean_linker_1, # of connection points: 2
#     Edge 105, Type (0, 1), BuildingBlock: KIFKEQ_clean_linker_1, # of connection points: 2
#     Edge 106, Type (0, 1), BuildingBlock: KIFKEQ_clean_linker_1, # of connection points: 2
#     Edge 107, Type (0, 1), BuildingBlock: KIFKEQ_clean_linker_1, # of connection points: 2
#     Edge 108, Type (0, 1), BuildingBlock: KIFKEQ_clean_linker_1, # of connection points: 2
#     Edge 109, Type (0, 1), BuildingBlock: KIFKEQ_clean_linker_1, # of connection points: 2
#     Edge 110, Type (0, 1), BuildingBlock: KIFKEQ_clean_linker_1, # of connection points: 2
#     Edge 111, Type (0, 1), BuildingBlock: KIFKEQ_clean_linker_1, # of connection points: 2
#     Edge 112, Type (0, 1), BuildingBlock: KIFKEQ_clean_linker_1, # of connection points: 2
#     Edge 113, Type (0, 1), BuildingBlock: KIFKEQ_clean_linker_1, # of connection points: 2
#     Edge 114, Type (0, 1), BuildingBlock: KIFKEQ_clean_linker_1, # of connection points: 2
#     Edge 115, Type (0, 1), BuildingBlock: KIFKEQ_clean_linker_1, # of connection points: 2
#     Edge 116, Type (0, 1), BuildingBlock: KIFKEQ_clean_linker_1, # of connection points: 2
#     Edge 117, Type (0, 1), BuildingBlock: KIFKEQ_clean_linker_1, # of connection points: 2
#     Edge 118, Type (0, 1), BuildingBlock: KIFKEQ_clean_linker_1, # of connection points: 2
#     Edge 119, Type (0, 1), BuildingBlock: KIFKEQ_clean_linker_1, # of connection points: 2
#     Edge 120, Type (0, 1), BuildingBlock: KIFKEQ_clean_linker_1, # of connection points: 2
#     Edge 121, Type (0, 1), BuildingBlock: KIFKEQ_clean_linker_1, # of connection points: 2
#     Edge 122, Type (0, 1), BuildingBlock: KIFKEQ_clean_linker_1, # of connection points: 2
#     Edge 123, Type (0, 1), BuildingBlock: KIFKEQ_clean_linker_1, # of connection points: 2
#     Edge 124, Type (0, 1), BuildingBlock: KIFKEQ_clean_linker_1, # of connection points: 2
#     Edge 125, Type (0, 1), BuildingBlock: KIFKEQ_clean_linker_1, # of connection points: 2
#     Edge 126, Type (0, 1), BuildingBlock: KIFKEQ_clean_linker_1, # of connection points: 2
#     Edge 127, Type (0, 1), BuildingBlock: KIFKEQ_clean_linker_1, # of connection points: 2
#     Edge 128, Type (0, 1), BuildingBlock: KIFKEQ_clean_linker_1, # of connection points: 2
#     Edge 129, Type (0, 1), BuildingBlock: KIFKEQ_clean_linker_1, # of connection points: 2
#     Edge 130, Type (0, 1), BuildingBlock: KIFKEQ_clean_linker_1, # of connection points: 2
#     Edge 131, Type (0, 1), BuildingBlock: KIFKEQ_clean_linker_1, # of connection points: 2
#     Edge 132, Type (0, 1), BuildingBlock: KIFKEQ_clean_linker_1, # of connection points: 2
#     Edge 133, Type (0, 1), BuildingBlock: KIFKEQ_clean_linker_1, # of connection points: 2
#     Edge 134, Type (0, 1), BuildingBlock: KIFKEQ_clean_linker_1, # of connection points: 2
#     Edge 135, Type (0, 1), BuildingBlock: KIFKEQ_clean_linker_1, # of connection points: 2
# Relax obj value: 0.229
# Max RMSD: 0.309
# Mean RMSD: 0.158
data_MOF--net-gar--node1-GALJAG_clean_sbu_0--node2-NUHQIS_clean_sbu_0--edge1-KIFKEQ_clean_linker_1
_symmetry_space_group_name_H-M    P1
_symmetry_Int_Tables_number       1
_symmetry_cell_setting            triclinic
loop_
_symmetry_equiv_pos_as_xyz
'x, y, z'
_cell_length_a     57.856884
_cell_length_b     60.887217
_cell_length_c     57.550728
_cell_angle_alpha  92.810784
_cell_angle_beta   96.33167
_cell_angle_gamma 99.744517
loop_
_atom_site_label
_atom_site_type_symbol
_atom_site_fract_x
_atom_site_fract_y
_atom_site_fract_z
_atom_type_partial_charge
In0 In 0.08388 0.29562 0.4226 0.0
O1 O 0.10407 0.29225 0.38807 0.0
O2 O 0.12609 0.30247 0.419 0.0
C3 C 0.03715 0.29321 0.39871 0.0
C4 C 0.08128 0.25252 0.44527 0.0
C5 C 0.0861 0.34096 0.44444 0.0
O6 O 0.05486 0.29021 0.38859 0.0
O7 O 0.04272 0.29686 0.4206 0.0
O8 O 0.08631 0.32348 0.45571 0.0
O9 O 0.08576 0.33586 0.42277 0.0
C10 C 0.12538 0.29776 0.39717 0.0
O11 O 0.08948 0.27166 0.45565 0.0
O12 O 0.07437 0.25504 0.42408 0.0
In13 In 0.0618 0.80172 0.65558 0.0
O14 O 0.0571 0.82609 0.62281 0.0
O15 O 0.07071 0.84242 0.65498 0.0
C16 C 0.06093 0.75698 0.63239 0.0
C17 C 0.10812 0.80441 0.68061 0.0
C18 C 1.0197 0.79998 0.68043 0.0
O19 O 0.05859 0.77441 0.62162 0.0
O20 O 0.06281 0.76182 0.65425 0.0
O21 O 0.0409 0.80616 0.68961 0.0
O22 O 1.01938 0.79443 0.65882 0.0
C23 C 0.06463 0.84515 0.63362 0.0
O24 O 0.08914 0.80117 0.69003 0.0
O25 O 0.10398 0.80692 0.65893 0.0
In26 In 0.58377 0.79584 0.9238 0.0
O27 O 0.60612 0.80121 0.89026 0.0
O28 O 0.62516 0.79385 0.9206 0.0
C29 C 0.53727 0.79269 0.89863 0.0
C30 C 0.57984 0.75253 0.94628 0.0
C31 C 0.58664 0.84108 0.94674 0.0
O32 O 0.55493 0.78791 0.88947 0.0
O33 O 0.54274 0.79828 0.92025 0.0
O34 O 0.58671 0.82335 0.9576 0.0
O35 O 0.58625 0.83625 0.92503 0.0
C36 C 0.62613 0.79789 0.89929 0.0
O37 O 0.58784 0.77164 0.95685 0.0
O38 O 0.57358 0.75516 0.9249 0.0
In39 In 0.56226 0.30214 0.15791 0.0
O40 O 0.56112 0.27479 0.12446 0.0
O41 O 0.56134 0.26193 0.15708 0.0
C42 C 0.56474 0.34534 0.13555 0.0
C43 C 0.52018 0.30046 0.18248 0.0
C44 C 0.60832 0.30524 0.18349 0.0
O45 O 0.557 0.32621 0.12494 0.0
O46 O 0.57114 0.34277 0.15687 0.0
O47 O 0.58922 0.30221 0.19271 0.0
O48 O 0.60441 0.30722 0.16168 0.0
C49 C 0.56146 0.25715 0.13542 0.0
O50 O 0.5413 0.30724 0.1916 0.0
O51 O 0.51992 0.29437 0.16102 0.0
In52 In 0.14681 0.87351 0.1828 0.0
O53 O 0.16153 0.84944 0.15929 0.0
O54 O 0.14606 0.83681 0.18888 0.0
C55 C 0.13481 0.89994 0.1491 0.0
C56 C 0.10462 0.8656 0.19883 0.0
C57 C 0.18557 0.89079 0.21276 0.0
O58 O 0.13968 0.88094 0.14451 0.0
O59 O 0.13707 0.90599 0.17059 0.0
O60 O 0.16606 0.88271 0.21932 0.0
O61 O 0.18558 0.89051 0.19084 0.0
C62 C 0.15566 0.83274 0.17088 0.0
O63 O 0.12093 0.88119 0.20764 0.0
O64 O 0.10959 0.85409 0.18186 0.0
In65 In 0.53209 0.73259 0.41386 0.0
O66 O 0.54912 0.70763 0.3937 0.0
O67 O 0.57154 0.73559 0.41242 0.0
C68 C 0.49712 0.72233 0.37844 0.0
C69 C 0.52898 0.71507 0.45562 0.0
C70 C 0.53131 0.77659 0.41903 0.0
O71 O 0.51766 0.7318 0.37553 0.0
O72 O 0.4943 0.7179 0.39927 0.0
O73 O 0.51416 0.76191 0.42259 0.0
O74 O 0.54884 0.7691 0.41274 0.0
C75 C 0.56987 0.71821 0.39908 0.0
O76 O 0.54166 0.7336 0.45339 0.0
O77 O 0.51803 0.70534 0.43677 0.0
In78 In 0.62678 0.37072 0.6629 0.0
O79 O 0.64639 0.34348 0.65128 0.0
O80 O 0.60972 0.33985 0.63947 0.0
C81 C 0.62607 0.40291 0.63255 0.0
C82 C 0.5874 0.36621 0.68415 0.0
C83 C 0.66133 0.37501 0.69887 0.0
O84 O 0.63739 0.38722 0.62993 0.0
O85 O 0.61623 0.40293 0.65099 0.0
O86 O 0.64352 0.35964 0.69629 0.0
O87 O 0.662 0.3887 0.68302 0.0
C88 C 0.62835 0.33165 0.6398 0.0
O89 O 0.60586 0.37985 0.69203 0.0
O90 O 0.58861 0.3554 0.66519 0.0
In91 In 1.01681 0.23414 0.91111 0.0
O92 O 1.01325 0.21957 0.94635 0.0
O93 O 0.03925 0.20998 0.92656 0.0
C94 C 1.01341 0.2726 0.93434 0.0
C95 C 0.05145 0.2459 0.88469 0.0
C96 C 0.9784 0.2148 0.88138 0.0
O97 O 0.99626 0.26146 0.9209 0.0
O98 O 1.03211 0.26448 0.93563 0.0
O99 O 0.99629 0.22643 0.87486 0.0
O100 O 0.97994 0.21239 0.90309 0.0
C101 C 1.03 0.20893 0.9454 0.0
O102 O 0.04594 0.22612 0.89055 0.0
O103 O 0.0394 0.25961 0.89213 0.0
In104 In 0.53352 0.1234 0.31443 0.0
O105 O 0.56701 0.11059 0.30839 0.0
O106 O 0.55963 0.13886 0.29036 0.0
C107 C 0.54876 0.13877 0.35933 0.0
C108 C 0.50311 0.14409 0.28836 0.0
C109 C 0.51094 0.08083 0.31563 0.0
O110 O 0.56236 0.13849 0.34374 0.0
O111 O 0.52718 0.13243 0.35202 0.0
O112 O 0.50796 0.0965 0.32948 0.0
O113 O 0.52555 0.08653 0.30139 0.0
C114 C 0.57341 0.12505 0.29431 0.0
O115 O 0.50605 0.12449 0.28337 0.0
O116 O 0.51592 0.15366 0.30644 0.0
In117 In 0.34302 0.17543 0.53579 0.0
O118 O 0.35174 0.20733 0.56423 0.0
O119 O 0.33605 0.17727 0.57608 0.0
C120 C 0.34195 0.19798 0.49212 0.0
C121 C 0.38409 0.15301 0.53796 0.0
C122 C 0.29588 0.15122 0.53398 0.0
O123 O 0.34745 0.20781 0.5124 0.0
O124 O 0.33712 0.17709 0.49367 0.0
O125 O 0.31402 0.14206 0.53411 0.0
O126 O 0.30131 0.17225 0.5341 0.0
C127 C 0.34361 0.19781 0.5815 0.0
O128 O 0.36296 0.14368 0.53133 0.0
O129 O 0.38478 0.17348 0.54373 0.0
In130 In 0.22931 0.05797 0.84956 0.0
O131 O 0.19604 0.06941 0.83416 0.0
O132 O 0.20395 0.03953 0.81869 0.0
C133 C 0.21039 0.04343 0.88749 0.0
C134 C 0.26564 0.03621 0.84613 0.0
C135 C 0.24863 0.1009 0.84634 0.0
O136 O 0.20445 0.03335 0.86749 0.0
O137 O 0.22657 0.06032 0.88846 0.0
O138 O 0.25098 0.08541 0.83193 0.0
O139 O 0.23671 0.09473 0.86266 0.0
C140 C 0.18996 0.05338 0.81882 0.0
O141 O 0.25156 0.03896 0.82858 0.0
O142 O 0.26105 0.04394 0.86547 0.0
In143 In 0.33789 0.89505 0.04501 0.0
O144 O 0.32531 0.86687 0.06852 0.0
O145 O 0.35839 0.88761 0.07906 0.0
C146 C 0.3282 0.87613 1.00029 0.0
C147 C 0.3047 0.91761 0.05837 0.0
C148 C 0.3784 0.92334 0.04188 0.0
O149 O 0.33807 0.86679 0.01678 0.0
O150 O 0.32281 0.89453 1.00648 0.0
O151 O 0.3587 0.9296 0.04181 0.0
O152 O 0.37766 0.90254 0.04294 0.0
C153 C 0.34304 0.8718 0.08387 0.0
O154 O 0.3264 0.92573 0.06061 0.0
O155 O 0.29945 0.89787 0.04918 0.0
In156 In 0.30179 0.42296 0.04207 0.0
O157 O 0.29085 0.39237 0.06663 0.0
O158 O 0.31319 0.42021 0.08345 0.0
C159 C 0.30128 0.39882 0.99719 0.0
C160 C 0.26064 0.44537 0.04012 0.0
C161 C 0.34857 0.44823 0.04319 0.0
O162 O 0.304 0.3906 0.01691 0.0
O163 O 0.29782 0.41873 0.99981 0.0
O164 O 0.34319 0.42721 0.04022 0.0
O165 O 0.33053 0.4569 0.04596 0.0
C166 C 0.30228 0.4008 0.08599 0.0
O167 O 0.28202 0.45512 0.04374 0.0
O168 O 0.25972 0.42442 0.0374 0.0
In169 In 0.81116 0.20746 0.03633 0.0
O170 O 0.84883 0.2025 0.03163 0.0
O171 O 0.82256 0.17361 0.03149 0.0
C172 C 0.76819 0.18095 0.03006 0.0
C173 C 0.81938 0.22547 0.08145 0.0
C174 C 0.81092 0.23566 1.00104 0.0
O175 O 0.78348 0.17988 1.0162 0.0
O176 O 0.77448 0.19558 0.04694 0.0
O177 O 0.82968 0.23255 1.01275 0.0
O178 O 0.79234 0.22536 1.00776 0.0
C179 C 0.84385 0.18145 0.02979 0.0
O180 O 0.81284 0.23627 0.06449 0.0
O181 O 0.82197 0.20592 0.07561 0.0
In182 In 0.14717 0.50638 0.29017 0.0
O183 O 0.1549 0.47096 0.28693 0.0
O184 O 0.15084 0.48405 0.3207 0.0
C185 C 0.19011 0.532 0.29927 0.0
C186 C 0.13197 0.50673 0.24441 0.0
C187 C 0.11488 0.52912 0.30509 0.0
O188 O 0.18336 0.5205 0.2801 0.0
O189 O 0.17547 0.52985 0.31409 0.0
O190 O 0.10957 0.50877 0.29794 0.0
O191 O 0.13636 0.53747 0.30555 0.0
C192 C 0.15567 0.46808 0.3085 0.0
O193 O 0.15114 0.51818 0.25404 0.0
O194 O 0.1207 0.49414 0.2577 0.0
In195 In 0.80422 0.92225 0.54365 0.0
O196 O 0.79295 0.89164 0.56793 0.0
O197 O 0.81615 0.91901 0.58468 0.0
C198 C 0.80264 0.89791 0.49898 0.0
C199 C 0.76351 0.9449 0.54231 0.0
C200 C 0.85077 0.94747 0.54337 0.0
O201 O 0.80898 0.89095 0.51864 0.0
O202 O 0.79614 0.91663 0.5016 0.0
O203 O 0.83311 0.95612 0.54768 0.0
O204 O 0.84509 0.92657 0.53942 0.0
C205 C 0.80488 0.89974 0.58714 0.0
O206 O 0.78491 0.95454 0.54644 0.0
O207 O 0.7624 0.92401 0.53878 0.0
In208 In 0.92333 0.03062 0.24341 0.0
O209 O 0.93605 0.05126 0.21395 0.0
O210 O 0.94206 1.01772 0.21477 0.0
C211 C 0.96328 0.03864 0.27354 0.0
C212 C 0.89076 0.05586 0.25045 0.0
C213 C 0.8957 0.99071 0.24399 0.0
O214 O 0.95214 1.0192 0.26747 0.0
O215 O 0.95385 0.05414 0.26502 0.0
O216 O 0.90439 1.00258 0.26249 0.0
O217 O 0.90112 0.9989 0.22522 0.0
C218 C 0.94486 0.0358 0.20482 0.0
O219 O 0.89275 0.0476 0.23039 0.0
O220 O 0.90555 0.05179 0.26675 0.0
In221 In 0.31084 0.70693 0.52965 0.0
O222 O 0.31973 0.67243 0.52094 0.0
O223 O 0.34812 0.69973 0.52859 0.0
C224 C 0.26749 0.68075 0.52463 0.0
C225 C 0.31944 0.72592 0.57431 0.0
C226 C 0.3159 0.73579 0.4951 0.0
O227 O 0.2791 0.68492 0.50756 0.0
O228 O 0.27747 0.69019 0.54401 0.0
O229 O 0.3328 0.72831 0.50574 0.0
O230 O 0.29631 0.72969 0.50267 0.0
C231 C 0.34174 0.67916 0.52294 0.0
O232 O 0.31046 0.7356 0.55753 0.0
O233 O 0.32421 0.70717 0.56843 0.0
In234 In 0.43222 0.5246 0.73029 0.0
O235 O 0.40363 0.54425 0.71722 0.0
O236 O 0.42091 0.55193 0.75196 0.0
C237 C 0.40395 0.48435 0.72607 0.0
C238 C 0.45807 0.52986 0.69459 0.0
C239 C 0.46671 0.52883 0.76615 0.0
O240 O 0.40258 0.49935 0.74145 0.0
O241 O 0.41951 0.48965 0.71272 0.0
O242 O 0.46531 0.54375 0.75186 0.0
O243 O 0.45016 0.51215 0.76288 0.0
C244 C 0.40532 0.55577 0.73637 0.0
O245 O 0.46321 0.519 0.71188 0.0
O246 O 0.43933 0.53789 0.69487 0.0
In247 In 0.64098 0.97572 0.75928 0.0
O248 O 0.6593 0.96882 0.79441 0.0
O249 O 0.65907 0.94532 0.76603 0.0
C250 C 0.66971 1.01586 0.76162 0.0
C251 C 0.62427 0.96037 0.71479 0.0
C252 C 0.6005 0.98306 0.77429 0.0
O253 O 0.67148 1.00008 0.74722 0.0
O254 O 0.65361 1.01131 0.77456 0.0
O255 O 0.61156 0.99577 0.76098 0.0
O256 O 0.60964 0.96626 0.77964 0.0
C257 C 0.66551 0.9511 0.78744 0.0
O258 O 0.61319 0.95513 0.73194 0.0
O259 O 0.64446 0.97217 0.72026 0.0
In260 In 0.84052 0.67561 0.0378 0.0
O261 O 0.86098 0.64409 0.03498 0.0
O262 O 0.88259 0.67502 0.04306 0.0
C263 C 0.79403 0.65031 0.03811 0.0
C264 C 0.84165 0.69895 0.08286 0.0
C265 C 0.83916 0.69802 0.9942 0.0
O266 O 0.81139 0.64193 0.03235 0.0
O267 O 0.79993 0.67105 0.04329 0.0
O268 O 0.84991 0.70681 1.01369 0.0
O269 O 0.82925 0.67821 0.99649 0.0
C270 C 0.88216 0.65425 0.03933 0.0
O271 O 0.83821 0.70743 0.06336 0.0
O272 O 0.84556 0.67921 0.07986 0.0
In273 In 1.00696 0.62096 0.80131 0.0
O274 O 0.98822 0.62943 0.76702 0.0
O275 O 0.99093 0.6527 0.79621 0.0
C276 C 0.97928 0.58017 0.79574 0.0
C277 C 0.04911 0.6167 0.78818 0.0
C278 C 1.01964 0.63145 0.84751 0.0
O279 O 0.97615 0.59525 0.81028 0.0
O280 O 0.99611 0.58577 0.78388 0.0
O281 O 0.0332 0.63727 0.83236 0.0
O282 O 0.99907 0.62204 0.83917 0.0
C283 C 0.98343 0.64754 0.77487 0.0
O284 O 0.0377 0.60269 0.8 0.0
O285 O 0.03926 0.63313 0.78299 0.0
In286 In 0.84539 0.39462 0.55419 0.0
O287 O 0.82472 0.37269 0.57889 0.0
O288 O 0.86163 0.3737 0.5818 0.0
C289 C 0.83626 0.37738 0.50872 0.0
C290 C 0.81486 0.42296 0.55989 0.0
C291 C 0.88937 0.41918 0.56109 0.0
O292 O 0.84242 0.36598 0.52535 0.0
O293 O 0.83457 0.39705 0.51509 0.0
O294 O 0.87431 0.42051 0.57513 0.0
O295 O 0.88234 0.40525 0.54371 0.0
C296 C 0.8425 0.36673 0.58976 0.0
O297 O 0.83679 0.42945 0.56026 0.0
O298 O 0.80821 0.4021 0.55648 0.0
In299 In 0.7579 0.56008 0.35383 0.0
O300 O 0.79249 0.55294 0.37254 0.0
O301 O 0.76788 0.52557 0.35554 0.0
C302 C 0.7814 0.6021 0.35678 0.0
C303 C 0.73435 0.55024 0.31029 0.0
C304 C 0.72396 0.56236 0.38144 0.0
O305 O 0.78274 0.58815 0.34021 0.0
O306 O 0.76886 0.59458 0.37219 0.0
O307 O 0.72801 0.57553 0.36557 0.0
O308 O 0.7373 0.54798 0.38368 0.0
C309 C 0.78767 0.53223 0.36744 0.0
O310 O 0.72605 0.54344 0.32847 0.0
O311 O 0.75513 0.56112 0.31387 0.0
Tb312 Tb 0.05323 0.04579 0.02746 0.0
Eu313 Eu 0.10347 0.06024 0.06256 0.0
C314 C 0.10141 0.05206 1.00795 0.0
C315 C 0.08095 1.00989 0.04754 0.0
C316 C 0.99606 0.05313 0.99974 0.0
C317 C 0.95541 0.05804 1.00125 0.0
C318 C 0.97217 0.04403 1.00009 0.0
C319 C 1.00284 0.07643 0.99988 0.0
C320 C 0.98615 0.0904 1.00103 0.0
C321 C 0.96231 0.08142 1.0022 0.0
C322 C 1.01415 0.03869 1.00206 0.0
O323 O 0.04505 0.06011 0.05993 0.0
O324 O 0.07402 0.04867 0.08392 0.0
O325 O 0.08951 0.09224 0.06094 0.0
O326 O 0.06405 0.08168 0.02679 0.0
C327 C 0.05326 0.05463 0.0805 0.0
O328 O 0.12326 0.06117 0.09726 0.0
O329 O 0.1417 0.07151 0.06786 0.0
O330 O 0.10943 0.06686 0.02552 0.0
O331 O 0.08117 0.03851 1.00767 0.0
O332 O 0.06002 1.01561 0.04389 0.0
O333 O 0.10033 0.02473 0.04895 0.0
C334 C 0.07513 0.09676 0.04327 0.0
O335 O 0.03416 0.04628 0.99432 0.0
O336 O 1.0174 0.03067 0.02255 0.0
C337 C 0.15924 0.04892 0.09368 0.0
C338 C 0.18908 1.01683 0.09454 0.0
C339 C 0.16444 1.01012 0.09197 0.0
C340 C 0.14966 0.026 0.0915 0.0
C341 C 0.1838 0.05571 0.09724 0.0
C342 C 0.19864 0.03978 0.09776 0.0
C343 C 0.14367 0.06539 0.08927 0.0
H344 H 0.93722 0.05059 1.00235 0.0
H345 H 0.96662 0.02614 1.00029 0.0
H346 H 1.02117 0.08397 0.99978 0.0
H347 H 0.992 0.10829 1.00134 0.0
H348 H 0.15657 0.99257 0.08975 0.0
H349 H 0.13072 0.02035 0.08861 0.0
H350 H 0.19149 0.0733 0.09867 0.0
H351 H 0.21757 0.04546 0.09954 0.0
Tb352 Tb 0.36295 0.82371 0.30103 0.0
Eu353 Eu 0.31788 0.78405 0.28087 0.0
C354 C 0.31162 0.83528 0.28951 0.0
C355 C 0.33382 0.79439 0.33566 0.0
C356 C 0.40796 0.87602 0.3168 0.0
C357 C 0.40657 0.91204 0.30092 0.0
C358 C 0.39722 0.8893 0.30117 0.0
C359 C 0.42792 0.88562 0.33222 0.0
C360 C 0.43722 0.90828 0.33203 0.0
C361 C 0.42668 0.92176 0.31638 0.0
C362 C 0.39881 0.85214 0.31743 0.0
O363 O 0.37638 0.79503 0.28737 0.0
O364 O 0.34733 0.76743 0.29551 0.0
O365 O 0.3356 0.79699 0.25007 0.0
O366 O 0.35339 0.83208 0.26527 0.0
C367 C 0.3692 0.77429 0.292 0.0
O368 O 0.30439 0.7559 0.25551 0.0
O369 O 0.28205 0.76549 0.28071 0.0
O370 O 0.30369 0.81581 0.27801 0.0
O371 O 0.33278 0.84071 0.30137 0.0
O372 O 0.35475 0.80364 0.3306 0.0
O373 O 0.31574 0.78908 0.31938 0.0
C374 C 0.34532 0.81764 0.24726 0.0
O375 O 0.38017 0.84699 0.32818 0.0
O376 O 0.39734 0.83995 0.29789 0.0
C377 C 0.28001 0.72716 0.2715 0.0
C378 C 0.2702 0.68319 0.28517 0.0
C379 C 0.29356 0.69474 0.2875 0.0
C380 C 0.29842 0.71663 0.28087 0.0
C381 C 0.25671 0.71566 0.26903 0.0
C382 C 0.25181 0.69383 0.27585 0.0
C383 C 0.28497 0.75033 0.26502 0.0
H384 H 0.39796 0.92204 0.2888 0.0
H385 H 0.38169 0.88208 0.28921 0.0
H386 H 0.43642 0.87554 0.34436 0.0
H387 H 0.45292 0.91516 0.34389 0.0
H388 H 0.30801 0.68698 0.2948 0.0
H389 H 0.31655 0.72535 0.28316 0.0
H390 H 0.24231 0.72358 0.26192 0.0
H391 H 0.23366 0.68518 0.27361 0.0
Tb392 Tb 0.5614 0.0331 0.52041 0.0
Eu393 Eu 0.58861 0.06792 0.5623 0.0
C394 C 0.56596 1.01862 0.57247 0.0
C395 C 0.53398 0.07221 0.54259 0.0
C396 C 0.53697 0.98363 0.47904 0.0
C397 C 0.51395 0.94775 0.46396 0.0
C398 C 0.51506 0.96992 0.47205 0.0
C399 C 0.55785 0.97498 0.47773 0.0
C400 C 0.55674 0.95287 0.46939 0.0
C401 C 0.53478 0.93905 0.46256 0.0
C402 C 0.5376 1.00671 0.48799 0.0
O403 O 0.58214 0.05942 0.50356 0.0
O404 O 0.58394 0.08795 0.53103 0.0
O405 O 0.61604 0.04553 0.55351 0.0
O406 O 0.59518 0.01959 0.52519 0.0
C407 C 0.58475 0.08077 0.50947 0.0
O408 O 0.62095 0.09145 0.57422 0.0
O409 O 0.59402 0.08414 0.59755 0.0
O410 O 0.57002 0.03959 0.58033 0.0
O411 O 0.56505 1.01271 0.55015 0.0
O412 O 0.53429 0.05461 0.52792 0.0
O413 O 0.55292 0.08014 0.55761 0.0
C414 C 0.615 0.02741 0.53924 0.0
O415 O 0.53118 1.00916 0.50884 0.0
O416 O 0.55628 0.02115 0.48514 0.0
C417 C 0.61466 0.121 0.59868 0.0
C418 C 0.61826 0.16757 0.60442 0.0
C419 C 0.63698 0.15724 0.61345 0.0
C420 C 0.63516 0.13408 0.6106 0.0
C421 C 0.5959 0.13122 0.58972 0.0
C422 C 0.59764 0.15433 0.59267 0.0
C423 C 0.61359 0.09701 0.59395 0.0
H424 H 0.49682 0.93742 0.45866 0.0
H425 H 0.4988 0.97634 0.47299 0.0
H426 H 0.57496 0.98523 0.48328 0.0
H427 H 0.57302 0.94643 0.46873 0.0
H428 H 0.65298 0.16707 0.62277 0.0
H429 H 0.64987 0.12641 0.6174 0.0
H430 H 0.58008 0.12137 0.58009 0.0
H431 H 0.58307 0.16188 0.58529 0.0
Tb432 Tb 0.29759 0.2974 0.78121 0.0
Eu433 Eu 0.35145 0.29519 0.80027 0.0
C434 C 0.33853 0.33397 0.76876 0.0
C435 C 0.33002 0.2758 0.74647 0.0
C436 C 0.23337 0.29686 0.77733 0.0
C437 C 0.19064 0.28945 0.77341 0.0
C438 C 0.21162 0.29282 0.76318 0.0
C439 C 0.23412 0.29796 0.80179 0.0
C440 C 0.21318 0.29469 0.81203 0.0
C441 C 0.19126 0.29013 0.79792 0.0
C442 C 0.25517 0.29855 0.76649 0.0
O443 O 0.29492 0.27222 0.80672 0.0
O444 O 0.33042 0.26158 0.80381 0.0
O445 O 0.33579 0.30622 0.83329 0.0
O446 O 0.30348 0.31846 0.81531 0.0
C447 C 0.30906 0.25767 0.80975 0.0
O448 O 0.38015 0.27629 0.80574 0.0
O449 O 0.38557 0.31087 0.81902 0.0
O450 O 0.35274 0.32872 0.78601 0.0
O451 O 0.31785 0.32176 0.76182 0.0
O452 O 0.30885 0.27562 0.75349 0.0
O453 O 0.34905 0.28567 0.7605 0.0
C454 C 0.31818 0.31742 0.83457 0.0
O455 O 0.27104 0.3163 0.77304 0.0
O456 O 0.26435 0.28044 0.76615 0.0
C457 C 0.41691 0.29877 0.80276 0.0
C458 C 0.45626 0.31297 0.77925 0.0
C459 C 0.45721 0.31824 0.80342 0.0
C460 C 0.43765 0.31111 0.81512 0.0
C461 C 0.41608 0.29321 0.77867 0.0
C462 C 0.43564 0.30014 0.76706 0.0
C463 C 0.39552 0.29376 0.81441 0.0
H464 H 0.17396 0.28613 0.76218 0.0
H465 H 0.21086 0.29186 0.74426 0.0
H466 H 0.25087 0.30086 0.81291 0.0
H467 H 0.21415 0.29499 0.83095 0.0
H468 H 0.47297 0.32803 0.81319 0.0
H469 H 0.43848 0.31573 0.83365 0.0
H470 H 0.40011 0.28406 0.76865 0.0
H471 H 0.43434 0.29614 0.74836 0.0
Tb472 Tb 0.07392 0.03791 0.51636 0.0
Eu473 Eu 0.07335 0.06166 0.56622 0.0
C474 C 0.12256 0.0684 0.54079 0.0
C475 C 0.07541 1.00637 0.56129 0.0
C476 C 0.07997 0.02816 0.45314 0.0
C477 C 0.07694 0.01993 0.41128 0.0
C478 C 0.07658 1.01264 0.43384 0.0
C479 C 0.08603 0.05103 0.44997 0.0
C480 C 0.08636 0.05838 0.42736 0.0
C481 C 0.08056 0.04292 0.40773 0.0
C482 C 0.07323 0.02055 0.47554 0.0
O483 O 0.03706 0.02537 0.52374 0.0
O484 O 0.03413 0.04685 0.55659 0.0
O485 O 0.07016 0.09135 0.54285 0.0
O486 O 0.07262 0.07384 0.50735 0.0
C487 C 1.02435 0.03139 0.53993 0.0
O488 O 0.0563 0.07721 0.59334 0.0
O489 O 0.09318 0.07397 0.59976 0.0
O490 O 0.11056 0.07527 0.55707 0.0
O491 O 0.11216 0.05212 0.52514 0.0
O492 O 0.07546 1.00831 0.53835 0.0
O493 O 0.07573 0.02474 0.57496 0.0
C494 C 0.07152 0.09256 0.52007 0.0
O495 O 0.09023 0.02031 0.49233 0.0
O496 O 0.05586 0.02896 0.4829 0.0
C497 C 0.07185 0.07161 0.63208 0.0
C498 C 0.0771 0.06155 0.67933 0.0
C499 C 0.0689 0.08115 0.67288 0.0
C500 C 0.06652 0.08623 0.64942 0.0
C501 C 0.07746 0.05091 0.6381 0.0
C502 C 0.08018 0.04596 0.66155 0.0
C503 C 0.075 0.07938 0.60872 0.0
H504 H 0.07217 1.00754 0.39662 0.0
H505 H 0.07187 0.99493 0.43605 0.0
H506 H 0.08884 0.06323 0.4648 0.0
H507 H 0.08949 0.07617 0.42519 0.0
H508 H 0.06575 0.09324 0.68607 0.0
H509 H 0.06193 0.10218 0.64501 0.0
H510 H 0.08144 0.03929 0.62488 0.0
H511 H 0.08659 0.03075 0.66573 0.0
Tb512 Tb 0.31447 0.77642 0.79428 0.0
Eu513 Eu 0.33422 0.82582 0.77999 0.0
C514 C 0.31635 0.81813 0.83073 0.0
C515 C 0.27832 0.80341 0.7667 0.0
C516 C 0.30472 0.7156 0.79424 0.0
C517 C 0.29751 0.67514 0.79117 0.0
C518 C 0.29236 0.69526 0.80019 0.0
C519 C 0.32194 0.71577 0.7789 0.0
C520 C 0.32709 0.69576 0.7699 0.0
C521 C 0.31506 0.67523 0.77605 0.0
C522 C 0.29954 0.73675 0.8035 0.0
O523 O 0.31897 0.77108 0.75744 0.0
O524 O 0.3429 0.80367 0.75108 0.0
O525 O 0.36345 0.8174 0.80671 0.0
O526 O 0.35397 0.77953 0.80076 0.0
C527 C 0.33221 0.78333 0.74414 0.0
O528 O 0.32809 0.85827 0.76919 0.0
O529 O 0.36357 0.85079 0.77206 0.0
O530 O 0.32097 0.83224 0.81462 0.0
O531 O 0.31458 0.79647 0.82659 0.0
O532 O 0.2818 0.79036 0.78405 0.0
O533 O 0.29685 0.81605 0.75976 0.0
C534 C 0.36939 0.7976 0.80933 0.0
O535 O 0.3172 0.74987 0.81583 0.0
O536 O 0.28849 0.74755 0.78825 0.0
C537 C 0.35886 0.88767 0.78192 0.0
C538 C 0.36394 0.92888 0.80778 0.0
C539 C 0.36053 0.92765 0.7831 0.0
C540 C 0.35801 0.90718 0.7703 0.0
C541 C 0.36423 0.88894 0.80637 0.0
C542 C 0.36696 0.90947 0.81922 0.0
C543 C 0.35046 0.86608 0.76886 0.0
H544 H 0.28788 0.65956 0.79608 0.0
H545 H 0.27886 0.69495 0.81186 0.0
H546 H 0.33159 0.7314 0.77411 0.0
H547 H 0.34101 0.69643 0.75869 0.0
H548 H 0.35778 0.94211 0.77364 0.0
H549 H 0.35374 0.90639 0.75143 0.0
H550 H 0.36487 0.87392 0.8156 0.0
H551 H 0.36992 0.90989 0.83816 0.0
Tb552 Tb 0.58656 0.04333 0.06416 0.0
Eu553 Eu 0.56288 0.05642 1.01511 0.0
C554 C 0.57956 1.00614 0.01894 0.0
C555 C 0.61767 0.07075 0.0302 0.0
C556 C 0.61989 0.04786 0.12315 0.0
C557 C 0.64281 0.04978 0.16128 0.0
C558 C 0.63279 0.03775 0.14025 0.0
C559 C 0.61865 0.07057 0.12641 0.0
C560 C 0.62839 0.08254 0.14748 0.0
C561 C 0.63972 0.07201 0.16558 0.0
C562 C 0.60633 0.03436 0.10284 0.0
O563 O 0.57592 0.07658 0.07447 0.0
O564 O 0.56715 0.08951 0.03837 0.0
O565 O 0.53448 0.04836 0.03851 0.0
O566 O 0.55174 0.02289 0.05781 0.0
C567 C 0.57091 0.09327 0.06152 0.0
O568 O 0.56006 0.07815 0.98634 0.0
O569 O 0.53276 0.04926 0.98787 0.0
O570 O 0.56753 1.01945 1.00668 0.0
O571 O 0.58998 1.01352 0.04043 0.0
O572 O 0.61276 0.0681 0.05163 0.0
O573 O 0.60192 0.06329 1.01219 0.0
C574 C 0.5327 0.0303 0.04995 0.0
O575 O 0.58409 0.03628 0.0991 0.0
O576 O 0.61634 0.03492 0.0836 0.0
C577 C 0.54008 0.06029 0.95042 0.0
C578 C 0.53778 0.04782 0.90243 0.0
C579 C 0.51698 0.0468 0.91308 0.0
C580 C 0.51814 0.05312 0.9369 0.0
C581 C 0.56088 0.06153 0.93975 0.0
C582 C 0.55972 0.05544 0.91593 0.0
C583 C 0.54087 0.06571 0.97566 0.0
H584 H 0.65182 0.04131 0.17467 0.0
H585 H 0.6342 0.02028 0.13779 0.0
H586 H 0.60899 0.07871 0.1132 0.0
H587 H 0.6254 0.09951 0.15015 0.0
H588 H 0.49988 0.04099 0.90303 0.0
H589 H 0.5019 0.05207 0.94487 0.0
H590 H 0.57804 0.06682 0.94985 0.0
H591 H 0.57606 0.05597 0.90825 0.0
Tb592 Tb 0.3327 0.32048 0.30198 0.0
Eu593 Eu 0.31014 0.27476 0.27442 0.0
C594 C 0.33225 0.27616 0.33082 0.0
C595 C 0.36745 0.29745 0.27181 0.0
C596 C 0.32354 0.37123 0.32848 0.0
C597 C 0.30189 0.38838 0.35622 0.0
C598 C 0.32233 0.38051 0.35106 0.0
C599 C 0.30434 0.37054 0.31105 0.0
C600 C 0.28405 0.37812 0.31623 0.0
C601 C 0.28235 0.3866 0.33895 0.0
C602 C 0.34205 0.3582 0.32402 0.0
O603 O 0.32344 0.33091 0.26551 0.0
O604 O 0.30139 0.29909 0.24665 0.0
O605 O 0.27678 0.28294 0.28924 0.0
O606 O 0.29522 0.31469 0.31108 0.0
C607 C 0.31095 0.32035 0.24618 0.0
O608 O 0.30262 0.25346 0.24173 0.0
O609 O 0.29651 0.23896 0.27427 0.0
O610 O 0.31877 0.26512 0.31246 0.0
O611 O 0.34253 0.29705 0.32877 0.0
O612 O 0.36545 0.31371 0.28736 0.0
O613 O 0.34904 0.28124 0.26577 0.0
C614 C 0.276 0.29921 0.30515 0.0
O615 O 0.34062 0.33961 0.33432 0.0
O616 O 0.34527 0.35507 0.30218 0.0
C617 C 0.319 0.22189 0.24985 0.0
C618 C 0.35871 0.20293 0.2419 0.0
C619 C 0.33756 0.1969 0.22668 0.0
C620 C 0.31779 0.20661 0.23049 0.0
C621 C 0.33991 0.22706 0.26543 0.0
C622 C 0.35953 0.21779 0.26145 0.0
C623 C 0.30044 0.23521 0.25272 0.0
H624 H 0.301 0.39502 0.37384 0.0
H625 H 0.33671 0.38078 0.36487 0.0
H626 H 0.30447 0.36313 0.29358 0.0
H627 H 0.26945 0.37701 0.30245 0.0
H628 H 0.3366 0.18531 0.21158 0.0
H629 H 0.30193 0.20269 0.2181 0.0
H630 H 0.34139 0.23893 0.2804 0.0
H631 H 0.37551 0.22237 0.27364 0.0
Tb632 Tb 0.57189 0.538 0.01812 0.0
Eu633 Eu 0.57148 0.56119 0.06807 0.0
C634 C 0.62134 0.56602 0.04464 0.0
C635 C 0.57488 0.50636 0.06293 0.0
C636 C 0.57793 0.52772 0.95487 0.0
C637 C 0.58989 0.51792 0.91721 0.0
C638 C 0.58865 0.51398 0.94079 0.0
C639 C 0.57079 0.54681 0.94584 0.0
C640 C 0.57157 0.55051 0.92223 0.0
C641 C 0.57984 0.53533 0.90727 0.0
C642 C 0.57153 0.52042 0.9776 0.0
O643 O 0.53561 0.52501 0.0266 0.0
O644 O 0.53178 0.55021 0.05587 0.0
O645 O 0.56874 0.59108 0.04458 0.0
O646 O 0.56893 0.57342 1.00863 0.0
C647 C 0.52228 0.53306 0.04097 0.0
O648 O 0.56073 0.55949 0.10328 0.0
O649 O 0.58177 0.58968 0.09385 0.0
O650 O 0.61113 0.56699 0.064 0.0
O651 O 0.60891 0.55618 0.02516 0.0
O652 O 0.57552 0.50866 0.0401 0.0
O653 O 0.57428 0.52442 0.07664 0.0
C654 C 0.56895 0.59226 0.0216 0.0
O655 O 0.58875 0.52066 0.99433 0.0
O656 O 0.55362 0.52794 0.98502 0.0
C657 C 0.59097 0.57773 0.13176 0.0
C658 C 0.62341 0.57077 0.16978 0.0
C659 C 0.59897 0.5656 0.17098 0.0
C660 C 0.58289 0.56913 0.15215 0.0
C661 C 0.61543 0.58339 0.13078 0.0
C662 C 0.63147 0.58005 0.14966 0.0
C663 C 0.57392 0.57849 0.11092 0.0
H664 H 0.59715 0.50635 0.90643 0.0
H665 H 0.59469 0.49939 0.94761 0.0
H666 H 0.56289 0.55796 0.95653 0.0
H667 H 0.56362 0.56412 0.91547 0.0
H668 H 0.59229 0.55865 0.18641 0.0
H669 H 0.56413 0.56454 0.15324 0.0
H670 H 0.62223 0.58978 0.11517 0.0
H671 H 0.65021 0.58401 0.14819 0.0
Tb672 Tb 0.81259 0.27911 0.30084 0.0
Eu673 Eu 0.83342 0.3282 0.28625 0.0
C674 C 0.817 0.32096 0.33763 0.0
C675 C 0.77758 0.30689 0.27239 0.0
C676 C 0.79762 0.21809 0.3019 0.0
C677 C 0.78494 0.17795 0.29903 0.0
C678 C 0.78265 0.19917 0.30782 0.0
C679 C 0.81455 0.21579 0.28677 0.0
C680 C 0.81691 0.19467 0.27806 0.0
C681 C 0.80225 0.17549 0.28422 0.0
C682 C 0.79525 0.2403 0.31092 0.0
O683 O 0.81785 0.27263 0.26439 0.0
O684 O 0.84017 0.30575 0.25656 0.0
O685 O 0.86238 0.31868 0.31233 0.0
O686 O 0.8519 0.28086 0.30654 0.0
C687 C 0.83024 0.28498 0.25046 0.0
O688 O 0.82966 0.36224 0.27893 0.0
O689 O 0.86317 0.35139 0.27632 0.0
O690 O 0.82084 0.33488 0.3212 0.0
O691 O 0.81491 0.29929 0.33349 0.0
O692 O 0.78073 0.29406 0.29 0.0
O693 O 0.79624 0.31946 0.26564 0.0
C694 C 0.86785 0.29869 0.3147 0.0
O695 O 0.81429 0.2523 0.32221 0.0
O696 O 0.78478 0.25171 0.29587 0.0
C697 C 0.86378 0.38737 0.29335 0.0
C698 C 0.87488 0.42334 0.32747 0.0
C699 C 0.8688 0.42698 0.30374 0.0
C700 C 0.86324 0.40909 0.28683 0.0
C701 C 0.87189 0.38385 0.31655 0.0
C702 C 0.87755 0.40174 0.33347 0.0
C703 C 0.85213 0.36836 0.2773 0.0
H704 H 0.77331 0.16349 0.30394 0.0
H705 H 0.7693 0.20082 0.31929 0.0
H706 H 0.82614 0.23033 0.28194 0.0
H707 H 0.83074 0.19336 0.2671 0.0
H708 H 0.86622 0.44332 0.29849 0.0
H709 H 0.85684 0.41203 0.26904 0.0
H710 H 0.87229 0.36709 0.32193 0.0
H711 H 0.88239 0.39842 0.35152 0.0
Tb712 Tb 0.09023 0.54555 0.55819 0.0
Eu713 Eu 0.06026 0.55576 0.51074 0.0
C714 C 0.07899 0.50636 0.51497 0.0
C715 C 0.11511 0.57148 0.51997 0.0
C716 C 0.11863 0.54492 0.61957 0.0
C717 C 0.1426 0.55985 0.65604 0.0
C718 C 0.14075 0.55358 0.63213 0.0
C719 C 0.09841 0.54216 0.63124 0.0
C720 C 0.10028 0.54817 0.65511 0.0
C721 C 0.12234 0.55725 0.66769 0.0
C722 C 0.11688 0.53954 0.59425 0.0
O723 O 0.0834 0.58044 0.56765 0.0
O724 O 0.05989 0.58749 0.53499 0.0
O725 O 0.03564 0.53252 0.52909 0.0
O726 O 0.05409 0.53706 0.56671 0.0
C727 C 0.0709 0.59412 0.55634 0.0
O728 O 1.0289 0.5666 0.49311 0.0
O729 O 0.05411 0.55384 0.47292 0.0
O730 O 0.07136 0.52136 0.5013 0.0
O731 O 0.08535 0.51219 0.53768 0.0
O732 O 0.1144 0.55383 0.53217 0.0
O733 O 0.09553 0.57773 0.51173 0.0
C734 C 0.03544 0.52983 0.55144 0.0
O735 O 0.09861 0.52503 0.5849 0.0
O736 O 0.1211 0.55652 0.5815 0.0
C737 C 1.03124 0.57787 0.45414 0.0
C738 C 1.0276 0.59287 0.40888 0.0
C739 C 1.00725 0.58271 0.41815 0.0
C740 C 1.00914 0.57504 0.44064 0.0
C741 C 0.05065 0.59148 0.44658 0.0
C742 C 0.04881 0.59902 0.42406 0.0
C743 C 0.03477 0.56231 0.47232 0.0
H744 H 0.15976 0.56689 0.66537 0.0
H745 H 0.15653 0.55584 0.62334 0.0
H746 H 0.0811 0.53575 0.62187 0.0
H747 H 0.0843 0.54646 0.66356 0.0
H748 H 0.99056 0.57819 0.40704 0.0
H749 H 0.99389 0.56478 0.44637 0.0
H750 H 0.06782 0.59409 0.45694 0.0
H751 H 0.06485 0.60697 0.41762 0.0
Tb752 Tb 0.79462 0.79407 0.28416 0.0
Eu753 Eu 0.85068 0.79928 0.29946 0.0
C754 C 0.82876 0.83504 0.26985 0.0
C755 C 0.82729 0.77601 0.24775 0.0
C756 C 0.73131 0.77155 0.28016 0.0
C757 C 0.69155 0.76433 0.29092 0.0
C758 C 0.70921 0.77783 0.28083 0.0
C759 C 0.73532 0.75124 0.28898 0.0
C760 C 0.71775 0.73778 0.29914 0.0
C761 C 0.69582 0.74439 0.30059 0.0
C762 C 0.75059 0.78683 0.27178 0.0
O763 O 0.79939 0.7627 0.29895 0.0
O764 O 0.83514 0.77302 0.32142 0.0
O765 O 0.83778 0.81894 0.32924 0.0
O766 O 0.79777 0.8066 0.32191 0.0
C767 C 0.81542 0.75905 0.31556 0.0
O768 O 0.88306 0.78533 0.30463 0.0
O769 O 0.88392 0.8207 0.31272 0.0
O770 O 0.84587 0.82348 0.27205 0.0
O771 O 0.80854 0.82822 0.27763 0.0
O772 O 0.80926 0.78632 0.25079 0.0
O773 O 0.84359 0.77576 0.26574 0.0
C774 C 0.81641 0.81773 0.3358 0.0
O775 O 0.76135 0.80304 0.28671 0.0
O776 O 0.76553 0.77737 0.26133 0.0
C777 C 0.91676 0.81033 0.29777 0.0
C778 C 0.95662 0.82231 0.27438 0.0
C779 C 0.95859 0.81223 0.29583 0.0
C780 C 0.93878 0.80633 0.30746 0.0
C781 C 0.91453 0.81992 0.27616 0.0
C782 C 0.93435 0.82595 0.26458 0.0
C783 C 0.89627 0.80483 0.31044 0.0
H784 H 0.67493 0.77 0.29209 0.0
H785 H 0.70586 0.79349 0.27419 0.0
H786 H 0.75223 0.746 0.28847 0.0
H787 H 0.72146 0.72244 0.30628 0.0
H788 H 0.97544 0.80886 0.3036 0.0
H789 H 0.94066 0.79878 0.32408 0.0
H790 H 0.89755 0.82304 0.26844 0.0
H791 H 0.9323 0.83389 0.24823 0.0
Tb792 Tb 0.8445 0.32175 0.80548 0.0
Eu793 Eu 0.80127 0.2804 0.78484 0.0
C794 C 0.79375 0.3308 0.79145 0.0
C795 C 0.81552 0.29151 0.83984 0.0
C796 C 0.88642 0.3761 0.81384 0.0
C797 C 0.88135 0.40931 0.79352 0.0
C798 C 0.87258 0.3875 0.79876 0.0
C799 C 0.90926 0.38646 0.82313 0.0
C800 C 0.91808 0.40817 0.81781 0.0
C801 C 0.90415 0.41992 0.80314 0.0
C802 C 0.87702 0.35384 0.82092 0.0
O803 O 0.85643 0.29133 0.81541 0.0
O804 O 0.8349 0.26628 0.7867 0.0
O805 O 0.80954 0.30146 0.755 0.0
O806 O 0.8481 0.31617 0.76822 0.0
C807 C 0.85233 0.27179 0.80364 0.0
O808 O 0.78589 0.25546 0.75651 0.0
O809 O 0.767 0.25945 0.78652 0.0
O810 O 0.78519 0.31008 0.79514 0.0
O811 O 0.81619 0.3373 0.78959 0.0
O812 O 0.82573 0.31168 0.83541 0.0
O813 O 0.80822 0.27557 0.82315 0.0
C814 C 0.83065 0.31103 0.75107 0.0
O815 O 0.85569 0.35123 0.82691 0.0
O816 O 0.88025 0.33686 0.80771 0.0
C817 C 0.76242 0.22283 0.76784 0.0
C818 C 0.74992 0.17586 0.76724 0.0
C819 C 0.76149 0.18587 0.7492 0.0
C820 C 0.76758 0.20909 0.74945 0.0
C821 C 0.75107 0.21283 0.78602 0.0
C822 C 0.74493 0.18961 0.78573 0.0
C823 C 0.76797 0.24742 0.76734 0.0
H824 H 0.87032 0.41787 0.78199 0.0
H825 H 0.8549 0.37968 0.79135 0.0
H826 H 0.92013 0.37789 0.83485 0.0
H827 H 0.93559 0.41599 0.82571 0.0
H828 H 0.76579 0.17577 0.73481 0.0
H829 H 0.77614 0.21629 0.73508 0.0
H830 H 0.74659 0.22293 0.80031 0.0
H831 H 0.73566 0.18247 0.7997 0.0
Tb832 Tb 0.83312 0.82046 0.80269 0.0
Eu833 Eu 0.81099 0.77364 0.77624 0.0
C834 C 0.82973 0.77609 0.8332 0.0
C835 C 0.86681 0.79685 0.77044 0.0
C836 C 0.83598 0.86992 0.84174 0.0
C837 C 0.80213 0.86739 0.86354 0.0
C838 C 0.81999 0.85766 0.85499 0.0
C839 C 0.8358 0.89271 0.83981 0.0
C840 C 0.81778 0.90238 0.84806 0.0
C841 C 0.7997 0.88933 0.85845 0.0
C842 C 0.84719 0.85818 0.82443 0.0
O843 O 0.82711 0.82992 0.76564 0.0
O844 O 0.80451 0.79803 0.74756 0.0
O845 O 0.78056 0.78017 0.79725 0.0
O846 O 0.79511 0.81647 0.81045 0.0
C847 C 0.81458 0.8191 0.74657 0.0
O848 O 0.78772 0.75261 0.74804 0.0
O849 O 0.8098 0.73779 0.7733 0.0
O850 O 0.82253 0.76365 0.81342 0.0
O851 O 0.83439 0.79813 0.83256 0.0
O852 O 0.86518 0.81234 0.78709 0.0
O853 O 0.84826 0.78093 0.76389 0.0
C854 C 0.778 0.79861 0.80915 0.0
O855 O 0.85508 0.84019 0.83047 0.0
O856 O 0.83475 0.85504 0.80393 0.0
C857 C 0.80759 0.72411 0.73486 0.0
C858 C 0.84418 0.70725 0.71567 0.0
C859 C 0.84009 0.72885 0.71118 0.0
C860 C 0.82206 0.73733 0.72093 0.0
C861 C 0.80937 0.70156 0.73632 0.0
C862 C 0.82756 0.69316 0.72683 0.0
C863 C 0.79669 0.7349 0.75314 0.0
H864 H 0.78892 0.85705 0.87208 0.0
H865 H 0.81976 0.83998 0.85667 0.0
H866 H 0.84789 0.90239 0.8295 0.0
H867 H 0.81665 0.9193 0.84375 0.0
H868 H 0.8522 0.73991 0.7021 0.0
H869 H 0.82108 0.75485 0.71962 0.0
H870 H 0.7985 0.69116 0.74714 0.0
H871 H 0.83008 0.67644 0.73067 0.0
Tb872 Tb 0.55581 0.55077 0.5113 0.0
Eu873 Eu 0.60794 0.56612 0.54326 0.0
C874 C 0.60087 0.5672 0.48892 0.0
C875 C 0.58813 0.51604 0.5252 0.0
C876 C 0.49497 0.55251 0.49114 0.0
C877 C 0.46189 0.56882 0.47446 0.0
C878 C 0.47958 0.55612 0.47169 0.0
C879 C 0.4921 0.56129 0.51345 0.0
C880 C 0.47448 0.57387 0.51624 0.0
C881 C 0.45945 0.57817 0.49674 0.0
C882 C 0.51562 0.54198 0.48804 0.0
O883 O 0.549 0.55875 0.54647 0.0
O884 O 0.58203 0.54913 0.56609 0.0
O885 O 0.59077 0.59588 0.54874 0.0
O886 O 0.56018 0.58678 0.51835 0.0
C887 C 0.56031 0.55286 0.56544 0.0
O888 O 0.63121 0.5698 0.5763 0.0
O889 O 0.64592 0.57711 0.544 0.0
O890 O 0.60808 0.58024 0.50801 0.0
O891 O 0.58317 0.5506 0.48858 0.0
O892 O 0.56653 0.52035 0.52344 0.0
O893 O 0.60639 0.53211 0.52587 0.0
C894 C 0.57259 0.60053 0.53539 0.0
O895 O 0.53343 0.55519 0.48121 0.0
O896 O 0.52238 0.53032 0.50517 0.0
C897 C 0.66765 0.55894 0.57117 0.0
C898 C 0.70103 0.53012 0.57474 0.0
C899 C 0.70842 0.55346 0.57638 0.0
C900 C 0.69185 0.56774 0.57455 0.0
C901 C 0.66016 0.53572 0.57031 0.0
C902 C 0.67669 0.52144 0.57213 0.0
C903 C 0.6504 0.57371 0.56609 0.0
H904 H 0.45072 0.572 0.45907 0.0
H905 H 0.48174 0.54975 0.45429 0.0
H906 H 0.50389 0.55895 0.52874 0.0
H907 H 0.47285 0.58048 0.53368 0.0
H908 H 0.72703 0.56068 0.5787 0.0
H909 H 0.69792 0.58562 0.57511 0.0
H910 H 0.64152 0.52861 0.56749 0.0
H911 H 0.67038 0.50358 0.57053 0.0
Tb912 Tb 0.05568 0.531 0.03054 0.0
Eu913 Eu 0.092 0.57669 0.046 0.0
C914 C 0.0739 0.54373 0.08314 0.0
C915 C 0.03396 0.57632 0.04151 0.0
C916 C 1.02321 0.47188 1.01627 0.0
C917 C 0.99698 0.43632 1.00751 0.0
C918 C 1.00035 0.45946 1.01144 0.0
C919 C 0.04271 0.46093 0.01839 0.0
C920 C 0.03935 0.43772 1.01446 0.0
C921 C 1.01647 0.4253 1.00833 0.0
C922 C 1.02614 0.4962 0.01704 0.0
O923 O 0.05341 0.55312 1.00236 0.0
O924 O 0.09141 0.57059 1.00727 0.0
O925 O 0.11627 0.55007 0.04611 0.0
O926 O 0.09074 0.52008 0.0269 0.0
C927 C 0.07118 0.56516 0.99418 0.0
O928 O 0.1076 0.61043 0.03855 0.0
O929 O 0.12103 0.59588 0.06987 0.0
O930 O 0.07702 0.56475 0.07839 0.0
O931 O 0.06998 0.52782 0.06632 0.0
O932 O 1.03136 0.55412 0.04047 0.0
O933 O 0.0555 0.58834 0.04195 0.0
C934 C 0.11257 0.5294 0.03633 0.0
O935 O 1.02751 0.50665 0.03762 0.0
O936 O 0.04129 0.5062 1.00404 0.0
C937 C 0.12593 0.63538 0.07054 0.0
C938 C 0.13462 0.67781 0.0947 0.0
C939 C 0.14418 0.67445 0.07368 0.0
C940 C 0.13988 0.65343 0.06174 0.0
C941 C 0.1162 0.63857 0.09148 0.0
C942 C 0.12059 0.65966 0.10354 0.0
C943 C 0.12243 0.61347 0.05768 0.0
H944 H 0.97916 0.42711 1.00311 0.0
H945 H 0.98514 0.46775 1.00987 0.0
H946 H 0.06049 0.47038 0.02215 0.0
H947 H 0.05469 0.42964 1.01503 0.0
H948 H 0.15529 0.68803 0.0666 0.0
H949 H 0.14761 0.6512 0.04566 0.0
H950 H 0.1053 0.6248 0.0985 0.0
H951 H 0.11281 0.66184 0.11958 0.0
H952 H 0.06746 0.18724 0.94816 0.0
H953 H 1.01308 0.20484 0.98762 0.0
H954 H 0.08143 0.16663 0.98041 0.0
H955 H 1.02732 0.18438 0.02015 0.0
H956 H 0.03326 0.11017 0.03961 0.0
H957 H 1.02455 0.14365 0.02178 0.0
H958 H 0.09932 0.1677 0.02195 0.0
H959 H 0.1079 0.13374 0.03979 0.0
C960 C 0.05867 0.18688 0.96385 0.0
C961 C 0.03893 0.19722 0.96526 0.0
C962 C 0.06692 0.17541 0.98248 0.0
C963 C 0.05554 0.17405 1.00285 0.0
C964 C 0.03638 0.18518 1.00462 0.0
C965 C 1.02815 0.19671 0.98597 0.0
C966 C 0.0478 0.1231 0.0367 0.0
C967 C 0.07115 0.11954 0.0407 0.0
C968 C 0.04287 0.14231 0.02661 0.0
C969 C 0.06127 0.15807 0.02012 0.0
C970 C 0.08484 0.15561 0.02656 0.0
C971 C 0.08977 0.13638 0.0369 0.0
H972 H 0.23114 0.89861 0.20273 0.0
H973 H 0.18899 0.8943 0.26034 0.0
H974 H 0.26563 0.8944 0.22937 0.0
H975 H 0.22357 0.89033 0.28702 0.0
H976 H 0.26531 0.82913 0.2943 0.0
H977 H 0.23771 0.85352 0.2822 0.0
H978 H 0.29555 0.90324 0.2665 0.0
H979 H 0.32342 0.87866 0.27926 0.0
C980 C 0.22949 0.89775 0.22125 0.0
C981 C 0.2073 0.89604 0.22939 0.0
C982 C 0.24929 0.8955 0.23656 0.0
C983 C 0.24707 0.89154 0.26014 0.0
C984 C 0.22561 0.89303 0.26883 0.0
C985 C 0.20583 0.89523 0.25354 0.0
C986 C 0.27216 0.8456 0.28906 0.0
C987 C 0.29629 0.85208 0.28752 0.0
C988 C 0.25643 0.85968 0.28231 0.0
C989 C 0.26452 0.8803 0.2734 0.0
C990 C 0.28893 0.88746 0.27339 0.0
C991 C 0.3048 0.87348 0.28069 0.0
H992 H 0.56879 0.81068 0.42166 0.0
H993 H 0.4936 0.79658 0.4252 0.0
H994 H 0.56915 0.8502 0.43102 0.0
H995 H 0.49367 0.83621 0.43357 0.0
H996 H 0.50771 0.90266 0.47727 0.0
H997 H 0.50648 0.86356 0.46515 0.0
H998 H 0.55747 0.88326 0.4171 0.0
H999 H 0.55919 0.92239 0.42995 0.0
C1000 C 0.55229 0.81612 0.4241 0.0
C1001 C 0.5312 0.80063 0.42289 0.0
C1002 C 0.55244 0.83878 0.42932 0.0
C1003 C 0.53145 0.84638 0.43317 0.0
C1004 C 0.51023 0.83087 0.43119 0.0
C1005 C 0.51014 0.8082 0.42626 0.0
C1006 C 0.5185 0.89857 0.464 0.0
C1007 C 0.53356 0.91544 0.45454 0.0
C1008 C 0.51774 0.8762 0.45696 0.0
C1009 C 0.53182 0.87025 0.44008 0.0
C1010 C 0.54667 0.88723 0.4304 0.0
C1011 C 0.54762 0.90961 0.43767 0.0
H1012 H 0.58413 0.38106 0.7289 0.0
H1013 H 0.54477 0.3403 0.66921 0.0
H1014 H 0.55238 0.36889 0.75244 0.0
H1015 H 0.51271 0.32868 0.69249 0.0
H1016 H 0.4761 0.28993 0.74742 0.0
H1017 H 0.50718 0.30459 0.72412 0.0
H1018 H 0.51187 0.37035 0.7582 0.0
H1019 H 0.48101 0.35547 0.78183 0.0
C1020 C 0.56847 0.36985 0.7207 0.0
C1021 C 0.56694 0.36146 0.69732 0.0
C1022 C 0.55027 0.36292 0.73416 0.0
C1023 C 0.53018 0.34759 0.72441 0.0
C1024 C 0.52822 0.34009 0.70066 0.0
C1025 C 0.54646 0.34689 0.68727 0.0
C1026 C 0.48383 0.3075 0.74992 0.0
C1027 C 0.4762 0.32159 0.76636 0.0
C1028 C 0.5015 0.31594 0.73649 0.0
C1029 C 0.51177 0.33869 0.73911 0.0
C1030 C 0.50442 0.35271 0.7559 0.0
C1031 C 0.48682 0.34421 0.76945 0.0
H1032 H 0.05343 0.85663 0.58682 0.0
H1033 H 0.07967 0.88874 0.65494 0.0
H1034 H 0.05591 0.89324 0.5703 0.0
H1035 H 0.0825 0.92532 0.63864 0.0
H1036 H 0.07546 0.99413 0.6083 0.0
H1037 H 0.07282 0.95753 0.62462 0.0
H1038 H 0.07025 0.9265 0.55529 0.0
H1039 H 0.0726 0.96316 0.53913 0.0
C1040 C 0.05983 0.87139 0.59852 0.0
C1041 C 0.06625 0.86867 0.62268 0.0
C1042 C 0.06143 0.89299 0.58883 0.0
C1043 C 0.06951 0.91368 0.60251 0.0
C1044 C 0.07588 0.91079 0.62673 0.0
C1045 C 0.07435 0.88922 0.63636 0.0
C1046 C 0.07443 0.97964 0.5963 0.0
C1047 C 0.07443 0.98273 0.57192 0.0
C1048 C 0.07295 0.95803 0.60589 0.0
C1049 C 0.07124 0.93761 0.5919 0.0
C1050 C 0.07123 0.94082 0.56746 0.0
C1051 C 0.07279 0.96244 0.5579 0.0
H1052 H 0.51731 0.77353 0.85398 0.0
H1053 H 0.50012 0.81171 0.91255 0.0
H1054 H 0.47789 0.77387 0.83305 0.0
H1055 H 0.46105 0.81249 0.89158 0.0
H1056 H 0.40073 0.82976 0.83838 0.0
H1057 H 0.4396 0.82808 0.85909 0.0
H1058 H 0.43422 0.76045 0.83055 0.0
H1059 H 0.39488 0.76202 0.8101 0.0
C1060 C 0.50524 0.78205 0.86253 0.0
C1061 C 0.51252 0.79256 0.88531 0.0
C1062 C 0.4823 0.78218 0.85043 0.0
C1063 C 0.46554 0.79328 0.8602 0.0
C1064 C 0.47298 0.80388 0.88293 0.0
C1065 C 0.49566 0.80333 0.8952 0.0
C1066 C 0.40762 0.8144 0.83642 0.0
C1067 C 0.39395 0.79605 0.82222 0.0
C1068 C 0.43021 0.81339 0.84858 0.0
C1069 C 0.44082 0.7941 0.84692 0.0
C1070 C 0.42728 0.77578 0.83248 0.0
C1071 C 0.40436 0.77664 0.82068 0.0
H1072 H 0.56329 0.24153 0.0884 0.0
H1073 H 0.56234 0.21658 0.15684 0.0
H1074 H 0.56571 0.2043 0.07178 0.0
H1075 H 0.56431 0.17922 0.14044 0.0
H1076 H 0.57878 0.11105 0.10913 0.0
H1077 H 0.57679 0.14837 0.12596 0.0
H1078 H 0.55712 0.16843 0.05683 0.0
H1079 H 0.55958 0.13139 0.04026 0.0
C1080 C 0.56345 0.22818 0.10014 0.0
C1081 C 0.5625 0.23309 0.1244 0.0
C1082 C 0.56477 0.20618 0.0904 0.0
C1083 C 0.56526 0.18725 0.10413 0.0
C1084 C 0.5643 0.19234 0.12846 0.0
C1085 C 0.56298 0.21433 0.13816 0.0
C1086 C 0.57398 0.12329 0.09732 0.0
C1087 C 0.56936 0.1171 0.07286 0.0
C1088 C 0.5727 0.14528 0.10719 0.0
C1089 C 0.5667 0.1629 0.09339 0.0
C1090 C 0.5621 0.15651 0.06889 0.0
C1091 C 0.5634 0.1346 0.05908 0.0
H1092 H 0.17376 0.31358 0.41189 0.0
H1093 H 0.12822 0.28339 0.35052 0.0
H1094 H 0.20822 0.31438 0.39038 0.0
H1095 H 0.16256 0.28408 0.32891 0.0
H1096 H 0.2313 0.2711 0.29813 0.0
H1097 H 0.19666 0.27096 0.31917 0.0
H1098 H 0.23359 0.32841 0.36286 0.0
H1099 H 0.26815 0.32846 0.34178 0.0
C1100 C 0.17085 0.30707 0.39376 0.0
C1101 C 0.14741 0.29841 0.38345 0.0
C1102 C 0.19099 0.30763 0.3811 0.0
C1103 C 0.1892 0.29929 0.35726 0.0
C1104 C 0.16567 0.29055 0.34704 0.0
C1105 C 0.14552 0.29024 0.35963 0.0
C1106 C 0.2322 0.2839 0.31209 0.0
C1107 C 0.25335 0.29981 0.31768 0.0
C1108 C 0.2119 0.28388 0.32441 0.0
C1109 C 0.21133 0.29961 0.34342 0.0
C1110 C 0.23252 0.31559 0.3489 0.0
C1111 C 0.25273 0.31574 0.33643 0.0
H1112 H 0.95541 0.07358 0.18165 0.0
H1113 H 0.96708 1.00543 0.18459 0.0
H1114 H 0.98256 0.07973 0.15195 0.0
H1115 H 0.99394 1.01154 0.15492 0.0
H1116 H 0.06069 0.0379 0.12328 0.0
H1117 H 0.03396 0.03437 0.15337 0.0
H1118 H 0.98503 0.06627 0.1105 0.0
H1119 H 1.01176 0.07008 0.08052 0.0
C1120 C 0.96357 0.05989 0.17576 0.0
C1121 C 0.95924 0.03907 0.18539 0.0
C1122 C 0.97906 0.0634 0.15883 0.0
C1123 C 0.9905 0.04617 0.15144 0.0
C1124 C 0.98567 0.02521 0.16068 0.0
C1125 C 0.97015 0.02168 0.17748 0.0
C1126 C 0.04435 0.04436 0.12039 0.0
C1127 C 0.03822 0.0541 0.09951 0.0
C1128 C 1.02902 0.04221 0.13751 0.0
C1129 C 1.0074 0.04987 0.13407 0.0
C1130 C 1.00165 0.06032 0.11358 0.0
C1131 C 1.01691 0.06238 0.09641 0.0
H1132 H 0.35607 0.74764 0.47474 0.0
H1133 H 0.28191 0.75182 0.46696 0.0
H1134 H 0.36006 0.76361 0.43723 0.0
H1135 H 0.286 0.76861 0.42956 0.0
H1136 H 0.29562 0.76889 0.35117 0.0
H1137 H 0.29129 0.75749 0.39058 0.0
H1138 H 0.36053 0.7954 0.41516 0.0
H1139 H 0.36516 0.80622 0.37546 0.0
C1140 C 0.34068 0.7524 0.46521 0.0
C1141 C 0.31864 0.74837 0.47383 0.0
C1142 C 0.34299 0.7617 0.44367 0.0
C1143 C 0.32335 0.76736 0.43014 0.0
C1144 C 0.30146 0.76412 0.43923 0.0
C1145 C 0.29912 0.75469 0.4608 0.0
C1146 C 0.30991 0.77491 0.36497 0.0
C1147 C 0.33082 0.78839 0.36004 0.0
C1148 C 0.30734 0.76849 0.3877 0.0
C1149 C 0.32554 0.77547 0.40621 0.0
C1150 C 0.34626 0.78937 0.40135 0.0
C1151 C 0.34889 0.79568 0.37856 0.0
H1152 H 0.57716 0.94911 0.70019 0.0
H1153 H 0.64493 0.96632 0.67467 0.0
H1154 H 0.55741 0.95572 0.66207 0.0
H1155 H 0.62512 0.9725 0.63648 0.0
H1156 H 0.55178 0.01955 0.61596 0.0
H1157 H 0.5619 0.99626 0.64753 0.0
H1158 H 0.59392 0.95691 0.6 0.0
H1159 H 0.5833 0.97995 0.56817 0.0
C1160 C 0.5878 0.95341 0.68618 0.0
C1161 C 0.6126 0.95753 0.69045 0.0
C1162 C 0.57647 0.95725 0.66441 0.0
C1163 C 0.58977 0.96481 0.64649 0.0
C1164 C 0.61445 0.96655 0.64998 0.0
C1165 C 0.6258 0.96309 0.67186 0.0
C1166 C 0.56024 1.00545 0.61208 0.0
C1167 C 0.56683 1.00158 0.58971 0.0
C1168 C 0.56593 0.99205 0.63009 0.0
C1169 C 0.57874 0.97484 0.62615 0.0
C1170 C 0.584 0.97005 0.60341 0.0
C1171 C 0.57782 0.98317 0.58523 0.0
H1172 H 0.29248 0.4121 0.95155 0.0
H1173 H 0.31413 0.35729 0.98741 0.0
H1174 H 0.29601 0.39322 0.91378 0.0
H1175 H 0.31768 0.3383 0.94975 0.0
H1176 H 0.34223 0.31583 0.87924 0.0
H1177 H 0.33797 0.33449 0.91675 0.0
H1178 H 0.28268 0.36516 0.88269 0.0
H1179 H 0.28704 0.3464 0.8451 0.0
C1180 C 0.29792 0.39594 0.95156 0.0
C1181 C 0.3029 0.38656 0.97324 0.0
C1182 C 0.29989 0.38486 0.92953 0.0
C1183 C 0.30726 0.36377 0.92776 0.0
C1184 C 0.31225 0.35445 0.94955 0.0
C1185 C 0.31002 0.36543 0.97154 0.0
C1186 C 0.32905 0.32649 0.87953 0.0
C1187 C 0.31507 0.32922 0.85835 0.0
C1188 C 0.32646 0.33731 0.90147 0.0
C1189 C 0.30987 0.3518 0.90372 0.0
C1190 C 0.29593 0.35458 0.88246 0.0
C1191 C 0.29835 0.34355 0.86052 0.0
H1192 H 0.9879 1.00776 0.29121 0.0
H1193 H 0.98933 0.07892 0.29108 0.0
H1194 H 1.02335 1.01416 0.31924 0.0
H1195 H 1.02521 0.08542 0.31909 0.0
H1196 H 0.05431 0.0751 0.39764 0.0
H1197 H 1.03117 0.07806 0.36063 0.0
H1198 H 0.06575 0.02958 0.32741 0.0
H1199 H 0.08919 0.02662 0.36475 0.0
C1200 C 0.996 0.0248 0.29696 0.0
C1201 C 0.98568 0.04282 0.28927 0.0
C1202 C 1.01653 0.02851 0.31279 0.0
C1203 C 1.02716 0.05033 0.32131 0.0
C1204 C 1.01735 0.06843 0.31288 0.0
C1205 C 0.9968 0.06471 0.29693 0.0
C1206 C 0.05787 0.06582 0.38228 0.0
C1207 C 0.07322 0.05022 0.38426 0.0
C1208 C 0.04449 0.0675 0.36098 0.0
C1209 C 0.0462 0.05361 0.34126 0.0
C1210 C 0.06367 0.04008 0.34251 0.0
C1211 C 0.07711 0.03842 0.36385 0.0
H1212 H 0.31219 0.76659 0.59214 0.0
H1213 H 0.33523 0.70576 0.61267 0.0
H1214 H 0.31709 0.7805 0.63338 0.0
H1215 H 0.34024 0.71964 0.65367 0.0
H1216 H 0.31682 0.74068 0.72456 0.0
H1217 H 0.31494 0.72738 0.68361 0.0
H1218 H 0.34784 0.79295 0.66726 0.0
H1219 H 0.34959 0.80637 0.70819 0.0
C1220 C 0.31843 0.75627 0.60542 0.0
C1221 C 0.32326 0.73506 0.59911 0.0
C1222 C 0.32136 0.76426 0.62904 0.0
C1223 C 0.32899 0.75115 0.64687 0.0
C1224 C 0.33405 0.73006 0.64045 0.0
C1225 C 0.33129 0.72216 0.6169 0.0
C1226 C 0.32387 0.75224 0.71231 0.0
C1227 C 0.33334 0.77462 0.71975 0.0
C1228 C 0.32285 0.74458 0.68881 0.0
C1229 C 0.33112 0.75913 0.67208 0.0
C1230 C 0.34104 0.78139 0.67961 0.0
C1231 C 0.34224 0.78901 0.70315 0.0
H1232 H 0.57883 1.01885 0.76632 0.0
H1233 H 0.57783 0.96166 0.80801 0.0
H1234 H 0.5538 0.0344 0.79184 0.0
H1235 H 0.55334 0.97737 0.83375 0.0
H1236 H 0.51264 1.00885 0.88075 0.0
H1237 H 0.51815 0.99161 0.84296 0.0
H1238 H 0.56765 0.05055 0.83148 0.0
H1239 H 0.56164 0.06784 0.86876 0.0
C1240 C 0.57274 1.00932 0.78056 0.0
C1241 C 0.58071 0.98933 0.78558 0.0
C1242 C 0.55845 1.01825 0.79518 0.0
C1243 C 0.55202 1.00735 0.81507 0.0
C1244 C 0.5579 0.98617 0.81853 0.0
C1245 C 0.57211 0.97721 0.80387 0.0
C1246 C 0.52404 1.01836 0.86972 0.0
C1247 C 0.53706 0.03949 0.87777 0.0
C1248 C 0.52729 1.00846 0.84818 0.0
C1249 C 0.54353 0.01959 0.83438 0.0
C1250 C 0.55486 0.04156 0.84155 0.0
C1251 C 0.55167 0.05139 0.86306 0.0
H1252 H 0.32901 0.41484 0.12943 0.0
H1253 H 0.27747 0.35954 0.0971 0.0
H1254 H 0.33094 0.39653 0.16619 0.0
H1255 H 0.27858 0.34131 0.13398 0.0
H1256 H 0.29124 0.30334 0.20072 0.0
H1257 H 0.28934 0.32157 0.16395 0.0
H1258 H 0.32312 0.38408 0.20099 0.0
H1259 H 0.3256 0.36542 0.23754 0.0
C1260 C 0.31784 0.39875 0.13003 0.0
C1261 C 0.30307 0.38906 0.1095 0.0
C1262 C 0.31881 0.388 0.15165 0.0
C1263 C 0.30493 0.3668 0.15438 0.0
C1264 C 0.29006 0.35722 0.13367 0.0
C1265 C 0.28924 0.36793 0.11201 0.0
C1266 C 0.29822 0.32104 0.20123 0.0
C1267 C 0.30852 0.3325 0.22297 0.0
C1268 C 0.29706 0.33183 0.17965 0.0
C1269 C 0.30602 0.35496 0.17819 0.0
C1270 C 0.31614 0.3664 0.20013 0.0
C1271 C 0.31744 0.35554 0.22169 0.0
H1272 H 0.25703 0.90371 0.05775 0.0
H1273 H 0.31265 0.96089 0.07557 0.0
H1274 H 0.22811 0.92589 0.06926 0.0
H1275 H 0.2839 0.98314 0.08634 0.0
H1276 H 0.23072 1.01438 0.12113 0.0
H1277 H 0.25781 0.98861 0.11468 0.0
H1278 H 0.20989 0.95618 0.05522 0.0
H1279 H 0.18274 0.98163 0.06196 0.0
C1280 C 0.26305 0.92099 0.06411 0.0
C1281 C 0.28706 0.93059 0.0657 0.0
C1282 C 0.2465 0.93373 0.07062 0.0
C1283 C 0.25367 0.95631 0.07876 0.0
C1284 C 0.27778 0.96572 0.08057 0.0
C1285 C 0.29426 0.953 0.07419 0.0
C1286 C 0.22597 1.00165 0.10679 0.0
C1287 C 0.20467 1.00009 0.09201 0.0
C1288 C 0.24148 0.98691 0.10304 0.0
C1289 C 0.23612 0.97042 0.0843 0.0
C1290 C 0.21445 0.96845 0.07 0.0
C1291 C 0.19889 0.98308 0.07384 0.0
H1292 H 0.77384 0.6065 0.02141 0.0
H1293 H 0.7565 0.66417 0.0572 0.0
H1294 H 0.73363 0.58615 0.02314 0.0
H1295 H 0.71651 0.64392 0.05918 0.0
H1296 H 0.65117 0.59547 0.0782 0.0
H1297 H 0.69168 0.61483 0.07674 0.0
H1298 H 0.69176 0.58194 1.00874 0.0
H1299 H 0.65118 0.56274 1.01015 0.0
C1300 C 0.76156 0.61495 0.0297 0.0
C1301 C 0.76898 0.63727 0.03912 0.0
C1302 C 0.73818 0.6032 0.03063 0.0
C1303 C 0.7211 0.61302 0.04139 0.0
C1304 C 0.72869 0.6353 0.05095 0.0
C1305 C 0.7519 0.64712 0.04969 0.0
C1306 C 0.65974 0.59216 0.06291 0.0
C1307 C 0.64729 0.57717 0.04436 0.0
C1308 C 0.68322 0.60355 0.06197 0.0
C1309 C 0.69572 0.60035 0.04256 0.0
C1310 C 0.68337 0.58503 0.02419 0.0
C1311 C 0.65975 0.57391 0.02497 0.0
H1312 H 0.77841 0.48701 0.36564 0.0
H1313 H 0.83504 0.5436 0.38154 0.0
H1314 H 0.80691 0.46198 0.36744 0.0
H1315 H 0.86388 0.51837 0.38334 0.0
H1316 H 0.89089 0.46853 0.32851 0.0
H1317 H 0.87425 0.49674 0.34927 0.0
H1318 H 0.83859 0.44596 0.3891 0.0
H1319 H 0.8543 0.41765 0.36773 0.0
C1320 C 0.79696 0.49403 0.37011 0.0
C1321 C 0.80458 0.51719 0.37302 0.0
C1322 C 0.81333 0.47968 0.37143 0.0
C1323 C 0.8377 0.48823 0.37548 0.0
C1324 C 0.84523 0.51136 0.38012 0.0
C1325 C 0.82875 0.52575 0.37907 0.0
C1326 C 0.88014 0.4635 0.34225 0.0
C1327 C 0.87325 0.44078 0.34584 0.0
C1328 C 0.87079 0.47971 0.35435 0.0
C1329 C 0.85453 0.47339 0.37029 0.0
C1330 C 0.85069 0.45118 0.37652 0.0
C1331 C 0.8599 0.43496 0.36434 0.0
H1332 H 0.92157 0.42342 0.52986 0.0
H1333 H 0.90955 0.44873 0.59815 0.0
H1334 H 0.95756 0.45121 0.53176 0.0
H1335 H 0.94597 0.47651 0.60005 0.0
H1336 H 1.03016 0.50552 0.59045 0.0
H1337 H 0.99533 0.4778 0.59641 0.0
H1338 H 0.95764 0.49617 0.53348 0.0
H1339 H 0.99164 0.52375 0.52771 0.0
C1340 C 0.92682 0.43465 0.54544 0.0
C1341 C 0.91263 0.43406 0.56374 0.0
C1342 C 0.94739 0.45054 0.54651 0.0
C1343 C 0.95434 0.466 0.56599 0.0
C1344 C 0.94095 0.46468 0.58491 0.0
C1345 C 0.92012 0.44889 0.58374 0.0
C1346 C 1.0142 0.504 0.5783 0.0
C1347 C 1.01376 0.51655 0.55843 0.0
C1348 C 0.99439 0.48812 0.58165 0.0
C1349 C 0.97413 0.48465 0.56508 0.0
C1350 C 0.97324 0.49828 0.54622 0.0
C1351 C 0.99274 0.5141 0.543 0.0
H1352 H 0.47256 0.12535 0.25037 0.0
H1353 H 0.49178 0.18523 0.29672 0.0
H1354 H 0.43883 0.13981 0.23161 0.0
H1355 H 0.45794 0.19953 0.27825 0.0
H1356 H 0.40198 0.22644 0.23766 0.0
H1357 H 0.43941 0.21278 0.24277 0.0
H1358 H 0.40132 0.14555 0.2449 0.0
H1359 H 0.36391 0.15931 0.2393 0.0
C1360 C 0.46976 0.14174 0.25633 0.0
C1361 C 0.48466 0.15411 0.27515 0.0
C1362 C 0.45041 0.14996 0.24563 0.0
C1363 C 0.44565 0.17075 0.25348 0.0
C1364 C 0.46128 0.18358 0.27154 0.0
C1365 C 0.48059 0.17534 0.28227 0.0
C1366 C 0.4017 0.20865 0.23846 0.0
C1367 C 0.38022 0.19388 0.23831 0.0
C1368 C 0.42307 0.20086 0.24157 0.0
C1369 C 0.42333 0.17818 0.24474 0.0
C1370 C 0.40172 0.16312 0.24242 0.0
C1371 C 0.38029 0.17093 0.23919 0.0
H1372 H 0.38699 0.10852 0.52498 0.0
H1373 H 0.4321 0.16979 0.55259 0.0
H1374 H 0.42127 0.08969 0.52612 0.0
H1375 H 0.46656 0.15125 0.55346 0.0
H1376 H 0.52681 0.11028 0.56852 0.0
H1377 H 0.49238 0.12872 0.56766 0.0
H1378 H 0.45512 0.07982 0.51379 0.0
H1379 H 0.48958 0.06124 0.51504 0.0
C1380 C 0.40421 0.11819 0.5313 0.0
C1381 C 0.40602 0.14107 0.5387 0.0
C1382 C 0.42434 0.10724 0.53184 0.0
C1383 C 0.44776 0.11837 0.53992 0.0
C1384 C 0.44944 0.14133 0.54735 0.0
C1385 C 0.4293 0.15227 0.54673 0.0
C1386 C 0.51134 0.10325 0.55643 0.0
C1387 C 0.51177 0.08379 0.54193 0.0
C1388 C 0.49118 0.11415 0.55578 0.0
C1389 C 0.4699 0.10636 0.5406 0.0
C1390 C 0.47038 0.0868 0.52612 0.0
C1391 C 0.49061 0.07595 0.52673 0.0
H1392 H 0.81438 0.6216 0.33038 0.0
H1393 H 0.76932 0.63637 0.38203 0.0
H1394 H 0.82493 0.66149 0.32501 0.0
H1395 H 0.77957 0.67619 0.37627 0.0
H1396 H 0.7739 0.73269 0.3219 0.0
H1397 H 0.7687 0.69553 0.33691 0.0
H1398 H 0.8444 0.70002 0.34885 0.0
H1399 H 0.84967 0.73728 0.33407 0.0
C1400 C 0.80714 0.63341 0.34089 0.0
C1401 C 0.79096 0.62599 0.35649 0.0
C1402 C 0.81321 0.65616 0.33788 0.0
C1403 C 0.80289 0.67171 0.35015 0.0
C1404 C 0.78763 0.6644 0.36659 0.0
C1405 C 0.78188 0.64169 0.36992 0.0
C1406 C 0.78939 0.72581 0.32792 0.0
C1407 C 0.81214 0.73769 0.32662 0.0
C1408 C 0.78643 0.70471 0.3367 0.0
C1409 C 0.8062 0.69508 0.34396 0.0
C1410 C 0.82895 0.7072 0.34331 0.0
C1411 C 0.83191 0.72846 0.33493 0.0
H1412 H 0.94516 0.56298 0.82232 0.0
H1413 H 0.98227 0.54577 0.76478 0.0
H1414 H 0.92518 0.52423 0.82149 0.0
H1415 H 0.96195 0.50716 0.76361 0.0
H1416 H 0.94815 0.43755 0.79289 0.0
H1417 H 0.96424 0.47662 0.78893 0.0
H1418 H 0.89663 0.49449 0.79874 0.0
H1419 H 0.88072 0.45536 0.80345 0.0
C1420 C 0.94876 0.55098 0.80927 0.0
C1421 C 0.9654 0.55733 0.79375 0.0
C1422 C 0.93723 0.52881 0.8087 0.0
C1423 C 0.94211 0.51259 0.79259 0.0
C1424 C 0.9581 0.51919 0.77649 0.0
C1425 C 0.96965 0.54132 0.77708 0.0
C1426 C 0.93672 0.44981 0.79417 0.0
C1427 C 0.91322 0.44341 0.79862 0.0
C1428 C 0.94585 0.47218 0.79165 0.0
C1429 C 0.93171 0.48867 0.79354 0.0
C1430 C 0.90802 0.48219 0.79741 0.0
C1431 C 0.89885 0.45978 0.79986 0.0
H1432 H 0.1342 0.89391 0.10167 0.0
H1433 H 0.11311 0.93544 0.15575 0.0
H1434 H 0.11665 0.91548 0.07168 0.0
H1435 H 0.09545 0.95663 0.12593 0.0
H1436 H 0.05084 0.98138 0.06999 0.0
H1437 H 0.06125 0.95015 0.09164 0.0
H1438 H 0.1277 0.9573 0.06275 0.0
H1439 H 0.11741 0.98846 0.04125 0.0
C1440 C 0.12578 0.90758 0.1071 0.0
C1441 C 0.12513 0.91317 0.13097 0.0
C1442 C 0.11567 0.91977 0.09 0.0
C1443 C 0.10439 0.93737 0.09658 0.0
C1444 C 0.1036 0.94279 0.12043 0.0
C1445 C 0.114 0.93088 0.13747 0.0
C1446 C 0.06721 0.97567 0.06754 0.0
C1447 C 0.08348 0.98741 0.05426 0.0
C1448 C 0.07323 0.95796 0.08003 0.0
C1449 C 0.09539 0.95166 0.07905 0.0
C1450 C 0.11049 0.96182 0.06373 0.0
C1451 C 0.10462 0.97967 0.0515 0.0
H1452 H 0.93452 0.1988 0.89315 0.0
H1453 H 0.97177 0.21812 0.83427 0.0
H1454 H 0.89738 0.20265 0.8705 0.0
H1455 H 0.93485 0.22235 0.81188 0.0
H1456 H 0.86646 0.23782 0.7786 0.0
H1457 H 0.89207 0.21217 0.7942 0.0
H1458 H 0.89237 0.24181 0.86407 0.0
H1459 H 0.86742 0.26711 0.84865 0.0
C1460 C 0.93466 0.20296 0.87508 0.0
C1461 C 0.95604 0.20895 0.86571 0.0
C1462 C 0.91341 0.20518 0.86211 0.0
C1463 C 0.91338 0.21346 0.83972 0.0
C1464 C 0.93431 0.21606 0.82913 0.0
C1465 C 0.95553 0.21382 0.84207 0.0
C1466 C 0.8718 0.23846 0.7973 0.0
C1467 C 0.86555 0.25471 0.8124 0.0
C1468 C 0.88628 0.22379 0.80621 0.0
C1469 C 0.89407 0.22488 0.83035 0.0
C1470 C 0.88638 0.24022 0.84545 0.0
C1471 C 0.87242 0.25503 0.83657 0.0
H1472 H 0.59227 0.30399 0.61306 0.0
H1473 H 0.66434 0.30796 0.64447 0.0
H1474 H 0.5904 0.26466 0.60132 0.0
H1475 H 0.66228 0.26849 0.63337 0.0
H1476 H 0.65565 0.19937 0.5972 0.0
H1477 H 0.65882 0.2399 0.60188 0.0
H1478 H 0.58845 0.23141 0.62264 0.0
H1479 H 0.58523 0.19104 0.61763 0.0
C1480 C 0.60779 0.2965 0.61722 0.0
C1481 C 0.62838 0.30893 0.62984 0.0
C1482 C 0.60667 0.27395 0.61066 0.0
C1483 C 0.62607 0.26338 0.61672 0.0
C1484 C 0.64708 0.27616 0.62829 0.0
C1485 C 0.64824 0.29875 0.63473 0.0
C1486 C 0.64092 0.20624 0.60282 0.0
C1487 C 0.62021 0.19211 0.60711 0.0
C1488 C 0.64271 0.2294 0.60546 0.0
C1489 C 0.62386 0.23887 0.61253 0.0
C1490 C 0.60311 0.22467 0.61668 0.0
C1491 C 0.60129 0.20155 0.61393 0.0
H1492 H 0.61628 0.73563 0.41121 0.0
H1493 H 0.56879 0.68942 0.36096 0.0
H1494 H 0.64811 0.73416 0.3872 0.0
H1495 H 0.6008 0.68789 0.33684 0.0
H1496 H 0.64809 0.73322 0.28858 0.0
H1497 H 0.61876 0.71888 0.31394 0.0
H1498 H 0.67457 0.71255 0.36827 0.0
H1499 H 0.70392 0.72739 0.34309 0.0
C1500 C 0.61286 0.72464 0.39536 0.0
C1501 C 0.59003 0.71293 0.38773 0.0
C1502 C 0.63112 0.72367 0.38167 0.0
C1503 C 0.62684 0.7111 0.36001 0.0
C1504 C 0.60449 0.69789 0.35335 0.0
C1505 C 0.58623 0.6987 0.36719 0.0
C1506 C 0.65406 0.72839 0.30578 0.0
C1507 C 0.67824 0.73173 0.31399 0.0
C1508 C 0.6373 0.71991 0.3202 0.0
C1509 C 0.64442 0.71475 0.34314 0.0
C1510 C 0.66862 0.71656 0.35072 0.0
C1511 C 0.6854 0.72493 0.33625 0.0
H1512 H 0.09301 0.24152 0.49217 0.0
H1513 H 0.06625 0.20875 0.42444 0.0
H1514 H 0.09077 0.20509 0.50907 0.0
H1515 H 0.06379 0.1723 0.44115 0.0
H1516 H 0.07293 0.10406 0.47272 0.0
H1517 H 0.07531 0.14046 0.45574 0.0
H1518 H 0.07488 0.1721 0.52422 0.0
H1519 H 0.07267 0.13577 0.54101 0.0
C1520 C 0.08655 0.22666 0.48063 0.0
C1521 C 0.07987 0.22913 0.45646 0.0
C1522 C 0.08509 0.20518 0.49055 0.0
C1523 C 0.07699 0.18437 0.47709 0.0
C1524 C 0.07042 0.18699 0.45286 0.0
C1525 C 0.07173 0.20845 0.44301 0.0
C1526 C 0.07324 0.11864 0.48438 0.0
C1527 C 0.07242 0.11586 0.50873 0.0
C1528 C 0.07456 0.1401 0.47441 0.0
C1529 C 0.07539 0.16061 0.48799 0.0
C1530 C 0.07462 0.15769 0.51238 0.0
C1531 C 0.07314 0.13625 0.52229 0.0
H1532 H 0.65232 0.31259 0.16707 0.0
H1533 H 0.62137 0.29929 0.23067 0.0
H1534 H 0.69163 0.31302 0.18788 0.0
H1535 H 0.66071 0.30002 0.25175 0.0
H1536 H 0.73367 0.28416 0.28168 0.0
H1537 H 0.69424 0.28381 0.26112 0.0
H1538 H 0.72446 0.33006 0.21364 0.0
H1539 H 0.76381 0.33007 0.23404 0.0
C1540 C 0.65378 0.30986 0.18558 0.0
C1541 C 0.63307 0.30594 0.19686 0.0
C1542 C 0.67668 0.31023 0.19777 0.0
C1543 C 0.68026 0.3066 0.22199 0.0
C1544 C 0.65942 0.30264 0.23323 0.0
C1545 C 0.63652 0.30237 0.22103 0.0
C1546 C 0.73205 0.29437 0.26691 0.0
C1547 C 0.7526 0.30718 0.25991 0.0
C1548 C 0.70906 0.29427 0.25497 0.0
C1549 C 0.70526 0.30689 0.23523 0.0
C1550 C 0.72591 0.31973 0.22832 0.0
C1551 C 0.74885 0.3199 0.24032 0.0
H1552 H 0.58247 0.88086 0.92495 0.0
H1553 H 0.5895 0.85785 0.9943 0.0
H1554 H 0.5811 0.91843 0.94131 0.0
H1555 H 0.58805 0.89551 1.01091 0.0
H1556 H 0.59913 0.97089 0.03947 0.0
H1557 H 0.60099 0.93326 0.02336 0.0
H1558 H 0.56505 0.94716 0.9576 0.0
H1559 H 0.56336 0.98473 0.9738 0.0
C1560 C 0.58377 0.88358 0.94382 0.0
C1561 C 0.58619 0.86527 0.95783 0.0
C1562 C 0.5828 0.90565 0.95348 0.0
C1563 C 0.58436 0.91136 0.97802 0.0
C1564 C 0.58695 0.89298 0.99206 0.0
C1565 C 0.58772 0.87081 0.98234 0.0
C1566 C 0.5916 0.96617 0.0215 0.0
C1567 C 0.58113 0.98199 1.00839 0.0
C1568 C 0.59254 0.94398 1.01203 0.0
C1569 C 0.58326 0.93581 0.98858 0.0
C1570 C 0.57288 0.95177 0.97549 0.0
C1571 C 0.57177 0.97388 0.98503 0.0
H1572 H 0.97129 0.78508 0.66484 0.0
H1573 H 1.01609 0.81378 0.7272 0.0
H1574 H 0.93646 0.7845 0.68562 0.0
H1575 H 0.98138 0.81311 0.74823 0.0
H1576 H 0.91248 0.82377 0.78032 0.0
H1577 H 0.9476 0.82458 0.75976 0.0
H1578 H 0.90931 0.77179 0.71063 0.0
H1579 H 0.87439 0.77135 0.73104 0.0
C1580 C 0.97397 0.79128 0.68306 0.0
C1581 C 0.99736 0.79948 0.69381 0.0
C1582 C 0.95356 0.79085 0.69535 0.0
C1583 C 0.95496 0.79872 0.71933 0.0
C1584 C 0.97846 0.807 0.72999 0.0
C1585 C 0.99887 0.80729 0.71772 0.0
C1586 C 0.91138 0.81219 0.76519 0.0
C1587 C 0.88976 0.79732 0.75799 0.0
C1588 C 0.93199 0.81257 0.75314 0.0
C1589 C 0.93245 0.79826 0.73283 0.0
C1590 C 0.91069 0.78348 0.72569 0.0
C1591 C 0.89022 0.78302 0.73781 0.0
H1592 H 0.16639 1.01883 0.88567 0.0
H1593 H 0.22329 0.05744 0.93337 0.0
H1594 H 0.14008 1.01868 0.91583 0.0
H1595 H 0.19733 0.05638 0.96404 0.0
H1596 H 0.13816 0.08191 0.99666 0.0
H1597 H 0.16582 0.07584 0.96921 0.0
H1598 H 0.1285 1.00813 0.95265 0.0
H1599 H 0.10019 1.0146 0.97954 0.0
C1600 C 0.17347 0.02661 0.9029 0.0
C1601 C 0.1967 0.03846 0.90717 0.0
C1602 C 0.1584 0.0265 0.92022 0.0
C1603 C 0.16647 0.03798 0.94216 0.0
C1604 C 0.19039 0.048 0.94705 0.0
C1605 C 0.20533 0.04841 0.92962 0.0
C1606 C 0.1358 0.06578 0.98704 0.0
C1607 C 0.117 0.04877 0.99009 0.0
C1608 C 0.15183 0.06217 0.97154 0.0
C1609 C 0.1496 0.04136 0.95901 0.0
C1610 C 0.13062 0.02438 0.96193 0.0
C1611 C 0.11438 0.02811 0.97725 0.0
H1612 H 0.8035 0.35283 0.61133 0.0
H1613 H 0.87893 0.355 0.61831 0.0
H1614 H 0.80192 0.3381 0.64973 0.0
H1615 H 0.87733 0.33963 0.6567 0.0
H1616 H 0.86748 0.33944 0.73603 0.0
H1617 H 0.87104 0.35078 0.69619 0.0
H1618 H 0.80557 0.30635 0.67134 0.0
H1619 H 0.80172 0.29558 0.71097 0.0
C1620 C 0.81971 0.34975 0.62089 0.0
C1621 C 0.84133 0.35506 0.61173 0.0
C1622 C 0.81882 0.34121 0.64295 0.0
C1623 C 0.83952 0.33767 0.65644 0.0
C1624 C 0.86109 0.34242 0.64698 0.0
C1625 C 0.86198 0.35102 0.62486 0.0
C1626 C 0.85397 0.33199 0.722 0.0
C1627 C 0.83421 0.31677 0.72677 0.0
C1628 C 0.85605 0.33841 0.69912 0.0
C1629 C 0.83847 0.32965 0.6805 0.0
C1630 C 0.81918 0.31384 0.68525 0.0
C1631 C 0.81704 0.30757 0.70804 0.0
H1632 H 0.52322 0.13788 0.39656 0.0
H1633 H 0.59462 0.14465 0.37884 0.0
H1634 H 0.53717 0.13093 0.43665 0.0
H1635 H 0.60846 0.1375 0.41888 0.0
H1636 H 0.6016 0.07581 0.46765 0.0
H1637 H 0.59712 0.09847 0.43425 0.0
H1638 H 0.56511 0.14355 0.47547 0.0
H1639 H 0.56998 0.121 0.50921 0.0
C1640 C 0.54198 0.13868 0.40143 0.0
C1641 C 0.55776 0.14137 0.38449 0.0
C1642 C 0.54999 0.13478 0.42441 0.0
C1643 C 0.57383 0.13335 0.43069 0.0
C1644 C 0.58996 0.13831 0.41437 0.0
C1645 C 0.58201 0.14245 0.39148 0.0
C1646 C 0.59418 0.09088 0.46977 0.0
C1647 C 0.58602 0.0966 0.49091 0.0
C1648 C 0.59177 0.10394 0.45072 0.0
C1649 C 0.58076 0.12275 0.45233 0.0
C1650 C 0.57368 0.12914 0.47385 0.0
C1651 C 0.57654 0.11629 0.49311 0.0
H1652 H 0.82742 0.73957 0.0937 0.0
H1653 H 0.85221 0.68522 0.12786 0.0
H1654 H 0.82411 0.75763 0.13194 0.0
H1655 H 0.84895 0.70316 0.16615 0.0
H1656 H 0.8593 0.74917 0.23508 0.0
H1657 H 0.86295 0.73147 0.19683 0.0
H1658 H 0.80415 0.75945 0.1659 0.0
H1659 H 0.80057 0.77712 0.20423 0.0
C1660 C 0.83228 0.73136 0.10931 0.0
C1661 C 0.84022 0.71067 0.10703 0.0
C1662 C 0.8302 0.74178 0.1316 0.0
C1663 C 0.83618 0.73227 0.15303 0.0
C1664 C 0.84432 0.71162 0.15066 0.0
C1665 C 0.84613 0.70109 0.12835 0.0
C1666 C 0.84704 0.75165 0.22022 0.0
C1667 C 0.82957 0.7649 0.22347 0.0
C1668 C 0.84906 0.74122 0.19792 0.0
C1669 C 0.83392 0.74361 0.17738 0.0
C1670 C 0.81654 0.75703 0.18066 0.0
C1671 C 0.81435 0.76724 0.20303 0.0
H1672 H 0.15634 0.07961 0.81852 0.0
H1673 H 0.1751 0.02314 0.7812 0.0
H1674 H 0.12309 0.07948 0.78858 0.0
H1675 H 0.14203 0.02328 0.75093 0.0
H1676 H 0.07528 0.02317 0.70317 0.0
H1677 H 0.09844 1.01885 0.74033 0.0
H1678 H 0.12325 0.09012 0.74822 0.0
H1679 H 0.10085 0.09443 0.71129 0.0
C1680 C 0.15322 0.06703 0.80401 0.0
C1681 C 0.16851 0.0516 0.80195 0.0
C1682 C 0.13417 0.06696 0.78689 0.0
C1683 C 0.13007 0.05151 0.76732 0.0
C1684 C 0.14459 0.03526 0.76594 0.0
C1685 C 0.16365 0.0353 0.78314 0.0
C1686 C 0.08541 0.03794 0.71303 0.0
C1687 C 0.08632 0.05912 0.70406 0.0
C1688 C 0.09864 0.03544 0.73429 0.0
C1689 C 0.1128 0.05411 0.74707 0.0
C1690 C 0.11229 0.07542 0.73896 0.0
C1691 C 0.09929 0.07789 0.71771 0.0
H1692 H 0.84197 0.33673 0.48963 0.0
H1693 H 0.82088 0.39889 0.47108 0.0
H1694 H 0.83615 0.32357 0.44826 0.0
H1695 H 0.81442 0.38561 0.42985 0.0
H1696 H 0.83097 0.36422 0.35641 0.0
H1697 H 0.83492 0.37768 0.39752 0.0
H1698 H 0.80685 0.31123 0.41573 0.0
H1699 H 0.80348 0.29771 0.37481 0.0
C1700 C 0.83589 0.3475 0.47674 0.0
C1701 C 0.83192 0.36885 0.48368 0.0
C1702 C 0.83241 0.33993 0.45298 0.0
C1703 C 0.82477 0.35349 0.43555 0.0
C1704 C 0.82063 0.37479 0.44263 0.0
C1705 C 0.82419 0.38236 0.46634 0.0
C1706 C 0.82536 0.35253 0.36913 0.0
C1707 C 0.81692 0.32984 0.3622 0.0
C1708 C 0.82761 0.36026 0.39279 0.0
C1709 C 0.82139 0.34554 0.41014 0.0
C1710 C 0.8123 0.323 0.40304 0.0
C1711 C 0.81016 0.31526 0.37946 0.0
H1712 H 0.60865 0.10125 0.30424 0.0
H1713 H 0.58446 0.14667 0.25562 0.0
H1714 H 0.63716 0.09296 0.27835 0.0
H1715 H 0.61221 0.13784 0.22934 0.0
H1716 H 0.65608 0.11633 0.18 0.0
H1717 H 0.6503 0.13465 0.21712 0.0
H1718 H 0.62663 0.07007 0.24262 0.0
H1719 H 0.6321 0.05203 0.20602 0.0
C1720 C 0.6098 0.10982 0.28824 0.0
C1721 C 0.59398 0.12414 0.28157 0.0
C1722 C 0.62612 0.10509 0.27342 0.0
C1723 C 0.62661 0.11432 0.25153 0.0
C1724 C 0.61245 0.13047 0.24609 0.0
C1725 C 0.59633 0.1354 0.26106 0.0
C1726 C 0.65026 0.10608 0.19382 0.0
C1727 C 0.64397 0.08273 0.18978 0.0
C1728 C 0.647 0.11657 0.21508 0.0
C1729 C 0.6375 0.10387 0.23264 0.0
C1730 C 0.63409 0.08045 0.22961 0.0
C1731 C 0.63726 0.07001 0.20843 0.0
H1732 H 0.81557 0.68208 0.94998 0.0
H1733 H 0.86028 0.74103 0.98404 0.0
H1734 H 0.81339 0.70016 0.91304 0.0
H1735 H 0.85875 0.75917 0.94698 0.0
H1736 H 0.84145 0.79535 0.87941 0.0
H1737 H 0.84355 0.77761 0.91664 0.0
H1738 H 0.82547 0.71283 0.87906 0.0
H1739 H 0.82284 0.73071 0.84207 0.0
C1740 C 0.82514 0.69894 0.94973 0.0
C1741 C 0.83812 0.70972 0.97073 0.0
C1742 C 0.82404 0.70953 0.92807 0.0
C1743 C 0.83591 0.73167 0.92586 0.0
C1744 C 0.84891 0.74242 0.94702 0.0
C1745 C 0.84996 0.7318 0.96871 0.0
C1746 C 0.83796 0.77729 0.87891 0.0
C1747 C 0.832 0.76486 0.85692 0.0
C1748 C 0.83928 0.76684 0.9007 0.0
C1749 C 0.83471 0.74322 0.90201 0.0
C1750 C 0.82886 0.73088 0.87987 0.0
C1751 C 0.82751 0.74133 0.85814 0.0
H1752 H 0.83659 0.13597 0.02501 0.0
H1753 H 0.89056 0.19441 0.02493 0.0
H1754 H 0.86525 0.11207 0.01792 0.0
H1755 H 0.91919 0.1705 0.01737 0.0
H1756 H 0.9688 0.11973 0.03074 0.0
H1757 H 0.94038 0.14406 0.03696 0.0
H1758 H 0.88815 0.10147 0.98757 0.0
H1759 H 0.91663 0.07706 0.98136 0.0
C1760 C 0.85458 0.14371 0.02341 0.0
C1761 C 0.86135 0.16706 0.02558 0.0
C1762 C 0.87096 0.13002 0.01917 0.0
C1763 C 0.89451 0.13936 0.01701 0.0
C1764 C 0.90127 0.16275 0.0192 0.0
C1765 C 0.88485 0.17646 0.02343 0.0
C1766 C 0.95134 0.11569 0.02097 0.0
C1767 C 0.945 0.09646 1.0055 0.0
C1768 C 0.93504 0.12965 0.02455 0.0
C1769 C 0.91198 0.12473 1.01277 0.0
C1770 C 0.90567 0.10557 0.99719 0.0
C1771 C 0.92198 0.09158 0.99361 0.0
H1772 H 0.38925 0.43234 0.03459 0.0
H1773 H 0.36615 0.49411 0.0515 0.0
H1774 H 0.42947 0.45246 0.03412 0.0
H1775 H 0.40648 0.5145 0.05084 0.0
H1776 H 0.4872 0.54442 0.06701 0.0
H1777 H 0.44654 0.52498 0.06772 0.0
H1778 H 0.45703 0.47568 1.0154 0.0
H1779 H 0.49753 0.49494 1.01493 0.0
C1780 C 0.39262 0.45029 0.03819 0.0
C1781 C 0.37384 0.46128 0.04308 0.0
C1782 C 0.41601 0.46206 0.03776 0.0
C1783 C 0.42209 0.48557 0.04233 0.0
C1784 C 0.40325 0.49655 0.04741 0.0
C1785 C 0.37976 0.48473 0.04768 0.0
C1786 C 0.48091 0.52948 0.05553 0.0
C1787 C 0.49632 0.52161 0.04087 0.0
C1788 C 0.45722 0.5182 0.05586 0.0
C1789 C 0.44766 0.49827 0.0417 0.0
C1790 C 0.46314 0.49055 0.02698 0.0
C1791 C 0.4867 0.50189 0.02655 0.0
H1792 H 0.36889 0.56585 0.70665 0.0
H1793 H 0.40629 0.58158 0.77631 0.0
H1794 H 0.34235 0.5918 0.71503 0.0
H1795 H 0.38025 0.60759 0.78448 0.0
H1796 H 0.32107 0.63966 0.80166 0.0
H1797 H 0.33931 0.6081 0.79062 0.0
H1798 H 0.345 0.63245 0.72184 0.0
H1799 H 0.32574 0.6635 0.73252 0.0
C1800 C 0.37146 0.5749 0.72368 0.0
C1801 C 0.38965 0.57178 0.74082 0.0
C1802 C 0.3563 0.5897 0.72847 0.0
C1803 C 0.35908 0.60152 0.75049 0.0
C1804 C 0.37731 0.59835 0.76753 0.0
C1805 C 0.39241 0.58363 0.76276 0.0
C1806 C 0.32554 0.63791 0.78395 0.0
C1807 C 0.3223 0.65422 0.76806 0.0
C1808 C 0.33624 0.61999 0.77773 0.0
C1809 C 0.344 0.61808 0.75554 0.0
C1810 C 0.33922 0.63348 0.73907 0.0
C1811 C 0.32843 0.65138 0.74527 0.0
H1812 H 0.24367 0.66408 0.55996 0.0
H1813 H 0.24019 0.66147 0.4845 0.0
H1814 H 0.2074 0.63649 0.55682 0.0
H1815 H 0.20364 0.63387 0.48138 0.0
H1816 H 0.12399 0.60573 0.49122 0.0
H1817 H 0.16106 0.63188 0.49101 0.0
H1818 H 0.19517 0.59548 0.54313 0.0
H1819 H 0.15829 0.56931 0.54332 0.0
C1820 C 0.23508 0.6577 0.54269 0.0
C1821 C 0.24479 0.66494 0.52248 0.0
C1822 C 0.21441 0.64177 0.54091 0.0
C1823 C 0.2028 0.63289 0.51886 0.0
C1824 C 0.2122 0.64046 0.49859 0.0
C1825 C 0.2331 0.65622 0.50039 0.0
C1826 C 0.13949 0.6031 0.50237 0.0
C1827 C 0.13816 0.58546 0.51734 0.0
C1828 C 0.16071 0.61806 0.50221 0.0
C1829 C 0.18092 0.61585 0.51724 0.0
C1830 C 0.17979 0.59776 0.53158 0.0
C1831 C 0.15869 0.58266 0.53153 0.0
H1832 H 0.68314 0.96274 0.83304 0.0
H1833 H 0.68233 0.91305 0.77659 0.0
H1834 H 0.71199 0.94603 0.85721 0.0
H1835 H 0.7113 0.89647 0.80065 0.0
H1836 H 0.7558 0.86376 0.84836 0.0
H1837 H 0.7193 0.87676 0.83622 0.0
H1838 H 0.75409 0.94482 0.85486 0.0
H1839 H 0.79059 0.93173 0.8679 0.0
C1840 C 0.68889 0.94805 0.82591 0.0
C1841 C 0.68067 0.93929 0.80284 0.0
C1842 C 0.70543 0.93854 0.83975 0.0
C1843 C 0.71396 0.91999 0.83085 0.0
C1844 C 0.70484 0.91059 0.80816 0.0
C1845 C 0.68838 0.92016 0.79428 0.0
C1846 C 0.75558 0.88141 0.8508 0.0
C1847 C 0.77644 0.89672 0.85853 0.0
C1848 C 0.73463 0.88888 0.84353 0.0
C1849 C 0.73402 0.91182 0.84391 0.0
C1850 C 0.75404 0.927 0.85417 0.0
C1851 C 0.77504 0.91951 0.86148 0.0
H1852 H 0.71502 0.92763 0.53166 0.0
H1853 H 0.76137 0.99024 0.55158 0.0
H1854 H 0.68075 0.94649 0.5309 0.0
H1855 H 0.72726 1.0093 0.55062 0.0
H1856 H 0.66048 0.03908 0.56408 0.0
H1857 H 0.69455 0.02008 0.56487 0.0
H1858 H 0.65431 0.96849 0.51544 0.0
H1859 H 0.62018 0.98749 0.51495 0.0
C1860 C 0.71813 0.9455 0.53587 0.0
C1861 C 0.7417 0.957 0.54171 0.0
C1862 C 0.6981 0.9566 0.5353 0.0
C1863 C 0.70021 0.97999 0.54068 0.0
C1864 C 0.7239 0.99143 0.54658 0.0
C1865 C 0.74392 0.98033 0.54701 0.0
C1866 C 0.65868 0.02369 0.55326 0.0
C1867 C 0.6368 1.0153 0.5394 0.0
C1868 C 0.67868 1.0126 0.5536 0.0
C1869 C 0.67823 0.99219 0.54021 0.0
C1870 C 0.65622 0.98378 0.5264 0.0
C1871 C 0.63626 0.99497 0.52597 0.0
H1872 H 0.41236 0.44668 0.70359 0.0
H1873 H 0.36481 0.47106 0.74742 0.0
H1874 H 0.3938 0.40826 0.70841 0.0
H1875 H 0.34611 0.43268 0.75192 0.0
H1876 H 0.31056 0.35948 0.74528 0.0
H1877 H 0.32343 0.39521 0.72874 0.0
H1878 H 0.39623 0.38951 0.74866 0.0
H1879 H 0.3835 0.35412 0.76547 0.0
C1880 C 0.39756 0.44383 0.71374 0.0
C1881 C 0.39017 0.46172 0.72542 0.0
C1882 C 0.38702 0.42191 0.71648 0.0
C1883 C 0.36869 0.41767 0.73059 0.0
C1884 C 0.36013 0.43561 0.74081 0.0
C1885 C 0.37091 0.4575 0.73837 0.0
C1886 C 0.3293 0.36575 0.7458 0.0
C1887 C 0.34608 0.35426 0.75685 0.0
C1888 C 0.3366 0.38611 0.73636 0.0
C1889 C 0.36075 0.39491 0.7374 0.0
C1890 C 0.3775 0.38287 0.74743 0.0
C1891 C 0.37023 0.36279 0.75725 0.0
H1892 H 0.21944 0.54543 0.26677 0.0
H1893 H 0.20752 0.55936 0.33839 0.0
H1894 H 0.24556 0.58135 0.26791 0.0
H1895 H 0.23411 0.59515 0.3397 0.0
H1896 H 0.23599 0.66608 0.31131 0.0
H1897 H 0.224 0.62725 0.31933 0.0
H1898 H 0.28065 0.60916 0.28355 0.0
H1899 H 0.29236 0.64823 0.27507 0.0
C1900 C 0.22311 0.5558 0.28304 0.0
C1901 C 0.21102 0.54989 0.3023 0.0
C1902 C 0.23818 0.57637 0.28373 0.0
C1903 C 0.24143 0.59128 0.30373 0.0
C1904 C 0.23148 0.58418 0.32388 0.0
C1905 C 0.21636 0.56365 0.32316 0.0
C1906 C 0.246 0.65383 0.30535 0.0
C1907 C 0.26485 0.66006 0.29229 0.0
C1908 C 0.23938 0.63163 0.31024 0.0
C1909 C 0.25143 0.61513 0.30211 0.0
C1910 C 0.27101 0.62152 0.28996 0.0
C1911 C 0.27774 0.64384 0.28519 0.0
H1912 H 0.50187 0.67631 0.46457 0.0
H1913 H 0.55693 0.72938 0.4968 0.0
H1914 H 0.50967 0.65348 0.49663 0.0
H1915 H 0.56453 0.7066 0.52961 0.0
H1916 H 0.59973 0.64146 0.53572 0.0
H1917 H 0.58472 0.67557 0.52736 0.0
H1918 H 0.51403 0.64227 0.53524 0.0
H1919 H 0.52914 0.60783 0.54216 0.0
C1920 C 0.51513 0.68337 0.47898 0.0
C1921 C 0.52935 0.70423 0.47787 0.0
C1922 C 0.51947 0.67037 0.49764 0.0
C1923 C 0.53816 0.67802 0.51553 0.0
C1924 C 0.55037 0.70007 0.51584 0.0
C1925 C 0.54602 0.7131 0.49707 0.0
C1926 C 0.58118 0.64182 0.53656 0.0
C1927 C 0.56541 0.62217 0.53888 0.0
C1928 C 0.5725 0.66139 0.53195 0.0
C1929 C 0.54799 0.66143 0.52988 0.0
C1930 C 0.53287 0.64257 0.536 0.0
C1931 C 0.54148 0.6229 0.54001 0.0
H1932 H 0.70315 0.40476 0.70838 0.0
H1933 H 0.66258 0.34599 0.73276 0.0
H1934 H 0.73648 0.40163 0.73745 0.0
H1935 H 0.69563 0.34213 0.76054 0.0
H1936 H 0.75331 0.33421 0.81016 0.0
H1937 H 0.72175 0.35296 0.79394 0.0
H1938 H 0.76451 0.37793 0.74054 0.0
H1939 H 0.7965 0.36061 0.75799 0.0
C1940 C 0.70128 0.39137 0.72012 0.0
C1941 C 0.68045 0.37544 0.71811 0.0
C1942 C 0.72036 0.38949 0.73669 0.0
C1943 C 0.71893 0.37153 0.75131 0.0
C1944 C 0.69746 0.35645 0.75003 0.0
C1945 C 0.67847 0.35848 0.73378 0.0
C1946 C 0.7561 0.34432 0.79541 0.0
C1947 C 0.77703 0.34573 0.78502 0.0
C1948 C 0.73802 0.35494 0.78598 0.0
C1949 C 0.74022 0.36638 0.76543 0.0
C1950 C 0.76209 0.36938 0.75638 0.0
C1951 C 0.78044 0.35932 0.76628 0.0
H1952 H 0.04939 0.30066 0.96042 0.0
H1953 H 0.97445 0.2918 0.9379 0.0
H1954 H 0.04796 0.33621 0.98079 0.0
H1955 H 0.97281 0.3272 0.95901 0.0
H1956 H 0.98872 0.4043 0.96981 0.0
H1957 H 0.9861 0.36606 0.95421 0.0
H1958 H 0.03405 0.35395 1.0134 0.0
H1959 H 0.03699 0.39258 0.02881 0.0
C1960 C 0.03254 0.30622 0.96006 0.0
C1961 C 1.01206 0.29361 0.94743 0.0
C1962 C 1.03167 0.3265 0.97194 0.0
C1963 C 1.01026 0.33452 0.97157 0.0
C1964 C 0.98963 0.32159 0.95938 0.0
C1965 C 0.99054 0.30133 0.94735 0.0
C1966 C 0.99832 0.39334 0.97975 0.0
C1967 C 1.0131 0.40138 1.0005 0.0
C1968 C 0.99678 0.37139 0.97082 0.0
C1969 C 1.00992 0.35698 0.98252 0.0
C1970 C 1.02401 0.36478 1.00379 0.0
C1971 C 1.02566 0.38683 1.01264 0.0
H1972 H 0.06956 0.8298 0.18659 0.0
H1973 H 0.08855 0.89003 0.23246 0.0
H1974 H 0.03316 0.82002 0.20427 0.0
H1975 H 0.05178 0.88064 0.24967 0.0
H1976 H 1.00053 0.84234 0.29447 0.0
H1977 H 0.03559 0.8534 0.27517 0.0
H1978 H 0.99533 0.83061 0.208 0.0
H1979 H 0.96051 0.81841 0.22747 0.0
C1980 C 0.06578 0.84108 0.20025 0.0
C1981 C 0.08189 0.86058 0.2083 0.0
C1982 C 0.04488 0.83556 0.21028 0.0
C1983 C 0.03966 0.84951 0.22844 0.0
C1984 C 0.05552 0.86935 0.236 0.0
C1985 C 0.07649 0.8748 0.22607 0.0
C1986 C 0.99922 0.83945 0.27562 0.0
C1987 C 0.9778 0.82938 0.26251 0.0
C1988 C 1.01922 0.8461 0.26452 0.0
C1989 C 1.0182 0.84296 0.24005 0.0
C1990 C 0.99672 0.83306 0.22691 0.0
C1991 C 0.97673 0.82629 0.23803 0.0
H1992 H 0.57982 0.38897 0.15662 0.0
H1993 H 0.55335 0.35661 0.08865 0.0
H1994 H 0.58258 0.42548 0.14017 0.0
H1995 H 0.55581 0.39318 0.07197 0.0
H1996 H 0.57294 0.46322 0.04071 0.0
H1997 H 0.5707 0.42652 0.05691 0.0
H1998 H 0.57214 0.45743 0.1261 0.0
H1999 H 0.57462 0.494 0.10978 0.0
C2000 C 0.57444 0.38938 0.13805 0.0
C2001 C 0.56629 0.36878 0.12446 0.0
C2002 C 0.57593 0.4109 0.12833 0.0
C2003 C 0.56947 0.41371 0.10411 0.0
C2004 C 0.56137 0.39297 0.0905 0.0
C2005 C 0.55979 0.37141 0.10029 0.0
C2006 C 0.57292 0.46246 0.05946 0.0
C2007 C 0.57419 0.4827 0.07346 0.0
C2008 C 0.57142 0.44083 0.06903 0.0
C2009 C 0.57115 0.43759 0.09345 0.0
C2010 C 0.57252 0.45797 0.1074 0.0
C2011 C 0.5739 0.47955 0.09781 0.0
H2012 H 1.01701 0.27651 0.35341 0.0
H2013 H 0.99971 0.30984 0.41517 0.0
H2014 H 0.97704 0.27676 0.33373 0.0
H2015 H 0.96011 0.31063 0.39541 0.0
H2016 H 0.89925 0.33009 0.34426 0.0
H2017 H 0.93852 0.32818 0.36383 0.0
H2018 H 0.9332 0.26149 0.33266 0.0
H2019 H 0.89337 0.26321 0.31341 0.0
C2020 C 1.0048 0.28395 0.36291 0.0
C2021 C 1.01216 0.29313 0.38618 0.0
C2022 C 0.98158 0.28402 0.35154 0.0
C2023 C 0.96468 0.29378 0.36263 0.0
C2024 C 0.97219 0.30307 0.38585 0.0
C2025 C 0.99516 0.30253 0.39738 0.0
C2026 C 0.90623 0.31487 0.3415 0.0
C2027 C 0.89247 0.29681 0.32697 0.0
C2028 C 0.92903 0.31374 0.35297 0.0
C2029 C 0.93973 0.29466 0.35018 0.0
C2030 C 0.9261 0.27663 0.33542 0.0
C2031 C 0.90295 0.27757 0.32434 0.0
H2032 H 0.06884 0.7177 0.65349 0.0
H2033 H 0.05583 0.74047 0.58461 0.0
H2034 H 0.07105 0.6806 0.63641 0.0
H2035 H 0.05819 0.70336 0.56728 0.0
H2036 H 0.04939 0.62887 0.53771 0.0
H2037 H 0.04692 0.66589 0.55478 0.0
H2038 H 0.08657 0.65235 0.61868 0.0
H2039 H 0.0888 0.61521 0.60148 0.0
C2040 C 0.0664 0.71502 0.63458 0.0
C2041 C 0.06203 0.7331 0.62092 0.0
C2042 C 0.06785 0.69323 0.62449 0.0
C2043 C 0.06491 0.68762 0.59984 0.0
C2044 C 0.06042 0.70579 0.58618 0.0
C2045 C 0.05912 0.72766 0.59632 0.0
C2046 C 0.05766 0.63353 0.55547 0.0
C2047 C 0.06931 0.61794 0.56773 0.0
C2048 C 0.05635 0.65539 0.5655 0.0
C2049 C 0.06646 0.66348 0.58873 0.0
C2050 C 0.07807 0.64777 0.60101 0.0
C2051 C 0.0795 0.62593 0.59089 0.0
H2052 H 0.66645 0.77815 0.90932 0.0
H2053 H 0.63786 0.81874 0.85838 0.0
H2054 H 0.70118 0.77821 0.88816 0.0
H2055 H 0.67307 0.81961 0.8377 0.0
H2056 H 0.75279 0.83355 0.818 0.0
H2057 H 0.71743 0.83353 0.83846 0.0
H2058 H 0.71622 0.76441 0.85136 0.0
H2059 H 0.75084 0.76426 0.83017 0.0
C2060 C 0.66742 0.78728 0.89369 0.0
C2061 C 0.64852 0.7984 0.88604 0.0
C2062 C 0.68767 0.78726 0.88126 0.0
C2063 C 0.69084 0.79894 0.86068 0.0
C2064 C 0.6721 0.8104 0.85329 0.0
C2065 C 0.6515 0.80985 0.86532 0.0
C2066 C 0.74508 0.81824 0.82511 0.0
C2067 C 0.75545 0.79892 0.82195 0.0
C2068 C 0.7244 0.81818 0.83696 0.0
C2069 C 0.71315 0.799 0.8472 0.0
C2070 C 0.72377 0.77977 0.84425 0.0
C2071 C 0.74393 0.77964 0.83176 0.0
H2072 H 0.44712 0.54295 0.65076 0.0
H2073 H 0.50385 0.5249 0.69705 0.0
H2074 H 0.47311 0.54863 0.6202 0.0
H2075 H 0.53025 0.53172 0.66712 0.0
H2076 H 0.56321 0.5231 0.59906 0.0
H2077 H 0.53843 0.51732 0.63077 0.0
H2078 H 0.50565 0.57345 0.61044 0.0
H2079 H 0.5294 0.57825 0.57822 0.0
C2080 C 0.46522 0.54041 0.6544 0.0
C2081 C 0.47352 0.53346 0.67611 0.0
C2082 C 0.48018 0.54381 0.63703 0.0
C2083 C 0.50384 0.54075 0.64127 0.0
C2084 C 0.51207 0.53388 0.66312 0.0
C2085 C 0.49699 0.53009 0.6803 0.0
C2086 C 0.55084 0.53425 0.60167 0.0
C2087 C 0.54795 0.55095 0.58627 0.0
C2088 C 0.53668 0.53102 0.61978 0.0
C2089 C 0.51981 0.54476 0.62294 0.0
C2090 C 0.51792 0.56215 0.60809 0.0
C2091 C 0.53167 0.56505 0.58979 0.0
H2092 H 0.77274 0.24014 0.97049 0.0
H2093 H 0.84869 0.25891 0.98275 0.0
H2094 H 0.77273 0.25625 0.93248 0.0
H2095 H 0.84868 0.27497 0.94463 0.0
H2096 H 0.83748 0.3155 0.88025 0.0
H2097 H 0.83554 0.30497 0.92059 0.0
H2098 H 0.78669 0.24468 0.89528 0.0
H2099 H 0.78852 0.25513 0.85516 0.0
C2100 C 0.78941 0.248 0.96522 0.0
C2101 C 0.81073 0.24814 0.97957 0.0
C2102 C 0.78941 0.25711 0.94338 0.0
C2103 C 0.81072 0.26671 0.93544 0.0
C2104 C 0.83195 0.26783 0.95029 0.0
C2105 C 0.83197 0.25857 0.9721 0.0
C2106 C 0.82612 0.30013 0.88333 0.0
C2107 C 0.81317 0.28615 0.86445 0.0
C2108 C 0.82513 0.29404 0.90642 0.0
C2109 C 0.81093 0.27402 0.91114 0.0
C2110 C 0.79757 0.26036 0.89229 0.0
C2111 C 0.79875 0.26629 0.86925 0.0
H2112 H 0.08984 0.48634 0.21997 0.0
H2113 H 0.1526 0.53471 0.21448 0.0
H2114 H 0.07279 0.49506 0.18133 0.0
H2115 H 0.13567 0.54328 0.17615 0.0
H2116 H 0.08971 0.57203 0.12209 0.0
H2117 H 0.10204 0.56188 0.1614 0.0
H2118 H 0.08037 0.49201 0.13888 0.0
H2119 H 0.06779 0.50205 0.09956 0.0
C2120 C 0.10007 0.49861 0.21041 0.0
C2121 C 0.1225 0.50989 0.22022 0.0
C2122 C 0.0903 0.50362 0.18838 0.0
C2123 C 0.10278 0.5201 0.17599 0.0
C2124 C 0.12546 0.53086 0.18556 0.0
C2125 C 0.13524 0.52578 0.20741 0.0
C2126 C 0.08721 0.55451 0.12558 0.0
C2127 C 0.07804 0.53784 0.10764 0.0
C2128 C 0.09442 0.54871 0.14804 0.0
C2129 C 0.09248 0.52616 0.15302 0.0
C2130 C 0.08204 0.50951 0.13549 0.0
C2131 C 0.07493 0.5153 0.11297 0.0
H2132 H 0.82687 0.86352 0.48833 0.0
H2133 H 0.7812 0.90419 0.45427 0.0
H2134 H 0.82985 0.84479 0.45029 0.0
H2135 H 0.78364 0.88505 0.41619 0.0
H2136 H 0.7764 0.83053 0.35253 0.0
H2137 H 0.77274 0.84933 0.39047 0.0
H2138 H 0.84636 0.84956 0.41251 0.0
H2139 H 0.85012 0.83137 0.37452 0.0
C2140 C 0.81726 0.86848 0.47281 0.0
C2141 C 0.80373 0.88565 0.47501 0.0
C2142 C 0.81908 0.85768 0.45066 0.0
C2143 C 0.80704 0.86304 0.42941 0.0
C2144 C 0.79317 0.87998 0.43169 0.0
C2145 C 0.79181 0.89116 0.45381 0.0
C2146 C 0.79191 0.83454 0.36537 0.0
C2147 C 0.81362 0.8291 0.35978 0.0
C2148 C 0.78983 0.84557 0.38739 0.0
C2149 C 0.80919 0.85129 0.40531 0.0
C2150 C 0.83079 0.84555 0.39976 0.0
C2151 C 0.833 0.83503 0.3776 0.0
H2152 H 0.47128 0.50126 0.80138 0.0
H2153 H 0.50783 0.5591 0.77168 0.0
H2154 H 0.50469 0.50289 0.83124 0.0
H2155 H 0.54187 0.56034 0.80122 0.0
H2156 H 0.57702 0.57096 0.8798 0.0
H2157 H 0.5525 0.56924 0.84243 0.0
H2158 H 0.54447 0.49726 0.83791 0.0
H2159 H 0.567 0.49874 0.87599 0.0
C2160 C 0.48659 0.51422 0.80115 0.0
C2161 C 0.48692 0.53014 0.78437 0.0
C2162 C 0.50591 0.515 0.81807 0.0
C2163 C 0.52616 0.53157 0.81843 0.0
C2164 C 0.52654 0.54743 0.80148 0.0
C2165 C 0.50705 0.54675 0.78462 0.0
C2166 C 0.57026 0.55476 0.87073 0.0
C2167 C 0.57324 0.535 0.88151 0.0
C2168 C 0.55641 0.55379 0.84911 0.0
C2169 C 0.54577 0.53304 0.83766 0.0
C2170 C 0.55168 0.51348 0.84677 0.0
C2171 C 0.56508 0.5144 0.86855 0.0
H2172 H 0.83167 0.20415 0.12034 0.0
H2173 H 0.81501 0.26715 0.09875 0.0
H2174 H 0.83631 0.2183 0.16129 0.0
H2175 H 0.81934 0.28125 0.13979 0.0
H2176 H 0.84967 0.30664 0.21463 0.0
H2177 H 0.84858 0.29241 0.17413 0.0
H2178 H 0.81198 0.22827 0.19066 0.0
H2179 H 0.81335 0.24234 0.23126 0.0
C2180 C 0.82903 0.22106 0.12434 0.0
C2181 C 0.82294 0.23452 0.10627 0.0
C2182 C 0.83156 0.22912 0.14785 0.0
C2183 C 0.82815 0.2509 0.15391 0.0
C2184 C 0.82238 0.26449 0.13579 0.0
C2185 C 0.81977 0.25637 0.11225 0.0
C2186 C 0.8416 0.28942 0.20975 0.0
C2187 C 0.83155 0.27568 0.22631 0.0
C2188 C 0.84081 0.28131 0.18641 0.0
C2189 C 0.83004 0.25923 0.17902 0.0
C2190 C 0.82059 0.24531 0.19574 0.0
C2191 C 0.8213 0.25343 0.21905 0.0
H2192 H 0.12426 0.56862 0.33092 0.0
H2193 H 0.06675 0.51988 0.29537 0.0
H2194 H 0.09644 0.58906 0.34654 0.0
H2195 H 0.03843 0.54116 0.30982 0.0
H2196 H 1.00835 0.55668 0.37939 0.0
H2197 H 1.02509 0.54495 0.34564 0.0
H2198 H 0.0672 0.61083 0.34568 0.0
H2199 H 0.05091 0.62237 0.38072 0.0
C2200 C 0.10555 0.56256 0.32605 0.0
C2201 C 0.09761 0.54238 0.3125 0.0
C2202 C 0.08947 0.57452 0.33468 0.0
C2203 C 0.06498 0.5668 0.32964 0.0
C2204 C 0.0571 0.5474 0.31454 0.0
C2205 C 0.07328 0.53515 0.30629 0.0
C2206 C 1.0203 0.56913 0.37167 0.0
C2207 C 1.02898 0.59025 0.38333 0.0
C2208 C 1.03006 0.5623 0.35208 0.0
C2209 C 0.04846 0.57658 0.34352 0.0
C2210 C 0.05389 0.59903 0.35254 0.0
C2211 C 0.04437 0.60577 0.37247 0.0
H2212 H 0.77939 0.85885 0.59828 0.0
H2213 H 0.83281 0.913 0.62995 0.0
H2214 H 0.78091 0.84033 0.63503 0.0
H2215 H 0.83515 0.89439 0.66648 0.0
H2216 H 0.82944 0.86388 0.73778 0.0
H2217 H 0.82668 0.88251 0.70132 0.0
H2218 H 0.79284 0.81999 0.66432 0.0
H2219 H 0.79498 0.80172 0.70114 0.0
C2220 C 0.79165 0.86692 0.61302 0.0
C2221 C 0.80588 0.88781 0.61044 0.0
C2222 C 0.79271 0.85604 0.63455 0.0
C2223 C 0.80822 0.86526 0.65496 0.0
C2224 C 0.82252 0.88621 0.65214 0.0
C2225 C 0.82131 0.89711 0.63068 0.0
C2226 C 0.82126 0.85397 0.72195 0.0
C2227 C 0.81238 0.83093 0.72323 0.0
C2228 C 0.8198 0.86481 0.70047 0.0
C2229 C 0.80953 0.85335 0.67862 0.0
C2230 C 0.80065 0.83021 0.68003 0.0
C2231 C 0.80197 0.81941 0.70158 0.0
H2232 H 0.76693 0.41308 0.55944 0.0
H2233 H 0.82567 0.46819 0.56791 0.0
H2234 H 0.73977 0.43919 0.56418 0.0
H2235 H 0.79865 0.49422 0.5731 0.0
H2236 H 0.74051 0.53477 0.55215 0.0
H2237 H 0.76809 0.50896 0.54957 0.0
H2238 H 0.72854 0.46478 0.59332 0.0
H2239 H 0.70087 0.4907 0.59595 0.0
C2240 C 0.77403 0.43076 0.56243 0.0
C2241 C 0.79839 0.43861 0.5632 0.0
C2242 C 0.75851 0.4457 0.56531 0.0
C2243 C 0.76704 0.4688 0.56899 0.0
C2244 C 0.79146 0.47657 0.56997 0.0
C2245 C 0.80696 0.46165 0.56711 0.0
C2246 C 0.7379 0.51974 0.56156 0.0
C2247 C 0.71852 0.51485 0.57433 0.0
C2248 C 0.7537 0.50491 0.56004 0.0
C2249 C 0.75052 0.4848 0.57123 0.0
C2250 C 0.73129 0.47998 0.58422 0.0
C2251 C 0.71546 0.49485 0.58576 0.0
H2252 H 0.27816 0.10533 0.52879 0.0
H2253 H 0.25523 0.16819 0.5404 0.0
H2254 H 0.23769 0.08553 0.53021 0.0
H2255 H 0.21491 0.14856 0.54193 0.0
H2256 H 0.14793 0.10689 0.56566 0.0
H2257 H 0.18835 0.12593 0.56383 0.0
H2258 H 0.19715 0.07564 0.51178 0.0
H2259 H 0.1565 0.0566 0.5136 0.0
C2260 C 0.26456 0.11506 0.53161 0.0
C2261 C 0.27053 0.13864 0.53443 0.0
C2262 C 0.24104 0.10359 0.53234 0.0
C2263 C 0.22228 0.11507 0.53629 0.0
C2264 C 0.22838 0.13868 0.53915 0.0
C2265 C 0.25179 0.15013 0.53811 0.0
C2266 C 0.15835 0.0997 0.5538 0.0
C2267 C 0.14831 0.07985 0.53987 0.0
C2268 C 0.18183 0.11088 0.55259 0.0
C2269 C 0.19678 0.10273 0.53758 0.0
C2270 C 0.1868 0.0827 0.52381 0.0
C2271 C 0.16315 0.07167 0.52479 0.0
H2272 H 0.29363 0.02188 0.88148 0.0
H2273 H 0.28345 0.02513 0.8063 0.0
H2274 H 0.32547 1.00056 0.87766 0.0
H2275 H 0.31518 1.00403 0.80252 0.0
H2276 H 0.3774 0.97302 0.79928 0.0
H2277 H 0.35908 1.00391 0.81268 0.0
H2278 H 0.32238 0.96122 0.85958 0.0
H2279 H 0.3399 0.93035 0.84589 0.0
C2280 C 0.29842 1.0183 0.8642 0.0
C2281 C 0.28592 0.02485 0.84414 0.0
C2282 C 0.31665 1.00621 0.86205 0.0
C2283 C 0.32286 1.0008 0.83984 0.0
C2284 C 0.31105 1.00829 0.81991 0.0
C2285 C 0.29268 0.02011 0.82203 0.0
C2286 C 0.36587 0.97039 0.81287 0.0
C2287 C 0.35967 0.94905 0.82105 0.0
C2288 C 0.35547 0.98808 0.82056 0.0
C2289 C 0.339 0.98477 0.8368 0.0
C2290 C 0.33508 0.96426 0.84709 0.0
C2291 C 0.34525 0.94653 0.83924 0.0
H2292 H 0.423 0.91424 0.04153 0.0
H2293 H 0.384 0.96871 0.04356 0.0
H2294 H 0.45988 0.941 0.04426 0.0
H2295 H 0.42083 0.99546 0.04694 0.0
H2296 H 0.49003 0.03562 0.02742 0.0
H2297 H 0.45254 1.00991 0.02508 0.0
H2298 H 0.48498 0.96786 0.0724 0.0
H2299 H 0.52257 0.99324 0.07426 0.0
C2300 C 0.42233 0.93193 0.04254 0.0
C2301 C 0.40065 0.93939 0.0423 0.0
C2302 C 0.44345 0.94727 0.04432 0.0
C2303 C 0.44332 0.97039 0.046 0.0
C2304 C 0.42155 0.9778 0.04544 0.0
C2305 C 0.40045 0.96246 0.04358 0.0
C2306 C 0.48909 0.02104 0.03755 0.0
C2307 C 0.5093 1.01643 0.05095 0.0
C2308 C 0.46758 1.0063 0.03623 0.0
C2309 C 0.46582 0.98669 0.04835 0.0
C2310 C 0.48585 0.98255 0.06243 0.0
C2311 C 0.50735 0.99722 0.06368 0.0
H2312 H 0.96725 0.68509 0.7887 0.0
H2313 H 0.96478 0.63834 0.72917 0.0
H2314 H 0.9369 0.7021 0.76735 0.0
H2315 H 0.93463 0.65559 0.70761 0.0
H2316 H 0.85508 0.6664 0.70285 0.0
H2317 H 0.89306 0.65475 0.71244 0.0
H2318 H 0.92509 0.723 0.73441 0.0
H2319 H 0.88708 0.7344 0.72598 0.0
C2320 C 0.96061 0.67881 0.77085 0.0
C2321 C 0.96814 0.66023 0.76073 0.0
C2322 C 0.94333 0.68864 0.75852 0.0
C2323 C 0.93324 0.68009 0.7358 0.0
C2324 C 0.94185 0.66236 0.72517 0.0
C2325 C 0.95916 0.65255 0.73751 0.0
C2326 C 0.87034 0.67899 0.70921 0.0
C2327 C 0.86786 0.70127 0.71401 0.0
C2328 C 0.89218 0.67236 0.71454 0.0
C2329 C 0.91198 0.68791 0.72468 0.0
C2330 C 0.91005 0.71055 0.72707 0.0
C2331 C 0.88824 0.71715 0.72185 0.0
H2332 H 0.8858 0.60941 0.02933 0.0
H2333 H 0.93028 0.67272 0.05052 0.0
H2334 H 0.9206 0.59157 0.02966 0.0
H2335 H 0.96524 0.655 0.05161 0.0
H2336 H 1.03017 0.62183 0.0404 0.0
H2337 H 0.99542 0.6398 0.03964 0.0
H2338 H 0.95153 0.57555 0.04289 0.0
H2339 H 0.98628 0.55776 0.04296 0.0
C2340 C 0.903 0.6197 0.03424 0.0
C2341 C 0.90446 0.64288 0.03987 0.0
C2342 C 0.92347 0.60926 0.0346 0.0
C2343 C 0.94694 0.62124 0.04073 0.0
C2344 C 0.94825 0.64451 0.04641 0.0
C2345 C 0.92776 0.65494 0.04594 0.0
C2346 C 1.01316 0.61138 0.041 0.0
C2347 C 1.01186 0.58794 0.0418 0.0
C2348 C 0.99273 0.62189 0.04067 0.0
C2349 C 0.96947 0.60973 0.04118 0.0
C2350 C 0.96833 0.58622 0.04209 0.0
C2351 C 0.98874 0.57573 0.04233 0.0
H2352 H 0.24029 0.13787 0.87067 0.0
H2353 H 0.27867 0.1169 0.81571 0.0
H2354 H 0.25539 0.17702 0.86467 0.0
H2355 H 0.29359 0.15577 0.80973 0.0
H2356 H 0.33482 0.22529 0.82035 0.0
H2357 H 0.32074 0.18808 0.83201 0.0
H2358 H 0.25051 0.20336 0.83186 0.0
H2359 H 0.26461 0.24096 0.82027 0.0
C2360 C 0.25205 0.14164 0.85744 0.0
C2361 C 0.25838 0.12442 0.84366 0.0
C2362 C 0.26055 0.16397 0.85395 0.0
C2363 C 0.27569 0.16934 0.83682 0.0
C2364 C 0.28219 0.15208 0.82328 0.0
C2365 C 0.27356 0.12984 0.82662 0.0
C2366 C 0.3164 0.22087 0.82296 0.0
C2367 C 0.30074 0.23598 0.81906 0.0
C2368 C 0.30836 0.19952 0.8296 0.0
C2369 C 0.28452 0.19281 0.83254 0.0
C2370 C 0.26902 0.2082 0.82978 0.0
C2371 C 0.27707 0.22965 0.82304 0.0
H2372 H 0.51428 0.04462 0.28719 0.0
H2373 H 0.47809 0.06509 0.3441 0.0
H2374 H 0.4926 1.00659 0.28712 0.0
H2375 H 0.45606 0.02714 0.34375 0.0
H2376 H 0.44336 0.95167 0.35387 0.0
H2377 H 0.46323 0.99024 0.35346 0.0
H2378 H 0.45275 0.98492 0.27775 0.0
H2379 H 0.4336 0.94601 0.27816 0.0
C2380 C 0.50164 0.04099 0.29963 0.0
C2381 C 0.49793 0.05778 0.3157 0.0
C2382 C 0.48908 1.01925 0.29947 0.0
C2383 C 0.47256 1.01385 0.31539 0.0
C2384 C 0.46885 0.0307 0.33144 0.0
C2385 C 0.4814 0.05245 0.33158 0.0
C2386 C 0.44536 0.95872 0.33713 0.0
C2387 C 0.43706 0.94575 0.31604 0.0
C2388 C 0.45652 0.98089 0.3369 0.0
C2389 C 0.45965 0.99062 0.31557 0.0
C2390 C 0.45088 0.97781 0.29447 0.0
C2391 C 0.43966 0.95561 0.2947 0.0
H2392 H 0.5986 0.43475 0.6332 0.0
H2393 H 0.644 0.4055 0.59051 0.0
H2394 H 0.58839 0.45777 0.60167 0.0
H2395 H 0.63365 0.42875 0.55869 0.0
H2396 H 0.62996 0.50057 0.52863 0.0
H2397 H 0.6394 0.47017 0.55186 0.0
H2398 H 0.56582 0.4514 0.56122 0.0
H2399 H 0.5563 0.48193 0.53831 0.0
C2400 C 0.6065 0.43334 0.61711 0.0
C2401 C 0.62207 0.41835 0.61427 0.0
C2402 C 0.60041 0.44629 0.59894 0.0
C2403 C 0.60983 0.44461 0.57759 0.0
C2404 C 0.62601 0.43016 0.57494 0.0
C2405 C 0.63199 0.417 0.59314 0.0
C2406 C 0.61568 0.48957 0.53507 0.0
C2407 C 0.59249 0.49402 0.53224 0.0
C2408 C 0.62112 0.47214 0.54831 0.0
C2409 C 0.60342 0.45894 0.55884 0.0
C2410 C 0.57984 0.46175 0.5537 0.0
C2411 C 0.57439 0.47913 0.54043 0.0
H2412 H 0.49917 0.72763 0.33192 0.0
H2413 H 0.45032 0.71114 0.38262 0.0
H2414 H 0.46646 0.73206 0.30299 0.0
H2415 H 0.41786 0.71639 0.35422 0.0
H2416 H 0.36167 0.73102 0.30436 0.0
H2417 H 0.39176 0.70957 0.31835 0.0
H2418 H 0.44616 0.76298 0.30292 0.0
H2419 H 0.4163 0.78391 0.28838 0.0
C2420 C 0.48137 0.72448 0.3367 0.0
C2421 C 0.47727 0.71962 0.35963 0.0
C2422 C 0.46266 0.72705 0.32017 0.0
C2423 C 0.43963 0.72513 0.32646 0.0
C2424 C 0.43532 0.71793 0.34869 0.0
C2425 C 0.45399 0.71511 0.3651 0.0
C2426 C 0.38005 0.73789 0.3034 0.0
C2427 C 0.38667 0.7594 0.29584 0.0
C2428 C 0.39727 0.72561 0.31145 0.0
C2429 C 0.42137 0.73469 0.31214 0.0
C2430 C 0.42779 0.75532 0.30251 0.0
C2431 C 0.41062 0.7675 0.29438 0.0
H2432 H 0.13821 0.79391 0.18942 0.0
H2433 H 0.17596 0.81984 0.1331 0.0
H2434 H 0.13496 0.75606 0.17201 0.0
H2435 H 0.17332 0.78191 0.11601 0.0
H2436 H 0.13298 0.71769 0.07574 0.0
H2437 H 0.14126 0.75477 0.09576 0.0
H2438 H 0.15532 0.7259 0.16187 0.0
H2439 H 0.14675 0.68861 0.14171 0.0
C2440 C 0.14627 0.79147 0.17359 0.0
C2441 C 0.15713 0.80981 0.16247 0.0
C2442 C 0.14448 0.76977 0.16366 0.0
C2443 C 0.15361 0.766 0.14246 0.0
C2444 C 0.16566 0.78431 0.13209 0.0
C2445 C 0.16734 0.80601 0.14196 0.0
C2446 C 0.13803 0.71928 0.09452 0.0
C2447 C 0.13927 0.70027 0.10716 0.0
C2448 C 0.14289 0.74053 0.106 0.0
C2449 C 0.14919 0.74332 0.13039 0.0
C2450 C 0.15035 0.72429 0.14308 0.0
C2451 C 0.1454 0.70296 0.13157 0.0
H2452 H 0.06749 0.28766 0.87194 0.0
H2453 H 0.07879 0.21936 0.86542 0.0
H2454 H 0.10012 0.29911 0.8492 0.0
H2455 H 0.1116 0.23088 0.84289 0.0
H2456 H 0.15434 0.2561 0.7849 0.0
H2457 H 0.11909 0.2459 0.80444 0.0
H2458 H 0.14374 0.30169 0.85552 0.0
H2459 H 0.17871 0.31222 0.83563 0.0
C2460 C 0.07692 0.2751 0.86559 0.0
C2461 C 0.0707 0.25264 0.87045 0.0
C2462 C 0.09562 0.28168 0.85268 0.0
C2463 C 0.10834 0.26588 0.84433 0.0
C2464 C 0.10188 0.24335 0.8489 0.0
C2465 C 0.08324 0.23679 0.8619 0.0
C2466 C 0.152 0.26639 0.80007 0.0
C2467 C 0.16921 0.28493 0.8088 0.0
C2468 C 0.13198 0.26042 0.81137 0.0
C2469 C 0.12879 0.27295 0.83153 0.0
C2470 C 0.14569 0.29184 0.8399 0.0
C2471 C 0.16577 0.29775 0.82866 0.0
H2472 H 0.56459 0.70862 0.9255 0.0
H2473 H 0.59098 0.74145 0.99326 0.0
H2474 H 0.56175 0.67221 0.94232 0.0
H2475 H 0.58842 0.70507 1.01028 0.0
H2476 H 0.57149 0.63581 0.04264 0.0
H2477 H 0.57384 0.67212 0.02576 0.0
H2478 H 0.57146 0.63997 0.95701 0.0
H2479 H 0.5689 0.60364 0.97408 0.0
C2480 C 0.56991 0.70835 0.94411 0.0
C2481 C 0.57806 0.72907 0.95751 0.0
C2482 C 0.56837 0.68689 0.95405 0.0
C2483 C 0.57475 0.68424 0.97833 0.0
C2484 C 0.58287 0.7051 0.99173 0.0
C2485 C 0.58451 0.72658 0.98173 0.0
C2486 C 0.57135 0.63617 0.02384 0.0
C2487 C 0.56979 0.61563 1.01025 0.0
C2488 C 0.5729 0.65761 1.01386 0.0
C2489 C 0.57297 0.66044 0.98935 0.0
C2490 C 0.5713 0.63977 0.97576 0.0
C2491 C 0.56986 0.61831 0.98579 0.0
H2492 H 0.15192 0.81198 0.6637 0.0
H2493 H 0.12174 0.79722 0.72741 0.0
H2494 H 0.19136 0.81167 0.68381 0.0
H2495 H 0.16123 0.79721 0.74781 0.0
H2496 H 0.23443 0.78062 0.77625 0.0
H2497 H 0.19479 0.78085 0.75638 0.0
H2498 H 0.22464 0.82773 0.70931 0.0
H2499 H 0.26414 0.82715 0.72898 0.0
C2500 C 0.15357 0.80877 0.6821 0.0
C2501 C 0.13301 0.80468 0.69361 0.0
C2502 C 0.17657 0.80871 0.6939 0.0
C2503 C 0.18043 0.80444 0.71794 0.0
C2504 C 0.15975 0.80032 0.7294 0.0
C2505 C 0.13674 0.80048 0.7176 0.0
C2506 C 0.23268 0.79106 0.76169 0.0
C2507 C 0.25318 0.80387 0.7546 0.0
C2508 C 0.20957 0.79131 0.75016 0.0
C2509 C 0.20557 0.8043 0.73074 0.0
C2510 C 0.22619 0.81712 0.72373 0.0
C2511 C 0.24925 0.81694 0.73532 0.0
H2512 H 0.08463 0.38102 0.42232 0.0
H2513 H 0.08605 0.3575 0.4915 0.0
H2514 H 0.08329 0.41869 0.43825 0.0
H2515 H 0.08433 0.39514 0.50768 0.0
H2516 H 0.09308 0.46948 0.53723 0.0
H2517 H 0.09505 0.43188 0.52145 0.0
H2518 H 0.06939 0.44884 0.45268 0.0
H2519 H 0.06784 0.4865 0.46859 0.0
C2520 C 0.08465 0.38366 0.44107 0.0
C2521 C 0.08557 0.36521 0.45518 0.0
C2522 C 0.08369 0.40581 0.45048 0.0
C2523 C 0.08359 0.41138 0.47485 0.0
C2524 C 0.08459 0.3928 0.48898 0.0
C2525 C 0.0855 0.37061 0.47951 0.0
C2526 C 0.08784 0.46543 0.51866 0.0
C2527 C 0.08031 0.48213 0.50463 0.0
C2528 C 0.08885 0.44324 0.50935 0.0
C2529 C 0.08245 0.43589 0.48519 0.0
C2530 C 0.07493 0.45273 0.47119 0.0
C2531 C 0.07388 0.4749 0.48054 0.0
H2532 H 0.51624 0.31715 0.22808 0.0
H2533 H 0.47226 0.28237 0.16792 0.0
H2534 H 0.4815 0.31635 0.24913 0.0
H2535 H 0.43741 0.28147 0.18884 0.0
H2536 H 0.37731 0.26762 0.23693 0.0
H2537 H 0.41231 0.26816 0.21654 0.0
H2538 H 0.44633 0.32816 0.25782 0.0
H2539 H 0.41117 0.3275 0.27825 0.0
C2540 C 0.4992 0.30926 0.21912 0.0
C2541 C 0.49787 0.29984 0.19581 0.0
C2542 C 0.47881 0.30889 0.23137 0.0
C2543 C 0.45559 0.29882 0.22133 0.0
C2544 C 0.45437 0.28927 0.198 0.0
C2545 C 0.47474 0.28988 0.18566 0.0
C2546 C 0.39216 0.28102 0.24191 0.0
C2547 C 0.39054 0.29748 0.25981 0.0
C2548 C 0.41264 0.28145 0.22983 0.0
C2549 C 0.43318 0.29828 0.23482 0.0
C2550 C 0.43164 0.31459 0.25298 0.0
C2551 C 0.41103 0.31427 0.26495 0.0
H2552 H 0.69898 0.59609 0.38487 0.0
H2553 H 0.70577 0.5316 0.41038 0.0
H2554 H 0.66678 0.59828 0.40853 0.0
H2555 H 0.67342 0.53379 0.43391 0.0
H2556 H 0.59982 0.53564 0.45345 0.0
H2557 H 0.62861 0.53503 0.42562 0.0
H2558 H 0.66436 0.60067 0.45331 0.0
H2559 H 0.63568 0.60135 0.48133 0.0
C2560 C 0.69354 0.58238 0.3955 0.0
C2561 C 0.70482 0.56368 0.3959 0.0
C2562 C 0.67519 0.58368 0.409 0.0
C2563 C 0.66765 0.56615 0.42282 0.0
C2564 C 0.67881 0.54738 0.42311 0.0
C2565 C 0.69738 0.54621 0.40985 0.0
C2566 C 0.61355 0.55012 0.45334 0.0
C2567 C 0.61568 0.56847 0.46969 0.0
C2568 C 0.63007 0.54967 0.43753 0.0
C2569 C 0.64874 0.56768 0.43762 0.0
C2570 C 0.65005 0.5866 0.45296 0.0
C2571 C 0.6337 0.58695 0.46899 0.0
H2572 H 0.31042 0.8403 0.10049 0.0
H2573 H 0.37952 0.88067 0.11914 0.0
H2574 H 0.31185 0.82671 0.13978 0.0
H2575 H 0.38116 0.86683 0.15822 0.0
H2576 H 0.36224 0.85926 0.23343 0.0
H2577 H 0.36247 0.87107 0.19354 0.0
H2578 H 0.33146 0.80394 0.16626 0.0
H2579 H 0.33083 0.7922 0.20603 0.0
C2580 C 0.32606 0.846 0.11286 0.0
C2581 C 0.34483 0.86159 0.10671 0.0
C2582 C 0.32692 0.83818 0.13538 0.0
C2583 C 0.34656 0.8458 0.15226 0.0
C2584 C 0.3656 0.86091 0.14582 0.0
C2585 C 0.36474 0.8687 0.12334 0.0
C2586 C 0.35556 0.84698 0.21894 0.0
C2587 C 0.34648 0.82478 0.22302 0.0
C2588 C 0.3558 0.85373 0.19603 0.0
C2589 C 0.34695 0.83845 0.17664 0.0
C2590 C 0.33812 0.81621 0.18075 0.0
C2591 C 0.33789 0.80947 0.20362 0.0
H2592 H 0.994 0.62188 0.88379 0.0
H2593 H 0.06561 0.63692 0.86681 0.0
H2594 H 1.0083 0.60858 0.92101 0.0
H2595 H 0.07986 0.6229 0.90366 0.0
H2596 H 0.03413 0.55322 0.96029 0.0
H2597 H 1.02278 0.57415 0.92741 0.0
H2598 H 0.08549 0.62413 0.94643 0.0
H2599 H 0.09719 0.60275 0.97932 0.0
C2600 C 1.01285 0.62288 0.88829 0.0
C2601 C 1.02864 0.6301 0.87228 0.0
C2602 C 1.02103 0.61501 0.90947 0.0
C2603 C 0.04513 0.61399 0.9149 0.0
C2604 C 0.06119 0.62334 0.89995 0.0
C2605 C 0.05301 0.63144 0.87883 0.0
C2606 C 0.04565 0.56855 0.95736 0.0
C2607 C 0.06652 0.57635 0.97241 0.0
C2608 C 0.03898 0.58074 0.93869 0.0
C2609 C 0.05291 0.60112 0.93466 0.0
C2610 C 0.07432 0.60853 0.94915 0.0
C2611 C 0.08109 0.59622 0.96788 0.0
H2612 H 0.31861 0.18209 0.6178 0.0
H2613 H 0.3652 0.24057 0.60128 0.0
H2614 H 0.3155 0.20028 0.65599 0.0
H2615 H 0.36244 0.25878 0.63975 0.0
H2616 H 0.36898 0.27898 0.72092 0.0
H2617 H 0.37241 0.26123 0.68248 0.0
H2618 H 0.29986 0.22839 0.6777 0.0
H2619 H 0.29639 0.24639 0.7159 0.0
C2620 C 0.32834 0.19886 0.62219 0.0
C2621 C 0.34222 0.20951 0.60576 0.0
C2622 C 0.32643 0.20953 0.6444 0.0
C2623 C 0.33862 0.23142 0.65181 0.0
C2624 C 0.35276 0.24199 0.63544 0.0
C2625 C 0.35431 0.23144 0.61299 0.0
C2626 C 0.35363 0.26801 0.71179 0.0
C2627 C 0.33234 0.26446 0.72226 0.0
C2628 C 0.35558 0.25776 0.68933 0.0
C2629 C 0.3365 0.24295 0.67614 0.0
C2630 C 0.31527 0.23929 0.68678 0.0
C2631 C 0.3132 0.24986 0.709 0.0
H2632 H 0.74744 0.56527 0.26887 0.0
H2633 H 0.6878 0.53208 0.30038 0.0
H2634 H 0.72143 0.56794 0.2331 0.0
H2635 H 0.66174 0.53538 0.2651 0.0
H2636 H 0.62159 0.53258 0.19292 0.0
H2637 H 0.64976 0.52437 0.22466 0.0
H2638 H 0.69177 0.58989 0.2221 0.0
H2639 H 0.66385 0.5978 0.19005 0.0
C2640 C 0.72884 0.55827 0.26802 0.0
C2641 C 0.71962 0.54858 0.28744 0.0
C2642 C 0.71389 0.55999 0.24763 0.0
C2643 C 0.68943 0.55216 0.24633 0.0
C2644 C 0.68049 0.54142 0.26537 0.0
C2645 C 0.69543 0.53959 0.28566 0.0
C2646 C 0.63683 0.54522 0.19924 0.0
C2647 C 0.64048 0.56588 0.18914 0.0
C2648 C 0.65299 0.54052 0.21738 0.0
C2649 C 0.67307 0.55645 0.22594 0.0
C2650 C 0.67677 0.57705 0.21565 0.0
C2651 C 0.6607 0.58167 0.19739 0.0
H2652 H 0.30812 0.89426 0.96232 0.0
H2653 H 0.33964 0.83749 0.98213 0.0
H2654 H 0.30316 0.88029 0.92129 0.0
H2655 H 0.33509 0.82367 0.94103 0.0
H2656 H 0.30468 0.79413 0.86804 0.0
H2657 H 0.30584 0.8078 0.90865 0.0
H2658 H 0.32667 0.87543 0.88965 0.0
H2659 H 0.32514 0.8618 0.84883 0.0
C2660 C 0.31394 0.87875 0.95792 0.0
C2661 C 0.32426 0.86697 0.97551 0.0
C2662 C 0.31124 0.87081 0.93435 0.0
C2663 C 0.31876 0.85086 0.92776 0.0
C2664 C 0.3288 0.83894 0.94544 0.0
C2665 C 0.33153 0.8469 0.96902 0.0
C2666 C 0.30931 0.81196 0.87241 0.0
C2667 C 0.31486 0.82683 0.85505 0.0
C2668 C 0.31014 0.81978 0.89581 0.0
C2669 C 0.31656 0.84271 0.90256 0.0
C2670 C 0.32145 0.85767 0.8851 0.0
C2671 C 0.32061 0.84984 0.86165 0.0
H2672 H 0.07158 0.63901 0.75489 0.0
H2673 H 0.07511 0.58476 0.80003 0.0
H2674 H 0.10004 0.62577 0.73214 0.0
H2675 H 0.10422 0.5718 0.77767 0.0
H2676 H 0.10209 0.53584 0.70265 0.0
H2677 H 0.09421 0.5531 0.73915 0.0
H2678 H 0.13731 0.61515 0.72509 0.0
H2679 H 0.14457 0.59785 0.68799 0.0
C2680 C 0.07912 0.62472 0.76045 0.0
C2681 C 0.07067 0.6125 0.77872 0.0
C2682 C 0.09563 0.61721 0.74754 0.0
C2683 C 0.10403 0.59743 0.75282 0.0
C2684 C 0.09767 0.58681 0.77289 0.0
C2685 C 0.08101 0.59423 0.78567 0.0
C2686 C 0.1104 0.55299 0.7077 0.0
C2687 C 0.12343 0.56569 0.69234 0.0
C2688 C 0.10613 0.56286 0.72877 0.0
C2689 C 0.11483 0.58566 0.73484 0.0
C2690 C 0.13008 0.59766 0.72067 0.0
C2691 C 0.13436 0.58772 0.69953 0.0
H2692 H 0.33128 0.17937 0.44592 0.0
H2693 H 0.35066 0.24369 0.48372 0.0
H2694 H 0.32996 0.19726 0.40885 0.0
H2695 H 0.34884 0.26188 0.44667 0.0
H2696 H 0.35753 0.29266 0.37483 0.0
H2697 H 0.36029 0.27481 0.41206 0.0
H2698 H 0.31489 0.2155 0.37889 0.0
H2699 H 0.31274 0.23321 0.34184 0.0
C2700 C 0.3352 0.19743 0.44652 0.0
C2701 C 0.3411 0.20969 0.46859 0.0
C2702 C 0.33428 0.20799 0.42481 0.0
C2703 C 0.33916 0.23161 0.42358 0.0
C2704 C 0.34514 0.24383 0.44581 0.0
C2705 C 0.34607 0.23323 0.46755 0.0
C2706 C 0.34823 0.27572 0.37528 0.0
C2707 C 0.33502 0.26472 0.35444 0.0
C2708 C 0.34963 0.26529 0.39712 0.0
C2709 C 0.33788 0.24313 0.39966 0.0
C2710 C 0.32474 0.23222 0.37866 0.0
C2711 C 0.32337 0.24263 0.3569 0.0
H2712 H 0.38866 0.69124 0.51958 0.0
H2713 H 0.33308 0.63365 0.51622 0.0
H2714 H 0.41677 0.667 0.51192 0.0
H2715 H 0.36139 0.60922 0.50939 0.0
H2716 H 0.41377 0.57332 0.47566 0.0
H2717 H 0.38528 0.59795 0.48096 0.0
H2718 H 0.43703 0.64074 0.53071 0.0
H2719 H 0.46574 0.61691 0.52444 0.0
C2720 C 0.3825 0.67335 0.51739 0.0
C2721 C 0.35872 0.66431 0.51858 0.0
C2722 C 0.39864 0.65943 0.5131 0.0
C2723 C 0.3914 0.63612 0.51014 0.0
C2724 C 0.36752 0.6271 0.51126 0.0
C2725 C 0.35133 0.64107 0.51535 0.0
C2726 C 0.41911 0.58814 0.48751 0.0
C2727 C 0.44198 0.59307 0.49972 0.0
C2728 C 0.4027 0.60211 0.49077 0.0
C2729 C 0.40881 0.62131 0.50633 0.0
C2730 C 0.43176 0.62626 0.5184 0.0
C2731 C 0.44815 0.61239 0.51505 0.0
H2732 H 0.86939 0.9928 0.55443 0.0
H2733 H 0.89026 0.93169 0.53097 0.0
H2734 H 0.90976 1.01289 0.55331 0.0
H2735 H 0.93053 0.95152 0.52998 0.0
H2736 H 0.99832 0.99538 0.51117 0.0
H2737 H 0.95769 0.97621 0.51177 0.0
H2738 H 0.95014 0.02123 0.56953 0.0
H2739 H 0.99076 0.04047 0.56873 0.0
C2740 C 0.88251 0.98352 0.54903 0.0
C2741 C 0.87598 0.96035 0.54279 0.0
C2742 C 0.90602 0.99513 0.5485 0.0
C2743 C 0.92423 0.98423 0.54148 0.0
C2744 C 0.91753 0.96103 0.53518 0.0
C2745 C 0.89413 0.94944 0.5359 0.0
C2746 C 0.98809 1.00137 0.524 0.0
C2747 C 0.99847 0.01983 0.53983 0.0
C2748 C 0.96449 0.99011 0.5245 0.0
C2749 C 0.94981 0.99673 0.54077 0.0
C2750 C 0.96018 1.01538 0.55644 0.0
C2751 C 0.98385 0.02653 0.55606 0.0
H2752 H 0.85503 0.06449 0.21905 0.0
H2753 H 0.88566 0.07752 0.29138 0.0
H2754 H 0.82638 0.08862 0.22584 0.0
H2755 H 0.85772 0.10204 0.298 0.0
H2756 H 0.80217 0.13917 0.31025 0.0
H2757 H 0.81743 0.10542 0.30069 0.0
H2758 H 0.8291 0.1283 0.2323 0.0
H2759 H 0.8125 0.16135 0.24135 0.0
C2760 C 0.85555 0.07245 0.2364 0.0
C2761 C 0.87268 0.06938 0.25464 0.0
C2762 C 0.83918 0.08623 0.24028 0.0
C2763 C 0.83976 0.09724 0.26244 0.0
C2764 C 0.85645 0.09349 0.28083 0.0
C2765 C 0.87268 0.07965 0.27698 0.0
C2766 C 0.80716 0.13661 0.29287 0.0
C2767 C 0.80663 0.15313 0.27672 0.0
C2768 C 0.81617 0.11739 0.28749 0.0
C2769 C 0.82501 0.11447 0.26598 0.0
C2770 C 0.82246 0.13002 0.24905 0.0
C2771 C 0.81324 0.14912 0.25434 0.0
H2772 H 0.73439 0.17811 0.05966 0.0
H2773 H 0.75024 0.14884 0.99467 0.0
H2774 H 0.69804 0.1508 0.05728 0.0
H2775 H 0.7137 0.12132 0.99235 0.0
H2776 H 0.63188 0.09053 0.99068 0.0
H2777 H 0.66816 0.11764 0.98858 0.0
H2778 H 0.69114 0.10947 0.0611 0.0
H2779 H 0.65547 0.08272 0.06326 0.0
C2780 C 0.73002 0.16595 0.04477 0.0
C2781 C 0.74526 0.1655 0.02747 0.0
C2782 C 0.70926 0.15024 0.04345 0.0
C2783 C 0.70319 0.13377 0.02476 0.0
C2784 C 0.71792 0.13385 1.00692 0.0
C2785 C 0.73885 0.14953 1.00832 0.0
C2786 C 0.64489 0.09431 1.00602 0.0
C2787 C 0.64063 0.08468 0.0272 0.0
C2788 C 0.66559 0.10983 1.00483 0.0
C2789 C 0.6822 0.11599 0.02484 0.0
C2790 C 0.67839 0.10549 0.04557 0.0
C2791 C 0.65794 0.09004 0.04673 0.0
H2792 H 0.17239 0.46534 0.35432 0.0
H2793 H 0.16351 0.43023 0.286 0.0
H2794 H 0.19933 0.44092 0.36906 0.0
H2795 H 0.19029 0.40595 0.30062 0.0
H2796 H 0.27681 0.42621 0.36 0.0
H2797 H 0.24016 0.4412 0.3588 0.0
H2798 H 0.20102 0.37795 0.32747 0.0
H2799 H 0.23773 0.36311 0.32852 0.0
C2800 C 0.17555 0.45193 0.34267 0.0
C2801 C 0.16616 0.44985 0.31892 0.0
C2802 C 0.19108 0.43805 0.35109 0.0
C2803 C 0.19717 0.42172 0.33595 0.0
C2804 C 0.18587 0.41827 0.31281 0.0
C2805 C 0.17058 0.43225 0.30436 0.0
C2806 C 0.26026 0.41532 0.35364 0.0
C2807 C 0.26008 0.39372 0.34389 0.0
C2808 C 0.23924 0.42384 0.353 0.0
C2809 C 0.21776 0.41084 0.34266 0.0
C2810 C 0.21736 0.38847 0.33515 0.0
C2811 C 0.23834 0.38 0.33575 0.0
H2812 H 0.21188 0.42767 0.03322 0.0
H2813 H 0.25845 0.4911 0.04494 0.0
H2814 H 0.17763 0.44655 0.03221 0.0
H2815 H 0.22446 0.51018 0.04345 0.0
H2816 H 0.15997 0.5433 0.05471 0.0
H2817 H 0.19357 0.52397 0.05572 0.0
H2818 H 0.14884 0.46621 0.01865 0.0
H2819 H 0.11498 0.48567 0.01821 0.0
C2820 C 0.21504 0.44572 0.03553 0.0
C2821 C 0.23872 0.45742 0.03924 0.0
C2822 C 0.19498 0.45686 0.03481 0.0
C2823 C 0.19711 0.48054 0.03777 0.0
C2824 C 0.22094 0.49214 0.0414 0.0
C2825 C 0.24096 0.481 0.04213 0.0
C2826 C 0.15702 0.52646 0.04665 0.0
C2827 C 0.13392 0.51657 0.0363 0.0
C2828 C 0.17682 0.5151 0.0471 0.0
C2829 C 0.17513 0.4929 0.0372 0.0
C2830 C 0.15189 0.48297 0.02685 0.0
C2831 C 0.13201 0.49439 0.02642 0.0
H2832 H 0.88314 0.95862 0.20805 0.0
H2833 H 0.87536 0.97298 0.28078 0.0
H2834 H 0.86195 0.92051 0.20987 0.0
H2835 H 0.85408 0.93503 0.2825 0.0
H2836 H 0.80454 0.86937 0.27498 0.0
H2837 H 0.81636 0.90785 0.26488 0.0
H2838 H 0.87523 0.88902 0.23352 0.0
H2839 H 0.8636 0.85066 0.24365 0.0
C2840 C 0.87658 0.95372 0.22428 0.0
C2841 C 0.88105 0.96857 0.24436 0.0
C2842 C 0.8645 0.93199 0.2253 0.0
C2843 C 0.85641 0.92497 0.24629 0.0
C2844 C 0.85991 0.94017 0.26603 0.0
C2845 C 0.87225 0.96177 0.26511 0.0
C2846 C 0.81969 0.87335 0.26548 0.0
C2847 C 0.83336 0.85714 0.26036 0.0
C2848 C 0.82646 0.89534 0.25979 0.0
C2849 C 0.84673 0.9013 0.24858 0.0
C2850 C 0.85942 0.88477 0.24202 0.0
C2851 C 0.85286 0.86288 0.24797 0.0
H2852 H 0.67174 0.04982 0.79452 0.0
H2853 H 0.70136 0.03225 0.73193 0.0
H2854 H 0.69436 0.08747 0.79599 0.0
H2855 H 0.72427 0.07014 0.73349 0.0
H2856 H 0.7304 0.14778 0.72892 0.0
H2857 H 0.71437 0.10803 0.72789 0.0
H2858 H 0.73523 0.10853 0.80234 0.0
H2859 H 0.75154 0.1483 0.80338 0.0
C2860 C 0.68328 0.05396 0.78118 0.0
C2861 C 0.68471 0.03815 0.76304 0.0
C2862 C 0.69638 0.07549 0.78213 0.0
C2863 C 0.71112 0.08175 0.76487 0.0
C2864 C 0.71292 0.06581 0.74693 0.0
C2865 C 0.6999 0.04414 0.74608 0.0
C2866 C 0.73204 0.13934 0.74499 0.0
C2867 C 0.74208 0.15127 0.76628 0.0
C2868 C 0.72285 0.11655 0.74438 0.0
C2869 C 0.72341 0.10521 0.76506 0.0
C2870 C 0.73423 0.11693 0.78619 0.0
C2871 C 0.7435 0.1397 0.78679 0.0
loop_
_geom_bond_atom_site_label_1
_geom_bond_atom_site_label_2
_geom_bond_distance
_geom_bond_site_symmetry_2
_ccdc_geom_bond_type
In0 O1 2.294 . S
In0 O2 2.326 . S
In0 O6 2.266 . S
In0 O7 2.326 . S
In0 O8 2.266 . S
In0 O9 2.326 . S
In0 O11 2.294 . S
In0 O12 2.326 . S
O1 In0 2.294 . S
O1 C10 1.240 . S
O2 In0 2.326 . S
O2 C10 1.252 . S
C3 O6 1.252 . S
C3 O7 1.260 . S
C4 O11 1.240 . S
C4 O12 1.252 . S
C5 O8 1.252 . S
C5 O9 1.260 . S
O6 In0 2.266 . S
O6 C3 1.252 . S
O7 In0 2.326 . S
O7 C3 1.260 . S
O8 In0 2.266 . S
O8 C5 1.252 . S
O9 In0 2.326 . S
O9 C5 1.260 . S
C10 O1 1.240 . S
C10 O2 1.252 . S
O11 In0 2.294 . S
O11 C4 1.240 . S
O12 In0 2.326 . S
O12 C4 1.252 . S
In13 O14 2.294 . S
In13 O15 2.326 . S
In13 O19 2.266 . S
In13 O20 2.326 . S
In13 O21 2.266 . S
In13 O22 2.326 . S
In13 O24 2.294 . S
In13 O25 2.326 . S
O14 In13 2.294 . S
O14 C23 1.240 . S
O15 In13 2.326 . S
O15 C23 1.252 . S
C16 O19 1.252 . S
C16 O20 1.260 . S
C17 O24 1.240 . S
C17 O25 1.252 . S
C18 O21 1.252 . S
C18 O22 1.260 . S
O19 In13 2.266 . S
O19 C16 1.252 . S
O20 In13 2.326 . S
O20 C16 1.260 . S
O21 In13 2.266 . S
O21 C18 1.252 . S
O22 In13 2.326 . S
O22 C18 1.260 . S
C23 O14 1.240 . S
C23 O15 1.252 . S
O24 In13 2.294 . S
O24 C17 1.240 . S
O25 In13 2.326 . S
O25 C17 1.252 . S
In26 O27 2.294 . S
In26 O28 2.326 . S
In26 O32 2.266 . S
In26 O33 2.326 . S
In26 O34 2.266 . S
In26 O35 2.326 . S
In26 O37 2.294 . S
In26 O38 2.326 . S
O27 In26 2.294 . S
O27 C36 1.240 . S
O28 In26 2.326 . S
O28 C36 1.252 . S
C29 O32 1.252 . S
C29 O33 1.260 . S
C30 O37 1.240 . S
C30 O38 1.252 . S
C31 O34 1.252 . S
C31 O35 1.260 . S
O32 In26 2.266 . S
O32 C29 1.252 . S
O33 In26 2.326 . S
O33 C29 1.260 . S
O34 In26 2.266 . S
O34 C31 1.252 . S
O35 In26 2.326 . S
O35 C31 1.260 . S
C36 O27 1.240 . S
C36 O28 1.252 . S
O37 In26 2.294 . S
O37 C30 1.240 . S
O38 In26 2.326 . S
O38 C30 1.252 . S
In39 O40 2.294 . S
In39 O41 2.326 . S
In39 O45 2.266 . S
In39 O46 2.326 . S
In39 O47 2.266 . S
In39 O48 2.326 . S
In39 O50 2.294 . S
In39 O51 2.326 . S
O40 In39 2.294 . S
O40 C49 1.240 . S
O41 In39 2.326 . S
O41 C49 1.252 . S
C42 O45 1.252 . S
C42 O46 1.260 . S
C43 O50 1.240 . S
C43 O51 1.252 . S
C44 O47 1.252 . S
C44 O48 1.260 . S
O45 In39 2.266 . S
O45 C42 1.252 . S
O46 In39 2.326 . S
O46 C42 1.260 . S
O47 In39 2.266 . S
O47 C44 1.252 . S
O48 In39 2.326 . S
O48 C44 1.260 . S
C49 O40 1.240 . S
C49 O41 1.252 . S
O50 In39 2.294 . S
O50 C43 1.240 . S
O51 In39 2.326 . S
O51 C43 1.252 . S
In52 O53 2.294 . S
In52 O54 2.326 . S
In52 O58 2.266 . S
In52 O59 2.326 . S
In52 O60 2.266 . S
In52 O61 2.326 . S
In52 O63 2.294 . S
In52 O64 2.326 . S
O53 In52 2.294 . S
O53 C62 1.240 . S
O54 In52 2.326 . S
O54 C62 1.252 . S
C55 O58 1.252 . S
C55 O59 1.260 . S
C56 O63 1.240 . S
C56 O64 1.252 . S
C57 O60 1.252 . S
C57 O61 1.260 . S
O58 In52 2.266 . S
O58 C55 1.252 . S
O59 In52 2.326 . S
O59 C55 1.260 . S
O60 In52 2.266 . S
O60 C57 1.252 . S
O61 In52 2.326 . S
O61 C57 1.260 . S
C62 O53 1.240 . S
C62 O54 1.252 . S
O63 In52 2.294 . S
O63 C56 1.240 . S
O64 In52 2.326 . S
O64 C56 1.252 . S
In65 O66 2.294 . S
In65 O67 2.326 . S
In65 O71 2.266 . S
In65 O72 2.326 . S
In65 O73 2.266 . S
In65 O74 2.326 . S
In65 O76 2.294 . S
In65 O77 2.326 . S
O66 In65 2.294 . S
O66 C75 1.240 . S
O67 In65 2.326 . S
O67 C75 1.252 . S
C68 O71 1.252 . S
C68 O72 1.260 . S
C69 O76 1.240 . S
C69 O77 1.252 . S
C70 O73 1.252 . S
C70 O74 1.260 . S
O71 In65 2.266 . S
O71 C68 1.252 . S
O72 In65 2.326 . S
O72 C68 1.260 . S
O73 In65 2.266 . S
O73 C70 1.252 . S
O74 In65 2.326 . S
O74 C70 1.260 . S
C75 O66 1.240 . S
C75 O67 1.252 . S
O76 In65 2.294 . S
O76 C69 1.240 . S
O77 In65 2.326 . S
O77 C69 1.252 . S
In78 O79 2.294 . S
In78 O80 2.326 . S
In78 O84 2.266 . S
In78 O85 2.326 . S
In78 O86 2.266 . S
In78 O87 2.326 . S
In78 O89 2.294 . S
In78 O90 2.326 . S
O79 In78 2.294 . S
O79 C88 1.240 . S
O80 In78 2.326 . S
O80 C88 1.252 . S
C81 O84 1.252 . S
C81 O85 1.260 . S
C82 O89 1.240 . S
C82 O90 1.252 . S
C83 O86 1.252 . S
C83 O87 1.260 . S
O84 In78 2.266 . S
O84 C81 1.252 . S
O85 In78 2.326 . S
O85 C81 1.260 . S
O86 In78 2.266 . S
O86 C83 1.252 . S
O87 In78 2.326 . S
O87 C83 1.260 . S
C88 O79 1.240 . S
C88 O80 1.252 . S
O89 In78 2.294 . S
O89 C82 1.240 . S
O90 In78 2.326 . S
O90 C82 1.252 . S
In91 O92 2.294 . S
In91 O93 2.331 1_455 S
In91 O97 2.274 . S
In91 O98 2.332 . S
In91 O99 2.264 1_455 S
In91 O100 2.323 1_455 S
In91 O102 2.296 . S
In91 O103 2.329 . S
O92 In91 2.294 . S
O92 C101 1.240 . S
O93 In91 2.331 1_655 S
O93 C101 1.251 1_655 S
C94 O97 1.251 . S
C94 O98 1.255 . S
C95 O102 1.240 . S
C95 O103 1.252 . S
C96 O99 1.252 . S
C96 O100 1.260 . S
O97 In91 2.274 . S
O97 C94 1.251 . S
O98 In91 2.332 . S
O98 C94 1.255 . S
O99 In91 2.264 1_655 S
O99 C96 1.252 . S
O100 In91 2.323 1_655 S
O100 C96 1.260 . S
C101 O92 1.240 . S
C101 O93 1.251 1_455 S
O102 In91 2.296 . S
O102 C95 1.240 . S
O103 In91 2.329 . S
O103 C95 1.252 . S
In104 O105 2.294 . S
In104 O106 2.326 . S
In104 O110 2.266 . S
In104 O111 2.326 . S
In104 O112 2.266 . S
In104 O113 2.326 . S
In104 O115 2.294 . S
In104 O116 2.326 . S
O105 In104 2.294 . S
O105 C114 1.240 . S
O106 In104 2.326 . S
O106 C114 1.252 . S
C107 O110 1.252 . S
C107 O111 1.260 . S
C108 O115 1.240 . S
C108 O116 1.252 . S
C109 O112 1.252 . S
C109 O113 1.260 . S
O110 In104 2.266 . S
O110 C107 1.252 . S
O111 In104 2.326 . S
O111 C107 1.260 . S
O112 In104 2.266 . S
O112 C109 1.252 . S
O113 In104 2.326 . S
O113 C109 1.260 . S
C114 O105 1.240 . S
C114 O106 1.252 . S
O115 In104 2.294 . S
O115 C108 1.240 . S
O116 In104 2.326 . S
O116 C108 1.252 . S
In117 O118 2.294 . S
In117 O119 2.326 . S
In117 O123 2.266 . S
In117 O124 2.326 . S
In117 O125 2.266 . S
In117 O126 2.326 . S
In117 O128 2.294 . S
In117 O129 2.326 . S
O118 In117 2.294 . S
O118 C127 1.240 . S
O119 In117 2.326 . S
O119 C127 1.252 . S
C120 O123 1.252 . S
C120 O124 1.260 . S
C121 O128 1.240 . S
C121 O129 1.252 . S
C122 O125 1.252 . S
C122 O126 1.260 . S
O123 In117 2.266 . S
O123 C120 1.252 . S
O124 In117 2.326 . S
O124 C120 1.260 . S
O125 In117 2.266 . S
O125 C122 1.252 . S
O126 In117 2.326 . S
O126 C122 1.260 . S
C127 O118 1.240 . S
C127 O119 1.252 . S
O128 In117 2.294 . S
O128 C121 1.240 . S
O129 In117 2.326 . S
O129 C121 1.252 . S
In130 O131 2.294 . S
In130 O132 2.326 . S
In130 O136 2.266 . S
In130 O137 2.326 . S
In130 O138 2.266 . S
In130 O139 2.326 . S
In130 O141 2.294 . S
In130 O142 2.326 . S
O131 In130 2.294 . S
O131 C140 1.240 . S
O132 In130 2.326 . S
O132 C140 1.252 . S
C133 O136 1.252 . S
C133 O137 1.260 . S
C134 O141 1.240 . S
C134 O142 1.252 . S
C135 O138 1.252 . S
C135 O139 1.260 . S
O136 In130 2.266 . S
O136 C133 1.252 . S
O137 In130 2.326 . S
O137 C133 1.260 . S
O138 In130 2.266 . S
O138 C135 1.252 . S
O139 In130 2.326 . S
O139 C135 1.260 . S
C140 O131 1.240 . S
C140 O132 1.252 . S
O141 In130 2.294 . S
O141 C134 1.240 . S
O142 In130 2.326 . S
O142 C134 1.252 . S
In143 O144 2.294 . S
In143 O145 2.326 . S
In143 O149 2.266 . S
In143 O150 2.326 . S
In143 O151 2.266 . S
In143 O152 2.326 . S
In143 O154 2.294 . S
In143 O155 2.326 . S
O144 In143 2.294 . S
O144 C153 1.240 . S
O145 In143 2.326 . S
O145 C153 1.252 . S
C146 O149 1.252 . S
C146 O150 1.260 . S
C147 O154 1.240 . S
C147 O155 1.252 . S
C148 O151 1.252 . S
C148 O152 1.260 . S
O149 In143 2.266 . S
O149 C146 1.252 . S
O150 In143 2.326 . S
O150 C146 1.260 . S
O151 In143 2.266 . S
O151 C148 1.252 . S
O152 In143 2.326 . S
O152 C148 1.260 . S
C153 O144 1.240 . S
C153 O145 1.252 . S
O154 In143 2.294 . S
O154 C147 1.240 . S
O155 In143 2.326 . S
O155 C147 1.252 . S
In156 O157 2.294 . S
In156 O158 2.326 . S
In156 O162 2.265 . S
In156 O163 2.326 1_554 S
In156 O164 2.266 . S
In156 O165 2.326 . S
In156 O167 2.294 . S
In156 O168 2.326 . S
O157 In156 2.294 . S
O157 C166 1.240 . S
O158 In156 2.326 . S
O158 C166 1.252 . S
C159 O162 1.254 1_556 S
C159 O163 1.260 . S
C160 O167 1.240 . S
C160 O168 1.252 . S
C161 O164 1.252 . S
C161 O165 1.260 . S
O162 In156 2.265 . S
O162 C159 1.254 1_554 S
O163 In156 2.326 1_556 S
O163 C159 1.260 . S
O164 In156 2.266 . S
O164 C161 1.252 . S
O165 In156 2.326 . S
O165 C161 1.260 . S
C166 O157 1.240 . S
C166 O158 1.252 . S
O167 In156 2.294 . S
O167 C160 1.240 . S
O168 In156 2.326 . S
O168 C160 1.252 . S
In169 O170 2.298 . S
In169 O171 2.328 . S
In169 O175 2.263 1_554 S
In169 O176 2.325 1_554 S
In169 O177 2.241 1_554 S
In169 O178 2.287 1_554 S
In169 O180 2.319 . S
In169 O181 2.365 . S
O170 In169 2.298 . S
O170 C179 1.240 . S
O171 In169 2.328 . S
O171 C179 1.252 . S
C172 O175 1.252 . S
C172 O176 1.260 . S
C173 O180 1.240 . S
C173 O181 1.252 . S
C174 O177 1.252 . S
C174 O178 1.260 . S
O175 In169 2.263 1_556 S
O175 C172 1.252 . S
O176 In169 2.325 1_556 S
O176 C172 1.260 . S
O177 In169 2.241 1_556 S
O177 C174 1.252 . S
O178 In169 2.287 1_556 S
O178 C174 1.260 . S
C179 O170 1.240 . S
C179 O171 1.252 . S
O180 In169 2.319 . S
O180 C173 1.240 . S
O181 In169 2.365 . S
O181 C173 1.252 . S
In182 O183 2.294 . S
In182 O184 2.326 . S
In182 O188 2.266 . S
In182 O189 2.326 . S
In182 O190 2.266 . S
In182 O191 2.326 . S
In182 O193 2.294 . S
In182 O194 2.326 . S
O183 In182 2.294 . S
O183 C192 1.240 . S
O184 In182 2.326 . S
O184 C192 1.252 . S
C185 O188 1.252 . S
C185 O189 1.260 . S
C186 O193 1.240 . S
C186 O194 1.252 . S
C187 O190 1.252 . S
C187 O191 1.260 . S
O188 In182 2.266 . S
O188 C185 1.252 . S
O189 In182 2.326 . S
O189 C185 1.260 . S
O190 In182 2.266 . S
O190 C187 1.252 . S
O191 In182 2.326 . S
O191 C187 1.260 . S
C192 O183 1.240 . S
C192 O184 1.252 . S
O193 In182 2.294 . S
O193 C186 1.240 . S
O194 In182 2.326 . S
O194 C186 1.252 . S
In195 O196 2.294 . S
In195 O197 2.326 . S
In195 O201 2.266 . S
In195 O202 2.326 . S
In195 O203 2.266 . S
In195 O204 2.326 . S
In195 O206 2.294 . S
In195 O207 2.326 . S
O196 In195 2.294 . S
O196 C205 1.240 . S
O197 In195 2.326 . S
O197 C205 1.252 . S
C198 O201 1.252 . S
C198 O202 1.260 . S
C199 O206 1.240 . S
C199 O207 1.252 . S
C200 O203 1.252 . S
C200 O204 1.260 . S
O201 In195 2.266 . S
O201 C198 1.252 . S
O202 In195 2.326 . S
O202 C198 1.260 . S
O203 In195 2.266 . S
O203 C200 1.252 . S
O204 In195 2.326 . S
O204 C200 1.260 . S
C205 O196 1.240 . S
C205 O197 1.252 . S
O206 In195 2.294 . S
O206 C199 1.240 . S
O207 In195 2.326 . S
O207 C199 1.252 . S
In208 O209 2.297 . S
In208 O210 2.330 . S
In208 O214 2.262 . S
In208 O215 2.323 1_545 S
In208 O216 2.250 1_545 S
In208 O217 2.299 1_545 S
In208 O219 2.312 . S
In208 O220 2.352 . S
O209 In208 2.297 . S
O209 C218 1.240 . S
O210 In208 2.330 . S
O210 C218 1.252 . S
C211 O214 1.252 1_565 S
C211 O215 1.260 . S
C212 O219 1.240 . S
C212 O220 1.252 . S
C213 O216 1.252 . S
C213 O217 1.260 . S
O214 In208 2.262 . S
O214 C211 1.252 1_545 S
O215 In208 2.323 1_565 S
O215 C211 1.260 . S
O216 In208 2.250 1_565 S
O216 C213 1.252 . S
O217 In208 2.299 1_565 S
O217 C213 1.260 . S
C218 O209 1.240 . S
C218 O210 1.252 . S
O219 In208 2.312 . S
O219 C212 1.240 . S
O220 In208 2.352 . S
O220 C212 1.252 . S
In221 O222 2.294 . S
In221 O223 2.326 . S
In221 O227 2.266 . S
In221 O228 2.326 . S
In221 O229 2.266 . S
In221 O230 2.326 . S
In221 O232 2.294 . S
In221 O233 2.326 . S
O222 In221 2.294 . S
O222 C231 1.240 . S
O223 In221 2.326 . S
O223 C231 1.252 . S
C224 O227 1.252 . S
C224 O228 1.260 . S
C225 O232 1.240 . S
C225 O233 1.252 . S
C226 O229 1.252 . S
C226 O230 1.260 . S
O227 In221 2.266 . S
O227 C224 1.252 . S
O228 In221 2.326 . S
O228 C224 1.260 . S
O229 In221 2.266 . S
O229 C226 1.252 . S
O230 In221 2.326 . S
O230 C226 1.260 . S
C231 O222 1.240 . S
C231 O223 1.252 . S
O232 In221 2.294 . S
O232 C225 1.240 . S
O233 In221 2.326 . S
O233 C225 1.252 . S
In234 O235 2.294 . S
In234 O236 2.326 . S
In234 O240 2.266 . S
In234 O241 2.326 . S
In234 O242 2.266 . S
In234 O243 2.326 . S
In234 O245 2.294 . S
In234 O246 2.326 . S
O235 In234 2.294 . S
O235 C244 1.240 . S
O236 In234 2.326 . S
O236 C244 1.252 . S
C237 O240 1.252 . S
C237 O241 1.260 . S
C238 O245 1.240 . S
C238 O246 1.252 . S
C239 O242 1.252 . S
C239 O243 1.260 . S
O240 In234 2.266 . S
O240 C237 1.252 . S
O241 In234 2.326 . S
O241 C237 1.260 . S
O242 In234 2.266 . S
O242 C239 1.252 . S
O243 In234 2.326 . S
O243 C239 1.260 . S
C244 O235 1.240 . S
C244 O236 1.252 . S
O245 In234 2.294 . S
O245 C238 1.240 . S
O246 In234 2.326 . S
O246 C238 1.252 . S
In247 O248 2.294 1_545 S
In247 O249 2.326 1_545 S
In247 O253 2.266 . S
In247 O254 2.326 . S
In247 O255 2.266 . S
In247 O256 2.326 . S
In247 O258 2.294 1_545 S
In247 O259 2.326 . S
O248 In247 2.294 1_565 S
O248 C257 1.240 . S
O249 In247 2.326 1_565 S
O249 C257 1.252 . S
C250 O253 1.252 . S
C250 O254 1.260 . S
C251 O258 1.240 . S
C251 O259 1.253 1_565 S
C252 O255 1.252 . S
C252 O256 1.260 . S
O253 In247 2.266 . S
O253 C250 1.252 . S
O254 In247 2.326 . S
O254 C250 1.260 . S
O255 In247 2.266 . S
O255 C252 1.252 . S
O256 In247 2.326 . S
O256 C252 1.260 . S
C257 O248 1.240 . S
C257 O249 1.252 . S
O258 In247 2.294 1_565 S
O258 C251 1.240 . S
O259 In247 2.326 . S
O259 C251 1.253 1_545 S
In260 O261 2.294 . S
In260 O262 2.326 . S
In260 O266 2.266 . S
In260 O267 2.326 . S
In260 O268 2.266 1_554 S
In260 O269 2.326 1_554 S
In260 O271 2.294 . S
In260 O272 2.326 . S
O261 In260 2.294 . S
O261 C270 1.240 . S
O262 In260 2.326 . S
O262 C270 1.252 . S
C263 O266 1.252 . S
C263 O267 1.260 . S
C264 O271 1.240 . S
C264 O272 1.252 . S
C265 O268 1.252 . S
C265 O269 1.260 . S
O266 In260 2.266 . S
O266 C263 1.252 . S
O267 In260 2.326 . S
O267 C263 1.260 . S
O268 In260 2.266 1_556 S
O268 C265 1.252 . S
O269 In260 2.326 1_556 S
O269 C265 1.260 . S
C270 O261 1.240 . S
C270 O262 1.252 . S
O271 In260 2.294 . S
O271 C264 1.240 . S
O272 In260 2.326 . S
O272 C264 1.252 . S
In273 O274 2.294 . S
In273 O275 2.326 . S
In273 O279 2.266 . S
In273 O280 2.326 . S
In273 O281 2.266 1_655 S
In273 O282 2.326 . S
In273 O284 2.294 1_655 S
In273 O285 2.326 . S
O274 In273 2.294 . S
O274 C283 1.240 . S
O275 In273 2.326 . S
O275 C283 1.252 . S
C276 O279 1.252 . S
C276 O280 1.260 . S
C277 O284 1.240 1_655 S
C277 O285 1.252 . S
C278 O281 1.252 . S
C278 O282 1.260 1_455 S
O279 In273 2.266 . S
O279 C276 1.252 . S
O280 In273 2.326 . S
O280 C276 1.260 . S
O281 In273 2.266 1_455 S
O281 C278 1.252 . S
O282 In273 2.326 . S
O282 C278 1.260 1_655 S
C283 O274 1.240 . S
C283 O275 1.252 . S
O284 In273 2.294 1_455 S
O284 C277 1.240 1_455 S
O285 In273 2.326 . S
O285 C277 1.252 . S
In286 O287 2.294 . S
In286 O288 2.326 . S
In286 O292 2.266 . S
In286 O293 2.326 . S
In286 O294 2.266 . S
In286 O295 2.326 . S
In286 O297 2.294 . S
In286 O298 2.326 . S
O287 In286 2.294 . S
O287 C296 1.240 . S
O288 In286 2.326 . S
O288 C296 1.252 . S
C289 O292 1.252 . S
C289 O293 1.260 . S
C290 O297 1.240 . S
C290 O298 1.252 . S
C291 O294 1.252 . S
C291 O295 1.260 . S
O292 In286 2.266 . S
O292 C289 1.252 . S
O293 In286 2.326 . S
O293 C289 1.260 . S
O294 In286 2.266 . S
O294 C291 1.252 . S
O295 In286 2.326 . S
O295 C291 1.260 . S
C296 O287 1.240 . S
C296 O288 1.252 . S
O297 In286 2.294 . S
O297 C290 1.240 . S
O298 In286 2.326 . S
O298 C290 1.252 . S
In299 O300 2.294 . S
In299 O301 2.326 . S
In299 O305 2.266 . S
In299 O306 2.326 . S
In299 O307 2.266 . S
In299 O308 2.326 . S
In299 O310 2.294 . S
In299 O311 2.326 . S
O300 In299 2.294 . S
O300 C309 1.240 . S
O301 In299 2.326 . S
O301 C309 1.252 . S
C302 O305 1.252 . S
C302 O306 1.260 . S
C303 O310 1.240 . S
C303 O311 1.252 . S
C304 O307 1.252 . S
C304 O308 1.260 . S
O305 In299 2.266 . S
O305 C302 1.252 . S
O306 In299 2.326 . S
O306 C302 1.260 . S
O307 In299 2.266 . S
O307 C304 1.252 . S
O308 In299 2.326 . S
O308 C304 1.260 . S
C309 O300 1.240 . S
C309 O301 1.252 . S
O310 In299 2.294 . S
O310 C303 1.240 . S
O311 In299 2.326 . S
O311 C303 1.252 . S
Tb312 C322 2.825 1_455 S
Tb312 O323 2.347 . S
Tb312 O326 2.366 . S
Tb312 O331 2.418 1_554 S
Tb312 O332 2.384 . S
Tb312 O335 2.479 1_554 S
Tb312 O336 2.480 . S
Eu313 O324 2.418 . S
Eu313 O325 2.384 . S
Eu313 O328 2.479 . S
Eu313 O329 2.471 . S
Eu313 O330 2.347 . S
Eu313 O333 2.366 . S
Eu313 C343 2.825 . S
C314 O330 1.259 . S
C314 O331 1.265 1_554 S
C315 O332 1.255 . S
C315 O333 1.265 . S
C316 C318 1.380 1_554 S
C316 C319 1.374 . S
C316 C322 1.507 . S
C317 C318 1.384 . S
C317 C321 1.387 . S
C317 H344 0.930 . S
C318 C316 1.380 1_556 S
C318 C317 1.384 . S
C318 H345 0.931 . S
C319 C316 1.374 . S
C319 C320 1.390 . S
C319 H346 0.930 . S
C320 C319 1.390 . S
C320 C321 1.391 1_554 S
C320 H347 0.930 . S
C321 C317 1.387 . S
C321 C320 1.391 1_556 S
C322 Tb312 2.825 1_655 S
C322 C316 1.507 . S
C322 O335 1.238 1_654 S
C322 O336 1.246 1_655 S
O323 Tb312 2.347 . S
O323 C327 1.259 . S
O324 Eu313 2.418 . S
O324 C327 1.265 . S
O325 Eu313 2.384 . S
O325 C334 1.255 . S
O326 Tb312 2.366 . S
O326 C334 1.265 . S
C327 O323 1.259 . S
C327 O324 1.265 . S
O328 Eu313 2.479 . S
O328 C343 1.238 . S
O329 Eu313 2.471 . S
O329 C343 1.247 . S
O330 Eu313 2.347 . S
O330 C314 1.259 . S
O331 Tb312 2.418 1_556 S
O331 C314 1.265 1_556 S
O332 Tb312 2.384 . S
O332 C315 1.255 . S
O333 Eu313 2.366 . S
O333 C315 1.265 . S
C334 O325 1.255 . S
C334 O326 1.265 . S
O335 Tb312 2.479 1_556 S
O335 C322 1.238 1_456 S
O336 Tb312 2.480 . S
O336 C322 1.246 1_455 S
C337 C340 1.380 . S
C337 C341 1.374 . S
C337 C343 1.507 . S
C338 C339 1.387 . S
C338 C342 1.391 . S
C339 C338 1.387 . S
C339 C340 1.384 . S
C339 H348 0.930 . S
C340 C337 1.380 . S
C340 C339 1.384 . S
C340 H349 0.931 . S
C341 C337 1.374 . S
C341 C342 1.390 . S
C341 H350 0.930 . S
C342 C338 1.391 . S
C342 C341 1.390 . S
C342 H351 0.930 . S
C343 Eu313 2.825 . S
C343 O328 1.238 . S
C343 O329 1.247 . S
C343 C337 1.507 . S
H344 C317 0.930 . S
H345 C318 0.931 . S
H346 C319 0.930 . S
H347 C320 0.930 . S
H348 C339 0.930 . S
H349 C340 0.931 . S
H350 C341 0.930 . S
H351 C342 0.930 . S
Tb352 C362 2.825 . S
Tb352 O363 2.347 . S
Tb352 O366 2.366 . S
Tb352 O371 2.418 . S
Tb352 O372 2.384 . S
Tb352 O375 2.479 . S
Tb352 O376 2.471 . S
Eu353 O364 2.418 . S
Eu353 O365 2.384 . S
Eu353 O368 2.479 . S
Eu353 O369 2.471 . S
Eu353 O370 2.347 . S
Eu353 O373 2.366 . S
Eu353 C383 2.825 . S
C354 O370 1.259 . S
C354 O371 1.265 . S
C355 O372 1.255 . S
C355 O373 1.265 . S
C356 C358 1.380 . S
C356 C359 1.374 . S
C356 C362 1.507 . S
C357 C358 1.384 . S
C357 C361 1.387 . S
C357 H384 0.930 . S
C358 C356 1.380 . S
C358 C357 1.384 . S
C358 H385 0.931 . S
C359 C356 1.374 . S
C359 C360 1.390 . S
C359 H386 0.930 . S
C360 C359 1.390 . S
C360 C361 1.391 . S
C360 H387 0.930 . S
C361 C357 1.387 . S
C361 C360 1.391 . S
C362 Tb352 2.825 . S
C362 C356 1.507 . S
C362 O375 1.238 . S
C362 O376 1.247 . S
O363 Tb352 2.347 . S
O363 C367 1.259 . S
O364 Eu353 2.418 . S
O364 C367 1.265 . S
O365 Eu353 2.384 . S
O365 C374 1.255 . S
O366 Tb352 2.366 . S
O366 C374 1.265 . S
C367 O363 1.259 . S
C367 O364 1.265 . S
O368 Eu353 2.479 . S
O368 C383 1.238 . S
O369 Eu353 2.471 . S
O369 C383 1.247 . S
O370 Eu353 2.347 . S
O370 C354 1.259 . S
O371 Tb352 2.418 . S
O371 C354 1.265 . S
O372 Tb352 2.384 . S
O372 C355 1.255 . S
O373 Eu353 2.366 . S
O373 C355 1.265 . S
C374 O365 1.255 . S
C374 O366 1.265 . S
O375 Tb352 2.479 . S
O375 C362 1.238 . S
O376 Tb352 2.471 . S
O376 C362 1.247 . S
C377 C380 1.380 . S
C377 C381 1.374 . S
C377 C383 1.507 . S
C378 C379 1.387 . S
C378 C382 1.391 . S
C379 C378 1.387 . S
C379 C380 1.384 . S
C379 H388 0.930 . S
C380 C377 1.380 . S
C380 C379 1.384 . S
C380 H389 0.931 . S
C381 C377 1.374 . S
C381 C382 1.390 . S
C381 H390 0.930 . S
C382 C378 1.391 . S
C382 C381 1.390 . S
C382 H391 0.930 . S
C383 Eu353 2.825 . S
C383 O368 1.238 . S
C383 O369 1.247 . S
C383 C377 1.507 . S
H384 C357 0.930 . S
H385 C358 0.931 . S
H386 C359 0.930 . S
H387 C360 0.930 . S
H388 C379 0.930 . S
H389 C380 0.931 . S
H390 C381 0.930 . S
H391 C382 0.930 . S
Tb392 C402 2.825 . S
Tb392 O403 2.347 1_565 S
Tb392 O406 2.366 . S
Tb392 O411 2.418 . S
Tb392 O412 2.384 1_565 S
Tb392 O415 2.479 . S
Tb392 O416 2.471 . S
Eu393 O404 2.418 . S
Eu393 O405 2.384 . S
Eu393 O408 2.479 . S
Eu393 O409 2.471 . S
Eu393 O410 2.347 . S
Eu393 O413 2.366 . S
Eu393 C423 2.825 . S
C394 O410 1.259 . S
C394 O411 1.265 1_545 S
C395 O412 1.255 . S
C395 O413 1.265 . S
C396 C398 1.380 . S
C396 C399 1.374 . S
C396 C402 1.507 . S
C397 C398 1.384 . S
C397 C401 1.387 . S
C397 H424 0.930 . S
C398 C396 1.380 . S
C398 C397 1.384 . S
C398 H425 0.931 . S
C399 C396 1.374 . S
C399 C400 1.390 . S
C399 H426 0.930 . S
C400 C399 1.390 . S
C400 C401 1.391 . S
C400 H427 0.930 . S
C401 C397 1.387 . S
C401 C400 1.391 . S
C402 Tb392 2.825 . S
C402 C396 1.507 . S
C402 O415 1.238 . S
C402 O416 1.247 . S
O403 Tb392 2.347 1_545 S
O403 C407 1.259 . S
O404 Eu393 2.418 . S
O404 C407 1.265 . S
O405 Eu393 2.384 . S
O405 C414 1.255 . S
O406 Tb392 2.366 . S
O406 C414 1.265 1_565 S
C407 O403 1.259 . S
C407 O404 1.265 . S
O408 Eu393 2.479 . S
O408 C423 1.238 . S
O409 Eu393 2.471 . S
O409 C423 1.247 . S
O410 Eu393 2.347 . S
O410 C394 1.259 . S
O411 Tb392 2.418 . S
O411 C394 1.265 1_565 S
O412 Tb392 2.384 1_545 S
O412 C395 1.255 . S
O413 Eu393 2.366 . S
O413 C395 1.265 . S
C414 O405 1.255 . S
C414 O406 1.265 1_545 S
O415 Tb392 2.479 . S
O415 C402 1.238 . S
O416 Tb392 2.471 . S
O416 C402 1.247 . S
C417 C420 1.380 . S
C417 C421 1.374 . S
C417 C423 1.507 . S
C418 C419 1.387 . S
C418 C422 1.391 . S
C419 C418 1.387 . S
C419 C420 1.384 . S
C419 H428 0.930 . S
C420 C417 1.380 . S
C420 C419 1.384 . S
C420 H429 0.931 . S
C421 C417 1.374 . S
C421 C422 1.390 . S
C421 H430 0.930 . S
C422 C418 1.391 . S
C422 C421 1.390 . S
C422 H431 0.930 . S
C423 Eu393 2.825 . S
C423 O408 1.238 . S
C423 O409 1.247 . S
C423 C417 1.507 . S
H424 C397 0.930 . S
H425 C398 0.931 . S
H426 C399 0.930 . S
H427 C400 0.930 . S
H428 C419 0.930 . S
H429 C420 0.931 . S
H430 C421 0.930 . S
H431 C422 0.930 . S
Tb432 C442 2.825 . S
Tb432 O443 2.347 . S
Tb432 O446 2.366 . S
Tb432 O451 2.418 . S
Tb432 O452 2.384 . S
Tb432 O455 2.479 . S
Tb432 O456 2.471 . S
Eu433 O444 2.418 . S
Eu433 O445 2.384 . S
Eu433 O448 2.479 . S
Eu433 O449 2.471 . S
Eu433 O450 2.347 . S
Eu433 O453 2.366 . S
Eu433 C463 2.825 . S
C434 O450 1.259 . S
C434 O451 1.265 . S
C435 O452 1.255 . S
C435 O453 1.265 . S
C436 C438 1.380 . S
C436 C439 1.374 . S
C436 C442 1.507 . S
C437 C438 1.384 . S
C437 C441 1.387 . S
C437 H464 0.930 . S
C438 C436 1.380 . S
C438 C437 1.384 . S
C438 H465 0.931 . S
C439 C436 1.374 . S
C439 C440 1.390 . S
C439 H466 0.930 . S
C440 C439 1.390 . S
C440 C441 1.391 . S
C440 H467 0.930 . S
C441 C437 1.387 . S
C441 C440 1.391 . S
C442 Tb432 2.825 . S
C442 C436 1.507 . S
C442 O455 1.238 . S
C442 O456 1.247 . S
O443 Tb432 2.347 . S
O443 C447 1.259 . S
O444 Eu433 2.418 . S
O444 C447 1.265 . S
O445 Eu433 2.384 . S
O445 C454 1.255 . S
O446 Tb432 2.366 . S
O446 C454 1.265 . S
C447 O443 1.259 . S
C447 O444 1.265 . S
O448 Eu433 2.479 . S
O448 C463 1.238 . S
O449 Eu433 2.471 . S
O449 C463 1.247 . S
O450 Eu433 2.347 . S
O450 C434 1.259 . S
O451 Tb432 2.418 . S
O451 C434 1.265 . S
O452 Tb432 2.384 . S
O452 C435 1.255 . S
O453 Eu433 2.366 . S
O453 C435 1.265 . S
C454 O445 1.255 . S
C454 O446 1.265 . S
O455 Tb432 2.479 . S
O455 C442 1.238 . S
O456 Tb432 2.471 . S
O456 C442 1.247 . S
C457 C460 1.380 . S
C457 C461 1.374 . S
C457 C463 1.507 . S
C458 C459 1.387 . S
C458 C462 1.391 . S
C459 C458 1.387 . S
C459 C460 1.384 . S
C459 H468 0.930 . S
C460 C457 1.380 . S
C460 C459 1.384 . S
C460 H469 0.931 . S
C461 C457 1.374 . S
C461 C462 1.390 . S
C461 H470 0.930 . S
C462 C458 1.391 . S
C462 C461 1.390 . S
C462 H471 0.930 . S
C463 Eu433 2.825 . S
C463 O448 1.238 . S
C463 O449 1.247 . S
C463 C457 1.507 . S
H464 C437 0.930 . S
H465 C438 0.931 . S
H466 C439 0.930 . S
H467 C440 0.930 . S
H468 C459 0.930 . S
H469 C460 0.931 . S
H470 C461 0.930 . S
H471 C462 0.930 . S
Tb472 C482 2.825 . S
Tb472 O483 2.347 . S
Tb472 O486 2.366 . S
Tb472 O491 2.418 . S
Tb472 O492 2.384 1_545 S
Tb472 O495 2.479 . S
Tb472 O496 2.471 . S
Eu473 O484 2.418 . S
Eu473 O485 2.384 . S
Eu473 O488 2.479 . S
Eu473 O489 2.471 . S
Eu473 O490 2.347 . S
Eu473 O493 2.366 . S
Eu473 C503 2.825 . S
C474 O490 1.259 . S
C474 O491 1.265 . S
C475 O492 1.255 . S
C475 O493 1.265 1_565 S
C476 C478 1.380 . S
C476 C479 1.339 1_455 S
C476 C482 1.507 . S
C477 C478 1.384 . S
C477 C481 1.387 . S
C477 H504 0.930 . S
C478 C476 1.380 . S
C478 C477 1.384 . S
C478 H505 0.931 . S
C479 C476 1.339 1_655 S
C479 C480 1.402 . S
C479 H506 0.955 . S
C480 C479 1.402 . S
C480 C481 1.391 1_655 S
C480 H507 0.930 . S
C481 C477 1.387 . S
C481 C480 1.391 1_455 S
C482 Tb472 2.825 . S
C482 C476 1.507 . S
C482 O495 1.238 . S
C482 O496 1.247 . S
O483 Tb472 2.347 . S
O483 C487 1.259 . S
O484 Eu473 2.418 . S
O484 C487 1.265 . S
O485 Eu473 2.384 . S
O485 C494 1.255 . S
O486 Tb472 2.366 . S
O486 C494 1.265 . S
C487 O483 1.259 . S
C487 O484 1.265 . S
O488 Eu473 2.479 . S
O488 C503 1.238 . S
O489 Eu473 2.471 . S
O489 C503 1.247 . S
O490 Eu473 2.347 . S
O490 C474 1.259 . S
O491 Tb472 2.418 . S
O491 C474 1.265 . S
O492 Tb472 2.384 1_565 S
O492 C475 1.255 . S
O493 Eu473 2.366 . S
O493 C475 1.265 1_545 S
C494 O485 1.255 . S
C494 O486 1.265 . S
O495 Tb472 2.479 . S
O495 C482 1.238 . S
O496 Tb472 2.471 . S
O496 C482 1.247 . S
C497 C500 1.380 . S
C497 C501 1.374 . S
C497 C503 1.507 . S
C498 C499 1.387 . S
C498 C502 1.391 . S
C499 C498 1.387 . S
C499 C500 1.384 . S
C499 H508 0.930 . S
C500 C497 1.380 . S
C500 C499 1.384 . S
C500 H509 0.931 . S
C501 C497 1.374 . S
C501 C502 1.390 . S
C501 H510 0.930 . S
C502 C498 1.391 . S
C502 C501 1.390 . S
C502 H511 0.930 . S
C503 Eu473 2.825 . S
C503 O488 1.238 . S
C503 O489 1.247 . S
C503 C497 1.507 . S
H504 C477 0.930 . S
H505 C478 0.931 . S
H506 C479 0.955 . S
H507 C480 0.930 . S
H508 C499 0.930 . S
H509 C500 0.931 . S
H510 C501 0.930 . S
H511 C502 0.930 . S
Tb512 C522 2.825 . S
Tb512 O523 2.347 . S
Tb512 O526 2.366 . S
Tb512 O531 2.418 . S
Tb512 O532 2.384 . S
Tb512 O535 2.479 . S
Tb512 O536 2.471 . S
Eu513 O524 2.418 . S
Eu513 O525 2.384 . S
Eu513 O528 2.479 . S
Eu513 O529 2.471 . S
Eu513 O530 2.347 . S
Eu513 O533 2.366 . S
Eu513 C543 2.825 . S
C514 O530 1.259 . S
C514 O531 1.265 . S
C515 O532 1.255 . S
C515 O533 1.265 . S
C516 C518 1.380 . S
C516 C519 1.374 . S
C516 C522 1.507 . S
C517 C518 1.384 . S
C517 C521 1.387 . S
C517 H544 0.930 . S
C518 C516 1.380 . S
C518 C517 1.384 . S
C518 H545 0.931 . S
C519 C516 1.374 . S
C519 C520 1.390 . S
C519 H546 0.930 . S
C520 C519 1.390 . S
C520 C521 1.391 . S
C520 H547 0.930 . S
C521 C517 1.387 . S
C521 C520 1.391 . S
C522 Tb512 2.825 . S
C522 C516 1.507 . S
C522 O535 1.238 . S
C522 O536 1.247 . S
O523 Tb512 2.347 . S
O523 C527 1.259 . S
O524 Eu513 2.418 . S
O524 C527 1.265 . S
O525 Eu513 2.384 . S
O525 C534 1.255 . S
O526 Tb512 2.366 . S
O526 C534 1.265 . S
C527 O523 1.259 . S
C527 O524 1.265 . S
O528 Eu513 2.479 . S
O528 C543 1.238 . S
O529 Eu513 2.471 . S
O529 C543 1.247 . S
O530 Eu513 2.347 . S
O530 C514 1.259 . S
O531 Tb512 2.418 . S
O531 C514 1.265 . S
O532 Tb512 2.384 . S
O532 C515 1.255 . S
O533 Eu513 2.366 . S
O533 C515 1.265 . S
C534 O525 1.255 . S
C534 O526 1.265 . S
O535 Tb512 2.479 . S
O535 C522 1.238 . S
O536 Tb512 2.471 . S
O536 C522 1.247 . S
C537 C540 1.380 . S
C537 C541 1.374 . S
C537 C543 1.507 . S
C538 C539 1.387 . S
C538 C542 1.391 . S
C539 C538 1.387 . S
C539 C540 1.384 . S
C539 H548 0.930 . S
C540 C537 1.380 . S
C540 C539 1.384 . S
C540 H549 0.931 . S
C541 C537 1.374 . S
C541 C542 1.390 . S
C541 H550 0.930 . S
C542 C538 1.391 . S
C542 C541 1.390 . S
C542 H551 0.930 . S
C543 Eu513 2.825 . S
C543 O528 1.238 . S
C543 O529 1.247 . S
C543 C537 1.507 . S
H544 C517 0.930 . S
H545 C518 0.931 . S
H546 C519 0.930 . S
H547 C520 0.930 . S
H548 C539 0.930 . S
H549 C540 0.931 . S
H550 C541 0.930 . S
H551 C542 0.930 . S
Tb552 C562 2.825 . S
Tb552 O563 2.347 . S
Tb552 O566 2.366 . S
Tb552 O571 2.418 1_545 S
Tb552 O572 2.384 . S
Tb552 O575 2.479 . S
Tb552 O576 2.471 . S
Eu553 O564 2.418 . S
Eu553 O565 2.384 1_556 S
Eu553 O568 2.479 . S
Eu553 O569 2.471 . S
Eu553 O570 2.347 . S
Eu553 O573 2.366 . S
Eu553 C583 2.825 . S
C554 O570 1.258 1_554 S
C554 O571 1.265 1_545 S
C555 O572 1.255 . S
C555 O573 1.265 1_554 S
C556 C558 1.380 . S
C556 C559 1.374 . S
C556 C562 1.507 . S
C557 C558 1.384 . S
C557 C561 1.387 . S
C557 H584 0.930 1_545 S
C558 C556 1.380 . S
C558 C557 1.384 . S
C558 H585 0.931 1_545 S
C559 C556 1.374 . S
C559 C560 1.390 . S
C559 H586 0.930 . S
C560 C559 1.390 . S
C560 C561 1.391 . S
C560 H587 0.930 . S
C561 C557 1.387 . S
C561 C560 1.391 . S
C562 Tb552 2.825 . S
C562 C556 1.507 . S
C562 O575 1.238 . S
C562 O576 1.247 . S
O563 Tb552 2.347 . S
O563 C567 1.259 . S
O564 Eu553 2.418 . S
O564 C567 1.265 1_556 S
O565 Eu553 2.384 1_554 S
O565 C574 1.255 . S
O566 Tb552 2.366 . S
O566 C574 1.265 . S
C567 O563 1.259 . S
C567 O564 1.265 1_554 S
O568 Eu553 2.479 . S
O568 C583 1.238 . S
O569 Eu553 2.471 . S
O569 C583 1.247 . S
O570 Eu553 2.347 . S
O570 C554 1.258 1_556 S
O571 Tb552 2.418 1_565 S
O571 C554 1.265 1_565 S
O572 Tb552 2.384 . S
O572 C555 1.255 . S
O573 Eu553 2.366 . S
O573 C555 1.265 1_556 S
C574 O565 1.255 . S
C574 O566 1.265 . S
O575 Tb552 2.479 . S
O575 C562 1.238 . S
O576 Tb552 2.471 . S
O576 C562 1.247 . S
C577 C580 1.380 . S
C577 C581 1.374 . S
C577 C583 1.507 . S
C578 C579 1.387 . S
C578 C582 1.391 . S
C579 C578 1.387 . S
C579 C580 1.384 . S
C579 H588 0.930 . S
C580 C577 1.380 . S
C580 C579 1.384 . S
C580 H589 0.931 . S
C581 C577 1.374 . S
C581 C582 1.390 . S
C581 H590 0.930 . S
C582 C578 1.391 . S
C582 C581 1.390 . S
C582 H591 0.930 . S
C583 Eu553 2.825 . S
C583 O568 1.238 . S
C583 O569 1.247 . S
C583 C577 1.507 . S
H584 C557 0.930 1_565 S
H585 C558 0.931 1_565 S
H586 C559 0.930 . S
H587 C560 0.930 . S
H588 C579 0.930 . S
H589 C580 0.931 . S
H590 C581 0.930 . S
H591 C582 0.930 . S
Tb592 C602 2.825 . S
Tb592 O603 2.347 . S
Tb592 O606 2.366 . S
Tb592 O611 2.418 . S
Tb592 O612 2.384 . S
Tb592 O615 2.479 . S
Tb592 O616 2.471 . S
Eu593 O604 2.418 . S
Eu593 O605 2.384 . S
Eu593 O608 2.479 . S
Eu593 O609 2.471 . S
Eu593 O610 2.347 . S
Eu593 O613 2.366 . S
Eu593 C623 2.825 . S
C594 O610 1.259 . S
C594 O611 1.265 . S
C595 O612 1.255 . S
C595 O613 1.265 . S
C596 C598 1.380 . S
C596 C599 1.374 . S
C596 C602 1.507 . S
C597 C598 1.384 . S
C597 C601 1.387 . S
C597 H624 0.930 . S
C598 C596 1.380 . S
C598 C597 1.384 . S
C598 H625 0.931 . S
C599 C596 1.374 . S
C599 C600 1.390 . S
C599 H626 0.930 . S
C600 C599 1.390 . S
C600 C601 1.391 . S
C600 H627 0.930 . S
C601 C597 1.387 . S
C601 C600 1.391 . S
C602 Tb592 2.825 . S
C602 C596 1.507 . S
C602 O615 1.238 . S
C602 O616 1.247 . S
O603 Tb592 2.347 . S
O603 C607 1.259 . S
O604 Eu593 2.418 . S
O604 C607 1.265 . S
O605 Eu593 2.384 . S
O605 C614 1.255 . S
O606 Tb592 2.366 . S
O606 C614 1.265 . S
C607 O603 1.259 . S
C607 O604 1.265 . S
O608 Eu593 2.479 . S
O608 C623 1.238 . S
O609 Eu593 2.471 . S
O609 C623 1.247 . S
O610 Eu593 2.347 . S
O610 C594 1.259 . S
O611 Tb592 2.418 . S
O611 C594 1.265 . S
O612 Tb592 2.384 . S
O612 C595 1.255 . S
O613 Eu593 2.366 . S
O613 C595 1.265 . S
C614 O605 1.255 . S
C614 O606 1.265 . S
O615 Tb592 2.479 . S
O615 C602 1.238 . S
O616 Tb592 2.471 . S
O616 C602 1.247 . S
C617 C620 1.380 . S
C617 C621 1.374 . S
C617 C623 1.507 . S
C618 C619 1.387 . S
C618 C622 1.391 . S
C619 C618 1.387 . S
C619 C620 1.384 . S
C619 H628 0.930 . S
C620 C617 1.380 . S
C620 C619 1.384 . S
C620 H629 0.931 . S
C621 C617 1.374 . S
C621 C622 1.390 . S
C621 H630 0.930 . S
C622 C618 1.391 . S
C622 C621 1.390 . S
C622 H631 0.930 . S
C623 Eu593 2.825 . S
C623 O608 1.238 . S
C623 O609 1.247 . S
C623 C617 1.507 . S
H624 C597 0.930 . S
H625 C598 0.931 . S
H626 C599 0.930 . S
H627 C600 0.930 . S
H628 C619 0.930 . S
H629 C620 0.931 . S
H630 C621 0.930 . S
H631 C622 0.930 . S
Tb632 C642 2.825 . S
Tb632 O643 2.347 1_556 S
Tb632 O646 2.366 . S
Tb632 O651 2.418 . S
Tb632 O652 2.384 1_556 S
Tb632 O655 2.479 . S
Tb632 O656 2.471 . S
Eu633 O644 2.418 . S
Eu633 O645 2.384 . S
Eu633 O648 2.479 . S
Eu633 O649 2.471 . S
Eu633 O650 2.347 . S
Eu633 O653 2.366 . S
Eu633 C663 2.825 . S
C634 O650 1.259 . S
C634 O651 1.265 1_554 S
C635 O652 1.255 . S
C635 O653 1.265 . S
C636 C638 1.380 . S
C636 C639 1.374 . S
C636 C642 1.507 . S
C637 C638 1.384 . S
C637 C641 1.387 . S
C637 H664 0.930 . S
C638 C636 1.380 . S
C638 C637 1.384 . S
C638 H665 0.931 . S
C639 C636 1.374 . S
C639 C640 1.390 . S
C639 H666 0.930 . S
C640 C639 1.390 . S
C640 C641 1.391 . S
C640 H667 0.930 . S
C641 C637 1.387 . S
C641 C640 1.391 . S
C642 Tb632 2.825 . S
C642 C636 1.507 . S
C642 O655 1.238 . S
C642 O656 1.247 . S
O643 Tb632 2.347 1_554 S
O643 C647 1.259 . S
O644 Eu633 2.418 . S
O644 C647 1.265 . S
O645 Eu633 2.384 . S
O645 C654 1.255 1_554 S
O646 Tb632 2.366 . S
O646 C654 1.265 . S
C647 O643 1.259 . S
C647 O644 1.265 . S
O648 Eu633 2.479 . S
O648 C663 1.238 . S
O649 Eu633 2.471 . S
O649 C663 1.247 . S
O650 Eu633 2.347 . S
O650 C634 1.259 . S
O651 Tb632 2.418 . S
O651 C634 1.265 1_556 S
O652 Tb632 2.384 1_554 S
O652 C635 1.255 . S
O653 Eu633 2.366 . S
O653 C635 1.265 . S
C654 O645 1.255 1_556 S
C654 O646 1.265 . S
O655 Tb632 2.479 . S
O655 C642 1.238 . S
O656 Tb632 2.471 . S
O656 C642 1.247 . S
C657 C660 1.380 . S
C657 C661 1.374 . S
C657 C663 1.507 . S
C658 C659 1.387 . S
C658 C662 1.391 . S
C659 C658 1.387 . S
C659 C660 1.384 . S
C659 H668 0.930 . S
C660 C657 1.380 . S
C660 C659 1.384 . S
C660 H669 0.931 . S
C661 C657 1.374 . S
C661 C662 1.390 . S
C661 H670 0.930 . S
C662 C658 1.391 . S
C662 C661 1.390 . S
C662 H671 0.930 . S
C663 Eu633 2.825 . S
C663 O648 1.238 . S
C663 O649 1.247 . S
C663 C657 1.507 . S
H664 C637 0.930 . S
H665 C638 0.931 . S
H666 C639 0.930 . S
H667 C640 0.930 . S
H668 C659 0.930 . S
H669 C660 0.931 . S
H670 C661 0.930 . S
H671 C662 0.930 . S
Tb672 C682 2.825 . S
Tb672 O683 2.347 . S
Tb672 O686 2.366 . S
Tb672 O691 2.418 . S
Tb672 O692 2.384 . S
Tb672 O695 2.479 . S
Tb672 O696 2.471 . S
Eu673 O684 2.418 . S
Eu673 O685 2.384 . S
Eu673 O688 2.479 . S
Eu673 O689 2.471 . S
Eu673 O690 2.347 . S
Eu673 O693 2.366 . S
Eu673 C703 2.825 . S
C674 O690 1.259 . S
C674 O691 1.265 . S
C675 O692 1.255 . S
C675 O693 1.265 . S
C676 C678 1.380 . S
C676 C679 1.374 . S
C676 C682 1.507 . S
C677 C678 1.384 . S
C677 C681 1.387 . S
C677 H704 0.930 . S
C678 C676 1.380 . S
C678 C677 1.384 . S
C678 H705 0.931 . S
C679 C676 1.374 . S
C679 C680 1.390 . S
C679 H706 0.930 . S
C680 C679 1.390 . S
C680 C681 1.391 . S
C680 H707 0.930 . S
C681 C677 1.387 . S
C681 C680 1.391 . S
C682 Tb672 2.825 . S
C682 C676 1.507 . S
C682 O695 1.238 . S
C682 O696 1.247 . S
O683 Tb672 2.347 . S
O683 C687 1.259 . S
O684 Eu673 2.418 . S
O684 C687 1.265 . S
O685 Eu673 2.384 . S
O685 C694 1.255 . S
O686 Tb672 2.366 . S
O686 C694 1.265 . S
C687 O683 1.259 . S
C687 O684 1.265 . S
O688 Eu673 2.479 . S
O688 C703 1.238 . S
O689 Eu673 2.471 . S
O689 C703 1.247 . S
O690 Eu673 2.347 . S
O690 C674 1.259 . S
O691 Tb672 2.418 . S
O691 C674 1.265 . S
O692 Tb672 2.384 . S
O692 C675 1.255 . S
O693 Eu673 2.366 . S
O693 C675 1.265 . S
C694 O685 1.255 . S
C694 O686 1.265 . S
O695 Tb672 2.479 . S
O695 C682 1.238 . S
O696 Tb672 2.471 . S
O696 C682 1.247 . S
C697 C700 1.380 . S
C697 C701 1.374 . S
C697 C703 1.507 . S
C698 C699 1.387 . S
C698 C702 1.391 . S
C699 C698 1.387 . S
C699 C700 1.384 . S
C699 H708 0.930 . S
C700 C697 1.380 . S
C700 C699 1.384 . S
C700 H709 0.931 . S
C701 C697 1.374 . S
C701 C702 1.390 . S
C701 H710 0.930 . S
C702 C698 1.391 . S
C702 C701 1.390 . S
C702 H711 0.930 . S
C703 Eu673 2.825 . S
C703 O688 1.238 . S
C703 O689 1.247 . S
C703 C697 1.507 . S
H704 C677 0.930 . S
H705 C678 0.931 . S
H706 C679 0.930 . S
H707 C680 0.930 . S
H708 C699 0.930 . S
H709 C700 0.931 . S
H710 C701 0.930 . S
H711 C702 0.930 . S
Tb712 C722 2.825 . S
Tb712 O723 2.347 . S
Tb712 O726 2.366 . S
Tb712 O731 2.418 . S
Tb712 O732 2.384 . S
Tb712 O735 2.479 . S
Tb712 O736 2.471 . S
Eu713 O724 2.418 . S
Eu713 O725 2.384 1_455 S
Eu713 O728 2.479 . S
Eu713 O729 2.471 . S
Eu713 O730 2.347 . S
Eu713 O733 2.366 . S
Eu713 C743 2.825 . S
C714 O730 1.259 . S
C714 O731 1.265 . S
C715 O732 1.255 . S
C715 O733 1.265 . S
C716 C718 1.380 . S
C716 C719 1.374 . S
C716 C722 1.507 . S
C717 C718 1.384 . S
C717 C721 1.387 . S
C717 H744 0.930 . S
C718 C716 1.380 . S
C718 C717 1.384 . S
C718 H745 0.931 . S
C719 C716 1.374 . S
C719 C720 1.390 1_455 S
C719 H746 0.930 . S
C720 C719 1.390 1_655 S
C720 C721 1.391 1_655 S
C720 H747 0.930 . S
C721 C717 1.387 . S
C721 C720 1.391 1_455 S
C722 Tb712 2.825 . S
C722 C716 1.507 . S
C722 O735 1.238 . S
C722 O736 1.247 . S
O723 Tb712 2.347 . S
O723 C727 1.259 . S
O724 Eu713 2.418 . S
O724 C727 1.265 . S
O725 Eu713 2.384 1_655 S
O725 C734 1.255 . S
O726 Tb712 2.366 . S
O726 C734 1.265 1_455 S
C727 O723 1.259 . S
C727 O724 1.265 . S
O728 Eu713 2.479 . S
O728 C743 1.238 . S
O729 Eu713 2.471 . S
O729 C743 1.247 . S
O730 Eu713 2.347 . S
O730 C714 1.259 . S
O731 Tb712 2.418 . S
O731 C714 1.265 . S
O732 Tb712 2.384 . S
O732 C715 1.255 . S
O733 Eu713 2.366 . S
O733 C715 1.265 . S
C734 O725 1.255 . S
C734 O726 1.265 1_655 S
O735 Tb712 2.479 . S
O735 C722 1.238 . S
O736 Tb712 2.471 . S
O736 C722 1.247 . S
C737 C740 1.380 . S
C737 C741 1.374 . S
C737 C743 1.507 . S
C738 C739 1.387 . S
C738 C742 1.391 . S
C739 C738 1.387 . S
C739 C740 1.384 . S
C739 H748 0.930 . S
C740 C737 1.380 . S
C740 C739 1.384 . S
C740 H749 0.931 . S
C741 C737 1.374 . S
C741 C742 1.390 . S
C741 H750 0.930 . S
C742 C738 1.391 . S
C742 C741 1.390 . S
C742 H751 0.930 . S
C743 Eu713 2.825 . S
C743 O728 1.238 . S
C743 O729 1.247 . S
C743 C737 1.507 . S
H744 C717 0.930 . S
H745 C718 0.931 . S
H746 C719 0.930 . S
H747 C720 0.930 . S
H748 C739 0.930 . S
H749 C740 0.931 . S
H750 C741 0.930 . S
H751 C742 0.930 . S
Tb752 C762 2.825 . S
Tb752 O763 2.347 . S
Tb752 O766 2.366 . S
Tb752 O771 2.418 . S
Tb752 O772 2.384 . S
Tb752 O775 2.479 . S
Tb752 O776 2.471 . S
Eu753 O764 2.418 . S
Eu753 O765 2.384 . S
Eu753 O768 2.479 . S
Eu753 O769 2.471 . S
Eu753 O770 2.347 . S
Eu753 O773 2.366 . S
Eu753 C783 2.825 . S
C754 O770 1.259 . S
C754 O771 1.265 . S
C755 O772 1.255 . S
C755 O773 1.265 . S
C756 C758 1.380 . S
C756 C759 1.374 . S
C756 C762 1.507 . S
C757 C758 1.384 . S
C757 C761 1.387 . S
C757 H784 0.930 . S
C758 C756 1.380 . S
C758 C757 1.384 . S
C758 H785 0.931 . S
C759 C756 1.374 . S
C759 C760 1.390 . S
C759 H786 0.930 . S
C760 C759 1.390 . S
C760 C761 1.391 . S
C760 H787 0.930 . S
C761 C757 1.387 . S
C761 C760 1.391 . S
C762 Tb752 2.825 . S
C762 C756 1.507 . S
C762 O775 1.238 . S
C762 O776 1.247 . S
O763 Tb752 2.347 . S
O763 C767 1.259 . S
O764 Eu753 2.418 . S
O764 C767 1.265 . S
O765 Eu753 2.384 . S
O765 C774 1.255 . S
O766 Tb752 2.366 . S
O766 C774 1.265 . S
C767 O763 1.259 . S
C767 O764 1.265 . S
O768 Eu753 2.479 . S
O768 C783 1.238 . S
O769 Eu753 2.471 . S
O769 C783 1.247 . S
O770 Eu753 2.347 . S
O770 C754 1.259 . S
O771 Tb752 2.418 . S
O771 C754 1.265 . S
O772 Tb752 2.384 . S
O772 C755 1.255 . S
O773 Eu753 2.366 . S
O773 C755 1.265 . S
C774 O765 1.255 . S
C774 O766 1.265 . S
O775 Tb752 2.479 . S
O775 C762 1.238 . S
O776 Tb752 2.471 . S
O776 C762 1.247 . S
C777 C780 1.380 . S
C777 C781 1.374 . S
C777 C783 1.507 . S
C778 C779 1.387 . S
C778 C782 1.391 . S
C779 C778 1.387 . S
C779 C780 1.384 . S
C779 H788 0.930 . S
C780 C777 1.380 . S
C780 C779 1.384 . S
C780 H789 0.931 . S
C781 C777 1.374 . S
C781 C782 1.390 . S
C781 H790 0.930 . S
C782 C778 1.391 . S
C782 C781 1.390 . S
C782 H791 0.930 . S
C783 Eu753 2.825 . S
C783 O768 1.238 . S
C783 O769 1.247 . S
C783 C777 1.507 . S
H784 C757 0.930 . S
H785 C758 0.931 . S
H786 C759 0.930 . S
H787 C760 0.930 . S
H788 C779 0.930 . S
H789 C780 0.931 . S
H790 C781 0.930 . S
H791 C782 0.930 . S
Tb792 C802 2.825 . S
Tb792 O803 2.347 . S
Tb792 O806 2.366 . S
Tb792 O811 2.418 . S
Tb792 O812 2.384 . S
Tb792 O815 2.479 . S
Tb792 O816 2.471 . S
Eu793 O804 2.418 . S
Eu793 O805 2.384 . S
Eu793 O808 2.479 . S
Eu793 O809 2.471 . S
Eu793 O810 2.347 . S
Eu793 O813 2.366 . S
Eu793 C823 2.825 . S
C794 O810 1.259 . S
C794 O811 1.265 . S
C795 O812 1.255 . S
C795 O813 1.265 . S
C796 C798 1.380 . S
C796 C799 1.374 . S
C796 C802 1.507 . S
C797 C798 1.384 . S
C797 C801 1.387 . S
C797 H824 0.930 . S
C798 C796 1.380 . S
C798 C797 1.384 . S
C798 H825 0.931 . S
C799 C796 1.374 . S
C799 C800 1.390 . S
C799 H826 0.930 . S
C800 C799 1.390 . S
C800 C801 1.391 . S
C800 H827 0.930 . S
C801 C797 1.387 . S
C801 C800 1.391 . S
C802 Tb792 2.825 . S
C802 C796 1.507 . S
C802 O815 1.238 . S
C802 O816 1.247 . S
O803 Tb792 2.347 . S
O803 C807 1.259 . S
O804 Eu793 2.418 . S
O804 C807 1.265 . S
O805 Eu793 2.384 . S
O805 C814 1.255 . S
O806 Tb792 2.366 . S
O806 C814 1.265 . S
C807 O803 1.259 . S
C807 O804 1.265 . S
O808 Eu793 2.479 . S
O808 C823 1.238 . S
O809 Eu793 2.471 . S
O809 C823 1.247 . S
O810 Eu793 2.347 . S
O810 C794 1.259 . S
O811 Tb792 2.418 . S
O811 C794 1.265 . S
O812 Tb792 2.384 . S
O812 C795 1.255 . S
O813 Eu793 2.366 . S
O813 C795 1.265 . S
C814 O805 1.255 . S
C814 O806 1.265 . S
O815 Tb792 2.479 . S
O815 C802 1.238 . S
O816 Tb792 2.471 . S
O816 C802 1.247 . S
C817 C820 1.380 . S
C817 C821 1.374 . S
C817 C823 1.507 . S
C818 C819 1.387 . S
C818 C822 1.391 . S
C819 C818 1.387 . S
C819 C820 1.384 . S
C819 H828 0.930 . S
C820 C817 1.380 . S
C820 C819 1.384 . S
C820 H829 0.931 . S
C821 C817 1.374 . S
C821 C822 1.390 . S
C821 H830 0.930 . S
C822 C818 1.391 . S
C822 C821 1.390 . S
C822 H831 0.930 . S
C823 Eu793 2.825 . S
C823 O808 1.238 . S
C823 O809 1.247 . S
C823 C817 1.507 . S
H824 C797 0.930 . S
H825 C798 0.931 . S
H826 C799 0.930 . S
H827 C800 0.930 . S
H828 C819 0.930 . S
H829 C820 0.931 . S
H830 C821 0.930 . S
H831 C822 0.930 . S
Tb832 C842 2.825 . S
Tb832 O843 2.347 . S
Tb832 O846 2.366 . S
Tb832 O851 2.418 . S
Tb832 O852 2.384 . S
Tb832 O855 2.479 . S
Tb832 O856 2.471 . S
Eu833 O844 2.418 . S
Eu833 O845 2.384 . S
Eu833 O848 2.479 . S
Eu833 O849 2.471 . S
Eu833 O850 2.347 . S
Eu833 O853 2.366 . S
Eu833 C863 2.825 . S
C834 O850 1.259 . S
C834 O851 1.265 . S
C835 O852 1.255 . S
C835 O853 1.265 . S
C836 C838 1.380 . S
C836 C839 1.374 . S
C836 C842 1.507 . S
C837 C838 1.384 . S
C837 C841 1.387 . S
C837 H864 0.930 . S
C838 C836 1.380 . S
C838 C837 1.384 . S
C838 H865 0.931 . S
C839 C836 1.374 . S
C839 C840 1.390 . S
C839 H866 0.930 . S
C840 C839 1.390 . S
C840 C841 1.391 . S
C840 H867 0.930 . S
C841 C837 1.387 . S
C841 C840 1.391 . S
C842 Tb832 2.825 . S
C842 C836 1.507 . S
C842 O855 1.238 . S
C842 O856 1.247 . S
O843 Tb832 2.347 . S
O843 C847 1.259 . S
O844 Eu833 2.418 . S
O844 C847 1.265 . S
O845 Eu833 2.384 . S
O845 C854 1.255 . S
O846 Tb832 2.366 . S
O846 C854 1.265 . S
C847 O843 1.259 . S
C847 O844 1.265 . S
O848 Eu833 2.479 . S
O848 C863 1.238 . S
O849 Eu833 2.471 . S
O849 C863 1.247 . S
O850 Eu833 2.347 . S
O850 C834 1.259 . S
O851 Tb832 2.418 . S
O851 C834 1.265 . S
O852 Tb832 2.384 . S
O852 C835 1.255 . S
O853 Eu833 2.366 . S
O853 C835 1.265 . S
C854 O845 1.255 . S
C854 O846 1.265 . S
O855 Tb832 2.479 . S
O855 C842 1.238 . S
O856 Tb832 2.471 . S
O856 C842 1.247 . S
C857 C860 1.380 . S
C857 C861 1.374 . S
C857 C863 1.507 . S
C858 C859 1.387 . S
C858 C862 1.391 . S
C859 C858 1.387 . S
C859 C860 1.384 . S
C859 H868 0.930 . S
C860 C857 1.380 . S
C860 C859 1.384 . S
C860 H869 0.931 . S
C861 C857 1.374 . S
C861 C862 1.390 . S
C861 H870 0.930 . S
C862 C858 1.391 . S
C862 C861 1.390 . S
C862 H871 0.930 . S
C863 Eu833 2.825 . S
C863 O848 1.238 . S
C863 O849 1.247 . S
C863 C857 1.507 . S
H864 C837 0.930 . S
H865 C838 0.931 . S
H866 C839 0.930 . S
H867 C840 0.930 . S
H868 C859 0.930 . S
H869 C860 0.931 . S
H870 C861 0.930 . S
H871 C862 0.930 . S
Tb872 C882 2.825 . S
Tb872 O883 2.347 . S
Tb872 O886 2.366 . S
Tb872 O891 2.418 . S
Tb872 O892 2.384 . S
Tb872 O895 2.479 . S
Tb872 O896 2.471 . S
Eu873 O884 2.418 . S
Eu873 O885 2.384 . S
Eu873 O888 2.479 . S
Eu873 O889 2.471 . S
Eu873 O890 2.347 . S
Eu873 O893 2.366 . S
Eu873 C903 2.825 . S
C874 O890 1.259 . S
C874 O891 1.265 . S
C875 O892 1.255 . S
C875 O893 1.265 . S
C876 C878 1.380 . S
C876 C879 1.374 . S
C876 C882 1.507 . S
C877 C878 1.384 . S
C877 C881 1.387 . S
C877 H904 0.930 . S
C878 C876 1.380 . S
C878 C877 1.384 . S
C878 H905 0.931 . S
C879 C876 1.374 . S
C879 C880 1.390 . S
C879 H906 0.930 . S
C880 C879 1.390 . S
C880 C881 1.391 . S
C880 H907 0.930 . S
C881 C877 1.387 . S
C881 C880 1.391 . S
C882 Tb872 2.825 . S
C882 C876 1.507 . S
C882 O895 1.238 . S
C882 O896 1.247 . S
O883 Tb872 2.347 . S
O883 C887 1.259 . S
O884 Eu873 2.418 . S
O884 C887 1.265 . S
O885 Eu873 2.384 . S
O885 C894 1.255 . S
O886 Tb872 2.366 . S
O886 C894 1.265 . S
C887 O883 1.259 . S
C887 O884 1.265 . S
O888 Eu873 2.479 . S
O888 C903 1.238 . S
O889 Eu873 2.471 . S
O889 C903 1.247 . S
O890 Eu873 2.347 . S
O890 C874 1.259 . S
O891 Tb872 2.418 . S
O891 C874 1.265 . S
O892 Tb872 2.384 . S
O892 C875 1.255 . S
O893 Eu873 2.366 . S
O893 C875 1.265 . S
C894 O885 1.255 . S
C894 O886 1.265 . S
O895 Tb872 2.479 . S
O895 C882 1.238 . S
O896 Tb872 2.471 . S
O896 C882 1.247 . S
C897 C900 1.380 . S
C897 C901 1.374 . S
C897 C903 1.507 . S
C898 C899 1.387 . S
C898 C902 1.391 . S
C899 C898 1.387 . S
C899 C900 1.384 . S
C899 H908 0.930 . S
C900 C897 1.380 . S
C900 C899 1.384 . S
C900 H909 0.931 . S
C901 C897 1.374 . S
C901 C902 1.390 . S
C901 H910 0.930 . S
C902 C898 1.391 . S
C902 C901 1.390 . S
C902 H911 0.930 . S
C903 Eu873 2.825 . S
C903 O888 1.238 . S
C903 O889 1.247 . S
C903 C897 1.507 . S
H904 C877 0.930 . S
H905 C878 0.931 . S
H906 C879 0.930 . S
H907 C880 0.930 . S
H908 C899 0.930 . S
H909 C900 0.931 . S
H910 C901 0.930 . S
H911 C902 0.930 . S
Tb912 C922 2.825 . S
Tb912 O923 2.347 . S
Tb912 O926 2.366 . S
Tb912 O931 2.418 . S
Tb912 O932 2.384 1_455 S
Tb912 O935 2.479 . S
Tb912 O936 2.471 1_554 S
Eu913 O924 2.418 1_554 S
Eu913 O925 2.384 . S
Eu913 O928 2.479 . S
Eu913 O929 2.471 . S
Eu913 O930 2.347 . S
Eu913 O933 2.366 . S
Eu913 C943 2.825 . S
C914 O930 1.259 . S
C914 O931 1.265 . S
C915 O932 1.256 . S
C915 O933 1.242 1_655 S
C916 C918 1.403 . S
C916 C919 1.338 1_554 S
C916 C922 1.520 . S
C917 C918 1.384 . S
C917 C921 1.387 1_554 S
C917 H944 0.930 . S
C918 C916 1.403 . S
C918 C917 1.384 . S
C918 H945 0.931 . S
C919 C916 1.338 1_556 S
C919 C920 1.390 . S
C919 H946 0.930 . S
C920 C919 1.390 . S
C920 C921 1.391 . S
C920 H947 0.930 . S
C921 C917 1.387 1_556 S
C921 C920 1.391 . S
C922 Tb912 2.825 . S
C922 C916 1.520 . S
C922 O935 1.238 . S
C922 O936 1.247 1_554 S
O923 Tb912 2.347 . S
O923 C927 1.259 1_554 S
O924 Eu913 2.418 1_556 S
O924 C927 1.265 . S
O925 Eu913 2.384 . S
O925 C934 1.255 . S
O926 Tb912 2.366 . S
O926 C934 1.265 . S
C927 O923 1.259 1_556 S
C927 O924 1.265 . S
O928 Eu913 2.479 . S
O928 C943 1.238 . S
O929 Eu913 2.471 . S
O929 C943 1.247 . S
O930 Eu913 2.347 . S
O930 C914 1.259 . S
O931 Tb912 2.418 . S
O931 C914 1.265 . S
O932 Tb912 2.384 1_655 S
O932 C915 1.256 . S
O933 Eu913 2.366 . S
O933 C915 1.242 1_455 S
C934 O925 1.255 . S
C934 O926 1.265 . S
O935 Tb912 2.479 . S
O935 C922 1.238 . S
O936 Tb912 2.471 1_556 S
O936 C922 1.247 1_556 S
C937 C940 1.380 . S
C937 C941 1.374 . S
C937 C943 1.507 . S
C938 C939 1.387 . S
C938 C942 1.391 . S
C939 C938 1.387 . S
C939 C940 1.384 . S
C939 H948 0.930 . S
C940 C937 1.380 . S
C940 C939 1.384 . S
C940 H949 0.931 . S
C941 C937 1.374 . S
C941 C942 1.390 . S
C941 H950 0.930 . S
C942 C938 1.391 . S
C942 C941 1.390 . S
C942 H951 0.930 . S
C943 Eu913 2.825 . S
C943 O928 1.238 . S
C943 O929 1.247 . S
C943 C937 1.507 . S
H944 C917 0.930 . S
H945 C918 0.931 . S
H946 C919 0.930 . S
H947 C920 0.930 . S
H948 C939 0.930 . S
H949 C940 0.931 . S
H950 C941 0.930 . S
H951 C942 0.930 . S
H952 C960 0.950 . S
H953 C965 0.950 . S
H954 C962 0.950 . S
H955 C964 0.950 . S
H956 C966 0.950 . S
H957 C968 0.950 . S
H958 C970 0.950 . S
H959 C971 0.950 . S
C960 H952 0.950 . S
C960 C961 1.386 . S
C960 C962 1.391 . S
C961 C960 1.386 . S
C961 C965 1.393 . S
C962 H954 0.950 . S
C962 C960 1.391 . S
C962 C963 1.400 . S
C963 C962 1.400 . S
C963 C964 1.398 . S
C963 C969 1.491 . S
C964 H955 0.950 . S
C964 C963 1.398 . S
C964 C965 1.391 . S
C965 H953 0.950 . S
C965 C961 1.393 . S
C965 C964 1.391 . S
C966 H956 0.950 . S
C966 C967 1.386 . S
C966 C968 1.391 . S
C967 C966 1.386 . S
C967 C971 1.393 1_554 S
C968 H957 0.950 . S
C968 C966 1.391 . S
C968 C969 1.400 1_554 S
C969 C963 1.491 . S
C969 C968 1.400 1_556 S
C969 C970 1.398 . S
C970 H958 0.950 . S
C970 C969 1.398 . S
C970 C971 1.391 . S
C971 H959 0.950 . S
C971 C967 1.393 1_556 S
C971 C970 1.391 . S
H972 C980 0.950 . S
H973 C985 0.950 . S
H974 C982 0.950 . S
H975 C984 0.950 . S
H976 C986 0.950 . S
H977 C988 0.950 . S
H978 C990 0.950 . S
H979 C991 0.950 . S
C980 H972 0.950 . S
C980 C981 1.386 . S
C980 C982 1.391 . S
C981 C980 1.386 . S
C981 C985 1.393 . S
C982 H974 0.950 . S
C982 C980 1.391 . S
C982 C983 1.400 . S
C983 C982 1.400 . S
C983 C984 1.398 . S
C983 C989 1.491 . S
C984 H975 0.950 . S
C984 C983 1.398 . S
C984 C985 1.391 . S
C985 H973 0.950 . S
C985 C981 1.393 . S
C985 C984 1.391 . S
C986 H976 0.950 . S
C986 C987 1.386 . S
C986 C988 1.391 . S
C987 C986 1.386 . S
C987 C991 1.393 . S
C988 H977 0.950 . S
C988 C986 1.391 . S
C988 C989 1.400 . S
C989 C983 1.491 . S
C989 C988 1.400 . S
C989 C990 1.398 . S
C990 H978 0.950 . S
C990 C989 1.398 . S
C990 C991 1.391 . S
C991 H979 0.950 . S
C991 C987 1.393 . S
C991 C990 1.391 . S
H992 C1000 0.950 . S
H993 C1005 0.950 . S
H994 C1002 0.950 . S
H995 C1004 0.950 . S
H996 C1006 0.950 . S
H997 C1008 0.950 . S
H998 C1010 0.950 . S
H999 C1011 0.950 . S
C1000 H992 0.950 . S
C1000 C1001 1.386 . S
C1000 C1002 1.391 . S
C1001 C1000 1.386 . S
C1001 C1005 1.393 . S
C1002 H994 0.950 . S
C1002 C1000 1.391 . S
C1002 C1003 1.400 . S
C1003 C1002 1.400 . S
C1003 C1004 1.398 . S
C1003 C1009 1.491 . S
C1004 H995 0.950 . S
C1004 C1003 1.398 . S
C1004 C1005 1.391 . S
C1005 H993 0.950 . S
C1005 C1001 1.393 . S
C1005 C1004 1.391 . S
C1006 H996 0.950 . S
C1006 C1007 1.386 . S
C1006 C1008 1.391 . S
C1007 C1006 1.386 . S
C1007 C1011 1.393 . S
C1008 H997 0.950 . S
C1008 C1006 1.391 . S
C1008 C1009 1.400 . S
C1009 C1003 1.491 . S
C1009 C1008 1.400 . S
C1009 C1010 1.398 . S
C1010 H998 0.950 . S
C1010 C1009 1.398 . S
C1010 C1011 1.391 . S
C1011 H999 0.950 . S
C1011 C1007 1.393 . S
C1011 C1010 1.391 . S
H1012 C1020 0.950 . S
H1013 C1025 0.950 . S
H1014 C1022 0.950 . S
H1015 C1024 0.950 . S
H1016 C1026 0.950 . S
H1017 C1028 0.950 . S
H1018 C1030 0.950 . S
H1019 C1031 0.950 . S
C1020 H1012 0.950 . S
C1020 C1021 1.386 . S
C1020 C1022 1.391 . S
C1021 C1020 1.386 . S
C1021 C1025 1.393 . S
C1022 H1014 0.950 . S
C1022 C1020 1.391 . S
C1022 C1023 1.400 . S
C1023 C1022 1.400 . S
C1023 C1024 1.398 . S
C1023 C1029 1.491 . S
C1024 H1015 0.950 . S
C1024 C1023 1.398 . S
C1024 C1025 1.391 . S
C1025 H1013 0.950 . S
C1025 C1021 1.393 . S
C1025 C1024 1.391 . S
C1026 H1016 0.950 . S
C1026 C1027 1.386 . S
C1026 C1028 1.391 . S
C1027 C1026 1.386 . S
C1027 C1031 1.393 . S
C1028 H1017 0.950 . S
C1028 C1026 1.391 . S
C1028 C1029 1.400 . S
C1029 C1023 1.491 . S
C1029 C1028 1.400 . S
C1029 C1030 1.398 . S
C1030 H1018 0.950 . S
C1030 C1029 1.398 . S
C1030 C1031 1.391 . S
C1031 H1019 0.950 . S
C1031 C1027 1.393 . S
C1031 C1030 1.391 . S
H1032 C1040 0.950 . S
H1033 C1045 0.950 . S
H1034 C1042 0.950 . S
H1035 C1044 0.950 . S
H1036 C1046 0.950 . S
H1037 C1048 0.950 . S
H1038 C1050 0.950 . S
H1039 C1051 0.950 . S
C1040 H1032 0.950 . S
C1040 C1041 1.386 . S
C1040 C1042 1.391 . S
C1041 C1040 1.386 . S
C1041 C1045 1.393 . S
C1042 H1034 0.950 . S
C1042 C1040 1.391 . S
C1042 C1043 1.400 . S
C1043 C1042 1.400 . S
C1043 C1044 1.398 . S
C1043 C1049 1.491 . S
C1044 H1035 0.950 . S
C1044 C1043 1.398 . S
C1044 C1045 1.391 . S
C1045 H1033 0.950 . S
C1045 C1041 1.393 . S
C1045 C1044 1.391 . S
C1046 H1036 0.950 . S
C1046 C1047 1.386 . S
C1046 C1048 1.391 . S
C1047 C1046 1.386 . S
C1047 C1051 1.393 . S
C1048 H1037 0.950 . S
C1048 C1046 1.391 . S
C1048 C1049 1.400 . S
C1049 C1043 1.491 . S
C1049 C1048 1.400 . S
C1049 C1050 1.398 . S
C1050 H1038 0.950 . S
C1050 C1049 1.398 . S
C1050 C1051 1.391 . S
C1051 H1039 0.950 . S
C1051 C1047 1.393 . S
C1051 C1050 1.391 . S
H1052 C1060 0.950 . S
H1053 C1065 0.950 . S
H1054 C1062 0.950 . S
H1055 C1064 0.950 . S
H1056 C1066 0.950 . S
H1057 C1068 0.950 . S
H1058 C1070 0.950 . S
H1059 C1071 0.950 . S
C1060 H1052 0.950 . S
C1060 C1061 1.386 . S
C1060 C1062 1.391 . S
C1061 C1060 1.386 . S
C1061 C1065 1.393 . S
C1062 H1054 0.950 . S
C1062 C1060 1.391 . S
C1062 C1063 1.400 . S
C1063 C1062 1.400 . S
C1063 C1064 1.398 . S
C1063 C1069 1.491 . S
C1064 H1055 0.950 . S
C1064 C1063 1.398 . S
C1064 C1065 1.391 . S
C1065 H1053 0.950 . S
C1065 C1061 1.393 . S
C1065 C1064 1.391 . S
C1066 H1056 0.950 . S
C1066 C1067 1.386 . S
C1066 C1068 1.391 . S
C1067 C1066 1.386 . S
C1067 C1071 1.393 . S
C1068 H1057 0.950 . S
C1068 C1066 1.391 . S
C1068 C1069 1.400 . S
C1069 C1063 1.491 . S
C1069 C1068 1.400 . S
C1069 C1070 1.398 . S
C1070 H1058 0.950 . S
C1070 C1069 1.398 . S
C1070 C1071 1.391 . S
C1071 H1059 0.950 . S
C1071 C1067 1.393 . S
C1071 C1070 1.391 . S
H1072 C1080 0.950 . S
H1073 C1085 0.950 . S
H1074 C1082 0.950 . S
H1075 C1084 0.950 . S
H1076 C1086 0.950 . S
H1077 C1088 0.950 . S
H1078 C1090 0.950 . S
H1079 C1091 0.950 . S
C1080 H1072 0.950 . S
C1080 C1081 1.386 . S
C1080 C1082 1.391 . S
C1081 C1080 1.386 . S
C1081 C1085 1.393 . S
C1082 H1074 0.950 . S
C1082 C1080 1.391 . S
C1082 C1083 1.400 . S
C1083 C1082 1.400 . S
C1083 C1084 1.398 . S
C1083 C1089 1.491 . S
C1084 H1075 0.950 . S
C1084 C1083 1.398 . S
C1084 C1085 1.391 . S
C1085 H1073 0.950 . S
C1085 C1081 1.393 . S
C1085 C1084 1.391 . S
C1086 H1076 0.950 . S
C1086 C1087 1.386 . S
C1086 C1088 1.391 . S
C1087 C1086 1.386 . S
C1087 C1091 1.393 . S
C1088 H1077 0.950 . S
C1088 C1086 1.391 . S
C1088 C1089 1.400 . S
C1089 C1083 1.491 . S
C1089 C1088 1.400 . S
C1089 C1090 1.398 . S
C1090 H1078 0.950 . S
C1090 C1089 1.398 . S
C1090 C1091 1.391 . S
C1091 H1079 0.950 . S
C1091 C1087 1.393 . S
C1091 C1090 1.391 . S
H1092 C1100 0.950 . S
H1093 C1105 0.950 . S
H1094 C1102 0.950 . S
H1095 C1104 0.950 . S
H1096 C1106 0.950 . S
H1097 C1108 0.950 . S
H1098 C1110 0.950 . S
H1099 C1111 0.950 . S
C1100 H1092 0.950 . S
C1100 C1101 1.386 . S
C1100 C1102 1.391 . S
C1101 C1100 1.386 . S
C1101 C1105 1.393 . S
C1102 H1094 0.950 . S
C1102 C1100 1.391 . S
C1102 C1103 1.400 . S
C1103 C1102 1.400 . S
C1103 C1104 1.398 . S
C1103 C1109 1.491 . S
C1104 H1095 0.950 . S
C1104 C1103 1.398 . S
C1104 C1105 1.391 . S
C1105 H1093 0.950 . S
C1105 C1101 1.393 . S
C1105 C1104 1.391 . S
C1106 H1096 0.950 . S
C1106 C1107 1.386 . S
C1106 C1108 1.391 . S
C1107 C1106 1.386 . S
C1107 C1111 1.393 . S
C1108 H1097 0.950 . S
C1108 C1106 1.391 . S
C1108 C1109 1.400 . S
C1109 C1103 1.491 . S
C1109 C1108 1.400 . S
C1109 C1110 1.398 . S
C1110 H1098 0.950 . S
C1110 C1109 1.398 . S
C1110 C1111 1.391 . S
C1111 H1099 0.950 . S
C1111 C1107 1.393 . S
C1111 C1110 1.391 . S
H1112 C1120 0.950 . S
H1113 C1125 0.950 1_565 S
H1114 C1122 0.950 . S
H1115 C1124 0.950 . S
H1116 C1126 0.950 . S
H1117 C1128 0.950 . S
H1118 C1130 0.950 . S
H1119 C1131 0.950 . S
C1120 H1112 0.950 . S
C1120 C1121 1.386 . S
C1120 C1122 1.391 . S
C1121 C1120 1.386 . S
C1121 C1125 1.393 . S
C1122 H1114 0.950 . S
C1122 C1120 1.391 . S
C1122 C1123 1.400 . S
C1123 C1122 1.400 . S
C1123 C1124 1.398 . S
C1123 C1129 1.491 . S
C1124 H1115 0.950 . S
C1124 C1123 1.398 . S
C1124 C1125 1.391 . S
C1125 H1113 0.950 1_545 S
C1125 C1121 1.393 . S
C1125 C1124 1.391 . S
C1126 H1116 0.950 . S
C1126 C1127 1.386 . S
C1126 C1128 1.391 1_455 S
C1127 C1126 1.386 . S
C1127 C1131 1.393 . S
C1128 H1117 0.950 . S
C1128 C1126 1.391 1_655 S
C1128 C1129 1.400 . S
C1129 C1123 1.491 . S
C1129 C1128 1.400 . S
C1129 C1130 1.398 1_655 S
C1130 H1118 0.950 . S
C1130 C1129 1.398 1_455 S
C1130 C1131 1.391 . S
C1131 H1119 0.950 . S
C1131 C1127 1.393 . S
C1131 C1130 1.391 . S
H1132 C1140 0.950 . S
H1133 C1145 0.950 . S
H1134 C1142 0.950 . S
H1135 C1144 0.950 . S
H1136 C1146 0.950 . S
H1137 C1148 0.950 . S
H1138 C1150 0.950 . S
H1139 C1151 0.950 . S
C1140 H1132 0.950 . S
C1140 C1141 1.386 . S
C1140 C1142 1.391 . S
C1141 C1140 1.386 . S
C1141 C1145 1.393 . S
C1142 H1134 0.950 . S
C1142 C1140 1.391 . S
C1142 C1143 1.400 . S
C1143 C1142 1.400 . S
C1143 C1144 1.398 . S
C1143 C1149 1.491 . S
C1144 H1135 0.950 . S
C1144 C1143 1.398 . S
C1144 C1145 1.391 . S
C1145 H1133 0.950 . S
C1145 C1141 1.393 . S
C1145 C1144 1.391 . S
C1146 H1136 0.950 . S
C1146 C1147 1.386 . S
C1146 C1148 1.391 . S
C1147 C1146 1.386 . S
C1147 C1151 1.393 . S
C1148 H1137 0.950 . S
C1148 C1146 1.391 . S
C1148 C1149 1.400 . S
C1149 C1143 1.491 . S
C1149 C1148 1.400 . S
C1149 C1150 1.398 . S
C1150 H1138 0.950 . S
C1150 C1149 1.398 . S
C1150 C1151 1.391 . S
C1151 H1139 0.950 . S
C1151 C1147 1.393 . S
C1151 C1150 1.391 . S
H1152 C1160 0.950 . S
H1153 C1165 0.950 . S
H1154 C1162 0.950 . S
H1155 C1164 0.950 . S
H1156 C1166 0.950 . S
H1157 C1168 0.950 . S
H1158 C1170 0.950 . S
H1159 C1171 0.950 . S
C1160 H1152 0.950 . S
C1160 C1161 1.386 . S
C1160 C1162 1.391 . S
C1161 C1160 1.386 . S
C1161 C1165 1.393 1_565 S
C1162 H1154 0.950 . S
C1162 C1160 1.391 . S
C1162 C1163 1.400 1_565 S
C1163 C1162 1.400 1_545 S
C1163 C1164 1.398 . S
C1163 C1169 1.491 . S
C1164 H1155 0.950 . S
C1164 C1163 1.398 . S
C1164 C1165 1.391 . S
C1165 H1153 0.950 . S
C1165 C1161 1.393 1_545 S
C1165 C1164 1.391 . S
C1166 H1156 0.950 . S
C1166 C1167 1.386 . S
C1166 C1168 1.391 . S
C1167 C1166 1.386 . S
C1167 C1171 1.393 1_545 S
C1168 H1157 0.950 . S
C1168 C1166 1.391 . S
C1168 C1169 1.400 . S
C1169 C1163 1.491 . S
C1169 C1168 1.400 . S
C1169 C1170 1.398 1_545 S
C1170 H1158 0.950 . S
C1170 C1169 1.398 1_565 S
C1170 C1171 1.391 . S
C1171 H1159 0.950 . S
C1171 C1167 1.393 1_565 S
C1171 C1170 1.391 . S
H1172 C1180 0.950 . S
H1173 C1185 0.950 . S
H1174 C1182 0.950 . S
H1175 C1184 0.950 . S
H1176 C1186 0.950 . S
H1177 C1188 0.950 . S
H1178 C1190 0.950 . S
H1179 C1191 0.950 . S
C1180 H1172 0.950 . S
C1180 C1181 1.386 . S
C1180 C1182 1.391 . S
C1181 C1180 1.386 . S
C1181 C1185 1.393 . S
C1182 H1174 0.950 . S
C1182 C1180 1.391 . S
C1182 C1183 1.400 . S
C1183 C1182 1.400 . S
C1183 C1184 1.398 . S
C1183 C1189 1.491 . S
C1184 H1175 0.950 . S
C1184 C1183 1.398 . S
C1184 C1185 1.391 . S
C1185 H1173 0.950 . S
C1185 C1181 1.393 . S
C1185 C1184 1.391 . S
C1186 H1176 0.950 . S
C1186 C1187 1.386 . S
C1186 C1188 1.391 . S
C1187 C1186 1.386 . S
C1187 C1191 1.393 . S
C1188 H1177 0.950 . S
C1188 C1186 1.391 . S
C1188 C1189 1.400 . S
C1189 C1183 1.491 . S
C1189 C1188 1.400 . S
C1189 C1190 1.398 . S
C1190 H1178 0.950 . S
C1190 C1189 1.398 . S
C1190 C1191 1.391 . S
C1191 H1179 0.950 . S
C1191 C1187 1.393 . S
C1191 C1190 1.391 . S
H1192 C1200 0.946 1_565 S
H1193 C1205 0.960 1_565 S
H1194 C1202 0.950 . S
H1195 C1204 0.950 . S
H1196 C1206 0.950 . S
H1197 C1208 0.950 . S
H1198 C1210 0.950 . S
H1199 C1211 0.950 . S
C1200 H1192 0.946 1_545 S
C1200 C1201 1.389 1_545 S
C1200 C1202 1.391 . S
C1201 C1200 1.389 1_565 S
C1201 C1205 1.389 1_565 S
C1202 H1194 0.950 . S
C1202 C1200 1.391 . S
C1202 C1203 1.400 . S
C1203 C1202 1.400 . S
C1203 C1204 1.398 . S
C1203 C1209 1.491 . S
C1204 H1195 0.950 . S
C1204 C1203 1.398 . S
C1204 C1205 1.391 . S
C1205 H1193 0.960 1_545 S
C1205 C1201 1.389 1_545 S
C1205 C1204 1.391 . S
C1206 H1196 0.950 . S
C1206 C1207 1.386 1_655 S
C1206 C1208 1.391 . S
C1207 C1206 1.386 1_455 S
C1207 C1211 1.393 . S
C1208 H1197 0.950 . S
C1208 C1206 1.391 . S
C1208 C1209 1.400 . S
C1209 C1203 1.491 . S
C1209 C1208 1.400 . S
C1209 C1210 1.398 . S
C1210 H1198 0.950 . S
C1210 C1209 1.398 . S
C1210 C1211 1.391 1_655 S
C1211 H1199 0.950 . S
C1211 C1207 1.393 . S
C1211 C1210 1.391 1_455 S
H1212 C1220 0.950 . S
H1213 C1225 0.950 . S
H1214 C1222 0.950 . S
H1215 C1224 0.950 . S
H1216 C1226 0.950 . S
H1217 C1228 0.950 . S
H1218 C1230 0.950 . S
H1219 C1231 0.950 . S
C1220 H1212 0.950 . S
C1220 C1221 1.386 . S
C1220 C1222 1.391 . S
C1221 C1220 1.386 . S
C1221 C1225 1.393 . S
C1222 H1214 0.950 . S
C1222 C1220 1.391 . S
C1222 C1223 1.400 . S
C1223 C1222 1.400 . S
C1223 C1224 1.398 . S
C1223 C1229 1.491 . S
C1224 H1215 0.950 . S
C1224 C1223 1.398 . S
C1224 C1225 1.391 . S
C1225 H1213 0.950 . S
C1225 C1221 1.393 . S
C1225 C1224 1.391 . S
C1226 H1216 0.950 . S
C1226 C1227 1.386 . S
C1226 C1228 1.391 . S
C1227 C1226 1.386 . S
C1227 C1231 1.393 . S
C1228 H1217 0.950 . S
C1228 C1226 1.391 . S
C1228 C1229 1.400 . S
C1229 C1223 1.491 . S
C1229 C1228 1.400 . S
C1229 C1230 1.398 . S
C1230 H1218 0.950 . S
C1230 C1229 1.398 . S
C1230 C1231 1.391 . S
C1231 H1219 0.950 . S
C1231 C1227 1.393 . S
C1231 C1230 1.391 . S
H1232 C1240 0.950 . S
H1233 C1245 0.950 . S
H1234 C1242 0.950 . S
H1235 C1244 0.950 . S
H1236 C1246 0.950 . S
H1237 C1248 0.950 . S
H1238 C1250 0.950 . S
H1239 C1251 0.950 . S
C1240 H1232 0.950 . S
C1240 C1241 1.386 . S
C1240 C1242 1.391 . S
C1241 C1240 1.386 . S
C1241 C1245 1.393 1_545 S
C1242 H1234 0.950 . S
C1242 C1240 1.391 . S
C1242 C1243 1.400 . S
C1243 C1242 1.400 . S
C1243 C1244 1.398 . S
C1243 C1249 1.491 . S
C1244 H1235 0.950 . S
C1244 C1243 1.398 . S
C1244 C1245 1.391 1_545 S
C1245 H1233 0.950 . S
C1245 C1241 1.393 1_565 S
C1245 C1244 1.391 1_565 S
C1246 H1236 0.950 . S
C1246 C1247 1.386 . S
C1246 C1248 1.391 . S
C1247 C1246 1.386 . S
C1247 C1251 1.393 . S
C1248 H1237 0.950 . S
C1248 C1246 1.391 . S
C1248 C1249 1.400 . S
C1249 C1243 1.491 . S
C1249 C1248 1.400 . S
C1249 C1250 1.398 . S
C1250 H1238 0.950 . S
C1250 C1249 1.398 . S
C1250 C1251 1.391 . S
C1251 H1239 0.950 . S
C1251 C1247 1.393 . S
C1251 C1250 1.391 . S
H1252 C1260 0.950 . S
H1253 C1265 0.950 . S
H1254 C1262 0.950 . S
H1255 C1264 0.950 . S
H1256 C1266 0.950 . S
H1257 C1268 0.950 . S
H1258 C1270 0.950 . S
H1259 C1271 0.950 . S
C1260 H1252 0.950 . S
C1260 C1261 1.386 . S
C1260 C1262 1.391 . S
C1261 C1260 1.386 . S
C1261 C1265 1.393 . S
C1262 H1254 0.950 . S
C1262 C1260 1.391 . S
C1262 C1263 1.400 . S
C1263 C1262 1.400 . S
C1263 C1264 1.398 . S
C1263 C1269 1.491 . S
C1264 H1255 0.950 . S
C1264 C1263 1.398 . S
C1264 C1265 1.391 . S
C1265 H1253 0.950 . S
C1265 C1261 1.393 . S
C1265 C1264 1.391 . S
C1266 H1256 0.950 . S
C1266 C1267 1.386 . S
C1266 C1268 1.391 . S
C1267 C1266 1.386 . S
C1267 C1271 1.393 . S
C1268 H1257 0.950 . S
C1268 C1266 1.391 . S
C1268 C1269 1.400 . S
C1269 C1263 1.491 . S
C1269 C1268 1.400 . S
C1269 C1270 1.398 . S
C1270 H1258 0.950 . S
C1270 C1269 1.398 . S
C1270 C1271 1.391 . S
C1271 H1259 0.950 . S
C1271 C1267 1.393 . S
C1271 C1270 1.391 . S
H1272 C1280 0.950 . S
H1273 C1285 0.950 . S
H1274 C1282 0.950 . S
H1275 C1284 0.950 . S
H1276 C1286 0.950 1_545 S
H1277 C1288 0.950 . S
H1278 C1290 0.950 . S
H1279 C1291 0.950 . S
C1280 H1272 0.950 . S
C1280 C1281 1.386 . S
C1280 C1282 1.391 . S
C1281 C1280 1.386 . S
C1281 C1285 1.393 . S
C1282 H1274 0.950 . S
C1282 C1280 1.391 . S
C1282 C1283 1.400 . S
C1283 C1282 1.400 . S
C1283 C1284 1.398 . S
C1283 C1289 1.491 . S
C1284 H1275 0.950 . S
C1284 C1283 1.398 . S
C1284 C1285 1.391 . S
C1285 H1273 0.950 . S
C1285 C1281 1.393 . S
C1285 C1284 1.391 . S
C1286 H1276 0.950 1_565 S
C1286 C1287 1.386 . S
C1286 C1288 1.391 . S
C1287 C1286 1.386 . S
C1287 C1291 1.393 . S
C1288 H1277 0.950 . S
C1288 C1286 1.391 . S
C1288 C1289 1.400 . S
C1289 C1283 1.491 . S
C1289 C1288 1.400 . S
C1289 C1290 1.398 . S
C1290 H1278 0.950 . S
C1290 C1289 1.398 . S
C1290 C1291 1.391 . S
C1291 H1279 0.950 . S
C1291 C1287 1.393 . S
C1291 C1290 1.391 . S
H1292 C1300 0.950 . S
H1293 C1305 0.940 1_556 S
H1294 C1302 0.950 . S
H1295 C1304 0.950 . S
H1296 C1306 0.950 . S
H1297 C1308 0.964 . S
H1298 C1310 0.950 . S
H1299 C1311 0.950 . S
C1300 H1292 0.950 . S
C1300 C1301 1.386 . S
C1300 C1302 1.391 . S
C1301 C1300 1.386 . S
C1301 C1305 1.393 . S
C1302 H1294 0.950 . S
C1302 C1300 1.391 . S
C1302 C1303 1.400 . S
C1303 C1302 1.400 . S
C1303 C1304 1.398 . S
C1303 C1309 1.491 . S
C1304 H1295 0.950 . S
C1304 C1303 1.398 . S
C1304 C1305 1.391 . S
C1305 H1293 0.940 1_554 S
C1305 C1301 1.393 . S
C1305 C1304 1.391 . S
C1306 H1296 0.950 . S
C1306 C1307 1.386 . S
C1306 C1308 1.391 . S
C1307 C1306 1.386 . S
C1307 C1311 1.393 . S
C1308 H1297 0.964 . S
C1308 C1306 1.391 . S
C1308 C1309 1.400 . S
C1309 C1303 1.491 . S
C1309 C1308 1.400 . S
C1309 C1310 1.398 . S
C1310 H1298 0.950 . S
C1310 C1309 1.398 . S
C1310 C1311 1.391 . S
C1311 H1299 0.950 . S
C1311 C1307 1.393 . S
C1311 C1310 1.391 . S
H1312 C1320 0.950 . S
H1313 C1325 0.950 . S
H1314 C1322 0.950 . S
H1315 C1324 0.950 . S
H1316 C1326 0.950 . S
H1317 C1328 0.950 . S
H1318 C1330 0.950 . S
H1319 C1331 0.950 . S
C1320 H1312 0.950 . S
C1320 C1321 1.386 . S
C1320 C1322 1.391 . S
C1321 C1320 1.386 . S
C1321 C1325 1.393 . S
C1322 H1314 0.950 . S
C1322 C1320 1.391 . S
C1322 C1323 1.400 . S
C1323 C1322 1.400 . S
C1323 C1324 1.398 . S
C1323 C1329 1.491 . S
C1324 H1315 0.950 . S
C1324 C1323 1.398 . S
C1324 C1325 1.391 . S
C1325 H1313 0.950 . S
C1325 C1321 1.393 . S
C1325 C1324 1.391 . S
C1326 H1316 0.950 . S
C1326 C1327 1.386 . S
C1326 C1328 1.391 . S
C1327 C1326 1.386 . S
C1327 C1331 1.393 . S
C1328 H1317 0.950 . S
C1328 C1326 1.391 . S
C1328 C1329 1.400 . S
C1329 C1323 1.491 . S
C1329 C1328 1.400 . S
C1329 C1330 1.398 . S
C1330 H1318 0.950 . S
C1330 C1329 1.398 . S
C1330 C1331 1.391 . S
C1331 H1319 0.950 . S
C1331 C1327 1.393 . S
C1331 C1330 1.391 . S
H1332 C1340 0.950 . S
H1333 C1345 0.950 . S
H1334 C1342 0.950 . S
H1335 C1344 0.950 . S
H1336 C1346 0.950 . S
H1337 C1348 0.950 . S
H1338 C1350 0.950 . S
H1339 C1351 0.950 . S
C1340 H1332 0.950 . S
C1340 C1341 1.386 . S
C1340 C1342 1.391 . S
C1341 C1340 1.386 . S
C1341 C1345 1.393 . S
C1342 H1334 0.950 . S
C1342 C1340 1.391 . S
C1342 C1343 1.400 . S
C1343 C1342 1.400 . S
C1343 C1344 1.398 . S
C1343 C1349 1.491 . S
C1344 H1335 0.950 . S
C1344 C1343 1.398 . S
C1344 C1345 1.391 . S
C1345 H1333 0.950 . S
C1345 C1341 1.393 . S
C1345 C1344 1.391 . S
C1346 H1336 0.950 . S
C1346 C1347 1.386 . S
C1346 C1348 1.391 . S
C1347 C1346 1.386 . S
C1347 C1351 1.393 . S
C1348 H1337 0.950 . S
C1348 C1346 1.391 . S
C1348 C1349 1.400 . S
C1349 C1343 1.491 . S
C1349 C1348 1.400 . S
C1349 C1350 1.398 . S
C1350 H1338 0.950 . S
C1350 C1349 1.398 . S
C1350 C1351 1.391 . S
C1351 H1339 0.950 . S
C1351 C1347 1.393 . S
C1351 C1350 1.391 . S
H1352 C1360 0.950 . S
H1353 C1365 0.950 . S
H1354 C1362 0.950 . S
H1355 C1364 0.950 . S
H1356 C1366 0.950 . S
H1357 C1368 0.950 . S
H1358 C1370 0.950 . S
H1359 C1371 0.950 . S
C1360 H1352 0.950 . S
C1360 C1361 1.386 . S
C1360 C1362 1.391 . S
C1361 C1360 1.386 . S
C1361 C1365 1.393 . S
C1362 H1354 0.950 . S
C1362 C1360 1.391 . S
C1362 C1363 1.400 . S
C1363 C1362 1.400 . S
C1363 C1364 1.398 . S
C1363 C1369 1.491 . S
C1364 H1355 0.950 . S
C1364 C1363 1.398 . S
C1364 C1365 1.391 . S
C1365 H1353 0.950 . S
C1365 C1361 1.393 . S
C1365 C1364 1.391 . S
C1366 H1356 0.950 . S
C1366 C1367 1.386 . S
C1366 C1368 1.391 . S
C1367 C1366 1.386 . S
C1367 C1371 1.393 . S
C1368 H1357 0.950 . S
C1368 C1366 1.391 . S
C1368 C1369 1.400 . S
C1369 C1363 1.491 . S
C1369 C1368 1.400 . S
C1369 C1370 1.398 . S
C1370 H1358 0.950 . S
C1370 C1369 1.398 . S
C1370 C1371 1.391 . S
C1371 H1359 0.950 . S
C1371 C1367 1.393 . S
C1371 C1370 1.391 . S
H1372 C1380 0.950 . S
H1373 C1385 0.950 . S
H1374 C1382 0.950 . S
H1375 C1384 0.950 . S
H1376 C1386 0.950 . S
H1377 C1388 0.950 . S
H1378 C1390 0.950 . S
H1379 C1391 0.950 . S
C1380 H1372 0.950 . S
C1380 C1381 1.386 . S
C1380 C1382 1.391 . S
C1381 C1380 1.386 . S
C1381 C1385 1.393 . S
C1382 H1374 0.950 . S
C1382 C1380 1.391 . S
C1382 C1383 1.400 . S
C1383 C1382 1.400 . S
C1383 C1384 1.398 . S
C1383 C1389 1.491 . S
C1384 H1375 0.950 . S
C1384 C1383 1.398 . S
C1384 C1385 1.391 . S
C1385 H1373 0.950 . S
C1385 C1381 1.393 . S
C1385 C1384 1.391 . S
C1386 H1376 0.950 . S
C1386 C1387 1.386 . S
C1386 C1388 1.391 . S
C1387 C1386 1.386 . S
C1387 C1391 1.393 . S
C1388 H1377 0.950 . S
C1388 C1386 1.391 . S
C1388 C1389 1.400 . S
C1389 C1383 1.491 . S
C1389 C1388 1.400 . S
C1389 C1390 1.398 . S
C1390 H1378 0.950 . S
C1390 C1389 1.398 . S
C1390 C1391 1.391 . S
C1391 H1379 0.950 . S
C1391 C1387 1.393 . S
C1391 C1390 1.391 . S
H1392 C1400 0.950 . S
H1393 C1405 0.950 . S
H1394 C1402 0.950 . S
H1395 C1404 0.950 . S
H1396 C1406 0.950 . S
H1397 C1408 0.950 . S
H1398 C1410 0.950 . S
H1399 C1411 0.950 . S
C1400 H1392 0.950 . S
C1400 C1401 1.386 . S
C1400 C1402 1.391 . S
C1401 C1400 1.386 . S
C1401 C1405 1.393 . S
C1402 H1394 0.950 . S
C1402 C1400 1.391 . S
C1402 C1403 1.400 . S
C1403 C1402 1.400 . S
C1403 C1404 1.398 . S
C1403 C1409 1.491 . S
C1404 H1395 0.950 . S
C1404 C1403 1.398 . S
C1404 C1405 1.391 . S
C1405 H1393 0.950 . S
C1405 C1401 1.393 . S
C1405 C1404 1.391 . S
C1406 H1396 0.950 . S
C1406 C1407 1.386 . S
C1406 C1408 1.391 . S
C1407 C1406 1.386 . S
C1407 C1411 1.393 . S
C1408 H1397 0.950 . S
C1408 C1406 1.391 . S
C1408 C1409 1.400 . S
C1409 C1403 1.491 . S
C1409 C1408 1.400 . S
C1409 C1410 1.398 . S
C1410 H1398 0.950 . S
C1410 C1409 1.398 . S
C1410 C1411 1.391 . S
C1411 H1399 0.950 . S
C1411 C1407 1.393 . S
C1411 C1410 1.391 . S
H1412 C1420 0.950 . S
H1413 C1425 0.950 . S
H1414 C1422 0.950 . S
H1415 C1424 0.950 . S
H1416 C1426 0.950 . S
H1417 C1428 0.950 . S
H1418 C1430 0.950 . S
H1419 C1431 0.950 . S
C1420 H1412 0.950 . S
C1420 C1421 1.386 . S
C1420 C1422 1.391 . S
C1421 C1420 1.386 . S
C1421 C1425 1.393 . S
C1422 H1414 0.950 . S
C1422 C1420 1.391 . S
C1422 C1423 1.400 . S
C1423 C1422 1.400 . S
C1423 C1424 1.398 . S
C1423 C1429 1.491 . S
C1424 H1415 0.950 . S
C1424 C1423 1.398 . S
C1424 C1425 1.391 . S
C1425 H1413 0.950 . S
C1425 C1421 1.393 . S
C1425 C1424 1.391 . S
C1426 H1416 0.950 . S
C1426 C1427 1.386 . S
C1426 C1428 1.391 . S
C1427 C1426 1.386 . S
C1427 C1431 1.393 . S
C1428 H1417 0.950 . S
C1428 C1426 1.391 . S
C1428 C1429 1.400 . S
C1429 C1423 1.491 . S
C1429 C1428 1.400 . S
C1429 C1430 1.398 . S
C1430 H1418 0.950 . S
C1430 C1429 1.398 . S
C1430 C1431 1.391 . S
C1431 H1419 0.950 . S
C1431 C1427 1.393 . S
C1431 C1430 1.391 . S
H1432 C1440 0.950 . S
H1433 C1445 0.950 . S
H1434 C1442 0.950 . S
H1435 C1444 0.950 . S
H1436 C1446 0.950 . S
H1437 C1448 0.950 . S
H1438 C1450 0.950 . S
H1439 C1451 0.950 . S
C1440 H1432 0.950 . S
C1440 C1441 1.386 . S
C1440 C1442 1.391 . S
C1441 C1440 1.386 . S
C1441 C1445 1.393 . S
C1442 H1434 0.950 . S
C1442 C1440 1.391 . S
C1442 C1443 1.400 . S
C1443 C1442 1.400 . S
C1443 C1444 1.398 . S
C1443 C1449 1.491 . S
C1444 H1435 0.950 . S
C1444 C1443 1.398 . S
C1444 C1445 1.391 . S
C1445 H1433 0.950 . S
C1445 C1441 1.393 . S
C1445 C1444 1.391 . S
C1446 H1436 0.950 . S
C1446 C1447 1.386 . S
C1446 C1448 1.391 . S
C1447 C1446 1.386 . S
C1447 C1451 1.393 . S
C1448 H1437 0.950 . S
C1448 C1446 1.391 . S
C1448 C1449 1.400 . S
C1449 C1443 1.491 . S
C1449 C1448 1.400 . S
C1449 C1450 1.398 . S
C1450 H1438 0.950 . S
C1450 C1449 1.398 . S
C1450 C1451 1.391 . S
C1451 H1439 0.950 . S
C1451 C1447 1.393 . S
C1451 C1450 1.391 . S
H1452 C1460 0.950 . S
H1453 C1465 0.950 . S
H1454 C1462 0.950 . S
H1455 C1464 0.950 . S
H1456 C1466 0.950 . S
H1457 C1468 0.950 . S
H1458 C1470 0.950 . S
H1459 C1471 0.950 . S
C1460 H1452 0.950 . S
C1460 C1461 1.386 . S
C1460 C1462 1.391 . S
C1461 C1460 1.386 . S
C1461 C1465 1.393 . S
C1462 H1454 0.950 . S
C1462 C1460 1.391 . S
C1462 C1463 1.400 . S
C1463 C1462 1.400 . S
C1463 C1464 1.398 . S
C1463 C1469 1.491 . S
C1464 H1455 0.950 . S
C1464 C1463 1.398 . S
C1464 C1465 1.391 . S
C1465 H1453 0.950 . S
C1465 C1461 1.393 . S
C1465 C1464 1.391 . S
C1466 H1456 0.950 . S
C1466 C1467 1.386 . S
C1466 C1468 1.391 . S
C1467 C1466 1.386 . S
C1467 C1471 1.393 . S
C1468 H1457 0.950 . S
C1468 C1466 1.391 . S
C1468 C1469 1.400 . S
C1469 C1463 1.491 . S
C1469 C1468 1.400 . S
C1469 C1470 1.398 . S
C1470 H1458 0.950 . S
C1470 C1469 1.398 . S
C1470 C1471 1.391 . S
C1471 H1459 0.950 . S
C1471 C1467 1.393 . S
C1471 C1470 1.391 . S
H1472 C1480 0.950 . S
H1473 C1485 0.950 . S
H1474 C1482 0.950 . S
H1475 C1484 0.950 . S
H1476 C1486 0.950 . S
H1477 C1488 0.950 . S
H1478 C1490 0.950 . S
H1479 C1491 0.950 . S
C1480 H1472 0.950 . S
C1480 C1481 1.386 . S
C1480 C1482 1.391 . S
C1481 C1480 1.386 . S
C1481 C1485 1.393 . S
C1482 H1474 0.950 . S
C1482 C1480 1.391 . S
C1482 C1483 1.400 . S
C1483 C1482 1.400 . S
C1483 C1484 1.398 . S
C1483 C1489 1.491 . S
C1484 H1475 0.950 . S
C1484 C1483 1.398 . S
C1484 C1485 1.391 . S
C1485 H1473 0.950 . S
C1485 C1481 1.393 . S
C1485 C1484 1.391 . S
C1486 H1476 0.950 . S
C1486 C1487 1.386 . S
C1486 C1488 1.391 . S
C1487 C1486 1.386 . S
C1487 C1491 1.393 . S
C1488 H1477 0.950 . S
C1488 C1486 1.391 . S
C1488 C1489 1.400 . S
C1489 C1483 1.491 . S
C1489 C1488 1.400 . S
C1489 C1490 1.398 . S
C1490 H1478 0.950 . S
C1490 C1489 1.398 . S
C1490 C1491 1.391 . S
C1491 H1479 0.950 . S
C1491 C1487 1.393 . S
C1491 C1490 1.391 . S
H1492 C1500 0.950 . S
H1493 C1505 0.950 . S
H1494 C1502 0.950 . S
H1495 C1504 0.950 . S
H1496 C1506 0.950 . S
H1497 C1508 0.950 . S
H1498 C1510 0.950 . S
H1499 C1511 0.950 . S
C1500 H1492 0.950 . S
C1500 C1501 1.386 . S
C1500 C1502 1.391 . S
C1501 C1500 1.386 . S
C1501 C1505 1.393 . S
C1502 H1494 0.950 . S
C1502 C1500 1.391 . S
C1502 C1503 1.400 . S
C1503 C1502 1.400 . S
C1503 C1504 1.398 . S
C1503 C1509 1.491 . S
C1504 H1495 0.950 . S
C1504 C1503 1.398 . S
C1504 C1505 1.391 . S
C1505 H1493 0.950 . S
C1505 C1501 1.393 . S
C1505 C1504 1.391 . S
C1506 H1496 0.950 . S
C1506 C1507 1.386 . S
C1506 C1508 1.391 . S
C1507 C1506 1.386 . S
C1507 C1511 1.393 . S
C1508 H1497 0.950 . S
C1508 C1506 1.391 . S
C1508 C1509 1.400 . S
C1509 C1503 1.491 . S
C1509 C1508 1.400 . S
C1509 C1510 1.398 . S
C1510 H1498 0.950 . S
C1510 C1509 1.398 . S
C1510 C1511 1.391 . S
C1511 H1499 0.950 . S
C1511 C1507 1.393 . S
C1511 C1510 1.391 . S
H1512 C1520 0.950 . S
H1513 C1525 0.950 . S
H1514 C1522 0.950 . S
H1515 C1524 0.950 . S
H1516 C1526 0.950 . S
H1517 C1528 0.950 . S
H1518 C1530 0.950 . S
H1519 C1531 0.950 . S
C1520 H1512 0.950 . S
C1520 C1521 1.386 . S
C1520 C1522 1.391 . S
C1521 C1520 1.386 . S
C1521 C1525 1.393 . S
C1522 H1514 0.950 . S
C1522 C1520 1.391 . S
C1522 C1523 1.400 . S
C1523 C1522 1.400 . S
C1523 C1524 1.398 . S
C1523 C1529 1.491 . S
C1524 H1515 0.950 . S
C1524 C1523 1.398 . S
C1524 C1525 1.391 . S
C1525 H1513 0.950 . S
C1525 C1521 1.393 . S
C1525 C1524 1.391 . S
C1526 H1516 0.950 . S
C1526 C1527 1.386 . S
C1526 C1528 1.391 . S
C1527 C1526 1.386 . S
C1527 C1531 1.393 . S
C1528 H1517 0.950 . S
C1528 C1526 1.391 . S
C1528 C1529 1.400 . S
C1529 C1523 1.491 . S
C1529 C1528 1.400 . S
C1529 C1530 1.398 . S
C1530 H1518 0.950 . S
C1530 C1529 1.398 . S
C1530 C1531 1.391 . S
C1531 H1519 0.950 . S
C1531 C1527 1.393 . S
C1531 C1530 1.391 . S
H1532 C1540 0.950 . S
H1533 C1545 0.950 . S
H1534 C1542 0.950 . S
H1535 C1544 0.950 . S
H1536 C1546 0.950 . S
H1537 C1548 0.950 . S
H1538 C1550 0.950 . S
H1539 C1551 0.950 . S
C1540 H1532 0.950 . S
C1540 C1541 1.386 . S
C1540 C1542 1.391 . S
C1541 C1540 1.386 . S
C1541 C1545 1.393 . S
C1542 H1534 0.950 . S
C1542 C1540 1.391 . S
C1542 C1543 1.400 . S
C1543 C1542 1.400 . S
C1543 C1544 1.398 . S
C1543 C1549 1.491 . S
C1544 H1535 0.950 . S
C1544 C1543 1.398 . S
C1544 C1545 1.391 . S
C1545 H1533 0.950 . S
C1545 C1541 1.393 . S
C1545 C1544 1.391 . S
C1546 H1536 0.950 . S
C1546 C1547 1.386 . S
C1546 C1548 1.391 . S
C1547 C1546 1.386 . S
C1547 C1551 1.393 . S
C1548 H1537 0.950 . S
C1548 C1546 1.391 . S
C1548 C1549 1.400 . S
C1549 C1543 1.491 . S
C1549 C1548 1.400 . S
C1549 C1550 1.398 . S
C1550 H1538 0.950 . S
C1550 C1549 1.398 . S
C1550 C1551 1.391 . S
C1551 H1539 0.950 . S
C1551 C1547 1.393 . S
C1551 C1550 1.391 . S
H1552 C1560 0.950 . S
H1553 C1565 0.950 . S
H1554 C1562 0.950 . S
H1555 C1564 0.950 . S
H1556 C1566 0.950 . S
H1557 C1568 0.950 . S
H1558 C1570 0.950 . S
H1559 C1571 0.950 . S
C1560 H1552 0.950 . S
C1560 C1561 1.386 . S
C1560 C1562 1.391 . S
C1561 C1560 1.386 . S
C1561 C1565 1.393 . S
C1562 H1554 0.950 . S
C1562 C1560 1.391 . S
C1562 C1563 1.400 . S
C1563 C1562 1.400 . S
C1563 C1564 1.398 . S
C1563 C1569 1.491 . S
C1564 H1555 0.950 . S
C1564 C1563 1.398 . S
C1564 C1565 1.391 . S
C1565 H1553 0.950 . S
C1565 C1561 1.393 . S
C1565 C1564 1.391 . S
C1566 H1556 0.950 . S
C1566 C1567 1.386 . S
C1566 C1568 1.391 . S
C1567 C1566 1.386 . S
C1567 C1571 1.393 . S
C1568 H1557 0.950 . S
C1568 C1566 1.391 . S
C1568 C1569 1.400 . S
C1569 C1563 1.491 . S
C1569 C1568 1.400 . S
C1569 C1570 1.398 . S
C1570 H1558 0.950 . S
C1570 C1569 1.398 . S
C1570 C1571 1.391 . S
C1571 H1559 0.950 . S
C1571 C1567 1.393 . S
C1571 C1570 1.391 . S
H1572 C1580 0.950 . S
H1573 C1585 0.950 . S
H1574 C1582 0.950 . S
H1575 C1584 0.950 . S
H1576 C1586 0.950 . S
H1577 C1588 0.950 . S
H1578 C1590 0.950 . S
H1579 C1591 0.950 . S
C1580 H1572 0.950 . S
C1580 C1581 1.386 . S
C1580 C1582 1.391 . S
C1581 C1580 1.386 . S
C1581 C1585 1.393 . S
C1582 H1574 0.950 . S
C1582 C1580 1.391 . S
C1582 C1583 1.400 . S
C1583 C1582 1.400 . S
C1583 C1584 1.398 . S
C1583 C1589 1.491 . S
C1584 H1575 0.950 . S
C1584 C1583 1.398 . S
C1584 C1585 1.391 . S
C1585 H1573 0.950 . S
C1585 C1581 1.393 . S
C1585 C1584 1.391 . S
C1586 H1576 0.950 . S
C1586 C1587 1.386 . S
C1586 C1588 1.391 . S
C1587 C1586 1.386 . S
C1587 C1591 1.393 . S
C1588 H1577 0.950 . S
C1588 C1586 1.391 . S
C1588 C1589 1.400 . S
C1589 C1583 1.491 . S
C1589 C1588 1.400 . S
C1589 C1590 1.398 . S
C1590 H1578 0.950 . S
C1590 C1589 1.398 . S
C1590 C1591 1.391 . S
C1591 H1579 0.950 . S
C1591 C1587 1.393 . S
C1591 C1590 1.391 . S
H1592 C1600 0.950 . S
H1593 C1605 0.950 . S
H1594 C1602 0.950 . S
H1595 C1604 0.950 . S
H1596 C1606 0.950 1_554 S
H1597 C1608 0.950 . S
H1598 C1610 0.950 . S
H1599 C1611 0.950 . S
C1600 H1592 0.950 . S
C1600 C1601 1.386 . S
C1600 C1602 1.391 . S
C1601 C1600 1.386 . S
C1601 C1605 1.393 . S
C1602 H1594 0.950 . S
C1602 C1600 1.391 . S
C1602 C1603 1.400 . S
C1603 C1602 1.400 . S
C1603 C1604 1.398 . S
C1603 C1609 1.491 . S
C1604 H1595 0.950 . S
C1604 C1603 1.398 . S
C1604 C1605 1.391 . S
C1605 H1593 0.950 . S
C1605 C1601 1.393 . S
C1605 C1604 1.391 . S
C1606 H1596 0.950 1_556 S
C1606 C1607 1.386 . S
C1606 C1608 1.391 . S
C1607 C1606 1.386 . S
C1607 C1611 1.393 . S
C1608 H1597 0.950 . S
C1608 C1606 1.391 . S
C1608 C1609 1.400 . S
C1609 C1603 1.491 . S
C1609 C1608 1.400 . S
C1609 C1610 1.398 . S
C1610 H1598 0.950 . S
C1610 C1609 1.398 . S
C1610 C1611 1.391 . S
C1611 H1599 0.950 . S
C1611 C1607 1.393 . S
C1611 C1610 1.391 . S
H1612 C1620 0.950 . S
H1613 C1625 0.950 . S
H1614 C1622 0.950 . S
H1615 C1624 0.950 . S
H1616 C1626 0.950 . S
H1617 C1628 0.950 . S
H1618 C1630 0.950 . S
H1619 C1631 0.950 . S
C1620 H1612 0.950 . S
C1620 C1621 1.386 . S
C1620 C1622 1.391 . S
C1621 C1620 1.386 . S
C1621 C1625 1.393 . S
C1622 H1614 0.950 . S
C1622 C1620 1.391 . S
C1622 C1623 1.400 . S
C1623 C1622 1.400 . S
C1623 C1624 1.398 . S
C1623 C1629 1.491 . S
C1624 H1615 0.950 . S
C1624 C1623 1.398 . S
C1624 C1625 1.391 . S
C1625 H1613 0.950 . S
C1625 C1621 1.393 . S
C1625 C1624 1.391 . S
C1626 H1616 0.950 . S
C1626 C1627 1.386 . S
C1626 C1628 1.391 . S
C1627 C1626 1.386 . S
C1627 C1631 1.393 . S
C1628 H1617 0.950 . S
C1628 C1626 1.391 . S
C1628 C1629 1.400 . S
C1629 C1623 1.491 . S
C1629 C1628 1.400 . S
C1629 C1630 1.398 . S
C1630 H1618 0.950 . S
C1630 C1629 1.398 . S
C1630 C1631 1.391 . S
C1631 H1619 0.950 . S
C1631 C1627 1.393 . S
C1631 C1630 1.391 . S
H1632 C1640 0.950 . S
H1633 C1645 0.950 . S
H1634 C1642 0.950 . S
H1635 C1644 0.950 . S
H1636 C1646 0.950 . S
H1637 C1648 0.950 . S
H1638 C1650 0.950 . S
H1639 C1651 0.950 . S
C1640 H1632 0.950 . S
C1640 C1641 1.386 . S
C1640 C1642 1.391 . S
C1641 C1640 1.386 . S
C1641 C1645 1.393 . S
C1642 H1634 0.950 . S
C1642 C1640 1.391 . S
C1642 C1643 1.400 . S
C1643 C1642 1.400 . S
C1643 C1644 1.398 . S
C1643 C1649 1.491 . S
C1644 H1635 0.950 . S
C1644 C1643 1.398 . S
C1644 C1645 1.391 . S
C1645 H1633 0.950 . S
C1645 C1641 1.393 . S
C1645 C1644 1.391 . S
C1646 H1636 0.950 . S
C1646 C1647 1.386 . S
C1646 C1648 1.391 . S
C1647 C1646 1.386 . S
C1647 C1651 1.393 . S
C1648 H1637 0.950 . S
C1648 C1646 1.391 . S
C1648 C1649 1.400 . S
C1649 C1643 1.491 . S
C1649 C1648 1.400 . S
C1649 C1650 1.398 . S
C1650 H1638 0.950 . S
C1650 C1649 1.398 . S
C1650 C1651 1.391 . S
C1651 H1639 0.950 . S
C1651 C1647 1.393 . S
C1651 C1650 1.391 . S
H1652 C1660 0.950 . S
H1653 C1665 0.950 . S
H1654 C1662 0.950 . S
H1655 C1664 0.950 . S
H1656 C1666 0.950 . S
H1657 C1668 0.950 . S
H1658 C1670 0.950 . S
H1659 C1671 0.950 . S
C1660 H1652 0.950 . S
C1660 C1661 1.386 . S
C1660 C1662 1.391 . S
C1661 C1660 1.386 . S
C1661 C1665 1.393 . S
C1662 H1654 0.950 . S
C1662 C1660 1.391 . S
C1662 C1663 1.400 . S
C1663 C1662 1.400 . S
C1663 C1664 1.398 . S
C1663 C1669 1.491 . S
C1664 H1655 0.950 . S
C1664 C1663 1.398 . S
C1664 C1665 1.391 . S
C1665 H1653 0.950 . S
C1665 C1661 1.393 . S
C1665 C1664 1.391 . S
C1666 H1656 0.950 . S
C1666 C1667 1.386 . S
C1666 C1668 1.391 . S
C1667 C1666 1.386 . S
C1667 C1671 1.393 . S
C1668 H1657 0.950 . S
C1668 C1666 1.391 . S
C1668 C1669 1.400 . S
C1669 C1663 1.491 . S
C1669 C1668 1.400 . S
C1669 C1670 1.398 . S
C1670 H1658 0.950 . S
C1670 C1669 1.398 . S
C1670 C1671 1.391 . S
C1671 H1659 0.950 . S
C1671 C1667 1.393 . S
C1671 C1670 1.391 . S
H1672 C1680 0.950 . S
H1673 C1685 0.950 . S
H1674 C1682 0.950 . S
H1675 C1684 0.950 . S
H1676 C1686 0.950 . S
H1677 C1688 0.950 . S
H1678 C1690 0.950 . S
H1679 C1691 0.950 . S
C1680 H1672 0.950 . S
C1680 C1681 1.386 . S
C1680 C1682 1.391 . S
C1681 C1680 1.386 . S
C1681 C1685 1.393 . S
C1682 H1674 0.950 . S
C1682 C1680 1.391 . S
C1682 C1683 1.400 . S
C1683 C1682 1.400 . S
C1683 C1684 1.398 . S
C1683 C1689 1.491 . S
C1684 H1675 0.950 . S
C1684 C1683 1.398 . S
C1684 C1685 1.391 . S
C1685 H1673 0.950 . S
C1685 C1681 1.393 . S
C1685 C1684 1.391 . S
C1686 H1676 0.950 . S
C1686 C1687 1.386 . S
C1686 C1688 1.391 . S
C1687 C1686 1.386 . S
C1687 C1691 1.393 . S
C1688 H1677 0.950 . S
C1688 C1686 1.391 . S
C1688 C1689 1.400 . S
C1689 C1683 1.491 . S
C1689 C1688 1.400 . S
C1689 C1690 1.398 . S
C1690 H1678 0.950 . S
C1690 C1689 1.398 . S
C1690 C1691 1.391 . S
C1691 H1679 0.950 . S
C1691 C1687 1.393 . S
C1691 C1690 1.391 . S
H1692 C1700 0.950 . S
H1693 C1705 0.950 . S
H1694 C1702 0.950 . S
H1695 C1704 0.950 . S
H1696 C1706 0.950 . S
H1697 C1708 0.950 . S
H1698 C1710 0.950 . S
H1699 C1711 0.950 . S
C1700 H1692 0.950 . S
C1700 C1701 1.386 . S
C1700 C1702 1.391 . S
C1701 C1700 1.386 . S
C1701 C1705 1.393 . S
C1702 H1694 0.950 . S
C1702 C1700 1.391 . S
C1702 C1703 1.400 . S
C1703 C1702 1.400 . S
C1703 C1704 1.398 . S
C1703 C1709 1.491 . S
C1704 H1695 0.950 . S
C1704 C1703 1.398 . S
C1704 C1705 1.391 . S
C1705 H1693 0.950 . S
C1705 C1701 1.393 . S
C1705 C1704 1.391 . S
C1706 H1696 0.950 . S
C1706 C1707 1.386 . S
C1706 C1708 1.391 . S
C1707 C1706 1.386 . S
C1707 C1711 1.393 . S
C1708 H1697 0.950 . S
C1708 C1706 1.391 . S
C1708 C1709 1.400 . S
C1709 C1703 1.491 . S
C1709 C1708 1.400 . S
C1709 C1710 1.398 . S
C1710 H1698 0.950 . S
C1710 C1709 1.398 . S
C1710 C1711 1.391 . S
C1711 H1699 0.950 . S
C1711 C1707 1.393 . S
C1711 C1710 1.391 . S
H1712 C1720 0.950 . S
H1713 C1725 0.950 . S
H1714 C1722 0.950 . S
H1715 C1724 0.950 . S
H1716 C1726 0.950 . S
H1717 C1728 0.950 . S
H1718 C1730 0.977 . S
H1719 C1731 0.950 . S
C1720 H1712 0.950 . S
C1720 C1721 1.386 . S
C1720 C1722 1.391 . S
C1721 C1720 1.386 . S
C1721 C1725 1.393 . S
C1722 H1714 0.950 . S
C1722 C1720 1.391 . S
C1722 C1723 1.400 . S
C1723 C1722 1.400 . S
C1723 C1724 1.398 . S
C1723 C1729 1.491 . S
C1724 H1715 0.950 . S
C1724 C1723 1.398 . S
C1724 C1725 1.391 . S
C1725 H1713 0.950 . S
C1725 C1721 1.393 . S
C1725 C1724 1.391 . S
C1726 H1716 0.950 . S
C1726 C1727 1.386 . S
C1726 C1728 1.391 . S
C1727 C1726 1.386 . S
C1727 C1731 1.393 1_545 S
C1728 H1717 0.950 . S
C1728 C1726 1.391 . S
C1728 C1729 1.400 . S
C1729 C1723 1.491 . S
C1729 C1728 1.400 . S
C1729 C1730 1.398 . S
C1730 H1718 0.977 . S
C1730 C1729 1.398 . S
C1730 C1731 1.391 1_545 S
C1731 H1719 0.950 . S
C1731 C1727 1.393 1_565 S
C1731 C1730 1.391 1_565 S
H1732 C1740 0.950 . S
H1733 C1745 0.950 . S
H1734 C1742 0.950 . S
H1735 C1744 0.950 . S
H1736 C1746 0.950 . S
H1737 C1748 0.950 . S
H1738 C1750 0.950 . S
H1739 C1751 0.950 . S
C1740 H1732 0.950 . S
C1740 C1741 1.386 . S
C1740 C1742 1.391 . S
C1741 C1740 1.386 . S
C1741 C1745 1.393 . S
C1742 H1734 0.950 . S
C1742 C1740 1.391 . S
C1742 C1743 1.400 . S
C1743 C1742 1.400 . S
C1743 C1744 1.398 . S
C1743 C1749 1.491 . S
C1744 H1735 0.950 . S
C1744 C1743 1.398 . S
C1744 C1745 1.391 . S
C1745 H1733 0.950 . S
C1745 C1741 1.393 . S
C1745 C1744 1.391 . S
C1746 H1736 0.950 . S
C1746 C1747 1.386 . S
C1746 C1748 1.391 . S
C1747 C1746 1.386 . S
C1747 C1751 1.393 . S
C1748 H1737 0.950 . S
C1748 C1746 1.391 . S
C1748 C1749 1.400 . S
C1749 C1743 1.491 . S
C1749 C1748 1.400 . S
C1749 C1750 1.398 . S
C1750 H1738 0.950 . S
C1750 C1749 1.398 . S
C1750 C1751 1.391 . S
C1751 H1739 0.950 . S
C1751 C1747 1.393 . S
C1751 C1750 1.391 . S
H1752 C1760 0.950 . S
H1753 C1765 0.950 . S
H1754 C1762 0.950 . S
H1755 C1764 0.950 . S
H1756 C1766 0.950 . S
H1757 C1768 0.950 . S
H1758 C1770 0.950 . S
H1759 C1771 0.950 . S
C1760 H1752 0.950 . S
C1760 C1761 1.386 1_556 S
C1760 C1762 1.391 . S
C1761 C1760 1.386 1_554 S
C1761 C1765 1.393 . S
C1762 H1754 0.950 . S
C1762 C1760 1.391 . S
C1762 C1763 1.391 1_556 S
C1763 C1762 1.391 1_554 S
C1763 C1764 1.410 . S
C1763 C1769 1.488 1_554 S
C1764 H1755 0.950 . S
C1764 C1763 1.410 . S
C1764 C1765 1.391 . S
C1765 H1753 0.950 . S
C1765 C1761 1.393 . S
C1765 C1764 1.391 . S
C1766 H1756 0.950 . S
C1766 C1767 1.386 1_554 S
C1766 C1768 1.391 . S
C1767 C1766 1.386 1_556 S
C1767 C1771 1.393 . S
C1768 H1757 0.950 . S
C1768 C1766 1.391 . S
C1768 C1769 1.400 1_554 S
C1769 C1763 1.488 1_556 S
C1769 C1768 1.400 1_556 S
C1769 C1770 1.398 . S
C1770 H1758 0.950 . S
C1770 C1769 1.398 . S
C1770 C1771 1.391 . S
C1771 H1759 0.950 . S
C1771 C1767 1.393 . S
C1771 C1770 1.391 . S
H1772 C1780 0.950 1_556 S
H1773 C1785 0.950 . S
H1774 C1782 0.950 1_556 S
H1775 C1784 0.950 . S
H1776 C1786 0.950 . S
H1777 C1788 0.950 . S
H1778 C1790 0.920 1_556 S
H1779 C1791 0.961 . S
C1780 H1772 0.950 1_554 S
C1780 C1781 1.386 . S
C1780 C1782 1.391 . S
C1781 C1780 1.386 . S
C1781 C1785 1.393 . S
C1782 H1774 0.950 1_554 S
C1782 C1780 1.391 . S
C1782 C1783 1.400 . S
C1783 C1782 1.400 . S
C1783 C1784 1.398 . S
C1783 C1789 1.491 . S
C1784 H1775 0.950 . S
C1784 C1783 1.398 . S
C1784 C1785 1.391 . S
C1785 H1773 0.950 . S
C1785 C1781 1.393 . S
C1785 C1784 1.391 . S
C1786 H1776 0.950 . S
C1786 C1787 1.386 . S
C1786 C1788 1.391 . S
C1787 C1786 1.386 . S
C1787 C1791 1.384 1_554 S
C1788 H1777 0.950 . S
C1788 C1786 1.391 . S
C1788 C1789 1.400 . S
C1789 C1783 1.491 . S
C1789 C1788 1.400 . S
C1789 C1790 1.435 . S
C1790 H1778 0.920 1_554 S
C1790 C1789 1.435 . S
C1790 C1791 1.381 1_554 S
C1791 H1779 0.961 . S
C1791 C1787 1.384 1_556 S
C1791 C1790 1.381 1_556 S
H1792 C1800 0.950 . S
H1793 C1805 0.950 . S
H1794 C1802 0.950 . S
H1795 C1804 0.950 . S
H1796 C1806 0.950 . S
H1797 C1808 0.950 . S
H1798 C1810 0.950 . S
H1799 C1811 0.950 . S
C1800 H1792 0.950 . S
C1800 C1801 1.386 . S
C1800 C1802 1.391 . S
C1801 C1800 1.386 . S
C1801 C1805 1.393 . S
C1802 H1794 0.950 . S
C1802 C1800 1.391 . S
C1802 C1803 1.400 . S
C1803 C1802 1.400 . S
C1803 C1804 1.398 . S
C1803 C1809 1.491 . S
C1804 H1795 0.950 . S
C1804 C1803 1.398 . S
C1804 C1805 1.391 . S
C1805 H1793 0.950 . S
C1805 C1801 1.393 . S
C1805 C1804 1.391 . S
C1806 H1796 0.950 . S
C1806 C1807 1.386 . S
C1806 C1808 1.391 . S
C1807 C1806 1.386 . S
C1807 C1811 1.393 . S
C1808 H1797 0.950 . S
C1808 C1806 1.391 . S
C1808 C1809 1.400 . S
C1809 C1803 1.491 . S
C1809 C1808 1.400 . S
C1809 C1810 1.398 . S
C1810 H1798 0.950 . S
C1810 C1809 1.398 . S
C1810 C1811 1.391 . S
C1811 H1799 0.950 . S
C1811 C1807 1.393 . S
C1811 C1810 1.391 . S
H1812 C1820 0.950 . S
H1813 C1825 0.950 . S
H1814 C1822 0.950 . S
H1815 C1824 0.950 . S
H1816 C1826 0.950 . S
H1817 C1828 0.950 . S
H1818 C1830 0.950 . S
H1819 C1831 0.950 . S
C1820 H1812 0.950 . S
C1820 C1821 1.386 . S
C1820 C1822 1.391 . S
C1821 C1820 1.386 . S
C1821 C1825 1.393 . S
C1822 H1814 0.950 . S
C1822 C1820 1.391 . S
C1822 C1823 1.400 . S
C1823 C1822 1.400 . S
C1823 C1824 1.398 . S
C1823 C1829 1.491 . S
C1824 H1815 0.950 . S
C1824 C1823 1.398 . S
C1824 C1825 1.391 . S
C1825 H1813 0.950 . S
C1825 C1821 1.393 . S
C1825 C1824 1.391 . S
C1826 H1816 0.950 . S
C1826 C1827 1.386 . S
C1826 C1828 1.391 . S
C1827 C1826 1.386 . S
C1827 C1831 1.393 . S
C1828 H1817 0.950 . S
C1828 C1826 1.391 . S
C1828 C1829 1.400 . S
C1829 C1823 1.491 . S
C1829 C1828 1.400 . S
C1829 C1830 1.398 . S
C1830 H1818 0.950 . S
C1830 C1829 1.398 . S
C1830 C1831 1.391 . S
C1831 H1819 0.950 . S
C1831 C1827 1.393 . S
C1831 C1830 1.391 . S
H1832 C1840 0.950 . S
H1833 C1845 0.950 . S
H1834 C1842 0.950 . S
H1835 C1844 0.950 . S
H1836 C1846 0.950 . S
H1837 C1848 0.950 . S
H1838 C1850 0.950 . S
H1839 C1851 0.950 . S
C1840 H1832 0.950 . S
C1840 C1841 1.386 . S
C1840 C1842 1.391 . S
C1841 C1840 1.386 . S
C1841 C1845 1.393 . S
C1842 H1834 0.950 . S
C1842 C1840 1.391 . S
C1842 C1843 1.400 . S
C1843 C1842 1.400 . S
C1843 C1844 1.398 . S
C1843 C1849 1.491 . S
C1844 H1835 0.950 . S
C1844 C1843 1.398 . S
C1844 C1845 1.391 . S
C1845 H1833 0.950 . S
C1845 C1841 1.393 . S
C1845 C1844 1.391 . S
C1846 H1836 0.950 . S
C1846 C1847 1.386 . S
C1846 C1848 1.391 . S
C1847 C1846 1.386 . S
C1847 C1851 1.393 . S
C1848 H1837 0.950 . S
C1848 C1846 1.391 . S
C1848 C1849 1.400 . S
C1849 C1843 1.491 . S
C1849 C1848 1.400 . S
C1849 C1850 1.398 . S
C1850 H1838 0.950 . S
C1850 C1849 1.398 . S
C1850 C1851 1.391 . S
C1851 H1839 0.950 . S
C1851 C1847 1.393 . S
C1851 C1850 1.391 . S
H1852 C1860 0.950 . S
H1853 C1865 0.950 . S
H1854 C1862 0.950 . S
H1855 C1864 0.950 . S
H1856 C1866 0.950 . S
H1857 C1868 0.950 . S
H1858 C1870 0.950 . S
H1859 C1871 0.950 . S
C1860 H1852 0.950 . S
C1860 C1861 1.386 . S
C1860 C1862 1.391 . S
C1861 C1860 1.386 . S
C1861 C1865 1.393 . S
C1862 H1854 0.950 . S
C1862 C1860 1.391 . S
C1862 C1863 1.400 . S
C1863 C1862 1.400 . S
C1863 C1864 1.398 . S
C1863 C1869 1.491 . S
C1864 H1855 0.950 . S
C1864 C1863 1.398 . S
C1864 C1865 1.391 . S
C1865 H1853 0.950 . S
C1865 C1861 1.393 . S
C1865 C1864 1.391 . S
C1866 H1856 0.950 . S
C1866 C1867 1.386 . S
C1866 C1868 1.391 . S
C1867 C1866 1.386 . S
C1867 C1871 1.393 . S
C1868 H1857 0.950 . S
C1868 C1866 1.391 . S
C1868 C1869 1.400 . S
C1869 C1863 1.491 . S
C1869 C1868 1.400 . S
C1869 C1870 1.398 . S
C1870 H1858 0.950 . S
C1870 C1869 1.398 . S
C1870 C1871 1.391 . S
C1871 H1859 0.950 . S
C1871 C1867 1.393 . S
C1871 C1870 1.391 . S
H1872 C1880 0.950 . S
H1873 C1885 0.950 . S
H1874 C1882 0.950 . S
H1875 C1884 0.950 . S
H1876 C1886 0.950 . S
H1877 C1888 0.950 . S
H1878 C1890 0.950 . S
H1879 C1891 0.950 . S
C1880 H1872 0.950 . S
C1880 C1881 1.386 . S
C1880 C1882 1.391 . S
C1881 C1880 1.386 . S
C1881 C1885 1.393 . S
C1882 H1874 0.950 . S
C1882 C1880 1.391 . S
C1882 C1883 1.400 . S
C1883 C1882 1.400 . S
C1883 C1884 1.398 . S
C1883 C1889 1.491 . S
C1884 H1875 0.950 . S
C1884 C1883 1.398 . S
C1884 C1885 1.391 . S
C1885 H1873 0.950 . S
C1885 C1881 1.393 . S
C1885 C1884 1.391 . S
C1886 H1876 0.950 . S
C1886 C1887 1.386 . S
C1886 C1888 1.391 . S
C1887 C1886 1.386 . S
C1887 C1891 1.393 . S
C1888 H1877 0.950 . S
C1888 C1886 1.391 . S
C1888 C1889 1.400 . S
C1889 C1883 1.491 . S
C1889 C1888 1.400 . S
C1889 C1890 1.398 . S
C1890 H1878 0.950 . S
C1890 C1889 1.398 . S
C1890 C1891 1.391 . S
C1891 H1879 0.950 . S
C1891 C1887 1.393 . S
C1891 C1890 1.391 . S
H1892 C1900 0.950 . S
H1893 C1905 0.950 . S
H1894 C1902 0.950 . S
H1895 C1904 0.950 . S
H1896 C1906 0.950 . S
H1897 C1908 0.950 . S
H1898 C1910 0.950 . S
H1899 C1911 0.950 . S
C1900 H1892 0.950 . S
C1900 C1901 1.386 . S
C1900 C1902 1.391 . S
C1901 C1900 1.386 . S
C1901 C1905 1.393 . S
C1902 H1894 0.950 . S
C1902 C1900 1.391 . S
C1902 C1903 1.400 . S
C1903 C1902 1.400 . S
C1903 C1904 1.398 . S
C1903 C1909 1.491 . S
C1904 H1895 0.950 . S
C1904 C1903 1.398 . S
C1904 C1905 1.391 . S
C1905 H1893 0.950 . S
C1905 C1901 1.393 . S
C1905 C1904 1.391 . S
C1906 H1896 0.950 . S
C1906 C1907 1.386 . S
C1906 C1908 1.391 . S
C1907 C1906 1.386 . S
C1907 C1911 1.393 . S
C1908 H1897 0.950 . S
C1908 C1906 1.391 . S
C1908 C1909 1.400 . S
C1909 C1903 1.491 . S
C1909 C1908 1.400 . S
C1909 C1910 1.398 . S
C1910 H1898 0.950 . S
C1910 C1909 1.398 . S
C1910 C1911 1.391 . S
C1911 H1899 0.950 . S
C1911 C1907 1.393 . S
C1911 C1910 1.391 . S
H1912 C1920 0.950 . S
H1913 C1925 0.950 . S
H1914 C1922 0.950 . S
H1915 C1924 0.950 . S
H1916 C1926 0.950 . S
H1917 C1928 0.950 . S
H1918 C1930 0.950 . S
H1919 C1931 0.950 . S
C1920 H1912 0.950 . S
C1920 C1921 1.386 . S
C1920 C1922 1.391 . S
C1921 C1920 1.386 . S
C1921 C1925 1.393 . S
C1922 H1914 0.950 . S
C1922 C1920 1.391 . S
C1922 C1923 1.400 . S
C1923 C1922 1.400 . S
C1923 C1924 1.398 . S
C1923 C1929 1.491 . S
C1924 H1915 0.950 . S
C1924 C1923 1.398 . S
C1924 C1925 1.391 . S
C1925 H1913 0.950 . S
C1925 C1921 1.393 . S
C1925 C1924 1.391 . S
C1926 H1916 0.950 . S
C1926 C1927 1.386 . S
C1926 C1928 1.391 . S
C1927 C1926 1.386 . S
C1927 C1931 1.393 . S
C1928 H1917 0.950 . S
C1928 C1926 1.391 . S
C1928 C1929 1.400 . S
C1929 C1923 1.491 . S
C1929 C1928 1.400 . S
C1929 C1930 1.398 . S
C1930 H1918 0.950 . S
C1930 C1929 1.398 . S
C1930 C1931 1.391 . S
C1931 H1919 0.950 . S
C1931 C1927 1.393 . S
C1931 C1930 1.391 . S
H1932 C1940 0.950 . S
H1933 C1945 0.950 . S
H1934 C1942 0.950 . S
H1935 C1944 0.950 . S
H1936 C1946 0.950 . S
H1937 C1948 0.950 . S
H1938 C1950 0.950 . S
H1939 C1951 0.950 . S
C1940 H1932 0.950 . S
C1940 C1941 1.386 . S
C1940 C1942 1.391 . S
C1941 C1940 1.386 . S
C1941 C1945 1.393 . S
C1942 H1934 0.950 . S
C1942 C1940 1.391 . S
C1942 C1943 1.400 . S
C1943 C1942 1.400 . S
C1943 C1944 1.398 . S
C1943 C1949 1.491 . S
C1944 H1935 0.950 . S
C1944 C1943 1.398 . S
C1944 C1945 1.391 . S
C1945 H1933 0.950 . S
C1945 C1941 1.393 . S
C1945 C1944 1.391 . S
C1946 H1936 0.950 . S
C1946 C1947 1.386 . S
C1946 C1948 1.391 . S
C1947 C1946 1.386 . S
C1947 C1951 1.393 . S
C1948 H1937 0.950 . S
C1948 C1946 1.391 . S
C1948 C1949 1.400 . S
C1949 C1943 1.491 . S
C1949 C1948 1.400 . S
C1949 C1950 1.398 . S
C1950 H1938 0.950 . S
C1950 C1949 1.398 . S
C1950 C1951 1.391 . S
C1951 H1939 0.950 . S
C1951 C1947 1.393 . S
C1951 C1950 1.391 . S
H1952 C1960 0.950 . S
H1953 C1965 0.950 . S
H1954 C1962 0.950 . S
H1955 C1964 0.950 . S
H1956 C1966 0.950 1_554 S
H1957 C1968 0.950 1_655 S
H1958 C1970 0.950 . S
H1959 C1971 0.950 . S
C1960 H1952 0.950 . S
C1960 C1961 1.396 . S
C1960 C1962 1.391 . S
C1961 C1960 1.396 . S
C1961 C1965 1.379 1_455 S
C1962 H1954 0.950 . S
C1962 C1960 1.391 . S
C1962 C1963 1.400 . S
C1963 C1962 1.400 . S
C1963 C1964 1.398 1_455 S
C1963 C1969 1.491 . S
C1964 H1955 0.950 . S
C1964 C1963 1.398 1_655 S
C1964 C1965 1.391 . S
C1965 H1953 0.950 . S
C1965 C1961 1.379 1_655 S
C1965 C1964 1.391 . S
C1966 H1956 0.950 1_556 S
C1966 C1967 1.386 . S
C1966 C1968 1.391 . S
C1967 C1966 1.386 . S
C1967 C1971 1.393 . S
C1968 H1957 0.950 1_455 S
C1968 C1966 1.391 . S
C1968 C1969 1.400 . S
C1969 C1963 1.491 . S
C1969 C1968 1.400 . S
C1969 C1970 1.398 . S
C1970 H1958 0.950 . S
C1970 C1969 1.398 . S
C1970 C1971 1.391 . S
C1971 H1959 0.950 . S
C1971 C1967 1.393 . S
C1971 C1970 1.391 . S
H1972 C1980 0.950 . S
H1973 C1985 0.950 . S
H1974 C1982 0.950 1_655 S
H1975 C1984 0.950 . S
H1976 C1986 0.950 . S
H1977 C1988 0.950 . S
H1978 C1990 0.950 . S
H1979 C1991 0.950 . S
C1980 H1972 0.950 . S
C1980 C1981 1.386 . S
C1980 C1982 1.391 . S
C1981 C1980 1.386 . S
C1981 C1985 1.393 . S
C1982 H1974 0.950 1_455 S
C1982 C1980 1.391 . S
C1982 C1983 1.400 . S
C1983 C1982 1.400 . S
C1983 C1984 1.398 . S
C1983 C1989 1.491 1_455 S
C1984 H1975 0.950 . S
C1984 C1983 1.398 . S
C1984 C1985 1.391 . S
C1985 H1973 0.950 . S
C1985 C1981 1.393 . S
C1985 C1984 1.391 . S
C1986 H1976 0.950 . S
C1986 C1987 1.386 . S
C1986 C1988 1.391 . S
C1987 C1986 1.386 . S
C1987 C1991 1.393 . S
C1988 H1977 0.950 . S
C1988 C1986 1.391 . S
C1988 C1989 1.400 . S
C1989 C1983 1.491 1_655 S
C1989 C1988 1.400 . S
C1989 C1990 1.398 . S
C1990 H1978 0.950 . S
C1990 C1989 1.398 . S
C1990 C1991 1.391 . S
C1991 H1979 0.950 . S
C1991 C1987 1.393 . S
C1991 C1990 1.391 . S
H1992 C2000 0.950 . S
H1993 C2005 0.950 . S
H1994 C2002 0.950 . S
H1995 C2004 0.950 . S
H1996 C2006 0.950 . S
H1997 C2008 0.950 . S
H1998 C2010 0.950 . S
H1999 C2011 0.950 . S
C2000 H1992 0.950 . S
C2000 C2001 1.386 . S
C2000 C2002 1.391 . S
C2001 C2000 1.386 . S
C2001 C2005 1.393 . S
C2002 H1994 0.950 . S
C2002 C2000 1.391 . S
C2002 C2003 1.400 . S
C2003 C2002 1.400 . S
C2003 C2004 1.398 . S
C2003 C2009 1.491 . S
C2004 H1995 0.950 . S
C2004 C2003 1.398 . S
C2004 C2005 1.391 . S
C2005 H1993 0.950 . S
C2005 C2001 1.393 . S
C2005 C2004 1.391 . S
C2006 H1996 0.950 . S
C2006 C2007 1.386 . S
C2006 C2008 1.391 . S
C2007 C2006 1.386 . S
C2007 C2011 1.393 . S
C2008 H1997 0.950 . S
C2008 C2006 1.391 . S
C2008 C2009 1.400 . S
C2009 C2003 1.491 . S
C2009 C2008 1.400 . S
C2009 C2010 1.398 . S
C2010 H1998 0.950 . S
C2010 C2009 1.398 . S
C2010 C2011 1.391 . S
C2011 H1999 0.950 . S
C2011 C2007 1.393 . S
C2011 C2010 1.391 . S
H2012 C2020 0.950 . S
H2013 C2025 0.950 . S
H2014 C2022 0.950 . S
H2015 C2024 0.950 . S
H2016 C2026 0.950 . S
H2017 C2028 0.950 . S
H2018 C2030 0.950 . S
H2019 C2031 0.950 . S
C2020 H2012 0.950 . S
C2020 C2021 1.386 . S
C2020 C2022 1.391 . S
C2021 C2020 1.386 . S
C2021 C2025 1.393 . S
C2022 H2014 0.950 . S
C2022 C2020 1.391 . S
C2022 C2023 1.400 . S
C2023 C2022 1.400 . S
C2023 C2024 1.398 . S
C2023 C2029 1.491 . S
C2024 H2015 0.950 . S
C2024 C2023 1.398 . S
C2024 C2025 1.391 . S
C2025 H2013 0.950 . S
C2025 C2021 1.393 . S
C2025 C2024 1.391 . S
C2026 H2016 0.950 . S
C2026 C2027 1.386 . S
C2026 C2028 1.391 . S
C2027 C2026 1.386 . S
C2027 C2031 1.393 . S
C2028 H2017 0.950 . S
C2028 C2026 1.391 . S
C2028 C2029 1.400 . S
C2029 C2023 1.491 . S
C2029 C2028 1.400 . S
C2029 C2030 1.398 . S
C2030 H2018 0.950 . S
C2030 C2029 1.398 . S
C2030 C2031 1.391 . S
C2031 H2019 0.950 . S
C2031 C2027 1.393 . S
C2031 C2030 1.391 . S
H2032 C2040 0.950 . S
H2033 C2045 0.950 . S
H2034 C2042 0.957 . S
H2035 C2044 0.950 . S
H2036 C2046 0.950 . S
H2037 C2048 0.950 . S
H2038 C2050 0.981 . S
H2039 C2051 0.924 1_655 S
C2040 H2032 0.950 . S
C2040 C2041 1.386 . S
C2040 C2042 1.391 . S
C2041 C2040 1.386 . S
C2041 C2045 1.393 . S
C2042 H2034 0.957 . S
C2042 C2040 1.391 . S
C2042 C2043 1.400 . S
C2043 C2042 1.400 . S
C2043 C2044 1.398 . S
C2043 C2049 1.491 . S
C2044 H2035 0.950 . S
C2044 C2043 1.398 . S
C2044 C2045 1.391 . S
C2045 H2033 0.950 . S
C2045 C2041 1.393 . S
C2045 C2044 1.391 . S
C2046 H2036 0.950 . S
C2046 C2047 1.386 . S
C2046 C2048 1.391 . S
C2047 C2046 1.386 . S
C2047 C2051 1.393 . S
C2048 H2037 0.950 . S
C2048 C2046 1.391 . S
C2048 C2049 1.400 . S
C2049 C2043 1.491 . S
C2049 C2048 1.400 . S
C2049 C2050 1.398 . S
C2050 H2038 0.981 . S
C2050 C2049 1.398 . S
C2050 C2051 1.391 . S
C2051 H2039 0.924 1_455 S
C2051 C2047 1.393 . S
C2051 C2050 1.391 . S
H2052 C2060 0.950 . S
H2053 C2065 0.950 . S
H2054 C2062 0.950 . S
H2055 C2064 0.950 . S
H2056 C2066 0.950 . S
H2057 C2068 0.950 . S
H2058 C2070 0.950 . S
H2059 C2071 0.950 . S
C2060 H2052 0.950 . S
C2060 C2061 1.386 . S
C2060 C2062 1.391 . S
C2061 C2060 1.386 . S
C2061 C2065 1.393 . S
C2062 H2054 0.950 . S
C2062 C2060 1.391 . S
C2062 C2063 1.400 . S
C2063 C2062 1.400 . S
C2063 C2064 1.398 . S
C2063 C2069 1.491 . S
C2064 H2055 0.950 . S
C2064 C2063 1.398 . S
C2064 C2065 1.391 . S
C2065 H2053 0.950 . S
C2065 C2061 1.393 . S
C2065 C2064 1.391 . S
C2066 H2056 0.950 . S
C2066 C2067 1.386 . S
C2066 C2068 1.391 . S
C2067 C2066 1.386 . S
C2067 C2071 1.393 . S
C2068 H2057 0.950 . S
C2068 C2066 1.391 . S
C2068 C2069 1.400 . S
C2069 C2063 1.491 . S
C2069 C2068 1.400 . S
C2069 C2070 1.398 . S
C2070 H2058 0.950 . S
C2070 C2069 1.398 . S
C2070 C2071 1.391 . S
C2071 H2059 0.950 . S
C2071 C2067 1.393 . S
C2071 C2070 1.391 . S
H2072 C2080 0.950 . S
H2073 C2085 0.950 . S
H2074 C2082 0.950 . S
H2075 C2084 0.950 . S
H2076 C2086 0.950 . S
H2077 C2088 0.950 . S
H2078 C2090 0.950 . S
H2079 C2091 0.950 . S
C2080 H2072 0.950 . S
C2080 C2081 1.386 . S
C2080 C2082 1.391 . S
C2081 C2080 1.386 . S
C2081 C2085 1.393 . S
C2082 H2074 0.950 . S
C2082 C2080 1.391 . S
C2082 C2083 1.400 . S
C2083 C2082 1.400 . S
C2083 C2084 1.398 . S
C2083 C2089 1.491 . S
C2084 H2075 0.950 . S
C2084 C2083 1.398 . S
C2084 C2085 1.391 . S
C2085 H2073 0.950 . S
C2085 C2081 1.393 . S
C2085 C2084 1.391 . S
C2086 H2076 0.950 . S
C2086 C2087 1.386 . S
C2086 C2088 1.391 . S
C2087 C2086 1.386 . S
C2087 C2091 1.393 . S
C2088 H2077 0.950 . S
C2088 C2086 1.391 . S
C2088 C2089 1.400 . S
C2089 C2083 1.491 . S
C2089 C2088 1.400 . S
C2089 C2090 1.398 . S
C2090 H2078 0.950 . S
C2090 C2089 1.398 . S
C2090 C2091 1.391 . S
C2091 H2079 0.950 . S
C2091 C2087 1.393 . S
C2091 C2090 1.391 . S
H2092 C2100 0.950 . S
H2093 C2105 0.950 . S
H2094 C2102 0.950 . S
H2095 C2104 0.950 . S
H2096 C2106 0.950 . S
H2097 C2108 0.950 . S
H2098 C2110 0.950 . S
H2099 C2111 0.950 . S
C2100 H2092 0.950 . S
C2100 C2101 1.386 . S
C2100 C2102 1.391 . S
C2101 C2100 1.386 . S
C2101 C2105 1.393 . S
C2102 H2094 0.950 . S
C2102 C2100 1.391 . S
C2102 C2103 1.400 . S
C2103 C2102 1.400 . S
C2103 C2104 1.398 . S
C2103 C2109 1.491 . S
C2104 H2095 0.950 . S
C2104 C2103 1.398 . S
C2104 C2105 1.391 . S
C2105 H2093 0.950 . S
C2105 C2101 1.393 . S
C2105 C2104 1.391 . S
C2106 H2096 0.950 . S
C2106 C2107 1.386 . S
C2106 C2108 1.391 . S
C2107 C2106 1.386 . S
C2107 C2111 1.393 . S
C2108 H2097 0.950 . S
C2108 C2106 1.391 . S
C2108 C2109 1.400 . S
C2109 C2103 1.491 . S
C2109 C2108 1.400 . S
C2109 C2110 1.398 . S
C2110 H2098 0.950 . S
C2110 C2109 1.398 . S
C2110 C2111 1.391 . S
C2111 H2099 0.950 . S
C2111 C2107 1.393 . S
C2111 C2110 1.391 . S
H2112 C2120 0.950 . S
H2113 C2125 0.950 . S
H2114 C2122 0.950 . S
H2115 C2124 0.950 . S
H2116 C2126 0.950 . S
H2117 C2128 0.950 . S
H2118 C2130 0.950 . S
H2119 C2131 0.950 . S
C2120 H2112 0.950 . S
C2120 C2121 1.386 . S
C2120 C2122 1.391 . S
C2121 C2120 1.386 . S
C2121 C2125 1.393 . S
C2122 H2114 0.950 . S
C2122 C2120 1.391 . S
C2122 C2123 1.400 . S
C2123 C2122 1.400 . S
C2123 C2124 1.398 . S
C2123 C2129 1.491 . S
C2124 H2115 0.950 . S
C2124 C2123 1.398 . S
C2124 C2125 1.391 . S
C2125 H2113 0.950 . S
C2125 C2121 1.393 . S
C2125 C2124 1.391 . S
C2126 H2116 0.950 . S
C2126 C2127 1.386 . S
C2126 C2128 1.391 . S
C2127 C2126 1.386 . S
C2127 C2131 1.393 . S
C2128 H2117 0.950 . S
C2128 C2126 1.391 . S
C2128 C2129 1.400 . S
C2129 C2123 1.491 . S
C2129 C2128 1.400 . S
C2129 C2130 1.398 . S
C2130 H2118 0.950 . S
C2130 C2129 1.398 . S
C2130 C2131 1.391 . S
C2131 H2119 0.950 . S
C2131 C2127 1.393 . S
C2131 C2130 1.391 . S
H2132 C2140 0.950 . S
H2133 C2145 0.950 . S
H2134 C2142 0.950 . S
H2135 C2144 0.950 . S
H2136 C2146 0.950 . S
H2137 C2148 0.950 . S
H2138 C2150 0.950 . S
H2139 C2151 0.950 . S
C2140 H2132 0.950 . S
C2140 C2141 1.386 . S
C2140 C2142 1.391 . S
C2141 C2140 1.386 . S
C2141 C2145 1.393 . S
C2142 H2134 0.950 . S
C2142 C2140 1.391 . S
C2142 C2143 1.400 . S
C2143 C2142 1.400 . S
C2143 C2144 1.398 . S
C2143 C2149 1.491 . S
C2144 H2135 0.950 . S
C2144 C2143 1.398 . S
C2144 C2145 1.391 . S
C2145 H2133 0.950 . S
C2145 C2141 1.393 . S
C2145 C2144 1.391 . S
C2146 H2136 0.950 . S
C2146 C2147 1.386 . S
C2146 C2148 1.391 . S
C2147 C2146 1.386 . S
C2147 C2151 1.393 . S
C2148 H2137 0.950 . S
C2148 C2146 1.391 . S
C2148 C2149 1.400 . S
C2149 C2143 1.491 . S
C2149 C2148 1.400 . S
C2149 C2150 1.398 . S
C2150 H2138 0.950 . S
C2150 C2149 1.398 . S
C2150 C2151 1.391 . S
C2151 H2139 0.950 . S
C2151 C2147 1.393 . S
C2151 C2150 1.391 . S
H2152 C2160 0.950 . S
H2153 C2165 0.950 . S
H2154 C2162 0.950 . S
H2155 C2164 0.950 . S
H2156 C2166 0.950 . S
H2157 C2168 0.950 . S
H2158 C2170 0.950 . S
H2159 C2171 0.950 . S
C2160 H2152 0.950 . S
C2160 C2161 1.386 . S
C2160 C2162 1.391 . S
C2161 C2160 1.386 . S
C2161 C2165 1.393 . S
C2162 H2154 0.950 . S
C2162 C2160 1.391 . S
C2162 C2163 1.400 . S
C2163 C2162 1.400 . S
C2163 C2164 1.398 . S
C2163 C2169 1.491 . S
C2164 H2155 0.950 . S
C2164 C2163 1.398 . S
C2164 C2165 1.391 . S
C2165 H2153 0.950 . S
C2165 C2161 1.393 . S
C2165 C2164 1.391 . S
C2166 H2156 0.950 . S
C2166 C2167 1.386 . S
C2166 C2168 1.391 . S
C2167 C2166 1.386 . S
C2167 C2171 1.393 . S
C2168 H2157 0.950 . S
C2168 C2166 1.391 . S
C2168 C2169 1.400 . S
C2169 C2163 1.491 . S
C2169 C2168 1.400 . S
C2169 C2170 1.398 . S
C2170 H2158 0.950 . S
C2170 C2169 1.398 . S
C2170 C2171 1.391 . S
C2171 H2159 0.950 . S
C2171 C2167 1.393 . S
C2171 C2170 1.391 . S
H2172 C2180 0.950 . S
H2173 C2185 0.950 . S
H2174 C2182 0.950 . S
H2175 C2184 0.950 . S
H2176 C2186 0.950 . S
H2177 C2188 0.950 . S
H2178 C2190 0.950 . S
H2179 C2191 0.950 . S
C2180 H2172 0.950 . S
C2180 C2181 1.386 . S
C2180 C2182 1.391 . S
C2181 C2180 1.386 . S
C2181 C2185 1.393 . S
C2182 H2174 0.950 . S
C2182 C2180 1.391 . S
C2182 C2183 1.400 . S
C2183 C2182 1.400 . S
C2183 C2184 1.398 . S
C2183 C2189 1.491 . S
C2184 H2175 0.950 . S
C2184 C2183 1.398 . S
C2184 C2185 1.391 . S
C2185 H2173 0.950 . S
C2185 C2181 1.393 . S
C2185 C2184 1.391 . S
C2186 H2176 0.950 . S
C2186 C2187 1.386 . S
C2186 C2188 1.391 . S
C2187 C2186 1.386 . S
C2187 C2191 1.393 . S
C2188 H2177 0.950 . S
C2188 C2186 1.391 . S
C2188 C2189 1.400 . S
C2189 C2183 1.491 . S
C2189 C2188 1.400 . S
C2189 C2190 1.398 . S
C2190 H2178 0.950 . S
C2190 C2189 1.398 . S
C2190 C2191 1.391 . S
C2191 H2179 0.950 . S
C2191 C2187 1.393 . S
C2191 C2190 1.391 . S
H2192 C2200 0.950 . S
H2193 C2205 0.950 . S
H2194 C2202 0.950 . S
H2195 C2204 0.950 . S
H2196 C2206 0.950 . S
H2197 C2208 0.950 . S
H2198 C2210 0.950 . S
H2199 C2211 0.950 . S
C2200 H2192 0.950 . S
C2200 C2201 1.386 . S
C2200 C2202 1.391 . S
C2201 C2200 1.386 . S
C2201 C2205 1.393 . S
C2202 H2194 0.950 . S
C2202 C2200 1.391 . S
C2202 C2203 1.400 . S
C2203 C2202 1.400 . S
C2203 C2204 1.398 . S
C2203 C2209 1.491 . S
C2204 H2195 0.950 . S
C2204 C2203 1.398 . S
C2204 C2205 1.391 . S
C2205 H2193 0.950 . S
C2205 C2201 1.393 . S
C2205 C2204 1.391 . S
C2206 H2196 0.950 . S
C2206 C2207 1.386 . S
C2206 C2208 1.391 . S
C2207 C2206 1.386 . S
C2207 C2211 1.393 . S
C2208 H2197 0.950 . S
C2208 C2206 1.391 . S
C2208 C2209 1.400 . S
C2209 C2203 1.491 . S
C2209 C2208 1.400 . S
C2209 C2210 1.398 . S
C2210 H2198 0.950 . S
C2210 C2209 1.398 . S
C2210 C2211 1.391 . S
C2211 H2199 0.950 . S
C2211 C2207 1.393 . S
C2211 C2210 1.391 . S
H2212 C2220 0.950 . S
H2213 C2225 0.950 . S
H2214 C2222 0.950 . S
H2215 C2224 0.950 . S
H2216 C2226 0.950 . S
H2217 C2228 0.950 . S
H2218 C2230 0.950 . S
H2219 C2231 0.950 . S
C2220 H2212 0.950 . S
C2220 C2221 1.386 . S
C2220 C2222 1.391 . S
C2221 C2220 1.386 . S
C2221 C2225 1.393 . S
C2222 H2214 0.950 . S
C2222 C2220 1.391 . S
C2222 C2223 1.400 . S
C2223 C2222 1.400 . S
C2223 C2224 1.398 . S
C2223 C2229 1.491 . S
C2224 H2215 0.950 . S
C2224 C2223 1.398 . S
C2224 C2225 1.391 . S
C2225 H2213 0.950 . S
C2225 C2221 1.393 . S
C2225 C2224 1.391 . S
C2226 H2216 0.950 . S
C2226 C2227 1.386 . S
C2226 C2228 1.391 . S
C2227 C2226 1.386 . S
C2227 C2231 1.393 . S
C2228 H2217 0.950 . S
C2228 C2226 1.391 . S
C2228 C2229 1.400 . S
C2229 C2223 1.491 . S
C2229 C2228 1.400 . S
C2229 C2230 1.398 . S
C2230 H2218 0.950 . S
C2230 C2229 1.398 . S
C2230 C2231 1.391 . S
C2231 H2219 0.950 . S
C2231 C2227 1.393 . S
C2231 C2230 1.391 . S
H2232 C2240 0.950 . S
H2233 C2245 0.950 . S
H2234 C2242 0.950 . S
H2235 C2244 0.950 . S
H2236 C2246 0.950 . S
H2237 C2248 0.950 . S
H2238 C2250 0.950 . S
H2239 C2251 0.950 . S
C2240 H2232 0.950 . S
C2240 C2241 1.386 . S
C2240 C2242 1.391 . S
C2241 C2240 1.386 . S
C2241 C2245 1.393 . S
C2242 H2234 0.950 . S
C2242 C2240 1.391 . S
C2242 C2243 1.400 . S
C2243 C2242 1.400 . S
C2243 C2244 1.398 . S
C2243 C2249 1.491 . S
C2244 H2235 0.950 . S
C2244 C2243 1.398 . S
C2244 C2245 1.391 . S
C2245 H2233 0.950 . S
C2245 C2241 1.393 . S
C2245 C2244 1.391 . S
C2246 H2236 0.950 . S
C2246 C2247 1.386 . S
C2246 C2248 1.391 . S
C2247 C2246 1.386 . S
C2247 C2251 1.393 . S
C2248 H2237 0.950 . S
C2248 C2246 1.391 . S
C2248 C2249 1.400 . S
C2249 C2243 1.491 . S
C2249 C2248 1.400 . S
C2249 C2250 1.398 . S
C2250 H2238 0.950 . S
C2250 C2249 1.398 . S
C2250 C2251 1.391 . S
C2251 H2239 0.950 . S
C2251 C2247 1.393 . S
C2251 C2250 1.391 . S
H2252 C2260 0.950 . S
H2253 C2265 0.950 . S
H2254 C2262 0.950 . S
H2255 C2264 0.950 . S
H2256 C2266 0.950 . S
H2257 C2268 0.950 . S
H2258 C2270 0.950 . S
H2259 C2271 0.950 . S
C2260 H2252 0.950 . S
C2260 C2261 1.386 . S
C2260 C2262 1.391 . S
C2261 C2260 1.386 . S
C2261 C2265 1.393 . S
C2262 H2254 0.950 . S
C2262 C2260 1.391 . S
C2262 C2263 1.400 . S
C2263 C2262 1.400 . S
C2263 C2264 1.398 . S
C2263 C2269 1.491 . S
C2264 H2255 0.950 . S
C2264 C2263 1.398 . S
C2264 C2265 1.391 . S
C2265 H2253 0.950 . S
C2265 C2261 1.393 . S
C2265 C2264 1.391 . S
C2266 H2256 0.950 . S
C2266 C2267 1.386 . S
C2266 C2268 1.391 . S
C2267 C2266 1.386 . S
C2267 C2271 1.393 . S
C2268 H2257 0.950 . S
C2268 C2266 1.391 . S
C2268 C2269 1.400 . S
C2269 C2263 1.491 . S
C2269 C2268 1.400 . S
C2269 C2270 1.398 . S
C2270 H2258 0.950 . S
C2270 C2269 1.398 . S
C2270 C2271 1.391 . S
C2271 H2259 0.950 . S
C2271 C2267 1.393 . S
C2271 C2270 1.391 . S
H2272 C2280 0.950 . S
H2273 C2285 0.950 . S
H2274 C2282 0.950 . S
H2275 C2284 0.950 . S
H2276 C2286 0.950 . S
H2277 C2288 0.950 . S
H2278 C2290 0.950 . S
H2279 C2291 0.950 . S
C2280 H2272 0.950 . S
C2280 C2281 1.386 1_565 S
C2280 C2282 1.391 . S
C2281 C2280 1.386 1_545 S
C2281 C2285 1.393 . S
C2282 H2274 0.950 . S
C2282 C2280 1.391 . S
C2282 C2283 1.400 . S
C2283 C2282 1.400 . S
C2283 C2284 1.398 . S
C2283 C2289 1.491 . S
C2284 H2275 0.950 . S
C2284 C2283 1.398 . S
C2284 C2285 1.391 1_565 S
C2285 H2273 0.950 . S
C2285 C2281 1.393 . S
C2285 C2284 1.391 1_545 S
C2286 H2276 0.950 . S
C2286 C2287 1.386 . S
C2286 C2288 1.391 . S
C2287 C2286 1.386 . S
C2287 C2291 1.393 . S
C2288 H2277 0.950 . S
C2288 C2286 1.391 . S
C2288 C2289 1.400 . S
C2289 C2283 1.491 . S
C2289 C2288 1.400 . S
C2289 C2290 1.398 . S
C2290 H2278 0.950 . S
C2290 C2289 1.398 . S
C2290 C2291 1.391 . S
C2291 H2279 0.950 . S
C2291 C2287 1.393 . S
C2291 C2290 1.391 . S
H2292 C2300 0.950 . S
H2293 C2305 0.950 . S
H2294 C2302 0.950 . S
H2295 C2304 0.950 . S
H2296 C2306 0.950 . S
H2297 C2308 0.950 . S
H2298 C2310 0.950 . S
H2299 C2311 0.950 . S
C2300 H2292 0.950 . S
C2300 C2301 1.386 . S
C2300 C2302 1.391 . S
C2301 C2300 1.386 . S
C2301 C2305 1.393 . S
C2302 H2294 0.950 . S
C2302 C2300 1.391 . S
C2302 C2303 1.400 . S
C2303 C2302 1.400 . S
C2303 C2304 1.398 . S
C2303 C2309 1.491 . S
C2304 H2295 0.950 . S
C2304 C2303 1.398 . S
C2304 C2305 1.391 . S
C2305 H2293 0.950 . S
C2305 C2301 1.393 . S
C2305 C2304 1.391 . S
C2306 H2296 0.950 . S
C2306 C2307 1.386 . S
C2306 C2308 1.391 1_545 S
C2307 C2306 1.386 . S
C2307 C2311 1.393 1_545 S
C2308 H2297 0.950 . S
C2308 C2306 1.391 1_565 S
C2308 C2309 1.400 . S
C2309 C2303 1.491 . S
C2309 C2308 1.400 . S
C2309 C2310 1.398 . S
C2310 H2298 0.950 . S
C2310 C2309 1.398 . S
C2310 C2311 1.391 . S
C2311 H2299 0.950 . S
C2311 C2307 1.393 1_565 S
C2311 C2310 1.391 . S
H2312 C2320 0.950 . S
H2313 C2325 0.950 . S
H2314 C2322 0.950 . S
H2315 C2324 0.950 . S
H2316 C2326 0.950 . S
H2317 C2328 0.950 . S
H2318 C2330 0.950 . S
H2319 C2331 0.950 . S
C2320 H2312 0.950 . S
C2320 C2321 1.386 . S
C2320 C2322 1.391 . S
C2321 C2320 1.386 . S
C2321 C2325 1.393 . S
C2322 H2314 0.950 . S
C2322 C2320 1.391 . S
C2322 C2323 1.400 . S
C2323 C2322 1.400 . S
C2323 C2324 1.398 . S
C2323 C2329 1.491 . S
C2324 H2315 0.950 . S
C2324 C2323 1.398 . S
C2324 C2325 1.391 . S
C2325 H2313 0.950 . S
C2325 C2321 1.393 . S
C2325 C2324 1.391 . S
C2326 H2316 0.950 . S
C2326 C2327 1.386 . S
C2326 C2328 1.391 . S
C2327 C2326 1.386 . S
C2327 C2331 1.393 . S
C2328 H2317 0.950 . S
C2328 C2326 1.391 . S
C2328 C2329 1.400 . S
C2329 C2323 1.491 . S
C2329 C2328 1.400 . S
C2329 C2330 1.398 . S
C2330 H2318 0.950 . S
C2330 C2329 1.398 . S
C2330 C2331 1.391 . S
C2331 H2319 0.950 . S
C2331 C2327 1.393 . S
C2331 C2330 1.391 . S
H2332 C2340 0.950 . S
H2333 C2345 0.950 . S
H2334 C2342 0.950 . S
H2335 C2344 0.950 . S
H2336 C2346 0.950 . S
H2337 C2348 0.950 . S
H2338 C2350 0.950 . S
H2339 C2351 0.950 . S
C2340 H2332 0.950 . S
C2340 C2341 1.386 . S
C2340 C2342 1.391 . S
C2341 C2340 1.386 . S
C2341 C2345 1.393 . S
C2342 H2334 0.950 . S
C2342 C2340 1.391 . S
C2342 C2343 1.400 . S
C2343 C2342 1.400 . S
C2343 C2344 1.398 . S
C2343 C2349 1.491 . S
C2344 H2335 0.950 . S
C2344 C2343 1.398 . S
C2344 C2345 1.391 . S
C2345 H2333 0.950 . S
C2345 C2341 1.393 . S
C2345 C2344 1.391 . S
C2346 H2336 0.950 . S
C2346 C2347 1.386 . S
C2346 C2348 1.391 . S
C2347 C2346 1.386 . S
C2347 C2351 1.393 . S
C2348 H2337 0.950 . S
C2348 C2346 1.391 . S
C2348 C2349 1.400 . S
C2349 C2343 1.491 . S
C2349 C2348 1.400 . S
C2349 C2350 1.398 . S
C2350 H2338 0.950 . S
C2350 C2349 1.398 . S
C2350 C2351 1.391 . S
C2351 H2339 0.950 . S
C2351 C2347 1.393 . S
C2351 C2350 1.391 . S
H2352 C2360 0.950 . S
H2353 C2365 0.950 . S
H2354 C2362 0.950 . S
H2355 C2364 0.950 . S
H2356 C2366 0.950 . S
H2357 C2368 0.950 . S
H2358 C2370 0.950 . S
H2359 C2371 0.950 . S
C2360 H2352 0.950 . S
C2360 C2361 1.386 . S
C2360 C2362 1.391 . S
C2361 C2360 1.386 . S
C2361 C2365 1.393 . S
C2362 H2354 0.950 . S
C2362 C2360 1.391 . S
C2362 C2363 1.400 . S
C2363 C2362 1.400 . S
C2363 C2364 1.398 . S
C2363 C2369 1.491 . S
C2364 H2355 0.950 . S
C2364 C2363 1.398 . S
C2364 C2365 1.391 . S
C2365 H2353 0.950 . S
C2365 C2361 1.393 . S
C2365 C2364 1.391 . S
C2366 H2356 0.950 . S
C2366 C2367 1.386 . S
C2366 C2368 1.391 . S
C2367 C2366 1.386 . S
C2367 C2371 1.393 . S
C2368 H2357 0.950 . S
C2368 C2366 1.391 . S
C2368 C2369 1.400 . S
C2369 C2363 1.491 . S
C2369 C2368 1.400 . S
C2369 C2370 1.398 . S
C2370 H2358 0.950 . S
C2370 C2369 1.398 . S
C2370 C2371 1.391 . S
C2371 H2359 0.950 . S
C2371 C2367 1.393 . S
C2371 C2370 1.391 . S
H2372 C2380 0.950 . S
H2373 C2385 0.950 . S
H2374 C2382 0.938 1_545 S
H2375 C2384 0.950 . S
H2376 C2386 0.950 . S
H2377 C2388 0.950 . S
H2378 C2390 0.950 . S
H2379 C2391 0.950 . S
C2380 H2372 0.950 . S
C2380 C2381 1.386 . S
C2380 C2382 1.377 1_545 S
C2381 C2380 1.386 . S
C2381 C2385 1.393 1_545 S
C2382 H2374 0.938 1_565 S
C2382 C2380 1.377 1_565 S
C2382 C2383 1.426 . S
C2383 C2382 1.426 . S
C2383 C2384 1.398 . S
C2383 C2389 1.491 . S
C2384 H2375 0.950 . S
C2384 C2383 1.398 . S
C2384 C2385 1.391 . S
C2385 H2373 0.950 . S
C2385 C2381 1.393 1_565 S
C2385 C2384 1.391 . S
C2386 H2376 0.950 . S
C2386 C2387 1.386 . S
C2386 C2388 1.391 . S
C2387 C2386 1.386 . S
C2387 C2391 1.393 . S
C2388 H2377 0.950 . S
C2388 C2386 1.391 . S
C2388 C2389 1.400 . S
C2389 C2383 1.491 . S
C2389 C2388 1.400 . S
C2389 C2390 1.398 . S
C2390 H2378 0.950 . S
C2390 C2389 1.398 . S
C2390 C2391 1.391 . S
C2391 H2379 0.950 . S
C2391 C2387 1.393 . S
C2391 C2390 1.391 . S
H2392 C2400 0.950 . S
H2393 C2405 0.950 . S
H2394 C2402 0.950 . S
H2395 C2404 0.950 . S
H2396 C2406 0.950 . S
H2397 C2408 0.950 . S
H2398 C2410 0.950 . S
H2399 C2411 0.950 . S
C2400 H2392 0.950 . S
C2400 C2401 1.386 . S
C2400 C2402 1.391 . S
C2401 C2400 1.386 . S
C2401 C2405 1.393 . S
C2402 H2394 0.950 . S
C2402 C2400 1.391 . S
C2402 C2403 1.400 . S
C2403 C2402 1.400 . S
C2403 C2404 1.398 . S
C2403 C2409 1.491 . S
C2404 H2395 0.950 . S
C2404 C2403 1.398 . S
C2404 C2405 1.391 . S
C2405 H2393 0.950 . S
C2405 C2401 1.393 . S
C2405 C2404 1.391 . S
C2406 H2396 0.950 . S
C2406 C2407 1.386 . S
C2406 C2408 1.391 . S
C2407 C2406 1.386 . S
C2407 C2411 1.393 . S
C2408 H2397 0.950 . S
C2408 C2406 1.391 . S
C2408 C2409 1.400 . S
C2409 C2403 1.491 . S
C2409 C2408 1.400 . S
C2409 C2410 1.398 . S
C2410 H2398 0.950 . S
C2410 C2409 1.398 . S
C2410 C2411 1.391 . S
C2411 H2399 0.950 . S
C2411 C2407 1.393 . S
C2411 C2410 1.391 . S
H2412 C2420 0.950 . S
H2413 C2425 0.950 . S
H2414 C2422 0.950 . S
H2415 C2424 0.950 . S
H2416 C2426 0.950 . S
H2417 C2428 0.950 . S
H2418 C2430 0.950 . S
H2419 C2431 0.950 . S
C2420 H2412 0.950 . S
C2420 C2421 1.386 . S
C2420 C2422 1.391 . S
C2421 C2420 1.386 . S
C2421 C2425 1.393 . S
C2422 H2414 0.950 . S
C2422 C2420 1.391 . S
C2422 C2423 1.400 . S
C2423 C2422 1.400 . S
C2423 C2424 1.398 . S
C2423 C2429 1.491 . S
C2424 H2415 0.950 . S
C2424 C2423 1.398 . S
C2424 C2425 1.391 . S
C2425 H2413 0.950 . S
C2425 C2421 1.393 . S
C2425 C2424 1.391 . S
C2426 H2416 0.950 . S
C2426 C2427 1.386 . S
C2426 C2428 1.391 . S
C2427 C2426 1.386 . S
C2427 C2431 1.393 . S
C2428 H2417 0.950 . S
C2428 C2426 1.391 . S
C2428 C2429 1.400 . S
C2429 C2423 1.491 . S
C2429 C2428 1.400 . S
C2429 C2430 1.398 . S
C2430 H2418 0.950 . S
C2430 C2429 1.398 . S
C2430 C2431 1.391 . S
C2431 H2419 0.950 . S
C2431 C2427 1.393 . S
C2431 C2430 1.391 . S
H2432 C2440 0.950 . S
H2433 C2445 0.950 . S
H2434 C2442 0.950 . S
H2435 C2444 0.950 . S
H2436 C2446 0.950 . S
H2437 C2448 0.950 . S
H2438 C2450 0.950 . S
H2439 C2451 0.950 . S
C2440 H2432 0.950 . S
C2440 C2441 1.386 . S
C2440 C2442 1.391 . S
C2441 C2440 1.386 . S
C2441 C2445 1.393 . S
C2442 H2434 0.950 . S
C2442 C2440 1.391 . S
C2442 C2443 1.400 . S
C2443 C2442 1.400 . S
C2443 C2444 1.398 . S
C2443 C2449 1.491 . S
C2444 H2435 0.950 . S
C2444 C2443 1.398 . S
C2444 C2445 1.391 . S
C2445 H2433 0.950 . S
C2445 C2441 1.393 . S
C2445 C2444 1.391 . S
C2446 H2436 0.950 . S
C2446 C2447 1.386 . S
C2446 C2448 1.391 . S
C2447 C2446 1.386 . S
C2447 C2451 1.393 . S
C2448 H2437 0.950 . S
C2448 C2446 1.391 . S
C2448 C2449 1.400 . S
C2449 C2443 1.491 . S
C2449 C2448 1.400 . S
C2449 C2450 1.398 . S
C2450 H2438 0.950 . S
C2450 C2449 1.398 . S
C2450 C2451 1.391 . S
C2451 H2439 0.950 . S
C2451 C2447 1.393 . S
C2451 C2450 1.391 . S
H2452 C2460 0.950 . S
H2453 C2465 0.950 . S
H2454 C2462 0.950 . S
H2455 C2464 0.950 . S
H2456 C2466 0.950 . S
H2457 C2468 0.950 . S
H2458 C2470 0.950 . S
H2459 C2471 0.950 . S
C2460 H2452 0.950 . S
C2460 C2461 1.386 . S
C2460 C2462 1.391 . S
C2461 C2460 1.386 . S
C2461 C2465 1.393 . S
C2462 H2454 0.950 . S
C2462 C2460 1.391 . S
C2462 C2463 1.400 . S
C2463 C2462 1.400 . S
C2463 C2464 1.398 . S
C2463 C2469 1.491 . S
C2464 H2455 0.950 . S
C2464 C2463 1.398 . S
C2464 C2465 1.391 . S
C2465 H2453 0.950 . S
C2465 C2461 1.393 . S
C2465 C2464 1.391 . S
C2466 H2456 0.950 . S
C2466 C2467 1.386 . S
C2466 C2468 1.391 . S
C2467 C2466 1.386 . S
C2467 C2471 1.393 . S
C2468 H2457 0.950 . S
C2468 C2466 1.391 . S
C2468 C2469 1.400 . S
C2469 C2463 1.491 . S
C2469 C2468 1.400 . S
C2469 C2470 1.398 . S
C2470 H2458 0.950 . S
C2470 C2469 1.398 . S
C2470 C2471 1.391 . S
C2471 H2459 0.950 . S
C2471 C2467 1.393 . S
C2471 C2470 1.391 . S
H2472 C2480 0.950 . S
H2473 C2485 0.950 . S
H2474 C2482 0.950 . S
H2475 C2484 0.950 . S
H2476 C2486 0.950 . S
H2477 C2488 0.950 . S
H2478 C2490 0.950 . S
H2479 C2491 0.950 . S
C2480 H2472 0.950 . S
C2480 C2481 1.386 . S
C2480 C2482 1.391 . S
C2481 C2480 1.386 . S
C2481 C2485 1.393 . S
C2482 H2474 0.950 . S
C2482 C2480 1.391 . S
C2482 C2483 1.400 . S
C2483 C2482 1.400 . S
C2483 C2484 1.398 . S
C2483 C2489 1.491 . S
C2484 H2475 0.950 . S
C2484 C2483 1.398 . S
C2484 C2485 1.391 . S
C2485 H2473 0.950 . S
C2485 C2481 1.393 . S
C2485 C2484 1.391 . S
C2486 H2476 0.950 . S
C2486 C2487 1.386 . S
C2486 C2488 1.391 . S
C2487 C2486 1.386 . S
C2487 C2491 1.393 . S
C2488 H2477 0.950 . S
C2488 C2486 1.391 . S
C2488 C2489 1.400 . S
C2489 C2483 1.491 . S
C2489 C2488 1.400 . S
C2489 C2490 1.398 . S
C2490 H2478 0.950 . S
C2490 C2489 1.398 . S
C2490 C2491 1.391 . S
C2491 H2479 0.950 . S
C2491 C2487 1.393 . S
C2491 C2490 1.391 . S
H2492 C2500 0.950 . S
H2493 C2505 0.950 . S
H2494 C2502 0.950 . S
H2495 C2504 0.950 . S
H2496 C2506 0.950 . S
H2497 C2508 0.950 . S
H2498 C2510 0.950 . S
H2499 C2511 0.950 . S
C2500 H2492 0.950 . S
C2500 C2501 1.386 . S
C2500 C2502 1.391 . S
C2501 C2500 1.386 . S
C2501 C2505 1.393 . S
C2502 H2494 0.950 . S
C2502 C2500 1.391 . S
C2502 C2503 1.400 . S
C2503 C2502 1.400 . S
C2503 C2504 1.398 . S
C2503 C2509 1.491 . S
C2504 H2495 0.950 . S
C2504 C2503 1.398 . S
C2504 C2505 1.391 . S
C2505 H2493 0.950 . S
C2505 C2501 1.393 . S
C2505 C2504 1.391 . S
C2506 H2496 0.950 . S
C2506 C2507 1.386 . S
C2506 C2508 1.391 . S
C2507 C2506 1.386 . S
C2507 C2511 1.393 . S
C2508 H2497 0.950 . S
C2508 C2506 1.391 . S
C2508 C2509 1.400 . S
C2509 C2503 1.491 . S
C2509 C2508 1.400 . S
C2509 C2510 1.398 . S
C2510 H2498 0.950 . S
C2510 C2509 1.398 . S
C2510 C2511 1.391 . S
C2511 H2499 0.950 . S
C2511 C2507 1.393 . S
C2511 C2510 1.391 . S
H2512 C2520 0.950 . S
H2513 C2525 0.950 . S
H2514 C2522 0.950 . S
H2515 C2524 0.950 . S
H2516 C2526 0.950 . S
H2517 C2528 0.950 . S
H2518 C2530 0.950 . S
H2519 C2531 0.950 . S
C2520 H2512 0.950 . S
C2520 C2521 1.386 . S
C2520 C2522 1.391 . S
C2521 C2520 1.386 . S
C2521 C2525 1.393 . S
C2522 H2514 0.950 . S
C2522 C2520 1.391 . S
C2522 C2523 1.400 . S
C2523 C2522 1.400 . S
C2523 C2524 1.398 . S
C2523 C2529 1.491 . S
C2524 H2515 0.950 . S
C2524 C2523 1.398 . S
C2524 C2525 1.391 . S
C2525 H2513 0.950 . S
C2525 C2521 1.393 . S
C2525 C2524 1.391 . S
C2526 H2516 0.950 . S
C2526 C2527 1.386 . S
C2526 C2528 1.391 . S
C2527 C2526 1.386 . S
C2527 C2531 1.393 . S
C2528 H2517 0.950 . S
C2528 C2526 1.391 . S
C2528 C2529 1.400 . S
C2529 C2523 1.491 . S
C2529 C2528 1.400 . S
C2529 C2530 1.398 . S
C2530 H2518 0.950 . S
C2530 C2529 1.398 . S
C2530 C2531 1.391 . S
C2531 H2519 0.950 . S
C2531 C2527 1.393 . S
C2531 C2530 1.391 . S
H2532 C2540 0.950 . S
H2533 C2545 0.950 . S
H2534 C2542 0.950 . S
H2535 C2544 0.950 . S
H2536 C2546 0.950 . S
H2537 C2548 0.950 . S
H2538 C2550 0.950 . S
H2539 C2551 0.950 . S
C2540 H2532 0.950 . S
C2540 C2541 1.386 . S
C2540 C2542 1.391 . S
C2541 C2540 1.386 . S
C2541 C2545 1.393 . S
C2542 H2534 0.950 . S
C2542 C2540 1.391 . S
C2542 C2543 1.400 . S
C2543 C2542 1.400 . S
C2543 C2544 1.398 . S
C2543 C2549 1.491 . S
C2544 H2535 0.950 . S
C2544 C2543 1.398 . S
C2544 C2545 1.391 . S
C2545 H2533 0.950 . S
C2545 C2541 1.393 . S
C2545 C2544 1.391 . S
C2546 H2536 0.950 . S
C2546 C2547 1.386 . S
C2546 C2548 1.391 . S
C2547 C2546 1.386 . S
C2547 C2551 1.393 . S
C2548 H2537 0.950 . S
C2548 C2546 1.391 . S
C2548 C2549 1.400 . S
C2549 C2543 1.491 . S
C2549 C2548 1.400 . S
C2549 C2550 1.398 . S
C2550 H2538 0.950 . S
C2550 C2549 1.398 . S
C2550 C2551 1.391 . S
C2551 H2539 0.950 . S
C2551 C2547 1.393 . S
C2551 C2550 1.391 . S
H2552 C2560 0.950 . S
H2553 C2565 0.950 . S
H2554 C2562 0.950 . S
H2555 C2564 0.950 . S
H2556 C2566 0.950 . S
H2557 C2568 0.950 . S
H2558 C2570 0.950 . S
H2559 C2571 0.950 . S
C2560 H2552 0.950 . S
C2560 C2561 1.386 . S
C2560 C2562 1.391 . S
C2561 C2560 1.386 . S
C2561 C2565 1.393 . S
C2562 H2554 0.950 . S
C2562 C2560 1.391 . S
C2562 C2563 1.400 . S
C2563 C2562 1.400 . S
C2563 C2564 1.398 . S
C2563 C2569 1.491 . S
C2564 H2555 0.950 . S
C2564 C2563 1.398 . S
C2564 C2565 1.391 . S
C2565 H2553 0.950 . S
C2565 C2561 1.393 . S
C2565 C2564 1.391 . S
C2566 H2556 0.950 . S
C2566 C2567 1.386 . S
C2566 C2568 1.391 . S
C2567 C2566 1.386 . S
C2567 C2571 1.393 . S
C2568 H2557 0.950 . S
C2568 C2566 1.391 . S
C2568 C2569 1.400 . S
C2569 C2563 1.491 . S
C2569 C2568 1.400 . S
C2569 C2570 1.398 . S
C2570 H2558 0.950 . S
C2570 C2569 1.398 . S
C2570 C2571 1.391 . S
C2571 H2559 0.950 . S
C2571 C2567 1.393 . S
C2571 C2570 1.391 . S
H2572 C2580 0.950 . S
H2573 C2585 0.950 . S
H2574 C2582 0.950 . S
H2575 C2584 0.950 . S
H2576 C2586 0.950 . S
H2577 C2588 0.950 . S
H2578 C2590 0.950 . S
H2579 C2591 0.950 . S
C2580 H2572 0.950 . S
C2580 C2581 1.386 . S
C2580 C2582 1.391 . S
C2581 C2580 1.386 . S
C2581 C2585 1.393 . S
C2582 H2574 0.950 . S
C2582 C2580 1.391 . S
C2582 C2583 1.400 . S
C2583 C2582 1.400 . S
C2583 C2584 1.398 . S
C2583 C2589 1.491 . S
C2584 H2575 0.950 . S
C2584 C2583 1.398 . S
C2584 C2585 1.391 . S
C2585 H2573 0.950 . S
C2585 C2581 1.393 . S
C2585 C2584 1.391 . S
C2586 H2576 0.950 . S
C2586 C2587 1.386 . S
C2586 C2588 1.391 . S
C2587 C2586 1.386 . S
C2587 C2591 1.393 . S
C2588 H2577 0.950 . S
C2588 C2586 1.391 . S
C2588 C2589 1.400 . S
C2589 C2583 1.491 . S
C2589 C2588 1.400 . S
C2589 C2590 1.398 . S
C2590 H2578 0.950 . S
C2590 C2589 1.398 . S
C2590 C2591 1.391 . S
C2591 H2579 0.950 . S
C2591 C2587 1.393 . S
C2591 C2590 1.391 . S
H2592 C2600 0.950 . S
H2593 C2605 0.950 . S
H2594 C2602 0.950 . S
H2595 C2604 0.956 . S
H2596 C2606 0.950 . S
H2597 C2608 0.950 1_655 S
H2598 C2610 0.950 . S
H2599 C2611 0.950 . S
C2600 H2592 0.950 . S
C2600 C2601 1.386 . S
C2600 C2602 1.391 . S
C2601 C2600 1.386 . S
C2601 C2605 1.393 1_455 S
C2602 H2594 0.950 . S
C2602 C2600 1.391 . S
C2602 C2603 1.400 . S
C2603 C2602 1.400 . S
C2603 C2604 1.392 1_455 S
C2603 C2609 1.491 . S
C2604 H2595 0.956 . S
C2604 C2603 1.392 1_655 S
C2604 C2605 1.392 . S
C2605 H2593 0.950 . S
C2605 C2601 1.393 1_655 S
C2605 C2604 1.392 . S
C2606 H2596 0.950 . S
C2606 C2607 1.386 . S
C2606 C2608 1.391 . S
C2607 C2606 1.386 . S
C2607 C2611 1.393 . S
C2608 H2597 0.950 1_455 S
C2608 C2606 1.391 . S
C2608 C2609 1.400 . S
C2609 C2603 1.491 . S
C2609 C2608 1.400 . S
C2609 C2610 1.398 . S
C2610 H2598 0.950 . S
C2610 C2609 1.398 . S
C2610 C2611 1.391 . S
C2611 H2599 0.950 . S
C2611 C2607 1.393 . S
C2611 C2610 1.391 . S
H2612 C2620 0.950 . S
H2613 C2625 0.950 . S
H2614 C2622 0.950 . S
H2615 C2624 0.950 . S
H2616 C2626 0.950 . S
H2617 C2628 0.950 . S
H2618 C2630 0.950 . S
H2619 C2631 0.950 . S
C2620 H2612 0.950 . S
C2620 C2621 1.386 . S
C2620 C2622 1.391 . S
C2621 C2620 1.386 . S
C2621 C2625 1.393 . S
C2622 H2614 0.950 . S
C2622 C2620 1.391 . S
C2622 C2623 1.400 . S
C2623 C2622 1.400 . S
C2623 C2624 1.398 . S
C2623 C2629 1.491 . S
C2624 H2615 0.950 . S
C2624 C2623 1.398 . S
C2624 C2625 1.391 . S
C2625 H2613 0.950 . S
C2625 C2621 1.393 . S
C2625 C2624 1.391 . S
C2626 H2616 0.950 . S
C2626 C2627 1.386 . S
C2626 C2628 1.391 . S
C2627 C2626 1.386 . S
C2627 C2631 1.393 . S
C2628 H2617 0.950 . S
C2628 C2626 1.391 . S
C2628 C2629 1.400 . S
C2629 C2623 1.491 . S
C2629 C2628 1.400 . S
C2629 C2630 1.398 . S
C2630 H2618 0.950 . S
C2630 C2629 1.398 . S
C2630 C2631 1.391 . S
C2631 H2619 0.950 . S
C2631 C2627 1.393 . S
C2631 C2630 1.391 . S
H2632 C2640 0.950 . S
H2633 C2645 0.950 . S
H2634 C2642 0.950 . S
H2635 C2644 0.950 . S
H2636 C2646 0.950 . S
H2637 C2648 0.950 . S
H2638 C2650 0.950 . S
H2639 C2651 0.950 . S
C2640 H2632 0.950 . S
C2640 C2641 1.386 . S
C2640 C2642 1.391 . S
C2641 C2640 1.386 . S
C2641 C2645 1.393 . S
C2642 H2634 0.950 . S
C2642 C2640 1.391 . S
C2642 C2643 1.400 . S
C2643 C2642 1.400 . S
C2643 C2644 1.398 . S
C2643 C2649 1.491 . S
C2644 H2635 0.950 . S
C2644 C2643 1.398 . S
C2644 C2645 1.391 . S
C2645 H2633 0.950 . S
C2645 C2641 1.393 . S
C2645 C2644 1.391 . S
C2646 H2636 0.950 . S
C2646 C2647 1.386 . S
C2646 C2648 1.391 . S
C2647 C2646 1.386 . S
C2647 C2651 1.393 . S
C2648 H2637 0.950 . S
C2648 C2646 1.391 . S
C2648 C2649 1.400 . S
C2649 C2643 1.491 . S
C2649 C2648 1.400 . S
C2649 C2650 1.398 . S
C2650 H2638 0.950 . S
C2650 C2649 1.398 . S
C2650 C2651 1.391 . S
C2651 H2639 0.950 . S
C2651 C2647 1.393 . S
C2651 C2650 1.391 . S
H2652 C2660 0.950 . S
H2653 C2665 0.950 . S
H2654 C2662 0.950 . S
H2655 C2664 0.950 . S
H2656 C2666 0.950 . S
H2657 C2668 0.950 . S
H2658 C2670 0.950 . S
H2659 C2671 0.950 . S
C2660 H2652 0.950 . S
C2660 C2661 1.386 . S
C2660 C2662 1.391 . S
C2661 C2660 1.386 . S
C2661 C2665 1.393 . S
C2662 H2654 0.950 . S
C2662 C2660 1.391 . S
C2662 C2663 1.400 . S
C2663 C2662 1.400 . S
C2663 C2664 1.398 . S
C2663 C2669 1.491 . S
C2664 H2655 0.950 . S
C2664 C2663 1.398 . S
C2664 C2665 1.391 . S
C2665 H2653 0.950 . S
C2665 C2661 1.393 . S
C2665 C2664 1.391 . S
C2666 H2656 0.950 . S
C2666 C2667 1.386 . S
C2666 C2668 1.391 . S
C2667 C2666 1.386 . S
C2667 C2671 1.393 . S
C2668 H2657 0.950 . S
C2668 C2666 1.391 . S
C2668 C2669 1.400 . S
C2669 C2663 1.491 . S
C2669 C2668 1.400 . S
C2669 C2670 1.398 . S
C2670 H2658 0.950 . S
C2670 C2669 1.398 . S
C2670 C2671 1.391 . S
C2671 H2659 0.950 . S
C2671 C2667 1.393 . S
C2671 C2670 1.391 . S
H2672 C2680 0.950 . S
H2673 C2685 0.950 . S
H2674 C2682 0.950 . S
H2675 C2684 0.950 . S
H2676 C2686 0.950 . S
H2677 C2688 0.950 . S
H2678 C2690 0.950 . S
H2679 C2691 0.950 . S
C2680 H2672 0.950 . S
C2680 C2681 1.386 . S
C2680 C2682 1.391 . S
C2681 C2680 1.386 . S
C2681 C2685 1.393 1_455 S
C2682 H2674 0.950 . S
C2682 C2680 1.391 . S
C2682 C2683 1.400 . S
C2683 C2682 1.400 . S
C2683 C2684 1.398 1_455 S
C2683 C2689 1.490 . S
C2684 H2675 0.950 . S
C2684 C2683 1.398 1_655 S
C2684 C2685 1.391 . S
C2685 H2673 0.950 . S
C2685 C2681 1.393 1_655 S
C2685 C2684 1.391 . S
C2686 H2676 0.950 . S
C2686 C2687 1.386 . S
C2686 C2688 1.391 . S
C2687 C2686 1.386 . S
C2687 C2691 1.393 1_655 S
C2688 H2677 0.950 . S
C2688 C2686 1.391 . S
C2688 C2689 1.397 1_655 S
C2689 C2683 1.490 . S
C2689 C2688 1.397 1_455 S
C2689 C2690 1.402 . S
C2690 H2678 0.950 . S
C2690 C2689 1.402 . S
C2690 C2691 1.391 . S
C2691 H2679 0.950 . S
C2691 C2687 1.393 1_455 S
C2691 C2690 1.391 . S
H2692 C2700 0.950 . S
H2693 C2705 0.950 . S
H2694 C2702 0.950 . S
H2695 C2704 0.950 . S
H2696 C2706 0.950 . S
H2697 C2708 0.950 . S
H2698 C2710 0.950 . S
H2699 C2711 0.950 . S
C2700 H2692 0.950 . S
C2700 C2701 1.386 . S
C2700 C2702 1.391 . S
C2701 C2700 1.386 . S
C2701 C2705 1.393 . S
C2702 H2694 0.950 . S
C2702 C2700 1.391 . S
C2702 C2703 1.400 . S
C2703 C2702 1.400 . S
C2703 C2704 1.398 . S
C2703 C2709 1.491 . S
C2704 H2695 0.950 . S
C2704 C2703 1.398 . S
C2704 C2705 1.391 . S
C2705 H2693 0.950 . S
C2705 C2701 1.393 . S
C2705 C2704 1.391 . S
C2706 H2696 0.950 . S
C2706 C2707 1.386 . S
C2706 C2708 1.391 . S
C2707 C2706 1.386 . S
C2707 C2711 1.393 . S
C2708 H2697 0.950 . S
C2708 C2706 1.391 . S
C2708 C2709 1.400 . S
C2709 C2703 1.491 . S
C2709 C2708 1.400 . S
C2709 C2710 1.398 . S
C2710 H2698 0.950 . S
C2710 C2709 1.398 . S
C2710 C2711 1.391 . S
C2711 H2699 0.950 . S
C2711 C2707 1.393 . S
C2711 C2710 1.391 . S
H2712 C2720 0.950 . S
H2713 C2725 0.950 . S
H2714 C2722 0.950 . S
H2715 C2724 0.950 . S
H2716 C2726 0.950 . S
H2717 C2728 0.950 . S
H2718 C2730 0.950 . S
H2719 C2731 0.950 . S
C2720 H2712 0.950 . S
C2720 C2721 1.386 . S
C2720 C2722 1.391 . S
C2721 C2720 1.386 . S
C2721 C2725 1.393 . S
C2722 H2714 0.950 . S
C2722 C2720 1.391 . S
C2722 C2723 1.400 . S
C2723 C2722 1.400 . S
C2723 C2724 1.398 . S
C2723 C2729 1.491 . S
C2724 H2715 0.950 . S
C2724 C2723 1.398 . S
C2724 C2725 1.391 . S
C2725 H2713 0.950 . S
C2725 C2721 1.393 . S
C2725 C2724 1.391 . S
C2726 H2716 0.950 . S
C2726 C2727 1.386 . S
C2726 C2728 1.391 . S
C2727 C2726 1.386 . S
C2727 C2731 1.393 . S
C2728 H2717 0.950 . S
C2728 C2726 1.391 . S
C2728 C2729 1.400 . S
C2729 C2723 1.491 . S
C2729 C2728 1.400 . S
C2729 C2730 1.398 . S
C2730 H2718 0.950 . S
C2730 C2729 1.398 . S
C2730 C2731 1.391 . S
C2731 H2719 0.950 . S
C2731 C2727 1.393 . S
C2731 C2730 1.391 . S
H2732 C2740 0.950 . S
H2733 C2745 0.950 . S
H2734 C2742 0.950 . S
H2735 C2744 0.950 . S
H2736 C2746 0.950 . S
H2737 C2748 0.950 . S
H2738 C2750 0.950 . S
H2739 C2751 0.932 1_545 S
C2740 H2732 0.950 . S
C2740 C2741 1.386 . S
C2740 C2742 1.391 . S
C2741 C2740 1.386 . S
C2741 C2745 1.393 . S
C2742 H2734 0.950 . S
C2742 C2740 1.391 . S
C2742 C2743 1.400 . S
C2743 C2742 1.400 . S
C2743 C2744 1.398 . S
C2743 C2749 1.491 . S
C2744 H2735 0.950 . S
C2744 C2743 1.398 . S
C2744 C2745 1.391 . S
C2745 H2733 0.950 . S
C2745 C2741 1.393 . S
C2745 C2744 1.391 . S
C2746 H2736 0.950 . S
C2746 C2747 1.386 . S
C2746 C2748 1.391 . S
C2747 C2746 1.386 . S
C2747 C2751 1.404 . S
C2748 H2737 0.950 . S
C2748 C2746 1.391 . S
C2748 C2749 1.400 . S
C2749 C2743 1.491 . S
C2749 C2748 1.400 . S
C2749 C2750 1.398 . S
C2750 H2738 0.950 . S
C2750 C2749 1.398 . S
C2750 C2751 1.397 . S
C2751 H2739 0.932 1_565 S
C2751 C2747 1.404 . S
C2751 C2750 1.397 . S
H2752 C2760 0.950 . S
H2753 C2765 0.950 . S
H2754 C2762 0.950 . S
H2755 C2764 0.950 . S
H2756 C2766 0.950 . S
H2757 C2768 0.950 . S
H2758 C2770 0.950 . S
H2759 C2771 0.950 . S
C2760 H2752 0.950 . S
C2760 C2761 1.386 . S
C2760 C2762 1.391 . S
C2761 C2760 1.386 . S
C2761 C2765 1.393 . S
C2762 H2754 0.950 . S
C2762 C2760 1.391 . S
C2762 C2763 1.400 . S
C2763 C2762 1.400 . S
C2763 C2764 1.398 . S
C2763 C2769 1.491 . S
C2764 H2755 0.950 . S
C2764 C2763 1.398 . S
C2764 C2765 1.391 . S
C2765 H2753 0.950 . S
C2765 C2761 1.393 . S
C2765 C2764 1.391 . S
C2766 H2756 0.950 . S
C2766 C2767 1.386 . S
C2766 C2768 1.391 . S
C2767 C2766 1.386 . S
C2767 C2771 1.393 . S
C2768 H2757 0.950 . S
C2768 C2766 1.391 . S
C2768 C2769 1.400 . S
C2769 C2763 1.491 . S
C2769 C2768 1.400 . S
C2769 C2770 1.398 . S
C2770 H2758 0.950 . S
C2770 C2769 1.398 . S
C2770 C2771 1.391 . S
C2771 H2759 0.950 . S
C2771 C2767 1.393 . S
C2771 C2770 1.391 . S
H2772 C2780 0.950 . S
H2773 C2785 0.950 . S
H2774 C2782 0.950 . S
H2775 C2784 0.950 . S
H2776 C2786 0.950 . S
H2777 C2788 0.950 . S
H2778 C2790 0.950 . S
H2779 C2791 0.950 . S
C2780 H2772 0.950 . S
C2780 C2781 1.386 1_554 S
C2780 C2782 1.391 . S
C2781 C2780 1.386 1_556 S
C2781 C2785 1.393 . S
C2782 H2774 0.950 . S
C2782 C2780 1.391 . S
C2782 C2783 1.400 1_554 S
C2783 C2782 1.400 1_556 S
C2783 C2784 1.398 . S
C2783 C2789 1.491 . S
C2784 H2775 0.950 . S
C2784 C2783 1.398 . S
C2784 C2785 1.391 . S
C2785 H2773 0.950 . S
C2785 C2781 1.393 . S
C2785 C2784 1.391 . S
C2786 H2776 0.950 . S
C2786 C2787 1.388 . S
C2786 C2788 1.391 . S
C2787 C2786 1.388 . S
C2787 C2791 1.391 1_556 S
C2788 H2777 0.950 . S
C2788 C2786 1.391 . S
C2788 C2789 1.400 . S
C2789 C2783 1.491 . S
C2789 C2788 1.400 . S
C2789 C2790 1.398 1_556 S
C2790 H2778 0.950 . S
C2790 C2789 1.398 1_554 S
C2790 C2791 1.391 . S
C2791 H2779 0.950 . S
C2791 C2787 1.391 1_554 S
C2791 C2790 1.391 . S
H2792 C2800 0.950 . S
H2793 C2805 0.950 . S
H2794 C2802 0.950 . S
H2795 C2804 0.950 . S
H2796 C2806 0.950 . S
H2797 C2808 0.950 . S
H2798 C2810 0.950 . S
H2799 C2811 0.950 . S
C2800 H2792 0.950 . S
C2800 C2801 1.386 . S
C2800 C2802 1.391 . S
C2801 C2800 1.386 . S
C2801 C2805 1.393 . S
C2802 H2794 0.950 . S
C2802 C2800 1.391 . S
C2802 C2803 1.400 . S
C2803 C2802 1.400 . S
C2803 C2804 1.398 . S
C2803 C2809 1.491 . S
C2804 H2795 0.950 . S
C2804 C2803 1.398 . S
C2804 C2805 1.391 . S
C2805 H2793 0.950 . S
C2805 C2801 1.393 . S
C2805 C2804 1.391 . S
C2806 H2796 0.950 . S
C2806 C2807 1.386 . S
C2806 C2808 1.391 . S
C2807 C2806 1.386 . S
C2807 C2811 1.393 . S
C2808 H2797 0.950 . S
C2808 C2806 1.391 . S
C2808 C2809 1.400 . S
C2809 C2803 1.491 . S
C2809 C2808 1.400 . S
C2809 C2810 1.398 . S
C2810 H2798 0.950 . S
C2810 C2809 1.398 . S
C2810 C2811 1.391 . S
C2811 H2799 0.950 . S
C2811 C2807 1.393 . S
C2811 C2810 1.391 . S
H2812 C2820 0.950 . S
H2813 C2825 0.950 . S
H2814 C2822 0.950 . S
H2815 C2824 0.950 . S
H2816 C2826 0.950 . S
H2817 C2828 0.950 . S
H2818 C2830 0.950 . S
H2819 C2831 0.950 . S
C2820 H2812 0.950 . S
C2820 C2821 1.386 . S
C2820 C2822 1.391 . S
C2821 C2820 1.386 . S
C2821 C2825 1.393 . S
C2822 H2814 0.950 . S
C2822 C2820 1.391 . S
C2822 C2823 1.400 . S
C2823 C2822 1.400 . S
C2823 C2824 1.398 . S
C2823 C2829 1.491 . S
C2824 H2815 0.950 . S
C2824 C2823 1.398 . S
C2824 C2825 1.391 . S
C2825 H2813 0.950 . S
C2825 C2821 1.393 . S
C2825 C2824 1.391 . S
C2826 H2816 0.950 . S
C2826 C2827 1.386 . S
C2826 C2828 1.391 . S
C2827 C2826 1.386 . S
C2827 C2831 1.393 . S
C2828 H2817 0.950 . S
C2828 C2826 1.391 . S
C2828 C2829 1.400 . S
C2829 C2823 1.491 . S
C2829 C2828 1.400 . S
C2829 C2830 1.398 . S
C2830 H2818 0.950 . S
C2830 C2829 1.398 . S
C2830 C2831 1.391 . S
C2831 H2819 0.950 . S
C2831 C2827 1.393 . S
C2831 C2830 1.391 . S
H2832 C2840 0.950 . S
H2833 C2845 0.950 . S
H2834 C2842 0.950 . S
H2835 C2844 0.950 . S
H2836 C2846 0.950 . S
H2837 C2848 0.950 . S
H2838 C2850 0.950 . S
H2839 C2851 0.950 . S
C2840 H2832 0.950 . S
C2840 C2841 1.386 . S
C2840 C2842 1.391 . S
C2841 C2840 1.386 . S
C2841 C2845 1.393 . S
C2842 H2834 0.950 . S
C2842 C2840 1.391 . S
C2842 C2843 1.400 . S
C2843 C2842 1.400 . S
C2843 C2844 1.398 . S
C2843 C2849 1.491 . S
C2844 H2835 0.950 . S
C2844 C2843 1.398 . S
C2844 C2845 1.391 . S
C2845 H2833 0.950 . S
C2845 C2841 1.393 . S
C2845 C2844 1.391 . S
C2846 H2836 0.950 . S
C2846 C2847 1.386 . S
C2846 C2848 1.391 . S
C2847 C2846 1.386 . S
C2847 C2851 1.393 . S
C2848 H2837 0.950 . S
C2848 C2846 1.391 . S
C2848 C2849 1.400 . S
C2849 C2843 1.491 . S
C2849 C2848 1.400 . S
C2849 C2850 1.398 . S
C2850 H2838 0.950 . S
C2850 C2849 1.398 . S
C2850 C2851 1.391 . S
C2851 H2839 0.950 . S
C2851 C2847 1.393 . S
C2851 C2850 1.391 . S
H2852 C2860 0.950 . S
H2853 C2865 0.950 . S
H2854 C2862 0.950 . S
H2855 C2864 0.950 . S
H2856 C2866 0.950 . S
H2857 C2868 0.950 . S
H2858 C2870 0.950 . S
H2859 C2871 0.950 . S
C2860 H2852 0.950 . S
C2860 C2861 1.386 . S
C2860 C2862 1.391 . S
C2861 C2860 1.386 . S
C2861 C2865 1.393 . S
C2862 H2854 0.950 . S
C2862 C2860 1.391 . S
C2862 C2863 1.400 . S
C2863 C2862 1.400 . S
C2863 C2864 1.398 . S
C2863 C2869 1.491 . S
C2864 H2855 0.950 . S
C2864 C2863 1.398 . S
C2864 C2865 1.391 . S
C2865 H2853 0.950 . S
C2865 C2861 1.393 . S
C2865 C2864 1.391 . S
C2866 H2856 0.950 . S
C2866 C2867 1.386 . S
C2866 C2868 1.391 . S
C2867 C2866 1.386 . S
C2867 C2871 1.393 . S
C2868 H2857 0.950 . S
C2868 C2866 1.391 . S
C2868 C2869 1.400 . S
C2869 C2863 1.491 . S
C2869 C2868 1.400 . S
C2869 C2870 1.398 . S
C2870 H2858 0.950 . S
C2870 C2869 1.398 . S
C2870 C2871 1.391 . S
C2871 H2859 0.950 . S
C2871 C2867 1.393 . S
C2871 C2870 1.391 . S
C961 C101 1.828 . S
C967 C334 1.800 . S
C981 C57 1.162 . S
C987 C354 1.163 . S
C1001 C70 0.527 . S
C1007 C401 0.539 . S
C1027 C458 1.097 . S
C1021 C82 1.107 . S
C1041 C23 2.508 . S
C1047 C475 2.499 . S
C1067 C534 1.690 . S
C1061 C29 1.709 . S
C1087 C567 2.602 . S
C1081 C49 2.587 . S
C1101 C10 2.533 . S
C1107 C614 2.496 . S
C1127 C327 1.649 . S
C1121 C218 1.599 . S
C1141 C226 1.235 . S
C1147 C355 1.228 . S
C1167 C394 0.395 . S
C1161 C251 0.363 . S
C1187 C454 2.055 . S
C1181 C159 2.049 . S
C1201 C211 0.362 . S
C1207 C481 0.374 . S
C1227 C527 2.205 . S
C1221 C225 2.211 . S
C1247 C578 0.540 . S
C1241 C252 0.421 . S
C1267 C607 2.255 . S
C1261 C166 2.244 . S
C1287 C338 1.901 1_565 S
C1281 C147 1.937 . S
C1301 C263 2.198 . S
C1307 C634 2.173 . S
C1327 C698 1.295 . S
C1321 C309 1.298 . S
C1347 C734 1.358 . S
C1341 C291 1.350 . S
C1361 C108 1.473 . S
C1367 C618 1.494 . S
C1381 C121 2.511 . S
C1387 C395 2.514 . S
C1401 C302 1.304 . S
C1407 C767 1.340 . S
C1427 C801 0.283 . S
C1421 C276 0.368 . S
C1447 C315 1.928 1_565 S
C1441 C55 1.922 . S
C1467 C807 1.370 . S
C1461 C96 1.403 . S
C1481 C88 0.922 . S
C1487 C418 0.907 . S
C1501 C75 1.193 . S
C1507 C761 1.184 . S
C1527 C494 2.887 . S
C1521 C4 2.906 . S
C1541 C44 1.955 . S
C1547 C675 1.945 . S
C1567 C554 2.950 1_566 S
C1561 C31 2.956 . S
C1587 C835 2.565 . S
C1581 C18 2.587 1_655 S
C1607 C314 1.649 1_556 S
C1601 C133 1.647 . S
C1627 C814 1.843 . S
C1621 C296 1.870 . S
C1641 C107 0.683 . S
C1647 C407 0.676 . S
C1661 C264 2.348 . S
C1667 C755 2.364 . S
C1681 C140 0.613 . S
C1687 C498 0.635 . S
C1707 C674 2.545 . S
C1701 C289 2.558 . S
C1721 C114 0.510 . S
C1727 C561 0.543 . S
C1741 C265 2.544 . S
C1747 C834 2.535 . S
C1761 C179 1.712 . S
C1767 C321 1.691 . S
C1781 C161 2.372 . S
C1787 C647 2.340 . S
C1801 C244 1.412 . S
C1807 C521 1.411 . S
C1821 C224 1.566 . S
C1827 C715 1.566 . S
C1847 C841 1.293 . S
C1841 C257 1.296 . S
C1861 C199 2.808 . S
C1867 C414 2.802 1_565 S
C1887 C434 1.675 . S
C1881 C237 1.659 . S
C1907 C378 0.578 . S
C1901 C185 0.555 . S
C1921 C69 1.840 . S
C1927 C894 1.816 . S
C1947 C794 1.148 . S
C1941 C83 1.146 . S
C1961 C94 0.539 . S
C1967 C921 0.545 . S
C1981 C56 1.084 . S
C1987 C778 1.067 . S
C2001 C42 2.514 . S
C2007 C635 2.504 . S
C2027 C694 1.691 . S
C2021 C3 1.709 1_655 S
C2047 C727 2.612 . S
C2041 C16 2.597 . S
C2067 C854 2.484 . S
C2061 C36 2.528 . S
C2087 C887 1.638 . S
C2081 C238 1.597 . S
C2101 C174 1.238 . S
C2107 C795 1.214 . S
C2127 C914 0.407 . S
C2121 C186 0.364 . S
C2147 C774 2.052 . S
C2141 C198 2.052 . S
C2167 C641 0.380 . S
C2161 C239 0.355 . S
C2181 C173 2.211 . S
C2187 C687 2.201 . S
C2207 C738 0.483 . S
C2201 C187 0.364 . S
C2221 C205 2.248 . S
C2227 C847 2.259 . S
C2247 C898 1.901 . S
C2241 C290 1.944 . S
C2261 C122 2.200 . S
C2267 C474 2.175 . S
C2287 C538 1.292 . S
C2281 C134 1.302 . S
C2307 C574 1.366 . S
C2301 C148 1.357 . S
C2327 C858 1.478 . S
C2321 C283 1.473 . S
C2341 C270 2.513 . S
C2347 C915 2.537 . S
C2367 C447 1.344 . S
C2361 C135 1.317 . S
C2387 C361 0.305 . S
C2381 C109 0.393 . S
C2401 C81 1.934 . S
C2407 C875 1.934 . S
C2427 C367 1.391 . S
C2421 C68 1.413 . S
C2441 C62 0.921 . S
C2447 C938 0.907 . S
C2461 C95 1.194 . S
C2467 C441 1.178 . S
C2481 C30 2.907 . S
C2487 C654 2.890 . S
C2507 C515 1.937 . S
C2501 C17 1.950 . S
C2521 C5 2.957 . S
C2527 C714 2.950 . S
C2541 C43 2.580 . S
C2547 C595 2.563 . S
C2567 C874 1.659 . S
C2561 C304 1.642 . S
C2581 C153 1.870 . S
C2587 C374 1.849 . S
C2607 C927 0.703 . S
C2601 C278 0.689 . S
C2621 C127 2.352 . S
C2627 C435 2.362 . S
C2641 C303 0.602 . S
C2647 C658 0.602 . S
C2667 C514 2.545 . S
C2661 C146 2.557 1_556 S
C2681 C277 0.508 1_455 S
C2687 C721 0.539 1_655 S
C2707 C594 2.533 . S
C2701 C120 2.543 . S
C2727 C881 1.694 . S
C2721 C231 1.707 . S
C2747 C487 2.343 1_665 S
C2741 C200 2.372 . S
C2761 C212 1.415 . S
C2767 C681 1.414 . S
C2787 C555 1.564 1_556 S
C2781 C172 1.566 . S
C2801 C192 1.303 . S
C2807 C601 1.314 . S
C2821 C160 2.807 . S
C2827 C934 2.803 . S
C2847 C754 1.679 . S
C2841 C213 1.661 . S
C2867 C818 0.540 . S
C2861 C250 0.522 . S
