# Generated by pormake.
# Topology anh, (6,3)-cn, num edge types: 1
# Building blocks:
#     Node 0, Type 0, BuildingBlock: MIFKUJ_clean_sbu_0, # of connection points: 6
#     Node 1, Type 0, BuildingBlock: MIFKUJ_clean_sbu_0, # of connection points: 6
#     Node 2, Type 0, BuildingBlock: MIFKUJ_clean_sbu_0, # of connection points: 6
#     Node 3, Type 1, BuildingBlock: OLANEW_clean_sbu_2, # of connection points: 3
#     Node 4, Type 1, BuildingBlock: OLANEW_clean_sbu_2, # of connection points: 3
#     Node 5, Type 1, BuildingBlock: OLANEW_clean_sbu_2, # of connection points: 3
#     Node 6, Type 1, BuildingBlock: OLANEW_clean_sbu_2, # of connection points: 3
#     Node 7, Type 1, BuildingBlock: OLANEW_clean_sbu_2, # of connection points: 3
#     Node 8, Type 1, BuildingBlock: OLANEW_clean_sbu_2, # of connection points: 3
#     Edge 9, Type (0, 1), BuildingBlock: CIFDUS_clean_linker_0, # of connection points: 2
#     Edge 10, Type (0, 1), BuildingBlock: CIFDUS_clean_linker_0, # of connection points: 2
#     Edge 11, Type (0, 1), BuildingBlock: CIFDUS_clean_linker_0, # of connection points: 2
#     Edge 12, Type (0, 1), BuildingBlock: CIFDUS_clean_linker_0, # of connection points: 2
#     Edge 13, Type (0, 1), BuildingBlock: CIFDUS_clean_linker_0, # of connection points: 2
#     Edge 14, Type (0, 1), BuildingBlock: CIFDUS_clean_linker_0, # of connection points: 2
#     Edge 15, Type (0, 1), BuildingBlock: CIFDUS_clean_linker_0, # of connection points: 2
#     Edge 16, Type (0, 1), BuildingBlock: CIFDUS_clean_linker_0, # of connection points: 2
#     Edge 17, Type (0, 1), BuildingBlock: CIFDUS_clean_linker_0, # of connection points: 2
#     Edge 18, Type (0, 1), BuildingBlock: CIFDUS_clean_linker_0, # of connection points: 2
#     Edge 19, Type (0, 1), BuildingBlock: CIFDUS_clean_linker_0, # of connection points: 2
#     Edge 20, Type (0, 1), BuildingBlock: CIFDUS_clean_linker_0, # of connection points: 2
#     Edge 21, Type (0, 1), BuildingBlock: CIFDUS_clean_linker_0, # of connection points: 2
#     Edge 22, Type (0, 1), BuildingBlock: CIFDUS_clean_linker_0, # of connection points: 2
#     Edge 23, Type (0, 1), BuildingBlock: CIFDUS_clean_linker_0, # of connection points: 2
#     Edge 24, Type (0, 1), BuildingBlock: CIFDUS_clean_linker_0, # of connection points: 2
#     Edge 25, Type (0, 1), BuildingBlock: CIFDUS_clean_linker_0, # of connection points: 2
#     Edge 26, Type (0, 1), BuildingBlock: CIFDUS_clean_linker_0, # of connection points: 2
# Relax obj value: 0.070
# Max RMSD: 0.128
# Mean RMSD: 0.109
data_MOF--net-anh--node1-MIFKUJ_clean_sbu_0--node2-OLANEW_clean_sbu_2--edge1-CIFDUS_clean_linker_0
_symmetry_space_group_name_H-M    P1
_symmetry_Int_Tables_number       1
_symmetry_cell_setting            triclinic
loop_
_symmetry_equiv_pos_as_xyz
'x, y, z'
_cell_length_a     30.373665
_cell_length_b     30.724688
_cell_length_c     42.315478
_cell_angle_alpha  93.727484
_cell_angle_beta   90.157223
_cell_angle_gamma 120.48682
loop_
_atom_site_label
_atom_site_type_symbol
_atom_site_fract_x
_atom_site_fract_y
_atom_site_fract_z
_atom_type_partial_charge
Zn0 Zn 0.034 0.54459 0.16173 0.0
Zn1 Zn 0.93153 0.43534 0.15955 0.0
C2 C 0.11841 0.53574 0.1836 0.0
O3 O 0.12134 0.56959 0.20548 0.0
C4 C 0.89537 0.51461 0.16004 0.0
O5 O 0.94082 0.55466 0.15761 0.0
O6 O 0.08254 0.61988 0.16351 0.0
O7 O 0.99928 0.52415 0.1181 0.0
O8 O 0.96333 0.44098 0.11739 0.0
C9 C 0.11889 0.63689 0.14445 0.0
O10 O 0.12079 0.60531 0.12278 0.0
O11 O 0.0813 0.51624 0.16316 0.0
C12 C 0.84731 0.36014 0.18687 0.0
O13 O 0.8625 0.40053 0.20653 0.0
O14 O 0.87417 0.36327 0.16313 0.0
O15 O 0.97669 0.45242 0.19873 0.0
O16 O 0.99442 0.53113 0.20197 0.0
O17 O 0.89042 0.47103 0.16079 0.0
C18 C 0.98318 0.48131 0.10293 0.0
C19 C 0.9854 0.49191 0.21544 0.0
Zn20 Zn 0.47156 0.04169 0.5138 0.0
Zn21 Zn 0.43943 0.90832 0.50751 0.0
C22 C 0.57321 0.0935 0.53663 0.0
O23 O 0.55056 0.10356 0.56001 0.0
C24 C 0.33121 0.82649 0.50533 0.0
O25 O 0.32294 0.86003 0.52071 0.0
O26 O 0.48108 0.11135 0.51234 0.0
O27 O 0.43588 0.00452 0.47227 0.0
O28 O 0.45688 0.94514 0.46737 0.0
C29 C 0.51272 0.13805 0.49219 0.0
O30 O 0.53061 0.11679 0.47222 0.0
O31 O 0.54533 0.05916 0.51515 0.0
C32 C 0.47967 0.85686 0.537 0.0
O33 O 0.43551 0.84004 0.55041 0.0
O34 O 0.49301 0.89083 0.51752 0.0
O35 O 0.42575 0.93697 0.54785 0.0
O36 O 0.4374 0.0141 0.55415 0.0
O37 O 0.37616 0.83964 0.49683 0.0
C38 C 0.4482 0.97702 0.45528 0.0
C39 C 0.42345 0.97144 0.5647 0.0
Zn40 Zn 0.644 0.60061 0.82785 0.0
Zn41 Zn 0.53949 0.58745 0.81244 0.0
C42 C 0.60375 0.49598 0.83476 0.0
O43 O 0.63 0.51525 0.86184 0.0
C44 C 0.56869 0.68985 0.80304 0.0
O45 O 0.55836 0.67181 0.77325 0.0
O46 O 0.71477 0.61341 0.83702 0.0
O47 O 0.64801 0.63742 0.7898 0.0
O48 O 0.57153 0.5767 0.77283 0.0
C49 C 0.73305 0.59589 0.81621 0.0
O50 O 0.70627 0.57319 0.78967 0.0
O51 O 0.60222 0.52561 0.81578 0.0
C52 C 0.44681 0.58028 0.82473 0.0
O53 O 0.47581 0.60618 0.85 0.0
O54 O 0.46491 0.56378 0.80312 0.0
O55 O 0.53995 0.55578 0.85273 0.0
O56 O 0.61782 0.61583 0.86803 0.0
O57 O 0.56928 0.66207 0.82379 0.0
C58 C 0.61744 0.60914 0.76706 0.0
C59 C 0.57285 0.58276 0.87486 0.0
O60 O 0.47883 0.00362 0.25578 0.0
Cd61 Cd 0.48607 0.01688 0.19917 0.0
O62 O 0.51219 0.95469 0.25304 0.0
Cd63 Cd 0.49849 0.94242 0.2018 0.0
O64 O 0.43387 0.89107 0.16969 0.0
C65 C 0.39084 0.8838 0.17856 0.0
O66 O 0.38978 0.91025 0.20393 0.0
C67 C 0.4956 0.97902 0.26954 0.0
C68 C 0.5831 0.0979 0.18866 0.0
O69 O 0.5467 0.10496 0.1974 0.0
O70 O 0.57358 0.05221 0.18423 0.0
O71 O 0.71973 0.55319 0.58964 0.0
Cd72 Cd 0.74334 0.54016 0.53629 0.0
O73 O 0.66283 0.5632 0.56447 0.0
Cd74 Cd 0.60546 0.58573 0.56401 0.0
O75 O 0.5652 0.6275 0.566 0.0
C76 C 0.58873 0.67258 0.55766 0.0
O77 O 0.63563 0.69153 0.54802 0.0
C78 C 0.68254 0.56107 0.59042 0.0
C79 C 0.69319 0.43703 0.51785 0.0
O80 O 0.74002 0.46068 0.52798 0.0
O81 O 0.67032 0.46223 0.51602 0.0
O82 O 0.07312 0.557 0.90678 0.0
Cd83 Cd 0.0878 0.56383 0.84995 0.0
O84 O 0.01745 0.47531 0.90264 0.0
Cd85 Cd 0.00731 0.47877 0.8521 0.0
O86 O 0.96226 0.50208 0.82543 0.0
C87 C 0.95546 0.53512 0.84067 0.0
O88 O 0.9782 0.55349 0.86882 0.0
C89 C 0.04497 0.51612 0.91985 0.0
C90 C 0.1855 0.58034 0.83905 0.0
O91 O 0.17818 0.61711 0.84689 0.0
O92 O 0.14635 0.53552 0.8356 0.0
O93 O 0.99882 0.43666 0.41572 0.0
Cd94 Cd 0.00428 0.44936 0.47342 0.0
O95 O 0.93154 0.44543 0.41149 0.0
Cd96 Cd 0.90455 0.4154 0.45756 0.0
O97 O 0.8464 0.34899 0.48044 0.0
C98 C 0.82459 0.30788 0.46275 0.0
O99 O 0.83947 0.3084 0.43357 0.0
C100 C 0.96863 0.44372 0.39889 0.0
C101 C 0.08097 0.55021 0.48855 0.0
O102 O 0.09168 0.51499 0.48427 0.0
O103 O 0.03378 0.53763 0.48674 0.0
O104 O 0.40346 0.94461 0.76263 0.0
Cd105 Cd 0.43746 0.95079 0.81613 0.0
O106 O 0.43259 0.0254 0.77132 0.0
Cd107 Cd 0.45983 0.10516 0.76559 0.0
O108 O 0.48717 0.18532 0.77627 0.0
C109 C 0.48093 0.21258 0.75752 0.0
O110 O 0.4575 0.1923 0.72974 0.0
C111 C 0.41226 0.98596 0.75211 0.0
C112 C 0.49171 0.9 0.81418 0.0
O113 O 0.44693 0.87983 0.82532 0.0
O114 O 0.51144 0.94463 0.8047 0.0
O115 O 0.57684 0.58384 0.08356 0.0
Cd116 Cd 0.58068 0.57964 0.14081 0.0
O117 O 0.49541 0.55221 0.06916 0.0
Cd118 Cd 0.45836 0.54052 0.11471 0.0
O119 O 0.38864 0.52914 0.13743 0.0
C120 C 0.3467 0.49999 0.12187 0.0
O121 O 0.34791 0.4771 0.09483 0.0
C122 C 0.542 0.57077 0.06215 0.0
C123 C 0.66926 0.57615 0.15412 0.0
O124 O 0.62564 0.5355 0.1493 0.0
O125 O 0.6708 0.61858 0.15381 0.0
H126 H 0.12896 0.47548 0.13774 0.0
H127 H 0.20676 0.57783 0.22019 0.0
H128 H 0.28334 0.57332 0.20965 0.0
H129 H 0.33066 0.5458 0.17458 0.0
H130 H 0.25272 0.4442 0.09184 0.0
H131 H 0.17406 0.44285 0.10508 0.0
C132 C 0.1624 0.49629 0.15367 0.0
C133 C 0.16207 0.52724 0.17958 0.0
C134 C 0.20664 0.49404 0.14728 0.0
C135 C 0.20584 0.55381 0.19999 0.0
C136 C 0.24983 0.55142 0.19393 0.0
C137 C 0.29635 0.52295 0.15962 0.0
C138 C 0.29793 0.49556 0.13208 0.0
C139 C 0.25106 0.52254 0.16725 0.0
C140 C 0.2529 0.46595 0.11308 0.0
C141 C 0.20776 0.46515 0.12061 0.0
H142 H 0.62503 0.0997 0.48295 0.0
H143 H 0.64131 0.17466 0.57576 0.0
H144 H 0.72207 0.24687 0.56174 0.0
H145 H 0.78415 0.29225 0.52147 0.0
H146 H 0.76642 0.21759 0.42834 0.0
H147 H 0.69049 0.14213 0.44421 0.0
C148 C 0.64675 0.13127 0.50039 0.0
C149 C 0.62684 0.13166 0.53033 0.0
C150 C 0.69274 0.17328 0.49197 0.0
C151 C 0.65556 0.17322 0.55251 0.0
C152 C 0.70169 0.21479 0.54445 0.0
C153 C 0.764 0.2593 0.50475 0.0
C154 C 0.78089 0.26091 0.47368 0.0
C155 C 0.71999 0.21583 0.51397 0.0
C156 C 0.75429 0.21769 0.45238 0.0
C157 C 0.71075 0.17436 0.46142 0.0
H158 H 0.58816 0.76909 0.76882 0.0
H159 H 0.5377 0.70954 0.8598 0.0
H160 H 0.51099 0.77109 0.87201 0.0
H161 H 0.49317 0.83561 0.8543 0.0
H162 H 0.54909 0.89974 0.76524 0.0
H163 H 0.58288 0.84308 0.75488 0.0
C164 C 0.57236 0.77041 0.79158 0.0
C165 C 0.56422 0.73435 0.81311 0.0
C166 C 0.55756 0.80637 0.79865 0.0
C167 C 0.54425 0.73675 0.8427 0.0
C168 C 0.5286 0.77175 0.84966 0.0
C169 C 0.51341 0.83753 0.83287 0.0
C170 C 0.51813 0.87106 0.81034 0.0
C171 C 0.53361 0.80566 0.82741 0.0
C172 C 0.54504 0.87402 0.78287 0.0
C173 C 0.56416 0.84155 0.77689 0.0
H174 H 0.88898 0.60054 0.16064 0.0
H175 H 0.79654 0.43786 0.16197 0.0
H176 H 0.7192 0.44288 0.16164 0.0
H177 H 0.67707 0.49254 0.15898 0.0
H178 H 0.76826 0.65515 0.15803 0.0
H179 H 0.84644 0.65096 0.16046 0.0
C180 C 0.85194 0.56622 0.16095 0.0
C181 C 0.84884 0.51892 0.16106 0.0
C182 C 0.80718 0.56925 0.16084 0.0
C183 C 0.80037 0.47486 0.16169 0.0
C184 C 0.75591 0.4776 0.16152 0.0
C185 C 0.71402 0.52715 0.15951 0.0
C186 C 0.71668 0.57403 0.15818 0.0
C187 C 0.7588 0.52448 0.1608 0.0
C188 C 0.76499 0.61849 0.15903 0.0
C189 C 0.80979 0.61613 0.16032 0.0
H190 H 0.22956 0.7865 0.51551 0.0
H191 H 0.33944 0.7456 0.48319 0.0
H192 H 0.27222 0.65678 0.47619 0.0
H193 H 0.18237 0.59044 0.47933 0.0
H194 H 0.07156 0.63095 0.50989 0.0
H195 H 0.13899 0.72 0.51766 0.0
C196 C 0.23879 0.75819 0.50687 0.0
C197 C 0.28957 0.77286 0.4999 0.0
C198 C 0.1998 0.70699 0.50273 0.0
C199 C 0.30073 0.73557 0.48863 0.0
C200 C 0.26231 0.68464 0.48471 0.0
C201 C 0.17298 0.61869 0.48787 0.0
C202 C 0.12203 0.60398 0.49421 0.0
C203 C 0.21177 0.66989 0.49177 0.0
C204 C 0.11047 0.64121 0.50488 0.0
C205 C 0.14902 0.69217 0.50929 0.0
H206 H 0.55537 0.44569 0.77841 0.0
H207 H 0.59868 0.42315 0.87054 0.0
H208 H 0.56397 0.33362 0.85478 0.0
H209 H 0.52369 0.26239 0.81462 0.0
H210 H 0.48033 0.28401 0.72228 0.0
H211 H 0.51279 0.37335 0.73842 0.0
C212 C 0.55692 0.42113 0.79511 0.0
C213 C 0.57972 0.44117 0.8256 0.0
C214 C 0.53715 0.36961 0.78583 0.0
C215 C 0.58146 0.40881 0.84692 0.0
C216 C 0.56168 0.35757 0.83792 0.0
C217 C 0.52125 0.28654 0.79796 0.0
C218 C 0.4998 0.26653 0.76723 0.0
C219 C 0.53989 0.3377 0.80737 0.0
C220 C 0.49675 0.29842 0.74607 0.0
C221 C 0.51529 0.34952 0.75527 0.0
H222 H 0.45025 0.7708 0.56598 0.0
H223 H 0.5759 0.88603 0.51724 0.0
H224 H 0.62174 0.83998 0.52054 0.0
H225 H 0.62404 0.76492 0.53494 0.0
H226 H 0.49649 0.64839 0.58181 0.0
H227 H 0.45341 0.69717 0.58149 0.0
C228 C 0.4879 0.7862 0.55635 0.0
C229 C 0.50961 0.83177 0.54137 0.0
C230 C 0.51348 0.75909 0.55776 0.0
C231 C 0.5583 0.85097 0.52886 0.0
C232 C 0.58446 0.82461 0.53067 0.0
C233 C 0.58693 0.75028 0.54523 0.0
C234 C 0.56345 0.70297 0.55826 0.0
C235 C 0.56208 0.77828 0.54467 0.0
C236 C 0.51532 0.68456 0.57146 0.0
C237 C 0.49067 0.71246 0.57134 0.0
H238 H 0.77461 0.55054 0.78012 0.0
H239 H 0.79851 0.64064 0.86807 0.0
H240 H 0.87238 0.63326 0.88198 0.0
H241 H 0.92586 0.59593 0.87111 0.0
H242 H 0.90012 0.50307 0.78417 0.0
H243 H 0.83149 0.51731 0.7678 0.0
C244 C 0.79626 0.56904 0.80219 0.0
C245 C 0.78078 0.59579 0.82313 0.0
C246 C 0.8382 0.56395 0.81029 0.0
C247 C 0.80938 0.61958 0.85159 0.0
C248 C 0.85161 0.61533 0.85959 0.0
C249 C 0.90565 0.57919 0.8484 0.0
C250 C 0.91788 0.54813 0.82901 0.0
C251 C 0.86571 0.58678 0.83941 0.0
C252 C 0.89135 0.52692 0.79963 0.0
C253 C 0.85201 0.53495 0.79028 0.0
H254 H 0.2098 0.67903 0.11553 0.0
H255 H 0.12639 0.71249 0.18597 0.0
H256 H 0.20238 0.79474 0.20027 0.0
H257 H 0.29431 0.85303 0.19657 0.0
H258 H 0.37886 0.81812 0.12782 0.0
H259 H 0.30037 0.74081 0.10881 0.0
C260 C 0.20796 0.70459 0.13369 0.0
C261 C 0.16256 0.68936 0.14986 0.0
C262 C 0.25211 0.75143 0.14226 0.0
C263 C 0.16091 0.72305 0.17329 0.0
C264 C 0.2044 0.77009 0.18154 0.0
C265 C 0.29556 0.82893 0.17713 0.0
C266 C 0.34256 0.84111 0.1639 0.0
C267 C 0.25053 0.78405 0.16677 0.0
C268 C 0.3433 0.80951 0.1386 0.0
C269 C 0.29843 0.76519 0.12777 0.0
H270 H 0.61067 0.20576 0.48134 0.0
H271 H 0.47 0.19438 0.51164 0.0
H272 H 0.5131 0.28692 0.52026 0.0
H273 H 0.59181 0.37054 0.52123 0.0
H274 H 0.7339 0.3803 0.49597 0.0
H275 H 0.68919 0.28869 0.48311 0.0
C276 C 0.5893 0.22361 0.48943 0.0
C277 C 0.53715 0.19361 0.49547 0.0
C278 C 0.61472 0.27636 0.49541 0.0
C279 C 0.51014 0.21696 0.50669 0.0
C280 C 0.53478 0.26972 0.51165 0.0
C281 C 0.61282 0.35256 0.51269 0.0
C282 C 0.66592 0.38198 0.50933 0.0
C283 C 0.58718 0.29974 0.50639 0.0
C284 C 0.69299 0.3583 0.49876 0.0
C285 C 0.66749 0.30601 0.49143 0.0
H286 H 0.41809 0.64536 0.84728 0.0
H287 H 0.36077 0.50079 0.79457 0.0
H288 H 0.27417 0.48822 0.79353 0.0
H289 H 0.21442 0.51704 0.81029 0.0
H290 H 0.27435 0.66395 0.86082 0.0
H291 H 0.36046 0.67707 0.85988 0.0
C292 C 0.38661 0.61111 0.8355 0.0
C293 C 0.39537 0.57365 0.82143 0.0
C294 C 0.33752 0.60463 0.83467 0.0
C295 C 0.35469 0.53001 0.80563 0.0
C296 C 0.30528 0.52281 0.80515 0.0
C297 C 0.24641 0.55201 0.82092 0.0
C298 C 0.2379 0.58926 0.83587 0.0
C299 C 0.29613 0.55961 0.82 0.0
C300 C 0.27979 0.63465 0.84919 0.0
C301 C 0.32906 0.64215 0.84877 0.0
H302 H 0.80968 0.26372 0.15961 0.0
H303 H 0.77123 0.35462 0.22273 0.0
H304 H 0.68631 0.28215 0.22808 0.0
H305 H 0.6223 0.19344 0.21471 0.0
H306 H 0.66023 0.09974 0.15422 0.0
H307 H 0.74575 0.17261 0.14795 0.0
C308 C 0.78269 0.26749 0.17458 0.0
C309 C 0.79686 0.31456 0.1907 0.0
C310 C 0.73371 0.22522 0.17796 0.0
C311 C 0.76157 0.31883 0.21017 0.0
C312 C 0.7128 0.27742 0.21318 0.0
C313 C 0.6492 0.18897 0.20004 0.0
C314 C 0.63486 0.14148 0.18472 0.0
C315 C 0.69839 0.23057 0.19712 0.0
C316 C 0.6704 0.13605 0.16622 0.0
C317 C 0.71927 0.17768 0.16262 0.0
H318 H 0.04384 0.55901 0.06751 0.0
H319 H 0.9369 0.39789 0.06059 0.0
H320 H 0.948 0.39404 0.00348 0.0
H321 H 0.98701 0.43678 0.95541 0.0
H322 H 0.09501 0.59779 0.96292 0.0
H323 H 0.08485 0.60108 0.01998 0.0
C324 C 0.02276 0.52304 0.05353 0.0
C325 C 0.98927 0.47888 0.06828 0.0
C326 C 0.02974 0.521 0.02082 0.0
C327 C 0.96283 0.43249 0.04983 0.0
C328 C 0.96919 0.43024 0.01717 0.0
C329 C 0.0086 0.47255 0.96953 0.0
C330 C 0.04161 0.51696 0.95479 0.0
C331 C 0.00248 0.47429 0.0024 0.0
C332 C 0.06931 0.56297 0.97355 0.0
C333 C 0.06342 0.56497 0.00621 0.0
H334 H 0.48703 0.93533 0.41365 0.0
H335 H 0.42239 0.03238 0.4193 0.0
H336 H 0.43298 0.0429 0.36259 0.0
H337 H 0.45959 0.02369 0.31132 0.0
H338 H 0.52505 0.92734 0.30609 0.0
H339 H 0.51549 0.91788 0.36286 0.0
C340 C 0.47499 0.95863 0.40252 0.0
C341 C 0.4535 0.98264 0.42074 0.0
C342 C 0.48161 0.96491 0.37 0.0
C343 C 0.43877 0.01319 0.40588 0.0
C344 C 0.44491 0.01933 0.37344 0.0
C345 C 0.47205 0.00083 0.32259 0.0
C346 C 0.49291 0.97618 0.30437 0.0
C347 C 0.46623 0.99532 0.35527 0.0
C348 C 0.50886 0.94676 0.31946 0.0
C349 C 0.50327 0.94118 0.35194 0.0
H350 H 0.56298 0.56176 0.71181 0.0
H351 H 0.71727 0.65581 0.75088 0.0
H352 H 0.75107 0.64912 0.69979 0.0
H353 H 0.73702 0.61383 0.64429 0.0
H354 H 0.5831 0.52217 0.60475 0.0
H355 H 0.54898 0.53067 0.65556 0.0
C356 C 0.60398 0.5811 0.70907 0.0
C357 C 0.63744 0.60893 0.73521 0.0
C358 C 0.62329 0.5774 0.67952 0.0
C359 C 0.69053 0.6341 0.73118 0.0
C360 C 0.71 0.63015 0.70198 0.0
C361 C 0.69605 0.59594 0.64689 0.0
C362 C 0.66257 0.56777 0.62091 0.0
C363 C 0.67677 0.60142 0.67608 0.0
C364 C 0.60957 0.54481 0.62437 0.0
C365 C 0.59006 0.5494 0.65344 0.0
H366 H 0.41886 0.0371 0.60967 0.0
H367 H 0.39608 0.88638 0.59526 0.0
H368 H 0.38581 0.87624 0.65174 0.0
H369 H 0.39257 0.91311 0.70559 0.0
H370 H 0.41214 0.06224 0.72061 0.0
H371 H 0.41438 0.06988 0.66364 0.0
C372 C 0.41092 0.00176 0.61879 0.0
C373 C 0.40918 0.96297 0.59818 0.0
C374 C 0.4053 0.99611 0.65151 0.0
C375 C 0.39827 0.91721 0.61049 0.0
C376 C 0.39245 0.91131 0.64287 0.0
C377 C 0.39669 0.94716 0.69652 0.0
C378 C 0.40454 0.98801 0.71767 0.0
C379 C 0.39735 0.95103 0.66367 0.0
C380 C 0.40874 0.03124 0.70524 0.0
C381 C 0.40939 0.0354 0.67248 0.0
H382 H 0.63671 0.6197 0.92733 0.0
H383 H 0.47718 0.52901 0.89759 0.0
H384 H 0.45354 0.51757 0.95281 0.0
H385 H 0.47806 0.53362 0.00955 0.0
H386 H 0.63781 0.62274 0.03916 0.0
H387 H 0.66131 0.6344 0.98399 0.0
C388 C 0.59676 0.59749 0.93292 0.0
C389 C 0.5588 0.57537 0.90836 0.0
C390 C 0.58341 0.59074 0.96471 0.0
C391 C 0.50722 0.54636 0.91602 0.0
C392 C 0.49363 0.53987 0.94761 0.0
C393 C 0.51803 0.55567 0.00397 0.0
C394 C 0.55604 0.57737 0.02855 0.0
C395 C 0.53139 0.56195 0.97215 0.0
C396 C 0.60768 0.60552 0.02079 0.0
C397 C 0.62122 0.61229 0.98921 0.0
H398 H 0.00865 0.4381 0.25303 0.0
H399 H 0.95376 0.54298 0.25531 0.0
H400 H 0.94254 0.53659 0.31246 0.0
H401 H 0.9467 0.49947 0.36158 0.0
H402 H 0.00799 0.39979 0.35962 0.0
H403 H 0.01841 0.40576 0.30252 0.0
C404 C 0.99435 0.45961 0.26612 0.0
C405 C 0.98168 0.49065 0.25011 0.0
C406 C 0.98905 0.45653 0.29894 0.0
C407 C 0.96389 0.51896 0.26726 0.0
C408 C 0.95728 0.51513 0.29986 0.0
C409 C 0.96229 0.47909 0.34857 0.0
C410 C 0.97613 0.44887 0.36461 0.0
C411 C 0.96941 0.48376 0.3159 0.0
C412 C 0.9971 0.42329 0.3477 0.0
C413 C 0.00296 0.42661 0.31509 0.0
loop_
_geom_bond_atom_site_label_1
_geom_bond_atom_site_label_2
_geom_bond_distance
_geom_bond_site_symmetry_2
_ccdc_geom_bond_type
Zn0 O6 1.969 . S
Zn0 O7 1.965 . S
Zn0 O11 2.024 . S
Zn0 O16 1.969 . S
Zn1 O8 1.969 . S
Zn1 O14 1.969 . S
Zn1 O15 1.965 . S
Zn1 O17 2.024 . S
C2 O3 1.229 . S
C2 O11 1.058 . S
O3 C2 1.229 . S
C4 O5 1.229 . S
C4 O17 1.058 . S
O5 C4 1.229 . S
O6 Zn0 1.969 . S
O6 C9 1.267 . S
O7 Zn0 1.965 . S
O7 C18 1.260 1_455 S
O8 Zn1 1.969 . S
O8 C18 1.258 . S
C9 O6 1.267 . S
C9 O10 1.228 . S
O10 C9 1.228 . S
O11 Zn0 2.024 . S
O11 C2 1.058 . S
C12 O13 1.228 . S
C12 O14 1.267 . S
O13 C12 1.228 . S
O14 Zn1 1.969 . S
O14 C12 1.267 . S
O15 Zn1 1.965 . S
O15 C19 1.260 1_655 S
O16 Zn0 1.969 . S
O16 C19 1.258 . S
O17 Zn1 2.024 . S
O17 C4 1.058 . S
C18 O7 1.260 1_655 S
C18 O8 1.258 . S
C19 O15 1.260 1_455 S
C19 O16 1.258 . S
Zn20 O26 1.969 . S
Zn20 O27 1.965 . S
Zn20 O31 2.024 . S
Zn20 O36 1.969 . S
Zn21 O28 1.969 . S
Zn21 O34 1.969 . S
Zn21 O35 1.965 . S
Zn21 O37 2.024 . S
C22 O23 1.229 . S
C22 O31 1.058 . S
O23 C22 1.229 . S
C24 O25 1.229 . S
C24 O37 1.058 . S
O25 C24 1.229 . S
O26 Zn20 1.969 . S
O26 C29 1.267 . S
O27 Zn20 1.965 . S
O27 C38 1.260 . S
O28 Zn21 1.969 . S
O28 C38 1.258 1_565 S
C29 O26 1.267 . S
C29 O30 1.228 . S
O30 C29 1.228 . S
O31 Zn20 2.024 . S
O31 C22 1.058 . S
C32 O33 1.228 . S
C32 O34 1.267 . S
O33 C32 1.228 . S
O34 Zn21 1.969 . S
O34 C32 1.267 . S
O35 Zn21 1.965 . S
O35 C39 1.260 1_565 S
O36 Zn20 1.969 . S
O36 C39 1.258 . S
O37 Zn21 2.024 . S
O37 C24 1.058 . S
C38 O27 1.260 . S
C38 O28 1.258 1_545 S
C39 O35 1.260 1_545 S
C39 O36 1.258 . S
Zn40 O46 1.969 . S
Zn40 O47 1.965 . S
Zn40 O51 2.024 . S
Zn40 O56 1.969 . S
Zn41 O48 1.969 . S
Zn41 O54 1.969 . S
Zn41 O55 1.965 . S
Zn41 O57 2.024 . S
C42 O43 1.229 . S
C42 O51 1.058 . S
O43 C42 1.229 . S
C44 O45 1.229 . S
C44 O57 1.058 . S
O45 C44 1.229 . S
O46 Zn40 1.969 . S
O46 C49 1.267 . S
O47 Zn40 1.965 . S
O47 C58 1.260 . S
O48 Zn41 1.969 . S
O48 C58 1.258 . S
C49 O46 1.267 . S
C49 O50 1.228 . S
O50 C49 1.228 . S
O51 Zn40 2.024 . S
O51 C42 1.058 . S
C52 O53 1.228 . S
C52 O54 1.267 . S
O53 C52 1.228 . S
O54 Zn41 1.969 . S
O54 C52 1.267 . S
O55 Zn41 1.965 . S
O55 C59 1.260 . S
O56 Zn40 1.969 . S
O56 C59 1.258 . S
O57 Zn41 2.024 . S
O57 C44 1.058 . S
C58 O47 1.260 . S
C58 O48 1.258 . S
C59 O55 1.260 . S
C59 O56 1.258 . S
O60 Cd61 2.300 . S
O60 C67 1.275 . S
Cd61 O60 2.300 . S
Cd61 O69 2.381 . S
Cd61 O70 2.378 . S
O62 Cd63 2.385 . S
O62 C67 1.255 1_565 S
Cd63 O62 2.385 . S
Cd63 O64 2.317 . S
O64 Cd63 2.317 . S
O64 C65 1.232 . S
C65 O64 1.232 . S
C65 O66 1.218 . S
O66 C65 1.218 . S
C67 O60 1.275 . S
C67 O62 1.255 1_545 S
C68 O69 1.258 . S
C68 O70 1.256 . S
O69 Cd61 2.381 . S
O69 C68 1.258 . S
O70 Cd61 2.378 . S
O70 C68 1.256 . S
O71 Cd72 2.300 . S
O71 C78 1.275 . S
Cd72 O71 2.300 . S
Cd72 O80 2.381 . S
Cd72 O81 2.378 . S
O73 Cd74 2.385 . S
O73 C78 1.255 . S
Cd74 O73 2.385 . S
Cd74 O75 2.317 . S
O75 Cd74 2.317 . S
O75 C76 1.232 . S
C76 O75 1.232 . S
C76 O77 1.218 . S
O77 C76 1.218 . S
C78 O71 1.275 . S
C78 O73 1.255 . S
C79 O80 1.258 . S
C79 O81 1.256 . S
O80 Cd72 2.381 . S
O80 C79 1.258 . S
O81 Cd72 2.378 . S
O81 C79 1.256 . S
O82 Cd83 2.300 . S
O82 C89 1.275 . S
Cd83 O82 2.300 . S
Cd83 O91 2.381 . S
Cd83 O92 2.378 . S
O84 Cd85 2.385 . S
O84 C89 1.255 1_655 S
Cd85 O84 2.385 . S
Cd85 O86 2.317 . S
O86 Cd85 2.317 . S
O86 C87 1.232 . S
C87 O86 1.232 . S
C87 O88 1.218 . S
O88 C87 1.218 . S
C89 O82 1.275 . S
C89 O84 1.255 1_455 S
C90 O91 1.258 . S
C90 O92 1.256 . S
O91 Cd83 2.381 . S
O91 C90 1.258 . S
O92 Cd83 2.378 . S
O92 C90 1.256 . S
O93 Cd94 2.300 . S
O93 C100 1.275 . S
Cd94 O93 2.300 . S
Cd94 O102 2.381 . S
Cd94 O103 2.378 . S
O95 Cd96 2.385 . S
O95 C100 1.255 1_655 S
Cd96 O95 2.385 . S
Cd96 O97 2.317 . S
O97 Cd96 2.317 . S
O97 C98 1.232 . S
C98 O97 1.232 . S
C98 O99 1.218 . S
O99 C98 1.218 . S
C100 O93 1.275 . S
C100 O95 1.255 1_455 S
C101 O102 1.258 . S
C101 O103 1.256 . S
O102 Cd94 2.381 . S
O102 C101 1.258 . S
O103 Cd94 2.378 . S
O103 C101 1.256 . S
O104 Cd105 2.300 . S
O104 C111 1.275 1_565 S
Cd105 O104 2.300 . S
Cd105 O113 2.381 . S
Cd105 O114 2.378 . S
O106 Cd107 2.385 . S
O106 C111 1.255 . S
Cd107 O106 2.385 . S
Cd107 O108 2.317 . S
O108 Cd107 2.317 . S
O108 C109 1.232 . S
C109 O108 1.232 . S
C109 O110 1.218 . S
O110 C109 1.218 . S
C111 O104 1.275 1_545 S
C111 O106 1.255 . S
C112 O113 1.258 . S
C112 O114 1.256 . S
O113 Cd105 2.381 . S
O113 C112 1.258 . S
O114 Cd105 2.378 . S
O114 C112 1.256 . S
O115 Cd116 2.300 . S
O115 C122 1.275 . S
Cd116 O115 2.300 . S
Cd116 O124 2.381 . S
Cd116 O125 2.378 . S
O117 Cd118 2.385 . S
O117 C122 1.255 . S
Cd118 O117 2.385 . S
Cd118 O119 2.317 . S
O119 Cd118 2.317 . S
O119 C120 1.232 . S
C120 O119 1.232 . S
C120 O121 1.218 . S
O121 C120 1.218 . S
C122 O115 1.275 . S
C122 O117 1.255 . S
C123 O124 1.258 . S
C123 O125 1.256 . S
O124 Cd116 2.381 . S
O124 C123 1.258 . S
O125 Cd116 2.378 . S
O125 C123 1.256 . S
H126 C132 0.930 . S
H127 C135 0.930 . S
H128 C136 0.930 . S
H129 C137 0.930 . S
H130 C140 0.930 . S
H131 C141 0.930 . S
C132 H126 0.930 . S
C132 C133 1.355 . S
C132 C134 1.415 . S
C133 C132 1.355 . S
C133 C135 1.419 . S
C134 C132 1.415 . S
C134 C139 1.425 . S
C134 C141 1.409 . S
C135 H127 0.930 . S
C135 C133 1.419 . S
C135 C136 1.362 . S
C136 H128 0.930 . S
C136 C135 1.362 . S
C136 C139 1.409 . S
C137 H129 0.930 . S
C137 C138 1.355 . S
C137 C139 1.415 . S
C138 C137 1.355 . S
C138 C140 1.419 . S
C139 C134 1.425 . S
C139 C136 1.409 . S
C139 C137 1.415 . S
C140 H130 0.930 . S
C140 C138 1.419 . S
C140 C141 1.362 . S
C141 H131 0.930 . S
C141 C134 1.409 . S
C141 C140 1.362 . S
H142 C148 0.930 . S
H143 C151 0.930 . S
H144 C152 0.930 . S
H145 C153 0.930 . S
H146 C156 0.930 . S
H147 C157 0.930 . S
C148 H142 0.930 . S
C148 C149 1.355 . S
C148 C150 1.415 . S
C149 C148 1.355 . S
C149 C151 1.419 . S
C150 C148 1.415 . S
C150 C155 1.425 . S
C150 C157 1.409 . S
C151 H143 0.930 . S
C151 C149 1.419 . S
C151 C152 1.362 . S
C152 H144 0.930 . S
C152 C151 1.362 . S
C152 C155 1.409 . S
C153 H145 0.930 . S
C153 C154 1.355 . S
C153 C155 1.415 . S
C154 C153 1.355 . S
C154 C156 1.419 . S
C155 C150 1.425 . S
C155 C152 1.409 . S
C155 C153 1.415 . S
C156 H146 0.930 . S
C156 C154 1.419 . S
C156 C157 1.362 . S
C157 H147 0.930 . S
C157 C150 1.409 . S
C157 C156 1.362 . S
H158 C164 0.930 . S
H159 C167 0.930 . S
H160 C168 0.930 . S
H161 C169 0.930 . S
H162 C172 0.930 . S
H163 C173 0.930 . S
C164 H158 0.930 . S
C164 C165 1.355 . S
C164 C166 1.415 . S
C165 C164 1.355 . S
C165 C167 1.419 . S
C166 C164 1.415 . S
C166 C171 1.425 . S
C166 C173 1.409 . S
C167 H159 0.930 . S
C167 C165 1.419 . S
C167 C168 1.362 . S
C168 H160 0.930 . S
C168 C167 1.362 . S
C168 C171 1.409 . S
C169 H161 0.930 . S
C169 C170 1.355 . S
C169 C171 1.415 . S
C170 C169 1.355 . S
C170 C172 1.419 . S
C171 C166 1.425 . S
C171 C168 1.409 . S
C171 C169 1.415 . S
C172 H162 0.930 . S
C172 C170 1.419 . S
C172 C173 1.362 . S
C173 H163 0.930 . S
C173 C166 1.409 . S
C173 C172 1.362 . S
H174 C180 0.930 . S
H175 C183 0.930 . S
H176 C184 0.930 . S
H177 C185 0.930 . S
H178 C188 0.930 . S
H179 C189 0.930 . S
C180 H174 0.930 . S
C180 C181 1.355 . S
C180 C182 1.415 . S
C181 C180 1.355 . S
C181 C183 1.419 . S
C182 C180 1.415 . S
C182 C187 1.425 . S
C182 C189 1.409 . S
C183 H175 0.930 . S
C183 C181 1.419 . S
C183 C184 1.362 . S
C184 H176 0.930 . S
C184 C183 1.362 . S
C184 C187 1.409 . S
C185 H177 0.930 . S
C185 C186 1.355 . S
C185 C187 1.415 . S
C186 C185 1.355 . S
C186 C188 1.419 . S
C187 C182 1.425 . S
C187 C184 1.409 . S
C187 C185 1.415 . S
C188 H178 0.930 . S
C188 C186 1.419 . S
C188 C189 1.362 . S
C189 H179 0.930 . S
C189 C182 1.409 . S
C189 C188 1.362 . S
H190 C196 0.930 . S
H191 C199 0.930 . S
H192 C200 0.930 . S
H193 C201 0.930 . S
H194 C204 0.930 . S
H195 C205 0.930 . S
C196 H190 0.930 . S
C196 C197 1.355 . S
C196 C198 1.415 . S
C197 C196 1.355 . S
C197 C199 1.419 . S
C198 C196 1.415 . S
C198 C203 1.425 . S
C198 C205 1.409 . S
C199 H191 0.930 . S
C199 C197 1.419 . S
C199 C200 1.362 . S
C200 H192 0.930 . S
C200 C199 1.362 . S
C200 C203 1.409 . S
C201 H193 0.930 . S
C201 C202 1.355 . S
C201 C203 1.415 . S
C202 C201 1.355 . S
C202 C204 1.419 . S
C203 C198 1.425 . S
C203 C200 1.409 . S
C203 C201 1.415 . S
C204 H194 0.930 . S
C204 C202 1.419 . S
C204 C205 1.362 . S
C205 H195 0.930 . S
C205 C198 1.409 . S
C205 C204 1.362 . S
H206 C212 0.930 . S
H207 C215 0.930 . S
H208 C216 0.930 . S
H209 C217 0.930 . S
H210 C220 0.930 . S
H211 C221 0.930 . S
C212 H206 0.930 . S
C212 C213 1.355 . S
C212 C214 1.415 . S
C213 C212 1.355 . S
C213 C215 1.419 . S
C214 C212 1.415 . S
C214 C219 1.425 . S
C214 C221 1.409 . S
C215 H207 0.930 . S
C215 C213 1.419 . S
C215 C216 1.362 . S
C216 H208 0.930 . S
C216 C215 1.362 . S
C216 C219 1.409 . S
C217 H209 0.930 . S
C217 C218 1.355 . S
C217 C219 1.415 . S
C218 C217 1.355 . S
C218 C220 1.419 . S
C219 C214 1.425 . S
C219 C216 1.409 . S
C219 C217 1.415 . S
C220 H210 0.930 . S
C220 C218 1.419 . S
C220 C221 1.362 . S
C221 H211 0.930 . S
C221 C214 1.409 . S
C221 C220 1.362 . S
H222 C228 0.930 . S
H223 C231 0.930 . S
H224 C232 0.930 . S
H225 C233 0.930 . S
H226 C236 0.930 . S
H227 C237 0.930 . S
C228 H222 0.930 . S
C228 C229 1.355 . S
C228 C230 1.415 . S
C229 C228 1.355 . S
C229 C231 1.419 . S
C230 C228 1.415 . S
C230 C235 1.425 . S
C230 C237 1.409 . S
C231 H223 0.930 . S
C231 C229 1.419 . S
C231 C232 1.362 . S
C232 H224 0.930 . S
C232 C231 1.362 . S
C232 C235 1.409 . S
C233 H225 0.930 . S
C233 C234 1.355 . S
C233 C235 1.415 . S
C234 C233 1.355 . S
C234 C236 1.419 . S
C235 C230 1.425 . S
C235 C232 1.409 . S
C235 C233 1.415 . S
C236 H226 0.930 . S
C236 C234 1.419 . S
C236 C237 1.362 . S
C237 H227 0.930 . S
C237 C230 1.409 . S
C237 C236 1.362 . S
H238 C244 0.930 . S
H239 C247 0.930 . S
H240 C248 0.930 . S
H241 C249 0.930 . S
H242 C252 0.930 . S
H243 C253 0.930 . S
C244 H238 0.930 . S
C244 C245 1.355 . S
C244 C246 1.415 . S
C245 C244 1.355 . S
C245 C247 1.419 . S
C246 C244 1.415 . S
C246 C251 1.425 . S
C246 C253 1.409 . S
C247 H239 0.930 . S
C247 C245 1.419 . S
C247 C248 1.362 . S
C248 H240 0.930 . S
C248 C247 1.362 . S
C248 C251 1.409 . S
C249 H241 0.930 . S
C249 C250 1.355 . S
C249 C251 1.415 . S
C250 C249 1.355 . S
C250 C252 1.419 . S
C251 C246 1.425 . S
C251 C248 1.409 . S
C251 C249 1.415 . S
C252 H242 0.930 . S
C252 C250 1.419 . S
C252 C253 1.362 . S
C253 H243 0.930 . S
C253 C246 1.409 . S
C253 C252 1.362 . S
H254 C260 0.930 . S
H255 C263 0.930 . S
H256 C264 0.930 . S
H257 C265 0.930 . S
H258 C268 0.930 . S
H259 C269 0.930 . S
C260 H254 0.930 . S
C260 C261 1.355 . S
C260 C262 1.415 . S
C261 C260 1.355 . S
C261 C263 1.419 . S
C262 C260 1.415 . S
C262 C267 1.425 . S
C262 C269 1.409 . S
C263 H255 0.930 . S
C263 C261 1.419 . S
C263 C264 1.362 . S
C264 H256 0.930 . S
C264 C263 1.362 . S
C264 C267 1.409 . S
C265 H257 0.930 . S
C265 C266 1.355 . S
C265 C267 1.415 . S
C266 C265 1.355 . S
C266 C268 1.419 . S
C267 C262 1.425 . S
C267 C264 1.409 . S
C267 C265 1.415 . S
C268 H258 0.930 . S
C268 C266 1.419 . S
C268 C269 1.362 . S
C269 H259 0.930 . S
C269 C262 1.409 . S
C269 C268 1.362 . S
H270 C276 0.930 . S
H271 C279 0.930 . S
H272 C280 0.930 . S
H273 C281 0.930 . S
H274 C284 0.930 . S
H275 C285 0.930 . S
C276 H270 0.930 . S
C276 C277 1.355 . S
C276 C278 1.415 . S
C277 C276 1.355 . S
C277 C279 1.419 . S
C278 C276 1.415 . S
C278 C283 1.425 . S
C278 C285 1.409 . S
C279 H271 0.930 . S
C279 C277 1.419 . S
C279 C280 1.362 . S
C280 H272 0.930 . S
C280 C279 1.362 . S
C280 C283 1.409 . S
C281 H273 0.930 . S
C281 C282 1.355 . S
C281 C283 1.415 . S
C282 C281 1.355 . S
C282 C284 1.419 . S
C283 C278 1.425 . S
C283 C280 1.409 . S
C283 C281 1.415 . S
C284 H274 0.930 . S
C284 C282 1.419 . S
C284 C285 1.362 . S
C285 H275 0.930 . S
C285 C278 1.409 . S
C285 C284 1.362 . S
H286 C292 0.930 . S
H287 C295 0.930 . S
H288 C296 0.930 . S
H289 C297 0.930 . S
H290 C300 0.930 . S
H291 C301 0.930 . S
C292 H286 0.930 . S
C292 C293 1.355 . S
C292 C294 1.415 . S
C293 C292 1.355 . S
C293 C295 1.419 . S
C294 C292 1.415 . S
C294 C299 1.425 . S
C294 C301 1.409 . S
C295 H287 0.930 . S
C295 C293 1.419 . S
C295 C296 1.362 . S
C296 H288 0.930 . S
C296 C295 1.362 . S
C296 C299 1.409 . S
C297 H289 0.930 . S
C297 C298 1.355 . S
C297 C299 1.415 . S
C298 C297 1.355 . S
C298 C300 1.419 . S
C299 C294 1.425 . S
C299 C296 1.409 . S
C299 C297 1.415 . S
C300 H290 0.930 . S
C300 C298 1.419 . S
C300 C301 1.362 . S
C301 H291 0.930 . S
C301 C294 1.409 . S
C301 C300 1.362 . S
H302 C308 0.930 . S
H303 C311 0.930 . S
H304 C312 0.930 . S
H305 C313 0.930 . S
H306 C316 0.930 . S
H307 C317 0.930 . S
C308 H302 0.930 . S
C308 C309 1.355 . S
C308 C310 1.415 . S
C309 C308 1.355 . S
C309 C311 1.419 . S
C310 C308 1.415 . S
C310 C315 1.425 . S
C310 C317 1.409 . S
C311 H303 0.930 . S
C311 C309 1.419 . S
C311 C312 1.362 . S
C312 H304 0.930 . S
C312 C311 1.362 . S
C312 C315 1.409 . S
C313 H305 0.930 . S
C313 C314 1.355 . S
C313 C315 1.415 . S
C314 C313 1.355 . S
C314 C316 1.419 . S
C315 C310 1.425 . S
C315 C312 1.409 . S
C315 C313 1.415 . S
C316 H306 0.930 . S
C316 C314 1.419 . S
C316 C317 1.362 . S
C317 H307 0.930 . S
C317 C310 1.409 . S
C317 C316 1.362 . S
H318 C324 0.930 . S
H319 C327 0.930 . S
H320 C328 0.930 . S
H321 C329 0.930 . S
H322 C332 0.930 . S
H323 C333 0.930 . S
C324 H318 0.930 . S
C324 C325 1.355 . S
C324 C326 1.415 . S
C325 C324 1.355 . S
C325 C327 1.419 1_455 S
C326 C324 1.415 . S
C326 C331 1.425 1_455 S
C326 C333 1.409 . S
C327 H319 0.930 . S
C327 C325 1.419 1_655 S
C327 C328 1.362 . S
C328 H320 0.930 . S
C328 C327 1.362 . S
C328 C331 1.409 . S
C329 H321 0.930 . S
C329 C330 1.355 1_655 S
C329 C331 1.415 1_556 S
C330 C329 1.355 1_455 S
C330 C332 1.419 . S
C331 C326 1.425 1_655 S
C331 C328 1.409 . S
C331 C329 1.415 1_554 S
C332 H322 0.930 . S
C332 C330 1.419 . S
C332 C333 1.362 1_556 S
C333 H323 0.930 . S
C333 C326 1.409 . S
C333 C332 1.362 1_554 S
H334 C340 0.930 . S
H335 C343 0.930 . S
H336 C344 0.930 . S
H337 C345 0.930 . S
H338 C348 0.930 1_565 S
H339 C349 0.942 . S
C340 H334 0.930 . S
C340 C341 1.355 . S
C340 C342 1.415 . S
C341 C340 1.355 . S
C341 C343 1.419 . S
C342 C340 1.415 . S
C342 C347 1.425 . S
C342 C349 1.402 1_545 S
C343 H335 0.930 . S
C343 C341 1.419 . S
C343 C344 1.362 . S
C344 H336 0.930 . S
C344 C343 1.362 . S
C344 C347 1.409 . S
C345 H337 0.930 . S
C345 C346 1.355 . S
C345 C347 1.415 . S
C346 C345 1.355 . S
C346 C348 1.419 . S
C347 C342 1.425 . S
C347 C344 1.409 . S
C347 C345 1.415 . S
C348 H338 0.930 1_545 S
C348 C346 1.419 . S
C348 C349 1.358 1_545 S
C349 H339 0.942 . S
C349 C342 1.402 1_565 S
C349 C348 1.358 1_565 S
H350 C356 0.930 . S
H351 C359 0.930 . S
H352 C360 0.930 . S
H353 C361 0.930 . S
H354 C364 0.930 . S
H355 C365 0.930 . S
C356 H350 0.930 . S
C356 C357 1.355 . S
C356 C358 1.415 . S
C357 C356 1.355 . S
C357 C359 1.419 . S
C358 C356 1.415 . S
C358 C363 1.425 . S
C358 C365 1.409 . S
C359 H351 0.930 . S
C359 C357 1.419 . S
C359 C360 1.362 . S
C360 H352 0.930 . S
C360 C359 1.362 . S
C360 C363 1.409 . S
C361 H353 0.930 . S
C361 C362 1.355 . S
C361 C363 1.415 . S
C362 C361 1.355 . S
C362 C364 1.419 . S
C363 C358 1.425 . S
C363 C360 1.409 . S
C363 C361 1.415 . S
C364 H354 0.930 . S
C364 C362 1.419 . S
C364 C365 1.362 . S
C365 H355 0.930 . S
C365 C358 1.409 . S
C365 C364 1.362 . S
H366 C372 0.930 . S
H367 C375 0.930 . S
H368 C376 0.930 . S
H369 C377 0.930 . S
H370 C380 0.930 . S
H371 C381 0.930 . S
C372 H366 0.930 . S
C372 C373 1.355 . S
C372 C374 1.415 . S
C373 C372 1.355 . S
C373 C375 1.419 1_545 S
C374 C372 1.415 . S
C374 C379 1.413 1_545 S
C374 C381 1.409 . S
C375 H367 0.930 . S
C375 C373 1.419 1_565 S
C375 C376 1.362 . S
C376 H368 0.930 . S
C376 C375 1.362 . S
C376 C379 1.421 . S
C377 H369 0.930 . S
C377 C378 1.355 1_565 S
C377 C379 1.415 . S
C378 C377 1.355 1_545 S
C378 C380 1.419 . S
C379 C374 1.413 1_565 S
C379 C376 1.421 . S
C379 C377 1.415 . S
C380 H370 0.930 . S
C380 C378 1.419 . S
C380 C381 1.362 . S
C381 H371 0.930 . S
C381 C374 1.409 . S
C381 C380 1.362 . S
H382 C388 0.930 . S
H383 C391 0.930 . S
H384 C392 0.930 . S
H385 C393 0.930 . S
H386 C396 0.930 . S
H387 C397 0.930 . S
C388 H382 0.930 . S
C388 C389 1.355 . S
C388 C390 1.415 . S
C389 C388 1.355 . S
C389 C391 1.419 . S
C390 C388 1.415 . S
C390 C395 1.425 . S
C390 C397 1.409 . S
C391 H383 0.930 . S
C391 C389 1.419 . S
C391 C392 1.362 . S
C392 H384 0.930 . S
C392 C391 1.362 . S
C392 C395 1.409 . S
C393 H385 0.930 . S
C393 C394 1.355 . S
C393 C395 1.415 1_554 S
C394 C393 1.355 . S
C394 C396 1.419 . S
C395 C390 1.425 . S
C395 C392 1.409 . S
C395 C393 1.415 1_556 S
C396 H386 0.930 . S
C396 C394 1.419 . S
C396 C397 1.362 1_554 S
C397 H387 0.930 . S
C397 C390 1.409 . S
C397 C396 1.362 1_556 S
H398 C404 0.930 . S
H399 C407 0.930 . S
H400 C408 0.930 . S
H401 C409 0.930 . S
H402 C412 0.930 . S
H403 C413 0.930 . S
C404 H398 0.930 . S
C404 C405 1.355 . S
C404 C406 1.415 . S
C405 C404 1.355 . S
C405 C407 1.419 1_655 S
C406 C404 1.415 . S
C406 C411 1.425 1_655 S
C406 C413 1.409 . S
C407 H399 0.930 . S
C407 C405 1.419 1_455 S
C407 C408 1.362 . S
C408 H400 0.930 . S
C408 C407 1.362 . S
C408 C411 1.409 . S
C409 H401 0.930 . S
C409 C410 1.355 1_455 S
C409 C411 1.415 . S
C410 C409 1.355 1_655 S
C410 C412 1.419 . S
C411 C406 1.425 1_455 S
C411 C408 1.409 . S
C411 C409 1.415 . S
C412 H402 0.930 . S
C412 C410 1.419 . S
C412 C413 1.362 . S
C413 H403 0.930 . S
C413 C406 1.409 . S
C413 C412 1.362 . S
C133 C2 1.488 . S
C138 C120 1.415 . S
C149 C22 1.557 . S
C154 C98 1.353 . S
C165 C44 1.325 . S
C170 C112 1.338 . S
C181 C4 1.454 . S
C186 C123 1.452 . S
C202 C101 1.447 . S
C197 C24 1.421 . S
C218 C109 1.495 . S
C213 C42 1.571 . S
C229 C32 1.466 . S
C234 C76 1.166 . S
C245 C49 1.412 . S
C250 C87 1.148 . S
C261 C9 1.354 . S
C266 C65 1.271 . S
C282 C79 1.196 . S
C277 C29 1.184 . S
C298 C90 1.245 . S
C293 C52 1.217 . S
C309 C12 1.140 . S
C314 C68 1.154 . S
C330 C89 1.365 . S
C325 C18 1.433 1_455 S
C341 C38 1.450 . S
C346 C67 1.381 . S
C357 C58 1.474 . S
C362 C78 1.395 . S
C378 C111 1.470 . S
C373 C39 1.534 . S
C394 C122 1.417 . S
C389 C59 1.511 . S
C405 C19 1.532 1_655 S
C410 C100 1.499 1_655 S
