# Generated by pormake.
# Topology eea, (3,6)-cn, num edge types: 1
# Building blocks:
#     Node 0, Type 0, BuildingBlock: WUSLED_clean_sbu_0, # of connection points: 3
#     Node 1, Type 0, BuildingBlock: WUSLED_clean_sbu_0, # of connection points: 3
#     Node 2, Type 0, BuildingBlock: WUSLED_clean_sbu_0, # of connection points: 3
#     Node 3, Type 0, BuildingBlock: WUSLED_clean_sbu_0, # of connection points: 3
#     Node 4, Type 0, BuildingBlock: WUSLED_clean_sbu_0, # of connection points: 3
#     Node 5, Type 0, BuildingBlock: WUSLED_clean_sbu_0, # of connection points: 3
#     Node 6, Type 0, BuildingBlock: WUSLED_clean_sbu_0, # of connection points: 3
#     Node 7, Type 0, BuildingBlock: WUSLED_clean_sbu_0, # of connection points: 3
#     Node 8, Type 0, BuildingBlock: WUSLED_clean_sbu_0, # of connection points: 3
#     Node 9, Type 0, BuildingBlock: WUSLED_clean_sbu_0, # of connection points: 3
#     Node 10, Type 0, BuildingBlock: WUSLED_clean_sbu_0, # of connection points: 3
#     Node 11, Type 0, BuildingBlock: WUSLED_clean_sbu_0, # of connection points: 3
#     Node 12, Type 0, BuildingBlock: WUSLED_clean_sbu_0, # of connection points: 3
#     Node 13, Type 0, BuildingBlock: WUSLED_clean_sbu_0, # of connection points: 3
#     Node 14, Type 0, BuildingBlock: WUSLED_clean_sbu_0, # of connection points: 3
#     Node 15, Type 0, BuildingBlock: WUSLED_clean_sbu_0, # of connection points: 3
#     Node 16, Type 0, BuildingBlock: WUSLED_clean_sbu_0, # of connection points: 3
#     Node 17, Type 0, BuildingBlock: WUSLED_clean_sbu_0, # of connection points: 3
#     Node 18, Type 1, BuildingBlock: KUMJIN_clean_sbu_0, # of connection points: 6
#     Node 19, Type 1, BuildingBlock: KUMJIN_clean_sbu_0, # of connection points: 6
#     Node 20, Type 1, BuildingBlock: KUMJIN_clean_sbu_0, # of connection points: 6
#     Node 21, Type 1, BuildingBlock: KUMJIN_clean_sbu_0, # of connection points: 6
#     Node 22, Type 1, BuildingBlock: KUMJIN_clean_sbu_0, # of connection points: 6
#     Node 23, Type 1, BuildingBlock: KUMJIN_clean_sbu_0, # of connection points: 6
#     Node 24, Type 1, BuildingBlock: KUMJIN_clean_sbu_0, # of connection points: 6
#     Node 25, Type 1, BuildingBlock: KUMJIN_clean_sbu_0, # of connection points: 6
#     Node 26, Type 1, BuildingBlock: KUMJIN_clean_sbu_0, # of connection points: 6
#     Edge 27, Type (0, 1), BuildingBlock: KIFKEQ_clean_linker_1, # of connection points: 2
#     Edge 28, Type (0, 1), BuildingBlock: KIFKEQ_clean_linker_1, # of connection points: 2
#     Edge 29, Type (0, 1), BuildingBlock: KIFKEQ_clean_linker_1, # of connection points: 2
#     Edge 30, Type (0, 1), BuildingBlock: KIFKEQ_clean_linker_1, # of connection points: 2
#     Edge 31, Type (0, 1), BuildingBlock: KIFKEQ_clean_linker_1, # of connection points: 2
#     Edge 32, Type (0, 1), BuildingBlock: KIFKEQ_clean_linker_1, # of connection points: 2
#     Edge 33, Type (0, 1), BuildingBlock: KIFKEQ_clean_linker_1, # of connection points: 2
#     Edge 34, Type (0, 1), BuildingBlock: KIFKEQ_clean_linker_1, # of connection points: 2
#     Edge 35, Type (0, 1), BuildingBlock: KIFKEQ_clean_linker_1, # of connection points: 2
#     Edge 36, Type (0, 1), BuildingBlock: KIFKEQ_clean_linker_1, # of connection points: 2
#     Edge 37, Type (0, 1), BuildingBlock: KIFKEQ_clean_linker_1, # of connection points: 2
#     Edge 38, Type (0, 1), BuildingBlock: KIFKEQ_clean_linker_1, # of connection points: 2
#     Edge 39, Type (0, 1), BuildingBlock: KIFKEQ_clean_linker_1, # of connection points: 2
#     Edge 40, Type (0, 1), BuildingBlock: KIFKEQ_clean_linker_1, # of connection points: 2
#     Edge 41, Type (0, 1), BuildingBlock: KIFKEQ_clean_linker_1, # of connection points: 2
#     Edge 42, Type (0, 1), BuildingBlock: KIFKEQ_clean_linker_1, # of connection points: 2
#     Edge 43, Type (0, 1), BuildingBlock: KIFKEQ_clean_linker_1, # of connection points: 2
#     Edge 44, Type (0, 1), BuildingBlock: KIFKEQ_clean_linker_1, # of connection points: 2
#     Edge 45, Type (0, 1), BuildingBlock: KIFKEQ_clean_linker_1, # of connection points: 2
#     Edge 46, Type (0, 1), BuildingBlock: KIFKEQ_clean_linker_1, # of connection points: 2
#     Edge 47, Type (0, 1), BuildingBlock: KIFKEQ_clean_linker_1, # of connection points: 2
#     Edge 48, Type (0, 1), BuildingBlock: KIFKEQ_clean_linker_1, # of connection points: 2
#     Edge 49, Type (0, 1), BuildingBlock: KIFKEQ_clean_linker_1, # of connection points: 2
#     Edge 50, Type (0, 1), BuildingBlock: KIFKEQ_clean_linker_1, # of connection points: 2
#     Edge 51, Type (0, 1), BuildingBlock: KIFKEQ_clean_linker_1, # of connection points: 2
#     Edge 52, Type (0, 1), BuildingBlock: KIFKEQ_clean_linker_1, # of connection points: 2
#     Edge 53, Type (0, 1), BuildingBlock: KIFKEQ_clean_linker_1, # of connection points: 2
#     Edge 54, Type (0, 1), BuildingBlock: KIFKEQ_clean_linker_1, # of connection points: 2
#     Edge 55, Type (0, 1), BuildingBlock: KIFKEQ_clean_linker_1, # of connection points: 2
#     Edge 56, Type (0, 1), BuildingBlock: KIFKEQ_clean_linker_1, # of connection points: 2
#     Edge 57, Type (0, 1), BuildingBlock: KIFKEQ_clean_linker_1, # of connection points: 2
#     Edge 58, Type (0, 1), BuildingBlock: KIFKEQ_clean_linker_1, # of connection points: 2
#     Edge 59, Type (0, 1), BuildingBlock: KIFKEQ_clean_linker_1, # of connection points: 2
#     Edge 60, Type (0, 1), BuildingBlock: KIFKEQ_clean_linker_1, # of connection points: 2
#     Edge 61, Type (0, 1), BuildingBlock: KIFKEQ_clean_linker_1, # of connection points: 2
#     Edge 62, Type (0, 1), BuildingBlock: KIFKEQ_clean_linker_1, # of connection points: 2
#     Edge 63, Type (0, 1), BuildingBlock: KIFKEQ_clean_linker_1, # of connection points: 2
#     Edge 64, Type (0, 1), BuildingBlock: KIFKEQ_clean_linker_1, # of connection points: 2
#     Edge 65, Type (0, 1), BuildingBlock: KIFKEQ_clean_linker_1, # of connection points: 2
#     Edge 66, Type (0, 1), BuildingBlock: KIFKEQ_clean_linker_1, # of connection points: 2
#     Edge 67, Type (0, 1), BuildingBlock: KIFKEQ_clean_linker_1, # of connection points: 2
#     Edge 68, Type (0, 1), BuildingBlock: KIFKEQ_clean_linker_1, # of connection points: 2
#     Edge 69, Type (0, 1), BuildingBlock: KIFKEQ_clean_linker_1, # of connection points: 2
#     Edge 70, Type (0, 1), BuildingBlock: KIFKEQ_clean_linker_1, # of connection points: 2
#     Edge 71, Type (0, 1), BuildingBlock: KIFKEQ_clean_linker_1, # of connection points: 2
#     Edge 72, Type (0, 1), BuildingBlock: KIFKEQ_clean_linker_1, # of connection points: 2
#     Edge 73, Type (0, 1), BuildingBlock: KIFKEQ_clean_linker_1, # of connection points: 2
#     Edge 74, Type (0, 1), BuildingBlock: KIFKEQ_clean_linker_1, # of connection points: 2
#     Edge 75, Type (0, 1), BuildingBlock: KIFKEQ_clean_linker_1, # of connection points: 2
#     Edge 76, Type (0, 1), BuildingBlock: KIFKEQ_clean_linker_1, # of connection points: 2
#     Edge 77, Type (0, 1), BuildingBlock: KIFKEQ_clean_linker_1, # of connection points: 2
#     Edge 78, Type (0, 1), BuildingBlock: KIFKEQ_clean_linker_1, # of connection points: 2
#     Edge 79, Type (0, 1), BuildingBlock: KIFKEQ_clean_linker_1, # of connection points: 2
#     Edge 80, Type (0, 1), BuildingBlock: KIFKEQ_clean_linker_1, # of connection points: 2
# Relax obj value: 0.009
# Max RMSD: 0.093
# Mean RMSD: 0.060
data_MOF--net-eea--node1-WUSLED_clean_sbu_0--node2-KUMJIN_clean_sbu_0--edge1-KIFKEQ_clean_linker_1
_symmetry_space_group_name_H-M    P1
_symmetry_Int_Tables_number       1
_symmetry_cell_setting            triclinic
loop_
_symmetry_equiv_pos_as_xyz
'x, y, z'
_cell_length_a     67.930071
_cell_length_b     69.370679
_cell_length_c     91.801164
_cell_angle_alpha  89.747401
_cell_angle_beta   90.108051
_cell_angle_gamma 119.97535
loop_
_atom_site_label
_atom_site_type_symbol
_atom_site_fract_x
_atom_site_fract_y
_atom_site_fract_z
_atom_type_partial_charge
C0 C 0.21894 0.1506 0.41391 0.0
C1 C 0.23162 0.17207 0.41978 0.0
C2 C 0.21279 0.1857 0.4034 0.0
C3 C 0.22859 0.18945 0.41456 0.0
C4 C 0.19985 0.16401 0.39781 0.0
C5 C 0.20293 0.14671 0.403 0.0
U6 U 0.2373 0.12056 0.44163 0.0
O7 O 0.22181 0.08475 0.44625 0.0
O8 O 0.25668 0.10333 0.43783 0.0
C9 C 0.2395 0.08377 0.44142 0.0
C10 C 0.22255 0.13221 0.41859 0.0
C11 C 0.23477 0.06522 0.43152 0.0
C12 C 0.21314 0.03951 0.41205 0.0
C13 C 0.21776 0.05783 0.42081 0.0
C14 C 0.24274 0.03607 0.42444 0.0
C15 C 0.22556 0.02835 0.41379 0.0
C16 C 0.24726 0.05426 0.43319 0.0
C17 C 0.25956 0.14554 0.47952 0.0
C18 C 0.28119 0.13522 0.49576 0.0
C19 C 0.26623 0.15816 0.50468 0.0
C20 C 0.25678 0.1573 0.49096 0.0
C21 C 0.27875 0.14731 0.50723 0.0
C22 C 0.27163 0.13429 0.48206 0.0
C23 C 0.25026 0.14573 0.46501 0.0
O24 O 0.2438 0.1372 0.42031 0.0
O25 O 0.20901 0.1191 0.4289 0.0
O26 O 0.2291 0.13018 0.46266 0.0
O27 O 0.2637 0.14891 0.45387 0.0
H28 H 0.24407 0.17545 0.42823 0.0
H29 H 0.23901 0.20593 0.41905 0.0
H30 H 0.18723 0.16034 0.38944 0.0
H31 H 0.19291 0.13024 0.39837 0.0
H32 H 0.19995 0.03416 0.40386 0.0
H33 H 0.20795 0.06611 0.41929 0.0
H34 H 0.2524 0.02772 0.42626 0.0
H35 H 0.26039 0.05963 0.44143 0.0
H36 H 0.29045 0.12643 0.4974 0.0
H37 H 0.26421 0.16781 0.51318 0.0
H38 H 0.24755 0.1661 0.48922 0.0
H39 H 0.27384 0.12497 0.4734 0.0
C40 C 0.95605 0.15994 0.41064 0.0
C41 C 0.97223 0.17521 0.42038 0.0
C42 C 0.9972 0.19624 0.40005 0.0
C43 C 0.99261 0.19317 0.41514 0.0
C44 C 0.98077 0.18089 0.3904 0.0
C45 C 0.96048 0.16298 0.39564 0.0
U46 U 0.90827 0.12677 0.43894 0.0
O47 O 0.87142 0.10636 0.43524 0.0
O48 O 0.89038 0.09072 0.44358 0.0
C49 C 0.87081 0.08765 0.4387 0.0
C50 C 0.93464 0.14052 0.41573 0.0
C51 C 0.85762 0.06815 0.42905 0.0
C52 C 0.83194 0.05029 0.40856 0.0
C53 C 0.84632 0.06947 0.41654 0.0
C54 C 0.84022 0.02814 0.42519 0.0
C55 C 0.82847 0.0293 0.41288 0.0
C56 C 0.85452 0.04729 0.43318 0.0
C57 C 0.9098 0.15124 0.47704 0.0
C58 C 0.8781 0.14153 0.49354 0.0
C59 C 0.9167 0.16333 0.50234 0.0
C60 C 0.92487 0.16242 0.48851 0.0
C61 C 0.89319 0.15312 0.50502 0.0
C62 C 0.88631 0.14056 0.47971 0.0
C63 C 0.91905 0.15188 0.46233 0.0
O64 O 0.93641 0.12836 0.42611 0.0
O65 O 0.91732 0.14374 0.41758 0.0
O66 O 0.90768 0.15358 0.45127 0.0
O67 O 0.92635 0.13784 0.45994 0.0
H68 H 0.96919 0.17317 0.43201 0.0
H69 H 1.00491 0.20446 0.42293 0.0
H70 H 0.98343 0.18283 0.37873 0.0
H71 H 0.94819 0.15143 0.38793 0.0
H72 H 0.82341 0.05188 0.39905 0.0
H73 H 0.8482 0.08524 0.41305 0.0
H74 H 0.83777 0.01229 0.42899 0.0
H75 H 0.86271 0.04566 0.44288 0.0
H76 H 0.8599 0.1332 0.49524 0.0
H77 H 0.92885 0.1726 0.51082 0.0
H78 H 0.94306 0.17084 0.48669 0.0
H79 H 0.87431 0.1317 0.47106 0.0
C80 C 0.86704 0.80249 0.41083 0.0
C81 C 0.85157 0.80237 0.42102 0.0
C82 C 0.82973 0.80718 0.40147 0.0
C83 C 0.83312 0.8047 0.41639 0.0
C84 C 0.84527 0.80712 0.39136 0.0
C85 C 0.86366 0.80481 0.396 0.0
U86 U 0.9011 0.7859 0.43721 0.0
O87 O 0.92191 0.77072 0.43178 0.0
O88 O 0.93797 0.80379 0.44182 0.0
C89 C 0.94094 0.78804 0.43618 0.0
C90 C 0.88699 0.80057 0.41527 0.0
C91 C 0.96141 0.7951 0.42702 0.0
C92 C 0.98011 0.79909 0.40358 0.0
C93 C 0.96065 0.7945 0.4117 0.0
C94 C 1.00133 0.80545 0.42595 0.0
C95 C 1.00058 0.80413 0.41065 0.0
C96 C 0.98204 0.80102 0.434 0.0
C97 C 0.87426 0.7577 0.47457 0.0
C98 C 0.88945 0.75778 0.49875 0.0
C99 C 0.85236 0.72775 0.4919 0.0
C100 C 0.85464 0.73762 0.4782 0.0
C101 C 0.86966 0.73769 0.50244 0.0
C102 C 0.89175 0.76767 0.48498 0.0
C103 C 0.87503 0.76836 0.46032 0.0
O104 O 0.8993 0.81322 0.4261 0.0
O105 O 0.88392 0.78032 0.41594 0.0
O106 O 0.8735 0.7569 0.44858 0.0
O107 O 0.88958 0.78975 0.45888 0.0
H108 H 0.85383 0.80061 0.43254 0.0
H109 H 0.82172 0.80489 0.42453 0.0
H110 H 0.8431 0.80858 0.3798 0.0
H111 H 0.87532 0.80488 0.38794 0.0
H112 H 0.9789 0.79786 0.39182 0.0
H113 H 0.94492 0.78994 0.40604 0.0
H114 H 0.01685 0.80963 0.43177 0.0
H115 H 0.98308 0.80162 0.44578 0.0
H116 H 0.90324 0.76585 0.50649 0.0
H117 H 0.83669 0.71255 0.49434 0.0
H118 H 0.84077 0.72971 0.47049 0.0
H119 H 0.90708 0.7832 0.48254 0.0
C120 C 0.07394 0.21497 0.63404 0.0
C121 C 0.07157 0.23386 0.63579 0.0
C122 C 0.03271 0.21079 0.64481 0.0
C123 C 0.05123 0.23178 0.64111 0.0
C124 C 0.03501 0.1919 0.64281 0.0
C125 C 0.05537 0.19399 0.63756 0.0
U126 U 0.12452 0.23029 0.6076 0.0
O127 O 0.161 0.24563 0.61258 0.0
O128 O 0.14283 0.21207 0.60327 0.0
C129 C 0.16213 0.22808 0.60847 0.0
C130 C 0.09596 0.2168 0.62973 0.0
C131 C 0.1758 0.22147 0.61762 0.0
C132 C 0.19109 0.21817 0.641 0.0
C133 C 0.17599 0.2224 0.63293 0.0
C134 C 0.20546 0.21155 0.61861 0.0
C135 C 0.20639 0.21318 0.63389 0.0
C136 C 0.19037 0.21562 0.61061 0.0
C137 C 0.12521 0.25585 0.56956 0.0
C138 C 0.14225 0.25482 0.54639 0.0
C139 C 0.13123 0.28259 0.55032 0.0
C140 C 0.12372 0.27413 0.56435 0.0
C141 C 0.14039 0.27294 0.54104 0.0
C142 C 0.13473 0.24636 0.56049 0.0
C143 C 0.11551 0.24645 0.5841 0.0
O144 O 0.09522 0.20344 0.61935 0.0
O145 O 0.11376 0.23691 0.62871 0.0
O146 O 0.12627 0.25867 0.59546 0.0
O147 O 0.10806 0.22514 0.58617 0.0
H148 H 0.0855 0.25031 0.63324 0.0
H149 H 0.05001 0.24668 0.64231 0.0
H150 H 0.02128 0.17549 0.64568 0.0
H151 H 0.05675 0.17916 0.63651 0.0
H152 H 0.1914 0.21962 0.65275 0.0
H153 H 0.16492 0.22691 0.6386 0.0
H154 H 0.21669 0.2074 0.61278 0.0
H155 H 0.19052 0.21477 0.59882 0.0
H156 H 0.14903 0.24682 0.53958 0.0
H157 H 0.12991 0.29681 0.54677 0.0
H158 H 0.11645 0.28175 0.57112 0.0
H159 H 0.13607 0.23221 0.56419 0.0
C160 C 0.80181 0.86733 0.63517 0.0
C161 C 0.79023 0.84632 0.62857 0.0
C162 C 0.80884 0.83252 0.64497 0.0
C163 C 0.79367 0.82904 0.63346 0.0
C164 C 0.82052 0.85371 0.65141 0.0
C165 C 0.81701 0.8709 0.64656 0.0
U166 U 0.78199 0.89705 0.60815 0.0
O167 O 0.76411 0.91546 0.61279 0.0
O168 O 0.79817 0.93285 0.60305 0.0
C169 C 0.78156 0.93471 0.60892 0.0
C170 C 0.79811 0.88568 0.63063 0.0
C171 C 0.78843 0.95367 0.61901 0.0
C172 C 0.78508 0.96935 0.642 0.0
C173 C 0.77912 0.95087 0.63307 0.0
C174 C 0.81 0.99366 0.62309 0.0
C175 C 0.80056 0.99099 0.63709 0.0
C176 C 0.80395 0.97525 0.61416 0.0
C177 C 0.75645 0.87077 0.57069 0.0
C178 C 0.75877 0.88517 0.54607 0.0
C179 C 0.72521 0.8512 0.5536 0.0
C180 C 0.7348 0.85293 0.56737 0.0
C181 C 0.7371 0.86721 0.54272 0.0
C182 C 0.76834 0.88697 0.5599 0.0
C183 C 0.76666 0.87128 0.58511 0.0
O184 O 0.81091 0.89824 0.61988 0.0
O185 O 0.77683 0.88087 0.62956 0.0
O186 O 0.75403 0.86883 0.59658 0.0
O187 O 0.78819 0.88626 0.58699 0.0
H188 H 0.77848 0.84326 0.61971 0.0
H189 H 0.78461 0.81302 0.62814 0.0
H190 H 0.83207 0.85693 0.66041 0.0
H191 H 0.82606 0.88699 0.65181 0.0
H192 H 0.77763 0.96669 0.65276 0.0
H193 H 0.76709 0.93445 0.63715 0.0
H194 H 0.82168 0.01008 0.61884 0.0
H195 H 0.81121 0.97792 0.60333 0.0
H196 H 0.76831 0.89791 0.538 0.0
H197 H 0.70864 0.83698 0.55136 0.0
H198 H 0.72538 0.84006 0.5754 0.0
H199 H 0.7851 0.90092 0.56207 0.0
C200 C 0.07371 0.85953 0.63568 0.0
C201 C 0.05697 0.84409 0.62628 0.0
C202 C 0.03208 0.82489 0.64704 0.0
C203 C 0.03636 0.82693 0.63191 0.0
C204 C 0.04911 0.84033 0.65635 0.0
C205 C 0.06963 0.85741 0.65073 0.0
U206 U 0.12132 0.89098 0.6068 0.0
O207 O 0.14039 0.92694 0.6021 0.0
O208 O 0.15838 0.91023 0.61037 0.0
C209 C 0.1598 0.9292 0.60666 0.0
C210 C 0.09533 0.87829 0.6302 0.0
C211 C 0.17414 0.94861 0.61601 0.0
C212 C 0.17927 0.97709 0.63355 0.0
C213 C 0.16493 0.95763 0.62574 0.0
C214 C 0.21208 0.97839 0.62226 0.0
C215 C 0.20305 0.98793 0.63173 0.0
C216 C 0.19781 0.95903 0.61451 0.0
C217 C 0.11883 0.86563 0.56882 0.0
C218 C 0.13781 0.88432 0.54624 0.0
C219 C 0.12328 0.84478 0.54905 0.0
C220 C 0.11558 0.84556 0.56306 0.0
C221 C 0.13438 0.86411 0.54036 0.0
C222 C 0.13014 0.88508 0.56031 0.0
C223 C 0.10974 0.86555 0.58352 0.0
O224 O 0.11209 0.87426 0.62823 0.0
O225 O 0.09382 0.89052 0.61976 0.0
O226 O 0.10307 0.88009 0.58591 0.0
O227 O 0.12084 0.86343 0.59457 0.0
H228 H 0.05974 0.84542 0.61462 0.0
H229 H 0.02361 0.81553 0.62437 0.0
H230 H 0.04668 0.83914 0.66805 0.0
H231 H 0.08234 0.8691 0.65818 0.0
H232 H 0.1717 0.98398 0.64069 0.0
H233 H 0.1467 0.94989 0.6271 0.0
H234 H 0.23027 0.98595 0.62078 0.0
H235 H 0.2053 0.95236 0.60711 0.0
H236 H 0.14608 0.89952 0.53988 0.0
H237 H 0.12069 0.829 0.54509 0.0
H238 H 0.10698 0.83035 0.56941 0.0
H239 H 0.1329 0.90082 0.56449 0.0
C240 C 0.89781 0.49228 0.74307 0.0
C241 C 0.88806 0.50186 0.75183 0.0
C242 C 0.89036 0.52612 0.73174 0.0
C243 C 0.88432 0.51857 0.7462 0.0
C244 C 0.90061 0.51683 0.72315 0.0
C245 C 0.90422 0.50004 0.72875 0.0
U246 U 0.91269 0.46092 0.77212 0.0
O247 O 0.89587 0.42499 0.77659 0.0
O248 O 0.93135 0.44277 0.76921 0.0
C249 C 0.91347 0.42342 0.77231 0.0
C250 C 0.90062 0.47361 0.74831 0.0
C251 C 0.9087 0.40507 0.76224 0.0
C252 C 0.88773 0.38061 0.74208 0.0
C253 C 0.89248 0.39874 0.75106 0.0
C254 C 0.91567 0.37529 0.75516 0.0
C255 C 0.89925 0.36863 0.74405 0.0
C256 C 0.92031 0.39329 0.76414 0.0
C257 C 0.93249 0.48458 0.81051 0.0
C258 C 0.95193 0.47252 0.82738 0.0
C259 C 0.93835 0.49686 0.83573 0.0
C260 C 0.92988 0.49668 0.82178 0.0
C261 C 0.94972 0.48498 0.83868 0.0
C262 C 0.94334 0.47227 0.81344 0.0
C263 C 0.92445 0.48558 0.79571 0.0
O264 O 0.92157 0.47823 0.75088 0.0
O265 O 0.88605 0.46037 0.75818 0.0
O266 O 0.90332 0.47058 0.79271 0.0
O267 O 0.9386 0.48863 0.78503 0.0
H268 H 0.8831 0.49628 0.76295 0.0
H269 H 0.8767 0.5256 0.75318 0.0
H270 H 0.90529 0.52209 0.71195 0.0
H271 H 0.91171 0.49284 0.7218 0.0
H272 H 0.87515 0.37605 0.73356 0.0
H273 H 0.88338 0.40768 0.74936 0.0
H274 H 0.92462 0.36627 0.75715 0.0
H275 H 0.93282 0.39786 0.77272 0.0
H276 H 0.9603 0.46294 0.8293 0.0
H277 H 0.93652 0.50681 0.84411 0.0
H278 H 0.92157 0.5063 0.81974 0.0
H279 H 0.94541 0.46267 0.80491 0.0
C280 C 0.62023 0.49167 0.74428 0.0
C281 C 0.63507 0.50831 0.75389 0.0
C282 C 0.66154 0.52799 0.7339 0.0
C283 C 0.65552 0.52629 0.74875 0.0
C284 C 0.64648 0.5112 0.72437 0.0
C285 C 0.62611 0.49329 0.72951 0.0
U286 U 0.57243 0.45861 0.77257 0.0
O287 O 0.53536 0.4396 0.76898 0.0
O288 O 0.55329 0.42246 0.77653 0.0
C289 C 0.5339 0.42044 0.77216 0.0
C290 C 0.59854 0.47248 0.74925 0.0
C291 C 0.51963 0.40155 0.76241 0.0
C292 C 0.5147 0.37402 0.74417 0.0
C293 C 0.52895 0.39293 0.75247 0.0
C294 C 0.48173 0.37239 0.75545 0.0
C295 C 0.49086 0.3634 0.74561 0.0
C296 C 0.49593 0.39119 0.76372 0.0
C297 C 0.57522 0.48203 0.81123 0.0
C298 C 0.54396 0.47333 0.82793 0.0
C299 C 0.58269 0.49273 0.83676 0.0
C300 C 0.59051 0.49193 0.8228 0.0
C301 C 0.55931 0.48371 0.83952 0.0
C302 C 0.55183 0.47249 0.81394 0.0
C303 C 0.58423 0.48286 0.79641 0.0
O304 O 0.59994 0.45965 0.75929 0.0
O305 O 0.58175 0.47637 0.75152 0.0
O306 O 0.57317 0.48555 0.78555 0.0
O307 O 0.59072 0.46831 0.79357 0.0
H308 H 0.63086 0.50736 0.76535 0.0
H309 H 0.66675 0.53872 0.75646 0.0
H310 H 0.65024 0.51205 0.71285 0.0
H311 H 0.61485 0.48067 0.72189 0.0
H312 H 0.52235 0.36774 0.7366 0.0
H313 H 0.5472 0.40064 0.75123 0.0
H314 H 0.46355 0.36455 0.75707 0.0
H315 H 0.48836 0.39742 0.77139 0.0
H316 H 0.52587 0.46638 0.82954 0.0
H317 H 0.59502 0.50048 0.84541 0.0
H318 H 0.60863 0.49933 0.82098 0.0
H319 H 0.53965 0.46472 0.8052 0.0
C320 C 0.53328 0.13696 0.74505 0.0
C321 C 0.51097 0.11881 0.74573 0.0
C322 C 0.49595 0.14125 0.73503 0.0
C323 C 0.49257 0.12093 0.74078 0.0
C324 C 0.51829 0.15946 0.73459 0.0
C325 C 0.53667 0.15731 0.73949 0.0
U326 U 0.56883 0.12184 0.77115 0.0
O327 O 0.58877 0.1056 0.76603 0.0
O328 O 0.60594 0.13959 0.77466 0.0
C329 C 0.60822 0.1231 0.76964 0.0
C330 C 0.55334 0.13483 0.74907 0.0
C331 C 0.62792 0.129 0.76001 0.0
C332 C 0.64618 0.13622 0.73616 0.0
C333 C 0.62727 0.1317 0.74486 0.0
C334 C 0.66651 0.13561 0.75767 0.0
C335 C 0.66596 0.13793 0.74245 0.0
C336 C 0.64776 0.1312 0.76629 0.0
C337 C 0.54519 0.09871 0.81009 0.0
C338 C 0.54251 0.06928 0.82612 0.0
C339 C 0.5412 0.10064 0.8364 0.0
C340 C 0.54357 0.10978 0.82242 0.0
C341 C 0.54021 0.08005 0.83845 0.0
C342 C 0.54496 0.07847 0.81212 0.0
C343 C 0.54472 0.10743 0.7953 0.0
O344 O 0.56698 0.14852 0.75908 0.0
O345 O 0.55014 0.11457 0.75043 0.0
O346 O 0.54199 0.0946 0.78408 0.0
O347 O 0.55928 0.12854 0.79275 0.0
H348 H 0.50772 0.10284 0.74987 0.0
H349 H 0.47573 0.10642 0.74115 0.0
H350 H 0.52164 0.17548 0.73049 0.0
H351 H 0.55367 0.17156 0.73878 0.0
H352 H 0.64512 0.13785 0.72449 0.0
H353 H 0.61211 0.13006 0.73977 0.0
H354 H 0.68152 0.13725 0.76297 0.0
H355 H 0.64869 0.12927 0.77795 0.0
H356 H 0.54215 0.05357 0.82725 0.0
H357 H 0.53923 0.10933 0.84556 0.0
H358 H 0.54343 0.12525 0.8212 0.0
H359 H 0.54613 0.06943 0.80289 0.0
C360 C 0.74064 0.54853 0.96938 0.0
C361 C 0.72168 0.54111 0.96016 0.0
C362 C 0.69916 0.54375 0.98005 0.0
C363 C 0.70116 0.53871 0.96545 0.0
C364 C 0.71831 0.5514 0.98915 0.0
C365 C 0.73874 0.55372 0.98388 0.0
U366 U 0.78965 0.56313 0.94177 0.0
O367 O 0.82631 0.57853 0.94613 0.0
O368 O 0.80776 0.5448 0.93711 0.0
C369 C 0.82725 0.56087 0.94204 0.0
C370 C 0.76224 0.55011 0.96449 0.0
C371 C 0.84109 0.55435 0.95108 0.0
C372 C 0.85666 0.55111 0.97437 0.0
C373 C 0.84147 0.55532 0.96639 0.0
C374 C 0.87075 0.54441 0.95189 0.0
C375 C 0.87185 0.54608 0.96717 0.0
C376 C 0.85558 0.54847 0.94398 0.0
C377 C 0.78896 0.58843 0.90387 0.0
C378 C 0.80572 0.58768 0.88052 0.0
C379 C 0.79411 0.61496 0.88468 0.0
C380 C 0.78698 0.60647 0.89876 0.0
C381 C 0.80338 0.60558 0.87527 0.0
C382 C 0.79858 0.57918 0.89466 0.0
C383 C 0.77978 0.57909 0.91851 0.0
O384 O 0.76093 0.53664 0.95401 0.0
O385 O 0.77983 0.57026 0.96313 0.0
O386 O 0.79097 0.59139 0.92975 0.0
O387 O 0.77242 0.55779 0.92059 0.0
H388 H 0.72265 0.53703 0.94891 0.0
H389 H 0.68691 0.53306 0.95806 0.0
H390 H 0.71742 0.55518 1.00048 0.0
H391 H 0.75304 0.55932 0.99124 0.0
H392 H 0.8571 0.5526 0.98612 0.0
H393 H 0.83046 0.55985 0.97213 0.0
H394 H 0.88188 0.54021 0.94599 0.0
H395 H 0.85558 0.54758 0.93219 0.0
H396 H 0.81261 0.57988 0.8736 0.0
H397 H 0.79243 0.62901 0.88121 0.0
H398 H 0.77965 0.61391 0.90564 0.0
H399 H 0.80029 0.56522 0.8983 0.0
C400 C 0.47276 0.19984 0.96566 0.0
C401 C 0.46065 0.17854 0.95949 0.0
C402 C 0.4795 0.16503 0.97591 0.0
C403 C 0.46394 0.16127 0.9646 0.0
C404 C 0.49171 0.1865 0.98192 0.0
C405 C 0.48834 0.20368 0.97685 0.0
U406 U 0.45322 0.22871 0.93791 0.0
O407 O 0.43471 0.24678 0.94176 0.0
O408 O 0.46895 0.26422 0.93227 0.0
C409 C 0.45178 0.26589 0.93735 0.0
C410 C 0.46918 0.21819 0.96086 0.0
C411 C 0.45747 0.28533 0.94659 0.0
C412 C 0.47953 0.31151 0.96575 0.0
C413 C 0.47388 0.29228 0.95768 0.0
C414 C 0.45211 0.31667 0.95192 0.0
C415 C 0.46889 0.32412 0.96282 0.0
C416 C 0.44652 0.29755 0.9439 0.0
C417 C 0.42782 0.20155 0.90085 0.0
C418 C 0.42963 0.21657 0.8765 0.0
C419 C 0.39635 0.18223 0.88387 0.0
C420 C 0.40621 0.18364 0.89752 0.0
C421 C 0.40796 0.19863 0.87316 0.0
C422 C 0.43944 0.21806 0.8902 0.0
C423 C 0.43807 0.20212 0.91526 0.0
O424 O 0.4821 0.23052 0.95008 0.0
O425 O 0.44792 0.21339 0.95962 0.0
O426 O 0.42546 0.19985 0.9267 0.0
O427 O 0.45959 0.21719 0.91708 0.0
H428 H 0.4486 0.17525 0.95078 0.0
H429 H 0.45444 0.14503 0.95961 0.0
H430 H 0.5036 0.18995 0.99075 0.0
H431 H 0.4978 0.21999 0.98178 0.0
H432 H 0.49259 0.3168 0.97401 0.0
H433 H 0.48251 0.28302 0.95995 0.0
H434 H 0.44321 0.32564 0.94956 0.0
H435 H 0.43372 0.29239 0.93545 0.0
H436 H 0.43894 0.2296 0.86855 0.0
H437 H 0.37977 0.16804 0.88162 0.0
H438 H 0.39697 0.17057 0.90546 0.0
H439 H 0.45614 0.2321 0.89239 0.0
C440 C 0.73947 0.19026 0.96922 0.0
C441 C 0.72023 0.1793 0.96022 0.0
C442 C 0.69814 0.15477 0.98036 0.0
C443 C 0.69978 0.16179 0.96574 0.0
C444 C 0.71755 0.1657 0.98924 0.0
C445 C 0.7379 0.18322 0.98374 0.0
U446 U 0.78768 0.22266 0.94095 0.0
O447 O 0.80661 0.25864 0.93627 0.0
O448 O 0.82466 0.24212 0.94474 0.0
C449 C 0.82599 0.26105 0.94101 0.0
C450 C 0.76108 0.20952 0.96405 0.0
C451 C 0.84 0.28038 0.95051 0.0
C452 C 0.84444 0.30816 0.96842 0.0
C453 C 0.83042 0.28905 0.96021 0.0
C454 C 0.87769 0.30994 0.95748 0.0
C455 C 0.86831 0.31892 0.96713 0.0
C456 C 0.86372 0.29095 0.9493 0.0
C457 C 0.78522 0.19609 0.90328 0.0
C458 C 0.80711 0.21401 0.88135 0.0
C459 C 0.786 0.17383 0.88309 0.0
C460 C 0.77858 0.17532 0.89703 0.0
C461 C 0.80026 0.19312 0.87497 0.0
C462 C 0.79966 0.21548 0.89537 0.0
C463 C 0.77641 0.19677 0.9179 0.0
O464 O 0.7783 0.20608 0.96244 0.0
O465 O 0.75974 0.22185 0.9536 0.0
O466 O 0.76991 0.21152 0.91992 0.0
O467 O 0.7876 0.19507 0.92905 0.0
H468 H 0.72095 0.18432 0.94896 0.0
H469 H 0.6853 0.15359 0.95852 0.0
H470 H 0.71692 0.16101 1.00057 0.0
H471 H 0.75245 0.19149 0.99093 0.0
H472 H 0.8366 0.31443 0.97584 0.0
H473 H 0.81214 0.28117 0.96137 0.0
H474 H 0.89591 0.3179 0.95596 0.0
H475 H 0.8715 0.28468 0.94181 0.0
H476 H 0.81793 0.22924 0.87543 0.0
H477 H 0.7807 0.15747 0.87874 0.0
H478 H 0.76753 0.16014 0.90295 0.0
H479 H 0.80505 0.23172 0.89997 0.0
C480 C 0.55418 0.81934 0.08227 0.0
C481 C 0.53793 0.8237 0.08856 0.0
C482 C 0.54831 0.85464 0.07171 0.0
C483 C 0.53504 0.84113 0.08333 0.0
C484 C 0.56476 0.85045 0.06557 0.0
C485 C 0.56757 0.83296 0.07074 0.0
U486 U 0.57085 0.78686 0.1093 0.0
O487 O 0.55289 0.751 0.11454 0.0
O488 O 0.58708 0.76685 0.10498 0.0
C489 C 0.56912 0.74814 0.10907 0.0
C490 C 0.55632 0.79987 0.08681 0.0
C491 C 0.56186 0.72853 0.09955 0.0
C492 C 0.54242 0.68821 0.09727 0.0
C493 C 0.54782 0.70723 0.10539 0.0
C494 C 0.56453 0.71139 0.07706 0.0
C495 C 0.55105 0.69 0.0831 0.0
C496 C 0.5699 0.73047 0.0852 0.0
C497 C 0.59759 0.81268 0.14654 0.0
C498 C 0.59501 0.79758 0.17096 0.0
C499 C 0.6293 0.83091 0.16346 0.0
C500 C 0.61962 0.82987 0.14981 0.0
C501 C 0.6171 0.81484 0.17424 0.0
C502 C 0.58537 0.79647 0.15725 0.0
C503 C 0.58751 0.81276 0.13219 0.0
O504 O 0.57708 0.80312 0.08778 0.0
O505 O 0.54296 0.7873 0.09738 0.0
O506 O 0.5657 0.79865 0.1304 0.0
O507 O 0.59976 0.81439 0.12069 0.0
H508 H 0.5272 0.8135 0.0974 0.0
H509 H 0.52239 0.84404 0.08843 0.0
H510 H 0.57507 0.86031 0.05648 0.0
H511 H 0.58 0.82983 0.06553 0.0
H512 H 0.53164 0.67205 0.10219 0.0
H513 H 0.5414 0.70528 0.11642 0.0
H514 H 0.57161 0.71343 0.06623 0.0
H515 H 0.58078 0.74668 0.08039 0.0
H516 H 0.58523 0.78482 0.17896 0.0
H517 H 0.6462 0.8446 0.16566 0.0
H518 H 0.62933 0.84271 0.14183 0.0
H519 H 0.56832 0.783 0.1551 0.0
C520 C 0.28784 0.82546 0.07811 0.0
C521 C 0.30394 0.84071 0.08789 0.0
C522 C 0.32905 0.86183 0.06764 0.0
C523 C 0.32434 0.85872 0.08271 0.0
C524 C 0.3127 0.8465 0.05794 0.0
C525 C 0.29238 0.82856 0.06312 0.0
U526 U 0.2396 0.7914 0.1061 0.0
O527 O 0.20285 0.77092 0.10203 0.0
O528 O 0.22182 0.7552 0.11023 0.0
C529 C 0.20231 0.75217 0.10524 0.0
C530 C 0.26641 0.80594 0.0831 0.0
C531 C 0.18941 0.73296 0.0953 0.0
C532 C 0.16412 0.71565 0.07456 0.0
C533 C 0.17829 0.73461 0.08281 0.0
C534 C 0.17228 0.6931 0.09089 0.0
C535 C 0.16068 0.69457 0.0786 0.0
C536 C 0.18637 0.71201 0.09915 0.0
C537 C 0.24019 0.81467 0.14453 0.0
C538 C 0.20822 0.80473 0.16087 0.0
C539 C 0.24668 0.82591 0.17001 0.0
C540 C 0.25507 0.82536 0.15618 0.0
C541 C 0.22313 0.81583 0.17253 0.0
C542 C 0.21665 0.80411 0.14703 0.0
C543 C 0.24971 0.81574 0.12984 0.0
O544 O 0.26813 0.7936 0.09338 0.0
O545 O 0.24902 0.80904 0.08498 0.0
O546 O 0.2385 0.81769 0.11877 0.0
O547 O 0.25719 0.80188 0.1273 0.0
H548 H 0.30081 0.83862 0.09952 0.0
H549 H 0.33657 0.87 0.09054 0.0
H550 H 0.31545 0.84849 0.04629 0.0
H551 H 0.28017 0.81702 0.05537 0.0
H552 H 0.15571 0.7175 0.06507 0.0
H553 H 0.18012 0.75044 0.07953 0.0
H554 H 0.16986 0.67716 0.09448 0.0
H555 H 0.19442 0.71013 0.10882 0.0
H556 H 0.19 0.7965 0.16242 0.0
H557 H 0.2587 0.83483 0.17863 0.0
H558 H 0.27328 0.83368 0.15451 0.0
H559 H 0.20479 0.79563 0.13824 0.0
C560 C 0.19905 0.46875 0.07618 0.0
C561 C 0.18386 0.46912 0.08637 0.0
C562 C 0.16201 0.47379 0.06677 0.0
C563 C 0.16552 0.47162 0.08171 0.0
C564 C 0.17733 0.4733 0.05666 0.0
C565 C 0.19559 0.47082 0.06133 0.0
U566 U 0.23433 0.45441 0.10314 0.0
O567 O 0.25285 0.43657 0.09848 0.0
O568 O 0.27158 0.47132 0.10563 0.0
C569 C 0.27289 0.45415 0.10082 0.0
C570 C 0.21871 0.46637 0.08058 0.0
C571 C 0.29133 0.45842 0.09028 0.0
C572 C 0.32707 0.48374 0.07796 0.0
C573 C 0.30812 0.48013 0.08625 0.0
C574 C 0.31256 0.44407 0.07723 0.0
C575 C 0.32981 0.46577 0.07363 0.0
C576 C 0.29369 0.44047 0.08547 0.0
C577 C 0.21196 0.43349 0.14257 0.0
C578 C 0.2102 0.4046 0.15872 0.0
C579 C 0.20751 0.43532 0.16884 0.0
C580 C 0.20975 0.44433 0.15483 0.0
C581 C 0.20724 0.41508 0.17097 0.0
C582 C 0.21255 0.41368 0.14471 0.0
C583 C 0.21123 0.44191 0.12774 0.0
O584 O 0.23255 0.48047 0.09035 0.0
O585 O 0.21464 0.44596 0.08271 0.0
O586 O 0.20747 0.42843 0.11673 0.0
O587 O 0.22631 0.46273 0.12475 0.0
H588 H 0.18621 0.46756 0.0979 0.0
H589 H 0.15427 0.47213 0.08984 0.0
H590 H 0.17506 0.47451 0.04508 0.0
H591 H 0.20705 0.47049 0.05327 0.0
H592 H 0.34005 0.50068 0.07549 0.0
H593 H 0.30704 0.49441 0.08988 0.0
H594 H 0.31384 0.42977 0.0739 0.0
H595 H 0.28122 0.42357 0.08847 0.0
H596 H 0.21043 0.38918 0.15994 0.0
H597 H 0.20503 0.44377 0.17794 0.0
H598 H 0.20901 0.45949 0.15351 0.0
H599 H 0.21424 0.40487 0.13553 0.0
C600 C 0.40762 0.88233 0.30271 0.0
C601 C 0.38851 0.87425 0.29355 0.0
C602 C 0.36608 0.87779 0.31316 0.0
C603 C 0.36798 0.87198 0.29873 0.0
C604 C 0.38539 0.8861 0.32219 0.0
C605 C 0.40582 0.8883 0.31703 0.0
U606 U 0.4566 0.89527 0.27531 0.0
O607 O 0.49328 0.91076 0.27973 0.0
O608 O 0.47453 0.87653 0.27154 0.0
C609 C 0.49412 0.89286 0.27614 0.0
C610 C 0.42921 0.88368 0.29801 0.0
C611 C 0.50822 0.88685 0.28535 0.0
C612 C 0.52383 0.88409 0.30875 0.0
C613 C 0.50851 0.88798 0.30065 0.0
C614 C 0.53831 0.87749 0.2864 0.0
C615 C 0.53927 0.87925 0.30168 0.0
C616 C 0.52299 0.88122 0.27837 0.0
C617 C 0.45593 0.91781 0.23648 0.0
C618 C 0.48742 0.93966 0.21985 0.0
C619 C 0.44877 0.92208 0.21094 0.0
C620 C 0.44077 0.91335 0.22488 0.0
C621 C 0.47221 0.93559 0.20823 0.0
C622 C 0.47938 0.93085 0.23381 0.0
C623 C 0.44668 0.90964 0.25129 0.0
O624 O 0.42787 0.86958 0.28799 0.0
O625 O 0.44679 0.90375 0.29622 0.0
O626 O 0.45793 0.92261 0.26227 0.0
O627 O 0.43922 0.88848 0.254 0.0
H628 H 0.38938 0.86954 0.28244 0.0
H629 H 0.35363 0.86581 0.29137 0.0
H630 H 0.3846 0.89048 0.33339 0.0
H631 H 0.42022 0.8944 0.32435 0.0
H632 H 0.52416 0.88564 0.32049 0.0
H633 H 0.49729 0.89233 0.30629 0.0
H634 H 0.54963 0.87345 0.28059 0.0
H635 H 0.52308 0.88021 0.2666 0.0
H636 H 0.50558 0.94968 0.21817 0.0
H637 H 0.43649 0.91876 0.20239 0.0
H638 H 0.42261 0.90343 0.22667 0.0
H639 H 0.49147 0.93448 0.24254 0.0
C640 C 0.13814 0.53247 0.2988 0.0
C641 C 0.14815 0.5233 0.28988 0.0
C642 C 0.14485 0.49771 0.30937 0.0
C643 C 0.15151 0.50613 0.29512 0.0
C644 C 0.13447 0.50673 0.31812 0.0
C645 C 0.13123 0.52392 0.3129 0.0
U646 U 0.12184 0.56371 0.27062 0.0
O647 O 0.10319 0.58177 0.27408 0.0
O648 O 0.13826 0.59957 0.26593 0.0
C649 C 0.12075 0.60108 0.27049 0.0
C650 C 0.13531 0.55131 0.29392 0.0
C651 C 0.12571 0.61999 0.2801 0.0
C652 C 0.14804 0.64672 0.29895 0.0
C653 C 0.14287 0.62772 0.29074 0.0
C654 C 0.11861 0.65003 0.28623 0.0
C655 C 0.13619 0.65831 0.29663 0.0
C656 C 0.11349 0.63114 0.27807 0.0
C657 C 0.09978 0.53888 0.23267 0.0
C658 C 0.0786 0.5495 0.21625 0.0
C659 C 0.09309 0.52607 0.20755 0.0
C660 C 0.10241 0.5269 0.22131 0.0
C661 C 0.08085 0.53716 0.20487 0.0
C662 C 0.08803 0.55041 0.23 0.0
C663 C 0.10873 0.53848 0.24728 0.0
O664 O 0.14931 0.56443 0.28378 0.0
O665 O 0.11428 0.54687 0.292 0.0
O666 O 0.09521 0.53568 0.25829 0.0
O667 O 0.13 0.55364 0.24975 0.0
H668 H 0.15363 0.52955 0.27893 0.0
H669 H 0.15975 0.4998 0.2881 0.0
H670 H 0.12872 0.50044 0.32903 0.0
H671 H 0.1234 0.53067 0.31996 0.0
H672 H 0.16173 0.65267 0.30682 0.0
H673 H 0.15251 0.61933 0.29252 0.0
H674 H 0.1088 0.65822 0.28435 0.0
H675 H 0.10012 0.6254 0.26997 0.0
H676 H 0.06956 0.55849 0.21452 0.0
H677 H 0.09496 0.51623 0.19913 0.0
H678 H 0.11139 0.51786 0.22315 0.0
H679 H 0.08593 0.55989 0.23859 0.0
C680 C 0.40628 0.52517 0.3011 0.0
C681 C 0.38703 0.514 0.29213 0.0
C682 C 0.36543 0.48898 0.31218 0.0
C683 C 0.36682 0.49613 0.29762 0.0
C684 C 0.38488 0.50006 0.32102 0.0
C685 C 0.405 0.51794 0.31554 0.0
U686 U 0.45437 0.5592 0.27307 0.0
O687 O 0.47134 0.59515 0.26807 0.0
O688 O 0.491 0.58061 0.27706 0.0
C689 C 0.49105 0.59889 0.27314 0.0
C690 C 0.42748 0.54501 0.29601 0.0
C691 C 0.50376 0.61876 0.28251 0.0
C692 C 0.52384 0.63655 0.30496 0.0
C693 C 0.50968 0.61723 0.29699 0.0
C694 C 0.52579 0.65918 0.28428 0.0
C695 C 0.53244 0.65779 0.2986 0.0
C696 C 0.51169 0.63992 0.27635 0.0
C697 C 0.45409 0.53365 0.23542 0.0
C698 C 0.47239 0.55204 0.21262 0.0
C699 C 0.45906 0.51279 0.21589 0.0
C700 C 0.45145 0.51367 0.2299 0.0
C701 C 0.46948 0.5319 0.20697 0.0
C702 C 0.46478 0.55291 0.2267 0.0
C703 C 0.44479 0.53352 0.25003 0.0
O704 O 0.44539 0.54262 0.29457 0.0
O705 O 0.42556 0.55689 0.28548 0.0
O706 O 0.43681 0.54711 0.25207 0.0
O707 O 0.45641 0.53264 0.26123 0.0
H708 H 0.38752 0.51916 0.28092 0.0
H709 H 0.35231 0.48783 0.29043 0.0
H710 H 0.38443 0.49524 0.3323 0.0
H711 H 0.41955 0.52637 0.32271 0.0
H712 H 0.52869 0.6348 0.31592 0.0
H713 H 0.50386 0.60113 0.30204 0.0
H714 H 0.53168 0.6752 0.2791 0.0
H715 H 0.5074 0.64158 0.26522 0.0
H716 H 0.48017 0.56707 0.20608 0.0
H717 H 0.4569 0.49709 0.2121 0.0
H718 H 0.44331 0.49862 0.23642 0.0
H719 H 0.46704 0.56856 0.2307 0.0
Eu720 Eu 0.50345 0.99556 1.00566 0.0
C721 C 0.55255 0.07474 0.04924 0.0
C722 C 0.59217 0.085 0.04768 0.0
C723 C 0.58199 0.1131 0.05336 0.0
C724 C 0.56891 0.06891 0.04666 0.0
C725 C 0.55887 0.09679 0.05295 0.0
C726 C 0.59862 0.10721 0.0507 0.0
C727 C 0.51912 0.08454 0.05676 0.0
N728 N 0.53041 0.05856 0.04887 0.0
C729 C 0.51372 0.06291 0.05305 0.0
C730 C 0.54178 0.10163 0.05653 0.0
Eu731 Eu 0.5224 0.02259 0.0418 0.0
N732 N 0.56207 0.04726 0.04391 0.0
C733 C 0.57762 0.04028 0.04314 0.0
C734 C 0.60823 0.07815 0.04602 0.0
C735 C 0.60089 0.05563 0.04396 0.0
H736 H 0.49616 0.04977 0.05313 0.0
H737 H 0.61315 0.05009 0.04295 0.0
H738 H 0.61641 0.11985 0.05138 0.0
H739 H 0.50581 0.08803 0.05976 0.0
H740 H 0.57225 0.02298 0.04147 0.0
H741 H 0.41276 0.96828 1.00467 0.0
H742 H 0.62626 0.09 0.04666 0.0
H743 H 0.52949 0.96806 0.99454 0.0
H744 H 0.45372 0.99536 1.00591 0.0
H745 H 0.51968 0.92959 0.98835 0.0
H746 H 0.5872 0.13018 0.05605 0.0
H747 H 0.39952 0.92825 1.00139 0.0
H748 H 0.40924 0.89821 0.99704 0.0
H749 H 0.54593 0.11837 0.05945 0.0
H750 H 0.43833 0.88767 0.99252 0.0
N751 N 0.46376 0.97095 1.00372 0.0
C752 C 0.44827 0.978 1.00441 0.0
C753 C 0.41757 0.94009 1.00191 0.0
C754 C 0.43357 0.93315 1.00034 0.0
C755 C 0.42498 0.96267 1.00373 0.0
C756 C 0.45686 0.94923 1.00119 0.0
H757 H 0.47954 0.89932 0.98901 0.0
N758 N 0.49533 0.95942 0.99893 0.0
C759 C 0.50643 0.93319 0.99131 0.0
C760 C 0.47316 0.94326 0.99872 0.0
C761 C 0.51193 0.95493 0.99477 0.0
C762 C 0.48376 0.91614 0.99173 0.0
C763 C 0.46674 0.92111 0.99525 0.0
O764 O 0.52086 1.00284 0.9846 0.0
O765 O 0.53115 0.02321 1.01832 0.0
O766 O 0.51871 0.04675 0.02688 0.0
O767 O 0.49373 0.02241 1.0094 0.0
O768 O 0.54119 0.0077 1.00342 0.0
O769 O 0.49203 0.0076 0.98722 0.0
O770 O 0.50496 0.01517 0.06288 0.0
O771 O 0.49468 0.99505 0.02912 0.0
O772 O 0.50711 0.97147 0.02066 0.0
O773 O 0.53243 0.99601 0.0379 0.0
O774 O 0.48468 0.0106 0.04396 0.0
O775 O 0.53337 0.00978 0.06004 0.0
C776 C 0.54834 0.02367 1.01272 0.0
C777 C 0.49861 0.99817 0.96365 0.0
C778 C 0.49756 1.00196 0.93706 0.0
C779 C 0.50577 0.01151 0.95093 0.0
C780 C 0.48243 0.97885 0.93626 0.0
C781 C 0.48337 0.97529 0.96244 0.0
C782 C 0.47542 0.96572 0.94882 0.0
C783 C 0.50429 0.0421 1.01593 0.0
C784 C 0.50704 0.00806 0.97815 0.0
C785 C 0.4436 0.90484 0.99502 0.0
C786 C 0.42704 0.91084 0.99758 0.0
C787 C 0.47749 0.99463 0.03467 0.0
C788 C 0.52696 0.01876 0.08378 0.0
C789 C 0.51874 1.0052 0.09637 0.0
C790 C 0.52713 0.01413 0.11033 0.0
C791 C 0.54355 0.03686 0.1114 0.0
C792 C 0.54337 0.04128 0.08524 0.0
C793 C 0.55154 0.05025 0.09897 0.0
C794 C 0.52175 0.97625 0.03148 0.0
C795 C 0.51847 0.00941 0.06917 0.0
H796 H 0.51739 0.02924 0.95186 0.0
H797 H 0.47614 0.9708 0.92585 0.0
H798 H 0.47764 0.96481 0.97202 0.0
H799 H 0.46378 0.94799 0.948 0.0
H800 H 0.50616 0.98774 0.09524 0.0
H801 H 0.55007 0.04444 0.12191 0.0
H802 H 0.54989 0.05193 0.07576 0.0
H803 H 0.56415 0.0677 0.09999 0.0
Eu804 Eu 0.02828 0.51302 1.00517 0.0
C805 C 0.94261 0.47956 0.04501 0.0
C806 C 0.932 0.50797 0.04277 0.0
C807 C 0.903 0.46959 0.04748 0.0
C808 C 0.94864 0.50148 0.04252 0.0
C809 C 0.91979 0.46343 0.04783 0.0
C810 C 0.90909 0.49182 0.04494 0.0
C811 C 0.93216 0.43675 0.05228 0.0
N812 N 0.95926 0.47422 0.04538 0.0
C813 C 0.95455 0.45337 0.04946 0.0
C814 C 0.91465 0.44172 0.0513 0.0
Eu815 Eu 0.99656 0.50284 0.03974 0.0
N816 N 0.97094 0.51666 0.04058 0.0
C817 C 0.97795 0.53885 0.03994 0.0
C818 C 0.93896 0.53056 0.04123 0.0
C819 C 0.96208 0.54609 0.04004 0.0
H820 H 0.96804 0.44943 0.05012 0.0
H821 H 0.96769 0.56365 0.03913 0.0
H822 H 0.89603 0.49645 0.04502 0.0
H823 H 0.92843 0.42012 0.05519 0.0
H824 H 0.99573 0.55105 0.03894 0.0
H825 H 0.05684 0.45194 1.00589 0.0
H826 H 0.9267 0.53622 0.04131 0.0
H827 H 0.05705 0.56641 0.99474 0.0
H828 H 0.02894 0.46467 1.00604 0.0
H829 H 0.0967 0.5956 0.9897 0.0
H830 H 0.88534 0.4574 0.04949 0.0
H831 H 0.09787 0.47925 1.00372 0.0
H832 H 0.12865 0.51897 1.00003 0.0
H833 H 0.89733 0.42884 0.05353 0.0
H834 H 0.13952 0.55806 0.99554 0.0
N835 N 0.05379 0.49904 1.00432 0.0
C836 C 0.04671 0.47684 1.005 0.0
C837 C 0.08566 0.48497 1.00375 0.0
C838 C 0.0927 0.50757 1.00218 0.0
C839 C 0.06252 0.46951 1.00494 0.0
C840 C 0.07612 0.51414 1.00239 0.0
H841 H 0.12768 0.58672 0.99142 0.0
N842 N 0.06566 0.54151 0.99951 0.0
C843 C 0.09289 0.57895 0.99262 0.0
C844 C 0.08225 0.53608 0.9999 0.0
C845 C 0.07047 0.56239 0.99543 0.0
C846 C 0.11033 0.57388 0.99364 0.0
C847 C 0.1051 0.55216 0.99711 0.0
O848 O 0.02327 0.52357 0.98365 0.0
O849 O 0.99838 0.51174 1.01622 0.0
O850 O 0.97377 0.47551 0.024 0.0
O851 O 1.00103 0.47633 1.0082 0.0
O852 O 0.01622 0.53796 1.00208 0.0
O853 O 0.01692 0.49004 0.98679 0.0
O854 O 1.00153 0.49242 0.06131 0.0
O855 O 0.02633 0.50418 0.02865 0.0
O856 O 0.05108 0.54027 0.02093 0.0
O857 O 0.02393 0.53954 0.0368 0.0
O858 O 1.00921 0.4783 0.04307 0.0
O859 O 1.00772 0.5259 0.05807 0.0
C860 C 0.99873 0.52849 1.01051 0.0
C861 C 0.02862 0.5059 0.96334 0.0
C862 C 0.02615 0.50261 0.93676 0.0
C863 C 0.01613 0.5019 0.95035 0.0
C864 C 0.04894 0.50759 0.93645 0.0
C865 C 0.05128 0.51082 0.96273 0.0
C866 C 0.06136 0.51169 0.94934 0.0
C867 C 0.98013 0.46645 1.01367 0.0
C868 C 0.01779 0.50468 0.97745 0.0
C869 C 0.12183 0.54591 0.99751 0.0
C870 C 0.11565 0.52366 1.00006 0.0
C871 C 0.02651 0.48779 0.0345 0.0
C872 C 0.99637 0.51026 0.0816 0.0
C873 C 1.00925 0.5149 0.09446 0.0
C874 C 0.99947 0.51428 0.10813 0.0
C875 C 0.97652 0.50876 0.10864 0.0
C876 C 0.97356 0.5048 0.0824 0.0
C877 C 0.96372 0.50404 0.09587 0.0
C878 C 0.04484 0.54932 0.03132 0.0
C879 C 1.007 0.51136 0.06743 0.0
H880 H 0.99854 0.49791 0.95087 0.0
H881 H 0.05729 0.50861 0.9262 0.0
H882 H 0.06114 0.51394 0.97259 0.0
H883 H 0.07889 0.51556 0.94893 0.0
H884 H 0.02695 0.51932 0.09378 0.0
H885 H 0.96835 0.50779 0.11895 0.0
H886 H 0.96341 0.50118 0.07263 0.0
H887 H 0.94608 0.49976 0.09643 0.0
Eu888 Eu 0.52279 0.50228 0.04044 0.0
C889 C 0.47565 0.53887 0.99907 0.0
C890 C 0.43571 0.51104 1.00009 0.0
C891 C 0.44706 0.54983 0.99582 0.0
C892 C 0.4588 0.517 1.00103 0.0
C893 C 0.47 0.55549 0.99613 0.0
C894 C 0.42994 0.52764 0.99781 0.0
C895 C 0.51004 0.58166 0.99293 0.0
N896 N 0.4976 0.54371 0.99934 0.0
C897 C 0.51476 0.56457 0.99584 0.0
C898 C 0.48757 0.57716 0.99324 0.0
Eu899 Eu 0.50443 0.5143 1.00515 0.0
N900 N 0.46499 0.50137 1.00306 0.0
C901 C 0.44897 0.47929 1.0031 0.0
C902 C 0.41916 0.48851 1.00105 0.0
C903 C 0.42585 0.47255 1.00232 0.0
H904 H 0.53217 0.56814 0.9957 0.0
H905 H 0.4132 0.45504 1.00277 0.0
H906 H 0.4123 0.52342 0.9972 0.0
H907 H 0.52372 0.59828 0.99047 0.0
H908 H 0.45385 0.46675 1.00416 0.0
H909 H 0.61385 0.56242 0.04268 0.0
H910 H 0.40124 0.48325 1.00043 0.0
H911 H 0.49568 0.44853 0.05006 0.0
H912 H 0.57313 0.55023 0.04116 0.0
H913 H 0.50462 0.4188 0.05552 0.0
H914 H 0.44237 0.56239 0.99371 0.0
H915 H 0.6263 0.53464 0.04543 0.0
H916 H 0.61575 0.49466 0.04894 0.0
H917 H 0.48395 0.59041 0.99094 0.0
H918 H 0.58604 0.45557 0.05252 0.0
N919 N 0.56235 0.5157 0.04261 0.0
C920 C 0.57818 0.53785 0.0424 0.0
C921 C 0.60833 0.52915 0.04476 0.0
C922 C 0.59199 0.50657 0.04584 0.0
C923 C 0.60137 0.54488 0.04325 0.0
C924 C 0.56883 0.50032 0.04482 0.0
H925 H 0.54457 0.42718 0.05522 0.0
N926 N 0.53015 0.47326 0.04644 0.0
C927 C 0.51816 0.43547 0.05303 0.0
C928 C 0.55218 0.47839 0.0468 0.0
C929 C 0.51317 0.45233 0.04998 0.0
C930 C 0.54072 0.44025 0.05281 0.0
C931 C 0.55811 0.462 0.04988 0.0
O932 O 0.50535 0.49136 0.06145 0.0
O933 O 0.49527 0.50431 0.0284 0.0
O934 O 0.50837 0.54081 0.02115 0.0
O935 O 0.53368 0.53912 0.03758 0.0
O936 O 0.48503 0.47754 0.04228 0.0
O937 O 0.53372 0.52474 0.05913 0.0
O938 O 0.52179 0.5251 0.98412 0.0
O939 O 0.53173 0.51205 1.0172 0.0
O940 O 0.51841 0.47544 0.02453 0.0
O941 O 0.49344 0.47745 1.00792 0.0
O942 O 0.5424 0.53859 1.00314 0.0
O943 O 0.49292 0.49197 0.9864 0.0
C944 C 0.47801 0.48742 0.03355 0.0
C945 C 0.52708 0.50834 0.08256 0.0
C946 C 0.52674 0.51209 0.10912 0.0
C947 C 0.51872 0.51345 0.09515 0.0
C948 C 0.5431 0.50533 0.11018 0.0
C949 C 0.54342 0.50176 0.08396 0.0
C950 C 0.55134 0.50025 0.0977 0.0
C951 C 0.52321 0.54926 0.03196 0.0
C952 C 0.51877 0.51003 0.06803 0.0
C953 C 0.58113 0.46795 0.0503 0.0
C954 C 0.59805 0.49021 0.04827 0.0
C955 C 0.54917 0.52857 1.01193 0.0
C956 C 0.49993 0.50854 0.96299 0.0
C957 C 0.50843 0.50363 0.95039 0.0
C958 C 0.50061 0.50524 0.93641 0.0
C959 C 0.48429 0.51205 0.93535 0.0
C960 C 0.48367 0.51523 0.96159 0.0
C961 C 0.47594 0.51699 0.94783 0.0
C962 C 0.50363 0.46711 1.01366 0.0
C963 C 0.50805 0.50656 0.97752 0.0
H964 H 0.50624 0.51875 0.09402 0.0
H965 H 0.54936 0.50364 0.12069 0.0
H966 H 0.55004 0.4978 0.07443 0.0
H967 H 0.56389 0.49505 0.0987 0.0
H968 H 0.52086 0.49827 0.95151 0.0
H969 H 0.47817 0.51389 0.92482 0.0
H970 H 0.47696 0.51907 0.97113 0.0
H971 H 0.46344 0.52225 0.94683 0.0
Eu972 Eu 0.17132 0.32933 0.33786 0.0
C973 C 0.22169 0.40851 0.38122 0.0
C974 C 0.26114 0.41818 0.37954 0.0
C975 C 0.25159 0.44674 0.38517 0.0
C976 C 0.23779 0.40233 0.37862 0.0
C977 C 0.22838 0.43068 0.38485 0.0
C978 C 0.26795 0.4405 0.38251 0.0
C979 C 0.18878 0.41905 0.38871 0.0
N980 N 0.19946 0.39257 0.38093 0.0
C981 C 0.18302 0.39729 0.38511 0.0
C982 C 0.21154 0.43589 0.38841 0.0
Eu983 Eu 0.19083 0.35638 0.37396 0.0
N984 N 0.23061 0.3806 0.3759 0.0
C985 C 0.2459 0.37331 0.37506 0.0
C986 C 0.27692 0.411 0.37783 0.0
C987 C 0.26925 0.38841 0.3758 0.0
H988 H 0.16538 0.38432 0.38524 0.0
H989 H 0.2813 0.38261 0.37474 0.0
H990 H 0.28581 0.45295 0.38312 0.0
H991 H 0.17567 0.42283 0.39169 0.0
H992 H 0.24027 0.35594 0.37341 0.0
H993 H 0.08061 0.302 0.33732 0.0
H994 H 0.29502 0.42265 0.3784 0.0
H995 H 0.19728 0.30193 0.32638 0.0
H996 H 0.12158 0.32909 0.33844 0.0
H997 H 0.18743 0.26353 0.31997 0.0
H998 H 0.25707 0.4639 0.3878 0.0
H999 H 0.06736 0.262 0.33388 0.0
H1000 H 0.07706 0.23201 0.32927 0.0
H1001 H 0.21598 0.45273 0.39125 0.0
H1002 H 0.10612 0.22153 0.32446 0.0
N1003 N 0.13162 0.30471 0.33603 0.0
C1004 C 0.11612 0.31174 0.33687 0.0
C1005 C 0.08541 0.27384 0.33435 0.0
C1006 C 0.10141 0.26692 0.33263 0.0
C1007 C 0.09283 0.29641 0.33625 0.0
C1008 C 0.1247 0.283 0.33342 0.0
H1009 H 0.1473 0.23323 0.3207 0.0
N1010 N 0.16315 0.29324 0.33095 0.0
C1011 C 0.17421 0.26709 0.32305 0.0
C1012 C 0.14098 0.27708 0.33079 0.0
C1013 C 0.17972 0.2888 0.32664 0.0
C1014 C 0.15154 0.25003 0.32352 0.0
C1015 C 0.13455 0.25496 0.32721 0.0
O1016 O 0.18859 0.33688 0.31673 0.0
O1017 O 0.19923 0.35685 0.35044 0.0
O1018 O 0.18715 0.38057 0.35906 0.0
O1019 O 0.16164 0.35616 0.34183 0.0
O1020 O 0.20902 0.34133 0.33542 0.0
O1021 O 0.15967 0.34146 0.31957 0.0
O1022 O 0.17383 0.34956 0.39516 0.0
O1023 O 0.16287 0.32895 0.36137 0.0
O1024 O 0.17492 0.30508 0.35273 0.0
O1025 O 0.20033 0.32941 0.37003 0.0
O1026 O 0.15319 0.3446 0.37636 0.0
O1027 O 0.20158 0.34322 0.39209 0.0
C1028 C 0.21632 0.35725 0.34476 0.0
C1029 C 0.16616 0.3323 0.2959 0.0
C1030 C 0.16497 0.33632 0.26935 0.0
C1031 C 0.17319 0.34576 0.28323 0.0
C1032 C 0.14996 0.31319 0.26846 0.0
C1033 C 0.15102 0.30941 0.29462 0.0
C1034 C 0.14306 0.29994 0.28098 0.0
C1035 C 0.17243 0.37589 0.34829 0.0
C1036 C 0.17465 0.34208 0.31042 0.0
C1037 C 0.11141 0.23867 0.32703 0.0
C1038 C 0.09486 0.24464 0.32976 0.0
C1039 C 0.14581 0.32864 0.36704 0.0
C1040 C 0.19597 0.35266 0.41588 0.0
C1041 C 0.18742 0.33924 0.42848 0.0
C1042 C 0.19611 0.34804 0.44243 0.0
C1043 C 0.21326 0.37053 0.44343 0.0
C1044 C 0.21311 0.37493 0.41726 0.0
C1045 C 0.22164 0.38379 0.43097 0.0
C1046 C 0.18948 0.30967 0.36359 0.0
C1047 C 0.18708 0.34336 0.40133 0.0
H1048 H 0.18473 0.3635 0.28423 0.0
H1049 H 0.14367 0.30521 0.25803 0.0
H1050 H 0.14539 0.29884 0.30416 0.0
H1051 H 0.1315 0.28221 0.2801 0.0
H1052 H 0.1743 0.32196 0.4274 0.0
H1053 H 0.22005 0.37803 0.45392 0.0
H1054 H 0.2199 0.38547 0.40775 0.0
H1055 H 0.2348 0.40105 0.43194 0.0
Eu1056 Eu 0.69602 0.84697 0.34058 0.0
C1057 C 0.60987 0.81307 0.37976 0.0
C1058 C 0.59913 0.84137 0.37734 0.0
C1059 C 0.57017 0.80292 0.38189 0.0
C1060 C 0.61585 0.83498 0.37725 0.0
C1061 C 0.58704 0.79686 0.38243 0.0
C1062 C 0.5762 0.82514 0.37933 0.0
C1063 C 0.59951 0.77032 0.38716 0.0
N1064 N 0.62659 0.80783 0.38033 0.0
C1065 C 0.62192 0.78701 0.38448 0.0
C1066 C 0.58194 0.77519 0.38596 0.0
Eu1067 Eu 0.66393 0.83662 0.37499 0.0
N1068 N 0.63817 0.85026 0.37551 0.0
C1069 C 0.6451 0.87243 0.37491 0.0
C1070 C 0.60602 0.86395 0.37582 0.0
C1071 C 0.62914 0.87957 0.37483 0.0
H1072 H 0.63545 0.78317 0.38531 0.0
H1073 H 0.6347 0.89712 0.37395 0.0
H1074 H 0.56309 0.82969 0.37928 0.0
H1075 H 0.5958 0.75372 0.39013 0.0
H1076 H 0.66288 0.88469 0.37407 0.0
H1077 H 0.72496 0.78619 0.3413 0.0
H1078 H 0.5937 0.86953 0.37577 0.0
H1079 H 0.72465 0.90042 0.33022 0.0
H1080 H 0.69692 0.79876 0.34142 0.0
H1081 H 0.76428 0.92973 0.32527 0.0
H1082 H 0.55249 0.79066 0.38378 0.0
H1083 H 0.76596 0.81364 0.33924 0.0
H1084 H 0.79665 0.85342 0.33566 0.0
H1085 H 0.5646 0.76225 0.38808 0.0
H1086 H 0.80736 0.89249 0.33121 0.0
N1087 N 0.72168 0.83317 0.3398 0.0
C1088 C 0.71469 0.81099 0.34044 0.0
C1089 C 0.75369 0.81929 0.33926 0.0
C1090 C 0.76065 0.84188 0.33773 0.0
C1091 C 0.73057 0.80375 0.34039 0.0
C1092 C 0.744 0.84836 0.33792 0.0
H1093 H 0.79538 0.92103 0.32707 0.0
N1094 N 0.73338 0.87561 0.33503 0.0
C1095 C 0.76053 0.9131 0.32819 0.0
C1096 C 0.75004 0.87029 0.33547 0.0
C1097 C 0.73812 0.89647 0.33095 0.0
C1098 C 0.77804 0.90814 0.32925 0.0
C1099 C 0.77288 0.88644 0.33272 0.0
O1100 O 0.69091 0.85736 0.31903 0.0
O1101 O 0.66599 0.84564 0.35147 0.0
O1102 O 0.64134 0.80941 0.35912 0.0
O1103 O 0.66886 0.81028 0.34357 0.0
O1104 O 0.68391 0.87187 0.33737 0.0
O1105 O 0.68509 0.82401 0.32219 0.0
O1106 O 0.6688 0.8262 0.39659 0.0
O1107 O 0.6939 0.83811 0.36407 0.0
O1108 O 0.71865 0.87415 0.35639 0.0
O1109 O 0.6914 0.87335 0.37223 0.0
O1110 O 0.67674 0.8122 0.37847 0.0
O1111 O 0.67403 0.85935 0.39348 0.0
C1112 C 0.66634 0.86238 0.34572 0.0
C1113 C 0.6968 0.83998 0.29879 0.0
C1114 C 0.69445 0.83625 0.27223 0.0
C1115 C 0.68415 0.835 0.2858 0.0
C1116 C 0.71767 0.84269 0.27195 0.0
C1117 C 0.71985 0.84627 0.29821 0.0
C1118 C 0.73021 0.84763 0.28484 0.0
C1119 C 0.64781 0.80046 0.34879 0.0
C1120 C 0.68577 0.83854 0.31284 0.0
C1121 C 0.78969 0.88029 0.33315 0.0
C1122 C 0.78358 0.85804 0.33567 0.0
C1123 C 0.69411 0.82175 0.36996 0.0
C1124 C 0.6618 0.84291 0.41675 0.0
C1125 C 0.67355 0.8462 0.43 0.0
C1126 C 0.6625 0.84397 0.44343 0.0
C1127 C 0.63958 0.83858 0.44331 0.0
C1128 C 0.63899 0.83754 0.41695 0.0
C1129 C 0.62798 0.83543 0.43017 0.0
C1130 C 0.71232 0.88317 0.36676 0.0
C1131 C 0.67338 0.84482 0.40283 0.0
H1132 H 0.66626 0.82991 0.28633 0.0
H1133 H 0.72629 0.84424 0.26173 0.0
H1134 H 0.72983 0.85013 0.30807 0.0
H1135 H 0.74805 0.8526 0.28446 0.0
H1136 H 0.69113 0.85014 0.42983 0.0
H1137 H 0.63066 0.83706 0.45339 0.0
H1138 H 0.6297 0.83501 0.4069 0.0
H1139 H 0.61038 0.83135 0.43023 0.0
Eu1140 Eu 0.1899 0.83705 0.37374 0.0
C1141 C 0.14212 0.87271 0.33218 0.0
C1142 C 0.10222 0.84487 0.33357 0.0
C1143 C 0.11342 0.88352 0.32885 0.0
C1144 C 0.12533 0.85088 0.33439 0.0
C1145 C 0.13638 0.88922 0.32907 0.0
C1146 C 0.09637 0.86138 0.33112 0.0
C1147 C 0.17635 0.91536 0.32551 0.0
N1148 N 0.16409 0.8776 0.33236 0.0
C1149 C 0.18116 0.89838 0.3286 0.0
C1150 C 0.15388 0.91083 0.32592 0.0
Eu1151 Eu 0.17109 0.84838 0.33843 0.0
N1152 N 0.13159 0.83534 0.3366 0.0
C1153 C 0.11559 0.81325 0.33696 0.0
C1154 C 0.08571 0.82237 0.33484 0.0
C1155 C 0.09245 0.80647 0.33632 0.0
H1156 H 0.19858 0.90197 0.32839 0.0
H1157 H 0.07984 0.78898 0.33703 0.0
H1158 H 0.07871 0.85711 0.33059 0.0
H1159 H 0.18997 0.93192 0.32285 0.0
H1160 H 0.12051 0.80077 0.33818 0.0
H1161 H 0.28094 0.89744 0.37541 0.0
H1162 H 0.06778 0.81707 0.33433 0.0
H1163 H 0.16306 0.78341 0.38366 0.0
H1164 H 0.2402 0.88511 0.37404 0.0
H1165 H 0.17219 0.75384 0.38922 0.0
H1166 H 0.10867 0.89601 0.32662 0.0
H1167 H 0.29354 0.86979 0.3783 0.0
H1168 H 0.28316 0.8299 0.38206 0.0
H1169 H 0.15018 0.92399 0.32348 0.0
H1170 H 0.25358 0.79082 0.38589 0.0
N1171 N 0.22952 0.85063 0.37575 0.0
C1172 C 0.2453 0.87279 0.37536 0.0
C1173 C 0.27555 0.86424 0.37772 0.0
C1174 C 0.25928 0.84166 0.37896 0.0
C1175 C 0.26851 0.87989 0.37612 0.0
C1176 C 0.23608 0.83532 0.37804 0.0
H1177 H 0.21218 0.76236 0.38879 0.0
N1178 N 0.19745 0.80818 0.37986 0.0
C1179 C 0.18566 0.7705 0.38663 0.0
C1180 C 0.21951 0.8134 0.38015 0.0
C1181 C 0.18056 0.78728 0.38353 0.0
C1182 C 0.20825 0.77537 0.38634 0.0
C1183 C 0.22555 0.7971 0.38329 0.0
O1184 O 0.17245 0.8263 0.39476 0.0
O1185 O 0.16219 0.83896 0.3618 0.0
O1186 O 0.17546 0.87539 0.35414 0.0
O1187 O 0.20074 0.87385 0.37069 0.0
O1188 O 0.15221 0.81226 0.37571 0.0
O1189 O 0.20107 0.85953 0.39243 0.0
O1190 O 0.18805 0.85881 0.31725 0.0
O1191 O 0.19858 0.84636 0.35041 0.0
O1192 O 0.18544 0.80997 0.35799 0.0
O1193 O 0.16015 0.81159 0.34148 0.0
O1194 O 0.20904 0.87262 0.33614 0.0
O1195 O 0.15935 0.82567 0.31988 0.0
C1196 C 0.14502 0.8221 0.36708 0.0
C1197 C 0.19418 0.84309 0.41589 0.0
C1198 C 0.19335 0.84623 0.44249 0.0
C1199 C 0.18553 0.84784 0.42849 0.0
C1200 C 0.2098 0.83958 0.44354 0.0
C1201 C 0.21061 0.83663 0.41729 0.0
C1202 C 0.21832 0.83486 0.43105 0.0
C1203 C 0.19042 0.88402 0.36487 0.0
C1204 C 0.18601 0.84492 0.40133 0.0
C1205 C 0.2486 0.80313 0.38363 0.0
C1206 C 0.26544 0.82538 0.38146 0.0
C1207 C 0.21596 0.86278 0.34499 0.0
C1208 C 0.16572 0.84179 0.29635 0.0
C1209 C 0.17402 0.83682 0.28367 0.0
C1210 C 0.16567 0.83801 0.26977 0.0
C1211 C 0.14911 0.84452 0.26887 0.0
C1212 C 0.14921 0.84818 0.2951 0.0
C1213 C 0.14101 0.84956 0.28143 0.0
C1214 C 0.17048 0.8014 0.34724 0.0
C1215 C 0.17424 0.84012 0.31082 0.0
H1216 H 0.17298 0.85304 0.42736 0.0
H1217 H 0.2159 0.83769 0.45405 0.0
H1218 H 0.21745 0.83293 0.40776 0.0
H1219 H 0.23093 0.82974 0.43205 0.0
H1220 H 0.18666 0.8317 0.28466 0.0
H1221 H 0.14258 0.846 0.25841 0.0
H1222 H 0.14266 0.85207 0.30469 0.0
H1223 H 0.12832 0.85459 0.28054 0.0
Eu1224 Eu 0.83715 0.66471 0.67061 0.0
C1225 C 0.88965 0.73889 0.71434 0.0
C1226 C 0.927 0.74278 0.71213 0.0
C1227 C 0.9234 0.77498 0.71811 0.0
C1228 C 0.90312 0.72961 0.71149 0.0
C1229 C 0.89963 0.76152 0.71816 0.0
C1230 C 0.93707 0.76563 0.71507 0.0
C1231 C 0.86201 0.75518 0.72352 0.0
N1232 N 0.86678 0.72539 0.71442 0.0
C1233 C 0.85296 0.73284 0.71968 0.0
C1234 C 0.88543 0.7697 0.72249 0.0
Eu1235 Eu 0.85273 0.68784 0.7077 0.0
N1236 N 0.89286 0.7075 0.70867 0.0
C1237 C 0.90538 0.69719 0.70727 0.0
C1238 C 0.94001 0.73247 0.71012 0.0
C1239 C 0.92912 0.70951 0.70791 0.0
H1240 H 0.83483 0.72159 0.72044 0.0
H1241 H 0.93901 0.70131 0.70658 0.0
H1242 H 0.95539 0.77608 0.71542 0.0
H1243 H 0.85095 0.76118 0.72725 0.0
H1244 H 0.89715 0.67951 0.70552 0.0
H1245 H 0.74795 0.64466 0.66772 0.0
H1246 H 0.9584 0.742 0.71053 0.0
H1247 H 0.85645 0.6299 0.65991 0.0
H1248 H 0.78905 0.6689 0.66692 0.0
H1249 H 0.84242 0.5897 0.65873 0.0
H1250 H 0.93139 0.79247 0.72083 0.0
H1251 H 0.7313 0.60397 0.67006 0.0
H1252 H 0.73709 0.57114 0.67096 0.0
H1253 H 0.89243 0.78698 0.72553 0.0
H1254 H 0.76293 0.55612 0.66887 0.0
N1255 N 0.79666 0.64267 0.6695 0.0
C1256 C 0.78253 0.65136 0.66815 0.0
C1257 C 0.7496 0.61462 0.66976 0.0
C1258 C 0.76397 0.60563 0.67009 0.0
C1259 C 0.75893 0.63755 0.66845 0.0
C1260 C 0.78774 0.62023 0.66973 0.0
H1261 H 0.80211 0.56286 0.66405 0.0
N1262 N 0.8249 0.62616 0.66723 0.0
C1263 C 0.83099 0.59562 0.66179 0.0
C1264 C 0.8023 0.61175 0.66873 0.0
C1265 C 0.83889 0.61844 0.66262 0.0
C1266 C 0.80826 0.58055 0.66482 0.0
C1267 C 0.79343 0.58851 0.66785 0.0
O1268 O 0.85531 0.66448 0.65097 0.0
O1269 O 0.86628 0.687 0.68557 0.0
O1270 O 0.84687 0.71208 0.69409 0.0
O1271 O 0.82633 0.69063 0.67408 0.0
O1272 O 0.86533 0.69924 0.66507 0.0
O1273 O 0.82792 0.67182 0.64924 0.0
O1274 O 0.83555 0.68326 0.72872 0.0
O1275 O 0.82586 0.66088 0.69399 0.0
O1276 O 0.85785 0.65088 0.6816 0.0
O1277 O 0.85309 0.65552 0.70612 0.0
O1278 O 0.81545 0.67742 0.70802 0.0
O1279 O 0.86231 0.6754 0.72682 0.0
C1280 C 0.8764 0.70357 0.67705 0.0
C1281 C 0.83651 0.65803 0.62803 0.0
C1282 C 0.83582 0.66006 0.60129 0.0
C1283 C 0.84247 0.67065 0.615 0.0
C1284 C 0.82348 0.63662 0.60097 0.0
C1285 C 0.82385 0.63478 0.62732 0.0
C1286 C 0.81753 0.62417 0.61385 0.0
C1287 C 0.83438 0.70875 0.68224 0.0
C1288 C 0.84327 0.66944 0.64223 0.0
C1289 C 0.76996 0.57398 0.66925 0.0
C1290 C 0.75525 0.58253 0.67038 0.0
C1291 C 0.80859 0.66105 0.69902 0.0
C1292 C 0.85648 0.68613 0.75012 0.0
C1293 C 0.84816 0.67268 0.76273 0.0
C1294 C 0.85677 0.68155 0.77667 0.0
C1295 C 0.87356 0.70417 0.77768 0.0
C1296 C 0.87333 0.70851 0.7515 0.0
C1297 C 0.88172 0.71746 0.76521 0.0
C1298 C 0.85769 0.64562 0.69551 0.0
C1299 C 0.8479 0.67659 0.73556 0.0
H1300 H 0.85186 0.68865 0.6156 0.0
H1301 H 0.8185 0.62779 0.59071 0.0
H1302 H 0.81879 0.62481 0.63715 0.0
H1303 H 0.80792 0.60618 0.61339 0.0
H1304 H 0.83534 0.65529 0.76164 0.0
H1305 H 0.88028 0.71172 0.78816 0.0
H1306 H 0.88006 0.71906 0.742 0.0
H1307 H 0.89465 0.73481 0.76618 0.0
Eu1308 Eu 0.3628 0.18043 0.67239 0.0
C1309 C 0.27636 0.14567 0.7115 0.0
C1310 C 0.26539 0.17383 0.70935 0.0
C1311 C 0.23658 0.13526 0.71366 0.0
C1312 C 0.28222 0.16758 0.70917 0.0
C1313 C 0.25355 0.12932 0.7141 0.0
C1314 C 0.2425 0.15748 0.71127 0.0
C1315 C 0.26622 0.10286 0.71854 0.0
N1316 N 0.29317 0.14054 0.71197 0.0
C1317 C 0.2886 0.1197 0.71595 0.0
C1318 C 0.24857 0.10762 0.71744 0.0
Eu1319 Eu 0.33046 0.16957 0.70675 0.0
N1320 N 0.30451 0.18297 0.70747 0.0
C1321 C 0.3113 0.20512 0.70701 0.0
C1322 C 0.27216 0.1964 0.70799 0.0
C1323 C 0.29525 0.21214 0.70703 0.0
H1324 H 0.3022 0.11593 0.71671 0.0
H1325 H 0.3007 0.22967 0.70626 0.0
H1326 H 0.22931 0.16193 0.7113 0.0
H1327 H 0.2626 0.08624 0.72136 0.0
H1328 H 0.32907 0.21746 0.70618 0.0
H1329 H 0.39197 0.11981 0.67285 0.0
H1330 H 0.25976 0.20188 0.70801 0.0
H1331 H 0.39133 0.23399 0.66231 0.0
H1332 H 0.36386 0.13228 0.67309 0.0
H1333 H 0.43092 0.26342 0.65741 0.0
H1334 H 0.21893 0.1229 0.71549 0.0
H1335 H 0.43293 0.14734 0.6707 0.0
H1336 H 0.46353 0.18716 0.66714 0.0
H1337 H 0.23125 0.09458 0.71949 0.0
H1338 H 0.47415 0.22624 0.66286 0.0
N1339 N 0.38853 0.16671 0.67145 0.0
C1340 C 0.38161 0.14454 0.67207 0.0
C1341 C 0.42063 0.15294 0.67077 0.0
C1342 C 0.42753 0.17552 0.66929 0.0
C1343 C 0.39753 0.13736 0.67195 0.0
C1344 C 0.41083 0.18194 0.66955 0.0
H1345 H 0.46207 0.25477 0.65899 0.0
N1346 N 0.40013 0.20916 0.66687 0.0
C1347 C 0.42721 0.24676 0.6602 0.0
C1348 C 0.41682 0.20387 0.66719 0.0
C1349 C 0.40482 0.23006 0.66293 0.0
C1350 C 0.44475 0.24182 0.66114 0.0
C1351 C 0.43964 0.22009 0.66446 0.0
O1352 O 0.35775 0.19103 0.65089 0.0
O1353 O 0.33269 0.17887 0.6833 0.0
O1354 O 0.30804 0.14251 0.69074 0.0
O1355 O 0.33579 0.14365 0.67528 0.0
O1356 O 0.35061 0.20528 0.66931 0.0
O1357 O 0.35159 0.15754 0.65396 0.0
O1358 O 0.33548 0.15903 0.72825 0.0
O1359 O 0.36058 0.17135 0.69584 0.0
O1360 O 0.38523 0.20756 0.68831 0.0
O1361 O 0.35773 0.20637 0.70409 0.0
O1362 O 0.34335 0.14521 0.71009 0.0
O1363 O 0.34048 0.19213 0.72533 0.0
C1364 C 0.33302 0.19566 0.67764 0.0
C1365 C 0.36299 0.17342 0.63051 0.0
C1366 C 0.36 0.16965 0.60396 0.0
C1367 C 0.35014 0.16883 0.61763 0.0
C1368 C 0.38299 0.1753 0.60345 0.0
C1369 C 0.38584 0.17901 0.62971 0.0
C1370 C 0.39576 0.17996 0.61623 0.0
C1371 C 0.31471 0.13367 0.68046 0.0
C1372 C 0.35231 0.17216 0.64467 0.0
C1373 C 0.45648 0.21398 0.66479 0.0
C1374 C 0.45044 0.19174 0.66722 0.0
C1375 C 0.36079 0.15494 0.70164 0.0
C1376 C 0.32872 0.17558 0.74861 0.0
C1377 C 0.34116 0.18019 0.76166 0.0
C1378 C 0.33057 0.17828 0.77523 0.0
C1379 C 0.30727 0.17154 0.77542 0.0
C1380 C 0.30559 0.169 0.7491 0.0
C1381 C 0.29496 0.16699 0.76246 0.0
C1382 C 0.3787 0.2164 0.69868 0.0
C1383 C 0.34005 0.17759 0.73458 0.0
H1384 H 0.33241 0.16431 0.61831 0.0
H1385 H 0.39122 0.17643 0.59314 0.0
H1386 H 0.39597 0.1826 0.63949 0.0
H1387 H 0.41343 0.18435 0.61568 0.0
H1388 H 0.35911 0.18552 0.7612 0.0
H1389 H 0.29843 0.16946 0.78562 0.0
H1390 H 0.29578 0.16541 0.73919 0.0
H1391 H 0.27705 0.16179 0.76277 0.0
Eu1392 Eu 0.85596 0.1745 0.70785 0.0
C1393 C 0.8053 0.2007 0.66553 0.0
C1394 C 0.76786 0.16799 0.66713 0.0
C1395 C 0.77164 0.20418 0.66239 0.0
C1396 C 0.79174 0.17806 0.66778 0.0
C1397 C 0.79541 0.2139 0.66232 0.0
C1398 C 0.75789 0.18126 0.66481 0.0
C1399 C 0.83308 0.24465 0.65739 0.0
N1400 N 0.82816 0.2095 0.66536 0.0
C1401 C 0.84204 0.23082 0.66057 0.0
C1402 C 0.80968 0.23626 0.65853 0.0
Eu1403 Eu 0.84202 0.1851 0.67111 0.0
N1404 N 0.8019 0.16571 0.66996 0.0
C1405 C 0.7893 0.14305 0.67063 0.0
C1406 C 0.75477 0.14482 0.66844 0.0
C1407 C 0.76556 0.13227 0.66996 0.0
H1408 H 0.86015 0.2373 0.6597 0.0
H1409 H 0.75562 0.11432 0.67072 0.0
H1410 H 0.73958 0.17386 0.66446 0.0
H1411 H 0.8442 0.26172 0.65406 0.0
H1412 H 0.79747 0.13324 0.67183 0.0
H1413 H 0.94703 0.23622 0.71131 0.0
H1414 H 0.73639 0.13644 0.66799 0.0
H1415 H 0.83191 0.12003 0.71849 0.0
H1416 H 0.90643 0.22337 0.7116 0.0
H1417 H 0.84266 0.09112 0.72037 0.0
H1418 H 0.76373 0.2141 0.66013 0.0
H1419 H 0.96047 0.20917 0.70945 0.0
H1420 H 0.95119 0.16949 0.70895 0.0
H1421 H 0.80275 0.24696 0.65598 0.0
H1422 H 0.92266 0.12983 0.71112 0.0
N1423 N 0.89601 0.18897 0.70925 0.0
C1424 C 0.91158 0.21113 0.71064 0.0
C1425 C 0.94239 0.20331 0.70954 0.0
C1426 C 0.92649 0.18058 0.70921 0.0
C1427 C 0.93488 0.21861 0.71059 0.0
C1428 C 0.90309 0.17378 0.70928 0.0
H1429 H 0.88228 0.10052 0.71566 0.0
N1430 N 0.8648 0.14552 0.71163 0.0
C1431 C 0.85527 0.10793 0.71735 0.0
C1432 C 0.88702 0.15141 0.71035 0.0
C1433 C 0.84928 0.12443 0.71621 0.0
C1434 C 0.87762 0.11329 0.71465 0.0
C1435 C 0.89396 0.13536 0.71157 0.0
O1436 O 0.83656 0.15698 0.72733 0.0
O1437 O 0.82725 0.16965 0.69283 0.0
O1438 O 0.84908 0.21484 0.68528 0.0
O1439 O 0.8693 0.21158 0.70484 0.0
O1440 O 0.82893 0.18315 0.71317 0.0
O1441 O 0.86589 0.19005 0.72925 0.0
O1442 O 0.8589 0.19874 0.65019 0.0
O1443 O 0.86821 0.18288 0.68468 0.0
O1444 O 0.83504 0.14131 0.69608 0.0
O1445 O 0.84194 0.15246 0.67191 0.0
O1446 O 0.87958 0.21037 0.67108 0.0
O1447 O 0.83265 0.16437 0.6516 0.0
C1448 C 0.81756 0.17677 0.7013 0.0
C1449 C 0.85519 0.16728 0.75035 0.0
C1450 C 0.85349 0.16777 0.77706 0.0
C1451 C 0.84775 0.17263 0.76326 0.0
C1452 C 0.86662 0.15722 0.77761 0.0
C1453 C 0.86844 0.15703 0.75124 0.0
C1454 C 0.87401 0.15195 0.76481 0.0
C1455 C 0.86194 0.22286 0.69706 0.0
C1456 C 0.8495 0.17318 0.73613 0.0
C1457 C 0.91709 0.14197 0.71046 0.0
C1458 C 0.93333 0.16455 0.70927 0.0
C1459 C 0.88587 0.1999 0.67991 0.0
C1460 C 0.83807 0.18196 0.62868 0.0
C1461 C 0.84619 0.17693 0.61595 0.0
C1462 C 0.83748 0.17781 0.60212 0.0
C1463 C 0.82074 0.1841 0.60133 0.0
C1464 C 0.82132 0.18805 0.62755 0.0
C1465 C 0.81279 0.18917 0.61394 0.0
C1466 C 0.83633 0.13722 0.68215 0.0
C1467 C 0.84681 0.1803 0.64306 0.0
H1468 H 0.83788 0.18096 0.76251 0.0
H1469 H 0.87102 0.15281 0.78795 0.0
H1470 H 0.87456 0.15307 0.74148 0.0
H1471 H 0.88414 0.14391 0.76543 0.0
H1472 H 0.85894 0.17195 0.61685 0.0
H1473 H 0.81393 0.18534 0.59091 0.0
H1474 H 0.81478 0.19184 0.63717 0.0
H1475 H 0.79992 0.19398 0.61315 0.0
H1476 H 0.35553 0.86245 0.04474 0.0
H1477 H 0.35196 0.90484 0.0777 0.0
H1478 H 0.39027 0.89397 0.03516 0.0
H1479 H 0.38713 0.93603 0.06853 0.0
H1480 H 0.4381 0.99334 0.04122 0.0
H1481 H 0.40189 0.96111 0.04819 0.0
H1482 H 0.43013 0.91827 0.04096 0.0
H1483 H 0.46627 0.95063 0.03384 0.0
C1484 C 0.36209 0.87847 0.04995 0.0
C1485 C 0.35077 0.881 0.06201 0.0
C1486 C 0.3822 0.89653 0.04453 0.0
C1487 C 0.39156 0.91765 0.051 0.0
C1488 C 0.3803 0.92014 0.0631 0.0
C1489 C 0.36023 0.90211 0.06851 0.0
C1490 C 0.43641 0.97696 0.04091 0.0
C1491 C 0.45491 0.97449 0.03678 0.0
C1492 C 0.41573 0.95849 0.04504 0.0
C1493 C 0.41305 0.93702 0.04534 0.0
C1494 C 0.43143 0.93447 0.04077 0.0
C1495 C 0.45218 0.95302 0.03664 0.0
H1496 H 0.11832 0.45329 0.07741 0.0
H1497 H 0.16112 0.50003 0.04444 0.0
H1498 H 0.08639 0.45703 0.06891 0.0
H1499 H 0.12889 0.50304 0.03554 0.0
H1500 H 0.0714 0.52091 0.03466 0.0
H1501 H 0.10429 0.51771 0.04196 0.0
H1502 H 0.06042 0.44709 0.04882 0.0
H1503 H 0.02764 0.45048 0.04162 0.0
C1504 C 0.12099 0.46443 0.06838 0.0
C1505 C 0.14243 0.47633 0.06165 0.0
C1506 C 0.10254 0.46635 0.06335 0.0
C1507 C 0.10492 0.48024 0.05144 0.0
C1508 C 0.12639 0.4923 0.04479 0.0
C1509 C 0.14486 0.49037 0.04981 0.0
C1510 C 0.06888 0.50466 0.03746 0.0
C1511 C 0.04699 0.48586 0.03732 0.0
C1512 C 0.08774 0.5028 0.04169 0.0
C1513 C 0.08509 0.48214 0.0461 0.0
C1514 C 0.06315 0.46333 0.04574 0.0
C1515 C 0.04436 0.46521 0.0415 0.0
H1516 H 0.55101 0.65319 0.09393 0.0
H1517 H 0.5418 0.68071 0.0539 0.0
H1518 H 0.54429 0.61996 0.081 0.0
H1519 H 0.5359 0.6476 0.04079 0.0
H1520 H 0.50177 0.57331 0.02656 0.0
H1521 H 0.50867 0.60767 0.03829 0.0
H1522 H 0.56288 0.60859 0.06352 0.0
H1523 H 0.5559 0.57429 0.05197 0.0
C1524 C 0.54745 0.65214 0.08236 0.0
C1525 C 0.54685 0.66966 0.075 0.0
C1526 C 0.5439 0.63315 0.07489 0.0
C1527 C 0.5397 0.63111 0.05981 0.0
C1528 C 0.53895 0.64855 0.05242 0.0
C1529 C 0.54255 0.66763 0.05991 0.0
C1530 C 0.51533 0.58097 0.03449 0.0
C1531 C 0.52824 0.57094 0.03831 0.0
C1532 C 0.51931 0.60071 0.04121 0.0
C1533 C 0.53621 0.61084 0.05196 0.0
C1534 C 0.54943 0.60105 0.0555 0.0
C1535 C 0.54549 0.58139 0.04879 0.0
H1536 H 0.90918 0.33059 0.98013 0.0
H1537 H 0.86207 0.35441 0.97311 0.0
H1538 H 0.93537 0.3654 0.99211 0.0
H1539 H 0.88831 0.38929 0.9852 0.0
H1540 H 0.93393 0.44279 1.01841 0.0
H1541 H 0.9063 0.40662 1.00839 0.0
H1542 H 0.96019 0.4039 0.98531 0.0
H1543 H 0.98776 0.43965 0.99551 0.0
C1544 C 0.9044 0.34326 0.98109 0.0
C1545 C 0.88352 0.33966 0.97548 0.0
C1546 C 0.91946 0.36328 0.98799 0.0
C1547 C 0.91412 0.38033 0.98953 0.0
C1548 C 0.89295 0.37649 0.98434 0.0
C1549 C 0.87785 0.35644 0.9774 0.0
C1550 C 0.93993 0.43438 1.01133 0.0
C1551 C 0.96318 0.44417 1.00789 0.0
C1552 C 0.92402 0.4137 1.00546 0.0
C1553 C 0.93095 0.40222 0.99605 0.0
C1554 C 0.95421 0.41202 0.99268 0.0
C1555 C 0.97007 0.43268 0.99849 0.0
H1556 H 0.69301 0.57105 0.99884 0.0
H1557 H 0.65552 0.51017 0.97447 0.0
H1558 H 0.65748 0.56658 1.00836 0.0
H1559 H 0.6199 0.50609 0.98363 0.0
H1560 H 0.55984 0.49513 1.01188 0.0
H1561 H 0.59634 0.49832 1.00544 0.0
H1562 H 0.6253 0.5692 0.99951 0.0
H1563 H 0.58901 0.56595 1.00623 0.0
C1564 C 0.67721 0.55664 0.99554 0.0
C1565 C 0.67726 0.54101 0.98582 0.0
C1566 C 0.65677 0.55418 1.00091 0.0
C1567 C 0.63571 0.53599 0.99677 0.0
C1568 C 0.63575 0.52019 0.9872 0.0
C1569 C 0.65621 0.5227 0.98177 0.0
C1570 C 0.57416 0.51142 1.00951 0.0
C1571 C 0.57169 0.53036 1.00981 0.0
C1572 C 0.59502 0.51324 1.00563 0.0
C1573 C 0.61385 0.53403 1.00189 0.0
C1574 C 0.61136 0.55297 1.00249 0.0
C1575 C 0.59053 0.55112 1.0063 0.0
H1576 H 0.51954 0.16691 0.98328 0.0
H1577 H 0.44716 0.12161 0.9814 0.0
H1578 H 0.52511 0.13728 0.99306 0.0
H1579 H 0.45266 0.09196 0.99134 0.0
H1580 H 0.47336 0.03858 0.99534 0.0
H1581 H 0.46744 0.06796 0.98558 0.0
H1582 H 0.51912 0.11527 1.01449 0.0
H1583 H 0.5257 0.08608 0.02384 0.0
C1584 C 0.50478 0.15066 0.98506 0.0
C1585 C 0.48289 0.14669 0.98156 0.0
C1586 C 0.50796 0.13364 0.99072 0.0
C1587 C 0.48934 0.11217 0.99308 0.0
C1588 C 0.46745 0.10817 0.98949 0.0
C1589 C 0.46428 0.12519 0.98378 0.0
C1590 C 0.48346 0.05523 0.99966 0.0
C1591 C 0.49993 0.05985 1.01048 0.0
C1592 C 0.47994 0.0721 0.99411 0.0
C1593 C 0.49277 0.09407 0.99922 0.0
C1594 C 0.50911 0.09864 1.01013 0.0
C1595 C 0.51269 0.08179 1.01565 0.0
H1596 H 0.65454 0.14627 0.97548 0.0
H1597 H 0.69226 0.12113 0.99893 0.0
H1598 H 0.61905 0.11558 0.98497 0.0
H1599 H 0.65685 0.09087 1.00873 0.0
H1600 H 0.58776 0.02486 1.00639 0.0
H1601 H 0.62415 0.0571 0.99971 0.0
H1602 H 0.59628 0.10015 1.00726 0.0
H1603 H 0.5597 0.06769 1.0137 0.0
C1604 C 0.6553 0.13422 0.98266 0.0
C1605 C 0.67636 0.13619 0.98635 0.0
C1606 C 0.63493 0.11677 0.98827 0.0
C1607 C 0.63502 0.1007 0.99765 0.0
C1608 C 0.65608 0.1028 1.00145 0.0
C1609 C 0.67644 0.1203 0.99591 0.0
C1610 C 0.58956 0.04127 1.00684 0.0
C1611 C 0.571 0.04377 1.01079 0.0
C1612 C 0.61044 0.05978 1.00306 0.0
C1613 C 0.61322 0.0813 1.00289 0.0
C1614 C 0.59471 0.08383 1.00711 0.0
C1615 C 0.57381 0.06527 1.01099 0.0
H1616 H 0.86768 0.5231 0.99275 0.0
H1617 H 0.91654 0.56385 0.96 0.0
H1618 H 0.89732 0.51895 1.0054 0.0
H1619 H 0.94574 0.55949 0.97238 0.0
H1620 H 0.99931 0.56658 1.00361 0.0
H1621 H 0.96794 0.5712 0.99494 0.0
H1622 H 0.92162 0.50098 1.00136 0.0
H1623 H 0.95326 0.49641 1.01005 0.0
C1624 C 0.88472 0.53124 0.98829 0.0
C1625 C 0.88967 0.54371 0.9753 0.0
C1626 C 0.90164 0.52873 0.99547 0.0
C1627 C 0.92397 0.53896 0.98995 0.0
C1628 C 0.92886 0.5516 0.97707 0.0
C1629 C 0.912 0.55391 0.96986 0.0
C1630 C 0.98236 0.5522 1.0034 0.0
C1631 C 0.97874 0.5312 1.00763 0.0
C1632 C 0.96439 0.5548 0.99835 0.0
C1633 C 0.94227 0.53643 0.99726 0.0
C1634 C 0.9384 0.51551 1.00212 0.0
C1635 C 0.95651 0.51289 1.00713 0.0
H1636 H 0.47838 0.33305 0.99205 0.0
H1637 H 0.47438 0.36308 0.95165 0.0
H1638 H 0.48706 0.36717 1.00505 0.0
H1639 H 0.48287 0.39687 0.96458 0.0
H1640 H 0.47121 0.44278 0.99339 0.0
H1641 H 0.46356 0.40832 0.98186 0.0
H1642 H 0.5162 0.40729 1.00772 0.0
H1643 H 0.52392 0.44201 0.01942 0.0
C1644 C 0.47955 0.34696 0.98592 0.0
C1645 C 0.47537 0.34517 0.97081 0.0
C1646 C 0.48452 0.36651 0.99337 0.0
C1647 C 0.48536 0.38466 0.98589 0.0
C1648 C 0.4818 0.38303 0.97075 0.0
C1649 C 0.47691 0.36361 0.96333 0.0
C1650 C 0.48117 0.43527 0.99671 0.0
C1651 C 0.49824 0.4453 1.00736 0.0
C1652 C 0.47683 0.41549 0.99001 0.0
C1653 C 0.48942 0.40512 0.99373 0.0
C1654 C 0.5061 0.41478 1.00465 0.0
C1655 C 0.51052 0.43469 1.01136 0.0
H1656 H 0.11897 0.68393 0.06738 0.0
H1657 H 0.16525 0.65853 0.07142 0.0
H1658 H 0.09166 0.64988 0.05503 0.0
H1659 H 0.13758 0.62413 0.05952 0.0
H1660 H 0.09087 0.57264 0.02621 0.0
H1661 H 0.11904 0.60826 0.03651 0.0
H1662 H 0.06617 0.61117 0.06076 0.0
H1663 H 0.03796 0.57593 0.05019 0.0
C1664 C 0.12343 0.67118 0.06554 0.0
C1665 C 0.14438 0.67407 0.07044 0.0
C1666 C 0.10761 0.65149 0.0586 0.0
C1667 C 0.11228 0.63411 0.05632 0.0
C1668 C 0.13342 0.63717 0.06096 0.0
C1669 C 0.14922 0.65684 0.06794 0.0
C1670 C 0.08518 0.58098 0.03359 0.0
C1671 C 0.06203 0.57138 0.03726 0.0
C1672 C 0.10141 0.60135 0.03963 0.0
C1673 C 0.09496 0.61269 0.0495 0.0
C1674 C 0.07178 0.60314 0.05305 0.0
C1675 C 0.05557 0.58279 0.04704 0.0
H1676 H 0.35446 0.49579 0.05175 0.0
H1677 H 0.35377 0.44448 0.07889 0.0
H1678 H 0.38919 0.50128 0.03984 0.0
H1679 H 0.38825 0.45007 0.06728 0.0
H1680 H 0.43876 0.44899 0.03758 0.0
H1681 H 0.40221 0.44388 0.04537 0.0
H1682 H 0.42945 0.51503 0.04343 0.0
H1683 H 0.46596 0.51991 0.03512 0.0
C1684 C 0.36172 0.48573 0.05522 0.0
C1685 C 0.35106 0.46947 0.06618 0.0
C1686 C 0.38167 0.48889 0.04839 0.0
C1687 C 0.39151 0.47593 0.0524 0.0
C1688 C 0.38094 0.45995 0.06352 0.0
C1689 C 0.36107 0.45674 0.07025 0.0
C1690 C 0.43677 0.46348 0.03854 0.0
C1691 C 0.45516 0.48479 0.03568 0.0
C1692 C 0.41587 0.46062 0.04316 0.0
C1693 C 0.41287 0.47906 0.0454 0.0
C1694 C 0.43101 0.5004 0.04182 0.0
C1695 C 0.45197 0.50324 0.03704 0.0
H1696 H 0.50787 0.85337 0.0667 0.0
H1697 H 0.58047 0.89676 0.06316 0.0
H1698 H 0.50185 0.88275 0.05688 0.0
H1699 H 0.57443 0.92594 0.05292 0.0
H1700 H 0.55477 0.98052 0.05057 0.0
H1701 H 0.5612 0.95133 0.06017 0.0
H1702 H 0.50558 0.9027 0.03417 0.0
H1703 H 0.49874 0.93178 0.02483 0.0
C1704 C 0.52257 0.86921 0.06388 0.0
C1705 C 0.54467 0.87269 0.06577 0.0
C1706 C 0.5191 0.88597 0.05807 0.0
C1707 C 0.53764 0.90672 0.05405 0.0
C1708 C 0.55975 0.91024 0.056 0.0
C1709 C 0.56322 0.89343 0.06175 0.0
C1710 C 0.54392 0.96363 0.04685 0.0
C1711 C 0.5263 0.95859 0.03684 0.0
C1712 C 0.54771 0.94689 0.0523 0.0
C1713 C 0.53392 0.92463 0.04796 0.0
C1714 C 0.51638 0.91961 0.03788 0.0
C1715 C 0.51262 0.93636 0.03239 0.0
H1716 H 0.02347 0.19679 0.37705 0.0
H1717 H 0.02021 0.23923 0.41011 0.0
H1718 H 0.05823 0.22826 0.36744 0.0
H1719 H 0.05541 0.27035 0.40092 0.0
H1720 H 0.1066 0.32763 0.37373 0.0
H1721 H 0.07028 0.2955 0.38066 0.0
H1722 H 0.09808 0.25234 0.37321 0.0
H1723 H 0.13431 0.28458 0.36611 0.0
C1724 C 0.03011 0.21282 0.38227 0.0
C1725 C 0.01887 0.21538 0.39437 0.0
C1726 C 0.05022 0.23084 0.37684 0.0
C1727 C 0.05968 0.25195 0.38333 0.0
C1728 C 0.0485 0.25447 0.39546 0.0
C1729 C 0.02842 0.23648 0.40089 0.0
C1730 C 0.10478 0.31121 0.37336 0.0
C1731 C 0.12317 0.3086 0.36917 0.0
C1732 C 0.08404 0.29279 0.37747 0.0
C1733 C 0.08122 0.27126 0.37769 0.0
C1734 C 0.0995 0.26859 0.37307 0.0
C1735 C 0.12029 0.28708 0.36895 0.0
H1736 H 0.78596 0.78634 0.41205 0.0
H1737 H 0.82872 0.83369 0.37934 0.0
H1738 H 0.75403 0.79023 0.40379 0.0
H1739 H 0.79646 0.83684 0.37066 0.0
H1740 H 0.73905 0.8548 0.37021 0.0
H1741 H 0.77191 0.85142 0.3773 0.0
H1742 H 0.72791 0.78076 0.3839 0.0
H1743 H 0.69517 0.78433 0.37692 0.0
C1744 C 0.78863 0.79763 0.40312 0.0
C1745 C 0.81007 0.80968 0.39641 0.0
C1746 C 0.77016 0.79965 0.39823 0.0
C1747 C 0.77251 0.81377 0.38647 0.0
C1748 C 0.79397 0.82593 0.37981 0.0
C1749 C 0.81246 0.82391 0.3847 0.0
C1750 C 0.73649 0.83851 0.37292 0.0
C1751 C 0.71456 0.81975 0.37275 0.0
C1752 C 0.75534 0.83654 0.37703 0.0
C1753 C 0.75267 0.81581 0.38128 0.0
C1754 C 0.73068 0.79705 0.38094 0.0
C1755 C 0.7119 0.79904 0.37682 0.0
H1756 H 0.18379 0.99368 0.40582 0.0
H1757 H 0.2557 0.0178 0.40153 0.0
H1758 H 0.17553 0.95973 0.39292 0.0
H1759 H 0.24746 0.98394 0.38866 0.0
H1760 H 0.22404 0.9098 0.38416 0.0
H1761 H 0.23232 0.9451 0.39473 0.0
H1762 H 0.17794 0.944 0.36961 0.0
H1763 H 0.16923 0.90823 0.35923 0.0
C1764 C 0.19785 0.99192 0.40193 0.0
C1765 C 0.22042 0.00842 0.40486 0.0
C1766 C 0.19311 0.97243 0.39453 0.0
C1767 C 0.21082 0.96896 0.38986 0.0
C1768 C 0.23338 0.98581 0.39236 0.0
C1769 C 0.23811 1.00525 0.39975 0.0
C1770 C 0.21385 0.91705 0.3808 0.0
C1771 C 0.19601 0.90612 0.37076 0.0
C1772 C 0.21873 0.93745 0.38681 0.0
C1773 C 0.20588 0.94752 0.383 0.0
C1774 C 0.18808 0.93667 0.37289 0.0
C1775 C 0.18322 0.91623 0.36683 0.0
H1776 H 0.57026 0.69422 0.28764 0.0
H1777 H 0.53248 0.66815 0.3276 0.0
H1778 H 0.59736 0.72791 0.30026 0.0
H1779 H 0.5602 0.70176 0.34041 0.0
H1780 H 0.60165 0.77656 0.35366 0.0
H1781 H 0.57371 0.74182 0.34218 0.0
H1782 H 0.62739 0.74021 0.31806 0.0
H1783 H 0.65522 0.77484 0.32941 0.0
C1784 C 0.56765 0.69568 0.29912 0.0
C1785 C 0.54903 0.67841 0.30655 0.0
C1786 C 0.58342 0.71494 0.30643 0.0
C1787 C 0.58111 0.71759 0.3214 0.0
C1788 C 0.56245 0.70039 0.32886 0.0
C1789 C 0.54667 0.68101 0.32154 0.0
C1790 C 0.60755 0.76867 0.34605 0.0
C1791 C 0.63078 0.7786 0.34252 0.0
C1792 C 0.59149 0.7487 0.33946 0.0
C1793 C 0.59821 0.73821 0.32909 0.0
C1794 C 0.62149 0.74796 0.32579 0.0
C1795 C 0.63752 0.76784 0.33239 0.0
H1796 H 0.35983 0.90571 0.33133 0.0
H1797 H 0.32243 0.8438 0.308 0.0
H1798 H 0.32431 0.90132 0.34079 0.0
H1799 H 0.28681 0.83981 0.31706 0.0
H1800 H 0.22682 0.82944 0.34521 0.0
H1801 H 0.26331 0.83264 0.33873 0.0
H1802 H 0.2919 0.90335 0.33207 0.0
H1803 H 0.25565 0.90009 0.33887 0.0
C1804 C 0.34406 0.89109 0.32824 0.0
C1805 C 0.34415 0.87514 0.31884 0.0
C1806 C 0.3236 0.88868 0.33357 0.0
C1807 C 0.30256 0.87022 0.3297 0.0
C1808 C 0.30263 0.85413 0.32043 0.0
C1809 C 0.32311 0.85659 0.31505 0.0
C1810 C 0.24107 0.84571 0.34268 0.0
C1811 C 0.2385 0.8646 0.34281 0.0
C1812 C 0.26192 0.84753 0.33877 0.0
C1813 C 0.28066 0.86827 0.33481 0.0
C1814 C 0.27806 0.88716 0.33522 0.0
C1815 C 0.25724 0.88531 0.33907 0.0
H1816 H 0.14102 0.46131 0.29494 0.0
H1817 H 0.15793 0.49342 0.33696 0.0
H1818 H 0.14798 0.43237 0.30438 0.0
H1819 H 0.16374 0.46389 0.34659 0.0
H1820 H 0.19582 0.42038 0.35485 0.0
H1821 H 0.18927 0.44961 0.34551 0.0
H1822 H 0.1323 0.4009 0.32041 0.0
H1823 H 0.13909 0.37174 0.32955 0.0
C1824 C 0.14623 0.46224 0.30619 0.0
C1825 C 0.14888 0.47979 0.31515 0.0
C1826 C 0.14994 0.44544 0.31167 0.0
C1827 C 0.15636 0.44567 0.32629 0.0
C1828 C 0.15905 0.46323 0.33524 0.0
C1829 C 0.1554 0.48005 0.32975 0.0
C1830 C 0.18176 0.41584 0.34745 0.0
C1831 C 0.16793 0.39363 0.34303 0.0
C1832 C 0.17797 0.43264 0.34209 0.0
C1833 C 0.16025 0.4277 0.33216 0.0
C1834 C 0.14633 0.40544 0.32784 0.0
C1835 C 0.15015 0.38865 0.33317 0.0
H1836 H 0.32172 0.48018 0.30758 0.0
H1837 H 0.36005 0.45524 0.3305 0.0
H1838 H 0.28644 0.44926 0.31709 0.0
H1839 H 0.32483 0.42471 0.34034 0.0
H1840 H 0.25571 0.35852 0.33813 0.0
H1841 H 0.29203 0.39086 0.33139 0.0
H1842 H 0.26409 0.43374 0.33943 0.0
H1843 H 0.22763 0.40122 0.34589 0.0
C1844 C 0.32265 0.46811 0.31464 0.0
C1845 C 0.34381 0.47021 0.31818 0.0
C1846 C 0.30241 0.45052 0.32026 0.0
C1847 C 0.30273 0.43445 0.32952 0.0
C1848 C 0.32389 0.43665 0.33316 0.0
C1849 C 0.34413 0.4543 0.3276 0.0
C1850 C 0.25749 0.37492 0.33867 0.0
C1851 C 0.23895 0.37736 0.34276 0.0
C1852 C 0.27832 0.39348 0.33486 0.0
C1853 C 0.28105 0.41497 0.33481 0.0
C1854 C 0.26256 0.41744 0.33918 0.0
C1855 C 0.24172 0.39883 0.34307 0.0
H1856 H 0.53508 0.85628 0.32727 0.0
H1857 H 0.5841 0.89745 0.29473 0.0
H1858 H 0.56474 0.85227 0.34001 0.0
H1859 H 0.61334 0.89326 0.3072 0.0
H1860 H 0.66677 0.90036 0.33869 0.0
H1861 H 0.6354 0.90484 0.32982 0.0
H1862 H 0.58927 0.83454 0.33604 0.0
H1863 H 0.62091 0.83012 0.34492 0.0
C1864 C 0.55216 0.86456 0.32288 0.0
C1865 C 0.55714 0.87709 0.30991 0.0
C1866 C 0.5691 0.86212 0.33011 0.0
C1867 C 0.59149 0.8725 0.32468 0.0
C1868 C 0.59642 0.88524 0.31184 0.0
C1869 C 0.57954 0.88746 0.30457 0.0
C1870 C 0.64985 0.88593 0.33838 0.0
C1871 C 0.6463 0.86496 0.34263 0.0
C1872 C 0.63188 0.88845 0.33322 0.0
C1873 C 0.60981 0.87002 0.33203 0.0
C1874 C 0.60601 0.84912 0.33688 0.0
C1875 C 0.62412 0.84658 0.342 0.0
H1876 H 0.14755 0.66805 0.32559 0.0
H1877 H 0.1391 0.69633 0.28569 0.0
H1878 H 0.15597 0.70209 0.3386 0.0
H1879 H 0.14743 0.73008 0.29859 0.0
H1880 H 0.13701 0.77615 0.3278 0.0
H1881 H 0.12927 0.74158 0.31639 0.0
H1882 H 0.18395 0.74223 0.34088 0.0
H1883 H 0.19165 0.77698 0.35251 0.0
C1884 C 0.14767 0.68156 0.31957 0.0
C1885 C 0.14234 0.67929 0.30462 0.0
C1886 C 0.1525 0.70107 0.32702 0.0
C1887 C 0.15208 0.71874 0.3197 0.0
C1888 C 0.14734 0.71663 0.30468 0.0
C1889 C 0.14255 0.69722 0.29727 0.0
C1890 C 0.14739 0.76897 0.33085 0.0
C1891 C 0.16503 0.77949 0.34108 0.0
C1892 C 0.14301 0.74914 0.32421 0.0
C1893 C 0.15615 0.73921 0.32756 0.0
C1894 C 0.17341 0.74934 0.3381 0.0
C1895 C 0.17783 0.76929 0.34476 0.0
H1896 H 0.83288 0.99306 0.40614 0.0
H1897 H 0.7866 0.01841 0.40182 0.0
H1898 H 0.80506 0.95838 0.39462 0.0
H1899 H 0.75911 0.98405 0.38984 0.0
H1900 H 0.70541 0.90994 0.38548 0.0
H1901 H 0.73363 0.94538 0.39586 0.0
H1902 H 0.78646 0.9422 0.37173 0.0
H1903 H 0.75832 0.90643 0.36166 0.0
C1904 C 0.81681 0.99129 0.40269 0.0
C1905 C 0.81203 0.00859 0.40498 0.0
C1906 C 0.80092 0.97146 0.39592 0.0
C1907 C 0.77974 0.96831 0.3913 0.0
C1908 C 0.7751 0.98573 0.3934 0.0
C1909 C 0.79102 1.00559 0.40012 0.0
C1910 C 0.72302 0.91678 0.38233 0.0
C1911 C 0.72948 0.90527 0.37264 0.0
C1912 C 0.73923 0.93725 0.38822 0.0
C1913 C 0.7624 0.94677 0.38464 0.0
C1914 C 0.76884 0.93532 0.37487 0.0
C1915 C 0.75262 0.91485 0.36896 0.0
H1916 H 0.0196 0.82775 0.38523 0.0
H1917 H 0.02731 0.78633 0.41731 0.0
H1918 H 0.05334 0.8322 0.3723 0.0
H1919 H 0.06078 0.79094 0.40464 0.0
H1920 H 0.10632 0.78401 0.37306 0.0
H1921 H 0.07031 0.77947 0.38168 0.0
H1922 H 0.09628 0.84995 0.37614 0.0
H1923 H 0.13254 0.85444 0.36746 0.0
C1924 C 0.0284 0.81953 0.38948 0.0
C1925 C 0.02077 0.80677 0.40237 0.0
C1926 C 0.0478 0.82221 0.38214 0.0
C1927 C 0.05974 0.81184 0.38737 0.0
C1928 C 0.0519 0.79894 0.40016 0.0
C1929 C 0.03279 0.79649 0.40754 0.0
C1930 C 0.10419 0.79848 0.37342 0.0
C1931 C 0.12222 0.81953 0.36952 0.0
C1932 C 0.0836 0.79591 0.37845 0.0
C1933 C 0.08047 0.81439 0.37985 0.0
C1934 C 0.09807 0.83535 0.37518 0.0
C1935 C 0.11884 0.83794 0.37016 0.0
H1936 H 0.21318 0.22023 0.4183 0.0
H1937 H 0.20603 0.19341 0.37498 0.0
H1938 H 0.20815 0.25025 0.40852 0.0
H1939 H 0.2008 0.22328 0.36526 0.0
H1940 H 0.16711 0.26551 0.35608 0.0
H1941 H 0.17318 0.23603 0.36553 0.0
H1942 H 0.22698 0.28352 0.39316 0.0
H1943 H 0.22095 0.31305 0.38372 0.0
C1944 C 0.21074 0.2208 0.40668 0.0
C1945 C 0.20994 0.20427 0.39746 0.0
C1946 C 0.20783 0.23804 0.40107 0.0
C1947 C 0.20401 0.23919 0.38609 0.0
C1948 C 0.20333 0.22273 0.37688 0.0
C1949 C 0.2063 0.20555 0.38247 0.0
C1950 C 0.18045 0.26978 0.36402 0.0
C1951 C 0.19367 0.29178 0.369 0.0
C1952 C 0.18392 0.25283 0.36946 0.0
C1953 C 0.20059 0.25736 0.38012 0.0
C1954 C 0.21382 0.27936 0.38509 0.0
C1955 C 0.21043 0.29634 0.3796 0.0
H1956 H 0.68172 0.57199 0.74184 0.0
H1957 H 0.69063 0.52777 0.71312 0.0
H1958 H 0.71677 0.6033 0.73259 0.0
H1959 H 0.72523 0.5593 0.70342 0.0
H1960 H 0.79976 0.61813 0.70218 0.0
H1961 H 0.76416 0.58575 0.71011 0.0
H1962 H 0.73227 0.62623 0.71123 0.0
H1963 H 0.76799 0.65855 0.7035 0.0
C1964 C 0.69114 0.56888 0.73358 0.0
C1965 C 0.68321 0.54723 0.72828 0.0
C1966 C 0.71115 0.58695 0.7281 0.0
C1967 C 0.72386 0.58394 0.71716 0.0
C1968 C 0.71602 0.56228 0.71191 0.0
C1969 C 0.69599 0.5442 0.71738 0.0
C1970 C 0.78497 0.61994 0.70385 0.0
C1971 C 0.78645 0.64073 0.7019 0.0
C1972 C 0.76456 0.6014 0.70843 0.0
C1973 C 0.74526 0.60331 0.7114 0.0
C1974 C 0.7468 0.62414 0.70927 0.0
C1975 C 0.76719 0.64263 0.7047 0.0
H1976 H 0.49471 0.16516 0.71127 0.0
H1977 H 0.4525 0.12225 0.746 0.0
H1978 H 0.46272 0.16853 0.70221 0.0
H1979 H 0.42058 0.12542 0.73682 0.0
H1980 H 0.36179 0.11762 0.70893 0.0
H1981 H 0.3945 0.11416 0.71622 0.0
H1982 H 0.43865 0.18459 0.70886 0.0
H1983 H 0.40578 0.18794 0.70161 0.0
C1984 C 0.47871 0.15657 0.71707 0.0
C1985 C 0.47634 0.1434 0.72942 0.0
C1986 C 0.46032 0.15848 0.71183 0.0
C1987 C 0.43899 0.14718 0.71872 0.0
C1988 C 0.43661 0.13404 0.73105 0.0
C1989 C 0.45499 0.13221 0.73633 0.0
C1990 C 0.37854 0.1323 0.70872 0.0
C1991 C 0.38125 0.15295 0.70444 0.0
C1992 C 0.39728 0.13037 0.71299 0.0
C1993 C 0.41927 0.14911 0.71323 0.0
C1994 C 0.42203 0.16975 0.70869 0.0
C1995 C 0.4032 0.17169 0.70448 0.0
H1996 H 0.85743 0.33519 0.73509 0.0
H1997 H 0.92909 0.35734 0.73228 0.0
H1998 H 0.84874 0.30112 0.72214 0.0
H1999 H 0.92043 0.32338 0.71938 0.0
H2000 H 0.89453 0.24853 0.71693 0.0
H2001 H 0.90349 0.28447 0.72649 0.0
H2002 H 0.85201 0.28473 0.69895 0.0
H2003 H 0.84266 0.24822 0.68946 0.0
C2004 C 0.87135 0.33299 0.73149 0.0
C2005 C 0.89395 0.3489 0.73489 0.0
C2006 C 0.86636 0.31345 0.72406 0.0
C2007 C 0.88387 0.30939 0.71986 0.0
C2008 C 0.9065 0.32575 0.72272 0.0
C2009 C 0.91147 0.34523 0.73013 0.0
C2010 C 0.88522 0.25622 0.71272 0.0
C2011 C 0.86808 0.24548 0.70221 0.0
C2012 C 0.89047 0.277 0.71819 0.0
C2013 C 0.87863 0.28764 0.71341 0.0
C2014 C 0.86145 0.27698 0.70288 0.0
C2015 C 0.85628 0.25616 0.69732 0.0
H2016 H 0.24034 0.02455 0.62053 0.0
H2017 H 0.20078 1.00013 0.65999 0.0
H2018 H 0.26651 0.05901 0.63275 0.0
H2019 H 0.22719 0.03481 0.67232 0.0
H2020 H 0.26837 0.10981 0.68469 0.0
H2021 H 0.24091 0.07466 0.6734 0.0
H2022 H 0.29559 0.07249 0.65094 0.0
H2023 H 0.32287 0.10758 0.662 0.0
C2024 C 0.23732 0.02642 0.63188 0.0
C2025 C 0.21852 0.00936 0.63929 0.0
C2026 C 0.25239 0.04626 0.63892 0.0
C2027 C 0.24921 0.0497 0.65362 0.0
C2028 C 0.23013 0.03285 0.66098 0.0
C2029 C 0.21497 0.01293 0.6539 0.0
C2030 C 0.27457 0.10173 0.67745 0.0
C2031 C 0.29792 0.11164 0.67428 0.0
C2032 C 0.25878 0.08151 0.67098 0.0
C2033 C 0.26593 0.07073 0.66113 0.0
C2034 C 0.28933 0.08047 0.65822 0.0
C2035 C 0.30506 0.10062 0.66466 0.0
H2036 H 0.02815 0.23761 0.66486 0.0
H2037 H 0.98852 0.17894 0.63882 0.0
H2038 H 0.99331 0.23427 0.67478 0.0
H2039 H 0.95364 0.17571 0.6486 0.0
H2040 H 0.89415 0.16522 0.6769 0.0
H2041 H 0.9298 0.16727 0.66962 0.0
H2042 H 0.96221 0.239 0.66776 0.0
H2043 H 0.92678 0.23678 0.67549 0.0
C2044 C 1.01201 0.22409 0.66113 0.0
C2045 C 1.01125 0.20863 0.65095 0.0
C2046 C 0.99196 0.22215 0.66685 0.0
C2047 C 0.9705 0.20474 0.66251 0.0
C2048 C 0.96977 0.18914 0.65243 0.0
C2049 C 0.98983 0.19103 0.64675 0.0
C2050 C 0.90908 0.18141 0.67525 0.0
C2051 C 0.90788 0.20089 0.67713 0.0
C2052 C 0.92946 0.18261 0.67087 0.0
C2053 C 0.94905 0.20332 0.66806 0.0
C2054 C 0.94773 0.22277 0.67006 0.0
C2055 C 0.92739 0.22154 0.67443 0.0
H2056 H 0.84885 0.83479 0.65302 0.0
H2057 H 0.77683 0.78865 0.64931 0.0
H2058 H 0.85456 0.80502 0.66239 0.0
H2059 H 0.78251 0.75886 0.65875 0.0
H2060 H 0.80512 0.70672 0.66086 0.0
H2061 H 0.79891 0.7363 0.65207 0.0
H2062 H 0.84739 0.78136 0.68342 0.0
H2063 H 0.85415 0.75188 0.69194 0.0
C2064 C 0.83419 0.81833 0.65431 0.0
C2065 C 0.81237 0.81415 0.6504 0.0
C2066 C 0.83746 0.80124 0.65972 0.0
C2067 C 0.819 0.7795 0.66139 0.0
C2068 C 0.79718 0.77531 0.65743 0.0
C2069 C 0.79391 0.7924 0.652 0.0
C2070 C 0.81433 0.72282 0.66603 0.0
C2071 C 0.82984 0.72666 0.67736 0.0
C2072 C 0.81069 0.73984 0.66099 0.0
C2073 C 0.82254 0.76125 0.66706 0.0
C2074 C 0.83805 0.76513 0.6784 0.0
C2075 C 0.84169 0.74808 0.68346 0.0
H2076 H 1.00708 0.82763 0.66967 0.0
H2077 H 1.00679 0.7813 0.63828 0.0
H2078 H 0.97111 0.79841 0.6796 0.0
H2079 H 0.97042 0.75236 0.64783 0.0
H2080 H 0.91348 0.69888 0.67416 0.0
H2081 H 0.95226 0.72826 0.6685 0.0
H2082 H 0.93138 0.77748 0.6727 0.0
H2083 H 0.89278 0.74797 0.67857 0.0
C2084 C 0.99944 0.8112 0.66491 0.0
C2085 C 1.00997 0.80693 0.65313 0.0
C2086 C 0.97866 0.79447 0.67054 0.0
C2087 C 0.96778 0.77294 0.66457 0.0
C2088 C 0.97839 0.76861 0.65288 0.0
C2089 C 0.99915 0.78535 0.64723 0.0
C2090 C 0.91749 0.71609 0.67439 0.0
C2091 C 0.90044 0.7213 0.67734 0.0
C2092 C 0.93959 0.7329 0.67091 0.0
C2093 C 0.94503 0.75532 0.67003 0.0
C2094 C 0.92799 0.76051 0.67345 0.0
C2095 C 0.90588 0.74365 0.67686 0.0
H2096 H 0.2512 0.2313 0.627 0.0
H2097 H 0.20194 0.18991 0.65937 0.0
H2098 H 0.28032 0.22695 0.63949 0.0
H2099 H 0.23149 0.18574 0.67212 0.0
H2100 H 0.28764 0.16341 0.67674 0.0
H2101 H 0.25602 0.16796 0.66797 0.0
H2102 H 0.30214 0.23838 0.66227 0.0
H2103 H 0.33349 0.23377 0.67102 0.0
C2104 C 0.24656 0.22122 0.63681 0.0
C2105 C 0.22414 0.21084 0.6421 0.0
C2106 C 0.26337 0.21891 0.64408 0.0
C2107 C 0.25833 0.20607 0.65688 0.0
C2108 C 0.23592 0.19567 0.66226 0.0
C2109 C 0.21905 0.19819 0.65502 0.0
C2110 C 0.29084 0.17991 0.67396 0.0
C2111 C 0.313 0.19829 0.67469 0.0
C2112 C 0.27275 0.18253 0.66891 0.0
C2113 C 0.27657 0.2035 0.66423 0.0
C2114 C 0.29862 0.22193 0.66554 0.0
C2115 C 0.31658 0.21933 0.67063 0.0
H2116 H 0.84246 0.02768 0.64114 0.0
H2117 H 0.77214 0.9994 0.65378 0.0
H2118 H 0.8517 0.06192 0.65388 0.0
H2119 H 0.78142 0.03381 0.66654 0.0
H2120 H 0.81063 0.09648 0.69582 0.0
H2121 H 0.80274 0.05994 0.68691 0.0
H2122 H 0.84329 0.09142 0.64864 0.0
H2123 H 0.85144 0.12748 0.65756 0.0
C2124 C 0.82896 0.02874 0.64667 0.0
C2125 C 0.8065 0.01089 0.64625 0.0
C2126 C 0.83426 0.04838 0.654 0.0
C2127 C 0.81725 0.05074 0.66108 0.0
C2128 C 0.79496 0.0325 0.66129 0.0
C2129 C 0.78965 0.01278 0.65395 0.0
C2130 C 0.81805 0.09554 0.68561 0.0
C2131 C 0.83168 0.1149 0.67742 0.0
C2132 C 0.8134 0.07462 0.68045 0.0
C2133 C 0.8225 0.07275 0.6671 0.0
C2134 C 0.8363 0.09221 0.65907 0.0
C2135 C 0.84078 0.11293 0.66414 0.0
H2136 H 0.49684 0.32787 0.73938 0.0
H2137 H 0.4498 0.35192 0.73295 0.0
H2138 H 0.4704 0.29312 0.72728 0.0
H2139 H 0.42339 0.3172 0.72094 0.0
H2140 H 0.37094 0.24291 0.71708 0.0
H2141 H 0.39851 0.27857 0.72744 0.0
H2142 H 0.45242 0.2762 0.70412 0.0
H2143 H 0.42484 0.24016 0.69398 0.0
C2144 C 0.48103 0.32592 0.73521 0.0
C2145 C 0.47546 0.34274 0.73728 0.0
C2146 C 0.46582 0.30593 0.72827 0.0
C2147 C 0.44461 0.3022 0.72322 0.0
C2148 C 0.43933 0.31926 0.72494 0.0
C2149 C 0.45452 0.33921 0.73185 0.0
C2150 C 0.38865 0.24995 0.7141 0.0
C2151 C 0.39557 0.2386 0.7046 0.0
C2152 C 0.40449 0.27055 0.71999 0.0
C2153 C 0.42775 0.2804 0.7166 0.0
C2154 C 0.43469 0.26907 0.70708 0.0
C2155 C 0.41881 0.24846 0.70114 0.0
H2156 H 0.68538 0.16639 0.71902 0.0
H2157 H 0.69204 0.11824 0.74534 0.0
H2158 H 0.71977 0.17431 0.70557 0.0
H2159 H 0.72653 0.12661 0.73237 0.0
H2160 H 0.78171 0.13468 0.70302 0.0
H2161 H 0.7428 0.12371 0.7101 0.0
H2162 H 0.76043 0.1928 0.70987 0.0
H2163 H 0.79912 0.20347 0.70237 0.0
C2164 C 0.69402 0.15734 0.72186 0.0
C2165 C 0.68598 0.14183 0.7334 0.0
C2166 C 0.71387 0.16202 0.71422 0.0
C2167 C 0.72609 0.15116 0.71784 0.0
C2168 C 0.71756 0.13515 0.72907 0.0
C2169 C 0.69785 0.13055 0.7367 0.0
C2170 C 0.77692 0.14737 0.7039 0.0
C2171 C 0.79317 0.16984 0.7017 0.0
C2172 C 0.75474 0.14117 0.70821 0.0
C2173 C 0.74839 0.15736 0.71076 0.0
C2174 C 0.76448 0.17981 0.70788 0.0
C2175 C 0.78668 0.18597 0.70357 0.0
H2176 H 0.85181 0.52878 0.73499 0.0
H2177 H 0.9177 0.56197 0.71429 0.0
H2178 H 0.84373 0.55677 0.72522 0.0
H2179 H 0.90975 0.59028 0.70462 0.0
H2180 H 0.87938 0.62758 0.67984 0.0
H2181 H 0.88667 0.59788 0.68765 0.0
H2182 H 0.85573 0.59496 0.72929 0.0
H2183 H 0.84765 0.62357 0.72135 0.0
C2184 C 0.86468 0.54219 0.72846 0.0
C2185 C 0.88549 0.54323 0.72556 0.0
C2186 C 0.86005 0.55826 0.72282 0.0
C2187 C 0.87616 0.57595 0.7142 0.0
C2188 C 0.89684 0.57678 0.71107 0.0
C2189 C 0.90143 0.5606 0.71666 0.0
C2190 C 0.87384 0.62032 0.69055 0.0
C2191 C 0.86269 0.62784 0.69986 0.0
C2192 C 0.87826 0.60348 0.69511 0.0
C2193 C 0.87163 0.59384 0.70908 0.0
C2194 C 0.86068 0.60159 0.71836 0.0
C2195 C 0.85626 0.61826 0.71382 0.0
H2196 H 0.45638 0.91713 0.18116 0.0
H2197 H 0.50695 0.97765 0.20178 0.0
H2198 H 0.4694 0.9345 0.15727 0.0
H2199 H 0.5199 0.99498 0.17798 0.0
H2200 H 0.55256 0.01427 0.13354 0.0
H2201 H 0.53955 0.99447 0.1566 0.0
H2202 H 0.47024 0.96265 0.14121 0.0
H2203 H 0.4834 0.98247 0.11798 0.0
C2204 C 0.47021 0.93418 0.18064 0.0
C2205 C 0.48061 0.94591 0.1935 0.0
C2206 C 0.47768 0.94417 0.16689 0.0
C2207 C 0.49579 0.96619 0.16559 0.0
C2208 C 0.50621 0.97786 0.17846 0.0
C2209 C 0.49877 0.96789 0.19218 0.0
C2210 C 0.53452 1.00307 0.13505 0.0
C2211 C 0.51903 1.00021 0.1239 0.0
C2212 C 0.52702 0.99172 0.14834 0.0
C2213 C 0.50376 0.97712 0.15096 0.0
C2214 C 0.4883 0.97362 0.13962 0.0
C2215 C 0.49584 0.98499 0.12626 0.0
H2216 H 0.03851 0.53115 0.19935 0.0
H2217 H 0.09828 0.53865 0.17764 0.0
H2218 H 0.01996 0.52663 0.17588 0.0
H2219 H 0.07982 0.53436 0.15409 0.0
H2220 H 0.02958 0.5006 0.11609 0.0
H2221 H 0.04991 0.50707 0.13913 0.0
H2222 H 0.02036 0.54593 0.15421 0.0
H2223 H 0.99989 0.53922 0.13129 0.0
C2224 C 0.04783 0.53216 0.18955 0.0
C2225 C 0.06991 0.53528 0.19042 0.0
C2226 C 0.03719 0.52957 0.17605 0.0
C2227 C 0.04835 0.53013 0.16301 0.0
C2228 C 0.07053 0.53347 0.16388 0.0
C2229 C 0.08115 0.53597 0.1774 0.0
C2230 C 0.02762 0.51072 0.12427 0.0
C2231 C 0.01295 0.51924 0.12185 0.0
C2232 C 0.03931 0.51446 0.1375 0.0
C2233 C 0.03671 0.52691 0.14864 0.0
C2234 C 0.02244 0.53586 0.14605 0.0
C2235 C 1.0107 0.53205 0.13287 0.0
H2236 H 0.50811 0.56278 0.19257 0.0
H2237 H 0.44834 0.49818 0.18703 0.0
H2238 H 0.52117 0.56 0.16836 0.0
H2239 H 0.4619 0.49495 0.16316 0.0
H2240 H 0.48293 0.5016 0.11573 0.0
H2241 H 0.46874 0.50819 0.13852 0.0
H2242 H 0.53675 0.5403 0.15621 0.0
H2243 H 0.55099 0.53459 0.1333 0.0
C2244 C 0.49766 0.54802 0.18619 0.0
C2245 C 0.4772 0.53065 0.19189 0.0
C2246 C 0.50531 0.5463 0.17232 0.0
C2247 C 0.49271 0.52717 0.16374 0.0
C2248 C 0.47201 0.51004 0.16933 0.0
C2249 C 0.46437 0.51176 0.18317 0.0
C2250 C 0.49491 0.5104 0.12439 0.0
C2251 C 0.51811 0.51738 0.12266 0.0
C2252 C 0.48673 0.51396 0.13755 0.0
C2253 C 0.50152 0.52465 0.14933 0.0
C2254 C 0.52481 0.53219 0.14741 0.0
C2255 C 0.53296 0.52864 0.13428 0.0
H2256 H 0.93133 0.48361 0.86558 0.0
H2257 H 0.99113 0.48931 0.84502 0.0
H2258 H 0.94842 0.48657 0.88949 0.0
H2259 H 1.00832 0.49253 0.86882 0.0
H2260 H 0.02548 0.47767 0.91356 0.0
H2261 H 1.00606 0.47221 0.89033 0.0
H2262 H 0.97808 0.51257 0.90517 0.0
H2263 H 0.99733 0.51775 0.92853 0.0
C2264 C 0.94817 0.4856 0.86615 0.0
C2265 C 0.95981 0.48616 0.85335 0.0
C2266 C 0.95801 0.48735 0.87987 0.0
C2267 C 0.97979 0.48978 0.88116 0.0
C2268 C 0.99136 0.49025 0.86833 0.0
C2269 C 0.9815 0.48842 0.85464 0.0
C2270 C 0.01522 0.48542 0.91186 0.0
C2271 C 0.01312 0.49829 0.92289 0.0
C2272 C 1.0041 0.48233 0.8985 0.0
C2273 C 0.99062 0.49211 0.89575 0.0
C2274 C 0.98809 0.50457 0.90692 0.0
C2275 C 0.99916 0.50757 0.92033 0.0
H2276 H 0.52094 0.45293 0.8542 0.0
H2277 H 0.57896 0.51903 0.85841 0.0
H2278 H 0.50719 0.45671 0.87795 0.0
H2279 H 0.56527 0.52273 0.88214 0.0
H2280 H 0.54454 0.51616 0.92987 0.0
H2281 H 0.55894 0.50962 0.90715 0.0
H2282 H 0.49099 0.47685 0.88938 0.0
H2283 H 0.47655 0.4827 0.9122 0.0
C2284 C 0.53074 0.46832 0.86013 0.0
C2285 C 0.5511 0.48566 0.85428 0.0
C2286 C 0.52285 0.47048 0.8738 0.0
C2287 C 0.53508 0.49004 0.88204 0.0
C2288 C 0.55556 0.50727 0.87627 0.0
C2289 C 0.56343 0.50513 0.8626 0.0
C2290 C 0.53262 0.50726 0.9212 0.0
C2291 C 0.50938 0.5001 0.92289 0.0
C2292 C 0.54092 0.50372 0.90808 0.0
C2293 C 0.52618 0.49281 0.89633 0.0
C2294 C 0.50286 0.48515 0.89818 0.0
C2295 C 0.4946 0.48874 0.91125 0.0
H2296 H 0.51249 0.03601 0.84535 0.0
H2297 H 0.55699 0.09967 0.86514 0.0
H2298 H 0.50333 0.01856 0.86931 0.0
H2299 H 0.54726 0.08221 0.88926 0.0
H2300 H 0.53994 0.0363 0.92904 0.0
H2301 H 0.55122 0.05585 0.90557 0.0
H2302 H 0.48187 0.01785 0.89057 0.0
H2303 H 0.47066 0.99856 0.91387 0.0
C2304 C 0.5205 0.0463 0.85479 0.0
C2305 C 0.53551 0.06931 0.85321 0.0
C2306 C 0.515 0.03631 0.8686 0.0
C2307 C 0.52435 0.04897 0.88131 0.0
C2308 C 0.53977 0.0719 0.87975 0.0
C2309 C 0.5452 0.08195 0.8659 0.0
C2310 C 0.52706 0.03235 0.9208 0.0
C2311 C 0.50442 0.01558 0.92334 0.0
C2312 C 0.53354 0.04353 0.90731 0.0
C2313 C 0.51754 0.03819 0.89603 0.0
C2314 C 0.4948 0.02202 0.89881 0.0
C2315 C 0.48835 0.01095 0.91224 0.0
H2316 H 0.1775 0.2778 0.52576 0.0
H2317 H 0.12002 0.28804 0.52177 0.0
H2318 H 0.18997 0.29309 0.50136 0.0
H2319 H 0.13302 0.30422 0.49768 0.0
H2320 H 0.15196 0.31727 0.44977 0.0
H2321 H 0.13796 0.29705 0.47277 0.0
H2322 H 0.20675 0.32813 0.48907 0.0
H2323 H 0.2207 0.34753 0.46598 0.0
C2324 C 0.16743 0.28319 0.51968 0.0
C2325 C 0.14779 0.28175 0.52588 0.0
C2326 C 0.17474 0.29222 0.50571 0.0
C2327 C 0.16262 0.30008 0.49748 0.0
C2328 C 0.14273 0.2982 0.50356 0.0
C2329 C 0.13543 0.28918 0.51752 0.0
C2330 C 0.16411 0.31948 0.45817 0.0
C2331 C 0.18747 0.33422 0.456 0.0
C2332 C 0.15606 0.30808 0.47146 0.0
C2333 C 0.17116 0.31101 0.48292 0.0
C2334 C 0.19456 0.32522 0.48054 0.0
C2335 C 0.20257 0.33661 0.4673 0.0
H2336 H 0.75808 0.87427 0.51609 0.0
H2337 H 0.69314 0.85488 0.53585 0.0
H2338 H 0.74093 0.86872 0.49194 0.0
H2339 H 0.67606 0.84957 0.51181 0.0
H2340 H 0.64655 0.81861 0.4681 0.0
H2341 H 0.6651 0.82466 0.49168 0.0
H2342 H 0.72437 0.88274 0.47456 0.0
H2343 H 0.70577 0.87644 0.45083 0.0
C2344 C 0.7402 0.86909 0.51529 0.0
C2345 C 0.72697 0.86489 0.52794 0.0
C2346 C 0.73035 0.8659 0.50143 0.0
C2347 C 0.70702 0.85849 0.49986 0.0
C2348 C 0.69394 0.85477 0.51254 0.0
C2349 C 0.70376 0.85787 0.52636 0.0
C2350 C 0.66351 0.83273 0.46937 0.0
C2351 C 0.67458 0.84714 0.45758 0.0
C2352 C 0.67416 0.83625 0.48293 0.0
C2353 C 0.69618 0.85436 0.48515 0.0
C2354 C 0.70749 0.86851 0.47326 0.0
C2355 C 0.69683 0.86492 0.45963 0.0
H2356 H 0.17357 0.89491 0.5264 0.0
H2357 H 0.11332 0.83092 0.52 0.0
H2358 H 0.18698 0.89256 0.50224 0.0
H2359 H 0.12728 0.82807 0.49618 0.0
H2360 H 0.1494 0.83561 0.44889 0.0
H2361 H 0.13482 0.84165 0.47169 0.0
H2362 H 0.20249 0.87318 0.48989 0.0
H2363 H 0.21713 0.86807 0.46697 0.0
C2364 C 0.16309 0.88037 0.51985 0.0
C2365 C 0.14237 0.86306 0.52531 0.0
C2366 C 0.17094 0.87889 0.506 0.0
C2367 C 0.15835 0.86004 0.49718 0.0
C2368 C 0.13741 0.84295 0.50253 0.0
C2369 C 0.12954 0.84445 0.51634 0.0
C2370 C 0.16123 0.84418 0.45767 0.0
C2371 C 0.18445 0.85117 0.45606 0.0
C2372 C 0.15281 0.84741 0.47085 0.0
C2373 C 0.16739 0.85778 0.48278 0.0
C2374 C 0.1907 0.86531 0.48098 0.0
C2375 C 0.19908 0.8621 0.46784 0.0
H2376 H 0.5969 0.80819 0.2011 0.0
H2377 H 0.66065 0.825 0.18051 0.0
H2378 H 0.61421 0.81169 0.22504 0.0
H2379 H 0.67806 0.82907 0.20437 0.0
H2380 H 0.69678 0.81343 0.24861 0.0
H2381 H 0.67726 0.80704 0.22533 0.0
H2382 H 0.64256 0.84075 0.241 0.0
H2383 H 0.66224 0.84731 0.26432 0.0
C2384 C 0.61456 0.8125 0.20167 0.0
C2385 C 0.62738 0.81634 0.18887 0.0
C2386 C 0.62455 0.81474 0.2154 0.0
C2387 C 0.64755 0.82069 0.21666 0.0
C2388 C 0.66026 0.82424 0.20383 0.0
C2389 C 0.65033 0.82214 0.19014 0.0
C2390 C 0.68508 0.8196 0.24709 0.0
C2391 C 0.68129 0.83109 0.25834 0.0
C2392 C 0.67386 0.81591 0.23373 0.0
C2393 C 0.65846 0.82353 0.23122 0.0
C2394 C 0.65415 0.83447 0.24259 0.0
C2395 C 0.66543 0.83822 0.25598 0.0
H2396 H 0.18787 0.82321 0.17844 0.0
H2397 H 0.23844 0.81265 0.19975 0.0
H2398 H 0.17421 0.82735 0.20205 0.0
H2399 H 0.22465 0.81664 0.22345 0.0
H2400 H 0.20957 0.84985 0.26235 0.0
H2401 H 0.22324 0.84353 0.23925 0.0
H2402 H 0.15423 0.80748 0.22332 0.0
H2403 H 0.1407 0.81401 0.24627 0.0
C2404 C 0.19589 0.82144 0.18817 0.0
C2405 C 0.21427 0.81754 0.18711 0.0
C2406 C 0.18803 0.82382 0.20177 0.0
C2407 C 0.19824 0.8223 0.21477 0.0
C2408 C 0.21654 0.81826 0.21372 0.0
C2409 C 0.22445 0.81593 0.2001 0.0
C2410 C 0.1973 0.84035 0.25398 0.0
C2411 C 0.17404 0.83266 0.25616 0.0
C2412 C 0.20514 0.8367 0.2407 0.0
C2413 C 0.18991 0.82518 0.22926 0.0
C2414 C 0.16658 0.81689 0.23167 0.0
C2415 C 0.15878 0.82059 0.24489 0.0
H2416 H 0.18025 0.37092 0.17777 0.0
H2417 H 0.22334 0.43479 0.19773 0.0
H2418 H 0.17113 0.35337 0.20171 0.0
H2419 H 0.2137 0.4172 0.22183 0.0
H2420 H 0.20718 0.37111 0.26145 0.0
H2421 H 0.21833 0.39092 0.23806 0.0
H2422 H 0.14913 0.35229 0.22292 0.0
H2423 H 0.13801 0.3328 0.24614 0.0
C2424 C 0.18797 0.38124 0.18725 0.0
C2425 C 0.20257 0.40433 0.18573 0.0
C2426 C 0.18249 0.37118 0.20104 0.0
C2427 C 0.19149 0.38385 0.21377 0.0
C2428 C 0.2065 0.40688 0.21228 0.0
C2429 C 0.21188 0.41701 0.19845 0.0
C2430 C 0.19429 0.36708 0.2532 0.0
C2431 C 0.17174 0.35007 0.25568 0.0
C2432 C 0.2007 0.37841 0.23976 0.0
C2433 C 0.18472 0.37297 0.22846 0.0
C2434 C 0.16205 0.35655 0.23118 0.0
C2435 C 0.15566 0.34535 0.24456 0.0
H2436 H 0.78218 0.62011 0.85625 0.0
H2437 H 0.84056 0.6112 0.85968 0.0
H2438 H 0.79464 0.63651 0.83216 0.0
H2439 H 0.85251 0.62674 0.83528 0.0
H2440 H 0.88191 0.68154 0.80006 0.0
H2441 H 0.86851 0.66189 0.82312 0.0
H2442 H 0.79951 0.62965 0.80714 0.0
H2443 H 0.81293 0.65008 0.78415 0.0
C2444 C 0.79767 0.62158 0.85188 0.0
C2445 C 0.81044 0.61447 0.86009 0.0
C2446 C 0.80466 0.63074 0.83792 0.0
C2447 C 0.82466 0.63307 0.83168 0.0
C2448 C 0.83718 0.62552 0.83975 0.0
C2449 C 0.83017 0.61634 0.85373 0.0
C2450 C 0.86384 0.67031 0.80144 0.0
C2451 C 0.8485 0.66765 0.79023 0.0
C2452 C 0.85616 0.65879 0.81466 0.0
C2453 C 0.83286 0.64417 0.81713 0.0
C2454 C 0.81754 0.64099 0.80576 0.0
C2455 C 0.82526 0.65252 0.79248 0.0
H2456 H 0.42823 0.2065 0.84627 0.0
H2457 H 0.36388 0.18675 0.86704 0.0
H2458 H 0.41072 0.203 0.8224 0.0
H2459 H 0.3463 0.18276 0.84323 0.0
H2460 H 0.32725 0.19962 0.79937 0.0
H2461 H 0.34656 0.20544 0.82268 0.0
H2462 H 0.38285 0.17381 0.80613 0.0
H2463 H 0.36332 0.16775 0.7828 0.0
C2464 C 0.41038 0.20152 0.84575 0.0
C2465 C 0.39746 0.19689 0.85858 0.0
C2466 C 0.40029 0.1993 0.83206 0.0
C2467 C 0.37709 0.19259 0.83087 0.0
C2468 C 0.36425 0.18818 0.84372 0.0
C2469 C 0.37428 0.19025 0.85738 0.0
C2470 C 0.33923 0.19376 0.8007 0.0
C2471 C 0.34353 0.18302 0.78919 0.0
C2472 C 0.35034 0.19713 0.81408 0.0
C2473 C 0.36615 0.18995 0.81634 0.0
C2474 C 0.37093 0.17974 0.80473 0.0
C2475 C 0.35974 0.17629 0.79133 0.0
H2476 H 0.7757 0.16282 0.85365 0.0
H2477 H 0.84215 0.21917 0.86218 0.0
H2478 H 0.78866 0.15807 0.82996 0.0
H2479 H 0.85484 0.21506 0.83815 0.0
H2480 H 0.87749 0.18389 0.80249 0.0
H2481 H 0.86457 0.19099 0.82548 0.0
H2482 H 0.79976 0.17303 0.80594 0.0
H2483 H 0.81237 0.16493 0.78307 0.0
C2484 C 0.79309 0.17427 0.85048 0.0
C2485 C 0.80791 0.19126 0.85999 0.0
C2486 C 0.80046 0.17173 0.83674 0.0
C2487 C 0.82287 0.18612 0.83205 0.0
C2488 C 0.83756 0.20343 0.84142 0.0
C2489 C 0.83018 0.20597 0.85518 0.0
C2490 C 0.8604 0.18128 0.80308 0.0
C2491 C 0.84594 0.17359 0.79088 0.0
C2492 C 0.85308 0.18567 0.81627 0.0
C2493 C 0.83105 0.18257 0.81768 0.0
C2494 C 0.81673 0.17534 0.80538 0.0
C2495 C 0.82407 0.17094 0.79217 0.0
H2496 H 0.32128 0.15376 0.5127 0.0
H2497 H 0.26115 0.14524 0.53449 0.0
H2498 H 0.3398 0.15815 0.53616 0.0
H2499 H 0.2796 0.1494 0.55803 0.0
H2500 H 0.32966 0.18311 0.59613 0.0
H2501 H 0.30937 0.17677 0.57309 0.0
H2502 H 0.33949 0.13856 0.55771 0.0
H2503 H 0.3599 0.14511 0.58065 0.0
C2504 C 0.31187 0.1525 0.52251 0.0
C2505 C 0.2897 0.14914 0.52167 0.0
C2506 C 0.32251 0.15501 0.536 0.0
C2507 C 0.31125 0.15413 0.54906 0.0
C2508 C 0.28897 0.15054 0.54823 0.0
C2509 C 0.27835 0.14811 0.53471 0.0
C2510 C 0.33175 0.17315 0.58789 0.0
C2511 C 0.34656 0.16477 0.59022 0.0
C2512 C 0.32009 0.16948 0.57465 0.0
C2513 C 0.32287 0.15726 0.56343 0.0
C2514 C 0.33728 0.14845 0.56593 0.0
C2515 C 0.34898 0.15218 0.57912 0.0
H2516 H 0.90904 0.15081 0.53223 0.0
H2517 H 0.85791 0.16046 0.51087 0.0
H2518 H 0.89563 0.15546 0.55589 0.0
H2519 H 0.84464 0.16528 0.53445 0.0
H2520 H 0.81205 0.1532 0.57895 0.0
H2521 H 0.82514 0.14607 0.55602 0.0
H2522 H 0.89449 0.18286 0.57128 0.0
H2523 H 0.88126 0.18978 0.59436 0.0
C2524 C 0.895 0.15403 0.53256 0.0
C2525 C 0.88455 0.1552 0.51958 0.0
C2526 C 0.88732 0.15673 0.54616 0.0
C2527 C 0.86899 0.16074 0.54718 0.0
C2528 C 0.8585 0.1618 0.53418 0.0
C2529 C 0.86613 0.15903 0.52061 0.0
C2530 C 0.83011 0.15983 0.57742 0.0
C2531 C 0.8456 0.17226 0.58849 0.0
C2532 C 0.83765 0.15577 0.56422 0.0
C2533 C 0.86094 0.16407 0.56164 0.0
C2534 C 0.87641 0.176 0.57288 0.0
C2535 C 0.86883 0.18 0.58614 0.0
H2536 H 0.88244 0.75812 0.5293 0.0
H2537 H 0.85008 0.69328 0.50919 0.0
H2538 H 0.87516 0.74054 0.55336 0.0
H2539 H 0.84269 0.67583 0.53312 0.0
H2540 H 0.80885 0.65108 0.57714 0.0
H2541 H 0.81822 0.67029 0.55381 0.0
H2542 H 0.88453 0.71818 0.57012 0.0
H2543 H 0.8752 0.69869 0.59361 0.0
C2544 C 0.87402 0.74015 0.52996 0.0
C2545 C 0.86665 0.72718 0.51721 0.0
C2546 C 0.86981 0.73005 0.54379 0.0
C2547 C 0.85805 0.70671 0.54525 0.0
C2548 C 0.85129 0.69382 0.53249 0.0
C2549 C 0.85554 0.70387 0.51871 0.0
C2550 C 0.82554 0.66558 0.57579 0.0
C2551 C 0.84135 0.67305 0.5873 0.0
C2552 C 0.83092 0.67664 0.56234 0.0
C2553 C 0.85227 0.69566 0.55993 0.0
C2554 C 0.86789 0.70364 0.57157 0.0
C2555 C 0.86251 0.69247 0.58507 0.0
loop_
_geom_bond_atom_site_label_1
_geom_bond_atom_site_label_2
_geom_bond_distance
_geom_bond_site_symmetry_2
_ccdc_geom_bond_type
C0 C1 1.264 . S
C0 C5 1.479 . S
C0 C10 1.465 . S
C1 C0 1.264 . S
C1 C3 1.339 . S
C1 H28 0.931 . S
C2 C3 1.395 . S
C2 C4 1.320 . S
C3 C1 1.339 . S
C3 C2 1.395 . S
C3 H29 0.929 . S
C4 C2 1.320 . S
C4 C5 1.405 . S
C4 H30 0.930 . S
C5 C0 1.479 . S
C5 C4 1.405 . S
C5 H31 0.931 . S
U6 O7 2.454 . S
U6 O8 2.458 . S
U6 C9 2.984 . S
U6 C10 2.847 . S
U6 C23 2.882 . S
U6 O24 2.441 . S
U6 O25 2.420 . S
U6 O26 2.455 . S
U6 O27 2.449 . S
O7 U6 2.454 . S
O7 C9 1.353 . S
O8 U6 2.458 . S
O8 C9 1.286 . S
C9 U6 2.984 . S
C9 O7 1.353 . S
C9 O8 1.286 . S
C9 C11 1.363 . S
C10 C0 1.465 . S
C10 U6 2.847 . S
C10 O24 1.249 . S
C10 O25 1.202 . S
C11 C9 1.363 . S
C11 C13 1.408 . S
C11 C16 1.342 . S
C12 C13 1.310 . S
C12 C15 1.461 . S
C12 H32 0.932 . S
C13 C11 1.408 . S
C13 C12 1.310 . S
C13 H33 0.930 . S
C14 C15 1.474 . S
C14 C16 1.285 . S
C14 H34 0.929 . S
C15 C12 1.461 . S
C15 C14 1.474 . S
C16 C11 1.342 . S
C16 C14 1.285 . S
C16 H35 0.930 . S
C17 C20 1.424 . S
C17 C22 1.245 . S
C17 C23 1.428 . S
C18 C21 1.260 . S
C18 C22 1.477 . S
C18 H36 0.932 . S
C19 C20 1.384 . S
C19 C21 1.479 . S
C19 H37 0.929 . S
C20 C17 1.424 . S
C20 C19 1.384 . S
C20 H38 0.928 . S
C21 C18 1.260 . S
C21 C19 1.479 . S
C22 C17 1.245 . S
C22 C18 1.477 . S
C22 H39 0.932 . S
C23 U6 2.882 . S
C23 C17 1.428 . S
C23 O26 1.301 . S
C23 O27 1.282 . S
O24 U6 2.441 . S
O24 C10 1.249 . S
O25 U6 2.420 . S
O25 C10 1.202 . S
O26 U6 2.455 . S
O26 C23 1.301 . S
O27 U6 2.449 . S
O27 C23 1.282 . S
H28 C1 0.931 . S
H29 C3 0.929 . S
H30 C4 0.930 . S
H31 C5 0.931 . S
H32 C12 0.932 . S
H33 C13 0.930 . S
H34 C14 0.929 . S
H35 C16 0.930 . S
H36 C18 0.932 . S
H37 C19 0.929 . S
H38 C20 0.928 . S
H39 C22 0.932 . S
C40 C41 1.264 . S
C40 C45 1.479 . S
C40 C50 1.465 . S
C41 C40 1.264 . S
C41 C43 1.339 . S
C41 H68 0.931 . S
C42 C43 1.395 . S
C42 C44 1.320 . S
C43 C41 1.339 . S
C43 C42 1.395 . S
C43 H69 0.929 . S
C44 C42 1.320 . S
C44 C45 1.405 . S
C44 H70 0.930 . S
C45 C40 1.479 . S
C45 C44 1.405 . S
C45 H71 0.931 . S
U46 O47 2.454 . S
U46 O48 2.458 . S
U46 C49 2.984 . S
U46 C50 2.847 . S
U46 C63 2.882 . S
U46 O64 2.441 . S
U46 O65 2.420 . S
U46 O66 2.455 . S
U46 O67 2.449 . S
O47 U46 2.454 . S
O47 C49 1.353 . S
O48 U46 2.458 . S
O48 C49 1.286 . S
C49 U46 2.984 . S
C49 O47 1.353 . S
C49 O48 1.286 . S
C49 C51 1.363 . S
C50 C40 1.465 . S
C50 U46 2.847 . S
C50 O64 1.249 . S
C50 O65 1.202 . S
C51 C49 1.363 . S
C51 C53 1.408 . S
C51 C56 1.342 . S
C52 C53 1.310 . S
C52 C55 1.461 . S
C52 H72 0.932 . S
C53 C51 1.408 . S
C53 C52 1.310 . S
C53 H73 0.930 . S
C54 C55 1.474 . S
C54 C56 1.285 . S
C54 H74 0.929 . S
C55 C52 1.461 . S
C55 C54 1.474 . S
C56 C51 1.342 . S
C56 C54 1.285 . S
C56 H75 0.930 . S
C57 C60 1.424 . S
C57 C62 1.245 . S
C57 C63 1.428 . S
C58 C61 1.260 . S
C58 C62 1.477 . S
C58 H76 0.932 . S
C59 C60 1.384 . S
C59 C61 1.479 . S
C59 H77 0.929 . S
C60 C57 1.424 . S
C60 C59 1.384 . S
C60 H78 0.928 . S
C61 C58 1.260 . S
C61 C59 1.479 . S
C62 C57 1.245 . S
C62 C58 1.477 . S
C62 H79 0.932 . S
C63 U46 2.882 . S
C63 C57 1.428 . S
C63 O66 1.301 . S
C63 O67 1.282 . S
O64 U46 2.441 . S
O64 C50 1.249 . S
O65 U46 2.420 . S
O65 C50 1.202 . S
O66 U46 2.455 . S
O66 C63 1.301 . S
O67 U46 2.449 . S
O67 C63 1.282 . S
H68 C41 0.931 . S
H69 C43 0.929 . S
H70 C44 0.930 . S
H71 C45 0.931 . S
H72 C52 0.932 . S
H73 C53 0.930 . S
H74 C54 0.929 . S
H75 C56 0.930 . S
H76 C58 0.932 . S
H77 C59 0.929 . S
H78 C60 0.928 . S
H79 C62 0.932 . S
C80 C81 1.264 . S
C80 C85 1.479 . S
C80 C90 1.465 . S
C81 C80 1.264 . S
C81 C83 1.339 . S
C81 H108 0.931 . S
C82 C83 1.395 . S
C82 C84 1.320 . S
C83 C81 1.339 . S
C83 C82 1.395 . S
C83 H109 0.929 . S
C84 C82 1.320 . S
C84 C85 1.405 . S
C84 H110 0.930 . S
C85 C80 1.479 . S
C85 C84 1.405 . S
C85 H111 0.931 . S
U86 O87 2.454 . S
U86 O88 2.458 . S
U86 C89 2.984 . S
U86 C90 2.847 . S
U86 C103 2.882 . S
U86 O104 2.441 . S
U86 O105 2.420 . S
U86 O106 2.455 . S
U86 O107 2.449 . S
O87 U86 2.454 . S
O87 C89 1.353 . S
O88 U86 2.458 . S
O88 C89 1.286 . S
C89 U86 2.984 . S
C89 O87 1.353 . S
C89 O88 1.286 . S
C89 C91 1.363 . S
C90 C80 1.465 . S
C90 U86 2.847 . S
C90 O104 1.249 . S
C90 O105 1.202 . S
C91 C89 1.363 . S
C91 C93 1.408 . S
C91 C96 1.342 . S
C92 C93 1.310 . S
C92 C95 1.461 . S
C92 H112 0.932 . S
C93 C91 1.408 . S
C93 C92 1.310 . S
C93 H113 0.930 . S
C94 C95 1.474 . S
C94 C96 1.285 . S
C94 H114 0.929 . S
C95 C92 1.461 . S
C95 C94 1.474 . S
C96 C91 1.342 . S
C96 C94 1.285 . S
C96 H115 0.930 . S
C97 C100 1.424 . S
C97 C102 1.245 . S
C97 C103 1.428 . S
C98 C101 1.260 . S
C98 C102 1.477 . S
C98 H116 0.932 . S
C99 C100 1.384 . S
C99 C101 1.479 . S
C99 H117 0.929 . S
C100 C97 1.424 . S
C100 C99 1.384 . S
C100 H118 0.928 . S
C101 C98 1.260 . S
C101 C99 1.479 . S
C102 C97 1.245 . S
C102 C98 1.477 . S
C102 H119 0.932 . S
C103 U86 2.882 . S
C103 C97 1.428 . S
C103 O106 1.301 . S
C103 O107 1.282 . S
O104 U86 2.441 . S
O104 C90 1.249 . S
O105 U86 2.420 . S
O105 C90 1.202 . S
O106 U86 2.455 . S
O106 C103 1.301 . S
O107 U86 2.449 . S
O107 C103 1.282 . S
H108 C81 0.931 . S
H109 C83 0.929 . S
H110 C84 0.930 . S
H111 C85 0.931 . S
H112 C92 0.932 . S
H113 C93 0.930 . S
H114 C94 0.929 . S
H115 C96 0.930 . S
H116 C98 0.932 . S
H117 C99 0.929 . S
H118 C100 0.928 . S
H119 C102 0.932 . S
C120 C121 1.264 . S
C120 C125 1.479 . S
C120 C130 1.465 . S
C121 C120 1.264 . S
C121 C123 1.339 . S
C121 H148 0.931 . S
C122 C123 1.395 . S
C122 C124 1.320 . S
C123 C121 1.339 . S
C123 C122 1.395 . S
C123 H149 0.929 . S
C124 C122 1.320 . S
C124 C125 1.405 . S
C124 H150 0.930 . S
C125 C120 1.479 . S
C125 C124 1.405 . S
C125 H151 0.931 . S
U126 O127 2.454 . S
U126 O128 2.458 . S
U126 C129 2.984 . S
U126 C130 2.847 . S
U126 C143 2.882 . S
U126 O144 2.441 . S
U126 O145 2.420 . S
U126 O146 2.455 . S
U126 O147 2.449 . S
O127 U126 2.454 . S
O127 C129 1.353 . S
O128 U126 2.458 . S
O128 C129 1.286 . S
C129 U126 2.984 . S
C129 O127 1.353 . S
C129 O128 1.286 . S
C129 C131 1.363 . S
C130 C120 1.465 . S
C130 U126 2.847 . S
C130 O144 1.249 . S
C130 O145 1.202 . S
C131 C129 1.363 . S
C131 C133 1.408 . S
C131 C136 1.342 . S
C132 C133 1.310 . S
C132 C135 1.461 . S
C132 H152 0.932 . S
C133 C131 1.408 . S
C133 C132 1.310 . S
C133 H153 0.930 . S
C134 C135 1.474 . S
C134 C136 1.285 . S
C134 H154 0.929 . S
C135 C132 1.461 . S
C135 C134 1.474 . S
C136 C131 1.342 . S
C136 C134 1.285 . S
C136 H155 0.930 . S
C137 C140 1.424 . S
C137 C142 1.245 . S
C137 C143 1.428 . S
C138 C141 1.260 . S
C138 C142 1.477 . S
C138 H156 0.932 . S
C139 C140 1.384 . S
C139 C141 1.479 . S
C139 H157 0.929 . S
C140 C137 1.424 . S
C140 C139 1.384 . S
C140 H158 0.928 . S
C141 C138 1.260 . S
C141 C139 1.479 . S
C142 C137 1.245 . S
C142 C138 1.477 . S
C142 H159 0.932 . S
C143 U126 2.882 . S
C143 C137 1.428 . S
C143 O146 1.301 . S
C143 O147 1.282 . S
O144 U126 2.441 . S
O144 C130 1.249 . S
O145 U126 2.420 . S
O145 C130 1.202 . S
O146 U126 2.455 . S
O146 C143 1.301 . S
O147 U126 2.449 . S
O147 C143 1.282 . S
H148 C121 0.931 . S
H149 C123 0.929 . S
H150 C124 0.930 . S
H151 C125 0.931 . S
H152 C132 0.932 . S
H153 C133 0.930 . S
H154 C134 0.929 . S
H155 C136 0.930 . S
H156 C138 0.932 . S
H157 C139 0.929 . S
H158 C140 0.928 . S
H159 C142 0.932 . S
C160 C161 1.264 . S
C160 C165 1.479 . S
C160 C170 1.465 . S
C161 C160 1.264 . S
C161 C163 1.339 . S
C161 H188 0.931 . S
C162 C163 1.395 . S
C162 C164 1.320 . S
C163 C161 1.339 . S
C163 C162 1.395 . S
C163 H189 0.929 . S
C164 C162 1.320 . S
C164 C165 1.405 . S
C164 H190 0.930 . S
C165 C160 1.479 . S
C165 C164 1.405 . S
C165 H191 0.931 . S
U166 O167 2.454 . S
U166 O168 2.458 . S
U166 C169 2.984 . S
U166 C170 2.847 . S
U166 C183 2.882 . S
U166 O184 2.441 . S
U166 O185 2.420 . S
U166 O186 2.455 . S
U166 O187 2.449 . S
O167 U166 2.454 . S
O167 C169 1.353 . S
O168 U166 2.458 . S
O168 C169 1.286 . S
C169 U166 2.984 . S
C169 O167 1.353 . S
C169 O168 1.286 . S
C169 C171 1.363 . S
C170 C160 1.465 . S
C170 U166 2.847 . S
C170 O184 1.249 . S
C170 O185 1.202 . S
C171 C169 1.363 . S
C171 C173 1.408 . S
C171 C176 1.342 . S
C172 C173 1.310 . S
C172 C175 1.461 . S
C172 H192 0.932 . S
C173 C171 1.408 . S
C173 C172 1.310 . S
C173 H193 0.930 . S
C174 C175 1.474 . S
C174 C176 1.285 . S
C174 H194 0.929 . S
C175 C172 1.461 . S
C175 C174 1.474 . S
C176 C171 1.342 . S
C176 C174 1.285 . S
C176 H195 0.930 . S
C177 C180 1.424 . S
C177 C182 1.245 . S
C177 C183 1.428 . S
C178 C181 1.260 . S
C178 C182 1.477 . S
C178 H196 0.932 . S
C179 C180 1.384 . S
C179 C181 1.479 . S
C179 H197 0.929 . S
C180 C177 1.424 . S
C180 C179 1.384 . S
C180 H198 0.928 . S
C181 C178 1.260 . S
C181 C179 1.479 . S
C182 C177 1.245 . S
C182 C178 1.477 . S
C182 H199 0.932 . S
C183 U166 2.882 . S
C183 C177 1.428 . S
C183 O186 1.301 . S
C183 O187 1.282 . S
O184 U166 2.441 . S
O184 C170 1.249 . S
O185 U166 2.420 . S
O185 C170 1.202 . S
O186 U166 2.455 . S
O186 C183 1.301 . S
O187 U166 2.449 . S
O187 C183 1.282 . S
H188 C161 0.931 . S
H189 C163 0.929 . S
H190 C164 0.930 . S
H191 C165 0.931 . S
H192 C172 0.932 . S
H193 C173 0.930 . S
H194 C174 0.929 . S
H195 C176 0.930 . S
H196 C178 0.932 . S
H197 C179 0.929 . S
H198 C180 0.928 . S
H199 C182 0.932 . S
C200 C201 1.264 . S
C200 C205 1.479 . S
C200 C210 1.465 . S
C201 C200 1.264 . S
C201 C203 1.339 . S
C201 H228 0.931 . S
C202 C203 1.395 . S
C202 C204 1.320 . S
C203 C201 1.339 . S
C203 C202 1.395 . S
C203 H229 0.929 . S
C204 C202 1.320 . S
C204 C205 1.405 . S
C204 H230 0.930 . S
C205 C200 1.479 . S
C205 C204 1.405 . S
C205 H231 0.931 . S
U206 O207 2.454 . S
U206 O208 2.458 . S
U206 C209 2.984 . S
U206 C210 2.847 . S
U206 C223 2.882 . S
U206 O224 2.441 . S
U206 O225 2.420 . S
U206 O226 2.455 . S
U206 O227 2.449 . S
O207 U206 2.454 . S
O207 C209 1.353 . S
O208 U206 2.458 . S
O208 C209 1.286 . S
C209 U206 2.984 . S
C209 O207 1.353 . S
C209 O208 1.286 . S
C209 C211 1.363 . S
C210 C200 1.465 . S
C210 U206 2.847 . S
C210 O224 1.249 . S
C210 O225 1.202 . S
C211 C209 1.363 . S
C211 C213 1.408 . S
C211 C216 1.342 . S
C212 C213 1.310 . S
C212 C215 1.461 . S
C212 H232 0.932 . S
C213 C211 1.408 . S
C213 C212 1.310 . S
C213 H233 0.930 . S
C214 C215 1.474 . S
C214 C216 1.285 . S
C214 H234 0.929 . S
C215 C212 1.461 . S
C215 C214 1.474 . S
C216 C211 1.342 . S
C216 C214 1.285 . S
C216 H235 0.930 . S
C217 C220 1.424 . S
C217 C222 1.245 . S
C217 C223 1.428 . S
C218 C221 1.260 . S
C218 C222 1.477 . S
C218 H236 0.932 . S
C219 C220 1.384 . S
C219 C221 1.479 . S
C219 H237 0.929 . S
C220 C217 1.424 . S
C220 C219 1.384 . S
C220 H238 0.928 . S
C221 C218 1.260 . S
C221 C219 1.479 . S
C222 C217 1.245 . S
C222 C218 1.477 . S
C222 H239 0.932 . S
C223 U206 2.882 . S
C223 C217 1.428 . S
C223 O226 1.301 . S
C223 O227 1.282 . S
O224 U206 2.441 . S
O224 C210 1.249 . S
O225 U206 2.420 . S
O225 C210 1.202 . S
O226 U206 2.455 . S
O226 C223 1.301 . S
O227 U206 2.449 . S
O227 C223 1.282 . S
H228 C201 0.931 . S
H229 C203 0.929 . S
H230 C204 0.930 . S
H231 C205 0.931 . S
H232 C212 0.932 . S
H233 C213 0.930 . S
H234 C214 0.929 . S
H235 C216 0.930 . S
H236 C218 0.932 . S
H237 C219 0.929 . S
H238 C220 0.928 . S
H239 C222 0.932 . S
C240 C241 1.264 . S
C240 C245 1.479 . S
C240 C250 1.465 . S
C241 C240 1.264 . S
C241 C243 1.339 . S
C241 H268 0.931 . S
C242 C243 1.395 . S
C242 C244 1.320 . S
C243 C241 1.339 . S
C243 C242 1.395 . S
C243 H269 0.929 . S
C244 C242 1.320 . S
C244 C245 1.405 . S
C244 H270 0.930 . S
C245 C240 1.479 . S
C245 C244 1.405 . S
C245 H271 0.931 . S
U246 O247 2.454 . S
U246 O248 2.458 . S
U246 C249 2.984 . S
U246 C250 2.847 . S
U246 C263 2.882 . S
U246 O264 2.441 . S
U246 O265 2.420 . S
U246 O266 2.455 . S
U246 O267 2.449 . S
O247 U246 2.454 . S
O247 C249 1.353 . S
O248 U246 2.458 . S
O248 C249 1.286 . S
C249 U246 2.984 . S
C249 O247 1.353 . S
C249 O248 1.286 . S
C249 C251 1.363 . S
C250 C240 1.465 . S
C250 U246 2.847 . S
C250 O264 1.249 . S
C250 O265 1.202 . S
C251 C249 1.363 . S
C251 C253 1.408 . S
C251 C256 1.342 . S
C252 C253 1.310 . S
C252 C255 1.461 . S
C252 H272 0.932 . S
C253 C251 1.408 . S
C253 C252 1.310 . S
C253 H273 0.930 . S
C254 C255 1.474 . S
C254 C256 1.285 . S
C254 H274 0.929 . S
C255 C252 1.461 . S
C255 C254 1.474 . S
C256 C251 1.342 . S
C256 C254 1.285 . S
C256 H275 0.930 . S
C257 C260 1.424 . S
C257 C262 1.245 . S
C257 C263 1.428 . S
C258 C261 1.260 . S
C258 C262 1.477 . S
C258 H276 0.932 . S
C259 C260 1.384 . S
C259 C261 1.479 . S
C259 H277 0.929 . S
C260 C257 1.424 . S
C260 C259 1.384 . S
C260 H278 0.928 . S
C261 C258 1.260 . S
C261 C259 1.479 . S
C262 C257 1.245 . S
C262 C258 1.477 . S
C262 H279 0.932 . S
C263 U246 2.882 . S
C263 C257 1.428 . S
C263 O266 1.301 . S
C263 O267 1.282 . S
O264 U246 2.441 . S
O264 C250 1.249 . S
O265 U246 2.420 . S
O265 C250 1.202 . S
O266 U246 2.455 . S
O266 C263 1.301 . S
O267 U246 2.449 . S
O267 C263 1.282 . S
H268 C241 0.931 . S
H269 C243 0.929 . S
H270 C244 0.930 . S
H271 C245 0.931 . S
H272 C252 0.932 . S
H273 C253 0.930 . S
H274 C254 0.929 . S
H275 C256 0.930 . S
H276 C258 0.932 . S
H277 C259 0.929 . S
H278 C260 0.928 . S
H279 C262 0.932 . S
C280 C281 1.264 . S
C280 C285 1.479 . S
C280 C290 1.465 . S
C281 C280 1.264 . S
C281 C283 1.339 . S
C281 H308 0.931 . S
C282 C283 1.395 . S
C282 C284 1.320 . S
C283 C281 1.339 . S
C283 C282 1.395 . S
C283 H309 0.929 . S
C284 C282 1.320 . S
C284 C285 1.405 . S
C284 H310 0.930 . S
C285 C280 1.479 . S
C285 C284 1.405 . S
C285 H311 0.931 . S
U286 O287 2.454 . S
U286 O288 2.458 . S
U286 C289 2.984 . S
U286 C290 2.847 . S
U286 C303 2.882 . S
U286 O304 2.441 . S
U286 O305 2.420 . S
U286 O306 2.455 . S
U286 O307 2.449 . S
O287 U286 2.454 . S
O287 C289 1.353 . S
O288 U286 2.458 . S
O288 C289 1.286 . S
C289 U286 2.984 . S
C289 O287 1.353 . S
C289 O288 1.286 . S
C289 C291 1.363 . S
C290 C280 1.465 . S
C290 U286 2.847 . S
C290 O304 1.249 . S
C290 O305 1.202 . S
C291 C289 1.363 . S
C291 C293 1.408 . S
C291 C296 1.342 . S
C292 C293 1.310 . S
C292 C295 1.461 . S
C292 H312 0.932 . S
C293 C291 1.408 . S
C293 C292 1.310 . S
C293 H313 0.930 . S
C294 C295 1.474 . S
C294 C296 1.285 . S
C294 H314 0.929 . S
C295 C292 1.461 . S
C295 C294 1.474 . S
C296 C291 1.342 . S
C296 C294 1.285 . S
C296 H315 0.930 . S
C297 C300 1.424 . S
C297 C302 1.245 . S
C297 C303 1.428 . S
C298 C301 1.260 . S
C298 C302 1.477 . S
C298 H316 0.932 . S
C299 C300 1.384 . S
C299 C301 1.479 . S
C299 H317 0.929 . S
C300 C297 1.424 . S
C300 C299 1.384 . S
C300 H318 0.928 . S
C301 C298 1.260 . S
C301 C299 1.479 . S
C302 C297 1.245 . S
C302 C298 1.477 . S
C302 H319 0.932 . S
C303 U286 2.882 . S
C303 C297 1.428 . S
C303 O306 1.301 . S
C303 O307 1.282 . S
O304 U286 2.441 . S
O304 C290 1.249 . S
O305 U286 2.420 . S
O305 C290 1.202 . S
O306 U286 2.455 . S
O306 C303 1.301 . S
O307 U286 2.449 . S
O307 C303 1.282 . S
H308 C281 0.931 . S
H309 C283 0.929 . S
H310 C284 0.930 . S
H311 C285 0.931 . S
H312 C292 0.932 . S
H313 C293 0.930 . S
H314 C294 0.929 . S
H315 C296 0.930 . S
H316 C298 0.932 . S
H317 C299 0.929 . S
H318 C300 0.928 . S
H319 C302 0.932 . S
C320 C321 1.264 . S
C320 C325 1.479 . S
C320 C330 1.465 . S
C321 C320 1.264 . S
C321 C323 1.339 . S
C321 H348 0.931 . S
C322 C323 1.395 . S
C322 C324 1.320 . S
C323 C321 1.339 . S
C323 C322 1.395 . S
C323 H349 0.929 . S
C324 C322 1.320 . S
C324 C325 1.405 . S
C324 H350 0.930 . S
C325 C320 1.479 . S
C325 C324 1.405 . S
C325 H351 0.931 . S
U326 O327 2.454 . S
U326 O328 2.458 . S
U326 C329 2.984 . S
U326 C330 2.847 . S
U326 C343 2.882 . S
U326 O344 2.441 . S
U326 O345 2.420 . S
U326 O346 2.455 . S
U326 O347 2.449 . S
O327 U326 2.454 . S
O327 C329 1.353 . S
O328 U326 2.458 . S
O328 C329 1.286 . S
C329 U326 2.984 . S
C329 O327 1.353 . S
C329 O328 1.286 . S
C329 C331 1.363 . S
C330 C320 1.465 . S
C330 U326 2.847 . S
C330 O344 1.249 . S
C330 O345 1.202 . S
C331 C329 1.363 . S
C331 C333 1.408 . S
C331 C336 1.342 . S
C332 C333 1.310 . S
C332 C335 1.461 . S
C332 H352 0.932 . S
C333 C331 1.408 . S
C333 C332 1.310 . S
C333 H353 0.930 . S
C334 C335 1.474 . S
C334 C336 1.285 . S
C334 H354 0.929 . S
C335 C332 1.461 . S
C335 C334 1.474 . S
C336 C331 1.342 . S
C336 C334 1.285 . S
C336 H355 0.930 . S
C337 C340 1.424 . S
C337 C342 1.245 . S
C337 C343 1.428 . S
C338 C341 1.260 . S
C338 C342 1.477 . S
C338 H356 0.932 . S
C339 C340 1.384 . S
C339 C341 1.479 . S
C339 H357 0.929 . S
C340 C337 1.424 . S
C340 C339 1.384 . S
C340 H358 0.928 . S
C341 C338 1.260 . S
C341 C339 1.479 . S
C342 C337 1.245 . S
C342 C338 1.477 . S
C342 H359 0.932 . S
C343 U326 2.882 . S
C343 C337 1.428 . S
C343 O346 1.301 . S
C343 O347 1.282 . S
O344 U326 2.441 . S
O344 C330 1.249 . S
O345 U326 2.420 . S
O345 C330 1.202 . S
O346 U326 2.455 . S
O346 C343 1.301 . S
O347 U326 2.449 . S
O347 C343 1.282 . S
H348 C321 0.931 . S
H349 C323 0.929 . S
H350 C324 0.930 . S
H351 C325 0.931 . S
H352 C332 0.932 . S
H353 C333 0.930 . S
H354 C334 0.929 . S
H355 C336 0.930 . S
H356 C338 0.932 . S
H357 C339 0.929 . S
H358 C340 0.928 . S
H359 C342 0.932 . S
C360 C361 1.264 . S
C360 C365 1.479 . S
C360 C370 1.465 . S
C361 C360 1.264 . S
C361 C363 1.339 . S
C361 H388 0.931 . S
C362 C363 1.395 . S
C362 C364 1.320 . S
C363 C361 1.339 . S
C363 C362 1.395 . S
C363 H389 0.929 . S
C364 C362 1.320 . S
C364 C365 1.405 . S
C364 H390 0.930 . S
C365 C360 1.479 . S
C365 C364 1.405 . S
C365 H391 0.931 . S
U366 O367 2.454 . S
U366 O368 2.458 . S
U366 C369 2.984 . S
U366 C370 2.847 . S
U366 C383 2.882 . S
U366 O384 2.441 . S
U366 O385 2.420 . S
U366 O386 2.455 . S
U366 O387 2.449 . S
O367 U366 2.454 . S
O367 C369 1.353 . S
O368 U366 2.458 . S
O368 C369 1.286 . S
C369 U366 2.984 . S
C369 O367 1.353 . S
C369 O368 1.286 . S
C369 C371 1.363 . S
C370 C360 1.465 . S
C370 U366 2.847 . S
C370 O384 1.249 . S
C370 O385 1.202 . S
C371 C369 1.363 . S
C371 C373 1.408 . S
C371 C376 1.342 . S
C372 C373 1.310 . S
C372 C375 1.461 . S
C372 H392 0.932 . S
C373 C371 1.408 . S
C373 C372 1.310 . S
C373 H393 0.930 . S
C374 C375 1.474 . S
C374 C376 1.285 . S
C374 H394 0.929 . S
C375 C372 1.461 . S
C375 C374 1.474 . S
C376 C371 1.342 . S
C376 C374 1.285 . S
C376 H395 0.930 . S
C377 C380 1.424 . S
C377 C382 1.245 . S
C377 C383 1.428 . S
C378 C381 1.260 . S
C378 C382 1.477 . S
C378 H396 0.932 . S
C379 C380 1.384 . S
C379 C381 1.479 . S
C379 H397 0.929 . S
C380 C377 1.424 . S
C380 C379 1.384 . S
C380 H398 0.928 . S
C381 C378 1.260 . S
C381 C379 1.479 . S
C382 C377 1.245 . S
C382 C378 1.477 . S
C382 H399 0.932 . S
C383 U366 2.882 . S
C383 C377 1.428 . S
C383 O386 1.301 . S
C383 O387 1.282 . S
O384 U366 2.441 . S
O384 C370 1.249 . S
O385 U366 2.420 . S
O385 C370 1.202 . S
O386 U366 2.455 . S
O386 C383 1.301 . S
O387 U366 2.449 . S
O387 C383 1.282 . S
H388 C361 0.931 . S
H389 C363 0.929 . S
H390 C364 0.930 . S
H391 C365 0.931 . S
H392 C372 0.932 . S
H393 C373 0.930 . S
H394 C374 0.929 . S
H395 C376 0.930 . S
H396 C378 0.932 . S
H397 C379 0.929 . S
H398 C380 0.928 . S
H399 C382 0.932 . S
C400 C401 1.264 . S
C400 C405 1.479 . S
C400 C410 1.465 . S
C401 C400 1.264 . S
C401 C403 1.339 . S
C401 H428 0.931 . S
C402 C403 1.395 . S
C402 C404 1.320 . S
C403 C401 1.339 . S
C403 C402 1.395 . S
C403 H429 0.929 . S
C404 C402 1.320 . S
C404 C405 1.405 . S
C404 H430 0.930 . S
C405 C400 1.479 . S
C405 C404 1.405 . S
C405 H431 0.931 . S
U406 O407 2.454 . S
U406 O408 2.458 . S
U406 C409 2.984 . S
U406 C410 2.847 . S
U406 C423 2.882 . S
U406 O424 2.441 . S
U406 O425 2.420 . S
U406 O426 2.455 . S
U406 O427 2.449 . S
O407 U406 2.454 . S
O407 C409 1.353 . S
O408 U406 2.458 . S
O408 C409 1.286 . S
C409 U406 2.984 . S
C409 O407 1.353 . S
C409 O408 1.286 . S
C409 C411 1.363 . S
C410 C400 1.465 . S
C410 U406 2.847 . S
C410 O424 1.249 . S
C410 O425 1.202 . S
C411 C409 1.363 . S
C411 C413 1.408 . S
C411 C416 1.342 . S
C412 C413 1.310 . S
C412 C415 1.461 . S
C412 H432 0.932 . S
C413 C411 1.408 . S
C413 C412 1.310 . S
C413 H433 0.930 . S
C414 C415 1.474 . S
C414 C416 1.285 . S
C414 H434 0.929 . S
C415 C412 1.461 . S
C415 C414 1.474 . S
C416 C411 1.342 . S
C416 C414 1.285 . S
C416 H435 0.930 . S
C417 C420 1.424 . S
C417 C422 1.245 . S
C417 C423 1.428 . S
C418 C421 1.260 . S
C418 C422 1.477 . S
C418 H436 0.932 . S
C419 C420 1.384 . S
C419 C421 1.479 . S
C419 H437 0.929 . S
C420 C417 1.424 . S
C420 C419 1.384 . S
C420 H438 0.928 . S
C421 C418 1.260 . S
C421 C419 1.479 . S
C422 C417 1.245 . S
C422 C418 1.477 . S
C422 H439 0.932 . S
C423 U406 2.882 . S
C423 C417 1.428 . S
C423 O426 1.301 . S
C423 O427 1.282 . S
O424 U406 2.441 . S
O424 C410 1.249 . S
O425 U406 2.420 . S
O425 C410 1.202 . S
O426 U406 2.455 . S
O426 C423 1.301 . S
O427 U406 2.449 . S
O427 C423 1.282 . S
H428 C401 0.931 . S
H429 C403 0.929 . S
H430 C404 0.930 . S
H431 C405 0.931 . S
H432 C412 0.932 . S
H433 C413 0.930 . S
H434 C414 0.929 . S
H435 C416 0.930 . S
H436 C418 0.932 . S
H437 C419 0.929 . S
H438 C420 0.928 . S
H439 C422 0.932 . S
C440 C441 1.264 . S
C440 C445 1.479 . S
C440 C450 1.465 . S
C441 C440 1.264 . S
C441 C443 1.339 . S
C441 H468 0.931 . S
C442 C443 1.395 . S
C442 C444 1.320 . S
C443 C441 1.339 . S
C443 C442 1.395 . S
C443 H469 0.929 . S
C444 C442 1.320 . S
C444 C445 1.405 . S
C444 H470 0.930 . S
C445 C440 1.479 . S
C445 C444 1.405 . S
C445 H471 0.931 . S
U446 O447 2.454 . S
U446 O448 2.458 . S
U446 C449 2.984 . S
U446 C450 2.847 . S
U446 C463 2.882 . S
U446 O464 2.441 . S
U446 O465 2.420 . S
U446 O466 2.455 . S
U446 O467 2.449 . S
O447 U446 2.454 . S
O447 C449 1.353 . S
O448 U446 2.458 . S
O448 C449 1.286 . S
C449 U446 2.984 . S
C449 O447 1.353 . S
C449 O448 1.286 . S
C449 C451 1.363 . S
C450 C440 1.465 . S
C450 U446 2.847 . S
C450 O464 1.249 . S
C450 O465 1.202 . S
C451 C449 1.363 . S
C451 C453 1.408 . S
C451 C456 1.342 . S
C452 C453 1.310 . S
C452 C455 1.461 . S
C452 H472 0.932 . S
C453 C451 1.408 . S
C453 C452 1.310 . S
C453 H473 0.930 . S
C454 C455 1.474 . S
C454 C456 1.285 . S
C454 H474 0.929 . S
C455 C452 1.461 . S
C455 C454 1.474 . S
C456 C451 1.342 . S
C456 C454 1.285 . S
C456 H475 0.930 . S
C457 C460 1.424 . S
C457 C462 1.245 . S
C457 C463 1.428 . S
C458 C461 1.260 . S
C458 C462 1.477 . S
C458 H476 0.932 . S
C459 C460 1.384 . S
C459 C461 1.479 . S
C459 H477 0.929 . S
C460 C457 1.424 . S
C460 C459 1.384 . S
C460 H478 0.928 . S
C461 C458 1.260 . S
C461 C459 1.479 . S
C462 C457 1.245 . S
C462 C458 1.477 . S
C462 H479 0.932 . S
C463 U446 2.882 . S
C463 C457 1.428 . S
C463 O466 1.301 . S
C463 O467 1.282 . S
O464 U446 2.441 . S
O464 C450 1.249 . S
O465 U446 2.420 . S
O465 C450 1.202 . S
O466 U446 2.455 . S
O466 C463 1.301 . S
O467 U446 2.449 . S
O467 C463 1.282 . S
H468 C441 0.931 . S
H469 C443 0.929 . S
H470 C444 0.930 . S
H471 C445 0.931 . S
H472 C452 0.932 . S
H473 C453 0.930 . S
H474 C454 0.929 . S
H475 C456 0.930 . S
H476 C458 0.932 . S
H477 C459 0.929 . S
H478 C460 0.928 . S
H479 C462 0.932 . S
C480 C481 1.264 . S
C480 C485 1.479 . S
C480 C490 1.465 . S
C481 C480 1.264 . S
C481 C483 1.339 . S
C481 H508 0.931 . S
C482 C483 1.395 . S
C482 C484 1.320 . S
C483 C481 1.339 . S
C483 C482 1.395 . S
C483 H509 0.929 . S
C484 C482 1.320 . S
C484 C485 1.405 . S
C484 H510 0.930 . S
C485 C480 1.479 . S
C485 C484 1.405 . S
C485 H511 0.931 . S
U486 O487 2.454 . S
U486 O488 2.458 . S
U486 C489 2.984 . S
U486 C490 2.847 . S
U486 C503 2.882 . S
U486 O504 2.441 . S
U486 O505 2.420 . S
U486 O506 2.455 . S
U486 O507 2.449 . S
O487 U486 2.454 . S
O487 C489 1.353 . S
O488 U486 2.458 . S
O488 C489 1.286 . S
C489 U486 2.984 . S
C489 O487 1.353 . S
C489 O488 1.286 . S
C489 C491 1.363 . S
C490 C480 1.465 . S
C490 U486 2.847 . S
C490 O504 1.249 . S
C490 O505 1.202 . S
C491 C489 1.363 . S
C491 C493 1.408 . S
C491 C496 1.342 . S
C492 C493 1.310 . S
C492 C495 1.461 . S
C492 H512 0.932 . S
C493 C491 1.408 . S
C493 C492 1.310 . S
C493 H513 0.930 . S
C494 C495 1.474 . S
C494 C496 1.285 . S
C494 H514 0.929 . S
C495 C492 1.461 . S
C495 C494 1.474 . S
C496 C491 1.342 . S
C496 C494 1.285 . S
C496 H515 0.930 . S
C497 C500 1.424 . S
C497 C502 1.245 . S
C497 C503 1.428 . S
C498 C501 1.260 . S
C498 C502 1.477 . S
C498 H516 0.932 . S
C499 C500 1.384 . S
C499 C501 1.479 . S
C499 H517 0.929 . S
C500 C497 1.424 . S
C500 C499 1.384 . S
C500 H518 0.928 . S
C501 C498 1.260 . S
C501 C499 1.479 . S
C502 C497 1.245 . S
C502 C498 1.477 . S
C502 H519 0.932 . S
C503 U486 2.882 . S
C503 C497 1.428 . S
C503 O506 1.301 . S
C503 O507 1.282 . S
O504 U486 2.441 . S
O504 C490 1.249 . S
O505 U486 2.420 . S
O505 C490 1.202 . S
O506 U486 2.455 . S
O506 C503 1.301 . S
O507 U486 2.449 . S
O507 C503 1.282 . S
H508 C481 0.931 . S
H509 C483 0.929 . S
H510 C484 0.930 . S
H511 C485 0.931 . S
H512 C492 0.932 . S
H513 C493 0.930 . S
H514 C494 0.929 . S
H515 C496 0.930 . S
H516 C498 0.932 . S
H517 C499 0.929 . S
H518 C500 0.928 . S
H519 C502 0.932 . S
C520 C521 1.264 . S
C520 C525 1.479 . S
C520 C530 1.465 . S
C521 C520 1.264 . S
C521 C523 1.339 . S
C521 H548 0.931 . S
C522 C523 1.395 . S
C522 C524 1.320 . S
C523 C521 1.339 . S
C523 C522 1.395 . S
C523 H549 0.929 . S
C524 C522 1.320 . S
C524 C525 1.405 . S
C524 H550 0.930 . S
C525 C520 1.479 . S
C525 C524 1.405 . S
C525 H551 0.931 . S
U526 O527 2.454 . S
U526 O528 2.458 . S
U526 C529 2.984 . S
U526 C530 2.847 . S
U526 C543 2.882 . S
U526 O544 2.441 . S
U526 O545 2.420 . S
U526 O546 2.455 . S
U526 O547 2.449 . S
O527 U526 2.454 . S
O527 C529 1.353 . S
O528 U526 2.458 . S
O528 C529 1.286 . S
C529 U526 2.984 . S
C529 O527 1.353 . S
C529 O528 1.286 . S
C529 C531 1.363 . S
C530 C520 1.465 . S
C530 U526 2.847 . S
C530 O544 1.249 . S
C530 O545 1.202 . S
C531 C529 1.363 . S
C531 C533 1.408 . S
C531 C536 1.342 . S
C532 C533 1.310 . S
C532 C535 1.461 . S
C532 H552 0.932 . S
C533 C531 1.408 . S
C533 C532 1.310 . S
C533 H553 0.930 . S
C534 C535 1.474 . S
C534 C536 1.285 . S
C534 H554 0.929 . S
C535 C532 1.461 . S
C535 C534 1.474 . S
C536 C531 1.342 . S
C536 C534 1.285 . S
C536 H555 0.930 . S
C537 C540 1.424 . S
C537 C542 1.245 . S
C537 C543 1.428 . S
C538 C541 1.260 . S
C538 C542 1.477 . S
C538 H556 0.932 . S
C539 C540 1.384 . S
C539 C541 1.479 . S
C539 H557 0.929 . S
C540 C537 1.424 . S
C540 C539 1.384 . S
C540 H558 0.928 . S
C541 C538 1.260 . S
C541 C539 1.479 . S
C542 C537 1.245 . S
C542 C538 1.477 . S
C542 H559 0.932 . S
C543 U526 2.882 . S
C543 C537 1.428 . S
C543 O546 1.301 . S
C543 O547 1.282 . S
O544 U526 2.441 . S
O544 C530 1.249 . S
O545 U526 2.420 . S
O545 C530 1.202 . S
O546 U526 2.455 . S
O546 C543 1.301 . S
O547 U526 2.449 . S
O547 C543 1.282 . S
H548 C521 0.931 . S
H549 C523 0.929 . S
H550 C524 0.930 . S
H551 C525 0.931 . S
H552 C532 0.932 . S
H553 C533 0.930 . S
H554 C534 0.929 . S
H555 C536 0.930 . S
H556 C538 0.932 . S
H557 C539 0.929 . S
H558 C540 0.928 . S
H559 C542 0.932 . S
C560 C561 1.264 . S
C560 C565 1.479 . S
C560 C570 1.465 . S
C561 C560 1.264 . S
C561 C563 1.339 . S
C561 H588 0.931 . S
C562 C563 1.395 . S
C562 C564 1.320 . S
C563 C561 1.339 . S
C563 C562 1.395 . S
C563 H589 0.929 . S
C564 C562 1.320 . S
C564 C565 1.405 . S
C564 H590 0.930 . S
C565 C560 1.479 . S
C565 C564 1.405 . S
C565 H591 0.931 . S
U566 O567 2.454 . S
U566 O568 2.458 . S
U566 C569 2.984 . S
U566 C570 2.847 . S
U566 C583 2.882 . S
U566 O584 2.441 . S
U566 O585 2.420 . S
U566 O586 2.455 . S
U566 O587 2.449 . S
O567 U566 2.454 . S
O567 C569 1.353 . S
O568 U566 2.458 . S
O568 C569 1.286 . S
C569 U566 2.984 . S
C569 O567 1.353 . S
C569 O568 1.286 . S
C569 C571 1.363 . S
C570 C560 1.465 . S
C570 U566 2.847 . S
C570 O584 1.249 . S
C570 O585 1.202 . S
C571 C569 1.363 . S
C571 C573 1.408 . S
C571 C576 1.342 . S
C572 C573 1.310 . S
C572 C575 1.461 . S
C572 H592 0.932 . S
C573 C571 1.408 . S
C573 C572 1.310 . S
C573 H593 0.930 . S
C574 C575 1.474 . S
C574 C576 1.285 . S
C574 H594 0.929 . S
C575 C572 1.461 . S
C575 C574 1.474 . S
C576 C571 1.342 . S
C576 C574 1.285 . S
C576 H595 0.930 . S
C577 C580 1.424 . S
C577 C582 1.245 . S
C577 C583 1.428 . S
C578 C581 1.260 . S
C578 C582 1.477 . S
C578 H596 0.932 . S
C579 C580 1.384 . S
C579 C581 1.479 . S
C579 H597 0.929 . S
C580 C577 1.424 . S
C580 C579 1.384 . S
C580 H598 0.928 . S
C581 C578 1.260 . S
C581 C579 1.479 . S
C582 C577 1.245 . S
C582 C578 1.477 . S
C582 H599 0.932 . S
C583 U566 2.882 . S
C583 C577 1.428 . S
C583 O586 1.301 . S
C583 O587 1.282 . S
O584 U566 2.441 . S
O584 C570 1.249 . S
O585 U566 2.420 . S
O585 C570 1.202 . S
O586 U566 2.455 . S
O586 C583 1.301 . S
O587 U566 2.449 . S
O587 C583 1.282 . S
H588 C561 0.931 . S
H589 C563 0.929 . S
H590 C564 0.930 . S
H591 C565 0.931 . S
H592 C572 0.932 . S
H593 C573 0.930 . S
H594 C574 0.929 . S
H595 C576 0.930 . S
H596 C578 0.932 . S
H597 C579 0.929 . S
H598 C580 0.928 . S
H599 C582 0.932 . S
C600 C601 1.264 . S
C600 C605 1.479 . S
C600 C610 1.465 . S
C601 C600 1.264 . S
C601 C603 1.339 . S
C601 H628 0.931 . S
C602 C603 1.395 . S
C602 C604 1.320 . S
C603 C601 1.339 . S
C603 C602 1.395 . S
C603 H629 0.929 . S
C604 C602 1.320 . S
C604 C605 1.405 . S
C604 H630 0.930 . S
C605 C600 1.479 . S
C605 C604 1.405 . S
C605 H631 0.931 . S
U606 O607 2.454 . S
U606 O608 2.458 . S
U606 C609 2.984 . S
U606 C610 2.847 . S
U606 C623 2.882 . S
U606 O624 2.441 . S
U606 O625 2.420 . S
U606 O626 2.455 . S
U606 O627 2.449 . S
O607 U606 2.454 . S
O607 C609 1.353 . S
O608 U606 2.458 . S
O608 C609 1.286 . S
C609 U606 2.984 . S
C609 O607 1.353 . S
C609 O608 1.286 . S
C609 C611 1.363 . S
C610 C600 1.465 . S
C610 U606 2.847 . S
C610 O624 1.249 . S
C610 O625 1.202 . S
C611 C609 1.363 . S
C611 C613 1.408 . S
C611 C616 1.342 . S
C612 C613 1.310 . S
C612 C615 1.461 . S
C612 H632 0.932 . S
C613 C611 1.408 . S
C613 C612 1.310 . S
C613 H633 0.930 . S
C614 C615 1.474 . S
C614 C616 1.285 . S
C614 H634 0.929 . S
C615 C612 1.461 . S
C615 C614 1.474 . S
C616 C611 1.342 . S
C616 C614 1.285 . S
C616 H635 0.930 . S
C617 C620 1.424 . S
C617 C622 1.245 . S
C617 C623 1.428 . S
C618 C621 1.260 . S
C618 C622 1.477 . S
C618 H636 0.932 . S
C619 C620 1.384 . S
C619 C621 1.479 . S
C619 H637 0.929 . S
C620 C617 1.424 . S
C620 C619 1.384 . S
C620 H638 0.928 . S
C621 C618 1.260 . S
C621 C619 1.479 . S
C622 C617 1.245 . S
C622 C618 1.477 . S
C622 H639 0.932 . S
C623 U606 2.882 . S
C623 C617 1.428 . S
C623 O626 1.301 . S
C623 O627 1.282 . S
O624 U606 2.441 . S
O624 C610 1.249 . S
O625 U606 2.420 . S
O625 C610 1.202 . S
O626 U606 2.455 . S
O626 C623 1.301 . S
O627 U606 2.449 . S
O627 C623 1.282 . S
H628 C601 0.931 . S
H629 C603 0.929 . S
H630 C604 0.930 . S
H631 C605 0.931 . S
H632 C612 0.932 . S
H633 C613 0.930 . S
H634 C614 0.929 . S
H635 C616 0.930 . S
H636 C618 0.932 . S
H637 C619 0.929 . S
H638 C620 0.928 . S
H639 C622 0.932 . S
C640 C641 1.264 . S
C640 C645 1.479 . S
C640 C650 1.465 . S
C641 C640 1.264 . S
C641 C643 1.339 . S
C641 H668 0.931 . S
C642 C643 1.395 . S
C642 C644 1.320 . S
C643 C641 1.339 . S
C643 C642 1.395 . S
C643 H669 0.929 . S
C644 C642 1.320 . S
C644 C645 1.405 . S
C644 H670 0.930 . S
C645 C640 1.479 . S
C645 C644 1.405 . S
C645 H671 0.931 . S
U646 O647 2.454 . S
U646 O648 2.458 . S
U646 C649 2.984 . S
U646 C650 2.847 . S
U646 C663 2.882 . S
U646 O664 2.441 . S
U646 O665 2.420 . S
U646 O666 2.455 . S
U646 O667 2.449 . S
O647 U646 2.454 . S
O647 C649 1.353 . S
O648 U646 2.458 . S
O648 C649 1.286 . S
C649 U646 2.984 . S
C649 O647 1.353 . S
C649 O648 1.286 . S
C649 C651 1.363 . S
C650 C640 1.465 . S
C650 U646 2.847 . S
C650 O664 1.249 . S
C650 O665 1.202 . S
C651 C649 1.363 . S
C651 C653 1.408 . S
C651 C656 1.342 . S
C652 C653 1.310 . S
C652 C655 1.461 . S
C652 H672 0.932 . S
C653 C651 1.408 . S
C653 C652 1.310 . S
C653 H673 0.930 . S
C654 C655 1.474 . S
C654 C656 1.285 . S
C654 H674 0.929 . S
C655 C652 1.461 . S
C655 C654 1.474 . S
C656 C651 1.342 . S
C656 C654 1.285 . S
C656 H675 0.930 . S
C657 C660 1.424 . S
C657 C662 1.245 . S
C657 C663 1.428 . S
C658 C661 1.260 . S
C658 C662 1.477 . S
C658 H676 0.932 . S
C659 C660 1.384 . S
C659 C661 1.479 . S
C659 H677 0.929 . S
C660 C657 1.424 . S
C660 C659 1.384 . S
C660 H678 0.928 . S
C661 C658 1.260 . S
C661 C659 1.479 . S
C662 C657 1.245 . S
C662 C658 1.477 . S
C662 H679 0.932 . S
C663 U646 2.882 . S
C663 C657 1.428 . S
C663 O666 1.301 . S
C663 O667 1.282 . S
O664 U646 2.441 . S
O664 C650 1.249 . S
O665 U646 2.420 . S
O665 C650 1.202 . S
O666 U646 2.455 . S
O666 C663 1.301 . S
O667 U646 2.449 . S
O667 C663 1.282 . S
H668 C641 0.931 . S
H669 C643 0.929 . S
H670 C644 0.930 . S
H671 C645 0.931 . S
H672 C652 0.932 . S
H673 C653 0.930 . S
H674 C654 0.929 . S
H675 C656 0.930 . S
H676 C658 0.932 . S
H677 C659 0.929 . S
H678 C660 0.928 . S
H679 C662 0.932 . S
C680 C681 1.264 . S
C680 C685 1.479 . S
C680 C690 1.465 . S
C681 C680 1.264 . S
C681 C683 1.339 . S
C681 H708 0.931 . S
C682 C683 1.395 . S
C682 C684 1.320 . S
C683 C681 1.339 . S
C683 C682 1.395 . S
C683 H709 0.929 . S
C684 C682 1.320 . S
C684 C685 1.405 . S
C684 H710 0.930 . S
C685 C680 1.479 . S
C685 C684 1.405 . S
C685 H711 0.931 . S
U686 O687 2.454 . S
U686 O688 2.458 . S
U686 C689 2.984 . S
U686 C690 2.847 . S
U686 C703 2.882 . S
U686 O704 2.441 . S
U686 O705 2.420 . S
U686 O706 2.455 . S
U686 O707 2.449 . S
O687 U686 2.454 . S
O687 C689 1.353 . S
O688 U686 2.458 . S
O688 C689 1.286 . S
C689 U686 2.984 . S
C689 O687 1.353 . S
C689 O688 1.286 . S
C689 C691 1.363 . S
C690 C680 1.465 . S
C690 U686 2.847 . S
C690 O704 1.249 . S
C690 O705 1.202 . S
C691 C689 1.363 . S
C691 C693 1.408 . S
C691 C696 1.342 . S
C692 C693 1.310 . S
C692 C695 1.461 . S
C692 H712 0.932 . S
C693 C691 1.408 . S
C693 C692 1.310 . S
C693 H713 0.930 . S
C694 C695 1.474 . S
C694 C696 1.285 . S
C694 H714 0.929 . S
C695 C692 1.461 . S
C695 C694 1.474 . S
C696 C691 1.342 . S
C696 C694 1.285 . S
C696 H715 0.930 . S
C697 C700 1.424 . S
C697 C702 1.245 . S
C697 C703 1.428 . S
C698 C701 1.260 . S
C698 C702 1.477 . S
C698 H716 0.932 . S
C699 C700 1.384 . S
C699 C701 1.479 . S
C699 H717 0.929 . S
C700 C697 1.424 . S
C700 C699 1.384 . S
C700 H718 0.928 . S
C701 C698 1.260 . S
C701 C699 1.479 . S
C702 C697 1.245 . S
C702 C698 1.477 . S
C702 H719 0.932 . S
C703 U686 2.882 . S
C703 C697 1.428 . S
C703 O706 1.301 . S
C703 O707 1.282 . S
O704 U686 2.441 . S
O704 C690 1.249 . S
O705 U686 2.420 . S
O705 C690 1.202 . S
O706 U686 2.455 . S
O706 C703 1.301 . S
O707 U686 2.449 . S
O707 C703 1.282 . S
H708 C681 0.931 . S
H709 C683 0.929 . S
H710 C684 0.930 . S
H711 C685 0.931 . S
H712 C692 0.932 . S
H713 C693 0.930 . S
H714 C694 0.929 . S
H715 C696 0.930 . S
H716 C698 0.932 . S
H717 C699 0.929 . S
H718 C700 0.928 . S
H719 C702 0.932 . S
Eu720 N751 2.657 . S
Eu720 N758 2.609 . S
Eu720 O764 2.558 . S
Eu720 O765 2.612 1_566 S
Eu720 O767 2.339 1_565 S
Eu720 O768 2.563 1_565 S
Eu720 O769 2.419 . S
Eu720 O771 2.380 1_556 S
Eu720 O772 2.432 . S
Eu720 C784 2.848 . S
C721 C724 1.429 . S
C721 C725 1.411 . S
C721 N728 1.377 . S
C722 C724 1.420 . S
C722 C726 1.423 . S
C722 C734 1.392 . S
C723 C725 1.420 . S
C723 C726 1.351 . S
C723 H746 0.931 . S
C724 C721 1.429 . S
C724 C722 1.420 . S
C724 N732 1.362 . S
C725 C721 1.411 . S
C725 C723 1.420 . S
C725 C730 1.395 . S
C726 C722 1.423 . S
C726 C723 1.351 . S
C726 H738 0.930 . S
C727 C729 1.400 . S
C727 C730 1.386 . S
C727 H739 0.930 . S
N728 C721 1.377 . S
N728 C729 1.321 . S
N728 Eu731 2.609 . S
C729 C727 1.400 . S
C729 N728 1.321 . S
C729 H736 0.930 . S
C730 C725 1.395 . S
C730 C727 1.386 . S
C730 H749 0.930 . S
Eu731 N728 2.609 . S
Eu731 N732 2.657 . S
Eu731 O765 2.380 . S
Eu731 O766 2.432 . S
Eu731 O770 2.558 . S
Eu731 O771 2.612 1_545 S
Eu731 O773 2.339 1_545 S
Eu731 O774 2.563 1_545 S
Eu731 O775 2.419 . S
Eu731 C795 2.848 . S
N732 C724 1.362 . S
N732 Eu731 2.657 . S
N732 C733 1.334 . S
C733 N732 1.334 . S
C733 C735 1.413 . S
C733 H740 0.929 . S
C734 C722 1.392 . S
C734 C735 1.367 . S
C734 H742 0.930 . S
C735 C733 1.413 . S
C735 C734 1.367 . S
C735 H737 0.930 . S
H736 C729 0.930 . S
H737 C735 0.930 . S
H738 C726 0.930 . S
H739 C727 0.930 . S
H740 C733 0.929 . S
H741 C755 0.930 . S
H742 C734 0.930 . S
H743 C761 0.930 . S
H744 C752 0.929 . S
H745 C759 0.930 . S
H746 C723 0.931 . S
H747 C753 0.930 . S
H748 C786 0.930 . S
H749 C730 0.930 . S
H750 C785 0.931 . S
N751 Eu720 2.657 . S
N751 C752 1.334 . S
N751 C756 1.362 . S
C752 H744 0.929 . S
C752 N751 1.334 . S
C752 C755 1.413 . S
C753 H747 0.930 . S
C753 C754 1.392 . S
C753 C755 1.367 . S
C754 C753 1.392 . S
C754 C756 1.420 . S
C754 C786 1.423 . S
C755 H741 0.930 . S
C755 C752 1.413 . S
C755 C753 1.367 . S
C756 N751 1.362 . S
C756 C754 1.420 . S
C756 C760 1.429 . S
H757 C762 0.930 . S
N758 Eu720 2.609 . S
N758 C760 1.377 . S
N758 C761 1.321 . S
C759 H745 0.930 . S
C759 C761 1.400 . S
C759 C762 1.386 . S
C760 C756 1.429 . S
C760 N758 1.377 . S
C760 C763 1.411 . S
C761 H743 0.930 . S
C761 N758 1.321 . S
C761 C759 1.400 . S
C762 H757 0.930 . S
C762 C759 1.386 . S
C762 C763 1.395 . S
C763 C760 1.411 . S
C763 C762 1.395 . S
C763 C785 1.420 . S
O764 Eu720 2.558 . S
O764 C784 1.257 . S
O765 Eu720 2.612 1_544 S
O765 Eu731 2.380 . S
O765 C776 1.276 1_554 S
O766 Eu731 2.432 . S
O766 C783 1.264 1_554 S
O767 Eu720 2.339 1_545 S
O767 C783 1.254 . S
O768 Eu720 2.563 1_545 S
O768 C776 1.235 . S
O769 Eu720 2.419 . S
O769 C784 1.249 . S
O770 Eu731 2.558 . S
O770 C795 1.257 . S
O771 Eu720 2.380 1_554 S
O771 Eu731 2.612 1_565 S
O771 C787 1.276 . S
O772 Eu720 2.432 . S
O772 C794 1.264 1_556 S
O773 Eu731 2.339 1_565 S
O773 C794 1.254 . S
O774 Eu731 2.563 1_565 S
O774 C787 1.235 . S
O775 Eu731 2.419 . S
O775 C795 1.249 . S
C776 O765 1.276 1_556 S
C776 O768 1.235 . S
C777 C779 1.393 1_565 S
C777 C781 1.395 . S
C777 C784 1.492 . S
C778 C779 1.392 . S
C778 C780 1.386 1_545 S
C779 C777 1.393 1_545 S
C779 C778 1.392 . S
C779 H796 0.930 . S
C780 C778 1.386 1_565 S
C780 C782 1.395 . S
C780 H797 0.931 . S
C781 C777 1.395 . S
C781 C782 1.379 . S
C781 H798 0.930 . S
C782 C780 1.395 . S
C782 C781 1.379 . S
C782 H799 0.930 . S
C783 O766 1.264 1_556 S
C783 O767 1.254 . S
C784 Eu720 2.848 . S
C784 O764 1.257 . S
C784 O769 1.249 . S
C784 C777 1.492 . S
C785 H750 0.931 . S
C785 C763 1.420 . S
C785 C786 1.351 . S
C786 H748 0.930 . S
C786 C754 1.423 . S
C786 C785 1.351 . S
C787 O771 1.276 . S
C787 O774 1.235 . S
C788 C789 1.393 1_545 S
C788 C792 1.395 . S
C788 C795 1.492 . S
C789 C788 1.393 1_565 S
C789 C790 1.392 . S
C789 H800 0.930 . S
C790 C789 1.392 . S
C790 C791 1.386 1_565 S
C791 C790 1.386 1_545 S
C791 C793 1.395 . S
C791 H801 0.930 . S
C792 C788 1.395 . S
C792 C793 1.379 . S
C792 H802 0.930 . S
C793 C791 1.395 . S
C793 C792 1.379 . S
C793 H803 0.930 . S
C794 O772 1.264 1_554 S
C794 O773 1.254 . S
C795 Eu731 2.848 . S
C795 O770 1.257 . S
C795 O775 1.249 . S
C795 C788 1.492 . S
H796 C779 0.930 . S
H797 C780 0.931 . S
H798 C781 0.930 . S
H799 C782 0.930 . S
H800 C789 0.930 . S
H801 C791 0.930 . S
H802 C792 0.930 . S
H803 C793 0.930 . S
Eu804 N835 2.657 . S
Eu804 N842 2.609 . S
Eu804 O848 2.558 . S
Eu804 O849 2.610 1_455 S
Eu804 O851 2.339 1_455 S
Eu804 O852 2.563 1_455 S
Eu804 O853 2.419 . S
Eu804 O855 2.380 1_556 S
Eu804 O856 2.444 . S
Eu804 C868 2.848 . S
C805 C808 1.429 . S
C805 C809 1.411 . S
C805 N812 1.377 . S
C806 C808 1.420 . S
C806 C810 1.423 . S
C806 C818 1.392 . S
C807 C809 1.420 . S
C807 C810 1.351 . S
C807 H830 0.931 . S
C808 C805 1.429 . S
C808 C806 1.420 . S
C808 N816 1.362 . S
C809 C805 1.411 . S
C809 C807 1.420 . S
C809 C814 1.395 . S
C810 C806 1.423 . S
C810 C807 1.351 . S
C810 H822 0.930 . S
C811 C813 1.400 . S
C811 C814 1.386 . S
C811 H823 0.930 . S
N812 C805 1.377 . S
N812 C813 1.321 . S
N812 Eu815 2.609 . S
C813 C811 1.400 . S
C813 N812 1.321 . S
C813 H820 0.930 . S
C814 C809 1.395 . S
C814 C811 1.386 . S
C814 H833 0.930 . S
Eu815 N812 2.609 . S
Eu815 N816 2.657 . S
Eu815 O849 2.384 1_554 S
Eu815 O850 2.432 . S
Eu815 O854 2.558 . S
Eu815 O855 2.612 1_655 S
Eu815 O857 2.339 1_655 S
Eu815 O858 2.563 1_655 S
Eu815 O859 2.419 . S
Eu815 C879 2.848 . S
N816 C808 1.362 . S
N816 Eu815 2.657 . S
N816 C817 1.334 . S
C817 N816 1.334 . S
C817 C819 1.413 . S
C817 H824 0.929 . S
C818 C806 1.392 . S
C818 C819 1.367 . S
C818 H826 0.930 . S
C819 C817 1.413 . S
C819 C818 1.367 . S
C819 H821 0.930 . S
H820 C813 0.930 . S
H821 C819 0.930 . S
H822 C810 0.930 . S
H823 C811 0.930 . S
H824 C817 0.929 . S
H825 C839 0.930 . S
H826 C818 0.930 . S
H827 C845 0.930 . S
H828 C836 0.929 . S
H829 C843 0.930 . S
H830 C807 0.931 . S
H831 C837 0.930 . S
H832 C870 0.930 . S
H833 C814 0.930 . S
H834 C869 0.931 . S
N835 Eu804 2.657 . S
N835 C836 1.334 . S
N835 C840 1.362 . S
C836 H828 0.929 . S
C836 N835 1.334 . S
C836 C839 1.413 . S
C837 H831 0.930 . S
C837 C838 1.392 . S
C837 C839 1.367 . S
C838 C837 1.392 . S
C838 C840 1.420 . S
C838 C870 1.423 . S
C839 H825 0.930 . S
C839 C836 1.413 . S
C839 C837 1.367 . S
C840 N835 1.362 . S
C840 C838 1.420 . S
C840 C844 1.429 . S
H841 C846 0.930 . S
N842 Eu804 2.609 . S
N842 C844 1.377 . S
N842 C845 1.321 . S
C843 H829 0.930 . S
C843 C845 1.400 . S
C843 C846 1.386 . S
C844 C840 1.429 . S
C844 N842 1.377 . S
C844 C847 1.411 . S
C845 H827 0.930 . S
C845 N842 1.321 . S
C845 C843 1.400 . S
C846 H841 0.930 . S
C846 C843 1.386 . S
C846 C847 1.395 . S
C847 C844 1.411 . S
C847 C846 1.395 . S
C847 C869 1.420 . S
O848 Eu804 2.558 . S
O848 C868 1.257 . S
O849 Eu804 2.610 1_655 S
O849 Eu815 2.384 1_556 S
O849 C860 1.273 . S
O850 Eu815 2.432 . S
O850 C867 1.264 1_554 S
O851 Eu804 2.339 1_655 S
O851 C867 1.254 . S
O852 Eu804 2.563 1_655 S
O852 C860 1.235 . S
O853 Eu804 2.419 . S
O853 C868 1.249 . S
O854 Eu815 2.558 . S
O854 C879 1.257 . S
O855 Eu804 2.380 1_554 S
O855 Eu815 2.612 1_455 S
O855 C871 1.276 . S
O856 Eu804 2.444 . S
O856 C878 1.244 1_556 S
O857 Eu815 2.339 1_455 S
O857 C878 1.254 . S
O858 Eu815 2.563 1_455 S
O858 C871 1.235 . S
O859 Eu815 2.419 . S
O859 C879 1.249 . S
C860 O849 1.273 . S
C860 O852 1.235 . S
C861 C863 1.393 1_455 S
C861 C865 1.395 . S
C861 C868 1.492 . S
C862 C863 1.392 . S
C862 C864 1.386 1_655 S
C863 C861 1.393 1_655 S
C863 C862 1.392 . S
C863 H880 0.930 . S
C864 C862 1.386 1_455 S
C864 C866 1.395 . S
C864 H881 0.930 . S
C865 C861 1.395 . S
C865 C866 1.379 . S
C865 H882 0.930 . S
C866 C864 1.395 . S
C866 C865 1.379 . S
C866 H883 0.930 . S
C867 O850 1.264 1_556 S
C867 O851 1.254 . S
C868 Eu804 2.848 . S
C868 O848 1.257 . S
C868 O853 1.249 . S
C868 C861 1.492 . S
C869 H834 0.931 . S
C869 C847 1.420 . S
C869 C870 1.351 . S
C870 H832 0.930 . S
C870 C838 1.423 . S
C870 C869 1.351 . S
C871 O855 1.276 . S
C871 O858 1.235 . S
C872 C873 1.393 1_655 S
C872 C876 1.395 . S
C872 C879 1.492 . S
C873 C872 1.393 1_455 S
C873 C874 1.392 . S
C873 H884 0.930 . S
C874 C873 1.392 . S
C874 C875 1.386 1_455 S
C875 C874 1.386 1_655 S
C875 C877 1.395 . S
C875 H885 0.930 . S
C876 C872 1.395 . S
C876 C877 1.379 . S
C876 H886 0.930 . S
C877 C875 1.395 . S
C877 C876 1.379 . S
C877 H887 0.930 . S
C878 O856 1.244 1_554 S
C878 O857 1.254 . S
C879 Eu815 2.848 . S
C879 O854 1.257 . S
C879 O859 1.249 . S
C879 C872 1.492 . S
H880 C863 0.930 . S
H881 C864 0.930 . S
H882 C865 0.930 . S
H883 C866 0.930 . S
H884 C873 0.930 . S
H885 C875 0.930 . S
H886 C876 0.930 . S
H887 C877 0.930 . S
Eu888 N919 2.657 . S
Eu888 N926 2.609 . S
Eu888 O932 2.558 . S
Eu888 O933 2.612 . S
Eu888 O935 2.339 . S
Eu888 O936 2.563 . S
Eu888 O937 2.419 . S
Eu888 O939 2.347 1_554 S
Eu888 O940 2.432 . S
Eu888 C952 2.848 . S
C889 C892 1.429 . S
C889 C893 1.411 . S
C889 N896 1.377 . S
C890 C892 1.420 . S
C890 C894 1.423 . S
C890 C902 1.392 . S
C891 C893 1.420 . S
C891 C894 1.351 . S
C891 H914 0.931 . S
C892 C889 1.429 . S
C892 C890 1.420 . S
C892 N900 1.362 . S
C893 C889 1.411 . S
C893 C891 1.420 . S
C893 C898 1.395 . S
C894 C890 1.423 . S
C894 C891 1.351 . S
C894 H906 0.930 . S
C895 C897 1.400 . S
C895 C898 1.386 . S
C895 H907 0.930 . S
N896 C889 1.377 . S
N896 C897 1.321 . S
N896 Eu899 2.609 . S
C897 C895 1.400 . S
C897 N896 1.321 . S
C897 H904 0.930 . S
C898 C893 1.395 . S
C898 C895 1.386 . S
C898 H917 0.930 . S
Eu899 N896 2.609 . S
Eu899 N900 2.657 . S
Eu899 O933 2.380 1_556 S
Eu899 O934 2.432 . S
Eu899 O938 2.558 . S
Eu899 O939 2.632 . S
Eu899 O941 2.339 . S
Eu899 O942 2.563 . S
Eu899 O943 2.419 . S
Eu899 C963 2.848 . S
N900 C892 1.362 . S
N900 Eu899 2.657 . S
N900 C901 1.334 . S
C901 N900 1.334 . S
C901 C903 1.413 . S
C901 H908 0.929 . S
C902 C890 1.392 . S
C902 C903 1.367 . S
C902 H910 0.930 . S
C903 C901 1.413 . S
C903 C902 1.367 . S
C903 H905 0.930 . S
H904 C897 0.930 . S
H905 C903 0.930 . S
H906 C894 0.930 . S
H907 C895 0.930 . S
H908 C901 0.929 . S
H909 C923 0.930 . S
H910 C902 0.930 . S
H911 C929 0.930 . S
H912 C920 0.929 . S
H913 C927 0.930 . S
H914 C891 0.931 . S
H915 C921 0.930 . S
H916 C954 0.930 . S
H917 C898 0.930 . S
H918 C953 0.931 . S
N919 Eu888 2.657 . S
N919 C920 1.334 . S
N919 C924 1.362 . S
C920 H912 0.929 . S
C920 N919 1.334 . S
C920 C923 1.413 . S
C921 H915 0.930 . S
C921 C922 1.392 . S
C921 C923 1.367 . S
C922 C921 1.392 . S
C922 C924 1.420 . S
C922 C954 1.423 . S
C923 H909 0.930 . S
C923 C920 1.413 . S
C923 C921 1.367 . S
C924 N919 1.362 . S
C924 C922 1.420 . S
C924 C928 1.429 . S
H925 C930 0.930 . S
N926 Eu888 2.609 . S
N926 C928 1.377 . S
N926 C929 1.321 . S
C927 H913 0.930 . S
C927 C929 1.400 . S
C927 C930 1.386 . S
C928 C924 1.429 . S
C928 N926 1.377 . S
C928 C931 1.411 . S
C929 H911 0.930 . S
C929 N926 1.321 . S
C929 C927 1.400 . S
C930 H925 0.930 . S
C930 C927 1.386 . S
C930 C931 1.395 . S
C931 C928 1.411 . S
C931 C930 1.395 . S
C931 C953 1.420 . S
O932 Eu888 2.558 . S
O932 C952 1.257 . S
O933 Eu888 2.612 . S
O933 Eu899 2.380 1_554 S
O933 C944 1.276 . S
O934 Eu899 2.432 . S
O934 C951 1.264 1_556 S
O935 Eu888 2.339 . S
O935 C951 1.254 . S
O936 Eu888 2.563 . S
O936 C944 1.235 . S
O937 Eu888 2.419 . S
O937 C952 1.249 . S
O938 Eu899 2.558 . S
O938 C963 1.257 . S
O939 Eu888 2.347 1_556 S
O939 Eu899 2.632 . S
O939 C955 1.303 . S
O940 Eu888 2.432 . S
O940 C962 1.264 1_554 S
O941 Eu899 2.339 . S
O941 C962 1.254 . S
O942 Eu899 2.563 . S
O942 C955 1.235 . S
O943 Eu899 2.419 . S
O943 C963 1.249 . S
C944 O933 1.276 . S
C944 O936 1.235 . S
C945 C947 1.393 . S
C945 C949 1.395 . S
C945 C952 1.492 . S
C946 C947 1.392 . S
C946 C948 1.386 . S
C947 C945 1.393 . S
C947 C946 1.392 . S
C947 H964 0.930 . S
C948 C946 1.386 . S
C948 C950 1.395 . S
C948 H965 0.930 . S
C949 C945 1.395 . S
C949 C950 1.379 . S
C949 H966 0.930 . S
C950 C948 1.395 . S
C950 C949 1.379 . S
C950 H967 0.930 . S
C951 O934 1.264 1_554 S
C951 O935 1.254 . S
C952 Eu888 2.848 . S
C952 O932 1.257 . S
C952 O937 1.249 . S
C952 C945 1.492 . S
C953 H918 0.931 . S
C953 C931 1.420 . S
C953 C954 1.351 . S
C954 H916 0.930 . S
C954 C922 1.423 . S
C954 C953 1.351 . S
C955 O939 1.303 . S
C955 O942 1.235 . S
C956 C957 1.393 . S
C956 C960 1.395 . S
C956 C963 1.492 . S
C957 C956 1.393 . S
C957 C958 1.392 . S
C957 H968 0.930 . S
C958 C957 1.392 . S
C958 C959 1.386 . S
C959 C958 1.386 . S
C959 C961 1.395 . S
C959 H969 0.930 . S
C960 C956 1.395 . S
C960 C961 1.379 . S
C960 H970 0.930 . S
C961 C959 1.395 . S
C961 C960 1.379 . S
C961 H971 0.930 . S
C962 O940 1.264 1_556 S
C962 O941 1.254 . S
C963 Eu899 2.848 . S
C963 O938 1.257 . S
C963 O943 1.249 . S
C963 C956 1.492 . S
H964 C947 0.930 . S
H965 C948 0.930 . S
H966 C949 0.930 . S
H967 C950 0.930 . S
H968 C957 0.930 . S
H969 C959 0.930 . S
H970 C960 0.930 . S
H971 C961 0.930 . S
Eu972 N1003 2.657 . S
Eu972 N1010 2.609 . S
Eu972 O1016 2.558 . S
Eu972 O1017 2.612 . S
Eu972 O1019 2.339 . S
Eu972 O1020 2.563 . S
Eu972 O1021 2.419 . S
Eu972 O1023 2.380 . S
Eu972 O1024 2.432 . S
Eu972 C1036 2.848 . S
C973 C976 1.429 . S
C973 C977 1.411 . S
C973 N980 1.377 . S
C974 C976 1.420 . S
C974 C978 1.423 . S
C974 C986 1.392 . S
C975 C977 1.420 . S
C975 C978 1.351 . S
C975 H998 0.931 . S
C976 C973 1.429 . S
C976 C974 1.420 . S
C976 N984 1.362 . S
C977 C973 1.411 . S
C977 C975 1.420 . S
C977 C982 1.395 . S
C978 C974 1.423 . S
C978 C975 1.351 . S
C978 H990 0.930 . S
C979 C981 1.400 . S
C979 C982 1.386 . S
C979 H991 0.930 . S
N980 C973 1.377 . S
N980 C981 1.321 . S
N980 Eu983 2.609 . S
C981 C979 1.400 . S
C981 N980 1.321 . S
C981 H988 0.930 . S
C982 C977 1.395 . S
C982 C979 1.386 . S
C982 H1001 0.930 . S
Eu983 N980 2.609 . S
Eu983 N984 2.657 . S
Eu983 O1017 2.380 . S
Eu983 O1018 2.432 . S
Eu983 O1022 2.558 . S
Eu983 O1023 2.612 . S
Eu983 O1025 2.339 . S
Eu983 O1026 2.563 . S
Eu983 O1027 2.419 . S
Eu983 C1047 2.848 . S
N984 C976 1.362 . S
N984 Eu983 2.657 . S
N984 C985 1.334 . S
C985 N984 1.334 . S
C985 C987 1.413 . S
C985 H992 0.929 . S
C986 C974 1.392 . S
C986 C987 1.367 . S
C986 H994 0.930 . S
C987 C985 1.413 . S
C987 C986 1.367 . S
C987 H989 0.930 . S
H988 C981 0.930 . S
H989 C987 0.930 . S
H990 C978 0.930 . S
H991 C979 0.930 . S
H992 C985 0.929 . S
H993 C1007 0.930 . S
H994 C986 0.930 . S
H995 C1013 0.930 . S
H996 C1004 0.929 . S
H997 C1011 0.930 . S
H998 C975 0.931 . S
H999 C1005 0.930 . S
H1000 C1038 0.930 . S
H1001 C982 0.930 . S
H1002 C1037 0.931 . S
N1003 Eu972 2.657 . S
N1003 C1004 1.334 . S
N1003 C1008 1.362 . S
C1004 H996 0.929 . S
C1004 N1003 1.334 . S
C1004 C1007 1.413 . S
C1005 H999 0.930 . S
C1005 C1006 1.392 . S
C1005 C1007 1.367 . S
C1006 C1005 1.392 . S
C1006 C1008 1.420 . S
C1006 C1038 1.423 . S
C1007 H993 0.930 . S
C1007 C1004 1.413 . S
C1007 C1005 1.367 . S
C1008 N1003 1.362 . S
C1008 C1006 1.420 . S
C1008 C1012 1.429 . S
H1009 C1014 0.930 . S
N1010 Eu972 2.609 . S
N1010 C1012 1.377 . S
N1010 C1013 1.321 . S
C1011 H997 0.930 . S
C1011 C1013 1.400 . S
C1011 C1014 1.386 . S
C1012 C1008 1.429 . S
C1012 N1010 1.377 . S
C1012 C1015 1.411 . S
C1013 H995 0.930 . S
C1013 N1010 1.321 . S
C1013 C1011 1.400 . S
C1014 H1009 0.930 . S
C1014 C1011 1.386 . S
C1014 C1015 1.395 . S
C1015 C1012 1.411 . S
C1015 C1014 1.395 . S
C1015 C1037 1.420 . S
O1016 Eu972 2.558 . S
O1016 C1036 1.257 . S
O1017 Eu972 2.612 . S
O1017 Eu983 2.380 . S
O1017 C1028 1.276 . S
O1018 Eu983 2.432 . S
O1018 C1035 1.264 . S
O1019 Eu972 2.339 . S
O1019 C1035 1.254 . S
O1020 Eu972 2.563 . S
O1020 C1028 1.235 . S
O1021 Eu972 2.419 . S
O1021 C1036 1.249 . S
O1022 Eu983 2.558 . S
O1022 C1047 1.257 . S
O1023 Eu972 2.380 . S
O1023 Eu983 2.612 . S
O1023 C1039 1.276 . S
O1024 Eu972 2.432 . S
O1024 C1046 1.264 . S
O1025 Eu983 2.339 . S
O1025 C1046 1.254 . S
O1026 Eu983 2.563 . S
O1026 C1039 1.235 . S
O1027 Eu983 2.419 . S
O1027 C1047 1.249 . S
C1028 O1017 1.276 . S
C1028 O1020 1.235 . S
C1029 C1031 1.393 . S
C1029 C1033 1.395 . S
C1029 C1036 1.492 . S
C1030 C1031 1.392 . S
C1030 C1032 1.386 . S
C1031 C1029 1.393 . S
C1031 C1030 1.392 . S
C1031 H1048 0.930 . S
C1032 C1030 1.386 . S
C1032 C1034 1.395 . S
C1032 H1049 0.930 . S
C1033 C1029 1.395 . S
C1033 C1034 1.379 . S
C1033 H1050 0.930 . S
C1034 C1032 1.395 . S
C1034 C1033 1.379 . S
C1034 H1051 0.930 . S
C1035 O1018 1.264 . S
C1035 O1019 1.254 . S
C1036 Eu972 2.848 . S
C1036 O1016 1.257 . S
C1036 O1021 1.249 . S
C1036 C1029 1.492 . S
C1037 H1002 0.931 . S
C1037 C1015 1.420 . S
C1037 C1038 1.351 . S
C1038 H1000 0.930 . S
C1038 C1006 1.423 . S
C1038 C1037 1.351 . S
C1039 O1023 1.276 . S
C1039 O1026 1.235 . S
C1040 C1041 1.393 . S
C1040 C1044 1.395 . S
C1040 C1047 1.492 . S
C1041 C1040 1.393 . S
C1041 C1042 1.392 . S
C1041 H1052 0.930 . S
C1042 C1041 1.392 . S
C1042 C1043 1.386 . S
C1043 C1042 1.386 . S
C1043 C1045 1.395 . S
C1043 H1053 0.930 . S
C1044 C1040 1.395 . S
C1044 C1045 1.379 . S
C1044 H1054 0.930 . S
C1045 C1043 1.395 . S
C1045 C1044 1.379 . S
C1045 H1055 0.930 . S
C1046 O1024 1.264 . S
C1046 O1025 1.254 . S
C1047 Eu983 2.848 . S
C1047 O1022 1.257 . S
C1047 O1027 1.249 . S
C1047 C1040 1.492 . S
H1048 C1031 0.930 . S
H1049 C1032 0.930 . S
H1050 C1033 0.930 . S
H1051 C1034 0.930 . S
H1052 C1041 0.930 . S
H1053 C1043 0.930 . S
H1054 C1044 0.930 . S
H1055 C1045 0.930 . S
Eu1056 N1087 2.657 . S
Eu1056 N1094 2.609 . S
Eu1056 O1100 2.558 . S
Eu1056 O1101 2.612 . S
Eu1056 O1103 2.339 . S
Eu1056 O1104 2.563 . S
Eu1056 O1105 2.419 . S
Eu1056 O1107 2.380 . S
Eu1056 O1108 2.432 . S
Eu1056 C1120 2.848 . S
C1057 C1060 1.429 . S
C1057 C1061 1.411 . S
C1057 N1064 1.377 . S
C1058 C1060 1.420 . S
C1058 C1062 1.423 . S
C1058 C1070 1.392 . S
C1059 C1061 1.420 . S
C1059 C1062 1.351 . S
C1059 H1082 0.931 . S
C1060 C1057 1.429 . S
C1060 C1058 1.420 . S
C1060 N1068 1.362 . S
C1061 C1057 1.411 . S
C1061 C1059 1.420 . S
C1061 C1066 1.395 . S
C1062 C1058 1.423 . S
C1062 C1059 1.351 . S
C1062 H1074 0.930 . S
C1063 C1065 1.400 . S
C1063 C1066 1.386 . S
C1063 H1075 0.930 . S
N1064 C1057 1.377 . S
N1064 C1065 1.321 . S
N1064 Eu1067 2.609 . S
C1065 C1063 1.400 . S
C1065 N1064 1.321 . S
C1065 H1072 0.930 . S
C1066 C1061 1.395 . S
C1066 C1063 1.386 . S
C1066 H1085 0.930 . S
Eu1067 N1064 2.609 . S
Eu1067 N1068 2.657 . S
Eu1067 O1101 2.380 . S
Eu1067 O1102 2.432 . S
Eu1067 O1106 2.558 . S
Eu1067 O1107 2.612 . S
Eu1067 O1109 2.339 . S
Eu1067 O1110 2.563 . S
Eu1067 O1111 2.419 . S
Eu1067 C1131 2.848 . S
N1068 C1060 1.362 . S
N1068 Eu1067 2.657 . S
N1068 C1069 1.334 . S
C1069 N1068 1.334 . S
C1069 C1071 1.413 . S
C1069 H1076 0.929 . S
C1070 C1058 1.392 . S
C1070 C1071 1.367 . S
C1070 H1078 0.930 . S
C1071 C1069 1.413 . S
C1071 C1070 1.367 . S
C1071 H1073 0.930 . S
H1072 C1065 0.930 . S
H1073 C1071 0.930 . S
H1074 C1062 0.930 . S
H1075 C1063 0.930 . S
H1076 C1069 0.929 . S
H1077 C1091 0.930 . S
H1078 C1070 0.930 . S
H1079 C1097 0.930 . S
H1080 C1088 0.929 . S
H1081 C1095 0.930 . S
H1082 C1059 0.931 . S
H1083 C1089 0.930 . S
H1084 C1122 0.930 . S
H1085 C1066 0.930 . S
H1086 C1121 0.931 . S
N1087 Eu1056 2.657 . S
N1087 C1088 1.334 . S
N1087 C1092 1.362 . S
C1088 H1080 0.929 . S
C1088 N1087 1.334 . S
C1088 C1091 1.413 . S
C1089 H1083 0.930 . S
C1089 C1090 1.392 . S
C1089 C1091 1.367 . S
C1090 C1089 1.392 . S
C1090 C1092 1.420 . S
C1090 C1122 1.423 . S
C1091 H1077 0.930 . S
C1091 C1088 1.413 . S
C1091 C1089 1.367 . S
C1092 N1087 1.362 . S
C1092 C1090 1.420 . S
C1092 C1096 1.429 . S
H1093 C1098 0.930 . S
N1094 Eu1056 2.609 . S
N1094 C1096 1.377 . S
N1094 C1097 1.321 . S
C1095 H1081 0.930 . S
C1095 C1097 1.400 . S
C1095 C1098 1.386 . S
C1096 C1092 1.429 . S
C1096 N1094 1.377 . S
C1096 C1099 1.411 . S
C1097 H1079 0.930 . S
C1097 N1094 1.321 . S
C1097 C1095 1.400 . S
C1098 H1093 0.930 . S
C1098 C1095 1.386 . S
C1098 C1099 1.395 . S
C1099 C1096 1.411 . S
C1099 C1098 1.395 . S
C1099 C1121 1.420 . S
O1100 Eu1056 2.558 . S
O1100 C1120 1.257 . S
O1101 Eu1056 2.612 . S
O1101 Eu1067 2.380 . S
O1101 C1112 1.276 . S
O1102 Eu1067 2.432 . S
O1102 C1119 1.264 . S
O1103 Eu1056 2.339 . S
O1103 C1119 1.254 . S
O1104 Eu1056 2.563 . S
O1104 C1112 1.235 . S
O1105 Eu1056 2.419 . S
O1105 C1120 1.249 . S
O1106 Eu1067 2.558 . S
O1106 C1131 1.257 . S
O1107 Eu1056 2.380 . S
O1107 Eu1067 2.612 . S
O1107 C1123 1.276 . S
O1108 Eu1056 2.432 . S
O1108 C1130 1.264 . S
O1109 Eu1067 2.339 . S
O1109 C1130 1.254 . S
O1110 Eu1067 2.563 . S
O1110 C1123 1.235 . S
O1111 Eu1067 2.419 . S
O1111 C1131 1.249 . S
C1112 O1101 1.276 . S
C1112 O1104 1.235 . S
C1113 C1115 1.393 . S
C1113 C1117 1.395 . S
C1113 C1120 1.492 . S
C1114 C1115 1.392 . S
C1114 C1116 1.386 . S
C1115 C1113 1.393 . S
C1115 C1114 1.392 . S
C1115 H1132 0.930 . S
C1116 C1114 1.386 . S
C1116 C1118 1.395 . S
C1116 H1133 0.930 . S
C1117 C1113 1.395 . S
C1117 C1118 1.379 . S
C1117 H1134 0.930 . S
C1118 C1116 1.395 . S
C1118 C1117 1.379 . S
C1118 H1135 0.930 . S
C1119 O1102 1.264 . S
C1119 O1103 1.254 . S
C1120 Eu1056 2.848 . S
C1120 O1100 1.257 . S
C1120 O1105 1.249 . S
C1120 C1113 1.492 . S
C1121 H1086 0.931 . S
C1121 C1099 1.420 . S
C1121 C1122 1.351 . S
C1122 H1084 0.930 . S
C1122 C1090 1.423 . S
C1122 C1121 1.351 . S
C1123 O1107 1.276 . S
C1123 O1110 1.235 . S
C1124 C1125 1.393 . S
C1124 C1128 1.395 . S
C1124 C1131 1.492 . S
C1125 C1124 1.393 . S
C1125 C1126 1.392 . S
C1125 H1136 0.930 . S
C1126 C1125 1.392 . S
C1126 C1127 1.386 . S
C1127 C1126 1.386 . S
C1127 C1129 1.395 . S
C1127 H1137 0.930 . S
C1128 C1124 1.395 . S
C1128 C1129 1.379 . S
C1128 H1138 0.930 . S
C1129 C1127 1.395 . S
C1129 C1128 1.379 . S
C1129 H1139 0.930 . S
C1130 O1108 1.264 . S
C1130 O1109 1.254 . S
C1131 Eu1067 2.848 . S
C1131 O1106 1.257 . S
C1131 O1111 1.249 . S
C1131 C1124 1.492 . S
H1132 C1115 0.930 . S
H1133 C1116 0.930 . S
H1134 C1117 0.930 . S
H1135 C1118 0.930 . S
H1136 C1125 0.930 . S
H1137 C1127 0.930 . S
H1138 C1128 0.930 . S
H1139 C1129 0.930 . S
Eu1140 N1171 2.657 . S
Eu1140 N1178 2.609 . S
Eu1140 O1184 2.558 . S
Eu1140 O1185 2.612 . S
Eu1140 O1187 2.339 . S
Eu1140 O1188 2.563 . S
Eu1140 O1189 2.419 . S
Eu1140 O1191 2.380 . S
Eu1140 O1192 2.432 . S
Eu1140 C1204 2.848 . S
C1141 C1144 1.429 . S
C1141 C1145 1.411 . S
C1141 N1148 1.377 . S
C1142 C1144 1.420 . S
C1142 C1146 1.423 . S
C1142 C1154 1.392 . S
C1143 C1145 1.420 . S
C1143 C1146 1.351 . S
C1143 H1166 0.931 . S
C1144 C1141 1.429 . S
C1144 C1142 1.420 . S
C1144 N1152 1.362 . S
C1145 C1141 1.411 . S
C1145 C1143 1.420 . S
C1145 C1150 1.395 . S
C1146 C1142 1.423 . S
C1146 C1143 1.351 . S
C1146 H1158 0.930 . S
C1147 C1149 1.400 . S
C1147 C1150 1.386 . S
C1147 H1159 0.930 . S
N1148 C1141 1.377 . S
N1148 C1149 1.321 . S
N1148 Eu1151 2.609 . S
C1149 C1147 1.400 . S
C1149 N1148 1.321 . S
C1149 H1156 0.930 . S
C1150 C1145 1.395 . S
C1150 C1147 1.386 . S
C1150 H1169 0.930 . S
Eu1151 N1148 2.609 . S
Eu1151 N1152 2.657 . S
Eu1151 O1185 2.380 . S
Eu1151 O1186 2.432 . S
Eu1151 O1190 2.558 . S
Eu1151 O1191 2.612 . S
Eu1151 O1193 2.339 . S
Eu1151 O1194 2.563 . S
Eu1151 O1195 2.419 . S
Eu1151 C1215 2.848 . S
N1152 C1144 1.362 . S
N1152 Eu1151 2.657 . S
N1152 C1153 1.334 . S
C1153 N1152 1.334 . S
C1153 C1155 1.413 . S
C1153 H1160 0.929 . S
C1154 C1142 1.392 . S
C1154 C1155 1.367 . S
C1154 H1162 0.930 . S
C1155 C1153 1.413 . S
C1155 C1154 1.367 . S
C1155 H1157 0.930 . S
H1156 C1149 0.930 . S
H1157 C1155 0.930 . S
H1158 C1146 0.930 . S
H1159 C1147 0.930 . S
H1160 C1153 0.929 . S
H1161 C1175 0.930 . S
H1162 C1154 0.930 . S
H1163 C1181 0.930 . S
H1164 C1172 0.929 . S
H1165 C1179 0.930 . S
H1166 C1143 0.931 . S
H1167 C1173 0.930 . S
H1168 C1206 0.930 . S
H1169 C1150 0.930 . S
H1170 C1205 0.931 . S
N1171 Eu1140 2.657 . S
N1171 C1172 1.334 . S
N1171 C1176 1.362 . S
C1172 H1164 0.929 . S
C1172 N1171 1.334 . S
C1172 C1175 1.413 . S
C1173 H1167 0.930 . S
C1173 C1174 1.392 . S
C1173 C1175 1.367 . S
C1174 C1173 1.392 . S
C1174 C1176 1.420 . S
C1174 C1206 1.423 . S
C1175 H1161 0.930 . S
C1175 C1172 1.413 . S
C1175 C1173 1.367 . S
C1176 N1171 1.362 . S
C1176 C1174 1.420 . S
C1176 C1180 1.429 . S
H1177 C1182 0.930 . S
N1178 Eu1140 2.609 . S
N1178 C1180 1.377 . S
N1178 C1181 1.321 . S
C1179 H1165 0.930 . S
C1179 C1181 1.400 . S
C1179 C1182 1.386 . S
C1180 C1176 1.429 . S
C1180 N1178 1.377 . S
C1180 C1183 1.411 . S
C1181 H1163 0.930 . S
C1181 N1178 1.321 . S
C1181 C1179 1.400 . S
C1182 H1177 0.930 . S
C1182 C1179 1.386 . S
C1182 C1183 1.395 . S
C1183 C1180 1.411 . S
C1183 C1182 1.395 . S
C1183 C1205 1.420 . S
O1184 Eu1140 2.558 . S
O1184 C1204 1.257 . S
O1185 Eu1140 2.612 . S
O1185 Eu1151 2.380 . S
O1185 C1196 1.276 . S
O1186 Eu1151 2.432 . S
O1186 C1203 1.264 . S
O1187 Eu1140 2.339 . S
O1187 C1203 1.254 . S
O1188 Eu1140 2.563 . S
O1188 C1196 1.235 . S
O1189 Eu1140 2.419 . S
O1189 C1204 1.249 . S
O1190 Eu1151 2.558 . S
O1190 C1215 1.257 . S
O1191 Eu1140 2.380 . S
O1191 Eu1151 2.612 . S
O1191 C1207 1.276 . S
O1192 Eu1140 2.432 . S
O1192 C1214 1.264 . S
O1193 Eu1151 2.339 . S
O1193 C1214 1.254 . S
O1194 Eu1151 2.563 . S
O1194 C1207 1.235 . S
O1195 Eu1151 2.419 . S
O1195 C1215 1.249 . S
C1196 O1185 1.276 . S
C1196 O1188 1.235 . S
C1197 C1199 1.393 . S
C1197 C1201 1.395 . S
C1197 C1204 1.492 . S
C1198 C1199 1.392 . S
C1198 C1200 1.386 . S
C1199 C1197 1.393 . S
C1199 C1198 1.392 . S
C1199 H1216 0.930 . S
C1200 C1198 1.386 . S
C1200 C1202 1.395 . S
C1200 H1217 0.930 . S
C1201 C1197 1.395 . S
C1201 C1202 1.379 . S
C1201 H1218 0.930 . S
C1202 C1200 1.395 . S
C1202 C1201 1.379 . S
C1202 H1219 0.930 . S
C1203 O1186 1.264 . S
C1203 O1187 1.254 . S
C1204 Eu1140 2.848 . S
C1204 O1184 1.257 . S
C1204 O1189 1.249 . S
C1204 C1197 1.492 . S
C1205 H1170 0.931 . S
C1205 C1183 1.420 . S
C1205 C1206 1.351 . S
C1206 H1168 0.930 . S
C1206 C1174 1.423 . S
C1206 C1205 1.351 . S
C1207 O1191 1.276 . S
C1207 O1194 1.235 . S
C1208 C1209 1.393 . S
C1208 C1212 1.395 . S
C1208 C1215 1.492 . S
C1209 C1208 1.393 . S
C1209 C1210 1.392 . S
C1209 H1220 0.930 . S
C1210 C1209 1.392 . S
C1210 C1211 1.386 . S
C1211 C1210 1.386 . S
C1211 C1213 1.395 . S
C1211 H1221 0.930 . S
C1212 C1208 1.395 . S
C1212 C1213 1.379 . S
C1212 H1222 0.930 . S
C1213 C1211 1.395 . S
C1213 C1212 1.379 . S
C1213 H1223 0.930 . S
C1214 O1192 1.264 . S
C1214 O1193 1.254 . S
C1215 Eu1151 2.848 . S
C1215 O1190 1.257 . S
C1215 O1195 1.249 . S
C1215 C1208 1.492 . S
H1216 C1199 0.930 . S
H1217 C1200 0.930 . S
H1218 C1201 0.930 . S
H1219 C1202 0.930 . S
H1220 C1209 0.930 . S
H1221 C1211 0.930 . S
H1222 C1212 0.930 . S
H1223 C1213 0.930 . S
Eu1224 N1255 2.657 . S
Eu1224 N1262 2.609 . S
Eu1224 O1268 2.558 . S
Eu1224 O1269 2.612 . S
Eu1224 O1271 2.339 . S
Eu1224 O1272 2.563 . S
Eu1224 O1273 2.419 . S
Eu1224 O1275 2.380 . S
Eu1224 O1276 2.432 . S
Eu1224 C1288 2.848 . S
C1225 C1228 1.429 . S
C1225 C1229 1.411 . S
C1225 N1232 1.377 . S
C1226 C1228 1.420 . S
C1226 C1230 1.423 . S
C1226 C1238 1.392 . S
C1227 C1229 1.420 . S
C1227 C1230 1.351 . S
C1227 H1250 0.931 . S
C1228 C1225 1.429 . S
C1228 C1226 1.420 . S
C1228 N1236 1.362 . S
C1229 C1225 1.411 . S
C1229 C1227 1.420 . S
C1229 C1234 1.395 . S
C1230 C1226 1.423 . S
C1230 C1227 1.351 . S
C1230 H1242 0.930 . S
C1231 C1233 1.400 . S
C1231 C1234 1.386 . S
C1231 H1243 0.930 . S
N1232 C1225 1.377 . S
N1232 C1233 1.321 . S
N1232 Eu1235 2.609 . S
C1233 C1231 1.400 . S
C1233 N1232 1.321 . S
C1233 H1240 0.930 . S
C1234 C1229 1.395 . S
C1234 C1231 1.386 . S
C1234 H1253 0.930 . S
Eu1235 N1232 2.609 . S
Eu1235 N1236 2.657 . S
Eu1235 O1269 2.380 . S
Eu1235 O1270 2.432 . S
Eu1235 O1274 2.558 . S
Eu1235 O1275 2.612 . S
Eu1235 O1277 2.339 . S
Eu1235 O1278 2.563 . S
Eu1235 O1279 2.419 . S
Eu1235 C1299 2.848 . S
N1236 C1228 1.362 . S
N1236 Eu1235 2.657 . S
N1236 C1237 1.334 . S
C1237 N1236 1.334 . S
C1237 C1239 1.413 . S
C1237 H1244 0.929 . S
C1238 C1226 1.392 . S
C1238 C1239 1.367 . S
C1238 H1246 0.930 . S
C1239 C1237 1.413 . S
C1239 C1238 1.367 . S
C1239 H1241 0.930 . S
H1240 C1233 0.930 . S
H1241 C1239 0.930 . S
H1242 C1230 0.930 . S
H1243 C1231 0.930 . S
H1244 C1237 0.929 . S
H1245 C1259 0.930 . S
H1246 C1238 0.930 . S
H1247 C1265 0.930 . S
H1248 C1256 0.929 . S
H1249 C1263 0.930 . S
H1250 C1227 0.931 . S
H1251 C1257 0.930 . S
H1252 C1290 0.930 . S
H1253 C1234 0.930 . S
H1254 C1289 0.931 . S
N1255 Eu1224 2.657 . S
N1255 C1256 1.334 . S
N1255 C1260 1.362 . S
C1256 H1248 0.929 . S
C1256 N1255 1.334 . S
C1256 C1259 1.413 . S
C1257 H1251 0.930 . S
C1257 C1258 1.392 . S
C1257 C1259 1.367 . S
C1258 C1257 1.392 . S
C1258 C1260 1.420 . S
C1258 C1290 1.423 . S
C1259 H1245 0.930 . S
C1259 C1256 1.413 . S
C1259 C1257 1.367 . S
C1260 N1255 1.362 . S
C1260 C1258 1.420 . S
C1260 C1264 1.429 . S
H1261 C1266 0.930 . S
N1262 Eu1224 2.609 . S
N1262 C1264 1.377 . S
N1262 C1265 1.321 . S
C1263 H1249 0.930 . S
C1263 C1265 1.400 . S
C1263 C1266 1.386 . S
C1264 C1260 1.429 . S
C1264 N1262 1.377 . S
C1264 C1267 1.411 . S
C1265 H1247 0.930 . S
C1265 N1262 1.321 . S
C1265 C1263 1.400 . S
C1266 H1261 0.930 . S
C1266 C1263 1.386 . S
C1266 C1267 1.395 . S
C1267 C1264 1.411 . S
C1267 C1266 1.395 . S
C1267 C1289 1.420 . S
O1268 Eu1224 2.558 . S
O1268 C1288 1.257 . S
O1269 Eu1224 2.612 . S
O1269 Eu1235 2.380 . S
O1269 C1280 1.276 . S
O1270 Eu1235 2.432 . S
O1270 C1287 1.264 . S
O1271 Eu1224 2.339 . S
O1271 C1287 1.254 . S
O1272 Eu1224 2.563 . S
O1272 C1280 1.235 . S
O1273 Eu1224 2.419 . S
O1273 C1288 1.249 . S
O1274 Eu1235 2.558 . S
O1274 C1299 1.257 . S
O1275 Eu1224 2.380 . S
O1275 Eu1235 2.612 . S
O1275 C1291 1.276 . S
O1276 Eu1224 2.432 . S
O1276 C1298 1.264 . S
O1277 Eu1235 2.339 . S
O1277 C1298 1.254 . S
O1278 Eu1235 2.563 . S
O1278 C1291 1.235 . S
O1279 Eu1235 2.419 . S
O1279 C1299 1.249 . S
C1280 O1269 1.276 . S
C1280 O1272 1.235 . S
C1281 C1283 1.393 . S
C1281 C1285 1.395 . S
C1281 C1288 1.492 . S
C1282 C1283 1.392 . S
C1282 C1284 1.386 . S
C1283 C1281 1.393 . S
C1283 C1282 1.392 . S
C1283 H1300 0.930 . S
C1284 C1282 1.386 . S
C1284 C1286 1.395 . S
C1284 H1301 0.930 . S
C1285 C1281 1.395 . S
C1285 C1286 1.379 . S
C1285 H1302 0.930 . S
C1286 C1284 1.395 . S
C1286 C1285 1.379 . S
C1286 H1303 0.930 . S
C1287 O1270 1.264 . S
C1287 O1271 1.254 . S
C1288 Eu1224 2.848 . S
C1288 O1268 1.257 . S
C1288 O1273 1.249 . S
C1288 C1281 1.492 . S
C1289 H1254 0.931 . S
C1289 C1267 1.420 . S
C1289 C1290 1.351 . S
C1290 H1252 0.930 . S
C1290 C1258 1.423 . S
C1290 C1289 1.351 . S
C1291 O1275 1.276 . S
C1291 O1278 1.235 . S
C1292 C1293 1.393 . S
C1292 C1296 1.395 . S
C1292 C1299 1.492 . S
C1293 C1292 1.393 . S
C1293 C1294 1.392 . S
C1293 H1304 0.930 . S
C1294 C1293 1.392 . S
C1294 C1295 1.386 . S
C1295 C1294 1.386 . S
C1295 C1297 1.395 . S
C1295 H1305 0.930 . S
C1296 C1292 1.395 . S
C1296 C1297 1.379 . S
C1296 H1306 0.930 . S
C1297 C1295 1.395 . S
C1297 C1296 1.379 . S
C1297 H1307 0.930 . S
C1298 O1276 1.264 . S
C1298 O1277 1.254 . S
C1299 Eu1235 2.848 . S
C1299 O1274 1.257 . S
C1299 O1279 1.249 . S
C1299 C1292 1.492 . S
H1300 C1283 0.930 . S
H1301 C1284 0.930 . S
H1302 C1285 0.930 . S
H1303 C1286 0.930 . S
H1304 C1293 0.930 . S
H1305 C1295 0.930 . S
H1306 C1296 0.930 . S
H1307 C1297 0.930 . S
Eu1308 N1339 2.657 . S
Eu1308 N1346 2.609 . S
Eu1308 O1352 2.558 . S
Eu1308 O1353 2.612 . S
Eu1308 O1355 2.339 . S
Eu1308 O1356 2.563 . S
Eu1308 O1357 2.419 . S
Eu1308 O1359 2.380 . S
Eu1308 O1360 2.432 . S
Eu1308 C1372 2.848 . S
C1309 C1312 1.429 . S
C1309 C1313 1.411 . S
C1309 N1316 1.377 . S
C1310 C1312 1.420 . S
C1310 C1314 1.423 . S
C1310 C1322 1.392 . S
C1311 C1313 1.420 . S
C1311 C1314 1.351 . S
C1311 H1334 0.931 . S
C1312 C1309 1.429 . S
C1312 C1310 1.420 . S
C1312 N1320 1.362 . S
C1313 C1309 1.411 . S
C1313 C1311 1.420 . S
C1313 C1318 1.395 . S
C1314 C1310 1.423 . S
C1314 C1311 1.351 . S
C1314 H1326 0.930 . S
C1315 C1317 1.400 . S
C1315 C1318 1.386 . S
C1315 H1327 0.930 . S
N1316 C1309 1.377 . S
N1316 C1317 1.321 . S
N1316 Eu1319 2.609 . S
C1317 C1315 1.400 . S
C1317 N1316 1.321 . S
C1317 H1324 0.930 . S
C1318 C1313 1.395 . S
C1318 C1315 1.386 . S
C1318 H1337 0.930 . S
Eu1319 N1316 2.609 . S
Eu1319 N1320 2.657 . S
Eu1319 O1353 2.380 . S
Eu1319 O1354 2.432 . S
Eu1319 O1358 2.558 . S
Eu1319 O1359 2.612 . S
Eu1319 O1361 2.339 . S
Eu1319 O1362 2.563 . S
Eu1319 O1363 2.419 . S
Eu1319 C1383 2.848 . S
N1320 C1312 1.362 . S
N1320 Eu1319 2.657 . S
N1320 C1321 1.334 . S
C1321 N1320 1.334 . S
C1321 C1323 1.413 . S
C1321 H1328 0.929 . S
C1322 C1310 1.392 . S
C1322 C1323 1.367 . S
C1322 H1330 0.930 . S
C1323 C1321 1.413 . S
C1323 C1322 1.367 . S
C1323 H1325 0.930 . S
H1324 C1317 0.930 . S
H1325 C1323 0.930 . S
H1326 C1314 0.930 . S
H1327 C1315 0.930 . S
H1328 C1321 0.929 . S
H1329 C1343 0.930 . S
H1330 C1322 0.930 . S
H1331 C1349 0.930 . S
H1332 C1340 0.929 . S
H1333 C1347 0.930 . S
H1334 C1311 0.931 . S
H1335 C1341 0.930 . S
H1336 C1374 0.930 . S
H1337 C1318 0.930 . S
H1338 C1373 0.931 . S
N1339 Eu1308 2.657 . S
N1339 C1340 1.334 . S
N1339 C1344 1.362 . S
C1340 H1332 0.929 . S
C1340 N1339 1.334 . S
C1340 C1343 1.413 . S
C1341 H1335 0.930 . S
C1341 C1342 1.392 . S
C1341 C1343 1.367 . S
C1342 C1341 1.392 . S
C1342 C1344 1.420 . S
C1342 C1374 1.423 . S
C1343 H1329 0.930 . S
C1343 C1340 1.413 . S
C1343 C1341 1.367 . S
C1344 N1339 1.362 . S
C1344 C1342 1.420 . S
C1344 C1348 1.429 . S
H1345 C1350 0.930 . S
N1346 Eu1308 2.609 . S
N1346 C1348 1.377 . S
N1346 C1349 1.321 . S
C1347 H1333 0.930 . S
C1347 C1349 1.400 . S
C1347 C1350 1.386 . S
C1348 C1344 1.429 . S
C1348 N1346 1.377 . S
C1348 C1351 1.411 . S
C1349 H1331 0.930 . S
C1349 N1346 1.321 . S
C1349 C1347 1.400 . S
C1350 H1345 0.930 . S
C1350 C1347 1.386 . S
C1350 C1351 1.395 . S
C1351 C1348 1.411 . S
C1351 C1350 1.395 . S
C1351 C1373 1.420 . S
O1352 Eu1308 2.558 . S
O1352 C1372 1.257 . S
O1353 Eu1308 2.612 . S
O1353 Eu1319 2.380 . S
O1353 C1364 1.276 . S
O1354 Eu1319 2.432 . S
O1354 C1371 1.264 . S
O1355 Eu1308 2.339 . S
O1355 C1371 1.254 . S
O1356 Eu1308 2.563 . S
O1356 C1364 1.235 . S
O1357 Eu1308 2.419 . S
O1357 C1372 1.249 . S
O1358 Eu1319 2.558 . S
O1358 C1383 1.257 . S
O1359 Eu1308 2.380 . S
O1359 Eu1319 2.612 . S
O1359 C1375 1.276 . S
O1360 Eu1308 2.432 . S
O1360 C1382 1.264 . S
O1361 Eu1319 2.339 . S
O1361 C1382 1.254 . S
O1362 Eu1319 2.563 . S
O1362 C1375 1.235 . S
O1363 Eu1319 2.419 . S
O1363 C1383 1.249 . S
C1364 O1353 1.276 . S
C1364 O1356 1.235 . S
C1365 C1367 1.393 . S
C1365 C1369 1.395 . S
C1365 C1372 1.492 . S
C1366 C1367 1.392 . S
C1366 C1368 1.386 . S
C1367 C1365 1.393 . S
C1367 C1366 1.392 . S
C1367 H1384 0.930 . S
C1368 C1366 1.386 . S
C1368 C1370 1.395 . S
C1368 H1385 0.930 . S
C1369 C1365 1.395 . S
C1369 C1370 1.379 . S
C1369 H1386 0.930 . S
C1370 C1368 1.395 . S
C1370 C1369 1.379 . S
C1370 H1387 0.930 . S
C1371 O1354 1.264 . S
C1371 O1355 1.254 . S
C1372 Eu1308 2.848 . S
C1372 O1352 1.257 . S
C1372 O1357 1.249 . S
C1372 C1365 1.492 . S
C1373 H1338 0.931 . S
C1373 C1351 1.420 . S
C1373 C1374 1.351 . S
C1374 H1336 0.930 . S
C1374 C1342 1.423 . S
C1374 C1373 1.351 . S
C1375 O1359 1.276 . S
C1375 O1362 1.235 . S
C1376 C1377 1.393 . S
C1376 C1380 1.395 . S
C1376 C1383 1.492 . S
C1377 C1376 1.393 . S
C1377 C1378 1.392 . S
C1377 H1388 0.930 . S
C1378 C1377 1.392 . S
C1378 C1379 1.386 . S
C1379 C1378 1.386 . S
C1379 C1381 1.395 . S
C1379 H1389 0.930 . S
C1380 C1376 1.395 . S
C1380 C1381 1.379 . S
C1380 H1390 0.930 . S
C1381 C1379 1.395 . S
C1381 C1380 1.379 . S
C1381 H1391 0.930 . S
C1382 O1360 1.264 . S
C1382 O1361 1.254 . S
C1383 Eu1319 2.848 . S
C1383 O1358 1.257 . S
C1383 O1363 1.249 . S
C1383 C1376 1.492 . S
H1384 C1367 0.930 . S
H1385 C1368 0.930 . S
H1386 C1369 0.930 . S
H1387 C1370 0.930 . S
H1388 C1377 0.930 . S
H1389 C1379 0.930 . S
H1390 C1380 0.930 . S
H1391 C1381 0.930 . S
Eu1392 N1423 2.657 . S
Eu1392 N1430 2.609 . S
Eu1392 O1436 2.558 . S
Eu1392 O1437 2.612 . S
Eu1392 O1439 2.339 . S
Eu1392 O1440 2.563 . S
Eu1392 O1441 2.419 . S
Eu1392 O1443 2.380 . S
Eu1392 O1444 2.432 . S
Eu1392 C1456 2.848 . S
C1393 C1396 1.429 . S
C1393 C1397 1.411 . S
C1393 N1400 1.377 . S
C1394 C1396 1.420 . S
C1394 C1398 1.423 . S
C1394 C1406 1.392 . S
C1395 C1397 1.420 . S
C1395 C1398 1.351 . S
C1395 H1418 0.931 . S
C1396 C1393 1.429 . S
C1396 C1394 1.420 . S
C1396 N1404 1.362 . S
C1397 C1393 1.411 . S
C1397 C1395 1.420 . S
C1397 C1402 1.395 . S
C1398 C1394 1.423 . S
C1398 C1395 1.351 . S
C1398 H1410 0.930 . S
C1399 C1401 1.400 . S
C1399 C1402 1.386 . S
C1399 H1411 0.930 . S
N1400 C1393 1.377 . S
N1400 C1401 1.321 . S
N1400 Eu1403 2.609 . S
C1401 C1399 1.400 . S
C1401 N1400 1.321 . S
C1401 H1408 0.930 . S
C1402 C1397 1.395 . S
C1402 C1399 1.386 . S
C1402 H1421 0.930 . S
Eu1403 N1400 2.609 . S
Eu1403 N1404 2.657 . S
Eu1403 O1437 2.380 . S
Eu1403 O1438 2.432 . S
Eu1403 O1442 2.558 . S
Eu1403 O1443 2.612 . S
Eu1403 O1445 2.339 . S
Eu1403 O1446 2.563 . S
Eu1403 O1447 2.419 . S
Eu1403 C1467 2.848 . S
N1404 C1396 1.362 . S
N1404 Eu1403 2.657 . S
N1404 C1405 1.334 . S
C1405 N1404 1.334 . S
C1405 C1407 1.413 . S
C1405 H1412 0.929 . S
C1406 C1394 1.392 . S
C1406 C1407 1.367 . S
C1406 H1414 0.930 . S
C1407 C1405 1.413 . S
C1407 C1406 1.367 . S
C1407 H1409 0.930 . S
H1408 C1401 0.930 . S
H1409 C1407 0.930 . S
H1410 C1398 0.930 . S
H1411 C1399 0.930 . S
H1412 C1405 0.929 . S
H1413 C1427 0.930 . S
H1414 C1406 0.930 . S
H1415 C1433 0.930 . S
H1416 C1424 0.929 . S
H1417 C1431 0.930 . S
H1418 C1395 0.931 . S
H1419 C1425 0.930 . S
H1420 C1458 0.930 . S
H1421 C1402 0.930 . S
H1422 C1457 0.931 . S
N1423 Eu1392 2.657 . S
N1423 C1424 1.334 . S
N1423 C1428 1.362 . S
C1424 H1416 0.929 . S
C1424 N1423 1.334 . S
C1424 C1427 1.413 . S
C1425 H1419 0.930 . S
C1425 C1426 1.392 . S
C1425 C1427 1.367 . S
C1426 C1425 1.392 . S
C1426 C1428 1.420 . S
C1426 C1458 1.423 . S
C1427 H1413 0.930 . S
C1427 C1424 1.413 . S
C1427 C1425 1.367 . S
C1428 N1423 1.362 . S
C1428 C1426 1.420 . S
C1428 C1432 1.429 . S
H1429 C1434 0.930 . S
N1430 Eu1392 2.609 . S
N1430 C1432 1.377 . S
N1430 C1433 1.321 . S
C1431 H1417 0.930 . S
C1431 C1433 1.400 . S
C1431 C1434 1.386 . S
C1432 C1428 1.429 . S
C1432 N1430 1.377 . S
C1432 C1435 1.411 . S
C1433 H1415 0.930 . S
C1433 N1430 1.321 . S
C1433 C1431 1.400 . S
C1434 H1429 0.930 . S
C1434 C1431 1.386 . S
C1434 C1435 1.395 . S
C1435 C1432 1.411 . S
C1435 C1434 1.395 . S
C1435 C1457 1.420 . S
O1436 Eu1392 2.558 . S
O1436 C1456 1.257 . S
O1437 Eu1392 2.612 . S
O1437 Eu1403 2.380 . S
O1437 C1448 1.276 . S
O1438 Eu1403 2.432 . S
O1438 C1455 1.264 . S
O1439 Eu1392 2.339 . S
O1439 C1455 1.254 . S
O1440 Eu1392 2.563 . S
O1440 C1448 1.235 . S
O1441 Eu1392 2.419 . S
O1441 C1456 1.249 . S
O1442 Eu1403 2.558 . S
O1442 C1467 1.257 . S
O1443 Eu1392 2.380 . S
O1443 Eu1403 2.612 . S
O1443 C1459 1.276 . S
O1444 Eu1392 2.432 . S
O1444 C1466 1.264 . S
O1445 Eu1403 2.339 . S
O1445 C1466 1.254 . S
O1446 Eu1403 2.563 . S
O1446 C1459 1.235 . S
O1447 Eu1403 2.419 . S
O1447 C1467 1.249 . S
C1448 O1437 1.276 . S
C1448 O1440 1.235 . S
C1449 C1451 1.393 . S
C1449 C1453 1.395 . S
C1449 C1456 1.492 . S
C1450 C1451 1.392 . S
C1450 C1452 1.386 . S
C1451 C1449 1.393 . S
C1451 C1450 1.392 . S
C1451 H1468 0.930 . S
C1452 C1450 1.386 . S
C1452 C1454 1.395 . S
C1452 H1469 0.930 . S
C1453 C1449 1.395 . S
C1453 C1454 1.379 . S
C1453 H1470 0.930 . S
C1454 C1452 1.395 . S
C1454 C1453 1.379 . S
C1454 H1471 0.930 . S
C1455 O1438 1.264 . S
C1455 O1439 1.254 . S
C1456 Eu1392 2.848 . S
C1456 O1436 1.257 . S
C1456 O1441 1.249 . S
C1456 C1449 1.492 . S
C1457 H1422 0.931 . S
C1457 C1435 1.420 . S
C1457 C1458 1.351 . S
C1458 H1420 0.930 . S
C1458 C1426 1.423 . S
C1458 C1457 1.351 . S
C1459 O1443 1.276 . S
C1459 O1446 1.235 . S
C1460 C1461 1.393 . S
C1460 C1464 1.395 . S
C1460 C1467 1.492 . S
C1461 C1460 1.393 . S
C1461 C1462 1.392 . S
C1461 H1472 0.930 . S
C1462 C1461 1.392 . S
C1462 C1463 1.386 . S
C1463 C1462 1.386 . S
C1463 C1465 1.395 . S
C1463 H1473 0.930 . S
C1464 C1460 1.395 . S
C1464 C1465 1.379 . S
C1464 H1474 0.930 . S
C1465 C1463 1.395 . S
C1465 C1464 1.379 . S
C1465 H1475 0.930 . S
C1466 O1444 1.264 . S
C1466 O1445 1.254 . S
C1467 Eu1403 2.848 . S
C1467 O1442 1.257 . S
C1467 O1447 1.249 . S
C1467 C1460 1.492 . S
H1468 C1451 0.930 . S
H1469 C1452 0.930 . S
H1470 C1453 0.930 . S
H1471 C1454 0.930 . S
H1472 C1461 0.930 . S
H1473 C1463 0.930 . S
H1474 C1464 0.930 . S
H1475 C1465 0.930 . S
H1476 C1484 0.950 . S
H1477 C1489 0.950 . S
H1478 C1486 0.950 . S
H1479 C1488 0.950 . S
H1480 C1490 0.950 . S
H1481 C1492 0.950 . S
H1482 C1494 0.950 . S
H1483 C1495 0.950 . S
C1484 H1476 0.950 . S
C1484 C1485 1.386 . S
C1484 C1486 1.391 . S
C1485 C1484 1.386 . S
C1485 C1489 1.393 . S
C1486 H1478 0.950 . S
C1486 C1484 1.391 . S
C1486 C1487 1.400 . S
C1487 C1486 1.400 . S
C1487 C1488 1.398 . S
C1487 C1493 1.491 . S
C1488 H1479 0.950 . S
C1488 C1487 1.398 . S
C1488 C1489 1.391 . S
C1489 H1477 0.950 . S
C1489 C1485 1.393 . S
C1489 C1488 1.391 . S
C1490 H1480 0.950 . S
C1490 C1491 1.386 . S
C1490 C1492 1.391 . S
C1491 C1490 1.386 . S
C1491 C1495 1.393 . S
C1492 H1481 0.950 . S
C1492 C1490 1.391 . S
C1492 C1493 1.400 . S
C1493 C1487 1.491 . S
C1493 C1492 1.400 . S
C1493 C1494 1.398 . S
C1494 H1482 0.950 . S
C1494 C1493 1.398 . S
C1494 C1495 1.391 . S
C1495 H1483 0.950 . S
C1495 C1491 1.393 . S
C1495 C1494 1.391 . S
H1496 C1504 0.950 . S
H1497 C1509 0.950 . S
H1498 C1506 0.950 . S
H1499 C1508 0.950 . S
H1500 C1510 0.950 . S
H1501 C1512 0.950 . S
H1502 C1514 0.950 . S
H1503 C1515 0.950 . S
C1504 H1496 0.950 . S
C1504 C1505 1.386 . S
C1504 C1506 1.391 . S
C1505 C1504 1.386 . S
C1505 C1509 1.393 . S
C1506 H1498 0.950 . S
C1506 C1504 1.391 . S
C1506 C1507 1.400 . S
C1507 C1506 1.400 . S
C1507 C1508 1.398 . S
C1507 C1513 1.491 . S
C1508 H1499 0.950 . S
C1508 C1507 1.398 . S
C1508 C1509 1.391 . S
C1509 H1497 0.950 . S
C1509 C1505 1.393 . S
C1509 C1508 1.391 . S
C1510 H1500 0.950 . S
C1510 C1511 1.386 . S
C1510 C1512 1.391 . S
C1511 C1510 1.386 . S
C1511 C1515 1.393 . S
C1512 H1501 0.950 . S
C1512 C1510 1.391 . S
C1512 C1513 1.400 . S
C1513 C1507 1.491 . S
C1513 C1512 1.400 . S
C1513 C1514 1.398 . S
C1514 H1502 0.950 . S
C1514 C1513 1.398 . S
C1514 C1515 1.391 . S
C1515 H1503 0.950 . S
C1515 C1511 1.393 . S
C1515 C1514 1.391 . S
H1516 C1524 0.950 . S
H1517 C1529 0.950 . S
H1518 C1526 0.950 . S
H1519 C1528 0.950 . S
H1520 C1530 0.950 . S
H1521 C1532 0.950 . S
H1522 C1534 0.950 . S
H1523 C1535 0.950 . S
C1524 H1516 0.950 . S
C1524 C1525 1.386 . S
C1524 C1526 1.391 . S
C1525 C1524 1.386 . S
C1525 C1529 1.393 . S
C1526 H1518 0.950 . S
C1526 C1524 1.391 . S
C1526 C1527 1.400 . S
C1527 C1526 1.400 . S
C1527 C1528 1.398 . S
C1527 C1533 1.491 . S
C1528 H1519 0.950 . S
C1528 C1527 1.398 . S
C1528 C1529 1.391 . S
C1529 H1517 0.950 . S
C1529 C1525 1.393 . S
C1529 C1528 1.391 . S
C1530 H1520 0.950 . S
C1530 C1531 1.386 . S
C1530 C1532 1.391 . S
C1531 C1530 1.386 . S
C1531 C1535 1.393 . S
C1532 H1521 0.950 . S
C1532 C1530 1.391 . S
C1532 C1533 1.400 . S
C1533 C1527 1.491 . S
C1533 C1532 1.400 . S
C1533 C1534 1.398 . S
C1534 H1522 0.950 . S
C1534 C1533 1.398 . S
C1534 C1535 1.391 . S
C1535 H1523 0.950 . S
C1535 C1531 1.393 . S
C1535 C1534 1.391 . S
H1536 C1544 0.950 . S
H1537 C1549 0.950 . S
H1538 C1546 0.950 . S
H1539 C1548 0.950 . S
H1540 C1550 0.950 . S
H1541 C1552 0.950 . S
H1542 C1554 0.950 . S
H1543 C1555 0.950 . S
C1544 H1536 0.950 . S
C1544 C1545 1.386 . S
C1544 C1546 1.391 . S
C1545 C1544 1.386 . S
C1545 C1549 1.393 . S
C1546 H1538 0.950 . S
C1546 C1544 1.391 . S
C1546 C1547 1.400 . S
C1547 C1546 1.400 . S
C1547 C1548 1.398 . S
C1547 C1553 1.491 . S
C1548 H1539 0.950 . S
C1548 C1547 1.398 . S
C1548 C1549 1.391 . S
C1549 H1537 0.950 . S
C1549 C1545 1.393 . S
C1549 C1548 1.391 . S
C1550 H1540 0.950 . S
C1550 C1551 1.386 . S
C1550 C1552 1.391 . S
C1551 C1550 1.386 . S
C1551 C1555 1.393 . S
C1552 H1541 0.950 . S
C1552 C1550 1.391 . S
C1552 C1553 1.400 . S
C1553 C1547 1.491 . S
C1553 C1552 1.400 . S
C1553 C1554 1.398 . S
C1554 H1542 0.950 . S
C1554 C1553 1.398 . S
C1554 C1555 1.391 . S
C1555 H1543 0.950 . S
C1555 C1551 1.393 . S
C1555 C1554 1.391 . S
H1556 C1564 0.950 . S
H1557 C1569 0.950 . S
H1558 C1566 0.950 . S
H1559 C1568 0.950 . S
H1560 C1570 0.950 . S
H1561 C1572 0.950 . S
H1562 C1574 0.950 . S
H1563 C1575 0.950 1_554 S
C1564 H1556 0.950 . S
C1564 C1565 1.386 . S
C1564 C1566 1.391 . S
C1565 C1564 1.386 . S
C1565 C1569 1.393 . S
C1566 H1558 0.950 . S
C1566 C1564 1.391 . S
C1566 C1567 1.400 . S
C1567 C1566 1.400 . S
C1567 C1568 1.398 . S
C1567 C1573 1.491 . S
C1568 H1559 0.950 . S
C1568 C1567 1.398 . S
C1568 C1569 1.391 . S
C1569 H1557 0.950 . S
C1569 C1565 1.393 . S
C1569 C1568 1.391 . S
C1570 H1560 0.950 . S
C1570 C1571 1.386 . S
C1570 C1572 1.391 . S
C1571 C1570 1.386 . S
C1571 C1575 1.393 . S
C1572 H1561 0.950 . S
C1572 C1570 1.391 . S
C1572 C1573 1.400 . S
C1573 C1567 1.491 . S
C1573 C1572 1.400 . S
C1573 C1574 1.398 . S
C1574 H1562 0.950 . S
C1574 C1573 1.398 . S
C1574 C1575 1.391 . S
C1575 H1563 0.950 1_556 S
C1575 C1571 1.393 . S
C1575 C1574 1.391 . S
H1576 C1584 0.950 . S
H1577 C1589 0.950 . S
H1578 C1586 0.950 . S
H1579 C1588 0.950 . S
H1580 C1590 0.950 . S
H1581 C1592 0.950 . S
H1582 C1594 0.950 . S
H1583 C1595 0.970 . S
C1584 H1576 0.950 . S
C1584 C1585 1.386 . S
C1584 C1586 1.391 . S
C1585 C1584 1.386 . S
C1585 C1589 1.393 . S
C1586 H1578 0.950 . S
C1586 C1584 1.391 . S
C1586 C1587 1.400 . S
C1587 C1586 1.400 . S
C1587 C1588 1.398 . S
C1587 C1593 1.491 . S
C1588 H1579 0.950 . S
C1588 C1587 1.398 . S
C1588 C1589 1.391 . S
C1589 H1577 0.950 . S
C1589 C1585 1.393 . S
C1589 C1588 1.391 . S
C1590 H1580 0.950 . S
C1590 C1591 1.386 . S
C1590 C1592 1.391 . S
C1591 C1590 1.386 . S
C1591 C1595 1.393 . S
C1592 H1581 0.950 . S
C1592 C1590 1.391 . S
C1592 C1593 1.400 . S
C1593 C1587 1.491 . S
C1593 C1592 1.400 . S
C1593 C1594 1.398 . S
C1594 H1582 0.950 . S
C1594 C1593 1.398 . S
C1594 C1595 1.391 . S
C1595 H1583 0.970 . S
C1595 C1591 1.393 . S
C1595 C1594 1.391 . S
H1596 C1604 0.950 . S
H1597 C1609 0.950 . S
H1598 C1606 0.950 . S
H1599 C1608 0.950 . S
H1600 C1610 0.950 1_554 S
H1601 C1612 0.950 . S
H1602 C1614 0.950 . S
H1603 C1615 0.950 . S
C1604 H1596 0.950 . S
C1604 C1605 1.386 . S
C1604 C1606 1.391 . S
C1605 C1604 1.386 . S
C1605 C1609 1.393 . S
C1606 H1598 0.950 . S
C1606 C1604 1.391 . S
C1606 C1607 1.400 . S
C1607 C1606 1.400 . S
C1607 C1608 1.398 . S
C1607 C1613 1.491 . S
C1608 H1599 0.950 . S
C1608 C1607 1.398 . S
C1608 C1609 1.391 . S
C1609 H1597 0.950 . S
C1609 C1605 1.393 . S
C1609 C1608 1.391 . S
C1610 H1600 0.950 1_556 S
C1610 C1611 1.386 . S
C1610 C1612 1.391 . S
C1611 C1610 1.386 . S
C1611 C1615 1.393 . S
C1612 H1601 0.950 . S
C1612 C1610 1.391 . S
C1612 C1613 1.400 . S
C1613 C1607 1.491 . S
C1613 C1612 1.400 . S
C1613 C1614 1.398 . S
C1614 H1602 0.950 . S
C1614 C1613 1.398 . S
C1614 C1615 1.391 . S
C1615 H1603 0.950 . S
C1615 C1611 1.393 . S
C1615 C1614 1.391 . S
H1616 C1624 0.950 . S
H1617 C1629 0.950 . S
H1618 C1626 0.950 . S
H1619 C1628 0.950 . S
H1620 C1630 0.950 . S
H1621 C1632 0.950 . S
H1622 C1634 0.950 . S
H1623 C1635 0.950 1_554 S
C1624 H1616 0.950 . S
C1624 C1625 1.386 . S
C1624 C1626 1.391 . S
C1625 C1624 1.386 . S
C1625 C1629 1.393 . S
C1626 H1618 0.950 . S
C1626 C1624 1.391 . S
C1626 C1627 1.400 . S
C1627 C1626 1.400 . S
C1627 C1628 1.398 . S
C1627 C1633 1.491 . S
C1628 H1619 0.950 . S
C1628 C1627 1.398 . S
C1628 C1629 1.391 . S
C1629 H1617 0.950 . S
C1629 C1625 1.393 . S
C1629 C1628 1.391 . S
C1630 H1620 0.950 . S
C1630 C1631 1.386 . S
C1630 C1632 1.391 . S
C1631 C1630 1.386 . S
C1631 C1635 1.393 . S
C1632 H1621 0.950 . S
C1632 C1630 1.391 . S
C1632 C1633 1.400 . S
C1633 C1627 1.491 . S
C1633 C1632 1.400 . S
C1633 C1634 1.398 . S
C1634 H1622 0.950 . S
C1634 C1633 1.398 . S
C1634 C1635 1.391 . S
C1635 H1623 0.950 1_556 S
C1635 C1631 1.393 . S
C1635 C1634 1.391 . S
H1636 C1644 0.950 . S
H1637 C1649 0.950 . S
H1638 C1646 0.950 . S
H1639 C1648 0.950 . S
H1640 C1650 0.950 . S
H1641 C1652 0.950 . S
H1642 C1654 0.950 . S
H1643 C1655 0.950 . S
C1644 H1636 0.950 . S
C1644 C1645 1.386 . S
C1644 C1646 1.391 . S
C1645 C1644 1.386 . S
C1645 C1649 1.393 . S
C1646 H1638 0.950 . S
C1646 C1644 1.391 . S
C1646 C1647 1.400 . S
C1647 C1646 1.400 . S
C1647 C1648 1.398 . S
C1647 C1653 1.491 . S
C1648 H1639 0.950 . S
C1648 C1647 1.398 . S
C1648 C1649 1.391 . S
C1649 H1637 0.950 . S
C1649 C1645 1.393 . S
C1649 C1648 1.391 . S
C1650 H1640 0.950 . S
C1650 C1651 1.386 . S
C1650 C1652 1.391 . S
C1651 C1650 1.386 . S
C1651 C1655 1.393 . S
C1652 H1641 0.950 . S
C1652 C1650 1.391 . S
C1652 C1653 1.400 . S
C1653 C1647 1.491 . S
C1653 C1652 1.400 . S
C1653 C1654 1.398 . S
C1654 H1642 0.950 . S
C1654 C1653 1.398 . S
C1654 C1655 1.391 . S
C1655 H1643 0.950 . S
C1655 C1651 1.393 . S
C1655 C1654 1.391 . S
H1656 C1664 0.950 . S
H1657 C1669 0.950 . S
H1658 C1666 0.950 . S
H1659 C1668 0.950 . S
H1660 C1670 0.950 . S
H1661 C1672 0.950 . S
H1662 C1674 0.950 . S
H1663 C1675 0.950 . S
C1664 H1656 0.950 . S
C1664 C1665 1.386 . S
C1664 C1666 1.391 . S
C1665 C1664 1.386 . S
C1665 C1669 1.393 . S
C1666 H1658 0.950 . S
C1666 C1664 1.391 . S
C1666 C1667 1.400 . S
C1667 C1666 1.400 . S
C1667 C1668 1.398 . S
C1667 C1673 1.491 . S
C1668 H1659 0.950 . S
C1668 C1667 1.398 . S
C1668 C1669 1.391 . S
C1669 H1657 0.950 . S
C1669 C1665 1.393 . S
C1669 C1668 1.391 . S
C1670 H1660 0.950 . S
C1670 C1671 1.386 . S
C1670 C1672 1.391 . S
C1671 C1670 1.386 . S
C1671 C1675 1.393 . S
C1672 H1661 0.950 . S
C1672 C1670 1.391 . S
C1672 C1673 1.400 . S
C1673 C1667 1.491 . S
C1673 C1672 1.400 . S
C1673 C1674 1.398 . S
C1674 H1662 0.950 . S
C1674 C1673 1.398 . S
C1674 C1675 1.391 . S
C1675 H1663 0.950 . S
C1675 C1671 1.393 . S
C1675 C1674 1.391 . S
H1676 C1684 0.950 . S
H1677 C1689 0.950 . S
H1678 C1686 0.950 . S
H1679 C1688 0.950 . S
H1680 C1690 0.950 . S
H1681 C1692 0.950 . S
H1682 C1694 0.950 . S
H1683 C1695 1.018 . S
C1684 H1676 0.950 . S
C1684 C1685 1.386 . S
C1684 C1686 1.391 . S
C1685 C1684 1.386 . S
C1685 C1689 1.393 . S
C1686 H1678 0.950 . S
C1686 C1684 1.391 . S
C1686 C1687 1.400 . S
C1687 C1686 1.400 . S
C1687 C1688 1.398 . S
C1687 C1693 1.491 . S
C1688 H1679 0.950 . S
C1688 C1687 1.398 . S
C1688 C1689 1.391 . S
C1689 H1677 0.950 . S
C1689 C1685 1.393 . S
C1689 C1688 1.391 . S
C1690 H1680 0.950 . S
C1690 C1691 1.386 . S
C1690 C1692 1.391 . S
C1691 C1690 1.386 . S
C1691 C1695 1.393 . S
C1692 H1681 0.950 . S
C1692 C1690 1.391 . S
C1692 C1693 1.400 . S
C1693 C1687 1.491 . S
C1693 C1692 1.400 . S
C1693 C1694 1.398 . S
C1694 H1682 0.950 . S
C1694 C1693 1.398 . S
C1694 C1695 1.391 . S
C1695 H1683 1.018 . S
C1695 C1691 1.393 . S
C1695 C1694 1.391 . S
H1696 C1704 0.950 . S
H1697 C1709 0.950 . S
H1698 C1706 0.950 . S
H1699 C1708 0.950 . S
H1700 C1710 0.950 . S
H1701 C1712 0.950 . S
H1702 C1714 0.950 . S
H1703 C1715 0.950 . S
C1704 H1696 0.950 . S
C1704 C1705 1.386 . S
C1704 C1706 1.391 . S
C1705 C1704 1.386 . S
C1705 C1709 1.393 . S
C1706 H1698 0.950 . S
C1706 C1704 1.391 . S
C1706 C1707 1.400 . S
C1707 C1706 1.400 . S
C1707 C1708 1.398 . S
C1707 C1713 1.491 . S
C1708 H1699 0.950 . S
C1708 C1707 1.398 . S
C1708 C1709 1.391 . S
C1709 H1697 0.950 . S
C1709 C1705 1.393 . S
C1709 C1708 1.391 . S
C1710 H1700 0.950 . S
C1710 C1711 1.386 . S
C1710 C1712 1.391 . S
C1711 C1710 1.386 . S
C1711 C1715 1.393 . S
C1712 H1701 0.950 . S
C1712 C1710 1.391 . S
C1712 C1713 1.400 . S
C1713 C1707 1.491 . S
C1713 C1712 1.400 . S
C1713 C1714 1.398 . S
C1714 H1702 0.950 . S
C1714 C1713 1.398 . S
C1714 C1715 1.391 . S
C1715 H1703 0.950 . S
C1715 C1711 1.393 . S
C1715 C1714 1.391 . S
H1716 C1724 0.950 . S
H1717 C1729 0.950 1_655 S
H1718 C1726 0.950 . S
H1719 C1728 0.950 . S
H1720 C1730 0.950 . S
H1721 C1732 0.950 . S
H1722 C1734 0.950 . S
H1723 C1735 0.950 . S
C1724 H1716 0.950 . S
C1724 C1725 1.386 . S
C1724 C1726 1.391 . S
C1725 C1724 1.386 . S
C1725 C1729 1.393 . S
C1726 H1718 0.950 . S
C1726 C1724 1.391 . S
C1726 C1727 1.400 . S
C1727 C1726 1.400 . S
C1727 C1728 1.398 . S
C1727 C1733 1.491 . S
C1728 H1719 0.950 . S
C1728 C1727 1.398 . S
C1728 C1729 1.391 . S
C1729 H1717 0.950 1_455 S
C1729 C1725 1.393 . S
C1729 C1728 1.391 . S
C1730 H1720 0.950 . S
C1730 C1731 1.386 . S
C1730 C1732 1.391 . S
C1731 C1730 1.386 . S
C1731 C1735 1.393 . S
C1732 H1721 0.950 . S
C1732 C1730 1.391 . S
C1732 C1733 1.400 . S
C1733 C1727 1.491 . S
C1733 C1732 1.400 . S
C1733 C1734 1.398 . S
C1734 H1722 0.950 . S
C1734 C1733 1.398 . S
C1734 C1735 1.391 . S
C1735 H1723 0.950 . S
C1735 C1731 1.393 . S
C1735 C1734 1.391 . S
H1736 C1744 0.950 . S
H1737 C1749 0.950 . S
H1738 C1746 0.950 . S
H1739 C1748 0.950 . S
H1740 C1750 0.950 . S
H1741 C1752 0.950 . S
H1742 C1754 0.950 . S
H1743 C1755 0.950 . S
C1744 H1736 0.950 . S
C1744 C1745 1.386 . S
C1744 C1746 1.391 . S
C1745 C1744 1.386 . S
C1745 C1749 1.393 . S
C1746 H1738 0.950 . S
C1746 C1744 1.391 . S
C1746 C1747 1.400 . S
C1747 C1746 1.400 . S
C1747 C1748 1.398 . S
C1747 C1753 1.491 . S
C1748 H1739 0.950 . S
C1748 C1747 1.398 . S
C1748 C1749 1.391 . S
C1749 H1737 0.950 . S
C1749 C1745 1.393 . S
C1749 C1748 1.391 . S
C1750 H1740 0.950 . S
C1750 C1751 1.386 . S
C1750 C1752 1.391 . S
C1751 C1750 1.386 . S
C1751 C1755 1.393 . S
C1752 H1741 0.950 . S
C1752 C1750 1.391 . S
C1752 C1753 1.400 . S
C1753 C1747 1.491 . S
C1753 C1752 1.400 . S
C1753 C1754 1.398 . S
C1754 H1742 0.950 . S
C1754 C1753 1.398 . S
C1754 C1755 1.391 . S
C1755 H1743 0.950 . S
C1755 C1751 1.393 . S
C1755 C1754 1.391 . S
H1756 C1764 0.950 1_545 S
H1757 C1769 0.950 1_545 S
H1758 C1766 0.950 . S
H1759 C1768 0.950 . S
H1760 C1770 0.950 . S
H1761 C1772 0.950 . S
H1762 C1774 0.950 . S
H1763 C1775 0.950 . S
C1764 H1756 0.950 1_565 S
C1764 C1765 1.386 1_565 S
C1764 C1766 1.391 . S
C1765 C1764 1.386 1_545 S
C1765 C1769 1.393 1_545 S
C1766 H1758 0.950 . S
C1766 C1764 1.391 . S
C1766 C1767 1.400 . S
C1767 C1766 1.400 . S
C1767 C1768 1.398 . S
C1767 C1773 1.491 . S
C1768 H1759 0.950 . S
C1768 C1767 1.398 . S
C1768 C1769 1.391 . S
C1769 H1757 0.950 1_565 S
C1769 C1765 1.393 1_565 S
C1769 C1768 1.391 . S
C1770 H1760 0.950 . S
C1770 C1771 1.386 . S
C1770 C1772 1.391 . S
C1771 C1770 1.386 . S
C1771 C1775 1.393 . S
C1772 H1761 0.950 . S
C1772 C1770 1.391 . S
C1772 C1773 1.400 . S
C1773 C1767 1.491 . S
C1773 C1772 1.400 . S
C1773 C1774 1.398 . S
C1774 H1762 0.950 . S
C1774 C1773 1.398 . S
C1774 C1775 1.391 . S
C1775 H1763 0.950 . S
C1775 C1771 1.393 . S
C1775 C1774 1.391 . S
H1776 C1784 0.950 . S
H1777 C1789 0.950 . S
H1778 C1786 0.950 . S
H1779 C1788 0.950 . S
H1780 C1790 0.950 . S
H1781 C1792 0.950 . S
H1782 C1794 0.950 . S
H1783 C1795 0.950 . S
C1784 H1776 0.950 . S
C1784 C1785 1.386 . S
C1784 C1786 1.391 . S
C1785 C1784 1.386 . S
C1785 C1789 1.393 . S
C1786 H1778 0.950 . S
C1786 C1784 1.391 . S
C1786 C1787 1.400 . S
C1787 C1786 1.400 . S
C1787 C1788 1.398 . S
C1787 C1793 1.491 . S
C1788 H1779 0.950 . S
C1788 C1787 1.398 . S
C1788 C1789 1.391 . S
C1789 H1777 0.950 . S
C1789 C1785 1.393 . S
C1789 C1788 1.391 . S
C1790 H1780 0.950 . S
C1790 C1791 1.386 . S
C1790 C1792 1.391 . S
C1791 C1790 1.386 . S
C1791 C1795 1.393 . S
C1792 H1781 0.950 . S
C1792 C1790 1.391 . S
C1792 C1793 1.400 . S
C1793 C1787 1.491 . S
C1793 C1792 1.400 . S
C1793 C1794 1.398 . S
C1794 H1782 0.950 . S
C1794 C1793 1.398 . S
C1794 C1795 1.391 . S
C1795 H1783 0.950 . S
C1795 C1791 1.393 . S
C1795 C1794 1.391 . S
H1796 C1804 0.950 . S
H1797 C1809 0.950 . S
H1798 C1806 0.950 . S
H1799 C1808 0.950 . S
H1800 C1810 0.950 . S
H1801 C1812 0.950 . S
H1802 C1814 0.950 . S
H1803 C1815 0.950 . S
C1804 H1796 0.950 . S
C1804 C1805 1.386 . S
C1804 C1806 1.391 . S
C1805 C1804 1.386 . S
C1805 C1809 1.393 . S
C1806 H1798 0.950 . S
C1806 C1804 1.391 . S
C1806 C1807 1.400 . S
C1807 C1806 1.400 . S
C1807 C1808 1.398 . S
C1807 C1813 1.491 . S
C1808 H1799 0.950 . S
C1808 C1807 1.398 . S
C1808 C1809 1.391 . S
C1809 H1797 0.950 . S
C1809 C1805 1.393 . S
C1809 C1808 1.391 . S
C1810 H1800 0.950 . S
C1810 C1811 1.386 . S
C1810 C1812 1.391 . S
C1811 C1810 1.386 . S
C1811 C1815 1.393 . S
C1812 H1801 0.950 . S
C1812 C1810 1.391 . S
C1812 C1813 1.400 . S
C1813 C1807 1.491 . S
C1813 C1812 1.400 . S
C1813 C1814 1.398 . S
C1814 H1802 0.950 . S
C1814 C1813 1.398 . S
C1814 C1815 1.391 . S
C1815 H1803 0.950 . S
C1815 C1811 1.393 . S
C1815 C1814 1.391 . S
H1816 C1824 0.950 . S
H1817 C1829 0.950 . S
H1818 C1826 0.950 . S
H1819 C1828 0.950 . S
H1820 C1830 0.950 . S
H1821 C1832 0.950 . S
H1822 C1834 0.950 . S
H1823 C1835 0.950 . S
C1824 H1816 0.950 . S
C1824 C1825 1.386 . S
C1824 C1826 1.391 . S
C1825 C1824 1.386 . S
C1825 C1829 1.393 . S
C1826 H1818 0.950 . S
C1826 C1824 1.391 . S
C1826 C1827 1.400 . S
C1827 C1826 1.400 . S
C1827 C1828 1.398 . S
C1827 C1833 1.491 . S
C1828 H1819 0.950 . S
C1828 C1827 1.398 . S
C1828 C1829 1.391 . S
C1829 H1817 0.950 . S
C1829 C1825 1.393 . S
C1829 C1828 1.391 . S
C1830 H1820 0.950 . S
C1830 C1831 1.386 . S
C1830 C1832 1.391 . S
C1831 C1830 1.386 . S
C1831 C1835 1.393 . S
C1832 H1821 0.950 . S
C1832 C1830 1.391 . S
C1832 C1833 1.400 . S
C1833 C1827 1.491 . S
C1833 C1832 1.400 . S
C1833 C1834 1.398 . S
C1834 H1822 0.950 . S
C1834 C1833 1.398 . S
C1834 C1835 1.391 . S
C1835 H1823 0.950 . S
C1835 C1831 1.393 . S
C1835 C1834 1.391 . S
H1836 C1844 0.950 . S
H1837 C1849 0.950 . S
H1838 C1846 0.950 . S
H1839 C1848 0.950 . S
H1840 C1850 0.950 . S
H1841 C1852 0.950 . S
H1842 C1854 0.950 . S
H1843 C1855 0.950 . S
C1844 H1836 0.950 . S
C1844 C1845 1.386 . S
C1844 C1846 1.391 . S
C1845 C1844 1.386 . S
C1845 C1849 1.393 . S
C1846 H1838 0.950 . S
C1846 C1844 1.391 . S
C1846 C1847 1.400 . S
C1847 C1846 1.400 . S
C1847 C1848 1.398 . S
C1847 C1853 1.491 . S
C1848 H1839 0.950 . S
C1848 C1847 1.398 . S
C1848 C1849 1.391 . S
C1849 H1837 0.950 . S
C1849 C1845 1.393 . S
C1849 C1848 1.391 . S
C1850 H1840 0.950 . S
C1850 C1851 1.386 . S
C1850 C1852 1.391 . S
C1851 C1850 1.386 . S
C1851 C1855 1.393 . S
C1852 H1841 0.950 . S
C1852 C1850 1.391 . S
C1852 C1853 1.400 . S
C1853 C1847 1.491 . S
C1853 C1852 1.400 . S
C1853 C1854 1.398 . S
C1854 H1842 0.950 . S
C1854 C1853 1.398 . S
C1854 C1855 1.391 . S
C1855 H1843 0.950 . S
C1855 C1851 1.393 . S
C1855 C1854 1.391 . S
H1856 C1864 0.950 . S
H1857 C1869 0.950 . S
H1858 C1866 0.950 . S
H1859 C1868 0.950 . S
H1860 C1870 0.950 . S
H1861 C1872 0.950 . S
H1862 C1874 0.950 . S
H1863 C1875 0.950 . S
C1864 H1856 0.950 . S
C1864 C1865 1.386 . S
C1864 C1866 1.391 . S
C1865 C1864 1.386 . S
C1865 C1869 1.393 . S
C1866 H1858 0.950 . S
C1866 C1864 1.391 . S
C1866 C1867 1.400 . S
C1867 C1866 1.400 . S
C1867 C1868 1.398 . S
C1867 C1873 1.491 . S
C1868 H1859 0.950 . S
C1868 C1867 1.398 . S
C1868 C1869 1.391 . S
C1869 H1857 0.950 . S
C1869 C1865 1.393 . S
C1869 C1868 1.391 . S
C1870 H1860 0.950 . S
C1870 C1871 1.386 . S
C1870 C1872 1.391 . S
C1871 C1870 1.386 . S
C1871 C1875 1.393 . S
C1872 H1861 0.950 . S
C1872 C1870 1.391 . S
C1872 C1873 1.400 . S
C1873 C1867 1.491 . S
C1873 C1872 1.400 . S
C1873 C1874 1.398 . S
C1874 H1862 0.950 . S
C1874 C1873 1.398 . S
C1874 C1875 1.391 . S
C1875 H1863 0.950 . S
C1875 C1871 1.393 . S
C1875 C1874 1.391 . S
H1876 C1884 0.950 . S
H1877 C1889 0.950 . S
H1878 C1886 0.950 . S
H1879 C1888 0.950 . S
H1880 C1890 0.950 . S
H1881 C1892 0.950 . S
H1882 C1894 0.950 . S
H1883 C1895 0.950 . S
C1884 H1876 0.950 . S
C1884 C1885 1.386 . S
C1884 C1886 1.391 . S
C1885 C1884 1.386 . S
C1885 C1889 1.393 . S
C1886 H1878 0.950 . S
C1886 C1884 1.391 . S
C1886 C1887 1.400 . S
C1887 C1886 1.400 . S
C1887 C1888 1.398 . S
C1887 C1893 1.491 . S
C1888 H1879 0.950 . S
C1888 C1887 1.398 . S
C1888 C1889 1.391 . S
C1889 H1877 0.950 . S
C1889 C1885 1.393 . S
C1889 C1888 1.391 . S
C1890 H1880 0.950 . S
C1890 C1891 1.386 . S
C1890 C1892 1.391 . S
C1891 C1890 1.386 . S
C1891 C1895 1.393 . S
C1892 H1881 0.950 . S
C1892 C1890 1.391 . S
C1892 C1893 1.400 . S
C1893 C1887 1.491 . S
C1893 C1892 1.400 . S
C1893 C1894 1.398 . S
C1894 H1882 0.950 . S
C1894 C1893 1.398 . S
C1894 C1895 1.391 . S
C1895 H1883 0.950 . S
C1895 C1891 1.393 . S
C1895 C1894 1.391 . S
H1896 C1904 0.950 . S
H1897 C1909 0.950 1_545 S
H1898 C1906 0.950 . S
H1899 C1908 0.950 . S
H1900 C1910 0.950 . S
H1901 C1912 0.950 . S
H1902 C1914 0.950 . S
H1903 C1915 0.950 . S
C1904 H1896 0.950 . S
C1904 C1905 1.386 1_565 S
C1904 C1906 1.391 . S
C1905 C1904 1.386 1_545 S
C1905 C1909 1.393 1_545 S
C1906 H1898 0.950 . S
C1906 C1904 1.391 . S
C1906 C1907 1.400 . S
C1907 C1906 1.400 . S
C1907 C1908 1.398 . S
C1907 C1913 1.491 . S
C1908 H1899 0.950 . S
C1908 C1907 1.398 . S
C1908 C1909 1.391 . S
C1909 H1897 0.950 1_565 S
C1909 C1905 1.393 1_565 S
C1909 C1908 1.391 . S
C1910 H1900 0.950 . S
C1910 C1911 1.386 . S
C1910 C1912 1.391 . S
C1911 C1910 1.386 . S
C1911 C1915 1.393 . S
C1912 H1901 0.950 . S
C1912 C1910 1.391 . S
C1912 C1913 1.400 . S
C1913 C1907 1.491 . S
C1913 C1912 1.400 . S
C1913 C1914 1.398 . S
C1914 H1902 0.950 . S
C1914 C1913 1.398 . S
C1914 C1915 1.391 . S
C1915 H1903 0.950 . S
C1915 C1911 1.393 . S
C1915 C1914 1.391 . S
H1916 C1924 0.950 . S
H1917 C1929 0.950 . S
H1918 C1926 0.950 . S
H1919 C1928 0.950 . S
H1920 C1930 0.950 . S
H1921 C1932 0.950 . S
H1922 C1934 0.950 . S
H1923 C1935 0.950 . S
C1924 H1916 0.950 . S
C1924 C1925 1.386 . S
C1924 C1926 1.391 . S
C1925 C1924 1.386 . S
C1925 C1929 1.393 . S
C1926 H1918 0.950 . S
C1926 C1924 1.391 . S
C1926 C1927 1.400 . S
C1927 C1926 1.400 . S
C1927 C1928 1.398 . S
C1927 C1933 1.491 . S
C1928 H1919 0.950 . S
C1928 C1927 1.398 . S
C1928 C1929 1.391 . S
C1929 H1917 0.950 . S
C1929 C1925 1.393 . S
C1929 C1928 1.391 . S
C1930 H1920 0.950 . S
C1930 C1931 1.386 . S
C1930 C1932 1.391 . S
C1931 C1930 1.386 . S
C1931 C1935 1.393 . S
C1932 H1921 0.950 . S
C1932 C1930 1.391 . S
C1932 C1933 1.400 . S
C1933 C1927 1.491 . S
C1933 C1932 1.400 . S
C1933 C1934 1.398 . S
C1934 H1922 0.950 . S
C1934 C1933 1.398 . S
C1934 C1935 1.391 . S
C1935 H1923 0.950 . S
C1935 C1931 1.393 . S
C1935 C1934 1.391 . S
H1936 C1944 0.950 . S
H1937 C1949 0.950 . S
H1938 C1946 0.950 . S
H1939 C1948 0.950 . S
H1940 C1950 0.950 . S
H1941 C1952 0.950 . S
H1942 C1954 0.950 . S
H1943 C1955 0.950 . S
C1944 H1936 0.950 . S
C1944 C1945 1.386 . S
C1944 C1946 1.391 . S
C1945 C1944 1.386 . S
C1945 C1949 1.393 . S
C1946 H1938 0.950 . S
C1946 C1944 1.391 . S
C1946 C1947 1.400 . S
C1947 C1946 1.400 . S
C1947 C1948 1.398 . S
C1947 C1953 1.491 . S
C1948 H1939 0.950 . S
C1948 C1947 1.398 . S
C1948 C1949 1.391 . S
C1949 H1937 0.950 . S
C1949 C1945 1.393 . S
C1949 C1948 1.391 . S
C1950 H1940 0.950 . S
C1950 C1951 1.386 . S
C1950 C1952 1.391 . S
C1951 C1950 1.386 . S
C1951 C1955 1.393 . S
C1952 H1941 0.950 . S
C1952 C1950 1.391 . S
C1952 C1953 1.400 . S
C1953 C1947 1.491 . S
C1953 C1952 1.400 . S
C1953 C1954 1.398 . S
C1954 H1942 0.950 . S
C1954 C1953 1.398 . S
C1954 C1955 1.391 . S
C1955 H1943 0.950 . S
C1955 C1951 1.393 . S
C1955 C1954 1.391 . S
H1956 C1964 0.950 . S
H1957 C1969 0.950 . S
H1958 C1966 0.950 . S
H1959 C1968 0.950 . S
H1960 C1970 0.950 . S
H1961 C1972 0.950 . S
H1962 C1974 0.950 . S
H1963 C1975 0.950 . S
C1964 H1956 0.950 . S
C1964 C1965 1.386 . S
C1964 C1966 1.391 . S
C1965 C1964 1.386 . S
C1965 C1969 1.393 . S
C1966 H1958 0.950 . S
C1966 C1964 1.391 . S
C1966 C1967 1.400 . S
C1967 C1966 1.400 . S
C1967 C1968 1.398 . S
C1967 C1973 1.491 . S
C1968 H1959 0.950 . S
C1968 C1967 1.398 . S
C1968 C1969 1.391 . S
C1969 H1957 0.950 . S
C1969 C1965 1.393 . S
C1969 C1968 1.391 . S
C1970 H1960 0.950 . S
C1970 C1971 1.386 . S
C1970 C1972 1.391 . S
C1971 C1970 1.386 . S
C1971 C1975 1.393 . S
C1972 H1961 0.950 . S
C1972 C1970 1.391 . S
C1972 C1973 1.400 . S
C1973 C1967 1.491 . S
C1973 C1972 1.400 . S
C1973 C1974 1.398 . S
C1974 H1962 0.950 . S
C1974 C1973 1.398 . S
C1974 C1975 1.391 . S
C1975 H1963 0.950 . S
C1975 C1971 1.393 . S
C1975 C1974 1.391 . S
H1976 C1984 0.950 . S
H1977 C1989 0.950 . S
H1978 C1986 0.950 . S
H1979 C1988 0.950 . S
H1980 C1990 0.950 . S
H1981 C1992 0.950 . S
H1982 C1994 0.950 . S
H1983 C1995 0.950 . S
C1984 H1976 0.950 . S
C1984 C1985 1.386 . S
C1984 C1986 1.391 . S
C1985 C1984 1.386 . S
C1985 C1989 1.393 . S
C1986 H1978 0.950 . S
C1986 C1984 1.391 . S
C1986 C1987 1.400 . S
C1987 C1986 1.400 . S
C1987 C1988 1.398 . S
C1987 C1993 1.491 . S
C1988 H1979 0.950 . S
C1988 C1987 1.398 . S
C1988 C1989 1.391 . S
C1989 H1977 0.950 . S
C1989 C1985 1.393 . S
C1989 C1988 1.391 . S
C1990 H1980 0.950 . S
C1990 C1991 1.386 . S
C1990 C1992 1.391 . S
C1991 C1990 1.386 . S
C1991 C1995 1.393 . S
C1992 H1981 0.950 . S
C1992 C1990 1.391 . S
C1992 C1993 1.400 . S
C1993 C1987 1.491 . S
C1993 C1992 1.400 . S
C1993 C1994 1.398 . S
C1994 H1982 0.950 . S
C1994 C1993 1.398 . S
C1994 C1995 1.391 . S
C1995 H1983 0.950 . S
C1995 C1991 1.393 . S
C1995 C1994 1.391 . S
H1996 C2004 0.950 . S
H1997 C2009 0.950 . S
H1998 C2006 0.950 . S
H1999 C2008 0.950 . S
H2000 C2010 0.950 . S
H2001 C2012 0.950 . S
H2002 C2014 0.950 . S
H2003 C2015 0.950 . S
C2004 H1996 0.950 . S
C2004 C2005 1.386 . S
C2004 C2006 1.391 . S
C2005 C2004 1.386 . S
C2005 C2009 1.393 . S
C2006 H1998 0.950 . S
C2006 C2004 1.391 . S
C2006 C2007 1.400 . S
C2007 C2006 1.400 . S
C2007 C2008 1.398 . S
C2007 C2013 1.491 . S
C2008 H1999 0.950 . S
C2008 C2007 1.398 . S
C2008 C2009 1.391 . S
C2009 H1997 0.950 . S
C2009 C2005 1.393 . S
C2009 C2008 1.391 . S
C2010 H2000 0.950 . S
C2010 C2011 1.386 . S
C2010 C2012 1.391 . S
C2011 C2010 1.386 . S
C2011 C2015 1.393 . S
C2012 H2001 0.950 . S
C2012 C2010 1.391 . S
C2012 C2013 1.400 . S
C2013 C2007 1.491 . S
C2013 C2012 1.400 . S
C2013 C2014 1.398 . S
C2014 H2002 0.950 . S
C2014 C2013 1.398 . S
C2014 C2015 1.391 . S
C2015 H2003 0.950 . S
C2015 C2011 1.393 . S
C2015 C2014 1.391 . S
H2016 C2024 0.950 . S
H2017 C2029 0.950 1_565 S
H2018 C2026 0.950 . S
H2019 C2028 0.950 . S
H2020 C2030 0.950 . S
H2021 C2032 0.950 . S
H2022 C2034 0.950 . S
H2023 C2035 0.950 . S
C2024 H2016 0.950 . S
C2024 C2025 1.382 1_545 S
C2024 C2026 1.391 . S
C2025 C2024 1.382 1_565 S
C2025 C2029 1.390 1_565 S
C2026 H2018 0.950 . S
C2026 C2024 1.391 . S
C2026 C2027 1.400 . S
C2027 C2026 1.400 . S
C2027 C2028 1.398 . S
C2027 C2033 1.491 . S
C2028 H2019 0.950 . S
C2028 C2027 1.398 . S
C2028 C2029 1.391 . S
C2029 H2017 0.950 1_545 S
C2029 C2025 1.390 1_545 S
C2029 C2028 1.391 . S
C2030 H2020 0.950 . S
C2030 C2031 1.386 . S
C2030 C2032 1.391 . S
C2031 C2030 1.386 . S
C2031 C2035 1.393 . S
C2032 H2021 0.950 . S
C2032 C2030 1.391 . S
C2032 C2033 1.400 . S
C2033 C2027 1.491 . S
C2033 C2032 1.400 . S
C2033 C2034 1.398 . S
C2034 H2022 0.950 . S
C2034 C2033 1.398 . S
C2034 C2035 1.391 . S
C2035 H2023 0.950 . S
C2035 C2031 1.393 . S
C2035 C2034 1.391 . S
H2036 C2044 0.950 1_455 S
H2037 C2049 0.950 . S
H2038 C2046 0.950 . S
H2039 C2048 0.950 . S
H2040 C2050 0.950 . S
H2041 C2052 0.950 . S
H2042 C2054 0.950 . S
H2043 C2055 0.950 . S
C2044 H2036 0.950 1_655 S
C2044 C2045 1.386 . S
C2044 C2046 1.391 . S
C2045 C2044 1.386 . S
C2045 C2049 1.393 . S
C2046 H2038 0.950 . S
C2046 C2044 1.391 . S
C2046 C2047 1.400 . S
C2047 C2046 1.400 . S
C2047 C2048 1.398 . S
C2047 C2053 1.491 . S
C2048 H2039 0.950 . S
C2048 C2047 1.398 . S
C2048 C2049 1.391 . S
C2049 H2037 0.950 . S
C2049 C2045 1.393 . S
C2049 C2048 1.391 . S
C2050 H2040 0.950 . S
C2050 C2051 1.386 . S
C2050 C2052 1.391 . S
C2051 C2050 1.386 . S
C2051 C2055 1.393 . S
C2052 H2041 0.950 . S
C2052 C2050 1.391 . S
C2052 C2053 1.400 . S
C2053 C2047 1.491 . S
C2053 C2052 1.400 . S
C2053 C2054 1.398 . S
C2054 H2042 0.950 . S
C2054 C2053 1.398 . S
C2054 C2055 1.391 . S
C2055 H2043 0.950 . S
C2055 C2051 1.393 . S
C2055 C2054 1.391 . S
H2056 C2064 0.950 . S
H2057 C2069 0.950 . S
H2058 C2066 0.950 . S
H2059 C2068 0.950 . S
H2060 C2070 0.950 . S
H2061 C2072 0.950 . S
H2062 C2074 0.950 . S
H2063 C2075 0.950 . S
C2064 H2056 0.950 . S
C2064 C2065 1.386 . S
C2064 C2066 1.391 . S
C2065 C2064 1.386 . S
C2065 C2069 1.393 . S
C2066 H2058 0.950 . S
C2066 C2064 1.391 . S
C2066 C2067 1.400 . S
C2067 C2066 1.400 . S
C2067 C2068 1.398 . S
C2067 C2073 1.491 . S
C2068 H2059 0.950 . S
C2068 C2067 1.398 . S
C2068 C2069 1.391 . S
C2069 H2057 0.950 . S
C2069 C2065 1.393 . S
C2069 C2068 1.391 . S
C2070 H2060 0.950 . S
C2070 C2071 1.386 . S
C2070 C2072 1.391 . S
C2071 C2070 1.386 . S
C2071 C2075 1.393 . S
C2072 H2061 0.950 . S
C2072 C2070 1.391 . S
C2072 C2073 1.400 . S
C2073 C2067 1.491 . S
C2073 C2072 1.400 . S
C2073 C2074 1.398 . S
C2074 H2062 0.950 . S
C2074 C2073 1.398 . S
C2074 C2075 1.391 . S
C2075 H2063 0.950 . S
C2075 C2071 1.393 . S
C2075 C2074 1.391 . S
H2076 C2084 0.951 . S
H2077 C2089 0.950 . S
H2078 C2086 0.950 . S
H2079 C2088 0.950 . S
H2080 C2090 0.950 . S
H2081 C2092 0.950 . S
H2082 C2094 0.950 . S
H2083 C2095 0.950 . S
C2084 H2076 0.951 . S
C2084 C2085 1.386 . S
C2084 C2086 1.391 . S
C2085 C2084 1.386 . S
C2085 C2089 1.393 . S
C2086 H2078 0.950 . S
C2086 C2084 1.391 . S
C2086 C2087 1.400 . S
C2087 C2086 1.400 . S
C2087 C2088 1.398 . S
C2087 C2093 1.491 . S
C2088 H2079 0.950 . S
C2088 C2087 1.398 . S
C2088 C2089 1.391 . S
C2089 H2077 0.950 . S
C2089 C2085 1.393 . S
C2089 C2088 1.391 . S
C2090 H2080 0.950 . S
C2090 C2091 1.386 . S
C2090 C2092 1.391 . S
C2091 C2090 1.386 . S
C2091 C2095 1.393 . S
C2092 H2081 0.950 . S
C2092 C2090 1.391 . S
C2092 C2093 1.400 . S
C2093 C2087 1.491 . S
C2093 C2092 1.400 . S
C2093 C2094 1.398 . S
C2094 H2082 0.950 . S
C2094 C2093 1.398 . S
C2094 C2095 1.391 . S
C2095 H2083 0.950 . S
C2095 C2091 1.393 . S
C2095 C2094 1.391 . S
H2096 C2104 0.950 . S
H2097 C2109 0.950 . S
H2098 C2106 0.950 . S
H2099 C2108 0.950 . S
H2100 C2110 0.950 . S
H2101 C2112 0.950 . S
H2102 C2114 0.950 . S
H2103 C2115 0.950 . S
C2104 H2096 0.950 . S
C2104 C2105 1.386 . S
C2104 C2106 1.391 . S
C2105 C2104 1.386 . S
C2105 C2109 1.393 . S
C2106 H2098 0.950 . S
C2106 C2104 1.391 . S
C2106 C2107 1.400 . S
C2107 C2106 1.400 . S
C2107 C2108 1.398 . S
C2107 C2113 1.491 . S
C2108 H2099 0.950 . S
C2108 C2107 1.398 . S
C2108 C2109 1.391 . S
C2109 H2097 0.950 . S
C2109 C2105 1.393 . S
C2109 C2108 1.391 . S
C2110 H2100 0.950 . S
C2110 C2111 1.386 . S
C2110 C2112 1.391 . S
C2111 C2110 1.386 . S
C2111 C2115 1.393 . S
C2112 H2101 0.950 . S
C2112 C2110 1.391 . S
C2112 C2113 1.400 . S
C2113 C2107 1.491 . S
C2113 C2112 1.400 . S
C2113 C2114 1.398 . S
C2114 H2102 0.950 . S
C2114 C2113 1.398 . S
C2114 C2115 1.391 . S
C2115 H2103 0.950 . S
C2115 C2111 1.393 . S
C2115 C2114 1.391 . S
H2116 C2124 0.950 . S
H2117 C2129 0.950 1_565 S
H2118 C2126 0.950 . S
H2119 C2128 0.950 . S
H2120 C2130 0.950 . S
H2121 C2132 0.950 . S
H2122 C2134 0.950 . S
H2123 C2135 0.950 . S
C2124 H2116 0.950 . S
C2124 C2125 1.386 1_545 S
C2124 C2126 1.391 . S
C2125 C2124 1.386 1_565 S
C2125 C2129 1.393 1_565 S
C2126 H2118 0.950 . S
C2126 C2124 1.391 . S
C2126 C2127 1.400 . S
C2127 C2126 1.400 . S
C2127 C2128 1.398 . S
C2127 C2133 1.491 . S
C2128 H2119 0.950 . S
C2128 C2127 1.398 . S
C2128 C2129 1.391 . S
C2129 H2117 0.950 1_545 S
C2129 C2125 1.393 1_545 S
C2129 C2128 1.391 . S
C2130 H2120 0.950 . S
C2130 C2131 1.386 . S
C2130 C2132 1.391 . S
C2131 C2130 1.386 . S
C2131 C2135 1.393 . S
C2132 H2121 0.950 . S
C2132 C2130 1.391 . S
C2132 C2133 1.400 . S
C2133 C2127 1.491 . S
C2133 C2132 1.400 . S
C2133 C2134 1.398 . S
C2134 H2122 0.950 . S
C2134 C2133 1.398 . S
C2134 C2135 1.391 . S
C2135 H2123 0.950 . S
C2135 C2131 1.393 . S
C2135 C2134 1.391 . S
H2136 C2144 0.950 . S
H2137 C2149 0.950 . S
H2138 C2146 0.950 . S
H2139 C2148 0.950 . S
H2140 C2150 0.950 . S
H2141 C2152 0.950 . S
H2142 C2154 0.950 . S
H2143 C2155 0.950 . S
C2144 H2136 0.950 . S
C2144 C2145 1.386 . S
C2144 C2146 1.391 . S
C2145 C2144 1.386 . S
C2145 C2149 1.393 . S
C2146 H2138 0.950 . S
C2146 C2144 1.391 . S
C2146 C2147 1.400 . S
C2147 C2146 1.400 . S
C2147 C2148 1.398 . S
C2147 C2153 1.491 . S
C2148 H2139 0.950 . S
C2148 C2147 1.398 . S
C2148 C2149 1.391 . S
C2149 H2137 0.950 . S
C2149 C2145 1.393 . S
C2149 C2148 1.391 . S
C2150 H2140 0.950 . S
C2150 C2151 1.386 . S
C2150 C2152 1.391 . S
C2151 C2150 1.386 . S
C2151 C2155 1.393 . S
C2152 H2141 0.950 . S
C2152 C2150 1.391 . S
C2152 C2153 1.400 . S
C2153 C2147 1.491 . S
C2153 C2152 1.400 . S
C2153 C2154 1.398 . S
C2154 H2142 0.950 . S
C2154 C2153 1.398 . S
C2154 C2155 1.391 . S
C2155 H2143 0.950 . S
C2155 C2151 1.393 . S
C2155 C2154 1.391 . S
H2156 C2164 0.950 . S
H2157 C2169 0.950 . S
H2158 C2166 0.950 . S
H2159 C2168 0.950 . S
H2160 C2170 0.950 . S
H2161 C2172 0.950 . S
H2162 C2174 0.950 . S
H2163 C2175 0.950 . S
C2164 H2156 0.950 . S
C2164 C2165 1.386 . S
C2164 C2166 1.391 . S
C2165 C2164 1.386 . S
C2165 C2169 1.393 . S
C2166 H2158 0.950 . S
C2166 C2164 1.391 . S
C2166 C2167 1.400 . S
C2167 C2166 1.400 . S
C2167 C2168 1.398 . S
C2167 C2173 1.491 . S
C2168 H2159 0.950 . S
C2168 C2167 1.398 . S
C2168 C2169 1.391 . S
C2169 H2157 0.950 . S
C2169 C2165 1.393 . S
C2169 C2168 1.391 . S
C2170 H2160 0.950 . S
C2170 C2171 1.386 . S
C2170 C2172 1.391 . S
C2171 C2170 1.386 . S
C2171 C2175 1.393 . S
C2172 H2161 0.950 . S
C2172 C2170 1.391 . S
C2172 C2173 1.400 . S
C2173 C2167 1.491 . S
C2173 C2172 1.400 . S
C2173 C2174 1.398 . S
C2174 H2162 0.950 . S
C2174 C2173 1.398 . S
C2174 C2175 1.391 . S
C2175 H2163 0.950 . S
C2175 C2171 1.393 . S
C2175 C2174 1.391 . S
H2176 C2184 0.950 . S
H2177 C2189 0.950 . S
H2178 C2186 0.950 . S
H2179 C2188 0.950 . S
H2180 C2190 0.950 . S
H2181 C2192 0.950 . S
H2182 C2194 0.950 . S
H2183 C2195 0.950 . S
C2184 H2176 0.950 . S
C2184 C2185 1.386 . S
C2184 C2186 1.391 . S
C2185 C2184 1.386 . S
C2185 C2189 1.393 . S
C2186 H2178 0.950 . S
C2186 C2184 1.391 . S
C2186 C2187 1.400 . S
C2187 C2186 1.400 . S
C2187 C2188 1.398 . S
C2187 C2193 1.491 . S
C2188 H2179 0.950 . S
C2188 C2187 1.398 . S
C2188 C2189 1.391 . S
C2189 H2177 0.950 . S
C2189 C2185 1.393 . S
C2189 C2188 1.391 . S
C2190 H2180 0.950 . S
C2190 C2191 1.386 . S
C2190 C2192 1.391 . S
C2191 C2190 1.386 . S
C2191 C2195 1.393 . S
C2192 H2181 0.950 . S
C2192 C2190 1.391 . S
C2192 C2193 1.400 . S
C2193 C2187 1.491 . S
C2193 C2192 1.400 . S
C2193 C2194 1.398 . S
C2194 H2182 0.950 . S
C2194 C2193 1.398 . S
C2194 C2195 1.391 . S
C2195 H2183 0.950 . S
C2195 C2191 1.393 . S
C2195 C2194 1.391 . S
H2196 C2204 0.950 . S
H2197 C2209 0.950 . S
H2198 C2206 0.950 . S
H2199 C2208 0.950 . S
H2200 C2210 0.950 . S
H2201 C2212 0.950 . S
H2202 C2214 0.950 . S
H2203 C2215 0.950 . S
C2204 H2196 0.950 . S
C2204 C2205 1.386 . S
C2204 C2206 1.391 . S
C2205 C2204 1.386 . S
C2205 C2209 1.393 . S
C2206 H2198 0.950 . S
C2206 C2204 1.391 . S
C2206 C2207 1.400 . S
C2207 C2206 1.400 . S
C2207 C2208 1.398 . S
C2207 C2213 1.491 . S
C2208 H2199 0.950 . S
C2208 C2207 1.398 . S
C2208 C2209 1.391 . S
C2209 H2197 0.950 . S
C2209 C2205 1.393 . S
C2209 C2208 1.391 . S
C2210 H2200 0.950 . S
C2210 C2211 1.386 . S
C2210 C2212 1.391 . S
C2211 C2210 1.386 . S
C2211 C2215 1.393 . S
C2212 H2201 0.950 . S
C2212 C2210 1.391 . S
C2212 C2213 1.400 . S
C2213 C2207 1.491 . S
C2213 C2212 1.400 . S
C2213 C2214 1.398 . S
C2214 H2202 0.950 . S
C2214 C2213 1.398 . S
C2214 C2215 1.391 . S
C2215 H2203 0.950 . S
C2215 C2211 1.393 . S
C2215 C2214 1.391 . S
H2216 C2224 0.950 . S
H2217 C2229 0.950 . S
H2218 C2226 0.950 . S
H2219 C2228 0.950 . S
H2220 C2230 0.950 . S
H2221 C2232 0.950 . S
H2222 C2234 0.950 . S
H2223 C2235 0.950 1_655 S
C2224 H2216 0.950 . S
C2224 C2225 1.386 . S
C2224 C2226 1.391 . S
C2225 C2224 1.386 . S
C2225 C2229 1.393 . S
C2226 H2218 0.950 . S
C2226 C2224 1.391 . S
C2226 C2227 1.400 . S
C2227 C2226 1.400 . S
C2227 C2228 1.398 . S
C2227 C2233 1.491 . S
C2228 H2219 0.950 . S
C2228 C2227 1.398 . S
C2228 C2229 1.391 . S
C2229 H2217 0.950 . S
C2229 C2225 1.393 . S
C2229 C2228 1.391 . S
C2230 H2220 0.950 . S
C2230 C2231 1.386 . S
C2230 C2232 1.391 . S
C2231 C2230 1.386 . S
C2231 C2235 1.393 . S
C2232 H2221 0.950 . S
C2232 C2230 1.391 . S
C2232 C2233 1.400 . S
C2233 C2227 1.491 . S
C2233 C2232 1.400 . S
C2233 C2234 1.398 . S
C2234 H2222 0.950 . S
C2234 C2233 1.398 . S
C2234 C2235 1.391 . S
C2235 H2223 0.950 1_455 S
C2235 C2231 1.393 . S
C2235 C2234 1.391 . S
H2236 C2244 0.950 . S
H2237 C2249 0.950 . S
H2238 C2246 0.950 . S
H2239 C2248 0.950 . S
H2240 C2250 0.950 . S
H2241 C2252 0.950 . S
H2242 C2254 0.950 . S
H2243 C2255 0.950 . S
C2244 H2236 0.950 . S
C2244 C2245 1.386 . S
C2244 C2246 1.391 . S
C2245 C2244 1.386 . S
C2245 C2249 1.393 . S
C2246 H2238 0.950 . S
C2246 C2244 1.391 . S
C2246 C2247 1.400 . S
C2247 C2246 1.400 . S
C2247 C2248 1.398 . S
C2247 C2253 1.491 . S
C2248 H2239 0.950 . S
C2248 C2247 1.398 . S
C2248 C2249 1.391 . S
C2249 H2237 0.950 . S
C2249 C2245 1.393 . S
C2249 C2248 1.391 . S
C2250 H2240 0.950 . S
C2250 C2251 1.386 . S
C2250 C2252 1.391 . S
C2251 C2250 1.386 . S
C2251 C2255 1.393 . S
C2252 H2241 0.950 . S
C2252 C2250 1.391 . S
C2252 C2253 1.400 . S
C2253 C2247 1.491 . S
C2253 C2252 1.400 . S
C2253 C2254 1.398 . S
C2254 H2242 0.950 . S
C2254 C2253 1.398 . S
C2254 C2255 1.391 . S
C2255 H2243 0.950 . S
C2255 C2251 1.393 . S
C2255 C2254 1.391 . S
H2256 C2264 0.950 . S
H2257 C2269 0.950 . S
H2258 C2266 0.950 . S
H2259 C2268 0.950 . S
H2260 C2270 0.950 . S
H2261 C2272 0.950 . S
H2262 C2274 0.950 . S
H2263 C2275 0.950 . S
C2264 H2256 0.950 . S
C2264 C2265 1.386 . S
C2264 C2266 1.391 . S
C2265 C2264 1.386 . S
C2265 C2269 1.393 . S
C2266 H2258 0.950 . S
C2266 C2264 1.391 . S
C2266 C2267 1.400 . S
C2267 C2266 1.400 . S
C2267 C2268 1.398 . S
C2267 C2273 1.491 . S
C2268 H2259 0.950 . S
C2268 C2267 1.398 . S
C2268 C2269 1.391 . S
C2269 H2257 0.950 . S
C2269 C2265 1.393 . S
C2269 C2268 1.391 . S
C2270 H2260 0.950 . S
C2270 C2271 1.386 . S
C2270 C2272 1.391 . S
C2271 C2270 1.386 . S
C2271 C2275 1.393 . S
C2272 H2261 0.950 . S
C2272 C2270 1.391 . S
C2272 C2273 1.400 . S
C2273 C2267 1.491 . S
C2273 C2272 1.400 . S
C2273 C2274 1.398 . S
C2274 H2262 0.950 . S
C2274 C2273 1.398 . S
C2274 C2275 1.391 . S
C2275 H2263 0.950 . S
C2275 C2271 1.393 . S
C2275 C2274 1.391 . S
H2276 C2284 0.950 . S
H2277 C2289 0.950 . S
H2278 C2286 0.950 . S
H2279 C2288 0.950 . S
H2280 C2290 0.950 . S
H2281 C2292 0.950 . S
H2282 C2294 0.950 . S
H2283 C2295 0.950 . S
C2284 H2276 0.950 . S
C2284 C2285 1.386 . S
C2284 C2286 1.391 . S
C2285 C2284 1.386 . S
C2285 C2289 1.393 . S
C2286 H2278 0.950 . S
C2286 C2284 1.391 . S
C2286 C2287 1.400 . S
C2287 C2286 1.400 . S
C2287 C2288 1.398 . S
C2287 C2293 1.491 . S
C2288 H2279 0.950 . S
C2288 C2287 1.398 . S
C2288 C2289 1.391 . S
C2289 H2277 0.950 . S
C2289 C2285 1.393 . S
C2289 C2288 1.391 . S
C2290 H2280 0.950 . S
C2290 C2291 1.386 . S
C2290 C2292 1.391 . S
C2291 C2290 1.386 . S
C2291 C2295 1.393 . S
C2292 H2281 0.950 . S
C2292 C2290 1.391 . S
C2292 C2293 1.400 . S
C2293 C2287 1.491 . S
C2293 C2292 1.400 . S
C2293 C2294 1.398 . S
C2294 H2282 0.950 . S
C2294 C2293 1.398 . S
C2294 C2295 1.391 . S
C2295 H2283 0.950 . S
C2295 C2291 1.393 . S
C2295 C2294 1.391 . S
H2296 C2304 0.950 . S
H2297 C2309 0.950 . S
H2298 C2306 0.950 . S
H2299 C2308 0.950 . S
H2300 C2310 0.950 . S
H2301 C2312 0.950 . S
H2302 C2314 0.950 . S
H2303 C2315 0.950 1_565 S
C2304 H2296 0.950 . S
C2304 C2305 1.386 . S
C2304 C2306 1.391 . S
C2305 C2304 1.386 . S
C2305 C2309 1.393 . S
C2306 H2298 0.950 . S
C2306 C2304 1.391 . S
C2306 C2307 1.400 . S
C2307 C2306 1.400 . S
C2307 C2308 1.398 . S
C2307 C2313 1.491 . S
C2308 H2299 0.950 . S
C2308 C2307 1.398 . S
C2308 C2309 1.391 . S
C2309 H2297 0.950 . S
C2309 C2305 1.393 . S
C2309 C2308 1.391 . S
C2310 H2300 0.950 . S
C2310 C2311 1.386 . S
C2310 C2312 1.391 . S
C2311 C2310 1.386 . S
C2311 C2315 1.393 . S
C2312 H2301 0.950 . S
C2312 C2310 1.391 . S
C2312 C2313 1.400 . S
C2313 C2307 1.491 . S
C2313 C2312 1.400 . S
C2313 C2314 1.398 . S
C2314 H2302 0.950 . S
C2314 C2313 1.398 . S
C2314 C2315 1.391 . S
C2315 H2303 0.950 1_545 S
C2315 C2311 1.393 . S
C2315 C2314 1.391 . S
H2316 C2324 0.950 . S
H2317 C2329 0.950 . S
H2318 C2326 0.950 . S
H2319 C2328 0.950 . S
H2320 C2330 0.950 . S
H2321 C2332 0.950 . S
H2322 C2334 0.950 . S
H2323 C2335 0.950 . S
C2324 H2316 0.950 . S
C2324 C2325 1.386 . S
C2324 C2326 1.391 . S
C2325 C2324 1.386 . S
C2325 C2329 1.393 . S
C2326 H2318 0.950 . S
C2326 C2324 1.391 . S
C2326 C2327 1.400 . S
C2327 C2326 1.400 . S
C2327 C2328 1.398 . S
C2327 C2333 1.491 . S
C2328 H2319 0.950 . S
C2328 C2327 1.398 . S
C2328 C2329 1.391 . S
C2329 H2317 0.950 . S
C2329 C2325 1.393 . S
C2329 C2328 1.391 . S
C2330 H2320 0.950 . S
C2330 C2331 1.386 . S
C2330 C2332 1.391 . S
C2331 C2330 1.386 . S
C2331 C2335 1.393 . S
C2332 H2321 0.950 . S
C2332 C2330 1.391 . S
C2332 C2333 1.400 . S
C2333 C2327 1.491 . S
C2333 C2332 1.400 . S
C2333 C2334 1.398 . S
C2334 H2322 0.950 . S
C2334 C2333 1.398 . S
C2334 C2335 1.391 . S
C2335 H2323 0.950 . S
C2335 C2331 1.393 . S
C2335 C2334 1.391 . S
H2336 C2344 0.950 . S
H2337 C2349 0.950 . S
H2338 C2346 0.950 . S
H2339 C2348 0.950 . S
H2340 C2350 0.950 . S
H2341 C2352 0.950 . S
H2342 C2354 0.950 . S
H2343 C2355 0.950 . S
C2344 H2336 0.950 . S
C2344 C2345 1.386 . S
C2344 C2346 1.391 . S
C2345 C2344 1.386 . S
C2345 C2349 1.393 . S
C2346 H2338 0.950 . S
C2346 C2344 1.391 . S
C2346 C2347 1.400 . S
C2347 C2346 1.400 . S
C2347 C2348 1.398 . S
C2347 C2353 1.491 . S
C2348 H2339 0.950 . S
C2348 C2347 1.398 . S
C2348 C2349 1.391 . S
C2349 H2337 0.950 . S
C2349 C2345 1.393 . S
C2349 C2348 1.391 . S
C2350 H2340 0.950 . S
C2350 C2351 1.386 . S
C2350 C2352 1.391 . S
C2351 C2350 1.386 . S
C2351 C2355 1.393 . S
C2352 H2341 0.950 . S
C2352 C2350 1.391 . S
C2352 C2353 1.400 . S
C2353 C2347 1.491 . S
C2353 C2352 1.400 . S
C2353 C2354 1.398 . S
C2354 H2342 0.950 . S
C2354 C2353 1.398 . S
C2354 C2355 1.391 . S
C2355 H2343 0.950 . S
C2355 C2351 1.393 . S
C2355 C2354 1.391 . S
H2356 C2364 0.950 . S
H2357 C2369 0.950 . S
H2358 C2366 0.950 . S
H2359 C2368 0.950 . S
H2360 C2370 0.950 . S
H2361 C2372 0.950 . S
H2362 C2374 0.950 . S
H2363 C2375 0.950 . S
C2364 H2356 0.950 . S
C2364 C2365 1.386 . S
C2364 C2366 1.391 . S
C2365 C2364 1.386 . S
C2365 C2369 1.393 . S
C2366 H2358 0.950 . S
C2366 C2364 1.391 . S
C2366 C2367 1.400 . S
C2367 C2366 1.400 . S
C2367 C2368 1.398 . S
C2367 C2373 1.491 . S
C2368 H2359 0.950 . S
C2368 C2367 1.398 . S
C2368 C2369 1.391 . S
C2369 H2357 0.950 . S
C2369 C2365 1.393 . S
C2369 C2368 1.391 . S
C2370 H2360 0.950 . S
C2370 C2371 1.386 . S
C2370 C2372 1.391 . S
C2371 C2370 1.386 . S
C2371 C2375 1.393 . S
C2372 H2361 0.950 . S
C2372 C2370 1.391 . S
C2372 C2373 1.400 . S
C2373 C2367 1.491 . S
C2373 C2372 1.400 . S
C2373 C2374 1.398 . S
C2374 H2362 0.950 . S
C2374 C2373 1.398 . S
C2374 C2375 1.391 . S
C2375 H2363 0.950 . S
C2375 C2371 1.393 . S
C2375 C2374 1.391 . S
H2376 C2384 0.950 . S
H2377 C2389 0.950 . S
H2378 C2386 0.950 . S
H2379 C2388 0.950 . S
H2380 C2390 0.950 . S
H2381 C2392 0.950 . S
H2382 C2394 0.950 . S
H2383 C2395 0.950 . S
C2384 H2376 0.950 . S
C2384 C2385 1.386 . S
C2384 C2386 1.391 . S
C2385 C2384 1.386 . S
C2385 C2389 1.393 . S
C2386 H2378 0.950 . S
C2386 C2384 1.391 . S
C2386 C2387 1.400 . S
C2387 C2386 1.400 . S
C2387 C2388 1.398 . S
C2387 C2393 1.491 . S
C2388 H2379 0.950 . S
C2388 C2387 1.398 . S
C2388 C2389 1.391 . S
C2389 H2377 0.950 . S
C2389 C2385 1.393 . S
C2389 C2388 1.391 . S
C2390 H2380 0.950 . S
C2390 C2391 1.386 . S
C2390 C2392 1.391 . S
C2391 C2390 1.386 . S
C2391 C2395 1.393 . S
C2392 H2381 0.950 . S
C2392 C2390 1.391 . S
C2392 C2393 1.400 . S
C2393 C2387 1.491 . S
C2393 C2392 1.400 . S
C2393 C2394 1.398 . S
C2394 H2382 0.950 . S
C2394 C2393 1.398 . S
C2394 C2395 1.391 . S
C2395 H2383 0.950 . S
C2395 C2391 1.393 . S
C2395 C2394 1.391 . S
H2396 C2404 0.950 . S
H2397 C2409 0.950 . S
H2398 C2406 0.950 . S
H2399 C2408 0.950 . S
H2400 C2410 0.950 . S
H2401 C2412 0.950 . S
H2402 C2414 0.950 . S
H2403 C2415 0.950 . S
C2404 H2396 0.950 . S
C2404 C2405 1.386 . S
C2404 C2406 1.391 . S
C2405 C2404 1.386 . S
C2405 C2409 1.393 . S
C2406 H2398 0.950 . S
C2406 C2404 1.391 . S
C2406 C2407 1.400 . S
C2407 C2406 1.400 . S
C2407 C2408 1.398 . S
C2407 C2413 1.491 . S
C2408 H2399 0.950 . S
C2408 C2407 1.398 . S
C2408 C2409 1.391 . S
C2409 H2397 0.950 . S
C2409 C2405 1.393 . S
C2409 C2408 1.391 . S
C2410 H2400 0.950 . S
C2410 C2411 1.386 . S
C2410 C2412 1.391 . S
C2411 C2410 1.386 . S
C2411 C2415 1.393 . S
C2412 H2401 0.950 . S
C2412 C2410 1.391 . S
C2412 C2413 1.400 . S
C2413 C2407 1.491 . S
C2413 C2412 1.400 . S
C2413 C2414 1.398 . S
C2414 H2402 0.950 . S
C2414 C2413 1.398 . S
C2414 C2415 1.391 . S
C2415 H2403 0.950 . S
C2415 C2411 1.393 . S
C2415 C2414 1.391 . S
H2416 C2424 0.950 . S
H2417 C2429 0.950 . S
H2418 C2426 0.950 . S
H2419 C2428 0.950 . S
H2420 C2430 0.950 . S
H2421 C2432 0.950 . S
H2422 C2434 0.950 . S
H2423 C2435 0.950 . S
C2424 H2416 0.950 . S
C2424 C2425 1.386 . S
C2424 C2426 1.391 . S
C2425 C2424 1.386 . S
C2425 C2429 1.393 . S
C2426 H2418 0.950 . S
C2426 C2424 1.391 . S
C2426 C2427 1.400 . S
C2427 C2426 1.400 . S
C2427 C2428 1.398 . S
C2427 C2433 1.491 . S
C2428 H2419 0.950 . S
C2428 C2427 1.398 . S
C2428 C2429 1.391 . S
C2429 H2417 0.950 . S
C2429 C2425 1.393 . S
C2429 C2428 1.391 . S
C2430 H2420 0.950 . S
C2430 C2431 1.386 . S
C2430 C2432 1.391 . S
C2431 C2430 1.386 . S
C2431 C2435 1.393 . S
C2432 H2421 0.950 . S
C2432 C2430 1.391 . S
C2432 C2433 1.400 . S
C2433 C2427 1.491 . S
C2433 C2432 1.400 . S
C2433 C2434 1.398 . S
C2434 H2422 0.950 . S
C2434 C2433 1.398 . S
C2434 C2435 1.391 . S
C2435 H2423 0.950 . S
C2435 C2431 1.393 . S
C2435 C2434 1.391 . S
H2436 C2444 0.950 . S
H2437 C2449 0.950 . S
H2438 C2446 0.950 . S
H2439 C2448 0.950 . S
H2440 C2450 0.950 . S
H2441 C2452 0.950 . S
H2442 C2454 0.950 . S
H2443 C2455 0.950 . S
C2444 H2436 0.950 . S
C2444 C2445 1.386 . S
C2444 C2446 1.391 . S
C2445 C2444 1.386 . S
C2445 C2449 1.393 . S
C2446 H2438 0.950 . S
C2446 C2444 1.391 . S
C2446 C2447 1.400 . S
C2447 C2446 1.400 . S
C2447 C2448 1.398 . S
C2447 C2453 1.491 . S
C2448 H2439 0.950 . S
C2448 C2447 1.398 . S
C2448 C2449 1.391 . S
C2449 H2437 0.950 . S
C2449 C2445 1.393 . S
C2449 C2448 1.391 . S
C2450 H2440 0.950 . S
C2450 C2451 1.386 . S
C2450 C2452 1.391 . S
C2451 C2450 1.386 . S
C2451 C2455 1.393 . S
C2452 H2441 0.950 . S
C2452 C2450 1.391 . S
C2452 C2453 1.400 . S
C2453 C2447 1.491 . S
C2453 C2452 1.400 . S
C2453 C2454 1.398 . S
C2454 H2442 0.950 . S
C2454 C2453 1.398 . S
C2454 C2455 1.391 . S
C2455 H2443 0.950 . S
C2455 C2451 1.393 . S
C2455 C2454 1.391 . S
H2456 C2464 0.950 . S
H2457 C2469 0.950 . S
H2458 C2466 0.950 . S
H2459 C2468 0.950 . S
H2460 C2470 0.950 . S
H2461 C2472 0.950 . S
H2462 C2474 0.950 . S
H2463 C2475 0.950 . S
C2464 H2456 0.950 . S
C2464 C2465 1.386 . S
C2464 C2466 1.391 . S
C2465 C2464 1.386 . S
C2465 C2469 1.393 . S
C2466 H2458 0.950 . S
C2466 C2464 1.391 . S
C2466 C2467 1.400 . S
C2467 C2466 1.400 . S
C2467 C2468 1.398 . S
C2467 C2473 1.491 . S
C2468 H2459 0.950 . S
C2468 C2467 1.398 . S
C2468 C2469 1.391 . S
C2469 H2457 0.950 . S
C2469 C2465 1.393 . S
C2469 C2468 1.391 . S
C2470 H2460 0.950 . S
C2470 C2471 1.386 . S
C2470 C2472 1.391 . S
C2471 C2470 1.386 . S
C2471 C2475 1.393 . S
C2472 H2461 0.950 . S
C2472 C2470 1.391 . S
C2472 C2473 1.400 . S
C2473 C2467 1.491 . S
C2473 C2472 1.400 . S
C2473 C2474 1.398 . S
C2474 H2462 0.950 . S
C2474 C2473 1.398 . S
C2474 C2475 1.391 . S
C2475 H2463 0.950 . S
C2475 C2471 1.393 . S
C2475 C2474 1.391 . S
H2476 C2484 0.950 . S
H2477 C2489 0.950 . S
H2478 C2486 0.950 . S
H2479 C2488 0.950 . S
H2480 C2490 0.950 . S
H2481 C2492 0.950 . S
H2482 C2494 0.950 . S
H2483 C2495 0.950 . S
C2484 H2476 0.950 . S
C2484 C2485 1.386 . S
C2484 C2486 1.391 . S
C2485 C2484 1.386 . S
C2485 C2489 1.393 . S
C2486 H2478 0.950 . S
C2486 C2484 1.391 . S
C2486 C2487 1.400 . S
C2487 C2486 1.400 . S
C2487 C2488 1.398 . S
C2487 C2493 1.491 . S
C2488 H2479 0.950 . S
C2488 C2487 1.398 . S
C2488 C2489 1.391 . S
C2489 H2477 0.950 . S
C2489 C2485 1.393 . S
C2489 C2488 1.391 . S
C2490 H2480 0.950 . S
C2490 C2491 1.386 . S
C2490 C2492 1.391 . S
C2491 C2490 1.386 . S
C2491 C2495 1.393 . S
C2492 H2481 0.950 . S
C2492 C2490 1.391 . S
C2492 C2493 1.400 . S
C2493 C2487 1.491 . S
C2493 C2492 1.400 . S
C2493 C2494 1.398 . S
C2494 H2482 0.950 . S
C2494 C2493 1.398 . S
C2494 C2495 1.391 . S
C2495 H2483 0.950 . S
C2495 C2491 1.393 . S
C2495 C2494 1.391 . S
H2496 C2504 0.950 . S
H2497 C2509 0.950 . S
H2498 C2506 0.950 . S
H2499 C2508 0.950 . S
H2500 C2510 0.950 . S
H2501 C2512 0.950 . S
H2502 C2514 0.950 . S
H2503 C2515 0.950 . S
C2504 H2496 0.950 . S
C2504 C2505 1.386 . S
C2504 C2506 1.391 . S
C2505 C2504 1.386 . S
C2505 C2509 1.393 . S
C2506 H2498 0.950 . S
C2506 C2504 1.391 . S
C2506 C2507 1.400 . S
C2507 C2506 1.400 . S
C2507 C2508 1.398 . S
C2507 C2513 1.491 . S
C2508 H2499 0.950 . S
C2508 C2507 1.398 . S
C2508 C2509 1.391 . S
C2509 H2497 0.950 . S
C2509 C2505 1.393 . S
C2509 C2508 1.391 . S
C2510 H2500 0.950 . S
C2510 C2511 1.386 . S
C2510 C2512 1.391 . S
C2511 C2510 1.386 . S
C2511 C2515 1.393 . S
C2512 H2501 0.950 . S
C2512 C2510 1.391 . S
C2512 C2513 1.400 . S
C2513 C2507 1.491 . S
C2513 C2512 1.400 . S
C2513 C2514 1.398 . S
C2514 H2502 0.950 . S
C2514 C2513 1.398 . S
C2514 C2515 1.391 . S
C2515 H2503 0.950 . S
C2515 C2511 1.393 . S
C2515 C2514 1.391 . S
H2516 C2524 0.950 . S
H2517 C2529 0.950 . S
H2518 C2526 0.950 . S
H2519 C2528 0.950 . S
H2520 C2530 0.950 . S
H2521 C2532 0.950 . S
H2522 C2534 0.950 . S
H2523 C2535 0.950 . S
C2524 H2516 0.950 . S
C2524 C2525 1.386 . S
C2524 C2526 1.391 . S
C2525 C2524 1.386 . S
C2525 C2529 1.393 . S
C2526 H2518 0.950 . S
C2526 C2524 1.391 . S
C2526 C2527 1.400 . S
C2527 C2526 1.400 . S
C2527 C2528 1.398 . S
C2527 C2533 1.491 . S
C2528 H2519 0.950 . S
C2528 C2527 1.398 . S
C2528 C2529 1.391 . S
C2529 H2517 0.950 . S
C2529 C2525 1.393 . S
C2529 C2528 1.391 . S
C2530 H2520 0.950 . S
C2530 C2531 1.386 . S
C2530 C2532 1.391 . S
C2531 C2530 1.386 . S
C2531 C2535 1.393 . S
C2532 H2521 0.950 . S
C2532 C2530 1.391 . S
C2532 C2533 1.400 . S
C2533 C2527 1.491 . S
C2533 C2532 1.400 . S
C2533 C2534 1.398 . S
C2534 H2522 0.950 . S
C2534 C2533 1.398 . S
C2534 C2535 1.391 . S
C2535 H2523 0.950 . S
C2535 C2531 1.393 . S
C2535 C2534 1.391 . S
H2536 C2544 0.950 . S
H2537 C2549 0.950 . S
H2538 C2546 0.950 . S
H2539 C2548 0.950 . S
H2540 C2550 0.950 . S
H2541 C2552 0.950 . S
H2542 C2554 0.950 . S
H2543 C2555 0.950 . S
C2544 H2536 0.950 . S
C2544 C2545 1.386 . S
C2544 C2546 1.391 . S
C2545 C2544 1.386 . S
C2545 C2549 1.393 . S
C2546 H2538 0.950 . S
C2546 C2544 1.391 . S
C2546 C2547 1.400 . S
C2547 C2546 1.400 . S
C2547 C2548 1.398 . S
C2547 C2553 1.491 . S
C2548 H2539 0.950 . S
C2548 C2547 1.398 . S
C2548 C2549 1.391 . S
C2549 H2537 0.950 . S
C2549 C2545 1.393 . S
C2549 C2548 1.391 . S
C2550 H2540 0.950 . S
C2550 C2551 1.386 . S
C2550 C2552 1.391 . S
C2551 C2550 1.386 . S
C2551 C2555 1.393 . S
C2552 H2541 0.950 . S
C2552 C2550 1.391 . S
C2552 C2553 1.400 . S
C2553 C2547 1.491 . S
C2553 C2552 1.400 . S
C2553 C2554 1.398 . S
C2554 H2542 0.950 . S
C2554 C2553 1.398 . S
C2554 C2555 1.391 . S
C2555 H2543 0.950 . S
C2555 C2551 1.393 . S
C2555 C2554 1.391 . S
C1485 C522 1.451 . S
C1491 C787 1.376 . S
C1505 C562 1.456 . S
C1511 C871 1.397 . S
C1525 C495 1.486 . S
C1531 C951 1.445 . S
C1545 C455 1.428 . S
C1551 C867 1.384 . S
C1571 C955 1.331 . S
C1565 C362 1.386 . S
C1585 C402 1.430 . S
C1591 C783 1.390 . S
C1611 C776 1.417 . S
C1605 C442 1.458 . S
C1631 C860 1.363 . S
C1625 C375 1.427 . S
C1645 C415 1.487 . S
C1651 C962 1.438 . S
C1665 C535 1.437 . S
C1671 C878 1.392 . S
C1685 C575 1.361 . S
C1691 C944 1.291 . S
C1711 C794 1.408 . S
C1705 C482 1.424 . S
C1731 C1039 1.365 . S
C1725 C42 1.451 1_455 S
C1745 C82 1.456 . S
C1751 C1123 1.383 . S
C1765 C15 1.490 . S
C1771 C1203 1.454 . S
C1785 C695 1.428 . S
C1791 C1119 1.387 . S
C1805 C602 1.388 . S
C1811 C1207 1.334 . S
C1825 C642 1.431 . S
C1831 C1035 1.369 . S
C1845 C682 1.457 . S
C1851 C1028 1.418 . S
C1865 C615 1.428 . S
C1871 C1112 1.379 . S
C1891 C1214 1.429 . S
C1885 C655 1.482 . S
C1905 C55 1.435 . S
C1911 C1130 1.398 . S
C1931 C1196 1.308 . S
C1925 C95 1.362 1_455 S
C1945 C2 1.432 . S
C1951 C1046 1.418 . S
C1971 C1291 1.372 . S
C1965 C282 1.454 . S
C1985 C322 1.451 . S
C1991 C1375 1.395 . S
C2011 C1455 1.455 . S
C2005 C255 1.489 . S
C2031 C1371 1.383 . S
C2025 C215 1.435 . S
C2051 C1459 1.333 . S
C2045 C122 1.389 1_655 S
C2065 C162 1.429 . S
C2071 C1287 1.387 . S
C2085 C202 1.442 1_655 S
C2091 C1280 1.406 . S
C2105 C135 1.433 . S
C2111 C1364 1.353 . S
C2131 C1466 1.447 . S
C2125 C175 1.487 . S
C2145 C295 1.431 . S
C2151 C1382 1.382 . S
C2165 C335 1.361 . S
C2171 C1448 1.305 . S
C2185 C242 1.427 . S
C2191 C1298 1.411 . S
C2205 C621 1.404 . S
C2211 C790 1.328 . S
C2231 C874 1.339 . S
C2225 C661 1.507 . S
C2245 C701 1.481 . S
C2251 C946 1.371 . S
C2265 C261 1.500 . S
C2271 C862 1.354 . S
C2285 C301 1.466 . S
C2291 C958 1.316 . S
C2311 C778 1.309 . S
C2305 C341 1.414 . S
C2325 C141 1.418 . S
C2331 C1042 1.290 . S
C2345 C181 1.506 . S
C2351 C1126 1.351 . S
C2365 C221 1.481 . S
C2371 C1198 1.372 . S
C2385 C501 1.510 . S
C2391 C1114 1.375 . S
C2411 C1210 1.318 . S
C2405 C541 1.463 . S
C2425 C581 1.414 . S
C2431 C1030 1.308 . S
C2445 C381 1.404 . S
C2451 C1294 1.327 . S
C2465 C421 1.503 . S
C2471 C1378 1.364 . S
C2491 C1450 1.329 . S
C2485 C461 1.467 . S
C2505 C21 1.509 . S
C2511 C1366 1.388 . S
C2525 C61 1.459 . S
C2531 C1462 1.346 . S
C2545 C101 1.413 . S
C2551 C1282 1.293 . S
