# Generated by pormake.
# Topology ibd, (4,6)-cn, num edge types: 1
# Building blocks:
#     Node 0, Type 0, BuildingBlock: NAHDIM_clean_sbu_0, # of connection points: 4
#     Node 1, Type 0, BuildingBlock: NAHDIM_clean_sbu_0, # of connection points: 4
#     Node 2, Type 0, BuildingBlock: NAHDIM_clean_sbu_0, # of connection points: 4
#     Node 3, Type 0, BuildingBlock: NAHDIM_clean_sbu_0, # of connection points: 4
#     Node 4, Type 0, BuildingBlock: NAHDIM_clean_sbu_0, # of connection points: 4
#     Node 5, Type 0, BuildingBlock: NAHDIM_clean_sbu_0, # of connection points: 4
#     Node 6, Type 0, BuildingBlock: NAHDIM_clean_sbu_0, # of connection points: 4
#     Node 7, Type 0, BuildingBlock: NAHDIM_clean_sbu_0, # of connection points: 4
#     Node 8, Type 0, BuildingBlock: NAHDIM_clean_sbu_0, # of connection points: 4
#     Node 9, Type 0, BuildingBlock: NAHDIM_clean_sbu_0, # of connection points: 4
#     Node 10, Type 0, BuildingBlock: NAHDIM_clean_sbu_0, # of connection points: 4
#     Node 11, Type 0, BuildingBlock: NAHDIM_clean_sbu_0, # of connection points: 4
#     Node 12, Type 0, BuildingBlock: NAHDIM_clean_sbu_0, # of connection points: 4
#     Node 13, Type 0, BuildingBlock: NAHDIM_clean_sbu_0, # of connection points: 4
#     Node 14, Type 0, BuildingBlock: NAHDIM_clean_sbu_0, # of connection points: 4
#     Node 15, Type 0, BuildingBlock: NAHDIM_clean_sbu_0, # of connection points: 4
#     Node 16, Type 0, BuildingBlock: NAHDIM_clean_sbu_0, # of connection points: 4
#     Node 17, Type 0, BuildingBlock: NAHDIM_clean_sbu_0, # of connection points: 4
#     Node 18, Type 0, BuildingBlock: NAHDIM_clean_sbu_0, # of connection points: 4
#     Node 19, Type 0, BuildingBlock: NAHDIM_clean_sbu_0, # of connection points: 4
#     Node 20, Type 0, BuildingBlock: NAHDIM_clean_sbu_0, # of connection points: 4
#     Node 21, Type 0, BuildingBlock: NAHDIM_clean_sbu_0, # of connection points: 4
#     Node 22, Type 0, BuildingBlock: NAHDIM_clean_sbu_0, # of connection points: 4
#     Node 23, Type 0, BuildingBlock: NAHDIM_clean_sbu_0, # of connection points: 4
#     Node 24, Type 1, BuildingBlock: IZENUY_clean_sbu_0, # of connection points: 6
#     Node 25, Type 1, BuildingBlock: IZENUY_clean_sbu_0, # of connection points: 6
#     Node 26, Type 1, BuildingBlock: IZENUY_clean_sbu_0, # of connection points: 6
#     Node 27, Type 1, BuildingBlock: IZENUY_clean_sbu_0, # of connection points: 6
#     Node 28, Type 1, BuildingBlock: IZENUY_clean_sbu_0, # of connection points: 6
#     Node 29, Type 1, BuildingBlock: IZENUY_clean_sbu_0, # of connection points: 6
#     Node 30, Type 1, BuildingBlock: IZENUY_clean_sbu_0, # of connection points: 6
#     Node 31, Type 1, BuildingBlock: IZENUY_clean_sbu_0, # of connection points: 6
#     Node 32, Type 1, BuildingBlock: IZENUY_clean_sbu_0, # of connection points: 6
#     Node 33, Type 1, BuildingBlock: IZENUY_clean_sbu_0, # of connection points: 6
#     Node 34, Type 1, BuildingBlock: IZENUY_clean_sbu_0, # of connection points: 6
#     Node 35, Type 1, BuildingBlock: IZENUY_clean_sbu_0, # of connection points: 6
#     Node 36, Type 1, BuildingBlock: IZENUY_clean_sbu_0, # of connection points: 6
#     Node 37, Type 1, BuildingBlock: IZENUY_clean_sbu_0, # of connection points: 6
#     Node 38, Type 1, BuildingBlock: IZENUY_clean_sbu_0, # of connection points: 6
#     Node 39, Type 1, BuildingBlock: IZENUY_clean_sbu_0, # of connection points: 6
#     Edge 40, Type (0, 1), BuildingBlock: AJUNOK_clean_linker_0, # of connection points: 2
#     Edge 41, Type (0, 1), BuildingBlock: AJUNOK_clean_linker_0, # of connection points: 2
#     Edge 42, Type (0, 1), BuildingBlock: AJUNOK_clean_linker_0, # of connection points: 2
#     Edge 43, Type (0, 1), BuildingBlock: AJUNOK_clean_linker_0, # of connection points: 2
#     Edge 44, Type (0, 1), BuildingBlock: AJUNOK_clean_linker_0, # of connection points: 2
#     Edge 45, Type (0, 1), BuildingBlock: AJUNOK_clean_linker_0, # of connection points: 2
#     Edge 46, Type (0, 1), BuildingBlock: AJUNOK_clean_linker_0, # of connection points: 2
#     Edge 47, Type (0, 1), BuildingBlock: AJUNOK_clean_linker_0, # of connection points: 2
#     Edge 48, Type (0, 1), BuildingBlock: AJUNOK_clean_linker_0, # of connection points: 2
#     Edge 49, Type (0, 1), BuildingBlock: AJUNOK_clean_linker_0, # of connection points: 2
#     Edge 50, Type (0, 1), BuildingBlock: AJUNOK_clean_linker_0, # of connection points: 2
#     Edge 51, Type (0, 1), BuildingBlock: AJUNOK_clean_linker_0, # of connection points: 2
#     Edge 52, Type (0, 1), BuildingBlock: AJUNOK_clean_linker_0, # of connection points: 2
#     Edge 53, Type (0, 1), BuildingBlock: AJUNOK_clean_linker_0, # of connection points: 2
#     Edge 54, Type (0, 1), BuildingBlock: AJUNOK_clean_linker_0, # of connection points: 2
#     Edge 55, Type (0, 1), BuildingBlock: AJUNOK_clean_linker_0, # of connection points: 2
#     Edge 56, Type (0, 1), BuildingBlock: AJUNOK_clean_linker_0, # of connection points: 2
#     Edge 57, Type (0, 1), BuildingBlock: AJUNOK_clean_linker_0, # of connection points: 2
#     Edge 58, Type (0, 1), BuildingBlock: AJUNOK_clean_linker_0, # of connection points: 2
#     Edge 59, Type (0, 1), BuildingBlock: AJUNOK_clean_linker_0, # of connection points: 2
#     Edge 60, Type (0, 1), BuildingBlock: AJUNOK_clean_linker_0, # of connection points: 2
#     Edge 61, Type (0, 1), BuildingBlock: AJUNOK_clean_linker_0, # of connection points: 2
#     Edge 62, Type (0, 1), BuildingBlock: AJUNOK_clean_linker_0, # of connection points: 2
#     Edge 63, Type (0, 1), BuildingBlock: AJUNOK_clean_linker_0, # of connection points: 2
#     Edge 64, Type (0, 1), BuildingBlock: AJUNOK_clean_linker_0, # of connection points: 2
#     Edge 65, Type (0, 1), BuildingBlock: AJUNOK_clean_linker_0, # of connection points: 2
#     Edge 66, Type (0, 1), BuildingBlock: AJUNOK_clean_linker_0, # of connection points: 2
#     Edge 67, Type (0, 1), BuildingBlock: AJUNOK_clean_linker_0, # of connection points: 2
#     Edge 68, Type (0, 1), BuildingBlock: AJUNOK_clean_linker_0, # of connection points: 2
#     Edge 69, Type (0, 1), BuildingBlock: AJUNOK_clean_linker_0, # of connection points: 2
#     Edge 70, Type (0, 1), BuildingBlock: AJUNOK_clean_linker_0, # of connection points: 2
#     Edge 71, Type (0, 1), BuildingBlock: AJUNOK_clean_linker_0, # of connection points: 2
#     Edge 72, Type (0, 1), BuildingBlock: AJUNOK_clean_linker_0, # of connection points: 2
#     Edge 73, Type (0, 1), BuildingBlock: AJUNOK_clean_linker_0, # of connection points: 2
#     Edge 74, Type (0, 1), BuildingBlock: AJUNOK_clean_linker_0, # of connection points: 2
#     Edge 75, Type (0, 1), BuildingBlock: AJUNOK_clean_linker_0, # of connection points: 2
#     Edge 76, Type (0, 1), BuildingBlock: AJUNOK_clean_linker_0, # of connection points: 2
#     Edge 77, Type (0, 1), BuildingBlock: AJUNOK_clean_linker_0, # of connection points: 2
#     Edge 78, Type (0, 1), BuildingBlock: AJUNOK_clean_linker_0, # of connection points: 2
#     Edge 79, Type (0, 1), BuildingBlock: AJUNOK_clean_linker_0, # of connection points: 2
#     Edge 80, Type (0, 1), BuildingBlock: AJUNOK_clean_linker_0, # of connection points: 2
#     Edge 81, Type (0, 1), BuildingBlock: AJUNOK_clean_linker_0, # of connection points: 2
#     Edge 82, Type (0, 1), BuildingBlock: AJUNOK_clean_linker_0, # of connection points: 2
#     Edge 83, Type (0, 1), BuildingBlock: AJUNOK_clean_linker_0, # of connection points: 2
#     Edge 84, Type (0, 1), BuildingBlock: AJUNOK_clean_linker_0, # of connection points: 2
#     Edge 85, Type (0, 1), BuildingBlock: AJUNOK_clean_linker_0, # of connection points: 2
#     Edge 86, Type (0, 1), BuildingBlock: AJUNOK_clean_linker_0, # of connection points: 2
#     Edge 87, Type (0, 1), BuildingBlock: AJUNOK_clean_linker_0, # of connection points: 2
#     Edge 88, Type (0, 1), BuildingBlock: AJUNOK_clean_linker_0, # of connection points: 2
#     Edge 89, Type (0, 1), BuildingBlock: AJUNOK_clean_linker_0, # of connection points: 2
#     Edge 90, Type (0, 1), BuildingBlock: AJUNOK_clean_linker_0, # of connection points: 2
#     Edge 91, Type (0, 1), BuildingBlock: AJUNOK_clean_linker_0, # of connection points: 2
#     Edge 92, Type (0, 1), BuildingBlock: AJUNOK_clean_linker_0, # of connection points: 2
#     Edge 93, Type (0, 1), BuildingBlock: AJUNOK_clean_linker_0, # of connection points: 2
#     Edge 94, Type (0, 1), BuildingBlock: AJUNOK_clean_linker_0, # of connection points: 2
#     Edge 95, Type (0, 1), BuildingBlock: AJUNOK_clean_linker_0, # of connection points: 2
#     Edge 96, Type (0, 1), BuildingBlock: AJUNOK_clean_linker_0, # of connection points: 2
#     Edge 97, Type (0, 1), BuildingBlock: AJUNOK_clean_linker_0, # of connection points: 2
#     Edge 98, Type (0, 1), BuildingBlock: AJUNOK_clean_linker_0, # of connection points: 2
#     Edge 99, Type (0, 1), BuildingBlock: AJUNOK_clean_linker_0, # of connection points: 2
#     Edge 100, Type (0, 1), BuildingBlock: AJUNOK_clean_linker_0, # of connection points: 2
#     Edge 101, Type (0, 1), BuildingBlock: AJUNOK_clean_linker_0, # of connection points: 2
#     Edge 102, Type (0, 1), BuildingBlock: AJUNOK_clean_linker_0, # of connection points: 2
#     Edge 103, Type (0, 1), BuildingBlock: AJUNOK_clean_linker_0, # of connection points: 2
#     Edge 104, Type (0, 1), BuildingBlock: AJUNOK_clean_linker_0, # of connection points: 2
#     Edge 105, Type (0, 1), BuildingBlock: AJUNOK_clean_linker_0, # of connection points: 2
#     Edge 106, Type (0, 1), BuildingBlock: AJUNOK_clean_linker_0, # of connection points: 2
#     Edge 107, Type (0, 1), BuildingBlock: AJUNOK_clean_linker_0, # of connection points: 2
#     Edge 108, Type (0, 1), BuildingBlock: AJUNOK_clean_linker_0, # of connection points: 2
#     Edge 109, Type (0, 1), BuildingBlock: AJUNOK_clean_linker_0, # of connection points: 2
#     Edge 110, Type (0, 1), BuildingBlock: AJUNOK_clean_linker_0, # of connection points: 2
#     Edge 111, Type (0, 1), BuildingBlock: AJUNOK_clean_linker_0, # of connection points: 2
#     Edge 112, Type (0, 1), BuildingBlock: AJUNOK_clean_linker_0, # of connection points: 2
#     Edge 113, Type (0, 1), BuildingBlock: AJUNOK_clean_linker_0, # of connection points: 2
#     Edge 114, Type (0, 1), BuildingBlock: AJUNOK_clean_linker_0, # of connection points: 2
#     Edge 115, Type (0, 1), BuildingBlock: AJUNOK_clean_linker_0, # of connection points: 2
#     Edge 116, Type (0, 1), BuildingBlock: AJUNOK_clean_linker_0, # of connection points: 2
#     Edge 117, Type (0, 1), BuildingBlock: AJUNOK_clean_linker_0, # of connection points: 2
#     Edge 118, Type (0, 1), BuildingBlock: AJUNOK_clean_linker_0, # of connection points: 2
#     Edge 119, Type (0, 1), BuildingBlock: AJUNOK_clean_linker_0, # of connection points: 2
#     Edge 120, Type (0, 1), BuildingBlock: AJUNOK_clean_linker_0, # of connection points: 2
#     Edge 121, Type (0, 1), BuildingBlock: AJUNOK_clean_linker_0, # of connection points: 2
#     Edge 122, Type (0, 1), BuildingBlock: AJUNOK_clean_linker_0, # of connection points: 2
#     Edge 123, Type (0, 1), BuildingBlock: AJUNOK_clean_linker_0, # of connection points: 2
#     Edge 124, Type (0, 1), BuildingBlock: AJUNOK_clean_linker_0, # of connection points: 2
#     Edge 125, Type (0, 1), BuildingBlock: AJUNOK_clean_linker_0, # of connection points: 2
#     Edge 126, Type (0, 1), BuildingBlock: AJUNOK_clean_linker_0, # of connection points: 2
#     Edge 127, Type (0, 1), BuildingBlock: AJUNOK_clean_linker_0, # of connection points: 2
#     Edge 128, Type (0, 1), BuildingBlock: AJUNOK_clean_linker_0, # of connection points: 2
#     Edge 129, Type (0, 1), BuildingBlock: AJUNOK_clean_linker_0, # of connection points: 2
#     Edge 130, Type (0, 1), BuildingBlock: AJUNOK_clean_linker_0, # of connection points: 2
#     Edge 131, Type (0, 1), BuildingBlock: AJUNOK_clean_linker_0, # of connection points: 2
#     Edge 132, Type (0, 1), BuildingBlock: AJUNOK_clean_linker_0, # of connection points: 2
#     Edge 133, Type (0, 1), BuildingBlock: AJUNOK_clean_linker_0, # of connection points: 2
#     Edge 134, Type (0, 1), BuildingBlock: AJUNOK_clean_linker_0, # of connection points: 2
#     Edge 135, Type (0, 1), BuildingBlock: AJUNOK_clean_linker_0, # of connection points: 2
# Relax obj value: 0.317
# Max RMSD: 0.299
# Mean RMSD: 0.268
data_MOF--net-ibd--node1-NAHDIM_clean_sbu_0--node2-IZENUY_clean_sbu_0--edge1-AJUNOK_clean_linker_0
_symmetry_space_group_name_H-M    P1
_symmetry_Int_Tables_number       1
_symmetry_cell_setting            triclinic
loop_
_symmetry_equiv_pos_as_xyz
'x, y, z'
_cell_length_a     36.381897
_cell_length_b     36.316619
_cell_length_c     36.323387
_cell_angle_alpha  90.796629
_cell_angle_beta   90.910144
_cell_angle_gamma 91.74226
loop_
_atom_site_label
_atom_site_type_symbol
_atom_site_fract_x
_atom_site_fract_y
_atom_site_fract_z
_atom_type_partial_charge
C0 C 0.06534 0.21986 0.32028 0.0
O1 O 0.06065 0.25559 0.3213 0.0
O2 O 0.04074 0.25558 0.41588 0.0
Zn3 Zn 0.0152 0.22419 0.37797 0.0
O4 O 0.98207 0.25585 0.34818 0.0
C5 C 0.96041 0.20087 0.42387 0.0
O6 O 0.95267 0.23547 0.41826 0.0
O7 O 0.04956 0.19992 0.34406 0.0
C8 C 0.95584 0.24257 0.32821 0.0
O9 O 0.94932 0.20678 0.32773 0.0
C10 C 0.04755 0.28993 0.41382 0.0
O11 O 0.04164 0.30723 0.38289 0.0
O12 O 0.98697 0.18709 0.40687 0.0
C13 C 0.01994 0.69315 0.66173 0.0
O14 O 0.98519 0.68299 0.6571 0.0
O15 O 0.96794 0.71787 0.58178 0.0
Zn16 Zn 0.99479 0.7503 0.6189 0.0
O17 O 0.96283 0.76796 0.65941 0.0
C18 C 0.00411 0.81203 0.57096 0.0
O19 O 0.9683 0.80752 0.56714 0.0
O20 O 0.03209 0.72129 0.64498 0.0
C21 C 0.93321 0.7855 0.65954 0.0
O22 O 0.91837 0.79586 0.62831 0.0
C23 C 0.93495 0.70556 0.58319 0.0
O24 O 0.91442 0.71444 0.61116 0.0
O25 O 0.02111 0.79139 0.59293 0.0
C26 C 0.54359 0.72457 0.82903 0.0
O27 O 0.5409 0.76048 0.83209 0.0
O28 O 0.52693 0.76714 0.91586 0.0
Zn29 Zn 0.49532 0.73103 0.88738 0.0
O30 O 0.45907 0.76011 0.85848 0.0
C31 C 0.44018 0.69902 0.93515 0.0
O32 O 0.41854 0.72249 0.91911 0.0
O33 O 0.52639 0.70424 0.85158 0.0
C34 C 0.44073 0.74553 0.83181 0.0
O35 O 0.44276 0.70989 0.82586 0.0
C36 C 0.5112 0.79242 0.93354 0.0
O37 O 0.4752 0.79409 0.93157 0.0
O38 O 0.47302 0.6967 0.92432 0.0
C39 C 0.54421 0.21055 0.17471 0.0
O40 O 0.52128 0.18885 0.15564 0.0
O41 O 0.48736 0.22592 0.09956 0.0
Zn42 Zn 0.50627 0.26465 0.13549 0.0
O43 O 0.46854 0.27803 0.17233 0.0
C44 C 0.50746 0.31727 0.07846 0.0
O45 O 0.47445 0.30238 0.07274 0.0
O46 O 0.54578 0.24466 0.16761 0.0
C47 C 0.43862 0.29502 0.17153 0.0
O48 O 0.42699 0.30941 0.14065 0.0
C49 C 0.45786 0.20667 0.10247 0.0
O50 O 0.43664 0.21189 0.13087 0.0
O51 O 0.52605 0.30717 0.10625 0.0
C52 C 0.07274 0.72855 0.07767 0.0
O53 O 0.08085 0.76368 0.08341 0.0
O54 O 0.04902 0.77492 0.16466 0.0
Zn55 Zn 0.01809 0.74828 0.12594 0.0
O56 O -0.00151 0.78229 0.08792 0.0
C57 C 0.96038 0.73873 0.17607 0.0
O58 O 0.96785 0.77418 0.18003 0.0
O59 O 0.04734 0.71344 0.09628 0.0
C60 C 0.98121 0.81208 0.08924 0.0
O61 O 0.97123 0.82575 0.12108 0.0
C62 C 0.06085 0.80817 0.16388 0.0
O63 O 0.05529 0.82754 0.13416 0.0
O64 O 0.97788 0.72065 0.15223 0.0
C65 C 0.56529 0.68134 0.41986 0.0
O66 O 0.54162 0.66417 0.39746 0.0
O67 O 0.50092 0.72993 0.358 0.0
Zn68 Zn 0.53731 0.75306 0.39447 0.0
O69 O 0.514 0.78579 0.43191 0.0
C70 C 0.5554 0.80119 0.33984 0.0
O71 O 0.51946 0.80331 0.34074 0.0
O72 O 0.56681 0.7163 0.42149 0.0
C73 C 0.48194 0.79855 0.42986 0.0
O74 O 0.46102 0.79047 0.40088 0.0
C75 C 0.47422 0.70716 0.3621 0.0
O76 O 0.46671 0.69481 0.39504 0.0
O77 O 0.5717 0.78225 0.36372 0.0
C78 C 0.5578 0.19337 0.60311 0.0
O79 O 0.58153 0.21266 0.62373 0.0
O80 O 0.53973 0.26314 0.67033 0.0
Zn81 Zn 0.50305 0.24089 0.63417 0.0
O82 O 0.4873 0.27671 0.5957 0.0
C83 C 0.45246 0.23801 0.69246 0.0
O84 O 0.46562 0.27186 0.69717 0.0
O85 O 0.52385 0.19972 0.6055 0.0
C86 C 0.47803 0.31009 0.59795 0.0
O87 O 0.47617 0.32636 0.63036 0.0
C88 C 0.56009 0.2919 0.66727 0.0
O89 O 0.56021 0.30964 0.636 0.0
O90 O 0.46203 0.21983 0.66427 0.0
C91 C 0.03281 0.20297 0.91085 0.0
O92 O -0.00296 0.20073 0.90534 0.0
O93 O 0.99212 0.2513 0.83239 0.0
Zn94 Zn 0.02613 0.27093 0.87209 0.0
O95 O -0.00103 0.30082 0.90873 0.0
C96 C 0.05778 0.33333 0.83654 0.0
O97 O 0.02815 0.3491 0.8486 0.0
O98 O 0.05092 0.23025 0.89818 0.0
C99 C 0.01637 0.31379 0.9368 0.0
O100 O 0.05184 0.30837 0.93989 0.0
C101 C 0.95818 0.24282 0.83505 0.0
O102 O 0.94198 0.24574 0.86697 0.0
O103 O 0.06401 0.30073 0.8463 0.0
C104 C 0.42479 0.95363 0.22259 0.0
O105 O 0.41841 0.94485 0.2569 0.0
O106 O 0.33406 0.9725 0.26211 0.0
Zn107 Zn 0.37455 0.00531 0.24276 0.0
O108 O 0.40899 0.02264 0.28314 0.0
C109 C 0.32556 0.06272 0.23152 0.0
O110 O 0.32004 0.05641 0.26656 0.0
O111 O 0.40634 0.97877 0.20799 0.0
C112 C 0.40459 0.03709 0.3147 0.0
O113 O 0.37176 0.04624 0.3254 0.0
C114 C 0.33429 0.95718 0.29334 0.0
O115 O 0.36372 0.96069 0.31465 0.0
O116 O 0.35086 0.04578 0.21551 0.0
C117 C 0.32049 0.0798 0.54806 0.0
O118 O 0.31044 0.07555 0.51335 0.0
O119 O 0.28554 0.17004 0.50604 0.0
Zn120 Zn 0.26604 0.13351 0.54259 0.0
O121 O 0.23009 0.09665 0.51861 0.0
C122 C 0.20767 0.17155 0.57828 0.0
O123 O 0.18671 0.15136 0.55564 0.0
O124 O 0.30587 0.10485 0.56712 0.0
C125 C 0.21401 0.10124 0.48776 0.0
O126 O 0.21947 0.13247 0.47058 0.0
C127 C 0.30593 0.16823 0.47807 0.0
O128 O 0.31983 0.1367 0.46829 0.0
O129 O 0.24195 0.16606 0.57963 0.0
C130 C 0.18571 0.95324 0.73246 0.0
O131 O 0.18069 0.95206 0.76816 0.0
O132 O 0.09377 0.97308 0.76766 0.0
Zn133 Zn 0.1306 0.00483 0.74155 0.0
O134 O 0.15992 0.03685 0.77729 0.0
C135 C 0.0748 0.05081 0.72799 0.0
O136 O 0.07747 0.0496 0.76407 0.0
O137 O 0.16569 0.97406 0.71337 0.0
C138 C 0.18028 0.0625 0.76455 0.0
O139 O 0.17977 0.06803 0.72887 0.0
C140 C 0.09231 0.96581 0.80168 0.0
O141 O 0.11935 0.97667 0.82403 0.0
O142 O 0.09911 0.03537 0.70896 0.0
C143 C 0.30747 0.83503 0.06169 0.0
O144 O 0.32916 0.86404 0.05664 0.0
O145 O 0.28923 0.90591 0.98925 0.0
Zn146 Zn 0.2554 0.86594 0.00757 0.0
O147 O 0.22986 0.83754 0.96644 0.0
C148 C 0.19555 0.91215 0.0148 0.0
O149 O 0.19753 0.9101 0.97874 0.0
O150 O 0.27765 0.83112 0.04323 0.0
C151 C 0.23941 0.83338 0.93318 0.0
O152 O 0.27068 0.84786 0.92198 0.0
C153 C 0.31818 0.90626 0.9702 0.0
O154 O 0.33276 0.87519 0.95994 0.0
O155 O 0.21716 0.89322 0.03408 0.0
C156 C 0.23449 0.44308 0.96278 0.0
O157 O 0.27045 0.44509 0.9667 0.0
O158 O 0.27283 0.34541 0.96406 0.0
Zn159 Zn 0.24854 0.37921 -0.00072 0.0
O160 O 0.28394 0.40994 0.03056 0.0
C161 C 0.23594 0.32598 0.05232 0.0
O162 O 0.27199 0.32943 0.05378 0.0
O163 O 0.21702 0.41431 0.97285 0.0
C164 C 0.2703 0.42497 0.05876 0.0
O165 O 0.23613 0.41664 0.06731 0.0
C166 C 0.3071 0.34001 0.9644 0.0
O167 O 0.32873 0.36015 0.98646 0.0
O168 O 0.21827 0.34678 0.03107 0.0
C169 C 0.69244 0.17074 0.95461 0.0
O170 O 0.67338 0.15355 0.9799 0.0
O171 O 0.78517 0.09492 0.95652 0.0
Zn172 Zn 0.75165 0.12824 0.98448 0.0
O173 O 0.77997 0.16279 0.01932 0.0
C174 C 0.72649 0.07144 0.03195 0.0
O175 O 0.76205 0.06853 0.03694 0.0
O176 O 0.7258 0.1625 0.95003 0.0
C177 C 0.79729 0.16006 0.04982 0.0
O178 O 0.79943 0.12809 0.06596 0.0
C179 C 0.81545 0.08361 0.96942 0.0
O180 O 0.82768 0.09597 0.00158 0.0
O181 O 0.71455 0.09584 0.01056 0.0
C182 C 0.06191 0.51647 0.3484 0.0
O183 O 0.05894 0.4809 0.34137 0.0
O184 O 0.15685 0.47239 0.33165 0.0
Zn185 Zn 0.12436 0.50743 0.30493 0.0
O186 O 0.09072 0.48166 0.26735 0.0
C187 C 0.18406 0.53409 0.26334 0.0
O188 O 0.18898 0.4986 0.25966 0.0
O189 O 0.09078 0.53387 0.33845 0.0
C190 C 0.09576 0.46656 0.23611 0.0
O191 O 0.12888 0.46571 0.22237 0.0
C192 C 0.16432 0.44094 0.31842 0.0
O193 O 0.14667 0.42848 0.28882 0.0
O194 O 0.1571 0.54544 0.28151 0.0
C195 C 0.6935 0.9107 0.46516 0.0
O196 O 0.70017 0.88358 0.44216 0.0
O197 O 0.75962 0.84238 0.4711 0.0
Zn198 Zn 0.74549 0.87488 0.51321 0.0
O199 O 0.78775 0.90626 0.53273 0.0
C200 C 0.74811 0.81694 0.56324 0.0
O201 O 0.7815 0.81639 0.54999 0.0
O202 O 0.70796 0.91071 0.4972 0.0
C203 C 0.78623 0.91745 0.56592 0.0
O204 O 0.76004 0.90398 0.58678 0.0
C205 C 0.78839 0.84569 0.45199 0.0
O206 O 0.81182 0.87325 0.45892 0.0
O207 O 0.72643 0.84134 0.55211 0.0
C208 C 0.81398 0.07773 0.25712 0.0
O209 O 0.81079 0.06717 0.22244 0.0
O210 O 0.91237 0.01747 0.29098 0.0
Zn211 Zn 0.8743 0.03083 0.25398 0.0
O212 O 0.84302 0.9866 0.23778 0.0
C213 C 0.92416 0.02952 0.1973 0.0
O214 O 0.92505 0.99565 0.20948 0.0
O215 O 0.84117 0.06718 0.27607 0.0
C216 C 0.83399 0.98193 0.20407 0.0
O217 O 0.84687 0.00527 0.17981 0.0
C218 C 0.90944 0.99116 0.3134 0.0
O219 O 0.87879 0.97109 0.31381 0.0
O220 O 0.90205 0.05161 0.21191 0.0
C221 C 0.19654 0.68439 0.44638 0.0
O222 O 0.17911 0.67049 0.47463 0.0
O223 O 0.29154 0.61078 0.45382 0.0
Zn224 Zn 0.25346 0.64209 0.47668 0.0
O225 O 0.27624 0.67769 0.51298 0.0
C226 C 0.20666 0.57904 0.48637 0.0
O227 O 0.21631 0.57268 0.45221 0.0
O228 O 0.22856 0.67348 0.43949 0.0
C229 C 0.28393 0.67306 0.54677 0.0
O230 O 0.27789 0.64094 0.56207 0.0
C231 C 0.3096 0.58971 0.47455 0.0
O232 O 0.30453 0.59146 0.51022 0.0
O233 O 0.21821 0.60851 0.50242 0.0
C234 C 0.32336 0.56343 0.74265 0.0
O235 O 0.3201 0.55526 0.70737 0.0
O236 O 0.42856 0.50567 0.7624 0.0
Zn237 Zn 0.38701 0.52432 0.73118 0.0
O238 O 0.35785 0.4834 0.70585 0.0
C239 C 0.41238 0.55005 0.66008 0.0
O240 O 0.39694 0.51952 0.64652 0.0
O241 O 0.35171 0.55343 0.7603 0.0
C242 C 0.33394 0.46606 0.72456 0.0
O243 O 0.33267 0.47283 0.76011 0.0
C244 C 0.42637 0.49081 0.79377 0.0
O245 O 0.39406 0.48561 0.80878 0.0
O246 O 0.40971 0.55741 0.69418 0.0
C247 C 0.57604 0.01074 0.82333 0.0
O248 O 0.56972 0.97811 0.80805 0.0
O249 O 0.67008 0.97112 0.78913 0.0
Zn250 Zn 0.63563 0.00998 0.77383 0.0
O251 O 0.60149 0.99034 0.73378 0.0
C252 C 0.66207 0.0715 0.72884 0.0
O253 O 0.63159 0.06664 0.70927 0.0
O254 O 0.6048 0.02903 0.81459 0.0
C255 C 0.60173 0.95733 0.72173 0.0
O256 O 0.62703 0.93531 0.73392 0.0
C257 C 0.66763 0.9476 0.81451 0.0
O258 O 0.63919 0.94736 0.83632 0.0
O259 O 0.66784 0.05115 0.75628 0.0
C260 C 0.83475 0.57562 0.0412 0.0
O261 O 0.83226 0.57487 0.00509 0.0
O262 O 0.79658 0.66106 0.99569 0.0
Zn263 Zn 0.77615 0.62483 0.03172 0.0
O264 O 0.74142 0.58723 0.00755 0.0
C265 C 0.71705 0.66397 0.06316 0.0
O266 O 0.69736 0.64502 0.03845 0.0
O267 O 0.8146 0.59732 0.05893 0.0
C268 C 0.72334 0.5914 0.97774 0.0
O269 O 0.72608 0.62299 0.96069 0.0
C270 C 0.80937 0.65835 0.96348 0.0
O271 O 0.81254 0.62582 0.94782 0.0
O272 O 0.75075 0.65704 0.06744 0.0
C273 C 0.9293 0.49094 0.6944 0.0
O274 O 0.92976 0.52569 0.70501 0.0
O275 O 0.84844 0.44451 0.77358 0.0
Zn276 Zn 0.88028 0.48566 0.75419 0.0
O277 O 0.91806 0.50408 0.79164 0.0
C278 C 0.81667 0.52924 0.75683 0.0
O279 O 0.81347 0.51239 0.78841 0.0
O280 O 0.90843 0.46803 0.71083 0.0
C281 C 0.91663 0.53288 0.81171 0.0
O282 O 0.88744 0.55322 0.80967 0.0
C283 C 0.84613 0.43704 0.80752 0.0
O284 O 0.86936 0.45341 0.83098 0.0
O285 O 0.84536 0.5245 0.73797 0.0
C286 C 0.79554 0.33515 0.53108 0.0
O287 O 0.80699 0.33938 0.49723 0.0
O288 O 0.76965 0.42146 0.48296 0.0
Zn289 Zn 0.73927 0.38143 0.50625 0.0
O290 O 0.72013 0.34338 0.47006 0.0
C291 C 0.66701 0.41047 0.53192 0.0
O292 O 0.64956 0.397 0.50258 0.0
O293 O 0.76844 0.35318 0.542 0.0
C294 C 0.69837 0.34415 0.44249 0.0
O295 O 0.68239 0.37484 0.43374 0.0
C296 C 0.77852 0.4228 0.44933 0.0
O297 O 0.76901 0.39517 0.42711 0.0
O298 O 0.70121 0.40571 0.53616 0.0
C299 C 0.67879 0.42589 0.21463 0.0
O300 O 0.67584 0.42766 0.25062 0.0
O301 O 0.59808 0.45661 0.26308 0.0
Zn302 Zn 0.62817 0.48139 0.22359 0.0
O303 O 0.66484 0.5179 0.24537 0.0
C304 C 0.56382 0.49317 0.18096 0.0
O305 O 0.55827 0.45802 0.18775 0.0
O306 O 0.65788 0.44545 0.19514 0.0
C307 C 0.65977 0.55151 0.25338 0.0
O308 O 0.62704 0.56536 0.24965 0.0
C309 C 0.57679 0.47669 0.28153 0.0
O310 O 0.57682 0.51214 0.27502 0.0
O311 O 0.59389 0.50874 0.19153 0.0
Fe312 Fe 0.12443 0.08523 0.14593 0.0
Fe313 Fe 0.09413 0.15342 0.10981 0.0
O314 O 0.12707 0.1189 0.11161 0.0
Fe315 Fe 0.16268 0.11809 0.07929 0.0
O316 O 0.14781 0.07278 0.06287 0.0
O317 O 0.14405 0.04867 0.11767 0.0
O318 O 0.07972 0.06914 0.12924 0.0
C319 C 0.05222 0.08933 0.12779 0.0
C320 C 0.19802 0.101 0.14644 0.0
O321 O 0.05655 0.1241 0.1275 0.0
C322 C 0.16059 0.19161 0.09404 0.0
O323 O 0.10456 0.11568 0.18056 0.0
O324 O 0.10721 0.17013 0.15542 0.0
O325 O 0.19689 0.09949 0.11152 0.0
O326 O 0.16876 0.09981 0.16445 0.0
C327 C 0.10023 0.13783 0.03688 0.0
O328 O 0.12583 0.18894 0.09188 0.0
O329 O 0.17954 0.16321 0.09394 0.0
C330 C 0.10646 0.15044 0.18369 0.0
O331 O 0.07936 0.1386 0.0642 0.0
O332 O 0.13483 0.1369 0.04154 0.0
C333 C 0.1454 0.0449 0.08303 0.0
Fe334 Fe 0.08173 0.86713 0.37891 0.0
Fe335 Fe 0.12085 0.93605 0.35002 0.0
O336 O 0.11828 0.90013 0.38226 0.0
Fe337 Fe 0.15201 0.89696 0.4175 0.0
O338 O 0.16422 0.85132 0.40199 0.0
O339 O 0.10772 0.82905 0.39779 0.0
O340 O 0.09611 0.85255 0.3337 0.0
C341 C 0.0986 0.87379 0.30661 0.0
C342 C 0.08466 0.87891 0.45293 0.0
O343 O 0.10013 0.90842 0.31171 0.0
C344 C 0.14487 0.97153 0.41696 0.0
O345 O 0.04858 0.89885 0.35973 0.0
O346 O 0.07665 0.95297 0.36385 0.0
O347 O 0.11955 0.87831 0.45173 0.0
O348 O 0.06561 0.8801 0.42375 0.0
C349 C 0.19291 0.91739 0.35458 0.0
O350 O 0.14258 0.97004 0.38214 0.0
O351 O 0.1425 0.94244 0.43544 0.0
C352 C 0.04732 0.93356 0.36233 0.0
O353 O 0.16487 0.92122 0.33436 0.0
O354 O 0.19001 0.91492 0.38925 0.0
C355 C 0.14194 0.82417 0.39941 0.0
Fe356 Fe 0.391 0.9048 0.67519 0.0
Fe357 Fe 0.35613 0.87789 0.60222 0.0
O358 O 0.38917 0.87322 0.63776 0.0
Fe359 Fe 0.42032 0.83698 0.6358 0.0
O360 O 0.40366 0.81853 0.67834 0.0
O361 O 0.40627 0.87087 0.70929 0.0
O362 O 0.3444 0.89259 0.6878 0.0
C363 C 0.31698 0.89599 0.66667 0.0
C364 C 0.46407 0.89761 0.66271 0.0
O365 O 0.32113 0.89774 0.63213 0.0
C366 C 0.41945 0.85595 0.56379 0.0
O367 O 0.37598 0.94429 0.64776 0.0
O368 O 0.37499 0.92278 0.59096 0.0
O369 O 0.45835 0.86312 0.65913 0.0
O370 O 0.43754 0.91896 0.66469 0.0
C371 C 0.35301 0.8037 0.61079 0.0
O372 O 0.38489 0.85885 0.56568 0.0
O373 O 0.43863 0.85313 0.59273 0.0
C374 C 0.37694 0.94964 0.6133 0.0
O375 O 0.33564 0.8332 0.61162 0.0
O376 O 0.38785 0.80434 0.61243 0.0
C377 C 0.40306 0.83595 0.70846 0.0
Fe378 Fe 0.4179 0.15462 0.89629 0.0
Fe379 Fe 0.37761 0.09266 0.85253 0.0
O380 O 0.37949 0.12421 0.88995 0.0
Fe381 Fe 0.34285 0.12544 0.92128 0.0
O382 O 0.33374 0.17281 0.9096 0.0
O383 O 0.39135 0.19194 0.91612 0.0
O384 O 0.40983 0.17534 0.85224 0.0
C385 C 0.40673 0.15842 0.82185 0.0
C386 C 0.40588 0.13753 0.96749 0.0
O387 O 0.40194 0.12366 0.82063 0.0
C388 C 0.3512 0.05134 0.91255 0.0
O389 O 0.45145 0.12295 0.87719 0.0
O390 O 0.41943 0.07162 0.86744 0.0
O391 O 0.37176 0.14021 0.96101 0.0
O392 O 0.42796 0.13592 0.94116 0.0
C393 C 0.30604 0.1119 0.85277 0.0
O394 O 0.35321 0.0562 0.8781 0.0
O395 O 0.35052 0.07849 0.93457 0.0
C396 C 0.44983 0.08827 0.87298 0.0
O397 O 0.33545 0.1114 0.83505 0.0
O398 O 0.3069 0.11062 0.88757 0.0
C399 C 0.35751 0.19882 0.91323 0.0
Fe400 Fe 0.58501 0.35747 0.87863 0.0
Fe401 Fe 0.63187 0.42091 0.84758 0.0
O402 O 0.62373 0.38798 0.88218 0.0
Fe403 Fe 0.65462 0.3852 0.92004 0.0
O404 O 0.66486 0.338 0.90839 0.0
O405 O 0.60746 0.31873 0.90105 0.0
O406 O 0.60042 0.3389 0.83522 0.0
C407 C 0.60663 0.35777 0.80698 0.0
C408 C 0.58448 0.37302 0.95214 0.0
O409 O 0.61198 0.39229 0.80979 0.0
C410 C 0.6523 0.4597 0.91369 0.0
O411 O 0.55542 0.39057 0.8556 0.0
O412 O 0.5884 0.4423 0.85577 0.0
O413 O 0.61918 0.37067 0.95287 0.0
O414 O 0.56718 0.37401 0.92184 0.0
C415 C 0.70169 0.39815 0.85989 0.0
O416 O 0.6534 0.45563 0.87902 0.0
O417 O 0.64658 0.43229 0.93401 0.0
C418 C 0.55768 0.42537 0.85325 0.0
O419 O 0.6757 0.40148 0.83697 0.0
O420 O 0.69565 0.39912 0.89414 0.0
C421 C 0.64115 0.31202 0.90577 0.0
Fe422 Fe 0.86541 0.37031 0.09709 0.0
Fe423 Fe 0.89041 0.39858 0.17317 0.0
O424 O 0.895 0.36755 0.13582 0.0
Fe425 Fe 0.92893 0.33389 0.1371 0.0
O426 O 0.95024 0.35165 0.09617 0.0
O427 O 0.89913 0.35405 0.06379 0.0
O428 O 0.88222 0.41637 0.08796 0.0
C429 C 0.88039 0.44289 0.11044 0.0
C430 C 0.86652 0.29614 0.10513 0.0
O431 O 0.87511 0.43697 0.14436 0.0
C432 C 0.90643 0.33118 0.20798 0.0
O433 O 0.82595 0.38696 0.12322 0.0
O434 O 0.84386 0.38208 0.18078 0.0
O435 O 0.90104 0.29891 0.11082 0.0
O436 O 0.8473 0.32438 0.10419 0.0
C437 C 0.96489 0.39761 0.16904 0.0
O438 O 0.9053 0.36604 0.2086 0.0
O439 O 0.9098 0.31396 0.17801 0.0
C440 C 0.81842 0.38322 0.15696 0.0
O441 O 0.93657 0.41667 0.16775 0.0
O442 O 0.96269 0.36296 0.16376 0.0
C443 C 0.93393 0.35402 0.06552 0.0
Fe444 Fe 0.81871 0.63772 0.39355 0.0
Fe445 Fe 0.89524 0.66627 0.37245 0.0
O446 O 0.85765 0.6351 0.36532 0.0
Fe447 Fe 0.8592 0.60114 0.33017 0.0
O448 O 0.8189 0.61865 0.3077 0.0
O449 O 0.78577 0.62124 0.3575 0.0
O450 O 0.81024 0.68426 0.379 0.0
C451 C 0.83324 0.71067 0.38379 0.0
C452 C 0.82682 0.5633 0.38952 0.0
O453 O 0.86712 0.70444 0.38815 0.0
C454 C 0.92897 0.59877 0.3583 0.0
O455 O 0.84464 0.65432 0.43483 0.0
O456 O 0.90224 0.65032 0.41877 0.0
O457 O 0.83203 0.56629 0.35525 0.0
O458 O 0.82521 0.59157 0.40988 0.0
C459 C 0.89095 0.66468 0.29759 0.0
O460 O 0.93032 0.63367 0.35826 0.0
O461 O 0.8993 0.58143 0.35085 0.0
C462 C 0.87835 0.65153 0.44342 0.0
O463 O 0.89013 0.68396 0.32661 0.0
O464 O 0.88688 0.6299 0.29879 0.0
C465 C 0.788 0.61956 0.32271 0.0
Fe466 Fe 0.9182 0.83887 0.87619 0.0
Fe467 Fe 0.85291 0.87294 0.91558 0.0
O468 O 0.88337 0.87194 0.87802 0.0
Fe469 Fe 0.87879 0.90411 0.84213 0.0
O470 O 0.92492 0.92287 0.85044 0.0
O471 O 0.95164 0.86935 0.85366 0.0
O472 O 0.93831 0.85496 0.91971 0.0
C473 C 0.92122 0.85691 0.94956 0.0
C474 C 0.8957 0.83884 0.80388 0.0
O475 O 0.88652 0.85776 0.94964 0.0
C476 C 0.80656 0.88719 0.85418 0.0
O477 O 0.89108 0.80257 0.89859 0.0
O478 O 0.83665 0.82598 0.90621 0.0
O479 O 0.8945 0.87348 0.80587 0.0
O480 O 0.90071 0.82015 0.83244 0.0
C481 C 0.86418 0.94676 0.9059 0.0
O482 O 0.81354 0.8882 0.88842 0.0
O483 O 0.83236 0.88737 0.83139 0.0
C484 C 0.85693 0.79848 0.90385 0.0
O485 O 0.86702 0.92013 0.92765 0.0
O486 O 0.8621 0.94104 0.87155 0.0
C487 C 0.95352 0.90403 0.8509 0.0
Fe488 Fe 0.86884 0.10654 0.67319 0.0
Fe489 Fe 0.83557 0.13279 0.60086 0.0
O490 O 0.87143 0.13515 0.63428 0.0
Fe491 Fe 0.90944 0.16612 0.62857 0.0
O492 O 0.90063 0.18968 0.67173 0.0
O493 O 0.8916 0.13996 0.70469 0.0
O494 O 0.8257 0.12573 0.68701 0.0
C495 C 0.79697 0.12478 0.66724 0.0
C496 C 0.942 0.10306 0.65928 0.0
O497 O 0.79913 0.12012 0.63285 0.0
C498 C 0.89889 0.14427 0.55744 0.0
O499 O 0.84568 0.06778 0.64834 0.0
O500 O 0.84452 0.08502 0.59062 0.0
O501 O 0.94306 0.13673 0.65082 0.0
O502 O 0.91184 0.08553 0.66252 0.0
C503 C 0.84824 0.20685 0.60497 0.0
O504 O 0.8647 0.14502 0.56239 0.0
O505 O 0.92094 0.14498 0.58465 0.0
C506 C 0.84418 0.05989 0.61424 0.0
O507 O 0.82508 0.18066 0.60915 0.0
O508 O 0.88244 0.20125 0.60574 0.0
C509 C 0.89755 0.17433 0.70253 0.0
Fe510 Fe 0.6136 0.08776 0.3492 0.0
Fe511 Fe 0.65879 0.1247 0.41203 0.0
O512 O 0.61874 0.12215 0.38389 0.0
Fe513 Fe 0.58376 0.15414 0.39032 0.0
O514 O 0.58922 0.17112 0.34397 0.0
O515 O 0.58771 0.11639 0.31759 0.0
O516 O 0.65456 0.10431 0.32641 0.0
C517 C 0.68584 0.10837 0.3415 0.0
C518 C 0.54363 0.08759 0.37415 0.0
O519 O 0.68939 0.10826 0.3762 0.0
C520 C 0.6018 0.13949 0.46163 0.0
O521 O 0.63881 0.05303 0.37453 0.0
O522 O 0.65004 0.07852 0.42881 0.0
O523 O 0.54603 0.1224 0.37588 0.0
O524 O 0.57205 0.06916 0.36964 0.0
C525 C 0.64871 0.19777 0.4001 0.0
O526 O 0.6353 0.14163 0.45284 0.0
O527 O 0.57678 0.13891 0.43708 0.0
C528 C 0.64552 0.05013 0.40862 0.0
O529 O 0.66998 0.17114 0.39703 0.0
O530 O 0.61484 0.19197 0.4057 0.0
C531 C 0.58715 0.1511 0.31531 0.0
Fe532 Fe 0.5954 0.84061 0.12947 0.0
Fe533 Fe 0.66067 0.8776 0.09154 0.0
O534 O 0.62915 0.87644 0.12803 0.0
Fe535 Fe 0.63138 0.91071 0.16307 0.0
O536 O 0.58452 0.92441 0.15324 0.0
O537 O 0.56125 0.86796 0.15234 0.0
O538 O 0.5756 0.8546 0.08616 0.0
C539 C 0.59316 0.85574 0.05655 0.0
C540 C 0.61499 0.84499 0.20173 0.0
O541 O 0.62801 0.85747 0.05719 0.0
C542 C 0.70451 0.90027 0.15373 0.0
O543 O 0.62318 0.80612 0.10699 0.0
O544 O 0.67776 0.83279 0.10358 0.0
O545 O 0.61597 0.87977 0.19951 0.0
O546 O 0.61327 0.82493 0.17309 0.0
C547 C 0.64775 0.95069 0.09814 0.0
O548 O 0.69879 0.89809 0.11927 0.0
O549 O 0.67796 0.89922 0.17559 0.0
C550 C 0.65765 0.80398 0.10515 0.0
O551 O 0.64581 0.92255 0.07737 0.0
O552 O 0.64775 0.94754 0.13282 0.0
C553 C 0.55731 0.9022 0.15568 0.0
Fe554 Fe 0.4105 0.6561 0.15009 0.0
Fe555 Fe 0.33275 0.63235 0.12383 0.0
O556 O 0.37078 0.62719 0.15391 0.0
Fe557 Fe 0.36891 0.59272 0.18775 0.0
O558 O 0.40762 0.57027 0.16815 0.0
O559 O 0.44274 0.62019 0.16317 0.0
O560 O 0.41706 0.64193 0.10251 0.0
C561 C 0.39338 0.64534 0.07714 0.0
C562 C 0.40643 0.65201 0.22513 0.0
O563 O 0.35981 0.64823 0.08475 0.0
C564 C 0.29919 0.61533 0.19205 0.0
O565 O 0.38494 0.6967 0.13585 0.0
O566 O 0.32683 0.67911 0.13993 0.0
O567 O 0.39819 0.6181 0.22148 0.0
O568 O 0.40697 0.67255 0.19738 0.0
C569 C 0.33451 0.55763 0.12588 0.0
O570 O 0.2984 0.61732 0.15727 0.0
O571 O 0.3295 0.61312 0.20908 0.0
C572 C 0.35117 0.70441 0.13726 0.0
O573 O 0.3367 0.58571 0.10585 0.0
O574 O 0.33967 0.56045 0.16031 0.0
C575 C 0.43857 0.58535 0.16249 0.0
Fe576 Fe 0.12531 0.59198 0.83779 0.0
Fe577 Fe 0.17158 0.64117 0.89107 0.0
O578 O 0.13077 0.63255 0.86506 0.0
Fe579 Fe 0.09551 0.66489 0.86609 0.0
O580 O 0.09927 0.67235 0.81705 0.0
O581 O 0.098 0.61347 0.8017 0.0
O582 O 0.1657 0.60369 0.81121 0.0
C583 C 0.19738 0.61016 0.82482 0.0
C584 C 0.05565 0.59617 0.86296 0.0
O585 O 0.20153 0.61822 0.8586 0.0
C586 C 0.11582 0.66552 0.93839 0.0
O587 O 0.15182 0.56338 0.86907 0.0
O588 O 0.16457 0.59957 0.91688 0.0
O589 O 0.05782 0.63072 0.85878 0.0
O590 O 0.08434 0.57752 0.86225 0.0
C591 C 0.16052 0.71046 0.86812 0.0
O592 O 0.14904 0.6656 0.92857 0.0
O593 O 0.08998 0.65917 0.91531 0.0
C594 C 0.16175 0.56789 0.90242 0.0
O595 O 0.18132 0.68342 0.86673 0.0
O596 O 0.12652 0.7052 0.87363 0.0
C597 C 0.09486 0.6469 0.79323 0.0
Fe598 Fe 0.16348 0.38468 0.58661 0.0
Fe599 Fe 0.09199 0.36054 0.62377 0.0
O600 O 0.12823 0.39328 0.61829 0.0
Fe601 Fe 0.12922 0.43434 0.64509 0.0
O602 O 0.17273 0.42308 0.66583 0.0
O603 O 0.20015 0.40787 0.61455 0.0
O604 O 0.17541 0.34218 0.60918 0.0
C605 C 0.15311 0.31534 0.61331 0.0
C606 C 0.15397 0.45808 0.57554 0.0
O607 O 0.11893 0.32033 0.61249 0.0
C608 C 0.05611 0.4286 0.62954 0.0
O609 O 0.13278 0.36029 0.55325 0.0
O610 O 0.0774 0.36499 0.57635 0.0
O611 O 0.15146 0.46271 0.60998 0.0
O612 O 0.15407 0.42614 0.56164 0.0
C613 C 0.10686 0.38011 0.69512 0.0
O614 O 0.05785 0.39452 0.63592 0.0
O615 O 0.08524 0.44795 0.62622 0.0
C616 C 0.09807 0.35963 0.54935 0.0
O617 O 0.10513 0.3543 0.6715 0.0
O618 O 0.10751 0.41339 0.68529 0.0
C619 C 0.20142 0.41557 0.64868 0.0
Fe620 Fe 0.67201 0.60899 0.60841 0.0
Fe621 Fe 0.61526 0.58769 0.66639 0.0
O622 O 0.63162 0.6186 0.63277 0.0
Fe623 Fe 0.60766 0.65913 0.62329 0.0
O624 O 0.61949 0.65986 0.57455 0.0
O625 O 0.64691 0.60754 0.56471 0.0
O626 O 0.66519 0.55885 0.60972 0.0
C627 C 0.63596 0.53958 0.61309 0.0
C628 C 0.67767 0.6865 0.62013 0.0
O629 O 0.61017 0.55037 0.63277 0.0
C630 C 0.60335 0.65349 0.70066 0.0
O631 O 0.69927 0.60963 0.65059 0.0
O632 O 0.6613 0.57346 0.68098 0.0
O633 O 0.64735 0.68785 0.63626 0.0
O634 O 0.68614 0.65757 0.60268 0.0
C635 C 0.55086 0.60927 0.62931 0.0
O636 O 0.61877 0.6229 0.70228 0.0
O637 O 0.59152 0.66548 0.67031 0.0
C638 C 0.69279 0.58891 0.67749 0.0
O639 O 0.56674 0.59665 0.65747 0.0
O640 O 0.56633 0.63311 0.60956 0.0
C641 C 0.62809 0.63374 0.55333 0.0
Fe642 Fe 0.41843 0.34556 0.38699 0.0
Fe643 Fe 0.37939 0.41082 0.35269 0.0
O644 O 0.38446 0.37949 0.38912 0.0
Fe645 Fe 0.3552 0.38233 0.42744 0.0
O646 O 0.33751 0.33577 0.41944 0.0
O647 O 0.39085 0.31032 0.41091 0.0
O648 O 0.39939 0.32642 0.344 0.0
C649 C 0.39517 0.34463 0.31501 0.0
C650 C 0.42376 0.36503 0.46009 0.0
O651 O 0.39389 0.37929 0.31655 0.0
C652 C 0.36776 0.45537 0.41575 0.0
O653 O 0.45188 0.3751 0.3626 0.0
O654 O 0.42585 0.42894 0.35984 0.0
O655 O 0.38919 0.36695 0.46089 0.0
O656 O 0.44019 0.36169 0.42992 0.0
C657 C 0.30744 0.39537 0.36702 0.0
O658 O 0.36395 0.4486 0.3817 0.0
O659 O 0.37099 0.42929 0.43805 0.0
C660 C 0.45415 0.40975 0.35847 0.0
O661 O 0.33249 0.39444 0.34342 0.0
O662 O 0.31548 0.39803 0.40099 0.0
C663 C 0.35681 0.30754 0.41771 0.0
C664 C 0.08775 0.22333 0.25595 0.0
C665 C 0.08213 0.20252 0.28785 0.0
C666 C 0.0972 0.20646 0.22275 0.0
C667 C 0.10148 0.16813 0.22016 0.0
H668 H 0.08308 0.25264 0.25602 0.0
H669 H 0.09971 0.22354 0.19864 0.0
S670 S 0.09624 0.10227 0.29736 0.0
N671 N 0.08611 0.14232 0.31602 0.0
N672 N 0.10412 0.11057 0.25361 0.0
C673 C 0.09872 0.14742 0.25254 0.0
C674 C 0.08898 0.16462 0.28638 0.0
C675 C 0.06357 0.83227 0.54281 0.0
C676 C 0.02519 0.83572 0.54532 0.0
C677 C 0.08332 0.84877 0.51431 0.0
C678 C 0.06544 0.86932 0.48725 0.0
H679 H 0.07827 0.81498 0.56172 0.0
H680 H 0.11233 0.84333 0.51221 0.0
S681 S 0.96694 0.89324 0.48575 0.0
N682 N 0.97118 0.86604 0.52153 0.0
N683 N 0.00834 0.89707 0.468 0.0
C684 C 0.02776 0.8758 0.49138 0.0
C685 C 0.00763 0.859 0.52039 0.0
C686 C 0.43301 0.80755 0.80395 0.0
C687 C 0.42417 0.76945 0.80366 0.0
C688 C 0.42393 0.82967 0.774 0.0
C689 C 0.4057 0.81447 0.7427 0.0
H690 H 0.44891 0.82013 0.82651 0.0
H691 H 0.43322 0.8583 0.77455 0.0
S692 S 0.36955 0.71814 0.73146 0.0
N693 N 0.3912 0.71888 0.77176 0.0
N694 N 0.37402 0.7604 0.7156 0.0
C695 C 0.39383 0.77721 0.74346 0.0
C696 C 0.40309 0.75471 0.77391 0.0
C697 C 0.40815 0.17419 0.06546 0.0
C698 C 0.44579 0.18198 0.07169 0.0
C699 C 0.3956 0.15696 0.03271 0.0
C700 C 0.42027 0.14683 0.00503 0.0
H701 H 0.38801 0.18347 0.08489 0.0
H702 H 0.36617 0.15361 0.02827 0.0
S703 S 0.52222 0.1534 0.01224 0.0
N704 N 0.50803 0.17273 0.05066 0.0
N705 N 0.48457 0.14013 0.98915 0.0
C706 C 0.45823 0.15108 0.01272 0.0
C707 C 0.47095 0.1688 0.046 0.0
C708 C 0.08089 0.80383 0.22958 0.0
C709 C 0.07574 0.82571 0.19834 0.0
C710 C 0.08967 0.81961 0.26401 0.0
C711 C 0.09369 0.85803 0.26885 0.0
H712 H 0.07694 0.77416 0.22783 0.0
H713 H 0.09221 0.8014 0.28723 0.0
S714 S 0.08766 0.92755 0.19504 0.0
N715 N 0.07868 0.88775 0.17376 0.0
N716 N 0.09535 0.91751 0.23861 0.0
C717 C 0.09086 0.88022 0.23744 0.0
C718 C 0.08187 0.86405 0.2022 0.0
C719 C 0.42878 0.82189 0.4653 0.0
C720 C 0.46701 0.8186 0.46189 0.0
C721 C 0.41368 0.83604 0.49762 0.0
C722 C 0.43623 0.84745 0.5278 0.0
H723 H 0.41018 0.81193 0.44355 0.0
H724 H 0.38401 0.8363 0.49951 0.0
S725 S 0.53835 0.85074 0.5303 0.0
N726 N 0.52732 0.8324 0.48963 0.0
N727 N 0.49895 0.85899 0.55028 0.0
C728 C 0.47461 0.84682 0.5237 0.0
C729 C 0.48998 0.83238 0.49081 0.0
C730 C 0.43209 0.17981 0.72328 0.0
C731 C 0.43444 0.21862 0.72334 0.0
C732 C 0.4217 0.16049 0.75478 0.0
C733 C 0.41326 0.17921 0.78758 0.0
H734 H 0.44003 0.16405 0.69931 0.0
H735 H 0.42182 0.13067 0.75379 0.0
S736 S 0.4089 0.28074 0.80023 0.0
N737 N 0.42297 0.27504 0.75761 0.0
N738 N 0.40328 0.23886 0.8167 0.0
C739 C 0.41292 0.21802 0.78719 0.0
C740 C 0.42351 0.23767 0.75511 0.0
C741 C 0.02922 0.16177 0.96492 0.0
C742 C 0.0506 0.17892 0.93784 0.0
C743 C 0.04573 0.14599 0.99567 0.0
C744 C 0.08425 0.14656 0.00039 0.0
H745 H -0.00051 0.16268 0.96376 0.0
H746 H 0.02801 0.13507 0.01686 0.0
S747 S 0.15245 0.18068 0.93288 0.0
N748 N 0.11214 0.19021 0.91442 0.0
N749 N 0.14334 0.16028 0.97217 0.0
C750 C 0.10596 0.16016 0.97154 0.0
C751 C 0.08908 0.17649 0.9403 0.0
C752 C 0.26427 0.09082 0.22652 0.0
C753 C 0.2969 0.08074 0.20938 0.0
C754 C 0.23313 0.09932 0.20578 0.0
C755 C 0.23329 0.09818 0.16701 0.0
H756 H 0.2619 0.09007 0.25619 0.0
H757 H 0.20823 0.10518 0.22047 0.0
S758 S 0.31438 0.08185 0.10888 0.0
N759 N 0.3295 0.07625 0.15147 0.0
N760 N 0.27071 0.09229 0.11238 0.0
C761 C 0.26679 0.09185 0.14952 0.0
C762 C 0.29867 0.08314 0.17074 0.0
C763 C 0.18673 0.03717 0.48952 0.0
C764 C 0.19212 0.07026 0.47029 0.0
C765 C 0.16973 0.00604 0.47264 0.0
C766 C 0.15749 0.0065 0.43568 0.0
H767 H 0.19664 0.03482 0.51764 0.0
H768 H 0.16751 0.98102 0.48844 0.0
S769 S 0.16119 0.08749 0.3743 0.0
N770 N 0.18094 0.10251 0.41309 0.0
N771 N 0.14902 0.04405 0.38134 0.0
C772 C 0.1609 0.04 0.41669 0.0
C773 C 0.17818 0.0718 0.43397 0.0
C774 C 0.22388 0.93859 0.67773 0.0
C775 C 0.21683 0.93411 0.71543 0.0
C776 C 0.25542 0.92454 0.66176 0.0
C777 C 0.28131 0.90559 0.68288 0.0
H778 H 0.20554 0.95413 0.66052 0.0
H779 H 0.26024 0.93002 0.63296 0.0
S780 S 0.27358 0.88217 0.7817 0.0
N781 N 0.23675 0.90612 0.77268 0.0
N782 N 0.29602 0.87988 0.74264 0.0
C783 C 0.27363 0.89911 0.72012 0.0
C784 C 0.24141 0.9133 0.73639 0.0
C785 C 0.32633 0.97405 0.97749 0.0
C786 C 0.33171 0.94207 0.95626 0.0
C787 C 0.33355 0.00907 0.96336 0.0
C788 C 0.34589 0.01364 0.92714 0.0
H789 H 0.31565 0.97203 0.00509 0.0
H790 H 0.32834 0.03275 0.98077 0.0
S791 S 0.36582 0.93841 0.86066 0.0
N792 N 0.35153 0.91685 0.89778 0.0
N793 N 0.36483 0.98284 0.87081 0.0
C794 C 0.35245 0.98177 0.90589 0.0
C795 C 0.34551 0.94596 0.92058 0.0
C796 C 0.29535 0.93739 0.34601 0.0
C797 C 0.29963 0.94109 0.30779 0.0
C798 C 0.26108 0.928 0.36086 0.0
C799 C 0.22978 0.92186 0.33806 0.0
H800 H 0.31819 0.94352 0.36482 0.0
H801 H 0.2589 0.92713 0.39054 0.0
S802 S 0.22783 0.92183 0.23569 0.0
N803 N 0.27075 0.93346 0.24717 0.0
N804 N 0.20645 0.91554 0.27493 0.0
C805 C 0.23432 0.92284 0.29961 0.0
C806 C 0.26919 0.93254 0.28453 0.0
C807 C 0.33883 0.04482 0.60395 0.0
C808 C 0.3425 0.0513 0.56604 0.0
C809 C 0.35275 0.01309 0.61996 0.0
C810 C 0.37085 0.98681 0.59859 0.0
H811 H 0.32297 0.06302 0.62094 0.0
H812 H 0.34699 0.00797 0.64864 0.0
S813 S 0.39501 0.99527 0.50011 0.0
N814 N 0.3709 0.03205 0.50903 0.0
N815 N 0.39717 0.97255 0.5391 0.0
C816 C 0.37789 0.99489 0.56154 0.0
C817 C 0.36366 0.02709 0.54526 0.0
C818 C 0.23968 0.09804 0.7722 0.0
C819 C 0.20874 0.08117 0.78837 0.0
C820 C 0.27015 0.11003 0.79361 0.0
C821 C 0.27082 0.10591 0.8321 0.0
H822 H 0.24137 0.10024 0.74256 0.0
H823 H 0.29401 0.12116 0.7796 0.0
S824 S 0.19382 0.06964 0.88847 0.0
N825 N 0.1785 0.06538 0.84555 0.0
N826 N 0.23569 0.08817 0.88595 0.0
C827 C 0.23876 0.09199 0.84894 0.0
C828 C 0.20777 0.07948 0.82703 0.0
C829 C 0.16408 0.9719 0.01113 0.0
C830 C 0.17526 0.94208 0.03243 0.0
C831 C 0.15242 0.00434 0.02777 0.0
C832 C 0.15126 0.00815 0.06635 0.0
H833 H 0.16644 0.97118 0.98144 0.0
H834 H 0.14589 0.02717 0.01019 0.0
S835 S 0.1706 0.93519 0.13411 0.0
N836 N 0.17928 0.91623 0.09375 0.0
N837 N 0.15711 0.97718 0.12519 0.0
C838 C 0.15903 0.97724 0.08784 0.0
C839 C 0.17111 0.94422 0.07083 0.0
C840 C 0.17832 0.28977 0.06472 0.0
C841 C 0.21665 0.29442 0.06957 0.0
C842 C 0.16001 0.25712 0.07464 0.0
C843 C 0.17937 0.22782 0.08966 0.0
H844 H 0.16243 0.31082 0.05161 0.0
H845 H 0.13078 0.25422 0.06869 0.0
S846 S 0.27884 0.2285 0.11423 0.0
N847 N 0.27257 0.26881 0.09503 0.0
N848 N 0.23804 0.20733 0.11367 0.0
C849 C 0.21719 0.23316 0.09739 0.0
C850 C 0.23586 0.26652 0.08739 0.0
C851 C 0.7023 0.23108 0.92338 0.0
C852 C 0.67778 0.20403 0.93705 0.0
C853 C 0.68997 0.26539 0.91216 0.0
C854 C 0.65254 0.27396 0.91369 0.0
H855 H 0.73157 0.22648 0.9229 0.0
H856 H 0.71016 0.2857 0.90307 0.0
S857 S 0.57645 0.21099 0.94303 0.0
N858 N 0.61387 0.1869 0.94846 0.0
N859 N 0.59057 0.25122 0.92701 0.0
C860 C 0.62739 0.24633 0.92518 0.0
C861 C 0.64004 0.21146 0.93698 0.0
C862 C 0.02881 0.46368 0.22216 0.0
C863 C 0.06377 0.44955 0.21618 0.0
C864 C -0.00266 0.44719 0.20588 0.0
C865 C -0.00063 0.41544 0.18344 0.0
H866 H 0.02564 0.48763 0.23982 0.0
H867 H 0.97105 0.45895 0.2119 0.0
S868 S 0.08449 0.36799 0.15839 0.0
N869 N 0.09894 0.4026 0.18543 0.0
N870 N 0.03933 0.37097 0.15523 0.0
C871 C 0.0342 0.40121 0.17677 0.0
C872 C 0.06652 0.41848 0.19296 0.0
C873 C 0.83523 0.80928 0.41914 0.0
C874 C 0.79817 0.81494 0.4272 0.0
C875 C 0.84602 0.77639 0.40252 0.0
C876 C 0.82015 0.74794 0.39322 0.0
H877 H 0.85641 0.82931 0.42779 0.0
H878 H 0.87514 0.77256 0.39882 0.0
S879 S 0.71872 0.75278 0.40138 0.0
N880 N 0.73492 0.7921 0.41938 0.0
N881 N 0.75508 0.73032 0.38803 0.0
C882 C 0.7826 0.75486 0.39783 0.0
C883 C 0.77166 0.78832 0.41491 0.0
C884 C 0.95692 0.08148 0.16648 0.0
C885 C 0.95236 0.04333 0.17173 0.0
C886 C 0.98805 0.09608 0.14925 0.0
C887 C 0.01578 0.07304 0.1367 0.0
H888 H 0.93755 0.10051 0.17777 0.0
H889 H 0.99144 0.12578 0.1481 0.0
S890 S 0.01223 0.97075 0.13527 0.0
N891 N 0.97461 0.98241 0.15681 0.0
N892 N 0.03325 0.00991 0.12434 0.0
C893 C 0.00953 0.03466 0.13807 0.0
C894 C 0.97778 0.01977 0.15564 0.0
C895 C 0.28459 0.73953 0.56187 0.0
C896 C 0.29891 0.70469 0.56825 0.0
C897 C 0.30111 0.77125 0.57764 0.0
C898 C 0.33311 0.76932 0.59965 0.0
H899 H 0.26094 0.74239 0.54372 0.0
H900 H 0.28975 0.7976 0.5709 0.0
S901 S 0.37974 0.68415 0.62687 0.0
N902 N 0.34505 0.66945 0.60007 0.0
N903 N 0.3771 0.72948 0.62909 0.0
C904 C 0.34684 0.73442 0.60751 0.0
C905 C 0.32943 0.70194 0.592 0.0
C906 C 0.02986 0.57599 0.35573 0.0
C907 C 0.02904 0.53731 0.3585 0.0
C908 C -0.00244 0.59592 0.35737 0.0
C909 C 0.96319 0.57794 0.36182 0.0
H910 H 0.05535 0.59098 0.35032 0.0
H911 H -0.00054 0.62541 0.35337 0.0
S912 S 0.94684 0.47796 0.37774 0.0
N913 N 0.99154 0.48243 0.37118 0.0
N914 N 0.93087 0.51986 0.37441 0.0
C915 C 0.96232 0.53965 0.36767 0.0
C916 C 0.99523 0.51936 0.36604 0.0
C917 C 0.45762 0.44621 0.83465 0.0
C918 C 0.45994 0.4771 0.81181 0.0
C919 C 0.4894 0.43036 0.84889 0.0
C920 C 0.52464 0.44525 0.84145 0.0
H921 H 0.43115 0.43326 0.8404 0.0
H922 H 0.48635 0.40581 0.86532 0.0
S923 S 0.54539 0.52819 0.78585 0.0
N924 N 0.50011 0.52344 0.7842 0.0
N925 N 0.55978 0.49413 0.81147 0.0
C926 C 0.52723 0.47727 0.82011 0.0
C927 C 0.4949 0.49302 0.80511 0.0
C928 C 0.92958 0.77784 0.72746 0.0
C929 C 0.91768 0.7959 0.6955 0.0
C930 C 0.92015 0.79028 0.76258 0.0
C931 C 0.89877 0.8215 0.76707 0.0
H932 H 0.94751 0.75464 0.72549 0.0
H933 H 0.93152 0.7766 0.78631 0.0
S934 S 0.85579 0.87519 0.69244 0.0
N935 N 0.87965 0.84391 0.67063 0.0
N936 N 0.8621 0.86752 0.73676 0.0
C937 C 0.88444 0.83821 0.73538 0.0
C938 C 0.8938 0.82533 0.69954 0.0
C939 C 0.9633 0.15873 0.47745 0.0
C940 C 0.94258 0.181 0.45404 0.0
C941 C 0.94862 0.1455 0.51041 0.0
C942 C 0.91253 0.15348 0.52045 0.0
H943 H 0.99171 0.15332 0.47139 0.0
H944 H 0.96595 0.12994 0.52862 0.0
S945 S 0.84628 0.20813 0.4664 0.0
N946 N 0.8839 0.20858 0.44166 0.0
N947 N 0.85574 0.18334 0.50283 0.0
C948 C 0.89092 0.17396 0.49594 0.0
C949 C 0.90612 0.18784 0.46291 0.0
C950 C 0.56174 0.15858 0.21433 0.0
C951 C 0.56106 0.19676 0.20892 0.0
C952 C 0.57114 0.14425 0.24856 0.0
C953 C 0.58002 0.16754 0.27893 0.0
H954 H 0.55377 0.13945 0.19226 0.0
H955 H 0.5703 0.11458 0.25134 0.0
S956 S 0.58607 0.26977 0.27833 0.0
N957 N 0.57289 0.25782 0.23603 0.0
N958 N 0.59062 0.23079 0.30054 0.0
C959 C 0.58132 0.20584 0.27347 0.0
C960 C 0.57191 0.22048 0.23841 0.0
C961 C 0.51435 0.82992 0.99138 0.0
C962 C 0.53237 0.81512 0.96089 0.0
C963 C 0.53432 0.84527 0.0213 0.0
C964 C 0.57304 0.84661 0.02173 0.0
H965 H 0.48468 0.82771 0.99325 0.0
H966 H 0.51922 0.85455 0.04499 0.0
S967 S 0.63289 0.81825 0.94504 0.0
N968 N 0.5907 0.80754 0.93033 0.0
N969 N 0.62844 0.83669 0.98646 0.0
C970 C 0.59126 0.83502 0.98985 0.0
C971 C 0.57086 0.81911 0.95948 0.0
C972 C 0.94895 0.24064 0.76716 0.0
C973 C 0.93806 0.22853 0.80207 0.0
C974 C 0.93388 0.22453 0.73494 0.0
C975 C 0.90789 0.1952 0.73648 0.0
H976 H 0.97005 0.26215 0.7647 0.0
H977 H 0.94416 0.23385 0.70872 0.0
S978 S 0.86787 0.1554 0.82105 0.0
N979 N 0.89769 0.18748 0.83637 0.0
N980 N 0.86976 0.15652 0.77567 0.0
C981 C 0.89546 0.18397 0.7712 0.0
C982 C 0.91041 0.20086 0.80406 0.0
C983 C 0.54387 0.15888 0.54457 0.0
C984 C 0.57011 0.17151 0.57115 0.0
C985 C 0.55449 0.14625 0.50997 0.0
C986 C 0.59178 0.14547 0.5006 0.0
H987 H 0.51471 0.16085 0.5495 0.0
H988 H 0.53312 0.1389 0.48985 0.0
S989 S 0.67146 0.16693 0.56354 0.0
N990 N 0.63505 0.17633 0.58811 0.0
N991 N 0.65523 0.15216 0.52309 0.0
C992 C 0.61841 0.15416 0.5283 0.0
C993 C 0.60752 0.16726 0.56359 0.0
C994 C 0.6008 0.83788 0.30401 0.0
C995 C 0.57406 0.80942 0.30558 0.0
C996 C 0.61596 0.84781 0.27023 0.0
C997 C 0.60528 0.82899 0.23739 0.0
H998 H 0.60881 0.85344 0.32866 0.0
H999 H 0.63512 0.87123 0.26957 0.0
S1000 S 0.53843 0.74988 0.22869 0.0
N1001 N 0.53916 0.76089 0.27294 0.0
N1002 N 0.56802 0.7788 0.20943 0.0
C1003 C 0.58018 0.79887 0.23933 0.0
C1004 C 0.56436 0.78933 0.27352 0.0
C1005 C 0.93775 0.84932 0.05231 0.0
C1006 C 0.96995 0.82905 0.05426 0.0
C1007 C 0.9233 0.86012 0.01828 0.0
C1008 C 0.94078 0.85144 0.98504 0.0
H1009 H 0.92247 0.85513 0.07698 0.0
H1010 H 0.89743 0.87413 0.01796 0.0
S1011 S 0.02898 0.80358 0.97601 0.0
N1012 N 0.02122 0.80428 0.02064 0.0
N1013 N 0.99424 0.82475 0.95675 0.0
C1014 C 0.97456 0.83368 0.98693 0.0
C1015 C 0.98906 0.82238 0.02153 0.0
C1016 C 0.70678 0.91309 0.85825 0.0
C1017 C 0.69958 0.92466 0.82222 0.0
C1018 C 0.74068 0.89834 0.86774 0.0
C1019 C 0.76856 0.89453 0.84151 0.0
H1020 H 0.68713 0.91762 0.87982 0.0
H1021 H 0.74569 0.89183 0.89636 0.0
S1022 S 0.75978 0.91314 0.74151 0.0
N1023 N 0.72038 0.9258 0.75888 0.0
N1024 N 0.78408 0.89796 0.77662 0.0
C1025 C 0.76017 0.90256 0.80459 0.0
C1026 C 0.7257 0.91772 0.79499 0.0
C1027 C 0.80614 0.96183 0.61573 0.0
C1028 C 0.80786 0.95054 0.57861 0.0
C1029 C 0.81973 -0.00344 0.62739 0.0
C1030 C 0.83534 0.02149 0.60231 0.0
H1031 H 0.79271 0.94439 0.63575 0.0
H1032 H 0.81623 0.00453 0.65594 0.0
S1033 S 0.85214 0.00306 0.50333 0.0
N1034 N 0.83076 0.96531 0.51771 0.0
N1035 N 0.85614 0.03074 0.5397 0.0
C1036 C 0.83979 0.00954 0.56569 0.0
C1037 C 0.82618 0.97399 0.55384 0.0
C1038 C 0.74684 0.08796 0.26084 0.0
C1039 C 0.78235 0.09326 0.27618 0.0
C1040 C 0.71566 0.09472 0.28161 0.0
C1041 C 0.7189 0.10709 0.31845 0.0
H1042 H 0.7429 0.07633 0.23338 0.0
H1043 H 0.68891 0.08837 0.26918 0.0
S1044 S 0.80583 0.13296 0.36859 0.0
N1045 N 0.81911 0.11702 0.3283 0.0
N1046 N 0.76045 0.13004 0.36736 0.0
C1047 C 0.75427 0.11566 0.33297 0.0
C1048 C 0.78602 0.10868 0.31182 0.0
C1049 C 0.7088 0.03507 0.08631 0.0
C1050 C 0.70135 0.04507 0.04984 0.0
C1051 C 0.68906 0.0062 0.10263 0.0
C1052 C 0.66185 0.9856 0.08267 0.0
H1053 H 0.73085 0.04894 0.10198 0.0
H1054 H 0.69694 -0.0015 0.13031 0.0
S1055 S 0.63057 0.00236 0.98691 0.0
N1056 N 0.66336 0.03409 0.99491 0.0
N1057 N 0.62703 0.97855 0.02521 0.0
C1058 C 0.65312 0.99628 0.04662 0.0
C1059 C 0.67266 0.0264 0.03029 0.0
C1060 C 0.69582 0.10077 0.67715 0.0
C1061 C 0.69308 0.09427 0.71504 0.0
C1062 C 0.72897 0.11355 0.66219 0.0
C1063 C 0.76053 0.12032 0.68461 0.0
H1064 H 0.67315 0.09341 0.65851 0.0
H1065 H 0.73036 0.11587 0.63254 0.0
S1066 S 0.7645 0.11653 0.78672 0.0
N1067 N 0.72231 0.10202 0.77548 0.0
N1068 N 0.78462 0.12619 0.74746 0.0
C1069 C 0.75679 0.11796 0.72302 0.0
C1070 C 0.72305 0.10483 0.73821 0.0
C1071 C 0.67903 0.97702 0.47351 0.0
C1072 C 0.67581 0.94444 0.45204 0.0
C1073 C 0.66797 0.01077 0.45973 0.0
C1074 C 0.65313 0.01341 0.42391 0.0
H1075 H 0.69166 0.97691 0.50072 0.0
H1076 H 0.67234 0.03515 0.47696 0.0
S1077 S 0.63323 0.93525 0.35868 0.0
N1078 N 0.6528 0.91621 0.39473 0.0
N1079 N 0.63167 0.97961 0.36881 0.0
C1080 C 0.64745 0.98063 0.40301 0.0
C1081 C 0.65886 0.9462 0.41707 0.0
C1082 C 0.79796 0.9482 0.15486 0.0
C1083 C 0.80508 0.95441 0.19262 0.0
C1084 C 0.76672 0.92804 0.14259 0.0
C1085 C 0.74113 0.9135 0.1676 0.0
H1086 H 0.81571 0.96045 0.13441 0.0
H1087 H 0.76159 0.92589 0.11317 0.0
S1088 S 0.75052 0.91617 0.26955 0.0
N1089 N 0.78672 0.94005 0.25513 0.0
N1090 N 0.72776 0.90215 0.23199 0.0
C1091 C 0.74957 0.91671 0.2055 0.0
C1092 C 0.78161 0.93716 0.21804 0.0
C1093 C 0.84998 0.02546 0.97365 0.0
C1094 C 0.83272 0.05176 0.95177 0.0
C1095 C 0.86133 0.99208 0.95841 0.0
C1096 C 0.85633 0.98401 0.92063 0.0
H1097 H 0.8531 0.02983 0.00312 0.0
H1098 H 0.87315 0.97206 0.97661 0.0
S1099 S 0.81676 0.0463 0.8508 0.0
N1100 N 0.81405 0.06923 0.89015 0.0
N1101 N 0.83587 0.00703 0.86109 0.0
C1102 C 0.84115 0.01127 0.89808 0.0
C1103 C 0.82918 0.04498 0.91376 0.0
C1104 C 0.80166 0.72526 0.9534 0.0
C1105 C 0.81944 0.69259 0.94407 0.0
C1106 C 0.8126 0.75909 0.93855 0.0
C1107 C 0.84221 0.76172 0.91426 0.0
H1108 H 0.77948 0.72485 0.97296 0.0
H1109 H 0.79881 0.78356 0.94759 0.0
S1110 S 0.89588 0.68391 0.87853 0.0
N1111 N 0.86626 0.66449 0.90689 0.0
N1112 N 0.88743 0.72835 0.87933 0.0
C1113 C 0.85924 0.72904 0.90342 0.0
C1114 C 0.84767 0.6944 0.91819 0.0
C1115 C 0.3556 0.7984 0.09312 0.0
C1116 C 0.3183 0.80548 0.08689 0.0
C1117 C 0.36615 0.76692 0.11208 0.0
C1118 C 0.33974 0.74152 0.12567 0.0
H1119 H 0.3768 0.81608 0.08149 0.0
H1120 H 0.39521 0.76151 0.11418 0.0
S1121 S 0.23844 0.75208 0.12306 0.0
N1122 N 0.25498 0.7878 0.10034 0.0
N1123 N 0.27461 0.72902 0.13636 0.0
C1124 C 0.30237 0.75028 0.1225 0.0
C1125 C 0.2917 0.78211 0.10292 0.0
C1126 C 0.95358 0.58358 0.8432 0.0
C1127 C 0.95009 0.54636 0.8322 0.0
C1128 C 0.98731 0.59877 0.85603 0.0
C1129 C 0.01893 0.57737 0.85846 0.0
H1130 H 0.93073 0.60175 0.83989 0.0
H1131 H 0.98896 0.62807 0.8621 0.0
S1132 S 0.02231 0.47663 0.84021 0.0
N1133 N 0.97957 0.4871 0.8299 0.0
N1134 N 0.04296 0.51562 0.85401 0.0
C1135 C 0.01489 0.53931 0.8509 0.0
C1136 C 0.98051 0.52385 0.83769 0.0
C1137 C 0.21771 0.23603 0.60204 0.0
C1138 C 0.19346 0.20577 0.59464 0.0
C1139 C 0.2045 0.27103 0.6101 0.0
C1140 C 0.16652 0.2771 0.6114 0.0
H1141 H 0.24713 0.2333 0.59943 0.0
H1142 H 0.22426 0.29376 0.61371 0.0
S1143 S 0.09178 0.20532 0.60051 0.0
N1144 N 0.12998 0.18301 0.59363 0.0
N1145 N 0.10493 0.24849 0.6093 0.0
C1146 C 0.14208 0.24632 0.6071 0.0
C1147 C 0.1556 0.21076 0.59854 0.0
C1148 C 0.02422 0.95884 0.7983 0.0
C1149 C 0.05752 0.95042 0.81613 0.0
C1150 C 0.99048 0.9451 0.81089 0.0
C1151 C 0.98891 0.9215 0.8411 0.0
H1152 H 0.02419 0.97624 0.77435 0.0
H1153 H 0.96557 0.95192 0.79605 0.0
S1154 S 0.06779 0.89108 0.89761 0.0
N1155 N 0.08667 0.91788 0.86625 0.0
N1156 N 0.02304 0.89046 0.88895 0.0
C1157 C 0.02183 0.91283 0.8593 0.0
C1158 C 0.05622 0.92773 0.84709 0.0
C1159 C 0.65143 0.30148 0.41291 0.0
C1160 C 0.68803 0.30892 0.42396 0.0
C1161 C 0.63944 0.2656 0.40313 0.0
C1162 C 0.66373 0.23604 0.40377 0.0
H1163 H 0.63139 0.32292 0.41414 0.0
H1164 H 0.61052 0.26077 0.39658 0.0
S1165 S 0.76404 0.24316 0.42379 0.0
N1166 N 0.74962 0.2854 0.43011 0.0
N1167 N 0.72729 0.21799 0.41131 0.0
C1168 C 0.70115 0.24394 0.41151 0.0
C1169 C 0.71323 0.2804 0.4218 0.0
C1170 C 0.99009 0.49906 0.66402 0.0
C1171 C 0.95794 0.47742 0.66951 0.0
C1172 C 0.02111 0.484 0.64793 0.0
C1173 C 0.02096 0.44678 0.63661 0.0
H1174 H 0.99233 0.52711 0.67443 0.0
H1175 H 0.04606 0.50097 0.64686 0.0
S1176 S 0.94051 0.38134 0.63613 0.0
N1177 N 0.92561 0.41902 0.65616 0.0
N1178 N 0.9837 0.39079 0.62553 0.0
C1179 C 0.98763 0.42615 0.63812 0.0
C1180 C 0.95616 0.44143 0.6547 0.0
C1181 C 0.53674 0.55483 0.17211 0.0
C1182 C 0.53296 0.51616 0.16917 0.0
C1183 C 0.50636 0.57722 0.16807 0.0
C1184 C 0.47102 0.56181 0.16095 0.0
H1185 H 0.56301 0.56799 0.17943 0.0
H1186 H 0.51042 0.60665 0.17235 0.0
S1187 S 0.4475 0.46269 0.14377 0.0
N1188 N 0.49196 0.46384 0.15371 0.0
N1189 N 0.43482 0.50591 0.1459 0.0
C1190 C 0.46734 0.52343 0.15501 0.0
C1191 C 0.49831 0.50062 0.15915 0.0
C1192 C 0.57004 0.66996 0.79749 0.0
C1193 C 0.56316 0.70793 0.79779 0.0
C1194 C 0.58505 0.65274 0.76666 0.0
C1195 C 0.59322 0.67281 0.73485 0.0
H1196 H 0.56296 0.65316 0.8209 0.0
H1197 H 0.58863 0.62324 0.76717 0.0
S1198 S 0.5839 0.77337 0.7226 0.0
N1199 N 0.56851 0.76552 0.76436 0.0
N1200 N 0.59626 0.73299 0.70641 0.0
C1201 C 0.58809 0.71101 0.73536 0.0
C1202 C 0.5732 0.72863 0.76684 0.0
C1203 C 0.5075 0.34168 0.01451 0.0
C1204 C 0.5254 0.33887 0.04896 0.0
C1205 C 0.52616 0.3551 0.98382 0.0
C1206 C 0.56354 0.36625 0.98629 0.0
H1207 H 0.47937 0.33158 0.01056 0.0
H1208 H 0.51159 0.35472 0.95757 0.0
S1209 S 0.62084 0.37172 0.07184 0.0
N1210 N 0.58104 0.3537 0.08498 0.0
N1211 N 0.61613 0.37892 0.02726 0.0
C1212 C 0.58083 0.36669 0.02126 0.0
C1213 C 0.56177 0.35304 0.05259 0.0
C1214 C 0.91821 0.25041 0.27099 0.0
C1215 C 0.93704 0.26644 0.30158 0.0
C1216 C 0.90609 0.27201 0.24188 0.0
C1217 C 0.912 0.31052 0.24235 0.0
H1218 H 0.91458 0.22077 0.26842 0.0
H1219 H 0.8935 0.2582 0.21801 0.0
S1220 S 0.95457 0.36656 0.31887 0.0
N1221 N 0.957 0.32359 0.33274 0.0
N1222 N 0.9341 0.3642 0.27798 0.0
C1223 C 0.928 0.32722 0.27415 0.0
C1224 C 0.94061 0.30516 0.30375 0.0
C1225 C 0.88184 0.68929 0.54111 0.0
C1226 C 0.91898 0.68527 0.55104 0.0
C1227 C 0.86802 0.67603 0.50704 0.0
C1228 C 0.89091 0.65821 0.48192 0.0
H1229 H 0.8639 0.70474 0.55869 0.0
H1230 H 0.83985 0.68175 0.49954 0.0
S1231 S 0.98809 0.63392 0.49865 0.0
N1232 N 0.97686 0.65747 0.53579 0.0
N1233 N 0.95088 0.63211 0.47201 0.0
C1234 C 0.92718 0.65111 0.49312 0.0
C1235 C 0.94124 0.6648 0.52762 0.0
C1236 C 0.5773 0.28742 0.73366 0.0
C1237 C 0.57843 0.30772 0.70092 0.0
C1238 C 0.58832 0.3033 0.76744 0.0
C1239 C 0.60094 0.34025 0.77007 0.0
H1240 H 0.56638 0.25934 0.73359 0.0
H1241 H 0.58538 0.28676 0.79187 0.0
S1242 S 0.6153 0.40356 0.69167 0.0
N1243 N 0.59754 0.36539 0.67255 0.0
N1244 N 0.6185 0.39535 0.73619 0.0
C1245 C 0.60495 0.36008 0.73718 0.0
C1246 C 0.59367 0.34379 0.70259 0.0
C1247 C 0.01306 0.33226 0.00301 0.0
C1248 C -0.00385 0.3297 0.96797 0.0
C1249 C 0.99313 0.34196 0.03411 0.0
C1250 C 0.95543 0.34955 0.03145 0.0
H1251 H 0.04155 0.32513 0.00687 0.0
H1252 H 0.00719 0.34201 0.06063 0.0
S1253 S 0.89993 0.35314 0.94491 0.0
N1254 N 0.94077 0.3401 0.93159 0.0
N1255 N 0.90324 0.35851 0.99005 0.0
C1256 C 0.93886 0.34974 0.99615 0.0
C1257 C 0.95921 0.33974 0.96443 0.0
C1258 C 0.93918 0.68094 0.20727 0.0
C1259 C 0.93704 0.71935 0.20321 0.0
C1260 C 0.92243 0.66292 0.23681 0.0
C1261 C 0.90304 0.68269 0.26338 0.0
H1262 H 0.95545 0.66486 0.18861 0.0
H1263 H 0.92639 0.63367 0.23987 0.0
S1264 S 0.88333 0.78234 0.26142 0.0
N1265 N 0.90956 0.77559 0.22543 0.0
N1266 N 0.87826 0.74176 0.28091 0.0
C1267 C 0.89831 0.72056 0.25805 0.0
C1268 C 0.91525 0.73887 0.22797 0.0
C1269 C 0.61966 0.6771 0.46136 0.0
C1270 C 0.58627 0.66126 0.44775 0.0
C1271 C 0.63549 0.66515 0.49423 0.0
C1272 C 0.61858 0.63684 0.5143 0.0
H1273 H 0.6323 0.7006 0.44787 0.0
H1274 H 0.65958 0.67995 0.5054 0.0
S1275 S 0.53285 0.58432 0.4893 0.0
N1276 N 0.5385 0.61376 0.45542 0.0
N1277 N 0.56834 0.59168 0.51766 0.0
C1278 C 0.58689 0.61883 0.49971 0.0
C1279 C 0.57073 0.63088 0.4661 0.0
C1280 C 0.7903 0.57121 0.70999 0.0
C1281 C 0.78503 0.54837 0.74053 0.0
C1282 C 0.76038 0.58566 0.69089 0.0
C1283 C 0.72391 0.57748 0.70126 0.0
H1284 H 0.81774 0.57719 0.70009 0.0
H1285 H 0.76599 0.60216 0.6669 0.0
S1286 S 0.69526 0.52118 0.78111 0.0
N1287 N 0.74057 0.52009 0.78176 0.0
N1288 N 0.6844 0.54707 0.74582 0.0
C1289 C 0.71832 0.55605 0.73283 0.0
C1290 C 0.74884 0.54156 0.75247 0.0
C1291 C 0.6965 0.52753 0.98243 0.0
C1292 C 0.70116 0.55988 0.96186 0.0
C1293 C 0.6789 0.49593 0.96726 0.0
C1294 C 0.66544 0.49517 0.93073 0.0
H1295 H 0.70735 0.52616 0.0103 0.0
H1296 H 0.67728 0.47146 0.98395 0.0
S1297 S 0.66648 0.57385 0.86649 0.0
N1298 N 0.68778 0.5902 0.90401 0.0
N1299 N 0.6548 0.53065 0.87543 0.0
C1300 C 0.66814 0.52787 0.91042 0.0
C1301 C 0.68594 0.56023 0.92598 0.0
C1302 C 0.72089 0.4166 0.16162 0.0
C1303 C 0.71094 0.40825 0.19796 0.0
C1304 C 0.75491 0.40649 0.14768 0.0
C1305 C 0.78028 0.38772 0.16959 0.0
H1306 H 0.70321 0.43282 0.14438 0.0
H1307 H 0.76212 0.41528 0.12028 0.0
S1308 S 0.76462 0.35296 0.26385 0.0
N1309 N 0.72707 0.37533 0.25359 0.0
N1310 N 0.79098 0.35649 0.22741 0.0
C1311 C 0.76944 0.37656 0.20483 0.0
C1312 C 0.73477 0.38674 0.21899 0.0
C1313 C 0.79542 0.46298 0.39635 0.0
C1314 C 0.79503 0.4573 0.4346 0.0
C1315 C 0.80676 0.49699 0.38191 0.0
C1316 C 0.81807 0.52667 0.40517 0.0
H1317 H 0.78572 0.44144 0.37735 0.0
H1318 H 0.80548 0.50033 0.35233 0.0
S1319 S 0.82709 0.52457 0.5071 0.0
N1320 N 0.81053 0.48319 0.4953 0.0
N1321 N 0.83177 0.54698 0.46816 0.0
C1322 C 0.81964 0.52078 0.44336 0.0
C1323 C 0.80817 0.48615 0.45807 0.0
C1324 C 0.80408 0.42016 0.85877 0.0
C1325 C 0.81196 0.41878 0.82097 0.0
C1326 C 0.76882 0.4112 0.87144 0.0
C1327 C 0.74005 0.40057 0.8468 0.0
H1328 H 0.82462 0.43033 0.87862 0.0
H1329 H 0.76368 0.41472 0.90055 0.0
S1330 S 0.74819 0.38514 0.74605 0.0
N1331 N 0.78946 0.40037 0.75969 0.0
N1332 N 0.72321 0.3837 0.78356 0.0
C1333 C 0.74839 0.39584 0.80937 0.0
C1334 C 0.78434 0.40484 0.79646 0.0
C1335 C 0.84532 0.5389 0.09791 0.0
C1336 C 0.85378 0.54608 0.0609 0.0
C1337 C 0.8563 0.50651 0.11483 0.0
C1338 C 0.87615 0.48017 0.09536 0.0
H1339 H 0.82812 0.55722 0.11331 0.0
H1340 H 0.84711 0.50109 0.14251 0.0
S1341 S 0.91229 0.48967 0.00082 0.0
N1342 N 0.88834 0.52701 0.00745 0.0
N1343 N 0.90908 0.46621 0.03929 0.0
C1344 C 0.88784 0.4887 0.05963 0.0
C1345 C 0.87664 0.52165 0.04239 0.0
C1346 C 0.68819 0.59624 0.2989 0.0
C1347 C 0.69116 0.57443 0.26697 0.0
C1348 C 0.71958 0.61293 0.31568 0.0
C1349 C 0.75471 0.60886 0.3006 0.0
H1350 H 0.6619 0.59855 0.31221 0.0
H1351 H 0.71649 0.62773 0.3415 0.0
S1352 S 0.77531 0.55915 0.21345 0.0
N1353 N 0.73058 0.55278 0.2185 0.0
N1354 N 0.78947 0.58484 0.24905 0.0
C1355 C 0.75728 0.58959 0.26679 0.0
C1356 C 0.72549 0.57209 0.25026 0.0
C1357 C 0.66676 0.44468 0.59146 0.0
C1358 C 0.65004 0.4374 0.55675 0.0
C1359 C 0.65949 0.47673 0.6114 0.0
C1360 C 0.63482 0.50218 0.5976 0.0
H1361 H 0.68768 0.42685 0.60208 0.0
H1362 H 0.67504 0.48281 0.63657 0.0
S1363 S 0.57967 0.49374 0.51125 0.0
N1364 N 0.60438 0.45632 0.51168 0.0
N1365 N 0.5907 0.51669 0.54964 0.0
C1366 C 0.61525 0.49371 0.56488 0.0
C1367 C 0.62272 0.46107 0.54435 0.0
C1368 C 0.75011 0.75127 0.58169 0.0
C1369 C 0.73381 0.78574 0.58497 0.0
C1370 C 0.73298 0.71954 0.59564 0.0
C1371 C 0.69908 0.72113 0.61367 0.0
H1372 H 0.77507 0.74827 0.5662 0.0
H1373 H 0.74551 0.69332 0.5905 0.0
S1374 S 0.64924 0.80623 0.63612 0.0
N1375 N 0.68498 0.82069 0.61224 0.0
N1376 N 0.65284 0.76116 0.639 0.0
C1377 C 0.6844 0.75605 0.62031 0.0
C1378 C 0.70172 0.78833 0.60573 0.0
C1379 C 0.14503 0.726 0.43259 0.0
C1380 C 0.18207 0.71723 0.428 0.0
C1381 C 0.13184 0.75994 0.42141 0.0
C1382 C 0.15532 0.78667 0.40565 0.0
H1383 H 0.12629 0.70705 0.4462 0.0
H1384 H 0.10344 0.7659 0.42694 0.0
S1385 S 0.25353 0.77576 0.38327 0.0
N1386 N 0.24124 0.73674 0.40309 0.0
N1387 N 0.2164 0.80078 0.38256 0.0
C1388 C 0.19187 0.7775 0.39888 0.0
C1389 C 0.20524 0.74268 0.40984 0.0
C1390 C 0.56213 0.90394 0.69936 0.0
C1391 C 0.56976 0.94219 0.70015 0.0
C1392 C 0.52861 0.8894 0.68523 0.0
C1393 C 0.50153 0.91261 0.6714 0.0
H1394 H 0.58126 0.88515 0.71154 0.0
H1395 H 0.5232 0.85999 0.68703 0.0
S1396 S 0.51107 0.01393 0.66038 0.0
N1397 N 0.54974 0.0024 0.68096 0.0
N1398 N 0.48682 0.97511 0.65432 0.0
C1399 C 0.51009 0.95056 0.66922 0.0
C1400 C 0.54418 0.96535 0.68361 0.0
C1401 C 0.29571 0.27815 0.93492 0.0
C1402 C 0.32081 0.30665 0.94593 0.0
C1403 C 0.3078 0.24391 0.92285 0.0
C1404 C 0.34551 0.2368 0.92106 0.0
H1405 H 0.26636 0.28158 0.93725 0.0
H1406 H 0.28731 0.2225 0.91617 0.0
S1407 S 0.42248 0.30433 0.94103 0.0
N1408 N 0.38501 0.32699 0.95031 0.0
N1409 N 0.40799 0.26285 0.92712 0.0
C1410 C 0.37094 0.26598 0.92947 0.0
C1411 C 0.35854 0.30081 0.94206 0.0
C1412 C 0.45179 0.60608 0.65213 0.0
C1413 C 0.44117 0.57031 0.63983 0.0
C1414 C 0.48668 0.62098 0.64458 0.0
C1415 C 0.51167 0.60065 0.6243 0.0
H1416 H 0.43446 0.62115 0.67067 0.0
H1417 H 0.49538 0.64688 0.65766 0.0
S1418 S 0.49475 0.50966 0.57922 0.0
N1419 N 0.45624 0.51784 0.60098 0.0
N1420 N 0.52212 0.5461 0.58724 0.0
C1421 C 0.49993 0.56706 0.60807 0.0
C1422 C 0.46432 0.55186 0.61554 0.0
C1423 C 0.8003 0.22795 0.05797 0.0
C1424 C 0.81475 0.19362 0.06653 0.0
C1425 C 0.81689 0.26068 0.07133 0.0
C1426 C 0.84902 0.26055 0.09339 0.0
H1427 H 0.77593 0.22966 0.0406 0.0
H1428 H 0.80478 0.28636 0.06346 0.0
S1429 S 0.89734 0.17784 0.1248 0.0
N1430 N 0.86242 0.16116 0.09942 0.0
N1431 N 0.89415 0.22312 0.12425 0.0
C1432 C 0.8636 0.22641 0.10268 0.0
C1433 C 0.84627 0.19283 0.08941 0.0
C1434 C 0.54762 0.06786 0.84733 0.0
C1435 C 0.54654 0.02919 0.84348 0.0
C1436 C 0.51687 0.08677 0.85915 0.0
C1437 C 0.48392 0.06771 0.86759 0.0
H1438 H 0.5716 0.08394 0.83912 0.0
H1439 H 0.5184 0.11661 0.85962 0.0
S1440 S 0.46961 0.96605 0.86994 0.0
N1441 N 0.5118 0.97226 0.85467 0.0
N1442 N 0.45407 0.00773 0.87713 0.0
C1443 C 0.48363 0.0289 0.86716 0.0
C1444 C 0.51492 0.00966 0.85505 0.0
C1445 C 0.94541 0.94234 0.34357 0.0
C1446 C 0.94278 0.97924 0.3331 0.0
C1447 C 0.97906 0.92843 0.35504 0.0
C1448 C 0.01136 0.95089 0.35658 0.0
H1449 H 0.92188 0.92344 0.34086 0.0
H1450 H 0.97996 0.89936 0.36117 0.0
S1451 S 0.0172 0.05142 0.33939 0.0
N1452 N 0.97384 0.03943 0.33034 0.0
N1453 N 0.03721 0.01328 0.35195 0.0
C1454 C 0.00835 0.98866 0.34942 0.0
C1455 C 0.97403 0.00281 0.33762 0.0
C1456 C 0.40051 0.33489 0.21138 0.0
C1457 C 0.4206 0.3028 0.20691 0.0
C1458 C 0.39006 0.34681 0.24644 0.0
C1459 C 0.39912 0.32696 0.27828 0.0
H1460 H 0.39484 0.35222 0.18805 0.0
H1461 H 0.37638 0.37281 0.24873 0.0
S1462 S 0.4455 0.23734 0.28028 0.0
N1463 N 0.44465 0.24854 0.2364 0.0
N1464 N 0.42503 0.27093 0.30224 0.0
C1465 C 0.41622 0.29303 0.27372 0.0
C1466 C 0.42702 0.281 0.23803 0.0
C1467 C 0.3914 0.68185 0.97989 0.0
C1468 C 0.42818 0.67987 0.96897 0.0
C1469 C 0.38014 0.66881 0.01411 0.0
C1470 C 0.40525 0.65348 0.0391 0.0
H1471 H 0.37122 0.69469 0.96241 0.0
H1472 H 0.35173 0.67233 0.02154 0.0
S1473 S 0.50386 0.63757 0.02205 0.0
N1474 N 0.4891 0.65799 0.98452 0.0
N1475 N 0.46787 0.63372 0.04898 0.0
C1476 C 0.44168 0.64932 0.0277 0.0
C1477 C 0.45315 0.66241 0.99263 0.0
C1478 C 0.07248 0.69811 0.70654 0.0
C1479 C 0.04205 0.67758 0.69182 0.0
C1480 C 0.09013 0.68751 0.73901 0.0
C1481 C 0.07853 0.65561 0.75733 0.0
H1482 H 0.0817 0.72357 0.69398 0.0
H1483 H 0.11254 0.70476 0.75024 0.0
S1484 S 0.0019 0.59101 0.72935 0.0
N1485 N 0.00225 0.62287 0.69735 0.0
N1486 N 0.03596 0.60269 0.75812 0.0
C1487 C 0.0494 0.63381 0.74207 0.0
C1488 C 0.03104 0.64486 0.70932 0.0
C1489 C 0.08624 0.33737 0.44782 0.0
C1490 C 0.05779 0.31041 0.44768 0.0
C1491 C 0.09855 0.35417 0.48094 0.0
C1492 C 0.08195 0.34523 0.51453 0.0
H1493 H 0.10004 0.34434 0.42252 0.0
H1494 H 0.12157 0.37379 0.48039 0.0
S1495 S 0.00431 0.2784 0.5279 0.0
N1496 N 0.01204 0.27683 0.48325 0.0
N1497 N 0.03448 0.30904 0.54529 0.0
C1498 C 0.05227 0.3196 0.51434 0.0
C1499 C 0.04036 0.30198 0.48089 0.0
C1500 C 0.45213 0.71563 0.29745 0.0
C1501 C 0.45351 0.69355 0.32897 0.0
C1502 C 0.43579 0.70246 0.26446 0.0
C1503 C 0.42043 0.66646 0.26145 0.0
H1504 H 0.46422 0.74327 0.29811 0.0
H1505 H 0.43611 0.72041 0.24089 0.0
S1506 S 0.41663 0.59776 0.33647 0.0
N1507 N 0.43762 0.63433 0.35553 0.0
N1508 N 0.40688 0.60924 0.29369 0.0
C1509 C 0.42083 0.64439 0.29319 0.0
C1510 C 0.43732 0.65801 0.32688 0.0
C1511 C 0.0656 0.68113 0.02746 0.0
C1512 C 0.08693 0.70956 0.04486 0.0
C1513 C 0.07538 0.6666 0.99319 0.0
C1514 C 0.10724 0.67941 0.97552 0.0
H1515 H 0.04025 0.67111 0.03957 0.0
H1516 H 0.05766 0.64551 0.98024 0.0
S1517 S 0.17353 0.75209 0.0103 0.0
N1518 N 0.14201 0.74905 0.04241 0.0
N1519 N 0.16082 0.72129 0.97837 0.0
C1520 C 0.1296 0.70681 0.99325 0.0
C1521 C 0.11934 0.72199 0.02784 0.0
C1522 C 0.0667 0.38259 0.79009 0.0
C1523 C 0.07755 0.34886 0.80473 0.0
C1524 C 0.07822 0.39377 0.75531 0.0
C1525 C 0.10065 0.37137 0.73392 0.0
H1526 H 0.04749 0.39954 0.80457 0.0
H1527 H 0.06758 0.41893 0.74421 0.0
S1528 S 0.14292 0.28455 0.76233 0.0
N1529 N 0.11708 0.29619 0.79733 0.0
N1530 N 0.13781 0.31708 0.73154 0.0
C1531 C 0.11427 0.3393 0.74936 0.0
C1532 C 0.10305 0.32812 0.78498 0.0
C1533 C 0.48183 0.31625 0.52978 0.0
C1534 C 0.46855 0.32945 0.56359 0.0
C1535 C 0.46963 0.3303 0.49618 0.0
C1536 C 0.44324 0.35769 0.4951 0.0
H1537 H 0.50091 0.29392 0.52916 0.0
H1538 H 0.47909 0.31783 0.47091 0.0
S1539 S 0.40345 0.40521 0.57558 0.0
N1540 N 0.43066 0.3745 0.59383 0.0
N1541 N 0.4071 0.40037 0.53051 0.0
C1542 C 0.43155 0.37288 0.52863 0.0
C1543 C 0.4444 0.35893 0.56293 0.0
C1544 C 0.21 0.42883 0.36805 0.0
C1545 C 0.1979 0.4231 0.33148 0.0
C1546 C 0.24474 0.41784 0.37971 0.0
C1547 C 0.26903 0.40134 0.35504 0.0
H1548 H 0.19298 0.44305 0.38754 0.0
H1549 H 0.25319 0.42407 0.40791 0.0
S1550 S 0.24932 0.3777 0.25685 0.0
N1551 N 0.21178 0.39757 0.27112 0.0
N1552 N 0.27742 0.37735 0.29298 0.0
C1553 C 0.25658 0.39385 0.31878 0.0
C1554 C 0.2209 0.40459 0.30703 0.0
C1555 C 0.31244 0.4803 0.05728 0.0
C1556 C 0.28979 0.45619 0.07753 0.0
C1557 C 0.32708 0.51303 0.07318 0.0
C1558 C 0.32025 0.52228 0.11008 0.0
H1559 H 0.31766 0.47465 0.0285 0.0
H1560 H 0.34362 0.53133 0.0564 0.0
S1561 S 0.26429 0.4672 0.1754 0.0
N1562 N 0.26212 0.44305 0.13653 0.0
N1563 N 0.29043 0.50395 0.16687 0.0
C1564 C 0.29875 0.49765 0.13101 0.0
C1565 C 0.28328 0.46476 0.11459 0.0
C1566 C 0.25655 0.57566 0.74732 0.0
C1567 C 0.29237 0.57954 0.76231 0.0
C1568 C 0.22607 0.58689 0.76714 0.0
C1569 C 0.23027 0.60261 0.80265 0.0
H1570 H 0.25178 0.56251 0.72064 0.0
H1571 H 0.19898 0.58207 0.75491 0.0
S1572 S 0.31903 0.62367 0.85187 0.0
N1573 N 0.33081 0.60344 0.81303 0.0
N1574 N 0.27373 0.62502 0.85029 0.0
C1575 C 0.26625 0.60861 0.81703 0.0
C1576 C 0.29723 0.59691 0.79689 0.0
C1577 C 0.18572 0.51352 0.4936 0.0
C1578 C 0.18795 0.54978 0.50772 0.0
C1579 C 0.17327 0.48426 0.51524 0.0
C1580 C 0.16252 0.49009 0.5519 0.0
H1581 H 0.19512 0.5073 0.46612 0.0
H1582 H 0.17341 0.45671 0.50344 0.0
S1583 S 0.15769 0.58075 0.59997 0.0
N1584 N 0.17445 0.59056 0.55919 0.0
N1585 N 0.15093 0.53561 0.59988 0.0
C1586 C 0.16235 0.52657 0.56555 0.0
C1587 C 0.17509 0.55638 0.54348 0.0
C1588 C 0.21367 0.55728 0.20735 0.0
C1589 C 0.20929 0.56007 0.24548 0.0
C1590 C 0.24098 0.57807 0.18989 0.0
C1591 C 0.2657 0.6014 0.21023 0.0
H1592 H 0.19659 0.53804 0.19107 0.0
H1593 H 0.24427 0.57373 0.16057 0.0
S1594 S 0.26355 0.62008 0.31073 0.0
N1595 N 0.22939 0.58978 0.30295 0.0
N1596 N 0.28229 0.62786 0.2703 0.0
C1597 C 0.26052 0.60555 0.24829 0.0
C1598 C 0.2319 0.58506 0.26592 0.0
C1599 C 0.18293 0.47017 0.92756 0.0
C1600 C 0.21466 0.47508 0.94978 0.0
C1601 C 0.16502 0.50056 0.9133 0.0
C1602 C 0.17777 0.5367 0.9217 0.0
H1603 H 0.17264 0.44271 0.92012 0.0
H1604 H 0.14144 0.49574 0.89508 0.0
S1605 S 0.258 0.56386 0.98163 0.0
N1606 N 0.25694 0.51839 0.98145 0.0
N1607 N 0.22297 0.57561 0.95532 0.0
C1608 C 0.20853 0.54188 0.94537 0.0
C1609 C 0.22712 0.51098 0.95922 0.0
C1610 C 0.30036 0.44619 0.66671 0.0
C1611 C 0.30304 0.44586 0.70546 0.0
C1612 C 0.26802 0.43422 0.64819 0.0
C1613 C 0.23721 0.42169 0.66777 0.0
H1614 H 0.32262 0.45759 0.65055 0.0
H1615 H 0.2665 0.43685 0.61853 0.0
S1616 S 0.23237 0.40825 0.76865 0.0
N1617 N 0.27381 0.4266 0.76225 0.0
N1618 N 0.21302 0.40442 0.72731 0.0
C1619 C 0.24053 0.41829 0.70616 0.0
C1620 C 0.27348 0.43023 0.72504 0.0
C1621 C 0.34558 0.53271 0.48205 0.0
C1622 C 0.33072 0.55926 0.45865 0.0
C1623 C 0.3597 0.50008 0.4679 0.0
C1624 C 0.35963 0.49278 0.42978 0.0
H1625 H 0.34474 0.5362 0.51169 0.0
H1626 H 0.36915 0.47976 0.48715 0.0
S1627 S 0.32867 0.55586 0.35643 0.0
N1628 N 0.32051 0.57791 0.39531 0.0
N1629 N 0.34728 0.51693 0.36861 0.0
C1630 C 0.34758 0.52049 0.40594 0.0
C1631 C 0.33305 0.55362 0.42039 0.0
C1632 C 0.34903 0.20549 0.43925 0.0
C1633 C 0.31603 0.20263 0.45874 0.0
C1634 C 0.36131 0.23924 0.42486 0.0
C1635 C 0.34087 0.27136 0.42907 0.0
H1636 H 0.36631 0.18188 0.43638 0.0
H1637 H 0.38755 0.2403 0.41117 0.0
S1638 S 0.25005 0.27721 0.47395 0.0
N1639 N 0.26137 0.23386 0.47862 0.0
N1640 N 0.28417 0.29711 0.4515 0.0
C1641 C 0.30669 0.26828 0.44666 0.0
C1642 C 0.29438 0.234 0.46154 0.0
C1643 C 0.84541 0.29279 0.54777 0.0
C1644 C 0.80991 0.30539 0.5539 0.0
C1645 C 0.85821 0.26191 0.56596 0.0
C1646 C 0.83566 0.24205 0.59037 0.0
H1647 H 0.86318 0.3064 0.52817 0.0
H1648 H 0.88539 0.25258 0.55945 0.0
S1649 S 0.74097 0.2645 0.61709 0.0
N1650 N 0.75285 0.29661 0.58742 0.0
N1651 N 0.77684 0.23799 0.621 0.0
C1652 C 0.80049 0.25492 0.59757 0.0
C1653 C 0.78764 0.28678 0.57953 0.0
C1654 C 0.44099 0.07878 0.35745 0.0
C1655 C 0.43751 0.04539 0.3377 0.0
C1656 C 0.47517 0.09091 0.37209 0.0
C1657 C 0.50684 0.06989 0.36765 0.0
H1658 H 0.41793 0.09687 0.35924 0.0
H1659 H 0.47717 0.11801 0.38495 0.0
S1660 S 0.5095 0.97631 0.32529 0.0
N1661 N 0.46651 0.98864 0.31964 0.0
N1662 N 0.53067 0.01103 0.34747 0.0
C1663 C 0.50256 0.03453 0.35148 0.0
C1664 C 0.46788 0.02243 0.3363 0.0
C1665 C 0.66446 0.70404 0.07626 0.0
C1666 C 0.70226 0.69779 0.07965 0.0
C1667 C 0.65025 0.7381 0.0858 0.0
C1668 C 0.67333 0.76745 0.09877 0.0
H1669 H 0.64573 0.68285 0.06499 0.0
H1670 H 0.62105 0.74177 0.08156 0.0
S1671 S 0.77375 0.76419 0.11694 0.0
N1672 N 0.7622 0.72286 0.10022 0.0
N1673 N 0.73528 0.78711 0.11783 0.0
C1674 C 0.7109 0.76109 0.10416 0.0
C1675 C 0.7254 0.72618 0.09478 0.0
C1676 C 0.54309 0.42142 0.30632 0.0
C1677 C 0.54887 0.45992 0.30609 0.0
C1678 C 0.51355 0.4052 0.32515 0.0
C1679 C 0.48855 0.42687 0.34438 0.0
H1680 H 0.56053 0.40364 0.29056 0.0
H1681 H 0.50929 0.37559 0.32301 0.0
S1682 S 0.49482 0.52841 0.35748 0.0
N1683 N 0.5296 0.51894 0.33065 0.0
N1684 N 0.47403 0.48841 0.36572 0.0
C1685 C 0.49539 0.46516 0.34641 0.0
C1686 C 0.52555 0.48169 0.32738 0.0
C1687 C 0.23476 0.78382 0.88504 0.0
C1688 C 0.21735 0.80804 0.90914 0.0
C1689 C 0.21524 0.75377 0.86882 0.0
C1690 C 0.17761 0.74735 0.87584 0.0
H1691 H 0.26416 0.78635 0.88095 0.0
H1692 H 0.23028 0.73412 0.85269 0.0
S1693 S 0.11826 0.80787 0.931 0.0
N1694 N 0.15974 0.82728 0.9349 0.0
N1695 N 0.12266 0.77142 0.904 0.0
C1696 C 0.15918 0.77392 0.89664 0.0
C1697 C 0.17921 0.80409 0.91353 0.0
C1698 C 0.47463 0.95952 0.17627 0.0
C1699 C 0.45672 0.93876 0.20359 0.0
C1700 C 0.50742 0.9478 0.16077 0.0
C1701 C 0.52277 0.91459 0.17154 0.0
H1702 H 0.46391 0.98558 0.16762 0.0
H1703 H 0.52077 0.9647 0.14026 0.0
S1704 S 0.48644 0.85004 0.24169 0.0
N1705 N 0.4567 0.88343 0.2405 0.0
N1706 N 0.51784 0.86111 0.21116 0.0
C1707 C 0.50477 0.8933 0.19835 0.0
C1708 C 0.47183 0.90546 0.21442 0.0
C1709 C 0.04158 0.07879 0.67476 0.0
C1710 C 0.04094 0.06406 0.71039 0.0
C1711 C 0.00927 0.091 0.65781 0.0
C1712 C 0.97526 0.08746 0.67544 0.0
H1713 H 0.06727 0.08152 0.66023 0.0
H1714 H 0.01085 0.10322 0.63082 0.0
S1715 S 0.95868 0.05048 0.76857 0.0
N1716 N 0.00334 0.04703 0.76274 0.0
N1717 N 0.94275 0.06853 0.73029 0.0
C1718 C 0.9742 0.07227 0.71073 0.0
C1719 C 0.00704 0.06092 0.72838 0.0
loop_
_geom_bond_atom_site_label_1
_geom_bond_atom_site_label_2
_geom_bond_distance
_geom_bond_site_symmetry_2
_ccdc_geom_bond_type
C0 O1 1.160 . S
C0 O7 1.185 . S
O1 C0 1.160 . S
O2 Zn3 1.899 . S
O2 C10 1.284 . S
Zn3 O2 1.899 . S
Zn3 O4 2.032 1_455 S
Zn3 O7 2.086 . S
Zn3 O12 1.977 1_455 S
O4 Zn3 2.032 1_655 S
O4 C8 1.278 . S
C5 O6 1.203 . S
C5 O12 1.267 . S
O6 C5 1.203 . S
O7 C0 1.185 . S
O7 Zn3 2.086 . S
C8 O4 1.278 . S
C8 O9 1.211 . S
O9 C8 1.211 . S
C10 O2 1.284 . S
C10 O11 1.273 . S
O11 C10 1.273 . S
O12 Zn3 1.977 1_655 S
O12 C5 1.267 . S
C13 O14 1.160 . S
C13 O20 1.185 . S
O14 C13 1.160 . S
O15 Zn16 1.899 1_655 S
O15 C23 1.284 . S
Zn16 O15 1.899 1_455 S
Zn16 O17 2.032 1_455 S
Zn16 O20 2.086 . S
Zn16 O25 1.977 . S
O17 Zn16 2.032 1_655 S
O17 C21 1.278 . S
C18 O19 1.203 . S
C18 O25 1.267 . S
O19 C18 1.203 . S
O20 C13 1.185 . S
O20 Zn16 2.086 . S
C21 O17 1.278 . S
C21 O22 1.211 . S
O22 C21 1.211 . S
C23 O15 1.284 . S
C23 O24 1.273 . S
O24 C23 1.273 . S
O25 Zn16 1.977 . S
O25 C18 1.267 . S
C26 O27 1.160 . S
C26 O33 1.185 . S
O27 C26 1.160 . S
O28 Zn29 1.899 . S
O28 C36 1.284 . S
Zn29 O28 1.899 . S
Zn29 O30 2.032 . S
Zn29 O33 2.086 . S
Zn29 O38 1.977 . S
O30 Zn29 2.032 . S
O30 C34 1.278 . S
C31 O32 1.203 . S
C31 O38 1.267 . S
O32 C31 1.203 . S
O33 C26 1.185 . S
O33 Zn29 2.086 . S
C34 O30 1.278 . S
C34 O35 1.211 . S
O35 C34 1.211 . S
C36 O28 1.284 . S
C36 O37 1.273 . S
O37 C36 1.273 . S
O38 Zn29 1.977 . S
O38 C31 1.267 . S
C39 O40 1.160 . S
C39 O46 1.185 . S
O40 C39 1.160 . S
O41 Zn42 1.899 . S
O41 C49 1.284 . S
Zn42 O41 1.899 . S
Zn42 O43 2.032 . S
Zn42 O46 2.086 . S
Zn42 O51 1.977 . S
O43 Zn42 2.032 . S
O43 C47 1.278 . S
C44 O45 1.203 . S
C44 O51 1.267 . S
O45 C44 1.203 . S
O46 C39 1.185 . S
O46 Zn42 2.086 . S
C47 O43 1.278 . S
C47 O48 1.211 . S
O48 C47 1.211 . S
C49 O41 1.284 . S
C49 O50 1.273 . S
O50 C49 1.273 . S
O51 Zn42 1.977 . S
O51 C44 1.267 . S
C52 O53 1.160 . S
C52 O59 1.185 . S
O53 C52 1.160 . S
O54 Zn55 1.899 . S
O54 C62 1.284 . S
Zn55 O54 1.899 . S
Zn55 O56 2.032 1_455 S
Zn55 O59 2.086 . S
Zn55 O64 1.977 1_455 S
O56 Zn55 2.032 1_655 S
O56 C60 1.278 . S
C57 O58 1.203 . S
C57 O64 1.267 . S
O58 C57 1.203 . S
O59 C52 1.185 . S
O59 Zn55 2.086 . S
C60 O56 1.278 . S
C60 O61 1.211 . S
O61 C60 1.211 . S
C62 O54 1.284 . S
C62 O63 1.273 . S
O63 C62 1.273 . S
O64 Zn55 1.977 1_655 S
O64 C57 1.267 . S
C65 O66 1.160 . S
C65 O72 1.185 . S
O66 C65 1.160 . S
O67 Zn68 1.899 . S
O67 C75 1.284 . S
Zn68 O67 1.899 . S
Zn68 O69 2.032 . S
Zn68 O72 2.086 . S
Zn68 O77 1.977 . S
O69 Zn68 2.032 . S
O69 C73 1.278 . S
C70 O71 1.203 . S
C70 O77 1.267 . S
O71 C70 1.203 . S
O72 C65 1.185 . S
O72 Zn68 2.086 . S
C73 O69 1.278 . S
C73 O74 1.211 . S
O74 C73 1.211 . S
C75 O67 1.284 . S
C75 O76 1.273 . S
O76 C75 1.273 . S
O77 Zn68 1.977 . S
O77 C70 1.267 . S
C78 O79 1.160 . S
C78 O85 1.185 . S
O79 C78 1.160 . S
O80 Zn81 1.899 . S
O80 C88 1.284 . S
Zn81 O80 1.899 . S
Zn81 O82 2.032 . S
Zn81 O85 2.086 . S
Zn81 O90 1.977 . S
O82 Zn81 2.032 . S
O82 C86 1.278 . S
C83 O84 1.203 . S
C83 O90 1.267 . S
O84 C83 1.203 . S
O85 C78 1.185 . S
O85 Zn81 2.086 . S
C86 O82 1.278 . S
C86 O87 1.211 . S
O87 C86 1.211 . S
C88 O80 1.284 . S
C88 O89 1.273 . S
O89 C88 1.273 . S
O90 Zn81 1.977 . S
O90 C83 1.267 . S
C91 O92 1.160 . S
C91 O98 1.185 . S
O92 C91 1.160 . S
O93 Zn94 1.899 . S
O93 C101 1.284 1_455 S
Zn94 O93 1.899 . S
Zn94 O95 2.032 1_455 S
Zn94 O98 2.086 . S
Zn94 O103 1.977 . S
O95 Zn94 2.032 1_655 S
O95 C99 1.278 . S
C96 O97 1.203 . S
C96 O103 1.267 . S
O97 C96 1.203 . S
O98 C91 1.185 . S
O98 Zn94 2.086 . S
C99 O95 1.278 . S
C99 O100 1.211 . S
O100 C99 1.211 . S
C101 O93 1.284 1_655 S
C101 O102 1.273 . S
O102 C101 1.273 . S
O103 Zn94 1.977 . S
O103 C96 1.267 . S
C104 O105 1.160 . S
C104 O111 1.185 . S
O105 C104 1.160 . S
O106 Zn107 1.899 . S
O106 C114 1.284 . S
Zn107 O106 1.899 . S
Zn107 O108 2.032 1_565 S
Zn107 O111 2.086 . S
Zn107 O116 1.977 1_565 S
O108 Zn107 2.032 1_545 S
O108 C112 1.278 . S
C109 O110 1.203 . S
C109 O116 1.267 . S
O110 C109 1.203 . S
O111 C104 1.185 . S
O111 Zn107 2.086 . S
C112 O108 1.278 . S
C112 O113 1.211 . S
O113 C112 1.211 . S
C114 O106 1.284 . S
C114 O115 1.273 . S
O115 C114 1.273 . S
O116 Zn107 1.977 1_545 S
O116 C109 1.267 . S
C117 O118 1.160 . S
C117 O124 1.185 . S
O118 C117 1.160 . S
O119 Zn120 1.899 . S
O119 C127 1.284 . S
Zn120 O119 1.899 . S
Zn120 O121 2.032 . S
Zn120 O124 2.086 . S
Zn120 O129 1.977 . S
O121 Zn120 2.032 . S
O121 C125 1.278 . S
C122 O123 1.203 . S
C122 O129 1.267 . S
O123 C122 1.203 . S
O124 C117 1.185 . S
O124 Zn120 2.086 . S
C125 O121 1.278 . S
C125 O126 1.211 . S
O126 C125 1.211 . S
C127 O119 1.284 . S
C127 O128 1.273 . S
O128 C127 1.273 . S
O129 Zn120 1.977 . S
O129 C122 1.267 . S
C130 O131 1.160 . S
C130 O137 1.185 . S
O131 C130 1.160 . S
O132 Zn133 1.899 . S
O132 C140 1.284 . S
Zn133 O132 1.899 . S
Zn133 O134 2.032 1_565 S
Zn133 O137 2.086 . S
Zn133 O142 1.977 1_565 S
O134 Zn133 2.032 1_545 S
O134 C138 1.278 . S
C135 O136 1.203 . S
C135 O142 1.267 . S
O136 C135 1.203 . S
O137 C130 1.185 . S
O137 Zn133 2.086 . S
C138 O134 1.278 . S
C138 O139 1.211 . S
O139 C138 1.211 . S
C140 O132 1.284 . S
C140 O141 1.273 . S
O141 C140 1.273 . S
O142 Zn133 1.977 1_545 S
O142 C135 1.267 . S
C143 O144 1.160 . S
C143 O150 1.185 . S
O144 C143 1.160 . S
O145 Zn146 1.899 1_556 S
O145 C153 1.286 . S
Zn146 O145 1.899 1_554 S
Zn146 O147 2.032 1_554 S
Zn146 O150 2.086 . S
Zn146 O155 1.977 . S
O147 Zn146 2.032 1_556 S
O147 C151 1.278 . S
C148 O149 1.203 . S
C148 O155 1.267 . S
O149 C148 1.203 . S
O150 C143 1.185 . S
O150 Zn146 2.086 . S
C151 O147 1.278 . S
C151 O152 1.211 . S
O152 C151 1.211 . S
C153 O145 1.286 . S
C153 O154 1.273 . S
O154 C153 1.273 . S
O155 Zn146 1.977 . S
O155 C148 1.267 . S
C156 O157 1.160 . S
C156 O163 1.185 . S
O157 C156 1.160 . S
O158 Zn159 1.899 1_556 S
O158 C166 1.284 . S
Zn159 O158 1.899 1_554 S
Zn159 O160 2.032 . S
Zn159 O163 2.086 1_554 S
Zn159 O168 1.977 . S
O160 Zn159 2.032 . S
O160 C164 1.278 . S
C161 O162 1.203 . S
C161 O168 1.267 . S
O162 C161 1.203 . S
O163 C156 1.185 . S
O163 Zn159 2.086 1_556 S
C164 O160 1.278 . S
C164 O165 1.211 . S
O165 C164 1.211 . S
C166 O158 1.284 . S
C166 O167 1.273 . S
O167 C166 1.273 . S
O168 Zn159 1.977 . S
O168 C161 1.267 . S
C169 O170 1.160 . S
C169 O176 1.185 . S
O170 C169 1.160 . S
O171 Zn172 1.899 . S
O171 C179 1.284 . S
Zn172 O171 1.899 . S
Zn172 O173 2.032 1_556 S
Zn172 O176 2.086 . S
Zn172 O181 1.977 1_556 S
O173 Zn172 2.032 1_554 S
O173 C177 1.278 . S
C174 O175 1.203 . S
C174 O181 1.267 . S
O175 C174 1.203 . S
O176 C169 1.185 . S
O176 Zn172 2.086 . S
C177 O173 1.278 . S
C177 O178 1.211 . S
O178 C177 1.211 . S
C179 O171 1.284 . S
C179 O180 1.273 . S
O180 C179 1.273 . S
O181 Zn172 1.977 1_554 S
O181 C174 1.267 . S
C182 O183 1.160 . S
C182 O189 1.185 . S
O183 C182 1.160 . S
O184 Zn185 1.899 . S
O184 C192 1.284 . S
Zn185 O184 1.899 . S
Zn185 O186 2.032 . S
Zn185 O189 2.086 . S
Zn185 O194 1.977 . S
O186 Zn185 2.032 . S
O186 C190 1.278 . S
C187 O188 1.203 . S
C187 O194 1.267 . S
O188 C187 1.203 . S
O189 C182 1.185 . S
O189 Zn185 2.086 . S
C190 O186 1.278 . S
C190 O191 1.211 . S
O191 C190 1.211 . S
C192 O184 1.284 . S
C192 O193 1.273 . S
O193 C192 1.273 . S
O194 Zn185 1.977 . S
O194 C187 1.267 . S
C195 O196 1.160 . S
C195 O202 1.185 . S
O196 C195 1.160 . S
O197 Zn198 1.899 . S
O197 C205 1.284 . S
Zn198 O197 1.899 . S
Zn198 O199 2.032 . S
Zn198 O202 2.086 . S
Zn198 O207 1.977 . S
O199 Zn198 2.032 . S
O199 C203 1.278 . S
C200 O201 1.203 . S
C200 O207 1.267 . S
O201 C200 1.203 . S
O202 C195 1.185 . S
O202 Zn198 2.086 . S
C203 O199 1.278 . S
C203 O204 1.211 . S
O204 C203 1.211 . S
C205 O197 1.284 . S
C205 O206 1.273 . S
O206 C205 1.273 . S
O207 Zn198 1.977 . S
O207 C200 1.267 . S
C208 O209 1.160 . S
C208 O215 1.185 . S
O209 C208 1.160 . S
O210 Zn211 1.899 . S
O210 C218 1.284 1_545 S
Zn211 O210 1.899 . S
Zn211 O212 2.032 1_545 S
Zn211 O215 2.086 . S
Zn211 O220 1.977 . S
O212 Zn211 2.032 1_565 S
O212 C216 1.278 . S
C213 O214 1.203 . S
C213 O220 1.267 . S
O214 C213 1.203 . S
O215 C208 1.185 . S
O215 Zn211 2.086 . S
C216 O212 1.278 . S
C216 O217 1.211 . S
O217 C216 1.211 . S
C218 O210 1.284 1_565 S
C218 O219 1.273 . S
O219 C218 1.273 . S
O220 Zn211 1.977 . S
O220 C213 1.267 . S
C221 O222 1.160 . S
C221 O228 1.185 . S
O222 C221 1.160 . S
O223 Zn224 1.899 . S
O223 C231 1.284 . S
Zn224 O223 1.899 . S
Zn224 O225 2.032 . S
Zn224 O228 2.086 . S
Zn224 O233 1.977 . S
O225 Zn224 2.032 . S
O225 C229 1.278 . S
C226 O227 1.203 . S
C226 O233 1.267 . S
O227 C226 1.203 . S
O228 C221 1.185 . S
O228 Zn224 2.086 . S
C229 O225 1.278 . S
C229 O230 1.211 . S
O230 C229 1.211 . S
C231 O223 1.284 . S
C231 O232 1.273 . S
O232 C231 1.273 . S
O233 Zn224 1.977 . S
O233 C226 1.267 . S
C234 O235 1.160 . S
C234 O241 1.185 . S
O235 C234 1.160 . S
O236 Zn237 1.899 . S
O236 C244 1.284 . S
Zn237 O236 1.899 . S
Zn237 O238 2.032 . S
Zn237 O241 2.086 . S
Zn237 O246 1.977 . S
O238 Zn237 2.032 . S
O238 C242 1.278 . S
C239 O240 1.203 . S
C239 O246 1.267 . S
O240 C239 1.203 . S
O241 C234 1.185 . S
O241 Zn237 2.086 . S
C242 O238 1.278 . S
C242 O243 1.211 . S
O243 C242 1.211 . S
C244 O236 1.284 . S
C244 O245 1.273 . S
O245 C244 1.273 . S
O246 Zn237 1.977 . S
O246 C239 1.267 . S
C247 O248 1.160 . S
C247 O254 1.185 . S
O248 C247 1.160 . S
O249 Zn250 1.899 1_565 S
O249 C257 1.284 . S
Zn250 O249 1.899 1_545 S
Zn250 O251 2.032 1_545 S
Zn250 O254 2.086 . S
Zn250 O259 1.977 . S
O251 Zn250 2.032 1_565 S
O251 C255 1.278 . S
C252 O253 1.203 . S
C252 O259 1.267 . S
O253 C252 1.203 . S
O254 C247 1.185 . S
O254 Zn250 2.086 . S
C255 O251 1.278 . S
C255 O256 1.211 . S
O256 C255 1.211 . S
C257 O249 1.284 . S
C257 O258 1.273 . S
O258 C257 1.273 . S
O259 Zn250 1.977 . S
O259 C252 1.267 . S
C260 O261 1.160 . S
C260 O267 1.185 . S
O261 C260 1.160 . S
O262 Zn263 1.898 . S
O262 C270 1.287 1_554 S
Zn263 O262 1.898 . S
Zn263 O264 2.032 1_554 S
Zn263 O267 2.086 . S
Zn263 O272 1.977 . S
O264 Zn263 2.032 1_556 S
O264 C268 1.278 . S
C265 O266 1.203 . S
C265 O272 1.267 . S
O266 C265 1.203 . S
O267 C260 1.185 . S
O267 Zn263 2.086 . S
C268 O264 1.278 . S
C268 O269 1.211 . S
O269 C268 1.211 . S
C270 O262 1.287 1_556 S
C270 O271 1.273 . S
O271 C270 1.273 . S
O272 Zn263 1.977 . S
O272 C265 1.267 . S
C273 O274 1.160 . S
C273 O280 1.185 . S
O274 C273 1.160 . S
O275 Zn276 1.899 . S
O275 C283 1.284 . S
Zn276 O275 1.899 . S
Zn276 O277 2.032 . S
Zn276 O280 2.086 . S
Zn276 O285 1.977 . S
O277 Zn276 2.032 . S
O277 C281 1.278 . S
C278 O279 1.203 . S
C278 O285 1.267 . S
O279 C278 1.203 . S
O280 C273 1.185 . S
O280 Zn276 2.086 . S
C281 O277 1.278 . S
C281 O282 1.211 . S
O282 C281 1.211 . S
C283 O275 1.284 . S
C283 O284 1.273 . S
O284 C283 1.273 . S
O285 Zn276 1.977 . S
O285 C278 1.267 . S
C286 O287 1.160 . S
C286 O293 1.185 . S
O287 C286 1.160 . S
O288 Zn289 1.899 . S
O288 C296 1.284 . S
Zn289 O288 1.899 . S
Zn289 O290 2.032 . S
Zn289 O293 2.086 . S
Zn289 O298 1.977 . S
O290 Zn289 2.032 . S
O290 C294 1.278 . S
C291 O292 1.203 . S
C291 O298 1.267 . S
O292 C291 1.203 . S
O293 C286 1.185 . S
O293 Zn289 2.086 . S
C294 O290 1.278 . S
C294 O295 1.211 . S
O295 C294 1.211 . S
C296 O288 1.284 . S
C296 O297 1.273 . S
O297 C296 1.273 . S
O298 Zn289 1.977 . S
O298 C291 1.267 . S
C299 O300 1.160 . S
C299 O306 1.185 . S
O300 C299 1.160 . S
O301 Zn302 1.899 . S
O301 C309 1.284 . S
Zn302 O301 1.899 . S
Zn302 O303 2.032 . S
Zn302 O306 2.086 . S
Zn302 O311 1.977 . S
O303 Zn302 2.032 . S
O303 C307 1.278 . S
C304 O305 1.203 . S
C304 O311 1.267 . S
O305 C304 1.203 . S
O306 C299 1.185 . S
O306 Zn302 2.086 . S
C307 O303 1.278 . S
C307 O308 1.211 . S
O308 C307 1.211 . S
C309 O301 1.284 . S
C309 O310 1.273 . S
O310 C309 1.273 . S
O311 Zn302 1.977 . S
O311 C304 1.267 . S
Fe312 O314 1.918 . S
Fe312 O317 1.997 . S
Fe312 O318 2.002 . S
Fe312 O323 1.976 . S
Fe312 O326 1.996 . S
Fe313 O314 1.918 . S
Fe313 O321 1.997 . S
Fe313 O324 1.996 . S
Fe313 O328 1.976 . S
Fe313 O331 2.002 . S
O314 Fe312 1.918 . S
O314 Fe313 1.918 . S
O314 Fe315 1.918 . S
Fe315 O314 1.918 . S
Fe315 O316 2.002 . S
Fe315 O325 1.976 . S
Fe315 O329 1.996 . S
Fe315 O332 1.997 . S
O316 Fe315 2.002 . S
O316 C333 1.295 . S
O317 Fe312 1.997 . S
O317 C333 1.235 . S
O318 Fe312 2.002 . S
O318 C319 1.295 . S
C319 O318 1.295 . S
C319 O321 1.235 . S
C320 O325 1.287 . S
C320 O326 1.255 . S
O321 Fe313 1.997 . S
O321 C319 1.235 . S
C322 O328 1.287 . S
C322 O329 1.255 . S
O323 Fe312 1.976 . S
O323 C330 1.287 . S
O324 Fe313 1.996 . S
O324 C330 1.255 . S
O325 Fe315 1.976 . S
O325 C320 1.287 . S
O326 Fe312 1.996 . S
O326 C320 1.255 . S
C327 O331 1.295 . S
C327 O332 1.235 . S
O328 Fe313 1.976 . S
O328 C322 1.287 . S
O329 Fe315 1.996 . S
O329 C322 1.255 . S
C330 O323 1.287 . S
C330 O324 1.255 . S
O331 Fe313 2.002 . S
O331 C327 1.295 . S
O332 Fe315 1.997 . S
O332 C327 1.235 . S
C333 O316 1.295 . S
C333 O317 1.235 . S
Fe334 O336 1.918 . S
Fe334 O339 1.997 . S
Fe334 O340 2.002 . S
Fe334 O345 1.976 . S
Fe334 O348 1.996 . S
Fe335 O336 1.918 . S
Fe335 O343 1.997 . S
Fe335 O346 1.996 . S
Fe335 O350 1.976 . S
Fe335 O353 2.002 . S
O336 Fe334 1.918 . S
O336 Fe335 1.918 . S
O336 Fe337 1.918 . S
Fe337 O336 1.918 . S
Fe337 O338 2.002 . S
Fe337 O347 1.976 . S
Fe337 O351 1.996 . S
Fe337 O354 1.997 . S
O338 Fe337 2.002 . S
O338 C355 1.295 . S
O339 Fe334 1.997 . S
O339 C355 1.235 . S
O340 Fe334 2.002 . S
O340 C341 1.295 . S
C341 O340 1.295 . S
C341 O343 1.235 . S
C342 O347 1.287 . S
C342 O348 1.255 . S
O343 Fe335 1.997 . S
O343 C341 1.235 . S
C344 O350 1.287 . S
C344 O351 1.255 . S
O345 Fe334 1.976 . S
O345 C352 1.287 . S
O346 Fe335 1.996 . S
O346 C352 1.255 . S
O347 Fe337 1.976 . S
O347 C342 1.287 . S
O348 Fe334 1.996 . S
O348 C342 1.255 . S
C349 O353 1.295 . S
C349 O354 1.235 . S
O350 Fe335 1.976 . S
O350 C344 1.287 . S
O351 Fe337 1.996 . S
O351 C344 1.255 . S
C352 O345 1.287 . S
C352 O346 1.255 . S
O353 Fe335 2.002 . S
O353 C349 1.295 . S
O354 Fe337 1.997 . S
O354 C349 1.235 . S
C355 O338 1.295 . S
C355 O339 1.235 . S
Fe356 O358 1.918 . S
Fe356 O361 1.997 . S
Fe356 O362 2.002 . S
Fe356 O367 1.976 . S
Fe356 O370 1.996 . S
Fe357 O358 1.918 . S
Fe357 O365 1.997 . S
Fe357 O368 1.996 . S
Fe357 O372 1.976 . S
Fe357 O375 2.002 . S
O358 Fe356 1.918 . S
O358 Fe357 1.918 . S
O358 Fe359 1.918 . S
Fe359 O358 1.918 . S
Fe359 O360 2.002 . S
Fe359 O369 1.976 . S
Fe359 O373 1.996 . S
Fe359 O376 1.997 . S
O360 Fe359 2.002 . S
O360 C377 1.295 . S
O361 Fe356 1.997 . S
O361 C377 1.235 . S
O362 Fe356 2.002 . S
O362 C363 1.295 . S
C363 O362 1.295 . S
C363 O365 1.235 . S
C364 O369 1.287 . S
C364 O370 1.255 . S
O365 Fe357 1.997 . S
O365 C363 1.235 . S
C366 O372 1.287 . S
C366 O373 1.255 . S
O367 Fe356 1.976 . S
O367 C374 1.287 . S
O368 Fe357 1.996 . S
O368 C374 1.255 . S
O369 Fe359 1.976 . S
O369 C364 1.287 . S
O370 Fe356 1.996 . S
O370 C364 1.255 . S
C371 O375 1.295 . S
C371 O376 1.235 . S
O372 Fe357 1.976 . S
O372 C366 1.287 . S
O373 Fe359 1.996 . S
O373 C366 1.255 . S
C374 O367 1.287 . S
C374 O368 1.255 . S
O375 Fe357 2.002 . S
O375 C371 1.295 . S
O376 Fe359 1.997 . S
O376 C371 1.235 . S
C377 O360 1.295 . S
C377 O361 1.235 . S
Fe378 O380 1.918 . S
Fe378 O383 1.997 . S
Fe378 O384 2.002 . S
Fe378 O389 1.976 . S
Fe378 O392 1.996 . S
Fe379 O380 1.918 . S
Fe379 O387 1.997 . S
Fe379 O390 1.996 . S
Fe379 O394 1.976 . S
Fe379 O397 2.002 . S
O380 Fe378 1.918 . S
O380 Fe379 1.918 . S
O380 Fe381 1.918 . S
Fe381 O380 1.918 . S
Fe381 O382 2.002 . S
Fe381 O391 1.976 . S
Fe381 O395 1.996 . S
Fe381 O398 1.997 . S
O382 Fe381 2.002 . S
O382 C399 1.295 . S
O383 Fe378 1.997 . S
O383 C399 1.235 . S
O384 Fe378 2.002 . S
O384 C385 1.295 . S
C385 O384 1.295 . S
C385 O387 1.235 . S
C386 O391 1.287 . S
C386 O392 1.255 . S
O387 Fe379 1.997 . S
O387 C385 1.235 . S
C388 O394 1.287 . S
C388 O395 1.255 . S
O389 Fe378 1.976 . S
O389 C396 1.287 . S
O390 Fe379 1.996 . S
O390 C396 1.255 . S
O391 Fe381 1.976 . S
O391 C386 1.287 . S
O392 Fe378 1.996 . S
O392 C386 1.255 . S
C393 O397 1.295 . S
C393 O398 1.235 . S
O394 Fe379 1.976 . S
O394 C388 1.287 . S
O395 Fe381 1.996 . S
O395 C388 1.255 . S
C396 O389 1.287 . S
C396 O390 1.255 . S
O397 Fe379 2.002 . S
O397 C393 1.295 . S
O398 Fe381 1.997 . S
O398 C393 1.235 . S
C399 O382 1.295 . S
C399 O383 1.235 . S
Fe400 O402 1.918 . S
Fe400 O405 1.997 . S
Fe400 O406 2.002 . S
Fe400 O411 1.976 . S
Fe400 O414 1.996 . S
Fe401 O402 1.918 . S
Fe401 O409 1.997 . S
Fe401 O412 1.996 . S
Fe401 O416 1.976 . S
Fe401 O419 2.002 . S
O402 Fe400 1.918 . S
O402 Fe401 1.918 . S
O402 Fe403 1.918 . S
Fe403 O402 1.918 . S
Fe403 O404 2.002 . S
Fe403 O413 1.976 . S
Fe403 O417 1.996 . S
Fe403 O420 1.997 . S
O404 Fe403 2.002 . S
O404 C421 1.295 . S
O405 Fe400 1.997 . S
O405 C421 1.235 . S
O406 Fe400 2.002 . S
O406 C407 1.295 . S
C407 O406 1.295 . S
C407 O409 1.235 . S
C408 O413 1.287 . S
C408 O414 1.255 . S
O409 Fe401 1.997 . S
O409 C407 1.235 . S
C410 O416 1.287 . S
C410 O417 1.255 . S
O411 Fe400 1.976 . S
O411 C418 1.287 . S
O412 Fe401 1.996 . S
O412 C418 1.255 . S
O413 Fe403 1.976 . S
O413 C408 1.287 . S
O414 Fe400 1.996 . S
O414 C408 1.255 . S
C415 O419 1.295 . S
C415 O420 1.235 . S
O416 Fe401 1.976 . S
O416 C410 1.287 . S
O417 Fe403 1.996 . S
O417 C410 1.255 . S
C418 O411 1.287 . S
C418 O412 1.255 . S
O419 Fe401 2.002 . S
O419 C415 1.295 . S
O420 Fe403 1.997 . S
O420 C415 1.235 . S
C421 O404 1.295 . S
C421 O405 1.235 . S
Fe422 O424 1.918 . S
Fe422 O427 1.997 . S
Fe422 O428 2.002 . S
Fe422 O433 1.976 . S
Fe422 O436 1.996 . S
Fe423 O424 1.918 . S
Fe423 O431 1.997 . S
Fe423 O434 1.996 . S
Fe423 O438 1.976 . S
Fe423 O441 2.002 . S
O424 Fe422 1.918 . S
O424 Fe423 1.918 . S
O424 Fe425 1.918 . S
Fe425 O424 1.918 . S
Fe425 O426 2.002 . S
Fe425 O435 1.976 . S
Fe425 O439 1.996 . S
Fe425 O442 1.997 . S
O426 Fe425 2.002 . S
O426 C443 1.295 . S
O427 Fe422 1.997 . S
O427 C443 1.235 . S
O428 Fe422 2.002 . S
O428 C429 1.295 . S
C429 O428 1.295 . S
C429 O431 1.235 . S
C430 O435 1.287 . S
C430 O436 1.255 . S
O431 Fe423 1.997 . S
O431 C429 1.235 . S
C432 O438 1.287 . S
C432 O439 1.255 . S
O433 Fe422 1.976 . S
O433 C440 1.287 . S
O434 Fe423 1.996 . S
O434 C440 1.255 . S
O435 Fe425 1.976 . S
O435 C430 1.287 . S
O436 Fe422 1.996 . S
O436 C430 1.255 . S
C437 O441 1.295 . S
C437 O442 1.235 . S
O438 Fe423 1.976 . S
O438 C432 1.287 . S
O439 Fe425 1.996 . S
O439 C432 1.255 . S
C440 O433 1.287 . S
C440 O434 1.255 . S
O441 Fe423 2.002 . S
O441 C437 1.295 . S
O442 Fe425 1.997 . S
O442 C437 1.235 . S
C443 O426 1.295 . S
C443 O427 1.235 . S
Fe444 O446 1.918 . S
Fe444 O449 1.997 . S
Fe444 O450 2.002 . S
Fe444 O455 1.976 . S
Fe444 O458 1.996 . S
Fe445 O446 1.918 . S
Fe445 O453 1.997 . S
Fe445 O456 1.996 . S
Fe445 O460 1.976 . S
Fe445 O463 2.002 . S
O446 Fe444 1.918 . S
O446 Fe445 1.918 . S
O446 Fe447 1.918 . S
Fe447 O446 1.918 . S
Fe447 O448 2.002 . S
Fe447 O457 1.976 . S
Fe447 O461 1.996 . S
Fe447 O464 1.997 . S
O448 Fe447 2.002 . S
O448 C465 1.295 . S
O449 Fe444 1.997 . S
O449 C465 1.235 . S
O450 Fe444 2.002 . S
O450 C451 1.295 . S
C451 O450 1.295 . S
C451 O453 1.235 . S
C452 O457 1.287 . S
C452 O458 1.255 . S
O453 Fe445 1.997 . S
O453 C451 1.235 . S
C454 O460 1.287 . S
C454 O461 1.255 . S
O455 Fe444 1.976 . S
O455 C462 1.287 . S
O456 Fe445 1.996 . S
O456 C462 1.255 . S
O457 Fe447 1.976 . S
O457 C452 1.287 . S
O458 Fe444 1.996 . S
O458 C452 1.255 . S
C459 O463 1.295 . S
C459 O464 1.235 . S
O460 Fe445 1.976 . S
O460 C454 1.287 . S
O461 Fe447 1.996 . S
O461 C454 1.255 . S
C462 O455 1.287 . S
C462 O456 1.255 . S
O463 Fe445 2.002 . S
O463 C459 1.295 . S
O464 Fe447 1.997 . S
O464 C459 1.235 . S
C465 O448 1.295 . S
C465 O449 1.235 . S
Fe466 O468 1.918 . S
Fe466 O471 1.997 . S
Fe466 O472 2.002 . S
Fe466 O477 1.976 . S
Fe466 O480 1.996 . S
Fe467 O468 1.918 . S
Fe467 O475 1.997 . S
Fe467 O478 1.996 . S
Fe467 O482 1.976 . S
Fe467 O485 2.002 . S
O468 Fe466 1.918 . S
O468 Fe467 1.918 . S
O468 Fe469 1.918 . S
Fe469 O468 1.918 . S
Fe469 O470 2.002 . S
Fe469 O479 1.976 . S
Fe469 O483 1.996 . S
Fe469 O486 1.997 . S
O470 Fe469 2.002 . S
O470 C487 1.295 . S
O471 Fe466 1.997 . S
O471 C487 1.235 . S
O472 Fe466 2.002 . S
O472 C473 1.295 . S
C473 O472 1.295 . S
C473 O475 1.235 . S
C474 O479 1.287 . S
C474 O480 1.255 . S
O475 Fe467 1.997 . S
O475 C473 1.235 . S
C476 O482 1.287 . S
C476 O483 1.255 . S
O477 Fe466 1.976 . S
O477 C484 1.287 . S
O478 Fe467 1.996 . S
O478 C484 1.255 . S
O479 Fe469 1.976 . S
O479 C474 1.287 . S
O480 Fe466 1.996 . S
O480 C474 1.255 . S
C481 O485 1.295 . S
C481 O486 1.235 . S
O482 Fe467 1.976 . S
O482 C476 1.287 . S
O483 Fe469 1.996 . S
O483 C476 1.255 . S
C484 O477 1.287 . S
C484 O478 1.255 . S
O485 Fe467 2.002 . S
O485 C481 1.295 . S
O486 Fe469 1.997 . S
O486 C481 1.235 . S
C487 O470 1.295 . S
C487 O471 1.235 . S
Fe488 O490 1.918 . S
Fe488 O493 1.997 . S
Fe488 O494 2.002 . S
Fe488 O499 1.976 . S
Fe488 O502 1.996 . S
Fe489 O490 1.918 . S
Fe489 O497 1.997 . S
Fe489 O500 1.996 . S
Fe489 O504 1.976 . S
Fe489 O507 2.002 . S
O490 Fe488 1.918 . S
O490 Fe489 1.918 . S
O490 Fe491 1.918 . S
Fe491 O490 1.918 . S
Fe491 O492 2.002 . S
Fe491 O501 1.976 . S
Fe491 O505 1.996 . S
Fe491 O508 1.997 . S
O492 Fe491 2.002 . S
O492 C509 1.295 . S
O493 Fe488 1.997 . S
O493 C509 1.235 . S
O494 Fe488 2.002 . S
O494 C495 1.295 . S
C495 O494 1.295 . S
C495 O497 1.235 . S
C496 O501 1.287 . S
C496 O502 1.255 . S
O497 Fe489 1.997 . S
O497 C495 1.235 . S
C498 O504 1.287 . S
C498 O505 1.255 . S
O499 Fe488 1.976 . S
O499 C506 1.287 . S
O500 Fe489 1.996 . S
O500 C506 1.255 . S
O501 Fe491 1.976 . S
O501 C496 1.287 . S
O502 Fe488 1.996 . S
O502 C496 1.255 . S
C503 O507 1.295 . S
C503 O508 1.235 . S
O504 Fe489 1.976 . S
O504 C498 1.287 . S
O505 Fe491 1.996 . S
O505 C498 1.255 . S
C506 O499 1.287 . S
C506 O500 1.255 . S
O507 Fe489 2.002 . S
O507 C503 1.295 . S
O508 Fe491 1.997 . S
O508 C503 1.235 . S
C509 O492 1.295 . S
C509 O493 1.235 . S
Fe510 O512 1.918 . S
Fe510 O515 1.997 . S
Fe510 O516 2.002 . S
Fe510 O521 1.976 . S
Fe510 O524 1.996 . S
Fe511 O512 1.918 . S
Fe511 O519 1.997 . S
Fe511 O522 1.996 . S
Fe511 O526 1.976 . S
Fe511 O529 2.002 . S
O512 Fe510 1.918 . S
O512 Fe511 1.918 . S
O512 Fe513 1.918 . S
Fe513 O512 1.918 . S
Fe513 O514 2.002 . S
Fe513 O523 1.976 . S
Fe513 O527 1.996 . S
Fe513 O530 1.997 . S
O514 Fe513 2.002 . S
O514 C531 1.295 . S
O515 Fe510 1.997 . S
O515 C531 1.235 . S
O516 Fe510 2.002 . S
O516 C517 1.295 . S
C517 O516 1.295 . S
C517 O519 1.235 . S
C518 O523 1.287 . S
C518 O524 1.255 . S
O519 Fe511 1.997 . S
O519 C517 1.235 . S
C520 O526 1.287 . S
C520 O527 1.255 . S
O521 Fe510 1.976 . S
O521 C528 1.287 . S
O522 Fe511 1.996 . S
O522 C528 1.255 . S
O523 Fe513 1.976 . S
O523 C518 1.287 . S
O524 Fe510 1.996 . S
O524 C518 1.255 . S
C525 O529 1.295 . S
C525 O530 1.235 . S
O526 Fe511 1.976 . S
O526 C520 1.287 . S
O527 Fe513 1.996 . S
O527 C520 1.255 . S
C528 O521 1.287 . S
C528 O522 1.255 . S
O529 Fe511 2.002 . S
O529 C525 1.295 . S
O530 Fe513 1.997 . S
O530 C525 1.235 . S
C531 O514 1.295 . S
C531 O515 1.235 . S
Fe532 O534 1.918 . S
Fe532 O537 1.997 . S
Fe532 O538 2.002 . S
Fe532 O543 1.976 . S
Fe532 O546 1.996 . S
Fe533 O534 1.918 . S
Fe533 O541 1.997 . S
Fe533 O544 1.996 . S
Fe533 O548 1.976 . S
Fe533 O551 2.002 . S
O534 Fe532 1.918 . S
O534 Fe533 1.918 . S
O534 Fe535 1.918 . S
Fe535 O534 1.918 . S
Fe535 O536 2.002 . S
Fe535 O545 1.976 . S
Fe535 O549 1.996 . S
Fe535 O552 1.997 . S
O536 Fe535 2.002 . S
O536 C553 1.295 . S
O537 Fe532 1.997 . S
O537 C553 1.235 . S
O538 Fe532 2.002 . S
O538 C539 1.295 . S
C539 O538 1.295 . S
C539 O541 1.235 . S
C540 O545 1.287 . S
C540 O546 1.255 . S
O541 Fe533 1.997 . S
O541 C539 1.235 . S
C542 O548 1.287 . S
C542 O549 1.255 . S
O543 Fe532 1.976 . S
O543 C550 1.287 . S
O544 Fe533 1.996 . S
O544 C550 1.255 . S
O545 Fe535 1.976 . S
O545 C540 1.287 . S
O546 Fe532 1.996 . S
O546 C540 1.255 . S
C547 O551 1.295 . S
C547 O552 1.235 . S
O548 Fe533 1.976 . S
O548 C542 1.287 . S
O549 Fe535 1.996 . S
O549 C542 1.255 . S
C550 O543 1.287 . S
C550 O544 1.255 . S
O551 Fe533 2.002 . S
O551 C547 1.295 . S
O552 Fe535 1.997 . S
O552 C547 1.235 . S
C553 O536 1.295 . S
C553 O537 1.235 . S
Fe554 O556 1.918 . S
Fe554 O559 1.997 . S
Fe554 O560 2.002 . S
Fe554 O565 1.976 . S
Fe554 O568 1.996 . S
Fe555 O556 1.918 . S
Fe555 O563 1.997 . S
Fe555 O566 1.996 . S
Fe555 O570 1.976 . S
Fe555 O573 2.002 . S
O556 Fe554 1.918 . S
O556 Fe555 1.918 . S
O556 Fe557 1.918 . S
Fe557 O556 1.918 . S
Fe557 O558 2.002 . S
Fe557 O567 1.976 . S
Fe557 O571 1.996 . S
Fe557 O574 1.997 . S
O558 Fe557 2.002 . S
O558 C575 1.295 . S
O559 Fe554 1.997 . S
O559 C575 1.235 . S
O560 Fe554 2.002 . S
O560 C561 1.295 . S
C561 O560 1.295 . S
C561 O563 1.235 . S
C562 O567 1.287 . S
C562 O568 1.255 . S
O563 Fe555 1.997 . S
O563 C561 1.235 . S
C564 O570 1.287 . S
C564 O571 1.255 . S
O565 Fe554 1.976 . S
O565 C572 1.287 . S
O566 Fe555 1.996 . S
O566 C572 1.255 . S
O567 Fe557 1.976 . S
O567 C562 1.287 . S
O568 Fe554 1.996 . S
O568 C562 1.255 . S
C569 O573 1.295 . S
C569 O574 1.235 . S
O570 Fe555 1.976 . S
O570 C564 1.287 . S
O571 Fe557 1.996 . S
O571 C564 1.255 . S
C572 O565 1.287 . S
C572 O566 1.255 . S
O573 Fe555 2.002 . S
O573 C569 1.295 . S
O574 Fe557 1.997 . S
O574 C569 1.235 . S
C575 O558 1.295 . S
C575 O559 1.235 . S
Fe576 O578 1.918 . S
Fe576 O581 1.997 . S
Fe576 O582 2.002 . S
Fe576 O587 1.976 . S
Fe576 O590 1.996 . S
Fe577 O578 1.918 . S
Fe577 O585 1.997 . S
Fe577 O588 1.996 . S
Fe577 O592 1.976 . S
Fe577 O595 2.002 . S
O578 Fe576 1.918 . S
O578 Fe577 1.918 . S
O578 Fe579 1.918 . S
Fe579 O578 1.918 . S
Fe579 O580 2.002 . S
Fe579 O589 1.976 . S
Fe579 O593 1.996 . S
Fe579 O596 1.997 . S
O580 Fe579 2.002 . S
O580 C597 1.295 . S
O581 Fe576 1.997 . S
O581 C597 1.235 . S
O582 Fe576 2.002 . S
O582 C583 1.295 . S
C583 O582 1.295 . S
C583 O585 1.235 . S
C584 O589 1.287 . S
C584 O590 1.255 . S
O585 Fe577 1.997 . S
O585 C583 1.235 . S
C586 O592 1.287 . S
C586 O593 1.255 . S
O587 Fe576 1.976 . S
O587 C594 1.287 . S
O588 Fe577 1.996 . S
O588 C594 1.255 . S
O589 Fe579 1.976 . S
O589 C584 1.287 . S
O590 Fe576 1.996 . S
O590 C584 1.255 . S
C591 O595 1.295 . S
C591 O596 1.235 . S
O592 Fe577 1.976 . S
O592 C586 1.287 . S
O593 Fe579 1.996 . S
O593 C586 1.255 . S
C594 O587 1.287 . S
C594 O588 1.255 . S
O595 Fe577 2.002 . S
O595 C591 1.295 . S
O596 Fe579 1.997 . S
O596 C591 1.235 . S
C597 O580 1.295 . S
C597 O581 1.235 . S
Fe598 O600 1.918 . S
Fe598 O603 1.997 . S
Fe598 O604 2.002 . S
Fe598 O609 1.976 . S
Fe598 O612 1.996 . S
Fe599 O600 1.918 . S
Fe599 O607 1.997 . S
Fe599 O610 1.996 . S
Fe599 O614 1.976 . S
Fe599 O617 2.002 . S
O600 Fe598 1.918 . S
O600 Fe599 1.918 . S
O600 Fe601 1.918 . S
Fe601 O600 1.918 . S
Fe601 O602 2.002 . S
Fe601 O611 1.976 . S
Fe601 O615 1.996 . S
Fe601 O618 1.997 . S
O602 Fe601 2.002 . S
O602 C619 1.295 . S
O603 Fe598 1.997 . S
O603 C619 1.235 . S
O604 Fe598 2.002 . S
O604 C605 1.295 . S
C605 O604 1.295 . S
C605 O607 1.235 . S
C606 O611 1.287 . S
C606 O612 1.255 . S
O607 Fe599 1.997 . S
O607 C605 1.235 . S
C608 O614 1.287 . S
C608 O615 1.255 . S
O609 Fe598 1.976 . S
O609 C616 1.287 . S
O610 Fe599 1.996 . S
O610 C616 1.255 . S
O611 Fe601 1.976 . S
O611 C606 1.287 . S
O612 Fe598 1.996 . S
O612 C606 1.255 . S
C613 O617 1.295 . S
C613 O618 1.235 . S
O614 Fe599 1.976 . S
O614 C608 1.287 . S
O615 Fe601 1.996 . S
O615 C608 1.255 . S
C616 O609 1.287 . S
C616 O610 1.255 . S
O617 Fe599 2.002 . S
O617 C613 1.295 . S
O618 Fe601 1.997 . S
O618 C613 1.235 . S
C619 O602 1.295 . S
C619 O603 1.235 . S
Fe620 O622 1.918 . S
Fe620 O625 1.997 . S
Fe620 O626 2.002 . S
Fe620 O631 1.976 . S
Fe620 O634 1.996 . S
Fe621 O622 1.918 . S
Fe621 O629 1.997 . S
Fe621 O632 1.996 . S
Fe621 O636 1.976 . S
Fe621 O639 2.002 . S
O622 Fe620 1.918 . S
O622 Fe621 1.918 . S
O622 Fe623 1.918 . S
Fe623 O622 1.918 . S
Fe623 O624 2.002 . S
Fe623 O633 1.976 . S
Fe623 O637 1.996 . S
Fe623 O640 1.997 . S
O624 Fe623 2.002 . S
O624 C641 1.295 . S
O625 Fe620 1.997 . S
O625 C641 1.235 . S
O626 Fe620 2.002 . S
O626 C627 1.295 . S
C627 O626 1.295 . S
C627 O629 1.235 . S
C628 O633 1.287 . S
C628 O634 1.255 . S
O629 Fe621 1.997 . S
O629 C627 1.235 . S
C630 O636 1.287 . S
C630 O637 1.255 . S
O631 Fe620 1.976 . S
O631 C638 1.287 . S
O632 Fe621 1.996 . S
O632 C638 1.255 . S
O633 Fe623 1.976 . S
O633 C628 1.287 . S
O634 Fe620 1.996 . S
O634 C628 1.255 . S
C635 O639 1.295 . S
C635 O640 1.235 . S
O636 Fe621 1.976 . S
O636 C630 1.287 . S
O637 Fe623 1.996 . S
O637 C630 1.255 . S
C638 O631 1.287 . S
C638 O632 1.255 . S
O639 Fe621 2.002 . S
O639 C635 1.295 . S
O640 Fe623 1.997 . S
O640 C635 1.235 . S
C641 O624 1.295 . S
C641 O625 1.235 . S
Fe642 O644 1.918 . S
Fe642 O647 1.997 . S
Fe642 O648 2.002 . S
Fe642 O653 1.976 . S
Fe642 O656 1.996 . S
Fe643 O644 1.918 . S
Fe643 O651 1.997 . S
Fe643 O654 1.996 . S
Fe643 O658 1.976 . S
Fe643 O661 2.002 . S
O644 Fe642 1.918 . S
O644 Fe643 1.918 . S
O644 Fe645 1.918 . S
Fe645 O644 1.918 . S
Fe645 O646 2.002 . S
Fe645 O655 1.976 . S
Fe645 O659 1.996 . S
Fe645 O662 1.997 . S
O646 Fe645 2.002 . S
O646 C663 1.295 . S
O647 Fe642 1.997 . S
O647 C663 1.235 . S
O648 Fe642 2.002 . S
O648 C649 1.295 . S
C649 O648 1.295 . S
C649 O651 1.235 . S
C650 O655 1.287 . S
C650 O656 1.255 . S
O651 Fe643 1.997 . S
O651 C649 1.235 . S
C652 O658 1.287 . S
C652 O659 1.255 . S
O653 Fe642 1.976 . S
O653 C660 1.287 . S
O654 Fe643 1.996 . S
O654 C660 1.255 . S
O655 Fe645 1.976 . S
O655 C650 1.287 . S
O656 Fe642 1.996 . S
O656 C650 1.255 . S
C657 O661 1.295 . S
C657 O662 1.235 . S
O658 Fe643 1.976 . S
O658 C652 1.287 . S
O659 Fe645 1.996 . S
O659 C652 1.255 . S
C660 O653 1.287 . S
C660 O654 1.255 . S
O661 Fe643 2.002 . S
O661 C657 1.295 . S
O662 Fe645 1.997 . S
O662 C657 1.235 . S
C663 O646 1.295 . S
C663 O647 1.235 . S
C664 C665 1.369 . S
C664 C666 1.419 . S
C664 H668 0.930 . S
C665 C664 1.369 . S
C665 C674 1.429 . S
C666 C664 1.419 . S
C666 C667 1.363 . S
C666 H669 0.929 . S
C667 C666 1.363 . S
C667 C673 1.428 . S
H668 C664 0.930 . S
H669 C666 0.929 . S
S670 N671 1.613 . S
S670 N672 1.610 . S
N671 S670 1.613 . S
N671 C674 1.350 . S
N672 S670 1.610 . S
N672 C673 1.351 . S
C673 C667 1.428 . S
C673 N672 1.351 . S
C673 C674 1.434 . S
C674 C665 1.429 . S
C674 N671 1.350 . S
C674 C673 1.434 . S
C675 C676 1.369 . S
C675 C677 1.419 . S
C675 H679 0.930 . S
C676 C675 1.369 . S
C676 C685 1.429 . S
C677 C675 1.419 . S
C677 C678 1.363 . S
C677 H680 0.929 . S
C678 C677 1.363 . S
C678 C684 1.428 . S
H679 C675 0.930 . S
H680 C677 0.929 . S
S681 N682 1.615 . S
S681 N683 1.610 1_655 S
N682 S681 1.615 . S
N682 C685 1.346 1_655 S
N683 S681 1.610 1_455 S
N683 C684 1.351 . S
C684 C678 1.428 . S
C684 N683 1.351 . S
C684 C685 1.434 . S
C685 C676 1.429 . S
C685 N682 1.346 1_455 S
C685 C684 1.434 . S
C686 C687 1.369 . S
C686 C688 1.419 . S
C686 H690 0.930 . S
C687 C686 1.369 . S
C687 C696 1.429 . S
C688 C686 1.419 . S
C688 C689 1.363 . S
C688 H691 0.929 . S
C689 C688 1.363 . S
C689 C695 1.428 . S
H690 C686 0.930 . S
H691 C688 0.929 . S
S692 N693 1.613 . S
S692 N694 1.610 . S
N693 S692 1.613 . S
N693 C696 1.350 . S
N694 S692 1.610 . S
N694 C695 1.351 . S
C695 C689 1.428 . S
C695 N694 1.351 . S
C695 C696 1.434 . S
C696 C687 1.429 . S
C696 N693 1.350 . S
C696 C695 1.434 . S
C697 C698 1.369 . S
C697 C699 1.419 . S
C697 H701 0.930 . S
C698 C697 1.369 . S
C698 C707 1.429 . S
C699 C697 1.419 . S
C699 C700 1.363 . S
C699 H702 0.929 1_554 S
C700 C699 1.363 . S
C700 C706 1.428 . S
H701 C697 0.930 . S
H702 C699 0.929 1_556 S
S703 N704 1.613 . S
S703 N705 1.610 . S
N704 S703 1.613 . S
N704 C707 1.350 . S
N705 S703 1.610 . S
N705 C706 1.351 . S
C706 C700 1.428 . S
C706 N705 1.351 . S
C706 C707 1.434 . S
C707 C698 1.429 . S
C707 N704 1.350 . S
C707 C706 1.434 . S
C708 C709 1.369 . S
C708 C710 1.419 . S
C708 H712 0.930 . S
C709 C708 1.369 . S
C709 C718 1.429 . S
C710 C708 1.419 . S
C710 C711 1.363 . S
C710 H713 0.929 . S
C711 C710 1.363 . S
C711 C717 1.428 . S
H712 C708 0.930 . S
H713 C710 0.929 . S
S714 N715 1.613 . S
S714 N716 1.610 . S
N715 S714 1.613 . S
N715 C718 1.350 . S
N716 S714 1.610 . S
N716 C717 1.351 . S
C717 C711 1.428 . S
C717 N716 1.351 . S
C717 C718 1.434 . S
C718 C709 1.429 . S
C718 N715 1.350 . S
C718 C717 1.434 . S
C719 C720 1.369 . S
C719 C721 1.419 . S
C719 H723 0.930 . S
C720 C719 1.369 . S
C720 C729 1.429 . S
C721 C719 1.419 . S
C721 C722 1.363 . S
C721 H724 0.929 . S
C722 C721 1.363 . S
C722 C728 1.428 . S
H723 C719 0.930 . S
H724 C721 0.929 . S
S725 N726 1.613 . S
S725 N727 1.610 . S
N726 S725 1.613 . S
N726 C729 1.350 . S
N727 S725 1.610 . S
N727 C728 1.351 . S
C728 C722 1.428 . S
C728 N727 1.351 . S
C728 C729 1.434 . S
C729 C720 1.429 . S
C729 N726 1.350 . S
C729 C728 1.434 . S
C730 C731 1.369 . S
C730 C732 1.419 . S
C730 H734 0.930 . S
C731 C730 1.369 . S
C731 C740 1.429 . S
C732 C730 1.419 . S
C732 C733 1.363 . S
C732 H735 0.929 . S
C733 C732 1.363 . S
C733 C739 1.428 . S
H734 C730 0.930 . S
H735 C732 0.929 . S
S736 N737 1.613 . S
S736 N738 1.610 . S
N737 S736 1.613 . S
N737 C740 1.350 . S
N738 S736 1.610 . S
N738 C739 1.351 . S
C739 C733 1.428 . S
C739 N738 1.351 . S
C739 C740 1.434 . S
C740 C731 1.429 . S
C740 N737 1.350 . S
C740 C739 1.434 . S
C741 C742 1.369 . S
C741 C743 1.419 1_556 S
C741 H745 0.930 . S
C742 C741 1.369 . S
C742 C751 1.429 . S
C743 C741 1.419 1_554 S
C743 C744 1.363 . S
C743 H746 0.929 . S
C744 C743 1.363 . S
C744 C750 1.428 1_554 S
H745 C741 0.930 . S
H746 C743 0.929 . S
S747 N748 1.613 . S
S747 N749 1.610 . S
N748 S747 1.613 . S
N748 C751 1.350 . S
N749 S747 1.610 . S
N749 C750 1.351 . S
C750 C744 1.428 1_556 S
C750 N749 1.351 . S
C750 C751 1.434 . S
C751 C742 1.429 . S
C751 N748 1.350 . S
C751 C750 1.434 . S
C752 C753 1.369 . S
C752 C754 1.419 . S
C752 H756 0.930 . S
C753 C752 1.369 . S
C753 C762 1.429 . S
C754 C752 1.419 . S
C754 C755 1.363 . S
C754 H757 0.929 . S
C755 C754 1.363 . S
C755 C761 1.428 . S
H756 C752 0.930 . S
H757 C754 0.929 . S
S758 N759 1.613 . S
S758 N760 1.610 . S
N759 S758 1.613 . S
N759 C762 1.350 . S
N760 S758 1.610 . S
N760 C761 1.351 . S
C761 C755 1.428 . S
C761 N760 1.351 . S
C761 C762 1.434 . S
C762 C753 1.429 . S
C762 N759 1.350 . S
C762 C761 1.434 . S
C763 C764 1.369 . S
C763 C765 1.419 . S
C763 H767 0.930 . S
C764 C763 1.369 . S
C764 C773 1.429 . S
C765 C763 1.419 . S
C765 C766 1.363 . S
C765 H768 0.929 1_545 S
C766 C765 1.363 . S
C766 C772 1.428 . S
H767 C763 0.930 . S
H768 C765 0.929 1_565 S
S769 N770 1.613 . S
S769 N771 1.610 . S
N770 S769 1.613 . S
N770 C773 1.350 . S
N771 S769 1.610 . S
N771 C772 1.351 . S
C772 C766 1.428 . S
C772 N771 1.351 . S
C772 C773 1.434 . S
C773 C764 1.429 . S
C773 N770 1.350 . S
C773 C772 1.434 . S
C774 C775 1.369 . S
C774 C776 1.419 . S
C774 H778 0.930 . S
C775 C774 1.369 . S
C775 C784 1.429 . S
C776 C774 1.419 . S
C776 C777 1.363 . S
C776 H779 0.929 . S
C777 C776 1.363 . S
C777 C783 1.428 . S
H778 C774 0.930 . S
H779 C776 0.929 . S
S780 N781 1.613 . S
S780 N782 1.610 . S
N781 S780 1.613 . S
N781 C784 1.350 . S
N782 S780 1.610 . S
N782 C783 1.351 . S
C783 C777 1.428 . S
C783 N782 1.351 . S
C783 C784 1.434 . S
C784 C775 1.429 . S
C784 N781 1.350 . S
C784 C783 1.434 . S
C785 C786 1.369 . S
C785 C787 1.419 1_565 S
C785 H789 0.930 1_556 S
C786 C785 1.369 . S
C786 C795 1.429 . S
C787 C785 1.419 1_545 S
C787 C788 1.363 . S
C787 H790 0.929 . S
C788 C787 1.363 . S
C788 C794 1.428 1_545 S
H789 C785 0.930 1_554 S
H790 C787 0.929 . S
S791 N792 1.613 . S
S791 N793 1.610 1_565 S
N792 S791 1.613 . S
N792 C795 1.350 . S
N793 S791 1.610 1_545 S
N793 C794 1.351 1_545 S
C794 C788 1.428 1_565 S
C794 N793 1.351 1_565 S
C794 C795 1.434 . S
C795 C786 1.429 . S
C795 N792 1.350 . S
C795 C794 1.434 . S
C796 C797 1.369 . S
C796 C798 1.419 . S
C796 H800 0.930 . S
C797 C796 1.369 . S
C797 C806 1.429 . S
C798 C796 1.419 . S
C798 C799 1.363 . S
C798 H801 0.929 . S
C799 C798 1.363 . S
C799 C805 1.428 . S
H800 C796 0.930 . S
H801 C798 0.929 . S
S802 N803 1.613 . S
S802 N804 1.610 . S
N803 S802 1.613 . S
N803 C806 1.350 . S
N804 S802 1.610 . S
N804 C805 1.351 . S
C805 C799 1.428 . S
C805 N804 1.351 . S
C805 C806 1.434 . S
C806 C797 1.429 . S
C806 N803 1.350 . S
C806 C805 1.434 . S
C807 C808 1.369 . S
C807 C809 1.419 . S
C807 H811 0.930 . S
C808 C807 1.369 . S
C808 C817 1.429 . S
C809 C807 1.419 . S
C809 C810 1.363 1_545 S
C809 H812 0.929 1_545 S
C810 C809 1.363 1_565 S
C810 C816 1.428 1_565 S
H811 C807 0.930 . S
H812 C809 0.929 1_565 S
S813 N814 1.613 . S
S813 N815 1.610 1_545 S
N814 S813 1.613 . S
N814 C817 1.350 . S
N815 S813 1.610 1_565 S
N815 C816 1.351 1_565 S
C816 C810 1.428 1_545 S
C816 N815 1.351 1_545 S
C816 C817 1.434 . S
C817 C808 1.429 . S
C817 N814 1.350 . S
C817 C816 1.434 . S
C818 C819 1.369 . S
C818 C820 1.419 . S
C818 H822 0.930 . S
C819 C818 1.369 . S
C819 C828 1.429 . S
C820 C818 1.419 . S
C820 C821 1.363 . S
C820 H823 0.929 . S
C821 C820 1.363 . S
C821 C827 1.428 . S
H822 C818 0.930 . S
H823 C820 0.929 . S
S824 N825 1.609 1_565 S
S824 N826 1.586 1_565 S
N825 S824 1.609 1_545 S
N825 C828 1.350 . S
N826 S824 1.586 1_545 S
N826 C827 1.351 . S
C827 C821 1.428 . S
C827 N826 1.351 . S
C827 C828 1.434 . S
C828 C819 1.429 . S
C828 N825 1.350 . S
C828 C827 1.434 . S
C829 C830 1.369 . S
C829 C831 1.419 . S
C829 H833 0.930 . S
C830 C829 1.369 . S
C830 C839 1.429 . S
C831 C829 1.419 . S
C831 C832 1.363 1_565 S
C831 H834 0.929 1_565 S
C832 C831 1.363 1_545 S
C832 C838 1.428 . S
H833 C829 0.930 . S
H834 C831 0.929 1_545 S
S835 N836 1.590 1_545 S
S835 N837 1.629 . S
N836 S835 1.590 1_565 S
N836 C839 1.350 . S
N837 S835 1.629 . S
N837 C838 1.351 . S
C838 C832 1.428 . S
C838 N837 1.351 . S
C838 C839 1.434 1_545 S
C839 C830 1.429 . S
C839 N836 1.350 . S
C839 C838 1.434 1_565 S
C840 C841 1.369 . S
C840 C842 1.419 . S
C840 H844 0.930 . S
C841 C840 1.369 . S
C841 C850 1.429 . S
C842 C840 1.419 . S
C842 C843 1.363 . S
C842 H845 0.929 . S
C843 C842 1.363 . S
C843 C849 1.428 . S
H844 C840 0.930 . S
H845 C842 0.929 . S
S846 N847 1.613 . S
S846 N848 1.610 . S
N847 S846 1.613 . S
N847 C850 1.350 . S
N848 S846 1.610 . S
N848 C849 1.351 . S
C849 C843 1.428 . S
C849 N848 1.351 . S
C849 C850 1.434 . S
C850 C841 1.429 . S
C850 N847 1.350 . S
C850 C849 1.434 . S
C851 C852 1.369 . S
C851 C853 1.419 . S
C851 H855 0.930 . S
C852 C851 1.369 . S
C852 C861 1.429 . S
C853 C851 1.419 . S
C853 C854 1.363 . S
C853 H856 0.929 . S
C854 C853 1.363 . S
C854 C860 1.428 . S
H855 C851 0.930 . S
H856 C853 0.929 . S
S857 N858 1.613 . S
S857 N859 1.610 . S
N858 S857 1.613 . S
N858 C861 1.350 . S
N859 S857 1.610 . S
N859 C860 1.351 . S
C860 C854 1.428 . S
C860 N859 1.351 . S
C860 C861 1.434 . S
C861 C852 1.429 . S
C861 N858 1.350 . S
C861 C860 1.434 . S
C862 C863 1.369 . S
C862 C864 1.437 . S
C862 H866 0.930 . S
C863 C862 1.369 . S
C863 C872 1.429 . S
C864 C862 1.437 . S
C864 C865 1.365 . S
C864 H867 0.908 1_455 S
C865 C864 1.365 . S
C865 C871 1.428 . S
H866 C862 0.930 . S
H867 C864 0.908 1_655 S
S868 N869 1.613 . S
S868 N870 1.610 . S
N869 S868 1.613 . S
N869 C872 1.350 . S
N870 S868 1.610 . S
N870 C871 1.351 . S
C871 C865 1.428 . S
C871 N870 1.351 . S
C871 C872 1.434 . S
C872 C863 1.429 . S
C872 N869 1.350 . S
C872 C871 1.434 . S
C873 C874 1.369 . S
C873 C875 1.419 . S
C873 H877 0.930 . S
C874 C873 1.369 . S
C874 C883 1.429 . S
C875 C873 1.419 . S
C875 C876 1.363 . S
C875 H878 0.929 . S
C876 C875 1.363 . S
C876 C882 1.428 . S
H877 C873 0.930 . S
H878 C875 0.929 . S
S879 N880 1.613 . S
S879 N881 1.610 . S
N880 S879 1.613 . S
N880 C883 1.350 . S
N881 S879 1.610 . S
N881 C882 1.351 . S
C882 C876 1.428 . S
C882 N881 1.351 . S
C882 C883 1.434 . S
C883 C874 1.429 . S
C883 N880 1.350 . S
C883 C882 1.434 . S
C884 C885 1.369 . S
C884 C886 1.419 . S
C884 H888 0.930 . S
C885 C884 1.369 . S
C885 C894 1.429 . S
C886 C884 1.419 . S
C886 C887 1.363 1_655 S
C886 H889 0.929 . S
C887 C886 1.363 1_455 S
C887 C893 1.428 . S
H888 C884 0.930 . S
H889 C886 0.929 . S
S890 N891 1.613 1_455 S
S890 N892 1.610 . S
N891 S890 1.613 1_655 S
N891 C894 1.350 . S
N892 S890 1.610 . S
N892 C893 1.351 . S
C893 C887 1.428 . S
C893 N892 1.351 . S
C893 C894 1.434 1_455 S
C894 C885 1.429 . S
C894 N891 1.350 . S
C894 C893 1.434 1_655 S
C895 C896 1.369 . S
C895 C897 1.419 . S
C895 H899 0.930 . S
C896 C895 1.369 . S
C896 C905 1.429 . S
C897 C895 1.419 . S
C897 C898 1.363 . S
C897 H900 0.929 . S
C898 C897 1.363 . S
C898 C904 1.428 . S
H899 C895 0.930 . S
H900 C897 0.929 . S
S901 N902 1.613 . S
S901 N903 1.610 . S
N902 S901 1.613 . S
N902 C905 1.350 . S
N903 S901 1.610 . S
N903 C904 1.351 . S
C904 C898 1.428 . S
C904 N903 1.351 . S
C904 C905 1.434 . S
C905 C896 1.429 . S
C905 N902 1.350 . S
C905 C904 1.434 . S
C906 C907 1.369 . S
C906 C908 1.419 . S
C906 H910 0.930 . S
C907 C906 1.369 . S
C907 C916 1.429 . S
C908 C906 1.419 . S
C908 C909 1.363 1_455 S
C908 H911 0.929 . S
C909 C908 1.363 1_655 S
C909 C915 1.428 . S
H910 C906 0.930 . S
H911 C908 0.929 . S
S912 N913 1.613 1_655 S
S912 N914 1.610 . S
N913 S912 1.613 1_455 S
N913 C916 1.350 . S
N914 S912 1.610 . S
N914 C915 1.351 . S
C915 C909 1.428 . S
C915 N914 1.351 . S
C915 C916 1.434 1_655 S
C916 C907 1.429 . S
C916 N913 1.350 . S
C916 C915 1.434 1_455 S
C917 C918 1.369 . S
C917 C919 1.419 . S
C917 H921 0.930 . S
C918 C917 1.369 . S
C918 C927 1.429 . S
C919 C917 1.419 . S
C919 C920 1.363 . S
C919 H922 0.929 . S
C920 C919 1.363 . S
C920 C926 1.428 . S
H921 C917 0.930 . S
H922 C919 0.929 . S
S923 N924 1.613 . S
S923 N925 1.610 . S
N924 S923 1.613 . S
N924 C927 1.350 . S
N925 S923 1.610 . S
N925 C926 1.351 . S
C926 C920 1.428 . S
C926 N925 1.351 . S
C926 C927 1.434 . S
C927 C918 1.429 . S
C927 N924 1.350 . S
C927 C926 1.434 . S
C928 C929 1.369 . S
C928 C930 1.419 . S
C928 H932 0.930 . S
C929 C928 1.369 . S
C929 C938 1.429 . S
C930 C928 1.419 . S
C930 C931 1.363 . S
C930 H933 0.929 . S
C931 C930 1.363 . S
C931 C937 1.428 . S
H932 C928 0.930 . S
H933 C930 0.929 . S
S934 N935 1.613 . S
S934 N936 1.610 . S
N935 S934 1.613 . S
N935 C938 1.350 . S
N936 S934 1.610 . S
N936 C937 1.351 . S
C937 C931 1.428 . S
C937 N936 1.351 . S
C937 C938 1.434 . S
C938 C929 1.429 . S
C938 N935 1.350 . S
C938 C937 1.434 . S
C939 C940 1.369 . S
C939 C941 1.419 . S
C939 H943 0.930 . S
C940 C939 1.369 . S
C940 C949 1.429 . S
C941 C939 1.419 . S
C941 C942 1.363 . S
C941 H944 0.929 . S
C942 C941 1.363 . S
C942 C948 1.428 . S
H943 C939 0.930 . S
H944 C941 0.929 . S
S945 N946 1.613 . S
S945 N947 1.610 . S
N946 S945 1.613 . S
N946 C949 1.350 . S
N947 S945 1.610 . S
N947 C948 1.351 . S
C948 C942 1.428 . S
C948 N947 1.351 . S
C948 C949 1.434 . S
C949 C940 1.429 . S
C949 N946 1.350 . S
C949 C948 1.434 . S
C950 C951 1.369 . S
C950 C952 1.419 . S
C950 H954 0.930 . S
C951 C950 1.369 . S
C951 C960 1.429 . S
C952 C950 1.419 . S
C952 C953 1.363 . S
C952 H955 0.929 . S
C953 C952 1.363 . S
C953 C959 1.428 . S
H954 C950 0.930 . S
H955 C952 0.929 . S
S956 N957 1.613 . S
S956 N958 1.610 . S
N957 S956 1.613 . S
N957 C960 1.350 . S
N958 S956 1.610 . S
N958 C959 1.351 . S
C959 C953 1.428 . S
C959 N958 1.351 . S
C959 C960 1.434 . S
C960 C951 1.429 . S
C960 N957 1.350 . S
C960 C959 1.434 . S
C961 C962 1.369 . S
C961 C963 1.419 . S
C961 H965 0.930 . S
C962 C961 1.369 . S
C962 C971 1.429 . S
C963 C961 1.419 . S
C963 C964 1.363 1_556 S
C963 H966 0.929 . S
C964 C963 1.363 1_554 S
C964 C970 1.428 . S
H965 C961 0.930 . S
H966 C963 0.929 . S
S967 N968 1.613 1_554 S
S967 N969 1.610 . S
N968 S967 1.613 1_556 S
N968 C971 1.350 . S
N969 S967 1.610 . S
N969 C970 1.351 . S
C970 C964 1.428 . S
C970 N969 1.351 . S
C970 C971 1.434 1_554 S
C971 C962 1.429 . S
C971 N968 1.350 . S
C971 C970 1.434 1_556 S
C972 C973 1.369 . S
C972 C974 1.419 . S
C972 H976 0.930 . S
C973 C972 1.369 . S
C973 C982 1.429 . S
C974 C972 1.419 . S
C974 C975 1.363 . S
C974 H977 0.929 . S
C975 C974 1.363 . S
C975 C981 1.428 . S
H976 C972 0.930 . S
H977 C974 0.929 . S
S978 N979 1.613 . S
S978 N980 1.610 . S
N979 S978 1.613 . S
N979 C982 1.350 . S
N980 S978 1.610 . S
N980 C981 1.351 . S
C981 C975 1.428 . S
C981 N980 1.351 . S
C981 C982 1.434 . S
C982 C973 1.429 . S
C982 N979 1.350 . S
C982 C981 1.434 . S
C983 C984 1.369 . S
C983 C985 1.419 . S
C983 H987 0.930 . S
C984 C983 1.369 . S
C984 C993 1.429 . S
C985 C983 1.419 . S
C985 C986 1.363 . S
C985 H988 0.929 . S
C986 C985 1.363 . S
C986 C992 1.428 . S
H987 C983 0.930 . S
H988 C985 0.929 . S
S989 N990 1.613 . S
S989 N991 1.610 . S
N990 S989 1.613 . S
N990 C993 1.350 . S
N991 S989 1.610 . S
N991 C992 1.351 . S
C992 C986 1.428 . S
C992 N991 1.351 . S
C992 C993 1.434 . S
C993 C984 1.429 . S
C993 N990 1.350 . S
C993 C992 1.434 . S
C994 C995 1.369 . S
C994 C996 1.419 . S
C994 H998 0.930 . S
C995 C994 1.369 . S
C995 C1004 1.429 . S
C996 C994 1.419 . S
C996 C997 1.363 . S
C996 H999 0.929 . S
C997 C996 1.363 . S
C997 C1003 1.428 . S
H998 C994 0.930 . S
H999 C996 0.929 . S
S1000 N1001 1.613 . S
S1000 N1002 1.610 . S
N1001 S1000 1.613 . S
N1001 C1004 1.350 . S
N1002 S1000 1.610 . S
N1002 C1003 1.351 . S
C1003 C997 1.428 . S
C1003 N1002 1.351 . S
C1003 C1004 1.434 . S
C1004 C995 1.429 . S
C1004 N1001 1.350 . S
C1004 C1003 1.434 . S
C1005 C1006 1.369 . S
C1005 C1007 1.419 . S
C1005 H1009 0.930 . S
C1006 C1005 1.369 . S
C1006 C1015 1.429 . S
C1007 C1005 1.419 . S
C1007 C1008 1.363 1_554 S
C1007 H1010 0.929 . S
C1008 C1007 1.363 1_556 S
C1008 C1014 1.428 1_556 S
H1009 C1005 0.930 . S
H1010 C1007 0.929 . S
S1011 N1012 1.613 . S
S1011 N1013 1.610 1_454 S
N1012 S1011 1.613 . S
N1012 C1015 1.350 1_455 S
N1013 S1011 1.610 1_656 S
N1013 C1014 1.351 1_556 S
C1014 C1008 1.428 1_554 S
C1014 N1013 1.351 1_554 S
C1014 C1015 1.434 . S
C1015 C1006 1.429 . S
C1015 N1012 1.350 1_655 S
C1015 C1014 1.434 . S
C1016 C1017 1.369 . S
C1016 C1018 1.419 . S
C1016 H1020 0.930 . S
C1017 C1016 1.369 . S
C1017 C1026 1.429 . S
C1018 C1016 1.419 . S
C1018 C1019 1.363 . S
C1018 H1021 0.929 . S
C1019 C1018 1.363 . S
C1019 C1025 1.428 . S
H1020 C1016 0.930 . S
H1021 C1018 0.929 . S
S1022 N1023 1.613 . S
S1022 N1024 1.610 1_545 S
N1023 S1022 1.613 . S
N1023 C1026 1.350 1_545 S
N1024 S1022 1.610 1_565 S
N1024 C1025 1.351 . S
C1025 C1019 1.428 . S
C1025 N1024 1.351 . S
C1025 C1026 1.434 . S
C1026 C1017 1.429 . S
C1026 N1023 1.350 1_565 S
C1026 C1025 1.434 . S
C1027 C1028 1.369 . S
C1027 C1029 1.419 . S
C1027 H1031 0.930 . S
C1028 C1027 1.369 . S
C1028 C1037 1.429 . S
C1029 C1027 1.419 . S
C1029 C1030 1.363 1_565 S
C1029 H1032 0.929 . S
C1030 C1029 1.363 1_545 S
C1030 C1036 1.428 . S
H1031 C1027 0.930 . S
H1032 C1029 0.929 . S
S1033 N1034 1.613 1_545 S
S1033 N1035 1.610 . S
N1034 S1033 1.613 1_565 S
N1034 C1037 1.350 . S
N1035 S1033 1.610 . S
N1035 C1036 1.351 . S
C1036 C1030 1.428 . S
C1036 N1035 1.351 . S
C1036 C1037 1.434 1_545 S
C1037 C1028 1.429 . S
C1037 N1034 1.350 . S
C1037 C1036 1.434 1_565 S
C1038 C1039 1.369 . S
C1038 C1040 1.419 . S
C1038 H1042 0.930 . S
C1039 C1038 1.369 . S
C1039 C1048 1.429 . S
C1040 C1038 1.419 . S
C1040 C1041 1.363 . S
C1040 H1043 0.929 . S
C1041 C1040 1.363 . S
C1041 C1047 1.428 . S
H1042 C1038 0.930 . S
H1043 C1040 0.929 . S
S1044 N1045 1.613 . S
S1044 N1046 1.610 . S
N1045 S1044 1.613 . S
N1045 C1048 1.350 . S
N1046 S1044 1.610 . S
N1046 C1047 1.351 . S
C1047 C1041 1.428 . S
C1047 N1046 1.351 . S
C1047 C1048 1.434 . S
C1048 C1039 1.429 . S
C1048 N1045 1.350 . S
C1048 C1047 1.434 . S
C1049 C1050 1.369 . S
C1049 C1051 1.419 . S
C1049 H1053 0.930 . S
C1050 C1049 1.369 . S
C1050 C1059 1.429 . S
C1051 C1049 1.419 . S
C1051 C1052 1.363 1_545 S
C1051 H1054 0.929 . S
C1052 C1051 1.363 1_565 S
C1052 C1058 1.428 . S
H1053 C1049 0.930 . S
H1054 C1051 0.929 . S
S1055 N1056 1.613 1_566 S
S1055 N1057 1.610 1_556 S
N1056 S1055 1.613 1_544 S
N1056 C1059 1.350 . S
N1057 S1055 1.610 1_554 S
N1057 C1058 1.351 . S
C1058 C1052 1.428 . S
C1058 N1057 1.351 . S
C1058 C1059 1.434 1_565 S
C1059 C1050 1.429 . S
C1059 N1056 1.350 . S
C1059 C1058 1.434 1_545 S
C1060 C1061 1.369 . S
C1060 C1062 1.419 . S
C1060 H1064 0.930 . S
C1061 C1060 1.369 . S
C1061 C1070 1.429 . S
C1062 C1060 1.419 . S
C1062 C1063 1.363 . S
C1062 H1065 0.929 . S
C1063 C1062 1.363 . S
C1063 C1069 1.428 . S
H1064 C1060 0.930 . S
H1065 C1062 0.929 . S
S1066 N1067 1.613 . S
S1066 N1068 1.610 . S
N1067 S1066 1.613 . S
N1067 C1070 1.350 . S
N1068 S1066 1.610 . S
N1068 C1069 1.351 . S
C1069 C1063 1.428 . S
C1069 N1068 1.351 . S
C1069 C1070 1.434 . S
C1070 C1061 1.429 . S
C1070 N1067 1.350 . S
C1070 C1069 1.434 . S
C1071 C1072 1.369 . S
C1071 C1073 1.419 1_565 S
C1071 H1075 0.930 . S
C1072 C1071 1.369 . S
C1072 C1081 1.429 . S
C1073 C1071 1.419 1_545 S
C1073 C1074 1.363 . S
C1073 H1076 0.929 . S
C1074 C1073 1.363 . S
C1074 C1080 1.428 1_545 S
H1075 C1071 0.930 . S
H1076 C1073 0.929 . S
S1077 N1078 1.613 . S
S1077 N1079 1.610 . S
N1078 S1077 1.613 . S
N1078 C1081 1.350 . S
N1079 S1077 1.610 . S
N1079 C1080 1.351 . S
C1080 C1074 1.428 1_565 S
C1080 N1079 1.351 . S
C1080 C1081 1.434 . S
C1081 C1072 1.429 . S
C1081 N1078 1.350 . S
C1081 C1080 1.434 . S
C1082 C1083 1.369 . S
C1082 C1084 1.419 . S
C1082 H1086 0.930 . S
C1083 C1082 1.369 . S
C1083 C1092 1.429 . S
C1084 C1082 1.419 . S
C1084 C1085 1.363 . S
C1084 H1087 0.929 . S
C1085 C1084 1.363 . S
C1085 C1091 1.428 . S
H1086 C1082 0.930 . S
H1087 C1084 0.929 . S
S1088 N1089 1.613 . S
S1088 N1090 1.610 . S
N1089 S1088 1.613 . S
N1089 C1092 1.350 . S
N1090 S1088 1.610 . S
N1090 C1091 1.351 . S
C1091 C1085 1.428 . S
C1091 N1090 1.351 . S
C1091 C1092 1.434 . S
C1092 C1083 1.429 . S
C1092 N1089 1.350 . S
C1092 C1091 1.434 . S
C1093 C1094 1.369 . S
C1093 C1095 1.419 . S
C1093 H1097 0.930 . S
C1094 C1093 1.369 . S
C1094 C1103 1.429 . S
C1095 C1093 1.419 . S
C1095 C1096 1.363 1_545 S
C1095 H1098 0.929 . S
C1096 C1095 1.363 1_565 S
C1096 C1102 1.428 . S
H1097 C1093 0.930 . S
H1098 C1095 0.929 . S
S1099 N1100 1.613 1_565 S
S1099 N1101 1.610 . S
N1100 S1099 1.613 1_545 S
N1100 C1103 1.350 . S
N1101 S1099 1.610 . S
N1101 C1102 1.351 . S
C1102 C1096 1.428 . S
C1102 N1101 1.351 . S
C1102 C1103 1.434 1_565 S
C1103 C1094 1.429 . S
C1103 N1100 1.350 . S
C1103 C1102 1.434 1_545 S
C1104 C1105 1.369 . S
C1104 C1106 1.419 . S
C1104 H1108 0.930 . S
C1105 C1104 1.369 . S
C1105 C1114 1.429 . S
C1106 C1104 1.419 . S
C1106 C1107 1.363 . S
C1106 H1109 0.929 . S
C1107 C1106 1.363 . S
C1107 C1113 1.428 . S
H1108 C1104 0.930 . S
H1109 C1106 0.929 . S
S1110 N1111 1.613 . S
S1110 N1112 1.610 . S
N1111 S1110 1.613 . S
N1111 C1114 1.350 . S
N1112 S1110 1.610 . S
N1112 C1113 1.351 . S
C1113 C1107 1.428 . S
C1113 N1112 1.351 . S
C1113 C1114 1.434 . S
C1114 C1105 1.429 . S
C1114 N1111 1.350 . S
C1114 C1113 1.434 . S
C1115 C1116 1.369 . S
C1115 C1117 1.419 . S
C1115 H1119 0.930 . S
C1116 C1115 1.369 . S
C1116 C1125 1.429 . S
C1117 C1115 1.419 . S
C1117 C1118 1.363 . S
C1117 H1120 0.929 . S
C1118 C1117 1.363 . S
C1118 C1124 1.428 . S
H1119 C1115 0.930 . S
H1120 C1117 0.929 . S
S1121 N1122 1.613 . S
S1121 N1123 1.610 . S
N1122 S1121 1.613 . S
N1122 C1125 1.350 . S
N1123 S1121 1.610 . S
N1123 C1124 1.351 . S
C1124 C1118 1.428 . S
C1124 N1123 1.351 . S
C1124 C1125 1.434 . S
C1125 C1116 1.429 . S
C1125 N1122 1.350 . S
C1125 C1124 1.434 . S
C1126 C1127 1.369 . S
C1126 C1128 1.419 . S
C1126 H1130 0.930 . S
C1127 C1126 1.369 . S
C1127 C1136 1.429 . S
C1128 C1126 1.419 . S
C1128 C1129 1.363 1_655 S
C1128 H1131 0.929 . S
C1129 C1128 1.363 1_455 S
C1129 C1135 1.428 . S
H1130 C1126 0.930 . S
H1131 C1128 0.929 . S
S1132 N1133 1.613 1_455 S
S1132 N1134 1.610 . S
N1133 S1132 1.613 1_655 S
N1133 C1136 1.350 . S
N1134 S1132 1.610 . S
N1134 C1135 1.351 . S
C1135 C1129 1.428 . S
C1135 N1134 1.351 . S
C1135 C1136 1.434 1_455 S
C1136 C1127 1.429 . S
C1136 N1133 1.350 . S
C1136 C1135 1.434 1_655 S
C1137 C1138 1.369 . S
C1137 C1139 1.419 . S
C1137 H1141 0.930 . S
C1138 C1137 1.369 . S
C1138 C1147 1.429 . S
C1139 C1137 1.419 . S
C1139 C1140 1.363 . S
C1139 H1142 0.929 . S
C1140 C1139 1.363 . S
C1140 C1146 1.428 . S
H1141 C1137 0.930 . S
H1142 C1139 0.929 . S
S1143 N1144 1.613 . S
S1143 N1145 1.610 . S
N1144 S1143 1.613 . S
N1144 C1147 1.350 . S
N1145 S1143 1.610 . S
N1145 C1146 1.351 . S
C1146 C1140 1.428 . S
C1146 N1145 1.351 . S
C1146 C1147 1.434 . S
C1147 C1138 1.429 . S
C1147 N1144 1.350 . S
C1147 C1146 1.434 . S
C1148 C1149 1.369 . S
C1148 C1150 1.419 1_455 S
C1148 H1152 0.930 . S
C1149 C1148 1.369 . S
C1149 C1158 1.429 . S
C1150 C1148 1.419 1_655 S
C1150 C1151 1.363 . S
C1150 H1153 0.929 . S
C1151 C1150 1.363 . S
C1151 C1157 1.428 1_655 S
H1152 C1148 0.930 . S
H1153 C1150 0.929 . S
S1154 N1155 1.613 . S
S1154 N1156 1.610 . S
N1155 S1154 1.613 . S
N1155 C1158 1.350 . S
N1156 S1154 1.610 . S
N1156 C1157 1.351 . S
C1157 C1151 1.428 1_455 S
C1157 N1156 1.351 . S
C1157 C1158 1.434 . S
C1158 C1149 1.429 . S
C1158 N1155 1.350 . S
C1158 C1157 1.434 . S
C1159 C1160 1.369 . S
C1159 C1161 1.419 . S
C1159 H1163 0.930 . S
C1160 C1159 1.369 . S
C1160 C1169 1.429 . S
C1161 C1159 1.419 . S
C1161 C1162 1.363 . S
C1161 H1164 0.929 . S
C1162 C1161 1.363 . S
C1162 C1168 1.428 . S
H1163 C1159 0.930 . S
H1164 C1161 0.929 . S
S1165 N1166 1.613 . S
S1165 N1167 1.610 . S
N1166 S1165 1.613 . S
N1166 C1169 1.350 . S
N1167 S1165 1.610 . S
N1167 C1168 1.351 . S
C1168 C1162 1.428 . S
C1168 N1167 1.351 . S
C1168 C1169 1.434 . S
C1169 C1160 1.429 . S
C1169 N1166 1.350 . S
C1169 C1168 1.434 . S
C1170 C1171 1.369 . S
C1170 C1172 1.419 1_655 S
C1170 H1174 0.930 . S
C1171 C1170 1.369 . S
C1171 C1180 1.429 . S
C1172 C1170 1.419 1_455 S
C1172 C1173 1.363 . S
C1172 H1175 0.929 . S
C1173 C1172 1.363 . S
C1173 C1179 1.428 1_455 S
H1174 C1170 0.930 . S
H1175 C1172 0.929 . S
S1176 N1177 1.613 . S
S1176 N1178 1.610 . S
N1177 S1176 1.613 . S
N1177 C1180 1.350 . S
N1178 S1176 1.610 . S
N1178 C1179 1.351 . S
C1179 C1173 1.428 1_655 S
C1179 N1178 1.351 . S
C1179 C1180 1.434 . S
C1180 C1171 1.429 . S
C1180 N1177 1.350 . S
C1180 C1179 1.434 . S
C1181 C1182 1.369 . S
C1181 C1183 1.419 . S
C1181 H1185 0.930 . S
C1182 C1181 1.369 . S
C1182 C1191 1.429 . S
C1183 C1181 1.419 . S
C1183 C1184 1.363 . S
C1183 H1186 0.929 . S
C1184 C1183 1.363 . S
C1184 C1190 1.428 . S
H1185 C1181 0.930 . S
H1186 C1183 0.929 . S
S1187 N1188 1.613 . S
S1187 N1189 1.610 . S
N1188 S1187 1.613 . S
N1188 C1191 1.350 . S
N1189 S1187 1.610 . S
N1189 C1190 1.351 . S
C1190 C1184 1.428 . S
C1190 N1189 1.351 . S
C1190 C1191 1.434 . S
C1191 C1182 1.429 . S
C1191 N1188 1.350 . S
C1191 C1190 1.434 . S
C1192 C1193 1.369 . S
C1192 C1194 1.419 . S
C1192 H1196 0.930 . S
C1193 C1192 1.369 . S
C1193 C1202 1.429 . S
C1194 C1192 1.419 . S
C1194 C1195 1.363 . S
C1194 H1197 0.929 . S
C1195 C1194 1.363 . S
C1195 C1201 1.428 . S
H1196 C1192 0.930 . S
H1197 C1194 0.929 . S
S1198 N1199 1.613 . S
S1198 N1200 1.610 . S
N1199 S1198 1.613 . S
N1199 C1202 1.350 . S
N1200 S1198 1.610 . S
N1200 C1201 1.351 . S
C1201 C1195 1.428 . S
C1201 N1200 1.351 . S
C1201 C1202 1.434 . S
C1202 C1193 1.429 . S
C1202 N1199 1.350 . S
C1202 C1201 1.434 . S
C1203 C1204 1.369 . S
C1203 C1205 1.419 . S
C1203 H1207 0.930 . S
C1204 C1203 1.369 . S
C1204 C1213 1.429 . S
C1205 C1203 1.419 . S
C1205 C1206 1.363 1_554 S
C1205 H1208 0.929 . S
C1206 C1205 1.363 1_556 S
C1206 C1212 1.428 . S
H1207 C1203 0.930 . S
H1208 C1205 0.929 . S
S1209 N1210 1.613 1_556 S
S1209 N1211 1.610 . S
N1210 S1209 1.613 1_554 S
N1210 C1213 1.350 . S
N1211 S1209 1.610 . S
N1211 C1212 1.351 . S
C1212 C1206 1.428 . S
C1212 N1211 1.351 . S
C1212 C1213 1.434 1_556 S
C1213 C1204 1.429 . S
C1213 N1210 1.350 . S
C1213 C1212 1.434 1_554 S
C1214 C1215 1.369 . S
C1214 C1216 1.419 . S
C1214 H1218 0.930 . S
C1215 C1214 1.369 . S
C1215 C1224 1.429 . S
C1216 C1214 1.419 . S
C1216 C1217 1.363 . S
C1216 H1219 0.929 . S
C1217 C1216 1.363 . S
C1217 C1223 1.428 . S
H1218 C1214 0.930 . S
H1219 C1216 0.929 . S
S1220 N1221 1.613 . S
S1220 N1222 1.610 . S
N1221 S1220 1.613 . S
N1221 C1224 1.350 . S
N1222 S1220 1.610 . S
N1222 C1223 1.351 . S
C1223 C1217 1.428 . S
C1223 N1222 1.351 . S
C1223 C1224 1.434 . S
C1224 C1215 1.429 . S
C1224 N1221 1.350 . S
C1224 C1223 1.434 . S
C1225 C1226 1.369 . S
C1225 C1227 1.419 . S
C1225 H1229 0.930 . S
C1226 C1225 1.369 . S
C1226 C1235 1.429 . S
C1227 C1225 1.419 . S
C1227 C1228 1.363 . S
C1227 H1230 0.929 . S
C1228 C1227 1.363 . S
C1228 C1234 1.428 . S
H1229 C1225 0.930 . S
H1230 C1227 0.929 . S
S1231 N1232 1.613 . S
S1231 N1233 1.610 . S
N1232 S1231 1.613 . S
N1232 C1235 1.350 . S
N1233 S1231 1.610 . S
N1233 C1234 1.351 . S
C1234 C1228 1.428 . S
C1234 N1233 1.351 . S
C1234 C1235 1.434 . S
C1235 C1226 1.429 . S
C1235 N1232 1.350 . S
C1235 C1234 1.434 . S
C1236 C1237 1.369 . S
C1236 C1238 1.419 . S
C1236 H1240 0.930 . S
C1237 C1236 1.369 . S
C1237 C1246 1.429 . S
C1238 C1236 1.419 . S
C1238 C1239 1.363 . S
C1238 H1241 0.929 . S
C1239 C1238 1.363 . S
C1239 C1245 1.428 . S
H1240 C1236 0.930 . S
H1241 C1238 0.929 . S
S1242 N1243 1.613 . S
S1242 N1244 1.610 . S
N1243 S1242 1.613 . S
N1243 C1246 1.350 . S
N1244 S1242 1.610 . S
N1244 C1245 1.351 . S
C1245 C1239 1.428 . S
C1245 N1244 1.351 . S
C1245 C1246 1.434 . S
C1246 C1237 1.429 . S
C1246 N1243 1.350 . S
C1246 C1245 1.434 . S
C1247 C1248 1.369 . S
C1247 C1249 1.438 . S
C1247 H1251 0.930 . S
C1248 C1247 1.369 . S
C1248 C1257 1.429 . S
C1249 C1247 1.438 . S
C1249 C1250 1.351 1_556 S
C1249 H1252 0.922 1_556 S
C1250 C1249 1.351 1_554 S
C1250 C1256 1.428 . S
H1251 C1247 0.930 . S
H1252 C1249 0.922 1_554 S
S1253 N1254 1.613 . S
S1253 N1255 1.610 1_556 S
N1254 S1253 1.613 . S
N1254 C1257 1.350 . S
N1255 S1253 1.610 1_554 S
N1255 C1256 1.351 . S
C1256 C1250 1.428 . S
C1256 N1255 1.351 . S
C1256 C1257 1.434 1_554 S
C1257 C1248 1.429 . S
C1257 N1254 1.350 . S
C1257 C1256 1.434 1_556 S
C1258 C1259 1.369 . S
C1258 C1260 1.419 . S
C1258 H1262 0.930 . S
C1259 C1258 1.369 . S
C1259 C1268 1.429 . S
C1260 C1258 1.419 . S
C1260 C1261 1.363 . S
C1260 H1263 0.929 . S
C1261 C1260 1.363 . S
C1261 C1267 1.428 . S
H1262 C1258 0.930 . S
H1263 C1260 0.929 . S
S1264 N1265 1.613 . S
S1264 N1266 1.610 . S
N1265 S1264 1.613 . S
N1265 C1268 1.350 . S
N1266 S1264 1.610 . S
N1266 C1267 1.351 . S
C1267 C1261 1.428 . S
C1267 N1266 1.351 . S
C1267 C1268 1.434 . S
C1268 C1259 1.429 . S
C1268 N1265 1.350 . S
C1268 C1267 1.434 . S
C1269 C1270 1.369 . S
C1269 C1271 1.419 . S
C1269 H1273 0.930 . S
C1270 C1269 1.369 . S
C1270 C1279 1.429 . S
C1271 C1269 1.419 . S
C1271 C1272 1.363 . S
C1271 H1274 0.929 . S
C1272 C1271 1.363 . S
C1272 C1278 1.428 . S
H1273 C1269 0.930 . S
H1274 C1271 0.929 . S
S1275 N1276 1.613 . S
S1275 N1277 1.610 . S
N1276 S1275 1.613 . S
N1276 C1279 1.350 . S
N1277 S1275 1.610 . S
N1277 C1278 1.351 . S
C1278 C1272 1.428 . S
C1278 N1277 1.351 . S
C1278 C1279 1.434 . S
C1279 C1270 1.429 . S
C1279 N1276 1.350 . S
C1279 C1278 1.434 . S
C1280 C1281 1.369 . S
C1280 C1282 1.419 . S
C1280 H1284 0.930 . S
C1281 C1280 1.369 . S
C1281 C1290 1.429 . S
C1282 C1280 1.419 . S
C1282 C1283 1.363 . S
C1282 H1285 0.929 . S
C1283 C1282 1.363 . S
C1283 C1289 1.428 . S
H1284 C1280 0.930 . S
H1285 C1282 0.929 . S
S1286 N1287 1.613 . S
S1286 N1288 1.610 . S
N1287 S1286 1.613 . S
N1287 C1290 1.350 . S
N1288 S1286 1.610 . S
N1288 C1289 1.351 . S
C1289 C1283 1.428 . S
C1289 N1288 1.351 . S
C1289 C1290 1.434 . S
C1290 C1281 1.429 . S
C1290 N1287 1.350 . S
C1290 C1289 1.434 . S
C1291 C1292 1.369 . S
C1291 C1293 1.419 . S
C1291 H1295 0.930 . S
C1292 C1291 1.369 . S
C1292 C1301 1.429 . S
C1293 C1291 1.419 . S
C1293 C1294 1.363 . S
C1293 H1296 0.929 . S
C1294 C1293 1.363 . S
C1294 C1300 1.428 . S
H1295 C1291 0.930 . S
H1296 C1293 0.929 . S
S1297 N1298 1.613 . S
S1297 N1299 1.610 . S
N1298 S1297 1.613 . S
N1298 C1301 1.350 . S
N1299 S1297 1.610 . S
N1299 C1300 1.351 . S
C1300 C1294 1.428 . S
C1300 N1299 1.351 . S
C1300 C1301 1.434 . S
C1301 C1292 1.429 . S
C1301 N1298 1.350 . S
C1301 C1300 1.434 . S
C1302 C1303 1.369 . S
C1302 C1304 1.419 . S
C1302 H1306 0.930 . S
C1303 C1302 1.369 . S
C1303 C1312 1.429 . S
C1304 C1302 1.419 . S
C1304 C1305 1.363 . S
C1304 H1307 0.929 . S
C1305 C1304 1.363 . S
C1305 C1311 1.428 . S
H1306 C1302 0.930 . S
H1307 C1304 0.929 . S
S1308 N1309 1.613 . S
S1308 N1310 1.610 . S
N1309 S1308 1.613 . S
N1309 C1312 1.350 . S
N1310 S1308 1.610 . S
N1310 C1311 1.351 . S
C1311 C1305 1.428 . S
C1311 N1310 1.351 . S
C1311 C1312 1.434 . S
C1312 C1303 1.429 . S
C1312 N1309 1.350 . S
C1312 C1311 1.434 . S
C1313 C1314 1.369 . S
C1313 C1315 1.419 . S
C1313 H1317 0.930 . S
C1314 C1313 1.369 . S
C1314 C1323 1.429 . S
C1315 C1313 1.419 . S
C1315 C1316 1.363 . S
C1315 H1318 0.929 . S
C1316 C1315 1.363 . S
C1316 C1322 1.428 . S
H1317 C1313 0.930 . S
H1318 C1315 0.929 . S
S1319 N1320 1.613 . S
S1319 N1321 1.610 . S
N1320 S1319 1.613 . S
N1320 C1323 1.350 . S
N1321 S1319 1.610 . S
N1321 C1322 1.351 . S
C1322 C1316 1.428 . S
C1322 N1321 1.351 . S
C1322 C1323 1.434 . S
C1323 C1314 1.429 . S
C1323 N1320 1.350 . S
C1323 C1322 1.434 . S
C1324 C1325 1.369 . S
C1324 C1326 1.419 . S
C1324 H1328 0.930 . S
C1325 C1324 1.369 . S
C1325 C1334 1.429 . S
C1326 C1324 1.419 . S
C1326 C1327 1.363 . S
C1326 H1329 0.929 . S
C1327 C1326 1.363 . S
C1327 C1333 1.428 . S
H1328 C1324 0.930 . S
H1329 C1326 0.929 . S
S1330 N1331 1.613 . S
S1330 N1332 1.610 . S
N1331 S1330 1.613 . S
N1331 C1334 1.350 . S
N1332 S1330 1.610 . S
N1332 C1333 1.351 . S
C1333 C1327 1.428 . S
C1333 N1332 1.351 . S
C1333 C1334 1.434 . S
C1334 C1325 1.429 . S
C1334 N1331 1.350 . S
C1334 C1333 1.434 . S
C1335 C1336 1.369 . S
C1335 C1337 1.419 . S
C1335 H1339 0.930 . S
C1336 C1335 1.369 . S
C1336 C1345 1.429 . S
C1337 C1335 1.419 . S
C1337 C1338 1.363 . S
C1337 H1340 0.929 . S
C1338 C1337 1.363 . S
C1338 C1344 1.428 . S
H1339 C1335 0.930 . S
H1340 C1337 0.929 . S
S1341 N1342 1.613 . S
S1341 N1343 1.610 . S
N1342 S1341 1.613 . S
N1342 C1345 1.350 . S
N1343 S1341 1.610 . S
N1343 C1344 1.351 . S
C1344 C1338 1.428 . S
C1344 N1343 1.351 . S
C1344 C1345 1.434 . S
C1345 C1336 1.429 . S
C1345 N1342 1.350 . S
C1345 C1344 1.434 . S
C1346 C1347 1.369 . S
C1346 C1348 1.419 . S
C1346 H1350 0.930 . S
C1347 C1346 1.369 . S
C1347 C1356 1.429 . S
C1348 C1346 1.419 . S
C1348 C1349 1.363 . S
C1348 H1351 0.929 . S
C1349 C1348 1.363 . S
C1349 C1355 1.428 . S
H1350 C1346 0.930 . S
H1351 C1348 0.929 . S
S1352 N1353 1.613 . S
S1352 N1354 1.610 . S
N1353 S1352 1.613 . S
N1353 C1356 1.350 . S
N1354 S1352 1.610 . S
N1354 C1355 1.351 . S
C1355 C1349 1.428 . S
C1355 N1354 1.351 . S
C1355 C1356 1.434 . S
C1356 C1347 1.429 . S
C1356 N1353 1.350 . S
C1356 C1355 1.434 . S
C1357 C1358 1.369 . S
C1357 C1359 1.419 . S
C1357 H1361 0.930 . S
C1358 C1357 1.369 . S
C1358 C1367 1.429 . S
C1359 C1357 1.419 . S
C1359 C1360 1.363 . S
C1359 H1362 0.929 . S
C1360 C1359 1.363 . S
C1360 C1366 1.428 . S
H1361 C1357 0.930 . S
H1362 C1359 0.929 . S
S1363 N1364 1.613 . S
S1363 N1365 1.610 . S
N1364 S1363 1.613 . S
N1364 C1367 1.350 . S
N1365 S1363 1.610 . S
N1365 C1366 1.351 . S
C1366 C1360 1.428 . S
C1366 N1365 1.351 . S
C1366 C1367 1.434 . S
C1367 C1358 1.429 . S
C1367 N1364 1.350 . S
C1367 C1366 1.434 . S
C1368 C1369 1.369 . S
C1368 C1370 1.419 . S
C1368 H1372 0.930 . S
C1369 C1368 1.369 . S
C1369 C1378 1.429 . S
C1370 C1368 1.419 . S
C1370 C1371 1.363 . S
C1370 H1373 0.929 . S
C1371 C1370 1.363 . S
C1371 C1377 1.428 . S
H1372 C1368 0.930 . S
H1373 C1370 0.929 . S
S1374 N1375 1.613 . S
S1374 N1376 1.610 . S
N1375 S1374 1.613 . S
N1375 C1378 1.350 . S
N1376 S1374 1.610 . S
N1376 C1377 1.351 . S
C1377 C1371 1.428 . S
C1377 N1376 1.351 . S
C1377 C1378 1.434 . S
C1378 C1369 1.429 . S
C1378 N1375 1.350 . S
C1378 C1377 1.434 . S
C1379 C1380 1.369 . S
C1379 C1381 1.419 . S
C1379 H1383 0.930 . S
C1380 C1379 1.369 . S
C1380 C1389 1.429 . S
C1381 C1379 1.419 . S
C1381 C1382 1.363 . S
C1381 H1384 0.929 . S
C1382 C1381 1.363 . S
C1382 C1388 1.428 . S
H1383 C1379 0.930 . S
H1384 C1381 0.929 . S
S1385 N1386 1.613 . S
S1385 N1387 1.610 . S
N1386 S1385 1.613 . S
N1386 C1389 1.350 . S
N1387 S1385 1.610 . S
N1387 C1388 1.351 . S
C1388 C1382 1.428 . S
C1388 N1387 1.351 . S
C1388 C1389 1.434 . S
C1389 C1380 1.429 . S
C1389 N1386 1.350 . S
C1389 C1388 1.434 . S
C1390 C1391 1.369 . S
C1390 C1392 1.419 . S
C1390 H1394 0.930 . S
C1391 C1390 1.369 . S
C1391 C1400 1.429 . S
C1392 C1390 1.419 . S
C1392 C1393 1.363 . S
C1392 H1395 0.929 . S
C1393 C1392 1.363 . S
C1393 C1399 1.428 . S
H1394 C1390 0.930 . S
H1395 C1392 0.929 . S
S1396 N1397 1.613 . S
S1396 N1398 1.610 1_545 S
N1397 S1396 1.613 . S
N1397 C1400 1.350 1_545 S
N1398 S1396 1.610 1_565 S
N1398 C1399 1.351 . S
C1399 C1393 1.428 . S
C1399 N1398 1.351 . S
C1399 C1400 1.434 . S
C1400 C1391 1.429 . S
C1400 N1397 1.350 1_565 S
C1400 C1399 1.434 . S
C1401 C1402 1.369 . S
C1401 C1403 1.419 . S
C1401 H1405 0.930 . S
C1402 C1401 1.369 . S
C1402 C1411 1.429 . S
C1403 C1401 1.419 . S
C1403 C1404 1.363 . S
C1403 H1406 0.929 . S
C1404 C1403 1.363 . S
C1404 C1410 1.428 . S
H1405 C1401 0.930 . S
H1406 C1403 0.929 . S
S1407 N1408 1.613 . S
S1407 N1409 1.610 . S
N1408 S1407 1.613 . S
N1408 C1411 1.350 . S
N1409 S1407 1.610 . S
N1409 C1410 1.351 . S
C1410 C1404 1.428 . S
C1410 N1409 1.351 . S
C1410 C1411 1.434 . S
C1411 C1402 1.429 . S
C1411 N1408 1.350 . S
C1411 C1410 1.434 . S
C1412 C1413 1.369 . S
C1412 C1414 1.419 . S
C1412 H1416 0.930 . S
C1413 C1412 1.369 . S
C1413 C1422 1.429 . S
C1414 C1412 1.419 . S
C1414 C1415 1.363 . S
C1414 H1417 0.929 . S
C1415 C1414 1.363 . S
C1415 C1421 1.428 . S
H1416 C1412 0.930 . S
H1417 C1414 0.929 . S
S1418 N1419 1.613 . S
S1418 N1420 1.610 . S
N1419 S1418 1.613 . S
N1419 C1422 1.350 . S
N1420 S1418 1.610 . S
N1420 C1421 1.351 . S
C1421 C1415 1.428 . S
C1421 N1420 1.351 . S
C1421 C1422 1.434 . S
C1422 C1413 1.429 . S
C1422 N1419 1.350 . S
C1422 C1421 1.434 . S
C1423 C1424 1.369 . S
C1423 C1425 1.419 . S
C1423 H1427 0.930 . S
C1424 C1423 1.369 . S
C1424 C1433 1.429 . S
C1425 C1423 1.419 . S
C1425 C1426 1.363 . S
C1425 H1428 0.929 . S
C1426 C1425 1.363 . S
C1426 C1432 1.428 . S
H1427 C1423 0.930 . S
H1428 C1425 0.929 . S
S1429 N1430 1.613 . S
S1429 N1431 1.610 . S
N1430 S1429 1.613 . S
N1430 C1433 1.350 . S
N1431 S1429 1.610 . S
N1431 C1432 1.351 . S
C1432 C1426 1.428 . S
C1432 N1431 1.351 . S
C1432 C1433 1.434 . S
C1433 C1424 1.429 . S
C1433 N1430 1.350 . S
C1433 C1432 1.434 . S
C1434 C1435 1.369 . S
C1434 C1436 1.419 . S
C1434 H1438 0.930 . S
C1435 C1434 1.369 . S
C1435 C1444 1.429 . S
C1436 C1434 1.419 . S
C1436 C1437 1.363 . S
C1436 H1439 0.929 . S
C1437 C1436 1.363 . S
C1437 C1443 1.428 . S
H1438 C1434 0.930 . S
H1439 C1436 0.929 . S
S1440 N1441 1.613 . S
S1440 N1442 1.610 . S
N1441 S1440 1.613 . S
N1441 C1444 1.350 . S
N1442 S1440 1.610 . S
N1442 C1443 1.351 . S
C1443 C1437 1.428 . S
C1443 N1442 1.351 . S
C1443 C1444 1.434 . S
C1444 C1435 1.429 . S
C1444 N1441 1.350 . S
C1444 C1443 1.434 . S
C1445 C1446 1.369 . S
C1445 C1447 1.419 1_655 S
C1445 H1449 0.930 . S
C1446 C1445 1.369 . S
C1446 C1455 1.429 . S
C1447 C1445 1.419 1_455 S
C1447 C1448 1.363 . S
C1447 H1450 0.929 . S
C1448 C1447 1.363 . S
C1448 C1454 1.428 1_455 S
H1449 C1445 0.930 . S
H1450 C1447 0.929 . S
S1451 N1452 1.613 . S
S1451 N1453 1.610 . S
N1452 S1451 1.613 . S
N1452 C1455 1.350 . S
N1453 S1451 1.610 . S
N1453 C1454 1.351 . S
C1454 C1448 1.428 1_655 S
C1454 N1453 1.351 . S
C1454 C1455 1.434 . S
C1455 C1446 1.429 . S
C1455 N1452 1.350 . S
C1455 C1454 1.434 . S
C1456 C1457 1.369 . S
C1456 C1458 1.419 . S
C1456 H1460 0.930 . S
C1457 C1456 1.369 . S
C1457 C1466 1.429 . S
C1458 C1456 1.419 . S
C1458 C1459 1.363 . S
C1458 H1461 0.929 . S
C1459 C1458 1.363 . S
C1459 C1465 1.428 . S
H1460 C1456 0.930 . S
H1461 C1458 0.929 . S
S1462 N1463 1.613 . S
S1462 N1464 1.610 . S
N1463 S1462 1.613 . S
N1463 C1466 1.350 . S
N1464 S1462 1.610 . S
N1464 C1465 1.351 . S
C1465 C1459 1.428 . S
C1465 N1464 1.351 . S
C1465 C1466 1.434 . S
C1466 C1457 1.429 . S
C1466 N1463 1.350 . S
C1466 C1465 1.434 . S
C1467 C1468 1.369 . S
C1467 C1469 1.419 1_556 S
C1467 H1471 0.930 . S
C1468 C1467 1.369 . S
C1468 C1477 1.429 . S
C1469 C1467 1.419 1_554 S
C1469 C1470 1.363 . S
C1469 H1472 0.929 . S
C1470 C1469 1.363 . S
C1470 C1476 1.428 . S
H1471 C1467 0.930 . S
H1472 C1469 0.929 . S
S1473 N1474 1.613 . S
S1473 N1475 1.610 1_556 S
N1474 S1473 1.613 . S
N1474 C1477 1.350 . S
N1475 S1473 1.610 1_554 S
N1475 C1476 1.351 . S
C1476 C1470 1.428 . S
C1476 N1475 1.351 . S
C1476 C1477 1.434 1_554 S
C1477 C1468 1.429 . S
C1477 N1474 1.350 . S
C1477 C1476 1.434 1_556 S
C1478 C1479 1.369 . S
C1478 C1480 1.419 . S
C1478 H1482 0.930 . S
C1479 C1478 1.369 . S
C1479 C1488 1.429 . S
C1480 C1478 1.419 . S
C1480 C1481 1.363 . S
C1480 H1483 0.929 . S
C1481 C1480 1.363 . S
C1481 C1487 1.428 . S
H1482 C1478 0.930 . S
H1483 C1480 0.929 . S
S1484 N1485 1.613 1_655 S
S1484 N1486 1.610 1_655 S
N1485 S1484 1.613 1_455 S
N1485 C1488 1.350 . S
N1486 S1484 1.610 1_455 S
N1486 C1487 1.351 . S
C1487 C1481 1.428 . S
C1487 N1486 1.351 . S
C1487 C1488 1.434 . S
C1488 C1479 1.429 . S
C1488 N1485 1.350 . S
C1488 C1487 1.434 . S
C1489 C1490 1.369 . S
C1489 C1491 1.419 . S
C1489 H1493 0.930 . S
C1490 C1489 1.369 . S
C1490 C1499 1.429 . S
C1491 C1489 1.419 . S
C1491 C1492 1.363 . S
C1491 H1494 0.929 . S
C1492 C1491 1.363 . S
C1492 C1498 1.428 . S
H1493 C1489 0.930 . S
H1494 C1491 0.929 . S
S1495 N1496 1.613 . S
S1495 N1497 1.610 . S
N1496 S1495 1.613 . S
N1496 C1499 1.350 . S
N1497 S1495 1.610 . S
N1497 C1498 1.351 . S
C1498 C1492 1.428 . S
C1498 N1497 1.351 . S
C1498 C1499 1.434 . S
C1499 C1490 1.429 . S
C1499 N1496 1.350 . S
C1499 C1498 1.434 . S
C1500 C1501 1.369 . S
C1500 C1502 1.419 . S
C1500 H1504 0.930 . S
C1501 C1500 1.369 . S
C1501 C1510 1.429 . S
C1502 C1500 1.419 . S
C1502 C1503 1.363 . S
C1502 H1505 0.929 . S
C1503 C1502 1.363 . S
C1503 C1509 1.428 . S
H1504 C1500 0.930 . S
H1505 C1502 0.929 . S
S1506 N1507 1.613 . S
S1506 N1508 1.610 . S
N1507 S1506 1.613 . S
N1507 C1510 1.350 . S
N1508 S1506 1.610 . S
N1508 C1509 1.351 . S
C1509 C1503 1.428 . S
C1509 N1508 1.351 . S
C1509 C1510 1.434 . S
C1510 C1501 1.429 . S
C1510 N1507 1.350 . S
C1510 C1509 1.434 . S
C1511 C1512 1.369 . S
C1511 C1513 1.419 1_554 S
C1511 H1515 0.930 . S
C1512 C1511 1.369 . S
C1512 C1521 1.429 . S
C1513 C1511 1.419 1_556 S
C1513 C1514 1.363 . S
C1513 H1516 0.929 . S
C1514 C1513 1.363 . S
C1514 C1520 1.428 1_556 S
H1515 C1511 0.930 . S
H1516 C1513 0.929 . S
S1517 N1518 1.613 . S
S1517 N1519 1.610 . S
N1518 S1517 1.613 . S
N1518 C1521 1.350 . S
N1519 S1517 1.610 . S
N1519 C1520 1.351 . S
C1520 C1514 1.428 1_554 S
C1520 N1519 1.351 . S
C1520 C1521 1.434 . S
C1521 C1512 1.429 . S
C1521 N1518 1.350 . S
C1521 C1520 1.434 . S
C1522 C1523 1.369 . S
C1522 C1524 1.419 . S
C1522 H1526 0.930 . S
C1523 C1522 1.369 . S
C1523 C1532 1.429 . S
C1524 C1522 1.419 . S
C1524 C1525 1.363 . S
C1524 H1527 0.929 . S
C1525 C1524 1.363 . S
C1525 C1531 1.428 . S
H1526 C1522 0.930 . S
H1527 C1524 0.929 . S
S1528 N1529 1.613 . S
S1528 N1530 1.610 . S
N1529 S1528 1.613 . S
N1529 C1532 1.350 . S
N1530 S1528 1.610 . S
N1530 C1531 1.351 . S
C1531 C1525 1.428 . S
C1531 N1530 1.351 . S
C1531 C1532 1.434 . S
C1532 C1523 1.429 . S
C1532 N1529 1.350 . S
C1532 C1531 1.434 . S
C1533 C1534 1.369 . S
C1533 C1535 1.419 . S
C1533 H1537 0.930 . S
C1534 C1533 1.369 . S
C1534 C1543 1.429 . S
C1535 C1533 1.419 . S
C1535 C1536 1.363 . S
C1535 H1538 0.929 . S
C1536 C1535 1.363 . S
C1536 C1542 1.428 . S
H1537 C1533 0.930 . S
H1538 C1535 0.929 . S
S1539 N1540 1.613 . S
S1539 N1541 1.610 . S
N1540 S1539 1.613 . S
N1540 C1543 1.350 . S
N1541 S1539 1.610 . S
N1541 C1542 1.351 . S
C1542 C1536 1.428 . S
C1542 N1541 1.351 . S
C1542 C1543 1.434 . S
C1543 C1534 1.429 . S
C1543 N1540 1.350 . S
C1543 C1542 1.434 . S
C1544 C1545 1.369 . S
C1544 C1546 1.419 . S
C1544 H1548 0.930 . S
C1545 C1544 1.369 . S
C1545 C1554 1.429 . S
C1546 C1544 1.419 . S
C1546 C1547 1.363 . S
C1546 H1549 0.929 . S
C1547 C1546 1.363 . S
C1547 C1553 1.428 . S
H1548 C1544 0.930 . S
H1549 C1546 0.929 . S
S1550 N1551 1.613 . S
S1550 N1552 1.610 . S
N1551 S1550 1.613 . S
N1551 C1554 1.350 . S
N1552 S1550 1.610 . S
N1552 C1553 1.351 . S
C1553 C1547 1.428 . S
C1553 N1552 1.351 . S
C1553 C1554 1.434 . S
C1554 C1545 1.429 . S
C1554 N1551 1.350 . S
C1554 C1553 1.434 . S
C1555 C1556 1.369 . S
C1555 C1557 1.419 . S
C1555 H1559 0.930 . S
C1556 C1555 1.369 . S
C1556 C1565 1.429 . S
C1557 C1555 1.419 . S
C1557 C1558 1.363 . S
C1557 H1560 0.929 . S
C1558 C1557 1.363 . S
C1558 C1564 1.428 . S
H1559 C1555 0.930 . S
H1560 C1557 0.929 . S
S1561 N1562 1.613 . S
S1561 N1563 1.610 . S
N1562 S1561 1.613 . S
N1562 C1565 1.350 . S
N1563 S1561 1.610 . S
N1563 C1564 1.351 . S
C1564 C1558 1.428 . S
C1564 N1563 1.351 . S
C1564 C1565 1.434 . S
C1565 C1556 1.429 . S
C1565 N1562 1.350 . S
C1565 C1564 1.434 . S
C1566 C1567 1.369 . S
C1566 C1568 1.419 . S
C1566 H1570 0.930 . S
C1567 C1566 1.369 . S
C1567 C1576 1.429 . S
C1568 C1566 1.419 . S
C1568 C1569 1.363 . S
C1568 H1571 0.929 . S
C1569 C1568 1.363 . S
C1569 C1575 1.428 . S
H1570 C1566 0.930 . S
H1571 C1568 0.929 . S
S1572 N1573 1.613 . S
S1572 N1574 1.610 . S
N1573 S1572 1.613 . S
N1573 C1576 1.350 . S
N1574 S1572 1.610 . S
N1574 C1575 1.351 . S
C1575 C1569 1.428 . S
C1575 N1574 1.351 . S
C1575 C1576 1.434 . S
C1576 C1567 1.429 . S
C1576 N1573 1.350 . S
C1576 C1575 1.434 . S
C1577 C1578 1.369 . S
C1577 C1579 1.419 . S
C1577 H1581 0.930 . S
C1578 C1577 1.369 . S
C1578 C1587 1.429 . S
C1579 C1577 1.419 . S
C1579 C1580 1.363 . S
C1579 H1582 0.929 . S
C1580 C1579 1.363 . S
C1580 C1586 1.428 . S
H1581 C1577 0.930 . S
H1582 C1579 0.929 . S
S1583 N1584 1.613 . S
S1583 N1585 1.610 . S
N1584 S1583 1.613 . S
N1584 C1587 1.350 . S
N1585 S1583 1.610 . S
N1585 C1586 1.351 . S
C1586 C1580 1.428 . S
C1586 N1585 1.351 . S
C1586 C1587 1.434 . S
C1587 C1578 1.429 . S
C1587 N1584 1.350 . S
C1587 C1586 1.434 . S
C1588 C1589 1.369 . S
C1588 C1590 1.419 . S
C1588 H1592 0.930 . S
C1589 C1588 1.369 . S
C1589 C1598 1.429 . S
C1590 C1588 1.419 . S
C1590 C1591 1.363 . S
C1590 H1593 0.929 . S
C1591 C1590 1.363 . S
C1591 C1597 1.428 . S
H1592 C1588 0.930 . S
H1593 C1590 0.929 . S
S1594 N1595 1.613 . S
S1594 N1596 1.610 . S
N1595 S1594 1.613 . S
N1595 C1598 1.350 . S
N1596 S1594 1.610 . S
N1596 C1597 1.351 . S
C1597 C1591 1.428 . S
C1597 N1596 1.351 . S
C1597 C1598 1.434 . S
C1598 C1589 1.429 . S
C1598 N1595 1.350 . S
C1598 C1597 1.434 . S
C1599 C1600 1.369 . S
C1599 C1601 1.419 . S
C1599 H1603 0.930 . S
C1600 C1599 1.369 . S
C1600 C1609 1.429 . S
C1601 C1599 1.419 . S
C1601 C1602 1.363 . S
C1601 H1604 0.929 . S
C1602 C1601 1.363 . S
C1602 C1608 1.428 . S
H1603 C1599 0.930 . S
H1604 C1601 0.929 . S
S1605 N1606 1.613 1_554 S
S1605 N1607 1.610 1_554 S
N1606 S1605 1.613 1_556 S
N1606 C1609 1.350 . S
N1607 S1605 1.610 1_556 S
N1607 C1608 1.351 . S
C1608 C1602 1.428 . S
C1608 N1607 1.351 . S
C1608 C1609 1.434 . S
C1609 C1600 1.429 . S
C1609 N1606 1.350 . S
C1609 C1608 1.434 . S
C1610 C1611 1.369 . S
C1610 C1612 1.419 . S
C1610 H1614 0.930 . S
C1611 C1610 1.369 . S
C1611 C1620 1.429 . S
C1612 C1610 1.419 . S
C1612 C1613 1.363 . S
C1612 H1615 0.929 . S
C1613 C1612 1.363 . S
C1613 C1619 1.428 . S
H1614 C1610 0.930 . S
H1615 C1612 0.929 . S
S1616 N1617 1.613 . S
S1616 N1618 1.610 . S
N1617 S1616 1.613 . S
N1617 C1620 1.350 . S
N1618 S1616 1.610 . S
N1618 C1619 1.351 . S
C1619 C1613 1.428 . S
C1619 N1618 1.351 . S
C1619 C1620 1.434 . S
C1620 C1611 1.429 . S
C1620 N1617 1.350 . S
C1620 C1619 1.434 . S
C1621 C1622 1.369 . S
C1621 C1623 1.419 . S
C1621 H1625 0.930 . S
C1622 C1621 1.369 . S
C1622 C1631 1.429 . S
C1623 C1621 1.419 . S
C1623 C1624 1.363 . S
C1623 H1626 0.929 . S
C1624 C1623 1.363 . S
C1624 C1630 1.428 . S
H1625 C1621 0.930 . S
H1626 C1623 0.929 . S
S1627 N1628 1.613 . S
S1627 N1629 1.610 . S
N1628 S1627 1.613 . S
N1628 C1631 1.350 . S
N1629 S1627 1.610 . S
N1629 C1630 1.351 . S
C1630 C1624 1.428 . S
C1630 N1629 1.351 . S
C1630 C1631 1.434 . S
C1631 C1622 1.429 . S
C1631 N1628 1.350 . S
C1631 C1630 1.434 . S
C1632 C1633 1.369 . S
C1632 C1634 1.419 . S
C1632 H1636 0.930 . S
C1633 C1632 1.369 . S
C1633 C1642 1.429 . S
C1634 C1632 1.419 . S
C1634 C1635 1.363 . S
C1634 H1637 0.929 . S
C1635 C1634 1.363 . S
C1635 C1641 1.428 . S
H1636 C1632 0.930 . S
H1637 C1634 0.929 . S
S1638 N1639 1.613 . S
S1638 N1640 1.610 . S
N1639 S1638 1.613 . S
N1639 C1642 1.350 . S
N1640 S1638 1.610 . S
N1640 C1641 1.351 . S
C1641 C1635 1.428 . S
C1641 N1640 1.351 . S
C1641 C1642 1.434 . S
C1642 C1633 1.429 . S
C1642 N1639 1.350 . S
C1642 C1641 1.434 . S
C1643 C1644 1.369 . S
C1643 C1645 1.419 . S
C1643 H1647 0.930 . S
C1644 C1643 1.369 . S
C1644 C1653 1.429 . S
C1645 C1643 1.419 . S
C1645 C1646 1.363 . S
C1645 H1648 0.929 . S
C1646 C1645 1.363 . S
C1646 C1652 1.428 . S
H1647 C1643 0.930 . S
H1648 C1645 0.929 . S
S1649 N1650 1.613 . S
S1649 N1651 1.610 . S
N1650 S1649 1.613 . S
N1650 C1653 1.350 . S
N1651 S1649 1.610 . S
N1651 C1652 1.351 . S
C1652 C1646 1.428 . S
C1652 N1651 1.351 . S
C1652 C1653 1.434 . S
C1653 C1644 1.429 . S
C1653 N1650 1.350 . S
C1653 C1652 1.434 . S
C1654 C1655 1.369 . S
C1654 C1656 1.419 . S
C1654 H1658 0.930 . S
C1655 C1654 1.369 . S
C1655 C1664 1.429 . S
C1656 C1654 1.419 . S
C1656 C1657 1.363 . S
C1656 H1659 0.929 . S
C1657 C1656 1.363 . S
C1657 C1663 1.428 . S
H1658 C1654 0.930 . S
H1659 C1656 0.929 . S
S1660 N1661 1.613 . S
S1660 N1662 1.610 . S
N1661 S1660 1.613 . S
N1661 C1664 1.350 . S
N1662 S1660 1.610 . S
N1662 C1663 1.351 . S
C1663 C1657 1.428 . S
C1663 N1662 1.351 . S
C1663 C1664 1.434 . S
C1664 C1655 1.429 . S
C1664 N1661 1.350 . S
C1664 C1663 1.434 . S
C1665 C1666 1.369 . S
C1665 C1667 1.419 . S
C1665 H1669 0.930 . S
C1666 C1665 1.369 . S
C1666 C1675 1.429 . S
C1667 C1665 1.419 . S
C1667 C1668 1.363 . S
C1667 H1670 0.929 . S
C1668 C1667 1.363 . S
C1668 C1674 1.428 . S
H1669 C1665 0.930 . S
H1670 C1667 0.929 . S
S1671 N1672 1.613 . S
S1671 N1673 1.610 . S
N1672 S1671 1.613 . S
N1672 C1675 1.350 . S
N1673 S1671 1.610 . S
N1673 C1674 1.351 . S
C1674 C1668 1.428 . S
C1674 N1673 1.351 . S
C1674 C1675 1.434 . S
C1675 C1666 1.429 . S
C1675 N1672 1.350 . S
C1675 C1674 1.434 . S
C1676 C1677 1.369 . S
C1676 C1678 1.419 . S
C1676 H1680 0.930 . S
C1677 C1676 1.369 . S
C1677 C1686 1.429 . S
C1678 C1676 1.419 . S
C1678 C1679 1.363 . S
C1678 H1681 0.929 . S
C1679 C1678 1.363 . S
C1679 C1685 1.428 . S
H1680 C1676 0.930 . S
H1681 C1678 0.929 . S
S1682 N1683 1.613 . S
S1682 N1684 1.610 . S
N1683 S1682 1.613 . S
N1683 C1686 1.350 . S
N1684 S1682 1.610 . S
N1684 C1685 1.351 . S
C1685 C1679 1.428 . S
C1685 N1684 1.351 . S
C1685 C1686 1.434 . S
C1686 C1677 1.429 . S
C1686 N1683 1.350 . S
C1686 C1685 1.434 . S
C1687 C1688 1.369 . S
C1687 C1689 1.419 . S
C1687 H1691 0.930 . S
C1688 C1687 1.369 . S
C1688 C1697 1.429 . S
C1689 C1687 1.419 . S
C1689 C1690 1.363 . S
C1689 H1692 0.929 . S
C1690 C1689 1.363 . S
C1690 C1696 1.428 . S
H1691 C1687 0.930 . S
H1692 C1689 0.929 . S
S1693 N1694 1.613 . S
S1693 N1695 1.610 1_554 S
N1694 S1693 1.613 . S
N1694 C1697 1.350 1_554 S
N1695 S1693 1.610 1_556 S
N1695 C1696 1.351 . S
C1696 C1690 1.428 . S
C1696 N1695 1.351 . S
C1696 C1697 1.434 . S
C1697 C1688 1.429 . S
C1697 N1694 1.350 1_556 S
C1697 C1696 1.434 . S
C1698 C1699 1.369 . S
C1698 C1700 1.419 . S
C1698 H1702 0.930 . S
C1699 C1698 1.369 . S
C1699 C1708 1.429 . S
C1700 C1698 1.419 . S
C1700 C1701 1.363 . S
C1700 H1703 0.929 . S
C1701 C1700 1.363 . S
C1701 C1707 1.428 . S
H1702 C1698 0.930 . S
H1703 C1700 0.929 . S
S1704 N1705 1.613 . S
S1704 N1706 1.610 . S
N1705 S1704 1.613 . S
N1705 C1708 1.350 . S
N1706 S1704 1.610 . S
N1706 C1707 1.351 . S
C1707 C1701 1.428 . S
C1707 N1706 1.351 . S
C1707 C1708 1.434 . S
C1708 C1699 1.429 . S
C1708 N1705 1.350 . S
C1708 C1707 1.434 . S
C1709 C1710 1.369 . S
C1709 C1711 1.419 . S
C1709 H1713 0.930 . S
C1710 C1709 1.369 . S
C1710 C1719 1.429 . S
C1711 C1709 1.419 . S
C1711 C1712 1.363 1_455 S
C1711 H1714 0.929 . S
C1712 C1711 1.363 1_655 S
C1712 C1718 1.428 . S
H1713 C1709 0.930 . S
H1714 C1711 0.929 . S
S1715 N1716 1.613 1_655 S
S1715 N1717 1.610 . S
N1716 S1715 1.613 1_455 S
N1716 C1719 1.350 . S
N1717 S1715 1.610 . S
N1717 C1718 1.351 . S
C1718 C1712 1.428 . S
C1718 N1717 1.351 . S
C1718 C1719 1.434 1_655 S
C1719 C1710 1.429 . S
C1719 N1716 1.350 . S
C1719 C1718 1.434 1_455 S
C667 C330 1.082 . S
C665 C0 1.085 . S
C676 C18 1.202 . S
C678 C342 1.254 . S
C689 C377 1.322 . S
C687 C34 1.331 . S
C700 C386 1.210 1_554 S
C698 C49 1.220 . S
C711 C341 1.225 . S
C709 C62 1.251 . S
C720 C73 1.300 . S
C722 C366 1.304 . S
C733 C385 1.268 . S
C731 C83 1.226 . S
C742 C91 1.126 . S
C744 C327 1.120 . S
C753 C109 1.094 . S
C755 C320 1.141 . S
C766 C344 1.216 1_545 S
C764 C125 1.212 . S
C777 C363 1.284 . S
C775 C130 1.302 . S
C788 C388 1.261 . S
C786 C153 1.266 . S
C799 C349 1.261 . S
C797 C114 1.265 . S
C810 C374 1.272 . S
C808 C117 1.262 . S
C819 C138 1.227 . S
C821 C393 1.197 . S
C832 C333 1.130 . S
C830 C148 1.104 . S
C841 C161 1.097 . S
C843 C322 1.152 . S
C852 C169 1.296 . S
C854 C421 1.293 . S
C865 C437 1.209 1_455 S
C863 C190 1.223 . S
C876 C451 1.220 . S
C874 C205 1.248 . S
C885 C213 1.111 . S
C887 C319 1.156 . S
C896 C229 1.253 . S
C898 C371 1.228 . S
C909 C454 1.280 . S
C907 C182 1.280 . S
C920 C418 1.259 . S
C918 C244 1.268 . S
C931 C474 1.306 . S
C929 C21 1.323 . S
C942 C498 1.214 . S
C940 C5 1.175 . S
C951 C39 1.153 . S
C953 C531 1.121 . S
C962 C36 1.249 . S
C964 C539 1.233 . S
C973 C101 1.257 . S
C975 C509 1.238 . S
C984 C78 1.142 . S
C986 C520 1.124 . S
C997 C540 1.227 . S
C995 C70 1.190 . S
C1006 C60 1.376 . S
C1008 C473 1.334 . S
C1017 C257 1.243 . S
C1019 C476 1.247 . S
C1030 C506 1.215 . S
C1028 C203 1.227 . S
C1041 C517 1.226 . S
C1039 C208 1.253 . S
C1052 C547 1.186 . S
C1050 C174 1.162 . S
C1063 C495 1.187 . S
C1061 C252 1.170 . S
C1074 C528 1.220 . S
C1072 C195 1.236 . S
C1085 C542 1.229 . S
C1083 C216 1.250 . S
C1094 C179 1.298 . S
C1096 C481 1.280 . S
C1107 C484 1.248 . S
C1105 C270 1.236 . S
C1116 C143 1.249 . S
C1118 C572 1.233 . S
C1129 C584 1.230 . S
C1127 C281 1.242 . S
C1138 C122 1.173 . S
C1140 C605 1.187 . S
C1151 C487 1.281 . S
C1149 C140 1.296 . S
C1162 C525 1.220 . S
C1160 C294 1.255 . S
C1173 C608 1.209 . S
C1171 C273 1.226 . S
C1182 C304 1.155 . S
C1184 C575 1.180 . S
C1193 C26 1.091 . S
C1195 C630 1.102 . S
C1204 C44 1.206 . S
C1206 C408 1.258 . S
C1217 C432 1.288 . S
C1215 C8 1.290 . S
C1226 C23 1.226 . S
C1228 C462 1.213 . S
C1237 C88 1.239 . S
C1239 C407 1.212 . S
C1248 C99 1.336 . S
C1250 C443 1.317 . S
C1261 C459 1.281 . S
C1259 C57 1.246 . S
C1272 C641 1.103 . S
C1270 C65 1.105 . S
C1283 C638 1.123 . S
C1281 C278 1.075 . S
C1294 C410 1.211 . S
C1292 C268 1.212 . S
C1305 C440 1.284 . S
C1303 C299 1.272 . S
C1314 C296 1.278 . S
C1316 C452 1.279 . S
C1327 C415 1.255 . S
C1325 C283 1.266 . S
C1336 C260 1.268 . S
C1338 C429 1.262 . S
C1349 C465 1.199 . S
C1347 C307 1.226 . S
C1358 C291 1.108 . S
C1360 C627 1.147 . S
C1371 C628 1.157 . S
C1369 C200 1.115 . S
C1380 C221 1.284 . S
C1382 C355 1.268 . S
C1393 C364 1.193 . S
C1391 C255 1.193 . S
C1402 C166 1.249 . S
C1404 C399 1.227 . S
C1415 C635 1.152 . S
C1413 C239 1.103 . S
C1426 C430 1.225 . S
C1424 C177 1.224 . S
C1437 C396 1.275 . S
C1435 C247 1.270 . S
C1448 C352 1.248 . S
C1446 C218 1.257 . S
C1457 C47 1.360 . S
C1459 C649 1.320 . S
C1468 C31 1.218 . S
C1470 C561 1.237 . S
C1479 C13 1.144 . S
C1481 C597 1.116 . S
C1492 C616 1.209 . S
C1490 C10 1.205 . S
C1503 C562 1.219 . S
C1501 C75 1.219 . S
C1512 C52 1.151 . S
C1514 C586 1.133 . S
C1525 C613 1.247 . S
C1523 C96 1.229 . S
C1534 C86 1.358 . S
C1536 C650 1.334 . S
C1547 C657 1.268 . S
C1545 C192 1.271 . S
C1556 C164 1.241 . S
C1558 C569 1.208 . S
C1567 C234 1.258 . S
C1569 C583 1.223 . S
C1580 C606 1.180 . S
C1578 C226 1.146 . S
C1591 C564 1.188 . S
C1589 C187 1.154 . S
C1600 C156 1.244 . S
C1602 C594 1.223 . S
C1613 C619 1.234 . S
C1611 C242 1.268 . S
C1624 C652 1.283 . S
C1622 C231 1.278 . S
C1635 C663 1.245 . S
C1633 C127 1.257 . S
C1646 C503 1.249 . S
C1644 C286 1.283 . S
C1655 C112 1.245 . S
C1657 C518 1.227 . S
C1666 C265 1.153 . S
C1668 C550 1.189 . S
C1679 C660 1.274 . S
C1677 C309 1.263 . S
C1690 C591 1.210 . S
C1688 C151 1.247 . S
C1701 C553 1.222 . S
C1699 C104 1.259 . S
C1712 C496 1.181 . S
C1710 C135 1.145 . S
