# Generated by pormake.
# Topology ssb, (4,4)-cn, num edge types: 1
# Building blocks:
#     Node 0, Type 0, BuildingBlock: ESEHIV_clean_sbu_0, # of connection points: 4
#     Node 1, Type 0, BuildingBlock: ESEHIV_clean_sbu_0, # of connection points: 4
#     Node 2, Type 0, BuildingBlock: ESEHIV_clean_sbu_0, # of connection points: 4
#     Node 3, Type 0, BuildingBlock: ESEHIV_clean_sbu_0, # of connection points: 4
#     Node 4, Type 0, BuildingBlock: ESEHIV_clean_sbu_0, # of connection points: 4
#     Node 5, Type 0, BuildingBlock: ESEHIV_clean_sbu_0, # of connection points: 4
#     Node 6, Type 0, BuildingBlock: ESEHIV_clean_sbu_0, # of connection points: 4
#     Node 7, Type 0, BuildingBlock: ESEHIV_clean_sbu_0, # of connection points: 4
#     Node 8, Type 1, BuildingBlock: KOZSID_clean_sbu_0, # of connection points: 4
#     Node 9, Type 1, BuildingBlock: KOZSID_clean_sbu_0, # of connection points: 4
#     Node 10, Type 1, BuildingBlock: KOZSID_clean_sbu_0, # of connection points: 4
#     Node 11, Type 1, BuildingBlock: KOZSID_clean_sbu_0, # of connection points: 4
#     Node 12, Type 1, BuildingBlock: KOZSID_clean_sbu_0, # of connection points: 4
#     Node 13, Type 1, BuildingBlock: KOZSID_clean_sbu_0, # of connection points: 4
#     Node 14, Type 1, BuildingBlock: KOZSID_clean_sbu_0, # of connection points: 4
#     Node 15, Type 1, BuildingBlock: KOZSID_clean_sbu_0, # of connection points: 4
#     Edge 16, Type (0, 1), BuildingBlock: EZIPEK_clean_linker_0, # of connection points: 2
#     Edge 17, Type (0, 1), BuildingBlock: EZIPEK_clean_linker_0, # of connection points: 2
#     Edge 18, Type (0, 1), BuildingBlock: EZIPEK_clean_linker_0, # of connection points: 2
#     Edge 19, Type (0, 1), BuildingBlock: EZIPEK_clean_linker_0, # of connection points: 2
#     Edge 20, Type (0, 1), BuildingBlock: EZIPEK_clean_linker_0, # of connection points: 2
#     Edge 21, Type (0, 1), BuildingBlock: EZIPEK_clean_linker_0, # of connection points: 2
#     Edge 22, Type (0, 1), BuildingBlock: EZIPEK_clean_linker_0, # of connection points: 2
#     Edge 23, Type (0, 1), BuildingBlock: EZIPEK_clean_linker_0, # of connection points: 2
#     Edge 24, Type (0, 1), BuildingBlock: EZIPEK_clean_linker_0, # of connection points: 2
#     Edge 25, Type (0, 1), BuildingBlock: EZIPEK_clean_linker_0, # of connection points: 2
#     Edge 26, Type (0, 1), BuildingBlock: EZIPEK_clean_linker_0, # of connection points: 2
#     Edge 27, Type (0, 1), BuildingBlock: EZIPEK_clean_linker_0, # of connection points: 2
#     Edge 28, Type (0, 1), BuildingBlock: EZIPEK_clean_linker_0, # of connection points: 2
#     Edge 29, Type (0, 1), BuildingBlock: EZIPEK_clean_linker_0, # of connection points: 2
#     Edge 30, Type (0, 1), BuildingBlock: EZIPEK_clean_linker_0, # of connection points: 2
#     Edge 31, Type (0, 1), BuildingBlock: EZIPEK_clean_linker_0, # of connection points: 2
#     Edge 32, Type (0, 1), BuildingBlock: EZIPEK_clean_linker_0, # of connection points: 2
#     Edge 33, Type (0, 1), BuildingBlock: EZIPEK_clean_linker_0, # of connection points: 2
#     Edge 34, Type (0, 1), BuildingBlock: EZIPEK_clean_linker_0, # of connection points: 2
#     Edge 35, Type (0, 1), BuildingBlock: EZIPEK_clean_linker_0, # of connection points: 2
#     Edge 36, Type (0, 1), BuildingBlock: EZIPEK_clean_linker_0, # of connection points: 2
#     Edge 37, Type (0, 1), BuildingBlock: EZIPEK_clean_linker_0, # of connection points: 2
#     Edge 38, Type (0, 1), BuildingBlock: EZIPEK_clean_linker_0, # of connection points: 2
#     Edge 39, Type (0, 1), BuildingBlock: EZIPEK_clean_linker_0, # of connection points: 2
#     Edge 40, Type (0, 1), BuildingBlock: EZIPEK_clean_linker_0, # of connection points: 2
#     Edge 41, Type (0, 1), BuildingBlock: EZIPEK_clean_linker_0, # of connection points: 2
#     Edge 42, Type (0, 1), BuildingBlock: EZIPEK_clean_linker_0, # of connection points: 2
#     Edge 43, Type (0, 1), BuildingBlock: EZIPEK_clean_linker_0, # of connection points: 2
#     Edge 44, Type (0, 1), BuildingBlock: EZIPEK_clean_linker_0, # of connection points: 2
#     Edge 45, Type (0, 1), BuildingBlock: EZIPEK_clean_linker_0, # of connection points: 2
#     Edge 46, Type (0, 1), BuildingBlock: EZIPEK_clean_linker_0, # of connection points: 2
#     Edge 47, Type (0, 1), BuildingBlock: EZIPEK_clean_linker_0, # of connection points: 2
# Relax obj value: 0.007
# Max RMSD: 0.117
# Mean RMSD: 0.060
data_MOF--net-ssb--node1-ESEHIV_clean_sbu_0--node2-KOZSID_clean_sbu_0--edge1-EZIPEK_clean_linker_0
_symmetry_space_group_name_H-M    P1
_symmetry_Int_Tables_number       1
_symmetry_cell_setting            triclinic
loop_
_symmetry_equiv_pos_as_xyz
'x, y, z'
_cell_length_a     42.344352
_cell_length_b     42.177432
_cell_length_c     31.112999
_cell_angle_alpha  93.015117
_cell_angle_beta   95.919627
_cell_angle_gamma 90.157937
loop_
_atom_site_label
_atom_site_type_symbol
_atom_site_fract_x
_atom_site_fract_y
_atom_site_fract_z
_atom_type_partial_charge
Cu0 Cu 0.29615 0.26629 0.28612 0.0
N1 N 0.29339 0.22059 0.28964 0.0
N2 N 0.29642 0.17312 0.3219 0.0
C3 C 0.28875 0.20449 0.32554 0.0
C4 C 0.30605 0.16939 0.28191 0.0
C5 C 0.30415 0.1982 0.26238 0.0
O6 O 0.27625 0.28345 0.33717 0.0
C7 C 0.35028 0.26997 0.24292 0.0
O8 O 0.32948 0.25774 0.21233 0.0
H9 H 0.28153 0.21583 0.35478 0.0
H10 H 0.31192 0.20266 0.23126 0.0
N11 N 0.27535 0.28763 0.23781 0.0
N12 N 0.26659 0.32718 0.19125 0.0
C13 C 0.2805 0.31869 0.23026 0.0
C14 C 0.25715 0.27625 0.20224 0.0
C15 C 0.25173 0.30044 0.17373 0.0
C16 C 0.2466 0.27678 0.33613 0.0
O17 O 0.23269 0.2609 0.30187 0.0
H18 H 0.29522 0.33454 0.2524 0.0
H19 H 0.24946 0.25178 0.19654 0.0
O20 O 0.34151 0.27609 0.2808 0.0
H21 H 0.31488 0.14744 0.26818 0.0
H22 H 0.23873 0.29824 0.14186 0.0
Cu23 Cu 0.79669 0.29175 0.28815 0.0
N24 N 0.77212 0.27614 0.23729 0.0
N25 N 0.72912 0.26991 0.18895 0.0
C26 C 0.74292 0.28697 0.22388 0.0
C27 C 0.75033 0.24739 0.1799 0.0
C28 C 0.77679 0.25122 0.2098 0.0
O29 O 0.79212 0.33767 0.28929 0.0
C30 C 0.7882 0.24046 0.33496 0.0
O31 O 0.80266 0.2283 0.30264 0.0
H32 H 0.73146 0.30624 0.24037 0.0
H33 H 0.79737 0.2361 0.21211 0.0
N34 N 0.8407 0.28396 0.29187 0.0
N35 N 0.89048 0.28192 0.32415 0.0
C36 C 0.86107 0.29384 0.32627 0.0
C37 C 0.85803 0.26548 0.26673 0.0
C38 C 0.8887 0.26406 0.28669 0.0
C39 C 0.80403 0.34979 0.25784 0.0
O40 O 0.8182 0.3311 0.23082 0.0
H41 H 0.85408 0.30832 0.35342 0.0
H42 H 0.8489 0.25296 0.23686 0.0
O43 O 0.78163 0.26999 0.33599 0.0
H44 H 0.74657 0.22902 0.15423 0.0
H45 H 0.90799 0.25028 0.27526 0.0
Cu46 Cu 0.78669 0.79499 0.27944 0.0
N47 N 0.80136 0.76998 0.23166 0.0
N48 N 0.80684 0.72703 0.1857 0.0
C49 C 0.79227 0.73943 0.21973 0.0
C50 C 0.82586 0.75078 0.17584 0.0
C51 C 0.82244 0.77701 0.20388 0.0
O52 O 0.74021 0.78916 0.26827 0.0
C53 C 0.83751 0.76897 0.33418 0.0
O54 O 0.84572 0.75587 0.29784 0.0
H55 H 0.77542 0.72637 0.23603 0.0
H56 H 0.83487 0.79945 0.20427 0.0
N57 N 0.79359 0.84021 0.28584 0.0
N58 N 0.79527 0.88942 0.31959 0.0
C59 C 0.78507 0.85882 0.31985 0.0
C60 C 0.80985 0.85994 0.26332 0.0
C61 C 0.81088 0.89006 0.28389 0.0
C62 C 0.72862 0.80251 0.2341 0.0
O63 O 0.74774 0.81971 0.21391 0.0
H64 H 0.77253 0.84979 0.34531 0.0
H65 H 0.82104 0.85284 0.23468 0.0
O66 O 0.81022 0.78203 0.33421 0.0
H67 H 0.8414 0.74919 0.15028 0.0
H68 H 0.82298 0.91068 0.27402 0.0
Cu69 Cu 0.26947 0.75534 0.2807 0.0
N70 N 0.30406 0.76674 0.25019 0.0
N71 N 0.34426 0.78128 0.21323 0.0
C72 C 0.31256 0.78398 0.21733 0.0
C73 C 0.35571 0.76207 0.24402 0.0
C74 C 0.33127 0.75329 0.26625 0.0
O75 O 0.26729 0.70958 0.26845 0.0
C76 C 0.28546 0.80144 0.33794 0.0
O77 O 0.27688 0.81466 0.30128 0.0
H78 H 0.29626 0.79793 0.19709 0.0
H79 H 0.33309 0.73785 0.29305 0.0
N80 N 0.22787 0.77224 0.2752 0.0
N81 N 0.18157 0.78508 0.30097 0.0
C82 C 0.2087 0.76846 0.3068 0.0
C83 C 0.2122 0.79217 0.24817 0.0
C84 C 0.18353 0.80008 0.26402 0.0
C85 C 0.24932 0.69996 0.23485 0.0
O86 O 0.228 0.71941 0.21765 0.0
H87 H 0.2152 0.75472 0.33475 0.0
H88 H 0.22145 0.80133 0.22011 0.0
O89 O 0.28476 0.77122 0.33871 0.0
H90 H 0.38023 0.75481 0.24982 0.0
H91 H 0.16605 0.81641 0.25036 0.0
Cu92 Cu 0.28732 0.80284 0.78136 0.0
N93 N 0.3129 0.82346 0.82775 0.0
N94 N 0.35658 0.83271 0.87396 0.0
C95 C 0.34314 0.81489 0.8396 0.0
C96 C 0.33394 0.85344 0.88427 0.0
C97 C 0.30693 0.84762 0.85573 0.0
O98 O 0.29339 0.75634 0.79471 0.0
C99 C 0.31003 0.85165 0.72801 0.0
O100 O 0.32334 0.86353 0.76534 0.0
H101 H 0.35499 0.79562 0.82359 0.0
H102 H 0.28456 0.85997 0.85553 0.0
N103 N 0.24297 0.80939 0.78002 0.0
N104 N 0.1928 0.80865 0.74762 0.0
C105 C 0.22379 0.81447 0.74342 0.0
C106 C 0.22315 0.80069 0.80859 0.0
C107 C 0.1924 0.80014 0.78876 0.0
C108 C 0.29056 0.74923 0.83418 0.0
O109 O 0.2847 0.77232 0.86211 0.0
H110 H 0.23261 0.81976 0.71312 0.0
H111 H 0.23047 0.79303 0.84062 0.0
O112 O 0.29722 0.82369 0.72655 0.0
H113 H 0.33663 0.87112 0.91091 0.0
H114 H 0.17148 0.79247 0.80278 0.0
Cu115 Cu 0.29587 0.30007 0.778 0.0
N116 N 0.29947 0.34392 0.77542 0.0
N117 N 0.29736 0.39391 0.80177 0.0
C118 C 0.30254 0.36345 0.81108 0.0
C119 C 0.29134 0.39377 0.75836 0.0
C120 C 0.29302 0.3628 0.74205 0.0
O121 O 0.32235 0.28829 0.8306 0.0
C122 C 0.23623 0.29498 0.73323 0.0
O123 O 0.25342 0.30583 0.7044 0.0
H124 H 0.30595 0.35521 0.8436 0.0
H125 H 0.2881 0.35464 0.70852 0.0
N126 N 0.31245 0.27802 0.73242 0.0
N127 N 0.31914 0.23659 0.68722 0.0
C128 C 0.30603 0.24716 0.7227 0.0
C129 C 0.33057 0.2874 0.70223 0.0
C130 C 0.33482 0.26161 0.67407 0.0
C131 C 0.35115 0.29816 0.83295 0.0
O132 O 0.35972 0.31487 0.80155 0.0
H133 H 0.29154 0.2328 0.74096 0.0
H134 H 0.33956 0.31127 0.70046 0.0
O135 O 0.24995 0.28962 0.7708 0.0
H136 H 0.28476 0.41432 0.74011 0.0
H137 H 0.34788 0.26128 0.64592 0.0
Cu138 Cu 0.78365 0.29605 0.77546 0.0
N139 N 0.80865 0.31355 0.73499 0.0
N140 N 0.85002 0.31725 0.69558 0.0
C141 C 0.83849 0.30384 0.72932 0.0
C142 C 0.82665 0.33619 0.67926 0.0
C143 C 0.80118 0.33388 0.70355 0.0
O144 O 0.78553 0.24854 0.76086 0.0
C145 C 0.79682 0.35082 0.83223 0.0
O146 O 0.79727 0.36294 0.7943 0.0
H147 H 0.85101 0.28621 0.74844 0.0
H148 H 0.77852 0.34542 0.69772 0.0
N149 N 0.7396 0.30361 0.77098 0.0
N150 N 0.69243 0.30556 0.7983 0.0
C151 C 0.72181 0.293 0.80105 0.0
C152 C 0.72063 0.3237 0.74819 0.0
C153 C 0.69146 0.32486 0.76493 0.0
C154 C 0.78159 0.24013 0.72 0.0
O155 O 0.7786 0.26291 0.69273 0.0
H156 H 0.73101 0.27791 0.82646 0.0
H157 H 0.72794 0.33801 0.72311 0.0
O158 O 0.79516 0.32022 0.83315 0.0
H159 H 0.8276 0.34993 0.65099 0.0
H160 H 0.67171 0.33993 0.75489 0.0
Cu161 Cu 0.77688 0.78392 0.78487 0.0
N162 N 0.7697 0.73983 0.77995 0.0
N163 N 0.77112 0.69047 0.80319 0.0
C164 C 0.77241 0.72178 0.81454 0.0
C165 C 0.76704 0.68861 0.75956 0.0
C166 C 0.7657 0.71911 0.74529 0.0
O167 O 0.75959 0.79855 0.8393 0.0
C168 C 0.83078 0.78121 0.7391 0.0
O169 O 0.81101 0.76258 0.71421 0.0
H170 H 0.77702 0.73141 0.8475 0.0
H171 H 0.76328 0.72544 0.71194 0.0
N172 N 0.75452 0.80708 0.7426 0.0
N173 N 0.75053 0.85174 0.70716 0.0
C174 C 0.75571 0.83902 0.746 0.0
C175 C 0.74666 0.79933 0.70031 0.0
C176 C 0.7441 0.82698 0.67833 0.0
C177 C 0.72969 0.79323 0.83896 0.0
O178 O 0.71438 0.77962 0.80392 0.0
H179 H 0.76463 0.85239 0.77543 0.0
H180 H 0.7466 0.77551 0.68575 0.0
O181 O 0.82196 0.79263 0.77508 0.0
H182 H 0.76587 0.66679 0.73951 0.0
H183 H 0.7409 0.82864 0.64354 0.0
C184 C 0.10284 0.31745 0.6181 0.0
C185 C 0.11688 0.34623 0.63339 0.0
C186 C 0.10654 0.36829 0.6046 0.0
C187 C 0.08698 0.35194 0.57318 0.0
N188 N 0.08358 0.32097 0.58063 0.0
Co189 Co 0.06003 0.28868 0.53961 0.0
N190 N 0.04062 0.32173 0.50176 0.0
C191 C 0.04964 0.35241 0.50297 0.0
C192 C 0.03134 0.36994 0.47409 0.0
C193 C 0.00942 0.349 0.4532 0.0
C194 C 0.01575 0.31972 0.47038 0.0
N195 N 0.03625 0.25635 0.49934 0.0
C196 C 0.01201 0.25993 0.46787 0.0
C197 C 1.00262 0.23097 0.44718 0.0
C198 C 0.02146 0.20842 0.46652 0.0
C199 C 0.04131 0.22482 0.49767 0.0
N200 N 0.0795 0.25526 0.57708 0.0
C201 C 0.07788 0.22364 0.56797 0.0
C202 C 0.0915 0.20618 0.60081 0.0
C203 C 0.10323 0.22805 0.6324 0.0
C204 C 0.09651 0.25775 0.61664 0.0
N205 N 0.02329 0.29156 0.5744 0.0
C206 C 0.96783 0.29635 0.618 0.0
C207 C 0.9815 0.26677 0.60897 0.0
C208 C 1.00882 0.26487 0.58673 0.0
C209 C 0.98316 0.32346 0.60583 0.0
C210 C 0.01084 0.3206 0.58473 0.0
N211 N 0.09662 0.28646 0.50387 0.0
C212 C 0.15289 0.29275 0.49733 0.0
C213 C 0.14828 0.28658 0.45256 0.0
C214 C 0.1171 0.28066 0.4338 0.0
C215 C 0.09173 0.28119 0.45976 0.0
C216 C 0.1271 0.2923 0.52211 0.0
H217 H 0.06813 0.2779 0.44366 0.0
H218 H 0.13232 0.29736 0.556 0.0
H219 H 0.01782 0.24167 0.579 0.0
H220 H 0.02178 0.34208 0.57616 0.0
C221 C 0.07151 0.36478 0.5363 0.0
C222 C 0.11269 0.28673 0.63577 0.0
C223 C 0.9986 0.29035 0.45479 0.0
C224 C 0.06103 0.21109 0.53004 0.0
H225 H 0.13413 0.35072 0.66116 0.0
H226 H 0.11327 0.39312 0.60579 0.0
H227 H 0.03283 0.39522 0.47003 0.0
H228 H 0.99088 0.35465 0.42825 0.0
H229 H 0.9841 0.2266 0.42083 0.0
H230 H 0.02004 0.18299 0.45976 0.0
H231 H 0.09281 0.18059 0.60166 0.0
H232 H 0.11699 0.22283 0.66245 0.0
H233 H 0.97063 0.24518 0.61806 0.0
H234 H 0.97367 0.34683 0.61247 0.0
H235 H 0.17647 0.29788 0.51325 0.0
H236 H 0.11229 0.27621 0.39914 0.0
C237 C 0.75365 0.0989 0.60201 0.0
C238 C 0.72446 0.10422 0.61753 0.0
C239 C 0.70393 0.08166 0.59728 0.0
C240 C 0.72163 0.06369 0.57073 0.0
N241 N 0.75203 0.07353 0.57265 0.0
Co242 Co 0.7855 0.05198 0.54091 0.0
N243 N 0.75389 0.02599 0.50075 0.0
C244 C 0.72297 0.02274 0.50658 0.0
C245 C 0.70681 1.00186 0.47682 0.0
C246 C 0.72892 0.99057 0.45088 0.0
C247 C 0.75758 1.00522 0.46614 0.0
N248 N 0.81924 0.03 0.50953 0.0
C249 C 0.81749 1.00976 0.47343 0.0
C250 C 0.84755 1.00093 0.46352 0.0
C251 C 0.86874 0.01484 0.49505 0.0
C252 C 0.85064 0.03169 0.5222 0.0
N253 N 0.81709 0.07799 0.58065 0.0
C254 C 0.84872 0.07363 0.58472 0.0
C255 C 0.86509 0.09622 0.61159 0.0
C256 C 0.84245 0.11612 0.62575 0.0
C257 C 0.81328 0.10429 0.60722 0.0
N258 N 0.78714 0.01827 0.58233 0.0
C259 C 0.77813 0.96959 0.63752 0.0
C260 C 0.78151 1.00109 0.65397 0.0
C261 C 0.78609 0.02517 0.62571 0.0
C262 C 0.7811 0.96275 0.5939 0.0
C263 C 0.78572 0.98731 0.56715 0.0
N264 N 0.78303 0.08603 0.50014 0.0
C265 C 0.80839 0.1263 0.46323 0.0
C266 C 0.77884 0.13886 0.44893 0.0
C267 C 0.75142 0.12424 0.46017 0.0
C268 C 0.75403 0.09765 0.48523 0.0
C269 C 0.80998 0.09998 0.48888 0.0
H270 H 0.73246 0.08692 0.49314 0.0
H271 H 0.83306 0.09134 0.50011 0.0
H272 H 0.78758 0.04936 0.63874 0.0
H273 H 0.78659 0.98122 0.53378 0.0
C274 C 0.70994 0.03999 0.54005 0.0
C275 C 0.78257 0.11753 0.61787 0.0
C276 C 0.78821 0.99514 0.45061 0.0
C277 C 0.86245 0.05154 0.55751 0.0
H278 H 0.71867 0.12238 0.64127 0.0
H279 H 0.6789 0.07911 0.60084 0.0
H280 H 0.68199 0.99512 0.47476 0.0
H281 H 0.7247 0.97247 0.42494 0.0
H282 H 0.85352 0.98519 0.43701 0.0
H283 H 0.89436 0.01305 0.49768 0.0
H284 H 0.89057 0.09879 0.61854 0.0
H285 H 0.84705 0.13696 0.64726 0.0
H286 H 0.77976 1.00705 0.68793 0.0
H287 H 0.77903 0.93855 0.58031 0.0
H288 H 0.8301 0.13698 0.45492 0.0
H289 H 0.72815 0.13324 0.44946 0.0
C290 C 0.06942 0.82849 0.59768 0.0
C291 C 0.08159 0.85888 0.60764 0.0
C292 C 0.06201 0.87909 0.58491 0.0
C293 C 0.03923 0.86001 0.56209 0.0
N294 N 0.04294 0.82879 0.56888 0.0
Co295 Co 0.01664 0.79295 0.53856 0.0
N296 N 0.98709 0.82287 0.50634 0.0
C297 C 0.98856 0.85494 0.50984 0.0
C298 C 0.96385 0.86939 0.48674 0.0
C299 C 0.94518 0.84512 0.46762 0.0
C300 C 0.95978 0.81711 0.47991 0.0
N301 N 0.99098 0.75711 0.50707 0.0
C302 C 0.96439 0.75737 0.47847 0.0
C303 C 0.95492 0.72686 0.46368 0.0
C304 C 0.97588 0.70662 0.48405 0.0
C305 C 0.99703 0.72579 0.50982 0.0
N306 N 0.04522 0.76306 0.57229 0.0
C307 C 0.04278 0.73104 0.57026 0.0
C308 C 0.0643 0.7167 0.5988 0.0
C309 C 0.08157 0.741 0.62048 0.0
C310 C 0.06981 0.76892 0.60352 0.0
N311 N 0.98778 0.79402 0.58577 0.0
C312 C 0.94221 0.79549 0.6466 0.0
C313 C 0.95288 0.76674 0.62929 0.0
C314 C 0.97554 0.76651 0.59934 0.0
C315 C 0.95574 0.82351 0.6344 0.0
C316 C 0.97841 0.82225 0.60435 0.0
N317 N 0.04565 0.79188 0.49106 0.0
C318 C 0.083 0.76384 0.44842 0.0
C319 C 0.08881 0.79102 0.42653 0.0
C320 C 0.07225 0.81852 0.43702 0.0
C321 C 0.05103 0.81845 0.46899 0.0
C322 C 0.06152 0.76473 0.48008 0.0
H323 H 0.0394 0.8403 0.47541 0.0
H324 H 0.05834 0.74311 0.49537 0.0
H325 H 0.98223 0.74377 0.58677 0.0
H326 H 0.98748 0.84444 0.5958 0.0
C327 C 0.01344 0.87074 0.53526 0.0
C328 C 0.08356 0.80026 0.61721 0.0
C329 C 0.94687 0.78569 0.46501 0.0
C330 C 0.02073 0.71513 0.54012 0.0
H331 H 0.10238 0.8658 0.62933 0.0
H332 H 0.06405 0.90469 0.58516 0.0
H333 H 0.95971 0.89459 0.48445 0.0
H334 H 0.92324 0.84775 0.44702 0.0
H335 H 0.9346 0.71992 0.44112 0.0
H336 H 0.97521 0.68093 0.48137 0.0
H337 H 0.06722 0.69154 0.60313 0.0
H338 H 0.10089 0.73838 0.64562 0.0
H339 H 0.94295 0.74448 0.63772 0.0
H340 H 0.94806 0.84633 0.64694 0.0
H341 H 0.09515 0.74193 0.44125 0.0
H342 H 0.07585 0.84013 0.42076 0.0
C343 C 0.33375 0.96859 0.59349 0.0
C344 C 0.3634 0.96004 0.61229 0.0
C345 C 0.38526 0.97746 0.59397 0.0
C346 C 0.36789 0.99585 0.56523 0.0
N347 N 0.33615 0.99166 0.56464 0.0
Co348 Co 0.30261 0.01272 0.52525 0.0
N349 N 0.33475 0.03452 0.49314 0.0
C350 C 0.36662 0.03123 0.49992 0.0
C351 C 0.38294 0.04934 0.4741 0.0
C352 C 0.36023 0.06549 0.44975 0.0
C353 C 0.33114 0.05656 0.46224 0.0
N354 N 0.26901 0.03439 0.48661 0.0
C355 C 0.27131 0.05754 0.45786 0.0
C356 C 0.24156 0.0682 0.44219 0.0
C357 C 0.21981 0.05148 0.46145 0.0
C358 C 0.23731 0.03176 0.48806 0.0
N359 N 0.2704 0.99022 0.55639 0.0
C360 C 0.23852 0.99244 0.54837 0.0
C361 C 0.22203 0.97195 0.57071 0.0
C362 C 0.24467 0.95505 0.59385 0.0
C363 C 0.27389 0.96635 0.58457 0.0
N364 N 0.30327 0.0502 0.56673 0.0
C365 C 0.30451 0.10975 0.61168 0.0
C366 C 0.27588 0.09322 0.60131 0.0
C367 C 0.27582 0.06347 0.579 0.0
C368 C 0.33252 0.09519 0.60209 0.0
C369 C 0.33139 0.06549 0.58038 0.0
N370 N 0.30229 0.97519 0.48413 0.0
C371 C 0.2736 0.932 0.44319 0.0
C372 C 0.30162 0.91471 0.44183 0.0
C373 C 0.33002 0.92876 0.45988 0.0
C374 C 0.32991 0.9592 0.47922 0.0
C375 C 0.27443 0.96207 0.46461 0.0
H376 H 0.3525 0.96885 0.491 0.0
H377 H 0.2523 0.97396 0.4659 0.0
H378 H 0.25332 0.05203 0.57105 0.0
H379 H 0.35364 0.05596 0.5739 0.0
C380 C 0.38051 0.01369 0.53403 0.0
C381 C 0.30418 0.95291 0.60264 0.0
C382 C 0.30094 0.07081 0.44493 0.0
C383 C 0.22482 0.01198 0.51682 0.0
H384 H 0.3687 0.94217 0.63564 0.0
H385 H 0.41084 0.97569 0.59934 0.0
H386 H 0.40842 0.05149 0.47416 0.0
H387 H 0.36463 0.08264 0.42634 0.0
H388 H 0.23606 0.08668 0.41982 0.0
H389 H 0.19427 0.05415 0.45761 0.0
H390 H 0.19656 0.96873 0.56896 0.0
H391 H 0.24012 0.93595 0.61432 0.0
H392 H 0.25371 0.1036 0.60929 0.0
H393 H 0.35523 0.10702 0.6106 0.0
H394 H 0.25115 0.92206 0.42859 0.0
H395 H 0.35232 0.91638 0.45856 0.0
C396 C 0.59224 0.83175 0.12305 0.0
C397 C 0.60354 0.8595 0.14543 0.0
C398 C 0.58775 0.88396 0.12598 0.0
C399 C 0.56776 0.8699 0.09293 0.0
N400 N 0.56961 0.83789 0.09028 0.0
Co401 Co 0.54509 0.8085 0.04598 0.0
N402 N 0.52495 0.84474 0.01418 0.0
C403 C 0.53155 0.87593 0.02274 0.0
C404 C 0.51318 0.89543 0.9967 0.0
C405 C 0.49324 0.87554 0.97046 0.0
C406 C 0.50059 0.84493 0.98211 0.0
N407 N 0.51924 0.77914 1.00301 0.0
C408 C 0.49449 0.78549 0.97329 0.0
C409 C 0.4809 0.75791 0.95317 0.0
C410 C 0.49708 0.73321 0.97148 0.0
C411 C 0.5195 0.74707 1.00168 0.0
N412 N 0.56634 0.77223 0.07656 0.0
C413 C 0.56226 0.74101 0.06508 0.0
C414 C 0.58113 0.72155 0.09051 0.0
C415 C 0.59885 0.74155 0.11948 0.0
C416 C 0.58972 0.77218 0.11004 0.0
N417 N 0.50912 0.80797 0.08313 0.0
C418 C 0.45221 0.80538 0.12398 0.0
C419 C 0.47067 0.77833 0.11821 0.0
C420 C 0.49847 0.78002 0.09745 0.0
C421 C 0.46379 0.83414 0.11109 0.0
C422 C 0.49244 0.83504 0.09197 0.0
N423 N 0.58102 0.80888 0.00842 0.0
C424 C 0.61462 0.78144 0.95973 0.0
C425 C 0.63354 0.80848 0.95819 0.0
C426 C 0.62567 0.83578 0.98215 0.0
C427 C 0.59949 0.83553 1.00656 0.0
C428 C 0.5888 0.78212 0.98477 0.0
H429 H 0.59476 0.85724 0.02378 0.0
H430 H 0.57556 0.76059 0.98457 0.0
H431 H 0.51052 0.75817 0.0925 0.0
H432 H 0.50011 0.8578 0.08342 0.0
C433 C 0.55058 0.88611 0.0603 0.0
C434 C 0.60517 0.8004 0.13246 0.0
C435 C 0.48202 0.81708 0.96454 0.0
C436 C 0.54002 0.73079 0.03078 0.0
H437 H 0.62203 0.86192 0.17214 0.0
H438 H 0.59155 0.9091 0.13369 0.0
H439 H 0.51284 0.92113 0.99855 0.0
H440 H 0.47443 0.8828 0.94688 0.0
H441 H 0.46081 0.75593 0.92865 0.0
H442 H 0.49234 0.70812 0.96465 0.0
H443 H 0.58212 0.69588 0.088 0.0
H444 H 0.61687 0.73449 0.14431 0.0
H445 H 0.46303 0.75562 0.12838 0.0
H446 H 0.45063 0.85586 0.11547 0.0
H447 H 0.61976 0.75978 0.94159 0.0
H448 H 0.63958 0.85733 0.98181 0.0
C449 C 0.24506 0.58115 0.09093 0.0
C450 C 0.21446 0.58842 0.10019 0.0
C451 C 0.19439 0.57447 0.06751 0.0
C452 C 0.21381 0.55946 0.04041 0.0
N453 N 0.24509 0.56297 0.05368 0.0
Co454 Co 0.28131 0.54362 0.025 0.0
N455 N 0.25177 0.52419 0.97637 0.0
C456 C 0.22005 0.52833 0.96961 0.0
C457 C 0.20639 0.51416 0.93156 0.0
C458 C 0.23088 0.50009 0.91284 0.0
C459 C 0.2581 0.50627 0.94097 0.0
N460 N 0.31742 0.52287 0.99778 0.0
C461 C 0.31713 0.50218 0.96295 0.0
C462 C 0.34737 0.49112 0.9573 0.0
C463 C 0.36753 0.50571 0.98935 0.0
C464 C 0.3485 0.52443 0.01293 0.0
N465 N 0.3109 0.5645 0.07275 0.0
C466 C 0.34296 0.56357 0.07679 0.0
C467 C 0.35697 0.58125 0.1119 0.0
C468 C 0.33238 0.59455 0.13131 0.0
C469 C 0.30473 0.58405 0.10687 0.0
N470 N 0.27777 0.50455 0.05957 0.0
C471 C 0.27392 0.44715 0.10456 0.0
C472 C 0.30217 0.46485 0.10676 0.0
C473 C 0.30356 0.49311 0.08448 0.0
C474 C 0.24749 0.45916 0.07978 0.0
C475 C 0.24987 0.48752 0.05785 0.0
N476 N 0.28494 0.58233 0.98945 0.0
C477 C 0.31605 0.61623 0.94783 0.0
C478 C 0.28947 0.63416 0.93366 0.0
C479 C 0.26061 0.62567 0.94864 0.0
C480 C 0.25884 0.6 0.9759 0.0
C481 C 0.31342 0.59113 0.97569 0.0
H482 H 0.23593 0.59481 0.98543 0.0
H483 H 0.3349 0.5791 0.98553 0.0
H484 H 0.32595 0.50519 0.08758 0.0
H485 H 0.22883 0.49513 0.03929 0.0
C486 C 0.20358 0.54406 1.00072 0.0
C487 C 0.27324 0.59375 0.11714 0.0
C488 C 0.28896 0.49282 0.93403 0.0
C489 C 0.35909 0.54431 0.04874 0.0
H490 H 0.20743 0.60288 0.12733 0.0
H491 H 0.16873 0.57573 0.06345 0.0
H492 H 0.18152 0.51369 0.91923 0.0
H493 H 0.22884 0.48627 0.88235 0.0
H494 H 0.35425 0.47438 0.93247 0.0
H495 H 0.39302 0.50298 0.99484 0.0
H496 H 0.38207 0.58388 0.12238 0.0
H497 H 0.33449 0.61014 0.16025 0.0
H498 H 0.32331 0.45677 0.12552 0.0
H499 H 0.22502 0.44651 0.07699 0.0
H500 H 0.33906 0.62181 0.93773 0.0
H501 H 0.2393 0.6388 0.9392 0.0
C502 C 0.47403 0.31501 0.98245 0.0
C503 C 0.46082 0.34466 0.97583 0.0
C504 C 0.47985 0.36618 1.00066 0.0
C505 C 0.50356 0.3486 0.02093 0.0
N506 N 0.5011 0.31715 0.01018 0.0
Co507 Co 0.5299 0.28321 0.03429 0.0
N508 N 0.55909 0.31511 0.06851 0.0
C509 C 0.55606 0.34702 0.06944 0.0
C510 C 0.58059 0.36301 0.09358 0.0
C511 C 0.60085 0.33994 0.10839 0.0
C512 C 0.58739 0.31111 0.09246 0.0
N513 N 0.55776 0.24914 0.05993 0.0
C514 C 0.58551 0.2512 0.08612 0.0
C515 C 0.59698 0.2214 0.09615 0.0
C516 C 0.57591 0.19978 0.07536 0.0
C517 C 0.55285 0.21749 0.05392 0.0
N518 N 0.50181 0.25132 0.99819 0.0
C519 C 0.50564 0.21948 0.99607 0.0
C520 C 0.48262 0.20343 0.96918 0.0
C521 C 0.46284 0.22636 0.95301 0.0
C522 C 0.475 0.25524 0.97102 0.0
N523 N 0.55707 0.28594 0.98554 0.0
C524 C 0.5999 0.29126 0.92175 0.0
C525 C 0.59308 0.26179 0.93751 0.0
C526 C 0.57159 0.25962 0.9689 0.0
C527 C 0.5842 0.3178 0.93759 0.0
C528 C 0.56314 0.31468 0.96914 0.0
N529 N 0.50261 0.28083 0.08337 0.0
C530 C 0.46312 0.25333 0.11961 0.0
C531 C 0.45892 0.28002 0.14695 0.0
C532 C 0.47816 0.30653 0.14342 0.0
C533 C 0.49939 0.30655 0.11159 0.0
C534 C 0.48515 0.25406 0.08879 0.0
H535 H 0.51245 0.328 0.11013 0.0
H536 H 0.48718 0.23275 0.06931 0.0
H537 H 0.56737 0.23649 0.97975 0.0
H538 H 0.5524 0.33599 0.98031 0.0
C539 C 0.52957 0.36106 0.04785 0.0
C540 C 0.4598 0.2856 0.96177 0.0
C541 C 0.60258 0.28061 0.10068 0.0
C542 C 0.52894 0.20523 0.02342 0.0
H543 H 0.43961 0.35018 0.95521 0.0
H544 H 0.47694 0.39168 1.00324 0.0
H545 H 0.58351 0.38842 0.09946 0.0
H546 H 0.62311 0.34384 0.12843 0.0
H547 H 0.61878 0.21584 0.1155 0.0
H548 H 0.57791 0.17418 0.07441 0.0
H549 H 0.47994 0.178 0.96318 0.0
H550 H 0.44152 0.22223 0.93106 0.0
H551 H 0.60455 0.24054 0.92593 0.0
H552 H 0.5886 0.34107 0.92614 0.0
H553 H 0.44905 0.23206 0.12153 0.0
H554 H 0.47602 0.32766 0.16425 0.0
C555 C 0.77131 0.58034 0.09111 0.0
C556 C 0.74326 0.58953 0.10734 0.0
C557 C 0.72218 0.56481 0.09775 0.0
C558 C 0.73843 0.54187 0.07628 0.0
N559 N 0.76839 0.55058 0.07138 0.0
Co560 Co 0.79963 0.52334 0.04256 0.0
N561 N 0.76617 0.49298 0.01466 0.0
C562 C 0.73633 0.49136 0.02585 0.0
C563 C 0.71868 0.46708 1.00414 0.0
C564 C 0.73868 0.45203 0.97795 0.0
C565 C 0.76759 0.46801 0.98496 0.0
N566 N 0.83109 0.49593 0.01421 0.0
C567 C 0.8271 0.47159 0.98321 0.0
C568 C 0.85623 0.46012 0.97294 0.0
C569 C 0.87907 0.47679 0.99926 0.0
C570 C 0.86283 0.49778 0.02381 0.0
N571 N 0.83298 0.55375 0.07039 0.0
C572 C 0.86444 0.54848 0.07363 0.0
C573 C 0.88207 0.57336 0.09388 0.0
C574 C 0.86042 0.59579 0.10436 0.0
C575 C 0.83063 0.58331 0.09001 0.0
N576 N 0.80469 0.4974 0.09347 0.0
C577 C 0.80549 0.45957 0.16485 0.0
C578 C 0.80644 0.49268 0.17071 0.0
C579 C 0.80612 0.51119 0.13451 0.0
C580 C 0.80518 0.44579 0.12307 0.0
C581 C 0.8049 0.46503 0.08801 0.0
N582 N 0.7942 0.54932 0.99199 0.0
C583 C 0.8166 0.57856 0.93785 0.0
C584 C 0.78701 0.59197 0.92563 0.0
C585 C 0.76087 0.58251 0.94607 0.0
C586 C 0.76482 0.56057 0.97824 0.0
C587 C 0.81982 0.5579 0.97169 0.0
H588 H 0.74412 0.55343 0.99274 0.0
H589 H 0.84321 0.54954 0.98196 0.0
H590 H 0.80636 0.5366 0.13969 0.0
H591 H 0.80412 0.45349 0.05641 0.0
C592 C 0.72533 0.51404 0.05515 0.0
C593 C 0.8008 0.5995 0.09837 0.0
C594 C 0.79647 0.45646 0.96605 0.0
C595 C 0.87655 0.52199 0.05217 0.0
H596 H 0.73867 0.61166 0.12475 0.0
H597 H 0.69765 0.56403 0.10461 0.0
H598 H 0.6942 0.46094 1.00713 0.0
H599 H 0.7329 0.43103 0.95709 0.0
H600 H 0.8606 0.44119 0.94952 0.0
H601 H 0.90454 0.47431 0.99979 0.0
H602 H 0.90768 0.57539 0.09921 0.0
H603 H 0.86592 0.61865 0.12093 0.0
H604 H 0.80692 0.50407 0.2028 0.0
H605 H 0.80469 0.4202 0.11751 0.0
H606 H 0.83736 0.58509 0.92255 0.0
H607 H 0.73754 0.59217 0.93737 0.0
C608 C 0.22864 0.26795 0.4093 0.0
C609 C 0.22669 0.28591 0.3719 0.0
C610 C 0.17698 0.30949 0.39314 0.0
C611 C 0.17593 0.28707 0.4256 0.0
N612 N 0.19961 0.24184 0.46074 0.0
N613 N 0.19861 0.32379 0.32735 0.0
C614 C 0.20164 0.26564 0.43298 0.0
C615 C 0.20076 0.30681 0.36374 0.0
N616 N 0.25635 0.25318 0.42232 0.0
N617 N 0.15596 0.33404 0.3913 0.0
H618 H 0.21667 0.32415 0.30694 0.0
H619 H 0.17842 0.33629 0.31646 0.0
H620 H 0.13891 0.33736 0.413 0.0
H621 H 0.1574 0.3528 0.37112 0.0
H622 H 0.26014 0.24172 0.45123 0.0
H623 H 0.27677 0.25583 0.40676 0.0
H624 H 0.21614 0.22366 0.46403 0.0
H625 H 0.17982 0.23835 0.47734 0.0
C626 C 0.76193 0.19072 0.35233 0.0
C627 C 0.77908 0.21866 0.36764 0.0
C628 C 0.78855 0.197 0.43948 0.0
C629 C 0.77673 0.16702 0.42172 0.0
N630 N 0.75508 0.13436 0.3594 0.0
N631 N 0.81044 0.24821 0.42555 0.0
C632 C 0.76381 0.16367 0.37774 0.0
C633 C 0.79248 0.22203 0.41139 0.0
N634 N 0.7437 0.1902 0.3134 0.0
N635 N 0.79558 0.20163 0.48324 0.0
H636 H 0.81343 0.26726 0.4063 0.0
H637 H 0.82402 0.25015 0.45545 0.0
H638 H 0.79264 0.18391 0.50469 0.0
H639 H 0.80142 0.22374 0.49852 0.0
H640 H 0.72834 0.17155 0.30219 0.0
H641 H 0.74144 0.20997 0.2945 0.0
H642 H 0.74881 0.13011 0.32634 0.0
H643 H 0.7568 0.11369 0.3764 0.0
C644 C 0.86181 0.7661 0.41265 0.0
C645 C 0.86345 0.77624 0.3701 0.0
C646 C 0.91967 0.79094 0.38924 0.0
C647 C 0.91771 0.78265 0.43248 0.0
N648 N 0.8853 0.76787 0.48758 0.0
N649 N 0.89117 0.80757 0.32292 0.0
C650 C 0.88821 0.77194 0.44489 0.0
C651 C 0.8916 0.79141 0.35994 0.0
N652 N 0.83561 0.74985 0.42185 0.0
N653 N 0.94854 0.79754 0.37563 0.0
H654 H 0.87065 0.81005 0.30175 0.0
H655 H 0.91007 0.82161 0.3159 0.0
H656 H 0.96975 0.79724 0.39589 0.0
H657 H 0.95174 0.80042 0.3433 0.0
H658 H 0.83428 0.73878 0.45075 0.0
H659 H 0.8159 0.74561 0.39925 0.0
H660 H 0.86374 0.76321 0.49944 0.0
H661 H 0.90413 0.77166 0.51173 0.0
C662 C 0.27996 0.82812 0.41075 0.0
C663 C 0.29768 0.82285 0.37491 0.0
C664 C 0.31951 0.87651 0.38469 0.0
C665 C 0.30164 0.88236 0.42045 0.0
N666 N 0.27254 0.86095 0.47532 0.0
N667 N 0.34264 0.83683 0.33863 0.0
C668 C 0.28434 0.85719 0.43614 0.0
C669 C 0.32063 0.84529 0.36617 0.0
N670 N 0.25787 0.80625 0.41906 0.0
N671 N 0.33332 0.90099 0.36614 0.0
H672 H 0.34361 0.8138 0.32476 0.0
H673 H 0.3616 0.85147 0.33342 0.0
H674 H 0.33128 0.92471 0.37658 0.0
H675 H 0.34396 0.89808 0.33746 0.0
H676 H 0.24156 0.81039 0.44155 0.0
H677 H 0.25503 0.78434 0.40192 0.0
H678 H 0.26213 0.84253 0.49005 0.0
H679 H 0.27581 0.88174 0.49499 0.0
C680 C 0.16733 0.78918 0.67474 0.0
C681 C 0.166 0.80755 0.71417 0.0
C682 C 0.1097 0.81845 0.692 0.0
C683 C 0.11226 0.80335 0.65058 0.0
N684 N 0.14622 0.7807 0.59957 0.0
N685 N 0.13758 0.84562 0.75547 0.0
C686 C 0.14199 0.79081 0.64099 0.0
C687 C 0.13759 0.82389 0.72139 0.0
N688 N 0.19167 0.76851 0.67041 0.0
N689 N 0.08058 0.82691 0.70381 0.0
H690 H 0.15796 0.85127 0.77627 0.0
H691 H 0.11841 0.86038 0.76019 0.0
H692 H 0.05961 0.82297 0.68348 0.0
H693 H 0.077 0.83515 0.73508 0.0
H694 H 0.19226 0.75253 0.6438 0.0
H695 H 0.20923 0.76458 0.69553 0.0
H696 H 0.16829 0.77412 0.59009 0.0
H697 H 0.12836 0.78179 0.57395 0.0
C698 C 0.3289 0.17927 0.69042 0.0
C699 C 0.31572 0.20501 0.66753 0.0
C700 C 0.29488 0.16846 0.60752 0.0
C701 C 0.30586 0.14243 0.63203 0.0
N702 N 0.32774 0.12267 0.70005 0.0
N703 N 0.28073 0.22413 0.60886 0.0
C704 C 0.32122 0.14774 0.67455 0.0
C705 C 0.29715 0.19963 0.6273 0.0
N706 N 0.3496 0.18515 0.72664 0.0
N707 N 0.2835 0.16362 0.56493 0.0
H708 H 0.28157 0.24714 0.62297 0.0
H709 H 0.2641 0.22107 0.58183 0.0
H710 H 0.28143 0.1412 0.5491 0.0
H711 H 0.27852 0.18207 0.54436 0.0
H712 H 0.36246 0.16747 0.7426 0.0
H713 H 0.35614 0.20811 0.73837 0.0
H714 H 0.33618 0.1253 0.7327 0.0
H715 H 0.32188 0.09927 0.68965 0.0
C716 C 0.90856 0.32375 0.69789 0.0
C717 C 0.87975 0.31028 0.67774 0.0
C718 C 0.90827 0.28693 0.61879 0.0
C719 C 0.93759 0.29932 0.63982 0.0
N720 N 0.96623 0.32357 0.70429 0.0
N721 N 0.85283 0.27396 0.62425 0.0
C722 C 0.93787 0.31606 0.68085 0.0
C723 C 0.87987 0.29032 0.63972 0.0
N724 N 0.90768 0.34471 0.73271 0.0
N725 N 0.90718 0.27311 0.57798 0.0
H726 H 0.83183 0.27608 0.63896 0.0
H727 H 0.85192 0.25635 0.5994 0.0
H728 H 0.92726 0.26974 0.56172 0.0
H729 H 0.88614 0.26705 0.55895 0.0
H730 H 0.92719 0.35816 0.74633 0.0
H731 H 0.88662 0.35037 0.74597 0.0
H732 H 0.96818 0.33302 0.73605 0.0
H733 H 0.98805 0.31756 0.69346 0.0
C734 C 0.73232 0.90362 0.6818 0.0
C735 C 0.75756 0.88383 0.69697 0.0
C736 C 0.79649 0.92382 0.68127 0.0
C737 C 0.77121 0.9431 0.66477 0.0
N738 N 0.71543 0.95494 0.65582 0.0
N739 N 0.81343 0.87733 0.7196 0.0
C740 C 0.73916 0.93416 0.66738 0.0
C741 C 0.78959 0.89473 0.69963 0.0
N742 N 0.70184 0.8926 0.68046 0.0
N743 N 0.82713 0.9327 0.67735 0.0
H744 H 0.80995 0.85524 0.73164 0.0
H745 H 0.83664 0.88558 0.727 0.0
H746 H 0.83307 0.95466 0.66634 0.0
H747 H 0.8466 0.91792 0.68292 0.0
H748 H 0.68212 0.90398 0.66585 0.0
H749 H 0.69632 0.87106 0.69306 0.0
H750 H 0.69164 0.95119 0.65974 0.0
H751 H 0.71983 0.97729 0.64476 0.0
C752 C 0.85727 0.80273 0.67795 0.0
C753 C 0.86046 0.79134 0.72051 0.0
C754 C 0.91854 0.78916 0.71774 0.0
C755 C 0.91451 0.79617 0.67326 0.0
N756 N 0.87936 0.80627 0.60952 0.0
N757 N 0.89423 0.77177 0.78021 0.0
C758 C 0.88372 0.80235 0.65312 0.0
C759 C 0.89123 0.78447 0.74052 0.0
N760 N 0.82879 0.81438 0.66128 0.0
N761 N 0.94854 0.78724 0.73823 0.0
H762 H 0.87497 0.76855 0.79792 0.0
H763 H 0.91538 0.7627 0.79449 0.0
H764 H 0.96879 0.79016 0.72231 0.0
H765 H 0.9534 0.78531 0.77147 0.0
H766 H 0.82575 0.82646 0.63282 0.0
H767 H 0.80881 0.81482 0.67811 0.0
H768 H 0.85709 0.80668 0.5919 0.0
H769 H 0.89795 0.80654 0.59001 0.0
C770 C 0.31687 0.86976 0.65128 0.0
C771 C 0.30442 0.87465 0.69189 0.0
C772 C 0.29409 0.93076 0.67515 0.0
C773 C 0.30462 0.9256 0.63345 0.0
N774 N 0.32098 0.88824 0.579 0.0
N775 N 0.27267 0.90767 0.73585 0.0
C776 C 0.31447 0.89444 0.62068 0.0
C777 C 0.29048 0.90455 0.70168 0.0
N778 N 0.33211 0.84206 0.64257 0.0
N779 N 0.28842 0.961 0.69026 0.0
H780 H 0.26826 0.88877 0.75482 0.0
H781 H 0.25934 0.92778 0.74223 0.0
H782 H 0.29114 0.98083 0.67228 0.0
H783 H 0.28398 0.96665 0.72207 0.0
H784 H 0.34486 0.83821 0.61592 0.0
H785 H 0.33358 0.82357 0.66365 0.0
H786 H 0.32509 0.86552 0.56612 0.0
H787 H 0.31982 0.90561 0.55622 0.0
C788 C 0.17657 0.30248 0.73238 0.0
C789 C 0.20274 0.28563 0.71789 0.0
C790 C 0.16997 0.26736 0.65164 0.0
C791 C 0.14329 0.28419 0.66567 0.0
N792 N 0.1193 0.30945 0.72547 0.0
N793 N 0.22065 0.24313 0.67244 0.0
C794 C 0.14598 0.29894 0.7082 0.0
C795 C 0.19803 0.26508 0.68043 0.0
N796 N 0.18118 0.32304 0.76786 0.0
N797 N 0.16956 0.25474 0.61024 0.0
H798 H 0.24108 0.24058 0.69369 0.0
H799 H 0.21741 0.2253 0.64787 0.0
H800 H 0.14978 0.25437 0.58766 0.0
H801 H 0.18986 0.2464 0.5972 0.0
H802 H 0.16393 0.33881 0.7771 0.0
H803 H 0.20299 0.32539 0.78671 0.0
H804 H 0.11932 0.31791 0.75753 0.0
H805 H 0.09671 0.30704 0.70869 0.0
C806 C 0.79761 0.1803 0.71487 0.0
C807 C 0.7784 0.2061 0.7002 0.0
C808 C 0.76321 0.17429 0.6318 0.0
C809 C 0.78065 0.14779 0.64724 0.0
N810 N 0.80591 0.12318 0.70998 0.0
N811 N 0.73303 0.22037 0.65155 0.0
C812 C 0.79515 0.15004 0.69088 0.0
C813 C 0.75818 0.20078 0.66075 0.0
N814 N 0.81925 0.18464 0.75033 0.0
N815 N 0.75197 0.1748 0.58909 0.0
H816 H 0.72671 0.23821 0.67351 0.0
H817 H 0.7162 0.21613 0.62496 0.0
H818 H 0.75573 0.15641 0.56649 0.0
H819 H 0.74172 0.1949 0.57552 0.0
H820 H 0.83606 0.16762 0.75948 0.0
H821 H 0.82213 0.20606 0.76852 0.0
H822 H 0.81409 0.12285 0.74271 0.0
H823 H 0.80362 0.10078 0.69403 0.0
C824 C 0.94661 0.29766 0.3468 0.0
C825 C 0.91737 0.28507 0.35699 0.0
C826 C 0.94005 0.28146 0.43246 0.0
C827 C 0.97029 0.29048 0.42118 0.0
N828 N 1.00363 0.30098 0.36502 0.0
N829 N 0.88876 0.25799 0.40732 0.0
C830 C 0.97397 0.29685 0.37754 0.0
C831 C 0.9147 0.27515 0.39933 0.0
N832 N 0.94797 0.31139 0.30828 0.0
N833 N 0.93541 0.27921 0.47494 0.0
H834 H 0.87073 0.25119 0.38318 0.0
H835 H 0.88685 0.24751 0.43654 0.0
H836 H 0.95345 0.28368 0.50004 0.0
H837 H 0.91302 0.27596 0.48518 0.0
H838 H 0.96786 0.32367 0.30066 0.0
H839 H 0.9281 0.31323 0.28578 0.0
H840 H 1.00789 0.30249 0.3328 0.0
H841 H 0.02424 0.30012 0.38637 0.0
C842 C 0.77598 0.94352 0.34204 0.0
C843 C 0.7929 0.91539 0.35244 0.0
C844 C 0.80436 0.93775 0.42765 0.0
C845 C 0.78985 0.96728 0.41654 0.0
N846 N 0.76657 0.99937 0.35993 0.0
N847 N 0.8289 0.88889 0.40309 0.0
C848 C 0.77697 0.97038 0.37273 0.0
C849 C 0.80854 0.9134 0.39475 0.0
N850 N 0.758 0.94416 0.30309 0.0
N851 N 0.81369 0.93236 0.46989 0.0
H852 H 0.83315 0.87124 0.37969 0.0
H853 H 0.84393 0.88777 0.43166 0.0
H854 H 0.81262 0.94946 0.49483 0.0
H855 H 0.82042 0.91013 0.48056 0.0
H856 H 0.74244 0.96245 0.29482 0.0
H857 H 0.75655 0.92488 0.28053 0.0
H858 H 0.76001 1.00418 0.32777 0.0
H859 H 0.76707 0.01944 0.38108 0.0
C860 C 0.1285 0.77099 0.32246 0.0
C861 C 0.15741 0.78829 0.33086 0.0
C862 C 0.14212 0.8065 0.40239 0.0
C863 C 0.11225 0.79066 0.39307 0.0
N864 N 0.0749 0.76221 0.34112 0.0
N865 N 0.18954 0.82689 0.37488 0.0
C866 C 0.10486 0.77412 0.35214 0.0
C867 C 0.1635 0.80736 0.36974 0.0
N868 N 0.12417 0.75074 0.28662 0.0
N869 N 0.15066 0.81958 0.44308 0.0
H870 H 0.20551 0.82782 0.35156 0.0
H871 H 0.1939 0.84393 0.40027 0.0
H872 H 0.13585 0.81931 0.46785 0.0
H873 H 0.17332 0.8284 0.45336 0.0
H874 H 0.10529 0.73471 0.28061 0.0
H875 H 0.14088 0.74844 0.26426 0.0
H876 H 0.06694 0.75273 0.31034 0.0
H877 H 0.05704 0.76416 0.36181 0.0
C878 C 0.31314 0.15279 0.396 0.0
C879 C 0.29647 0.14847 0.35384 0.0
C880 C 0.28666 0.09239 0.36951 0.0
C881 C 0.30006 0.09769 0.41322 0.0
N882 N 0.32083 0.13559 0.46981 0.0
N883 N 0.2609 0.1155 0.30526 0.0
C884 C 0.31169 0.12874 0.42695 0.0
C885 C 0.28146 0.11857 0.34203 0.0
N886 N 0.332 0.17898 0.4059 0.0
N887 N 0.27947 0.06213 0.35372 0.0
H888 H 0.25517 0.1345 0.28584 0.0
H889 H 0.24692 0.09532 0.29684 0.0
H890 H 0.28327 0.04242 0.37245 0.0
H891 H 0.27262 0.05637 0.32111 0.0
H892 H 0.34708 0.18202 0.43448 0.0
H893 H 0.3352 0.19601 0.38365 0.0
H894 H 0.32629 0.15852 0.48256 0.0
H895 H 0.32023 0.11881 0.4932 0.0
C896 C 0.68504 0.8244 0.86648 0.0
C897 C 0.71057 0.80319 0.87533 0.0
C898 C 0.68895 0.79075 0.94324 0.0
C899 C 0.66103 0.80823 0.93092 0.0
N900 N 0.63127 0.83957 0.87838 0.0
N901 N 0.73696 0.76555 0.92187 0.0
C902 C 0.65892 0.82483 0.89212 0.0
C903 C 0.71282 0.78654 0.91403 0.0
N904 N 0.68602 0.84443 0.8335 0.0
N905 N 0.6928 0.77852 0.98322 0.0
H906 H 0.75562 0.76331 0.90259 0.0
H907 H 0.73788 0.74949 0.94625 0.0
H908 H 0.67562 0.78068 1.00486 0.0
H909 H 0.71381 0.76841 0.99627 0.0
H910 H 0.66985 0.86264 0.82763 0.0
H911 H 0.70505 0.84486 0.81468 0.0
H912 H 0.62689 0.84891 0.84805 0.0
H913 H 0.61151 0.84024 0.89581 0.0
C914 C 0.316 0.71379 0.89067 0.0
C915 C 0.2951 0.71645 0.85213 0.0
C916 C 0.27488 0.66235 0.86267 0.0
C917 C 0.29208 0.66213 0.90469 0.0
N918 N 0.32537 0.69133 0.96099 0.0
N919 N 0.25219 0.69359 0.80351 0.0
C920 C 0.31188 0.68877 0.9191 0.0
C921 C 0.27407 0.69063 0.83845 0.0
N922 N 0.34025 0.73529 0.90003 0.0
N923 N 0.25991 0.63522 0.84526 0.0
H924 H 0.25141 0.71334 0.78463 0.0
H925 H 0.23366 0.67745 0.79495 0.0
H926 H 0.26043 0.61415 0.86142 0.0
H927 H 0.24963 0.63275 0.81337 0.0
H928 H 0.35812 0.73318 0.92534 0.0
H929 H 0.34439 0.75329 0.8795 0.0
H930 H 0.33716 0.71172 0.97468 0.0
H931 H 0.32201 0.6745 0.98348 0.0
C932 C 0.3738 0.29808 0.91223 0.0
C933 C 0.37632 0.28972 0.86784 0.0
C934 C 0.43337 0.27988 0.88489 0.0
C935 C 0.43065 0.28654 0.92952 0.0
N936 N 0.39691 0.29517 0.98678 0.0
N937 N 0.40636 0.26359 0.81476 0.0
C938 C 0.40036 0.29342 0.94355 0.0
C939 C 0.4055 0.27779 0.85514 0.0
N940 N 0.3468 0.31205 0.92433 0.0
N941 N 0.4627 0.27659 0.87057 0.0
H942 H 0.38611 0.26045 0.79277 0.0
H943 H 0.42623 0.25182 0.805 0.0
H944 H 0.48375 0.27827 0.89119 0.0
H945 H 0.46624 0.27505 0.83788 0.0
H946 H 0.34497 0.32204 0.9553 0.0
H947 H 0.32688 0.31572 0.90264 0.0
H948 H 0.37494 0.29698 0.99897 0.0
H949 H 0.41582 0.29211 0.01045 0.0
C950 C 0.77341 0.4011 0.8639 0.0
C951 C 0.79345 0.37425 0.87067 0.0
C952 C 0.81 0.3981 0.94419 0.0
C953 C 0.79493 0.42743 0.93365 0.0
N954 N 0.7656 0.45734 0.87914 0.0
N955 N 0.83347 0.34912 0.91776 0.0
C956 C 0.77754 0.42897 0.89227 0.0
C957 C 0.8123 0.37313 0.91117 0.0
N958 N 0.74926 0.3996 0.83113 0.0
N959 N 0.82145 0.39364 0.98603 0.0
H960 H 0.83579 0.33062 0.89479 0.0
H961 H 0.85033 0.34893 0.94462 0.0
H962 H 0.81965 0.41085 0.01092 0.0
H963 H 0.82989 0.37191 0.99658 0.0
H964 H 0.73216 0.41721 0.82704 0.0
H965 H 0.74397 0.37904 0.81154 0.0
H966 H 0.75558 0.4605 0.84765 0.0
H967 H 0.76839 0.47836 0.8984 0.0
C968 C 0.67055 0.26667 0.18895 0.0
C969 C 0.69746 0.27363 0.16739 0.0
C970 C 0.66244 0.28411 0.10163 0.0
C971 C 0.63546 0.27934 0.1242 0.0
N972 N 0.6136 0.27142 0.19134 0.0
N973 N 0.71927 0.29422 0.10624 0.0
C974 C 0.63948 0.2723 0.16857 0.0
C975 C 0.69343 0.28383 0.1245 0.0
N976 N 0.67475 0.25327 0.22812 0.0
N977 N 0.65848 0.28802 0.05808 0.0
H978 H 0.74209 0.29457 0.12254 0.0
H979 H 0.7178 0.30497 0.07674 0.0
H980 H 0.63619 0.28877 0.04043 0.0
H981 H 0.67721 0.28817 0.03888 0.0
H982 H 0.65616 0.24459 0.2437 0.0
H983 H 0.69714 0.24822 0.24332 0.0
H984 H 0.61518 0.26962 0.22474 0.0
H985 H 0.59053 0.2751 0.17731 0.0
C986 C 0.81462 0.66802 0.18727 0.0
C987 C 0.80382 0.69499 0.1646 0.0
C988 C 0.79229 0.65984 0.09812 0.0
C989 C 0.80121 0.63258 0.12155 0.0
N990 N 0.81531 0.61053 0.19071 0.0
N991 N 0.7774 0.71567 0.10016 0.0
C992 C 0.81068 0.63669 0.16684 0.0
C993 C 0.7913 0.69056 0.12042 0.0
N994 N 0.83017 0.67249 0.22782 0.0
N995 N 0.7855 0.6565 0.05421 0.0
H996 H 0.77603 0.73806 0.11572 0.0
H997 H 0.76489 0.71378 0.06951 0.0
H998 H 0.78536 0.63454 0.0371 0.0
H999 H 0.78224 0.67559 0.03437 0.0
H1000 H 0.84175 0.65442 0.24457 0.0
H1001 H 0.83396 0.69493 0.24323 0.0
H1002 H 0.81885 0.61163 0.22438 0.0
H1003 H 0.81295 0.58745 0.17705 0.0
C1004 C 0.38616 0.81852 0.19954 0.0
C1005 C 0.3643 0.79432 0.18342 0.0
C1006 C 0.39628 0.78272 0.12282 0.0
C1007 C 0.42093 0.80327 0.14307 0.0
N1008 N 0.44035 0.83804 0.20448 0.0
N1009 N 0.3487 0.7522 0.13101 0.0
C1010 C 0.41592 0.82096 0.18209 0.0
C1011 C 0.36916 0.77651 0.1449 0.0
N1012 N 0.37857 0.83844 0.23283 0.0
N1013 N 0.39862 0.76922 0.0824 0.0
H1014 H 0.32825 0.74809 0.14594 0.0
H1015 H 0.35274 0.73535 0.10654 0.0
H1016 H 0.41826 0.77236 0.06548 0.0
H1017 H 0.38003 0.75695 0.06414 0.0
H1018 H 0.39195 0.85844 0.24432 0.0
H1019 H 0.35698 0.83642 0.24598 0.0
H1020 H 0.43907 0.84884 0.23511 0.0
H1021 H 0.46306 0.83901 0.19451 0.0
C1022 C 0.28705 0.35954 0.13452 0.0
C1023 C 0.26925 0.35747 0.17062 0.0
C1024 C 0.2567 0.41472 0.1659 0.0
C1025 C 0.27226 0.41613 0.12749 0.0
N1026 N 0.29858 0.38823 0.07195 0.0
N1027 N 0.23377 0.38202 0.21738 0.0
C1028 C 0.28649 0.38804 0.11101 0.0
C1029 C 0.25326 0.38487 0.18546 0.0
N1030 N 0.30543 0.33444 0.12357 0.0
N1031 N 0.246 0.44215 0.18454 0.0
H1032 H 0.23092 0.36068 0.23211 0.0
H1033 H 0.21866 0.39987 0.22694 0.0
H1034 H 0.24791 0.46417 0.1712 0.0
H1035 H 0.23751 0.44358 0.2148 0.0
H1036 H 0.32163 0.3352 0.10064 0.0
H1037 H 0.30657 0.31364 0.14036 0.0
H1038 H 0.30619 0.36791 0.0557 0.0
H1039 H 0.29866 0.40839 0.05393 0.0
C1040 C 0.40771 0.25648 0.23573 0.0
C1041 C 0.38227 0.27818 0.23007 0.0
C1042 C 0.40754 0.30193 0.17157 0.0
C1043 C 0.4335 0.28069 0.17756 0.0
N1044 N 0.46183 0.24307 0.22256 0.0
N1045 N 0.36298 0.32724 0.20225 0.0
C1046 C 0.4347 0.25963 0.21201 0.0
C1047 C 0.38403 0.30286 0.20123 0.0
N1048 N 0.40544 0.23204 0.26237 0.0
N1049 N 0.40401 0.31973 0.13593 0.0
H1050 H 0.34614 0.32863 0.22445 0.0
H1051 H 0.36454 0.3475 0.18479 0.0
H1052 H 0.41973 0.31889 0.11224 0.0
H1053 H 0.38381 0.33303 0.12762 0.0
H1054 H 0.42119 0.21312 0.264 0.0
H1055 H 0.38669 0.23003 0.2814 0.0
H1056 H 0.46529 0.22956 0.24968 0.0
H1057 H 0.48204 0.24518 0.20633 0.0
C1058 C 0.77365 0.39752 0.23237 0.0
C1059 C 0.80254 0.38414 0.2499 0.0
C1060 C 0.83292 0.4269 0.22251 0.0
C1061 C 0.8043 0.43856 0.20156 0.0
N1062 N 0.74733 0.44135 0.19585 0.0
N1063 N 0.85802 0.39058 0.27362 0.0
C1064 C 0.77456 0.42606 0.20996 0.0
C1065 C 0.83165 0.4006 0.24912 0.0
N1066 N 0.74567 0.38182 0.23467 0.0
N1067 N 0.8613 0.4399 0.21494 0.0
H1068 H 0.85724 0.37146 0.29352 0.0
H1069 H 0.87969 0.40264 0.27731 0.0
H1070 H 0.86283 0.45991 0.1969 0.0
H1071 H 0.88327 0.43029 0.22499 0.0
H1072 H 0.72421 0.38781 0.21777 0.0
H1073 H 0.74413 0.36194 0.25287 0.0
H1074 H 0.72491 0.43514 0.20366 0.0
H1075 H 0.74754 0.46214 0.1791 0.0
C1076 C 0.66813 0.8043 0.23162 0.0
C1077 C 0.69593 0.7957 0.21196 0.0
C1078 C 0.6643 0.78997 0.141 0.0
C1079 C 0.63627 0.79746 0.16055 0.0
N1080 N 0.61035 0.80491 0.22565 0.0
N1081 N 0.71824 0.77078 0.15061 0.0
C1082 C 0.63783 0.80233 0.20635 0.0
C1083 C 0.69321 0.78549 0.16747 0.0
N1084 N 0.67075 0.81589 0.27365 0.0
N1085 N 0.66381 0.78855 0.09696 0.0
H1086 H 0.73942 0.76622 0.16939 0.0
H1087 H 0.71672 0.76002 0.11953 0.0
H1088 H 0.64331 0.7919 0.07613 0.0
H1089 H 0.68439 0.78701 0.08134 0.0
H1090 H 0.65193 0.82601 0.28837 0.0
H1091 H 0.69235 0.8172 0.29308 0.0
H1092 H 0.60964 0.80546 0.25903 0.0
H1093 H 0.58799 0.80388 0.20802 0.0
C1094 C 0.26762 0.67819 0.16544 0.0
C1095 C 0.25888 0.67248 0.20731 0.0
C1096 C 0.26523 0.6152 0.19264 0.0
C1097 C 0.26984 0.62092 0.14914 0.0
N1098 N 0.27227 0.65732 0.09232 0.0
N1099 N 0.24748 0.63581 0.26051 0.0
C1100 C 0.2702 0.65229 0.13505 0.0
C1101 C 0.25749 0.64103 0.22109 0.0
N1102 N 0.27469 0.70837 0.15526 0.0
N1103 N 0.26849 0.5851 0.20665 0.0
H1104 H 0.2421 0.65424 0.28219 0.0
H1105 H 0.2426 0.61338 0.27071 0.0
H1106 H 0.27349 0.5657 0.18631 0.0
H1107 H 0.26855 0.57965 0.2389 0.0
H1108 H 0.28365 0.71372 0.12656 0.0
H1109 H 0.27466 0.72789 0.17724 0.0
H1110 H 0.26851 0.67928 0.07898 0.0
H1111 H 0.27545 0.63908 0.06923 0.0
C1112 C 0.41542 0.83442 0.87512 0.0
C1113 C 0.38798 0.82889 0.89638 0.0
C1114 C 0.42202 0.8182 0.9627 0.0
C1115 C 0.4495 0.82089 0.94052 0.0
N1116 N 0.47231 0.82732 0.87373 0.0
N1117 N 0.36523 0.80894 0.95735 0.0
C1118 C 0.44616 0.8277 0.89605 0.0
C1119 C 0.39132 0.81906 0.93941 0.0
N1120 N 0.41206 0.84732 0.83559 0.0
N1121 N 0.42517 0.81571 1.00643 0.0
H1122 H 0.34257 0.80821 0.94062 0.0
H1123 H 0.36656 0.79834 0.98699 0.0
H1124 H 0.44712 0.81331 0.02431 0.0
H1125 H 0.40621 0.81869 0.02506 0.0
H1126 H 0.43111 0.85486 0.81996 0.0
H1127 H 0.38995 0.85307 0.8201 0.0
H1128 H 0.47115 0.8289 0.84032 0.0
H1129 H 0.49509 0.82299 0.88828 0.0
C1130 C 0.27359 0.41611 0.86576 0.0
C1131 C 0.29382 0.41986 0.8328 0.0
C1132 C 0.30709 0.47364 0.86244 0.0
C1133 C 0.29105 0.46762 0.89906 0.0
N1134 N 0.26434 0.43029 0.93959 0.0
N1135 N 0.33436 0.45021 0.80408 0.0
C1136 C 0.27594 0.43793 0.90202 0.0
C1137 C 0.31176 0.44819 0.83211 0.0
N1138 N 0.2511 0.39259 0.8614 0.0
N1139 N 0.31747 0.50361 0.85637 0.0
H1140 H 0.33936 0.43148 0.78274 0.0
H1141 H 0.35018 0.46927 0.80508 0.0
H1142 H 0.31431 0.52284 0.87792 0.0
H1143 H 0.32669 0.50978 0.82812 0.0
H1144 H 0.23407 0.39046 0.88304 0.0
H1145 H 0.24704 0.37774 0.8335 0.0
H1146 H 0.25569 0.40771 0.94432 0.0
H1147 H 0.26622 0.44544 0.96734 0.0
C1148 C 0.64075 0.2846 0.81652 0.0
C1149 C 0.66895 0.30245 0.82877 0.0
C1150 C 0.65337 0.31039 0.90272 0.0
C1151 C 0.62388 0.29466 0.88963 0.0
N1152 N 0.58744 0.27098 0.83211 0.0
N1153 N 0.69983 0.33687 0.88106 0.0
C1154 C 0.61702 0.28285 0.84593 0.0
C1155 C 0.6746 0.31659 0.87126 0.0
N1156 N 0.63717 0.26852 0.77706 0.0
N1157 N 0.66163 0.31844 0.94554 0.0
H1158 H 0.71552 0.34203 0.85862 0.0
H1159 H 0.70361 0.35066 0.9099 0.0
H1160 H 0.64689 0.31422 0.96952 0.0
H1161 H 0.68409 0.32679 0.95784 0.0
H1162 H 0.61888 0.2523 0.76754 0.0
H1163 H 0.65408 0.2696 0.75503 0.0
H1164 H 0.57982 0.26502 0.7998 0.0
H1165 H 0.56949 0.26944 0.85251 0.0
C1166 C 0.8021 0.66574 0.86449 0.0
C1167 C 0.77595 0.66472 0.83207 0.0
C1168 C 0.76076 0.6129 0.856 0.0
C1169 C 0.78359 0.61671 0.89278 0.0
N1170 N 0.8205 0.65191 0.937 0.0
N1171 N 0.72616 0.64009 0.80344 0.0
C1172 C 0.80277 0.64461 0.89851 0.0
C1173 C 0.75407 0.639 0.82947 0.0
N1174 N 0.82693 0.68601 0.86198 0.0
N1175 N 0.74614 0.58423 0.8455 0.0
H1176 H 0.7195 0.65967 0.78566 0.0
H1177 H 0.70821 0.62312 0.8034 0.0
H1178 H 0.75149 0.56412 0.86288 0.0
H1179 H 0.73136 0.57968 0.8169 0.0
H1180 H 0.84766 0.68582 0.88322 0.0
H1181 H 0.82841 0.70007 0.83568 0.0
H1182 H 0.83263 0.67346 0.94352 0.0
H1183 H 0.82013 0.6383 0.96395 0.0
loop_
_geom_bond_atom_site_label_1
_geom_bond_atom_site_label_2
_geom_bond_distance
_geom_bond_site_symmetry_2
_ccdc_geom_bond_type
Cu0 N1 1.999 . S
Cu0 O6 1.974 . S
Cu0 N11 1.985 . S
Cu0 O20 1.959 . S
N1 Cu0 1.999 . S
N1 C3 1.263 . S
N1 C5 1.389 . S
N2 C3 1.358 . S
N2 C4 1.400 . S
C3 N1 1.263 . S
C3 N2 1.358 . S
C3 H9 0.930 . S
C4 N2 1.400 . S
C4 C5 1.351 . S
C4 H21 0.930 . S
C5 N1 1.389 . S
C5 C4 1.351 . S
C5 H10 0.930 . S
O6 Cu0 1.974 . S
O6 C16 1.282 . S
C7 O8 1.261 . S
C7 O20 1.251 . S
O8 C7 1.261 . S
H9 C3 0.930 . S
H10 C5 0.930 . S
N11 Cu0 1.985 . S
N11 C13 1.335 . S
N11 C14 1.390 . S
N12 C13 1.345 . S
N12 C15 1.336 . S
C13 N11 1.335 . S
C13 N12 1.345 . S
C13 H18 0.930 . S
C14 N11 1.390 . S
C14 C15 1.346 . S
C14 H19 0.930 . S
C15 N12 1.336 . S
C15 C14 1.346 . S
C15 H22 0.929 . S
C16 O6 1.282 . S
C16 O17 1.216 . S
O17 C16 1.216 . S
H18 C13 0.930 . S
H19 C14 0.930 . S
O20 Cu0 1.959 . S
O20 C7 1.251 . S
H21 C4 0.930 . S
H22 C15 0.929 . S
Cu23 N24 1.999 . S
Cu23 O29 1.974 . S
Cu23 N34 1.985 . S
Cu23 O43 1.959 . S
N24 Cu23 1.999 . S
N24 C26 1.263 . S
N24 C28 1.389 . S
N25 C26 1.358 . S
N25 C27 1.400 . S
C26 N24 1.263 . S
C26 N25 1.358 . S
C26 H32 0.930 . S
C27 N25 1.400 . S
C27 C28 1.351 . S
C27 H44 0.930 . S
C28 N24 1.389 . S
C28 C27 1.351 . S
C28 H33 0.930 . S
O29 Cu23 1.974 . S
O29 C39 1.282 . S
C30 O31 1.261 . S
C30 O43 1.251 . S
O31 C30 1.261 . S
H32 C26 0.930 . S
H33 C28 0.930 . S
N34 Cu23 1.985 . S
N34 C36 1.335 . S
N34 C37 1.390 . S
N35 C36 1.345 . S
N35 C38 1.336 . S
C36 N34 1.335 . S
C36 N35 1.345 . S
C36 H41 0.930 . S
C37 N34 1.390 . S
C37 C38 1.346 . S
C37 H42 0.930 . S
C38 N35 1.336 . S
C38 C37 1.346 . S
C38 H45 0.929 . S
C39 O29 1.282 . S
C39 O40 1.216 . S
O40 C39 1.216 . S
H41 C36 0.930 . S
H42 C37 0.930 . S
O43 Cu23 1.959 . S
O43 C30 1.251 . S
H44 C27 0.930 . S
H45 C38 0.929 . S
Cu46 N47 1.999 . S
Cu46 O52 1.974 . S
Cu46 N57 1.985 . S
Cu46 O66 1.959 . S
N47 Cu46 1.999 . S
N47 C49 1.263 . S
N47 C51 1.389 . S
N48 C49 1.358 . S
N48 C50 1.400 . S
C49 N47 1.263 . S
C49 N48 1.358 . S
C49 H55 0.930 . S
C50 N48 1.400 . S
C50 C51 1.351 . S
C50 H67 0.930 . S
C51 N47 1.389 . S
C51 C50 1.351 . S
C51 H56 0.930 . S
O52 Cu46 1.974 . S
O52 C62 1.282 . S
C53 O54 1.261 . S
C53 O66 1.251 . S
O54 C53 1.261 . S
H55 C49 0.930 . S
H56 C51 0.930 . S
N57 Cu46 1.985 . S
N57 C59 1.335 . S
N57 C60 1.390 . S
N58 C59 1.345 . S
N58 C61 1.336 . S
C59 N57 1.335 . S
C59 N58 1.345 . S
C59 H64 0.930 . S
C60 N57 1.390 . S
C60 C61 1.346 . S
C60 H65 0.930 . S
C61 N58 1.336 . S
C61 C60 1.346 . S
C61 H68 0.929 . S
C62 O52 1.282 . S
C62 O63 1.216 . S
O63 C62 1.216 . S
H64 C59 0.930 . S
H65 C60 0.930 . S
O66 Cu46 1.959 . S
O66 C53 1.251 . S
H67 C50 0.930 . S
H68 C61 0.929 . S
Cu69 N70 1.999 . S
Cu69 O75 1.974 . S
Cu69 N80 1.985 . S
Cu69 O89 1.959 . S
N70 Cu69 1.999 . S
N70 C72 1.263 . S
N70 C74 1.389 . S
N71 C72 1.358 . S
N71 C73 1.400 . S
C72 N70 1.263 . S
C72 N71 1.358 . S
C72 H78 0.930 . S
C73 N71 1.400 . S
C73 C74 1.351 . S
C73 H90 0.930 . S
C74 N70 1.389 . S
C74 C73 1.351 . S
C74 H79 0.930 . S
O75 Cu69 1.974 . S
O75 C85 1.282 . S
C76 O77 1.261 . S
C76 O89 1.251 . S
O77 C76 1.261 . S
H78 C72 0.930 . S
H79 C74 0.930 . S
N80 Cu69 1.985 . S
N80 C82 1.335 . S
N80 C83 1.390 . S
N81 C82 1.345 . S
N81 C84 1.336 . S
C82 N80 1.335 . S
C82 N81 1.345 . S
C82 H87 0.930 . S
C83 N80 1.390 . S
C83 C84 1.346 . S
C83 H88 0.930 . S
C84 N81 1.336 . S
C84 C83 1.346 . S
C84 H91 0.929 . S
C85 O75 1.282 . S
C85 O86 1.216 . S
O86 C85 1.216 . S
H87 C82 0.930 . S
H88 C83 0.930 . S
O89 Cu69 1.959 . S
O89 C76 1.251 . S
H90 C73 0.930 . S
H91 C84 0.929 . S
Cu92 N93 1.999 . S
Cu92 O98 1.974 . S
Cu92 N103 1.985 . S
Cu92 O112 1.959 . S
N93 Cu92 1.999 . S
N93 C95 1.263 . S
N93 C97 1.389 . S
N94 C95 1.358 . S
N94 C96 1.400 . S
C95 N93 1.263 . S
C95 N94 1.358 . S
C95 H101 0.930 . S
C96 N94 1.400 . S
C96 C97 1.351 . S
C96 H113 0.930 . S
C97 N93 1.389 . S
C97 C96 1.351 . S
C97 H102 0.930 . S
O98 Cu92 1.974 . S
O98 C108 1.282 . S
C99 O100 1.261 . S
C99 O112 1.251 . S
O100 C99 1.261 . S
H101 C95 0.930 . S
H102 C97 0.930 . S
N103 Cu92 1.985 . S
N103 C105 1.335 . S
N103 C106 1.390 . S
N104 C105 1.345 . S
N104 C107 1.336 . S
C105 N103 1.335 . S
C105 N104 1.345 . S
C105 H110 0.930 . S
C106 N103 1.390 . S
C106 C107 1.346 . S
C106 H111 0.930 . S
C107 N104 1.336 . S
C107 C106 1.346 . S
C107 H114 0.929 . S
C108 O98 1.282 . S
C108 O109 1.216 . S
O109 C108 1.216 . S
H110 C105 0.930 . S
H111 C106 0.930 . S
O112 Cu92 1.959 . S
O112 C99 1.251 . S
H113 C96 0.930 . S
H114 C107 0.929 . S
Cu115 N116 1.999 . S
Cu115 O121 1.974 . S
Cu115 N126 1.985 . S
Cu115 O135 1.959 . S
N116 Cu115 1.999 . S
N116 C118 1.263 . S
N116 C120 1.389 . S
N117 C118 1.358 . S
N117 C119 1.400 . S
C118 N116 1.263 . S
C118 N117 1.358 . S
C118 H124 0.930 . S
C119 N117 1.400 . S
C119 C120 1.351 . S
C119 H136 0.930 . S
C120 N116 1.389 . S
C120 C119 1.351 . S
C120 H125 0.930 . S
O121 Cu115 1.974 . S
O121 C131 1.282 . S
C122 O123 1.261 . S
C122 O135 1.251 . S
O123 C122 1.261 . S
H124 C118 0.930 . S
H125 C120 0.930 . S
N126 Cu115 1.985 . S
N126 C128 1.335 . S
N126 C129 1.390 . S
N127 C128 1.345 . S
N127 C130 1.336 . S
C128 N126 1.335 . S
C128 N127 1.345 . S
C128 H133 0.930 . S
C129 N126 1.390 . S
C129 C130 1.346 . S
C129 H134 0.930 . S
C130 N127 1.336 . S
C130 C129 1.346 . S
C130 H137 0.929 . S
C131 O121 1.282 . S
C131 O132 1.216 . S
O132 C131 1.216 . S
H133 C128 0.930 . S
H134 C129 0.930 . S
O135 Cu115 1.959 . S
O135 C122 1.251 . S
H136 C119 0.930 . S
H137 C130 0.929 . S
Cu138 N139 1.999 . S
Cu138 O144 1.974 . S
Cu138 N149 1.985 . S
Cu138 O158 1.959 . S
N139 Cu138 1.999 . S
N139 C141 1.263 . S
N139 C143 1.389 . S
N140 C141 1.358 . S
N140 C142 1.400 . S
C141 N139 1.263 . S
C141 N140 1.358 . S
C141 H147 0.930 . S
C142 N140 1.400 . S
C142 C143 1.351 . S
C142 H159 0.930 . S
C143 N139 1.389 . S
C143 C142 1.351 . S
C143 H148 0.930 . S
O144 Cu138 1.974 . S
O144 C154 1.282 . S
C145 O146 1.261 . S
C145 O158 1.251 . S
O146 C145 1.261 . S
H147 C141 0.930 . S
H148 C143 0.930 . S
N149 Cu138 1.985 . S
N149 C151 1.335 . S
N149 C152 1.390 . S
N150 C151 1.345 . S
N150 C153 1.336 . S
C151 N149 1.335 . S
C151 N150 1.345 . S
C151 H156 0.930 . S
C152 N149 1.390 . S
C152 C153 1.346 . S
C152 H157 0.930 . S
C153 N150 1.336 . S
C153 C152 1.346 . S
C153 H160 0.929 . S
C154 O144 1.282 . S
C154 O155 1.216 . S
O155 C154 1.216 . S
H156 C151 0.930 . S
H157 C152 0.930 . S
O158 Cu138 1.959 . S
O158 C145 1.251 . S
H159 C142 0.930 . S
H160 C153 0.929 . S
Cu161 N162 1.999 . S
Cu161 O167 1.974 . S
Cu161 N172 1.985 . S
Cu161 O181 1.959 . S
N162 Cu161 1.999 . S
N162 C164 1.263 . S
N162 C166 1.389 . S
N163 C164 1.358 . S
N163 C165 1.400 . S
C164 N162 1.263 . S
C164 N163 1.358 . S
C164 H170 0.930 . S
C165 N163 1.400 . S
C165 C166 1.351 . S
C165 H182 0.930 . S
C166 N162 1.389 . S
C166 C165 1.351 . S
C166 H171 0.930 . S
O167 Cu161 1.974 . S
O167 C177 1.282 . S
C168 O169 1.261 . S
C168 O181 1.251 . S
O169 C168 1.261 . S
H170 C164 0.930 . S
H171 C166 0.930 . S
N172 Cu161 1.985 . S
N172 C174 1.335 . S
N172 C175 1.390 . S
N173 C174 1.345 . S
N173 C176 1.336 . S
C174 N172 1.335 . S
C174 N173 1.345 . S
C174 H179 0.930 . S
C175 N172 1.390 . S
C175 C176 1.346 . S
C175 H180 0.930 . S
C176 N173 1.336 . S
C176 C175 1.346 . S
C176 H183 0.929 . S
C177 O167 1.282 . S
C177 O178 1.216 . S
O178 C177 1.216 . S
H179 C174 0.930 . S
H180 C175 0.930 . S
O181 Cu161 1.959 . S
O181 C168 1.251 . S
H182 C165 0.930 . S
H183 C176 0.929 . S
C184 C185 1.443 . S
C184 N188 1.376 . S
C184 C222 1.389 . S
C185 C184 1.443 . S
C185 C186 1.340 . S
C185 H225 0.951 . S
C186 C185 1.340 . S
C186 C187 1.439 . S
C186 H226 0.950 . S
C187 C186 1.439 . S
C187 N188 1.374 . S
C187 C221 1.395 . S
N188 C184 1.376 . S
N188 C187 1.374 . S
N188 Co189 2.008 . S
Co189 N188 2.008 . S
Co189 N190 1.995 . S
Co189 N195 2.008 . S
Co189 N200 1.995 . S
Co189 N205 2.282 . S
Co189 N211 2.282 . S
N190 Co189 1.995 . S
N190 C191 1.376 . S
N190 C194 1.383 1_455 S
C191 N190 1.376 . S
C191 C192 1.446 . S
C191 C221 1.391 . S
C192 C191 1.446 . S
C192 C193 1.339 1_455 S
C192 H227 0.949 . S
C193 C192 1.339 1_655 S
C193 C194 1.439 . S
C193 H228 0.950 . S
C194 N190 1.383 1_655 S
C194 C193 1.439 . S
C194 C223 1.392 . S
N195 Co189 2.008 . S
N195 C196 1.376 1_455 S
N195 C199 1.374 . S
C196 N195 1.376 1_655 S
C196 C197 1.443 . S
C196 C223 1.389 . S
C197 C196 1.443 . S
C197 C198 1.340 . S
C197 H229 0.951 . S
C198 C197 1.340 . S
C198 C199 1.439 1_655 S
C198 H230 0.950 . S
C199 N195 1.374 . S
C199 C198 1.439 1_455 S
C199 C224 1.395 . S
N200 Co189 1.995 . S
N200 C201 1.376 . S
N200 C204 1.383 . S
C201 N200 1.376 . S
C201 C202 1.446 . S
C201 C224 1.391 . S
C202 C201 1.446 . S
C202 C203 1.339 . S
C202 H231 0.949 . S
C203 C202 1.339 . S
C203 C204 1.439 . S
C203 H232 0.950 . S
C204 N200 1.383 . S
C204 C203 1.439 . S
C204 C222 1.392 . S
N205 Co189 2.282 . S
N205 C208 1.332 . S
N205 C210 1.332 1_455 S
C206 C207 1.386 . S
C206 C209 1.388 . S
C207 C206 1.386 . S
C207 C208 1.382 1_655 S
C207 H233 0.950 . S
C208 N205 1.332 . S
C208 C207 1.382 1_455 S
C208 H219 0.952 . S
C209 C206 1.388 . S
C209 C210 1.382 . S
C209 H234 0.950 . S
C210 N205 1.332 1_655 S
C210 C209 1.382 . S
C210 H220 0.948 1_655 S
N211 Co189 2.282 . S
N211 C215 1.332 . S
N211 C216 1.332 . S
C212 C213 1.388 . S
C212 C216 1.382 . S
C212 H235 0.950 . S
C213 C212 1.388 . S
C213 C214 1.386 . S
C214 C213 1.386 . S
C214 C215 1.382 . S
C214 H236 0.950 . S
C215 N211 1.332 . S
C215 C214 1.382 . S
C215 H217 0.952 . S
C216 N211 1.332 . S
C216 C212 1.382 . S
C216 H218 0.948 . S
H217 C215 0.952 . S
H218 C216 0.948 . S
H219 C208 0.952 . S
H220 C210 0.948 1_455 S
C221 C187 1.395 . S
C221 C191 1.391 . S
C222 C184 1.389 . S
C222 C204 1.392 . S
C223 C194 1.392 . S
C223 C196 1.389 . S
C224 C199 1.395 . S
C224 C201 1.391 . S
H225 C185 0.951 . S
H226 C186 0.950 . S
H227 C192 0.949 . S
H228 C193 0.950 . S
H229 C197 0.951 . S
H230 C198 0.950 . S
H231 C202 0.949 . S
H232 C203 0.950 . S
H233 C207 0.950 . S
H234 C209 0.950 . S
H235 C212 0.950 . S
H236 C214 0.950 . S
C237 C238 1.443 . S
C237 N241 1.376 . S
C237 C275 1.389 . S
C238 C237 1.443 . S
C238 C239 1.340 . S
C238 H278 0.951 . S
C239 C238 1.340 . S
C239 C240 1.439 . S
C239 H279 0.950 . S
C240 C239 1.439 . S
C240 N241 1.374 . S
C240 C274 1.395 . S
N241 C237 1.376 . S
N241 C240 1.374 . S
N241 Co242 2.008 . S
Co242 N241 2.008 . S
Co242 N243 1.995 . S
Co242 N248 2.008 . S
Co242 N253 1.995 . S
Co242 N258 2.282 . S
Co242 N264 2.282 . S
N243 Co242 1.995 . S
N243 C244 1.376 . S
N243 C247 1.383 . S
C244 N243 1.376 . S
C244 C245 1.446 . S
C244 C274 1.391 . S
C245 C244 1.446 . S
C245 C246 1.339 1_545 S
C245 H280 0.949 . S
C246 C245 1.339 1_565 S
C246 C247 1.439 1_565 S
C246 H281 0.950 . S
C247 N243 1.383 . S
C247 C246 1.439 1_545 S
C247 C276 1.392 1_545 S
N248 Co242 2.008 . S
N248 C249 1.376 1_545 S
N248 C252 1.374 . S
C249 N248 1.376 1_565 S
C249 C250 1.443 . S
C249 C276 1.389 . S
C250 C249 1.443 . S
C250 C251 1.340 . S
C250 H282 0.951 . S
C251 C250 1.340 . S
C251 C252 1.439 1_565 S
C251 H283 0.950 . S
C252 N248 1.374 . S
C252 C251 1.439 1_545 S
C252 C277 1.395 . S
N253 Co242 1.995 . S
N253 C254 1.376 . S
N253 C257 1.383 . S
C254 N253 1.376 . S
C254 C255 1.446 . S
C254 C277 1.391 . S
C255 C254 1.446 . S
C255 C256 1.339 . S
C255 H284 0.949 . S
C256 C255 1.339 . S
C256 C257 1.439 . S
C256 H285 0.950 . S
C257 N253 1.383 . S
C257 C256 1.439 . S
C257 C275 1.392 . S
N258 Co242 2.282 . S
N258 C261 1.330 1_545 S
N258 C263 1.332 1_545 S
C259 C260 1.386 . S
C259 C262 1.388 . S
C260 C259 1.386 . S
C260 C261 1.387 . S
C260 H286 0.950 . S
C261 N258 1.330 1_565 S
C261 C260 1.387 . S
C261 H272 0.948 1_565 S
C262 C259 1.388 . S
C262 C263 1.382 . S
C262 H287 0.950 . S
C263 N258 1.332 1_565 S
C263 C262 1.382 . S
C263 H273 0.948 . S
N264 Co242 2.282 . S
N264 C268 1.332 . S
N264 C269 1.332 . S
C265 C266 1.388 . S
C265 C269 1.382 . S
C265 H288 0.950 . S
C266 C265 1.388 . S
C266 C267 1.386 . S
C267 C266 1.386 . S
C267 C268 1.382 . S
C267 H289 0.950 . S
C268 N264 1.332 . S
C268 C267 1.382 . S
C268 H270 0.952 . S
C269 N264 1.332 . S
C269 C265 1.382 . S
C269 H271 0.948 . S
H270 C268 0.952 . S
H271 C269 0.948 . S
H272 C261 0.948 1_545 S
H273 C263 0.948 . S
C274 C240 1.395 . S
C274 C244 1.391 . S
C275 C237 1.389 . S
C275 C257 1.392 . S
C276 C247 1.392 1_565 S
C276 C249 1.389 . S
C277 C252 1.395 . S
C277 C254 1.391 . S
H278 C238 0.951 . S
H279 C239 0.950 . S
H280 C245 0.949 . S
H281 C246 0.950 . S
H282 C250 0.951 . S
H283 C251 0.950 . S
H284 C255 0.949 . S
H285 C256 0.950 . S
H286 C260 0.950 . S
H287 C262 0.950 . S
H288 C265 0.950 . S
H289 C267 0.950 . S
C290 C291 1.443 . S
C290 N294 1.376 . S
C290 C328 1.389 . S
C291 C290 1.443 . S
C291 C292 1.340 . S
C291 H331 0.951 . S
C292 C291 1.340 . S
C292 C293 1.439 . S
C292 H332 0.950 . S
C293 C292 1.439 . S
C293 N294 1.374 . S
C293 C327 1.395 . S
N294 C290 1.376 . S
N294 C293 1.374 . S
N294 Co295 2.008 . S
Co295 N294 2.008 . S
Co295 N296 1.995 1_455 S
Co295 N301 2.008 1_455 S
Co295 N306 1.995 . S
Co295 N311 2.282 1_455 S
Co295 N317 2.282 . S
N296 Co295 1.995 1_655 S
N296 C297 1.376 . S
N296 C300 1.383 . S
C297 N296 1.376 . S
C297 C298 1.446 . S
C297 C327 1.391 1_655 S
C298 C297 1.446 . S
C298 C299 1.339 . S
C298 H333 0.949 . S
C299 C298 1.339 . S
C299 C300 1.439 . S
C299 H334 0.950 . S
C300 N296 1.383 . S
C300 C299 1.439 . S
C300 C329 1.392 . S
N301 Co295 2.008 1_655 S
N301 C302 1.376 . S
N301 C305 1.374 . S
C302 N301 1.376 . S
C302 C303 1.443 . S
C302 C329 1.389 . S
C303 C302 1.443 . S
C303 C304 1.340 . S
C303 H335 0.951 . S
C304 C303 1.340 . S
C304 C305 1.439 . S
C304 H336 0.950 . S
C305 N301 1.374 . S
C305 C304 1.439 . S
C305 C330 1.374 1_655 S
N306 Co295 1.995 . S
N306 C307 1.376 . S
N306 C310 1.383 . S
C307 N306 1.376 . S
C307 C308 1.446 . S
C307 C330 1.415 . S
C308 C307 1.446 . S
C308 C309 1.339 . S
C308 H337 0.949 . S
C309 C308 1.339 . S
C309 C310 1.439 . S
C309 H338 0.950 . S
C310 N306 1.383 . S
C310 C309 1.439 . S
C310 C328 1.392 . S
N311 Co295 2.282 1_655 S
N311 C314 1.332 . S
N311 C316 1.332 . S
C312 C313 1.386 . S
C312 C315 1.388 . S
C313 C312 1.386 . S
C313 C314 1.382 . S
C313 H339 0.950 . S
C314 N311 1.332 . S
C314 C313 1.382 . S
C314 H325 0.952 . S
C315 C312 1.388 . S
C315 C316 1.382 . S
C315 H340 0.950 . S
C316 N311 1.332 . S
C316 C315 1.382 . S
C316 H326 0.948 . S
N317 Co295 2.282 . S
N317 C321 1.332 . S
N317 C322 1.332 . S
C318 C319 1.388 . S
C318 C322 1.382 . S
C318 H341 0.950 . S
C319 C318 1.388 . S
C319 C320 1.386 . S
C320 C319 1.386 . S
C320 C321 1.382 . S
C320 H342 0.950 . S
C321 N317 1.332 . S
C321 C320 1.382 . S
C321 H323 0.952 . S
C322 N317 1.332 . S
C322 C318 1.382 . S
C322 H324 0.948 . S
H323 C321 0.952 . S
H324 C322 0.948 . S
H325 C314 0.952 . S
H326 C316 0.948 . S
C327 C293 1.395 . S
C327 C297 1.391 1_455 S
C328 C290 1.389 . S
C328 C310 1.392 . S
C329 C300 1.392 . S
C329 C302 1.389 . S
C330 C305 1.374 1_455 S
C330 C307 1.415 . S
H331 C291 0.951 . S
H332 C292 0.950 . S
H333 C298 0.949 . S
H334 C299 0.950 . S
H335 C303 0.951 . S
H336 C304 0.950 . S
H337 C308 0.949 . S
H338 C309 0.950 . S
H339 C313 0.950 . S
H340 C315 0.950 . S
H341 C318 0.950 . S
H342 C320 0.950 . S
C343 C344 1.443 . S
C343 N347 1.376 . S
C343 C381 1.389 . S
C344 C343 1.443 . S
C344 C345 1.340 . S
C344 H384 0.951 . S
C345 C344 1.340 . S
C345 C346 1.439 . S
C345 H385 0.950 . S
C346 C345 1.439 . S
C346 N347 1.374 . S
C346 C380 1.395 1_565 S
N347 C343 1.376 . S
N347 C346 1.374 . S
N347 Co348 2.008 1_565 S
Co348 N347 2.008 1_545 S
Co348 N349 1.995 . S
Co348 N354 2.008 . S
Co348 N359 1.995 1_545 S
Co348 N364 2.282 . S
Co348 N370 2.282 1_545 S
N349 Co348 1.995 . S
N349 C350 1.376 . S
N349 C353 1.383 . S
C350 N349 1.376 . S
C350 C351 1.446 . S
C350 C380 1.391 . S
C351 C350 1.446 . S
C351 C352 1.339 . S
C351 H386 0.949 . S
C352 C351 1.339 . S
C352 C353 1.439 . S
C352 H387 0.950 . S
C353 N349 1.383 . S
C353 C352 1.439 . S
C353 C382 1.392 . S
N354 Co348 2.008 . S
N354 C355 1.376 . S
N354 C358 1.374 . S
C355 N354 1.376 . S
C355 C356 1.443 . S
C355 C382 1.389 . S
C356 C355 1.443 . S
C356 C357 1.340 . S
C356 H388 0.951 . S
C357 C356 1.340 . S
C357 C358 1.439 . S
C357 H389 0.950 . S
C358 N354 1.374 . S
C358 C357 1.439 . S
C358 C383 1.395 . S
N359 Co348 1.995 1_565 S
N359 C360 1.376 . S
N359 C363 1.383 . S
C360 N359 1.376 . S
C360 C361 1.446 . S
C360 C383 1.391 1_565 S
C361 C360 1.446 . S
C361 C362 1.339 . S
C361 H390 0.949 . S
C362 C361 1.339 . S
C362 C363 1.439 . S
C362 H391 0.950 . S
C363 N359 1.383 . S
C363 C362 1.439 . S
C363 C381 1.392 . S
N364 Co348 2.282 . S
N364 C367 1.332 . S
N364 C369 1.332 . S
C365 C366 1.386 . S
C365 C368 1.388 . S
C366 C365 1.386 . S
C366 C367 1.382 . S
C366 H392 0.950 . S
C367 N364 1.332 . S
C367 C366 1.382 . S
C367 H378 0.952 . S
C368 C365 1.388 . S
C368 C369 1.382 . S
C368 H393 0.950 . S
C369 N364 1.332 . S
C369 C368 1.382 . S
C369 H379 0.948 . S
N370 Co348 2.282 1_565 S
N370 C374 1.332 . S
N370 C375 1.332 . S
C371 C372 1.388 . S
C371 C375 1.382 . S
C371 H394 0.950 . S
C372 C371 1.388 . S
C372 C373 1.386 . S
C373 C372 1.386 . S
C373 C374 1.382 . S
C373 H395 0.950 . S
C374 N370 1.332 . S
C374 C373 1.382 . S
C374 H376 0.952 . S
C375 N370 1.332 . S
C375 C371 1.382 . S
C375 H377 0.948 . S
H376 C374 0.952 . S
H377 C375 0.948 . S
H378 C367 0.952 . S
H379 C369 0.948 . S
C380 C346 1.395 1_545 S
C380 C350 1.391 . S
C381 C343 1.389 . S
C381 C363 1.392 . S
C382 C353 1.392 . S
C382 C355 1.389 . S
C383 C358 1.395 . S
C383 C360 1.391 1_545 S
H384 C344 0.951 . S
H385 C345 0.950 . S
H386 C351 0.949 . S
H387 C352 0.950 . S
H388 C356 0.951 . S
H389 C357 0.950 . S
H390 C361 0.949 . S
H391 C362 0.950 . S
H392 C366 0.950 . S
H393 C368 0.950 . S
H394 C371 0.950 . S
H395 C373 0.950 . S
C396 C397 1.443 . S
C396 N400 1.376 . S
C396 C434 1.389 . S
C397 C396 1.443 . S
C397 C398 1.340 . S
C397 H437 0.951 . S
C398 C397 1.340 . S
C398 C399 1.439 . S
C398 H438 0.950 . S
C399 C398 1.439 . S
C399 N400 1.374 . S
C399 C433 1.395 . S
N400 C396 1.376 . S
N400 C399 1.374 . S
N400 Co401 2.008 . S
Co401 N400 2.008 . S
Co401 N402 1.995 1_554 S
Co401 N407 2.008 1_554 S
Co401 N412 1.995 . S
Co401 N417 2.282 . S
Co401 N423 2.282 1_554 S
N402 Co401 1.995 1_556 S
N402 C403 1.376 . S
N402 C406 1.383 . S
C403 N402 1.376 . S
C403 C404 1.446 . S
C403 C433 1.391 1_556 S
C404 C403 1.446 . S
C404 C405 1.339 . S
C404 H439 0.949 . S
C405 C404 1.339 . S
C405 C406 1.439 . S
C405 H440 0.950 . S
C406 N402 1.383 . S
C406 C405 1.439 . S
C406 C435 1.392 . S
N407 Co401 2.008 1_556 S
N407 C408 1.376 . S
N407 C411 1.374 . S
C408 N407 1.376 . S
C408 C409 1.443 . S
C408 C435 1.389 . S
C409 C408 1.443 . S
C409 C410 1.340 . S
C409 H441 0.951 . S
C410 C409 1.340 . S
C410 C411 1.439 . S
C410 H442 0.950 . S
C411 N407 1.374 . S
C411 C410 1.439 . S
C411 C436 1.395 1_556 S
N412 Co401 1.995 . S
N412 C413 1.376 . S
N412 C416 1.383 . S
C413 N412 1.376 . S
C413 C414 1.446 . S
C413 C436 1.391 . S
C414 C413 1.446 . S
C414 C415 1.339 . S
C414 H443 0.949 . S
C415 C414 1.339 . S
C415 C416 1.439 . S
C415 H444 0.950 . S
C416 N412 1.383 . S
C416 C415 1.439 . S
C416 C434 1.392 . S
N417 Co401 2.282 . S
N417 C420 1.332 . S
N417 C422 1.332 . S
C418 C419 1.386 . S
C418 C421 1.388 . S
C419 C418 1.386 . S
C419 C420 1.382 . S
C419 H445 0.950 . S
C420 N417 1.332 . S
C420 C419 1.382 . S
C420 H431 0.952 . S
C421 C418 1.388 . S
C421 C422 1.382 . S
C421 H446 0.950 . S
C422 N417 1.332 . S
C422 C421 1.382 . S
C422 H432 0.948 . S
N423 Co401 2.282 1_556 S
N423 C427 1.332 . S
N423 C428 1.332 . S
C424 C425 1.388 . S
C424 C428 1.382 . S
C424 H447 0.950 . S
C425 C424 1.388 . S
C425 C426 1.386 . S
C426 C425 1.386 . S
C426 C427 1.382 . S
C426 H448 0.950 . S
C427 N423 1.332 . S
C427 C426 1.382 . S
C427 H429 0.952 . S
C428 N423 1.332 . S
C428 C424 1.382 . S
C428 H430 0.948 . S
H429 C427 0.952 . S
H430 C428 0.948 . S
H431 C420 0.952 . S
H432 C422 0.948 . S
C433 C399 1.395 . S
C433 C403 1.391 1_554 S
C434 C396 1.389 . S
C434 C416 1.392 . S
C435 C406 1.392 . S
C435 C408 1.389 . S
C436 C411 1.395 1_554 S
C436 C413 1.391 . S
H437 C397 0.951 . S
H438 C398 0.950 . S
H439 C404 0.949 . S
H440 C405 0.950 . S
H441 C409 0.951 . S
H442 C410 0.950 . S
H443 C414 0.949 . S
H444 C415 0.950 . S
H445 C419 0.950 . S
H446 C421 0.950 . S
H447 C424 0.950 . S
H448 C426 0.950 . S
C449 C450 1.443 . S
C449 N453 1.376 . S
C449 C487 1.389 . S
C450 C449 1.443 . S
C450 C451 1.340 . S
C450 H490 0.951 . S
C451 C450 1.340 . S
C451 C452 1.439 . S
C451 H491 0.950 . S
C452 C451 1.439 . S
C452 N453 1.374 . S
C452 C486 1.404 . S
N453 C449 1.376 . S
N453 C452 1.374 . S
N453 Co454 2.008 . S
Co454 N453 2.008 . S
Co454 N455 1.995 1_554 S
Co454 N460 2.008 . S
Co454 N465 1.995 . S
Co454 N470 2.282 . S
Co454 N476 2.282 1_554 S
N455 Co454 1.995 1_556 S
N455 C456 1.376 . S
N455 C459 1.383 . S
C456 N455 1.376 . S
C456 C457 1.446 . S
C456 C486 1.383 1_556 S
C457 C456 1.446 . S
C457 C458 1.339 . S
C457 H492 0.949 . S
C458 C457 1.339 . S
C458 C459 1.439 . S
C458 H493 0.950 . S
C459 N455 1.383 . S
C459 C458 1.439 . S
C459 C488 1.392 . S
N460 Co454 2.008 . S
N460 C461 1.376 1_554 S
N460 C464 1.374 . S
C461 N460 1.376 1_556 S
C461 C462 1.443 . S
C461 C488 1.389 . S
C462 C461 1.443 . S
C462 C463 1.340 . S
C462 H494 0.951 . S
C463 C462 1.340 . S
C463 C464 1.439 1_556 S
C463 H495 0.949 1_556 S
C464 N460 1.374 . S
C464 C463 1.439 1_554 S
C464 C489 1.395 . S
N465 Co454 1.995 . S
N465 C466 1.376 . S
N465 C469 1.383 . S
C466 N465 1.376 . S
C466 C467 1.446 . S
C466 C489 1.391 . S
C467 C466 1.446 . S
C467 C468 1.339 . S
C467 H496 0.949 . S
C468 C467 1.339 . S
C468 C469 1.439 . S
C468 H497 0.950 . S
C469 N465 1.383 . S
C469 C468 1.439 . S
C469 C487 1.392 . S
N470 Co454 2.282 . S
N470 C473 1.332 . S
N470 C475 1.332 . S
C471 C472 1.386 . S
C471 C474 1.388 . S
C472 C471 1.386 . S
C472 C473 1.382 . S
C472 H498 0.950 . S
C473 N470 1.332 . S
C473 C472 1.382 . S
C473 H484 0.952 . S
C474 C471 1.388 . S
C474 C475 1.382 . S
C474 H499 0.950 . S
C475 N470 1.332 . S
C475 C474 1.382 . S
C475 H485 0.948 . S
N476 Co454 2.282 1_556 S
N476 C480 1.332 . S
N476 C481 1.332 . S
C477 C478 1.388 . S
C477 C481 1.382 . S
C477 H500 0.950 . S
C478 C477 1.388 . S
C478 C479 1.386 . S
C479 C478 1.386 . S
C479 C480 1.382 . S
C479 H501 0.950 . S
C480 N476 1.332 . S
C480 C479 1.382 . S
C480 H482 0.952 . S
C481 N476 1.332 . S
C481 C477 1.382 . S
C481 H483 0.948 . S
H482 C480 0.952 . S
H483 C481 0.948 . S
H484 C473 0.952 . S
H485 C475 0.948 . S
C486 C452 1.404 . S
C486 C456 1.383 1_554 S
C487 C449 1.389 . S
C487 C469 1.392 . S
C488 C459 1.392 . S
C488 C461 1.389 . S
C489 C464 1.395 . S
C489 C466 1.391 . S
H490 C450 0.951 . S
H491 C451 0.950 . S
H492 C457 0.949 . S
H493 C458 0.950 . S
H494 C462 0.951 . S
H495 C463 0.949 1_554 S
H496 C467 0.949 . S
H497 C468 0.950 . S
H498 C472 0.950 . S
H499 C474 0.950 . S
H500 C477 0.950 . S
H501 C479 0.950 . S
C502 C503 1.443 . S
C502 N506 1.376 1_556 S
C502 C540 1.389 . S
C503 C502 1.443 . S
C503 C504 1.340 1_556 S
C503 H543 0.951 . S
C504 C503 1.340 1_554 S
C504 C505 1.439 . S
C504 H544 0.950 . S
C505 C504 1.439 . S
C505 N506 1.374 . S
C505 C539 1.395 . S
N506 C502 1.376 1_554 S
N506 C505 1.374 . S
N506 Co507 2.008 . S
Co507 N506 2.008 . S
Co507 N508 1.995 . S
Co507 N513 2.008 . S
Co507 N518 1.995 . S
Co507 N523 2.282 1_554 S
Co507 N529 2.282 . S
N508 Co507 1.995 . S
N508 C509 1.376 . S
N508 C512 1.383 . S
C509 N508 1.376 . S
C509 C510 1.446 . S
C509 C539 1.391 . S
C510 C509 1.446 . S
C510 C511 1.339 . S
C510 H545 0.949 . S
C511 C510 1.339 . S
C511 C512 1.439 . S
C511 H546 0.950 . S
C512 N508 1.383 . S
C512 C511 1.439 . S
C512 C541 1.392 . S
N513 Co507 2.008 . S
N513 C514 1.376 . S
N513 C517 1.374 . S
C514 N513 1.376 . S
C514 C515 1.443 . S
C514 C541 1.389 . S
C515 C514 1.443 . S
C515 C516 1.340 . S
C515 H547 0.951 . S
C516 C515 1.340 . S
C516 C517 1.439 . S
C516 H548 0.950 . S
C517 N513 1.374 . S
C517 C516 1.439 . S
C517 C542 1.395 . S
N518 Co507 1.995 . S
N518 C519 1.376 . S
N518 C522 1.383 1_554 S
C519 N518 1.376 . S
C519 C520 1.446 1_554 S
C519 C542 1.391 . S
C520 C519 1.446 1_556 S
C520 C521 1.339 . S
C520 H549 0.949 . S
C521 C520 1.339 . S
C521 C522 1.439 . S
C521 H550 0.950 . S
C522 N518 1.383 1_556 S
C522 C521 1.439 . S
C522 C540 1.392 . S
N523 Co507 2.282 1_556 S
N523 C526 1.332 . S
N523 C528 1.332 . S
C524 C525 1.386 . S
C524 C527 1.388 . S
C525 C524 1.386 . S
C525 C526 1.382 . S
C525 H551 0.950 . S
C526 N523 1.332 . S
C526 C525 1.382 . S
C526 H537 0.952 . S
C527 C524 1.388 . S
C527 C528 1.382 . S
C527 H552 0.950 . S
C528 N523 1.332 . S
C528 C527 1.382 . S
C528 H538 0.948 1_556 S
N529 Co507 2.282 . S
N529 C533 1.332 . S
N529 C534 1.332 . S
C530 C531 1.388 . S
C530 C534 1.382 . S
C530 H553 0.950 . S
C531 C530 1.388 . S
C531 C532 1.386 . S
C532 C531 1.386 . S
C532 C533 1.382 . S
C532 H554 0.950 . S
C533 N529 1.332 . S
C533 C532 1.382 . S
C533 H535 0.952 . S
C534 N529 1.332 . S
C534 C530 1.382 . S
C534 H536 0.948 . S
H535 C533 0.952 . S
H536 C534 0.948 . S
H537 C526 0.952 . S
H538 C528 0.948 1_554 S
C539 C505 1.395 . S
C539 C509 1.391 . S
C540 C502 1.389 . S
C540 C522 1.392 . S
C541 C512 1.392 . S
C541 C514 1.389 . S
C542 C517 1.395 . S
C542 C519 1.391 . S
H543 C503 0.951 . S
H544 C504 0.950 . S
H545 C510 0.949 . S
H546 C511 0.950 . S
H547 C515 0.951 . S
H548 C516 0.950 . S
H549 C520 0.949 . S
H550 C521 0.950 . S
H551 C525 0.950 . S
H552 C527 0.950 . S
H553 C530 0.950 . S
H554 C532 0.950 . S
C555 C556 1.443 . S
C555 N559 1.376 . S
C555 C593 1.389 . S
C556 C555 1.443 . S
C556 C557 1.340 . S
C556 H596 0.951 . S
C557 C556 1.340 . S
C557 C558 1.439 . S
C557 H597 0.950 . S
C558 C557 1.439 . S
C558 N559 1.374 . S
C558 C592 1.382 1_554 S
N559 C555 1.376 . S
N559 C558 1.374 . S
N559 Co560 2.008 . S
Co560 N559 2.008 . S
Co560 N561 1.995 1_554 S
Co560 N566 2.017 . S
Co560 N571 1.995 . S
Co560 N576 2.282 . S
Co560 N582 2.282 1_554 S
N561 Co560 1.995 1_556 S
N561 C562 1.376 . S
N561 C565 1.383 . S
C562 N561 1.376 . S
C562 C563 1.446 . S
C562 C592 1.403 . S
C563 C562 1.446 . S
C563 C564 1.339 . S
C563 H598 0.949 . S
C564 C563 1.339 . S
C564 C565 1.439 . S
C564 H599 0.950 . S
C565 N561 1.383 . S
C565 C564 1.439 . S
C565 C594 1.392 . S
N566 Co560 2.017 . S
N566 C567 1.364 1_554 S
N566 C570 1.378 . S
C567 N566 1.364 1_556 S
C567 C568 1.443 . S
C567 C594 1.389 . S
C568 C567 1.443 . S
C568 C569 1.340 . S
C568 H600 0.951 . S
C569 C568 1.340 . S
C569 C570 1.439 1_556 S
C569 H601 0.950 1_556 S
C570 N566 1.378 . S
C570 C569 1.439 1_554 S
C570 C595 1.395 . S
N571 Co560 1.995 . S
N571 C572 1.376 . S
N571 C575 1.383 . S
C572 N571 1.376 . S
C572 C573 1.446 . S
C572 C595 1.391 . S
C573 C572 1.446 . S
C573 C574 1.339 . S
C573 H602 0.949 . S
C574 C573 1.339 . S
C574 C575 1.439 . S
C574 H603 0.950 . S
C575 N571 1.383 . S
C575 C574 1.439 . S
C575 C593 1.392 . S
N576 Co560 2.282 . S
N576 C579 1.332 . S
N576 C581 1.332 . S
C577 C578 1.386 . S
C577 C580 1.388 . S
C578 C577 1.386 . S
C578 C579 1.382 . S
C578 H604 0.950 . S
C579 N576 1.332 . S
C579 C578 1.382 . S
C579 H590 0.952 . S
C580 C577 1.388 . S
C580 C581 1.382 . S
C580 H605 0.950 . S
C581 N576 1.332 . S
C581 C580 1.382 . S
C581 H591 0.948 . S
N582 Co560 2.282 1_556 S
N582 C586 1.332 . S
N582 C587 1.332 . S
C583 C584 1.388 . S
C583 C587 1.382 . S
C583 H606 0.950 . S
C584 C583 1.388 . S
C584 C585 1.386 . S
C585 C584 1.386 . S
C585 C586 1.382 . S
C585 H607 0.950 . S
C586 N582 1.332 . S
C586 C585 1.382 . S
C586 H588 0.952 . S
C587 N582 1.332 . S
C587 C583 1.382 . S
C587 H589 0.948 . S
H588 C586 0.952 . S
H589 C587 0.948 . S
H590 C579 0.952 . S
H591 C581 0.948 . S
C592 C558 1.382 1_556 S
C592 C562 1.403 . S
C593 C555 1.389 . S
C593 C575 1.392 . S
C594 C565 1.392 . S
C594 C567 1.389 . S
C595 C570 1.395 . S
C595 C572 1.391 . S
H596 C556 0.951 . S
H597 C557 0.950 . S
H598 C563 0.949 . S
H599 C564 0.950 . S
H600 C568 0.951 . S
H601 C569 0.950 1_554 S
H602 C573 0.949 . S
H603 C574 0.950 . S
H604 C578 0.950 . S
H605 C580 0.950 . S
H606 C583 0.950 . S
H607 C585 0.950 . S
C608 C609 1.363 . S
C608 C614 1.379 . S
C608 N616 1.356 . S
C609 C608 1.363 . S
C609 C615 1.363 . S
C610 C611 1.363 . S
C610 C615 1.379 . S
C610 N617 1.356 . S
C611 C610 1.363 . S
C611 C614 1.363 . S
N612 C614 1.356 . S
N612 H624 0.984 . S
N612 H625 0.985 . S
N613 C615 1.356 . S
N613 H618 0.984 . S
N613 H619 0.985 . S
C614 C608 1.379 . S
C614 C611 1.363 . S
C614 N612 1.356 . S
C615 C609 1.363 . S
C615 C610 1.379 . S
C615 N613 1.356 . S
N616 C608 1.356 . S
N616 H622 0.984 . S
N616 H623 0.984 . S
N617 C610 1.356 . S
N617 H620 0.984 . S
N617 H621 0.985 . S
H618 N613 0.984 . S
H619 N613 0.985 . S
H620 N617 0.984 . S
H621 N617 0.985 . S
H622 N616 0.984 . S
H623 N616 0.984 . S
H624 N612 0.984 . S
H625 N612 0.985 . S
C626 C627 1.363 . S
C626 C632 1.379 . S
C626 N634 1.356 . S
C627 C626 1.363 . S
C627 C633 1.363 . S
C628 C629 1.363 . S
C628 C633 1.379 . S
C628 N635 1.356 . S
C629 C628 1.363 . S
C629 C632 1.363 . S
N630 C632 1.356 . S
N630 H642 0.984 . S
N630 H643 0.985 . S
N631 C633 1.356 . S
N631 H636 0.984 . S
N631 H637 0.985 . S
C632 C626 1.379 . S
C632 C629 1.363 . S
C632 N630 1.356 . S
C633 C627 1.363 . S
C633 C628 1.379 . S
C633 N631 1.356 . S
N634 C626 1.356 . S
N634 H640 0.984 . S
N634 H641 0.984 . S
N635 C628 1.356 . S
N635 H638 0.984 . S
N635 H639 0.985 . S
H636 N631 0.984 . S
H637 N631 0.985 . S
H638 N635 0.984 . S
H639 N635 0.985 . S
H640 N634 0.984 . S
H641 N634 0.984 . S
H642 N630 0.984 . S
H643 N630 0.985 . S
C644 C645 1.363 . S
C644 C650 1.379 . S
C644 N652 1.356 . S
C645 C644 1.363 . S
C645 C651 1.363 . S
C646 C647 1.363 . S
C646 C651 1.379 . S
C646 N653 1.356 . S
C647 C646 1.363 . S
C647 C650 1.363 . S
N648 C650 1.356 . S
N648 H660 0.984 . S
N648 H661 0.985 . S
N649 C651 1.356 . S
N649 H654 0.984 . S
N649 H655 0.985 . S
C650 C644 1.379 . S
C650 C647 1.363 . S
C650 N648 1.356 . S
C651 C645 1.363 . S
C651 C646 1.379 . S
C651 N649 1.356 . S
N652 C644 1.356 . S
N652 H658 0.984 . S
N652 H659 0.984 . S
N653 C646 1.356 . S
N653 H656 0.984 . S
N653 H657 0.985 . S
H654 N649 0.984 . S
H655 N649 0.985 . S
H656 N653 0.984 . S
H657 N653 0.985 . S
H658 N652 0.984 . S
H659 N652 0.984 . S
H660 N648 0.984 . S
H661 N648 0.985 . S
C662 C663 1.363 . S
C662 C668 1.379 . S
C662 N670 1.356 . S
C663 C662 1.363 . S
C663 C669 1.363 . S
C664 C665 1.363 . S
C664 C669 1.379 . S
C664 N671 1.356 . S
C665 C664 1.363 . S
C665 C668 1.363 . S
N666 C668 1.356 . S
N666 H678 0.984 . S
N666 H679 0.985 . S
N667 C669 1.356 . S
N667 H672 0.984 . S
N667 H673 0.985 . S
C668 C662 1.379 . S
C668 C665 1.363 . S
C668 N666 1.356 . S
C669 C663 1.363 . S
C669 C664 1.379 . S
C669 N667 1.356 . S
N670 C662 1.356 . S
N670 H676 0.984 . S
N670 H677 0.984 . S
N671 C664 1.356 . S
N671 H674 0.984 . S
N671 H675 0.985 . S
H672 N667 0.984 . S
H673 N667 0.985 . S
H674 N671 0.984 . S
H675 N671 0.985 . S
H676 N670 0.984 . S
H677 N670 0.984 . S
H678 N666 0.984 . S
H679 N666 0.985 . S
C680 C681 1.363 . S
C680 C686 1.379 . S
C680 N688 1.356 . S
C681 C680 1.363 . S
C681 C687 1.363 . S
C682 C683 1.363 . S
C682 C687 1.379 . S
C682 N689 1.356 . S
C683 C682 1.363 . S
C683 C686 1.363 . S
N684 C686 1.356 . S
N684 H696 0.984 . S
N684 H697 0.985 . S
N685 C687 1.356 . S
N685 H690 0.984 . S
N685 H691 0.985 . S
C686 C680 1.379 . S
C686 C683 1.363 . S
C686 N684 1.356 . S
C687 C681 1.363 . S
C687 C682 1.379 . S
C687 N685 1.356 . S
N688 C680 1.356 . S
N688 H694 0.984 . S
N688 H695 0.984 . S
N689 C682 1.356 . S
N689 H692 0.984 . S
N689 H693 0.985 . S
H690 N685 0.984 . S
H691 N685 0.985 . S
H692 N689 0.984 . S
H693 N689 0.985 . S
H694 N688 0.984 . S
H695 N688 0.984 . S
H696 N684 0.984 . S
H697 N684 0.985 . S
C698 C699 1.363 . S
C698 C704 1.379 . S
C698 N706 1.356 . S
C699 C698 1.363 . S
C699 C705 1.363 . S
C700 C701 1.363 . S
C700 C705 1.379 . S
C700 N707 1.356 . S
C701 C700 1.363 . S
C701 C704 1.363 . S
N702 C704 1.356 . S
N702 H714 0.984 . S
N702 H715 0.985 . S
N703 C705 1.356 . S
N703 H708 0.984 . S
N703 H709 0.985 . S
C704 C698 1.379 . S
C704 C701 1.363 . S
C704 N702 1.356 . S
C705 C699 1.363 . S
C705 C700 1.379 . S
C705 N703 1.356 . S
N706 C698 1.356 . S
N706 H712 0.984 . S
N706 H713 0.984 . S
N707 C700 1.356 . S
N707 H710 0.984 . S
N707 H711 0.985 . S
H708 N703 0.984 . S
H709 N703 0.985 . S
H710 N707 0.984 . S
H711 N707 0.985 . S
H712 N706 0.984 . S
H713 N706 0.984 . S
H714 N702 0.984 . S
H715 N702 0.985 . S
C716 C717 1.363 . S
C716 C722 1.379 . S
C716 N724 1.356 . S
C717 C716 1.363 . S
C717 C723 1.363 . S
C718 C719 1.363 . S
C718 C723 1.379 . S
C718 N725 1.356 . S
C719 C718 1.363 . S
C719 C722 1.363 . S
N720 C722 1.356 . S
N720 H732 0.984 . S
N720 H733 0.985 . S
N721 C723 1.356 . S
N721 H726 0.984 . S
N721 H727 0.985 . S
C722 C716 1.379 . S
C722 C719 1.363 . S
C722 N720 1.356 . S
C723 C717 1.363 . S
C723 C718 1.379 . S
C723 N721 1.356 . S
N724 C716 1.356 . S
N724 H730 0.984 . S
N724 H731 0.984 . S
N725 C718 1.356 . S
N725 H728 0.984 . S
N725 H729 0.985 . S
H726 N721 0.984 . S
H727 N721 0.985 . S
H728 N725 0.984 . S
H729 N725 0.985 . S
H730 N724 0.984 . S
H731 N724 0.984 . S
H732 N720 0.984 . S
H733 N720 0.985 . S
C734 C735 1.363 . S
C734 C740 1.379 . S
C734 N742 1.356 . S
C735 C734 1.363 . S
C735 C741 1.363 . S
C736 C737 1.363 . S
C736 C741 1.379 . S
C736 N743 1.356 . S
C737 C736 1.363 . S
C737 C740 1.363 . S
N738 C740 1.356 . S
N738 H750 0.984 . S
N738 H751 0.985 . S
N739 C741 1.356 . S
N739 H744 0.984 . S
N739 H745 0.985 . S
C740 C734 1.379 . S
C740 C737 1.363 . S
C740 N738 1.356 . S
C741 C735 1.363 . S
C741 C736 1.379 . S
C741 N739 1.356 . S
N742 C734 1.356 . S
N742 H748 0.984 . S
N742 H749 0.984 . S
N743 C736 1.356 . S
N743 H746 0.984 . S
N743 H747 0.985 . S
H744 N739 0.984 . S
H745 N739 0.985 . S
H746 N743 0.984 . S
H747 N743 0.985 . S
H748 N742 0.984 . S
H749 N742 0.984 . S
H750 N738 0.984 . S
H751 N738 0.985 . S
C752 C753 1.363 . S
C752 C758 1.379 . S
C752 N760 1.356 . S
C753 C752 1.363 . S
C753 C759 1.363 . S
C754 C755 1.363 . S
C754 C759 1.379 . S
C754 N761 1.356 . S
C755 C754 1.363 . S
C755 C758 1.363 . S
N756 C758 1.356 . S
N756 H768 0.984 . S
N756 H769 0.985 . S
N757 C759 1.356 . S
N757 H762 0.984 . S
N757 H763 0.985 . S
C758 C752 1.379 . S
C758 C755 1.363 . S
C758 N756 1.356 . S
C759 C753 1.363 . S
C759 C754 1.379 . S
C759 N757 1.356 . S
N760 C752 1.356 . S
N760 H766 0.984 . S
N760 H767 0.984 . S
N761 C754 1.356 . S
N761 H764 0.984 . S
N761 H765 0.985 . S
H762 N757 0.984 . S
H763 N757 0.985 . S
H764 N761 0.984 . S
H765 N761 0.985 . S
H766 N760 0.984 . S
H767 N760 0.984 . S
H768 N756 0.984 . S
H769 N756 0.985 . S
C770 C771 1.363 . S
C770 C776 1.379 . S
C770 N778 1.356 . S
C771 C770 1.363 . S
C771 C777 1.363 . S
C772 C773 1.363 . S
C772 C777 1.379 . S
C772 N779 1.356 . S
C773 C772 1.363 . S
C773 C776 1.363 . S
N774 C776 1.356 . S
N774 H786 0.984 . S
N774 H787 0.985 . S
N775 C777 1.356 . S
N775 H780 0.984 . S
N775 H781 0.985 . S
C776 C770 1.379 . S
C776 C773 1.363 . S
C776 N774 1.356 . S
C777 C771 1.363 . S
C777 C772 1.379 . S
C777 N775 1.356 . S
N778 C770 1.356 . S
N778 H784 0.984 . S
N778 H785 0.984 . S
N779 C772 1.356 . S
N779 H782 0.984 . S
N779 H783 0.985 . S
H780 N775 0.984 . S
H781 N775 0.985 . S
H782 N779 0.984 . S
H783 N779 0.985 . S
H784 N778 0.984 . S
H785 N778 0.984 . S
H786 N774 0.984 . S
H787 N774 0.985 . S
C788 C789 1.363 . S
C788 C794 1.379 . S
C788 N796 1.356 . S
C789 C788 1.363 . S
C789 C795 1.363 . S
C790 C791 1.363 . S
C790 C795 1.379 . S
C790 N797 1.356 . S
C791 C790 1.363 . S
C791 C794 1.363 . S
N792 C794 1.356 . S
N792 H804 0.984 . S
N792 H805 0.985 . S
N793 C795 1.356 . S
N793 H798 0.984 . S
N793 H799 0.985 . S
C794 C788 1.379 . S
C794 C791 1.363 . S
C794 N792 1.356 . S
C795 C789 1.363 . S
C795 C790 1.379 . S
C795 N793 1.356 . S
N796 C788 1.356 . S
N796 H802 0.984 . S
N796 H803 0.984 . S
N797 C790 1.356 . S
N797 H800 0.984 . S
N797 H801 0.985 . S
H798 N793 0.984 . S
H799 N793 0.985 . S
H800 N797 0.984 . S
H801 N797 0.985 . S
H802 N796 0.984 . S
H803 N796 0.984 . S
H804 N792 0.984 . S
H805 N792 0.985 . S
C806 C807 1.363 . S
C806 C812 1.379 . S
C806 N814 1.356 . S
C807 C806 1.363 . S
C807 C813 1.363 . S
C808 C809 1.363 . S
C808 C813 1.379 . S
C808 N815 1.356 . S
C809 C808 1.363 . S
C809 C812 1.363 . S
N810 C812 1.356 . S
N810 H822 0.984 . S
N810 H823 0.985 . S
N811 C813 1.356 . S
N811 H816 0.984 . S
N811 H817 0.985 . S
C812 C806 1.379 . S
C812 C809 1.363 . S
C812 N810 1.356 . S
C813 C807 1.363 . S
C813 C808 1.379 . S
C813 N811 1.356 . S
N814 C806 1.356 . S
N814 H820 0.984 . S
N814 H821 0.984 . S
N815 C808 1.356 . S
N815 H818 0.984 . S
N815 H819 0.985 . S
H816 N811 0.984 . S
H817 N811 0.985 . S
H818 N815 0.984 . S
H819 N815 0.985 . S
H820 N814 0.984 . S
H821 N814 0.984 . S
H822 N810 0.984 . S
H823 N810 0.985 . S
C824 C825 1.363 . S
C824 C830 1.379 . S
C824 N832 1.356 . S
C825 C824 1.363 . S
C825 C831 1.363 . S
C826 C827 1.363 . S
C826 C831 1.379 . S
C826 N833 1.356 . S
C827 C826 1.363 . S
C827 C830 1.363 . S
N828 C830 1.356 . S
N828 H840 0.984 . S
N828 H841 0.985 . S
N829 C831 1.356 . S
N829 H834 0.984 . S
N829 H835 0.985 . S
C830 C824 1.379 . S
C830 C827 1.363 . S
C830 N828 1.356 . S
C831 C825 1.363 . S
C831 C826 1.379 . S
C831 N829 1.356 . S
N832 C824 1.356 . S
N832 H838 0.984 . S
N832 H839 0.984 . S
N833 C826 1.356 . S
N833 H836 0.984 . S
N833 H837 0.985 . S
H834 N829 0.984 . S
H835 N829 0.985 . S
H836 N833 0.984 . S
H837 N833 0.985 . S
H838 N832 0.984 . S
H839 N832 0.984 . S
H840 N828 0.984 . S
H841 N828 0.985 . S
C842 C843 1.363 . S
C842 C848 1.379 . S
C842 N850 1.356 . S
C843 C842 1.363 . S
C843 C849 1.363 . S
C844 C845 1.363 . S
C844 C849 1.379 . S
C844 N851 1.356 . S
C845 C844 1.363 . S
C845 C848 1.363 . S
N846 C848 1.356 . S
N846 H858 0.984 . S
N846 H859 0.985 . S
N847 C849 1.356 . S
N847 H852 0.984 . S
N847 H853 0.985 . S
C848 C842 1.379 . S
C848 C845 1.363 . S
C848 N846 1.356 . S
C849 C843 1.363 . S
C849 C844 1.379 . S
C849 N847 1.356 . S
N850 C842 1.356 . S
N850 H856 0.984 . S
N850 H857 0.984 . S
N851 C844 1.356 . S
N851 H854 0.984 . S
N851 H855 0.985 . S
H852 N847 0.984 . S
H853 N847 0.985 . S
H854 N851 0.984 . S
H855 N851 0.985 . S
H856 N850 0.984 . S
H857 N850 0.984 . S
H858 N846 0.984 . S
H859 N846 0.985 . S
C860 C861 1.363 . S
C860 C866 1.379 . S
C860 N868 1.356 . S
C861 C860 1.363 . S
C861 C867 1.363 . S
C862 C863 1.363 . S
C862 C867 1.379 . S
C862 N869 1.356 . S
C863 C862 1.363 . S
C863 C866 1.363 . S
N864 C866 1.356 . S
N864 H876 0.984 . S
N864 H877 0.985 . S
N865 C867 1.356 . S
N865 H870 0.984 . S
N865 H871 0.985 . S
C866 C860 1.379 . S
C866 C863 1.363 . S
C866 N864 1.356 . S
C867 C861 1.363 . S
C867 C862 1.379 . S
C867 N865 1.356 . S
N868 C860 1.356 . S
N868 H874 0.984 . S
N868 H875 0.984 . S
N869 C862 1.356 . S
N869 H872 0.984 . S
N869 H873 0.985 . S
H870 N865 0.984 . S
H871 N865 0.985 . S
H872 N869 0.984 . S
H873 N869 0.985 . S
H874 N868 0.984 . S
H875 N868 0.984 . S
H876 N864 0.984 . S
H877 N864 0.985 . S
C878 C879 1.363 . S
C878 C884 1.379 . S
C878 N886 1.356 . S
C879 C878 1.363 . S
C879 C885 1.363 . S
C880 C881 1.363 . S
C880 C885 1.379 . S
C880 N887 1.356 . S
C881 C880 1.363 . S
C881 C884 1.363 . S
N882 C884 1.356 . S
N882 H894 0.984 . S
N882 H895 0.985 . S
N883 C885 1.356 . S
N883 H888 0.984 . S
N883 H889 0.985 . S
C884 C878 1.379 . S
C884 C881 1.363 . S
C884 N882 1.356 . S
C885 C879 1.363 . S
C885 C880 1.379 . S
C885 N883 1.356 . S
N886 C878 1.356 . S
N886 H892 0.984 . S
N886 H893 0.984 . S
N887 C880 1.356 . S
N887 H890 0.984 . S
N887 H891 0.985 . S
H888 N883 0.984 . S
H889 N883 0.985 . S
H890 N887 0.984 . S
H891 N887 0.985 . S
H892 N886 0.984 . S
H893 N886 0.984 . S
H894 N882 0.984 . S
H895 N882 0.985 . S
C896 C897 1.363 . S
C896 C902 1.379 . S
C896 N904 1.356 . S
C897 C896 1.363 . S
C897 C903 1.363 . S
C898 C899 1.363 . S
C898 C903 1.379 . S
C898 N905 1.356 . S
C899 C898 1.363 . S
C899 C902 1.363 . S
N900 C902 1.356 . S
N900 H912 0.984 . S
N900 H913 0.985 . S
N901 C903 1.356 . S
N901 H906 0.984 . S
N901 H907 0.985 . S
C902 C896 1.379 . S
C902 C899 1.363 . S
C902 N900 1.356 . S
C903 C897 1.363 . S
C903 C898 1.379 . S
C903 N901 1.356 . S
N904 C896 1.356 . S
N904 H910 0.984 . S
N904 H911 0.984 . S
N905 C898 1.356 . S
N905 H908 0.984 . S
N905 H909 0.985 . S
H906 N901 0.984 . S
H907 N901 0.985 . S
H908 N905 0.984 . S
H909 N905 0.985 . S
H910 N904 0.984 . S
H911 N904 0.984 . S
H912 N900 0.984 . S
H913 N900 0.985 . S
C914 C915 1.363 . S
C914 C920 1.379 . S
C914 N922 1.356 . S
C915 C914 1.363 . S
C915 C921 1.363 . S
C916 C917 1.363 . S
C916 C921 1.379 . S
C916 N923 1.356 . S
C917 C916 1.363 . S
C917 C920 1.363 . S
N918 C920 1.356 . S
N918 H930 0.984 . S
N918 H931 0.985 . S
N919 C921 1.356 . S
N919 H924 0.984 . S
N919 H925 0.985 . S
C920 C914 1.379 . S
C920 C917 1.363 . S
C920 N918 1.356 . S
C921 C915 1.363 . S
C921 C916 1.379 . S
C921 N919 1.356 . S
N922 C914 1.356 . S
N922 H928 0.984 . S
N922 H929 0.984 . S
N923 C916 1.356 . S
N923 H926 0.984 . S
N923 H927 0.985 . S
H924 N919 0.984 . S
H925 N919 0.985 . S
H926 N923 0.984 . S
H927 N923 0.985 . S
H928 N922 0.984 . S
H929 N922 0.984 . S
H930 N918 0.984 . S
H931 N918 0.985 . S
C932 C933 1.363 . S
C932 C938 1.379 . S
C932 N940 1.356 . S
C933 C932 1.363 . S
C933 C939 1.363 . S
C934 C935 1.363 . S
C934 C939 1.379 . S
C934 N941 1.356 . S
C935 C934 1.363 . S
C935 C938 1.363 . S
N936 C938 1.356 . S
N936 H948 0.984 . S
N936 H949 0.985 . S
N937 C939 1.356 . S
N937 H942 0.984 . S
N937 H943 0.985 . S
C938 C932 1.379 . S
C938 C935 1.363 . S
C938 N936 1.356 . S
C939 C933 1.363 . S
C939 C934 1.379 . S
C939 N937 1.356 . S
N940 C932 1.356 . S
N940 H946 0.984 . S
N940 H947 0.984 . S
N941 C934 1.356 . S
N941 H944 0.984 . S
N941 H945 0.985 . S
H942 N937 0.984 . S
H943 N937 0.985 . S
H944 N941 0.984 . S
H945 N941 0.985 . S
H946 N940 0.984 . S
H947 N940 0.984 . S
H948 N936 0.984 . S
H949 N936 0.985 . S
C950 C951 1.363 . S
C950 C956 1.379 . S
C950 N958 1.356 . S
C951 C950 1.363 . S
C951 C957 1.363 . S
C952 C953 1.363 . S
C952 C957 1.379 . S
C952 N959 1.356 . S
C953 C952 1.363 . S
C953 C956 1.363 . S
N954 C956 1.356 . S
N954 H966 0.984 . S
N954 H967 0.985 . S
N955 C957 1.356 . S
N955 H960 0.984 . S
N955 H961 0.985 . S
C956 C950 1.379 . S
C956 C953 1.363 . S
C956 N954 1.356 . S
C957 C951 1.363 . S
C957 C952 1.379 . S
C957 N955 1.356 . S
N958 C950 1.356 . S
N958 H964 0.984 . S
N958 H965 0.984 . S
N959 C952 1.356 . S
N959 H962 0.984 . S
N959 H963 0.985 . S
H960 N955 0.984 . S
H961 N955 0.985 . S
H962 N959 0.984 . S
H963 N959 0.985 . S
H964 N958 0.984 . S
H965 N958 0.984 . S
H966 N954 0.984 . S
H967 N954 0.985 . S
C968 C969 1.363 . S
C968 C974 1.379 . S
C968 N976 1.356 . S
C969 C968 1.363 . S
C969 C975 1.363 . S
C970 C971 1.363 . S
C970 C975 1.379 . S
C970 N977 1.356 . S
C971 C970 1.363 . S
C971 C974 1.363 . S
N972 C974 1.356 . S
N972 H984 0.984 . S
N972 H985 0.985 . S
N973 C975 1.356 . S
N973 H978 0.984 . S
N973 H979 0.985 . S
C974 C968 1.379 . S
C974 C971 1.363 . S
C974 N972 1.356 . S
C975 C969 1.363 . S
C975 C970 1.379 . S
C975 N973 1.356 . S
N976 C968 1.356 . S
N976 H982 0.984 . S
N976 H983 0.984 . S
N977 C970 1.356 . S
N977 H980 0.984 . S
N977 H981 0.985 . S
H978 N973 0.984 . S
H979 N973 0.985 . S
H980 N977 0.984 . S
H981 N977 0.985 . S
H982 N976 0.984 . S
H983 N976 0.984 . S
H984 N972 0.984 . S
H985 N972 0.985 . S
C986 C987 1.363 . S
C986 C992 1.379 . S
C986 N994 1.356 . S
C987 C986 1.363 . S
C987 C993 1.363 . S
C988 C989 1.363 . S
C988 C993 1.379 . S
C988 N995 1.356 . S
C989 C988 1.363 . S
C989 C992 1.363 . S
N990 C992 1.356 . S
N990 H1002 0.984 . S
N990 H1003 0.985 . S
N991 C993 1.356 . S
N991 H996 0.984 . S
N991 H997 0.985 . S
C992 C986 1.379 . S
C992 C989 1.363 . S
C992 N990 1.356 . S
C993 C987 1.363 . S
C993 C988 1.379 . S
C993 N991 1.356 . S
N994 C986 1.356 . S
N994 H1000 0.984 . S
N994 H1001 0.984 . S
N995 C988 1.356 . S
N995 H998 0.984 . S
N995 H999 0.985 . S
H996 N991 0.984 . S
H997 N991 0.985 . S
H998 N995 0.984 . S
H999 N995 0.985 . S
H1000 N994 0.984 . S
H1001 N994 0.984 . S
H1002 N990 0.984 . S
H1003 N990 0.985 . S
C1004 C1005 1.363 . S
C1004 C1010 1.379 . S
C1004 N1012 1.356 . S
C1005 C1004 1.363 . S
C1005 C1011 1.363 . S
C1006 C1007 1.363 . S
C1006 C1011 1.379 . S
C1006 N1013 1.356 . S
C1007 C1006 1.363 . S
C1007 C1010 1.363 . S
N1008 C1010 1.356 . S
N1008 H1020 0.984 . S
N1008 H1021 0.985 . S
N1009 C1011 1.356 . S
N1009 H1014 0.984 . S
N1009 H1015 0.985 . S
C1010 C1004 1.379 . S
C1010 C1007 1.363 . S
C1010 N1008 1.356 . S
C1011 C1005 1.363 . S
C1011 C1006 1.379 . S
C1011 N1009 1.356 . S
N1012 C1004 1.356 . S
N1012 H1018 0.984 . S
N1012 H1019 0.984 . S
N1013 C1006 1.356 . S
N1013 H1016 0.984 . S
N1013 H1017 0.985 . S
H1014 N1009 0.984 . S
H1015 N1009 0.985 . S
H1016 N1013 0.984 . S
H1017 N1013 0.985 . S
H1018 N1012 0.984 . S
H1019 N1012 0.984 . S
H1020 N1008 0.984 . S
H1021 N1008 0.985 . S
C1022 C1023 1.363 . S
C1022 C1028 1.379 . S
C1022 N1030 1.356 . S
C1023 C1022 1.363 . S
C1023 C1029 1.363 . S
C1024 C1025 1.363 . S
C1024 C1029 1.379 . S
C1024 N1031 1.356 . S
C1025 C1024 1.363 . S
C1025 C1028 1.363 . S
N1026 C1028 1.356 . S
N1026 H1038 0.984 . S
N1026 H1039 0.985 . S
N1027 C1029 1.356 . S
N1027 H1032 0.984 . S
N1027 H1033 0.985 . S
C1028 C1022 1.379 . S
C1028 C1025 1.363 . S
C1028 N1026 1.356 . S
C1029 C1023 1.363 . S
C1029 C1024 1.379 . S
C1029 N1027 1.356 . S
N1030 C1022 1.356 . S
N1030 H1036 0.984 . S
N1030 H1037 0.984 . S
N1031 C1024 1.356 . S
N1031 H1034 0.984 . S
N1031 H1035 0.985 . S
H1032 N1027 0.984 . S
H1033 N1027 0.985 . S
H1034 N1031 0.984 . S
H1035 N1031 0.985 . S
H1036 N1030 0.984 . S
H1037 N1030 0.984 . S
H1038 N1026 0.984 . S
H1039 N1026 0.985 . S
C1040 C1041 1.363 . S
C1040 C1046 1.379 . S
C1040 N1048 1.356 . S
C1041 C1040 1.363 . S
C1041 C1047 1.363 . S
C1042 C1043 1.363 . S
C1042 C1047 1.379 . S
C1042 N1049 1.356 . S
C1043 C1042 1.363 . S
C1043 C1046 1.363 . S
N1044 C1046 1.356 . S
N1044 H1056 0.984 . S
N1044 H1057 0.985 . S
N1045 C1047 1.356 . S
N1045 H1050 0.984 . S
N1045 H1051 0.985 . S
C1046 C1040 1.379 . S
C1046 C1043 1.363 . S
C1046 N1044 1.356 . S
C1047 C1041 1.363 . S
C1047 C1042 1.379 . S
C1047 N1045 1.356 . S
N1048 C1040 1.356 . S
N1048 H1054 0.984 . S
N1048 H1055 0.984 . S
N1049 C1042 1.356 . S
N1049 H1052 0.984 . S
N1049 H1053 0.985 . S
H1050 N1045 0.984 . S
H1051 N1045 0.985 . S
H1052 N1049 0.984 . S
H1053 N1049 0.985 . S
H1054 N1048 0.984 . S
H1055 N1048 0.984 . S
H1056 N1044 0.984 . S
H1057 N1044 0.985 . S
C1058 C1059 1.363 . S
C1058 C1064 1.379 . S
C1058 N1066 1.356 . S
C1059 C1058 1.363 . S
C1059 C1065 1.363 . S
C1060 C1061 1.363 . S
C1060 C1065 1.379 . S
C1060 N1067 1.356 . S
C1061 C1060 1.363 . S
C1061 C1064 1.363 . S
N1062 C1064 1.356 . S
N1062 H1074 0.984 . S
N1062 H1075 0.985 . S
N1063 C1065 1.356 . S
N1063 H1068 0.984 . S
N1063 H1069 0.985 . S
C1064 C1058 1.379 . S
C1064 C1061 1.363 . S
C1064 N1062 1.356 . S
C1065 C1059 1.363 . S
C1065 C1060 1.379 . S
C1065 N1063 1.356 . S
N1066 C1058 1.356 . S
N1066 H1072 0.984 . S
N1066 H1073 0.984 . S
N1067 C1060 1.356 . S
N1067 H1070 0.984 . S
N1067 H1071 0.985 . S
H1068 N1063 0.984 . S
H1069 N1063 0.985 . S
H1070 N1067 0.984 . S
H1071 N1067 0.985 . S
H1072 N1066 0.984 . S
H1073 N1066 0.984 . S
H1074 N1062 0.984 . S
H1075 N1062 0.985 . S
C1076 C1077 1.363 . S
C1076 C1082 1.379 . S
C1076 N1084 1.356 . S
C1077 C1076 1.363 . S
C1077 C1083 1.363 . S
C1078 C1079 1.363 . S
C1078 C1083 1.379 . S
C1078 N1085 1.356 . S
C1079 C1078 1.363 . S
C1079 C1082 1.363 . S
N1080 C1082 1.356 . S
N1080 H1092 0.984 . S
N1080 H1093 0.985 . S
N1081 C1083 1.356 . S
N1081 H1086 0.984 . S
N1081 H1087 0.985 . S
C1082 C1076 1.379 . S
C1082 C1079 1.363 . S
C1082 N1080 1.356 . S
C1083 C1077 1.363 . S
C1083 C1078 1.379 . S
C1083 N1081 1.356 . S
N1084 C1076 1.356 . S
N1084 H1090 0.984 . S
N1084 H1091 0.984 . S
N1085 C1078 1.356 . S
N1085 H1088 0.984 . S
N1085 H1089 0.985 . S
H1086 N1081 0.984 . S
H1087 N1081 0.985 . S
H1088 N1085 0.984 . S
H1089 N1085 0.985 . S
H1090 N1084 0.984 . S
H1091 N1084 0.984 . S
H1092 N1080 0.984 . S
H1093 N1080 0.985 . S
C1094 C1095 1.363 . S
C1094 C1100 1.379 . S
C1094 N1102 1.356 . S
C1095 C1094 1.363 . S
C1095 C1101 1.363 . S
C1096 C1097 1.363 . S
C1096 C1101 1.379 . S
C1096 N1103 1.356 . S
C1097 C1096 1.363 . S
C1097 C1100 1.363 . S
N1098 C1100 1.356 . S
N1098 H1110 0.984 . S
N1098 H1111 0.985 . S
N1099 C1101 1.356 . S
N1099 H1104 0.984 . S
N1099 H1105 0.985 . S
C1100 C1094 1.379 . S
C1100 C1097 1.363 . S
C1100 N1098 1.356 . S
C1101 C1095 1.363 . S
C1101 C1096 1.379 . S
C1101 N1099 1.356 . S
N1102 C1094 1.356 . S
N1102 H1108 0.984 . S
N1102 H1109 0.984 . S
N1103 C1096 1.356 . S
N1103 H1106 0.984 . S
N1103 H1107 0.985 . S
H1104 N1099 0.984 . S
H1105 N1099 0.985 . S
H1106 N1103 0.984 . S
H1107 N1103 0.985 . S
H1108 N1102 0.984 . S
H1109 N1102 0.984 . S
H1110 N1098 0.984 . S
H1111 N1098 0.985 . S
C1112 C1113 1.363 . S
C1112 C1118 1.379 . S
C1112 N1120 1.356 . S
C1113 C1112 1.363 . S
C1113 C1119 1.363 . S
C1114 C1115 1.363 . S
C1114 C1119 1.379 . S
C1114 N1121 1.356 . S
C1115 C1114 1.363 . S
C1115 C1118 1.363 . S
N1116 C1118 1.356 . S
N1116 H1128 0.984 . S
N1116 H1129 0.985 . S
N1117 C1119 1.356 . S
N1117 H1122 0.984 . S
N1117 H1123 0.985 . S
C1118 C1112 1.379 . S
C1118 C1115 1.363 . S
C1118 N1116 1.356 . S
C1119 C1113 1.363 . S
C1119 C1114 1.379 . S
C1119 N1117 1.356 . S
N1120 C1112 1.356 . S
N1120 H1126 0.984 . S
N1120 H1127 0.984 . S
N1121 C1114 1.356 . S
N1121 H1124 0.984 . S
N1121 H1125 0.985 . S
H1122 N1117 0.984 . S
H1123 N1117 0.985 . S
H1124 N1121 0.984 . S
H1125 N1121 0.985 . S
H1126 N1120 0.984 . S
H1127 N1120 0.984 . S
H1128 N1116 0.984 . S
H1129 N1116 0.985 . S
C1130 C1131 1.363 . S
C1130 C1136 1.379 . S
C1130 N1138 1.356 . S
C1131 C1130 1.363 . S
C1131 C1137 1.363 . S
C1132 C1133 1.363 . S
C1132 C1137 1.379 . S
C1132 N1139 1.356 . S
C1133 C1132 1.363 . S
C1133 C1136 1.363 . S
N1134 C1136 1.356 . S
N1134 H1146 0.976 1_556 S
N1134 H1147 0.985 . S
N1135 C1137 1.356 . S
N1135 H1140 0.984 . S
N1135 H1141 0.985 . S
C1136 C1130 1.379 . S
C1136 C1133 1.363 . S
C1136 N1134 1.356 . S
C1137 C1131 1.363 . S
C1137 C1132 1.379 . S
C1137 N1135 1.356 . S
N1138 C1130 1.356 . S
N1138 H1144 0.984 . S
N1138 H1145 0.984 . S
N1139 C1132 1.356 . S
N1139 H1142 0.984 . S
N1139 H1143 0.985 . S
H1140 N1135 0.984 . S
H1141 N1135 0.985 . S
H1142 N1139 0.984 . S
H1143 N1139 0.985 . S
H1144 N1138 0.984 . S
H1145 N1138 0.984 . S
H1146 N1134 0.976 1_554 S
H1147 N1134 0.985 . S
C1148 C1149 1.363 . S
C1148 C1154 1.379 . S
C1148 N1156 1.356 . S
C1149 C1148 1.363 . S
C1149 C1155 1.363 . S
C1150 C1151 1.363 . S
C1150 C1155 1.379 . S
C1150 N1157 1.356 . S
C1151 C1150 1.363 . S
C1151 C1154 1.363 . S
N1152 C1154 1.356 . S
N1152 H1164 0.984 . S
N1152 H1165 0.985 . S
N1153 C1155 1.356 . S
N1153 H1158 0.984 . S
N1153 H1159 0.985 . S
C1154 C1148 1.379 . S
C1154 C1151 1.363 . S
C1154 N1152 1.356 . S
C1155 C1149 1.363 . S
C1155 C1150 1.379 . S
C1155 N1153 1.356 . S
N1156 C1148 1.356 . S
N1156 H1162 0.984 . S
N1156 H1163 0.984 . S
N1157 C1150 1.356 . S
N1157 H1160 0.984 . S
N1157 H1161 0.985 . S
H1158 N1153 0.984 . S
H1159 N1153 0.985 . S
H1160 N1157 0.984 . S
H1161 N1157 0.985 . S
H1162 N1156 0.984 . S
H1163 N1156 0.984 . S
H1164 N1152 0.984 . S
H1165 N1152 0.985 . S
C1166 C1167 1.363 . S
C1166 C1172 1.379 . S
C1166 N1174 1.356 . S
C1167 C1166 1.363 . S
C1167 C1173 1.363 . S
C1168 C1169 1.363 . S
C1168 C1173 1.379 . S
C1168 N1175 1.356 . S
C1169 C1168 1.363 . S
C1169 C1172 1.363 . S
N1170 C1172 1.356 . S
N1170 H1182 0.984 . S
N1170 H1183 0.985 . S
N1171 C1173 1.356 . S
N1171 H1176 0.984 . S
N1171 H1177 0.985 . S
C1172 C1166 1.379 . S
C1172 C1169 1.363 . S
C1172 N1170 1.356 . S
C1173 C1167 1.363 . S
C1173 C1168 1.379 . S
C1173 N1171 1.356 . S
N1174 C1166 1.356 . S
N1174 H1180 0.984 . S
N1174 H1181 0.984 . S
N1175 C1168 1.356 . S
N1175 H1178 0.984 . S
N1175 H1179 0.985 . S
H1176 N1171 0.984 . S
H1177 N1171 0.985 . S
H1178 N1175 0.984 . S
H1179 N1175 0.985 . S
H1180 N1174 0.984 . S
H1181 N1174 0.984 . S
H1182 N1170 0.984 . S
H1183 N1170 0.985 . S
C611 C213 1.566 . S
C609 C16 1.583 . S
C629 C266 1.341 . S
C627 C30 1.344 . S
C647 C329 1.638 . S
C645 C53 1.639 . S
C665 C372 1.324 . S
C663 C76 1.330 . S
C681 N104 1.476 . S
C683 C328 1.542 . S
C701 C365 1.320 . S
C699 N127 1.269 . S
C719 C206 1.453 . S
C717 N140 1.423 . S
C737 C259 1.197 . S
C735 N173 1.166 . S
C755 C312 1.525 . S
C753 C168 1.523 . S
C773 C381 1.882 . S
C771 C99 1.881 . S
C791 C222 1.608 . S
C789 C122 1.605 . S
C809 C275 1.767 . S
C807 C154 1.754 . S
C827 C223 1.537 . S
C825 N35 1.487 . S
C845 C276 1.748 . S
C843 N58 1.698 . S
C863 C319 1.461 . S
C861 N81 1.424 . S
C881 C382 1.694 . S
C879 N2 1.660 . S
C899 C425 1.519 . S
C897 C177 1.537 . S
C915 C108 1.729 . S
C917 C478 1.721 . S
C933 C131 1.687 . S
C935 C540 1.674 . S
C951 C145 1.740 . S
C953 C594 1.736 . S
C969 N25 1.489 . S
C971 C541 1.523 . S
C987 N48 1.665 . S
C989 C593 1.725 . S
C1005 N71 1.471 . S
C1007 C418 1.503 . S
C1025 C471 1.559 . S
C1023 N12 1.516 . S
C1043 C531 1.505 . S
C1041 C7 1.503 . S
C1059 C39 1.402 . S
C1061 C577 1.415 . S
C1077 C62 1.648 . S
C1079 C434 1.652 . S
C1095 C85 1.324 . S
C1097 C487 1.329 . S
C1115 C435 1.504 . S
C1113 N94 1.483 . S
C1133 C488 1.369 . S
C1131 N117 1.326 . S
C1149 N150 1.439 . S
C1151 C524 1.480 . S
C1169 C584 1.271 . S
C1167 N163 1.229 . S
