# Generated by pormake.
# Topology pth, (4,4)-cn, num edge types: 1
# Building blocks:
#     Node 0, Type 0, BuildingBlock: AZAVOO_clean_sbu_0, # of connection points: 4
#     Node 1, Type 0, BuildingBlock: AZAVOO_clean_sbu_0, # of connection points: 4
#     Node 2, Type 0, BuildingBlock: AZAVOO_clean_sbu_0, # of connection points: 4
#     Node 3, Type 1, BuildingBlock: MUDLON_clean_sbu_0, # of connection points: 4
#     Node 4, Type 1, BuildingBlock: MUDLON_clean_sbu_0, # of connection points: 4
#     Node 5, Type 1, BuildingBlock: MUDLON_clean_sbu_0, # of connection points: 4
#     Edge 6, Type (0, 1), BuildingBlock: MIFKUJ_clean_linker_0, # of connection points: 2
#     Edge 7, Type (0, 1), BuildingBlock: MIFKUJ_clean_linker_0, # of connection points: 2
#     Edge 8, Type (0, 1), BuildingBlock: MIFKUJ_clean_linker_0, # of connection points: 2
#     Edge 9, Type (0, 1), BuildingBlock: MIFKUJ_clean_linker_0, # of connection points: 2
#     Edge 10, Type (0, 1), BuildingBlock: MIFKUJ_clean_linker_0, # of connection points: 2
#     Edge 11, Type (0, 1), BuildingBlock: MIFKUJ_clean_linker_0, # of connection points: 2
#     Edge 12, Type (0, 1), BuildingBlock: MIFKUJ_clean_linker_0, # of connection points: 2
#     Edge 13, Type (0, 1), BuildingBlock: MIFKUJ_clean_linker_0, # of connection points: 2
#     Edge 14, Type (0, 1), BuildingBlock: MIFKUJ_clean_linker_0, # of connection points: 2
#     Edge 15, Type (0, 1), BuildingBlock: MIFKUJ_clean_linker_0, # of connection points: 2
#     Edge 16, Type (0, 1), BuildingBlock: MIFKUJ_clean_linker_0, # of connection points: 2
#     Edge 17, Type (0, 1), BuildingBlock: MIFKUJ_clean_linker_0, # of connection points: 2
# Relax obj value: 0.104
# Max RMSD: 0.230
# Mean RMSD: 0.137
data_MOF--net-pth--node1-AZAVOO_clean_sbu_0--node2-MUDLON_clean_sbu_0--edge1-MIFKUJ_clean_linker_0
_symmetry_space_group_name_H-M    P1
_symmetry_Int_Tables_number       1
_symmetry_cell_setting            triclinic
loop_
_symmetry_equiv_pos_as_xyz
'x, y, z'
_cell_length_a     29.192589
_cell_length_b     29.76644
_cell_length_c     77.129843
_cell_angle_alpha  90.767725
_cell_angle_beta   92.890453
_cell_angle_gamma 122.01317
loop_
_atom_site_label
_atom_site_type_symbol
_atom_site_fract_x
_atom_site_fract_y
_atom_site_fract_z
_atom_type_partial_charge
Mg0 Mg 0.13769 0.13939 0.08998 0.0
O1 O 0.06284 0.08953 0.07078 0.0
O2 O 0.05751 0.14674 0.0536 0.0
Mg3 Mg 0.12754 0.23107 0.06126 0.0
C4 C 0.03963 0.09949 0.05823 0.0
C5 C 0.11017 0.02795 0.10196 0.0
O6 O 0.11735 0.02342 0.0855 0.0
O7 O 0.09172 0.16793 0.10515 0.0
O8 O 0.09174 0.22709 0.08762 0.0
O9 O 0.19074 0.13354 0.07135 0.0
O10 O 0.17392 0.19755 0.07176 0.0
C11 C 0.08041 0.20309 0.10188 0.0
C12 C 0.19649 0.17556 0.06451 0.0
O13 O 0.11277 0.0697 0.10754 0.0
Mg14 Mg 1.00236 0.08494 0.41083 0.0
O15 O 0.06712 0.08486 0.42912 0.0
O16 O 0.10399 0.15736 0.44679 0.0
Mg17 Mg 0.06137 0.20207 0.44075 0.0
C18 C 0.10071 0.11478 0.44157 0.0
C19 C 0.95704 0.9862 0.38485 0.0
O20 O 0.91205 0.98461 0.38739 0.0
O21 O 0.06597 0.15267 0.39537 0.0
O22 O 0.09409 0.22269 0.4136 0.0
O23 O 0.93851 0.0403 0.42977 0.0
O24 O 0.99001 0.12751 0.42984 0.0
C25 C 0.09387 0.20273 0.3988 0.0
C26 C 0.95289 0.086 0.43686 0.0
O27 O 1.00103 0.02253 0.39272 0.0
Mg28 Mg 0.03069 0.04241 0.75198 0.0
O29 O 0.07122 0.11886 0.76947 0.0
O30 O 0.00773 0.11679 0.78504 0.0
Mg31 Mg 0.92776 0.03801 0.77839 0.0
C32 C 0.05662 0.13972 0.78079 0.0
C33 C 0.09824 0.05194 0.72134 0.0
O34 O 0.05187 0.00727 0.71755 0.0
O35 O 0.98694 0.07071 0.7341 0.0
O36 O 0.92135 0.06093 0.75039 0.0
O37 O 0.04793 1.0003 0.77276 0.0
O38 O 0.97341 0.00223 0.77022 0.0
C39 C 0.94435 0.07187 0.73604 0.0
C40 C 1.00196 0.98742 0.77869 0.0
O41 O 0.1036 0.07834 0.73521 0.0
Mg42 Mg 0.05232 0.58801 0.25084 0.0
C43 C 0.08183 0.55225 0.28295 0.0
O44 O 0.04073 0.55534 0.28742 0.0
C45 C 0.09862 0.65043 0.21889 0.0
O46 O 0.07858 0.60233 0.21214 0.0
C47 C 0.9952 0.47423 0.23653 0.0
O48 O 0.00617 0.46698 0.2526 0.0
O49 O 0.00517 0.51983 0.23263 0.0
O50 O 0.09966 0.56739 0.26805 0.0
O51 O 0.00634 0.60925 0.2668 0.0
C52 C 0.99427 0.64228 0.26155 0.0
O53 O 0.00378 0.658 0.24557 0.0
O54 O 0.09819 0.65675 0.23522 0.0
Mg55 Mg 0.54827 0.10845 0.57807 0.0
C56 C 0.43933 0.02528 0.5551 0.0
O57 O 0.42595 0.98904 0.56666 0.0
C58 C 0.60472 0.05424 0.59163 0.0
O59 O 0.62634 0.06794 0.57658 0.0
C60 C 0.47549 0.10991 0.60101 0.0
O61 O 0.45584 0.06081 0.59537 0.0
O62 O 0.52088 0.14599 0.59586 0.0
O63 O 0.48348 0.07 0.55741 0.0
O64 O 0.62253 0.15638 0.56468 0.0
C65 C 0.61755 0.1575 0.54823 0.0
O66 O 0.56962 0.1419 0.54083 0.0
O67 O 0.5659 0.06033 0.59473 0.0
Mg68 Mg 0.56834 0.58827 0.9191 0.0
C69 C 0.49382 0.55293 0.88749 0.0
O70 O 0.53938 0.56208 0.88168 0.0
C71 C 0.6428 0.66107 0.94604 0.0
O72 O 0.65966 0.62986 0.94139 0.0
C73 C 0.51484 0.4729 0.92794 0.0
O74 O 0.49127 0.46602 0.91233 0.0
O75 O 0.55272 0.51931 0.93325 0.0
O76 O 0.4934 0.56401 0.90347 0.0
O77 O 0.63376 0.62226 0.90166 0.0
C78 C 0.67366 0.6169 0.89981 0.0
O79 O 0.67883 0.58289 0.90904 0.0
O80 O 0.59838 0.65241 0.93888 0.0
H81 H 0.05825 0.28158 0.10052 0.0
H82 H 0.02776 0.31421 0.1236 0.0
H83 H 0.01643 0.1936 0.15674 0.0
H84 H 0.04825 0.16129 0.1338 0.0
H85 H 0.94029 0.27583 0.14164 0.0
H86 H 0.05491 0.24487 0.19841 0.0
H87 H 0.13437 0.23702 0.20392 0.0
H88 H 0.20832 0.33149 0.16029 0.0
H89 H 0.12963 0.34042 0.15467 0.0
H90 H 0.9752 0.37422 0.24022 0.0
H91 H 0.97093 0.31397 0.21746 0.0
H92 H 0.98532 0.42305 0.17868 0.0
H93 H 0.9886 0.48299 0.20129 0.0
H94 H 0.05063 0.3357 0.19778 0.0
H95 H 0.93302 0.35957 0.13932 0.0
H96 H 0.85564 0.37059 0.13383 0.0
H97 H 0.78926 0.2944 0.18105 0.0
H98 H 0.86583 0.28226 0.18671 0.0
C99 C 0.04891 0.26157 0.11265 0.0
C100 C 0.05641 0.21912 0.11533 0.0
C101 C 0.03121 0.28023 0.12584 0.0
C102 C 0.02053 0.25693 0.14202 0.0
C103 C 0.02536 0.21286 0.14447 0.0
C104 C 0.04342 0.19433 0.13131 0.0
C105 C 0.00748 0.28093 0.15651 0.0
C106 C 0.96453 0.28917 0.1539 0.0
C107 C 0.03831 0.29731 0.17266 0.0
C108 C 0.0861 0.2927 0.17601 0.0
C109 C 0.0882 0.26404 0.19003 0.0
C110 C 0.13309 0.25941 0.19317 0.0
C111 C 0.17626 0.28356 0.18242 0.0
C112 C 0.17475 0.31261 0.16856 0.0
C113 C 0.13 0.31741 0.16538 0.0
C114 C 0.97617 0.38487 0.22681 0.0
C115 C 0.98259 0.43365 0.22261 0.0
C116 C 0.97391 0.3504 0.21381 0.0
C117 C 0.97779 0.36383 0.19633 0.0
C118 C 0.98143 0.4113 0.19202 0.0
C119 C 0.98349 0.44571 0.205 0.0
C120 C 0.98369 0.3312 0.1829 0.0
C121 C 0.0256 0.32156 0.18567 0.0
C122 C 0.95207 0.31387 0.16689 0.0
C123 C 0.90546 0.32041 0.1635 0.0
C124 C 0.90179 0.34493 0.14849 0.0
C125 C 0.85809 0.35142 0.14536 0.0
C126 C 0.81764 0.33333 0.15711 0.0
C127 C 0.82072 0.30857 0.17199 0.0
C128 C 0.86432 0.30195 0.17519 0.0
H129 H 0.78386 0.33843 0.15467 0.0
H130 H 0.21095 0.27989 0.18486 0.0
H131 H 0.8475 0.02046 0.44394 0.0
H132 H 0.79788 0.03753 0.46513 0.0
H133 H 0.94604 0.1797 0.48424 0.0
H134 H 0.99561 0.16359 0.46285 0.0
H135 H 0.85749 0.098 0.51035 0.0
H136 H 0.89263 0.21353 0.46108 0.0
H137 H 0.89157 0.22645 0.42957 0.0
H138 H 0.72055 0.11152 0.42439 0.0
H139 H 0.72085 0.09734 0.45585 0.0
H140 H 0.72566 0.19955 0.55743 0.0
H141 H 0.79138 0.19471 0.54019 0.0
H142 H 0.66866 0.11441 0.49805 0.0
H143 H 0.60479 0.12257 0.51459 0.0
H144 H 0.75321 0.17127 0.4842 0.0
H145 H 0.71039 0.0485 0.52972 0.0
H146 H 0.70197 0.01945 0.55979 0.0
H147 H 0.87243 0.12894 0.57127 0.0
H148 H 0.88179 0.15853 0.54118 0.0
C149 C 0.86967 0.0547 0.45292 0.0
C150 C 0.9253 0.09101 0.45164 0.0
C151 C 0.8413 0.06445 0.46496 0.0
C152 C 0.8684 0.10998 0.47614 0.0
C153 C 0.92454 0.14437 0.4757 0.0
C154 C 0.9527 0.13528 0.4634 0.0
C155 C 0.83727 0.12429 0.48702 0.0
C156 C 0.83522 0.11476 0.50478 0.0
C157 C 0.80719 0.14467 0.47957 0.0
C158 C 0.80688 0.15404 0.46076 0.0
C159 C 0.85492 0.19072 0.45319 0.0
C160 C 0.85444 0.19833 0.43535 0.0
C161 C 0.80605 0.16973 0.42497 0.0
C162 C 0.75801 0.1336 0.43243 0.0
C163 C 0.75831 0.12581 0.45026 0.0
C164 C 0.71322 0.18188 0.54434 0.0
C165 C 0.66001 0.16152 0.5374 0.0
C166 C 0.75059 0.17844 0.53457 0.0
C167 C 0.73488 0.15294 0.5179 0.0
C168 C 0.68221 0.13434 0.51081 0.0
C169 C 0.64551 0.13906 0.52034 0.0
C170 C 0.77216 0.14433 0.50779 0.0
C171 C 0.77562 0.155 0.49004 0.0
C172 C 0.80214 0.12339 0.51519 0.0
C173 C 0.79665 0.10613 0.5333 0.0
C174 C 0.74598 0.06661 0.5387 0.0
C175 C 0.74107 0.05 0.55573 0.0
C176 C 0.7866 0.07255 0.56748 0.0
C177 C 0.83718 0.1116 0.56217 0.0
C178 C 0.84235 0.12821 0.54512 0.0
H179 H 0.78275 0.05964 0.58067 0.0
H180 H 0.80576 0.17564 0.41116 0.0
H181 H 0.03924 0.92982 0.79444 0.0
H182 H 0.99861 0.8681 0.81781 0.0
H183 H 0.87841 0.90969 0.821 0.0
H184 H 0.91797 0.97042 0.79765 0.0
H185 H 0.92009 0.90151 0.85371 0.0
H186 H 0.84709 0.80302 0.79809 0.0
H187 H 0.85415 0.77054 0.76938 0.0
H188 H 0.93127 0.69613 0.79362 0.0
H189 H 0.9253 0.72887 0.82248 0.0
H190 H 0.67903 0.69853 0.88259 0.0
H191 H 0.75034 0.76185 0.8651 0.0
H192 H 0.83665 0.68219 0.87332 0.0
H193 H 0.76483 0.61794 0.89118 0.0
H194 H 0.83056 0.7093 0.83817 0.0
H195 H 0.88626 0.79359 0.89443 0.0
H196 H 0.87597 0.8244 0.92296 0.0
H197 H 0.83142 0.92511 0.89795 0.0
H198 H 0.84049 0.89422 0.86924 0.0
C199 C 0.00464 0.92638 0.80031 0.0
C200 C 0.98176 0.95501 0.79413 0.0
C201 C 0.98141 0.89099 0.81361 0.0
C202 C 0.93536 0.88417 0.82106 0.0
C203 C 0.91403 0.91446 0.81545 0.0
C204 C 0.93668 0.94916 0.80204 0.0
C205 C 0.90687 0.84336 0.83394 0.0
C206 C 0.90061 0.85949 0.85036 0.0
C207 C 0.88282 0.7886 0.82972 0.0
C208 C 0.88647 0.76901 0.8124 0.0
C209 C 0.86604 0.78019 0.79728 0.0
C210 C 0.86974 0.76164 0.78098 0.0
C211 C 0.89334 0.73147 0.77967 0.0
C212 C 0.91314 0.71964 0.79465 0.0
C213 C 0.90961 0.73818 0.81098 0.0
C214 C 0.71296 0.69406 0.88071 0.0
C215 C 0.71624 0.65314 0.88838 0.0
C216 C 0.75389 0.7306 0.87075 0.0
C217 C 0.79914 0.7272 0.86814 0.0
C218 C 0.80215 0.68563 0.87531 0.0
C219 C 0.76115 0.64904 0.88549 0.0
C220 C 0.84247 0.76744 0.85776 0.0
C221 C 0.85136 0.7513 0.84177 0.0
C222 C 0.86903 0.82224 0.86239 0.0
C223 C 0.8638 0.84132 0.87965 0.0
C224 C 0.87387 0.82201 0.89499 0.0
C225 C 0.86831 0.83953 0.91121 0.0
C226 C 0.853 0.87664 0.91227 0.0
C227 C 0.84329 0.89636 0.89711 0.0
C228 C 0.84871 0.87891 0.88086 0.0
H229 H 0.84873 0.89017 0.92483 0.0
H230 H 0.89613 0.7171 0.76704 0.0
H231 H 0.11148 0.03284 0.13751 0.0
H232 H 0.11209 0.97035 0.15766 0.0
H233 H 0.0999 0.87049 0.11439 0.0
H234 H 0.09909 0.93262 0.09414 0.0
H235 H 0.03342 0.81291 0.1398 0.0
H236 H 0.22009 0.95129 0.13606 0.0
H237 H 0.298 0.04365 0.13759 0.0
H238 H 0.27508 0.05968 0.19135 0.0
H239 H 0.1965 0.96758 0.19007 0.0
H240 H 0.10301 0.65003 0.1836 0.0
H241 H 0.10868 0.71658 0.16414 0.0
H242 H 0.12604 0.81614 0.20829 0.0
H243 H 0.12114 0.75001 0.22791 0.0
H244 H 0.18969 0.87476 0.18287 0.0
H245 H 0.00377 0.73755 0.18694 0.0
H246 H 0.92532 0.64551 0.18577 0.0
H247 H 0.94547 0.62787 0.13184 0.0
H248 H 0.0246 0.71962 0.13276 0.0
C249 C 0.10842 0.99735 0.13226 0.0
C250 C 0.1055 0.98789 0.11419 0.0
C251 C 0.1091 0.96182 0.14381 0.0
C252 C 0.10683 0.91613 0.13753 0.0
C253 C 0.10193 0.90561 0.11952 0.0
C254 C 0.10153 0.94123 0.10796 0.0
C255 C 0.11039 0.87966 0.14971 0.0
C256 C 0.0679 0.82629 0.14907 0.0
C257 C 0.15477 0.8974 0.1621 0.0
C258 C 0.20207 0.95273 0.16292 0.0
C259 C 0.23138 0.97465 0.14817 0.0
C260 C 0.27571 0.02693 0.149 0.0
C261 C 0.29139 0.05756 0.16455 0.0
C262 C 0.26284 0.03593 0.17931 0.0
C263 C 0.21843 0.98368 0.17854 0.0
C264 C 0.10894 0.68644 0.18921 0.0
C265 C 0.11112 0.69442 0.20732 0.0
C266 C 0.11187 0.72435 0.17805 0.0
C267 C 0.11658 0.77083 0.18474 0.0
C268 C 0.12207 0.78042 0.20283 0.0
C269 C 0.11931 0.74255 0.21403 0.0
C270 C 0.11288 0.80792 0.17288 0.0
C271 C 0.15523 0.86139 0.17361 0.0
C272 C 0.06822 0.79036 0.1606 0.0
C273 C 0.02044 0.73529 0.15997 0.0
C274 C 0.99172 0.71392 0.17487 0.0
C275 C 0.9471 0.66182 0.17424 0.0
C276 C 0.9305 0.63081 0.15875 0.0
C277 C 0.95842 0.65191 0.14384 0.0
C278 C 0.00314 0.70397 0.1444 0.0
H279 H 0.89594 0.59049 0.15829 0.0
H280 H 0.32573 0.09803 0.16516 0.0
H281 H 0.10482 0.02588 0.43514 0.0
H282 H 0.15533 0.99552 0.45237 0.0
H283 H 0.22335 0.13507 0.48657 0.0
H284 H 0.17304 0.16554 0.46962 0.0
H285 H 0.26288 0.0374 0.46074 0.0
H286 H 0.22876 0.10185 0.52787 0.0
H287 H 0.15969 0.1117 0.54147 0.0
H288 H 0.03691 0.99556 0.50465 0.0
H289 H 0.10506 0.98442 0.49099 0.0
H290 H 0.46038 0.08549 0.52683 0.0
H291 H 0.3956 0.08342 0.50523 0.0
H292 H 0.2653 0.94784 0.52857 0.0
H293 H 0.33035 0.95015 0.55058 0.0
H294 H 0.24233 0.02226 0.52426 0.0
H295 H 0.30115 0.93572 0.48786 0.0
H296 H 0.36645 0.92059 0.47403 0.0
H297 H 0.43155 0.06832 0.44893 0.0
H298 H 0.36716 0.08474 0.46281 0.0
C299 C 0.13079 0.05032 0.44627 0.0
C300 C 0.13448 0.09805 0.45103 0.0
C301 C 0.15967 0.03288 0.45608 0.0
C302 C 0.19241 0.06258 0.47091 0.0
C303 C 0.19755 0.11101 0.47536 0.0
C304 C 0.16889 0.12851 0.46557 0.0
C305 C 0.22085 0.04306 0.48199 0.0
C306 C 0.25824 0.03378 0.47461 0.0
C307 C 0.21363 0.03683 0.5 0.0
C308 C 0.17216 0.04261 0.50833 0.0
C309 C 0.18698 0.07819 0.52273 0.0
C310 C 0.14799 0.08405 0.53044 0.0
C311 C 0.09397 0.05438 0.5239 0.0
C312 C 0.07879 0.01864 0.50967 0.0
C313 C 0.1176 0.01259 0.50193 0.0
C314 C 0.41808 0.05461 0.52726 0.0
C315 C 0.40055 0.01814 0.54052 0.0
C316 C 0.38103 0.05328 0.51478 0.0
C317 C 0.32552 0.01528 0.51517 0.0
C318 C 0.30797 0.97747 0.528 0.0
C319 C 0.34521 0.97866 0.54051 0.0
C320 C 0.28605 0.01863 0.50315 0.0
C321 C 0.24653 0.02502 0.51035 0.0
C322 C 0.29079 0.02137 0.48495 0.0
C323 C 0.32944 0.01157 0.47646 0.0
C324 C 0.32961 0.96516 0.47948 0.0
C325 C 0.36644 0.95633 0.47162 0.0
C326 C 0.40317 0.9935 0.46062 0.0
C327 C 0.40307 0.03955 0.45745 0.0
C328 C 0.36634 0.04859 0.46528 0.0
H329 H 0.43167 0.9866 0.45455 0.0
H330 H 0.06387 0.05902 0.52987 0.0
H331 H 0.041 0.20188 0.8033 0.0
H332 H 0.10988 0.27925 0.82123 0.0
H333 H 0.23534 0.26827 0.79819 0.0
H334 H 0.16693 0.191 0.7802 0.0
H335 H 0.24666 0.27484 0.83385 0.0
H336 H 0.21615 0.36602 0.78799 0.0
H337 H 0.16154 0.38763 0.76854 0.0
H338 H 0.11121 0.43621 0.81263 0.0
H339 H 0.16497 0.41417 0.83237 0.0
H340 H 0.48429 0.52263 0.85344 0.0
H341 H 0.40206 0.45938 0.83603 0.0
H342 H 0.30563 0.449 0.87808 0.0
H343 H 0.38847 0.51204 0.89597 0.0
H344 H 0.27372 0.45424 0.83515 0.0
H345 H 0.29642 0.35433 0.88101 0.0
H346 H 0.35276 0.33475 0.9004 0.0
H347 H 0.41786 0.30453 0.85615 0.0
H348 H 0.36186 0.32423 0.83649 0.0
C349 C 0.08326 0.21624 0.80188 0.0
C350 C 0.09833 0.18996 0.79032 0.0
C351 C 0.12259 0.26061 0.81212 0.0
C352 C 0.17774 0.27952 0.81105 0.0
C353 C 0.19298 0.25425 0.79924 0.0
C354 C 0.15376 0.21017 0.78891 0.0
C355 C 0.21952 0.32376 0.82289 0.0
C356 C 0.25247 0.314 0.83405 0.0
C357 C 0.22643 0.37463 0.82352 0.0
C358 C 0.19407 0.38785 0.81167 0.0
C359 C 0.19302 0.38082 0.79355 0.0
C360 C 0.16232 0.39326 0.78247 0.0
C361 C 0.13278 0.41312 0.78935 0.0
C362 C 0.13402 0.42072 0.80732 0.0
C363 C 0.16463 0.4083 0.81846 0.0
C364 C 0.4457 0.50779 0.85898 0.0
C365 C 0.44308 0.52206 0.87621 0.0
C366 C 0.3987 0.47173 0.84894 0.0
C367 C 0.348 0.44956 0.8558 0.0
C368 C 0.34457 0.466 0.87257 0.0
C369 C 0.39189 0.50192 0.88276 0.0
C370 C 0.30017 0.40485 0.84599 0.0
C371 C 0.26676 0.41463 0.83512 0.0
C372 C 0.29227 0.35377 0.84566 0.0
C373 C 0.32547 0.34125 0.85733 0.0
C374 C 0.32309 0.34391 0.87544 0.0
C375 C 0.35489 0.33272 0.88647 0.0
C376 C 0.38916 0.31869 0.87952 0.0
C377 C 0.3914 0.31552 0.86152 0.0
C378 C 0.35954 0.32657 0.85042 0.0
H379 H 0.41382 0.31012 0.88809 0.0
H380 H 0.10905 0.42274 0.78074 0.0
H381 H 0.96316 0.06996 0.70158 0.0
H382 H 0.90654 0.06633 0.67647 0.0
H383 H 0.80504 0.08571 0.71062 0.0
H384 H 0.86072 0.08843 0.73576 0.0
H385 H 0.74515 0.00416 0.68829 0.0
H386 H 0.89183 0.18507 0.68419 0.0
H387 H 0.98701 0.25728 0.68224 0.0
H388 H 0.99417 0.18512 0.63471 0.0
H389 H 0.8992 0.11208 0.63649 0.0
H390 H 0.58857 0.05136 0.6264 0.0
H391 H 0.64688 0.05195 0.6503 0.0
H392 H 0.74486 0.03619 0.61359 0.0
H393 H 0.68733 0.03697 0.58961 0.0
H394 H 0.80745 0.11317 0.63655 0.0
H395 H 0.66063 0.93354 0.64009 0.0
H396 H 0.56557 0.8609 0.64189 0.0
H397 H 0.55878 0.92953 0.69027 0.0
H398 H 0.65363 0.00297 0.68866 0.0
C399 C 0.92947 0.07457 0.70375 0.0
C400 C 0.91641 0.07923 0.72073 0.0
C401 C 0.89705 0.07244 0.68935 0.0
C402 C 0.85137 0.07563 0.69163 0.0
C403 C 0.83979 0.08275 0.70853 0.0
C404 C 0.87191 0.08457 0.7229 0.0
C405 C 0.81368 0.06835 0.67659 0.0
C406 C 0.75868 0.0285 0.67707 0.0
C407 C 0.83152 0.09884 0.66169 0.0
C408 C 0.88857 0.14282 0.66058 0.0
C409 C 0.91383 0.18438 0.6734 0.0
C410 C 0.96772 0.2255 0.67231 0.0
C411 C 0.99667 0.22571 0.65839 0.0
C412 C 0.97173 0.18487 0.6455 0.0
C413 C 0.91786 0.14363 0.64654 0.0
C414 C 0.62181 0.04686 0.62338 0.0
C415 C 0.63339 0.04428 0.60604 0.0
C416 C 0.6552 0.04717 0.6371 0.0
C417 C 0.70034 0.04398 0.6338 0.0
C418 C 0.7105 0.03897 0.6165 0.0
C419 C 0.67736 0.03909 0.60278 0.0
C420 C 0.73876 0.04928 0.64832 0.0
C421 C 0.79392 0.08868 0.64773 0.0
C422 C 0.72111 0.01828 0.66312 0.0
C423 C 0.66412 0.974 0.66417 0.0
C424 C 0.63876 0.93334 0.65105 0.0
C425 C 0.58493 0.89199 0.65205 0.0
C426 C 0.55612 0.89066 0.66617 0.0
C427 C 0.58113 0.93062 0.67934 0.0
C428 C 0.63495 0.97209 0.6784 0.0
H429 H 0.51444 0.85862 0.66691 0.0
H430 H 0.03839 0.25758 0.65757 0.0
H431 H 0.99013 0.99245 0.06281 0.0
H432 H 0.91587 0.91977 0.04458 0.0
H433 H 0.9064 0.03286 0.01271 0.0
H434 H 0.98059 0.10561 0.03067 0.0
H435 H 0.81006 0.88828 0.03535 0.0
H436 H 0.88338 0.98511 0.96995 0.0
H437 H 0.96764 0.05115 0.95699 0.0
H438 H 0.06062 0.01999 0.99424 0.0
H439 H 0.97686 0.95313 0.00723 0.0
H440 H 0.61802 0.7272 0.96299 0.0
H441 H 0.67889 0.80358 0.98309 0.0
H442 H 0.80705 0.77461 0.97656 0.0
H443 H 0.74725 0.69894 0.95686 0.0
H444 H 0.84011 0.87946 0.97297 0.0
H445 H 0.74259 0.73844 0.01215 0.0
H446 H 0.66064 0.66785 0.02498 0.0
H447 H 0.62063 0.7814 0.0405 0.0
H448 H 0.70204 0.85258 0.02754 0.0
C449 C 0.97199 1.00192 0.05201 0.0
C450 C 0.99183 0.05501 0.04814 0.0
C451 C 0.92937 0.96029 0.04165 0.0
C452 C 0.90598 0.9709 0.02718 0.0
C453 C 0.92427 0.02374 0.02368 0.0
C454 C 0.96676 0.06532 0.03401 0.0
C455 C 0.86471 0.92689 0.01517 0.0
C456 C 0.81646 0.88653 0.02169 0.0
C457 C 0.87311 0.92443 0.99735 0.0
C458 C 0.92386 0.9646 0.98969 0.0
C459 C 0.92181 0.99231 0.97536 0.0
C460 C 0.96946 0.02984 0.968 0.0
C461 C 0.01944 0.03983 0.97481 0.0
C462 C 0.02188 0.01231 0.98901 0.0
C463 C 0.97432 0.97464 0.99639 0.0
C464 C 0.65914 0.73717 0.96591 0.0
C465 C 0.6777 0.7069 0.95836 0.0
C466 C 0.69377 0.78065 0.97739 0.0
C467 C 0.74748 0.79468 0.9813 0.0
C468 C 0.76587 0.76459 0.9737 0.0
C469 C 0.73139 0.7211 0.96248 0.0
C470 C 0.7855 0.84087 0.99313 0.0
C471 C 0.83326 0.8817 0.98657 0.0
C472 C 0.77686 0.84338 0.01091 0.0
C473 C 0.72799 0.80067 0.01869 0.0
C474 C 0.71603 0.74825 0.01815 0.0
C475 C 0.66976 0.70816 0.02548 0.0
C476 C 0.63535 0.7201 0.0335 0.0
C477 C 0.64725 0.77219 0.03425 0.0
C478 C 0.69346 0.81242 0.02693 0.0
H479 H 0.59955 0.68901 0.03917 0.0
H480 H 0.05624 0.06872 0.96904 0.0
H481 H 0.04263 0.97788 0.37664 0.0
H482 H 0.04204 0.9149 0.35581 0.0
H483 H 0.87042 0.84331 0.34437 0.0
H484 H 0.87048 0.90561 0.36537 0.0
H485 H 0.89449 0.76845 0.34667 0.0
H486 H 0.96085 0.92975 0.31693 0.0
H487 H 0.0203 0.02561 0.31286 0.0
H488 H 0.15897 0.0108 0.31455 0.0
H489 H 0.10039 0.91492 0.31888 0.0
H490 H 0.96444 0.71335 0.25445 0.0
H491 H 0.94933 0.76613 0.27522 0.0
H492 H 0.97523 0.68714 0.31757 0.0
H493 H 0.98928 0.63341 0.29685 0.0
H494 H 0.01837 0.83664 0.29878 0.0
H495 H 0.9086 0.68851 0.35235 0.0
H496 H 0.84328 0.59278 0.35492 0.0
H497 H 0.78011 0.58091 0.30242 0.0
H498 H 0.84453 0.67665 0.29962 0.0
C499 C 0.0047 0.94865 0.36974 0.0
C500 C 0.95665 0.94705 0.37261 0.0
C501 C 0.00445 0.91273 0.35779 0.0
C502 C 0.95629 0.87472 0.34835 0.0
C503 C 0.90807 0.87227 0.35148 0.0
C504 C 0.90824 0.9081 0.36345 0.0
C505 C 0.95641 0.83834 0.33496 0.0
C506 C 0.92161 0.78332 0.33621 0.0
C507 C 0.99098 0.85767 0.32109 0.0
C508 C 0.02628 0.91525 0.31839 0.0
C509 C 0.00407 0.94701 0.31656 0.0
C510 C 0.0376 1.00133 0.31419 0.0
C511 C 0.09339 0.0243 0.31349 0.0
C512 C 0.11575 0.99296 0.31511 0.0
C513 C 0.0824 0.93862 0.31751 0.0
C514 C 0.96602 0.70652 0.26817 0.0
C515 C 0.97816 0.66916 0.27397 0.0
C516 C 0.95762 0.73695 0.28004 0.0
C517 C 0.96108 0.73071 0.29798 0.0
C518 C 0.97158 0.69228 0.3038 0.0
C519 C 0.97972 0.66159 0.29192 0.0
C520 C 0.95694 0.76656 0.31058 0.0
C521 C 0.99117 0.82161 0.30922 0.0
C522 C 0.92109 0.7472 0.32413 0.0
C523 C 0.88177 0.68967 0.32573 0.0
C524 C 0.88063 0.6655 0.34138 0.0
C525 C 0.84379 0.61123 0.34287 0.0
C526 C 0.80769 0.58075 0.32882 0.0
C527 C 0.80823 0.60452 0.31327 0.0
C528 C 0.84496 0.65877 0.31172 0.0
H529 H 0.77923 0.53874 0.33 0.0
H530 H 0.11929 0.06637 0.31165 0.0
H531 H 0.19893 0.14421 0.72422 0.0
H532 H 0.27451 0.17 0.70574 0.0
H533 H 0.17581 0.02492 0.67447 0.0
H534 H 0.10064 0.99902 0.69269 0.0
H535 H 0.27585 0.04266 0.68477 0.0
H536 H 0.20032 0.14117 0.65997 0.0
H537 H 0.17366 0.20708 0.66114 0.0
H538 H 0.33737 0.32935 0.67706 0.0
H539 H 0.36483 0.26395 0.67621 0.0
H540 H 0.36844 0.04839 0.60503 0.0
H541 H 0.31741 0.05602 0.62754 0.0
H542 H 0.46002 0.20169 0.64777 0.0
H543 H 0.51215 0.19446 0.62483 0.0
H544 H 0.35674 0.1987 0.64789 0.0
H545 H 0.43468 0.10208 0.66866 0.0
H546 H 0.46105 0.0361 0.66676 0.0
H547 H 0.29385 0.91087 0.65892 0.0
H548 H 0.26649 0.97619 0.66049 0.0
C549 C 0.19332 0.11798 0.71335 0.0
C550 C 0.14376 0.06944 0.70997 0.0
C551 C 0.23649 0.13286 0.70278 0.0
C552 C 0.23078 0.09936 0.68874 0.0
C553 C 0.1812 0.05129 0.68528 0.0
C554 C 0.13815 0.03659 0.69571 0.0
C555 C 0.27639 0.1127 0.67778 0.0
C556 C 0.29354 0.07682 0.67673 0.0
C557 C 0.30101 0.15836 0.66778 0.0
C558 C 0.28447 0.19757 0.66825 0.0
C559 C 0.23052 0.18201 0.66388 0.0
C560 C 0.21529 0.21929 0.66445 0.0
C561 C 0.25376 0.27233 0.66923 0.0
C562 C 0.30758 0.28823 0.6734 0.0
C563 C 0.32301 0.25108 0.67287 0.0
C564 C 0.3891 0.08249 0.61411 0.0
C565 C 0.44458 0.12043 0.61332 0.0
C566 C 0.35974 0.0868 0.62697 0.0
C567 C 0.38512 0.12885 0.63951 0.0
C568 C 0.4398 0.16879 0.63823 0.0
C569 C 0.46946 0.16463 0.62516 0.0
C570 C 0.3544 0.12747 0.65446 0.0
C571 C 0.34008 0.16537 0.65628 0.0
C572 C 0.33242 0.08376 0.66532 0.0
C573 C 0.34857 0.04412 0.66463 0.0
C574 C 0.40354 0.06051 0.66643 0.0
C575 C 0.41867 0.02321 0.66542 0.0
C576 C 0.37916 0.96933 0.66271 0.0
C577 C 0.32442 0.95262 0.66104 0.0
C578 C 0.30907 0.98977 0.66201 0.0
H579 H 0.39095 0.94052 0.66192 0.0
H580 H 0.24189 0.30114 0.66966 0.0
H581 H 0.21893 0.26525 0.04809 0.0
H582 H 0.27253 0.30243 0.02297 0.0
H583 H 0.29839 0.17271 0.02045 0.0
H584 H 0.24482 0.13522 0.0457 0.0
H585 H 0.39126 0.26596 0.01699 0.0
H586 H 0.21169 0.17641 0.99147 0.0
H587 H 0.11633 0.15086 0.9884 0.0
H588 H 0.1661 0.31158 0.97845 0.0
H589 H 0.26192 0.33851 0.98197 0.0
H590 H 0.43254 0.36968 0.92131 0.0
H591 H 0.37944 0.30492 0.94258 0.0
H592 H 0.48511 0.41568 0.98419 0.0
H593 H 0.53861 0.48008 0.96305 0.0
H594 H 0.32168 0.31488 0.9653 0.0
H595 H 0.48553 0.35331 0.01998 0.0
H596 H 0.57901 0.3729 0.02258 0.0
H597 H 0.55664 0.30114 0.97169 0.0
H598 H 0.46281 0.28044 0.96886 0.0
C599 C 0.23546 0.24424 0.04211 0.0
C600 C 0.22719 0.19701 0.04883 0.0
C601 C 0.26616 0.26559 0.02773 0.0
C602 C 0.28907 0.24009 0.01972 0.0
C603 C 0.28105 0.19301 0.02642 0.0
C604 C 0.25024 0.17155 0.04081 0.0
C605 C 0.32214 0.26338 0.00454 0.0
C606 C 0.37604 0.27645 0.00563 0.0
C607 C 0.30178 0.27569 0.98952 0.0
C608 C 0.24411 0.25956 0.9871 0.0
C609 C 0.20237 0.20642 0.98875 0.0
C610 C 0.14819 0.19166 0.98692 0.0
C611 C 0.13514 0.22953 0.9832 0.0
C612 C 0.17627 0.28227 0.98132 0.0
C613 C 0.23055 0.29732 0.98325 0.0
C614 C 0.44509 0.37982 0.93498 0.0
C615 C 0.4895 0.43027 0.94046 0.0
C616 C 0.4146 0.34279 0.94713 0.0
C617 C 0.42812 0.35533 0.96502 0.0
C618 C 0.47418 0.40465 0.97048 0.0
C619 C 0.50476 0.44159 0.95834 0.0
C620 C 0.39155 0.31929 0.978 0.0
C621 C 0.33687 0.30385 0.97652 0.0
C622 C 0.41094 0.3039 0.9925 0.0
C623 C 0.4672 0.31567 0.99417 0.0
C624 C 0.50044 0.34145 0.00938 0.0
C625 C 0.55353 0.35281 0.01088 0.0
C626 C 0.5738 0.33839 0.9973 0.0
C627 C 0.54096 0.31245 0.98219 0.0
C628 C 0.48784 0.30097 0.98061 0.0
H629 H 0.61491 0.34726 0.99849 0.0
H630 H 0.09315 0.218 0.98177 0.0
H631 H 0.15912 0.31093 0.40133 0.0
H632 H 0.17622 0.37124 0.37805 0.0
H633 H 0.10196 0.23927 0.34041 0.0
H634 H 0.08345 0.17816 0.36373 0.0
H635 H 0.22186 0.40227 0.34708 0.0
H636 H 0.01419 0.2528 0.31398 0.0
H637 H 0.92871 0.17107 0.32027 0.0
H638 H 0.95508 0.22164 0.37421 0.0
H639 H 0.04031 0.30388 0.36817 0.0
H640 H 0.1537 0.52209 0.27578 0.0
H641 H 0.17339 0.46447 0.29291 0.0
H642 H 0.07047 0.45967 0.33196 0.0
H643 H 0.05091 0.51687 0.31516 0.0
H644 H 0.04409 0.3605 0.32077 0.0
H645 H 0.2035 0.5292 0.34003 0.0
H646 H 0.28777 0.61461 0.33597 0.0
H647 H 0.35601 0.53272 0.313 0.0
H648 H 0.27178 0.44679 0.31671 0.0
C649 C 0.14769 0.29466 0.38807 0.0
C650 C 0.11858 0.23944 0.38449 0.0
C651 C 0.15784 0.3294 0.37472 0.0
C652 C 0.13922 0.3097 0.35753 0.0
C653 C 0.11588 0.25525 0.35364 0.0
C654 C 0.10547 0.22034 0.36702 0.0
C655 C 0.13604 0.34461 0.34454 0.0
C656 C 0.18314 0.39281 0.34109 0.0
C657 C 0.08545 0.33278 0.33692 0.0
C658 C 0.03381 0.28405 0.34065 0.0
C659 C 1.00159 0.24647 0.32716 0.0
C660 C 0.95322 0.20009 0.33069 0.0
C661 C 0.93657 0.19108 0.34764 0.0
C662 C 0.9681 0.22857 0.36109 0.0
C663 C 0.01643 0.27506 0.35763 0.0
C664 C 0.13606 0.50946 0.28816 0.0
C665 C 0.10043 0.52383 0.29404 0.0
C666 C 0.14727 0.47649 0.29791 0.0
C667 C 0.12299 0.45743 0.31363 0.0
C668 C 0.08924 0.47351 0.31979 0.0
C669 C 0.07825 0.50643 0.31016 0.0
C670 C 0.12979 0.41849 0.32343 0.0
C671 C 0.08312 0.36944 0.32632 0.0
C672 C 0.1806 0.43007 0.3307 0.0
C673 C 0.23112 0.48165 0.32844 0.0
C674 C 0.23627 0.52944 0.33395 0.0
C675 C 0.28407 0.57793 0.33175 0.0
C676 C 0.32715 0.5791 0.32417 0.0
C677 C 0.32256 0.53176 0.31883 0.0
C678 C 0.27482 0.48315 0.32098 0.0
H679 H 0.36413 0.61668 0.32249 0.0
H680 H 0.89918 0.1551 0.35034 0.0
loop_
_geom_bond_atom_site_label_1
_geom_bond_atom_site_label_2
_geom_bond_distance
_geom_bond_site_symmetry_2
_ccdc_geom_bond_type
Mg0 O1 2.028 . S
Mg0 O7 1.986 . S
Mg0 O9 2.114 . S
Mg0 O10 2.251 . S
Mg0 O13 2.010 . S
O1 Mg0 2.028 . S
O1 C4 1.250 . S
O2 Mg3 2.028 . S
O2 C4 1.248 . S
Mg3 O2 2.028 . S
Mg3 O8 2.032 . S
Mg3 O10 2.079 . S
C4 O1 1.250 . S
C4 O2 1.248 . S
C5 O6 1.264 . S
C5 O13 1.249 . S
O6 C5 1.264 . S
O7 Mg0 1.986 . S
O7 C11 1.246 . S
O8 Mg3 2.032 . S
O8 C11 1.259 . S
O9 Mg0 2.114 . S
O9 C12 1.252 . S
O10 Mg0 2.251 . S
O10 Mg3 2.079 . S
O10 C12 1.273 . S
C11 O7 1.246 . S
C11 O8 1.259 . S
C12 O9 1.252 . S
C12 O10 1.273 . S
O13 Mg0 2.010 . S
O13 C5 1.249 . S
Mg14 O15 2.028 1_655 S
Mg14 O21 1.986 1_655 S
Mg14 O23 2.114 . S
Mg14 O24 2.251 . S
Mg14 O27 2.010 1_545 S
O15 Mg14 2.028 1_455 S
O15 C18 1.250 . S
O16 Mg17 2.028 . S
O16 C18 1.248 . S
Mg17 O16 2.028 . S
Mg17 O22 2.032 . S
Mg17 O24 2.079 1_455 S
C18 O15 1.250 . S
C18 O16 1.248 . S
C19 O20 1.264 . S
C19 O27 1.249 . S
O20 C19 1.264 . S
O21 Mg14 1.986 1_455 S
O21 C25 1.246 . S
O22 Mg17 2.032 . S
O22 C25 1.259 . S
O23 Mg14 2.114 . S
O23 C26 1.252 . S
O24 Mg14 2.251 . S
O24 Mg17 2.079 1_655 S
O24 C26 1.273 . S
C25 O21 1.246 . S
C25 O22 1.259 . S
C26 O23 1.252 . S
C26 O24 1.273 . S
O27 Mg14 2.010 1_565 S
O27 C19 1.249 . S
Mg28 O29 2.028 . S
Mg28 O35 1.986 . S
Mg28 O37 2.114 1_545 S
Mg28 O38 2.251 1_455 S
Mg28 O41 2.010 . S
O29 Mg28 2.028 . S
O29 C32 1.250 . S
O30 Mg31 2.028 1_455 S
O30 C32 1.248 . S
Mg31 O30 2.028 1_655 S
Mg31 O36 2.032 . S
Mg31 O38 2.079 . S
C32 O29 1.250 . S
C32 O30 1.248 . S
C33 O34 1.264 1_545 S
C33 O41 1.249 . S
O34 C33 1.264 1_565 S
O35 Mg28 1.986 . S
O35 C39 1.246 1_455 S
O36 Mg31 2.032 . S
O36 C39 1.259 . S
O37 Mg28 2.114 1_565 S
O37 C40 1.252 1_455 S
O38 Mg28 2.251 1_655 S
O38 Mg31 2.079 . S
O38 C40 1.273 1_545 S
C39 O35 1.246 1_655 S
C39 O36 1.259 . S
C40 O37 1.252 1_655 S
C40 O38 1.273 1_565 S
O41 Mg28 2.010 . S
O41 C33 1.249 . S
Mg42 O49 2.141 . S
Mg42 O50 2.048 . S
Mg42 O51 2.048 . S
Mg42 O54 2.141 . S
C43 O44 1.313 1_455 S
C43 O50 1.195 . S
O44 C43 1.313 1_655 S
C45 O46 1.245 . S
C45 O54 1.289 . S
O46 C45 1.245 . S
C47 O48 1.245 . S
C47 O49 1.289 . S
O48 C47 1.245 . S
O49 Mg42 2.141 . S
O49 C47 1.289 . S
O50 Mg42 2.048 . S
O50 C43 1.195 . S
O51 Mg42 2.048 . S
O51 C52 1.195 . S
C52 O51 1.195 . S
C52 O53 1.313 1_455 S
O53 C52 1.313 1_655 S
O54 Mg42 2.141 . S
O54 C45 1.289 . S
Mg55 O62 2.141 . S
Mg55 O63 2.048 . S
Mg55 O64 2.048 . S
Mg55 O67 2.141 . S
C56 O57 1.313 . S
C56 O63 1.195 . S
O57 C56 1.313 . S
C58 O59 1.245 . S
C58 O67 1.289 . S
O59 C58 1.245 . S
C60 O61 1.245 . S
C60 O62 1.289 . S
O61 C60 1.245 . S
O62 Mg55 2.141 . S
O62 C60 1.289 . S
O63 Mg55 2.048 . S
O63 C56 1.195 . S
O64 Mg55 2.048 . S
O64 C65 1.195 . S
C65 O64 1.195 . S
C65 O66 1.313 . S
O66 C65 1.313 . S
O67 Mg55 2.141 . S
O67 C58 1.289 . S
Mg68 O75 2.141 . S
Mg68 O76 2.048 . S
Mg68 O77 2.048 . S
Mg68 O80 2.141 . S
C69 O70 1.313 . S
C69 O76 1.195 . S
O70 C69 1.313 . S
C71 O72 1.245 . S
C71 O80 1.289 . S
O72 C71 1.245 . S
C73 O74 1.245 . S
C73 O75 1.289 . S
O74 C73 1.245 . S
O75 Mg68 2.141 . S
O75 C73 1.289 . S
O76 Mg68 2.048 . S
O76 C69 1.195 . S
O77 Mg68 2.048 . S
O77 C78 1.195 . S
C78 O77 1.195 . S
C78 O79 1.313 . S
O79 C78 1.313 . S
O80 Mg68 2.141 . S
O80 C71 1.289 . S
H81 C99 0.951 . S
H82 C101 0.951 . S
H83 C103 0.950 1_655 S
H84 C104 0.950 1_655 S
H85 C106 0.944 1_655 S
H86 C109 0.950 . S
H87 C110 0.950 . S
H88 C112 0.950 . S
H89 C113 0.950 . S
H90 C114 0.951 1_655 S
H91 C116 0.951 1_655 S
H92 C118 0.950 . S
H93 C119 0.950 . S
H94 C121 0.950 . S
H95 C124 0.950 . S
H96 C125 0.950 . S
H97 C127 0.950 . S
H98 C128 0.950 . S
C99 H81 0.951 . S
C99 C100 1.366 . S
C99 C101 1.388 . S
C100 C99 1.366 . S
C100 C104 1.385 . S
C101 H82 0.951 . S
C101 C99 1.388 . S
C101 C102 1.366 . S
C102 C101 1.366 . S
C102 C103 1.414 . S
C102 C105 1.499 . S
C103 H83 0.950 1_455 S
C103 C102 1.414 . S
C103 C104 1.374 . S
C104 H84 0.950 1_455 S
C104 C100 1.385 . S
C104 C103 1.374 . S
C105 C102 1.499 . S
C105 C106 1.373 . S
C105 C107 1.389 . S
C106 H85 0.944 1_455 S
C106 C105 1.373 . S
C106 C122 1.377 . S
C107 C105 1.389 . S
C107 C108 1.524 . S
C107 C121 1.377 . S
C108 C107 1.524 . S
C108 C109 1.397 . S
C108 C113 1.363 . S
C109 H86 0.950 . S
C109 C108 1.397 . S
C109 C110 1.334 . S
C110 H87 0.950 . S
C110 C109 1.334 . S
C110 C111 1.287 . S
C111 C110 1.287 . S
C111 C112 1.524 . S
C111 H130 0.913 . S
C112 H88 0.950 . S
C112 C111 1.524 . S
C112 C113 1.415 . S
C113 H89 0.950 . S
C113 C108 1.363 . S
C113 C112 1.415 . S
C114 H90 0.951 1_455 S
C114 C115 1.366 . S
C114 C116 1.388 . S
C115 C114 1.366 . S
C115 C119 1.385 . S
C116 H91 0.951 1_455 S
C116 C114 1.388 . S
C116 C117 1.366 . S
C117 C116 1.366 . S
C117 C118 1.414 . S
C117 C120 1.499 . S
C118 H92 0.950 . S
C118 C117 1.414 . S
C118 C119 1.374 . S
C119 H93 0.950 . S
C119 C115 1.385 . S
C119 C118 1.374 . S
C120 C117 1.499 . S
C120 C121 1.373 . S
C120 C122 1.389 . S
C121 H94 0.950 . S
C121 C107 1.377 . S
C121 C120 1.373 . S
C122 C106 1.377 . S
C122 C120 1.389 . S
C122 C123 1.524 1_455 S
C123 C122 1.524 1_655 S
C123 C124 1.397 1_655 S
C123 C128 1.363 . S
C124 H95 0.950 . S
C124 C123 1.397 1_455 S
C124 C125 1.334 1_455 S
C125 H96 0.950 . S
C125 C124 1.334 1_655 S
C125 C126 1.287 . S
C126 C125 1.287 . S
C126 C127 1.524 . S
C126 H129 0.999 . S
C127 H97 0.950 . S
C127 C126 1.524 . S
C127 C128 1.415 . S
C128 H98 0.950 . S
C128 C123 1.363 . S
C128 C127 1.415 . S
H129 C126 0.999 . S
H130 C111 0.913 . S
H131 C149 0.951 1_565 S
H132 C151 0.951 1_565 S
H133 C153 0.950 . S
H134 C154 0.950 . S
H135 C156 0.950 . S
H136 C159 0.950 . S
H137 C160 0.950 . S
H138 C162 0.950 . S
H139 C163 0.950 . S
H140 C164 0.951 . S
H141 C166 0.951 . S
H142 C168 0.950 . S
H143 C169 0.950 . S
H144 C171 0.950 . S
H145 C174 0.950 . S
H146 C175 0.950 . S
H147 C177 0.950 . S
H148 C178 0.950 . S
C149 H131 0.951 1_545 S
C149 C150 1.366 . S
C149 C151 1.388 . S
C150 C149 1.366 . S
C150 C154 1.385 . S
C151 H132 0.951 1_545 S
C151 C149 1.388 . S
C151 C152 1.366 . S
C152 C151 1.366 . S
C152 C153 1.414 . S
C152 C155 1.499 . S
C153 H133 0.950 . S
C153 C152 1.414 . S
C153 C154 1.374 . S
C154 H134 0.950 . S
C154 C150 1.385 . S
C154 C153 1.374 . S
C155 C152 1.499 . S
C155 C156 1.373 . S
C155 C157 1.389 . S
C156 H135 0.950 . S
C156 C155 1.373 . S
C156 C172 1.377 . S
C157 C155 1.389 . S
C157 C158 1.524 . S
C157 C171 1.377 . S
C158 C157 1.524 . S
C158 C159 1.397 . S
C158 C163 1.363 1_545 S
C159 H136 0.950 . S
C159 C158 1.397 . S
C159 C160 1.334 . S
C160 H137 0.950 . S
C160 C159 1.334 . S
C160 C161 1.287 1_545 S
C161 C160 1.287 1_565 S
C161 C162 1.524 . S
C161 H180 0.913 . S
C162 H138 0.950 . S
C162 C161 1.524 . S
C162 C163 1.415 . S
C163 H139 0.950 . S
C163 C158 1.363 1_565 S
C163 C162 1.415 . S
C164 H140 0.951 . S
C164 C165 1.366 . S
C164 C166 1.388 . S
C165 C164 1.366 . S
C165 C169 1.385 . S
C166 H141 0.951 . S
C166 C164 1.388 . S
C166 C167 1.366 . S
C167 C166 1.366 . S
C167 C168 1.414 . S
C167 C170 1.499 . S
C168 H142 0.950 . S
C168 C167 1.414 . S
C168 C169 1.374 . S
C169 H143 0.950 . S
C169 C165 1.385 . S
C169 C168 1.374 . S
C170 C167 1.499 . S
C170 C171 1.373 . S
C170 C172 1.389 . S
C171 H144 0.950 . S
C171 C157 1.377 . S
C171 C170 1.373 . S
C172 C156 1.377 . S
C172 C170 1.389 . S
C172 C173 1.524 . S
C173 C172 1.524 . S
C173 C174 1.397 . S
C173 C178 1.363 . S
C174 H145 0.950 . S
C174 C173 1.397 . S
C174 C175 1.334 . S
C175 H146 0.950 . S
C175 C174 1.334 . S
C175 C176 1.287 . S
C176 C175 1.287 . S
C176 C177 1.524 . S
C176 H179 0.999 . S
C177 H147 0.950 . S
C177 C176 1.524 . S
C177 C178 1.415 . S
C178 H148 0.950 . S
C178 C173 1.363 . S
C178 C177 1.415 . S
H179 C176 0.999 . S
H180 C161 0.913 . S
H181 C199 0.951 . S
H182 C201 0.951 . S
H183 C203 0.950 . S
H184 C204 0.950 1_545 S
H185 C206 0.950 . S
H186 C209 0.950 . S
H187 C210 0.950 . S
H188 C212 0.950 . S
H189 C213 0.950 . S
H190 C214 0.951 . S
H191 C216 0.951 . S
H192 C218 0.950 . S
H193 C219 0.950 . S
H194 C221 0.950 . S
H195 C224 0.950 . S
H196 C225 0.950 . S
H197 C227 0.950 . S
H198 C228 0.950 . S
C199 H181 0.951 . S
C199 C200 1.366 . S
C199 C201 1.388 . S
C200 C199 1.366 . S
C200 C204 1.385 . S
C201 H182 0.951 . S
C201 C199 1.388 . S
C201 C202 1.366 . S
C202 C201 1.366 . S
C202 C203 1.414 . S
C202 C205 1.499 . S
C203 H183 0.950 . S
C203 C202 1.414 . S
C203 C204 1.374 . S
C204 H184 0.950 1_565 S
C204 C200 1.385 . S
C204 C203 1.374 . S
C205 C202 1.499 . S
C205 C206 1.373 . S
C205 C207 1.389 . S
C206 H185 0.950 . S
C206 C205 1.373 . S
C206 C222 1.377 . S
C207 C205 1.389 . S
C207 C208 1.524 . S
C207 C221 1.377 . S
C208 C207 1.524 . S
C208 C209 1.397 . S
C208 C213 1.363 . S
C209 H186 0.950 . S
C209 C208 1.397 . S
C209 C210 1.334 . S
C210 H187 0.950 . S
C210 C209 1.334 . S
C210 C211 1.287 . S
C211 C210 1.287 . S
C211 C212 1.524 . S
C211 H230 0.913 . S
C212 H188 0.950 . S
C212 C211 1.524 . S
C212 C213 1.415 . S
C213 H189 0.950 . S
C213 C208 1.363 . S
C213 C212 1.415 . S
C214 H190 0.951 . S
C214 C215 1.366 . S
C214 C216 1.388 . S
C215 C214 1.366 . S
C215 C219 1.385 . S
C216 H191 0.951 . S
C216 C214 1.388 . S
C216 C217 1.366 . S
C217 C216 1.366 . S
C217 C218 1.414 . S
C217 C220 1.499 . S
C218 H192 0.950 . S
C218 C217 1.414 . S
C218 C219 1.374 . S
C219 H193 0.950 . S
C219 C215 1.385 . S
C219 C218 1.374 . S
C220 C217 1.499 . S
C220 C221 1.373 . S
C220 C222 1.389 . S
C221 H194 0.950 . S
C221 C207 1.377 . S
C221 C220 1.373 . S
C222 C206 1.377 . S
C222 C220 1.389 . S
C222 C223 1.524 . S
C223 C222 1.524 . S
C223 C224 1.397 . S
C223 C228 1.363 . S
C224 H195 0.950 . S
C224 C223 1.397 . S
C224 C225 1.334 . S
C225 H196 0.950 . S
C225 C224 1.334 . S
C225 C226 1.287 . S
C226 C225 1.287 . S
C226 C227 1.524 . S
C226 H229 0.999 . S
C227 H197 0.950 . S
C227 C226 1.524 . S
C227 C228 1.415 . S
C228 H198 0.950 . S
C228 C223 1.363 . S
C228 C227 1.415 . S
H229 C226 0.999 . S
H230 C211 0.913 . S
H231 C249 0.951 . S
H232 C251 0.951 . S
H233 C253 0.950 . S
H234 C254 0.950 . S
H235 C256 0.950 . S
H236 C259 0.950 . S
H237 C260 0.950 . S
H238 C262 0.950 . S
H239 C263 0.950 . S
H240 C264 0.951 . S
H241 C266 0.951 . S
H242 C268 0.950 . S
H243 C269 0.950 . S
H244 C271 0.950 . S
H245 C274 0.950 . S
H246 C275 0.950 . S
H247 C277 0.950 . S
H248 C278 0.950 . S
C249 H231 0.951 . S
C249 C250 1.366 1_545 S
C249 C251 1.388 1_545 S
C250 C249 1.366 1_565 S
C250 C254 1.385 . S
C251 H232 0.951 . S
C251 C249 1.388 1_565 S
C251 C252 1.366 . S
C252 C251 1.366 . S
C252 C253 1.414 . S
C252 C255 1.499 . S
C253 H233 0.950 . S
C253 C252 1.414 . S
C253 C254 1.374 . S
C254 H234 0.950 . S
C254 C250 1.385 . S
C254 C253 1.374 . S
C255 C252 1.499 . S
C255 C256 1.373 . S
C255 C257 1.389 . S
C256 H235 0.950 . S
C256 C255 1.373 . S
C256 C272 1.377 . S
C257 C255 1.389 . S
C257 C258 1.524 . S
C257 C271 1.377 . S
C258 C257 1.524 . S
C258 C259 1.397 . S
C258 C263 1.363 . S
C259 H236 0.950 . S
C259 C258 1.397 . S
C259 C260 1.334 . S
C260 H237 0.950 . S
C260 C259 1.334 . S
C260 C261 1.287 1_565 S
C261 C260 1.287 1_545 S
C261 C262 1.524 . S
C261 H280 0.913 . S
C262 H238 0.950 . S
C262 C261 1.524 . S
C262 C263 1.415 1_545 S
C263 H239 0.950 . S
C263 C258 1.363 . S
C263 C262 1.415 1_565 S
C264 H240 0.951 . S
C264 C265 1.366 . S
C264 C266 1.388 . S
C265 C264 1.366 . S
C265 C269 1.385 . S
C266 H241 0.951 . S
C266 C264 1.388 . S
C266 C267 1.366 . S
C267 C266 1.366 . S
C267 C268 1.414 . S
C267 C270 1.499 . S
C268 H242 0.950 . S
C268 C267 1.414 . S
C268 C269 1.374 . S
C269 H243 0.950 . S
C269 C265 1.385 . S
C269 C268 1.374 . S
C270 C267 1.499 . S
C270 C271 1.373 . S
C270 C272 1.389 . S
C271 H244 0.950 . S
C271 C257 1.377 . S
C271 C270 1.373 . S
C272 C256 1.377 . S
C272 C270 1.389 . S
C272 C273 1.524 1_455 S
C273 C272 1.524 1_655 S
C273 C274 1.397 . S
C273 C278 1.363 . S
C274 H245 0.950 . S
C274 C273 1.397 . S
C274 C275 1.334 . S
C275 H246 0.950 . S
C275 C274 1.334 . S
C275 C276 1.287 . S
C276 C275 1.287 . S
C276 C277 1.524 . S
C276 H279 0.999 . S
C277 H247 0.950 . S
C277 C276 1.524 . S
C277 C278 1.415 . S
C278 H248 0.950 . S
C278 C273 1.363 . S
C278 C277 1.415 . S
H279 C276 0.999 . S
H280 C261 0.913 . S
H281 C299 0.951 . S
H282 C301 0.951 . S
H283 C303 0.950 . S
H284 C304 0.950 . S
H285 C306 0.950 . S
H286 C309 0.950 . S
H287 C310 0.950 . S
H288 C312 0.950 . S
H289 C313 0.950 . S
H290 C314 0.951 . S
H291 C316 0.951 . S
H292 C318 0.950 . S
H293 C319 0.950 . S
H294 C321 0.950 . S
H295 C324 0.950 . S
H296 C325 0.950 1_565 S
H297 C327 0.950 . S
H298 C328 0.950 . S
C299 H281 0.951 . S
C299 C300 1.366 . S
C299 C301 1.388 . S
C300 C299 1.366 . S
C300 C304 1.385 . S
C301 H282 0.951 . S
C301 C299 1.388 . S
C301 C302 1.366 . S
C302 C301 1.366 . S
C302 C303 1.414 . S
C302 C305 1.499 . S
C303 H283 0.950 . S
C303 C302 1.414 . S
C303 C304 1.374 . S
C304 H284 0.950 . S
C304 C300 1.385 . S
C304 C303 1.374 . S
C305 C302 1.499 . S
C305 C306 1.373 . S
C305 C307 1.389 . S
C306 H285 0.950 . S
C306 C305 1.373 . S
C306 C322 1.377 . S
C307 C305 1.389 . S
C307 C308 1.524 . S
C307 C321 1.377 . S
C308 C307 1.524 . S
C308 C309 1.397 . S
C308 C313 1.363 . S
C309 H286 0.950 . S
C309 C308 1.397 . S
C309 C310 1.334 . S
C310 H287 0.950 . S
C310 C309 1.334 . S
C310 C311 1.287 . S
C311 C310 1.287 . S
C311 C312 1.524 . S
C311 H330 0.913 . S
C312 H288 0.950 . S
C312 C311 1.524 . S
C312 C313 1.415 . S
C313 H289 0.950 . S
C313 C308 1.363 . S
C313 C312 1.415 . S
C314 H290 0.951 . S
C314 C315 1.366 . S
C314 C316 1.388 . S
C315 C314 1.366 . S
C315 C319 1.385 . S
C316 H291 0.951 . S
C316 C314 1.388 . S
C316 C317 1.366 . S
C317 C316 1.366 . S
C317 C318 1.414 . S
C317 C320 1.499 . S
C318 H292 0.950 . S
C318 C317 1.414 . S
C318 C319 1.374 . S
C319 H293 0.950 . S
C319 C315 1.385 . S
C319 C318 1.374 . S
C320 C317 1.499 . S
C320 C321 1.373 . S
C320 C322 1.389 . S
C321 H294 0.950 . S
C321 C307 1.377 . S
C321 C320 1.373 . S
C322 C306 1.377 . S
C322 C320 1.389 . S
C322 C323 1.524 . S
C323 C322 1.524 . S
C323 C324 1.397 . S
C323 C328 1.363 . S
C324 H295 0.950 . S
C324 C323 1.397 . S
C324 C325 1.334 . S
C325 H296 0.950 1_545 S
C325 C324 1.334 . S
C325 C326 1.287 . S
C326 C325 1.287 . S
C326 C327 1.524 . S
C326 H329 0.999 . S
C327 H297 0.950 . S
C327 C326 1.524 . S
C327 C328 1.415 . S
C328 H298 0.950 . S
C328 C323 1.363 . S
C328 C327 1.415 . S
H329 C326 0.999 . S
H330 C311 0.913 . S
H331 C349 0.951 . S
H332 C351 0.951 . S
H333 C353 0.950 . S
H334 C354 0.950 . S
H335 C356 0.950 . S
H336 C359 0.950 . S
H337 C360 0.950 . S
H338 C362 0.950 . S
H339 C363 0.950 . S
H340 C364 0.951 . S
H341 C366 0.951 . S
H342 C368 0.950 . S
H343 C369 0.950 . S
H344 C371 0.950 . S
H345 C374 0.950 . S
H346 C375 0.950 . S
H347 C377 0.950 . S
H348 C378 0.950 . S
C349 H331 0.951 . S
C349 C350 1.366 . S
C349 C351 1.388 . S
C350 C349 1.366 . S
C350 C354 1.385 . S
C351 H332 0.951 . S
C351 C349 1.388 . S
C351 C352 1.366 . S
C352 C351 1.366 . S
C352 C353 1.414 . S
C352 C355 1.499 . S
C353 H333 0.950 . S
C353 C352 1.414 . S
C353 C354 1.374 . S
C354 H334 0.950 . S
C354 C350 1.385 . S
C354 C353 1.374 . S
C355 C352 1.499 . S
C355 C356 1.373 . S
C355 C357 1.389 . S
C356 H335 0.950 . S
C356 C355 1.373 . S
C356 C372 1.377 . S
C357 C355 1.389 . S
C357 C358 1.524 . S
C357 C371 1.377 . S
C358 C357 1.524 . S
C358 C359 1.397 . S
C358 C363 1.363 . S
C359 H336 0.950 . S
C359 C358 1.397 . S
C359 C360 1.334 . S
C360 H337 0.950 . S
C360 C359 1.334 . S
C360 C361 1.287 . S
C361 C360 1.287 . S
C361 C362 1.524 . S
C361 H380 0.913 . S
C362 H338 0.950 . S
C362 C361 1.524 . S
C362 C363 1.415 . S
C363 H339 0.950 . S
C363 C358 1.363 . S
C363 C362 1.415 . S
C364 H340 0.951 . S
C364 C365 1.366 . S
C364 C366 1.388 . S
C365 C364 1.366 . S
C365 C369 1.385 . S
C366 H341 0.951 . S
C366 C364 1.388 . S
C366 C367 1.366 . S
C367 C366 1.366 . S
C367 C368 1.414 . S
C367 C370 1.499 . S
C368 H342 0.950 . S
C368 C367 1.414 . S
C368 C369 1.374 . S
C369 H343 0.950 . S
C369 C365 1.385 . S
C369 C368 1.374 . S
C370 C367 1.499 . S
C370 C371 1.373 . S
C370 C372 1.389 . S
C371 H344 0.950 . S
C371 C357 1.377 . S
C371 C370 1.373 . S
C372 C356 1.377 . S
C372 C370 1.389 . S
C372 C373 1.524 . S
C373 C372 1.524 . S
C373 C374 1.397 . S
C373 C378 1.363 . S
C374 H345 0.950 . S
C374 C373 1.397 . S
C374 C375 1.334 . S
C375 H346 0.950 . S
C375 C374 1.334 . S
C375 C376 1.287 . S
C376 C375 1.287 . S
C376 C377 1.524 . S
C376 H379 0.999 . S
C377 H347 0.950 . S
C377 C376 1.524 . S
C377 C378 1.415 . S
C378 H348 0.950 . S
C378 C373 1.363 . S
C378 C377 1.415 . S
H379 C376 0.999 . S
H380 C361 0.913 . S
H381 C399 0.951 . S
H382 C401 0.951 . S
H383 C403 0.950 . S
H384 C404 0.950 . S
H385 C406 0.950 . S
H386 C409 0.950 . S
H387 C410 0.950 1_455 S
H388 C412 0.950 . S
H389 C413 0.950 . S
H390 C414 0.951 . S
H391 C416 0.951 . S
H392 C418 0.950 . S
H393 C419 0.950 . S
H394 C421 0.950 . S
H395 C424 0.955 . S
H396 C425 0.950 . S
H397 C427 0.950 . S
H398 C428 0.950 . S
C399 H381 0.951 . S
C399 C400 1.366 . S
C399 C401 1.388 . S
C400 C399 1.366 . S
C400 C404 1.385 . S
C401 H382 0.951 . S
C401 C399 1.388 . S
C401 C402 1.366 . S
C402 C401 1.366 . S
C402 C403 1.414 . S
C402 C405 1.499 . S
C403 H383 0.950 . S
C403 C402 1.414 . S
C403 C404 1.374 . S
C404 H384 0.950 . S
C404 C400 1.385 . S
C404 C403 1.374 . S
C405 C402 1.499 . S
C405 C406 1.373 . S
C405 C407 1.389 . S
C406 H385 0.950 . S
C406 C405 1.373 . S
C406 C422 1.377 . S
C407 C405 1.389 . S
C407 C408 1.524 . S
C407 C421 1.377 . S
C408 C407 1.524 . S
C408 C409 1.397 . S
C408 C413 1.363 . S
C409 H386 0.950 . S
C409 C408 1.397 . S
C409 C410 1.334 . S
C410 H387 0.950 1_655 S
C410 C409 1.334 . S
C410 C411 1.287 1_655 S
C411 C410 1.287 1_455 S
C411 C412 1.524 1_455 S
C411 H430 0.913 . S
C412 H388 0.950 . S
C412 C411 1.524 1_655 S
C412 C413 1.415 . S
C413 H389 0.950 . S
C413 C408 1.363 . S
C413 C412 1.415 . S
C414 H390 0.951 . S
C414 C415 1.366 . S
C414 C416 1.388 . S
C415 C414 1.366 . S
C415 C419 1.385 . S
C416 H391 0.951 . S
C416 C414 1.388 . S
C416 C417 1.366 . S
C417 C416 1.366 . S
C417 C418 1.414 . S
C417 C420 1.499 . S
C418 H392 0.950 . S
C418 C417 1.414 . S
C418 C419 1.374 . S
C419 H393 0.950 . S
C419 C415 1.385 . S
C419 C418 1.374 . S
C420 C417 1.499 . S
C420 C421 1.373 . S
C420 C422 1.389 . S
C421 H394 0.950 . S
C421 C407 1.377 . S
C421 C420 1.373 . S
C422 C406 1.377 . S
C422 C420 1.389 . S
C422 C423 1.524 . S
C423 C422 1.524 . S
C423 C424 1.389 1_545 S
C423 C428 1.363 . S
C424 H395 0.955 . S
C424 C423 1.389 1_565 S
C424 C425 1.336 . S
C425 H396 0.950 . S
C425 C424 1.336 . S
C425 C426 1.287 . S
C426 C425 1.287 . S
C426 C427 1.524 1_565 S
C426 H429 0.999 . S
C427 H397 0.950 . S
C427 C426 1.524 1_545 S
C427 C428 1.415 . S
C428 H398 0.950 . S
C428 C423 1.363 . S
C428 C427 1.415 . S
H429 C426 0.999 . S
H430 C411 0.913 . S
H431 C449 0.951 1_545 S
H432 C451 0.951 . S
H433 C453 0.950 . S
H434 C454 0.950 1_545 S
H435 C456 0.950 . S
H436 C459 0.905 1_544 S
H437 C460 0.950 . S
H438 C462 0.950 1_455 S
H439 C463 0.950 . S
H440 C464 0.951 . S
H441 C466 0.951 . S
H442 C468 0.950 . S
H443 C469 0.950 . S
H444 C471 0.950 . S
H445 C474 0.950 . S
H446 C475 0.950 . S
H447 C477 0.950 . S
H448 C478 0.950 . S
C449 H431 0.951 1_565 S
C449 C450 1.366 1_465 S
C449 C451 1.388 1_455 S
C450 C449 1.366 1_645 S
C450 C454 1.385 1_545 S
C451 H432 0.951 . S
C451 C449 1.388 1_655 S
C451 C452 1.366 . S
C452 C451 1.366 . S
C452 C453 1.414 . S
C452 C455 1.499 . S
C453 H433 0.950 . S
C453 C452 1.414 . S
C453 C454 1.374 . S
C454 H434 0.950 1_565 S
C454 C450 1.385 1_565 S
C454 C453 1.374 . S
C455 C452 1.499 . S
C455 C456 1.373 . S
C455 C457 1.389 1_554 S
C456 H435 0.950 . S
C456 C455 1.373 . S
C456 C472 1.377 . S
C457 C455 1.389 1_556 S
C457 C458 1.524 . S
C457 C471 1.377 . S
C458 C457 1.524 . S
C458 C459 1.412 . S
C458 C463 1.363 . S
C459 H436 0.905 1_566 S
C459 C458 1.412 . S
C459 C460 1.325 1_565 S
C460 H437 0.950 . S
C460 C459 1.325 1_545 S
C460 C461 1.287 . S
C461 C460 1.287 . S
C461 C462 1.524 1_545 S
C461 H480 0.913 1_655 S
C462 H438 0.950 1_655 S
C462 C461 1.524 1_565 S
C462 C463 1.415 . S
C463 H439 0.950 . S
C463 C458 1.363 . S
C463 C462 1.415 . S
C464 H440 0.951 . S
C464 C465 1.366 . S
C464 C466 1.388 . S
C465 C464 1.366 . S
C465 C469 1.385 . S
C466 H441 0.951 . S
C466 C464 1.388 . S
C466 C467 1.366 . S
C467 C466 1.366 . S
C467 C468 1.414 . S
C467 C470 1.499 . S
C468 H442 0.950 . S
C468 C467 1.414 . S
C468 C469 1.374 . S
C469 H443 0.950 . S
C469 C465 1.385 . S
C469 C468 1.374 . S
C470 C467 1.499 . S
C470 C471 1.373 . S
C470 C472 1.389 1_556 S
C471 H444 0.950 . S
C471 C457 1.377 . S
C471 C470 1.373 . S
C472 C456 1.377 . S
C472 C470 1.389 1_554 S
C472 C473 1.524 . S
C473 C472 1.524 . S
C473 C474 1.397 . S
C473 C478 1.363 . S
C474 H445 0.950 . S
C474 C473 1.397 . S
C474 C475 1.334 . S
C475 H446 0.950 . S
C475 C474 1.334 . S
C475 C476 1.287 . S
C476 C475 1.287 . S
C476 C477 1.524 . S
C476 H479 0.999 . S
C477 H447 0.950 . S
C477 C476 1.524 . S
C477 C478 1.415 . S
C478 H448 0.950 . S
C478 C473 1.363 . S
C478 C477 1.415 . S
H479 C476 0.999 . S
H480 C461 0.913 1_455 S
H481 C499 0.951 . S
H482 C501 0.951 . S
H483 C503 0.950 . S
H484 C504 0.950 . S
H485 C506 0.950 . S
H486 C509 0.950 . S
H487 C510 0.950 1_545 S
H488 C512 0.950 1_545 S
H489 C513 0.950 . S
H490 C514 0.951 . S
H491 C516 0.951 . S
H492 C518 0.950 . S
H493 C519 0.950 . S
H494 C521 0.950 . S
H495 C524 0.950 1_455 S
H496 C525 0.950 . S
H497 C527 0.950 . S
H498 C528 0.950 . S
C499 H481 0.951 . S
C499 C500 1.366 1_455 S
C499 C501 1.388 . S
C500 C499 1.366 1_655 S
C500 C504 1.385 . S
C501 H482 0.951 . S
C501 C499 1.388 . S
C501 C502 1.366 . S
C502 C501 1.366 . S
C502 C503 1.414 1_455 S
C502 C505 1.499 . S
C503 H483 0.950 . S
C503 C502 1.414 1_655 S
C503 C504 1.374 . S
C504 H484 0.950 . S
C504 C500 1.385 . S
C504 C503 1.374 . S
C505 C502 1.499 . S
C505 C506 1.373 1_455 S
C505 C507 1.389 . S
C506 H485 0.950 . S
C506 C505 1.373 1_655 S
C506 C522 1.377 . S
C507 C505 1.389 . S
C507 C508 1.524 . S
C507 C521 1.377 . S
C508 C507 1.524 . S
C508 C509 1.397 . S
C508 C513 1.363 . S
C509 H486 0.950 . S
C509 C508 1.397 . S
C509 C510 1.334 . S
C510 H487 0.950 1_565 S
C510 C509 1.334 . S
C510 C511 1.287 1_565 S
C511 C510 1.287 1_545 S
C511 C512 1.524 1_545 S
C511 H530 0.913 . S
C512 H488 0.950 1_565 S
C512 C511 1.524 1_565 S
C512 C513 1.415 . S
C513 H489 0.950 . S
C513 C508 1.363 . S
C513 C512 1.415 . S
C514 H490 0.951 . S
C514 C515 1.366 1_655 S
C514 C516 1.388 . S
C515 C514 1.366 1_455 S
C515 C519 1.385 . S
C516 H491 0.951 . S
C516 C514 1.388 . S
C516 C517 1.366 1_655 S
C517 C516 1.366 1_455 S
C517 C518 1.414 . S
C517 C520 1.499 . S
C518 H492 0.950 . S
C518 C517 1.414 . S
C518 C519 1.374 . S
C519 H493 0.950 . S
C519 C515 1.385 . S
C519 C518 1.374 . S
C520 C517 1.499 . S
C520 C521 1.373 . S
C520 C522 1.389 1_455 S
C521 H494 0.950 . S
C521 C507 1.377 . S
C521 C520 1.373 . S
C522 C506 1.377 . S
C522 C520 1.389 1_655 S
C522 C523 1.524 . S
C523 C522 1.524 . S
C523 C524 1.397 . S
C523 C528 1.363 . S
C524 H495 0.950 1_655 S
C524 C523 1.397 . S
C524 C525 1.334 . S
C525 H496 0.950 . S
C525 C524 1.334 . S
C525 C526 1.287 . S
C526 C525 1.287 . S
C526 C527 1.524 . S
C526 H529 0.999 . S
C527 H497 0.950 . S
C527 C526 1.524 . S
C527 C528 1.415 . S
C528 H498 0.950 . S
C528 C523 1.363 . S
C528 C527 1.415 . S
H529 C526 0.999 . S
H530 C511 0.913 . S
H531 C549 0.951 . S
H532 C551 0.951 . S
H533 C553 0.953 . S
H534 C554 0.950 1_565 S
H535 C556 0.950 1_565 S
H536 C559 0.950 . S
H537 C560 0.950 . S
H538 C562 0.950 . S
H539 C563 0.950 . S
H540 C564 0.951 . S
H541 C566 0.951 . S
H542 C568 0.950 . S
H543 C569 0.950 . S
H544 C571 0.950 . S
H545 C574 0.950 1_545 S
H546 C575 0.950 . S
H547 C577 0.950 . S
H548 C578 0.950 . S
C549 H531 0.951 . S
C549 C550 1.366 . S
C549 C551 1.388 . S
C550 C549 1.366 . S
C550 C554 1.385 . S
C551 H532 0.951 . S
C551 C549 1.388 . S
C551 C552 1.366 . S
C552 C551 1.366 . S
C552 C553 1.414 . S
C552 C555 1.499 . S
C553 H533 0.953 . S
C553 C552 1.414 . S
C553 C554 1.374 . S
C554 H534 0.950 1_545 S
C554 C550 1.385 . S
C554 C553 1.374 . S
C555 C552 1.499 . S
C555 C556 1.373 . S
C555 C557 1.389 . S
C556 H535 0.950 1_545 S
C556 C555 1.373 . S
C556 C572 1.377 . S
C557 C555 1.389 . S
C557 C558 1.524 . S
C557 C571 1.377 . S
C558 C557 1.524 . S
C558 C559 1.397 . S
C558 C563 1.363 . S
C559 H536 0.950 . S
C559 C558 1.397 . S
C559 C560 1.334 . S
C560 H537 0.950 . S
C560 C559 1.334 . S
C560 C561 1.287 . S
C561 C560 1.287 . S
C561 C562 1.524 . S
C561 H580 0.913 . S
C562 H538 0.950 . S
C562 C561 1.524 . S
C562 C563 1.415 . S
C563 H539 0.950 . S
C563 C558 1.363 . S
C563 C562 1.415 . S
C564 H540 0.951 . S
C564 C565 1.366 . S
C564 C566 1.388 . S
C565 C564 1.366 . S
C565 C569 1.385 . S
C566 H541 0.951 . S
C566 C564 1.388 . S
C566 C567 1.366 . S
C567 C566 1.366 . S
C567 C568 1.414 . S
C567 C570 1.499 . S
C568 H542 0.950 . S
C568 C567 1.414 . S
C568 C569 1.374 . S
C569 H543 0.950 . S
C569 C565 1.385 . S
C569 C568 1.374 . S
C570 C567 1.499 . S
C570 C571 1.373 . S
C570 C572 1.389 . S
C571 H544 0.950 . S
C571 C557 1.377 . S
C571 C570 1.373 . S
C572 C556 1.377 . S
C572 C570 1.389 . S
C572 C573 1.524 1_545 S
C573 C572 1.524 1_565 S
C573 C574 1.397 . S
C573 C578 1.363 . S
C574 H545 0.950 1_565 S
C574 C573 1.397 . S
C574 C575 1.334 . S
C575 H546 0.950 . S
C575 C574 1.334 . S
C575 C576 1.287 . S
C576 C575 1.287 . S
C576 C577 1.524 . S
C576 H579 0.999 . S
C577 H547 0.950 . S
C577 C576 1.524 . S
C577 C578 1.415 . S
C578 H548 0.950 . S
C578 C573 1.363 . S
C578 C577 1.415 . S
H579 C576 0.999 . S
H580 C561 0.913 . S
H581 C599 0.951 . S
H582 C601 0.951 . S
H583 C603 0.950 . S
H584 C604 0.950 . S
H585 C606 0.950 . S
H586 C609 0.950 . S
H587 C610 0.950 . S
H588 C612 0.950 . S
H589 C613 0.950 . S
H590 C614 0.951 . S
H591 C616 0.951 . S
H592 C618 0.950 . S
H593 C619 0.950 . S
H594 C621 0.950 . S
H595 C624 0.950 . S
H596 C625 0.950 . S
H597 C627 0.950 . S
H598 C628 0.950 . S
C599 H581 0.951 . S
C599 C600 1.366 . S
C599 C601 1.388 . S
C600 C599 1.366 . S
C600 C604 1.385 . S
C601 H582 0.951 . S
C601 C599 1.388 . S
C601 C602 1.366 . S
C602 C601 1.366 . S
C602 C603 1.414 . S
C602 C605 1.499 . S
C603 H583 0.950 . S
C603 C602 1.414 . S
C603 C604 1.374 . S
C604 H584 0.950 . S
C604 C600 1.385 . S
C604 C603 1.374 . S
C605 C602 1.499 . S
C605 C606 1.373 . S
C605 C607 1.389 . S
C606 H585 0.950 . S
C606 C605 1.373 . S
C606 C622 1.377 1_554 S
C607 C605 1.389 . S
C607 C608 1.524 . S
C607 C621 1.377 1_554 S
C608 C607 1.524 . S
C608 C609 1.397 . S
C608 C613 1.363 . S
C609 H586 0.950 . S
C609 C608 1.397 . S
C609 C610 1.334 . S
C610 H587 0.950 . S
C610 C609 1.334 . S
C610 C611 1.287 . S
C611 C610 1.287 . S
C611 C612 1.524 . S
C611 H630 0.913 . S
C612 H588 0.950 . S
C612 C611 1.524 . S
C612 C613 1.415 . S
C613 H589 0.950 . S
C613 C608 1.363 . S
C613 C612 1.415 . S
C614 H590 0.951 . S
C614 C615 1.366 . S
C614 C616 1.388 . S
C615 C614 1.366 . S
C615 C619 1.385 . S
C616 H591 0.951 . S
C616 C614 1.388 . S
C616 C617 1.366 . S
C617 C616 1.366 . S
C617 C618 1.414 . S
C617 C620 1.499 . S
C618 H592 0.950 . S
C618 C617 1.414 . S
C618 C619 1.374 . S
C619 H593 0.950 . S
C619 C615 1.385 . S
C619 C618 1.374 . S
C620 C617 1.499 . S
C620 C621 1.373 . S
C620 C622 1.389 . S
C621 H594 0.950 . S
C621 C607 1.377 1_556 S
C621 C620 1.373 . S
C622 C606 1.377 1_556 S
C622 C620 1.389 . S
C622 C623 1.524 . S
C623 C622 1.524 . S
C623 C624 1.397 . S
C623 C628 1.363 . S
C624 H595 0.950 . S
C624 C623 1.397 . S
C624 C625 1.334 . S
C625 H596 0.950 . S
C625 C624 1.334 . S
C625 C626 1.287 . S
C626 C625 1.287 . S
C626 C627 1.524 . S
C626 H629 0.999 . S
C627 H597 0.950 . S
C627 C626 1.524 . S
C627 C628 1.415 . S
C628 H598 0.950 . S
C628 C623 1.363 . S
C628 C627 1.415 . S
H629 C626 0.999 . S
H630 C611 0.913 . S
H631 C649 0.951 1_655 S
H632 C651 0.951 1_655 S
H633 C653 0.950 . S
H634 C654 0.950 . S
H635 C656 0.950 . S
H636 C659 0.937 1_455 S
H637 C660 0.950 . S
H638 C662 0.950 . S
H639 C663 0.950 . S
H640 C664 0.951 . S
H641 C666 0.951 . S
H642 C668 0.950 1_655 S
H643 C669 0.950 1_655 S
H644 C671 0.950 1_655 S
H645 C674 0.950 . S
H646 C675 0.950 . S
H647 C677 0.950 . S
H648 C678 0.950 . S
C649 H631 0.951 1_455 S
C649 C650 1.366 . S
C649 C651 1.388 . S
C650 C649 1.366 . S
C650 C654 1.385 . S
C651 H632 0.951 1_455 S
C651 C649 1.388 . S
C651 C652 1.366 . S
C652 C651 1.366 . S
C652 C653 1.414 . S
C652 C655 1.499 . S
C653 H633 0.950 . S
C653 C652 1.414 . S
C653 C654 1.374 . S
C654 H634 0.950 . S
C654 C650 1.385 . S
C654 C653 1.374 . S
C655 C652 1.499 . S
C655 C656 1.373 . S
C655 C657 1.389 . S
C656 H635 0.950 . S
C656 C655 1.373 . S
C656 C672 1.377 . S
C657 C655 1.389 . S
C657 C658 1.524 1_455 S
C657 C671 1.377 . S
C658 C657 1.524 1_655 S
C658 C659 1.397 . S
C658 C663 1.363 . S
C659 H636 0.937 1_655 S
C659 C658 1.397 . S
C659 C660 1.334 . S
C660 H637 0.950 . S
C660 C659 1.334 . S
C660 C661 1.287 . S
C661 C660 1.287 . S
C661 C662 1.524 . S
C661 H680 0.913 . S
C662 H638 0.950 . S
C662 C661 1.524 . S
C662 C663 1.415 . S
C663 H639 0.950 . S
C663 C658 1.363 . S
C663 C662 1.415 . S
C664 H640 0.951 . S
C664 C665 1.366 . S
C664 C666 1.388 . S
C665 C664 1.366 . S
C665 C669 1.385 . S
C666 H641 0.951 . S
C666 C664 1.388 . S
C666 C667 1.366 . S
C667 C666 1.366 . S
C667 C668 1.414 . S
C667 C670 1.499 . S
C668 H642 0.950 1_455 S
C668 C667 1.414 . S
C668 C669 1.374 . S
C669 H643 0.950 1_455 S
C669 C665 1.385 . S
C669 C668 1.374 . S
C670 C667 1.499 . S
C670 C671 1.373 . S
C670 C672 1.389 . S
C671 H644 0.950 1_455 S
C671 C657 1.377 . S
C671 C670 1.373 . S
C672 C656 1.377 . S
C672 C670 1.389 . S
C672 C673 1.524 . S
C673 C672 1.524 . S
C673 C674 1.397 . S
C673 C678 1.363 . S
C674 H645 0.950 . S
C674 C673 1.397 . S
C674 C675 1.334 . S
C675 H646 0.950 . S
C675 C674 1.334 . S
C675 C676 1.287 . S
C676 C675 1.287 . S
C676 C677 1.524 . S
C676 H679 0.999 . S
C677 H647 0.950 . S
C677 C676 1.524 . S
C677 C678 1.415 . S
C678 H648 0.950 . S
C678 C673 1.363 . S
C678 C677 1.415 . S
H679 C676 0.999 . S
H680 C661 0.913 . S
C115 C47 1.297 . S
C100 C11 1.298 . S
C150 C26 1.484 . S
C165 C65 1.483 . S
C200 C40 1.374 . S
C215 C78 1.372 . S
C250 C5 1.124 1_565 S
C265 C45 1.281 . S
C315 C56 1.514 . S
C300 C18 1.497 . S
C350 C32 1.368 . S
C365 C69 1.389 . S
C415 C58 1.167 . S
C400 C39 1.167 . S
C450 C4 1.305 1_655 S
C465 C71 1.320 . S
C515 C52 1.359 . S
C500 C19 1.199 . S
C565 C60 1.193 . S
C550 C33 1.053 . S
C615 C73 1.301 . S
C600 C12 1.307 . S
C650 C25 1.382 . S
C665 C43 1.393 . S
