# Generated by pormake.
# Topology alb, (6,12)-cn, num edge types: 1
# Building blocks:
#     Node 0, Type 0, BuildingBlock: OJICUG_clean_sbu_0, # of connection points: 6
#     Node 1, Type 0, BuildingBlock: OJICUG_clean_sbu_0, # of connection points: 6
#     Node 2, Type 1, BuildingBlock: QEWDON_clean_sbu_0, # of connection points: 12
#     Edge 3, Type (0, 1), BuildingBlock: MIFKUJ_clean_linker_0, # of connection points: 2
#     Edge 4, Type (0, 1), BuildingBlock: MIFKUJ_clean_linker_0, # of connection points: 2
#     Edge 5, Type (0, 1), BuildingBlock: MIFKUJ_clean_linker_0, # of connection points: 2
#     Edge 6, Type (0, 1), BuildingBlock: MIFKUJ_clean_linker_0, # of connection points: 2
#     Edge 7, Type (0, 1), BuildingBlock: MIFKUJ_clean_linker_0, # of connection points: 2
#     Edge 8, Type (0, 1), BuildingBlock: MIFKUJ_clean_linker_0, # of connection points: 2
#     Edge 9, Type (0, 1), BuildingBlock: MIFKUJ_clean_linker_0, # of connection points: 2
#     Edge 10, Type (0, 1), BuildingBlock: MIFKUJ_clean_linker_0, # of connection points: 2
#     Edge 11, Type (0, 1), BuildingBlock: MIFKUJ_clean_linker_0, # of connection points: 2
#     Edge 12, Type (0, 1), BuildingBlock: MIFKUJ_clean_linker_0, # of connection points: 2
#     Edge 13, Type (0, 1), BuildingBlock: MIFKUJ_clean_linker_0, # of connection points: 2
#     Edge 14, Type (0, 1), BuildingBlock: MIFKUJ_clean_linker_0, # of connection points: 2
# Relax obj value: 0.122
# Max RMSD: 0.219
# Mean RMSD: 0.143
data_MOF--net-alb--node1-OJICUG_clean_sbu_0--node2-QEWDON_clean_sbu_0--edge1-MIFKUJ_clean_linker_0
_symmetry_space_group_name_H-M    P1
_symmetry_Int_Tables_number       1
_symmetry_cell_setting            triclinic
loop_
_symmetry_equiv_pos_as_xyz
'x, y, z'
_cell_length_a     30.628327
_cell_length_b     31.987814
_cell_length_c     25.651145
_cell_angle_alpha  89.759452
_cell_angle_beta   91.611101
_cell_angle_gamma 121.58909
loop_
_atom_site_label
_atom_site_type_symbol
_atom_site_fract_x
_atom_site_fract_y
_atom_site_fract_z
_atom_type_partial_charge
Sc0 Sc 0.29712 0.70513 0.12653 0.0
Sc1 Sc 0.17972 0.59266 0.13194 0.0
Sc2 Sc 0.29586 0.59533 0.12609 0.0
O3 O 0.25742 0.63095 0.12811 0.0
C4 C 0.36018 0.68023 0.0473 0.0
C5 C 0.20237 0.68007 0.05297 0.0
C6 C 0.19697 0.52697 0.05351 0.0
C7 C 0.20915 0.68207 0.20722 0.0
C8 C 0.36917 0.68763 0.20035 0.0
C9 C 0.21167 0.53249 0.20882 0.0
O10 O 0.35073 0.70968 0.07032 0.0
O11 O 0.17186 0.6403 0.07635 0.0
O12 O 0.24024 0.53902 0.0741 0.0
O13 O 0.24939 0.71082 0.18256 0.0
O14 O 0.35644 0.64719 0.17811 0.0
O15 O 0.17838 0.54075 0.18859 0.0
O16 O 0.34761 0.71147 0.18948 0.0
O17 O 0.18129 0.63636 0.19696 0.0
O18 O 0.25702 0.5525 0.19245 0.0
O19 O 0.25015 0.70542 0.06376 0.0
O20 O 0.33895 0.63525 0.05936 0.0
O21 O 0.17114 0.54571 0.06698 0.0
Sc22 Sc 0.71753 0.30322 0.06964 0.0
Sc23 Sc 0.82678 0.41968 0.04702 0.0
Sc24 Sc 0.7042 0.40487 0.05129 0.0
O25 O 0.74951 0.37598 0.05612 0.0
C26 C 0.63299 0.30186 0.99378 0.0
C27 C 0.79901 0.32325 0.98297 0.0
C28 C 0.78321 0.46249 0.96113 0.0
C29 C 0.82138 0.34842 0.13777 0.0
C30 C 0.65242 0.32837 0.14397 0.0
C31 C 0.8027 0.48762 0.1154 0.0
O32 O 0.65538 0.28154 0.01418 0.0
O33 O 0.82753 0.36921 0.9918 0.0
O34 O 0.73943 0.44408 0.98114 0.0
O35 O 0.77498 0.3155 0.12756 0.0
O36 O 0.66204 0.36717 0.12001 0.0
O37 O 0.83272 0.47382 0.10118 0.0
O38 O 0.67098 0.30268 0.13084 0.0
O39 O 0.84546 0.38747 0.11145 0.0
O40 O 0.75618 0.46708 0.09957 0.0
O41 O 0.75938 0.29549 0.00883 0.0
O42 O 0.64701 0.3462 0.00296 0.0
O43 O 0.81903 0.45828 0.98146 0.0
Zn44 Zn 0.10623 0.09729 0.47752 0.0
Zn45 Zn 0.09996 0.99504 0.48246 0.0
O46 O 0.05568 0.02404 0.47732 0.0
H47 H 0.02024 0.00917 0.48661 0.0
C48 C 0.09238 0.16516 0.59735 0.0
O49 O 0.04498 0.1378 0.61263 0.0
Zn50 Zn 0.90172 0.90061 0.69329 0.0
Zn51 Zn 0.93302 0.98776 0.76305 0.0
O52 O 0.94666 0.97351 0.69149 0.0
H53 H 0.97895 0.99346 0.67469 0.0
Zn54 Zn 0.10081 0.09202 0.65785 0.0
O55 O 0.06883 0.02573 0.62174 0.0
Zn56 Zn 0.07817 0.98062 0.66926 0.0
H57 H 0.05459 0.0194 0.5866 0.0
Zn58 Zn 0.92085 0.00057 0.53814 0.0
O59 O 0.94595 0.95681 0.56433 0.0
H60 H 0.96931 0.96334 0.59331 0.0
Zn61 Zn 0.92664 0.90346 0.51247 0.0
C62 C 0.91669 0.08059 0.58878 0.0
O63 O 0.94588 0.10529 0.54984 0.0
O64 O 0.17583 0.1144 0.45028 0.0
O65 O 0.16925 0.04179 0.44869 0.0
O66 O 0.85763 0.94339 0.78364 0.0
O67 O 0.83427 0.88138 0.72819 0.0
O68 O 0.14273 0.09696 0.72421 0.0
O69 O 0.12739 0.0208 0.72847 0.0
C70 C 0.01419 0.90199 0.45588 0.0
O71 O 0.87375 0.97074 0.47323 0.0
O72 O 0.87876 0.90485 0.45768 0.0
O73 O 0.97692 0.05992 0.78751 0.0
C74 C 0.1941 0.08782 0.43953 0.0
O75 O 0.08039 0.14127 0.44912 0.0
C76 C 0.98704 0.89347 0.72544 0.0
O77 O 0.12495 0.15392 0.61176 0.0
C78 C 0.82352 0.90189 0.76409 0.0
O79 O 0.90087 0.03523 0.59275 0.0
C80 C 0.11294 0.95165 0.58129 0.0
O81 O 0.06186 0.9281 0.44737 0.0
O82 O 0.99456 0.92047 0.48351 0.0
C83 C 0.14911 0.06464 0.74626 0.0
O84 O 0.93941 0.87389 0.73276 0.0
O85 O 0.0087 0.93157 0.69718 0.0
C86 C 0.88054 0.836 0.59642 0.0
O87 O 0.1051 0.94443 0.62977 0.0
O88 O 0.10649 0.98385 0.55935 0.0
C89 C 0.86105 0.93226 0.44655 0.0
O90 O 0.89025 0.83716 0.54833 0.0
O91 O 0.89303 0.87641 0.61874 0.0
C92 C 0.99116 0.09407 0.75447 0.0
O93 O 0.97701 0.08266 0.70522 0.0
C94 C 0.03311 0.12687 0.44555 0.0
O95 O -0.00097 0.08303 0.46223 0.0
H96 H 0.15543 0.63755 0.29525 0.0
H97 H 0.13883 0.67671 0.36771 0.0
H98 H 0.2126 0.81396 0.28533 0.0
H99 H 0.23103 0.77572 0.21446 0.0
H100 H 0.24702 0.83048 0.38002 0.0
H101 H 0.07216 0.73712 0.3017 0.0
H102 H 0.99343 0.66111 0.27199 0.0
H103 H 0.98078 0.59829 0.42334 0.0
H104 H 0.05916 0.67428 0.45399 0.0
H105 H 0.17042 0.97689 0.49548 0.0
H106 H 0.18501 0.92458 0.43961 0.0
H107 H 0.10424 0.8048 0.54638 0.0
H108 H 0.08536 0.85662 0.59976 0.0
H109 H 0.07618 0.77151 0.45271 0.0
H110 H 0.24149 0.87196 0.53507 0.0
H111 H 0.31726 0.94997 0.56589 0.0
H112 H 0.34892 0.00059 0.40825 0.0
H113 H 0.27315 0.92296 0.37645 0.0
C114 C 0.16764 0.67596 0.29258 0.0
C115 C 0.19485 0.70367 0.2494 0.0
C116 C 0.15796 0.69829 0.33389 0.0
C117 C 0.17425 0.74837 0.33202 0.0
C118 C 0.20002 0.77545 0.28806 0.0
C119 C 0.21049 0.7535 0.24746 0.0
C120 C 0.16685 0.77381 0.37623 0.0
C121 C 0.20955 0.81773 0.39559 0.0
C122 C 0.11854 0.75637 0.39838 0.0
C123 C 0.07172 0.7109 0.37981 0.0
C124 C 0.05266 0.70693 0.32846 0.0
C125 C 0.00799 0.66391 0.31155 0.0
C126 C 0.98229 0.62468 0.34568 0.0
C127 C 0.00089 0.62859 0.39689 0.0
C128 C 0.04522 0.67167 0.41412 0.0
C129 C 0.15473 0.93921 0.5062 0.0
C130 C 0.12538 0.92051 0.55069 0.0
C131 C 0.16424 0.9095 0.47507 0.0
C132 C 0.14667 0.86086 0.4892 0.0
C133 C 0.1184 0.84227 0.53471 0.0
C134 C 0.10787 0.87192 0.56529 0.0
C135 C 0.15591 0.82923 0.45476 0.0
C136 C 0.11378 0.78404 0.43758 0.0
C137 C 0.20484 0.84557 0.43462 0.0
C138 C 0.25154 0.89162 0.45341 0.0
C139 C 0.2646 0.89971 0.50697 0.0
C140 C 0.30754 0.94387 0.52461 0.0
C141 C 0.33786 0.98019 0.48905 0.0
C142 C 0.32546 0.97235 0.43573 0.0
C143 C 0.28262 0.9282 0.41786 0.0
H144 H 0.37096 0.01439 0.50284 0.0
H145 H 0.94777 0.59128 0.33279 0.0
H146 H 0.62111 0.24628 0.20264 0.0
H147 H 0.54533 0.20412 0.25543 0.0
H148 H 0.51721 0.32153 0.23006 0.0
H149 H 0.59242 0.36356 0.17575 0.0
H150 H 0.51187 0.2191 0.34063 0.0
H151 H 0.3879 0.27419 0.2144 0.0
H152 H 0.37909 0.29366 0.12298 0.0
H153 H 0.44956 0.21579 0.07146 0.0
H154 H 0.45792 0.19503 0.16243 0.0
H155 H 0.24957 0.18125 0.40344 0.0
H156 H 0.32925 0.21935 0.35676 0.0
H157 H 0.33185 0.08611 0.36826 0.0
H158 H 0.25135 0.04716 0.41541 0.0
H159 H 0.348 0.18974 0.26235 0.0
H160 H 0.46005 0.12238 0.37764 0.0
H161 H 0.46251 0.09129 0.46522 0.0
H162 H 0.41087 0.18041 0.5316 0.0
H163 H 0.40861 0.21235 0.44449 0.0
C164 C 0.59934 0.26365 0.20873 0.0
C165 C 0.61266 0.30815 0.18422 0.0
C166 C 0.5559 0.23938 0.23907 0.0
C167 C 0.52483 0.25901 0.24574 0.0
C168 C 0.53992 0.30505 0.22439 0.0
C169 C 0.58328 0.32931 0.19373 0.0
C170 C 0.47568 0.23037 0.27319 0.0
C171 C 0.47602 0.21233 0.32318 0.0
C172 C 0.42862 0.22095 0.25038 0.0
C173 C 0.42418 0.23365 0.19544 0.0
C174 C 0.40147 0.26116 0.18359 0.0
C175 C 0.39649 0.27237 0.13183 0.0
C176 C 0.41395 0.25616 0.09149 0.0
C177 C 0.43627 0.22852 0.10278 0.0
C178 C 0.4412 0.21709 0.15447 0.0
C179 C 0.267 0.15988 0.39644 0.0
C180 C 0.24394 0.11103 0.41329 0.0
C181 C 0.31252 0.18177 0.36943 0.0
C182 C 0.33644 0.15564 0.35905 0.0
C183 C 0.31405 0.10701 0.37616 0.0
C184 C 0.26808 0.08481 0.40303 0.0
C185 C 0.38469 0.17985 0.32998 0.0
C186 C 0.38403 0.19672 0.27956 0.0
C187 C 0.43107 0.18705 0.35176 0.0
C188 C 0.43383 0.16943 0.40455 0.0
C189 C 0.44952 0.13553 0.411 0.0
C190 C 0.45081 0.11772 0.46053 0.0
C191 C 0.43674 0.13378 0.50393 0.0
C192 C 0.42161 0.16788 0.49793 0.0
C193 C 0.42027 0.18582 0.44849 0.0
H194 H 0.43762 0.11983 0.54221 0.0
H195 H 0.41011 0.26495 0.05149 0.0
H196 H 0.27467 0.51062 0.26356 0.0
H197 H 0.25307 0.45179 0.333 0.0
H198 H 0.09618 0.41549 0.32454 0.0
H199 H 0.11749 0.47504 0.25415 0.0
H200 H 0.13452 0.4244 0.42776 0.0
H201 H 0.11803 0.33469 0.2743 0.0
H202 H 0.142 0.3196 0.18855 0.0
H203 H 0.2785 0.33376 0.25791 0.0
H204 H 0.25561 0.34985 0.34391 0.0
H205 H 0.03128 0.19722 0.55896 0.0
H206 H 0.05363 0.26484 0.50022 0.0
H207 H 0.2087 0.29649 0.49681 0.0
H208 H 0.1864 0.22846 0.55627 0.0
H209 H 0.17271 0.29328 0.40176 0.0
H210 H 0.17432 0.36831 0.56145 0.0
H211 H 0.14096 0.37632 0.64462 0.0
H212 H 0.02088 0.38294 0.5621 0.0
H213 H 0.053 0.3743 0.47839 0.0
C214 C 0.23545 0.4904 0.27622 0.0
C215 C 0.19776 0.49758 0.25277 0.0
C216 C 0.22321 0.45662 0.31609 0.0
C217 C 0.17296 0.42889 0.33363 0.0
C218 C 0.13527 0.43661 0.31156 0.0
C219 C 0.14749 0.47054 0.27125 0.0
C220 C 0.16043 0.39109 0.37403 0.0
C221 C 0.14166 0.39496 0.42191 0.0
C222 C 0.17119 0.35362 0.36673 0.0
C223 C 0.1855 0.34423 0.31526 0.0
C224 C 0.15346 0.33523 0.27104 0.0
C225 C 0.16677 0.32634 0.22246 0.0
C226 C 0.21188 0.32592 0.21773 0.0
C227 C 0.24365 0.33424 0.26161 0.0
C228 C 0.23051 0.34324 0.31029 0.0
C229 C 0.07032 0.219 0.54665 0.0
C230 C 0.10702 0.20758 0.56286 0.0
C231 C 0.08317 0.25795 0.51306 0.0
C232 C 0.13305 0.28643 0.49462 0.0
C233 C 0.16999 0.27525 0.51075 0.0
C234 C 0.15719 0.23634 0.54475 0.0
C235 C 0.1454 0.32541 0.45562 0.0
C236 C 0.16499 0.3223 0.40797 0.0
C237 C 0.13394 0.3626 0.46298 0.0
C238 C 0.11546 0.36944 0.51343 0.0
C239 C 0.14044 0.37089 0.56092 0.0
C240 C 0.12183 0.37571 0.60825 0.0
C241 C 0.07863 0.37982 0.60868 0.0
C242 C 0.05424 0.37958 0.56174 0.0
C243 C 0.07266 0.37471 0.51432 0.0
H244 H 0.0642 0.38342 0.64537 0.0
H245 H 0.22214 0.31898 0.1801 0.0
H246 H 0.9233 0.4047 0.16802 0.0
H247 H 0.96927 0.38379 0.23232 0.0
H248 H 0.82789 0.25037 0.26753 0.0
H249 H 0.78162 0.27119 0.2046 0.0
H250 H 0.88815 0.29211 0.35522 0.0
H251 H 0.91109 0.25146 0.17514 0.0
H252 H 0.94059 0.27554 0.08524 0.0
H253 H 0.09156 0.38216 0.14456 0.0
H254 H 0.06253 0.35915 0.23469 0.0
H255 H 0.93616 0.11075 0.43675 0.0
H256 H 0.90971 0.16252 0.39381 0.0
H257 H 0.06674 0.2667 0.35631 0.0
H258 H 0.09304 0.21382 0.39693 0.0
H259 H 0.01381 0.25868 0.27823 0.0
H260 H 0.00043 0.28671 0.45422 0.0
H261 H 0.97718 0.2668 0.5463 0.0
H262 H 0.81761 0.19543 0.50162 0.0
H263 H 0.84001 0.21403 0.40928 0.0
C264 C 0.90186 0.37127 0.19 0.0
C265 C 0.84885 0.33925 0.18046 0.0
C266 C 0.92822 0.35937 0.22668 0.0
C267 C 0.90207 0.31516 0.2541 0.0
C268 C 0.84883 0.28464 0.24677 0.0
C269 C 0.82249 0.2965 0.21039 0.0
C270 C 0.92996 0.29778 0.28678 0.0
C271 C 0.91561 0.28467 0.33861 0.0
C272 C 0.96746 0.29018 0.2657 0.0
C273 C 0.98472 0.30365 0.21151 0.0
C274 C 0.95051 0.2801 0.16891 0.0
C275 C 0.96711 0.29359 0.11794 0.0
C276 C 0.01791 0.33035 0.10917 0.0
C277 C 0.05223 0.35366 0.15136 0.0
C278 C 0.03576 0.34037 0.20237 0.0
C279 C 0.96512 0.14482 0.41962 0.0
C280 C 0.01685 0.15861 0.42094 0.0
C281 C 0.95005 0.1747 0.39548 0.0
C282 C 0.98653 0.21941 0.37307 0.0
C283 C 0.03808 0.23286 0.37395 0.0
C284 C 0.05305 0.20267 0.39738 0.0
C285 C 0.97047 0.25082 0.34645 0.0
C286 C 0.98721 0.26682 0.29574 0.0
C287 C 0.93612 0.2621 0.36916 0.0
C288 C 0.92205 0.25162 0.42479 0.0
C289 C 0.96043 0.26662 0.46413 0.0
C290 C 0.9474 0.25553 0.51632 0.0
C291 C 0.89594 0.22985 0.5298 0.0
C292 C 0.85747 0.21534 0.49111 0.0
C293 C 0.87035 0.22619 0.43881 0.0
H294 H 0.88589 0.22122 0.57022 0.0
H295 H 0.03068 0.34077 0.06969 0.0
H296 H 0.42971 0.6515 0.22865 0.0
H297 H 0.51354 0.69603 0.27265 0.0
H298 H 0.49668 0.82032 0.29598 0.0
H299 H 0.41287 0.77638 0.2511 0.0
H300 H 0.58453 0.8466 0.24988 0.0
H301 H 0.49756 0.75418 0.39891 0.0
H302 H 0.43998 0.68048 0.44919 0.0
H303 H 0.53349 0.62046 0.41791 0.0
H304 H 0.59126 0.6935 0.36677 0.0
H305 H 0.80711 0.97548 0.41863 0.0
H306 H 0.72439 0.93618 0.37205 0.0
H307 H 0.7357 0.80997 0.3398 0.0
H308 H 0.81829 0.84862 0.38683 0.0
H309 H 0.65005 0.78686 0.3924 0.0
H310 H 0.73654 0.88092 0.24174 0.0
H311 H 0.79392 0.95624 0.19361 0.0
H312 H 0.70084 0.01526 0.23131 0.0
H313 H 0.64324 0.94053 0.28028 0.0
C314 C 0.44323 0.68792 0.24399 0.0
C315 C 0.41486 0.71063 0.2357 0.0
C316 C 0.49115 0.71326 0.26933 0.0
C317 C 0.51123 0.76145 0.28737 0.0
C318 C 0.4818 0.78319 0.28199 0.0
C319 C 0.43386 0.75792 0.25652 0.0
C320 C 0.56474 0.79047 0.30735 0.0
C321 C 0.59877 0.83404 0.28167 0.0
C322 C 0.58325 0.77328 0.34791 0.0
C323 C 0.54852 0.72918 0.37859 0.0
C324 C 0.50562 0.72508 0.40235 0.0
C325 C 0.47299 0.68346 0.43109 0.0
C326 C 0.483 0.64576 0.43664 0.0
C327 C 0.52575 0.64967 0.41354 0.0
C328 C 0.55848 0.6912 0.38472 0.0
C329 C 0.79276 0.93993 0.40045 0.0
C330 C 0.81875 0.91472 0.40738 0.0
C331 C 0.74549 0.91759 0.37371 0.0
C332 C 0.7239 0.87005 0.35305 0.0
C333 C 0.75175 0.84657 0.35596 0.0
C334 C 0.79899 0.86882 0.38271 0.0
C335 C 0.66992 0.84258 0.33445 0.0
C336 C 0.63578 0.79939 0.3606 0.0
C337 C 0.65129 0.86035 0.29466 0.0
C338 C 0.68583 0.90529 0.2651 0.0
C339 C 0.72854 0.91012 0.24015 0.0
C340 C 0.76105 0.95268 0.21263 0.0
C341 C 0.75111 0.99056 0.20951 0.0
C342 C 0.70853 0.98591 0.2338 0.0
C343 C 0.6759 0.94343 0.26139 0.0
H344 H 0.77633 0.02348 0.18819 0.0
H345 H 0.4577 0.61357 0.45891 0.0
H346 H 0.76722 0.54919 0.12915 0.0
H347 H 0.79913 0.617 0.19228 0.0
H348 H 0.91316 0.58646 0.24925 0.0
H349 H 0.88236 0.51934 0.18597 0.0
H350 H 0.84866 0.59757 0.32823 0.0
H351 H 0.95871 0.67795 0.18289 0.0
H352 H 0.97619 0.70093 0.09055 0.0
H353 H 0.8884 0.77026 0.09631 0.0
H354 H 0.86993 0.74717 0.1886 0.0
H355 H 0.04307 0.83583 0.44369 0.0
H356 H -0.00316 0.758 0.39467 0.0
H357 H 0.87158 0.78055 0.36381 0.0
H358 H 0.91689 0.85752 0.41451 0.0
H359 H 0.93634 0.77147 0.27371 0.0
H360 H 0.83155 0.69846 0.41979 0.0
H361 H 0.80476 0.66956 0.50894 0.0
H362 H 0.87304 0.58203 0.50117 0.0
H363 H 0.90099 0.61103 0.41235 0.0
C364 C 0.79916 0.557 0.15517 0.0
C365 C 0.82237 0.52903 0.15268 0.0
C366 C 0.81731 0.59571 0.19104 0.0
C367 C 0.85838 0.60651 0.22542 0.0
C368 C 0.88137 0.57854 0.22323 0.0
C369 C 0.86391 0.54041 0.1868 0.0
C370 C 0.87722 0.64707 0.26371 0.0
C371 C 0.86849 0.63573 0.31668 0.0
C372 C 0.90138 0.6964 0.24786 0.0
C373 C 0.91246 0.71035 0.19244 0.0
C374 C 0.94273 0.69768 0.16432 0.0
C375 C 0.95293 0.71083 0.11204 0.0
C376 C 0.93328 0.7369 0.08753 0.0
C377 C 0.90353 0.75 0.11532 0.0
C378 C 0.89324 0.73694 0.16763 0.0
C379 C 0.00508 0.82344 0.42759 0.0
C380 C 0.98332 0.85241 0.43284 0.0
C381 C 0.9787 0.77901 0.39993 0.0
C382 C 0.93073 0.76353 0.37625 0.0
C383 C 0.90826 0.79169 0.38263 0.0
C384 C 0.93405 0.83549 0.41157 0.0
C385 C 0.90816 0.72216 0.33867 0.0
C386 C 0.91648 0.73339 0.28559 0.0
C387 C 0.88321 0.67272 0.35458 0.0
C388 C 0.86994 0.65825 0.40969 0.0
C389 C 0.84238 0.67433 0.43757 0.0
C390 C 0.82657 0.65759 0.48804 0.0
C391 C 0.83778 0.62449 0.51101 0.0
C392 C 0.86491 0.60815 0.48362 0.0
C393 C 0.88088 0.62484 0.43324 0.0
H394 H 0.82488 0.61096 0.54975 0.0
H395 H 0.94121 0.74705 0.04704 0.0
H396 H 0.25544 0.76633 0.00049 0.0
H397 H 0.22179 0.80209 0.93995 0.0
H398 H 0.06935 0.67588 0.95512 0.0
H399 H 0.10268 0.63933 0.01625 0.0
H400 H 0.09586 0.70539 0.85217 0.0
H401 H 0.10146 0.77968 0.01723 0.0
H402 H 0.14283 0.82521 0.0991 0.0
H403 H 0.25223 0.94968 0.01199 0.0
H404 H 0.21198 0.9046 0.92956 0.0
H405 H 0.94422 0.80395 0.77014 0.0
H406 H 0.98692 0.76659 0.81355 0.0
H407 H 0.13414 0.89386 0.78052 0.0
H408 H 0.0914 0.93076 0.73466 0.0
H409 H 0.11618 0.86689 0.8889 0.0
H410 H 0.12052 0.79824 0.72798 0.0
H411 H 0.10053 0.75188 0.64525 0.0
H412 H 0.98531 0.62129 0.71988 0.0
H413 H 0.00465 0.66686 0.80312 0.0
C414 C 0.2147 0.74584 0.99103 0.0
C415 C 0.18171 0.69987 0.01356 0.0
C416 C 0.19555 0.76662 0.95655 0.0
C417 C 0.14304 0.74202 0.94377 0.0
C418 C 0.11003 0.69558 0.96489 0.0
C419 C 0.12914 0.67474 -0.00026 0.0
C420 C 0.12293 0.76464 0.90763 0.0
C421 C 0.09925 0.74022 0.86058 0.0
C422 C 0.13 0.81131 0.91767 0.0
C423 C 0.15401 0.83857 0.96722 0.0
C424 C 0.13461 0.8166 0.01552 0.0
C425 C 0.15781 0.84236 0.06204 0.0
C426 C 0.20023 0.89025 0.06075 0.0
C427 C 0.21943 0.91255 0.01293 0.0
C428 C 0.1964 0.88693 0.9663 0.0
C429 C 0.98576 0.82394 0.77131 0.0
C430 C 0.01443 0.87082 0.7492 0.0
C431 C 0.01006 0.80222 0.79586 0.0
C432 C 0.06363 0.82728 0.79994 0.0
C433 C 0.09265 0.87375 0.77734 0.0
C434 C 0.0682 0.89501 0.75145 0.0
C435 C 0.08824 0.80717 0.83353 0.0
C436 C 0.11255 0.83198 0.88042 0.0
C437 C 0.0824 0.76114 0.82306 0.0
C438 C 0.0639 0.73603 0.77169 0.0
C439 C 0.09015 0.75991 0.7265 0.0
C440 C 0.07951 0.73359 0.67972 0.0
C441 C 0.04247 0.68346 0.67768 0.0
C442 C 0.01458 0.65994 0.7218 0.0
C443 C 0.0253 0.686 0.76874 0.0
H444 H 0.03494 0.66296 0.64166 0.0
H445 H 0.21814 0.91013 0.0968 0.0
H446 H 0.57956 0.20195 0.98024 0.0
H447 H 0.49114 0.15045 0.94735 0.0
H448 H 0.4872 0.27988 0.90898 0.0
H449 H 0.57524 0.33171 0.94178 0.0
H450 H 0.40814 0.2153 0.97151 0.0
H451 H 0.49091 0.21067 0.81473 0.0
H452 H 0.54789 0.19397 0.76477 0.0
H453 H 0.461 0.04251 0.80872 0.0
H454 H 0.40386 0.05849 0.85953 0.0
H455 H 0.20828 0.15584 0.79066 0.0
H456 H 0.28274 0.18354 0.84892 0.0
H457 H 0.25014 0.03524 0.85946 0.0
H458 H 0.17579 0.00709 0.80049 0.0
H459 H 0.34296 0.09467 0.82533 0.0
H460 H 0.24956 0.09678 0.96731 0.0
H461 H 0.19296 0.11329 0.01805 0.0
H462 H 0.29889 0.26836 0.00518 0.0
H463 H 0.35546 0.25294 0.95305 0.0
C464 C 0.56033 0.21953 0.96373 0.0
C465 C 0.58427 0.27098 0.96419 0.0
C466 C 0.50978 0.19 0.94514 0.0
C467 C 0.48275 0.21154 0.92645 0.0
C468 C 0.50748 0.26274 0.92392 0.0
C469 C 0.55788 0.29225 0.94241 0.0
C470 C 0.4278 0.1812 0.9121 0.0
C471 C 0.39364 0.18912 0.93931 0.0
C472 C 0.40913 0.14544 0.87192 0.0
C473 C 0.44355 0.13591 0.84148 0.0
C474 C 0.48427 0.17391 0.81416 0.0
C475 C 0.51652 0.16455 0.78559 0.0
C476 C 0.50818 0.11725 0.78372 0.0
C477 C 0.46748 0.07916 0.8103 0.0
C478 C 0.43514 0.08834 0.83896 0.0
C479 C 0.21611 0.12885 0.80634 0.0
C480 C 0.18683 0.07948 0.79001 0.0
C481 C 0.25851 0.14471 0.84003 0.0
C482 C 0.27199 0.11144 0.85833 0.0
C483 C 0.2404 0.06147 0.84554 0.0
C484 C 0.19799 0.04553 0.81176 0.0
C485 C 0.3231 0.13028 0.8832 0.0
C486 C 0.35681 0.12008 0.85824 0.0
C487 C 0.3413 0.16401 0.92552 0.0
C488 C 0.3067 0.17361 0.95586 0.0
C489 C 0.26054 0.13443 0.97467 0.0
C490 C 0.22845 0.14361 0.00377 0.0
C491 C 0.24226 0.19184 0.01473 0.0
C492 C 0.2882 0.23101 0.99662 0.0
C493 C 0.32026 0.22205 0.9672 0.0
H494 H 0.21742 0.19887 0.03736 0.0
H495 H 0.53318 0.11007 0.76156 0.0
H496 H 0.16042 0.52921 0.9558 0.0
H497 H 0.13432 0.46737 0.88604 0.0
H498 H 0.15947 0.37618 0.99205 0.0
H499 H 0.18851 0.43908 0.06009 0.0
H500 H 0.19762 0.37749 0.90235 0.0
H501 H 0.03415 0.36038 0.95568 0.0
H502 H 0.98465 0.40056 0.96644 0.0
H503 H -0.00266 0.43456 0.80338 0.0
H504 H 0.04719 0.39486 0.79175 0.0
H505 H 0.03636 0.12976 0.8501 0.0
H506 H 0.078 0.21414 0.88197 0.0
H507 H 0.05432 0.2604 0.73112 0.0
H508 H 0.01365 0.17569 0.69839 0.0
H509 H 0.02409 0.29586 0.81775 0.0
H510 H 0.16851 0.2961 0.75951 0.0
H511 H 0.22582 0.26491 0.74571 0.0
H512 H 0.25493 0.26909 0.91082 0.0
H513 H 0.19698 0.29936 0.92585 0.0
C514 C 0.15985 0.49566 0.96393 0.0
C515 C 0.17603 0.48843 0.01304 0.0
C516 C 0.14502 0.46043 0.92421 0.0
C517 C 0.14447 0.41681 0.93384 0.0
C518 C 0.15989 0.40958 0.98343 0.0
C519 C 0.17605 0.44525 0.02242 0.0
C520 C 0.12764 0.37786 0.89329 0.0
C521 C 0.15964 0.3596 0.88398 0.0
C522 C 0.07922 0.35614 0.86689 0.0
C523 C 0.04485 0.37525 0.87301 0.0
C524 C 0.02613 0.37624 0.92211 0.0
C525 C -0.00169 0.39917 0.92841 0.0
C526 C 0.98847 0.42067 0.88573 0.0
C527 C 0.00537 0.41826 0.83644 0.0
C528 C 0.03328 0.39544 0.82995 0.0
C529 C 0.04018 0.15781 0.82352 0.0
C530 C 0.02054 0.14589 0.77203 0.0
C531 C 0.06405 0.20603 0.84177 0.0
C532 C 0.06893 0.24333 0.80893 0.0
C533 C 0.05047 0.23195 0.75712 0.0
C534 C 0.02717 0.18362 0.73857 0.0
C535 C 0.09286 0.29378 0.83008 0.0
C536 C 0.06244 0.31435 0.83536 0.0
C537 C 0.14302 0.31802 0.85237 0.0
C538 C 0.17817 0.2999 0.8438 0.0
C539 C 0.18679 0.29002 0.79296 0.0
C540 C 0.21943 0.27252 0.78492 0.0
C541 C 0.24401 0.26505 0.82739 0.0
C542 C 0.23588 0.27493 0.878 0.0
C543 C 0.20318 0.29233 0.8863 0.0
H544 H 0.26947 0.25176 0.82106 0.0
H545 H 0.96724 0.43872 0.89071 0.0
H546 H 0.88589 0.3647 0.92561 0.0
H547 H 0.90641 0.32518 0.85668 0.0
H548 H 0.75991 0.19192 0.87416 0.0
H549 H 0.73973 0.2302 0.94346 0.0
H550 H 0.83449 0.1738 0.87324 0.0
H551 H 0.78671 0.27137 0.76896 0.0
H552 H 0.79406 0.34893 0.74224 0.0
H553 H 0.95127 0.40807 0.70384 0.0
H554 H 0.9451 0.33116 0.73115 0.0
H555 H 0.84036 0.03889 0.65943 0.0
H556 H 0.8194 0.08048 0.72429 0.0
H557 H 0.94678 0.22022 0.67605 0.0
H558 H 0.96316 0.17907 0.60715 0.0
H559 H 0.88286 0.23746 0.69434 0.0
H560 H 0.93977 0.15451 0.82006 0.0
H561 H 0.94022 0.08564 0.86407 0.0
H562 H 0.7761 0.00599 0.86912 0.0
H563 H 0.77489 0.07481 0.82684 0.0
C564 C 0.85816 0.32704 0.91464 0.0
C565 C 0.81149 0.30057 0.94032 0.0
C566 C 0.86976 0.30472 0.8751 0.0
C567 C 0.83453 0.2559 0.86007 0.0
C568 C 0.78769 0.22966 0.8852 0.0
C569 C 0.77628 0.25167 0.92491 0.0
C570 C 0.8471 0.23094 0.82005 0.0
C571 C 0.84466 0.18743 0.83386 0.0
C572 C 0.86208 0.24967 0.76941 0.0
C573 C 0.86551 0.29563 0.7524 0.0
C574 C 0.82292 0.30103 0.7551 0.0
C575 C 0.82688 0.34487 0.73984 0.0
C576 C 0.87313 0.38344 0.72144 0.0
C577 C 0.91547 0.37818 0.7181 0.0
C578 C 0.91176 0.33447 0.73343 0.0
C579 C 0.86373 0.07852 0.66267 0.0
C580 C 0.90395 0.10563 0.62851 0.0
C581 C 0.85239 0.10238 0.70067 0.0
C582 C 0.88256 0.15373 0.70708 0.0
C583 C 0.9226 0.18066 0.67253 0.0
C584 C 0.93236 0.15699 0.63308 0.0
C585 C 0.87099 0.17988 0.7474 0.0
C586 C 0.87334 0.22373 0.73369 0.0
C587 C 0.85693 0.16207 0.79873 0.0
C588 C 0.85725 0.11897 0.819 0.0
C589 C 0.90387 0.12173 0.82949 0.0
C590 C 0.90427 0.08295 0.85442 0.0
C591 C 0.85827 0.04106 0.86819 0.0
C592 C 0.81171 0.03812 0.85779 0.0
C593 C 0.81114 0.07707 0.83367 0.0
H594 H 0.85877 0.01117 0.88752 0.0
H595 H 0.87612 0.41736 0.70969 0.0
H596 H 0.43235 0.77635 0.03038 0.0
H597 H 0.50398 0.80917 0.97206 0.0
H598 H 0.45153 0.6629 0.91556 0.0
H599 H 0.38049 0.62943 0.97569 0.0
H600 H 0.5488 0.70769 0.93351 0.0
H601 H 0.44264 0.75132 0.83965 0.0
H602 H 0.38763 0.78572 0.82602 0.0
H603 H 0.51349 0.92892 0.87038 0.0
H604 H 0.56911 0.89528 0.88501 0.0
H605 H 0.74309 0.80827 0.7422 0.0
H606 H 0.65769 0.76657 0.77942 0.0
H607 H 0.69975 0.89684 0.86907 0.0
H608 H 0.7848 0.93852 0.83221 0.0
H609 H 0.60192 0.85365 0.82338 0.0
H610 H 0.70351 0.80427 0.9263 0.0
H611 H 0.75776 0.76851 0.9353 0.0
H612 H 0.63678 0.63335 0.86663 0.0
H613 H 0.58211 0.66838 0.85695 0.0
C614 C 0.43548 0.75109 0.00507 0.0
C615 C 0.40048 0.70019 0.00769 0.0
C616 C 0.4765 0.77001 0.97144 0.0
C617 C 0.48291 0.73868 0.93862 0.0
C618 C 0.44743 0.68788 0.94037 0.0
C619 C 0.40672 0.6688 0.97466 0.0
C620 C 0.52834 0.75894 0.90497 0.0
C621 C 0.55968 0.73897 0.90862 0.0
C622 C 0.54321 0.80016 0.87278 0.0
C623 C 0.50997 0.82066 0.86376 0.0
C624 C 0.45852 0.79009 0.84683 0.0
C625 C 0.42723 0.80947 0.83889 0.0
C626 C 0.44703 0.85946 0.84742 0.0
C627 C 0.4982 0.8902 0.8638 0.0
C628 C 0.52965 0.871 0.87186 0.0
C629 C 0.73404 0.82815 0.76955 0.0
C630 C 0.7709 0.87681 0.78437 0.0
C631 C 0.68526 0.80423 0.79085 0.0
C632 C 0.6725 0.82855 0.82723 0.0
C633 C 0.70872 0.87742 0.84098 0.0
C634 C 0.75744 0.90117 0.82001 0.0
C635 C 0.62227 0.80282 0.85282 0.0
C636 C 0.59028 0.82188 0.84772 0.0
C637 C 0.60648 0.76049 0.88316 0.0
C638 C 0.63892 0.73905 0.89049 0.0
C639 C 0.6886 0.76696 0.913 0.0
C640 C 0.71942 0.74679 0.91827 0.0
C641 C 0.70083 0.69868 0.90146 0.0
C642 C 0.65125 0.67055 0.87968 0.0
C643 C 0.62028 0.69051 0.87436 0.0
H644 H 0.72483 0.68322 0.90533 0.0
H645 H 0.42273 0.87438 0.84126 0.0
H646 H 0.87417 0.54132 0.93022 0.0
H647 H 0.88714 0.59578 0.85693 0.0
H648 H 0.72827 0.50169 0.80869 0.0
H649 H 0.71458 0.44876 0.88319 0.0
H650 H 0.87766 0.59504 0.75185 0.0
H651 H 0.67744 0.56403 0.77718 0.0
H652 H 0.6127 0.53581 0.84519 0.0
H653 H 0.73206 0.59421 0.96421 0.0
H654 H 0.79742 0.62265 0.89688 0.0
H655 H 0.86273 0.74744 0.56133 0.0
H656 H 0.83566 0.67329 0.612 0.0
H657 H 0.82894 0.74693 0.74925 0.0
H658 H 0.84863 0.81762 0.69727 0.0
H659 H 0.76119 0.65929 0.7569 0.0
H660 H 0.93935 0.73975 0.70936 0.0
H661 H 0.00189 0.77388 0.63927 0.0
H662 H 0.9376 0.62957 0.57311 0.0
H663 H 0.87346 0.595 0.64191 0.0
C664 C 0.84221 0.53201 0.90355 0.0
C665 C 0.79309 0.49143 0.91301 0.0
C666 C 0.84974 0.56298 0.86151 0.0
C667 C 0.80843 0.55344 0.82791 0.0
C668 C 0.76044 0.5105 0.83482 0.0
C669 C 0.75262 0.4803 0.87745 0.0
C670 C 0.81365 0.59099 0.78994 0.0
C671 C 0.85217 0.60902 0.75281 0.0
C672 C 0.78097 0.60991 0.79149 0.0
C673 C 0.74215 0.59514 0.83207 0.0
C674 C 0.6898 0.57107 0.81786 0.0
C675 C 0.65303 0.55477 0.85628 0.0
C676 C 0.66825 0.56306 0.90899 0.0
C677 C 0.7203 0.58768 0.9234 0.0
C678 C 0.75721 0.60381 0.88514 0.0
C679 C 0.85459 0.74748 0.60211 0.0
C680 C 0.86043 0.78973 0.62594 0.0
C681 C 0.83955 0.70515 0.63118 0.0
C682 C 0.83249 0.70501 0.68512 0.0
C683 C 0.83509 0.74605 0.70799 0.0
C684 C 0.84774 0.78732 0.6784 0.0
C685 C 0.82543 0.66392 0.71877 0.0
C686 C 0.78657 0.6452 0.75539 0.0
C687 C 0.85886 0.64566 0.7176 0.0
C688 C 0.9014 0.665 0.68054 0.0
C689 C 0.93886 0.71538 0.68005 0.0
C690 C 0.97397 0.73487 0.64005 0.0
C691 C 0.97284 0.70403 0.60094 0.0
C692 C 0.93753 0.65351 0.60269 0.0
C693 C 0.90183 0.63396 0.64226 0.0
H694 H 7e-05 0.71912 0.56996 0.0
H695 H 0.63972 0.55056 0.93865 0.0
loop_
_geom_bond_atom_site_label_1
_geom_bond_atom_site_label_2
_geom_bond_distance
_geom_bond_site_symmetry_2
_ccdc_geom_bond_type
Sc0 O3 2.025 . S
Sc0 O10 2.105 . S
Sc0 O13 2.105 . S
Sc0 O16 2.105 . S
Sc0 O19 2.105 . S
Sc1 O3 2.025 . S
Sc1 O11 2.105 . S
Sc1 O15 2.105 . S
Sc1 O17 2.105 . S
Sc1 O21 2.105 . S
Sc2 O3 2.025 . S
Sc2 O12 2.105 . S
Sc2 O14 2.105 . S
Sc2 O18 2.105 . S
Sc2 O20 2.105 . S
O3 Sc0 2.025 . S
O3 Sc1 2.025 . S
O3 Sc2 2.025 . S
C4 O10 1.268 . S
C4 O20 1.268 . S
C5 O11 1.268 . S
C5 O19 1.268 . S
C6 O12 1.268 . S
C6 O21 1.268 . S
C7 O13 1.268 . S
C7 O17 1.268 . S
C8 O14 1.268 . S
C8 O16 1.268 . S
C9 O15 1.268 . S
C9 O18 1.268 . S
O10 Sc0 2.105 . S
O10 C4 1.268 . S
O11 Sc1 2.105 . S
O11 C5 1.268 . S
O12 Sc2 2.105 . S
O12 C6 1.268 . S
O13 Sc0 2.105 . S
O13 C7 1.268 . S
O14 Sc2 2.105 . S
O14 C8 1.268 . S
O15 Sc1 2.105 . S
O15 C9 1.268 . S
O16 Sc0 2.105 . S
O16 C8 1.268 . S
O17 Sc1 2.105 . S
O17 C7 1.268 . S
O18 Sc2 2.105 . S
O18 C9 1.268 . S
O19 Sc0 2.105 . S
O19 C5 1.268 . S
O20 Sc2 2.105 . S
O20 C4 1.268 . S
O21 Sc1 2.105 . S
O21 C6 1.268 . S
Sc22 O25 2.025 . S
Sc22 O32 2.105 1_554 S
Sc22 O35 2.105 . S
Sc22 O38 2.105 . S
Sc22 O41 2.105 1_554 S
Sc23 O25 2.025 . S
Sc23 O33 2.105 1_554 S
Sc23 O37 2.105 . S
Sc23 O39 2.105 . S
Sc23 O43 2.105 1_554 S
Sc24 O25 2.025 . S
Sc24 O34 2.105 1_554 S
Sc24 O36 2.105 . S
Sc24 O40 2.105 . S
Sc24 O42 2.105 1_554 S
O25 Sc22 2.025 . S
O25 Sc23 2.025 . S
O25 Sc24 2.025 . S
C26 O32 1.268 . S
C26 O42 1.268 . S
C27 O33 1.268 . S
C27 O41 1.268 . S
C28 O34 1.268 . S
C28 O43 1.268 . S
C29 O35 1.268 . S
C29 O39 1.268 . S
C30 O36 1.268 . S
C30 O38 1.268 . S
C31 O37 1.268 . S
C31 O40 1.268 . S
O32 Sc22 2.105 1_556 S
O32 C26 1.268 . S
O33 Sc23 2.105 1_556 S
O33 C27 1.268 . S
O34 Sc24 2.105 1_556 S
O34 C28 1.268 . S
O35 Sc22 2.105 . S
O35 C29 1.268 . S
O36 Sc24 2.105 . S
O36 C30 1.268 . S
O37 Sc23 2.105 . S
O37 C31 1.268 . S
O38 Sc22 2.105 . S
O38 C30 1.268 . S
O39 Sc23 2.105 . S
O39 C29 1.268 . S
O40 Sc24 2.105 . S
O40 C31 1.268 . S
O41 Sc22 2.105 1_556 S
O41 C27 1.268 . S
O42 Sc24 2.105 1_556 S
O42 C26 1.268 . S
O43 Sc23 2.105 1_556 S
O43 C28 1.268 . S
Zn44 O46 1.933 . S
Zn44 O64 1.985 . S
Zn44 O75 1.955 . S
Zn45 O46 1.911 1_565 S
Zn45 O65 1.970 1_565 S
Zn45 O81 1.945 . S
Zn45 O88 1.981 . S
O46 Zn44 1.933 . S
O46 Zn45 1.911 1_545 S
O46 H47 0.841 1_445 S
H47 O46 0.841 1_665 S
C48 O49 1.246 . S
C48 O77 1.276 . S
O49 C48 1.246 . S
Zn50 O52 1.911 . S
Zn50 O67 1.970 . S
Zn50 O84 1.945 1_655 S
Zn50 O91 1.981 . S
Zn51 O52 1.933 1_545 S
Zn51 O66 1.985 1_545 S
Zn51 O73 1.955 1_655 S
O52 Zn50 1.911 . S
O52 Zn51 1.933 1_565 S
O52 H53 0.841 1_665 S
H53 O52 0.841 1_445 S
Zn54 O55 1.933 . S
Zn54 O68 1.985 . S
Zn54 O77 1.955 . S
O55 Zn54 1.933 . S
O55 Zn56 1.911 . S
O55 H57 0.841 . S
Zn56 O55 1.911 . S
Zn56 O69 1.970 . S
Zn56 O85 1.981 1_545 S
Zn56 O87 1.945 1_545 S
H57 O55 0.841 . S
Zn58 O59 1.933 . S
Zn58 O71 1.985 . S
Zn58 O79 1.955 1_565 S
O59 Zn58 1.933 . S
O59 H60 0.841 . S
O59 Zn61 1.911 . S
H60 O59 0.841 . S
Zn61 O59 1.911 . S
Zn61 O72 1.970 . S
Zn61 O82 1.981 . S
Zn61 O90 1.945 . S
C62 O63 1.246 . S
C62 O79 1.276 . S
O63 C62 1.246 . S
O64 Zn44 1.985 . S
O64 C74 1.245 . S
O65 Zn45 1.970 1_545 S
O65 C74 1.263 . S
O66 Zn51 1.985 1_565 S
O66 C78 1.245 . S
O67 Zn50 1.970 . S
O67 C78 1.263 . S
O68 Zn54 1.985 . S
O68 C83 1.245 . S
O69 Zn56 1.970 . S
O69 C83 1.263 . S
C70 O81 1.262 1_655 S
C70 O82 1.245 . S
O71 Zn58 1.985 . S
O71 C89 1.245 . S
O72 Zn61 1.970 . S
O72 C89 1.263 . S
O73 Zn51 1.955 1_455 S
O73 C92 1.276 . S
C74 O64 1.245 . S
C74 O65 1.263 . S
O75 Zn44 1.955 . S
O75 C94 1.276 1_455 S
C76 O84 1.262 . S
C76 O85 1.245 . S
O77 C48 1.276 . S
O77 Zn54 1.955 . S
C78 O66 1.245 . S
C78 O67 1.263 . S
O79 Zn58 1.955 1_545 S
O79 C62 1.276 . S
C80 O87 1.262 . S
C80 O88 1.245 . S
O81 Zn45 1.945 . S
O81 C70 1.262 1_455 S
O82 Zn61 1.981 . S
O82 C70 1.245 . S
C83 O68 1.245 . S
C83 O69 1.263 . S
O84 Zn50 1.945 1_455 S
O84 C76 1.262 . S
O85 Zn56 1.981 1_565 S
O85 C76 1.245 . S
C86 O90 1.262 . S
C86 O91 1.245 . S
O87 Zn56 1.945 1_565 S
O87 C80 1.262 . S
O88 Zn45 1.981 . S
O88 C80 1.245 . S
C89 O71 1.245 . S
C89 O72 1.263 . S
O90 Zn61 1.945 . S
O90 C86 1.262 . S
O91 Zn50 1.981 . S
O91 C86 1.245 . S
C92 O73 1.276 . S
C92 O93 1.246 . S
O93 C92 1.246 . S
C94 O75 1.276 1_655 S
C94 O95 1.246 . S
O95 C94 1.246 . S
H96 C114 0.951 . S
H97 C116 0.951 . S
H98 C118 0.950 . S
H99 C119 0.950 . S
H100 C121 0.950 . S
H101 C124 0.950 . S
H102 C125 0.950 . S
H103 C127 0.950 . S
H104 C128 0.950 . S
H105 C129 0.951 . S
H106 C131 0.951 . S
H107 C133 0.950 . S
H108 C134 0.950 . S
H109 C136 0.950 . S
H110 C139 0.950 . S
H111 C140 0.950 . S
H112 C142 0.950 . S
H113 C143 0.950 . S
C114 H96 0.951 . S
C114 C115 1.366 . S
C114 C116 1.388 . S
C115 C114 1.366 . S
C115 C119 1.385 . S
C116 H97 0.951 . S
C116 C114 1.388 . S
C116 C117 1.366 . S
C117 C116 1.366 . S
C117 C118 1.414 . S
C117 C120 1.499 . S
C118 H98 0.950 . S
C118 C117 1.414 . S
C118 C119 1.374 . S
C119 H99 0.950 . S
C119 C115 1.385 . S
C119 C118 1.374 . S
C120 C117 1.499 . S
C120 C121 1.373 . S
C120 C122 1.389 . S
C121 H100 0.950 . S
C121 C120 1.373 . S
C121 C137 1.377 . S
C122 C120 1.389 . S
C122 C123 1.524 . S
C122 C136 1.377 . S
C123 C122 1.524 . S
C123 C124 1.397 . S
C123 C128 1.363 . S
C124 H101 0.950 . S
C124 C123 1.397 . S
C124 C125 1.334 . S
C125 H102 0.950 . S
C125 C124 1.334 . S
C125 C126 1.287 . S
C126 C125 1.287 . S
C126 C127 1.524 . S
C126 H145 0.913 . S
C127 H103 0.950 . S
C127 C126 1.524 . S
C127 C128 1.415 . S
C128 H104 0.950 . S
C128 C123 1.363 . S
C128 C127 1.415 . S
C129 H105 0.951 . S
C129 C130 1.366 . S
C129 C131 1.388 . S
C130 C129 1.366 . S
C130 C134 1.385 . S
C131 H106 0.951 . S
C131 C129 1.388 . S
C131 C132 1.366 . S
C132 C131 1.366 . S
C132 C133 1.414 . S
C132 C135 1.499 . S
C133 H107 0.950 . S
C133 C132 1.414 . S
C133 C134 1.374 . S
C134 H108 0.950 . S
C134 C130 1.385 . S
C134 C133 1.374 . S
C135 C132 1.499 . S
C135 C136 1.373 . S
C135 C137 1.389 . S
C136 H109 0.950 . S
C136 C122 1.377 . S
C136 C135 1.373 . S
C137 C121 1.377 . S
C137 C135 1.389 . S
C137 C138 1.524 . S
C138 C137 1.524 . S
C138 C139 1.397 . S
C138 C143 1.363 . S
C139 H110 0.950 . S
C139 C138 1.397 . S
C139 C140 1.334 1_565 S
C140 H111 0.950 . S
C140 C139 1.334 1_545 S
C140 C141 1.287 . S
C141 C140 1.287 . S
C141 C142 1.524 . S
C141 H144 0.999 . S
C142 H112 0.950 . S
C142 C141 1.524 . S
C142 C143 1.415 1_545 S
C143 H113 0.950 . S
C143 C138 1.363 . S
C143 C142 1.415 1_565 S
H144 C141 0.999 . S
H145 C126 0.913 . S
H146 C164 0.951 . S
H147 C166 0.951 . S
H148 C168 0.950 . S
H149 C169 0.950 . S
H150 C171 0.950 . S
H151 C174 0.950 . S
H152 C175 0.950 . S
H153 C177 0.950 . S
H154 C178 0.950 . S
H155 C179 0.951 . S
H156 C181 0.951 . S
H157 C183 0.950 . S
H158 C184 0.950 . S
H159 C186 0.950 . S
H160 C189 0.950 . S
H161 C190 0.950 . S
H162 C192 0.950 . S
H163 C193 0.950 . S
C164 H146 0.951 . S
C164 C165 1.366 . S
C164 C166 1.388 . S
C165 C164 1.366 . S
C165 C169 1.385 . S
C166 H147 0.951 . S
C166 C164 1.388 . S
C166 C167 1.366 . S
C167 C166 1.366 . S
C167 C168 1.414 . S
C167 C170 1.499 . S
C168 H148 0.950 . S
C168 C167 1.414 . S
C168 C169 1.374 . S
C169 H149 0.950 . S
C169 C165 1.385 . S
C169 C168 1.374 . S
C170 C167 1.499 . S
C170 C171 1.373 . S
C170 C172 1.389 . S
C171 H150 0.950 . S
C171 C170 1.373 . S
C171 C187 1.377 . S
C172 C170 1.389 . S
C172 C173 1.524 . S
C172 C186 1.377 . S
C173 C172 1.524 . S
C173 C174 1.397 . S
C173 C178 1.363 . S
C174 H151 0.950 . S
C174 C173 1.397 . S
C174 C175 1.334 . S
C175 H152 0.950 . S
C175 C174 1.334 . S
C175 C176 1.287 . S
C176 C175 1.287 . S
C176 C177 1.524 . S
C176 H195 0.913 . S
C177 H153 0.950 . S
C177 C176 1.524 . S
C177 C178 1.415 . S
C178 H154 0.950 . S
C178 C173 1.363 . S
C178 C177 1.415 . S
C179 H155 0.951 . S
C179 C180 1.366 . S
C179 C181 1.388 . S
C180 C179 1.366 . S
C180 C184 1.385 . S
C181 H156 0.951 . S
C181 C179 1.388 . S
C181 C182 1.366 . S
C182 C181 1.366 . S
C182 C183 1.414 . S
C182 C185 1.499 . S
C183 H157 0.950 . S
C183 C182 1.414 . S
C183 C184 1.374 . S
C184 H158 0.950 . S
C184 C180 1.385 . S
C184 C183 1.374 . S
C185 C182 1.499 . S
C185 C186 1.373 . S
C185 C187 1.389 . S
C186 H159 0.950 . S
C186 C172 1.377 . S
C186 C185 1.373 . S
C187 C171 1.377 . S
C187 C185 1.389 . S
C187 C188 1.524 . S
C188 C187 1.524 . S
C188 C189 1.397 . S
C188 C193 1.363 . S
C189 H160 0.950 . S
C189 C188 1.397 . S
C189 C190 1.334 1_545 S
C190 H161 0.950 . S
C190 C189 1.334 1_565 S
C190 C191 1.287 . S
C191 C190 1.287 . S
C191 C192 1.524 1_565 S
C191 H194 0.999 . S
C192 H162 0.950 . S
C192 C191 1.524 1_545 S
C192 C193 1.415 . S
C193 H163 0.950 . S
C193 C188 1.363 . S
C193 C192 1.415 . S
H194 C191 0.999 . S
H195 C176 0.913 . S
H196 C214 0.951 . S
H197 C216 0.951 . S
H198 C218 0.950 . S
H199 C219 0.950 . S
H200 C221 0.950 . S
H201 C224 0.950 . S
H202 C225 0.950 . S
H203 C227 0.950 . S
H204 C228 0.950 . S
H205 C229 0.951 . S
H206 C231 0.951 . S
H207 C233 0.950 . S
H208 C234 0.950 . S
H209 C236 0.950 . S
H210 C239 0.950 . S
H211 C240 0.950 . S
H212 C242 0.950 . S
H213 C243 0.950 . S
C214 H196 0.951 . S
C214 C215 1.366 . S
C214 C216 1.388 . S
C215 C214 1.366 . S
C215 C219 1.385 . S
C216 H197 0.951 . S
C216 C214 1.388 . S
C216 C217 1.366 . S
C217 C216 1.366 . S
C217 C218 1.414 . S
C217 C220 1.499 . S
C218 H198 0.950 . S
C218 C217 1.414 . S
C218 C219 1.374 . S
C219 H199 0.950 . S
C219 C215 1.385 . S
C219 C218 1.374 . S
C220 C217 1.499 . S
C220 C221 1.373 . S
C220 C222 1.389 . S
C221 H200 0.950 . S
C221 C220 1.373 . S
C221 C237 1.377 . S
C222 C220 1.389 . S
C222 C223 1.524 . S
C222 C236 1.377 . S
C223 C222 1.524 . S
C223 C224 1.397 . S
C223 C228 1.363 . S
C224 H201 0.950 . S
C224 C223 1.397 . S
C224 C225 1.334 . S
C225 H202 0.950 . S
C225 C224 1.334 . S
C225 C226 1.287 . S
C226 C225 1.287 . S
C226 C227 1.524 . S
C226 H245 0.913 . S
C227 H203 0.950 . S
C227 C226 1.524 . S
C227 C228 1.415 . S
C228 H204 0.950 . S
C228 C223 1.363 . S
C228 C227 1.415 . S
C229 H205 0.951 . S
C229 C230 1.366 . S
C229 C231 1.388 . S
C230 C229 1.366 . S
C230 C234 1.385 . S
C231 H206 0.951 . S
C231 C229 1.388 . S
C231 C232 1.366 . S
C232 C231 1.366 . S
C232 C233 1.414 . S
C232 C235 1.499 . S
C233 H207 0.950 . S
C233 C232 1.414 . S
C233 C234 1.374 . S
C234 H208 0.950 . S
C234 C230 1.385 . S
C234 C233 1.374 . S
C235 C232 1.499 . S
C235 C236 1.373 . S
C235 C237 1.389 . S
C236 H209 0.950 . S
C236 C222 1.377 . S
C236 C235 1.373 . S
C237 C221 1.377 . S
C237 C235 1.389 . S
C237 C238 1.524 . S
C238 C237 1.524 . S
C238 C239 1.397 . S
C238 C243 1.363 . S
C239 H210 0.950 . S
C239 C238 1.397 . S
C239 C240 1.334 . S
C240 H211 0.950 . S
C240 C239 1.334 . S
C240 C241 1.287 . S
C241 C240 1.287 . S
C241 C242 1.524 . S
C241 H244 0.999 . S
C242 H212 0.950 . S
C242 C241 1.524 . S
C242 C243 1.415 . S
C243 H213 0.950 . S
C243 C238 1.363 . S
C243 C242 1.415 . S
H244 C241 0.999 . S
H245 C226 0.913 . S
H246 C264 0.951 . S
H247 C266 0.951 . S
H248 C268 0.950 . S
H249 C269 0.950 . S
H250 C271 0.950 . S
H251 C274 0.950 . S
H252 C275 0.950 . S
H253 C277 0.950 . S
H254 C278 0.950 . S
H255 C279 0.951 . S
H256 C281 0.951 . S
H257 C283 0.950 . S
H258 C284 0.950 . S
H259 C286 0.950 . S
H260 C289 0.950 . S
H261 C290 0.950 . S
H262 C292 0.950 . S
H263 C293 0.950 . S
C264 H246 0.951 . S
C264 C265 1.366 . S
C264 C266 1.388 . S
C265 C264 1.366 . S
C265 C269 1.385 . S
C266 H247 0.951 . S
C266 C264 1.388 . S
C266 C267 1.366 . S
C267 C266 1.366 . S
C267 C268 1.414 . S
C267 C270 1.499 . S
C268 H248 0.950 . S
C268 C267 1.414 . S
C268 C269 1.374 . S
C269 H249 0.950 . S
C269 C265 1.385 . S
C269 C268 1.374 . S
C270 C267 1.499 . S
C270 C271 1.373 . S
C270 C272 1.389 . S
C271 H250 0.950 . S
C271 C270 1.373 . S
C271 C287 1.377 . S
C272 C270 1.389 . S
C272 C273 1.524 . S
C272 C286 1.377 . S
C273 C272 1.524 . S
C273 C274 1.397 . S
C273 C278 1.363 . S
C274 H251 0.950 . S
C274 C273 1.397 . S
C274 C275 1.334 . S
C275 H252 0.950 . S
C275 C274 1.334 . S
C275 C276 1.287 . S
C276 C275 1.287 . S
C276 C277 1.524 . S
C276 H295 0.913 . S
C277 H253 0.950 . S
C277 C276 1.524 . S
C277 C278 1.415 . S
C278 H254 0.950 . S
C278 C273 1.363 . S
C278 C277 1.415 . S
C279 H255 0.951 . S
C279 C280 1.366 . S
C279 C281 1.388 . S
C280 C279 1.366 . S
C280 C284 1.385 . S
C281 H256 0.951 . S
C281 C279 1.388 . S
C281 C282 1.366 . S
C282 C281 1.366 . S
C282 C283 1.414 . S
C282 C285 1.499 . S
C283 H257 0.950 . S
C283 C282 1.414 . S
C283 C284 1.374 . S
C284 H258 0.950 . S
C284 C280 1.385 . S
C284 C283 1.374 . S
C285 C282 1.499 . S
C285 C286 1.373 . S
C285 C287 1.389 . S
C286 H259 0.950 . S
C286 C272 1.377 . S
C286 C285 1.373 . S
C287 C271 1.377 . S
C287 C285 1.389 . S
C287 C288 1.524 . S
C288 C287 1.524 . S
C288 C289 1.397 . S
C288 C293 1.363 . S
C289 H260 0.950 . S
C289 C288 1.397 . S
C289 C290 1.334 . S
C290 H261 0.950 . S
C290 C289 1.334 . S
C290 C291 1.287 . S
C291 C290 1.287 . S
C291 C292 1.524 . S
C291 H294 0.999 . S
C292 H262 0.950 . S
C292 C291 1.524 . S
C292 C293 1.415 . S
C293 H263 0.950 . S
C293 C288 1.363 . S
C293 C292 1.415 . S
H294 C291 0.999 . S
H295 C276 0.913 . S
H296 C314 0.951 . S
H297 C316 0.951 . S
H298 C318 0.950 . S
H299 C319 0.950 . S
H300 C321 0.950 . S
H301 C324 0.950 . S
H302 C325 0.950 . S
H303 C327 0.950 . S
H304 C328 0.950 . S
H305 C329 0.951 . S
H306 C331 0.951 . S
H307 C333 0.950 . S
H308 C334 0.950 . S
H309 C336 0.950 . S
H310 C339 0.950 . S
H311 C340 0.950 . S
H312 C342 0.950 1_545 S
H313 C343 0.950 . S
C314 H296 0.951 . S
C314 C315 1.366 . S
C314 C316 1.388 . S
C315 C314 1.366 . S
C315 C319 1.385 . S
C316 H297 0.951 . S
C316 C314 1.388 . S
C316 C317 1.366 . S
C317 C316 1.366 . S
C317 C318 1.414 . S
C317 C320 1.499 . S
C318 H298 0.950 . S
C318 C317 1.414 . S
C318 C319 1.374 . S
C319 H299 0.950 . S
C319 C315 1.385 . S
C319 C318 1.374 . S
C320 C317 1.499 . S
C320 C321 1.373 . S
C320 C322 1.389 . S
C321 H300 0.950 . S
C321 C320 1.373 . S
C321 C337 1.377 . S
C322 C320 1.389 . S
C322 C323 1.524 . S
C322 C336 1.377 . S
C323 C322 1.524 . S
C323 C324 1.397 . S
C323 C328 1.363 . S
C324 H301 0.950 . S
C324 C323 1.397 . S
C324 C325 1.334 . S
C325 H302 0.950 . S
C325 C324 1.334 . S
C325 C326 1.287 . S
C326 C325 1.287 . S
C326 C327 1.524 . S
C326 H345 0.913 . S
C327 H303 0.950 . S
C327 C326 1.524 . S
C327 C328 1.415 . S
C328 H304 0.950 . S
C328 C323 1.363 . S
C328 C327 1.415 . S
C329 H305 0.951 . S
C329 C330 1.366 . S
C329 C331 1.388 . S
C330 C329 1.366 . S
C330 C334 1.385 . S
C331 H306 0.951 . S
C331 C329 1.388 . S
C331 C332 1.366 . S
C332 C331 1.366 . S
C332 C333 1.414 . S
C332 C335 1.499 . S
C333 H307 0.950 . S
C333 C332 1.414 . S
C333 C334 1.374 . S
C334 H308 0.950 . S
C334 C330 1.385 . S
C334 C333 1.374 . S
C335 C332 1.499 . S
C335 C336 1.373 . S
C335 C337 1.389 . S
C336 H309 0.950 . S
C336 C322 1.377 . S
C336 C335 1.373 . S
C337 C321 1.377 . S
C337 C335 1.389 . S
C337 C338 1.524 . S
C338 C337 1.524 . S
C338 C339 1.397 . S
C338 C343 1.363 . S
C339 H310 0.950 . S
C339 C338 1.397 . S
C339 C340 1.334 . S
C340 H311 0.950 . S
C340 C339 1.334 . S
C340 C341 1.287 . S
C341 C340 1.287 . S
C341 C342 1.524 . S
C341 H344 0.999 1_565 S
C342 H312 0.950 1_565 S
C342 C341 1.524 . S
C342 C343 1.415 . S
C343 H313 0.950 . S
C343 C338 1.363 . S
C343 C342 1.415 . S
H344 C341 0.999 1_545 S
H345 C326 0.913 . S
H346 C364 0.951 . S
H347 C366 0.951 . S
H348 C368 0.950 . S
H349 C369 0.950 . S
H350 C371 0.950 . S
H351 C374 0.950 . S
H352 C375 0.950 . S
H353 C377 0.950 . S
H354 C378 0.950 . S
H355 C379 0.951 . S
H356 C381 0.951 . S
H357 C383 0.950 . S
H358 C384 0.950 . S
H359 C386 0.950 . S
H360 C389 0.950 . S
H361 C390 0.950 . S
H362 C392 0.950 . S
H363 C393 0.950 . S
C364 H346 0.951 . S
C364 C365 1.366 . S
C364 C366 1.388 . S
C365 C364 1.366 . S
C365 C369 1.385 . S
C366 H347 0.951 . S
C366 C364 1.388 . S
C366 C367 1.366 . S
C367 C366 1.366 . S
C367 C368 1.414 . S
C367 C370 1.499 . S
C368 H348 0.950 . S
C368 C367 1.414 . S
C368 C369 1.374 . S
C369 H349 0.950 . S
C369 C365 1.385 . S
C369 C368 1.374 . S
C370 C367 1.499 . S
C370 C371 1.373 . S
C370 C372 1.389 . S
C371 H350 0.950 . S
C371 C370 1.373 . S
C371 C387 1.377 . S
C372 C370 1.389 . S
C372 C373 1.524 . S
C372 C386 1.377 . S
C373 C372 1.524 . S
C373 C374 1.397 . S
C373 C378 1.363 . S
C374 H351 0.950 . S
C374 C373 1.397 . S
C374 C375 1.334 . S
C375 H352 0.950 . S
C375 C374 1.334 . S
C375 C376 1.287 . S
C376 C375 1.287 . S
C376 C377 1.524 . S
C376 H395 0.913 . S
C377 H353 0.950 . S
C377 C376 1.524 . S
C377 C378 1.415 . S
C378 H354 0.950 . S
C378 C373 1.363 . S
C378 C377 1.415 . S
C379 H355 0.951 . S
C379 C380 1.366 . S
C379 C381 1.388 . S
C380 C379 1.366 . S
C380 C384 1.385 . S
C381 H356 0.951 . S
C381 C379 1.388 . S
C381 C382 1.366 . S
C382 C381 1.366 . S
C382 C383 1.414 . S
C382 C385 1.499 . S
C383 H357 0.950 . S
C383 C382 1.414 . S
C383 C384 1.374 . S
C384 H358 0.950 . S
C384 C380 1.385 . S
C384 C383 1.374 . S
C385 C382 1.499 . S
C385 C386 1.373 . S
C385 C387 1.389 . S
C386 H359 0.950 . S
C386 C372 1.377 . S
C386 C385 1.373 . S
C387 C371 1.377 . S
C387 C385 1.389 . S
C387 C388 1.524 . S
C388 C387 1.524 . S
C388 C389 1.397 . S
C388 C393 1.363 . S
C389 H360 0.950 . S
C389 C388 1.397 . S
C389 C390 1.334 . S
C390 H361 0.950 . S
C390 C389 1.334 . S
C390 C391 1.287 . S
C391 C390 1.287 . S
C391 C392 1.524 . S
C391 H394 0.999 . S
C392 H362 0.950 . S
C392 C391 1.524 . S
C392 C393 1.415 . S
C393 H363 0.950 . S
C393 C388 1.363 . S
C393 C392 1.415 . S
H394 C391 0.999 . S
H395 C376 0.913 . S
H396 C414 0.951 . S
H397 C416 0.951 . S
H398 C418 0.952 . S
H399 C419 0.950 . S
H400 C421 0.950 . S
H401 C424 0.950 1_554 S
H402 C425 0.950 . S
H403 C427 0.950 . S
H404 C428 0.950 . S
H405 C429 0.951 . S
H406 C431 0.951 . S
H407 C433 0.950 . S
H408 C434 0.950 . S
H409 C436 0.950 . S
H410 C439 0.950 . S
H411 C440 0.950 . S
H412 C442 0.948 . S
H413 C443 0.950 . S
C414 H396 0.951 . S
C414 C415 1.366 1_556 S
C414 C416 1.388 . S
C415 C414 1.366 1_554 S
C415 C419 1.385 . S
C416 H397 0.951 . S
C416 C414 1.388 . S
C416 C417 1.366 . S
C417 C416 1.366 . S
C417 C418 1.414 . S
C417 C420 1.499 . S
C418 H398 0.952 . S
C418 C417 1.414 . S
C418 C419 1.374 1_556 S
C419 H399 0.950 . S
C419 C415 1.385 . S
C419 C418 1.374 1_554 S
C420 C417 1.499 . S
C420 C421 1.373 . S
C420 C422 1.389 . S
C421 H400 0.950 . S
C421 C420 1.373 . S
C421 C437 1.377 . S
C422 C420 1.389 . S
C422 C423 1.524 . S
C422 C436 1.377 . S
C423 C422 1.524 . S
C423 C424 1.397 . S
C423 C428 1.363 . S
C424 H401 0.950 1_556 S
C424 C423 1.397 . S
C424 C425 1.334 1_556 S
C425 H402 0.950 . S
C425 C424 1.334 1_554 S
C425 C426 1.294 . S
C426 C425 1.294 . S
C426 C427 1.509 1_554 S
C426 H445 0.921 . S
C427 H403 0.950 . S
C427 C426 1.509 1_556 S
C427 C428 1.415 . S
C428 H404 0.950 . S
C428 C423 1.363 . S
C428 C427 1.415 . S
C429 H405 0.951 . S
C429 C430 1.366 . S
C429 C431 1.388 . S
C430 C429 1.366 . S
C430 C434 1.385 . S
C431 H406 0.951 . S
C431 C429 1.388 . S
C431 C432 1.366 . S
C432 C431 1.366 . S
C432 C433 1.414 . S
C432 C435 1.499 . S
C433 H407 0.950 . S
C433 C432 1.414 . S
C433 C434 1.374 . S
C434 H408 0.950 . S
C434 C430 1.385 . S
C434 C433 1.374 . S
C435 C432 1.499 . S
C435 C436 1.373 . S
C435 C437 1.389 . S
C436 H409 0.950 . S
C436 C422 1.377 . S
C436 C435 1.373 . S
C437 C421 1.377 . S
C437 C435 1.389 . S
C437 C438 1.524 . S
C438 C437 1.524 . S
C438 C439 1.397 . S
C438 C443 1.363 . S
C439 H410 0.950 . S
C439 C438 1.397 . S
C439 C440 1.334 . S
C440 H411 0.950 . S
C440 C439 1.334 . S
C440 C441 1.287 . S
C441 C440 1.287 . S
C441 C442 1.524 1_455 S
C441 H444 0.999 1_455 S
C442 H412 0.948 . S
C442 C441 1.524 1_655 S
C442 C443 1.416 1_655 S
C443 H413 0.950 . S
C443 C438 1.363 . S
C443 C442 1.416 1_455 S
H444 C441 0.999 1_655 S
H445 C426 0.921 . S
H446 C464 0.951 . S
H447 C466 0.951 . S
H448 C468 0.950 . S
H449 C469 0.950 . S
H450 C471 0.950 . S
H451 C474 0.950 . S
H452 C475 0.950 . S
H453 C477 0.950 . S
H454 C478 0.950 . S
H455 C479 0.951 . S
H456 C481 0.951 . S
H457 C483 0.950 . S
H458 C484 0.950 . S
H459 C486 0.950 . S
H460 C489 0.950 . S
H461 C490 0.950 . S
H462 C492 0.950 . S
H463 C493 0.950 . S
C464 H446 0.951 . S
C464 C465 1.366 . S
C464 C466 1.388 . S
C465 C464 1.366 . S
C465 C469 1.385 . S
C466 H447 0.951 . S
C466 C464 1.388 . S
C466 C467 1.366 . S
C467 C466 1.366 . S
C467 C468 1.414 . S
C467 C470 1.499 . S
C468 H448 0.950 . S
C468 C467 1.414 . S
C468 C469 1.374 . S
C469 H449 0.950 . S
C469 C465 1.385 . S
C469 C468 1.374 . S
C470 C467 1.499 . S
C470 C471 1.373 . S
C470 C472 1.389 . S
C471 H450 0.950 . S
C471 C470 1.373 . S
C471 C487 1.377 . S
C472 C470 1.389 . S
C472 C473 1.524 . S
C472 C486 1.377 . S
C473 C472 1.524 . S
C473 C474 1.397 . S
C473 C478 1.363 . S
C474 H451 0.950 . S
C474 C473 1.397 . S
C474 C475 1.334 . S
C475 H452 0.950 . S
C475 C474 1.334 . S
C475 C476 1.287 . S
C476 C475 1.287 . S
C476 C477 1.524 . S
C476 H495 0.913 . S
C477 H453 0.950 . S
C477 C476 1.524 . S
C477 C478 1.415 . S
C478 H454 0.950 . S
C478 C473 1.363 . S
C478 C477 1.415 . S
C479 H455 0.951 . S
C479 C480 1.366 . S
C479 C481 1.388 . S
C480 C479 1.366 . S
C480 C484 1.385 . S
C481 H456 0.951 . S
C481 C479 1.388 . S
C481 C482 1.366 . S
C482 C481 1.366 . S
C482 C483 1.414 . S
C482 C485 1.499 . S
C483 H457 0.950 . S
C483 C482 1.414 . S
C483 C484 1.374 . S
C484 H458 0.950 . S
C484 C480 1.385 . S
C484 C483 1.374 . S
C485 C482 1.499 . S
C485 C486 1.373 . S
C485 C487 1.389 . S
C486 H459 0.950 . S
C486 C472 1.377 . S
C486 C485 1.373 . S
C487 C471 1.377 . S
C487 C485 1.389 . S
C487 C488 1.524 . S
C488 C487 1.524 . S
C488 C489 1.397 . S
C488 C493 1.363 . S
C489 H460 0.950 . S
C489 C488 1.397 . S
C489 C490 1.334 . S
C490 H461 0.950 . S
C490 C489 1.334 . S
C490 C491 1.287 . S
C491 C490 1.287 . S
C491 C492 1.524 . S
C491 H494 0.999 . S
C492 H462 0.950 . S
C492 C491 1.524 . S
C492 C493 1.415 . S
C493 H463 0.950 . S
C493 C488 1.363 . S
C493 C492 1.415 . S
H494 C491 0.999 . S
H495 C476 0.913 . S
H496 C514 0.951 . S
H497 C516 0.951 . S
H498 C518 0.950 . S
H499 C519 0.950 . S
H500 C521 0.950 . S
H501 C524 0.950 . S
H502 C525 0.950 1_554 S
H503 C527 0.950 . S
H504 C528 0.950 . S
H505 C529 0.951 . S
H506 C531 0.951 . S
H507 C533 0.950 . S
H508 C534 0.950 . S
H509 C536 0.950 . S
H510 C539 0.950 . S
H511 C540 0.950 . S
H512 C542 0.950 . S
H513 C543 0.950 . S
C514 H496 0.951 . S
C514 C515 1.366 1_556 S
C514 C516 1.388 . S
C515 C514 1.366 1_554 S
C515 C519 1.385 . S
C516 H497 0.951 . S
C516 C514 1.388 . S
C516 C517 1.366 . S
C517 C516 1.366 . S
C517 C518 1.414 1_556 S
C517 C520 1.499 . S
C518 H498 0.950 . S
C518 C517 1.414 1_554 S
C518 C519 1.373 . S
C519 H499 0.950 . S
C519 C515 1.385 . S
C519 C518 1.373 . S
C520 C517 1.499 . S
C520 C521 1.373 . S
C520 C522 1.389 . S
C521 H500 0.950 . S
C521 C520 1.373 . S
C521 C537 1.377 . S
C522 C520 1.389 . S
C522 C523 1.524 . S
C522 C536 1.377 . S
C523 C522 1.524 . S
C523 C524 1.397 . S
C523 C528 1.363 . S
C524 H501 0.950 . S
C524 C523 1.397 . S
C524 C525 1.334 . S
C525 H502 0.950 1_556 S
C525 C524 1.334 . S
C525 C526 1.287 . S
C526 C525 1.287 . S
C526 C527 1.524 . S
C526 H545 0.913 . S
C527 H503 0.950 . S
C527 C526 1.524 . S
C527 C528 1.415 . S
C528 H504 0.950 . S
C528 C523 1.363 . S
C528 C527 1.415 . S
C529 H505 0.951 . S
C529 C530 1.366 . S
C529 C531 1.388 . S
C530 C529 1.366 . S
C530 C534 1.385 . S
C531 H506 0.951 . S
C531 C529 1.388 . S
C531 C532 1.366 . S
C532 C531 1.366 . S
C532 C533 1.414 . S
C532 C535 1.499 . S
C533 H507 0.950 . S
C533 C532 1.414 . S
C533 C534 1.374 . S
C534 H508 0.950 . S
C534 C530 1.385 . S
C534 C533 1.374 . S
C535 C532 1.499 . S
C535 C536 1.373 . S
C535 C537 1.389 . S
C536 H509 0.950 . S
C536 C522 1.377 . S
C536 C535 1.373 . S
C537 C521 1.377 . S
C537 C535 1.389 . S
C537 C538 1.524 . S
C538 C537 1.524 . S
C538 C539 1.397 . S
C538 C543 1.363 . S
C539 H510 0.950 . S
C539 C538 1.397 . S
C539 C540 1.334 . S
C540 H511 0.950 . S
C540 C539 1.334 . S
C540 C541 1.287 . S
C541 C540 1.287 . S
C541 C542 1.524 . S
C541 H544 0.999 . S
C542 H512 0.950 . S
C542 C541 1.524 . S
C542 C543 1.415 . S
C543 H513 0.950 . S
C543 C538 1.363 . S
C543 C542 1.415 . S
H544 C541 0.999 . S
H545 C526 0.913 . S
H546 C564 0.951 . S
H547 C566 0.951 . S
H548 C568 0.950 . S
H549 C569 0.950 . S
H550 C571 0.950 . S
H551 C574 0.950 . S
H552 C575 0.950 . S
H553 C577 0.950 . S
H554 C578 0.950 . S
H555 C579 0.951 . S
H556 C581 0.951 . S
H557 C583 0.950 . S
H558 C584 0.950 . S
H559 C586 0.950 . S
H560 C589 0.950 . S
H561 C590 0.950 . S
H562 C592 0.950 . S
H563 C593 0.950 . S
C564 H546 0.951 . S
C564 C565 1.366 . S
C564 C566 1.388 . S
C565 C564 1.366 . S
C565 C569 1.385 . S
C566 H547 0.951 . S
C566 C564 1.388 . S
C566 C567 1.366 . S
C567 C566 1.366 . S
C567 C568 1.414 . S
C567 C570 1.499 . S
C568 H548 0.950 . S
C568 C567 1.414 . S
C568 C569 1.374 . S
C569 H549 0.950 . S
C569 C565 1.385 . S
C569 C568 1.374 . S
C570 C567 1.499 . S
C570 C571 1.373 . S
C570 C572 1.389 . S
C571 H550 0.950 . S
C571 C570 1.373 . S
C571 C587 1.377 . S
C572 C570 1.389 . S
C572 C573 1.524 . S
C572 C586 1.377 . S
C573 C572 1.524 . S
C573 C574 1.397 . S
C573 C578 1.363 . S
C574 H551 0.950 . S
C574 C573 1.397 . S
C574 C575 1.334 . S
C575 H552 0.950 . S
C575 C574 1.334 . S
C575 C576 1.287 . S
C576 C575 1.287 . S
C576 C577 1.524 . S
C576 H595 0.913 . S
C577 H553 0.950 . S
C577 C576 1.524 . S
C577 C578 1.415 . S
C578 H554 0.950 . S
C578 C573 1.363 . S
C578 C577 1.415 . S
C579 H555 0.951 . S
C579 C580 1.366 . S
C579 C581 1.388 . S
C580 C579 1.366 . S
C580 C584 1.385 . S
C581 H556 0.951 . S
C581 C579 1.388 . S
C581 C582 1.366 . S
C582 C581 1.366 . S
C582 C583 1.414 . S
C582 C585 1.499 . S
C583 H557 0.950 . S
C583 C582 1.414 . S
C583 C584 1.374 . S
C584 H558 0.950 . S
C584 C580 1.385 . S
C584 C583 1.374 . S
C585 C582 1.499 . S
C585 C586 1.373 . S
C585 C587 1.389 . S
C586 H559 0.950 . S
C586 C572 1.377 . S
C586 C585 1.373 . S
C587 C571 1.377 . S
C587 C585 1.389 . S
C587 C588 1.524 . S
C588 C587 1.524 . S
C588 C589 1.397 . S
C588 C593 1.363 . S
C589 H560 0.950 . S
C589 C588 1.397 . S
C589 C590 1.334 . S
C590 H561 0.950 . S
C590 C589 1.334 . S
C590 C591 1.287 1_545 S
C591 C590 1.287 1_565 S
C591 C592 1.524 . S
C591 H594 0.999 . S
C592 H562 0.950 . S
C592 C591 1.524 . S
C592 C593 1.415 1_565 S
C593 H563 0.950 . S
C593 C588 1.363 . S
C593 C592 1.415 1_545 S
H594 C591 0.999 . S
H595 C576 0.913 . S
H596 C614 0.951 . S
H597 C616 0.951 . S
H598 C618 0.949 1_556 S
H599 C619 0.950 . S
H600 C621 0.950 1_554 S
H601 C624 0.950 . S
H602 C625 0.950 . S
H603 C627 0.950 . S
H604 C628 0.950 . S
H605 C629 0.951 . S
H606 C631 0.951 . S
H607 C633 0.950 . S
H608 C634 0.950 . S
H609 C636 0.950 . S
H610 C639 0.950 . S
H611 C640 0.950 . S
H612 C642 0.950 . S
H613 C643 0.950 . S
C614 H596 0.951 . S
C614 C615 1.366 . S
C614 C616 1.388 1_554 S
C615 C614 1.366 . S
C615 C619 1.385 . S
C616 H597 0.951 . S
C616 C614 1.388 1_556 S
C616 C617 1.366 . S
C617 C616 1.366 . S
C617 C618 1.412 1_556 S
C617 C620 1.499 . S
C618 H598 0.949 1_554 S
C618 C617 1.412 1_554 S
C618 C619 1.377 . S
C619 H599 0.950 . S
C619 C615 1.385 . S
C619 C618 1.377 . S
C620 C617 1.499 . S
C620 C621 1.373 . S
C620 C622 1.389 . S
C621 H600 0.950 1_556 S
C621 C620 1.373 . S
C621 C637 1.377 . S
C622 C620 1.389 . S
C622 C623 1.524 . S
C622 C636 1.377 . S
C623 C622 1.524 . S
C623 C624 1.397 . S
C623 C628 1.363 . S
C624 H601 0.950 . S
C624 C623 1.397 . S
C624 C625 1.334 . S
C625 H602 0.950 . S
C625 C624 1.334 . S
C625 C626 1.287 . S
C626 C625 1.287 . S
C626 C627 1.524 . S
C626 H645 0.913 . S
C627 H603 0.950 . S
C627 C626 1.524 . S
C627 C628 1.415 . S
C628 H604 0.950 . S
C628 C623 1.363 . S
C628 C627 1.415 . S
C629 H605 0.951 . S
C629 C630 1.366 . S
C629 C631 1.388 . S
C630 C629 1.366 . S
C630 C634 1.385 . S
C631 H606 0.951 . S
C631 C629 1.388 . S
C631 C632 1.366 . S
C632 C631 1.366 . S
C632 C633 1.414 . S
C632 C635 1.499 . S
C633 H607 0.950 . S
C633 C632 1.414 . S
C633 C634 1.374 . S
C634 H608 0.950 . S
C634 C630 1.385 . S
C634 C633 1.374 . S
C635 C632 1.499 . S
C635 C636 1.373 . S
C635 C637 1.389 . S
C636 H609 0.950 . S
C636 C622 1.377 . S
C636 C635 1.373 . S
C637 C621 1.377 . S
C637 C635 1.389 . S
C637 C638 1.524 . S
C638 C637 1.524 . S
C638 C639 1.397 . S
C638 C643 1.363 . S
C639 H610 0.950 . S
C639 C638 1.397 . S
C639 C640 1.334 1_556 S
C640 H611 0.950 . S
C640 C639 1.334 1_554 S
C640 C641 1.287 . S
C641 C640 1.287 . S
C641 C642 1.524 . S
C641 H644 0.999 . S
C642 H612 0.950 . S
C642 C641 1.524 . S
C642 C643 1.415 1_554 S
C643 H613 0.950 . S
C643 C638 1.363 . S
C643 C642 1.415 1_556 S
H644 C641 0.999 . S
H645 C626 0.913 . S
H646 C664 0.951 . S
H647 C666 0.951 . S
H648 C668 0.950 . S
H649 C669 0.950 . S
H650 C671 0.950 . S
H651 C674 0.950 . S
H652 C675 0.950 . S
H653 C677 0.950 . S
H654 C678 0.950 . S
H655 C679 0.951 . S
H656 C681 0.951 . S
H657 C683 0.950 . S
H658 C684 0.950 . S
H659 C686 0.950 . S
H660 C689 0.950 . S
H661 C690 0.950 . S
H662 C692 0.950 . S
H663 C693 0.950 . S
C664 H646 0.951 . S
C664 C665 1.366 . S
C664 C666 1.388 . S
C665 C664 1.366 . S
C665 C669 1.385 . S
C666 H647 0.951 . S
C666 C664 1.388 . S
C666 C667 1.366 . S
C667 C666 1.366 . S
C667 C668 1.414 . S
C667 C670 1.499 . S
C668 H648 0.950 . S
C668 C667 1.414 . S
C668 C669 1.374 . S
C669 H649 0.950 . S
C669 C665 1.385 . S
C669 C668 1.374 . S
C670 C667 1.499 . S
C670 C671 1.373 . S
C670 C672 1.389 . S
C671 H650 0.950 . S
C671 C670 1.373 . S
C671 C687 1.377 . S
C672 C670 1.389 . S
C672 C673 1.524 . S
C672 C686 1.377 . S
C673 C672 1.524 . S
C673 C674 1.397 . S
C673 C678 1.363 . S
C674 H651 0.950 . S
C674 C673 1.397 . S
C674 C675 1.334 . S
C675 H652 0.950 . S
C675 C674 1.334 . S
C675 C676 1.287 . S
C676 C675 1.287 . S
C676 C677 1.524 . S
C676 H695 0.913 . S
C677 H653 0.950 . S
C677 C676 1.524 . S
C677 C678 1.415 . S
C678 H654 0.950 . S
C678 C673 1.363 . S
C678 C677 1.415 . S
C679 H655 0.951 . S
C679 C680 1.366 . S
C679 C681 1.388 . S
C680 C679 1.366 . S
C680 C684 1.385 . S
C681 H656 0.951 . S
C681 C679 1.388 . S
C681 C682 1.366 . S
C682 C681 1.366 . S
C682 C683 1.414 . S
C682 C685 1.499 . S
C683 H657 0.950 . S
C683 C682 1.414 . S
C683 C684 1.374 . S
C684 H658 0.950 . S
C684 C680 1.385 . S
C684 C683 1.374 . S
C685 C682 1.499 . S
C685 C686 1.373 . S
C685 C687 1.389 . S
C686 H659 0.950 . S
C686 C672 1.377 . S
C686 C685 1.373 . S
C687 C671 1.377 . S
C687 C685 1.389 . S
C687 C688 1.524 . S
C688 C687 1.524 . S
C688 C689 1.397 . S
C688 C693 1.363 . S
C689 H660 0.950 . S
C689 C688 1.397 . S
C689 C690 1.334 . S
C690 H661 0.950 . S
C690 C689 1.334 . S
C690 C691 1.287 . S
C691 C690 1.287 . S
C691 C692 1.524 . S
C691 H694 0.999 . S
C692 H662 0.950 . S
C692 C691 1.524 . S
C692 C693 1.415 . S
C693 H663 0.950 . S
C693 C688 1.363 . S
C693 C692 1.415 . S
H694 C691 0.999 . S
H695 C676 0.913 . S
C115 C7 1.363 . S
C130 C80 1.385 . S
C180 C74 1.660 . S
C165 C30 1.619 . S
C230 C48 1.433 . S
C215 C9 1.416 . S
C280 C94 2.010 . S
C265 C29 2.069 . S
C330 C89 0.217 . S
C315 C8 0.406 . S
C365 C31 1.975 . S
C380 C70 1.934 . S
C415 C5 1.975 . S
C430 C76 1.935 . S
C465 C26 0.406 . S
C480 C83 0.217 . S
C515 C6 2.069 . S
C530 C92 2.010 . S
C565 C27 1.416 . S
C580 C62 1.434 . S
C630 C78 1.659 . S
C615 C4 1.619 . S
C665 C28 1.363 . S
C680 C86 1.384 . S
