# Generated by pormake.
# Topology tsx, (6,3)-cn, num edge types: 1
# Building blocks:
#     Node 0, Type 0, BuildingBlock: FUNLAD_clean_sbu_0, # of connection points: 6
#     Node 1, Type 0, BuildingBlock: FUNLAD_clean_sbu_0, # of connection points: 6
#     Node 2, Type 1, BuildingBlock: OLANEW_clean_sbu_2, # of connection points: 3
#     Node 3, Type 1, BuildingBlock: OLANEW_clean_sbu_2, # of connection points: 3
#     Node 4, Type 1, BuildingBlock: OLANEW_clean_sbu_2, # of connection points: 3
#     Node 5, Type 1, BuildingBlock: OLANEW_clean_sbu_2, # of connection points: 3
#     Edge 6, Type (0, 1), BuildingBlock: FUNLAD_clean_linker_0, # of connection points: 2
#     Edge 7, Type (0, 1), BuildingBlock: FUNLAD_clean_linker_0, # of connection points: 2
#     Edge 8, Type (0, 1), BuildingBlock: FUNLAD_clean_linker_0, # of connection points: 2
#     Edge 9, Type (0, 1), BuildingBlock: FUNLAD_clean_linker_0, # of connection points: 2
#     Edge 10, Type (0, 1), BuildingBlock: FUNLAD_clean_linker_0, # of connection points: 2
#     Edge 11, Type (0, 1), BuildingBlock: FUNLAD_clean_linker_0, # of connection points: 2
#     Edge 12, Type (0, 1), BuildingBlock: FUNLAD_clean_linker_0, # of connection points: 2
#     Edge 13, Type (0, 1), BuildingBlock: FUNLAD_clean_linker_0, # of connection points: 2
#     Edge 14, Type (0, 1), BuildingBlock: FUNLAD_clean_linker_0, # of connection points: 2
#     Edge 15, Type (0, 1), BuildingBlock: FUNLAD_clean_linker_0, # of connection points: 2
#     Edge 16, Type (0, 1), BuildingBlock: FUNLAD_clean_linker_0, # of connection points: 2
#     Edge 17, Type (0, 1), BuildingBlock: FUNLAD_clean_linker_0, # of connection points: 2
# Relax obj value: 0.079
# Max RMSD: 0.101
# Mean RMSD: 0.087
data_MOF--net-tsx--node1-FUNLAD_clean_sbu_0--node2-OLANEW_clean_sbu_2--edge1-FUNLAD_clean_linker_0
_symmetry_space_group_name_H-M    P1
_symmetry_Int_Tables_number       1
_symmetry_cell_setting            triclinic
loop_
_symmetry_equiv_pos_as_xyz
'x, y, z'
_cell_length_a     24.174192
_cell_length_b     26.77278
_cell_length_c     45.776026
_cell_angle_alpha  96.361481
_cell_angle_beta   92.088812
_cell_angle_gamma 89.810151
loop_
_atom_site_label
_atom_site_type_symbol
_atom_site_fract_x
_atom_site_fract_y
_atom_site_fract_z
_atom_type_partial_charge
C0 C 0.95206 0.96854 0.00659 0.0
N1 N 0.04226 0.04857 0.07604 0.0
C2 C 0.99428 0.04811 0.09065 0.0
C3 C 0.99561 0.04659 0.12107 0.0
C4 C 0.04683 0.04597 0.13662 0.0
C5 C 0.09552 0.04902 0.12108 0.0
C6 C 0.0923 0.04987 0.09069 0.0
Zn7 Zn 0.04107 0.04025 0.03119 0.0
C8 C 0.11366 0.95454 0.00917 0.0
N9 N 0.04141 0.01734 0.93755 0.0
C10 C 0.9945 0.02075 0.92054 0.0
C11 C 0.0916 0.00966 0.9253 0.0
C12 C 0.09621 0.00586 0.8949 0.0
C13 C 0.04873 0.00987 0.87673 0.0
C14 C 0.99723 0.01711 0.88991 0.0
Zn15 Zn 0.03979 0.02669 0.9824 0.0
O16 O 0.97554 0.98889 0.03018 0.0
C17 C 0.96645 0.11199 0.0046 0.0
O18 O 0.97028 0.97745 0.98195 0.0
H19 H 0.12847 0.00736 0.93918 0.0
H20 H 0.95493 0.04706 0.07858 0.0
H21 H 0.95504 0.02688 0.93075 0.0
O22 O 0.98294 0.09923 0.02941 0.0
O23 O 0.98498 0.08886 0.98116 0.0
H24 H 0.12998 0.04995 0.07868 0.0
O25 O 0.10919 0.07575 0.98358 0.0
O26 O 0.10643 0.09224 0.03151 0.0
O27 O 0.09411 0.96508 0.98447 0.0
O28 O 0.09882 0.98043 0.03251 0.0
C29 C 0.12846 0.09886 0.00749 0.0
H30 H 0.95697 0.04386 0.13202 0.0
H31 H 0.1359 0.04976 0.13216 0.0
H32 H 0.13687 0.00111 0.8858 0.0
H33 H 0.95949 0.01989 0.87671 0.0
C34 C 0.41688 0.41628 0.49684 0.0
N35 N 0.50086 0.49776 0.56842 0.0
C36 C 0.45285 0.49986 0.58316 0.0
C37 C 0.45384 0.49711 0.6135 0.0
C38 C 0.50463 0.49146 0.62865 0.0
C39 C 0.55355 0.49083 0.61305 0.0
C40 C 0.55074 0.49438 0.58285 0.0
Zn41 Zn 0.49895 0.49355 0.52344 0.0
C42 C 0.57878 0.41543 0.49868 0.0
N43 N 0.49778 0.47966 0.42933 0.0
C44 C 0.44954 0.48236 0.41331 0.0
C45 C 0.54739 0.47703 0.41612 0.0
C46 C 0.54994 0.47839 0.38582 0.0
C47 C 0.501 0.48292 0.36879 0.0
C48 C 0.4502 0.48408 0.38289 0.0
Zn49 Zn 0.49777 0.48429 0.47436 0.0
O50 O 0.43659 0.43811 0.52104 0.0
C51 C 0.41808 0.56267 0.49941 0.0
O52 O 0.43509 0.42795 0.47273 0.0
H53 H 0.58532 0.47501 0.42921 0.0
H54 H 0.41363 0.50219 0.57125 0.0
H55 H 0.41054 0.48455 0.42424 0.0
O56 O 0.43741 0.54984 0.52369 0.0
O57 O 0.43618 0.54147 0.47537 0.0
H58 H 0.58845 0.49302 0.57079 0.0
O59 O 0.56035 0.54014 0.47682 0.0
O60 O 0.56151 0.54927 0.52506 0.0
O61 O 0.5595 0.42781 0.47431 0.0
O62 O 0.56025 0.43679 0.52249 0.0
C63 C 0.58005 0.56137 0.50117 0.0
H64 H 0.4152 0.49746 0.62478 0.0
H65 H 0.59355 0.48712 0.62405 0.0
H66 H 0.58999 0.47647 0.3759 0.0
H67 H 0.41144 0.48807 0.37076 0.0
O68 O 0.97559 0.97053 0.41149 0.0
Cd69 Cd 0.97771 0.95762 0.46344 0.0
O70 O 0.05261 0.01449 0.41747 0.0
Cd71 Cd 0.03652 0.03376 0.46375 0.0
O72 O 0.97931 0.08904 0.48399 0.0
C73 C 0.98373 0.13257 0.47572 0.0
O74 O 0.02407 0.14101 0.45841 0.0
C75 C 0.0156 0.99192 0.40052 0.0
C76 C 0.06321 0.89046 0.47306 0.0
O77 O 0.01354 0.87485 0.46722 0.0
O78 O 0.07216 0.93784 0.47489 0.0
O79 O 0.06646 0.9825 0.59167 0.0
Cd80 Cd 0.05657 0.9766 0.53807 0.0
O81 O 0.11628 0.9138 0.59239 0.0
Cd82 Cd 0.08863 0.88836 0.54748 0.0
O83 O 0.01524 0.84746 0.5292 0.0
C84 C 0.96907 0.86413 0.53847 0.0
O85 O 0.96848 0.90569 0.55665 0.0
C86 C 0.09536 0.95297 0.60594 0.0
C87 C 0.11784 0.05282 0.51748 0.0
O88 O 0.06806 0.06033 0.52562 0.0
O89 O 0.13865 0.00901 0.51886 0.0
O90 O 0.47826 0.4441 0.9078 0.0
Cd91 Cd 0.47039 0.43792 0.96051 0.0
O92 O 0.53079 0.5114 0.91644 0.0
Cd93 Cd 0.51167 0.5252 0.96276 0.0
O94 O 0.4634 0.58493 0.98589 0.0
C95 C 0.47391 0.6282 0.97854 0.0
O96 O 0.51439 0.63273 0.96061 0.0
C97 C 0.5081 0.47747 0.89834 0.0
C98 C 0.55803 0.3814 0.9807 0.0
O99 O 0.56302 0.42877 0.97954 0.0
O100 O 0.51129 0.36083 0.97272 0.0
O101 O 0.48194 0.64802 0.1125 0.0
Cd102 Cd 0.45872 0.66334 0.06187 0.0
O103 O 0.5112 0.57527 0.09285 0.0
Cd104 Cd 0.54088 0.49783 0.08808 0.0
O105 O 0.50964 0.42642 0.06663 0.0
C106 C 0.47771 0.43123 0.04444 0.0
O107 O 0.47132 0.47613 0.03575 0.0
C108 C 0.5019 0.60498 0.1158 0.0
C109 C 0.54298 0.71317 0.03723 0.0
O110 O 0.5033 0.73745 0.05013 0.0
O111 O 0.54289 0.66512 0.0361 0.0
C112 C 0.18427 0.17234 0.02992 0.0
C113 C 0.17655 0.13254 0.00749 0.0
C114 C 0.22985 0.20422 0.0301 0.0
C115 C 0.26912 0.19625 0.00817 0.0
C116 C 0.26219 0.15583 0.98612 0.0
C117 C 0.21571 0.12466 0.98548 0.0
C118 C 0.31788 0.22955 0.0086 0.0
C119 C 0.31241 0.27969 0.01337 0.0
C120 C 0.35975 0.31498 0.01691 0.0
C121 C 0.35209 0.36352 0.00877 0.0
C122 C 0.39242 0.40038 0.01599 0.0
C123 C 0.44062 0.38975 0.03225 0.0
H124 H 0.41642 0.26622 0.03831 0.0
C125 C 0.44966 0.34045 0.03915 0.0
C126 C 0.40965 0.30321 0.0314 0.0
H127 H 0.48663 0.33114 0.05151 0.0
H128 H 0.1548 0.17912 0.04719 0.0
H129 H 0.23486 0.23469 0.04765 0.0
H130 H 0.29225 0.14888 0.96916 0.0
H131 H 0.21093 0.09388 0.9681 0.0
H132 H 0.35816 0.21278 0.00426 0.0
H133 H 0.27109 0.29582 0.01476 0.0
H134 H 0.31395 0.37342 -0.00237 0.0
H135 H 0.38427 0.43794 0.01022 0.0
C136 C 0.17777 0.89071 0.98484 0.0
C137 C 0.15441 0.9135 0.01064 0.0
C138 C 0.21777 0.85324 0.98618 0.0
C139 C 0.23528 0.83766 0.01339 0.0
C140 C 0.2108 0.85932 0.03909 0.0
C141 C 0.17112 0.89726 0.03779 0.0
C142 C 0.27791 0.798 0.01525 0.0
C143 C 0.32018 0.79287 0.9968 0.0
C144 C 0.36183 0.75189 0.99614 0.0
C145 C 0.41146 0.75813 0.982 0.0
C146 C 0.44897 0.71857 0.9775 0.0
C147 C 0.43752 0.67159 0.98689 0.0
H148 H 0.31322 0.69882 0.01729 0.0
C149 C 0.389 0.66581 0.00219 0.0
C150 C 0.35139 0.70552 0.00673 0.0
H151 H 0.37903 0.63006 0.00971 0.0
H152 H 0.16556 0.90211 0.96356 0.0
H153 H 0.23445 0.83616 0.96582 0.0
H154 H 0.22309 0.8475 0.06026 0.0
H155 H 0.1536 0.91386 0.05806 0.0
H156 H 0.27529 0.77403 0.03279 0.0
H157 H 0.32495 0.82043 0.98132 0.0
H158 H 0.42062 0.7934 0.97365 0.0
H159 H 0.4862 0.72446 0.96587 0.0
C160 C 0.87647 0.91124 0.9832 0.0
C161 C 0.902 0.93757 0.00839 0.0
C162 C 0.82734 0.8844 0.98538 0.0
C163 C 0.80289 0.88388 0.0128 0.0
C164 C 0.82865 0.91 0.03783 0.0
C165 C 0.87775 0.93615 0.03573 0.0
C166 C 0.74946 0.85866 0.01637 0.0
C167 C 0.73066 0.81797 -0.00101 0.0
C168 C 0.67956 0.7917 0.00586 0.0
C169 C 0.67716 0.73906 0.00129 0.0
C170 C 0.63206 0.71335 0.01081 0.0
C171 C 0.58831 0.73999 0.02475 0.0
H172 H 0.63398 0.85905 0.02111 0.0
C173 C 0.5892 0.79276 0.02762 0.0
C174 C 0.63429 0.81836 0.01824 0.0
H175 H 0.55566 0.8144 0.03776 0.0
H176 H 0.89401 0.91189 0.96181 0.0
H177 H 0.80793 0.86542 0.96555 0.0
H178 H 0.8106 0.91034 0.05918 0.0
H179 H 0.89603 0.95618 0.0556 0.0
H180 H 0.72659 0.87215 0.03569 0.0
H181 H 0.75571 0.80078 0.98138 0.0
H182 H 0.71123 0.71772 0.99146 0.0
H183 H 0.63218 0.67265 0.0079 0.0
C184 C 0.89195 0.16719 0.02726 0.0
C185 C 0.92403 0.15165 0.00289 0.0
C186 C 0.84932 0.20217 0.02504 0.0
C187 C 0.83829 0.22267 -0.00156 0.0
C188 C 0.87163 0.2085 0.97445 0.0
C189 C 0.91366 0.17294 0.97651 0.0
C190 C 0.79264 0.25902 0.99503 0.0
C191 C 0.74439 0.25707 0.0087 0.0
C192 C 0.69703 0.29056 0.00303 0.0
C193 C 0.64285 0.27208 0.00363 0.0
C194 C 0.59752 0.3018 0.99678 0.0
C195 C 0.60551 0.35101 0.9898 0.0
H196 H 0.74611 0.35621 0.9971 0.0
C197 C 0.65961 0.37029 0.99049 0.0
C198 C 0.70495 0.34032 0.99691 0.0
H199 H 0.66707 0.40819 0.9854 0.0
H200 H 0.89901 0.15156 0.04792 0.0
H201 H 0.8253 0.21329 0.04419 0.0
H202 H 0.86429 0.2241 0.9538 0.0
H203 H 0.93784 0.16196 0.95739 0.0
H204 H 0.7972 0.28539 0.97885 0.0
H205 H 0.73757 0.22729 0.02249 0.0
H206 H 0.63564 0.23406 0.00861 0.0
H207 H 0.55626 0.28609 0.99674 0.0
C208 C 0.6455 0.6243 0.52826 0.0
C209 C 0.62508 0.59885 0.50157 0.0
C210 C 0.68917 0.65851 0.52865 0.0
C211 C 0.71331 0.66812 0.50228 0.0
C212 C 0.69297 0.64255 0.47566 0.0
C213 C 0.64913 0.60855 0.47526 0.0
C214 C 0.76156 0.70232 0.50193 0.0
C215 C 0.77195 0.74092 0.52287 0.0
C216 C 0.82177 0.77363 0.52391 0.0
C217 C 0.82069 0.82068 0.54078 0.0
C218 C 0.86796 0.85088 0.54455 0.0
C219 C 0.91771 0.83448 0.53172 0.0
H220 H 0.87434 0.7213 0.49775 0.0
C221 C 0.91858 0.78798 0.51417 0.0
C222 C 0.8712 0.75776 0.51035 0.0
H223 H 0.95634 0.77418 0.50408 0.0
H224 H 0.6282 0.61741 0.54894 0.0
H225 H 0.70476 0.67622 0.54972 0.0
H226 H 0.71111 0.64884 0.45508 0.0
H227 H 0.6346 0.58939 0.45431 0.0
H228 H 0.78823 0.69613 0.4833 0.0
H229 H 0.74219 0.74981 0.53989 0.0
H230 H 0.78334 0.8338 0.55157 0.0
H231 H 0.8658 0.88649 0.55821 0.0
C232 C 0.65064 0.35996 0.47378 0.0
C233 C 0.62373 0.37797 0.49953 0.0
C234 C 0.69501 0.32656 0.47492 0.0
C235 C 0.71337 0.31048 0.50188 0.0
C236 C 0.68535 0.32722 0.52743 0.0
C237 C 0.64129 0.36095 0.52634 0.0
C238 C 0.76079 0.2755 0.50389 0.0
C239 C 0.80373 0.27498 0.48593 0.0
C240 C 0.85128 0.23976 0.48669 0.0
C241 C 0.90012 0.25165 0.47331 0.0
C242 C 0.94413 0.21773 0.47099 0.0
C243 C 0.94012 0.17082 0.48181 0.0
H244 H 0.81067 0.18227 0.50838 0.0
C245 C 0.89203 0.15946 0.49612 0.0
C246 C 0.84792 0.19346 0.49846 0.0
H247 H 0.88754 0.12351 0.50455 0.0
H248 H 0.63788 0.37209 0.45276 0.0
H249 H 0.71445 0.31309 0.45461 0.0
H250 H 0.69825 0.31492 0.54839 0.0
H251 H 0.62121 0.37389 0.54657 0.0
H252 H 0.76137 0.25163 0.52158 0.0
H253 H 0.80499 0.30254 0.47023 0.0
H254 H 0.90388 0.28696 0.46403 0.0
H255 H 0.98063 0.22775 0.45988 0.0
C256 C 0.36057 0.34368 0.4721 0.0
C257 C 0.3735 0.37747 0.49716 0.0
C258 C 0.32113 0.30573 0.47324 0.0
C259 C 0.29361 0.30127 0.49941 0.0
C260 C 0.3054 0.33605 0.52406 0.0
C261 C 0.3452 0.37338 0.52307 0.0
C262 C 0.25223 0.26124 0.50203 0.0
C263 C 0.25403 0.21523 0.48682 0.0
C264 C 0.21669 0.17376 0.49275 0.0
C265 C 0.23621 0.1241 0.48907 0.0
C266 C 0.20379 0.08462 0.49662 0.0
C267 C 0.15078 0.09396 0.50763 0.0
H268 H 0.14559 0.22041 0.50482 0.0
C269 C 0.13021 0.14336 0.51002 0.0
C270 C 0.16275 0.18285 0.50264 0.0
H271 H 0.0893 0.15177 0.51814 0.0
H272 H 0.38148 0.34607 0.45177 0.0
H273 H 0.31203 0.28033 0.45358 0.0
H274 H 0.2845 0.33375 0.54442 0.0
H275 H 0.35379 0.39908 0.54269 0.0
H276 H 0.22246 0.26855 0.5192 0.0
H277 H 0.28718 0.20611 0.47174 0.0
H278 H 0.27735 0.11598 0.48118 0.0
H279 H 0.22062 0.04691 0.49422 0.0
C280 C 0.36297 0.62522 0.47371 0.0
C281 C 0.37429 0.60131 0.4991 0.0
C282 C 0.32103 0.66123 0.47328 0.0
C283 C 0.28913 0.67361 0.49815 0.0
C284 C 0.30001 0.64931 0.52337 0.0
C285 C 0.34263 0.61397 0.524 0.0
C286 C 0.24264 0.70985 0.49782 0.0
C287 C 0.24399 0.75062 0.4831 0.0
C288 C 0.19701 0.78625 0.48208 0.0
C289 C 0.20784 0.8372 0.48015 0.0
C290 C 0.16436 0.87129 0.47794 0.0
C291 C 0.1091 0.8548 0.4769 0.0
H292 H 0.13199 0.73052 0.48214 0.0
C293 C 0.09825 0.80371 0.47868 0.0
C294 C 0.14174 0.7698 0.48142 0.0
H295 H 0.05614 0.78977 0.47775 0.0
H296 H 0.38655 0.61611 0.45415 0.0
H297 H 0.31278 0.67841 0.45324 0.0
H298 H 0.27565 0.6579 0.54269 0.0
H299 H 0.35009 0.59591 0.54381 0.0
H300 H 0.20738 0.70386 0.51108 0.0
H301 H 0.28157 0.7594 0.47237 0.0
H302 H 0.25008 0.85069 0.48038 0.0
H303 H 0.17412 0.91037 0.47647 0.0
C304 C 0.01018 0.06202 0.18759 0.0
C305 C 0.04967 0.03955 0.16849 0.0
C306 C 0.01211 0.05438 0.21732 0.0
C307 C 0.0537 0.02417 0.22856 0.0
C308 C 0.09374 0.00264 0.2097 0.0
C309 C 0.09149 0.00977 0.17995 0.0
C310 C 0.05738 0.01561 0.25999 0.0
C311 C 0.01248 0.01343 0.27631 0.0
C312 C 0.01592 0.00516 0.30782 0.0
C313 C 0.97083 0.98317 0.32002 0.0
C314 C 0.97149 0.97719 0.34995 0.0
C315 C 0.01702 0.99384 0.36841 0.0
H316 H 0.09684 0.03941 0.31775 0.0
C317 C 0.06244 0.01539 0.35614 0.0
C318 C 0.06192 0.02106 0.32618 0.0
H319 H 0.09801 0.02891 0.36978 0.0
H320 H 0.97809 0.08598 0.17966 0.0
H321 H 0.9816 0.07285 0.23151 0.0
H322 H 0.12633 0.97942 0.21789 0.0
H323 H 0.12204 0.9911 0.16586 0.0
H324 H 0.09809 0.0081 0.26936 0.0
H325 H 0.97148 0.01578 0.26601 0.0
H326 H 0.93477 0.97089 0.30638 0.0
H327 H 0.93568 0.96069 0.35874 0.0
C328 C 0.09064 0.97425 0.82953 0.0
C329 C 0.05356 0.00782 0.84436 0.0
C330 C 0.09754 0.97405 0.79936 0.0
C331 C 0.06692 0.00714 0.78316 0.0
C332 C 0.0298 0.04059 0.79801 0.0
C333 C 0.02301 0.04086 0.82821 0.0
C334 C 0.07321 0.00887 0.75106 0.0
C335 C 0.09381 0.97064 0.73297 0.0
C336 C 0.09769 0.97061 0.70056 0.0
C337 C 0.12908 0.93277 0.68518 0.0
C338 C 0.1303 0.92826 0.65451 0.0
C339 C 0.09995 0.96152 0.63845 0.0
H340 H 0.04306 0.03418 0.69506 0.0
C341 C 0.07008 0.00051 0.65381 0.0
C342 C 0.06869 0.00493 0.68447 0.0
H343 H 0.04599 0.02665 0.64211 0.0
H344 H 0.11461 0.94809 0.84127 0.0
H345 H 0.12778 0.94857 0.78918 0.0
H346 H 0.00596 0.06677 0.78619 0.0
H347 H 0.99478 0.0678 0.83903 0.0
H348 H 0.0589 0.04275 0.74224 0.0
H349 H 0.10758 0.93672 0.74196 0.0
H350 H 0.15188 0.90579 0.69688 0.0
H351 H 0.1538 0.89779 0.64338 0.0
C352 C 0.47661 0.51569 0.68056 0.0
C353 C 0.50659 0.48411 0.66029 0.0
C354 C 0.47862 0.50843 0.71038 0.0
C355 C 0.51027 0.46908 0.72041 0.0
C356 C 0.53928 0.43697 0.70003 0.0
C357 C 0.53797 0.44471 0.67032 0.0
C358 C 0.51251 0.45983 0.75181 0.0
C359 C 0.51108 0.49737 0.77388 0.0
C360 C 0.51372 0.48914 0.80545 0.0
C361 C 0.53561 0.5273 0.82603 0.0
C362 C 0.53573 0.5225 0.85608 0.0
C363 C 0.51294 0.4797 0.86633 0.0
H364 H 0.47379 0.41594 0.80033 0.0
C365 C 0.49162 0.44108 0.84571 0.0
C366 C 0.49212 0.44566 0.81555 0.0
H367 H 0.47352 0.40776 0.85289 0.0
H368 H 0.45198 0.54623 0.67338 0.0
H369 H 0.45463 0.5331 0.72541 0.0
H370 H 0.56348 0.40611 0.70716 0.0
H371 H 0.56084 0.41936 0.65508 0.0
H372 H 0.51879 0.42142 0.75677 0.0
H373 H 0.5105 0.53605 0.76873 0.0
H374 H 0.55227 0.56124 0.81884 0.0
H375 H 0.55225 0.55313 0.87131 0.0
C376 C 0.54504 0.51806 0.32656 0.0
C377 C 0.50325 0.4888 0.33687 0.0
C378 C 0.54634 0.52534 0.29684 0.0
C379 C 0.50537 0.504 0.27664 0.0
C380 C 0.4645 0.47365 0.28677 0.0
C381 C 0.46326 0.46627 0.31654 0.0
C382 C 0.50396 0.51252 0.245 0.0
C383 C 0.52668 0.55318 0.23513 0.0
C384 C 0.5221 0.56439 0.204 0.0
C385 C 0.5281 0.61443 0.19815 0.0
C386 C 0.52243 0.62723 0.16944 0.0
C387 C 0.51151 0.59015 0.14577 0.0
H388 H 0.50858 0.48784 0.18366 0.0
C389 C 0.50675 0.53985 0.15143 0.0
C390 C 0.51219 0.527 0.18023 0.0
H391 H 0.49696 0.51056 0.13382 0.0
H392 H 0.57636 0.53628 0.34156 0.0
H393 H 0.57971 0.54757 0.2899 0.0
H394 H 0.43283 0.45618 0.27169 0.0
H395 H 0.43104 0.4428 0.3236 0.0
H396 H 0.48003 0.48621 0.22983 0.0
H397 H 0.54619 0.58174 0.2508 0.0
H398 H 0.53616 0.64399 0.21594 0.0
H399 H 0.52633 0.66635 0.16578 0.0
loop_
_geom_bond_atom_site_label_1
_geom_bond_atom_site_label_2
_geom_bond_distance
_geom_bond_site_symmetry_2
_ccdc_geom_bond_type
C0 O16 1.251 . S
C0 O18 1.254 1_554 S
N1 C2 1.333 1_455 S
N1 C6 1.307 . S
N1 Zn7 2.020 . S
C2 N1 1.333 1_655 S
C2 C3 1.379 . S
C2 H20 0.952 1_545 S
C3 C2 1.379 . S
C3 C4 1.390 1_655 S
C3 H30 0.949 . S
C4 C3 1.390 1_455 S
C4 C5 1.357 . S
C5 C4 1.357 . S
C5 C6 1.370 . S
C5 H31 0.950 . S
C6 N1 1.307 . S
C6 C5 1.370 . S
C6 H24 0.948 . S
Zn7 N1 2.020 . S
Zn7 O16 2.039 1_445 S
Zn7 O22 2.034 1_455 S
Zn7 O26 2.025 . S
Zn7 O28 2.024 1_545 S
C8 O27 1.246 1_554 S
C8 O28 1.249 . S
N9 C10 1.307 1_445 S
N9 C11 1.333 . S
N9 Zn15 2.020 . S
C10 N9 1.307 1_665 S
C10 C14 1.370 . S
C10 H21 0.948 . S
C11 N9 1.333 . S
C11 C12 1.379 . S
C11 H19 0.952 . S
C12 C11 1.379 . S
C12 C13 1.390 . S
C12 H32 0.949 . S
C13 C12 1.390 . S
C13 C14 1.357 1_445 S
C14 C10 1.370 . S
C14 C13 1.357 1_665 S
C14 H33 0.950 . S
Zn15 N9 2.020 . S
Zn15 O18 2.025 1_445 S
Zn15 O23 2.024 1_455 S
Zn15 O25 2.039 . S
Zn15 O27 2.034 1_545 S
O16 C0 1.251 . S
O16 Zn7 2.039 1_665 S
C17 O22 1.246 . S
C17 O23 1.249 1_554 S
O18 C0 1.254 1_556 S
O18 Zn15 2.025 1_665 S
H19 C11 0.952 . S
H20 C2 0.952 1_565 S
H21 C10 0.948 . S
O22 Zn7 2.034 1_655 S
O22 C17 1.246 . S
O23 Zn15 2.024 1_655 S
O23 C17 1.249 1_556 S
H24 C6 0.948 . S
O25 Zn15 2.039 . S
O25 C29 1.251 1_556 S
O26 Zn7 2.025 . S
O26 C29 1.254 . S
O27 C8 1.246 1_556 S
O27 Zn15 2.034 1_565 S
O28 Zn7 2.024 1_565 S
O28 C8 1.249 . S
C29 O25 1.251 1_554 S
C29 O26 1.254 . S
H30 C3 0.949 . S
H31 C5 0.950 . S
H32 C12 0.949 . S
H33 C14 0.950 . S
C34 O50 1.251 . S
C34 O52 1.254 . S
N35 C36 1.333 . S
N35 C40 1.307 . S
N35 Zn41 2.020 . S
C36 N35 1.333 . S
C36 C37 1.379 . S
C36 H54 0.952 . S
C37 C36 1.379 . S
C37 C38 1.390 . S
C37 H64 0.949 . S
C38 C37 1.390 . S
C38 C39 1.357 . S
C39 C38 1.357 . S
C39 C40 1.370 . S
C39 H65 0.950 . S
C40 N35 1.307 . S
C40 C39 1.370 . S
C40 H58 0.948 . S
Zn41 N35 2.020 . S
Zn41 O50 2.039 . S
Zn41 O56 2.034 . S
Zn41 O60 2.025 . S
Zn41 O62 2.024 . S
C42 O61 1.246 . S
C42 O62 1.249 . S
N43 C44 1.307 . S
N43 C45 1.333 . S
N43 Zn49 2.020 . S
C44 N43 1.307 . S
C44 C48 1.370 . S
C44 H55 0.948 . S
C45 N43 1.333 . S
C45 C46 1.379 . S
C45 H53 0.952 . S
C46 C45 1.379 . S
C46 C47 1.390 . S
C46 H66 0.949 . S
C47 C46 1.390 . S
C47 C48 1.357 . S
C48 C44 1.370 . S
C48 C47 1.357 . S
C48 H67 0.950 . S
Zn49 N43 2.020 . S
Zn49 O52 2.025 . S
Zn49 O57 2.024 . S
Zn49 O59 2.039 . S
Zn49 O61 2.034 . S
O50 C34 1.251 . S
O50 Zn41 2.039 . S
C51 O56 1.246 . S
C51 O57 1.249 . S
O52 C34 1.254 . S
O52 Zn49 2.025 . S
H53 C45 0.952 . S
H54 C36 0.952 . S
H55 C44 0.948 . S
O56 Zn41 2.034 . S
O56 C51 1.246 . S
O57 Zn49 2.024 . S
O57 C51 1.249 . S
H58 C40 0.948 . S
O59 Zn49 2.039 . S
O59 C63 1.251 . S
O60 Zn41 2.025 . S
O60 C63 1.254 . S
O61 C42 1.246 . S
O61 Zn49 2.034 . S
O62 Zn41 2.024 . S
O62 C42 1.249 . S
C63 O59 1.251 . S
C63 O60 1.254 . S
H64 C37 0.949 . S
H65 C39 0.950 . S
H66 C46 0.949 . S
H67 C48 0.950 . S
O68 Cd69 2.300 1_565 S
O68 C75 1.275 1_565 S
Cd69 O68 2.300 1_545 S
Cd69 O77 2.381 1_545 S
Cd69 O78 2.378 1_545 S
O70 Cd71 2.385 . S
O70 C75 1.255 . S
Cd71 O70 2.385 . S
Cd71 O72 2.317 1_455 S
O72 Cd71 2.317 1_655 S
O72 C73 1.232 . S
C73 O72 1.232 . S
C73 O74 1.218 . S
O74 C73 1.218 . S
C75 O68 1.275 1_545 S
C75 O70 1.255 . S
C76 O77 1.258 . S
C76 O78 1.256 . S
O77 Cd69 2.381 1_565 S
O77 C76 1.258 . S
O78 Cd69 2.378 1_565 S
O78 C76 1.256 . S
O79 Cd80 2.300 . S
O79 C86 1.275 1_545 S
Cd80 O79 2.300 . S
Cd80 O88 2.381 . S
Cd80 O89 2.378 . S
O81 Cd82 2.385 . S
O81 C86 1.255 . S
Cd82 O81 2.385 . S
Cd82 O83 2.317 1_455 S
O83 Cd82 2.317 1_655 S
O83 C84 1.232 . S
C84 O83 1.232 . S
C84 O85 1.218 . S
O85 C84 1.218 . S
C86 O79 1.275 1_565 S
C86 O81 1.255 . S
C87 O88 1.258 . S
C87 O89 1.256 . S
O88 Cd80 2.381 . S
O88 C87 1.258 . S
O89 Cd80 2.378 . S
O89 C87 1.256 . S
O90 Cd91 2.300 . S
O90 C97 1.275 . S
Cd91 O90 2.300 . S
Cd91 O99 2.381 . S
Cd91 O100 2.378 1_556 S
O92 Cd93 2.385 . S
O92 C97 1.255 . S
Cd93 O92 2.385 . S
Cd93 O94 2.317 . S
O94 Cd93 2.317 . S
O94 C95 1.232 . S
C95 O94 1.232 . S
C95 O96 1.218 . S
O96 C95 1.218 . S
C97 O90 1.275 . S
C97 O92 1.255 . S
C98 O99 1.258 . S
C98 O100 1.256 1_556 S
O99 Cd91 2.381 . S
O99 C98 1.258 . S
O100 Cd91 2.378 1_554 S
O100 C98 1.256 1_554 S
O101 Cd102 2.300 . S
O101 C108 1.275 . S
Cd102 O101 2.300 . S
Cd102 O110 2.381 . S
Cd102 O111 2.378 . S
O103 Cd104 2.385 . S
O103 C108 1.255 . S
Cd104 O103 2.385 . S
Cd104 O105 2.317 . S
O105 Cd104 2.317 . S
O105 C106 1.232 . S
C106 O105 1.232 . S
C106 O107 1.218 . S
O107 C106 1.218 . S
C108 O101 1.275 . S
C108 O103 1.255 . S
C109 O110 1.258 . S
C109 O111 1.256 . S
O110 Cd102 2.381 . S
O110 C109 1.258 . S
O111 Cd102 2.378 . S
O111 C109 1.256 . S
C112 C113 1.386 . S
C112 C114 1.383 . S
C112 H128 0.951 . S
C113 C112 1.386 . S
C113 C117 1.383 . S
C114 C112 1.383 . S
C114 C115 1.402 . S
C114 H129 0.951 . S
C115 C114 1.402 . S
C115 C116 1.375 . S
C115 C118 1.481 . S
C116 C115 1.375 . S
C116 C117 1.367 . S
C116 H130 0.951 . S
C117 C113 1.383 . S
C117 C116 1.367 . S
C117 H131 0.950 . S
C118 C115 1.481 . S
C118 C119 1.297 . S
C118 H132 0.950 . S
C119 C118 1.297 . S
C119 C120 1.479 . S
C119 H133 0.950 . S
C120 C119 1.479 . S
C120 C121 1.375 . S
C120 C126 1.404 . S
C121 C120 1.375 . S
C121 C122 1.369 . S
C121 H134 0.950 . S
C122 C121 1.369 . S
C122 C123 1.392 . S
C122 H135 0.951 . S
C123 C122 1.392 . S
C123 C125 1.384 . S
H124 C126 0.949 . S
C125 C123 1.384 . S
C125 C126 1.385 . S
C125 H127 0.950 . S
C126 C120 1.404 . S
C126 H124 0.949 . S
C126 C125 1.385 . S
H127 C125 0.950 . S
H128 C112 0.951 . S
H129 C114 0.951 . S
H130 C116 0.951 . S
H131 C117 0.950 . S
H132 C118 0.950 . S
H133 C119 0.950 . S
H134 C121 0.950 . S
H135 C122 0.951 . S
C136 C137 1.386 1_556 S
C136 C138 1.383 . S
C136 H152 0.951 . S
C137 C136 1.386 1_554 S
C137 C141 1.383 . S
C138 C136 1.383 . S
C138 C139 1.402 1_556 S
C138 H153 0.951 . S
C139 C138 1.402 1_554 S
C139 C140 1.375 . S
C139 C142 1.481 . S
C140 C139 1.375 . S
C140 C141 1.367 . S
C140 H154 0.951 . S
C141 C137 1.383 . S
C141 C140 1.367 . S
C141 H155 0.950 . S
C142 C139 1.481 . S
C142 C143 1.297 1_554 S
C142 H156 0.950 . S
C143 C142 1.297 1_556 S
C143 C144 1.479 . S
C143 H157 0.950 . S
C144 C143 1.479 . S
C144 C145 1.375 . S
C144 C150 1.404 1_556 S
C145 C144 1.375 . S
C145 C146 1.369 . S
C145 H158 0.950 . S
C146 C145 1.369 . S
C146 C147 1.392 . S
C146 H159 0.951 . S
C147 C146 1.392 . S
C147 C149 1.384 1_556 S
H148 C150 0.949 . S
C149 C147 1.384 1_554 S
C149 C150 1.385 . S
C149 H151 0.950 . S
C150 C144 1.404 1_554 S
C150 H148 0.949 . S
C150 C149 1.385 . S
H151 C149 0.950 . S
H152 C136 0.951 . S
H153 C138 0.951 . S
H154 C140 0.951 . S
H155 C141 0.950 . S
H156 C142 0.950 . S
H157 C143 0.950 . S
H158 C145 0.950 . S
H159 C146 0.951 . S
C160 C161 1.386 1_556 S
C160 C162 1.383 . S
C160 H176 0.951 . S
C161 C160 1.386 1_554 S
C161 C165 1.383 . S
C162 C160 1.383 . S
C162 C163 1.402 1_556 S
C162 H177 0.951 . S
C163 C162 1.402 1_554 S
C163 C164 1.375 . S
C163 C166 1.481 . S
C164 C163 1.375 . S
C164 C165 1.367 . S
C164 H178 0.951 . S
C165 C161 1.383 . S
C165 C164 1.367 . S
C165 H179 0.950 . S
C166 C163 1.481 . S
C166 C167 1.297 . S
C166 H180 0.950 . S
C167 C166 1.297 . S
C167 C168 1.479 . S
C167 H181 0.950 1_554 S
C168 C167 1.479 . S
C168 C169 1.375 1_554 S
C168 C174 1.404 . S
C169 C168 1.375 1_556 S
C169 C170 1.369 . S
C169 H182 0.950 . S
C170 C169 1.369 . S
C170 C171 1.392 1_556 S
C170 H183 0.951 . S
C171 C170 1.392 1_554 S
C171 C173 1.384 . S
H172 C174 0.949 . S
C173 C171 1.384 . S
C173 C174 1.385 . S
C173 H175 0.950 . S
C174 C168 1.404 . S
C174 H172 0.949 . S
C174 C173 1.385 . S
H175 C173 0.950 . S
H176 C160 0.951 . S
H177 C162 0.951 . S
H178 C164 0.951 . S
H179 C165 0.950 . S
H180 C166 0.950 . S
H181 C167 0.950 1_556 S
H182 C169 0.950 . S
H183 C170 0.951 . S
C184 C185 1.386 . S
C184 C186 1.383 . S
C184 H200 0.951 . S
C185 C184 1.386 . S
C185 C189 1.383 1_554 S
C186 C184 1.383 . S
C186 C187 1.434 . S
C186 H201 0.951 . S
C187 C186 1.434 . S
C187 C188 1.350 1_554 S
C187 C190 1.473 1_554 S
C188 C187 1.350 1_556 S
C188 C189 1.367 . S
C188 H202 0.951 . S
C189 C185 1.383 1_556 S
C189 C188 1.367 . S
C189 H203 0.950 . S
C190 C187 1.473 1_556 S
C190 C191 1.297 1_556 S
C190 H204 0.950 . S
C191 C190 1.297 1_554 S
C191 C192 1.479 . S
C191 H205 0.950 . S
C192 C191 1.479 . S
C192 C193 1.375 . S
C192 C198 1.404 1_554 S
C193 C192 1.375 . S
C193 C194 1.369 . S
C193 H206 0.950 . S
C194 C193 1.369 . S
C194 C195 1.391 . S
C194 H207 0.951 . S
C195 C194 1.391 . S
C195 C197 1.385 1_554 S
H196 C198 0.949 . S
C197 C195 1.385 1_556 S
C197 C198 1.385 . S
C197 H199 0.950 . S
C198 C192 1.404 1_556 S
C198 H196 0.949 . S
C198 C197 1.385 . S
H199 C197 0.950 . S
H200 C184 0.951 . S
H201 C186 0.951 . S
H202 C188 0.951 . S
H203 C189 0.950 . S
H204 C190 0.950 . S
H205 C191 0.950 . S
H206 C193 0.950 . S
H207 C194 0.951 . S
C208 C209 1.386 . S
C208 C210 1.383 . S
C208 H224 0.951 . S
C209 C208 1.386 . S
C209 C213 1.383 . S
C210 C208 1.383 . S
C210 C211 1.402 . S
C210 H225 0.951 . S
C211 C210 1.402 . S
C211 C212 1.375 . S
C211 C214 1.481 . S
C212 C211 1.375 . S
C212 C213 1.367 . S
C212 H226 0.951 . S
C213 C209 1.383 . S
C213 C212 1.367 . S
C213 H227 0.950 . S
C214 C211 1.481 . S
C214 C215 1.297 . S
C214 H228 0.950 . S
C215 C214 1.297 . S
C215 C216 1.479 . S
C215 H229 0.950 . S
C216 C215 1.479 . S
C216 C217 1.375 . S
C216 C222 1.404 . S
C217 C216 1.375 . S
C217 C218 1.369 . S
C217 H230 0.950 . S
C218 C217 1.369 . S
C218 C219 1.392 . S
C218 H231 0.951 . S
C219 C218 1.392 . S
C219 C221 1.384 . S
H220 C222 0.949 . S
C221 C219 1.384 . S
C221 C222 1.385 . S
C221 H223 0.950 . S
C222 C216 1.404 . S
C222 H220 0.949 . S
C222 C221 1.385 . S
H223 C221 0.950 . S
H224 C208 0.951 . S
H225 C210 0.951 . S
H226 C212 0.951 . S
H227 C213 0.950 . S
H228 C214 0.950 . S
H229 C215 0.950 . S
H230 C217 0.950 . S
H231 C218 0.951 . S
C232 C233 1.386 . S
C232 C234 1.383 . S
C232 H248 0.951 . S
C233 C232 1.386 . S
C233 C237 1.383 . S
C234 C232 1.383 . S
C234 C235 1.402 . S
C234 H249 0.951 . S
C235 C234 1.402 . S
C235 C236 1.375 . S
C235 C238 1.481 . S
C236 C235 1.375 . S
C236 C237 1.367 . S
C236 H250 0.951 . S
C237 C233 1.383 . S
C237 C236 1.367 . S
C237 H251 0.950 . S
C238 C235 1.481 . S
C238 C239 1.297 . S
C238 H252 0.950 . S
C239 C238 1.297 . S
C239 C240 1.479 . S
C239 H253 0.950 . S
C240 C239 1.479 . S
C240 C241 1.375 . S
C240 C246 1.404 . S
C241 C240 1.375 . S
C241 C242 1.369 . S
C241 H254 0.950 . S
C242 C241 1.369 . S
C242 C243 1.392 . S
C242 H255 0.951 . S
C243 C242 1.392 . S
C243 C245 1.384 . S
H244 C246 0.949 . S
C245 C243 1.384 . S
C245 C246 1.385 . S
C245 H247 0.950 . S
C246 C240 1.404 . S
C246 H244 0.949 . S
C246 C245 1.385 . S
H247 C245 0.950 . S
H248 C232 0.951 . S
H249 C234 0.951 . S
H250 C236 0.951 . S
H251 C237 0.950 . S
H252 C238 0.950 . S
H253 C239 0.950 . S
H254 C241 0.950 . S
H255 C242 0.951 . S
C256 C257 1.386 . S
C256 C258 1.383 . S
C256 H272 0.951 . S
C257 C256 1.386 . S
C257 C261 1.383 . S
C258 C256 1.383 . S
C258 C259 1.402 . S
C258 H273 0.951 . S
C259 C258 1.402 . S
C259 C260 1.375 . S
C259 C262 1.481 . S
C260 C259 1.375 . S
C260 C261 1.367 . S
C260 H274 0.951 . S
C261 C257 1.383 . S
C261 C260 1.367 . S
C261 H275 0.950 . S
C262 C259 1.481 . S
C262 C263 1.297 . S
C262 H276 0.950 . S
C263 C262 1.297 . S
C263 C264 1.479 . S
C263 H277 0.950 . S
C264 C263 1.479 . S
C264 C265 1.375 . S
C264 C270 1.404 . S
C265 C264 1.375 . S
C265 C266 1.369 . S
C265 H278 0.950 . S
C266 C265 1.369 . S
C266 C267 1.392 . S
C266 H279 0.951 . S
C267 C266 1.392 . S
C267 C269 1.384 . S
H268 C270 0.949 . S
C269 C267 1.384 . S
C269 C270 1.385 . S
C269 H271 0.950 . S
C270 C264 1.404 . S
C270 H268 0.949 . S
C270 C269 1.385 . S
H271 C269 0.950 . S
H272 C256 0.951 . S
H273 C258 0.951 . S
H274 C260 0.951 . S
H275 C261 0.950 . S
H276 C262 0.950 . S
H277 C263 0.950 . S
H278 C265 0.950 . S
H279 C266 0.951 . S
C280 C281 1.386 . S
C280 C282 1.383 . S
C280 H296 0.951 . S
C281 C280 1.386 . S
C281 C285 1.383 . S
C282 C280 1.383 . S
C282 C283 1.402 . S
C282 H297 0.951 . S
C283 C282 1.402 . S
C283 C284 1.375 . S
C283 C286 1.481 . S
C284 C283 1.375 . S
C284 C285 1.367 . S
C284 H298 0.951 . S
C285 C281 1.383 . S
C285 C284 1.367 . S
C285 H299 0.950 . S
C286 C283 1.481 . S
C286 C287 1.297 . S
C286 H300 0.950 . S
C287 C286 1.297 . S
C287 C288 1.479 . S
C287 H301 0.950 . S
C288 C287 1.479 . S
C288 C289 1.375 . S
C288 C294 1.404 . S
C289 C288 1.375 . S
C289 C290 1.369 . S
C289 H302 0.950 . S
C290 C289 1.369 . S
C290 C291 1.392 . S
C290 H303 0.951 . S
C291 C290 1.392 . S
C291 C293 1.384 . S
H292 C294 0.949 . S
C293 C291 1.384 . S
C293 C294 1.385 . S
C293 H295 0.950 . S
C294 C288 1.404 . S
C294 H292 0.949 . S
C294 C293 1.385 . S
H295 C293 0.950 . S
H296 C280 0.951 . S
H297 C282 0.951 . S
H298 C284 0.951 . S
H299 C285 0.950 . S
H300 C286 0.950 . S
H301 C287 0.950 . S
H302 C289 0.950 . S
H303 C290 0.951 . S
C304 C305 1.386 1_655 S
C304 C306 1.383 . S
C304 H320 0.951 . S
C305 C304 1.386 1_455 S
C305 C309 1.383 . S
C306 C304 1.383 . S
C306 C307 1.402 1_655 S
C306 H321 0.951 . S
C307 C306 1.402 1_455 S
C307 C308 1.375 . S
C307 C310 1.481 . S
C308 C307 1.375 . S
C308 C309 1.367 . S
C308 H322 0.951 . S
C309 C305 1.383 . S
C309 C308 1.367 . S
C309 H323 0.950 . S
C310 C307 1.481 . S
C310 C311 1.297 1_455 S
C310 H324 0.950 . S
C311 C310 1.297 1_655 S
C311 C312 1.479 . S
C311 H325 0.950 . S
C312 C311 1.479 . S
C312 C313 1.375 . S
C312 C318 1.402 1_645 S
C313 C312 1.375 . S
C313 C314 1.369 . S
C313 H326 0.950 . S
C314 C313 1.369 . S
C314 C315 1.392 1_655 S
C314 H327 0.951 . S
C315 C314 1.392 1_455 S
C315 C317 1.384 . S
H316 C318 0.951 . S
C317 C315 1.384 . S
C317 C318 1.385 1_545 S
C317 H319 0.945 1_545 S
C318 C312 1.402 1_465 S
C318 H316 0.951 . S
C318 C317 1.385 1_565 S
H319 C317 0.945 1_565 S
H320 C304 0.951 . S
H321 C306 0.951 . S
H322 C308 0.951 . S
H323 C309 0.950 . S
H324 C310 0.950 . S
H325 C311 0.950 . S
H326 C313 0.950 . S
H327 C314 0.951 . S
C328 C329 1.386 1_565 S
C328 C330 1.383 . S
C328 H344 0.951 . S
C329 C328 1.386 1_545 S
C329 C333 1.383 1_455 S
C330 C328 1.383 . S
C330 C331 1.401 1_565 S
C330 H345 0.951 . S
C331 C330 1.401 1_545 S
C331 C332 1.375 1_455 S
C331 C334 1.481 1_455 S
C332 C331 1.375 1_655 S
C332 C333 1.367 . S
C332 H346 0.951 . S
C333 C329 1.383 1_655 S
C333 C332 1.367 . S
C333 H347 0.950 . S
C334 C331 1.481 1_655 S
C334 C335 1.297 1_645 S
C334 H348 0.950 . S
C335 C334 1.297 1_465 S
C335 C336 1.479 . S
C335 H349 0.950 . S
C336 C335 1.479 . S
C336 C337 1.375 . S
C336 C342 1.404 1_465 S
C337 C336 1.375 . S
C337 C338 1.369 . S
C337 H350 0.950 . S
C338 C337 1.369 . S
C338 C339 1.392 . S
C338 H351 0.951 . S
C339 C338 1.392 . S
C339 C341 1.384 1_465 S
H340 C342 0.949 . S
C341 C339 1.384 1_645 S
C341 C342 1.385 . S
C341 H343 0.950 . S
C342 C336 1.404 1_645 S
C342 H340 0.949 . S
C342 C341 1.385 . S
H343 C341 0.950 . S
H344 C328 0.951 . S
H345 C330 0.951 . S
H346 C332 0.951 . S
H347 C333 0.950 . S
H348 C334 0.950 . S
H349 C335 0.950 . S
H350 C337 0.950 . S
H351 C338 0.951 . S
C352 C353 1.386 . S
C352 C354 1.383 . S
C352 H368 0.951 . S
C353 C352 1.386 . S
C353 C357 1.383 . S
C354 C352 1.383 . S
C354 C355 1.402 . S
C354 H369 0.951 . S
C355 C354 1.402 . S
C355 C356 1.375 . S
C355 C358 1.481 . S
C356 C355 1.375 . S
C356 C357 1.367 . S
C356 H370 0.951 . S
C357 C353 1.383 . S
C357 C356 1.367 . S
C357 H371 0.950 . S
C358 C355 1.481 . S
C358 C359 1.297 . S
C358 H372 0.950 . S
C359 C358 1.297 . S
C359 C360 1.479 . S
C359 H373 0.950 . S
C360 C359 1.479 . S
C360 C361 1.375 . S
C360 C366 1.404 . S
C361 C360 1.375 . S
C361 C362 1.369 . S
C361 H374 0.950 . S
C362 C361 1.369 . S
C362 C363 1.392 . S
C362 H375 0.951 . S
C363 C362 1.392 . S
C363 C365 1.384 . S
H364 C366 0.949 . S
C365 C363 1.384 . S
C365 C366 1.385 . S
C365 H367 0.950 . S
C366 C360 1.404 . S
C366 H364 0.949 . S
C366 C365 1.385 . S
H367 C365 0.950 . S
H368 C352 0.951 . S
H369 C354 0.951 . S
H370 C356 0.951 . S
H371 C357 0.950 . S
H372 C358 0.950 . S
H373 C359 0.950 . S
H374 C361 0.950 . S
H375 C362 0.951 . S
C376 C377 1.386 . S
C376 C378 1.383 . S
C376 H392 0.951 . S
C377 C376 1.386 . S
C377 C381 1.383 . S
C378 C376 1.383 . S
C378 C379 1.402 . S
C378 H393 0.951 . S
C379 C378 1.402 . S
C379 C380 1.375 . S
C379 C382 1.481 . S
C380 C379 1.375 . S
C380 C381 1.367 . S
C380 H394 0.951 . S
C381 C377 1.383 . S
C381 C380 1.367 . S
C381 H395 0.950 . S
C382 C379 1.481 . S
C382 C383 1.297 . S
C382 H396 0.950 . S
C383 C382 1.297 . S
C383 C384 1.479 . S
C383 H397 0.950 . S
C384 C383 1.479 . S
C384 C385 1.375 . S
C384 C390 1.404 . S
C385 C384 1.375 . S
C385 C386 1.369 . S
C385 H398 0.950 . S
C386 C385 1.369 . S
C386 C387 1.392 . S
C386 H399 0.951 . S
C387 C386 1.392 . S
C387 C389 1.384 . S
H388 C390 0.949 . S
C389 C387 1.384 . S
C389 C390 1.385 . S
C389 H391 0.950 . S
C390 C384 1.404 . S
C390 H388 0.949 . S
C390 C389 1.385 . S
H391 C389 0.950 . S
H392 C376 0.951 . S
H393 C378 0.951 . S
H394 C380 0.951 . S
H395 C381 0.950 . S
H396 C382 0.950 . S
H397 C383 0.950 . S
H398 C385 0.950 . S
H399 C386 0.951 . S
C123 C106 1.221 . S
C113 C29 1.464 . S
C137 C8 1.470 . S
C147 C95 1.152 . S
C161 C0 1.415 . S
C171 C109 1.363 . S
C185 C17 1.409 . S
C195 C98 1.375 1_554 S
C209 C63 1.467 . S
C219 C84 1.147 . S
C233 C42 1.467 . S
C243 C73 1.145 . S
C267 C87 1.365 . S
C257 C34 1.415 . S
C291 C76 1.342 . S
C281 C51 1.400 . S
C305 C4 1.505 . S
C315 C75 1.453 . S
C329 C13 1.494 . S
C339 C86 1.483 . S
C363 C97 1.492 . S
C353 C38 1.509 . S
C377 C47 1.497 . S
C387 C108 1.394 . S
