# Generated by pormake.
# Topology dag, (6,3)-cn, num edge types: 1
# Building blocks:
#     Node 0, Type 0, BuildingBlock: MIDCAF_clean_sbu_0, # of connection points: 6
#     Node 1, Type 0, BuildingBlock: MIDCAF_clean_sbu_0, # of connection points: 6
#     Node 2, Type 0, BuildingBlock: MIDCAF_clean_sbu_0, # of connection points: 6
#     Node 3, Type 0, BuildingBlock: MIDCAF_clean_sbu_0, # of connection points: 6
#     Node 4, Type 1, BuildingBlock: WUSLED_clean_sbu_0, # of connection points: 3
#     Node 5, Type 1, BuildingBlock: WUSLED_clean_sbu_0, # of connection points: 3
#     Node 6, Type 1, BuildingBlock: WUSLED_clean_sbu_0, # of connection points: 3
#     Node 7, Type 1, BuildingBlock: WUSLED_clean_sbu_0, # of connection points: 3
#     Node 8, Type 1, BuildingBlock: WUSLED_clean_sbu_0, # of connection points: 3
#     Node 9, Type 1, BuildingBlock: WUSLED_clean_sbu_0, # of connection points: 3
#     Node 10, Type 1, BuildingBlock: WUSLED_clean_sbu_0, # of connection points: 3
#     Node 11, Type 1, BuildingBlock: WUSLED_clean_sbu_0, # of connection points: 3
#     Edge 12, Type (0, 1), BuildingBlock: AJUNOK_clean_linker_0, # of connection points: 2
#     Edge 13, Type (0, 1), BuildingBlock: AJUNOK_clean_linker_0, # of connection points: 2
#     Edge 14, Type (0, 1), BuildingBlock: AJUNOK_clean_linker_0, # of connection points: 2
#     Edge 15, Type (0, 1), BuildingBlock: AJUNOK_clean_linker_0, # of connection points: 2
#     Edge 16, Type (0, 1), BuildingBlock: AJUNOK_clean_linker_0, # of connection points: 2
#     Edge 17, Type (0, 1), BuildingBlock: AJUNOK_clean_linker_0, # of connection points: 2
#     Edge 18, Type (0, 1), BuildingBlock: AJUNOK_clean_linker_0, # of connection points: 2
#     Edge 19, Type (0, 1), BuildingBlock: AJUNOK_clean_linker_0, # of connection points: 2
#     Edge 20, Type (0, 1), BuildingBlock: AJUNOK_clean_linker_0, # of connection points: 2
#     Edge 21, Type (0, 1), BuildingBlock: AJUNOK_clean_linker_0, # of connection points: 2
#     Edge 22, Type (0, 1), BuildingBlock: AJUNOK_clean_linker_0, # of connection points: 2
#     Edge 23, Type (0, 1), BuildingBlock: AJUNOK_clean_linker_0, # of connection points: 2
#     Edge 24, Type (0, 1), BuildingBlock: AJUNOK_clean_linker_0, # of connection points: 2
#     Edge 25, Type (0, 1), BuildingBlock: AJUNOK_clean_linker_0, # of connection points: 2
#     Edge 26, Type (0, 1), BuildingBlock: AJUNOK_clean_linker_0, # of connection points: 2
#     Edge 27, Type (0, 1), BuildingBlock: AJUNOK_clean_linker_0, # of connection points: 2
#     Edge 28, Type (0, 1), BuildingBlock: AJUNOK_clean_linker_0, # of connection points: 2
#     Edge 29, Type (0, 1), BuildingBlock: AJUNOK_clean_linker_0, # of connection points: 2
#     Edge 30, Type (0, 1), BuildingBlock: AJUNOK_clean_linker_0, # of connection points: 2
#     Edge 31, Type (0, 1), BuildingBlock: AJUNOK_clean_linker_0, # of connection points: 2
#     Edge 32, Type (0, 1), BuildingBlock: AJUNOK_clean_linker_0, # of connection points: 2
#     Edge 33, Type (0, 1), BuildingBlock: AJUNOK_clean_linker_0, # of connection points: 2
#     Edge 34, Type (0, 1), BuildingBlock: AJUNOK_clean_linker_0, # of connection points: 2
#     Edge 35, Type (0, 1), BuildingBlock: AJUNOK_clean_linker_0, # of connection points: 2
# Relax obj value: 0.295
# Max RMSD: 0.191
# Mean RMSD: 0.179
data_MOF--net-dag--node1-MIDCAF_clean_sbu_0--node2-WUSLED_clean_sbu_0--edge1-AJUNOK_clean_linker_0
_symmetry_space_group_name_H-M    P1
_symmetry_Int_Tables_number       1
_symmetry_cell_setting            triclinic
loop_
_symmetry_equiv_pos_as_xyz
'x, y, z'
_cell_length_a     42.554355
_cell_length_b     41.802792
_cell_length_c     31.158241
_cell_angle_alpha  89.821505
_cell_angle_beta   93.747637
_cell_angle_gamma 90.412632
loop_
_atom_site_label
_atom_site_type_symbol
_atom_site_fract_x
_atom_site_fract_y
_atom_site_fract_z
_atom_type_partial_charge
Zn0 Zn 0.14465 0.79208 0.0841 0.0
Zn1 Zn 0.16733 0.83678 0.93155 0.0
Zn2 Zn 0.15764 0.81587 1.00906 0.0
C3 C 0.18024 0.88801 0.98624 0.0
C4 C 0.10412 0.82095 0.92988 0.0
O5 O 0.18997 0.7747 0.02469 0.0
O6 O 0.1731 0.75559 0.08547 0.0
C7 C 0.16698 0.85555 0.09649 0.0
O8 O 0.17169 0.86713 0.01381 0.0
O9 O 0.18198 0.8803 0.94735 0.0
O10 O 0.12387 0.83258 0.90557 0.0
O11 O 0.11271 0.8131 0.96894 0.0
O12 O 0.15746 0.83155 0.11685 0.0
O13 O 0.16865 0.85432 0.05542 0.0
O14 O 0.10644 0.80489 1.01141 0.0
O15 O 0.09923 0.7836 0.07515 0.0
C16 C 0.08806 0.79318 0.03896 0.0
O17 O 0.19418 0.78507 0.98226 0.0
O18 O 0.19857 0.80537 0.91708 0.0
C19 C 0.1917 0.75406 0.05568 0.0
C20 C 0.20658 0.78505 0.94558 0.0
Zn21 Zn 0.68069 0.63443 0.40876 0.0
Zn22 Zn 0.66982 0.66888 0.56742 0.0
Zn23 Zn 0.67719 0.64978 0.48966 0.0
C24 C 0.69671 0.60857 0.5745 0.0
C25 C 0.60982 0.66497 0.53014 0.0
O26 O 0.70757 0.68604 0.45856 0.0
O27 O 0.70183 0.67305 0.38961 0.0
C28 C 0.70824 0.58466 0.45915 0.0
O29 O 0.69307 0.6105 0.53317 0.0
O30 O 0.69053 0.63215 0.5976 0.0
O31 O 0.62358 0.67007 0.56656 0.0
O32 O 0.62597 0.658 0.49783 0.0
O33 O 0.70552 0.59506 0.42099 0.0
O34 O 0.69845 0.60164 0.48999 0.0
O35 O 0.6297 0.64507 0.45704 0.0
O36 O 0.63566 0.62898 0.39038 0.0
C37 C 0.61797 0.63574 0.4199 0.0
O38 O 0.7064 0.69389 0.50247 0.0
O39 O 0.69263 0.70966 0.56634 0.0
C40 C 0.71274 0.69156 0.41884 0.0
C41 C 0.70832 0.71402 0.53389 0.0
Zn42 Zn 0.82353 0.19155 0.97644 0.0
Zn43 Zn 0.83424 0.15266 0.13615 0.0
Zn44 Zn 0.82999 0.17264 0.05794 0.0
C45 C 0.89279 0.1772 0.12162 0.0
C46 C 0.81822 0.09956 0.08873 0.0
O47 O 0.79509 0.21205 0.05342 0.0
O48 O 0.79206 0.22466 0.98409 0.0
C49 C 0.88664 0.2023 1.00496 0.0
O50 O 0.8796 0.17929 0.08328 0.0
O51 O 0.87724 0.16797 0.15248 0.0
O52 O 0.82812 0.10658 0.12656 0.0
O53 O 0.81628 0.12124 0.05918 0.0
O54 O 0.86768 0.20606 0.97249 0.0
O55 O 0.87708 0.18963 0.03969 0.0
O56 O 0.81577 0.13115 0.01604 0.0
O57 O 0.80974 0.15024 0.94968 0.0
C58 C 0.80917 0.1269 0.97542 0.0
O59 O 0.79723 0.20136 0.09625 0.0
O60 O 0.79893 0.17571 0.15853 0.0
C61 C 0.78371 0.22912 0.02166 0.0
C62 C 0.78763 0.19762 0.13445 0.0
Zn63 Zn 0.3287 0.34844 0.68909 0.0
Zn64 Zn 0.33446 0.31971 0.4812 0.0
Zn65 Zn 0.33432 0.32234 0.56129 0.0
C66 C 0.39427 0.29977 0.51114 0.0
C67 C 0.32051 0.38231 0.50037 0.0
O68 O 0.30198 0.28715 0.5884 0.0
O69 O 0.31844 0.31788 0.63982 0.0
C70 C 0.38034 0.32355 0.62923 0.0
O71 O 0.38318 0.3084 0.54682 0.0
O72 O 0.37692 0.30097 0.47672 0.0
O73 O 0.32887 0.36598 0.46914 0.0
O74 O 0.31967 0.36962 0.53787 0.0
O75 O 0.35311 0.32817 0.64199 0.0
O76 O 0.38127 0.31485 0.59018 0.0
O77 O 0.3229 0.37236 0.58676 0.0
O78 O 0.31729 0.389 0.65565 0.0
C79 C 0.31716 0.3942 0.61502 0.0
O80 O 0.29966 0.28429 0.54355 0.0
O81 O 0.29712 0.29107 0.473 0.0
C82 C 0.30126 0.29431 0.62803 0.0
C83 C 0.28749 0.27728 0.50584 0.0
C84 C 0.07219 0.16513 0.25377 0.0
C85 C 0.0493 0.14088 0.24767 0.0
C86 C 0.01834 0.1744 0.19737 0.0
C87 C 0.02263 0.1456 0.22023 0.0
C88 C 0.04087 0.19898 0.20386 0.0
C89 C 0.06767 0.19433 0.23182 0.0
U90 U 0.14138 0.11217 0.27806 0.0
O91 O 0.19108 0.12038 0.29946 0.0
O92 O 0.16091 0.0908 0.33849 0.0
C93 C 0.18799 0.10592 0.33653 0.0
C94 C 0.10135 0.15913 0.28097 0.0
C95 C 0.19808 0.12512 0.37447 0.0
C96 C 0.18655 0.16521 0.42741 0.0
C97 C 0.17622 0.14341 0.39555 0.0
C98 C 0.24052 0.14966 0.41881 0.0
C99 C 0.2189 0.16944 0.4381 0.0
C100 C 0.23016 0.12768 0.38718 0.0
C101 C 0.14269 0.0419 0.19724 0.0
C102 C 0.17901 -0.00275 0.1994 0.0
C103 C 0.13398 -0.00208 0.14747 0.0
C104 C 0.12515 0.02751 0.1629 0.0
C105 C 0.16061 0.98235 0.16604 0.0
C106 C 0.17001 0.02699 0.2151 0.0
C107 C 0.13077 0.07159 0.21467 0.0
O108 O 0.10057 0.13376 0.30591 0.0
O109 O 0.12774 0.16181 0.26148 0.0
O110 O 0.14873 0.09712 0.21192 0.0
O111 O 0.11773 0.069 0.25162 0.0
H112 H 0.05196 0.11801 0.26388 0.0
H113 H 0.00514 0.12664 0.21723 0.0
H114 H 0.03791 0.22157 0.18701 0.0
H115 H 0.08504 0.21334 0.23589 0.0
H116 H 0.16938 0.17986 0.44219 0.0
H117 H 0.1513 0.14184 0.38614 0.0
H118 H 0.26561 0.1526 0.42617 0.0
H119 H 0.24734 0.11382 0.37117 0.0
H120 H 0.19946 0.98534 0.21433 0.0
H121 H 0.11947 0.98667 0.12182 0.0
H122 H 0.10404 0.03877 0.14878 0.0
H123 H 0.18375 0.0379 0.24173 0.0
C124 C 0.32878 0.59174 0.65 0.0
C125 C 0.33613 0.585 0.60766 0.0
C126 C 0.31932 0.52957 0.6168 0.0
C127 C 0.33146 0.55393 0.59111 0.0
C128 C 0.31204 0.53682 0.65899 0.0
C129 C 0.31669 0.5675 0.6753 0.0
U130 U 0.35949 0.68004 0.66978 0.0
O131 O 0.33132 0.71957 0.69329 0.0
O132 O 0.3708 0.70026 0.73393 0.0
C133 C 0.3463 0.71924 0.73162 0.0
C134 C 0.33237 0.62355 0.66955 0.0
C135 C 0.32708 0.71888 0.76957 0.0
C136 C 0.27685 0.72484 0.80159 0.0
C137 C 0.29415 0.72182 0.76521 0.0
C138 C 0.32477 0.72057 0.84749 0.0
C139 C 0.29207 0.7251 0.84304 0.0
C140 C 0.34211 0.71769 0.81112 0.0
C141 C 0.42059 0.68563 0.58053 0.0
C142 C 0.46312 0.70174 0.53675 0.0
C143 C 0.45633 0.64592 0.55524 0.0
C144 C 0.42964 0.65358 0.57705 0.0
C145 C 0.47451 0.67026 0.53729 0.0
C146 C 0.43629 0.70928 0.55804 0.0
C147 C 0.40114 0.69621 0.615 0.0
O148 O 0.3592 0.62987 0.69126 0.0
O149 O 0.32047 0.64808 0.6477 0.0
O150 O 0.40839 0.6838 0.65311 0.0
O151 O 0.37071 0.70012 0.60655 0.0
H152 H 0.34542 0.60358 0.58765 0.0
H153 H 0.33723 0.54897 0.55846 0.0
H154 H 0.30329 0.51849 0.67988 0.0
H155 H 0.31089 0.5723 0.70802 0.0
H156 H 0.25169 0.72866 0.79714 0.0
H157 H 0.28179 0.72287 0.73374 0.0
H158 H 0.33707 0.72036 0.87904 0.0
H159 H 0.36747 0.7155 0.8155 0.0
H160 H 0.47666 0.7212 0.52402 0.0
H161 H 0.46437 0.62138 0.55579 0.0
H162 H 0.41782 0.63496 0.59429 0.0
H163 H 0.42978 0.73419 0.56065 0.0
C164 C 0.77077 0.9075 0.11813 0.0
C165 C 0.78831 0.91217 0.08192 0.0
C166 C 0.77624 0.96875 0.08225 0.0
C167 C 0.79103 0.94266 0.06407 0.0
C168 C 0.75579 0.96336 0.11517 0.0
C169 C 0.75319 0.93285 0.13321 0.0
U170 U 0.82647 0.84204 0.14789 0.0
O171 O 0.84976 0.82908 0.21042 0.0
O172 O 0.82223 0.79295 0.17296 0.0
C173 C 0.83759 0.8001 0.20976 0.0
C174 C 0.77754 0.87967 0.14598 0.0
C175 C 0.82203 0.79065 0.24867 0.0
C176 C 0.78355 0.80007 0.3015 0.0
C177 C 0.79903 0.81007 0.26545 0.0
C178 C 0.81436 0.75151 0.30479 0.0
C179 C 0.79079 0.77049 0.3213 0.0
C180 C 0.82989 0.76158 0.26891 0.0
C181 C 0.89749 0.83976 0.07582 0.0
C182 C 0.93009 0.80144 0.04052 0.0
C183 C 0.95351 0.84981 0.07134 0.0
C184 C 0.92419 0.85928 0.08402 0.0
C185 C 0.95685 0.82072 0.04974 0.0
C186 C 0.90064 0.81088 0.05342 0.0
C187 C 0.8665 0.8511 0.08821 0.0
O188 O 0.77684 0.85157 0.12699 0.0
O189 O 0.80263 0.88394 0.1722 0.0
O190 O 0.84256 0.83102 0.08384 0.0
O191 O 0.86672 0.86802 0.12372 0.0
H192 H 0.8024 0.89299 0.07016 0.0
H193 H 0.80713 0.94643 0.03895 0.0
H194 H 0.74451 0.98329 0.12998 0.0
H195 H 0.7399 0.92978 0.16145 0.0
H196 H 0.76536 0.81509 0.31328 0.0
H197 H 0.79265 0.83264 0.2502 0.0
H198 H 0.81983 0.72817 0.31835 0.0
H199 H 0.84752 0.74626 0.25629 0.0
H200 H 0.93191 0.77917 0.02323 0.0
H201 H 0.97375 0.86509 0.07913 0.0
H202 H 0.92243 0.88198 0.10036 0.0
H203 H 0.8804 0.79562 0.04567 0.0
C204 C 0.69258 0.4554 0.75425 0.0
C205 C 0.66616 0.46885 0.73193 0.0
C206 C 0.69991 0.49865 0.68587 0.0
C207 C 0.66977 0.49046 0.69848 0.0
C208 C 0.72643 0.48489 0.70797 0.0
C209 C 0.72278 0.46333 0.74192 0.0
U210 U 0.6369 0.40024 0.80384 0.0
O211 O 0.63989 0.35191 0.8313 0.0
O212 O 0.62506 0.39181 0.8708 0.0
C213 C 0.63297 0.3615 0.86972 0.0
C214 C 0.68793 0.43271 0.7895 0.0
C215 C 0.65436 0.35027 0.90545 0.0
C216 C 0.70697 0.33642 0.93359 0.0
C217 C 0.68703 0.35096 0.9021 0.0
C218 C 0.66199 0.32225 0.97375 0.0
C219 C 0.69467 0.32135 0.96944 0.0
C220 C 0.642 0.33658 0.94193 0.0
C221 C 0.5571 0.39482 0.7382 0.0
C222 C 0.51906 0.35116 0.73712 0.0
C223 C 0.50573 0.40119 0.70101 0.0
C224 C 0.53533 0.41357 0.71396 0.0
C225 C 0.49739 0.36982 0.71221 0.0
C226 C 0.54872 0.36365 0.75027 0.0
C227 C 0.58904 0.40748 0.74738 0.0
O228 O 0.66759 0.44208 0.81682 0.0
O229 O 0.68364 0.40283 0.77736 0.0
O230 O 0.61193 0.38713 0.74268 0.0
O231 O 0.59353 0.42562 0.78165 0.0
H232 H 0.6426 0.46294 0.74079 0.0
H233 H 0.6489 0.5014 0.68326 0.0
H234 H 0.74995 0.49091 0.69909 0.0
H235 H 0.74343 0.45298 0.75859 0.0
H236 H 0.73184 0.33534 0.92838 0.0
H237 H 0.69701 0.36142 0.87413 0.0
H238 H 0.65183 0.31078 1.00087 0.0
H239 H 0.61679 0.33593 0.94503 0.0
H240 H 0.51312 0.3269 0.74606 0.0
H241 H 0.4897 0.41583 0.68107 0.0
H242 H 0.54156 0.43754 0.70404 0.0
H243 H 0.56532 0.34879 0.76893 0.0
C244 C 0.58567 0.2804 0.44907 0.0
C245 C 0.5729 0.30845 0.46529 0.0
C246 C 0.52627 0.27905 0.48454 0.0
C247 C 0.54344 0.30782 0.48258 0.0
C248 C 0.54037 0.25054 0.47164 0.0
C249 C 0.56969 0.25128 0.45362 0.0
U250 U 0.66334 0.32004 0.42833 0.0
O251 O 0.70769 0.30333 0.40359 0.0
O252 O 0.67954 0.33989 0.36823 0.0
C253 C 0.70443 0.32144 0.36899 0.0
C254 C 0.61405 0.282 0.42431 0.0
C255 C 0.71093 0.30626 0.32805 0.0
C256 C 0.69523 0.27446 0.26494 0.0
C257 C 0.68791 0.28868 0.30372 0.0
C258 C 0.74837 0.29565 0.27446 0.0
C259 C 0.72561 0.27775 0.24994 0.0
C260 C 0.74103 0.30984 0.31299 0.0
C261 C 0.69149 0.38901 0.49896 0.0
C262 C 0.72938 0.42552 0.4701 0.0
C263 C 0.69838 0.44235 0.52831 0.0
C264 C 0.68435 0.41207 0.52924 0.0
C265 C 0.71922 0.45001 0.49663 0.0
C266 C 0.71538 0.39521 0.47101 0.0
C267 C 0.66999 0.36184 0.49087 0.0
O268 O 0.61617 0.30792 0.40068 0.0
O269 O 0.6409 0.27408 0.44483 0.0
O270 O 0.68259 0.33322 0.4934 0.0
O271 O 0.6506 0.36564 0.45672 0.0
H272 H 0.58501 0.3312 0.46271 0.0
H273 H 0.53338 0.3302 0.49222 0.0
H274 H 0.52825 0.22781 0.47404 0.0
H275 H 0.57933 0.2293 0.44186 0.0
H276 H 0.67732 0.26055 0.24696 0.0
H277 H 0.66449 0.28572 0.31491 0.0
H278 H 0.77227 0.29774 0.26472 0.0
H279 H 0.7591 0.32327 0.33143 0.0
H280 H 0.74585 0.43069 0.44587 0.0
H281 H 0.69049 0.46063 0.54942 0.0
H282 H 0.66601 0.40762 0.5511 0.0
H283 H 0.72122 0.37758 0.44743 0.0
C284 C 0.07442 0.21468 0.92351 0.0
C285 C 0.05767 0.18643 0.93138 0.0
C286 C 0.01634 0.21691 0.96245 0.0
C287 C 0.02891 0.18755 0.95027 0.0
C288 C 0.03383 0.24513 0.95629 0.0
C289 C 0.06258 0.24402 0.93671 0.0
U290 U 0.14541 0.1669 0.90306 0.0
O291 O 0.16646 0.15317 0.8434 0.0
O292 O 0.19524 0.17847 0.89386 0.0
C293 C 0.19355 0.16718 0.85438 0.0
C294 C 0.10416 0.21305 0.90182 0.0
C295 C 0.20708 0.1875 0.82124 0.0
C296 C 0.20182 0.22062 0.75665 0.0
C297 C 0.18807 0.20312 0.78913 0.0
C298 C 0.25362 0.2076 0.78842 0.0
C299 C 0.23477 0.22288 0.75587 0.0
C300 C 0.23991 0.19002 0.82063 0.0
C301 C 0.14585 0.08611 0.96604 0.0
C302 C 0.18704 0.04913 0.9912 0.0
C303 C 0.1334 0.03014 0.97776 0.0
C304 C 0.12392 0.06096 0.96602 0.0
C305 C 0.16509 0.02373 0.99005 0.0
C306 C 0.17751 0.08012 0.97915 0.0
C307 C 0.13434 0.11819 0.95351 0.0
O308 O 0.13002 0.21344 0.92736 0.0
O309 O 0.10448 0.19115 0.87166 0.0
O310 O 0.12174 0.12096 0.91405 0.0
O311 O 0.15171 0.14301 0.96608 0.0
H312 H 0.06655 0.16339 0.92215 0.0
H313 H 0.01607 0.16538 0.95419 0.0
H314 H 0.02525 0.26806 0.96634 0.0
H315 H 0.07542 0.26603 0.93161 0.0
H316 H 0.18672 0.23263 0.73245 0.0
H317 H 0.16264 0.20164 0.78896 0.0
H318 H 0.27907 0.20888 0.7886 0.0
H319 H 0.25502 0.17806 0.84492 0.0
H320 H 0.21154 0.04501 1.00112 0.0
H321 H 0.11598 0.01108 0.976 0.0
H322 H 0.09934 0.0651 0.95643 0.0
H323 H 0.19486 0.09922 0.9799 0.0
C324 C 0.28044 0.55569 0.37244 0.0
C325 C 0.30177 0.55877 0.40866 0.0
C326 C 0.28603 0.50665 0.4347 0.0
C327 C 0.30452 0.53448 0.43949 0.0
C328 C 0.26291 0.5047 0.40038 0.0
C329 C 0.26023 0.52904 0.36933 0.0
U330 U 0.33668 0.60277 0.31318 0.0
O331 O 0.34705 0.60657 0.2451 0.0
O332 O 0.33725 0.6499 0.28155 0.0
C333 C 0.34254 0.63767 0.24385 0.0
C334 C 0.28412 0.57655 0.3348 0.0
C335 C 0.32346 0.65069 0.20654 0.0
C336 C 0.28899 0.64427 0.14154 0.0
C337 C 0.30665 0.63087 0.17657 0.0
C338 C 0.3052 0.69726 0.16547 0.0
C339 C 0.28787 0.67766 0.1358 0.0
C340 C 0.32295 0.68391 0.20018 0.0
C341 C 0.41985 0.59904 0.37054 0.0
C342 C 0.4635 0.63691 0.37647 0.0
C343 C 0.47305 0.58026 0.38726 0.0
C344 C 0.44097 0.57398 0.37958 0.0
C345 C 0.48452 0.61182 0.38654 0.0
C346 C 0.43135 0.63058 0.36851 0.0
C347 C 0.386 0.59158 0.36579 0.0
O348 O 0.29151 0.60657 0.34353 0.0
O349 O 0.3015 0.56399 0.30591 0.0
O350 O 0.37692 0.5724 0.33395 0.0
O351 O 0.36658 0.6154 0.37076 0.0
H352 H 0.31796 0.57887 0.41159 0.0
H353 H 0.32262 0.53643 0.4655 0.0
H354 H 0.24875 0.48321 0.39559 0.0
H355 H 0.24398 0.52595 0.34137 0.0
H356 H 0.27571 0.62855 0.1194 0.0
H357 H 0.3068 0.60512 0.18037 0.0
H358 H 0.30408 0.72308 0.16297 0.0
H359 H 0.3359 0.69968 0.22262 0.0
H360 H 0.47187 0.66143 0.37564 0.0
H361 H 0.48889 0.56043 0.39389 0.0
H362 H 0.43257 0.54949 0.38122 0.0
H363 H 0.41552 0.65037 0.36149 0.0
C364 C 0.7966 0.95649 0.82294 0.0
C365 C 0.82488 0.97136 0.8381 0.0
C366 C 0.79634 0.00737 0.88252 0.0
C367 C 0.8247 -0.00329 0.86699 0.0
C368 C 0.76798 0.99234 0.86763 0.0
C369 C 0.76812 0.96705 0.83807 0.0
U370 U 0.83937 0.88429 0.79026 0.0
O371 O 0.82653 0.83669 0.765 0.0
O372 O 0.85547 0.86896 0.72773 0.0
C373 C 0.84007 0.84162 0.72872 0.0
C374 C 0.79739 0.9295 0.79251 0.0
C375 C 0.82189 0.83215 0.68876 0.0
C376 C 0.7729 0.81501 0.65116 0.0
C377 C 0.78901 0.8287 0.68716 0.0
C378 C 0.82193 0.81014 0.61651 0.0
C379 C 0.7893 0.80461 0.616 0.0
C380 C 0.83809 0.82364 0.65269 0.0
C381 C 0.91215 0.86723 0.86691 0.0
C382 C 0.95403 0.83034 0.85265 0.0
C383 C 0.95845 0.86396 0.91608 0.0
C384 C 0.92889 0.87674 0.90493 0.0
C385 C 0.97152 0.84125 0.88955 0.0
C386 C 0.92439 0.84336 0.84127 0.0
C387 C 0.88345 0.88459 0.85318 0.0
O388 O 0.82085 0.93052 0.76708 0.0
O389 O 0.79307 0.90094 0.8091 0.0
O390 O 0.85682 0.86871 0.85498 0.0
O391 O 0.88501 0.90178 0.818 0.0
H392 H 0.84728 0.96359 0.82733 0.0
H393 H 0.84686 0.0084 0.87643 0.0
H394 H 0.74573 0.00014 0.87884 0.0
H395 H 0.74606 0.95576 0.82708 0.0
H396 H 0.74777 0.81093 0.65194 0.0
H397 H 0.77589 0.83527 0.7144 0.0
H398 H 0.83512 0.80295 0.58962 0.0
H399 H 0.86346 0.82629 0.65317 0.0
H400 H 0.96402 0.81317 0.8315 0.0
H401 H 0.97181 0.87298 0.9443 0.0
H402 H 0.91974 0.89517 0.925 0.0
H403 H 0.91167 0.83586 0.81171 0.0
C404 C 0.1457 0.89483 0.14573 0.0
C405 C 0.16964 0.88649 0.11893 0.0
C406 C 0.14397 0.92567 0.16241 0.0
C407 C 0.16638 0.9491 0.15342 0.0
H408 H 0.12712 0.87792 0.15201 0.0
H409 H 0.1243 0.93159 0.18125 0.0
S410 S 0.23601 0.93831 0.0898 0.0
N411 N 0.21802 0.9031 0.08761 0.0
N412 N 0.21468 0.96153 0.11922 0.0
C413 C 0.19158 0.94067 0.12896 0.0
C414 C 0.19323 0.90917 0.11161 0.0
C415 C 0.55982 0.6483 0.55998 0.0
C416 C 0.57508 0.66378 0.52703 0.0
C417 C 0.52706 0.64851 0.56092 0.0
C418 C 0.50809 0.66454 0.52914 0.0
H419 H 0.5734 0.63635 0.58587 0.0
H420 H 0.51675 0.63752 0.58827 0.0
S421 S 0.53656 0.70764 0.43471 0.0
N422 N 0.56904 0.69484 0.46108 0.0
N423 N 0.50702 0.69474 0.46217 0.0
C424 C 0.523 0.67908 0.49493 0.0
C425 C 0.55659 0.67886 0.49405 0.0
C426 C 0.77949 0.05811 0.06061 0.0
C427 C 0.80943 0.0661 0.07953 0.0
C428 C 0.76897 0.02612 0.05942 0.0
C429 C 0.78855 0.0014 0.07587 0.0
H430 H 0.76354 0.07678 0.04906 0.0
H431 H 0.74514 0.02079 0.047 0.0
S432 S 0.87005 0.00992 0.12441 0.0
N433 N 0.85904 0.04684 0.11241 0.0
N434 N 0.83982 0.98685 0.10878 0.0
C435 C 0.81916 0.00908 0.09233 0.0
C436 C 0.82947 0.04146 0.09455 0.0
C437 C 0.43725 0.31661 0.65164 0.0
C438 C 0.40911 0.33358 0.65471 0.0
C439 C 0.4656 0.3277 0.67202 0.0
C440 C 0.46671 0.35631 0.69578 0.0
H441 H 0.43744 0.29491 0.63271 0.0
H442 H 0.48698 0.3145 0.66774 0.0
S443 S 0.39933 0.40892 0.71492 0.0
N444 N 0.38399 0.37988 0.68431 0.0
N445 N 0.43709 0.40049 0.72299 0.0
C446 C 0.43855 0.37289 0.70024 0.0
C447 C 0.40975 0.36154 0.67968 0.0
C448 C 0.72997 0.54006 0.50662 0.0
C449 C 0.71747 0.55079 0.46627 0.0
C450 C 0.73248 0.50721 0.516 0.0
C451 C 0.72356 0.48407 0.48472 0.0
H452 H 0.73686 0.55713 0.5315 0.0
H453 H 0.74029 0.49986 0.5483 0.0
S454 S 0.69263 0.49966 0.37251 0.0
N455 N 0.69845 0.53546 0.39372 0.0
N456 N 0.70382 0.47421 0.41094 0.0
C457 C 0.71339 0.49458 0.44325 0.0
C458 C 0.71037 0.52782 0.434 0.0
C459 C 0.94381 0.19007 0.01822 0.0
C460 C 0.92025 0.21033 1.00058 0.0
C461 C 0.97527 0.19373 1.00813 0.0
C462 C 0.98429 0.21754 0.97913 0.0
H463 H 0.93753 0.16982 0.03735 0.0
H464 H 0.99239 0.1768 0.02161 0.0
S465 S 0.93145 0.27808 0.92578 0.0
N466 N 0.90819 0.25652 0.95506 0.0
N467 N 0.96693 0.26268 0.93432 0.0
C468 C 0.96107 0.23892 0.96265 0.0
C469 C 0.92914 0.23538 0.97355 0.0
C470 C 0.33451 0.43569 0.47286 0.0
C471 C 0.31265 0.4161 0.49244 0.0
C472 C 0.32612 0.46602 0.45715 0.0
C473 C 0.2953 0.47753 0.45952 0.0
H474 H 0.35798 0.427 0.46824 0.0
H475 H 0.34337 0.47972 0.44061 0.0
S476 S 0.23013 0.4364 0.51111 0.0
N477 N 0.2597 0.41097 0.5164 0.0
N478 N 0.24355 0.46802 0.48585 0.0
C479 C 0.27362 0.45878 0.48088 0.0
C480 C 0.2824 0.42802 0.49763 0.0
C481 C 0.05941 0.85272 0.89951 0.0
C482 C 0.07048 0.82331 0.9161 0.0
C483 C 0.02732 0.85783 0.89031 0.0
C484 C 0.00517 0.83357 0.89676 0.0
H485 H 0.0756 0.87242 0.89515 0.0
H486 H 0.01966 0.88116 0.87872 0.0
S487 S 0.02209 0.75147 0.93624 0.0
N488 N 0.0571 0.76893 0.93633 0.0
N489 N 0.99625 0.77861 0.91859 0.0
C490 C 0.01585 0.8036 0.91167 0.0
C491 C 0.04871 0.79844 0.92148 0.0
C492 C 0.77914 0.09011 0.92473 0.0
C493 C 0.80304 0.09459 0.95755 0.0
C494 C 0.77585 0.06106 0.90239 0.0
C495 C 0.79658 0.03552 0.91176 0.0
H496 H 0.76352 0.10961 0.91524 0.0
H497 H 0.75804 0.05927 0.87602 0.0
S498 S 0.86253 0.0349 0.99585 0.0
N499 N 0.84763 0.07115 0.99853 0.0
N500 N 0.84049 0.01597 0.95832 0.0
C501 C 0.81964 0.03925 0.946 0.0
C502 C 0.82314 0.06894 0.96843 0.0
C503 C 0.45146 0.30406 0.53613 0.0
C504 C 0.42759 0.29013 0.50883 0.0
C505 C 0.48342 0.29897 0.52966 0.0
C506 C 0.49269 0.27979 0.49557 0.0
H507 H 0.44548 0.32046 0.56108 0.0
H508 H 0.501 0.31106 0.55058 0.0
S509 S 0.43901 0.23623 0.41674 0.0
N510 N 0.4153 0.25457 0.44836 0.0
N511 N 0.47503 0.24588 0.43525 0.0
C512 C 0.46893 0.26463 0.46926 0.0
C513 C 0.4365 0.26966 0.47604 0.0
C514 C 0.16012 0.93638 0.02169 0.0
C515 C 0.18279 0.92234 0.99703 0.0
C516 C 0.15635 0.96966 0.0224 0.0
C517 C 0.17486 0.99003 0.99802 0.0
H518 H 0.14367 0.92152 0.03806 0.0
H519 H 0.13752 0.97939 0.04005 0.0
S520 S 0.24019 0.96505 0.93261 0.0
N521 N 0.22637 0.93127 0.95177 0.0
N522 N 0.21877 0.99374 0.95197 0.0
C523 C 0.19926 0.97637 0.97603 0.0
C524 C 0.20323 0.94252 0.97562 0.0
C525 C 0.56764 0.64269 0.37565 0.0
C526 C 0.58394 0.63034 0.41261 0.0
C527 C 0.53526 0.6371 0.36781 0.0
C528 C 0.51841 0.61848 0.3963 0.0
H529 H 0.57994 0.65694 0.35289 0.0
H530 H 0.52345 0.64696 0.33893 0.0
S531 S 0.55103 0.57917 0.49623 0.0
N532 N 0.58156 0.59744 0.47671 0.0
N533 N 0.52055 0.58747 0.46261 0.0
C534 C 0.53464 0.60576 0.43316 0.0
C535 C 0.5675 0.61151 0.44111 0.0
C536 C 0.28783 0.44522 0.61156 0.0
C537 C 0.3144 0.42782 0.60152 0.0
C538 C 0.28832 0.47871 0.61126 0.0
C539 C 0.31574 0.49587 0.60215 0.0
H540 H 0.26729 0.4329 0.62237 0.0
H541 H 0.26798 0.49123 0.62172 0.0
S542 S 0.39022 0.46094 0.56907 0.0
N543 N 0.36754 0.42966 0.57775 0.0
N544 N 0.36888 0.49277 0.57819 0.0
C545 C 0.34146 0.47866 0.58829 0.0
C546 C 0.34076 0.4445 0.58807 0.0
C547 C 0.04096 0.82554 0.01727 0.0
C548 C 0.05363 0.79637 0.03244 0.0
C549 C 0.00906 0.83242 0.02043 0.0
C550 C 0.98869 0.81041 0.03895 0.0
H551 H 0.05617 0.844 1.00537 0.0
H552 H 0.00062 0.85578 1.01025 0.0
S553 S 0.00998 0.72954 0.08015 0.0
N554 N 0.0432 0.74444 0.06374 0.0
N555 N 0.98314 0.75738 0.07005 0.0
C556 C 0.0007 0.78039 0.05186 0.0
C557 C 0.03324 0.77344 0.04873 0.0
C558 C 0.72334 0.57636 0.63331 0.0
C559 C 0.70261 0.57772 0.59636 0.0
C560 C 0.72394 0.54957 0.66054 0.0
C561 C 0.70332 0.52352 0.65221 0.0
H562 H 0.73812 0.59679 0.6423 0.0
H563 H 0.73917 0.55024 0.68977 0.0
S564 S 0.64579 0.51492 0.55799 0.0
N565 N 0.6622 0.55036 0.55148 0.0
N566 N 0.66313 0.49997 0.60254 0.0
C567 C 0.6836 0.52401 0.61408 0.0
C568 C 0.68326 0.55115 0.5862 0.0
C569 C 0.93905 0.20624 0.15549 0.0
C570 C 0.92692 0.18074 0.1301 0.0
C571 C 0.96989 0.20538 0.17445 0.0
C572 C 0.98931 0.17877 0.16892 0.0
H573 H 0.92396 0.22595 0.16297 0.0
H574 H 0.97769 0.22449 0.19609 0.0
S575 S 0.96909 0.10727 0.10218 0.0
N576 N 0.93671 0.12891 0.09904 0.0
N577 N 0.99526 0.12809 0.13221 0.0
C578 C 0.97804 0.15426 0.14098 0.0
C579 C 0.9466 0.15494 0.12239 0.0
C580 C 0.21013 0.70059 0.07968 0.0
C581 C 0.21709 0.73024 0.06089 0.0
C582 C 0.23381 0.68199 0.10033 0.0
C583 C 0.26536 0.69242 0.10305 0.0
H584 H 0.18586 0.69304 0.08175 0.0
H585 H 0.22684 0.66084 0.11761 0.0
S586 S 0.29665 0.76486 0.05102 0.0
N587 N 0.25814 0.76687 0.04068 0.0
N588 N 0.30299 0.73135 0.07837 0.0
C589 C 0.27305 0.72013 0.07995 0.0
C590 C 0.24881 0.73916 0.05898 0.0
C591 C 0.72225 0.77105 0.5438 0.0
C592 C 0.73217 0.73959 0.53714 0.0
C593 C 0.74221 0.79333 0.56559 0.0
C594 C 0.77259 0.7847 0.58202 0.0
H595 H 0.69799 0.7776 0.53566 0.0
H596 H 0.73289 0.81665 0.57263 0.0
S597 S 0.81036 0.70581 0.56927 0.0
N598 N 0.77489 0.7016 0.54511 0.0
N599 N 0.8125 0.74317 0.58631 0.0
C600 C 0.78372 0.75414 0.57191 0.0
C601 C 0.76341 0.7316 0.54942 0.0
C602 C 0.74357 0.20693 0.18094 0.0
C603 C 0.76529 0.21966 0.15316 0.0
C604 C 0.72863 0.22645 0.20969 0.0
C605 C 0.73503 0.25946 0.21198 0.0
H606 H 0.73976 0.18131 0.18257 0.0
H607 H 0.71394 0.21515 0.23256 0.0
S608 S 0.7863 0.30523 0.14161 0.0
N609 N 0.7899 0.26766 0.12648 0.0
N610 N 0.76115 0.30469 0.1798 0.0
C611 C 0.75445 0.27291 0.18161 0.0
C612 C 0.76971 0.25293 0.15227 0.0
C613 C 0.28931 0.28138 0.70352 0.0
C614 C 0.28249 0.27663 0.65912 0.0
C615 C 0.27344 0.26425 0.73427 0.0
C616 C 0.24988 0.24173 0.72209 0.0
H617 H 0.30756 0.298 0.71485 0.0
H618 H 0.2798 0.26861 0.76802 0.0
S619 S 0.2224 0.22065 0.61018 0.0
N620 N 0.24996 0.2481 0.60457 0.0
N621 N 0.22015 0.21572 0.66253 0.0
C622 C 0.24232 0.23705 0.67787 0.0
C623 C 0.25868 0.25446 0.64639 0.0
C624 C 0.71868 0.73832 0.37164 0.0
C625 C 0.73154 0.71902 0.40527 0.0
C626 C 0.73795 0.75723 0.34697 0.0
C627 C 0.77089 0.75723 0.35473 0.0
H628 H 0.69374 0.73687 0.36219 0.0
H629 H 0.72711 0.76975 0.3194 0.0
S630 S 0.81558 0.71458 0.44346 0.0
N631 N 0.77858 0.70362 0.44822 0.0
N632 N 0.81507 0.73974 0.40241 0.0
C633 C 0.78374 0.74029 0.39084 0.0
C634 C 0.76398 0.72105 0.41605 0.0
C635 C 0.72824 0.2457 0.01955 0.0
C636 C 0.76014 0.25389 0.02695 0.0
C637 C 0.70613 0.26873 1.00524 0.0
C638 C 0.71538 0.30063 0.99784 0.0
H639 H 0.72092 0.22084 0.02042 0.0
H640 H 0.68243 0.26071 0.99582 0.0
S641 S 0.79515 0.33499 0.02175 0.0
N642 N 0.79925 0.29638 0.03194 0.0
N643 N 0.7575 0.34015 1.00717 0.0
C644 C 0.74653 0.30968 1.0104 0.0
C645 C 0.76902 0.28614 0.02434 0.0
C646 C 0.27166 0.22029 0.51361 0.0
C647 C 0.26429 0.25131 0.49892 0.0
C648 C 0.25515 0.19363 0.49618 0.0
C649 C 0.23067 0.19733 0.4639 0.0
H650 H 0.29183 0.21641 0.53603 0.0
H651 H 0.26278 0.16993 0.50615 0.0
S652 S 0.20019 0.27425 0.41892 0.0
N653 N 0.22923 0.28465 0.45392 0.0
N654 N 0.19818 0.23483 0.42108 0.0
C655 C 0.22149 0.22852 0.4518 0.0
C656 C 0.23839 0.25547 0.46932 0.0
C657 C 0.22338 0.73473 0.91312 0.0
C658 C 0.23163 0.76297 0.93549 0.0
C659 C 0.24435 0.72058 0.88596 0.0
C660 C 0.27414 0.73431 0.8804 0.0
H661 H 0.19958 0.72537 0.91324 0.0
H662 H 0.23632 0.70018 0.86675 0.0
S663 S 0.30764 0.80654 0.93573 0.0
N664 N 0.27209 0.80263 0.95344 0.0
N665 N 0.31172 0.77609 0.90297 0.0
C666 C 0.28361 0.76085 0.90588 0.0
C667 C 0.26222 0.77521 0.93327 0.0
loop_
_geom_bond_atom_site_label_1
_geom_bond_atom_site_label_2
_geom_bond_distance
_geom_bond_site_symmetry_2
_ccdc_geom_bond_type
Zn0 O6 1.920 . S
Zn0 O12 1.898 . S
Zn0 O15 1.905 . S
Zn1 O9 1.905 . S
Zn1 O10 1.898 . S
Zn1 O18 1.920 . S
Zn2 O5 2.080 . S
Zn2 O8 2.114 1_554 S
Zn2 O11 2.120 1_554 S
Zn2 O13 2.120 . S
Zn2 O14 2.114 . S
Zn2 O17 2.080 1_554 S
C3 O8 1.166 . S
C3 O9 1.182 . S
C4 O10 1.167 . S
C4 O11 1.299 . S
O5 Zn2 2.080 . S
O5 C19 1.305 . S
O6 Zn0 1.920 . S
O6 C19 1.234 . S
C7 O12 1.167 . S
C7 O13 1.299 . S
O8 Zn2 2.114 1_556 S
O8 C3 1.166 . S
O9 Zn1 1.905 . S
O9 C3 1.182 . S
O10 Zn1 1.898 . S
O10 C4 1.167 . S
O11 Zn2 2.120 1_556 S
O11 C4 1.299 . S
O12 Zn0 1.898 . S
O12 C7 1.167 . S
O13 Zn2 2.120 . S
O13 C7 1.299 . S
O14 Zn2 2.114 . S
O14 C16 1.166 . S
O15 Zn0 1.905 . S
O15 C16 1.182 . S
C16 O14 1.166 . S
C16 O15 1.182 . S
O17 Zn2 2.080 1_556 S
O17 C20 1.305 . S
O18 Zn1 1.920 . S
O18 C20 1.234 . S
C19 O5 1.305 . S
C19 O6 1.234 . S
C20 O17 1.305 . S
C20 O18 1.234 . S
Zn21 O27 1.920 . S
Zn21 O33 1.898 . S
Zn21 O36 1.905 . S
Zn22 O30 1.905 . S
Zn22 O31 1.898 . S
Zn22 O39 1.920 . S
Zn23 O26 2.080 . S
Zn23 O29 2.114 . S
Zn23 O32 2.120 . S
Zn23 O34 2.120 . S
Zn23 O35 2.114 . S
Zn23 O38 2.080 . S
C24 O29 1.166 . S
C24 O30 1.182 . S
C25 O31 1.167 . S
C25 O32 1.299 . S
O26 Zn23 2.080 . S
O26 C40 1.305 . S
O27 Zn21 1.920 . S
O27 C40 1.234 . S
C28 O33 1.167 . S
C28 O34 1.299 . S
O29 Zn23 2.114 . S
O29 C24 1.166 . S
O30 Zn22 1.905 . S
O30 C24 1.182 . S
O31 Zn22 1.898 . S
O31 C25 1.167 . S
O32 Zn23 2.120 . S
O32 C25 1.299 . S
O33 Zn21 1.898 . S
O33 C28 1.167 . S
O34 Zn23 2.120 . S
O34 C28 1.299 . S
O35 Zn23 2.114 . S
O35 C37 1.166 . S
O36 Zn21 1.905 . S
O36 C37 1.182 . S
C37 O35 1.166 . S
C37 O36 1.182 . S
O38 Zn23 2.080 . S
O38 C41 1.305 . S
O39 Zn22 1.920 . S
O39 C41 1.234 . S
C40 O26 1.305 . S
C40 O27 1.234 . S
C41 O38 1.305 . S
C41 O39 1.234 . S
Zn42 O48 1.920 . S
Zn42 O54 1.898 . S
Zn42 O57 1.905 . S
Zn43 O51 1.905 . S
Zn43 O52 1.898 . S
Zn43 O60 1.920 . S
Zn44 O47 2.080 . S
Zn44 O50 2.114 . S
Zn44 O53 2.120 . S
Zn44 O55 2.120 . S
Zn44 O56 2.114 . S
Zn44 O59 2.080 . S
C45 O50 1.166 . S
C45 O51 1.182 . S
C46 O52 1.167 . S
C46 O53 1.299 . S
O47 Zn44 2.080 . S
O47 C61 1.305 1_554 S
O48 Zn42 1.920 . S
O48 C61 1.234 . S
C49 O54 1.167 1_554 S
C49 O55 1.299 . S
O50 Zn44 2.114 . S
O50 C45 1.166 . S
O51 Zn43 1.905 . S
O51 C45 1.182 . S
O52 Zn43 1.898 . S
O52 C46 1.167 . S
O53 Zn44 2.120 . S
O53 C46 1.299 . S
O54 Zn42 1.898 . S
O54 C49 1.167 1_556 S
O55 Zn44 2.120 . S
O55 C49 1.299 . S
O56 Zn44 2.114 . S
O56 C58 1.166 1_554 S
O57 Zn42 1.905 . S
O57 C58 1.182 . S
C58 O56 1.166 1_556 S
C58 O57 1.182 . S
O59 Zn44 2.080 . S
O59 C62 1.305 . S
O60 Zn43 1.920 . S
O60 C62 1.234 . S
C61 O47 1.305 1_556 S
C61 O48 1.234 . S
C62 O59 1.305 . S
C62 O60 1.234 . S
Zn63 O69 1.920 . S
Zn63 O75 1.898 . S
Zn63 O78 1.905 . S
Zn64 O72 1.905 . S
Zn64 O73 1.898 . S
Zn64 O81 1.920 . S
Zn65 O68 2.080 . S
Zn65 O71 2.114 . S
Zn65 O74 2.120 . S
Zn65 O76 2.120 . S
Zn65 O77 2.114 . S
Zn65 O80 2.080 . S
C66 O71 1.166 . S
C66 O72 1.182 . S
C67 O73 1.167 . S
C67 O74 1.299 . S
O68 Zn65 2.080 . S
O68 C82 1.305 . S
O69 Zn63 1.920 . S
O69 C82 1.234 . S
C70 O75 1.167 . S
C70 O76 1.299 . S
O71 Zn65 2.114 . S
O71 C66 1.166 . S
O72 Zn64 1.905 . S
O72 C66 1.182 . S
O73 Zn64 1.898 . S
O73 C67 1.167 . S
O74 Zn65 2.120 . S
O74 C67 1.299 . S
O75 Zn63 1.898 . S
O75 C70 1.167 . S
O76 Zn65 2.120 . S
O76 C70 1.299 . S
O77 Zn65 2.114 . S
O77 C79 1.166 . S
O78 Zn63 1.905 . S
O78 C79 1.182 . S
C79 O77 1.166 . S
C79 O78 1.182 . S
O80 Zn65 2.080 . S
O80 C83 1.305 . S
O81 Zn64 1.920 . S
O81 C83 1.234 . S
C82 O68 1.305 . S
C82 O69 1.234 . S
C83 O80 1.305 . S
C83 O81 1.234 . S
C84 C85 1.264 . S
C84 C89 1.479 . S
C84 C94 1.465 . S
C85 C84 1.264 . S
C85 C87 1.339 . S
C85 H112 0.931 . S
C86 C87 1.395 . S
C86 C88 1.320 . S
C87 C85 1.339 . S
C87 C86 1.395 . S
C87 H113 0.929 . S
C88 C86 1.320 . S
C88 C89 1.405 . S
C88 H114 0.930 . S
C89 C84 1.479 . S
C89 C88 1.405 . S
C89 H115 0.931 . S
U90 O91 2.454 . S
U90 O92 2.458 . S
U90 C93 2.984 . S
U90 C94 2.847 . S
U90 C107 2.882 . S
U90 O108 2.441 . S
U90 O109 2.420 . S
U90 O110 2.455 . S
U90 O111 2.449 . S
O91 U90 2.454 . S
O91 C93 1.353 . S
O92 U90 2.458 . S
O92 C93 1.286 . S
C93 U90 2.984 . S
C93 O91 1.353 . S
C93 O92 1.286 . S
C93 C95 1.363 . S
C94 C84 1.465 . S
C94 U90 2.847 . S
C94 O108 1.249 . S
C94 O109 1.202 . S
C95 C93 1.363 . S
C95 C97 1.408 . S
C95 C100 1.342 . S
C96 C97 1.310 . S
C96 C99 1.461 . S
C96 H116 0.932 . S
C97 C95 1.408 . S
C97 C96 1.310 . S
C97 H117 0.930 . S
C98 C99 1.474 . S
C98 C100 1.285 . S
C98 H118 0.929 . S
C99 C96 1.461 . S
C99 C98 1.474 . S
C100 C95 1.342 . S
C100 C98 1.285 . S
C100 H119 0.930 . S
C101 C104 1.424 . S
C101 C106 1.245 . S
C101 C107 1.428 1_565 S
C102 C105 1.260 . S
C102 C106 1.477 . S
C102 H120 0.932 . S
C103 C104 1.384 . S
C103 C105 1.479 . S
C103 H121 0.929 . S
C104 C101 1.424 . S
C104 C103 1.384 . S
C104 H122 0.928 . S
C105 C102 1.260 . S
C105 C103 1.479 . S
C106 C101 1.245 . S
C106 C102 1.477 . S
C106 H123 0.932 . S
C107 U90 2.882 . S
C107 C101 1.428 1_545 S
C107 O110 1.301 . S
C107 O111 1.282 . S
O108 U90 2.441 . S
O108 C94 1.249 . S
O109 U90 2.420 . S
O109 C94 1.202 . S
O110 U90 2.455 . S
O110 C107 1.301 . S
O111 U90 2.449 . S
O111 C107 1.282 . S
H112 C85 0.931 . S
H113 C87 0.929 . S
H114 C88 0.930 . S
H115 C89 0.931 . S
H116 C96 0.932 . S
H117 C97 0.930 . S
H118 C98 0.929 . S
H119 C100 0.930 . S
H120 C102 0.932 . S
H121 C103 0.929 . S
H122 C104 0.928 . S
H123 C106 0.932 . S
C124 C125 1.264 . S
C124 C129 1.479 . S
C124 C134 1.465 . S
C125 C124 1.264 . S
C125 C127 1.339 . S
C125 H152 0.931 . S
C126 C127 1.395 . S
C126 C128 1.320 . S
C127 C125 1.339 . S
C127 C126 1.395 . S
C127 H153 0.929 . S
C128 C126 1.320 . S
C128 C129 1.405 . S
C128 H154 0.930 . S
C129 C124 1.479 . S
C129 C128 1.405 . S
C129 H155 0.931 . S
U130 O131 2.454 . S
U130 O132 2.458 . S
U130 C133 2.984 . S
U130 C134 2.847 . S
U130 C147 2.882 . S
U130 O148 2.441 . S
U130 O149 2.420 . S
U130 O150 2.455 . S
U130 O151 2.449 . S
O131 U130 2.454 . S
O131 C133 1.353 . S
O132 U130 2.458 . S
O132 C133 1.286 . S
C133 U130 2.984 . S
C133 O131 1.353 . S
C133 O132 1.286 . S
C133 C135 1.363 . S
C134 C124 1.465 . S
C134 U130 2.847 . S
C134 O148 1.249 . S
C134 O149 1.202 . S
C135 C133 1.363 . S
C135 C137 1.408 . S
C135 C140 1.342 . S
C136 C137 1.310 . S
C136 C139 1.461 . S
C136 H156 0.932 . S
C137 C135 1.408 . S
C137 C136 1.310 . S
C137 H157 0.930 . S
C138 C139 1.474 . S
C138 C140 1.285 . S
C138 H158 0.929 . S
C139 C136 1.461 . S
C139 C138 1.474 . S
C140 C135 1.342 . S
C140 C138 1.285 . S
C140 H159 0.930 . S
C141 C144 1.424 . S
C141 C146 1.245 . S
C141 C147 1.428 . S
C142 C145 1.260 . S
C142 C146 1.477 . S
C142 H160 0.932 . S
C143 C144 1.384 . S
C143 C145 1.479 . S
C143 H161 0.929 . S
C144 C141 1.424 . S
C144 C143 1.384 . S
C144 H162 0.928 . S
C145 C142 1.260 . S
C145 C143 1.479 . S
C146 C141 1.245 . S
C146 C142 1.477 . S
C146 H163 0.932 . S
C147 U130 2.882 . S
C147 C141 1.428 . S
C147 O150 1.301 . S
C147 O151 1.282 . S
O148 U130 2.441 . S
O148 C134 1.249 . S
O149 U130 2.420 . S
O149 C134 1.202 . S
O150 U130 2.455 . S
O150 C147 1.301 . S
O151 U130 2.449 . S
O151 C147 1.282 . S
H152 C125 0.931 . S
H153 C127 0.929 . S
H154 C128 0.930 . S
H155 C129 0.931 . S
H156 C136 0.932 . S
H157 C137 0.930 . S
H158 C138 0.929 . S
H159 C140 0.930 . S
H160 C142 0.932 . S
H161 C143 0.929 . S
H162 C144 0.928 . S
H163 C146 0.932 . S
C164 C165 1.264 . S
C164 C169 1.479 . S
C164 C174 1.465 . S
C165 C164 1.264 . S
C165 C167 1.339 . S
C165 H192 0.931 . S
C166 C167 1.395 . S
C166 C168 1.320 . S
C167 C165 1.339 . S
C167 C166 1.395 . S
C167 H193 0.929 . S
C168 C166 1.320 . S
C168 C169 1.405 . S
C168 H194 0.930 . S
C169 C164 1.479 . S
C169 C168 1.405 . S
C169 H195 0.931 . S
U170 O171 2.454 . S
U170 O172 2.458 . S
U170 C173 2.984 . S
U170 C174 2.847 . S
U170 C187 2.882 . S
U170 O188 2.441 . S
U170 O189 2.420 . S
U170 O190 2.455 . S
U170 O191 2.449 . S
O171 U170 2.454 . S
O171 C173 1.353 . S
O172 U170 2.458 . S
O172 C173 1.286 . S
C173 U170 2.984 . S
C173 O171 1.353 . S
C173 O172 1.286 . S
C173 C175 1.363 . S
C174 C164 1.465 . S
C174 U170 2.847 . S
C174 O188 1.249 . S
C174 O189 1.202 . S
C175 C173 1.363 . S
C175 C177 1.408 . S
C175 C180 1.342 . S
C176 C177 1.310 . S
C176 C179 1.461 . S
C176 H196 0.932 . S
C177 C175 1.408 . S
C177 C176 1.310 . S
C177 H197 0.930 . S
C178 C179 1.474 . S
C178 C180 1.285 . S
C178 H198 0.929 . S
C179 C176 1.461 . S
C179 C178 1.474 . S
C180 C175 1.342 . S
C180 C178 1.285 . S
C180 H199 0.930 . S
C181 C184 1.424 . S
C181 C186 1.245 . S
C181 C187 1.428 . S
C182 C185 1.260 . S
C182 C186 1.477 . S
C182 H200 0.932 . S
C183 C184 1.384 . S
C183 C185 1.479 . S
C183 H201 0.929 . S
C184 C181 1.424 . S
C184 C183 1.384 . S
C184 H202 0.928 . S
C185 C182 1.260 . S
C185 C183 1.479 . S
C186 C181 1.245 . S
C186 C182 1.477 . S
C186 H203 0.932 . S
C187 U170 2.882 . S
C187 C181 1.428 . S
C187 O190 1.301 . S
C187 O191 1.282 . S
O188 U170 2.441 . S
O188 C174 1.249 . S
O189 U170 2.420 . S
O189 C174 1.202 . S
O190 U170 2.455 . S
O190 C187 1.301 . S
O191 U170 2.449 . S
O191 C187 1.282 . S
H192 C165 0.931 . S
H193 C167 0.929 . S
H194 C168 0.930 . S
H195 C169 0.931 . S
H196 C176 0.932 . S
H197 C177 0.930 . S
H198 C178 0.929 . S
H199 C180 0.930 . S
H200 C182 0.932 . S
H201 C183 0.929 . S
H202 C184 0.928 . S
H203 C186 0.932 . S
C204 C205 1.264 . S
C204 C209 1.479 . S
C204 C214 1.465 . S
C205 C204 1.264 . S
C205 C207 1.339 . S
C205 H232 0.931 . S
C206 C207 1.395 . S
C206 C208 1.320 . S
C207 C205 1.339 . S
C207 C206 1.395 . S
C207 H233 0.929 . S
C208 C206 1.320 . S
C208 C209 1.405 . S
C208 H234 0.930 . S
C209 C204 1.479 . S
C209 C208 1.405 . S
C209 H235 0.931 . S
U210 O211 2.454 . S
U210 O212 2.458 . S
U210 C213 2.984 . S
U210 C214 2.847 . S
U210 C227 2.882 . S
U210 O228 2.441 . S
U210 O229 2.420 . S
U210 O230 2.455 . S
U210 O231 2.449 . S
O211 U210 2.454 . S
O211 C213 1.353 . S
O212 U210 2.458 . S
O212 C213 1.286 . S
C213 U210 2.984 . S
C213 O211 1.353 . S
C213 O212 1.286 . S
C213 C215 1.363 . S
C214 C204 1.465 . S
C214 U210 2.847 . S
C214 O228 1.249 . S
C214 O229 1.202 . S
C215 C213 1.363 . S
C215 C217 1.408 . S
C215 C220 1.342 . S
C216 C217 1.310 . S
C216 C219 1.461 . S
C216 H236 0.932 . S
C217 C215 1.408 . S
C217 C216 1.310 . S
C217 H237 0.930 . S
C218 C219 1.474 . S
C218 C220 1.285 . S
C218 H238 0.929 . S
C219 C216 1.461 . S
C219 C218 1.474 . S
C220 C215 1.342 . S
C220 C218 1.285 . S
C220 H239 0.930 . S
C221 C224 1.424 . S
C221 C226 1.245 . S
C221 C227 1.428 . S
C222 C225 1.260 . S
C222 C226 1.477 . S
C222 H240 0.932 . S
C223 C224 1.384 . S
C223 C225 1.479 . S
C223 H241 0.929 . S
C224 C221 1.424 . S
C224 C223 1.384 . S
C224 H242 0.928 . S
C225 C222 1.260 . S
C225 C223 1.479 . S
C226 C221 1.245 . S
C226 C222 1.477 . S
C226 H243 0.932 . S
C227 U210 2.882 . S
C227 C221 1.428 . S
C227 O230 1.301 . S
C227 O231 1.282 . S
O228 U210 2.441 . S
O228 C214 1.249 . S
O229 U210 2.420 . S
O229 C214 1.202 . S
O230 U210 2.455 . S
O230 C227 1.301 . S
O231 U210 2.449 . S
O231 C227 1.282 . S
H232 C205 0.931 . S
H233 C207 0.929 . S
H234 C208 0.930 . S
H235 C209 0.931 . S
H236 C216 0.932 . S
H237 C217 0.930 . S
H238 C218 0.929 . S
H239 C220 0.930 . S
H240 C222 0.932 . S
H241 C223 0.929 . S
H242 C224 0.928 . S
H243 C226 0.932 . S
C244 C245 1.264 . S
C244 C249 1.479 . S
C244 C254 1.465 . S
C245 C244 1.264 . S
C245 C247 1.339 . S
C245 H272 0.931 . S
C246 C247 1.395 . S
C246 C248 1.320 . S
C247 C245 1.339 . S
C247 C246 1.395 . S
C247 H273 0.929 . S
C248 C246 1.320 . S
C248 C249 1.405 . S
C248 H274 0.930 . S
C249 C244 1.479 . S
C249 C248 1.405 . S
C249 H275 0.931 . S
U250 O251 2.454 . S
U250 O252 2.458 . S
U250 C253 2.984 . S
U250 C254 2.847 . S
U250 C267 2.882 . S
U250 O268 2.441 . S
U250 O269 2.420 . S
U250 O270 2.455 . S
U250 O271 2.449 . S
O251 U250 2.454 . S
O251 C253 1.353 . S
O252 U250 2.458 . S
O252 C253 1.286 . S
C253 U250 2.984 . S
C253 O251 1.353 . S
C253 O252 1.286 . S
C253 C255 1.363 . S
C254 C244 1.465 . S
C254 U250 2.847 . S
C254 O268 1.249 . S
C254 O269 1.202 . S
C255 C253 1.363 . S
C255 C257 1.408 . S
C255 C260 1.342 . S
C256 C257 1.310 . S
C256 C259 1.461 . S
C256 H276 0.932 . S
C257 C255 1.408 . S
C257 C256 1.310 . S
C257 H277 0.930 . S
C258 C259 1.474 . S
C258 C260 1.285 . S
C258 H278 0.929 . S
C259 C256 1.461 . S
C259 C258 1.474 . S
C260 C255 1.342 . S
C260 C258 1.285 . S
C260 H279 0.930 . S
C261 C264 1.424 . S
C261 C266 1.245 . S
C261 C267 1.428 . S
C262 C265 1.260 . S
C262 C266 1.477 . S
C262 H280 0.932 . S
C263 C264 1.384 . S
C263 C265 1.479 . S
C263 H281 0.929 . S
C264 C261 1.424 . S
C264 C263 1.384 . S
C264 H282 0.928 . S
C265 C262 1.260 . S
C265 C263 1.479 . S
C266 C261 1.245 . S
C266 C262 1.477 . S
C266 H283 0.932 . S
C267 U250 2.882 . S
C267 C261 1.428 . S
C267 O270 1.301 . S
C267 O271 1.282 . S
O268 U250 2.441 . S
O268 C254 1.249 . S
O269 U250 2.420 . S
O269 C254 1.202 . S
O270 U250 2.455 . S
O270 C267 1.301 . S
O271 U250 2.449 . S
O271 C267 1.282 . S
H272 C245 0.931 . S
H273 C247 0.929 . S
H274 C248 0.930 . S
H275 C249 0.931 . S
H276 C256 0.932 . S
H277 C257 0.930 . S
H278 C258 0.929 . S
H279 C260 0.930 . S
H280 C262 0.932 . S
H281 C263 0.929 . S
H282 C264 0.928 . S
H283 C266 0.932 . S
C284 C285 1.264 . S
C284 C289 1.479 . S
C284 C294 1.465 . S
C285 C284 1.264 . S
C285 C287 1.339 . S
C285 H312 0.931 . S
C286 C287 1.395 1_655 S
C286 C288 1.320 1_655 S
C287 C285 1.339 . S
C287 C286 1.395 1_455 S
C287 H313 0.929 1_455 S
C288 C286 1.320 1_455 S
C288 C289 1.405 . S
C288 H314 0.930 . S
C289 C284 1.479 . S
C289 C288 1.405 . S
C289 H315 0.931 . S
U290 O291 2.454 . S
U290 O292 2.458 . S
U290 C293 2.984 . S
U290 C294 2.847 . S
U290 C307 2.882 . S
U290 O308 2.441 . S
U290 O309 2.420 . S
U290 O310 2.455 . S
U290 O311 2.449 . S
O291 U290 2.454 . S
O291 C293 1.353 . S
O292 U290 2.458 . S
O292 C293 1.286 . S
C293 U290 2.984 . S
C293 O291 1.353 . S
C293 O292 1.286 . S
C293 C295 1.363 . S
C294 C284 1.465 . S
C294 U290 2.847 . S
C294 O308 1.249 . S
C294 O309 1.202 . S
C295 C293 1.363 . S
C295 C297 1.408 . S
C295 C300 1.342 . S
C296 C297 1.310 . S
C296 C299 1.461 . S
C296 H316 0.932 . S
C297 C295 1.408 . S
C297 C296 1.310 . S
C297 H317 0.930 . S
C298 C299 1.474 . S
C298 C300 1.285 . S
C298 H318 0.929 . S
C299 C296 1.461 . S
C299 C298 1.474 . S
C300 C295 1.342 . S
C300 C298 1.285 . S
C300 H319 0.930 . S
C301 C304 1.424 . S
C301 C306 1.245 . S
C301 C307 1.428 . S
C302 C305 1.260 . S
C302 C306 1.477 . S
C302 H320 0.932 . S
C303 C304 1.384 . S
C303 C305 1.479 . S
C303 H321 0.929 . S
C304 C301 1.424 . S
C304 C303 1.384 . S
C304 H322 0.928 . S
C305 C302 1.260 . S
C305 C303 1.479 . S
C306 C301 1.245 . S
C306 C302 1.477 . S
C306 H323 0.932 . S
C307 U290 2.882 . S
C307 C301 1.428 . S
C307 O310 1.301 . S
C307 O311 1.282 . S
O308 U290 2.441 . S
O308 C294 1.249 . S
O309 U290 2.420 . S
O309 C294 1.202 . S
O310 U290 2.455 . S
O310 C307 1.301 . S
O311 U290 2.449 . S
O311 C307 1.282 . S
H312 C285 0.931 . S
H313 C287 0.929 1_655 S
H314 C288 0.930 . S
H315 C289 0.931 . S
H316 C296 0.932 . S
H317 C297 0.930 . S
H318 C298 0.929 . S
H319 C300 0.930 . S
H320 C302 0.932 . S
H321 C303 0.929 . S
H322 C304 0.928 . S
H323 C306 0.932 . S
C324 C325 1.264 . S
C324 C329 1.479 . S
C324 C334 1.465 . S
C325 C324 1.264 . S
C325 C327 1.339 . S
C325 H352 0.931 . S
C326 C327 1.395 . S
C326 C328 1.320 . S
C327 C325 1.339 . S
C327 C326 1.395 . S
C327 H353 0.929 . S
C328 C326 1.320 . S
C328 C329 1.405 . S
C328 H354 0.930 . S
C329 C324 1.479 . S
C329 C328 1.405 . S
C329 H355 0.931 . S
U330 O331 2.454 . S
U330 O332 2.458 . S
U330 C333 2.984 . S
U330 C334 2.847 . S
U330 C347 2.882 . S
U330 O348 2.441 . S
U330 O349 2.420 . S
U330 O350 2.455 . S
U330 O351 2.449 . S
O331 U330 2.454 . S
O331 C333 1.353 . S
O332 U330 2.458 . S
O332 C333 1.286 . S
C333 U330 2.984 . S
C333 O331 1.353 . S
C333 O332 1.286 . S
C333 C335 1.363 . S
C334 C324 1.465 . S
C334 U330 2.847 . S
C334 O348 1.249 . S
C334 O349 1.202 . S
C335 C333 1.363 . S
C335 C337 1.408 . S
C335 C340 1.342 . S
C336 C337 1.310 . S
C336 C339 1.461 . S
C336 H356 0.932 . S
C337 C335 1.408 . S
C337 C336 1.310 . S
C337 H357 0.930 . S
C338 C339 1.474 . S
C338 C340 1.285 . S
C338 H358 0.929 . S
C339 C336 1.461 . S
C339 C338 1.474 . S
C340 C335 1.342 . S
C340 C338 1.285 . S
C340 H359 0.930 . S
C341 C344 1.424 . S
C341 C346 1.245 . S
C341 C347 1.428 . S
C342 C345 1.260 . S
C342 C346 1.477 . S
C342 H360 0.932 . S
C343 C344 1.384 . S
C343 C345 1.479 . S
C343 H361 0.929 . S
C344 C341 1.424 . S
C344 C343 1.384 . S
C344 H362 0.928 . S
C345 C342 1.260 . S
C345 C343 1.479 . S
C346 C341 1.245 . S
C346 C342 1.477 . S
C346 H363 0.932 . S
C347 U330 2.882 . S
C347 C341 1.428 . S
C347 O350 1.301 . S
C347 O351 1.282 . S
O348 U330 2.441 . S
O348 C334 1.249 . S
O349 U330 2.420 . S
O349 C334 1.202 . S
O350 U330 2.455 . S
O350 C347 1.301 . S
O351 U330 2.449 . S
O351 C347 1.282 . S
H352 C325 0.931 . S
H353 C327 0.929 . S
H354 C328 0.930 . S
H355 C329 0.931 . S
H356 C336 0.932 . S
H357 C337 0.930 . S
H358 C338 0.929 . S
H359 C340 0.930 . S
H360 C342 0.932 . S
H361 C343 0.929 . S
H362 C344 0.928 . S
H363 C346 0.932 . S
C364 C365 1.264 . S
C364 C369 1.479 . S
C364 C374 1.465 . S
C365 C364 1.264 . S
C365 C367 1.339 1_565 S
C365 H392 0.931 . S
C366 C367 1.395 . S
C366 C368 1.320 . S
C367 C365 1.339 1_545 S
C367 C366 1.395 . S
C367 H393 0.929 . S
C368 C366 1.320 . S
C368 C369 1.405 1_545 S
C368 H394 0.930 . S
C369 C364 1.479 . S
C369 C368 1.405 1_565 S
C369 H395 0.931 . S
U370 O371 2.454 . S
U370 O372 2.458 . S
U370 C373 2.984 . S
U370 C374 2.847 . S
U370 C387 2.882 . S
U370 O388 2.441 . S
U370 O389 2.420 . S
U370 O390 2.455 . S
U370 O391 2.449 . S
O371 U370 2.454 . S
O371 C373 1.353 . S
O372 U370 2.458 . S
O372 C373 1.286 . S
C373 U370 2.984 . S
C373 O371 1.353 . S
C373 O372 1.286 . S
C373 C375 1.363 . S
C374 C364 1.465 . S
C374 U370 2.847 . S
C374 O388 1.249 . S
C374 O389 1.202 . S
C375 C373 1.363 . S
C375 C377 1.408 . S
C375 C380 1.342 . S
C376 C377 1.310 . S
C376 C379 1.461 . S
C376 H396 0.932 . S
C377 C375 1.408 . S
C377 C376 1.310 . S
C377 H397 0.930 . S
C378 C379 1.474 . S
C378 C380 1.285 . S
C378 H398 0.929 . S
C379 C376 1.461 . S
C379 C378 1.474 . S
C380 C375 1.342 . S
C380 C378 1.285 . S
C380 H399 0.930 . S
C381 C384 1.424 . S
C381 C386 1.245 . S
C381 C387 1.428 . S
C382 C385 1.260 . S
C382 C386 1.477 1_455 S
C382 H400 0.932 . S
C383 C384 1.384 1_455 S
C383 C385 1.479 . S
C383 H401 0.929 . S
C384 C381 1.424 . S
C384 C383 1.384 1_655 S
C384 H402 0.928 . S
C385 C382 1.260 . S
C385 C383 1.479 . S
C386 C381 1.245 . S
C386 C382 1.477 1_655 S
C386 H403 0.932 . S
C387 U370 2.882 . S
C387 C381 1.428 . S
C387 O390 1.301 . S
C387 O391 1.282 . S
O388 U370 2.441 . S
O388 C374 1.249 . S
O389 U370 2.420 . S
O389 C374 1.202 . S
O390 U370 2.455 . S
O390 C387 1.301 . S
O391 U370 2.449 . S
O391 C387 1.282 . S
H392 C365 0.931 . S
H393 C367 0.929 . S
H394 C368 0.930 . S
H395 C369 0.931 . S
H396 C376 0.932 . S
H397 C377 0.930 . S
H398 C378 0.929 . S
H399 C380 0.930 . S
H400 C382 0.932 . S
H401 C383 0.929 . S
H402 C384 0.928 . S
H403 C386 0.932 . S
C404 C405 1.369 . S
C404 C406 1.419 . S
C404 H408 0.930 . S
C405 C404 1.369 . S
C405 C414 1.429 . S
C406 C404 1.419 . S
C406 C407 1.363 . S
C406 H409 0.929 . S
C407 C406 1.363 . S
C407 C413 1.428 . S
H408 C404 0.930 . S
H409 C406 0.929 . S
S410 N411 1.613 . S
S410 N412 1.610 . S
N411 S410 1.613 . S
N411 C414 1.350 . S
N412 S410 1.610 . S
N412 C413 1.351 . S
C413 C407 1.428 . S
C413 N412 1.351 . S
C413 C414 1.434 . S
C414 C405 1.429 . S
C414 N411 1.350 . S
C414 C413 1.434 . S
C415 C416 1.369 . S
C415 C417 1.419 . S
C415 H419 0.930 . S
C416 C415 1.369 . S
C416 C425 1.429 . S
C417 C415 1.419 . S
C417 C418 1.363 . S
C417 H420 0.929 . S
C418 C417 1.363 . S
C418 C424 1.428 . S
H419 C415 0.930 . S
H420 C417 0.929 . S
S421 N422 1.613 . S
S421 N423 1.610 . S
N422 S421 1.613 . S
N422 C425 1.350 . S
N423 S421 1.610 . S
N423 C424 1.351 . S
C424 C418 1.428 . S
C424 N423 1.351 . S
C424 C425 1.434 . S
C425 C416 1.429 . S
C425 N422 1.350 . S
C425 C424 1.434 . S
C426 C427 1.369 . S
C426 C428 1.419 . S
C426 H430 0.930 . S
C427 C426 1.369 . S
C427 C436 1.429 . S
C428 C426 1.419 . S
C428 C429 1.363 . S
C428 H431 0.929 . S
C429 C428 1.363 . S
C429 C435 1.428 . S
H430 C426 0.930 . S
H431 C428 0.929 . S
S432 N433 1.613 1_565 S
S432 N434 1.610 . S
N433 S432 1.613 1_545 S
N433 C436 1.350 . S
N434 S432 1.610 . S
N434 C435 1.351 1_565 S
C435 C429 1.428 . S
C435 N434 1.351 1_545 S
C435 C436 1.434 . S
C436 C427 1.429 . S
C436 N433 1.350 . S
C436 C435 1.434 . S
C437 C438 1.369 . S
C437 C439 1.419 . S
C437 H441 0.930 . S
C438 C437 1.369 . S
C438 C447 1.429 . S
C439 C437 1.419 . S
C439 C440 1.363 . S
C439 H442 0.929 . S
C440 C439 1.363 . S
C440 C446 1.428 . S
H441 C437 0.930 . S
H442 C439 0.929 . S
S443 N444 1.613 . S
S443 N445 1.610 . S
N444 S443 1.613 . S
N444 C447 1.350 . S
N445 S443 1.610 . S
N445 C446 1.351 . S
C446 C440 1.428 . S
C446 N445 1.351 . S
C446 C447 1.434 . S
C447 C438 1.429 . S
C447 N444 1.350 . S
C447 C446 1.434 . S
C448 C449 1.369 . S
C448 C450 1.419 . S
C448 H452 0.930 . S
C449 C448 1.369 . S
C449 C458 1.429 . S
C450 C448 1.419 . S
C450 C451 1.363 . S
C450 H453 0.929 . S
C451 C450 1.363 . S
C451 C457 1.428 . S
H452 C448 0.930 . S
H453 C450 0.929 . S
S454 N455 1.613 . S
S454 N456 1.610 . S
N455 S454 1.613 . S
N455 C458 1.350 . S
N456 S454 1.610 . S
N456 C457 1.351 . S
C457 C451 1.428 . S
C457 N456 1.351 . S
C457 C458 1.434 . S
C458 C449 1.429 . S
C458 N455 1.350 . S
C458 C457 1.434 . S
C459 C460 1.369 . S
C459 C461 1.419 . S
C459 H463 0.930 . S
C460 C459 1.369 . S
C460 C469 1.429 1_554 S
C461 C459 1.419 . S
C461 C462 1.363 1_554 S
C461 H464 0.930 . S
C462 C461 1.363 1_556 S
C462 C468 1.428 . S
H463 C459 0.930 . S
H464 C461 0.930 . S
S465 N466 1.613 . S
S465 N467 1.610 . S
N466 S465 1.613 . S
N466 C469 1.350 . S
N467 S465 1.610 . S
N467 C468 1.351 . S
C468 C462 1.428 . S
C468 N467 1.351 . S
C468 C469 1.434 . S
C469 C460 1.429 1_556 S
C469 N466 1.350 . S
C469 C468 1.434 . S
C470 C471 1.369 . S
C470 C472 1.419 . S
C470 H474 0.930 . S
C471 C470 1.369 . S
C471 C480 1.429 . S
C472 C470 1.419 . S
C472 C473 1.363 . S
C472 H475 0.929 . S
C473 C472 1.363 . S
C473 C479 1.428 . S
H474 C470 0.930 . S
H475 C472 0.929 . S
S476 N477 1.613 . S
S476 N478 1.610 . S
N477 S476 1.613 . S
N477 C480 1.350 . S
N478 S476 1.610 . S
N478 C479 1.351 . S
C479 C473 1.428 . S
C479 N478 1.351 . S
C479 C480 1.434 . S
C480 C471 1.429 . S
C480 N477 1.350 . S
C480 C479 1.434 . S
C481 C482 1.369 . S
C481 C483 1.419 . S
C481 H485 0.930 . S
C482 C481 1.369 . S
C482 C491 1.429 . S
C483 C481 1.419 . S
C483 C484 1.363 . S
C483 H486 0.929 . S
C484 C483 1.363 . S
C484 C490 1.428 . S
H485 C481 0.930 . S
H486 C483 0.929 . S
S487 N488 1.613 . S
S487 N489 1.610 . S
N488 S487 1.613 . S
N488 C491 1.350 . S
N489 S487 1.610 . S
N489 C490 1.351 . S
C490 C484 1.428 . S
C490 N489 1.351 . S
C490 C491 1.434 . S
C491 C482 1.429 . S
C491 N488 1.350 . S
C491 C490 1.434 . S
C492 C493 1.369 . S
C492 C494 1.419 . S
C492 H496 0.930 . S
C493 C492 1.369 . S
C493 C502 1.429 . S
C494 C492 1.419 . S
C494 C495 1.363 . S
C494 H497 0.929 . S
C495 C494 1.363 . S
C495 C501 1.428 . S
H496 C492 0.930 . S
H497 C494 0.929 . S
S498 N499 1.617 . S
S498 N500 1.611 . S
N499 S498 1.617 . S
N499 C502 1.350 . S
N500 S498 1.611 . S
N500 C501 1.351 . S
C501 C495 1.428 . S
C501 N500 1.351 . S
C501 C502 1.434 . S
C502 C493 1.429 . S
C502 N499 1.350 . S
C502 C501 1.434 . S
C503 C504 1.369 . S
C503 C505 1.419 . S
C503 H507 0.930 . S
C504 C503 1.369 . S
C504 C513 1.429 . S
C505 C503 1.419 . S
C505 C506 1.363 . S
C505 H508 0.929 . S
C506 C505 1.363 . S
C506 C512 1.428 . S
H507 C503 0.930 . S
H508 C505 0.929 . S
S509 N510 1.613 . S
S509 N511 1.610 . S
N510 S509 1.613 . S
N510 C513 1.350 . S
N511 S509 1.610 . S
N511 C512 1.351 . S
C512 C506 1.428 . S
C512 N511 1.351 . S
C512 C513 1.434 . S
C513 C504 1.429 . S
C513 N510 1.350 . S
C513 C512 1.434 . S
C514 C515 1.369 1_554 S
C514 C516 1.420 1_565 S
C514 H518 0.930 . S
C515 C514 1.369 1_556 S
C515 C524 1.429 . S
C516 C514 1.420 1_545 S
C516 C517 1.350 1_554 S
C516 H519 0.941 . S
C517 C516 1.350 1_556 S
C517 C523 1.428 . S
H518 C514 0.930 . S
H519 C516 0.941 . S
S520 N521 1.613 . S
S520 N522 1.610 1_565 S
N521 S520 1.613 . S
N521 C524 1.350 . S
N522 S520 1.610 1_545 S
N522 C523 1.351 . S
C523 C517 1.428 . S
C523 N522 1.351 . S
C523 C524 1.434 1_545 S
C524 C515 1.429 . S
C524 N521 1.350 . S
C524 C523 1.434 1_565 S
C525 C526 1.369 . S
C525 C527 1.419 . S
C525 H529 0.930 . S
C526 C525 1.369 . S
C526 C535 1.429 . S
C527 C525 1.419 . S
C527 C528 1.363 . S
C527 H530 0.929 . S
C528 C527 1.363 . S
C528 C534 1.428 . S
H529 C525 0.930 . S
H530 C527 0.929 . S
S531 N532 1.613 . S
S531 N533 1.610 . S
N532 S531 1.613 . S
N532 C535 1.350 . S
N533 S531 1.610 . S
N533 C534 1.351 . S
C534 C528 1.428 . S
C534 N533 1.351 . S
C534 C535 1.434 . S
C535 C526 1.429 . S
C535 N532 1.350 . S
C535 C534 1.434 . S
C536 C537 1.369 . S
C536 C538 1.419 . S
C536 H540 0.930 . S
C537 C536 1.369 . S
C537 C546 1.429 . S
C538 C536 1.419 . S
C538 C539 1.363 . S
C538 H541 0.929 . S
C539 C538 1.363 . S
C539 C545 1.428 . S
H540 C536 0.930 . S
H541 C538 0.929 . S
S542 N543 1.613 . S
S542 N544 1.610 . S
N543 S542 1.613 . S
N543 C546 1.350 . S
N544 S542 1.610 . S
N544 C545 1.351 . S
C545 C539 1.428 . S
C545 N544 1.351 . S
C545 C546 1.434 . S
C546 C537 1.429 . S
C546 N543 1.350 . S
C546 C545 1.434 . S
C547 C548 1.369 . S
C547 C549 1.419 1_455 S
C547 H551 0.930 1_554 S
C548 C547 1.369 . S
C548 C557 1.429 . S
C549 C547 1.419 1_655 S
C549 C550 1.363 . S
C549 H552 0.929 1_554 S
C550 C549 1.363 . S
C550 C556 1.428 1_655 S
H551 C547 0.930 1_556 S
H552 C549 0.929 1_556 S
S553 N554 1.613 . S
S553 N555 1.610 . S
N554 S553 1.613 . S
N554 C557 1.350 . S
N555 S553 1.610 . S
N555 C556 1.351 . S
C556 C550 1.428 1_455 S
C556 N555 1.351 . S
C556 C557 1.434 . S
C557 C548 1.429 . S
C557 N554 1.350 . S
C557 C556 1.434 . S
C558 C559 1.369 . S
C558 C560 1.419 . S
C558 H562 0.930 . S
C559 C558 1.369 . S
C559 C568 1.429 . S
C560 C558 1.419 . S
C560 C561 1.363 . S
C560 H563 0.929 . S
C561 C560 1.363 . S
C561 C567 1.428 . S
H562 C558 0.930 . S
H563 C560 0.929 . S
S564 N565 1.613 . S
S564 N566 1.610 . S
N565 S564 1.613 . S
N565 C568 1.350 . S
N566 S564 1.610 . S
N566 C567 1.351 . S
C567 C561 1.428 . S
C567 N566 1.351 . S
C567 C568 1.434 . S
C568 C559 1.429 . S
C568 N565 1.350 . S
C568 C567 1.434 . S
C569 C570 1.369 . S
C569 C571 1.419 . S
C569 H573 0.930 . S
C570 C569 1.369 . S
C570 C579 1.429 . S
C571 C569 1.419 . S
C571 C572 1.363 . S
C571 H574 0.929 . S
C572 C571 1.363 . S
C572 C578 1.428 . S
H573 C569 0.930 . S
H574 C571 0.929 . S
S575 N576 1.613 1_455 S
S575 N577 1.610 . S
N576 S575 1.613 1_655 S
N576 C579 1.350 . S
N577 S575 1.610 . S
N577 C578 1.351 1_455 S
C578 C572 1.428 . S
C578 N577 1.351 1_655 S
C578 C579 1.434 . S
C579 C570 1.429 . S
C579 N576 1.350 . S
C579 C578 1.434 . S
C580 C581 1.369 . S
C580 C582 1.419 . S
C580 H584 0.930 . S
C581 C580 1.369 . S
C581 C590 1.429 . S
C582 C580 1.419 . S
C582 C583 1.363 . S
C582 H585 0.929 . S
C583 C582 1.363 . S
C583 C589 1.428 . S
H584 C580 0.930 . S
H585 C582 0.929 . S
S586 N587 1.613 . S
S586 N588 1.610 . S
N587 S586 1.613 . S
N587 C590 1.350 1_556 S
N588 S586 1.610 . S
N588 C589 1.351 1_556 S
C589 C583 1.428 . S
C589 N588 1.351 1_554 S
C589 C590 1.434 . S
C590 C581 1.429 . S
C590 N587 1.350 1_554 S
C590 C589 1.434 . S
C591 C592 1.369 . S
C591 C593 1.419 . S
C591 H595 0.930 . S
C592 C591 1.369 . S
C592 C601 1.429 . S
C593 C591 1.419 . S
C593 C594 1.363 . S
C593 H596 0.929 . S
C594 C593 1.363 . S
C594 C600 1.428 . S
H595 C591 0.930 . S
H596 C593 0.929 . S
S597 N598 1.613 . S
S597 N599 1.610 . S
N598 S597 1.613 . S
N598 C601 1.350 . S
N599 S597 1.610 . S
N599 C600 1.351 . S
C600 C594 1.428 . S
C600 N599 1.351 . S
C600 C601 1.434 . S
C601 C592 1.429 . S
C601 N598 1.350 . S
C601 C600 1.434 . S
C602 C603 1.369 . S
C602 C604 1.419 . S
C602 H606 0.930 . S
C603 C602 1.369 . S
C603 C612 1.429 . S
C604 C602 1.419 . S
C604 C605 1.363 . S
C604 H607 0.929 . S
C605 C604 1.363 . S
C605 C611 1.428 . S
H606 C602 0.930 . S
H607 C604 0.929 . S
S608 N609 1.613 . S
S608 N610 1.610 . S
N609 S608 1.613 . S
N609 C612 1.350 . S
N610 S608 1.610 . S
N610 C611 1.351 . S
C611 C605 1.428 . S
C611 N610 1.351 . S
C611 C612 1.434 . S
C612 C603 1.429 . S
C612 N609 1.350 . S
C612 C611 1.434 . S
C613 C614 1.369 . S
C613 C615 1.419 . S
C613 H617 0.930 . S
C614 C613 1.369 . S
C614 C623 1.429 . S
C615 C613 1.419 . S
C615 C616 1.363 . S
C615 H618 0.929 . S
C616 C615 1.363 . S
C616 C622 1.428 . S
H617 C613 0.930 . S
H618 C615 0.929 . S
S619 N620 1.613 . S
S619 N621 1.610 . S
N620 S619 1.613 . S
N620 C623 1.350 . S
N621 S619 1.610 . S
N621 C622 1.351 . S
C622 C616 1.428 . S
C622 N621 1.351 . S
C622 C623 1.434 . S
C623 C614 1.429 . S
C623 N620 1.350 . S
C623 C622 1.434 . S
C624 C625 1.369 . S
C624 C626 1.419 . S
C624 H628 0.930 . S
C625 C624 1.369 . S
C625 C634 1.429 . S
C626 C624 1.419 . S
C626 C627 1.363 . S
C626 H629 0.929 . S
C627 C626 1.363 . S
C627 C633 1.428 . S
H628 C624 0.930 . S
H629 C626 0.929 . S
S630 N631 1.613 . S
S630 N632 1.610 . S
N631 S630 1.613 . S
N631 C634 1.350 . S
N632 S630 1.610 . S
N632 C633 1.351 . S
C633 C627 1.428 . S
C633 N632 1.351 . S
C633 C634 1.434 . S
C634 C625 1.429 . S
C634 N631 1.350 . S
C634 C633 1.434 . S
C635 C636 1.369 . S
C635 C637 1.419 . S
C635 H639 0.930 . S
C636 C635 1.369 . S
C636 C645 1.429 1_556 S
C637 C635 1.419 . S
C637 C638 1.363 . S
C637 H640 0.929 . S
C638 C637 1.363 . S
C638 C644 1.428 1_556 S
H639 C635 0.930 . S
H640 C637 0.929 . S
S641 N642 1.613 . S
S641 N643 1.610 . S
N642 S641 1.613 . S
N642 C645 1.350 . S
N643 S641 1.610 . S
N643 C644 1.351 . S
C644 C638 1.428 1_554 S
C644 N643 1.351 . S
C644 C645 1.434 . S
C645 C636 1.429 1_554 S
C645 N642 1.350 . S
C645 C644 1.434 . S
C646 C647 1.369 . S
C646 C648 1.419 . S
C646 H650 0.930 . S
C647 C646 1.369 . S
C647 C656 1.429 . S
C648 C646 1.419 . S
C648 C649 1.363 . S
C648 H651 0.929 . S
C649 C648 1.363 . S
C649 C655 1.428 . S
H650 C646 0.930 . S
H651 C648 0.929 . S
S652 N653 1.613 . S
S652 N654 1.610 . S
N653 S652 1.613 . S
N653 C656 1.350 . S
N654 S652 1.610 . S
N654 C655 1.351 . S
C655 C649 1.428 . S
C655 N654 1.351 . S
C655 C656 1.434 . S
C656 C647 1.429 . S
C656 N653 1.350 . S
C656 C655 1.434 . S
C657 C658 1.369 . S
C657 C659 1.419 . S
C657 H661 0.930 . S
C658 C657 1.369 . S
C658 C667 1.429 . S
C659 C657 1.419 . S
C659 C660 1.363 . S
C659 H662 0.929 . S
C660 C659 1.363 . S
C660 C666 1.428 . S
H661 C657 0.930 . S
H662 C659 0.929 . S
S663 N664 1.613 . S
S663 N665 1.610 . S
N664 S663 1.613 . S
N664 C667 1.350 . S
N665 S663 1.610 . S
N665 C666 1.351 . S
C666 C660 1.428 . S
C666 N665 1.351 . S
C666 C667 1.434 . S
C667 C658 1.429 . S
C667 N664 1.350 . S
C667 C666 1.434 . S
C405 C7 1.418 . S
C407 C105 1.313 . S
C416 C25 1.633 . S
C418 C145 1.492 . S
C427 C46 1.399 . S
C429 C166 1.213 1_545 S
C440 C225 1.041 . S
C438 C70 1.030 . S
C451 C265 1.321 . S
C449 C28 1.413 . S
C460 C49 1.588 . S
C462 C286 1.435 . S
C471 C67 1.422 . S
C473 C326 1.515 . S
C482 C4 1.110 . S
C484 C385 1.096 . S
C493 C58 1.689 . S
C495 C366 1.752 . S
C506 C246 2.168 . S
C504 C66 2.153 . S
C517 C305 1.898 . S
C515 C3 1.958 . S
C526 C37 1.789 . S
C528 C345 1.969 . S
C539 C126 1.951 . S
C537 C79 1.878 . S
C548 C16 2.256 . S
C550 C185 2.077 . S
C561 C206 1.765 . S
C559 C24 1.704 . S
C572 C86 1.869 1_655 S
C570 C45 1.744 . S
C583 C339 1.493 . S
C581 C19 1.462 . S
C594 C379 1.289 . S
C592 C41 1.293 . S
C603 C62 1.226 . S
C605 C259 1.492 . S
C616 C299 1.663 . S
C614 C82 1.365 . S
C627 C179 1.529 . S
C625 C40 1.268 . S
C636 C61 1.235 . S
C638 C219 1.243 . S
C649 C99 1.483 . S
C647 C83 1.472 . S
C660 C139 1.695 . S
C658 C20 1.384 . S
