# Generated by pormake.
# Topology gar, (4,6)-cn, num edge types: 1
# Building blocks:
#     Node 0, Type 0, BuildingBlock: TATPOV_clean_sbu_0, # of connection points: 4
#     Node 1, Type 0, BuildingBlock: TATPOV_clean_sbu_0, # of connection points: 4
#     Node 2, Type 0, BuildingBlock: TATPOV_clean_sbu_0, # of connection points: 4
#     Node 3, Type 0, BuildingBlock: TATPOV_clean_sbu_0, # of connection points: 4
#     Node 4, Type 0, BuildingBlock: TATPOV_clean_sbu_0, # of connection points: 4
#     Node 5, Type 0, BuildingBlock: TATPOV_clean_sbu_0, # of connection points: 4
#     Node 6, Type 0, BuildingBlock: TATPOV_clean_sbu_0, # of connection points: 4
#     Node 7, Type 0, BuildingBlock: TATPOV_clean_sbu_0, # of connection points: 4
#     Node 8, Type 0, BuildingBlock: TATPOV_clean_sbu_0, # of connection points: 4
#     Node 9, Type 0, BuildingBlock: TATPOV_clean_sbu_0, # of connection points: 4
#     Node 10, Type 0, BuildingBlock: TATPOV_clean_sbu_0, # of connection points: 4
#     Node 11, Type 0, BuildingBlock: TATPOV_clean_sbu_0, # of connection points: 4
#     Node 12, Type 0, BuildingBlock: TATPOV_clean_sbu_0, # of connection points: 4
#     Node 13, Type 0, BuildingBlock: TATPOV_clean_sbu_0, # of connection points: 4
#     Node 14, Type 0, BuildingBlock: TATPOV_clean_sbu_0, # of connection points: 4
#     Node 15, Type 0, BuildingBlock: TATPOV_clean_sbu_0, # of connection points: 4
#     Node 16, Type 0, BuildingBlock: TATPOV_clean_sbu_0, # of connection points: 4
#     Node 17, Type 0, BuildingBlock: TATPOV_clean_sbu_0, # of connection points: 4
#     Node 18, Type 0, BuildingBlock: TATPOV_clean_sbu_0, # of connection points: 4
#     Node 19, Type 0, BuildingBlock: TATPOV_clean_sbu_0, # of connection points: 4
#     Node 20, Type 0, BuildingBlock: TATPOV_clean_sbu_0, # of connection points: 4
#     Node 21, Type 0, BuildingBlock: TATPOV_clean_sbu_0, # of connection points: 4
#     Node 22, Type 0, BuildingBlock: TATPOV_clean_sbu_0, # of connection points: 4
#     Node 23, Type 0, BuildingBlock: TATPOV_clean_sbu_0, # of connection points: 4
#     Node 24, Type 1, BuildingBlock: KUMJIN_clean_sbu_1, # of connection points: 6
#     Node 25, Type 1, BuildingBlock: KUMJIN_clean_sbu_1, # of connection points: 6
#     Node 26, Type 1, BuildingBlock: KUMJIN_clean_sbu_1, # of connection points: 6
#     Node 27, Type 1, BuildingBlock: KUMJIN_clean_sbu_1, # of connection points: 6
#     Node 28, Type 1, BuildingBlock: KUMJIN_clean_sbu_1, # of connection points: 6
#     Node 29, Type 1, BuildingBlock: KUMJIN_clean_sbu_1, # of connection points: 6
#     Node 30, Type 1, BuildingBlock: KUMJIN_clean_sbu_1, # of connection points: 6
#     Node 31, Type 1, BuildingBlock: KUMJIN_clean_sbu_1, # of connection points: 6
#     Node 32, Type 1, BuildingBlock: KUMJIN_clean_sbu_1, # of connection points: 6
#     Node 33, Type 1, BuildingBlock: KUMJIN_clean_sbu_1, # of connection points: 6
#     Node 34, Type 1, BuildingBlock: KUMJIN_clean_sbu_1, # of connection points: 6
#     Node 35, Type 1, BuildingBlock: KUMJIN_clean_sbu_1, # of connection points: 6
#     Node 36, Type 1, BuildingBlock: KUMJIN_clean_sbu_1, # of connection points: 6
#     Node 37, Type 1, BuildingBlock: KUMJIN_clean_sbu_1, # of connection points: 6
#     Node 38, Type 1, BuildingBlock: KUMJIN_clean_sbu_1, # of connection points: 6
#     Node 39, Type 1, BuildingBlock: KUMJIN_clean_sbu_1, # of connection points: 6
#     Edge 40, Type (0, 1), BuildingBlock: AJUNOK_clean_linker_0, # of connection points: 2
#     Edge 41, Type (0, 1), BuildingBlock: AJUNOK_clean_linker_0, # of connection points: 2
#     Edge 42, Type (0, 1), BuildingBlock: AJUNOK_clean_linker_0, # of connection points: 2
#     Edge 43, Type (0, 1), BuildingBlock: AJUNOK_clean_linker_0, # of connection points: 2
#     Edge 44, Type (0, 1), BuildingBlock: AJUNOK_clean_linker_0, # of connection points: 2
#     Edge 45, Type (0, 1), BuildingBlock: AJUNOK_clean_linker_0, # of connection points: 2
#     Edge 46, Type (0, 1), BuildingBlock: AJUNOK_clean_linker_0, # of connection points: 2
#     Edge 47, Type (0, 1), BuildingBlock: AJUNOK_clean_linker_0, # of connection points: 2
#     Edge 48, Type (0, 1), BuildingBlock: AJUNOK_clean_linker_0, # of connection points: 2
#     Edge 49, Type (0, 1), BuildingBlock: AJUNOK_clean_linker_0, # of connection points: 2
#     Edge 50, Type (0, 1), BuildingBlock: AJUNOK_clean_linker_0, # of connection points: 2
#     Edge 51, Type (0, 1), BuildingBlock: AJUNOK_clean_linker_0, # of connection points: 2
#     Edge 52, Type (0, 1), BuildingBlock: AJUNOK_clean_linker_0, # of connection points: 2
#     Edge 53, Type (0, 1), BuildingBlock: AJUNOK_clean_linker_0, # of connection points: 2
#     Edge 54, Type (0, 1), BuildingBlock: AJUNOK_clean_linker_0, # of connection points: 2
#     Edge 55, Type (0, 1), BuildingBlock: AJUNOK_clean_linker_0, # of connection points: 2
#     Edge 56, Type (0, 1), BuildingBlock: AJUNOK_clean_linker_0, # of connection points: 2
#     Edge 57, Type (0, 1), BuildingBlock: AJUNOK_clean_linker_0, # of connection points: 2
#     Edge 58, Type (0, 1), BuildingBlock: AJUNOK_clean_linker_0, # of connection points: 2
#     Edge 59, Type (0, 1), BuildingBlock: AJUNOK_clean_linker_0, # of connection points: 2
#     Edge 60, Type (0, 1), BuildingBlock: AJUNOK_clean_linker_0, # of connection points: 2
#     Edge 61, Type (0, 1), BuildingBlock: AJUNOK_clean_linker_0, # of connection points: 2
#     Edge 62, Type (0, 1), BuildingBlock: AJUNOK_clean_linker_0, # of connection points: 2
#     Edge 63, Type (0, 1), BuildingBlock: AJUNOK_clean_linker_0, # of connection points: 2
#     Edge 64, Type (0, 1), BuildingBlock: AJUNOK_clean_linker_0, # of connection points: 2
#     Edge 65, Type (0, 1), BuildingBlock: AJUNOK_clean_linker_0, # of connection points: 2
#     Edge 66, Type (0, 1), BuildingBlock: AJUNOK_clean_linker_0, # of connection points: 2
#     Edge 67, Type (0, 1), BuildingBlock: AJUNOK_clean_linker_0, # of connection points: 2
#     Edge 68, Type (0, 1), BuildingBlock: AJUNOK_clean_linker_0, # of connection points: 2
#     Edge 69, Type (0, 1), BuildingBlock: AJUNOK_clean_linker_0, # of connection points: 2
#     Edge 70, Type (0, 1), BuildingBlock: AJUNOK_clean_linker_0, # of connection points: 2
#     Edge 71, Type (0, 1), BuildingBlock: AJUNOK_clean_linker_0, # of connection points: 2
#     Edge 72, Type (0, 1), BuildingBlock: AJUNOK_clean_linker_0, # of connection points: 2
#     Edge 73, Type (0, 1), BuildingBlock: AJUNOK_clean_linker_0, # of connection points: 2
#     Edge 74, Type (0, 1), BuildingBlock: AJUNOK_clean_linker_0, # of connection points: 2
#     Edge 75, Type (0, 1), BuildingBlock: AJUNOK_clean_linker_0, # of connection points: 2
#     Edge 76, Type (0, 1), BuildingBlock: AJUNOK_clean_linker_0, # of connection points: 2
#     Edge 77, Type (0, 1), BuildingBlock: AJUNOK_clean_linker_0, # of connection points: 2
#     Edge 78, Type (0, 1), BuildingBlock: AJUNOK_clean_linker_0, # of connection points: 2
#     Edge 79, Type (0, 1), BuildingBlock: AJUNOK_clean_linker_0, # of connection points: 2
#     Edge 80, Type (0, 1), BuildingBlock: AJUNOK_clean_linker_0, # of connection points: 2
#     Edge 81, Type (0, 1), BuildingBlock: AJUNOK_clean_linker_0, # of connection points: 2
#     Edge 82, Type (0, 1), BuildingBlock: AJUNOK_clean_linker_0, # of connection points: 2
#     Edge 83, Type (0, 1), BuildingBlock: AJUNOK_clean_linker_0, # of connection points: 2
#     Edge 84, Type (0, 1), BuildingBlock: AJUNOK_clean_linker_0, # of connection points: 2
#     Edge 85, Type (0, 1), BuildingBlock: AJUNOK_clean_linker_0, # of connection points: 2
#     Edge 86, Type (0, 1), BuildingBlock: AJUNOK_clean_linker_0, # of connection points: 2
#     Edge 87, Type (0, 1), BuildingBlock: AJUNOK_clean_linker_0, # of connection points: 2
#     Edge 88, Type (0, 1), BuildingBlock: AJUNOK_clean_linker_0, # of connection points: 2
#     Edge 89, Type (0, 1), BuildingBlock: AJUNOK_clean_linker_0, # of connection points: 2
#     Edge 90, Type (0, 1), BuildingBlock: AJUNOK_clean_linker_0, # of connection points: 2
#     Edge 91, Type (0, 1), BuildingBlock: AJUNOK_clean_linker_0, # of connection points: 2
#     Edge 92, Type (0, 1), BuildingBlock: AJUNOK_clean_linker_0, # of connection points: 2
#     Edge 93, Type (0, 1), BuildingBlock: AJUNOK_clean_linker_0, # of connection points: 2
#     Edge 94, Type (0, 1), BuildingBlock: AJUNOK_clean_linker_0, # of connection points: 2
#     Edge 95, Type (0, 1), BuildingBlock: AJUNOK_clean_linker_0, # of connection points: 2
#     Edge 96, Type (0, 1), BuildingBlock: AJUNOK_clean_linker_0, # of connection points: 2
#     Edge 97, Type (0, 1), BuildingBlock: AJUNOK_clean_linker_0, # of connection points: 2
#     Edge 98, Type (0, 1), BuildingBlock: AJUNOK_clean_linker_0, # of connection points: 2
#     Edge 99, Type (0, 1), BuildingBlock: AJUNOK_clean_linker_0, # of connection points: 2
#     Edge 100, Type (0, 1), BuildingBlock: AJUNOK_clean_linker_0, # of connection points: 2
#     Edge 101, Type (0, 1), BuildingBlock: AJUNOK_clean_linker_0, # of connection points: 2
#     Edge 102, Type (0, 1), BuildingBlock: AJUNOK_clean_linker_0, # of connection points: 2
#     Edge 103, Type (0, 1), BuildingBlock: AJUNOK_clean_linker_0, # of connection points: 2
#     Edge 104, Type (0, 1), BuildingBlock: AJUNOK_clean_linker_0, # of connection points: 2
#     Edge 105, Type (0, 1), BuildingBlock: AJUNOK_clean_linker_0, # of connection points: 2
#     Edge 106, Type (0, 1), BuildingBlock: AJUNOK_clean_linker_0, # of connection points: 2
#     Edge 107, Type (0, 1), BuildingBlock: AJUNOK_clean_linker_0, # of connection points: 2
#     Edge 108, Type (0, 1), BuildingBlock: AJUNOK_clean_linker_0, # of connection points: 2
#     Edge 109, Type (0, 1), BuildingBlock: AJUNOK_clean_linker_0, # of connection points: 2
#     Edge 110, Type (0, 1), BuildingBlock: AJUNOK_clean_linker_0, # of connection points: 2
#     Edge 111, Type (0, 1), BuildingBlock: AJUNOK_clean_linker_0, # of connection points: 2
#     Edge 112, Type (0, 1), BuildingBlock: AJUNOK_clean_linker_0, # of connection points: 2
#     Edge 113, Type (0, 1), BuildingBlock: AJUNOK_clean_linker_0, # of connection points: 2
#     Edge 114, Type (0, 1), BuildingBlock: AJUNOK_clean_linker_0, # of connection points: 2
#     Edge 115, Type (0, 1), BuildingBlock: AJUNOK_clean_linker_0, # of connection points: 2
#     Edge 116, Type (0, 1), BuildingBlock: AJUNOK_clean_linker_0, # of connection points: 2
#     Edge 117, Type (0, 1), BuildingBlock: AJUNOK_clean_linker_0, # of connection points: 2
#     Edge 118, Type (0, 1), BuildingBlock: AJUNOK_clean_linker_0, # of connection points: 2
#     Edge 119, Type (0, 1), BuildingBlock: AJUNOK_clean_linker_0, # of connection points: 2
#     Edge 120, Type (0, 1), BuildingBlock: AJUNOK_clean_linker_0, # of connection points: 2
#     Edge 121, Type (0, 1), BuildingBlock: AJUNOK_clean_linker_0, # of connection points: 2
#     Edge 122, Type (0, 1), BuildingBlock: AJUNOK_clean_linker_0, # of connection points: 2
#     Edge 123, Type (0, 1), BuildingBlock: AJUNOK_clean_linker_0, # of connection points: 2
#     Edge 124, Type (0, 1), BuildingBlock: AJUNOK_clean_linker_0, # of connection points: 2
#     Edge 125, Type (0, 1), BuildingBlock: AJUNOK_clean_linker_0, # of connection points: 2
#     Edge 126, Type (0, 1), BuildingBlock: AJUNOK_clean_linker_0, # of connection points: 2
#     Edge 127, Type (0, 1), BuildingBlock: AJUNOK_clean_linker_0, # of connection points: 2
#     Edge 128, Type (0, 1), BuildingBlock: AJUNOK_clean_linker_0, # of connection points: 2
#     Edge 129, Type (0, 1), BuildingBlock: AJUNOK_clean_linker_0, # of connection points: 2
#     Edge 130, Type (0, 1), BuildingBlock: AJUNOK_clean_linker_0, # of connection points: 2
#     Edge 131, Type (0, 1), BuildingBlock: AJUNOK_clean_linker_0, # of connection points: 2
#     Edge 132, Type (0, 1), BuildingBlock: AJUNOK_clean_linker_0, # of connection points: 2
#     Edge 133, Type (0, 1), BuildingBlock: AJUNOK_clean_linker_0, # of connection points: 2
#     Edge 134, Type (0, 1), BuildingBlock: AJUNOK_clean_linker_0, # of connection points: 2
#     Edge 135, Type (0, 1), BuildingBlock: AJUNOK_clean_linker_0, # of connection points: 2
# Relax obj value: 0.120
# Max RMSD: 0.204
# Mean RMSD: 0.135
data_MOF--net-gar--node1-TATPOV_clean_sbu_0--node2-KUMJIN_clean_sbu_1--edge1-AJUNOK_clean_linker_0
_symmetry_space_group_name_H-M    P1
_symmetry_Int_Tables_number       1
_symmetry_cell_setting            triclinic
loop_
_symmetry_equiv_pos_as_xyz
'x, y, z'
_cell_length_a     45.338154
_cell_length_b     45.163106
_cell_length_c     42.386261
_cell_angle_alpha  97.422941
_cell_angle_beta   98.216472
_cell_angle_gamma 104.06651
loop_
_atom_site_label
_atom_site_type_symbol
_atom_site_fract_x
_atom_site_fract_y
_atom_site_fract_z
_atom_type_partial_charge
Zn0 Zn 0.05354 0.35474 0.40827 0.0
Zn1 Zn 0.08265 0.3491 0.36669 0.0
O2 O 0.09153 0.3983 0.39208 0.0
O3 O 0.06876 0.39402 0.43445 0.0
O4 O 0.12634 0.34177 0.34809 0.0
O5 O 0.05723 0.32507 0.43501 0.0
O6 O 0.0766 0.31098 0.393 0.0
C7 C 0.08457 0.41088 0.41834 0.0
C8 C 1.01002 0.33937 0.34883 0.0
O9 O 0.03474 0.33868 0.33659 0.0
O10 O 1.01285 0.34631 0.37914 0.0
C11 C 0.14223 0.3482 0.32535 0.0
O12 O 0.13154 0.36362 0.3042 0.0
C13 C 0.06662 0.30513 0.41896 0.0
Zn14 Zn 0.04055 0.73135 0.74424 0.0
Zn15 Zn 0.0453 0.77206 0.70864 0.0
O16 O 1.00518 0.77774 0.7291 0.0
O17 O 1.00125 0.74342 0.76105 0.0
O18 O 0.05111 0.80787 0.68601 0.0
O19 O 0.08912 0.7476 0.76456 0.0
O20 O 0.09176 0.78221 0.73293 0.0
C21 C 0.99051 0.76406 0.74918 0.0
C22 C 0.03542 0.70561 0.67516 0.0
O23 O 0.03939 0.73406 0.67235 0.0
O24 O 0.03314 0.69796 0.70274 0.0
C25 C 0.03741 0.81086 0.65888 0.0
O26 O 1.01642 0.78718 0.64071 0.0
C27 C 0.10574 0.7692 0.75306 0.0
Zn28 Zn 0.54368 0.85386 0.90027 0.0
Zn29 Zn 0.58075 0.85226 0.86298 0.0
O30 O 0.59163 0.8998 0.89197 0.0
O31 O 0.55627 0.89485 0.92326 0.0
O32 O 0.62175 0.845 0.83889 0.0
O33 O 0.55054 0.82425 0.92661 0.0
O34 O 0.58026 0.81703 0.89139 0.0
C35 C 0.579 0.91147 0.91442 0.0
C36 C 0.50483 0.83815 0.84184 0.0
O37 O 0.5316 0.84051 0.83264 0.0
O38 O 0.50405 0.84287 0.87155 0.0
C39 C 0.65158 0.85699 0.84839 0.0
O40 O 0.66057 0.87902 0.8739 0.0
C41 C 0.56811 0.80952 0.91565 0.0
Zn42 Zn 0.54398 0.23691 0.24989 0.0
Zn43 Zn 0.54633 0.27257 0.20861 0.0
O44 O 0.50476 0.27754 0.22681 0.0
O45 O 0.5048 0.25042 0.26591 0.0
O46 O 0.55506 0.30728 0.18414 0.0
O47 O 0.59247 0.25339 0.27032 0.0
O48 O 0.59328 0.28174 0.23251 0.0
C49 C 0.4918 0.26721 0.2497 0.0
C50 C 0.53649 0.20591 0.18068 0.0
O51 O 0.53885 0.23326 0.1747 0.0
O52 O 0.53659 0.20139 0.20975 0.0
C53 C 0.54 0.31387 0.15973 0.0
O54 O 0.51251 0.29579 0.14632 0.0
C55 C 0.60831 0.272 0.255 0.0
Zn56 Zn 0.13735 0.82704 0.08615 0.0
Zn57 Zn 0.09817 0.82072 0.12276 0.0
O58 O 0.09153 0.86264 0.10432 0.0
O59 O 0.12265 0.86666 0.06947 0.0
O60 O 0.06421 0.81363 0.14785 0.0
O61 O 0.12161 0.7773 0.06708 0.0
O62 O 0.08597 0.77402 0.09688 0.0
C63 C 0.10311 0.87746 0.08308 0.0
C64 C 0.16651 0.83063 0.15415 0.0
O65 O 0.13815 0.82516 0.15736 0.0
O66 O 0.17327 0.83497 0.12668 0.0
C67 C 0.057 0.83178 0.16902 0.0
O68 O 0.07424 0.86038 0.17839 0.0
C69 C 0.09946 0.76021 0.07744 0.0
Zn70 Zn 0.48852 0.7827 0.49805 0.0
Zn71 Zn 0.52611 0.7876 0.45953 0.0
O72 O 0.53778 0.83528 0.48448 0.0
O73 O 0.50651 0.83113 0.51927 0.0
O74 O 0.56002 0.7928 0.43366 0.0
O75 O 0.49883 0.74028 0.51159 0.0
O76 O 0.53236 0.74599 0.47927 0.0
C77 C 0.52633 0.84862 0.50644 0.0
C78 C 0.45842 0.78136 0.43077 0.0
O79 O 0.48555 0.78195 0.42522 0.0
O80 O 0.45333 0.78053 0.45942 0.0
C81 C 0.5583 0.78608 0.4033 0.0
O82 O 0.5312 0.77346 0.38466 0.0
C83 C 0.51893 0.7299 0.49869 0.0
Zn84 Zn 0.63484 0.32585 0.58602 0.0
Zn85 Zn 0.5975 0.32044 0.62367 0.0
O86 O 0.59234 0.36315 0.60578 0.0
O87 O 0.61961 0.36429 0.56748 0.0
O88 O 0.56352 0.31568 0.64868 0.0
O89 O 0.61967 0.27664 0.56716 0.0
O90 O 0.58472 0.27295 0.5979 0.0
C91 C 0.60218 0.37669 0.58294 0.0
C92 C 0.6651 0.33027 0.65483 0.0
O93 O 0.63699 0.32503 0.65876 0.0
O94 O 0.67087 0.33407 0.62682 0.0
C95 C 0.5642 0.3291 0.67706 0.0
O96 O 0.58995 0.34836 0.69357 0.0
C97 C 0.59794 0.25939 0.57786 0.0
Zn98 Zn 0.98871 0.28395 1.00029 0.0
Zn99 Zn 0.02902 0.29107 0.96476 0.0
O100 O 0.04095 0.33797 0.99089 0.0
O101 O 1.00437 0.33331 0.01972 0.0
O102 O 0.06319 0.29668 0.93923 0.0
O103 O 1.00138 0.24329 0.01551 0.0
O104 O 0.03509 0.24888 0.98349 0.0
C105 C 0.02665 0.35096 0.01011 0.0
C106 C 0.96033 0.282 0.93341 0.0
O107 O 0.98874 0.28686 0.93039 0.0
O108 O 0.95328 0.27726 0.96064 0.0
C109 C 0.06202 0.28796 0.90928 0.0
O110 O 0.03529 0.27349 0.89068 0.0
C111 C 0.02167 0.23288 0.00297 0.0
Zn112 Zn 0.43656 1.00498 0.31274 0.0
Zn113 Zn 0.40667 0.03875 0.32477 0.0
O114 O 0.43512 0.04218 0.36628 0.0
O115 O 0.4368 0.99396 0.35654 0.0
O116 O 0.38249 0.06806 0.33304 0.0
O117 O 0.46951 0.04174 0.30686 0.0
O118 O 0.42659 0.0508 0.28661 0.0
C119 C 0.44124 0.01867 0.37633 0.0
C120 C 0.37811 0.97647 0.2898 0.0
O121 O 0.37723 0.99654 0.31318 0.0
O122 O 0.40183 0.98058 0.27673 0.0
C123 C 0.35336 0.05958 0.33008 0.0
O124 O 0.33927 0.03023 0.32851 0.0
C125 C 0.45487 0.05277 0.28583 0.0
Zn126 Zn 0.25348 0.24866 0.52322 0.0
Zn127 Zn 0.29081 0.21403 0.52651 0.0
O128 O 0.29867 0.2333 0.48501 0.0
O129 O 0.27022 0.26613 0.48471 0.0
O130 O 0.32381 0.19279 0.53173 0.0
O131 O 0.26831 0.2692 0.57135 0.0
O132 O 0.29881 0.23838 0.57341 0.0
C133 C 0.28887 0.25375 0.47179 0.0
C134 C 0.22348 0.18229 0.51614 0.0
O135 O 0.25104 0.1798 0.52067 0.0
O136 O 0.21832 0.20848 0.51455 0.0
C137 C 0.32742 0.1699 0.51348 0.0
O138 O 0.30705 0.15693 0.48702 0.0
C139 C 0.2876 0.25844 0.58787 0.0
Zn140 Zn 0.12165 0.11793 0.80676 0.0
Zn141 Zn 0.15393 0.07808 0.80576 0.0
O142 O 0.1326 0.0714 0.84641 0.0
O143 O 0.10381 0.10391 0.8457 0.0
O144 O 0.17574 0.04479 0.8037 0.0
O145 O 0.1007 0.10242 0.75908 0.0
O146 O 0.13046 0.07069 0.75806 0.0
C147 C 0.11367 0.08383 0.85919 0.0
C148 C 0.18773 0.14564 0.81492 0.0
O149 O 0.18887 0.11762 0.81183 0.0
O150 O 0.16206 0.15212 0.81494 0.0
C151 C 0.20424 0.04915 0.81494 0.0
O152 O 0.2208 0.07671 0.82998 0.0
C153 C 0.11094 0.08259 0.74315 0.0
Zn154 Zn 0.36546 0.9284 0.01191 0.0
Zn155 Zn 0.33176 0.95802 0.00547 0.0
O156 O 0.32512 0.9319 0.96173 0.0
O157 O 0.37343 0.9309 0.96727 0.0
O158 O 0.3026 0.9831 1.00183 0.0
O159 O 0.33226 0.89312 0.01961 0.0
O160 O 0.32122 0.93417 0.0418 0.0
C161 C 0.34753 0.92649 0.94928 0.0
C162 C 0.39587 0.98507 0.03834 0.0
O163 O 0.37437 0.98782 0.01715 0.0
O164 O 0.39313 0.95971 0.04867 0.0
C165 C 0.31006 1.01196 1.00161 0.0
O166 O 0.3388 0.02636 1.00097 0.0
C167 C 0.3208 0.90587 0.04131 0.0
Zn168 Zn 0.37878 0.37219 0.05863 0.0
Zn169 Zn 0.3361 0.40062 0.05635 0.0
O170 O 0.32802 0.37548 0.00966 0.0
O171 O 0.36201 0.34824 0.0126 0.0
O172 O 0.30047 0.4188 0.05306 0.0
O173 O 0.36748 0.35544 0.09917 0.0
O174 O 0.33124 0.37978 0.09784 0.0
C175 C 0.3405 0.35609 0.996 0.0
C176 C 0.40187 0.43846 0.06138 0.0
O177 O 0.37355 0.43794 0.06011 0.0
O178 O 0.41036 0.41377 0.06195 0.0
C179 C 0.30066 0.44568 0.06631 0.0
O180 O 0.32634 0.46412 0.08392 0.0
C181 C 0.34587 0.3627 0.11164 0.0
Zn182 Zn 0.76846 0.18189 0.0722 0.0
Zn183 Zn 0.79926 0.1488 0.08589 0.0
O184 O 0.81027 0.16851 0.047 0.0
O185 O 0.80645 0.21364 0.06711 0.0
O186 O 0.82557 0.12014 0.08917 0.0
O187 O 0.75785 0.17992 0.11563 0.0
O188 O 0.80538 0.17717 0.12841 0.0
C189 C 0.81304 0.19673 0.04457 0.0
C190 C 0.73701 0.12494 0.05024 0.0
O191 O 0.75496 0.12373 0.07561 0.0
O192 O 0.74402 0.1477 0.03581 0.0
C193 C 0.81537 0.09477 0.06946 0.0
O194 O 0.78587 0.08568 0.05669 0.0
C195 C 0.78149 0.18356 0.13686 0.0
Zn196 Zn 0.19321 0.61024 0.28313 0.0
Zn197 Zn 0.21682 0.57089 0.25603 0.0
O198 O 0.18361 0.5543 0.28238 0.0
O199 O 0.21718 0.58951 0.31558 0.0
O200 O 0.23945 0.53994 0.25248 0.0
O201 O 0.165 0.59217 0.23807 0.0
O202 O 0.19619 0.57027 0.21383 0.0
C203 C 0.19382 0.567 0.31141 0.0
C204 C 0.24744 0.64099 0.27637 0.0
O205 O 0.24873 0.61319 0.2693 0.0
O206 O 0.22265 0.64759 0.28063 0.0
C207 C 0.26864 0.54668 0.25867 0.0
O208 O 0.28477 0.57576 0.26334 0.0
C209 C 0.172 0.57941 0.21264 0.0
Zn210 Zn 0.87582 0.86818 0.55775 0.0
Zn211 Zn 0.83639 0.9 0.55646 0.0
O212 O 0.82828 0.87562 0.50934 0.0
O213 O 0.85917 0.84508 0.51122 0.0
O214 O 0.80143 0.91903 0.55262 0.0
O215 O 0.86394 0.85098 0.59775 0.0
O216 O 0.83111 0.87933 0.59817 0.0
C217 C 0.83911 0.85513 0.49505 0.0
C218 C 0.90257 0.935 0.56303 0.0
O219 O 0.87471 0.93641 0.56114 0.0
O220 O 0.90894 0.90917 0.56328 0.0
C221 C 0.80003 0.94451 0.56802 0.0
O222 O 0.82376 0.96122 0.58987 0.0
C223 C 0.84404 0.86063 0.61126 0.0
Zn224 Zn 0.99641 0.99395 0.2685 0.0
Zn225 Zn 0.96875 0.03587 0.27198 0.0
O226 O 0.9948 0.04528 0.31886 0.0
O227 O 1.01777 1.00787 0.3156 0.0
O228 O 0.94922 0.07063 0.27494 0.0
O229 O 1.01584 1.00669 0.23061 0.0
O230 O 0.98919 0.04108 0.23026 0.0
C231 C 1.01202 0.03035 0.33249 0.0
C232 C 0.93142 0.96852 0.26314 0.0
O233 O 0.93208 0.99711 0.26851 0.0
O234 O 0.9559 0.96058 0.25999 0.0
C235 C 0.92318 0.07131 0.25989 0.0
O236 O 0.90629 0.04702 0.23891 0.0
C237 C 1.00734 0.02754 0.21737 0.0
Zn238 Zn 0.25351 0.68383 0.60789 0.0
Zn239 Zn 0.30803 0.66471 0.58952 0.0
O240 O 0.31176 0.69398 0.55867 0.0
O241 O 0.26508 0.69681 0.56506 0.0
O242 O 0.34238 0.64734 0.58681 0.0
O243 O 0.27044 0.65714 0.6389 0.0
O244 O 0.31467 0.68596 0.63547 0.0
C245 C 0.28698 0.7009 0.54914 0.0
C246 C 0.246 0.62177 0.58377 0.0
O247 O 0.26784 0.63126 0.5689 0.0
O248 O 0.24661 0.63714 0.61122 0.0
C249 C 0.34067 0.61905 0.58691 0.0
O250 O 0.3156 0.60093 0.59326 0.0
C251 C 0.29561 0.67587 0.65311 0.0
Zn252 Zn 0.501 0.49414 0.77252 0.0
Zn253 Zn 0.46751 0.53272 0.77403 0.0
O254 O 0.4917 0.54116 0.82132 0.0
O255 O 0.52152 0.50957 0.8205 0.0
O256 O 0.44623 0.566 0.7765 0.0
O257 O 0.51903 0.50965 0.73393 0.0
O258 O 0.4878 0.53977 0.73303 0.0
C259 C 0.51133 0.5295 0.83635 0.0
C260 C 0.43482 0.46541 0.76542 0.0
O261 O 0.43306 0.49323 0.76894 0.0
O262 O 0.46064 0.45948 0.7643 0.0
C263 C 0.4175 0.56339 0.76891 0.0
O264 O 0.39833 0.53599 0.75742 0.0
C265 C 0.50783 0.52901 0.72047 0.0
Zn266 Zn 0.68395 0.10417 0.77731 0.0
Zn267 Zn 0.70931 0.06504 0.75761 0.0
O268 O 0.67963 0.05059 0.78794 0.0
O269 O 0.70799 0.09254 0.81702 0.0
O270 O 0.72891 0.03196 0.75151 0.0
O271 O 0.64986 0.07823 0.74063 0.0
O272 O 0.68577 0.06492 0.71641 0.0
C273 C 0.68874 0.06706 0.81558 0.0
C274 C 0.73714 0.13077 0.7609 0.0
O275 O 0.7429 0.1063 0.76896 0.0
O276 O 0.71 0.13372 0.7578 0.0
C277 C 0.75753 0.03587 0.75222 0.0
O278 O 0.77492 0.06359 0.75155 0.0
C279 C 0.65917 0.06912 0.71516 0.0
Zn280 Zn 0.75243 0.74621 0.02333 0.0
Zn281 Zn 0.79163 0.7145 0.0265 0.0
O282 O 0.79874 0.73477 0.9847 0.0
O283 O 0.76569 0.76293 0.98336 0.0
O284 O 0.82584 0.69485 0.03245 0.0
O285 O 0.76807 0.7692 0.07022 0.0
O286 O 0.79926 0.73911 0.0734 0.0
C287 C 0.78606 0.75322 0.97077 0.0
C288 C 0.72489 0.67982 0.01852 0.0
O289 O 0.7528 0.67834 0.02141 0.0
O290 O 0.71867 0.7056 0.01734 0.0
C291 C 0.83079 0.67242 0.01469 0.0
O292 O 0.81162 0.65937 0.98743 0.0
C293 C 0.78791 0.75944 0.08713 0.0
Zn294 Zn 0.94052 0.51141 0.81196 0.0
Zn295 Zn 0.91126 0.54538 0.82288 0.0
O296 O 0.93884 0.5497 0.86527 0.0
O297 O 0.93943 0.50109 0.85602 0.0
O298 O 0.88702 0.57493 0.82857 0.0
O299 O 0.97464 0.54684 0.80565 0.0
O300 O 0.93188 0.55549 0.78455 0.0
C301 C 0.94401 0.52598 0.87563 0.0
C302 C 0.8819 0.48355 0.78778 0.0
O303 O 0.88101 0.50329 0.81153 0.0
O304 O 0.90597 0.48776 0.7753 0.0
C305 C 0.8586 0.5669 0.83033 0.0
O306 O 0.84625 0.53889 0.83547 0.0
C307 C 0.95984 0.55623 0.78326 0.0
Zn308 Zn 0.86128 0.43323 0.51618 0.0
Zn309 Zn 0.8284 0.46355 0.50403 0.0
O310 O 0.82206 0.4345 0.46246 0.0
O311 O 0.86995 0.43187 0.47132 0.0
O312 O 0.79956 0.48863 0.49742 0.0
O313 O 0.82616 0.40026 0.52488 0.0
O314 O 0.81751 0.44392 0.54278 0.0
C315 C 0.84481 0.42764 0.45197 0.0
C316 C 0.89173 0.49155 0.53766 0.0
O317 O 0.87151 0.49254 0.51412 0.0
O318 O 0.88706 0.46815 0.55154 0.0
C319 C 0.80846 0.51744 0.49734 0.0
O320 O 0.83727 0.53011 0.49533 0.0
C321 C 0.81603 0.41597 0.54551 0.0
Zn322 Zn 0.62086 0.61746 0.30654 0.0
Zn323 Zn 0.65329 0.57869 0.30421 0.0
O324 O 0.63337 0.56946 0.34556 0.0
O325 O 0.60352 0.60097 0.34484 0.0
O326 O 0.67752 0.54833 0.2979 0.0
O327 O 0.59972 0.60362 0.25894 0.0
O328 O 0.62774 0.5703 0.2572 0.0
C329 C 0.6136 0.58084 0.35804 0.0
C330 C 0.68622 0.64681 0.31395 0.0
O331 O 0.68778 0.61889 0.31038 0.0
O332 O 0.66035 0.65263 0.31485 0.0
C333 C 0.68975 0.53368 0.31718 0.0
O334 O 0.68552 0.53616 0.34733 0.0
C335 C 0.60829 0.58261 0.2429 0.0
Eu336 Eu 0.10404 0.07611 0.05654 0.0
C337 C 1.00004 0.96055 0.98954 0.0
N338 N 1.01619 0.9875 0.98178 0.0
C339 C 1.01722 0.96074 0.92939 0.0
C340 C 0.99279 0.93245 0.96754 0.0
C341 C 0.02396 0.98804 0.95184 0.0
C342 C 1.00177 0.93282 0.93733 0.0
C343 C 0.97462 0.93308 0.0283 0.0
C344 C 0.99069 0.96089 0.01968 0.0
C345 C 0.96764 0.9052 0.00639 0.0
C346 C 0.97656 0.90491 0.97612 0.0
Eu347 Eu 1.02026 0.03224 0.01949 0.0
N348 N 0.99743 0.98825 0.0406 0.0
C349 C 0.96572 0.9341 0.05862 0.0
C350 C 0.98741 0.98952 0.06946 0.0
C351 C 0.97205 0.96245 0.07923 0.0
H352 H 0.0339 1.00949 0.94428 0.0
H353 H 0.9644 0.96359 0.10229 0.0
H354 H 0.08949 0.10125 0.13127 0.0
H355 H 0.16413 0.1409 0.9744 0.0
H356 H 0.98985 1.01139 0.08439 0.0
H357 H 0.9534 0.91321 0.06609 0.0
H358 H 0.13659 0.09428 0.99302 0.0
H359 H 0.02336 0.96136 0.90568 0.0
H360 H 0.95513 0.88369 0.01256 0.0
H361 H 0.97077 0.88318 0.95948 0.0
H362 H 0.09764 0.15055 0.16711 0.0
H363 H 0.99644 0.91175 0.91978 0.0
H364 H 0.17379 0.19236 0.00823 0.0
N365 N 0.10696 0.12166 0.09272 0.0
C366 C 0.12261 0.14836 0.08394 0.0
C367 C 0.10425 0.15027 0.14354 0.0
C368 C 0.12882 0.17712 0.10456 0.0
C369 C 0.09885 0.12222 0.12258 0.0
C370 C 0.11897 0.17784 0.13436 0.0
N371 N 0.12719 0.11922 0.03473 0.0
C372 C 0.13875 0.11669 0.0068 0.0
C373 C 0.15006 0.17425 0.04538 0.0
C374 C 0.1333 0.14705 0.05451 0.0
C375 C 0.16074 0.17198 0.01597 0.0
C376 C 0.15517 0.14303 0.99668 0.0
H377 H 0.12324 0.1995 0.15072 0.0
H378 H 0.14977 0.2265 0.11058 0.0
H379 H 0.1687 0.2239 0.05922 0.0
O380 O 0.14841 0.07155 0.04725 0.0
O381 O 0.07655 0.10771 0.03241 0.0
O382 O 0.02487 0.08547 0.02979 0.0
O383 O 0.14405 0.09017 0.09579 0.0
O384 O 0.09538 0.04925 0.00519 0.0
O385 O 0.04878 0.05642 0.98599 0.0
O386 O 0.9717 0.02695 0.02145 0.0
O387 O 0.05022 0.99826 0.03377 0.0
O388 O 0.09684 0.02548 0.06578 0.0
O389 O 0.9873 0.02819 0.97558 0.0
O390 O 0.02664 0.05664 0.07136 0.0
O391 O 0.07548 0.05456 0.09183 0.0
C392 C 0.04771 0.11002 0.02886 0.0
C393 C 0.18788 0.0712 0.08976 0.0
C394 C 0.23358 0.05597 0.07963 0.0
C395 C 0.24211 0.05566 0.11271 0.0
C396 C 0.19607 0.07064 0.12288 0.0
C397 C 0.22322 0.06286 0.13426 0.0
C398 C 0.20681 0.06403 0.06849 0.0
C399 C 0.07632 0.05466 0.98168 0.0
C400 C 0.16249 0.08322 0.0769 0.0
C401 C 0.14514 0.20422 0.0952 0.0
C402 C 0.15586 0.20278 0.06584 0.0
C403 C 0.07635 0.9987 0.05293 0.0
C404 C 0.94661 0.05038 0.98362 0.0
C405 C 0.9065 0.07424 0.99569 0.0
C406 C 0.91124 0.09177 0.971 0.0
C407 C 0.95175 0.0682 0.95905 0.0
C408 C 0.92399 0.05361 1.00185 0.0
C409 C 0.93404 0.08883 0.95283 0.0
C410 C 0.04713 0.05431 0.09541 0.0
C411 C 0.96449 0.02846 0.99093 0.0
H412 H 0.26306 0.04958 0.1217 0.0
H413 H 0.18201 0.07685 0.13992 0.0
H414 H 0.22977 0.06267 0.15979 0.0
H415 H 0.2012 0.06552 0.04305 0.0
H416 H 0.89754 0.10778 0.96607 0.0
H417 H 0.96932 0.06623 0.94468 0.0
H418 H 0.91973 0.03989 0.02078 0.0
H419 H 0.93797 0.1025 0.93392 0.0
Eu420 Eu 0.28304 0.80139 0.32887 0.0
C421 C 0.35842 0.76367 0.21304 0.0
N422 N 0.37242 0.78611 0.23893 0.0
C423 C 0.41656 0.76569 0.24529 0.0
C424 C 0.37261 0.74051 0.20285 0.0
C425 C 0.40119 0.78767 0.25499 0.0
C426 C 0.40206 0.74177 0.21933 0.0
C427 C 0.31431 0.74071 0.17014 0.0
C428 C 0.32963 0.76378 0.19717 0.0
C429 C 0.32777 0.71688 0.16052 0.0
C430 C 0.35692 0.71684 0.17678 0.0
Eu431 Eu 0.3436 0.81914 0.25823 0.0
N432 N 0.31724 0.78711 0.2074 0.0
C433 C 0.2863 0.74268 0.15313 0.0
C434 C 0.2918 0.79093 0.18842 0.0
C435 C 0.27543 0.76836 0.16181 0.0
H436 H 0.41195 0.80546 0.27586 0.0
H437 H 0.25469 0.77107 0.14769 0.0
H438 H 0.21758 0.81709 0.29714 0.0
H439 H 0.3534 0.84315 0.45039 0.0
H440 H 0.2841 0.81153 0.19277 0.0
H441 H 0.27368 0.72532 0.13239 0.0
H442 H 0.33229 0.80617 0.39949 0.0
H443 H 0.4393 0.76687 0.25824 0.0
H444 H 0.31613 0.69874 0.1401 0.0
H445 H 0.36725 0.69859 0.16882 0.0
H446 H 0.18816 0.85525 0.3091 0.0
H447 H 0.41379 0.72445 0.21221 0.0
H448 H 0.33096 0.88703 0.46339 0.0
N449 N 0.25065 0.83364 0.34065 0.0
C450 C 0.25939 0.85347 0.36945 0.0
C451 C 0.2083 0.85514 0.32615 0.0
C452 C 0.24392 0.8763 0.37676 0.0
C453 C 0.22505 0.83359 0.31941 0.0
C454 C 0.21804 0.87689 0.35471 0.0
N455 N 0.30039 0.83057 0.38209 0.0
C456 C 0.32308 0.82584 0.40415 0.0
C457 C 0.29623 0.87363 0.41967 0.0
C458 C 0.28535 0.85223 0.39054 0.0
C459 C 0.32173 0.87093 0.44086 0.0
C460 C 0.33463 0.84636 0.43348 0.0
H461 H 0.20543 0.89402 0.35947 0.0
H462 H 0.24396 0.9163 0.41109 0.0
H463 H 0.28975 0.91396 0.44864 0.0
O464 O 0.27927 0.76148 0.35307 0.0
O465 O 0.29906 0.85278 0.33011 0.0
O466 O 0.3248 0.83163 0.30052 0.0
O467 O 0.2378 0.77152 0.3306 0.0
O468 O 0.33381 0.79843 0.34363 0.0
O469 O 0.36913 0.81754 0.30956 0.0
O470 O 0.34843 0.8623 0.2402 0.0
O471 O 0.33677 0.77186 0.26972 0.0
O472 O 0.2924 0.77708 0.28287 0.0
O473 O 0.38953 0.84909 0.25734 0.0
O474 O 0.29509 0.82841 0.24784 0.0
O475 O 0.25977 0.7998 0.27596 0.0
C476 C 0.31978 0.85716 0.31268 0.0
C477 C 0.2376 0.75394 0.38069 0.0
C478 C 0.24308 0.74128 0.43462 0.0
C479 C 0.21861 0.75381 0.44068 0.0
C480 C 0.2132 0.76671 0.38701 0.0
C481 C 0.20376 0.76653 0.41691 0.0
C482 C 0.25237 0.74109 0.40467 0.0
C483 C 0.36211 0.80608 0.33612 0.0
C484 C 0.24937 0.75571 0.3503 0.0
C485 C 0.25522 0.89821 0.40533 0.0
C486 C 0.28136 0.89694 0.42668 0.0
C487 C 0.31302 0.76131 0.28254 0.0
C488 C 0.38866 0.87311 0.21102 0.0
C489 C 0.3766 0.87841 0.15491 0.0
C490 C 0.40775 0.88245 0.15229 0.0
C491 C 0.4199 0.87737 0.20853 0.0
C492 C 0.36719 0.87389 0.18406 0.0
C493 C 0.42937 0.88202 0.17916 0.0
C494 C 0.26647 0.81668 0.25297 0.0
C495 C 0.37805 0.86753 0.24129 0.0
H496 H 0.21116 0.75388 0.46386 0.0
H497 H 0.20163 0.77714 0.36909 0.0
H498 H 0.18506 0.77642 0.42175 0.0
H499 H 0.27121 0.73115 0.40019 0.0
H500 H 0.41534 0.88652 0.12975 0.0
H501 H 0.43685 0.87704 0.22918 0.0
H502 H 0.34297 0.87106 0.18543 0.0
H503 H 0.45348 0.88545 0.17726 0.0
Eu504 Eu 0.52146 0.05204 0.56072 0.0
C505 C 0.62798 0.11225 0.48752 0.0
N506 N 0.60257 0.0873 0.48055 0.0
C507 C 0.58992 0.09876 0.42734 0.0
C508 C 0.63466 0.13176 0.46453 0.0
C509 C 0.58425 0.07983 0.45056 0.0
C510 C 0.61501 0.12496 0.43442 0.0
C511 C 0.67524 0.14278 0.52412 0.0
C512 C 0.64816 0.11803 0.51737 0.0
C513 C 0.68137 0.16238 0.50138 0.0
C514 C 0.66111 0.15699 0.47181 0.0
Eu515 Eu 0.59957 0.0561 0.52116 0.0
N516 N 0.64141 0.09953 0.53977 0.0
C517 C 0.69548 0.14713 0.55363 0.0
C518 C 0.66079 0.10373 0.56864 0.0
C519 C 0.68811 0.12766 0.57606 0.0
H520 H 0.5658 0.05887 0.44352 0.0
H521 H 0.70358 0.13095 0.59893 0.0
H522 H 0.555 0.04847 0.63805 0.0
H523 H 0.41604 0.97881 0.48321 0.0
H524 H 0.65573 0.08792 0.58535 0.0
H525 H 0.71662 0.16576 0.55953 0.0
H526 H 0.46379 0.02143 0.49712 0.0
H527 H 0.57525 0.09274 0.40369 0.0
H528 H 0.70188 0.18174 0.50637 0.0
H529 H 0.66642 0.17221 0.45442 0.0
H530 H 0.5442 1.01552 0.67846 0.0
H531 H 0.61949 0.13934 0.41614 0.0
H532 H 0.40142 0.94545 0.52339 0.0
N533 N 0.51724 0.02118 0.60158 0.0
C534 C 0.49081 0.99739 0.59513 0.0
C535 C 0.52929 1.00988 0.65496 0.0
C536 C 0.48311 0.97871 0.61859 0.0
C537 C 0.5358 0.0282 0.6314 0.0
C538 C 0.50299 0.98494 0.64849 0.0
N539 N 0.47834 1.00959 0.54241 0.0
C540 C 0.45893 1.00551 0.5136 0.0
C541 C 0.44261 0.9684 0.5591 0.0
C542 C 0.47065 0.992 0.56532 0.0
C543 C 0.42298 0.96353 0.52911 0.0
C544 C 0.4313 0.98205 0.50621 0.0
H545 H 0.49779 0.97112 0.66708 0.0
H546 H 0.44936 0.9404 0.6298 0.0
H547 H 0.414 0.93147 0.57792 0.0
O548 O 0.48044 0.06851 0.5467 0.0
O549 O 0.52742 1.00238 0.54174 0.0
O550 O 0.57371 1.00529 0.52239 0.0
O551 O 0.50038 0.07117 0.59805 0.0
O552 O 0.53254 0.06425 0.514 0.0
O553 O 0.5558 0.03375 0.48694 0.0
O554 O 0.64075 0.0398 0.53532 0.0
O555 O 0.59391 0.10544 0.54187 0.0
O556 O 0.5468 0.10293 0.55932 0.0
O557 O 0.62133 0.03764 0.48405 0.0
O558 O 0.5898 0.04409 0.56827 0.0
O559 O 0.56556 0.07413 0.59461 0.0
C560 C 0.54771 0.98886 0.5297 0.0
C561 C 0.45447 0.08852 0.58797 0.0
C562 C 0.41398 0.11424 0.57786 0.0
C563 C 0.40924 0.11387 0.60987 0.0
C564 C 0.44945 0.08808 0.61988 0.0
C565 C 0.42685 0.1007 0.63071 0.0
C566 C 0.43648 0.10134 0.56684 0.0
C567 C 0.53112 0.04244 0.49043 0.0
C568 C 0.47852 0.0756 0.57711 0.0
C569 C 0.4555 0.95489 0.612 0.0
C570 C 0.43526 0.9499 0.5825 0.0
C571 C 0.57345 0.11914 0.55317 0.0
C572 C 0.6669 0.01959 0.49423 0.0
C573 C 0.7078 0.9943 0.50455 0.0
C574 C 0.71081 0.99238 0.47187 0.0
C575 C 0.6703 0.01773 0.46165 0.0
C576 C 0.68594 1.00812 0.51581 0.0
C577 C 0.69222 1.0042 0.45059 0.0
C578 C 0.59057 0.06562 0.59196 0.0
C579 C 0.6428 0.03263 0.50499 0.0
H580 H 0.39186 0.12379 0.61868 0.0
H581 H 0.46295 0.07795 0.63646 0.0
H582 H 0.42307 0.10039 0.65531 0.0
H583 H 0.44042 0.10202 0.54226 0.0
H584 H 0.72767 0.98177 0.46286 0.0
H585 H 0.65592 0.0266 0.44462 0.0
H586 H 0.68329 1.00916 0.54093 0.0
H587 H 0.69467 1.00271 0.42546 0.0
Eu588 Eu 0.34904 0.28777 0.79464 0.0
C589 C 0.24554 0.33585 0.72244 0.0
N590 N 0.26732 0.35128 0.74871 0.0
C591 C 0.27526 0.39783 0.72602 0.0
C592 C 0.23822 0.35097 0.69647 0.0
C593 C 0.28198 0.38185 0.75104 0.0
C594 C 0.25334 0.38233 0.69858 0.0
C595 C 0.20989 0.28766 0.69321 0.0
C596 C 0.23163 0.30442 0.72081 0.0
C597 C 0.20254 0.30273 0.66738 0.0
C598 C 0.21662 0.33427 0.66902 0.0
Eu599 Eu 0.27719 0.32252 0.78952 0.0
N600 N 0.23989 0.29012 0.7458 0.0
C601 C 0.19612 0.25622 0.69236 0.0
C602 C 0.22502 0.26 0.74585 0.0
C603 C 0.20343 0.24246 0.71898 0.0
H604 H 0.29855 0.39406 0.77242 0.0
H605 H 0.1921 0.21842 0.71904 0.0
H606 H 0.3286 0.21537 0.80983 0.0
H607 H 0.4334 0.39136 0.86745 0.0
H608 H 0.22876 0.24949 0.76676 0.0
H609 H 0.17934 0.24255 0.67159 0.0
H610 H 0.39446 0.36211 0.8209 0.0
H611 H 0.28696 0.4221 0.72792 0.0
H612 H 0.18597 0.29016 0.64597 0.0
H613 H 0.2108 0.34549 0.6488 0.0
H614 H 0.34453 0.18519 0.85052 0.0
H615 H 0.24835 0.39474 0.67913 0.0
H616 H 0.45112 0.3646 0.91076 0.0
N617 N 0.36081 0.25763 0.83338 0.0
C618 C 0.3841 0.27223 0.85858 0.0
C619 C 0.35578 0.20965 0.85313 0.0
C620 C 0.39421 0.25576 0.88216 0.0
C621 C 0.34653 0.22686 0.83034 0.0
C622 C 0.37982 0.2241 0.87906 0.0
N623 N 0.38671 0.31944 0.83857 0.0
C624 C 0.40022 0.35022 0.84009 0.0
C625 C 0.42053 0.31978 0.88819 0.0
C626 C 0.39714 0.30398 0.86149 0.0
C627 C 0.43318 0.35165 0.8906 0.0
C628 C 0.4231 0.36687 0.86632 0.0
H629 H 0.3869 0.21069 0.89673 0.0
H630 H 0.42574 0.25914 0.9268 0.0
H631 H 0.44872 0.31514 0.93211 0.0
O632 O 0.38906 0.29872 0.77052 0.0
O633 O 0.33292 0.29824 0.84257 0.0
O634 O 0.31308 0.33947 0.83596 0.0
O635 O 0.36886 0.25103 0.77708 0.0
O636 O 0.35245 0.33209 0.77392 0.0
O637 O 0.3234 0.35788 0.80122 0.0
O638 O 0.23642 0.31269 0.81282 0.0
O639 O 0.29456 0.31213 0.7421 0.0
O640 O 0.31238 0.27 0.74908 0.0
O641 O 0.25764 0.35993 0.8058 0.0
O642 O 0.2739 0.27848 0.81067 0.0
O643 O 0.30287 0.25219 0.78382 0.0
C644 C 0.32342 0.32181 0.85476 0.0
C645 C 0.41292 0.259 0.75029 0.0
C646 C 0.45864 0.26942 0.72587 0.0
C647 C 0.45623 0.23759 0.71956 0.0
C648 C 0.41072 0.22714 0.74399 0.0
C649 C 0.43235 0.21655 0.72869 0.0
C650 C 0.43703 0.28019 0.7412 0.0
C651 C 0.34479 0.35759 0.7835 0.0
C652 C 0.39008 0.26987 0.76629 0.0
C653 C 0.41773 0.27144 0.90846 0.0
C654 C 0.43074 0.30335 0.91153 0.0
C655 C 0.30274 0.28768 0.72996 0.0
C656 C 0.21312 0.35337 0.83211 0.0
C657 C 0.16798 0.34485 0.85786 0.0
C658 C 0.17109 0.37683 0.86324 0.0
C659 C 0.21588 0.38536 0.83754 0.0
C660 C 0.18899 0.33304 0.8423 0.0
C661 C 0.19492 0.39697 0.85305 0.0
C662 C 0.28115 0.25275 0.80107 0.0
C663 C 0.23603 0.34171 0.81675 0.0
H664 H 0.47288 0.2291 0.7076 0.0
H665 H 0.39227 0.21039 0.75081 0.0
H666 H 0.43056 0.192 0.72385 0.0
H667 H 0.43898 0.30484 0.74584 0.0
H668 H 0.15506 0.38618 0.87545 0.0
H669 H 0.23437 0.4015 0.83006 0.0
H670 H 0.18668 0.30831 0.83851 0.0
H671 H 0.19726 0.42165 0.8573 0.0
Eu672 Eu 0.08039 0.02314 0.53797 0.0
C673 C 0.03277 0.12429 0.6102 0.0
N674 N 1.0171 0.10378 0.58309 0.0
C675 C 0.9703 0.096 0.60455 0.0
C676 C 1.01762 0.13082 0.63603 0.0
C677 C 0.98629 0.08998 0.57968 0.0
C678 C 0.98603 0.11641 0.63289 0.0
C679 C 0.08123 0.15822 0.64114 0.0
C680 C 0.06438 0.13786 0.6127 0.0
C681 C 0.06611 0.1647 0.66685 0.0
C682 C 0.03443 0.1511 0.66428 0.0
Eu683 Eu 0.046 0.09577 0.54261 0.0
N684 N 0.07876 0.13056 0.58774 0.0
C685 C 0.11283 0.17153 0.64295 0.0
C686 C 0.10911 0.14488 0.58875 0.0
C687 C 0.12674 0.16508 0.6165 0.0
H688 H 0.97389 0.07475 0.55757 0.0
H689 H 0.15095 0.17603 0.61727 0.0
H690 H 0.14982 0.05051 0.5167 0.0
H691 H 0.98613 0.9206 0.48371 0.0
H692 H 0.11969 0.1417 0.56802 0.0
H693 H 0.12656 0.18726 0.66439 0.0
H694 H 1.01058 0.96993 0.5201 0.0
H695 H 0.94583 0.08498 0.60179 0.0
H696 H 0.07874 0.18024 0.68887 0.0
H697 H 0.02316 0.15631 0.68439 0.0
H698 H 0.17949 0.03477 0.47647 0.0
H699 H 0.97358 0.12089 0.65219 0.0
H700 H 1.01495 0.89946 0.44514 0.0
N701 N 0.11007 1.01262 0.49888 0.0
C702 C 0.09777 0.98523 0.47822 0.0
C703 C 0.15641 0.02082 0.47646 0.0
C704 C 0.11461 0.97464 0.45572 0.0
C705 C 0.13919 0.03009 0.49881 0.0
C706 C 0.14407 0.99302 0.45478 0.0
N707 N 0.05186 0.97879 0.50052 0.0
C708 C 0.02291 0.96212 0.50241 0.0
C709 C 0.05556 0.93855 0.45921 0.0
C710 C 0.06832 0.96751 0.47969 0.0
C711 C 0.02566 0.92161 0.46072 0.0
C712 C 1.00919 0.9336 0.48223 0.0
H713 H 0.15768 0.98568 0.4378 0.0
H714 H 0.11451 0.93744 0.41788 0.0
H715 H 0.06298 0.90579 0.42109 0.0
O716 O 0.07205 0.98745 0.56826 0.0
O717 O 0.06146 0.0311 0.48754 0.0
O718 O 0.03358 0.06811 0.49158 0.0
O719 O 0.1175 1.0028 0.55415 0.0
O720 O 0.03543 0.01988 0.55622 0.0
O721 O 1.00939 0.04993 0.52959 0.0
O722 O 0.05711 0.14147 0.52886 0.0
O723 O 0.05555 0.07543 0.58882 0.0
O724 O 0.09893 0.06071 0.58225 0.0
O725 O 1.00921 0.11623 0.52533 0.0
O726 O 0.08841 0.09801 0.51932 0.0
O727 O 0.11479 0.06985 0.54772 0.0
C728 C 0.04356 0.04719 0.47462 0.0
C729 C 0.11131 0.9622 0.58649 0.0
C730 C 0.10126 0.91678 0.61202 0.0
C731 C 0.13288 0.91826 0.61696 0.0
C732 C 0.14293 0.96351 0.59138 0.0
C733 C 0.15362 0.94156 0.60659 0.0
C734 C 0.09044 0.9387 0.5968 0.0
C735 C 1.00967 0.02644 0.54487 0.0
C736 C 0.09994 0.98414 0.56898 0.0
C737 C 0.10183 0.94594 0.43523 0.0
C738 C 0.07253 0.92785 0.43715 0.0
C739 C 0.08093 0.06887 0.60133 0.0
C740 C 0.02196 0.14573 0.48458 0.0
C741 C 0.03245 0.18043 0.44588 0.0
C742 C 1.01188 0.15814 0.42131 0.0
C743 C 1.00096 0.12365 0.45992 0.0
C744 C 0.03776 0.17396 0.47732 0.0
C745 C 0.9962 0.12982 0.42838 0.0
C746 C 0.11415 0.09109 0.52959 0.0
C747 C 0.02829 0.13974 0.5178 0.0
H748 H 0.14143 0.90134 0.6288 0.0
H749 H 0.15936 0.98133 0.58329 0.0
H750 H 0.17798 0.94257 0.61028 0.0
H751 H 0.06593 0.93731 0.59296 0.0
H752 H 1.00692 0.16322 0.39713 0.0
H753 H 0.98855 0.10152 0.46482 0.0
H754 H 0.05339 0.19144 0.49639 0.0
H755 H 0.97999 0.11278 0.40948 0.0
Eu756 Eu 0.3121 0.84572 0.76701 0.0
C757 C 0.2473 0.73894 0.84945 0.0
N758 N 0.27484 0.76136 0.85631 0.0
C759 C 0.26784 0.77365 0.91108 0.0
C760 C 0.22871 0.7339 0.87332 0.0
C761 C 0.28581 0.77764 0.88703 0.0
C762 C 0.23906 0.75199 0.90412 0.0
C763 C 0.21043 0.69544 0.81233 0.0
C764 C 0.23802 0.71964 0.819 0.0
C765 C 0.19175 0.69125 0.83589 0.0
C766 C 0.20082 0.71039 0.8662 0.0
Eu767 Eu 0.30204 0.76287 0.81271 0.0
N768 N 0.25589 0.72427 0.79594 0.0
C769 C 0.2025 0.67591 0.78215 0.0
C770 C 0.24975 0.70378 0.7678 0.0
C771 C 0.22253 0.67982 0.75998 0.0
H772 H 0.30869 0.7932 0.89389 0.0
H773 H 0.21739 0.66395 0.73725 0.0
H774 H 0.30867 0.82942 0.68449 0.0
H775 H 0.39416 0.94009 0.85356 0.0
H776 H 0.26645 0.70518 0.75211 0.0
H777 H 0.18149 0.65713 0.77617 0.0
H778 H 0.34462 0.90096 0.83236 0.0
H779 H 0.27651 0.78687 0.93523 0.0
H780 H 0.1704 0.67293 0.83107 0.0
H781 H 0.18634 0.70639 0.8843 0.0
H782 H 0.34358 0.84008 0.64598 0.0
H783 H 0.22544 0.74871 0.92304 0.0
H784 H 0.43357 0.95016 0.81871 0.0
N785 N 0.3423 0.85473 0.726 0.0
C786 C 0.37021 0.87607 0.73615 0.0
C787 C 0.35162 0.84981 0.67137 0.0
C788 C 0.39056 0.88363 0.71431 0.0
C789 C 0.3321 0.84324 0.69366 0.0
C790 C 0.38122 0.86956 0.68183 0.0
N791 N 0.35751 0.8856 0.78845 0.0
C792 C 0.36248 0.90344 0.81815 0.0
C793 C 0.40591 0.9155 0.7783 0.0
C794 C 0.37782 0.89211 0.76792 0.0
C795 C 0.41221 0.93217 0.80983 0.0
C796 C 0.39016 0.9264 0.82967 0.0
H797 H 0.39616 0.87488 0.66436 0.0
H798 H 0.43501 0.91164 0.70868 0.0
H799 H 0.44853 0.93931 0.76472 0.0
O800 O 0.29835 0.88826 0.78228 0.0
O801 O 0.35843 0.8348 0.78828 0.0
O802 O 0.3529 0.7886 0.81083 0.0
O803 O 0.28759 0.86498 0.73133 0.0
O804 O 0.29846 0.83049 0.81295 0.0
O805 O 0.32361 0.8066 0.84696 0.0
O806 O 0.32132 0.72628 0.79154 0.0
O807 O 0.25547 0.77004 0.78797 0.0
O808 O 0.26176 0.81738 0.76815 0.0
O809 O 0.313 0.72996 0.84123 0.0
O810 O 0.30743 0.78849 0.77335 0.0
O811 O 0.30098 0.80427 0.72821 0.0
C812 C 0.37003 0.81369 0.80172 0.0
C813 C 0.27115 0.91121 0.74185 0.0
C814 C 0.24922 0.95414 0.75371 0.0
C815 C 0.24191 0.95466 0.72055 0.0
C816 C 0.26381 0.91189 0.70861 0.0
C817 C 0.24921 0.93355 0.69807 0.0
C818 C 0.26379 0.93243 0.76448 0.0
C819 C 0.31828 0.83207 0.83911 0.0
C820 C 0.28598 0.88798 0.75236 0.0
C821 C 0.41906 0.90588 0.7251 0.0
C822 C 0.42672 0.92173 0.75698 0.0
C823 C 0.24415 0.79144 0.77509 0.0
C824 C 0.35146 0.70615 0.83028 0.0
C825 C 0.38147 0.66896 0.82394 0.0
C826 C 0.39761 0.68014 0.8558 0.0
C827 C 0.36812 0.71758 0.862 0.0
C828 C 0.35851 0.68214 0.8112 0.0
C829 C 0.39102 0.70447 0.87466 0.0
C830 C 0.30234 0.78127 0.74243 0.0
C831 C 0.32374 0.71548 0.81878 0.0
H832 H 0.23058 0.97147 0.71213 0.0
H833 H 0.26934 0.89572 0.6907 0.0
H834 H 0.24359 0.93398 0.67248 0.0
H835 H 0.26923 0.93208 0.79018 0.0
H836 H 0.41512 0.66981 0.86617 0.0
H837 H 0.3629 0.736 0.87738 0.0
H838 H 0.34565 0.67324 0.7868 0.0
H839 H 0.40336 0.71288 0.89924 0.0
Eu840 Eu 0.565 0.09552 0.00251 0.0
C841 C 0.60767 1.00979 0.11744 0.0
N842 N 0.58581 0.99933 0.09024 0.0
C843 C 0.59801 0.95046 0.08379 0.0
C844 C 0.62578 0.99069 0.12887 0.0
C845 C 0.58098 0.97033 0.07312 0.0
C846 C 0.62048 0.96065 0.11183 0.0
C847 C 0.63727 0.05216 0.15998 0.0
C848 C 0.61317 0.04019 0.13288 0.0
C849 C 0.6548 0.03297 0.17186 0.0
C850 C 0.64905 1.00232 0.15637 0.0
Eu851 Eu 0.55762 0.03357 0.07359 0.0
N852 N 0.59649 0.05858 0.12014 0.0
C853 C 0.64389 0.08339 0.17374 0.0
C854 C 0.60406 0.08949 0.13284 0.0
C855 C 0.62739 0.10216 0.1599 0.0
H856 H 0.56384 0.96248 0.05117 0.0
H857 H 0.63301 0.12662 0.1697 0.0
H858 H 0.54843 0.16205 0.02686 0.0
H859 H 0.52995 0.02377 0.88123 0.0
H860 H 0.59329 0.10521 0.12209 0.0
H861 H 0.66228 0.09343 0.19443 0.0
H862 H 0.56602 0.04814 0.93226 0.0
H863 H 0.59399 0.9274 0.07022 0.0
H864 H 0.67332 0.04182 0.19263 0.0
H865 H 0.66316 0.98797 0.16547 0.0
H866 H 0.50815 0.18867 0.01215 0.0
H867 H 0.63393 0.94531 0.11985 0.0
H868 H 0.4829 0.04117 0.86645 0.0
N869 N 0.53119 0.12544 0.98705 0.0
C870 C 0.51091 0.11413 0.95874 0.0
C871 C 0.50837 0.16746 0.99714 0.0
C872 C 0.48727 0.12819 0.94942 0.0
C873 C 0.53092 0.15223 0.0057 0.0
C874 C 0.48606 0.15507 0.96918 0.0
N875 N 0.53762 0.076 0.94856 0.0
C876 C 0.54481 0.05482 0.92708 0.0
C877 C 0.49327 0.07604 0.90955 0.0
C878 C 0.51395 0.0884 0.93909 0.0
C879 C 0.49838 0.05152 0.88924 0.0
C880 C 0.52481 0.04153 0.8976 0.0
H881 H 0.46837 0.16672 0.96277 0.0
H882 H 0.44712 0.12527 0.91344 0.0
H883 H 0.45226 0.07947 0.87857 0.0
O884 O 0.60979 0.10363 0.98836 0.0
O885 O 0.51455 0.07342 1.00063 0.0
O886 O 0.53964 0.05028 0.03098 0.0
O887 O 0.58981 0.14199 0.9966 0.0
O888 O 0.57293 0.04668 0.98788 0.0
O889 O 0.55839 1.00976 0.0222 0.0
O890 O 0.5182 0.03169 0.09716 0.0
O891 O 0.60559 0.04899 0.06502 0.0
O892 O 0.58987 0.08856 0.04949 0.0
O893 O 0.5269 0.98884 0.07714 0.0
O894 O 0.54626 0.07991 0.08775 0.0
O895 O 0.55784 0.11676 0.05306 0.0
C896 C 0.51285 0.05323 0.01929 0.0
C897 C 0.61703 0.13983 0.95335 0.0
C898 C 0.63002 0.12487 0.90116 0.0
C899 C 0.62796 0.15345 0.89275 0.0
C900 C 0.61543 0.16857 0.9451 0.0
C901 C 0.62042 0.17512 0.91467 0.0
C902 C 0.62375 0.11796 0.93095 0.0
C903 C 0.56857 0.0183 0.99572 0.0
C904 C 0.61128 0.13212 0.98486 0.0
C905 C 0.46579 0.11511 0.92074 0.0
C906 C 0.46869 0.08899 0.90091 0.0
C907 C 0.61053 0.0729 0.05071 0.0
C908 C 0.50656 0.99062 0.12575 0.0
C909 C 0.49419 1.00039 0.17905 0.0
C910 C 0.49926 0.97216 0.18535 0.0
C911 C 0.51156 0.96221 0.1319 0.0
C912 C 0.49726 1.00924 0.14929 0.0
C913 C 0.50775 0.953 0.16166 0.0
C914 C 0.54844 0.10795 0.07986 0.0
C915 C 0.51116 1.00173 0.09539 0.0
H916 H 0.63297 0.15931 0.86974 0.0
H917 H 0.61014 0.1858 0.96203 0.0
H918 H 0.61897 0.19722 0.90829 0.0
H919 H 0.62465 0.09544 0.9367 0.0
H920 H 0.49646 0.96494 0.2084 0.0
H921 H 0.51848 0.94728 0.11392 0.0
H922 H 0.49268 0.03095 0.14475 0.0
H923 H 0.51151 0.93111 0.1664 0.0
Eu924 Eu 0.2928 0.26485 0.26929 0.0
C925 C 0.4122 0.36169 0.3388 0.0
N926 N 0.38504 0.34849 0.34791 0.0
C927 C 0.41244 0.3447 0.39929 0.0
C928 C 0.44068 0.36611 0.35958 0.0
C929 C 0.38474 0.34088 0.37802 0.0
C930 C 0.44051 0.35694 0.38984 0.0
C931 C 0.4395 0.3834 0.29814 0.0
C932 C 0.41162 0.36987 0.30808 0.0
C933 C 0.46781 0.38783 0.3189 0.0
C934 C 0.4684 0.37906 0.3494 0.0
Eu935 Eu 0.33999 0.34496 0.31047 0.0
N936 N 0.38392 0.36487 0.28806 0.0
C937 C 0.43814 0.39252 0.26777 0.0
C938 C 0.38248 0.37614 0.25969 0.0
C939 C 0.40946 0.38925 0.24865 0.0
H940 H 0.36328 0.33256 0.38615 0.0
H941 H 0.40808 0.39761 0.22582 0.0
H942 H 0.27534 0.27374 0.19106 0.0
H943 H 0.21695 0.22031 0.35127 0.0
H944 H 0.36073 0.37666 0.24625 0.0
H945 H 0.45904 0.40304 0.25932 0.0
H946 H 0.26651 0.23998 0.33447 0.0
H947 H 0.41213 0.33835 0.42303 0.0
H948 H 0.48942 0.39809 0.31159 0.0
H949 H 0.4905 0.38237 0.36493 0.0
H950 H 0.22889 0.26569 0.14988 0.0
H951 H 0.46194 0.35922 0.40603 0.0
H952 H 0.16813 0.21299 0.3131 0.0
N953 N 0.2503 0.2613 0.2284 0.0
C954 C 0.222 0.24951 0.23594 0.0
C955 C 0.22665 0.26147 0.1741 0.0
C956 C 0.19485 0.24383 0.21269 0.0
C957 C 0.25299 0.26668 0.19781 0.0
C958 C 0.19748 0.25023 0.18164 0.0
N959 N 0.24661 0.24826 0.28912 0.0
C960 C 0.24569 0.23927 0.31854 0.0
C961 C 0.19108 0.23019 0.27509 0.0
C962 C 0.22012 0.24282 0.267 0.0
C963 C 0.18999 0.2228 0.30603 0.0
C964 C 0.21746 0.22708 0.32773 0.0
H965 H 0.17712 0.24622 0.16326 0.0
H966 H 0.14488 0.22732 0.20348 0.0
H967 H 0.14162 0.21504 0.25777 0.0
O968 O 0.293 0.21938 0.28046 0.0
O969 O 0.26329 0.30012 0.27751 0.0
O970 O 0.29008 0.33496 0.32243 0.0
O971 O 0.27951 0.22486 0.2308 0.0
O972 O 0.3162 0.2691 0.32235 0.0
O973 O 0.31601 0.31775 0.34459 0.0
O974 O 0.33741 0.39032 0.30113 0.0
O975 O 0.37054 0.31066 0.30193 0.0
O976 O 0.34312 0.27298 0.25929 0.0
O977 O 0.35362 0.38418 0.34992 0.0
O978 O 0.31532 0.33964 0.2578 0.0
O979 O 0.31865 0.29214 0.23617 0.0
C980 C 0.26334 0.31979 0.30353 0.0
C981 C 0.30333 0.18524 0.2397 0.0
C982 C 0.32391 0.14255 0.25043 0.0
C983 C 0.33555 0.14229 0.22151 0.0
C984 C 0.31504 0.18541 0.2107 0.0
C985 C 0.33112 0.16384 0.20168 0.0
C986 C 0.30788 0.16383 0.25931 0.0
C987 C 0.31506 0.28909 0.34746 0.0
C988 C 0.28545 0.20617 0.25012 0.0
C989 C 0.16597 0.23164 0.22095 0.0
C990 C 0.1641 0.22476 0.25197 0.0
C991 C 0.37 0.28883 0.27756 0.0
C992 C 0.32616 0.42152 0.34349 0.0
C993 C 0.30016 0.46085 0.33429 0.0
C994 C 0.28825 0.4582 0.36281 0.0
C995 C 0.31412 0.41827 0.37203 0.0
C996 C 0.31917 0.44288 0.32491 0.0
C997 C 0.29526 0.43679 0.38169 0.0
C998 C 0.31872 0.32058 0.23318 0.0
C999 C 0.34553 0.40285 0.33163 0.0
H1000 H 0.34809 0.12567 0.2145 0.0
H1001 H 0.31172 0.20193 0.19507 0.0
H1002 H 0.34007 0.16379 0.17935 0.0
H1003 H 0.29857 0.16345 0.28155 0.0
H1004 H 0.2735 0.4724 0.3702 0.0
H1005 H 0.31914 0.40157 0.38672 0.0
H1006 H 0.32837 0.44542 0.3028 0.0
H1007 H 0.28602 0.43445 0.40367 0.0
Eu1008 Eu 0.57627 0.52137 0.03978 0.0
C1009 C 0.53745 0.62656 0.11193 0.0
N1010 N 0.52177 0.6058 0.08493 0.0
C1011 C 0.47526 0.59819 0.10721 0.0
C1012 C 0.52267 0.63296 0.13814 0.0
C1013 C 0.4907 0.5929 0.08166 0.0
C1014 C 0.49139 0.61793 0.13575 0.0
C1015 C 0.58422 0.66568 0.13961 0.0
C1016 C 0.56796 0.6428 0.11282 0.0
C1017 C 0.56985 0.67123 0.16613 0.0
C1018 C 0.5392 0.65486 0.16543 0.0
Eu1019 Eu 0.55076 0.59917 0.04348 0.0
N1020 N 0.5817 0.63642 0.08723 0.0
C1021 C 0.61426 0.68273 0.13866 0.0
C1022 C 0.61046 0.65376 0.08551 0.0
C1023 C 0.62731 0.67695 0.11133 0.0
H1024 H 0.47727 0.57919 0.05918 0.0
H1025 H 0.65031 0.69034 0.11015 0.0
H1026 H 0.65087 0.54031 0.03075 0.0
H1027 H 0.47833 0.43054 0.96745 0.0
H1028 H 0.62032 0.64966 0.06418 0.0
H1029 H 0.62743 0.70061 0.15871 0.0
H1030 H 0.50607 0.47005 0.01499 0.0
H1031 H 0.45074 0.5875 0.1046 0.0
H1032 H 0.58205 0.68852 0.18707 0.0
H1033 H 0.52821 0.65989 0.18583 0.0
H1034 H 0.68158 0.53051 0.98912 0.0
H1035 H 0.47921 0.62228 0.15533 0.0
H1036 H 0.50518 0.41895 0.92243 0.0
N1037 N 0.60849 0.51124 0.00308 0.0
C1038 C 0.59465 0.48975 0.9762 0.0
C1039 C 0.65709 0.51913 0.98501 0.0
C1040 C 0.61148 0.48301 0.95194 0.0
C1041 C 0.63948 0.52501 0.00839 0.0
C1042 C 0.64296 0.49833 0.95646 0.0
N1043 N 0.54775 0.48175 0.99652 0.0
C1044 C 0.5178 0.4658 0.99521 0.0
C1045 C 0.54855 0.45206 0.94526 0.0
C1046 C 0.56347 0.4745 0.97286 0.0
C1047 C 0.51743 0.43648 0.94317 0.0
C1048 C 0.50214 0.44308 0.96847 0.0
H1049 H 0.65667 0.49385 0.93836 0.0
H1050 H 0.60899 0.45591 0.9051 0.0
H1051 H 0.55396 0.42873 0.89929 0.0
O1052 O 0.56806 0.47752 0.05657 0.0
O1053 O 0.56468 0.53659 0.99103 0.0
O1054 O 0.52863 0.56411 0.99713 0.0
O1055 O 0.61346 0.51068 0.07143 0.0
O1056 O 0.52953 0.51899 0.05369 0.0
O1057 O 0.5098 0.55625 0.03196 0.0
O1058 O 0.56746 0.63651 0.01763 0.0
O1059 O 0.58297 0.59161 0.08687 0.0
O1060 O 0.56125 0.54105 0.08473 0.0
O1061 O 0.52273 0.63065 0.03216 0.0
O1062 O 0.59044 0.59384 0.01911 0.0
O1063 O 0.61478 0.56648 0.05059 0.0
C1064 C 0.54215 0.54774 0.97867 0.0
C1065 C 0.60867 0.45747 0.07606 0.0
C1066 C 0.60442 0.40886 0.09568 0.0
C1067 C 0.63257 0.40735 0.08636 0.0
C1068 C 0.63657 0.45587 0.06632 0.0
C1069 C 0.64842 0.43069 0.07144 0.0
C1070 C 0.59257 0.43383 0.09034 0.0
C1071 C 0.50645 0.53026 0.04364 0.0
C1072 C 0.59576 0.48373 0.07355 0.0
C1073 C 0.59647 0.4612 0.92409 0.0
C1074 C 0.56512 0.44573 0.92078 0.0
C1075 C 0.57649 0.56785 0.10175 0.0
C1076 C 0.53049 0.65294 0.98552 0.0
C1077 C 0.53574 0.68894 0.94785 0.0
C1078 C 0.50874 0.67017 0.92744 0.0
C1079 C 0.50321 0.63437 0.96547 0.0
C1080 C 0.54689 0.67976 0.97636 0.0
C1081 C 0.49258 0.64289 0.93626 0.0
C1082 C 0.61585 0.58848 0.0329 0.0
C1083 C 0.54245 0.64584 0.01657 0.0
H1084 H 0.64219 0.38819 0.09063 0.0
H1085 H 0.64919 0.47403 0.05515 0.0
H1086 H 0.67007 0.42943 0.06417 0.0
H1087 H 0.57112 0.4353 0.09824 0.0
H1088 H 0.49948 0.6773 0.90552 0.0
H1089 H 0.49004 0.61378 0.97264 0.0
H1090 H 0.56777 0.69431 0.99218 0.0
H1091 H 0.47134 0.62888 0.9209 0.0
Eu1092 Eu 0.81667 0.34847 0.26935 0.0
C1093 C 0.74912 0.2409 0.3459 0.0
N1094 N 0.77674 0.26306 0.35395 0.0
C1095 C 0.76869 0.27327 0.4086 0.0
C1096 C 0.72974 0.23518 0.36895 0.0
C1097 C 0.7872 0.27824 0.38515 0.0
C1098 C 0.7397 0.25197 0.4004 0.0
C1099 C 0.71207 0.19972 0.3064 0.0
C1100 C 0.7404 0.22291 0.31485 0.0
C1101 C 0.69251 0.19487 0.32913 0.0
C1102 C 0.70136 0.21243 0.36029 0.0
Eu1103 Eu 0.80573 0.26681 0.31188 0.0
N1104 N 0.75951 0.22795 0.29293 0.0
C1105 C 0.70434 0.18173 0.27541 0.0
C1106 C 0.75322 0.20897 0.26374 0.0
C1107 C 0.72522 0.18612 0.25413 0.0
H1108 H 0.81015 0.29358 0.39272 0.0
H1109 H 0.72006 0.17149 0.23063 0.0
H1110 H 0.81283 0.32193 0.18825 0.0
H1111 H 0.90448 0.43983 0.35292 0.0
H1112 H 0.77022 0.21063 0.24843 0.0
H1113 H 0.68275 0.16379 0.26803 0.0
H1114 H 0.85387 0.4015 0.33454 0.0
H1115 H 0.77703 0.28553 0.43319 0.0
H1116 H 0.67065 0.17722 0.323 0.0
H1117 H 0.68622 0.20792 0.37771 0.0
H1118 H 0.84678 0.32939 0.14852 0.0
H1119 H 0.72554 0.24805 0.41879 0.0
H1120 H 0.94187 0.44774 0.31563 0.0
N1121 N 0.8464 0.35121 0.22774 0.0
C1122 C 0.8745 0.3727 0.23634 0.0
C1123 C 0.85505 0.34124 0.17326 0.0
C1124 C 0.89431 0.37819 0.21364 0.0
C1125 C 0.83603 0.33656 0.19633 0.0
C1126 C 0.88442 0.36181 0.18201 0.0
N1127 N 0.86423 0.38498 0.28955 0.0
C1128 C 0.87079 0.40337 0.31913 0.0
C1129 C 0.91202 0.41297 0.27653 0.0
C1130 C 0.88334 0.39031 0.26762 0.0
C1131 C 0.91998 0.43028 0.30787 0.0
C1132 C 0.89908 0.42572 0.32912 0.0
H1133 H 0.89893 0.36554 0.16391 0.0
H1134 H 0.93853 0.40464 0.20564 0.0
H1135 H 0.95407 0.43475 0.26062 0.0
O1136 O 0.80117 0.38871 0.28762 0.0
O1137 O 0.86329 0.33857 0.29186 0.0
O1138 O 0.8563 0.29296 0.31387 0.0
O1139 O 0.80658 0.37957 0.23747 0.0
O1140 O 0.80115 0.33406 0.31386 0.0
O1141 O 0.8261 0.31019 0.34698 0.0
O1142 O 0.82069 0.22537 0.2948 0.0
O1143 O 0.75947 0.27747 0.29115 0.0
O1144 O 0.76472 0.32098 0.26478 0.0
O1145 O 0.82532 0.24351 0.3468 0.0
O1146 O 0.82019 0.28396 0.26826 0.0
O1147 O 0.79525 0.30572 0.23332 0.0
C1148 C 0.87439 0.31785 0.30622 0.0
C1149 C 0.76825 0.40406 0.24788 0.0
C1150 C 0.73508 0.4381 0.25455 0.0
C1151 C 0.71738 0.42449 0.22385 0.0
C1152 C 0.75024 0.39032 0.21721 0.0
C1153 C 0.72498 0.40066 0.20529 0.0
C1154 C 0.76029 0.42767 0.26668 0.0
C1155 C 0.82033 0.33556 0.34012 0.0
C1156 C 0.79712 0.39649 0.259 0.0
C1157 C 0.92306 0.40035 0.22279 0.0
C1158 C 0.93189 0.41761 0.25409 0.0
C1159 C 0.74747 0.29671 0.27508 0.0
C1160 C 0.84365 0.19878 0.33492 0.0
C1161 C 0.87199 0.16071 0.32407 0.0
C1162 C 0.87618 0.15807 0.35699 0.0
C1163 C 0.84781 0.19571 0.36775 0.0
C1164 C 0.8555 0.18097 0.31297 0.0
C1165 C 0.86399 0.17542 0.37865 0.0
C1166 C 0.80096 0.28084 0.24169 0.0
C1167 C 0.82995 0.22294 0.32488 0.0
H1168 H 0.69793 0.4326 0.21416 0.0
H1169 H 0.75595 0.37204 0.20212 0.0
H1170 H 0.71146 0.39039 0.18151 0.0
H1171 H 0.77446 0.43884 0.29002 0.0
H1172 H 0.88884 0.14245 0.36591 0.0
H1173 H 0.83905 0.20942 0.38521 0.0
H1174 H 0.85301 0.18368 0.28775 0.0
H1175 H 0.86735 0.17337 0.40399 0.0
Eu1176 Eu 0.06802 0.59602 0.50158 0.0
C1177 C 0.11387 0.51645 0.6091 0.0
N1178 N 0.09 0.50413 0.58391 0.0
C1179 C 0.1071 0.45812 0.57446 0.0
C1180 C 0.13553 0.49984 0.61786 0.0
C1181 C 0.08659 0.47566 0.56624 0.0
C1182 C 0.13166 0.47023 0.60041 0.0
C1183 C 0.14308 0.56008 0.65046 0.0
C1184 C 0.1175 0.5463 0.62517 0.0
C1185 C 0.16459 0.54354 0.65924 0.0
C1186 C 0.16076 0.51347 0.64308 0.0
Eu1187 Eu 0.05854 0.53605 0.56837 0.0
N1188 N 0.09655 0.56204 0.61569 0.0
C1189 C 0.14649 0.59017 0.66616 0.0
C1190 C 0.09905 0.59078 0.63258 0.0
C1191 C 0.12417 0.60541 0.65742 0.0
H1192 H 0.06805 0.46652 0.54562 0.0
H1193 H 0.12611 0.62842 0.67004 0.0
H1194 H 0.04989 0.66053 0.52942 0.0
H1195 H 1.01861 0.51445 0.38679 0.0
H1196 H 0.08185 0.60285 0.62807 0.0
H1197 H 0.16593 0.6016 0.68545 0.0
H1198 H 0.05852 0.53988 0.43391 0.0
H1199 H 0.10419 0.43545 0.5605 0.0
H1200 H 0.18433 0.55385 0.6785 0.0
H1201 H 0.17765 0.50107 0.65004 0.0
H1202 H 1.00882 0.68666 0.51688 0.0
H1203 H 0.14778 0.45675 0.60645 0.0
H1204 H 0.97251 0.5338 0.37462 0.0
N1205 N 0.03157 0.6239 0.4894 0.0
C1206 C 1.00941 0.61157 0.46259 0.0
C1207 C 1.00862 0.66549 0.50152 0.0
C1208 C 0.9853 0.6255 0.45478 0.0
C1209 C 0.03174 0.65059 0.50867 0.0
C1210 C 0.98517 0.65279 0.4746 0.0
N1211 N 0.03384 0.57121 0.4519 0.0
C1212 C 0.0379 0.54767 0.43065 0.0
C1213 C 0.98728 0.57094 0.41592 0.0
C1214 C 1.0103 0.58429 0.44364 0.0
C1215 C 0.98973 0.54475 0.39608 0.0
C1216 C 1.01558 0.53361 0.40301 0.0
H1217 H 0.96708 0.66424 0.46931 0.0
H1218 H 0.94314 0.62196 0.42151 0.0
H1219 H 0.94494 0.57433 0.3874 0.0
O1220 O 0.10921 0.60477 0.4805 0.0
O1221 O 1.01913 0.57988 0.51054 0.0
O1222 O 0.03488 0.53999 0.52069 0.0
O1223 O 0.08689 0.64134 0.48827 0.0
O1224 O 0.08117 0.54985 0.48766 0.0
O1225 O 0.059 0.51204 0.51695 0.0
O1226 O 1.01754 0.53293 0.58932 0.0
O1227 O 0.10552 0.54939 0.55728 0.0
O1228 O 0.09916 0.59521 0.54781 0.0
O1229 O 0.03169 0.49112 0.5765 0.0
O1230 O 0.04595 0.58218 0.58054 0.0
O1231 O 0.07057 0.62009 0.55333 0.0
C1232 C 1.01228 0.55255 0.51772 0.0
C1233 C 0.10828 0.63606 0.44064 0.0
C1234 C 0.12241 0.61996 0.38929 0.0
C1235 C 0.11223 0.64368 0.37662 0.0
C1236 C 0.09842 0.66 0.42802 0.0
C1237 C 0.10017 0.66357 0.39598 0.0
C1238 C 0.11972 0.61591 0.42086 0.0
C1239 C 0.07443 0.52095 0.4937 0.0
C1240 C 0.1073 0.63174 0.47425 0.0
C1241 C 0.96197 0.61169 0.42775 0.0
C1242 C 0.96294 0.58449 0.40841 0.0
C1243 C 0.11657 0.57598 0.54921 0.0
C1244 C 0.99851 0.49097 0.61509 0.0
C1245 C 0.97832 0.49921 0.66422 0.0
C1246 C 0.96664 0.4672 0.66183 0.0
C1247 C 0.98657 0.45891 0.61249 0.0
C1248 C 0.99446 0.51109 0.64115 0.0
C1249 C 0.97096 0.44705 0.63602 0.0
C1250 C 0.05358 0.61123 0.57524 0.0
C1251 C 1.01163 0.50316 0.58856 0.0
H1252 H 0.11448 0.64737 0.35223 0.0
H1253 H 0.08948 0.6759 0.44286 0.0
H1254 H 0.09267 0.6821 0.38633 0.0
H1255 H 0.12736 0.59722 0.43017 0.0
H1256 H 0.95473 0.45811 0.68028 0.0
H1257 H 0.98902 0.44312 0.5921 0.0
H1258 H 1.00362 0.53596 0.64357 0.0
H1259 H 0.96233 0.42225 0.63413 0.0
Eu1260 Eu 0.84882 0.79085 0.29488 0.0
C1261 C 0.74542 0.84261 0.22363 0.0
N1262 N 0.76739 0.85667 0.25019 0.0
C1263 C 0.77492 0.90513 0.23116 0.0
C1264 C 0.73742 0.85958 0.19959 0.0
C1265 C 0.78214 0.88743 0.25434 0.0
C1266 C 0.75239 0.8912 0.20374 0.0
C1267 C 0.71031 0.79549 0.19144 0.0
C1268 C 0.73193 0.81083 0.21968 0.0
C1269 C 0.70219 0.81243 0.16762 0.0
C1270 C 0.71557 0.84437 0.17176 0.0
Eu1271 Eu 0.77694 0.82536 0.28849 0.0
N1272 N 0.74068 0.79481 0.24287 0.0
C1273 C 0.69751 0.76351 0.18785 0.0
C1274 C 0.72708 0.76388 0.24006 0.0
C1275 C 0.70578 0.7477 0.21239 0.0
H1276 H 0.79901 0.89848 0.27589 0.0
H1277 H 0.69542 0.72309 0.21021 0.0
H1278 H 0.83098 0.72011 0.31432 0.0
H1279 H 0.93267 0.89765 0.36214 0.0
H1280 H 0.73179 0.75145 0.25914 0.0
H1281 H 0.68093 0.7509 0.16647 0.0
H1282 H 0.89751 0.86432 0.31478 0.0
H1283 H 0.78663 0.92955 0.23454 0.0
H1284 H 0.68564 0.80099 0.14581 0.0
H1285 H 0.70926 0.85704 0.15299 0.0
H1286 H 0.84491 0.69366 0.35941 0.0
H1287 H 0.74698 0.90497 0.18572 0.0
H1288 H 0.94499 0.87611 0.41158 0.0
N1289 N 0.86023 0.76408 0.33717 0.0
C1290 C 0.88142 0.78077 0.36334 0.0
C1291 C 0.85525 0.71818 0.36089 0.0
C1292 C 0.88994 0.76666 0.38975 0.0
C1293 C 0.84717 0.73324 0.33552 0.0
C1294 C 0.87675 0.73494 0.38812 0.0
N1295 N 0.88546 0.82527 0.33811 0.0
C1296 C 0.9004 0.85507 0.33668 0.0
C1297 C 0.91533 0.83024 0.39144 0.0
C1298 C 0.89395 0.81228 0.3641 0.0
C1299 C 0.92849 0.86156 0.39107 0.0
C1300 C 0.9214 0.87386 0.36333 0.0
H1301 H 0.88276 0.72325 0.40789 0.0
H1302 H 0.9174 0.77423 0.43773 0.0
H1303 H 0.93962 0.82986 0.43923 0.0
O1304 O 0.89039 0.80061 0.27304 0.0
O1305 O 0.82944 0.79902 0.34122 0.0
O1306 O 0.81271 0.84189 0.33501 0.0
O1307 O 0.86861 0.7533 0.27938 0.0
O1308 O 0.85207 0.83518 0.27359 0.0
O1309 O 0.8233 0.86036 0.3018 0.0
O1310 O 0.7362 0.81398 0.31189 0.0
O1311 O 0.79417 0.81496 0.24106 0.0
O1312 O 0.81417 0.77377 0.24752 0.0
O1313 O 0.75666 0.86169 0.30565 0.0
O1314 O 0.77219 0.78028 0.30766 0.0
O1315 O 0.80317 0.75387 0.28399 0.0
C1316 C 0.82132 0.82334 0.35369 0.0
C1317 C 0.91461 0.76031 0.25551 0.0
C1318 C 0.9583 0.76856 0.22754 0.0
C1319 C 0.95909 0.73772 0.22819 0.0
C1320 C 0.91572 0.72957 0.256 0.0
C1321 C 0.93792 0.7184 0.24241 0.0
C1322 C 0.93603 0.77985 0.24133 0.0
C1323 C 0.84413 0.86051 0.28341 0.0
C1324 C 0.89098 0.77168 0.26963 0.0
C1325 C 0.91083 0.78463 0.4171 0.0
C1326 C 0.92339 0.81634 0.418 0.0
C1327 C 0.80362 0.79136 0.22879 0.0
C1328 C 0.71275 0.85419 0.33254 0.0
C1329 C 0.66724 0.84487 0.35757 0.0
C1330 C 0.67191 0.87692 0.36627 0.0
C1331 C 0.71702 0.88626 0.34118 0.0
C1332 C 0.68762 0.83342 0.34065 0.0
C1333 C 0.69666 0.8975 0.35796 0.0
C1334 C 0.7799 0.75454 0.29913 0.0
C1335 C 0.73548 0.84291 0.31656 0.0
H1336 H 0.97623 0.72862 0.21779 0.0
H1337 H 0.89946 0.71415 0.26691 0.0
H1338 H 0.93871 0.6947 0.24286 0.0
H1339 H 0.93507 0.80349 0.24045 0.0
H1340 H 0.65631 0.88596 0.37946 0.0
H1341 H 0.73636 0.90272 0.33538 0.0
H1342 H 0.68414 0.80861 0.33432 0.0
H1343 H 0.70018 0.92222 0.36472 0.0
Eu1344 Eu 0.78665 0.30807 0.83128 0.0
C1345 C 0.85257 0.24802 0.72555 0.0
N1346 N 0.86706 0.27298 0.74882 0.0
C1347 C 0.91185 0.25381 0.75758 0.0
C1348 C 0.86722 0.22458 0.71769 0.0
C1349 C 0.89629 0.27629 0.76471 0.0
C1350 C 0.8972 0.22775 0.73405 0.0
C1351 C 0.80758 0.22035 0.68505 0.0
C1352 C 0.82294 0.24587 0.70975 0.0
C1353 C 0.82186 0.19668 0.67759 0.0
C1354 C 0.85161 0.1988 0.69385 0.0
Eu1355 Eu 0.8393 0.30934 0.76136 0.0
N1356 N 0.80956 0.26906 0.7178 0.0
C1357 C 0.77867 0.2197 0.66793 0.0
C1358 C 0.78264 0.26965 0.6989 0.0
C1359 C 0.76648 0.24482 0.67442 0.0
H1360 H 0.90772 0.29648 0.78267 0.0
H1361 H 0.74485 0.24536 0.6602 0.0
H1362 H 0.71488 0.31355 0.80882 0.0
H1363 H 0.8818 0.38538 0.92383 0.0
H1364 H 0.77358 0.28931 0.7013 0.0
H1365 H 0.76616 0.20055 0.64883 0.0
H1366 H 0.85774 0.341 0.88154 0.0
H1367 H 0.93509 0.2566 0.77025 0.0
H1368 H 0.81028 0.17687 0.65888 0.0
H1369 H 0.86246 0.1805 0.68759 0.0
H1370 H 0.68201 0.34739 0.82367 0.0
H1371 H 0.90927 0.21028 0.72862 0.0
H1372 H 0.85177 0.4212 0.94161 0.0
N1373 N 0.75406 0.33947 0.84383 0.0
C1374 C 0.76607 0.36408 0.86816 0.0
C1375 C 0.70562 0.3524 0.83631 0.0
C1376 C 0.74806 0.38401 0.87744 0.0
C1377 C 0.72436 0.33341 0.82782 0.0
C1378 C 0.7175 0.3778 0.86125 0.0
N1379 N 0.8139 0.35086 0.87302 0.0
C1380 C 0.84398 0.35608 0.88786 0.0
C1381 C 0.80992 0.39591 0.90798 0.0
C1382 C 0.79676 0.36995 0.88318 0.0
C1383 C 0.84087 0.40153 0.92252 0.0
C1384 C 0.8579 0.38145 0.91247 0.0
H1385 H 0.70294 0.39255 0.86773 0.0
H1386 H 0.74757 0.42515 0.90967 0.0
H1387 H 0.80169 0.43554 0.93643 0.0
O1388 O 0.78807 0.28243 0.87067 0.0
O1389 O 0.79974 0.35462 0.81713 0.0
O1390 O 0.84192 0.34244 0.80613 0.0
O1391 O 0.74314 0.28018 0.8418 0.0
O1392 O 0.83296 0.2944 0.84347 0.0
O1393 O 0.86818 0.31603 0.81216 0.0
O1394 O 0.83924 0.33901 0.72659 0.0
O1395 O 0.82749 0.26484 0.77893 0.0
O1396 O 0.78239 0.2728 0.78728 0.0
O1397 O 0.88387 0.33252 0.74781 0.0
O1398 O 0.7936 0.3235 0.74978 0.0
O1399 O 0.75761 0.30297 0.78059 0.0
C1400 C 0.82549 0.36228 0.80676 0.0
C1401 C 0.74345 0.25129 0.88649 0.0
C1402 C 0.74927 0.22482 0.93213 0.0
C1403 C 0.71699 0.21441 0.92866 0.0
C1404 C 0.7112 0.24121 0.88314 0.0
C1405 C 0.69808 0.22273 0.90419 0.0
C1406 C 0.76226 0.24274 0.91076 0.0
C1407 C 0.86147 0.30159 0.83674 0.0
C1408 C 0.75813 0.27177 0.86601 0.0
C1409 C 0.7611 0.40963 0.90223 0.0
C1410 C 0.79192 0.41556 0.91744 0.0
C1411 C 0.80084 0.25479 0.78667 0.0
C1412 C 0.88204 0.36421 0.70519 0.0
C1413 C 0.87289 0.38906 0.65923 0.0
C1414 C 0.90466 0.40225 0.66259 0.0
C1415 C 0.91393 0.37728 0.70885 0.0
C1416 C 0.86175 0.36987 0.6801 0.0
C1417 C 0.92524 0.39617 0.68728 0.0
C1418 C 0.7649 0.31654 0.75569 0.0
C1419 C 0.8688 0.34483 0.72702 0.0
H1420 H 0.70653 0.20048 0.94517 0.0
H1421 H 0.69625 0.24784 0.8646 0.0
H1422 H 0.67327 0.21529 0.90177 0.0
H1423 H 0.78725 0.2503 0.91345 0.0
H1424 H 0.91307 0.4168 0.64577 0.0
H1425 H 0.92988 0.37295 0.72819 0.0
H1426 H 0.83703 0.35956 0.67671 0.0
H1427 H 0.94988 0.40601 0.68975 0.0
Eu1428 Eu 0.79654 0.76519 0.77373 0.0
C1429 C 0.91331 0.8607 0.83713 0.0
N1430 N 0.88597 0.84633 0.84544 0.0
C1431 C 0.91353 0.83999 0.89581 0.0
C1432 C 0.94179 0.86401 0.85758 0.0
C1433 C 0.88584 0.83746 0.87507 0.0
C1434 C 0.9416 0.85291 0.88685 0.0
C1435 C 0.94101 0.88788 0.79951 0.0
C1436 C 0.91305 0.87303 0.80846 0.0
C1437 C 0.96919 0.89076 0.81977 0.0
C1438 C 0.96959 0.87892 0.84868 0.0
Eu1439 Eu 0.84137 0.84858 0.81001 0.0
N1440 N 0.88548 0.86984 0.7889 0.0
C1441 C 0.93985 0.89936 0.77032 0.0
C1442 C 0.88417 0.88193 0.761 0.0
C1443 C 0.9113 0.89636 0.751 0.0
H1444 H 0.86477 0.83005 0.88399 0.0
H1445 H 0.91015 0.90566 0.7287 0.0
H1446 H 0.76802 0.78575 0.70285 0.0
H1447 H 0.73619 0.69578 0.85313 0.0
H1448 H 0.86221 0.88132 0.74694 0.0
H1449 H 0.96085 0.9108 0.76262 0.0
H1450 H 0.78102 0.72904 0.83707 0.0
H1451 H 0.91316 0.83273 0.91914 0.0
H1452 H 0.99087 0.90222 0.81334 0.0
H1453 H 0.99159 0.88158 0.86414 0.0
H1454 H 0.71818 0.77627 0.66735 0.0
H1455 H 0.963 0.85501 0.90312 0.0
H1456 H 0.68515 0.68128 0.81714 0.0
N1457 N 0.74986 0.7613 0.73863 0.0
C1458 C 0.72455 0.7417 0.74569 0.0
C1459 C 0.71957 0.76682 0.68956 0.0
C1460 C 0.69553 0.73467 0.72506 0.0
C1461 C 0.74792 0.77284 0.71038 0.0
C1462 C 0.6932 0.74804 0.69715 0.0
N1463 N 0.75514 0.73667 0.79433 0.0
C1464 C 0.75858 0.72478 0.82224 0.0
C1465 C 0.70141 0.70837 0.78144 0.0
C1466 C 0.72738 0.72875 0.77389 0.0
C1467 C 0.70465 0.69673 0.81041 0.0
C1468 C 0.73333 0.70509 0.83094 0.0
H1469 H 0.67125 0.74366 0.68104 0.0
H1470 H 0.64727 0.70911 0.71745 0.0
H1471 H 0.65262 0.68547 0.766 0.0
O1472 O 0.79659 0.7185 0.7762 0.0
O1473 O 0.76288 0.7922 0.79385 0.0
O1474 O 0.78888 0.84418 0.80877 0.0
O1475 O 0.79223 0.73229 0.72833 0.0
O1476 O 0.82118 0.772 0.82571 0.0
O1477 O 0.81776 0.82026 0.84476 0.0
O1478 O 0.84428 0.8962 0.80521 0.0
O1479 O 0.86941 0.82069 0.78169 0.0
O1480 O 0.84925 0.77039 0.78621 0.0
O1481 O 0.85449 0.88466 0.85276 0.0
O1482 O 0.81481 0.84301 0.75882 0.0
O1483 O 0.81774 0.79459 0.73873 0.0
C1484 C 0.76296 0.82138 0.80432 0.0
C1485 C 0.79121 0.67821 0.73203 0.0
C1486 C 0.79879 0.62926 0.74346 0.0
C1487 C 0.79021 0.61666 0.71044 0.0
C1488 C 0.78272 0.66596 0.69894 0.0
C1489 C 0.78209 0.63509 0.68823 0.0
C1490 C 0.79856 0.65956 0.75395 0.0
C1491 C 0.81683 0.79174 0.84883 0.0
C1492 C 0.79258 0.71008 0.74509 0.0
C1493 C 0.66979 0.71441 0.7327 0.0
C1494 C 0.67281 0.70095 0.76047 0.0
C1495 C 0.87244 0.79227 0.78101 0.0
C1496 C 0.8313 0.92555 0.84787 0.0
C1497 C 0.80193 0.96177 0.83587 0.0
C1498 C 0.79046 0.95981 0.86472 0.0
C1499 C 0.82033 0.92374 0.87717 0.0
C1500 C 0.82266 0.94529 0.8279 0.0
C1501 C 0.80009 0.94109 0.88561 0.0
C1502 C 0.81765 0.82297 0.73485 0.0
C1503 C 0.85025 0.9061 0.83629 0.0
H1504 H 0.79081 0.5932 0.70186 0.0
H1505 H 0.77668 0.68009 0.68157 0.0
H1506 H 0.77596 0.62572 0.66267 0.0
H1507 H 0.80526 0.66883 0.77964 0.0
H1508 H 0.77413 0.97259 0.8709 0.0
H1509 H 0.82693 0.90869 0.8932 0.0
H1510 H 0.83099 0.94687 0.80522 0.0
H1511 H 0.79144 0.93959 0.90802 0.0
Eu1512 Eu 0.60249 0.57312 0.55973 0.0
C1513 C 0.50338 0.45837 0.48969 0.0
N1514 N 0.51782 0.48569 0.48136 0.0
C1515 C 0.51824 0.45959 0.42856 0.0
C1516 C 0.49637 0.43042 0.46755 0.0
C1517 C 0.52476 0.48674 0.45115 0.0
C1518 C 0.50411 0.43133 0.43683 0.0
C1519 C 0.48159 0.42994 0.52972 0.0
C1520 C 0.49598 0.45818 0.52068 0.0
C1521 C 0.47483 0.4022 0.50768 0.0
C1522 C 0.48213 0.40245 0.47676 0.0
Eu1523 Eu 0.52099 0.52984 0.51903 0.0
N1524 N 0.50224 0.48545 0.54167 0.0
C1525 C 0.47374 0.43038 0.56048 0.0
C1526 C 0.49259 0.48604 0.57075 0.0
C1527 C 0.47905 0.45858 0.58097 0.0
H1528 H 0.53397 0.50852 0.44377 0.0
H1529 H 0.47171 0.4593 0.6042 0.0
H1530 H 0.58813 0.59791 0.63425 0.0
H1531 H 0.6695 0.63741 0.48142 0.0
H1532 H 0.4933 0.50746 0.58536 0.0
H1533 H 0.46265 0.40915 0.56823 0.0
H1534 H 0.63684 0.59181 0.49678 0.0
H1535 H 0.52364 0.46053 0.40458 0.0
H1536 H 0.46372 0.38036 0.51425 0.0
H1537 H 0.47683 0.38074 0.46026 0.0
H1538 H 0.60253 0.64576 0.67383 0.0
H1539 H 0.49921 0.41036 0.4193 0.0
H1540 H 0.68676 0.68702 0.51967 0.0
N1541 N 0.61111 0.61823 0.59869 0.0
C1542 C 0.63076 0.64394 0.59233 0.0
C1543 C 0.61031 0.64563 0.65084 0.0
C1544 C 0.64076 0.67157 0.61521 0.0
C1545 C 0.60152 0.61855 0.62783 0.0
C1546 C 0.62981 0.67227 0.64439 0.0
N1547 N 0.63126 0.61594 0.54101 0.0
C1548 C 0.64196 0.61364 0.51255 0.0
C1549 C 0.66168 0.66902 0.55593 0.0
C1550 C 0.64117 0.6427 0.56287 0.0
C1551 C 0.67127 0.66722 0.52597 0.0
C1552 C 0.66141 0.63936 0.50422 0.0
H1553 H 0.63654 0.69317 0.66219 0.0
H1554 H 0.66957 0.71886 0.62586 0.0
H1555 H 0.68792 0.71658 0.57415 0.0
O1556 O 0.64421 0.56045 0.55094 0.0
O1557 O 0.57583 0.60926 0.54427 0.0
O1558 O 0.5262 0.58267 0.51835 0.0
O1559 O 0.64109 0.58192 0.59976 0.0
O1560 O 0.59565 0.55054 0.50633 0.0
O1561 O 0.54856 0.5561 0.48652 0.0
O1562 O 0.47263 0.5221 0.5226 0.0
O1563 O 0.55597 0.49901 0.52594 0.0
O1564 O 0.58838 0.52365 0.57267 0.0
O1565 O 0.4861 0.52233 0.47575 0.0
O1566 O 0.52458 0.55414 0.57098 0.0
O1567 O 0.57247 0.5516 0.59324 0.0
C1568 C 0.54805 0.60929 0.52877 0.0
C1569 C 0.68888 0.5698 0.59319 0.0
C1570 C 0.73757 0.5634 0.58127 0.0
C1571 C 0.7483 0.56467 0.61435 0.0
C1572 C 0.69957 0.5716 0.62629 0.0
C1573 C 0.72928 0.56894 0.63679 0.0
C1574 C 0.70808 0.5664 0.57103 0.0
C1575 C 0.57652 0.55575 0.48257 0.0
C1576 C 0.6577 0.57099 0.58109 0.0
C1577 C 0.66157 0.69753 0.60851 0.0
C1578 C 0.67206 0.69624 0.57903 0.0
C1579 C 0.57465 0.49749 0.55247 0.0
C1580 C 0.44273 0.54007 0.48315 0.0
C1581 C 0.40738 0.56906 0.49877 0.0
C1582 C 0.40234 0.57602 0.46743 0.0
C1583 C 0.43736 0.5466 0.45162 0.0
C1584 C 0.42768 0.55142 0.50654 0.0
C1585 C 0.41731 0.5647 0.44391 0.0
C1586 C 0.54457 0.55308 0.59627 0.0
C1587 C 0.46364 0.52124 0.4918 0.0
H1588 H 0.77089 0.56159 0.62269 0.0
H1589 H 0.68487 0.57447 0.64385 0.0
H1590 H 0.73735 0.56966 0.66223 0.0
H1591 H 0.69989 0.56558 0.54549 0.0
H1592 H 0.38676 0.58998 0.46119 0.0
H1593 H 0.44868 0.53784 0.43306 0.0
H1594 H 0.43197 0.54695 0.53109 0.0
H1595 H 0.41332 0.5699 0.41969 0.0
Eu1596 Eu 1.02144 0.55241 0.06338 0.0
C1597 C 0.12609 0.61226 0.98626 0.0
N1598 N 0.10241 0.58574 0.97969 0.0
C1599 C 0.09042 0.59324 0.92479 0.0
C1600 C 0.13181 0.63085 0.9623 0.0
C1601 C 0.08554 0.57545 0.9491 0.0
C1602 C 0.11335 0.62122 0.9315 0.0
C1603 C 0.16998 0.64799 0.02374 0.0
C1604 C 0.14535 0.62075 0.0168 0.0
C1605 C 0.17505 0.66668 1.00002 0.0
C1606 C 0.15608 0.65814 0.96945 0.0
Eu1607 Eu 0.0995 0.55747 0.02276 0.0
N1608 N 0.13951 0.60297 0.04003 0.0
C1609 C 0.18848 0.656 0.05463 0.0
C1610 C 0.15795 0.61008 0.06978 0.0
C1611 C 0.1825 0.6369 0.07768 0.0
H1612 H 0.06895 0.55311 0.94263 0.0
H1613 H 0.19697 0.64269 0.10142 0.0
H1614 H 0.05242 0.553 0.14253 0.0
H1615 H 0.92088 0.47247 0.98413 0.0
H1616 H 0.15405 0.59477 0.08711 0.0
H1617 H 0.20748 0.67684 0.06089 0.0
H1618 H 0.96527 0.51882 0.99949 0.0
H1619 H 0.07683 0.58506 0.90069 0.0
H1620 H 0.19368 0.68782 0.00506 0.0
H1621 H 0.16058 0.67272 0.95134 0.0
H1622 H 0.04311 0.51994 0.18324 0.0
H1623 H 0.11717 0.63482 0.91246 0.0
H1624 H 0.91051 0.43595 0.02246 0.0
N1625 N 1.01876 0.52175 0.10455 0.0
C1626 C 0.99473 0.49548 0.09713 0.0
C1627 C 0.0298 0.5125 0.15895 0.0
C1628 C 0.98825 0.47624 0.1204 0.0
C1629 C 0.03548 0.53094 0.13531 0.0
C1630 C 1.00635 0.4849 0.15141 0.0
N1631 N 0.98122 0.50728 0.0445 0.0
C1632 C 0.96173 0.50233 0.01559 0.0
C1633 C 0.94993 0.46178 0.05914 0.0
C1634 C 0.97539 0.48828 0.06666 0.0
C1635 C 0.93034 0.45601 0.02903 0.0
C1636 C 0.93617 0.47648 0.00724 0.0
H1637 H 1.00182 0.47089 0.16998 0.0
H1638 H 0.95824 0.43444 0.13011 0.0
H1639 H 0.92501 0.42169 0.07652 0.0
O1640 O 0.97937 0.56725 0.04934 0.0
O1641 O 0.02727 0.50388 0.04072 0.0
O1642 O 0.07623 0.50707 0.02777 0.0
O1643 O 0.99955 0.57038 0.10063 0.0
O1644 O 0.03148 0.56713 0.01722 0.0
O1645 O 0.05467 0.53671 0.98957 0.0
O1646 O 0.14236 0.54382 0.03694 0.0
O1647 O 0.09299 0.60645 0.04231 0.0
O1648 O 0.04737 0.6033 0.06287 0.0
O1649 O 0.1191 0.53563 0.98593 0.0
O1650 O 0.08847 0.54484 0.06928 0.0
O1651 O 0.0654 0.57437 0.09748 0.0
C1652 C 0.04886 0.49059 0.03182 0.0
C1653 C 0.9529 0.58626 0.09061 0.0
C1654 C 0.91315 0.61305 0.08146 0.0
C1655 C 0.90672 0.60992 0.11255 0.0
C1656 C 0.94633 0.58323 0.1216 0.0
C1657 C 0.92327 0.59503 0.13247 0.0
C1658 C 0.93628 0.60111 0.07053 0.0
C1659 C 0.03053 0.54674 0.99246 0.0
C1660 C 0.9775 0.57442 0.07973 0.0
C1661 C 0.96336 0.44946 0.11251 0.0
C1662 C 0.94436 0.44222 0.082 0.0
C1663 C 0.07304 0.61981 0.05499 0.0
C1664 C 0.16533 0.51878 0.99573 0.0
C1665 C 0.20519 0.49235 0.00625 0.0
C1666 C 0.20502 0.48586 0.97293 0.0
C1667 C 0.16556 0.51245 0.9624 0.0
C1668 C 0.18559 0.50908 0.01776 0.0
C1669 C 0.18539 0.49609 0.95113 0.0
C1670 C 0.09014 0.56588 0.0937 0.0
C1671 C 0.14194 0.5328 0.00672 0.0
H1672 H 0.8888 0.61892 0.12137 0.0
H1673 H 0.95899 0.5717 0.1374 0.0
H1674 H 0.91824 0.59269 0.15637 0.0
H1675 H 0.94185 0.6041 0.04688 0.0
H1676 H 0.2201 0.47283 0.96385 0.0
H1677 H 0.15003 0.51965 0.94495 0.0
H1678 H 0.18534 0.51342 0.04349 0.0
H1679 H 0.18526 0.49102 0.92544 0.0
C1680 C 0.05664 0.19407 0.00622 0.0
C1681 C 0.02844 0.2016 0.00987 0.0
C1682 C 0.06273 0.16533 0.01264 0.0
C1683 C 0.04084 0.14136 0.02237 0.0
H1684 H 0.07455 0.21076 0.9986 0.0
H1685 H 0.08491 0.16174 0.00935 0.0
S1686 S 0.96276 0.14781 0.03448 0.0
N1687 N 0.97825 0.18119 0.02379 0.0
N1688 N 0.98905 0.12814 0.03449 0.0
C1689 C 1.01244 0.14844 0.02552 0.0
C1690 C 1.0065 0.17792 0.0197 0.0
C1691 C 0.21675 0.85251 0.1952 0.0
C1692 C 0.19094 0.82752 0.1808 0.0
C1693 C 0.24069 0.84897 0.21876 0.0
C1694 C 0.24 0.82028 0.22901 0.0
H1695 H 0.21854 0.87498 0.18812 0.0
H1696 H 0.26 0.86892 0.22899 0.0
S1697 S 0.17976 0.74664 0.19569 0.0
N1698 N 0.16765 0.77249 0.17683 0.0
N1699 N 0.21222 0.76588 0.22056 0.0
C1700 C 0.21455 0.79505 0.21438 0.0
C1701 C 0.19024 0.79866 0.19047 0.0
C1702 C 0.56109 0.90542 0.51312 0.0
C1703 C 0.53232 0.88435 0.51349 0.0
C1704 C 0.56568 0.93842 0.51849 0.0
C1705 C 0.54171 0.95284 0.52389 0.0
H1706 H 0.58047 0.89638 0.50887 0.0
H1707 H 0.58853 0.95282 0.51833 0.0
S1708 S 0.46035 0.90789 0.52045 0.0
N1709 N 0.47879 0.88081 0.51632 0.0
N1710 N 0.4867 0.94127 0.52446 0.0
C1711 C 0.51257 0.93172 0.5227 0.0
C1712 C 0.50812 0.89825 0.51801 0.0
C1713 C 0.5076 0.30744 0.67088 0.0
C1714 C 0.5364 0.32029 0.69158 0.0
C1715 C 0.48165 0.29291 0.68271 0.0
C1716 C 0.48367 0.29097 0.71559 0.0
H1717 H 0.50541 0.30722 0.64505 0.0
H1718 H 0.46032 0.28165 0.66583 0.0
S1719 S 0.55219 0.32385 0.78048 0.0
N1720 N 0.56451 0.33255 0.7471 0.0
N1721 N 0.5152 0.30519 0.76928 0.0
C1722 C 0.51145 0.30569 0.737 0.0
C1723 C 0.53803 0.32049 0.72498 0.0
C1724 C 0.04517 0.84056 0.61353 0.0
C1725 C 0.04829 0.84009 0.64696 0.0
C1726 C 0.0609 0.86656 0.60202 0.0
C1727 C 0.07994 0.89256 0.6237 0.0
H1728 H 0.03215 0.82017 0.5962 0.0
H1729 H 0.0596 0.86567 0.57618 0.0
S1730 S 0.09125 0.90524 0.71299 0.0
N1731 N 0.06841 0.86976 0.70138 0.0
N1732 N 0.09799 0.91827 0.67937 0.0
C1733 C 0.08117 0.89341 0.65691 0.0
C1734 C 0.06526 0.86719 0.66867 0.0
C1735 C 0.45865 0.85329 0.81445 0.0
C1736 C 0.47312 0.82962 0.8205 0.0
C1737 C 0.42589 0.84783 0.80768 0.0
C1738 C 0.4053 0.81852 0.80697 0.0
H1739 H 0.47276 0.8769 0.81734 0.0
H1740 H 0.41673 0.86736 0.80498 0.0
S1741 S 0.43086 0.74822 0.82092 0.0
N1742 N 0.4636 0.77541 0.82518 0.0
N1743 N 0.40293 0.76503 0.81201 0.0
C1744 C 0.41952 0.79444 0.81207 0.0
C1745 C 0.45288 0.80001 0.81889 0.0
C1746 C 0.54496 0.18667 0.12468 0.0
C1747 C 0.53683 0.18013 0.15444 0.0
C1748 C 0.54848 0.16345 0.10095 0.0
C1749 C 0.54335 0.13223 0.10518 0.0
H1750 H 0.54972 0.21022 0.11998 0.0
H1751 H 0.5562 0.17051 0.07955 0.0
S1752 S 0.52182 0.10264 0.1792 0.0
N1753 N 0.52419 0.13996 0.18704 0.0
N1754 N 0.52974 0.09644 0.14253 0.0
C1755 C 0.53483 0.12534 0.13486 0.0
C1756 C 0.53178 0.14912 0.15927 0.0
C1757 C 0.18723 0.34678 0.29435 0.0
C1758 C 0.17306 0.33951 0.32136 0.0
C1759 C 0.21558 0.34023 0.28892 0.0
C1760 C 0.23264 0.32643 0.31038 0.0
H1761 H 0.17621 0.35785 0.27668 0.0
H1762 H 0.22447 0.34652 0.26762 0.0
S1763 S 0.20655 0.30021 0.38406 0.0
N1764 N 0.17904 0.31552 0.36921 0.0
N1765 N 0.23201 0.3042 0.35955 0.0
C1766 C 0.21893 0.3186 0.33741 0.0
C1767 C 0.18956 0.32482 0.34273 0.0
C1768 C 1.01118 0.0596 0.17203 0.0
C1769 C 1.01782 0.03485 0.18643 0.0
C1770 C 1.02063 0.066 0.14263 0.0
C1771 C 0.03754 0.04826 0.12678 0.0
H1772 H 0.9985 0.07408 0.18344 0.0
H1773 H 1.01493 0.08512 0.1324 0.0
S1774 S 0.05816 0.97917 0.15184 0.0
N1775 N 0.04044 0.99115 0.18038 0.0
N1776 N 0.05864 1.00389 0.12637 0.0
C1777 C 0.04399 0.02343 0.14062 0.0
C1778 C 0.03402 0.01654 0.17003 0.0
C1779 C 0.25194 0.69143 0.49699 0.0
C1780 C 0.2803 0.70803 0.51669 0.0
C1781 C 0.24089 0.7013 0.46901 0.0
C1782 C 0.2582 0.72774 0.45967 0.0
H1783 H 0.23756 0.67139 0.50393 0.0
H1784 H 0.21808 0.68908 0.45543 0.0
S1785 S 0.33675 0.77515 0.499 0.0
N1786 N 0.32762 0.74905 0.52248 0.0
N1787 N 0.30693 0.76765 0.46898 0.0
C1788 C 0.28806 0.7426 0.4771 0.0
C1789 C 0.29923 0.7326 0.50591 0.0
C1790 C 0.63903 0.04424 0.65903 0.0
C1791 C 0.64211 0.06898 0.68387 0.0
C1792 C 0.62393 0.04418 0.62818 0.0
C1793 C 0.61197 0.06908 0.62169 0.0
H1794 H 0.64773 0.02459 0.66369 0.0
H1795 H 0.62039 0.02393 0.60988 0.0
S1796 S 0.62196 0.14281 0.67667 0.0
N1797 N 0.63771 0.12137 0.69908 0.0
N1798 N 0.6089 0.12127 0.64045 0.0
C1799 C 0.61742 0.09518 0.64562 0.0
C1800 C 0.63261 0.09512 0.67708 0.0
C1801 C 0.32403 0.36503 0.93923 0.0
C1802 C 0.33282 0.34555 0.96016 0.0
C1803 C 0.32076 0.35715 0.90533 0.0
C1804 C 0.32579 0.32928 0.89082 0.0
H1805 H 0.32078 0.38711 0.94913 0.0
H1806 H 0.31477 0.37336 0.89046 0.0
S1807 S 0.34443 0.26818 0.93499 0.0
N1808 N 0.34395 0.29619 0.96385 0.0
N1809 N 0.3363 0.28057 0.90066 0.0
C1810 C 0.33293 0.30894 0.9116 0.0
C1811 C 0.33683 0.31727 0.94603 0.0
C1812 C 0.02605 0.06436 0.3883 0.0
C1813 C 1.02098 0.03531 0.36859 0.0
C1814 C 0.03351 0.06799 0.42243 0.0
C1815 C 0.0351 0.04263 0.43835 0.0
H1816 H 0.02475 0.08449 0.37732 0.0
H1817 H 0.03874 0.09096 0.43646 0.0
S1818 S 1.01849 0.96102 0.39769 0.0
N1819 N 1.01572 0.98051 0.36771 0.0
N1820 N 0.02748 0.98706 0.43108 0.0
C1821 C 0.02886 1.01346 0.41877 0.0
C1822 C 0.02224 1.00988 0.38421 0.0
C1823 C 0.32256 0.71312 0.70225 0.0
C1824 C 0.29473 0.6976 0.68121 0.0
C1825 C 0.32425 0.73947 0.72417 0.0
C1826 C 0.29832 0.75096 0.7249 0.0
H1827 H 0.34343 0.70583 0.70048 0.0
H1828 H 0.34634 0.75198 0.73917 0.0
S1829 S 0.21971 0.71813 0.677 0.0
N1830 N 0.23978 0.69421 0.6649 0.0
N1831 N 0.24428 0.74558 0.70451 0.0
C1832 C 0.2703 0.73561 0.70474 0.0
C1833 C 0.26805 0.70805 0.68349 0.0
C1834 C 0.64006 0.07602 0.82642 0.0
C1835 C 0.66719 0.06777 0.8377 0.0
C1836 C 0.62726 0.09368 0.84737 0.0
C1837 C 0.64089 0.10286 0.88016 0.0
H1838 H 0.6309 0.07209 0.80073 0.0
H1839 H 0.60765 0.10156 0.83761 0.0
S1840 S 0.70955 0.08323 0.92183 0.0
N1841 N 0.70518 0.06696 0.88367 0.0
N1842 N 0.68099 0.09979 0.92354 0.0
C1843 C 0.66615 0.09204 0.8922 0.0
C1844 C 0.67918 0.07427 0.87081 0.0
C1845 C 0.31523 0.3601 0.15791 0.0
C1846 C 0.33845 0.35172 0.14248 0.0
C1847 C 0.30888 0.35032 0.18729 0.0
C1848 C 0.32511 0.33133 0.20217 0.0
H1849 H 0.30197 0.37449 0.14736 0.0
H1850 H 0.29094 0.35736 0.19822 0.0
S1851 S 0.38954 0.30485 0.17366 0.0
N1852 N 0.37867 0.32449 0.14606 0.0
N1853 N 0.36639 0.3061 0.20019 0.0
C1854 C 0.34834 0.32304 0.18717 0.0
C1855 C 0.3551 0.33322 0.15773 0.0
C1856 C 0.30192 0.05446 0.03905 0.0
C1857 C 0.28943 0.02895 0.01394 0.0
C1858 C 0.28346 0.06363 0.06003 0.0
C1859 C 0.25214 0.04774 0.05608 0.0
H1860 H 0.32652 0.06561 0.04433 0.0
H1861 H 0.29391 0.08248 0.0801 0.0
S1862 S 0.20765 0.98285 0.99077 0.0
N1863 N 0.24337 0.99058 0.98369 0.0
N1864 N 0.20851 1.00789 0.02315 0.0
C1865 C 0.23881 0.0241 0.02928 0.0
C1866 C 0.25754 1.01479 0.00804 0.0
C1867 C 0.67097 0.64796 0.99885 0.0
C1868 C 0.69947 0.65243 0.01918 0.0
C1869 C 0.64467 0.62599 0.00258 0.0
C1870 C 0.64551 0.60795 0.02732 0.0
H1871 H 0.66875 0.66227 0.98046 0.0
H1872 H 0.62319 0.62404 0.98649 0.0
S1873 S 0.71494 0.61046 0.08675 0.0
N1874 N 0.72765 0.63632 0.06416 0.0
N1875 N 0.67772 0.59558 0.07203 0.0
C1876 C 0.67418 0.61139 0.04719 0.0
C1877 C 0.70127 0.63351 0.04293 0.0
C1878 C 0.70863 0.4862 0.31867 0.0
C1879 C 0.70631 0.512 0.30409 0.0
C1880 C 0.71951 0.46272 0.30323 0.0
C1881 C 0.72819 0.46456 0.2729 0.0
H1882 H 0.70053 0.48332 0.34121 0.0
H1883 H 0.7197 0.44239 0.31424 0.0
S1884 S 0.73251 0.52988 0.2278 0.0
N1885 N 0.71809 0.53999 0.2599 0.0
N1886 N 0.73827 0.49563 0.23111 0.0
C1887 C 0.72838 0.49123 0.2594 0.0
C1888 C 0.71748 0.51507 0.27498 0.0
C1889 C 0.93215 0.54014 0.53818 0.0
C1890 C 0.92361 0.50803 0.5377 0.0
C1891 C 0.96132 0.55483 0.53222 0.0
C1892 C 0.98203 0.5375 0.5246 0.0
H1893 H 0.91604 0.55375 0.5426 0.0
H1894 H 0.96748 0.57969 0.53307 0.0
S1895 S 0.96819 0.45212 0.51566 0.0
N1896 N 0.9371 0.4592 0.52742 0.0
N1897 N 0.99053 0.48627 0.51341 0.0
C1898 C 0.97304 0.50522 0.52276 0.0
C1899 C 0.94417 0.4906 0.5302 0.0
C1900 C 0.34934 0.11171 0.32455 0.0
C1901 C 0.33746 0.07959 0.31443 0.0
C1902 C 0.34456 0.1321 0.30362 0.0
C1903 C 0.32798 0.12079 0.27204 0.0
H1904 H 0.36441 0.1209 0.34782 0.0
H1905 H 0.35493 0.15672 0.31165 0.0
S1906 S 0.2883 0.03948 0.23557 0.0
N1907 N 0.30559 0.0377 0.27206 0.0
N1908 N 0.29639 0.07662 0.23279 0.0
C1909 C 0.31396 0.08913 0.26246 0.0
C1910 C 0.31857 0.0683 0.28381 0.0
C1911 C 0.37528 0.17354 0.55178 0.0
C1912 C 0.3529 0.15666 0.52481 0.0
C1913 C 0.39632 0.16006 0.56754 0.0
C1914 C 0.39595 0.12934 0.5568 0.0
H1915 H 0.37571 0.19697 0.5619 0.0
H1916 H 0.4121 0.17332 0.58921 0.0
S1917 S 0.34602 0.07676 0.4843 0.0
N1918 N 0.33433 0.10874 0.48562 0.0
N1919 N 0.37455 0.08341 0.5155 0.0
C1920 C 0.37579 0.11298 0.52826 0.0
C1921 C 0.35405 0.12668 0.51216 0.0
C1922 C 0.71449 0.70249 0.32874 0.0
C1923 C 0.71362 0.67259 0.31399 0.0
C1924 C 0.73703 0.72833 0.32499 0.0
C1925 C 0.75948 0.72565 0.3057 0.0
H1926 H 0.69702 0.70612 0.34267 0.0
H1927 H 0.73599 0.75079 0.33657 0.0
S1928 S 0.76844 0.652 0.26331 0.0
N1929 N 0.73841 0.64119 0.28113 0.0
N1930 N 0.78021 0.69014 0.27285 0.0
C1931 C 0.75974 0.69568 0.29182 0.0
C1932 C 0.73697 0.66909 0.29626 0.0
C1933 C 0.87577 0.42761 0.77712 0.0
C1934 C 0.8623 0.452 0.78423 0.0
C1935 C 0.86354 0.39872 0.78468 0.0
C1936 C 0.83619 0.39239 0.7972 0.0
H1937 H 0.8977 0.43148 0.76881 0.0
H1938 H 0.87673 0.38189 0.78247 0.0
S1939 S 0.79026 0.44753 0.81741 0.0
N1940 N 0.81956 0.46794 0.80354 0.0
N1941 N 0.79478 0.41218 0.81494 0.0
C1942 C 0.82106 0.41583 0.80221 0.0
C1943 C 0.83438 0.44591 0.796 0.0
C1944 C 0.07159 0.90933 0.05097 0.0
C1945 C 0.09565 0.90827 0.07599 0.0
C1946 C 0.06534 0.93786 0.04394 0.0
C1947 C 0.08283 0.96765 0.06116 0.0
H1948 H 0.05735 0.88777 0.03638 0.0
H1949 H 0.04672 0.93638 0.02429 0.0
S1950 S 0.14743 0.97855 0.1305 0.0
N1951 N 0.13608 0.94056 0.11895 0.0
N1952 N 0.12502 0.99291 0.10596 0.0
C1953 C 0.10664 0.96671 0.08656 0.0
C1954 C 0.11278 0.93771 0.09383 0.0
C1955 C 0.90413 0.2725 0.90684 0.0
C1956 C 0.93583 0.28514 0.90671 0.0
C1957 C 0.8806 0.27759 0.8841 0.0
C1958 C 0.88738 0.29605 0.86021 0.0
H1959 H 0.89731 0.25862 0.92492 0.0
H1960 H 0.85679 0.26707 0.88557 0.0
S1961 S 0.96665 0.33668 0.85064 0.0
N1962 N 0.97254 0.31775 0.88073 0.0
N1963 N 0.92879 0.32852 0.83942 0.0
C1964 C 0.91903 0.30918 0.86006 0.0
C1965 C 0.94301 0.30344 0.88282 0.0
C1966 C 0.56125 0.20313 0.5635 0.0
C1967 C 0.59139 0.22365 0.57081 0.0
C1968 C 0.55587 0.17004 0.55777 0.0
C1969 C 0.5802 0.15509 0.55943 0.0
H1970 H 0.54148 0.21267 0.56187 0.0
H1971 H 0.53215 0.15599 0.55183 0.0
S1972 S 0.66321 0.19808 0.58543 0.0
N1973 N 0.64565 0.22591 0.58348 0.0
N1974 N 0.63582 0.16513 0.57443 0.0
C1975 C 0.61032 0.17555 0.5684 0.0
C1976 C 0.61576 0.20912 0.57363 0.0
C1977 C 0.61536 0.80756 0.41082 0.0
C1978 C 0.58671 0.79572 0.38956 0.0
C1979 C 0.64204 0.82158 0.39977 0.0
C1980 C 0.6411 0.8239 0.36705 0.0
H1981 H 0.61705 0.80732 0.43653 0.0
H1982 H 0.66322 0.832 0.41715 0.0
S1983 S 0.5735 0.79373 0.30068 0.0
N1984 N 0.55996 0.78504 0.33348 0.0
N1985 N 0.61065 0.81126 0.3129 0.0
C1986 C 0.61344 0.81035 0.34508 0.0
C1987 C 0.58606 0.79622 0.35629 0.0
C1988 C 0.07283 0.25093 0.41341 0.0
C1989 C 0.06061 0.27394 0.42798 0.0
C1990 C 0.06427 0.22046 0.41961 0.0
C1991 C 0.04338 0.2124 0.44057 0.0
H1992 H 0.08859 0.25633 0.39674 0.0
H1993 H 0.07367 0.20307 0.40775 0.0
S1994 S 1.00354 0.26296 0.48365 0.0
N1995 N 0.02564 0.28568 0.46393 0.0
N1996 N 1.01012 0.22877 0.47513 0.0
C1997 C 0.03127 0.23503 0.45544 0.0
C1998 C 0.03977 0.26576 0.44929 0.0
C1999 C 0.66081 0.267 0.28351 0.0
C2000 C 0.64396 0.2799 0.26074 0.0
C2001 C 0.69358 0.27253 0.28777 0.0
C2002 C 0.71197 0.29101 0.26938 0.0
H2003 H 0.64856 0.25226 0.2983 0.0
H2004 H 0.70457 0.26248 0.30629 0.0
S2005 S 0.67982 0.32942 0.20527 0.0
N2006 N 0.64905 0.31194 0.21895 0.0
N2007 N 0.70964 0.3217 0.22659 0.0
C2008 C 0.69541 0.30396 0.24642 0.0
C2009 C 0.66199 0.29852 0.24217 0.0
C2010 C 0.56581 0.96138 0.9194 0.0
C2011 C 0.58683 0.94456 0.92958 0.0
C2012 C 0.56024 0.98529 0.94066 0.0
C2013 C 0.57581 0.99395 0.97295 0.0
H2014 H 0.5511 0.95383 0.89577 0.0
H2015 H 0.54191 0.99536 0.93232 0.0
S2016 S 0.63379 0.9582 0.01186 0.0
N2017 N 0.62352 0.93881 0.97443 0.0
N2018 N 0.61388 0.98432 0.01389 0.0
C2019 C 0.5977 0.97819 0.98319 0.0
C2020 C 0.60322 0.95368 0.9616 0.0
C2021 C 0.95286 0.7993 0.75321 0.0
C2022 C 0.96047 0.77122 0.75765 0.0
C2023 C 0.92505 0.80588 0.76085 0.0
C2024 C 0.90252 0.78474 0.77302 0.0
H2025 H 0.96868 0.81663 0.74386 0.0
H2026 H 0.921 0.82776 0.75654 0.0
S2027 S 0.90936 0.70681 0.78702 0.0
N2028 N 0.94155 0.72158 0.77409 0.0
N2029 N 0.89012 0.7335 0.78755 0.0
C2030 C 0.90958 0.75637 0.77685 0.0
C2031 C 0.93805 0.74983 0.76951 0.0
C2032 C 0.1108 0.05097 0.90392 0.0
C2033 C 0.10422 0.07627 0.89052 0.0
C2034 C 0.1022 0.04411 0.93356 0.0
C2035 C 0.08637 0.06205 0.9508 0.0
H2036 H 0.12259 0.03624 0.89139 0.0
H2037 H 0.1075 0.02436 0.94275 0.0
S2038 S 0.06676 0.13273 0.92885 0.0
N2039 N 0.08318 0.12081 0.8991 0.0
N2040 N 0.06648 0.10733 0.95355 0.0
C2041 C 0.08018 0.08759 0.93805 0.0
C2042 C 0.08926 0.09485 0.90835 0.0
C2043 C 0.81864 0.37673 0.58043 0.0
C2044 C 0.81763 0.40726 0.57782 0.0
C2045 C 0.83534 0.37054 0.60794 0.0
C2046 C 0.85105 0.39467 0.63345 0.0
H2047 H 0.80955 0.35824 0.55977 0.0
H2048 H 0.83792 0.34734 0.60824 0.0
S2049 S 0.84732 0.47599 0.64315 0.0
N2050 N 0.8274 0.46013 0.60661 0.0
N2051 N 0.85907 0.44805 0.65825 0.0
C2052 C 0.84649 0.42409 0.63328 0.0
C2053 C 0.82926 0.43044 0.6055 0.0
C2054 C 0.46896 0.05167 0.42798 0.0
C2055 C 0.45947 0.02222 0.40846 0.0
C2056 C 0.49205 0.05797 0.45506 0.0
C2057 C 0.50609 0.03495 0.46326 0.0
H2058 H 0.45971 0.07048 0.42149 0.0
H2059 H 0.49968 0.08124 0.46893 0.0
S2060 S 0.48577 0.95286 0.42414 0.0
N2061 N 0.46284 0.96866 0.40199 0.0
N2062 N 0.50694 0.98108 0.45317 0.0
C2063 C 0.49557 1.00497 0.4455 0.0
C2064 C 0.47179 0.99836 0.41809 0.0
C2065 C 0.80136 0.74817 0.14367 0.0
C2066 C 0.79503 0.76902 0.12318 0.0
C2067 C 0.80441 0.75556 0.17763 0.0
C2068 C 0.80151 0.78423 0.19268 0.0
H2069 H 0.80292 0.7255 0.13333 0.0
H2070 H 0.80849 0.73838 0.1921 0.0
S2071 S 0.79005 0.84872 0.15002 0.0
N2072 N 0.78885 0.82046 0.12066 0.0
N2073 N 0.79563 0.83487 0.18391 0.0
C2074 C 0.79674 0.80577 0.17239 0.0
C2075 C 0.79323 0.79805 0.13791 0.0
C2076 C 0.07448 0.07898 0.69109 0.0
C2077 C 0.10299 0.07637 0.70692 0.0
C2078 C 0.0675 0.07598 0.65717 0.0
C2079 C 0.08898 0.07103 0.63737 0.0
H2080 H 0.05733 0.08345 0.70506 0.0
H2081 H 0.04498 0.07769 0.64647 0.0
S2082 S 0.16791 0.06429 0.66685 0.0
N2083 N 0.15329 0.06917 0.70007 0.0
N2084 N 0.14057 0.06441 0.63667 0.0
C2085 C 0.11771 0.06851 0.65292 0.0
C2086 C 0.12461 0.071 0.68749 0.0
C2087 C 0.86187 0.39203 0.41412 0.0
C2088 C 0.84028 0.40879 0.42015 0.0
C2089 C 0.85521 0.36852 0.38761 0.0
C2090 C 0.82718 0.36168 0.36598 0.0
H2091 H 0.88335 0.39578 0.43089 0.0
H2092 H 0.87186 0.35528 0.38426 0.0
S2093 S 0.76462 0.40113 0.36839 0.0
N2094 N 0.79097 0.41886 0.4007 0.0
N2095 N 0.77859 0.3744 0.35023 0.0
C2096 C 0.80619 0.37941 0.37031 0.0
C2097 C 0.8128 0.40323 0.39758 0.0
C2098 C 0.44366 0.03446 0.22721 0.0
C2099 C 0.46514 0.05182 0.25464 0.0
C2100 C 0.45347 0.0188 0.20185 0.0
C2101 C 0.48489 0.02062 0.20314 0.0
H2102 H 0.41901 0.02983 0.22695 0.0
H2103 H 0.43633 1.0036 0.18223 0.0
S2104 S 0.55042 0.07004 0.26467 0.0
N2105 N 0.51927 0.07507 0.27824 0.0
N2106 N 0.53775 0.04581 0.22993 0.0
C2107 C 0.50675 0.04112 0.22805 0.0
C2108 C 0.49681 0.05703 0.25388 0.0
C2109 C 0.82016 0.75745 0.92749 0.0
C2110 C 0.79396 0.76272 0.93944 0.0
C2111 C 0.82752 0.76658 0.89815 0.0
C2112 C 0.80923 0.78171 0.87976 0.0
H2113 H 0.83522 0.74634 0.94096 0.0
H2114 H 0.84791 0.7622 0.89005 0.0
S2115 S 0.73624 0.79742 0.89743 0.0
N2116 N 0.74821 0.78151 0.92804 0.0
N2117 N 0.76264 0.79917 0.87419 0.0
C2118 C 0.7828 0.78646 0.89098 0.0
C2119 C 0.77502 0.77684 0.92037 0.0
C2120 C 0.86914 0.0934 0.06631 0.0
C2121 C 0.83751 0.08341 0.05247 0.0
C2122 C 0.89153 0.08985 0.04784 0.0
C2123 C 0.88286 0.07667 0.015 0.0
H2124 H 0.8767 0.10527 0.09114 0.0
H2125 H 0.91573 0.0983 0.05899 0.0
S2126 S 0.8038 0.04254 0.96832 0.0
N2127 N 0.79887 0.05636 0.00464 0.0
N2128 N 0.84155 0.05025 0.97012 0.0
C2129 C 0.85162 0.06475 1.00136 0.0
C2130 C 0.82872 0.06789 0.02013 0.0
C2131 C 0.44516 0.48573 0.08344 0.0
C2132 C 0.4243 0.46642 0.05684 0.0
C2133 C 0.47061 0.50854 0.07885 0.0
C2134 C 0.47573 0.5128 0.04757 0.0
H2135 H 0.44273 0.48208 0.1078 0.0
H2136 H 0.48734 0.52182 0.09984 0.0
S2137 S 0.42741 0.46842 0.9702 0.0
N2138 N 0.40995 0.45323 0.9983 0.0
N2139 N 0.45752 0.49661 0.98977 0.0
C2140 C 0.45414 0.49475 0.02086 0.0
C2141 C 0.42846 0.4713 0.0255 0.0
C2142 C 0.42819 0.61967 0.78869 0.0
C2143 C 0.40626 0.5909 0.7772 0.0
C2144 C 0.41954 0.64528 0.80219 0.0
C2145 C 0.38866 0.64318 0.80455 0.0
H2146 H 0.45256 0.62224 0.7886 0.0
H2147 H 0.43733 0.66662 0.81199 0.0
S2148 S 0.32151 0.57483 0.77398 0.0
N2149 N 0.35167 0.56283 0.76586 0.0
N2150 N 0.3354 0.61147 0.79148 0.0
C2151 C 0.36601 0.61543 0.79097 0.0
C2152 C 0.37485 0.58912 0.77722 0.0
C2153 C 0.20054 0.57685 0.5675 0.0
C2154 C 0.21525 0.60723 0.56512 0.0
C2155 C 0.16837 0.5662 0.55996 0.0
C2156 C 0.1501 0.58615 0.55115 0.0
H2157 H 0.21374 0.562 0.57725 0.0
H2158 H 0.15785 0.5428 0.56316 0.0
S2159 S 0.17856 0.66752 0.54011 0.0
N2160 N 0.20988 0.65625 0.55103 0.0
N2161 N 0.14945 0.63711 0.53898 0.0
C2162 C 0.1648 0.61605 0.54715 0.0
C2163 C 0.19747 0.62639 0.55369 0.0
C2164 C 0.80148 0.02275 0.78375 0.0
C2165 C 0.771 1.01317 0.76638 0.0
C2166 C 0.81146 1.00579 0.80637 0.0
C2167 C 0.79111 0.97917 0.8123 0.0
H2168 H 0.81704 0.04445 0.78155 0.0
H2169 H 0.83481 1.01405 0.8201 0.0
S2170 S 0.71179 0.94051 0.76823 0.0
N2171 N 0.72252 0.97221 0.75257 0.0
N2172 N 0.74152 0.94092 0.79592 0.0
C2173 C 0.76174 0.96775 0.79317 0.0
C2174 C 0.75167 0.98457 0.76977 0.0
C2175 C 0.7494 0.93778 0.5328 0.0
C2176 C 0.77338 0.95652 0.55739 0.0
C2177 C 0.72686 0.94979 0.51737 0.0
C2178 C 0.72725 0.98087 0.52613 0.0
H2179 H 0.74883 0.91398 0.52406 0.0
H2180 H 0.70988 0.93508 0.4973 0.0
S2181 S 0.7812 0.03828 0.59265 0.0
N2182 N 0.79358 1.00676 0.59264 0.0
N2183 N 0.75057 0.02924 0.56344 0.0
C2184 C 0.74912 0.99918 0.55257 0.0
C2185 C 0.7724 0.98701 0.56827 0.0
C2186 C 0.40187 0.41169 0.74614 0.0
C2187 C 0.40785 0.4401 0.76689 0.0
C2188 C 0.37998 0.3856 0.75068 0.0
C2189 C 0.36369 0.38683 0.77653 0.0
H2190 H 0.41489 0.40939 0.72685 0.0
H2191 H 0.37665 0.36398 0.73446 0.0
S2192 S 0.37111 0.45605 0.83771 0.0
N2193 N 0.39539 0.46846 0.8137 0.0
N2194 N 0.35471 0.41909 0.82283 0.0
C2195 C 0.36864 0.41545 0.79679 0.0
C2196 C 0.39068 0.44219 0.79184 0.0
C2197 C 0.27238 0.67983 0.24799 0.0
C2198 C 0.27343 0.66611 0.27576 0.0
C2199 C 0.28702 0.71095 0.25018 0.0
C2200 C 0.30316 0.72841 0.28004 0.0
H2201 H 0.25749 0.66742 0.22545 0.0
H2202 H 0.28393 0.72189 0.22907 0.0
S2203 S 0.31756 0.70117 0.3578 0.0
N2204 N 0.29472 0.67051 0.33262 0.0
N2205 N 0.32405 0.72935 0.33631 0.0
C2206 C 0.3074 0.71415 0.307 0.0
C2207 C 0.29203 0.68257 0.30492 0.0
C2208 C 0.50511 0.66963 0.49669 0.0
C2209 C 0.52666 0.69933 0.50618 0.0
C2210 C 0.51213 0.64142 0.50374 0.0
C2211 C 0.54107 0.64057 0.52144 0.0
H2212 H 0.48244 0.66801 0.48325 0.0
H2213 H 0.49433 0.61988 0.49514 0.0
S2214 S 0.60529 0.71223 0.5536 0.0
N2215 N 0.57819 0.72559 0.53482 0.0
N2216 N 0.59098 0.6743 0.5489 0.0
C2217 C 0.56256 0.6704 0.53128 0.0
C2218 C 0.55554 0.69895 0.52354 0.0
C2219 C 0.68407 0.31419 0.7083 0.0
C2220 C 0.69067 0.32933 0.68188 0.0
C2221 C 0.70781 0.31053 0.73211 0.0
C2222 C 0.73954 0.32224 0.73119 0.0
H2223 H 0.66026 0.30413 0.71014 0.0
H2224 H 0.70105 0.29775 0.75097 0.0
S2225 S 0.76959 0.36587 0.66839 0.0
N2226 N 0.73169 0.35706 0.6572 0.0
N2227 N 0.77574 0.3515 0.70184 0.0
C2228 C 0.74634 0.33843 0.70544 0.0
C2229 C 0.72221 0.34159 0.68096 0.0
C2230 C 0.0616 0.40736 0.03022 0.0
C2231 C 0.03234 0.38655 0.01666 0.0
C2232 C 0.06654 0.44036 0.03514 0.0
C2233 C 0.04267 0.45484 0.02652 0.0
H2234 H 0.08096 0.39809 0.03735 0.0
H2235 H 0.08947 0.45474 0.04603 0.0
S2236 S 0.96355 0.41125 0.98344 0.0
N2237 N 0.98023 0.38364 0.99102 0.0
N2238 N 0.98957 0.44439 0.99907 0.0
C2239 C 1.01373 0.43418 0.01162 0.0
C2240 C 1.00864 0.40068 0.00699 0.0
C2241 C 1.0077 0.79215 0.16627 0.0
C2242 C 0.0295 0.81945 0.18305 0.0
C2243 C 0.9837 0.77688 0.18029 0.0
C2244 C 0.98051 0.78825 0.21164 0.0
H2245 H 1.00971 0.78182 0.1424 0.0
H2246 H 0.9681 0.75535 0.16693 0.0
S2247 S 0.02902 0.86063 0.26448 0.0
N2248 N 0.04463 0.8588 0.23161 0.0
N2249 N 0.99917 0.82976 0.25814 0.0
C2250 C 1.0007 0.81661 0.22794 0.0
C2251 C 0.02533 0.8323 0.21358 0.0
C2252 C 0.5425 0.34374 0.11386 0.0
C2253 C 0.55539 0.33996 0.14483 0.0
C2254 C 0.55844 0.36628 0.09804 0.0
C2255 C 0.58787 0.38541 0.11256 0.0
H2256 H 0.5203 0.32878 0.10141 0.0
H2257 H 0.54799 0.3684 0.07409 0.0
S2258 S 0.62982 0.38852 0.19494 0.0
N2259 N 0.59807 0.36005 0.19076 0.0
N2260 N 0.62784 0.40192 0.16049 0.0
C2261 C 0.60039 0.38302 0.14393 0.0
C2262 C 0.58418 0.3604 0.16022 0.0
C2263 C 0.96409 0.34758 0.31047 0.0
C2264 C 0.97665 0.3295 0.33081 0.0
C2265 C 0.93146 0.34347 0.30204 0.0
C2266 C 0.9095 0.32177 0.31417 0.0
H2267 H 0.97957 0.36599 0.30211 0.0
H2268 H 0.92354 0.35775 0.2861 0.0
S2269 S 0.93028 0.26827 0.36826 0.0
N2270 N 0.96393 0.28833 0.36205 0.0
N2271 N 0.90406 0.28136 0.34745 0.0
C2272 C 0.92201 0.30318 0.33397 0.0
C2273 C 0.95492 0.30696 0.34198 0.0
C2274 C 0.05674 0.68995 0.62527 0.0
C2275 C 0.03693 0.68191 0.64747 0.0
C2276 C 0.06159 0.66729 0.6017 0.0
C2277 C 0.0465 0.63552 0.59884 0.0
H2278 H 0.06965 0.71385 0.62698 0.0
H2279 H 0.07802 0.67476 0.58624 0.0
S2280 S 0.98961 0.60267 0.64888 0.0
N2281 N 1.00077 0.64009 0.66369 0.0
N2282 N 1.00877 0.59791 0.61914 0.0
C2283 C 0.02559 0.62746 0.62007 0.0
C2284 C 1.02112 0.65045 0.64435 0.0
C2285 C 0.70636 0.8687 0.83371 0.0
C2286 C 0.67763 0.84683 0.83298 0.0
C2287 C 0.73271 0.86039 0.82397 0.0
C2288 C 0.73294 0.82933 0.81321 0.0
H2289 H 0.7088 0.89295 0.84241 0.0
H2290 H 0.75349 0.87885 0.82554 0.0
S2291 S 0.66498 0.76205 0.80985 0.0
N2292 N 0.65218 0.79203 0.82189 0.0
N2293 N 0.70085 0.77632 0.80481 0.0
C2294 C 0.70438 0.80711 0.81281 0.0
C2295 C 0.67728 0.81575 0.82228 0.0
C2296 C 0.54242 0.52851 0.67905 0.0
C2297 C 0.51736 0.53769 0.68955 0.0
C2298 C 0.55114 0.53425 0.64945 0.0
C2299 C 0.53511 0.54921 0.62841 0.0
H2300 H 0.55541 0.51638 0.69371 0.0
H2301 H 0.57034 0.52611 0.64271 0.0
S2302 S 0.46865 0.57946 0.64442 0.0
N2303 N 0.47721 0.56384 0.67654 0.0
N2304 N 0.49356 0.57424 0.62077 0.0
C2305 C 0.51034 0.55909 0.63865 0.0
C2306 C 0.50154 0.5535 0.66915 0.0
C2307 C 0.78625 0.18016 0.98762 0.0
C2308 C 0.80578 0.20391 0.012 0.0
C2309 C 0.7682 0.18713 0.96153 0.0
C2310 C 0.76988 0.21795 0.9585 0.0
H2311 H 0.78263 0.15603 0.99008 0.0
H2312 H 0.75217 0.16835 0.94419 0.0
S2313 S 0.82134 0.28833 0.01234 0.0
N2314 N 0.82846 0.25922 0.02922 0.0
N2315 N 0.79519 0.27241 0.97937 0.0
C2316 C 0.79145 0.24185 0.98082 0.0
C2317 C 0.80945 0.23477 0.00767 0.0
C2318 C 0.13732 0.59894 0.17574 0.0
C2319 C 0.1526 0.57615 0.18152 0.0
C2320 C 0.11801 0.59601 0.14636 0.0
C2321 C 0.11338 0.57011 0.12229 0.0
H2322 H 0.14026 0.61906 0.19403 0.0
H2323 H 0.10614 0.61377 0.14269 0.0
S2324 S 0.14978 0.50506 0.12525 0.0
N2325 N 0.16355 0.52791 0.16065 0.0
N2326 N 0.12658 0.52202 0.10521 0.0
C2327 C 0.12953 0.54776 0.12726 0.0
C2328 C 0.14937 0.55089 0.15709 0.0
C2329 C 0.82763 0.8677 0.43901 0.0
C2330 C 0.83125 0.84576 0.45909 0.0
C2331 C 0.824 0.86026 0.40503 0.0
C2332 C 0.82348 0.83046 0.38967 0.0
H2333 H 0.82879 0.89118 0.44967 0.0
H2334 H 0.82228 0.87824 0.39081 0.0
S2335 S 0.82661 0.76334 0.43125 0.0
N2336 N 0.83122 0.79241 0.461 0.0
N2337 N 0.82283 0.77786 0.39755 0.0
C2338 C 0.82535 0.80793 0.40954 0.0
C2339 C 0.82965 0.81571 0.44406 0.0
C2340 C 0.54631 0.53024 0.88865 0.0
C2341 C 0.51952 0.5363 0.87263 0.0
C2342 C 0.55328 0.53401 0.92264 0.0
C2343 C 0.53357 0.54352 0.94243 0.0
H2344 H 0.56213 0.52245 0.87478 0.0
H2345 H 0.57452 0.52951 0.93341 0.0
S2346 S 0.45849 0.55878 0.91258 0.0
N2347 N 0.47219 0.55073 0.87939 0.0
N2348 N 0.48467 0.55652 0.94288 0.0
C2349 C 0.50632 0.54898 0.92671 0.0
C2350 C 0.49948 0.54571 0.89204 0.0
C2351 C 0.8119 0.21284 0.18947 0.0
C2352 C 0.78344 0.2026 0.16804 0.0
C2353 C 0.81711 0.23785 0.21432 0.0
C2354 C 0.79411 0.25325 0.21793 0.0
H2355 H 0.83085 0.20285 0.18588 0.0
H2356 H 0.83973 0.24613 0.22969 0.0
S2357 S 0.71381 0.23155 0.17314 0.0
N2358 N 0.7301 0.20623 0.1561 0.0
N2359 N 0.74109 0.25475 0.20186 0.0
C2360 C 0.765 0.24207 0.19839 0.0
C2361 C 0.75922 0.21599 0.17385 0.0
C2362 C 0.1418 0.56958 0.32117 0.0
C2363 C 0.17237 0.56983 0.33369 0.0
C2364 C 0.12515 0.58512 0.33965 0.0
C2365 C 0.13856 0.601 0.37109 0.0
H2366 H 0.13172 0.55993 0.29608 0.0
H2367 H 0.10223 0.58584 0.32887 0.0
S2368 S 0.21666 0.60587 0.41574 0.0
N2369 N 0.21408 0.5845 0.38028 0.0
N2370 N 0.1832 0.6144 0.4147 0.0
C2371 C 0.16815 0.59937 0.38465 0.0
C2372 C 0.18484 0.58331 0.36608 0.0
C2373 C 0.81428 0.86027 0.65814 0.0
C2374 C 0.83699 0.85084 0.64272 0.0
C2375 C 0.80816 0.85161 0.68802 0.0
C2376 C 0.82416 0.83278 0.70349 0.0
H2377 H 0.80114 0.87453 0.64713 0.0
H2378 H 0.7905 0.85933 0.69884 0.0
S2379 S 0.8874 0.80378 0.67526 0.0
N2380 N 0.87674 0.82296 0.64704 0.0
N2381 N 0.86466 0.80637 0.702 0.0
C2382 C 0.84697 0.82346 0.68856 0.0
C2383 C 0.85353 0.83256 0.65859 0.0
C2384 C 0.75809 0.5225 0.50804 0.0
C2385 C 0.79003 0.5359 0.51195 0.0
C2386 C 0.74112 0.53226 0.53017 0.0
C2387 C 0.75549 0.55608 0.5566 0.0
H2388 H 0.74667 0.50258 0.48938 0.0
H2389 H 0.71698 0.51986 0.52755 0.0
S2390 S 0.83716 0.60222 0.57437 0.0
N2391 N 0.83469 0.57648 0.54199 0.0
N2392 N 0.80204 0.5957 0.58306 0.0
C2393 C 0.78666 0.57158 0.55911 0.0
C2394 C 0.80411 0.56146 0.53667 0.0
C2395 C 0.17014 0.14892 0.49442 0.0
C2396 C 0.19755 0.15575 0.51726 0.0
C2397 C 0.14361 0.1269 0.49788 0.0
C2398 C 0.1435 0.11129 0.52455 0.0
H2399 H 0.16901 0.16121 0.47414 0.0
H2400 H 0.12279 0.12266 0.47997 0.0
S2401 S 0.20913 0.12249 0.59216 0.0
N2402 N 0.22305 0.14585 0.56773 0.0
N2403 N 0.17306 0.10486 0.57466 0.0
C2404 C 0.17101 0.1176 0.54733 0.0
C2405 C 0.19808 0.13979 0.54359 0.0
C2406 C 0.20104 0.99338 0.79985 0.0
C2407 C 0.21902 0.02439 0.80641 0.0
C2408 C 0.21216 0.96984 0.78518 0.0
C2409 C 0.24148 0.97676 0.77664 0.0
H2410 H 0.17762 0.98752 0.80452 0.0
H2411 H 0.19706 0.94653 0.77857 0.0
S2412 S 0.29864 0.05318 0.79095 0.0
N2413 N 0.26856 0.06014 0.80538 0.0
N2414 N 0.28927 1.0155 0.77765 0.0
C2415 C 0.26052 1.00705 0.78501 0.0
C2416 C 0.24933 0.03106 0.80005 0.0
C2417 C 0.45049 0.99023 0.03656 0.0
C2418 C 0.42684 1.00485 0.04019 0.0
C2419 C 0.47835 1.00632 0.0296 0.0
C2420 C 0.48414 0.03782 0.02816 0.0
H2421 H 0.44672 0.96561 0.03667 0.0
H2422 H 0.49514 0.99381 0.0244 0.0
S2423 S 0.42987 0.08672 0.03491 0.0
N2424 N 0.41036 0.05224 0.04015 0.0
N2425 N 0.46441 0.08334 0.02975 0.0
C2426 C 0.46109 0.05303 0.03217 0.0
C2427 C 0.43209 0.03635 0.03795 0.0
C2428 C 0.85449 0.6143 0.80968 0.0
C2429 C 0.83944 0.58467 0.81476 0.0
C2430 C 0.84112 0.62804 0.78612 0.0
C2431 C 0.81181 0.61319 0.76749 0.0
H2432 H 0.87775 0.62608 0.82237 0.0
H2433 H 0.85415 0.65023 0.78189 0.0
S2434 S 0.75975 0.5391 0.77644 0.0
N2435 N 0.79174 0.54292 0.80258 0.0
N2436 N 0.76594 0.57011 0.7589 0.0
C2437 C 0.7952 0.58507 0.77427 0.0
C2438 C 0.80905 0.57063 0.7981 0.0
C2439 C 0.87351 0.67297 0.05853 0.0
C2440 C 0.85551 0.65895 0.0279 0.0
C2441 C 0.89331 0.65856 0.07486 0.0
C2442 C 0.89607 0.62966 0.06119 0.0
H2443 H 0.87138 0.69471 0.07086 0.0
H2444 H 0.90577 0.66962 0.09892 0.0
S2445 S 0.85863 0.58559 0.97941 0.0
N2446 N 0.84492 0.61634 0.98273 0.0
N2447 N 0.88254 0.58909 0.01378 0.0
C2448 C 0.88041 0.61648 0.02952 0.0
C2449 C 0.85998 0.63117 0.01278 0.0
C2450 C 0.21986 0.19954 0.8345 0.0
C2451 C 0.21554 0.17069 0.81513 0.0
C2452 C 0.24262 0.22541 0.83109 0.0
C2453 C 0.2615 0.22362 0.80761 0.0
H2454 H 0.20485 0.20237 0.85175 0.0
H2455 H 0.24448 0.24732 0.84614 0.0
S2456 S 0.26006 0.15274 0.75163 0.0
N2457 N 0.23297 0.14105 0.77295 0.0
N2458 N 0.27511 0.19009 0.76552 0.0
C2459 C 0.25836 0.1945 0.78902 0.0
C2460 C 0.23548 0.16792 0.793 0.0
C2461 C 0.37857 0.92412 0.29712 0.0
C2462 C 0.36108 0.94492 0.28991 0.0
C2463 C 0.3648 0.89584 0.30517 0.0
C2464 C 0.33302 0.88695 0.30454 0.0
H2465 H 0.4034 0.93039 0.29833 0.0
H2466 H 0.37912 0.88082 0.31188 0.0
S2467 S 0.27764 0.93412 0.2907 0.0
N2468 N 0.31107 0.95624 0.28605 0.0
N2469 N 0.28445 0.90131 0.29877 0.0
C2470 C 0.31518 0.90753 0.29801 0.0
C2471 C 0.32943 0.93695 0.29094 0.0
C2472 C 0.59815 0.43348 0.59897 0.0
C2473 C 0.59402 0.40698 0.57495 0.0
C2474 C 0.59221 0.46202 0.59164 0.0
C2475 C 0.58086 0.46613 0.55981 0.0
H2476 H 0.60679 0.43248 0.62387 0.0
H2477 H 0.59646 0.48113 0.61144 0.0
S2478 S 0.56437 0.40393 0.48773 0.0
N2479 N 0.5769 0.38739 0.5176 0.0
N2480 N 0.56539 0.43946 0.50417 0.0
C2481 C 0.57603 0.43953 0.53575 0.0
C2482 C 0.58267 0.41074 0.54314 0.0
C2483 C 0.41789 0.80872 0.41426 0.0
C2484 C 0.43416 0.78682 0.4056 0.0
C2485 C 0.39561 0.81558 0.39154 0.0
C2486 C 0.38778 0.80032 0.35917 0.0
H2487 H 0.42291 0.82126 0.43882 0.0
H2488 H 0.38472 0.83332 0.39939 0.0
S2489 S 0.4217 0.73949 0.32411 0.0
N2490 N 0.44035 0.74963 0.36197 0.0
N2491 N 0.39721 0.7611 0.32002 0.0
C2492 C 0.40355 0.77813 0.35018 0.0
C2493 C 0.42694 0.7717 0.37313 0.0
C2494 C 0.11358 0.70863 0.06151 0.0
C2495 C 0.09151 0.72434 0.06997 0.0
C2496 C 0.10769 0.67562 0.05708 0.0
C2497 C 0.07922 0.65567 0.0603 0.0
H2498 H 0.13618 0.72204 0.05906 0.0
H2499 H 0.12602 0.66574 0.05153 0.0
S2500 S 1.01256 0.68408 0.08105 0.0
N2501 N 0.03933 0.71627 0.08105 0.0
N2502 N 0.02819 0.65539 0.07199 0.0
C2503 C 0.05681 0.67111 0.06845 0.0
C2504 C 0.06292 0.70477 0.0734 0.0
C2505 C 0.08809 0.29816 0.862 0.0
C2506 C 0.09032 0.29724 0.89533 0.0
C2507 C 0.11408 0.31172 0.84933 0.0
C2508 C 0.14299 0.32441 0.86956 0.0
H2509 H 0.06589 0.28997 0.84589 0.0
H2510 H 0.11125 0.3138 0.82396 0.0
S2511 S 0.16238 0.32355 0.95713 0.0
N2512 N 0.12485 0.30697 0.94744 0.0
N2513 N 0.17343 0.33248 0.92329 0.0
C2514 C 0.14608 0.32164 0.90226 0.0
C2515 C 0.11977 0.30799 0.91525 0.0
C2516 C 0.56995 0.75459 0.90594 0.0
C2517 C 0.56887 0.78054 0.92753 0.0
C2518 C 0.56029 0.7247 0.91309 0.0
C2519 C 0.54979 0.72018 0.94213 0.0
H2520 H 0.57584 0.75712 0.88236 0.0
H2521 H 0.55981 0.70498 0.89532 0.0
S2522 S 0.54587 0.78065 0.00822 0.0
N2523 N 0.55948 0.79992 0.98055 0.0
N2524 N 0.54095 0.74377 0.99358 0.0
C2525 C 0.55083 0.74602 0.96492 0.0
C2526 C 0.56065 0.77627 0.95776 0.0
C2527 C 0.15663 0.75848 0.77726 0.0
C2528 C 0.14122 0.77674 0.75989 0.0
C2529 C 0.18923 0.7633 0.78172 0.0
C2530 C 0.20887 0.78651 0.76908 0.0
H2531 H 0.14336 0.73988 0.78737 0.0
H2532 H 0.19901 0.7487 0.79567 0.0
S2533 S 0.18103 0.84159 0.72195 0.0
N2534 N 0.14907 0.81979 0.73015 0.0
N2535 N 0.20951 0.82853 0.73848 0.0
C2536 C 0.19382 0.80519 0.75186 0.0
C2537 C 0.16051 0.80035 0.74728 0.0
C2538 C 0.1113 0.46406 0.4496 0.0
C2539 C 0.08603 0.44418 0.42722 0.0
C2540 C 0.1079 0.49003 0.46993 0.0
C2541 C 0.07885 0.49622 0.4695 0.0
H2542 H 0.13319 0.4582 0.45319 0.0
H2543 H 0.12765 0.50415 0.48753 0.0
S2544 S 1.00519 0.45062 0.41676 0.0
N2545 N 0.03117 0.43332 0.4057 0.0
N2546 N 0.02441 0.48 0.44557 0.0
C2547 C 0.05363 0.47689 0.44704 0.0
C2548 C 0.05737 0.45158 0.42541 0.0
C2549 C 0.45848 0.29204 0.28452 0.0
C2550 C 0.46076 0.27306 0.25612 0.0
C2551 C 0.42967 0.29676 0.29111 0.0
C2552 C 0.40087 0.28261 0.27005 0.0
H2553 H 0.4793 0.30354 0.30201 0.0
H2554 H 0.43008 0.31133 0.3135 0.0
S2555 S 0.39322 0.2287 0.19306 0.0
N2556 N 0.43083 0.23921 0.20705 0.0
N2557 N 0.3775 0.24691 0.21965 0.0
C2558 C 0.40289 0.26297 0.24183 0.0
C2559 C 0.43232 0.25863 0.23485 0.0
C2560 C 0.6194 0.55735 0.40976 0.0
C2561 C 0.60308 0.5722 0.3887 0.0
C2562 C 0.61083 0.55179 0.43985 0.0
C2563 C 0.58555 0.56081 0.45027 0.0
H2564 H 0.63937 0.55054 0.40332 0.0
H2565 H 0.62429 0.54057 0.45517 0.0
S2566 S 0.53405 0.59888 0.40348 0.0
N2567 N 0.55934 0.59429 0.38021 0.0
N2568 N 0.54379 0.58448 0.43601 0.0
C2569 C 0.5687 0.57493 0.42898 0.0
C2570 C 0.57731 0.58048 0.39856 0.0
C2571 C 0.32809 0.91459 0.10095 0.0
C2572 C 0.32116 0.89342 0.07172 0.0
C2573 C 0.34461 0.90863 0.12874 0.0
C2574 C 0.35403 0.88125 0.128 0.0
H2575 H 0.32421 0.93739 0.10153 0.0
H2576 H 0.35213 0.92649 0.15008 0.0
S2577 S 0.33188 0.81415 0.06144 0.0
N2578 N 0.31751 0.84076 0.04647 0.0
N2579 N 0.34895 0.82981 0.09905 0.0
C2580 C 0.34302 0.85799 0.10078 0.0
C2581 C 0.326 0.8639 0.07256 0.0
C2582 C 0.98006 0.50868 0.91323 0.0
C2583 C 0.96164 0.52908 0.90787 0.0
C2584 C 1.00202 0.51445 0.94115 0.0
C2585 C 1.00603 0.54063 0.96458 0.0
H2586 H 0.97875 0.48896 0.89506 0.0
H2587 H 1.01637 0.49862 0.94404 0.0
S2588 S 0.96031 0.59854 0.96419 0.0
N2589 N 0.94619 0.57443 0.92959 0.0
N2590 N 0.98806 0.58561 0.98251 0.0
C2591 C 0.98655 0.56028 0.96053 0.0
C2592 C 0.96408 0.55434 0.93201 0.0
C2593 C 0.28768 0.29308 0.6397 0.0
C2594 C 0.29418 0.26651 0.62419 0.0
C2595 C 0.2911 0.29986 0.67362 0.0
C2596 C 0.30036 0.28003 0.69387 0.0
H2597 H 0.27977 0.30887 0.62551 0.0
H2598 H 0.28635 0.32098 0.68393 0.0
S2599 S 0.32055 0.2073 0.66571 0.0
N2600 N 0.31111 0.22036 0.6321 0.0
N2601 N 0.31666 0.23268 0.69547 0.0
C2602 C 0.30729 0.25348 0.67873 0.0
C2603 C 0.30436 0.24683 0.64412 0.0
C2604 C 0.57631 0.55354 0.18897 0.0
C2605 C 0.60113 0.57763 0.20693 0.0
C2606 C 0.56878 0.55031 0.15496 0.0
C2607 C 0.58568 0.57115 0.13767 0.0
H2608 H 0.56239 0.53737 0.20129 0.0
H2609 H 0.54917 0.53166 0.14219 0.0
S2610 S 0.65536 0.63564 0.17351 0.0
N2611 N 0.64405 0.62108 0.20493 0.0
N2612 N 0.63043 0.61477 0.1414 0.0
C2613 C 0.61126 0.5946 0.15546 0.0
C2614 C 0.61883 0.59786 0.18994 0.0
C2615 C 0.36332 0.89128 0.90976 0.0
C2616 C 0.34174 0.90761 0.91725 0.0
C2617 C 0.35548 0.86692 0.88393 0.0
C2618 C 0.32626 0.85887 0.86431 0.0
H2619 H 0.38577 0.89592 0.92508 0.0
H2620 H 0.37218 0.85398 0.87956 0.0
S2621 S 0.26311 0.89696 0.87053 0.0
N2622 N 0.29104 0.91603 0.90099 0.0
N2623 N 0.2765 0.87012 0.85164 0.0
C2624 C 0.30515 0.87618 0.86993 0.0
C2625 C 0.31298 0.90083 0.89654 0.0
C2626 C 0.99585 0.54249 0.74891 0.0
C2627 C 0.96902 0.55255 0.75128 0.0
C2628 C 0.99911 0.52614 0.72001 0.0
C2629 C 0.97616 0.52013 0.69248 0.0
H2630 H 1.0131 0.54458 0.77017 0.0
H2631 H 1.0189 0.51671 0.71961 0.0
S2632 S 0.90585 0.54826 0.68317 0.0
N2633 N 0.92201 0.56036 0.72165 0.0
N2634 N 0.9287 0.52962 0.66699 0.0
C2635 C 0.95114 0.53305 0.69317 0.0
C2636 C 0.94762 0.54965 0.72268 0.0
C2637 C 0.29367 0.29026 0.4316 0.0
C2638 C 0.29803 0.26255 0.44082 0.0
C2639 C 0.30002 0.29866 0.402 0.0
C2640 C 0.31061 0.2796 0.3796 0.0
H2641 H 0.28502 0.3057 0.44735 0.0
H2642 H 0.29584 0.32018 0.39641 0.0
S2643 S 0.32661 0.20469 0.39179 0.0
N2644 N 0.31451 0.21617 0.42509 0.0
N2645 N 0.32599 0.23186 0.36928 0.0
C2646 C 0.31557 0.25198 0.38857 0.0
C2647 C 0.30943 0.24352 0.4191 0.0
C2648 C 0.38095 0.62545 0.55298 0.0
C2649 C 0.36194 0.60621 0.56996 0.0
C2650 C 0.39578 0.61312 0.53021 0.0
C2651 C 0.39264 0.58129 0.52408 0.0
H2652 H 0.38315 0.65012 0.5558 0.0
H2653 H 0.40935 0.62854 0.51688 0.0
S2654 S 0.35102 0.52181 0.56653 0.0
N2655 N 0.34441 0.55442 0.5824 0.0
N2656 N 0.373 0.53103 0.53949 0.0
C2657 C 0.37609 0.56203 0.54279 0.0
C2658 C 0.3606 0.57459 0.56587 0.0
C2659 C 0.9571 0.96584 0.58014 0.0
C2660 C 0.92771 0.96253 0.56214 0.0
C2661 C 0.98293 0.98784 0.57549 0.0
C2662 C 0.98067 1.00708 0.55204 0.0
H2663 H 0.96037 0.95055 0.59727 0.0
H2664 H 1.00511 0.98882 0.58969 0.0
S2665 S 0.90832 1.00864 0.4997 0.0
N2666 N 0.89711 0.98149 0.52141 0.0
N2667 N 0.94609 0.02236 0.51174 0.0
C2668 C 0.95111 1.00504 0.53486 0.0
C2669 C 0.92453 0.98285 0.54011 0.0
C2670 C 0.92938 0.12182 0.29467 0.0
C2671 C 0.9107 0.09757 0.27037 0.0
C2672 C 0.91703 0.14374 0.31027 0.0
C2673 C 0.88565 0.14239 0.30202 0.0
H2674 H 0.95341 0.12301 0.30313 0.0
H2675 H 0.93176 0.16088 0.33017 0.0
S2676 S 0.82818 0.08776 0.23602 0.0
N2677 N 0.86014 0.07639 0.23562 0.0
N2678 N 0.83699 0.11815 0.26522 0.0
C2679 C 0.86734 0.1204 0.27571 0.0
C2680 C 0.87987 0.09778 0.25981 0.0
C2681 C 0.68954 0.12533 0.07004 0.0
C2682 C 0.70465 0.11111 0.04836 0.0
C2683 C 0.65824 0.11345 0.06941 0.0
C2684 C 0.64162 0.08698 0.04728 0.0
H2685 H 0.70205 0.14566 0.0877 0.0
H2686 H 0.64724 0.12434 0.08698 0.0
S2687 S 0.67045 0.04252 0.98457 0.0
N2688 N 0.70111 0.07044 0.00349 0.0
N2689 N 0.64152 0.04752 0.00246 0.0
C2690 C 0.65629 0.07281 0.02514 0.0
C2691 C 0.6882 0.08515 0.02557 0.0
C2692 C 0.30485 0.53393 0.30044 0.0
C2693 C 0.28176 0.5239 0.27256 0.0
C2694 C 0.31045 0.51323 0.32075 0.0
C2695 C 0.29319 0.48221 0.31348 0.0
H2696 H 0.3171 0.5582 0.30788 0.0
H2697 H 0.32788 0.52155 0.34252 0.0
S2698 S 0.23396 0.44357 0.24095 0.0
N2699 N 0.24418 0.48034 0.23682 0.0
N2700 N 0.25523 0.44126 0.27514 0.0
C2701 C 0.27188 0.47133 0.28453 0.0
C2702 C 0.26611 0.4923 0.26389 0.0
C2703 C 0.27654 0.48943 0.06127 0.0
C2704 C 0.27343 0.45732 0.0575 0.0
C2705 C 0.25291 0.50096 0.04682 0.0
C2706 C 0.22566 0.48066 0.02841 0.0
H2707 H 0.29806 0.50579 0.07354 0.0
H2708 H 0.25682 0.52577 0.04813 0.0
S2709 S 0.20344 0.3951 0.01659 0.0
N2710 N 0.23881 0.40557 0.03806 0.0
N2711 N 0.19467 0.42763 0.01088 0.0
C2712 C 0.22102 0.44874 0.02702 0.0
C2713 C 0.2449 0.43694 0.04162 0.0
C2714 C 0.89242 0.94365 0.29423 0.0
C2715 C 0.90366 0.94424 0.26498 0.0
C2716 C 0.87152 0.91695 0.29952 0.0
C2717 C 0.86155 0.89006 0.27577 0.0
H2718 H 0.90141 0.96313 0.31391 0.0
H2719 H 0.86475 0.91669 0.323 0.0
S2720 S 0.87995 0.88199 0.1932 0.0
N2721 N 0.90029 0.91731 0.21071 0.0
N2722 N 0.86119 0.86715 0.2206 0.0
C2723 C 0.87092 0.89127 0.24569 0.0
C2724 C 0.892 0.91838 0.24031 0.0
C2725 C 0.7528 0.17885 0.74103 0.0
C2726 C 0.76111 0.15843 0.76082 0.0
C2727 C 0.76544 0.21044 0.75013 0.0
C2728 C 0.78818 0.222 0.77779 0.0
H2729 H 0.7338 0.17065 0.72062 0.0
H2730 H 0.7567 0.22588 0.7361 0.0
S2731 S 0.82321 0.178 0.83298 0.0
N2732 N 0.79621 0.15142 0.80665 0.0
N2733 N 0.82259 0.21157 0.82175 0.0
C2734 C 0.79978 0.20183 0.79523 0.0
C2735 C 0.78587 0.16956 0.78688 0.0
loop_
_geom_bond_atom_site_label_1
_geom_bond_atom_site_label_2
_geom_bond_distance
_geom_bond_site_symmetry_2
_ccdc_geom_bond_type
Zn0 O3 2.031 . S
Zn0 O5 2.049 . S
Zn0 O10 2.067 1_455 S
Zn1 O2 1.962 . S
Zn1 O4 1.986 . S
Zn1 O6 1.996 . S
Zn1 O9 1.943 . S
O2 Zn1 1.962 . S
O2 C7 1.254 . S
O3 Zn0 2.031 . S
O3 C7 1.269 . S
O4 Zn1 1.986 . S
O4 C11 1.262 . S
O5 Zn0 2.049 . S
O5 C13 1.260 . S
O6 Zn1 1.996 . S
O6 C13 1.257 . S
C7 O2 1.254 . S
C7 O3 1.269 . S
C8 O9 1.249 . S
C8 O10 1.270 1_455 S
O9 Zn1 1.943 . S
O9 C8 1.249 . S
O10 Zn0 2.067 1_655 S
O10 C8 1.270 1_655 S
C11 O4 1.262 . S
C11 O12 1.232 . S
O12 C11 1.232 . S
C13 O5 1.260 . S
C13 O6 1.257 . S
Zn14 O17 2.031 1_455 S
Zn14 O19 2.049 . S
Zn14 O24 2.067 . S
Zn15 O16 1.962 1_455 S
Zn15 O18 1.986 . S
Zn15 O20 1.996 . S
Zn15 O23 1.943 . S
O16 Zn15 1.962 1_655 S
O16 C21 1.254 . S
O17 Zn14 2.031 1_655 S
O17 C21 1.269 . S
O18 Zn15 1.986 . S
O18 C25 1.262 . S
O19 Zn14 2.049 . S
O19 C27 1.260 . S
O20 Zn15 1.996 . S
O20 C27 1.257 . S
C21 O16 1.254 . S
C21 O17 1.269 . S
C22 O23 1.249 . S
C22 O24 1.270 . S
O23 Zn15 1.943 . S
O23 C22 1.249 . S
O24 Zn14 2.067 . S
O24 C22 1.270 . S
C25 O18 1.262 . S
C25 O26 1.232 . S
O26 C25 1.232 . S
C27 O19 1.260 . S
C27 O20 1.257 . S
Zn28 O31 2.031 . S
Zn28 O33 2.049 . S
Zn28 O38 2.067 . S
Zn29 O30 1.962 . S
Zn29 O32 1.986 . S
Zn29 O34 1.996 . S
Zn29 O37 1.943 . S
O30 Zn29 1.962 . S
O30 C35 1.254 . S
O31 Zn28 2.031 . S
O31 C35 1.269 . S
O32 Zn29 1.986 . S
O32 C39 1.262 . S
O33 Zn28 2.049 . S
O33 C41 1.260 . S
O34 Zn29 1.996 . S
O34 C41 1.257 . S
C35 O30 1.254 . S
C35 O31 1.269 . S
C36 O37 1.249 . S
C36 O38 1.270 . S
O37 Zn29 1.943 . S
O37 C36 1.249 . S
O38 Zn28 2.067 . S
O38 C36 1.270 . S
C39 O32 1.262 . S
C39 O40 1.232 . S
O40 C39 1.232 . S
C41 O33 1.260 . S
C41 O34 1.257 . S
Zn42 O45 2.031 . S
Zn42 O47 2.049 . S
Zn42 O52 2.067 . S
Zn43 O44 1.962 . S
Zn43 O46 1.986 . S
Zn43 O48 1.996 . S
Zn43 O51 1.943 . S
O44 Zn43 1.962 . S
O44 C49 1.254 . S
O45 Zn42 2.031 . S
O45 C49 1.269 . S
O46 Zn43 1.986 . S
O46 C53 1.262 . S
O47 Zn42 2.049 . S
O47 C55 1.260 . S
O48 Zn43 1.996 . S
O48 C55 1.257 . S
C49 O44 1.254 . S
C49 O45 1.269 . S
C50 O51 1.249 . S
C50 O52 1.270 . S
O51 Zn43 1.943 . S
O51 C50 1.249 . S
O52 Zn42 2.067 . S
O52 C50 1.270 . S
C53 O46 1.262 . S
C53 O54 1.232 . S
O54 C53 1.232 . S
C55 O47 1.260 . S
C55 O48 1.257 . S
Zn56 O59 2.031 . S
Zn56 O61 2.049 . S
Zn56 O66 2.067 . S
Zn57 O58 1.962 . S
Zn57 O60 1.986 . S
Zn57 O62 1.996 . S
Zn57 O65 1.943 . S
O58 Zn57 1.962 . S
O58 C63 1.254 . S
O59 Zn56 2.031 . S
O59 C63 1.269 . S
O60 Zn57 1.986 . S
O60 C67 1.262 . S
O61 Zn56 2.049 . S
O61 C69 1.260 . S
O62 Zn57 1.996 . S
O62 C69 1.257 . S
C63 O58 1.254 . S
C63 O59 1.269 . S
C64 O65 1.249 . S
C64 O66 1.270 . S
O65 Zn57 1.943 . S
O65 C64 1.249 . S
O66 Zn56 2.067 . S
O66 C64 1.270 . S
C67 O60 1.262 . S
C67 O68 1.232 . S
O68 C67 1.232 . S
C69 O61 1.260 . S
C69 O62 1.257 . S
Zn70 O73 2.031 . S
Zn70 O75 2.049 . S
Zn70 O80 2.067 . S
Zn71 O72 1.962 . S
Zn71 O74 1.986 . S
Zn71 O76 1.996 . S
Zn71 O79 1.943 . S
O72 Zn71 1.962 . S
O72 C77 1.254 . S
O73 Zn70 2.031 . S
O73 C77 1.269 . S
O74 Zn71 1.986 . S
O74 C81 1.262 . S
O75 Zn70 2.049 . S
O75 C83 1.260 . S
O76 Zn71 1.996 . S
O76 C83 1.257 . S
C77 O72 1.254 . S
C77 O73 1.269 . S
C78 O79 1.249 . S
C78 O80 1.270 . S
O79 Zn71 1.943 . S
O79 C78 1.249 . S
O80 Zn70 2.067 . S
O80 C78 1.270 . S
C81 O74 1.262 . S
C81 O82 1.232 . S
O82 C81 1.232 . S
C83 O75 1.260 . S
C83 O76 1.257 . S
Zn84 O87 2.031 . S
Zn84 O89 2.049 . S
Zn84 O94 2.067 . S
Zn85 O86 1.962 . S
Zn85 O88 1.986 . S
Zn85 O90 1.996 . S
Zn85 O93 1.943 . S
O86 Zn85 1.962 . S
O86 C91 1.254 . S
O87 Zn84 2.031 . S
O87 C91 1.269 . S
O88 Zn85 1.986 . S
O88 C95 1.262 . S
O89 Zn84 2.049 . S
O89 C97 1.260 . S
O90 Zn85 1.996 . S
O90 C97 1.257 . S
C91 O86 1.254 . S
C91 O87 1.269 . S
C92 O93 1.249 . S
C92 O94 1.270 . S
O93 Zn85 1.943 . S
O93 C92 1.249 . S
O94 Zn84 2.067 . S
O94 C92 1.270 . S
C95 O88 1.262 . S
C95 O96 1.232 . S
O96 C95 1.232 . S
C97 O89 1.260 . S
C97 O90 1.257 . S
Zn98 O101 2.031 1_554 S
Zn98 O103 2.049 . S
Zn98 O108 2.067 1_554 S
Zn99 O100 1.962 . S
Zn99 O102 1.986 . S
Zn99 O104 1.996 . S
Zn99 O107 1.943 1_455 S
O100 Zn99 1.962 . S
O100 C105 1.253 1_556 S
O101 Zn98 2.031 1_556 S
O101 C105 1.270 1_656 S
O102 Zn99 1.986 . S
O102 C109 1.262 . S
O103 Zn98 2.049 . S
O103 C111 1.260 . S
O104 Zn99 1.996 . S
O104 C111 1.257 1_456 S
C105 O100 1.253 1_554 S
C105 O101 1.270 1_454 S
C106 O107 1.249 . S
C106 O108 1.270 . S
O107 Zn99 1.943 1_655 S
O107 C106 1.249 . S
O108 Zn98 2.067 1_556 S
O108 C106 1.270 . S
C109 O102 1.262 . S
C109 O110 1.232 . S
O110 C109 1.232 . S
C111 O103 1.260 . S
C111 O104 1.257 1_654 S
Zn112 O115 2.031 . S
Zn112 O117 2.049 . S
Zn112 O122 2.067 . S
Zn113 O114 1.962 . S
Zn113 O116 1.986 . S
Zn113 O118 1.996 . S
Zn113 O121 1.943 1_545 S
O114 Zn113 1.962 . S
O114 C119 1.254 . S
O115 Zn112 2.031 . S
O115 C119 1.269 1_565 S
O116 Zn113 1.986 . S
O116 C123 1.262 . S
O117 Zn112 2.049 . S
O117 C125 1.260 . S
O118 Zn113 1.996 . S
O118 C125 1.257 1_545 S
C119 O114 1.254 . S
C119 O115 1.269 1_545 S
C120 O121 1.249 . S
C120 O122 1.270 . S
O121 Zn113 1.943 1_565 S
O121 C120 1.249 . S
O122 Zn112 2.067 . S
O122 C120 1.270 . S
C123 O116 1.262 . S
C123 O124 1.232 . S
O124 C123 1.232 . S
C125 O117 1.260 . S
C125 O118 1.257 1_565 S
Zn126 O129 2.031 . S
Zn126 O131 2.049 . S
Zn126 O136 2.067 . S
Zn127 O128 1.962 . S
Zn127 O130 1.986 . S
Zn127 O132 1.996 . S
Zn127 O135 1.943 . S
O128 Zn127 1.962 . S
O128 C133 1.254 . S
O129 Zn126 2.031 . S
O129 C133 1.269 . S
O130 Zn127 1.986 . S
O130 C137 1.262 . S
O131 Zn126 2.049 . S
O131 C139 1.260 . S
O132 Zn127 1.996 . S
O132 C139 1.257 . S
C133 O128 1.254 . S
C133 O129 1.269 . S
C134 O135 1.249 . S
C134 O136 1.270 . S
O135 Zn127 1.943 . S
O135 C134 1.249 . S
O136 Zn126 2.067 . S
O136 C134 1.270 . S
C137 O130 1.262 . S
C137 O138 1.232 . S
O138 C137 1.232 . S
C139 O131 1.260 . S
C139 O132 1.257 . S
Zn140 O143 2.031 . S
Zn140 O145 2.049 . S
Zn140 O150 2.067 . S
Zn141 O142 1.962 . S
Zn141 O144 1.986 . S
Zn141 O146 1.996 . S
Zn141 O149 1.943 . S
O142 Zn141 1.962 . S
O142 C147 1.254 . S
O143 Zn140 2.031 . S
O143 C147 1.269 . S
O144 Zn141 1.986 . S
O144 C151 1.262 . S
O145 Zn140 2.049 . S
O145 C153 1.260 . S
O146 Zn141 1.996 . S
O146 C153 1.257 . S
C147 O142 1.254 . S
C147 O143 1.269 . S
C148 O149 1.249 . S
C148 O150 1.270 . S
O149 Zn141 1.943 . S
O149 C148 1.249 . S
O150 Zn140 2.067 . S
O150 C148 1.270 . S
C151 O144 1.262 . S
C151 O152 1.232 . S
O152 C151 1.232 . S
C153 O145 1.260 . S
C153 O146 1.257 . S
Zn154 O157 2.031 1_554 S
Zn154 O159 2.049 . S
Zn154 O164 2.067 . S
Zn155 O156 1.962 . S
Zn155 O158 1.986 1_556 S
Zn155 O160 1.996 1_556 S
Zn155 O163 1.943 1_556 S
O156 Zn155 1.962 . S
O156 C161 1.254 . S
O157 Zn154 2.031 1_556 S
O157 C161 1.269 . S
O158 Zn155 1.986 1_554 S
O158 C165 1.262 1_554 S
O159 Zn154 2.049 . S
O159 C167 1.260 . S
O160 Zn155 1.996 1_554 S
O160 C167 1.257 . S
C161 O156 1.254 . S
C161 O157 1.269 . S
C162 O163 1.249 . S
C162 O164 1.270 . S
O163 Zn155 1.943 1_554 S
O163 C162 1.249 . S
O164 Zn154 2.067 . S
O164 C162 1.270 . S
C165 O158 1.262 1_556 S
C165 O166 1.232 . S
O166 C165 1.232 . S
C167 O159 1.260 . S
C167 O160 1.257 . S
Zn168 O171 2.031 . S
Zn168 O173 2.049 . S
Zn168 O178 2.067 . S
Zn169 O170 1.962 . S
Zn169 O172 1.986 . S
Zn169 O174 1.996 . S
Zn169 O177 1.943 . S
O170 Zn169 1.962 . S
O170 C175 1.254 1_554 S
O171 Zn168 2.031 . S
O171 C175 1.269 1_554 S
O172 Zn169 1.986 . S
O172 C179 1.262 . S
O173 Zn168 2.049 . S
O173 C181 1.260 . S
O174 Zn169 1.996 . S
O174 C181 1.257 . S
C175 O170 1.254 1_556 S
C175 O171 1.269 1_556 S
C176 O177 1.249 . S
C176 O178 1.270 . S
O177 Zn169 1.943 . S
O177 C176 1.249 . S
O178 Zn168 2.067 . S
O178 C176 1.270 . S
C179 O172 1.262 . S
C179 O180 1.232 . S
O180 C179 1.232 . S
C181 O173 1.260 . S
C181 O174 1.257 . S
Zn182 O185 2.031 . S
Zn182 O187 2.049 . S
Zn182 O192 2.067 . S
Zn183 O184 1.962 . S
Zn183 O186 1.986 . S
Zn183 O188 1.996 . S
Zn183 O191 1.943 . S
O184 Zn183 1.962 . S
O184 C189 1.254 . S
O185 Zn182 2.031 . S
O185 C189 1.269 . S
O186 Zn183 1.986 . S
O186 C193 1.262 . S
O187 Zn182 2.049 . S
O187 C195 1.260 . S
O188 Zn183 1.996 . S
O188 C195 1.257 . S
C189 O184 1.254 . S
C189 O185 1.269 . S
C190 O191 1.249 . S
C190 O192 1.270 . S
O191 Zn183 1.943 . S
O191 C190 1.249 . S
O192 Zn182 2.067 . S
O192 C190 1.270 . S
C193 O186 1.262 . S
C193 O194 1.232 . S
O194 C193 1.232 . S
C195 O187 1.260 . S
C195 O188 1.257 . S
Zn196 O199 2.031 . S
Zn196 O201 2.049 . S
Zn196 O206 2.067 . S
Zn197 O198 1.962 . S
Zn197 O200 1.986 . S
Zn197 O202 1.996 . S
Zn197 O205 1.943 . S
O198 Zn197 1.962 . S
O198 C203 1.254 . S
O199 Zn196 2.031 . S
O199 C203 1.269 . S
O200 Zn197 1.986 . S
O200 C207 1.262 . S
O201 Zn196 2.049 . S
O201 C209 1.260 . S
O202 Zn197 1.996 . S
O202 C209 1.257 . S
C203 O198 1.254 . S
C203 O199 1.269 . S
C204 O205 1.249 . S
C204 O206 1.270 . S
O205 Zn197 1.943 . S
O205 C204 1.249 . S
O206 Zn196 2.067 . S
O206 C204 1.270 . S
C207 O200 1.262 . S
C207 O208 1.232 . S
O208 C207 1.232 . S
C209 O201 1.260 . S
C209 O202 1.257 . S
Zn210 O213 2.031 . S
Zn210 O215 2.049 . S
Zn210 O220 2.067 . S
Zn211 O212 1.962 . S
Zn211 O214 1.986 . S
Zn211 O216 1.996 . S
Zn211 O219 1.943 . S
O212 Zn211 1.962 . S
O212 C217 1.254 . S
O213 Zn210 2.031 . S
O213 C217 1.269 . S
O214 Zn211 1.986 . S
O214 C221 1.262 . S
O215 Zn210 2.049 . S
O215 C223 1.260 . S
O216 Zn211 1.996 . S
O216 C223 1.257 . S
C217 O212 1.254 . S
C217 O213 1.269 . S
C218 O219 1.249 . S
C218 O220 1.270 . S
O219 Zn211 1.943 . S
O219 C218 1.249 . S
O220 Zn210 2.067 . S
O220 C218 1.270 . S
C221 O214 1.262 . S
C221 O222 1.232 . S
O222 C221 1.232 . S
C223 O215 1.260 . S
C223 O216 1.257 . S
Zn224 O227 2.031 . S
Zn224 O229 2.049 . S
Zn224 O234 2.067 . S
Zn225 O226 1.962 . S
Zn225 O228 1.986 . S
Zn225 O230 1.996 . S
Zn225 O233 1.943 1_545 S
O226 Zn225 1.962 . S
O226 C231 1.254 . S
O227 Zn224 2.031 . S
O227 C231 1.269 1_565 S
O228 Zn225 1.986 . S
O228 C235 1.262 . S
O229 Zn224 2.049 . S
O229 C237 1.260 1_565 S
O230 Zn225 1.996 . S
O230 C237 1.257 . S
C231 O226 1.254 . S
C231 O227 1.269 1_545 S
C232 O233 1.249 . S
C232 O234 1.270 . S
O233 Zn225 1.943 1_565 S
O233 C232 1.249 . S
O234 Zn224 2.067 . S
O234 C232 1.270 . S
C235 O228 1.262 . S
C235 O236 1.232 . S
O236 C235 1.232 . S
C237 O229 1.260 1_545 S
C237 O230 1.257 . S
Zn238 O241 2.031 . S
Zn238 O243 2.049 . S
Zn238 O248 2.067 . S
Zn239 O240 1.962 . S
Zn239 O242 1.986 . S
Zn239 O244 1.996 . S
Zn239 O247 1.943 . S
O240 Zn239 1.962 . S
O240 C245 1.254 . S
O241 Zn238 2.031 . S
O241 C245 1.269 . S
O242 Zn239 1.986 . S
O242 C249 1.262 . S
O243 Zn238 2.049 . S
O243 C251 1.260 . S
O244 Zn239 1.996 . S
O244 C251 1.257 . S
C245 O240 1.254 . S
C245 O241 1.269 . S
C246 O247 1.249 . S
C246 O248 1.270 . S
O247 Zn239 1.943 . S
O247 C246 1.249 . S
O248 Zn238 2.067 . S
O248 C246 1.270 . S
C249 O242 1.262 . S
C249 O250 1.232 . S
O250 C249 1.232 . S
C251 O243 1.260 . S
C251 O244 1.257 . S
Zn252 O255 2.031 . S
Zn252 O257 2.049 . S
Zn252 O262 2.067 . S
Zn253 O254 1.962 . S
Zn253 O256 1.986 . S
Zn253 O258 1.996 . S
Zn253 O261 1.943 . S
O254 Zn253 1.962 . S
O254 C259 1.254 . S
O255 Zn252 2.031 . S
O255 C259 1.269 . S
O256 Zn253 1.986 . S
O256 C263 1.262 . S
O257 Zn252 2.049 . S
O257 C265 1.260 . S
O258 Zn253 1.996 . S
O258 C265 1.257 . S
C259 O254 1.254 . S
C259 O255 1.269 . S
C260 O261 1.249 . S
C260 O262 1.270 . S
O261 Zn253 1.943 . S
O261 C260 1.249 . S
O262 Zn252 2.067 . S
O262 C260 1.270 . S
C263 O256 1.262 . S
C263 O264 1.232 . S
O264 C263 1.232 . S
C265 O257 1.260 . S
C265 O258 1.257 . S
Zn266 O269 2.031 . S
Zn266 O271 2.049 . S
Zn266 O276 2.067 . S
Zn267 O268 1.962 . S
Zn267 O270 1.986 . S
Zn267 O272 1.996 . S
Zn267 O275 1.943 . S
O268 Zn267 1.962 . S
O268 C273 1.254 . S
O269 Zn266 2.031 . S
O269 C273 1.269 . S
O270 Zn267 1.986 . S
O270 C277 1.262 . S
O271 Zn266 2.049 . S
O271 C279 1.260 . S
O272 Zn267 1.996 . S
O272 C279 1.257 . S
C273 O268 1.254 . S
C273 O269 1.269 . S
C274 O275 1.249 . S
C274 O276 1.270 . S
O275 Zn267 1.943 . S
O275 C274 1.249 . S
O276 Zn266 2.067 . S
O276 C274 1.270 . S
C277 O270 1.262 . S
C277 O278 1.232 . S
O278 C277 1.232 . S
C279 O271 1.260 . S
C279 O272 1.257 . S
Zn280 O283 2.031 1_554 S
Zn280 O285 2.049 . S
Zn280 O290 2.067 . S
Zn281 O282 1.962 1_554 S
Zn281 O284 1.986 . S
Zn281 O286 1.996 . S
Zn281 O289 1.943 . S
O282 Zn281 1.962 1_556 S
O282 C287 1.254 . S
O283 Zn280 2.031 1_556 S
O283 C287 1.269 . S
O284 Zn281 1.986 . S
O284 C291 1.262 . S
O285 Zn280 2.049 . S
O285 C293 1.260 . S
O286 Zn281 1.996 . S
O286 C293 1.257 . S
C287 O282 1.254 . S
C287 O283 1.269 . S
C288 O289 1.249 . S
C288 O290 1.270 . S
O289 Zn281 1.943 . S
O289 C288 1.249 . S
O290 Zn280 2.067 . S
O290 C288 1.270 . S
C291 O284 1.262 . S
C291 O292 1.232 1_554 S
O292 C291 1.232 1_556 S
C293 O285 1.260 . S
C293 O286 1.257 . S
Zn294 O297 2.031 . S
Zn294 O299 2.049 . S
Zn294 O304 2.067 . S
Zn295 O296 1.962 . S
Zn295 O298 1.986 . S
Zn295 O300 1.996 . S
Zn295 O303 1.943 . S
O296 Zn295 1.962 . S
O296 C301 1.254 . S
O297 Zn294 2.031 . S
O297 C301 1.269 . S
O298 Zn295 1.986 . S
O298 C305 1.262 . S
O299 Zn294 2.049 . S
O299 C307 1.260 . S
O300 Zn295 1.996 . S
O300 C307 1.257 . S
C301 O296 1.254 . S
C301 O297 1.269 . S
C302 O303 1.249 . S
C302 O304 1.270 . S
O303 Zn295 1.943 . S
O303 C302 1.249 . S
O304 Zn294 2.067 . S
O304 C302 1.270 . S
C305 O298 1.262 . S
C305 O306 1.232 . S
O306 C305 1.232 . S
C307 O299 1.260 . S
C307 O300 1.257 . S
Zn308 O311 2.031 . S
Zn308 O313 2.049 . S
Zn308 O318 2.067 . S
Zn309 O310 1.962 . S
Zn309 O312 1.986 . S
Zn309 O314 1.996 . S
Zn309 O317 1.943 . S
O310 Zn309 1.962 . S
O310 C315 1.254 . S
O311 Zn308 2.031 . S
O311 C315 1.269 . S
O312 Zn309 1.986 . S
O312 C319 1.262 . S
O313 Zn308 2.049 . S
O313 C321 1.260 . S
O314 Zn309 1.996 . S
O314 C321 1.257 . S
C315 O310 1.254 . S
C315 O311 1.269 . S
C316 O317 1.249 . S
C316 O318 1.270 . S
O317 Zn309 1.943 . S
O317 C316 1.249 . S
O318 Zn308 2.067 . S
O318 C316 1.270 . S
C319 O312 1.262 . S
C319 O320 1.232 . S
O320 C319 1.232 . S
C321 O313 1.260 . S
C321 O314 1.257 . S
Zn322 O325 2.031 . S
Zn322 O327 2.049 . S
Zn322 O332 2.067 . S
Zn323 O324 1.962 . S
Zn323 O326 1.986 . S
Zn323 O328 1.996 . S
Zn323 O331 1.943 . S
O324 Zn323 1.962 . S
O324 C329 1.254 . S
O325 Zn322 2.031 . S
O325 C329 1.269 . S
O326 Zn323 1.986 . S
O326 C333 1.262 . S
O327 Zn322 2.049 . S
O327 C335 1.260 . S
O328 Zn323 1.996 . S
O328 C335 1.257 . S
C329 O324 1.254 . S
C329 O325 1.269 . S
C330 O331 1.249 . S
C330 O332 1.270 . S
O331 Zn323 1.943 . S
O331 C330 1.249 . S
O332 Zn322 2.067 . S
O332 C330 1.270 . S
C333 O326 1.262 . S
C333 O334 1.232 . S
O334 C333 1.232 . S
C335 O327 1.260 . S
C335 O328 1.257 . S
Eu336 N365 2.600 . S
Eu336 N371 2.562 . S
Eu336 O380 2.462 . S
Eu336 O381 2.373 . S
Eu336 O383 2.432 . S
Eu336 O384 2.291 . S
Eu336 O388 2.335 . S
Eu336 O391 2.372 . S
Eu336 C400 2.787 . S
C337 N338 1.365 . S
C337 C340 1.405 . S
C337 C344 1.448 1_556 S
N338 C337 1.365 . S
N338 C341 1.319 . S
N338 Eu347 2.600 1_566 S
C339 C341 1.397 . S
C339 C342 1.367 . S
C339 H359 0.931 . S
C340 C337 1.405 . S
C340 C342 1.403 . S
C340 C346 1.439 . S
C341 N338 1.319 . S
C341 C339 1.397 . S
C341 H352 0.930 . S
C342 C339 1.367 . S
C342 C340 1.403 . S
C342 H363 0.929 . S
C343 C344 1.430 . S
C343 C345 1.387 1_554 S
C343 C349 1.404 . S
C344 C337 1.448 1_554 S
C344 C343 1.430 . S
C344 N348 1.351 . S
C345 C343 1.387 1_556 S
C345 C346 1.374 . S
C345 H360 0.931 . S
C346 C340 1.439 . S
C346 C345 1.374 . S
C346 H361 0.931 . S
Eu347 N338 2.600 1_544 S
Eu347 N348 2.562 1_545 S
Eu347 O382 2.335 1_655 S
Eu347 O385 2.372 1_654 S
Eu347 O386 2.462 . S
Eu347 O387 2.373 1_645 S
Eu347 O389 2.432 1_554 S
Eu347 O390 2.291 1_655 S
Eu347 C411 2.787 . S
N348 C344 1.351 . S
N348 Eu347 2.562 1_565 S
N348 C350 1.325 . S
C349 C343 1.404 . S
C349 C351 1.366 . S
C349 H357 0.930 . S
C350 N348 1.325 . S
C350 C351 1.416 . S
C350 H356 0.929 . S
C351 C349 1.366 . S
C351 C350 1.416 . S
C351 H353 0.930 . S
H352 C341 0.930 . S
H353 C351 0.930 . S
H354 C369 0.930 . S
H355 C376 0.930 1_556 S
H356 C350 0.929 . S
H357 C349 0.930 . S
H358 C372 0.929 . S
H359 C339 0.931 . S
H360 C345 0.931 . S
H361 C346 0.931 . S
H362 C367 0.931 . S
H363 C342 0.929 . S
H364 C375 0.930 . S
N365 Eu336 2.600 . S
N365 C366 1.365 . S
N365 C369 1.319 . S
C366 N365 1.365 . S
C366 C368 1.405 . S
C366 C374 1.448 . S
C367 H362 0.931 . S
C367 C369 1.397 . S
C367 C370 1.367 . S
C368 C366 1.405 . S
C368 C370 1.403 . S
C368 C401 1.439 . S
C369 H354 0.930 . S
C369 N365 1.319 . S
C369 C367 1.397 . S
C370 C367 1.367 . S
C370 C368 1.403 . S
C370 H377 0.929 . S
N371 Eu336 2.562 . S
N371 C372 1.325 . S
N371 C374 1.351 . S
C372 H358 0.929 . S
C372 N371 1.325 . S
C372 C376 1.416 . S
C373 C374 1.430 . S
C373 C375 1.404 . S
C373 C402 1.387 . S
C374 C366 1.448 . S
C374 N371 1.351 . S
C374 C373 1.430 . S
C375 H364 0.930 . S
C375 C373 1.404 . S
C375 C376 1.366 . S
C376 H355 0.930 1_554 S
C376 C372 1.416 . S
C376 C375 1.366 . S
H377 C370 0.929 . S
H378 C401 0.931 . S
H379 C402 0.931 . S
O380 Eu336 2.462 . S
O380 C400 1.252 . S
O381 Eu336 2.373 . S
O381 C392 1.249 . S
O382 Eu347 2.335 1_455 S
O382 C392 1.264 . S
O383 Eu336 2.432 . S
O383 C400 1.268 . S
O384 Eu336 2.291 . S
O384 C399 1.255 1_554 S
O385 Eu347 2.372 1_456 S
O385 C399 1.257 . S
O386 Eu347 2.462 . S
O386 C411 1.252 . S
O387 Eu347 2.373 1_465 S
O387 C403 1.249 . S
O388 Eu336 2.335 . S
O388 C403 1.264 1_545 S
O389 Eu347 2.432 1_556 S
O389 C411 1.268 1_556 S
O390 Eu347 2.291 1_455 S
O390 C410 1.255 . S
O391 Eu336 2.372 . S
O391 C410 1.257 . S
C392 O381 1.249 . S
C392 O382 1.264 . S
C393 C396 1.382 . S
C393 C398 1.390 . S
C393 C400 1.506 . S
C394 C395 1.398 . S
C394 C398 1.392 . S
C395 C394 1.398 . S
C395 C397 1.372 . S
C395 H412 0.931 . S
C396 C393 1.382 . S
C396 C397 1.390 . S
C396 H413 0.931 . S
C397 C395 1.372 . S
C397 C396 1.390 . S
C397 H414 0.929 . S
C398 C393 1.390 . S
C398 C394 1.392 . S
C398 H415 0.930 . S
C399 O384 1.255 1_556 S
C399 O385 1.257 . S
C400 Eu336 2.787 . S
C400 O380 1.252 . S
C400 O383 1.268 . S
C400 C393 1.506 . S
C401 C368 1.439 . S
C401 H378 0.931 . S
C401 C402 1.374 . S
C402 C373 1.387 . S
C402 H379 0.931 . S
C402 C401 1.374 . S
C403 O387 1.249 . S
C403 O388 1.264 1_565 S
C404 C407 1.382 1_554 S
C404 C408 1.390 . S
C404 C411 1.506 . S
C405 C406 1.398 1_554 S
C405 C408 1.392 . S
C406 C405 1.398 1_556 S
C406 C409 1.372 . S
C406 H416 0.931 . S
C407 C404 1.382 1_556 S
C407 C409 1.390 . S
C407 H417 0.931 . S
C408 C404 1.390 . S
C408 C405 1.392 . S
C408 H418 0.930 . S
C409 C406 1.372 . S
C409 C407 1.390 . S
C409 H419 0.929 . S
C410 O390 1.255 . S
C410 O391 1.257 . S
C411 Eu347 2.787 . S
C411 O386 1.252 . S
C411 O389 1.268 1_554 S
C411 C404 1.506 . S
H412 C395 0.931 . S
H413 C396 0.931 . S
H414 C397 0.929 . S
H415 C398 0.930 . S
H416 C406 0.931 . S
H417 C407 0.931 . S
H418 C408 0.930 . S
H419 C409 0.929 . S
Eu420 N449 2.600 . S
Eu420 N455 2.562 . S
Eu420 O464 2.462 . S
Eu420 O465 2.373 . S
Eu420 O467 2.432 . S
Eu420 O468 2.291 . S
Eu420 O472 2.335 . S
Eu420 O475 2.372 . S
Eu420 C484 2.787 . S
C421 N422 1.365 . S
C421 C424 1.405 . S
C421 C428 1.448 . S
N422 C421 1.365 . S
N422 C425 1.319 . S
N422 Eu431 2.600 . S
C423 C425 1.397 . S
C423 C426 1.367 . S
C423 H443 0.931 . S
C424 C421 1.405 . S
C424 C426 1.403 . S
C424 C430 1.439 . S
C425 N422 1.319 . S
C425 C423 1.397 . S
C425 H436 0.930 . S
C426 C423 1.367 . S
C426 C424 1.403 . S
C426 H447 0.929 . S
C427 C428 1.430 . S
C427 C429 1.387 . S
C427 C433 1.404 . S
C428 C421 1.448 . S
C428 C427 1.430 . S
C428 N432 1.351 . S
C429 C427 1.387 . S
C429 C430 1.374 . S
C429 H444 0.931 . S
C430 C424 1.439 . S
C430 C429 1.374 . S
C430 H445 0.931 . S
Eu431 N422 2.600 . S
Eu431 N432 2.562 . S
Eu431 O466 2.335 . S
Eu431 O469 2.372 . S
Eu431 O470 2.462 . S
Eu431 O471 2.373 . S
Eu431 O473 2.432 . S
Eu431 O474 2.291 . S
Eu431 C495 2.787 . S
N432 C428 1.351 . S
N432 Eu431 2.562 . S
N432 C434 1.325 . S
C433 C427 1.404 . S
C433 C435 1.366 . S
C433 H441 0.930 . S
C434 N432 1.325 . S
C434 C435 1.416 . S
C434 H440 0.929 . S
C435 C433 1.366 . S
C435 C434 1.416 . S
C435 H437 0.930 . S
H436 C425 0.930 . S
H437 C435 0.930 . S
H438 C453 0.930 . S
H439 C460 0.930 . S
H440 C434 0.929 . S
H441 C433 0.930 . S
H442 C456 0.929 . S
H443 C423 0.931 . S
H444 C429 0.931 . S
H445 C430 0.931 . S
H446 C451 0.931 . S
H447 C426 0.929 . S
H448 C459 0.930 . S
N449 Eu420 2.600 . S
N449 C450 1.365 . S
N449 C453 1.319 . S
C450 N449 1.365 . S
C450 C452 1.405 . S
C450 C458 1.448 . S
C451 H446 0.931 . S
C451 C453 1.397 . S
C451 C454 1.367 . S
C452 C450 1.405 . S
C452 C454 1.403 . S
C452 C485 1.439 . S
C453 H438 0.930 . S
C453 N449 1.319 . S
C453 C451 1.397 . S
C454 C451 1.367 . S
C454 C452 1.403 . S
C454 H461 0.929 . S
N455 Eu420 2.562 . S
N455 C456 1.325 . S
N455 C458 1.351 . S
C456 H442 0.929 . S
C456 N455 1.325 . S
C456 C460 1.416 . S
C457 C458 1.430 . S
C457 C459 1.404 . S
C457 C486 1.387 . S
C458 C450 1.448 . S
C458 N455 1.351 . S
C458 C457 1.430 . S
C459 H448 0.930 . S
C459 C457 1.404 . S
C459 C460 1.366 . S
C460 H439 0.930 . S
C460 C456 1.416 . S
C460 C459 1.366 . S
H461 C454 0.929 . S
H462 C485 0.931 . S
H463 C486 0.931 . S
O464 Eu420 2.462 . S
O464 C484 1.252 . S
O465 Eu420 2.373 . S
O465 C476 1.249 . S
O466 Eu431 2.335 . S
O466 C476 1.264 . S
O467 Eu420 2.432 . S
O467 C484 1.268 . S
O468 Eu420 2.291 . S
O468 C483 1.255 . S
O469 Eu431 2.372 . S
O469 C483 1.257 . S
O470 Eu431 2.462 . S
O470 C495 1.252 . S
O471 Eu431 2.373 . S
O471 C487 1.249 . S
O472 Eu420 2.335 . S
O472 C487 1.264 . S
O473 Eu431 2.432 . S
O473 C495 1.268 . S
O474 Eu431 2.291 . S
O474 C494 1.255 . S
O475 Eu420 2.372 . S
O475 C494 1.257 . S
C476 O465 1.249 . S
C476 O466 1.264 . S
C477 C480 1.382 . S
C477 C482 1.390 . S
C477 C484 1.506 . S
C478 C479 1.398 . S
C478 C482 1.392 . S
C479 C478 1.398 . S
C479 C481 1.372 . S
C479 H496 0.931 . S
C480 C477 1.382 . S
C480 C481 1.390 . S
C480 H497 0.931 . S
C481 C479 1.372 . S
C481 C480 1.390 . S
C481 H498 0.929 . S
C482 C477 1.390 . S
C482 C478 1.392 . S
C482 H499 0.930 . S
C483 O468 1.255 . S
C483 O469 1.257 . S
C484 Eu420 2.787 . S
C484 O464 1.252 . S
C484 O467 1.268 . S
C484 C477 1.506 . S
C485 C452 1.439 . S
C485 H462 0.931 . S
C485 C486 1.374 . S
C486 C457 1.387 . S
C486 H463 0.931 . S
C486 C485 1.374 . S
C487 O471 1.249 . S
C487 O472 1.264 . S
C488 C491 1.382 . S
C488 C492 1.390 . S
C488 C495 1.506 . S
C489 C490 1.398 . S
C489 C492 1.392 . S
C490 C489 1.398 . S
C490 C493 1.372 . S
C490 H500 0.931 . S
C491 C488 1.382 . S
C491 C493 1.390 . S
C491 H501 0.931 . S
C492 C488 1.390 . S
C492 C489 1.392 . S
C492 H502 0.930 . S
C493 C490 1.372 . S
C493 C491 1.390 . S
C493 H503 0.929 . S
C494 O474 1.255 . S
C494 O475 1.257 . S
C495 Eu431 2.787 . S
C495 O470 1.252 . S
C495 O473 1.268 . S
C495 C488 1.506 . S
H496 C479 0.931 . S
H497 C480 0.931 . S
H498 C481 0.929 . S
H499 C482 0.930 . S
H500 C490 0.931 . S
H501 C491 0.931 . S
H502 C492 0.930 . S
H503 C493 0.929 . S
Eu504 N533 2.600 . S
Eu504 N539 2.562 1_545 S
Eu504 O548 2.462 . S
Eu504 O549 2.373 1_545 S
Eu504 O551 2.432 . S
Eu504 O552 2.291 . S
Eu504 O556 2.335 . S
Eu504 O559 2.372 . S
Eu504 C568 2.787 . S
C505 N506 1.365 . S
C505 C508 1.405 . S
C505 C512 1.448 . S
N506 C505 1.365 . S
N506 C509 1.319 . S
N506 Eu515 2.600 . S
C507 C509 1.397 . S
C507 C510 1.367 . S
C507 H527 0.931 . S
C508 C505 1.405 . S
C508 C510 1.403 . S
C508 C514 1.439 . S
C509 N506 1.319 . S
C509 C507 1.397 . S
C509 H520 0.930 . S
C510 C507 1.367 . S
C510 C508 1.403 . S
C510 H531 0.929 . S
C511 C512 1.430 . S
C511 C513 1.387 . S
C511 C517 1.404 . S
C512 C505 1.448 . S
C512 C511 1.430 . S
C512 N516 1.351 . S
C513 C511 1.387 . S
C513 C514 1.374 . S
C513 H528 0.931 . S
C514 C508 1.439 . S
C514 C513 1.374 . S
C514 H529 0.931 . S
Eu515 N506 2.600 . S
Eu515 N516 2.562 . S
Eu515 O550 2.335 1_545 S
Eu515 O553 2.372 . S
Eu515 O554 2.462 . S
Eu515 O555 2.373 . S
Eu515 O557 2.432 . S
Eu515 O558 2.291 . S
Eu515 C579 2.787 . S
N516 C512 1.351 . S
N516 Eu515 2.562 . S
N516 C518 1.325 . S
C517 C511 1.404 . S
C517 C519 1.366 . S
C517 H525 0.930 . S
C518 N516 1.325 . S
C518 C519 1.416 . S
C518 H524 0.929 . S
C519 C517 1.366 . S
C519 C518 1.416 . S
C519 H521 0.930 . S
H520 C509 0.930 . S
H521 C519 0.930 . S
H522 C537 0.930 . S
H523 C544 0.930 . S
H524 C518 0.929 . S
H525 C517 0.930 . S
H526 C540 0.929 . S
H527 C507 0.931 . S
H528 C513 0.931 . S
H529 C514 0.931 . S
H530 C535 0.931 . S
H531 C510 0.929 . S
H532 C543 0.930 . S
N533 Eu504 2.600 . S
N533 C534 1.365 1_545 S
N533 C537 1.319 . S
C534 N533 1.365 1_565 S
C534 C536 1.405 . S
C534 C542 1.448 . S
C535 H530 0.931 . S
C535 C537 1.397 1_565 S
C535 C538 1.367 . S
C536 C534 1.405 . S
C536 C538 1.403 . S
C536 C569 1.439 . S
C537 H522 0.930 . S
C537 N533 1.319 . S
C537 C535 1.397 1_545 S
C538 C535 1.367 . S
C538 C536 1.403 . S
C538 H545 0.929 . S
N539 Eu504 2.562 1_565 S
N539 C540 1.325 . S
N539 C542 1.351 . S
C540 H526 0.929 . S
C540 N539 1.325 . S
C540 C544 1.416 . S
C541 C542 1.430 . S
C541 C543 1.404 . S
C541 C570 1.387 . S
C542 C534 1.448 . S
C542 N539 1.351 . S
C542 C541 1.430 . S
C543 H532 0.930 . S
C543 C541 1.404 . S
C543 C544 1.366 . S
C544 H523 0.930 . S
C544 C540 1.416 . S
C544 C543 1.366 . S
H545 C538 0.929 . S
H546 C569 0.931 . S
H547 C570 0.931 . S
O548 Eu504 2.462 . S
O548 C568 1.252 . S
O549 Eu504 2.373 1_565 S
O549 C560 1.249 . S
O550 Eu515 2.335 1_565 S
O550 C560 1.264 . S
O551 Eu504 2.432 . S
O551 C568 1.268 . S
O552 Eu504 2.291 . S
O552 C567 1.255 . S
O553 Eu515 2.372 . S
O553 C567 1.257 . S
O554 Eu515 2.462 . S
O554 C579 1.252 . S
O555 Eu515 2.373 . S
O555 C571 1.249 . S
O556 Eu504 2.335 . S
O556 C571 1.264 . S
O557 Eu515 2.432 . S
O557 C579 1.268 . S
O558 Eu515 2.291 . S
O558 C578 1.255 . S
O559 Eu504 2.372 . S
O559 C578 1.257 . S
C560 O549 1.249 . S
C560 O550 1.264 . S
C561 C564 1.382 . S
C561 C566 1.390 . S
C561 C568 1.506 . S
C562 C563 1.398 . S
C562 C566 1.392 . S
C563 C562 1.398 . S
C563 C565 1.372 . S
C563 H580 0.931 . S
C564 C561 1.382 . S
C564 C565 1.390 . S
C564 H581 0.931 . S
C565 C563 1.372 . S
C565 C564 1.390 . S
C565 H582 0.929 . S
C566 C561 1.390 . S
C566 C562 1.392 . S
C566 H583 0.930 . S
C567 O552 1.255 . S
C567 O553 1.257 . S
C568 Eu504 2.787 . S
C568 O548 1.252 . S
C568 O551 1.268 . S
C568 C561 1.506 . S
C569 C536 1.439 . S
C569 H546 0.931 . S
C569 C570 1.374 . S
C570 C541 1.387 . S
C570 H547 0.931 . S
C570 C569 1.374 . S
C571 O555 1.249 . S
C571 O556 1.264 . S
C572 C575 1.382 . S
C572 C576 1.390 . S
C572 C579 1.506 1_565 S
C573 C574 1.398 . S
C573 C576 1.392 . S
C574 C573 1.398 . S
C574 C577 1.372 . S
C574 H584 0.931 . S
C575 C572 1.382 . S
C575 C577 1.390 . S
C575 H585 0.931 . S
C576 C572 1.390 . S
C576 C573 1.392 . S
C576 H586 0.930 . S
C577 C574 1.372 . S
C577 C575 1.390 . S
C577 H587 0.929 . S
C578 O558 1.255 . S
C578 O559 1.257 . S
C579 Eu515 2.787 . S
C579 O554 1.252 . S
C579 O557 1.268 . S
C579 C572 1.506 1_545 S
H580 C563 0.931 . S
H581 C564 0.931 . S
H582 C565 0.929 . S
H583 C566 0.930 . S
H584 C574 0.931 . S
H585 C575 0.931 . S
H586 C576 0.930 . S
H587 C577 0.929 . S
Eu588 N617 2.600 . S
Eu588 N623 2.562 . S
Eu588 O632 2.462 . S
Eu588 O633 2.373 . S
Eu588 O635 2.432 . S
Eu588 O636 2.291 . S
Eu588 O640 2.335 . S
Eu588 O643 2.372 . S
Eu588 C652 2.787 . S
C589 N590 1.365 . S
C589 C592 1.405 . S
C589 C596 1.448 . S
N590 C589 1.365 . S
N590 C593 1.319 . S
N590 Eu599 2.600 . S
C591 C593 1.397 . S
C591 C594 1.367 . S
C591 H611 0.931 . S
C592 C589 1.405 . S
C592 C594 1.403 . S
C592 C598 1.439 . S
C593 N590 1.319 . S
C593 C591 1.397 . S
C593 H604 0.930 . S
C594 C591 1.367 . S
C594 C592 1.403 . S
C594 H615 0.929 . S
C595 C596 1.430 . S
C595 C597 1.387 . S
C595 C601 1.404 . S
C596 C589 1.448 . S
C596 C595 1.430 . S
C596 N600 1.351 . S
C597 C595 1.387 . S
C597 C598 1.374 . S
C597 H612 0.931 . S
C598 C592 1.439 . S
C598 C597 1.374 . S
C598 H613 0.931 . S
Eu599 N590 2.600 . S
Eu599 N600 2.562 . S
Eu599 O634 2.335 . S
Eu599 O637 2.372 . S
Eu599 O638 2.462 . S
Eu599 O639 2.373 . S
Eu599 O641 2.432 . S
Eu599 O642 2.291 . S
Eu599 C663 2.787 . S
N600 C596 1.351 . S
N600 Eu599 2.562 . S
N600 C602 1.325 . S
C601 C595 1.404 . S
C601 C603 1.366 . S
C601 H609 0.930 . S
C602 N600 1.325 . S
C602 C603 1.416 . S
C602 H608 0.929 . S
C603 C601 1.366 . S
C603 C602 1.416 . S
C603 H605 0.930 . S
H604 C593 0.930 . S
H605 C603 0.930 . S
H606 C621 0.930 . S
H607 C628 0.930 . S
H608 C602 0.929 . S
H609 C601 0.930 . S
H610 C624 0.929 . S
H611 C591 0.931 . S
H612 C597 0.931 . S
H613 C598 0.931 . S
H614 C619 0.931 . S
H615 C594 0.929 . S
H616 C627 0.930 . S
N617 Eu588 2.600 . S
N617 C618 1.365 . S
N617 C621 1.319 . S
C618 N617 1.365 . S
C618 C620 1.405 . S
C618 C626 1.448 . S
C619 H614 0.931 . S
C619 C621 1.397 . S
C619 C622 1.367 . S
C620 C618 1.405 . S
C620 C622 1.403 . S
C620 C653 1.439 . S
C621 H606 0.930 . S
C621 N617 1.319 . S
C621 C619 1.397 . S
C622 C619 1.367 . S
C622 C620 1.403 . S
C622 H629 0.929 . S
N623 Eu588 2.562 . S
N623 C624 1.325 . S
N623 C626 1.351 . S
C624 H610 0.929 . S
C624 N623 1.325 . S
C624 C628 1.416 . S
C625 C626 1.430 . S
C625 C627 1.404 . S
C625 C654 1.387 . S
C626 C618 1.448 . S
C626 N623 1.351 . S
C626 C625 1.430 . S
C627 H616 0.930 . S
C627 C625 1.404 . S
C627 C628 1.366 . S
C628 H607 0.930 . S
C628 C624 1.416 . S
C628 C627 1.366 . S
H629 C622 0.929 . S
H630 C653 0.931 . S
H631 C654 0.931 . S
O632 Eu588 2.462 . S
O632 C652 1.252 . S
O633 Eu588 2.373 . S
O633 C644 1.249 . S
O634 Eu599 2.335 . S
O634 C644 1.264 . S
O635 Eu588 2.432 . S
O635 C652 1.268 . S
O636 Eu588 2.291 . S
O636 C651 1.255 . S
O637 Eu599 2.372 . S
O637 C651 1.257 . S
O638 Eu599 2.462 . S
O638 C663 1.252 . S
O639 Eu599 2.373 . S
O639 C655 1.249 . S
O640 Eu588 2.335 . S
O640 C655 1.264 . S
O641 Eu599 2.432 . S
O641 C663 1.268 . S
O642 Eu599 2.291 . S
O642 C662 1.255 . S
O643 Eu588 2.372 . S
O643 C662 1.257 . S
C644 O633 1.249 . S
C644 O634 1.264 . S
C645 C648 1.382 . S
C645 C650 1.390 . S
C645 C652 1.506 . S
C646 C647 1.398 . S
C646 C650 1.392 . S
C647 C646 1.398 . S
C647 C649 1.372 . S
C647 H664 0.931 . S
C648 C645 1.382 . S
C648 C649 1.390 . S
C648 H665 0.931 . S
C649 C647 1.372 . S
C649 C648 1.390 . S
C649 H666 0.929 . S
C650 C645 1.390 . S
C650 C646 1.392 . S
C650 H667 0.930 . S
C651 O636 1.255 . S
C651 O637 1.257 . S
C652 Eu588 2.787 . S
C652 O632 1.252 . S
C652 O635 1.268 . S
C652 C645 1.506 . S
C653 C620 1.439 . S
C653 H630 0.931 . S
C653 C654 1.374 . S
C654 C625 1.387 . S
C654 H631 0.931 . S
C654 C653 1.374 . S
C655 O639 1.249 . S
C655 O640 1.264 . S
C656 C659 1.382 . S
C656 C660 1.390 . S
C656 C663 1.506 . S
C657 C658 1.398 . S
C657 C660 1.392 . S
C658 C657 1.398 . S
C658 C661 1.372 . S
C658 H668 0.931 . S
C659 C656 1.382 . S
C659 C661 1.390 . S
C659 H669 0.931 . S
C660 C656 1.390 . S
C660 C657 1.392 . S
C660 H670 0.930 . S
C661 C658 1.372 . S
C661 C659 1.390 . S
C661 H671 0.929 . S
C662 O642 1.255 . S
C662 O643 1.257 . S
C663 Eu599 2.787 . S
C663 O638 1.252 . S
C663 O641 1.268 . S
C663 C656 1.506 . S
H664 C647 0.931 . S
H665 C648 0.931 . S
H666 C649 0.929 . S
H667 C650 0.930 . S
H668 C658 0.931 . S
H669 C659 0.931 . S
H670 C660 0.930 . S
H671 C661 0.929 . S
Eu672 N701 2.590 1_545 S
Eu672 N707 2.544 1_545 S
Eu672 O716 2.438 1_545 S
Eu672 O717 2.389 . S
Eu672 O719 2.410 1_545 S
Eu672 O720 2.300 . S
Eu672 O724 2.344 . S
Eu672 O727 2.390 . S
Eu672 C736 2.761 1_545 S
C673 N674 1.365 1_455 S
C673 C676 1.405 1_455 S
C673 C680 1.448 . S
N674 C673 1.365 1_655 S
N674 C677 1.319 . S
N674 Eu683 2.600 1_655 S
C675 C677 1.397 . S
C675 C678 1.367 . S
C675 H695 0.931 . S
C676 C673 1.405 1_655 S
C676 C678 1.403 . S
C676 C682 1.439 1_655 S
C677 N674 1.319 . S
C677 C675 1.397 . S
C677 H688 0.930 . S
C678 C675 1.367 . S
C678 C676 1.403 . S
C678 H699 0.929 . S
C679 C680 1.430 . S
C679 C681 1.387 . S
C679 C685 1.404 . S
C680 C673 1.448 . S
C680 C679 1.430 . S
C680 N684 1.351 . S
C681 C679 1.387 . S
C681 C682 1.374 . S
C681 H696 0.931 . S
C682 C676 1.439 1_455 S
C682 C681 1.374 . S
C682 H697 0.931 . S
Eu683 N674 2.600 1_455 S
Eu683 N684 2.562 . S
Eu683 O718 2.335 . S
Eu683 O721 2.372 1_455 S
Eu683 O722 2.462 . S
Eu683 O723 2.373 . S
Eu683 O725 2.432 1_455 S
Eu683 O726 2.291 . S
Eu683 C747 2.787 . S
N684 C680 1.351 . S
N684 Eu683 2.562 . S
N684 C686 1.325 . S
C685 C679 1.404 . S
C685 C687 1.366 . S
C685 H693 0.930 . S
C686 N684 1.325 . S
C686 C687 1.416 . S
C686 H692 0.929 . S
C687 C685 1.366 . S
C687 C686 1.416 . S
C687 H689 0.930 . S
H688 C677 0.930 . S
H689 C687 0.930 . S
H690 C705 0.930 1_545 S
H691 C712 0.930 . S
H692 C686 0.929 . S
H693 C685 0.930 . S
H694 C708 0.929 . S
H695 C675 0.931 . S
H696 C681 0.931 . S
H697 C682 0.931 . S
H698 C703 0.931 1_545 S
H699 C678 0.929 . S
H700 C711 0.930 . S
N701 Eu672 2.590 1_565 S
N701 C702 1.365 . S
N701 C705 1.319 . S
C702 N701 1.365 . S
C702 C704 1.405 . S
C702 C710 1.448 . S
C703 H698 0.931 1_565 S
C703 C705 1.397 . S
C703 C706 1.367 . S
C704 C702 1.405 . S
C704 C706 1.403 . S
C704 C737 1.439 . S
C705 H690 0.930 1_565 S
C705 N701 1.319 . S
C705 C703 1.397 . S
C706 C703 1.367 . S
C706 C704 1.403 . S
C706 H713 0.929 . S
N707 Eu672 2.544 1_565 S
N707 C708 1.325 1_455 S
N707 C710 1.351 . S
C708 H694 0.929 . S
C708 N707 1.325 1_655 S
C708 C712 1.416 . S
C709 C710 1.430 . S
C709 C711 1.404 1_455 S
C709 C738 1.387 . S
C710 C702 1.448 . S
C710 N707 1.351 . S
C710 C709 1.430 . S
C711 H700 0.930 . S
C711 C709 1.404 1_655 S
C711 C712 1.366 . S
C712 H691 0.930 . S
C712 C708 1.416 . S
C712 C711 1.366 . S
H713 C706 0.929 . S
H714 C737 0.931 . S
H715 C738 0.931 . S
O716 Eu672 2.438 1_565 S
O716 C736 1.252 . S
O717 Eu672 2.389 . S
O717 C728 1.249 . S
O718 Eu683 2.335 . S
O718 C728 1.264 . S
O719 Eu672 2.410 1_565 S
O719 C736 1.268 . S
O720 Eu672 2.300 . S
O720 C735 1.255 1_455 S
O721 Eu683 2.372 1_655 S
O721 C735 1.257 . S
O722 Eu683 2.462 . S
O722 C747 1.252 . S
O723 Eu683 2.373 . S
O723 C739 1.249 . S
O724 Eu672 2.344 . S
O724 C739 1.264 . S
O725 Eu683 2.432 1_655 S
O725 C747 1.268 1_655 S
O726 Eu683 2.291 . S
O726 C746 1.255 . S
O727 Eu672 2.390 . S
O727 C746 1.257 . S
C728 O717 1.249 . S
C728 O718 1.264 . S
C729 C732 1.382 . S
C729 C734 1.390 . S
C729 C736 1.506 . S
C730 C731 1.398 . S
C730 C734 1.392 . S
C731 C730 1.398 . S
C731 C733 1.372 . S
C731 H748 0.931 . S
C732 C729 1.382 . S
C732 C733 1.390 . S
C732 H749 0.931 . S
C733 C731 1.372 . S
C733 C732 1.390 . S
C733 H750 0.929 . S
C734 C729 1.390 . S
C734 C730 1.392 . S
C734 H751 0.930 . S
C735 O720 1.255 1_655 S
C735 O721 1.257 . S
C736 Eu672 2.761 1_565 S
C736 O716 1.252 . S
C736 O719 1.268 . S
C736 C729 1.506 . S
C737 C704 1.439 . S
C737 H714 0.931 . S
C737 C738 1.374 . S
C738 C709 1.387 . S
C738 H715 0.931 . S
C738 C737 1.374 . S
C739 O723 1.249 . S
C739 O724 1.264 . S
C740 C743 1.382 1_455 S
C740 C744 1.390 . S
C740 C747 1.506 . S
C741 C742 1.425 . S
C741 C744 1.392 . S
C742 C741 1.425 . S
C742 C745 1.354 1_455 S
C742 H752 0.922 1_455 S
C743 C740 1.382 1_655 S
C743 C745 1.390 . S
C743 H753 0.931 . S
C744 C740 1.390 . S
C744 C741 1.392 . S
C744 H754 0.930 . S
C745 C742 1.354 1_655 S
C745 C743 1.390 . S
C745 H755 0.929 . S
C746 O726 1.255 . S
C746 O727 1.257 . S
C747 Eu683 2.787 . S
C747 O722 1.252 . S
C747 O725 1.268 1_455 S
C747 C740 1.506 . S
H748 C731 0.931 . S
H749 C732 0.931 . S
H750 C733 0.929 . S
H751 C734 0.930 . S
H752 C742 0.922 1_655 S
H753 C743 0.931 . S
H754 C744 0.930 . S
H755 C745 0.929 . S
Eu756 N785 2.600 . S
Eu756 N791 2.562 . S
Eu756 O800 2.462 . S
Eu756 O801 2.373 . S
Eu756 O803 2.432 . S
Eu756 O804 2.291 . S
Eu756 O808 2.335 . S
Eu756 O811 2.372 . S
Eu756 C820 2.787 . S
C757 N758 1.365 . S
C757 C760 1.405 . S
C757 C764 1.448 . S
N758 C757 1.365 . S
N758 C761 1.319 . S
N758 Eu767 2.600 . S
C759 C761 1.397 . S
C759 C762 1.367 . S
C759 H779 0.931 . S
C760 C757 1.405 . S
C760 C762 1.403 . S
C760 C766 1.439 . S
C761 N758 1.319 . S
C761 C759 1.397 . S
C761 H772 0.930 . S
C762 C759 1.367 . S
C762 C760 1.403 . S
C762 H783 0.929 . S
C763 C764 1.430 . S
C763 C765 1.387 . S
C763 C769 1.404 . S
C764 C757 1.448 . S
C764 C763 1.430 . S
C764 N768 1.351 . S
C765 C763 1.387 . S
C765 C766 1.374 . S
C765 H780 0.931 . S
C766 C760 1.439 . S
C766 C765 1.374 . S
C766 H781 0.931 . S
Eu767 N758 2.600 . S
Eu767 N768 2.562 . S
Eu767 O802 2.335 . S
Eu767 O805 2.372 . S
Eu767 O806 2.462 . S
Eu767 O807 2.373 . S
Eu767 O809 2.432 . S
Eu767 O810 2.291 . S
Eu767 C831 2.787 . S
N768 C764 1.351 . S
N768 Eu767 2.562 . S
N768 C770 1.325 . S
C769 C763 1.404 . S
C769 C771 1.366 . S
C769 H777 0.930 . S
C770 N768 1.325 . S
C770 C771 1.416 . S
C770 H776 0.929 . S
C771 C769 1.366 . S
C771 C770 1.416 . S
C771 H773 0.930 . S
H772 C761 0.930 . S
H773 C771 0.930 . S
H774 C789 0.930 . S
H775 C796 0.930 . S
H776 C770 0.929 . S
H777 C769 0.930 . S
H778 C792 0.929 . S
H779 C759 0.931 . S
H780 C765 0.931 . S
H781 C766 0.931 . S
H782 C787 0.931 . S
H783 C762 0.929 . S
H784 C795 0.930 . S
N785 Eu756 2.600 . S
N785 C786 1.365 . S
N785 C789 1.319 . S
C786 N785 1.365 . S
C786 C788 1.405 . S
C786 C794 1.448 . S
C787 H782 0.931 . S
C787 C789 1.397 . S
C787 C790 1.367 . S
C788 C786 1.405 . S
C788 C790 1.403 . S
C788 C821 1.439 . S
C789 H774 0.930 . S
C789 N785 1.319 . S
C789 C787 1.397 . S
C790 C787 1.367 . S
C790 C788 1.403 . S
C790 H797 0.929 . S
N791 Eu756 2.562 . S
N791 C792 1.325 . S
N791 C794 1.351 . S
C792 H778 0.929 . S
C792 N791 1.325 . S
C792 C796 1.416 . S
C793 C794 1.430 . S
C793 C795 1.404 . S
C793 C822 1.387 . S
C794 C786 1.448 . S
C794 N791 1.351 . S
C794 C793 1.430 . S
C795 H784 0.930 . S
C795 C793 1.404 . S
C795 C796 1.366 . S
C796 H775 0.930 . S
C796 C792 1.416 . S
C796 C795 1.366 . S
H797 C790 0.929 . S
H798 C821 0.931 . S
H799 C822 0.931 . S
O800 Eu756 2.462 . S
O800 C820 1.252 . S
O801 Eu756 2.373 . S
O801 C812 1.249 . S
O802 Eu767 2.335 . S
O802 C812 1.264 . S
O803 Eu756 2.432 . S
O803 C820 1.268 . S
O804 Eu756 2.291 . S
O804 C819 1.255 . S
O805 Eu767 2.372 . S
O805 C819 1.257 . S
O806 Eu767 2.462 . S
O806 C831 1.252 . S
O807 Eu767 2.373 . S
O807 C823 1.249 . S
O808 Eu756 2.335 . S
O808 C823 1.264 . S
O809 Eu767 2.432 . S
O809 C831 1.268 . S
O810 Eu767 2.291 . S
O810 C830 1.255 . S
O811 Eu756 2.372 . S
O811 C830 1.257 . S
C812 O801 1.249 . S
C812 O802 1.264 . S
C813 C816 1.382 . S
C813 C818 1.390 . S
C813 C820 1.506 . S
C814 C815 1.398 . S
C814 C818 1.392 . S
C815 C814 1.398 . S
C815 C817 1.372 . S
C815 H832 0.931 . S
C816 C813 1.382 . S
C816 C817 1.390 . S
C816 H833 0.931 . S
C817 C815 1.372 . S
C817 C816 1.390 . S
C817 H834 0.929 . S
C818 C813 1.390 . S
C818 C814 1.392 . S
C818 H835 0.930 . S
C819 O804 1.255 . S
C819 O805 1.257 . S
C820 Eu756 2.787 . S
C820 O800 1.252 . S
C820 O803 1.268 . S
C820 C813 1.506 . S
C821 C788 1.439 . S
C821 H798 0.931 . S
C821 C822 1.374 . S
C822 C793 1.387 . S
C822 H799 0.931 . S
C822 C821 1.374 . S
C823 O807 1.249 . S
C823 O808 1.264 . S
C824 C827 1.382 . S
C824 C828 1.390 . S
C824 C831 1.506 . S
C825 C826 1.398 . S
C825 C828 1.392 . S
C826 C825 1.398 . S
C826 C829 1.372 . S
C826 H836 0.931 . S
C827 C824 1.382 . S
C827 C829 1.390 . S
C827 H837 0.931 . S
C828 C824 1.390 . S
C828 C825 1.392 . S
C828 H838 0.930 . S
C829 C826 1.372 . S
C829 C827 1.390 . S
C829 H839 0.929 . S
C830 O810 1.255 . S
C830 O811 1.257 . S
C831 Eu767 2.787 . S
C831 O806 1.252 . S
C831 O809 1.268 . S
C831 C824 1.506 . S
H832 C815 0.931 . S
H833 C816 0.931 . S
H834 C817 0.929 . S
H835 C818 0.930 . S
H836 C826 0.931 . S
H837 C827 0.931 . S
H838 C828 0.930 . S
H839 C829 0.929 . S
Eu840 N869 2.600 . S
Eu840 N875 2.562 . S
Eu840 O884 2.462 . S
Eu840 O885 2.373 1_556 S
Eu840 O887 2.432 . S
Eu840 O888 2.291 . S
Eu840 O892 2.335 1_556 S
Eu840 O895 2.372 1_556 S
Eu840 C904 2.787 . S
C841 N842 1.365 1_545 S
C841 C844 1.405 1_545 S
C841 C848 1.448 . S
N842 C841 1.365 1_565 S
N842 C845 1.319 . S
N842 Eu851 2.600 1_565 S
C843 C845 1.397 . S
C843 C846 1.367 . S
C843 H863 0.931 . S
C844 C841 1.405 1_565 S
C844 C846 1.403 . S
C844 C850 1.439 1_565 S
C845 N842 1.319 . S
C845 C843 1.397 . S
C845 H856 0.930 . S
C846 C843 1.367 . S
C846 C844 1.403 . S
C846 H867 0.929 . S
C847 C848 1.430 . S
C847 C849 1.387 . S
C847 C853 1.404 . S
C848 C841 1.448 . S
C848 C847 1.430 . S
C848 N852 1.351 . S
C849 C847 1.387 . S
C849 C850 1.374 . S
C849 H864 0.931 . S
C850 C844 1.439 1_545 S
C850 C849 1.374 . S
C850 H865 0.931 1_545 S
Eu851 N842 2.600 1_545 S
Eu851 N852 2.562 . S
Eu851 O886 2.335 . S
Eu851 O889 2.372 1_545 S
Eu851 O890 2.462 . S
Eu851 O891 2.373 . S
Eu851 O893 2.432 1_545 S
Eu851 O894 2.291 . S
Eu851 C915 2.787 . S
N852 C848 1.351 . S
N852 Eu851 2.562 . S
N852 C854 1.325 . S
C853 C847 1.404 . S
C853 C855 1.366 . S
C853 H861 0.930 . S
C854 N852 1.325 . S
C854 C855 1.416 . S
C854 H860 0.929 . S
C855 C853 1.366 . S
C855 C854 1.416 . S
C855 H857 0.930 . S
H856 C845 0.930 . S
H857 C855 0.930 . S
H858 C873 0.930 1_554 S
H859 C880 0.930 1_565 S
H860 C854 0.929 . S
H861 C853 0.930 . S
H862 C876 0.929 . S
H863 C843 0.931 . S
H864 C849 0.931 . S
H865 C850 0.931 1_565 S
H866 C871 0.931 . S
H867 C846 0.929 . S
H868 C879 0.930 . S
N869 Eu840 2.600 . S
N869 C870 1.365 . S
N869 C873 1.319 . S
C870 N869 1.365 . S
C870 C872 1.405 . S
C870 C878 1.448 . S
C871 H866 0.931 . S
C871 C873 1.397 . S
C871 C874 1.367 . S
C872 C870 1.405 . S
C872 C874 1.403 . S
C872 C905 1.439 . S
C873 H858 0.930 1_556 S
C873 N869 1.319 . S
C873 C871 1.397 . S
C874 C871 1.367 . S
C874 C872 1.403 . S
C874 H881 0.929 . S
N875 Eu840 2.562 . S
N875 C876 1.325 . S
N875 C878 1.351 . S
C876 H862 0.929 . S
C876 N875 1.325 . S
C876 C880 1.416 . S
C877 C878 1.430 . S
C877 C879 1.404 . S
C877 C906 1.387 . S
C878 C870 1.448 . S
C878 N875 1.351 . S
C878 C877 1.430 . S
C879 H868 0.930 . S
C879 C877 1.404 . S
C879 C880 1.366 . S
C880 H859 0.930 1_545 S
C880 C876 1.416 . S
C880 C879 1.366 . S
H881 C874 0.929 . S
H882 C905 0.931 . S
H883 C906 0.931 . S
O884 Eu840 2.462 . S
O884 C904 1.252 . S
O885 Eu840 2.373 1_554 S
O885 C896 1.249 . S
O886 Eu851 2.335 . S
O886 C896 1.264 . S
O887 Eu840 2.432 . S
O887 C904 1.268 . S
O888 Eu840 2.291 . S
O888 C903 1.255 1_546 S
O889 Eu851 2.372 1_565 S
O889 C903 1.257 . S
O890 Eu851 2.462 . S
O890 C915 1.252 . S
O891 Eu851 2.373 . S
O891 C907 1.249 . S
O892 Eu840 2.335 1_554 S
O892 C907 1.264 . S
O893 Eu851 2.432 1_565 S
O893 C915 1.268 1_565 S
O894 Eu851 2.291 . S
O894 C914 1.255 . S
O895 Eu840 2.372 1_554 S
O895 C914 1.257 . S
C896 O885 1.249 . S
C896 O886 1.264 . S
C897 C900 1.382 . S
C897 C902 1.390 . S
C897 C904 1.506 . S
C898 C899 1.398 . S
C898 C902 1.392 . S
C899 C898 1.398 . S
C899 C901 1.372 . S
C899 H916 0.931 . S
C900 C897 1.382 . S
C900 C901 1.390 . S
C900 H917 0.931 . S
C901 C899 1.372 . S
C901 C900 1.390 . S
C901 H918 0.929 . S
C902 C897 1.390 . S
C902 C898 1.392 . S
C902 H919 0.930 . S
C903 O888 1.255 1_564 S
C903 O889 1.257 . S
C904 Eu840 2.787 . S
C904 O884 1.252 . S
C904 O887 1.268 . S
C904 C897 1.506 . S
C905 C872 1.439 . S
C905 H882 0.931 . S
C905 C906 1.374 . S
C906 C877 1.387 . S
C906 H883 0.931 . S
C906 C905 1.374 . S
C907 O891 1.249 . S
C907 O892 1.264 . S
C908 C911 1.382 . S
C908 C912 1.390 1_565 S
C908 C915 1.506 1_565 S
C909 C910 1.398 1_545 S
C909 C912 1.392 . S
C910 C909 1.398 1_565 S
C910 C913 1.372 . S
C910 H920 0.931 . S
C911 C908 1.382 . S
C911 C913 1.390 . S
C911 H921 0.931 . S
C912 C908 1.390 1_545 S
C912 C909 1.392 . S
C912 H922 0.930 . S
C913 C910 1.372 . S
C913 C911 1.390 . S
C913 H923 0.929 . S
C914 O894 1.255 . S
C914 O895 1.257 . S
C915 Eu851 2.787 . S
C915 O890 1.252 . S
C915 O893 1.268 1_545 S
C915 C908 1.506 1_545 S
H916 C899 0.931 . S
H917 C900 0.931 . S
H918 C901 0.929 . S
H919 C902 0.930 . S
H920 C910 0.931 . S
H921 C911 0.931 . S
H922 C912 0.930 . S
H923 C913 0.929 . S
Eu924 N953 2.600 . S
Eu924 N959 2.562 . S
Eu924 O968 2.462 . S
Eu924 O969 2.373 . S
Eu924 O971 2.432 . S
Eu924 O972 2.291 . S
Eu924 O976 2.335 . S
Eu924 O979 2.372 . S
Eu924 C988 2.787 . S
C925 N926 1.365 . S
C925 C928 1.405 . S
C925 C932 1.448 . S
N926 C925 1.365 . S
N926 C929 1.319 . S
N926 Eu935 2.600 . S
C927 C929 1.397 . S
C927 C930 1.367 . S
C927 H947 0.931 . S
C928 C925 1.405 . S
C928 C930 1.403 . S
C928 C934 1.439 . S
C929 N926 1.319 . S
C929 C927 1.397 . S
C929 H940 0.930 . S
C930 C927 1.367 . S
C930 C928 1.403 . S
C930 H951 0.929 . S
C931 C932 1.430 . S
C931 C933 1.387 . S
C931 C937 1.404 . S
C932 C925 1.448 . S
C932 C931 1.430 . S
C932 N936 1.351 . S
C933 C931 1.387 . S
C933 C934 1.374 . S
C933 H948 0.931 . S
C934 C928 1.439 . S
C934 C933 1.374 . S
C934 H949 0.931 . S
Eu935 N926 2.600 . S
Eu935 N936 2.562 . S
Eu935 O970 2.335 . S
Eu935 O973 2.372 . S
Eu935 O974 2.462 . S
Eu935 O975 2.373 . S
Eu935 O977 2.432 . S
Eu935 O978 2.291 . S
Eu935 C999 2.787 . S
N936 C932 1.351 . S
N936 Eu935 2.562 . S
N936 C938 1.325 . S
C937 C931 1.404 . S
C937 C939 1.366 . S
C937 H945 0.930 . S
C938 N936 1.325 . S
C938 C939 1.416 . S
C938 H944 0.929 . S
C939 C937 1.366 . S
C939 C938 1.416 . S
C939 H941 0.930 . S
H940 C929 0.930 . S
H941 C939 0.930 . S
H942 C957 0.930 . S
H943 C964 0.930 . S
H944 C938 0.929 . S
H945 C937 0.930 . S
H946 C960 0.929 . S
H947 C927 0.931 . S
H948 C933 0.931 . S
H949 C934 0.931 . S
H950 C955 0.931 . S
H951 C930 0.929 . S
H952 C963 0.930 . S
N953 Eu924 2.600 . S
N953 C954 1.365 . S
N953 C957 1.319 . S
C954 N953 1.365 . S
C954 C956 1.405 . S
C954 C962 1.448 . S
C955 H950 0.931 . S
C955 C957 1.397 . S
C955 C958 1.367 . S
C956 C954 1.405 . S
C956 C958 1.403 . S
C956 C989 1.439 . S
C957 H942 0.930 . S
C957 N953 1.319 . S
C957 C955 1.397 . S
C958 C955 1.367 . S
C958 C956 1.403 . S
C958 H965 0.929 . S
N959 Eu924 2.562 . S
N959 C960 1.325 . S
N959 C962 1.351 . S
C960 H946 0.929 . S
C960 N959 1.325 . S
C960 C964 1.416 . S
C961 C962 1.430 . S
C961 C963 1.404 . S
C961 C990 1.387 . S
C962 C954 1.448 . S
C962 N959 1.351 . S
C962 C961 1.430 . S
C963 H952 0.930 . S
C963 C961 1.404 . S
C963 C964 1.366 . S
C964 H943 0.930 . S
C964 C960 1.416 . S
C964 C963 1.366 . S
H965 C958 0.929 . S
H966 C989 0.931 . S
H967 C990 0.931 . S
O968 Eu924 2.462 . S
O968 C988 1.252 . S
O969 Eu924 2.373 . S
O969 C980 1.249 . S
O970 Eu935 2.335 . S
O970 C980 1.264 . S
O971 Eu924 2.432 . S
O971 C988 1.268 . S
O972 Eu924 2.291 . S
O972 C987 1.255 . S
O973 Eu935 2.372 . S
O973 C987 1.257 . S
O974 Eu935 2.462 . S
O974 C999 1.252 . S
O975 Eu935 2.373 . S
O975 C991 1.249 . S
O976 Eu924 2.335 . S
O976 C991 1.264 . S
O977 Eu935 2.432 . S
O977 C999 1.268 . S
O978 Eu935 2.291 . S
O978 C998 1.255 . S
O979 Eu924 2.372 . S
O979 C998 1.257 . S
C980 O969 1.249 . S
C980 O970 1.264 . S
C981 C984 1.382 . S
C981 C986 1.390 . S
C981 C988 1.506 . S
C982 C983 1.398 . S
C982 C986 1.392 . S
C983 C982 1.398 . S
C983 C985 1.372 . S
C983 H1000 0.931 . S
C984 C981 1.382 . S
C984 C985 1.390 . S
C984 H1001 0.931 . S
C985 C983 1.372 . S
C985 C984 1.390 . S
C985 H1002 0.929 . S
C986 C981 1.390 . S
C986 C982 1.392 . S
C986 H1003 0.930 . S
C987 O972 1.255 . S
C987 O973 1.257 . S
C988 Eu924 2.787 . S
C988 O968 1.252 . S
C988 O971 1.268 . S
C988 C981 1.506 . S
C989 C956 1.439 . S
C989 H966 0.931 . S
C989 C990 1.374 . S
C990 C961 1.387 . S
C990 H967 0.931 . S
C990 C989 1.374 . S
C991 O975 1.249 . S
C991 O976 1.264 . S
C992 C995 1.382 . S
C992 C996 1.390 . S
C992 C999 1.506 . S
C993 C994 1.398 . S
C993 C996 1.392 . S
C994 C993 1.398 . S
C994 C997 1.372 . S
C994 H1004 0.931 . S
C995 C992 1.382 . S
C995 C997 1.390 . S
C995 H1005 0.931 . S
C996 C992 1.390 . S
C996 C993 1.392 . S
C996 H1006 0.930 . S
C997 C994 1.372 . S
C997 C995 1.390 . S
C997 H1007 0.929 . S
C998 O978 1.255 . S
C998 O979 1.257 . S
C999 Eu935 2.787 . S
C999 O974 1.252 . S
C999 O977 1.268 . S
C999 C992 1.506 . S
H1000 C983 0.931 . S
H1001 C984 0.931 . S
H1002 C985 0.929 . S
H1003 C986 0.930 . S
H1004 C994 0.931 . S
H1005 C995 0.931 . S
H1006 C996 0.930 . S
H1007 C997 0.929 . S
Eu1008 N1037 2.600 1_554 S
Eu1008 N1043 2.562 1_554 S
Eu1008 O1052 2.462 . S
Eu1008 O1053 2.373 1_554 S
Eu1008 O1055 2.432 . S
Eu1008 O1056 2.291 . S
Eu1008 O1060 2.335 . S
Eu1008 O1063 2.372 . S
Eu1008 C1072 2.787 . S
C1009 N1010 1.365 . S
C1009 C1012 1.405 . S
C1009 C1016 1.448 . S
N1010 C1009 1.365 . S
N1010 C1013 1.319 . S
N1010 Eu1019 2.600 . S
C1011 C1013 1.397 . S
C1011 C1014 1.367 . S
C1011 H1031 0.931 . S
C1012 C1009 1.405 . S
C1012 C1014 1.403 . S
C1012 C1018 1.439 . S
C1013 N1010 1.319 . S
C1013 C1011 1.397 . S
C1013 H1024 0.930 . S
C1014 C1011 1.367 . S
C1014 C1012 1.403 . S
C1014 H1035 0.929 . S
C1015 C1016 1.430 . S
C1015 C1017 1.387 . S
C1015 C1021 1.404 . S
C1016 C1009 1.448 . S
C1016 C1015 1.430 . S
C1016 N1020 1.351 . S
C1017 C1015 1.387 . S
C1017 C1018 1.374 . S
C1017 H1032 0.931 . S
C1018 C1012 1.439 . S
C1018 C1017 1.374 . S
C1018 H1033 0.931 . S
Eu1019 N1010 2.600 . S
Eu1019 N1020 2.562 . S
Eu1019 O1054 2.335 1_554 S
Eu1019 O1057 2.372 . S
Eu1019 O1058 2.462 . S
Eu1019 O1059 2.373 . S
Eu1019 O1061 2.432 . S
Eu1019 O1062 2.291 . S
Eu1019 C1083 2.787 . S
N1020 C1016 1.351 . S
N1020 Eu1019 2.562 . S
N1020 C1022 1.325 . S
C1021 C1015 1.404 . S
C1021 C1023 1.366 . S
C1021 H1029 0.930 . S
C1022 N1020 1.325 . S
C1022 C1023 1.416 . S
C1022 H1028 0.929 . S
C1023 C1021 1.366 . S
C1023 C1022 1.416 . S
C1023 H1025 0.930 . S
H1024 C1013 0.930 . S
H1025 C1023 0.930 . S
H1026 C1041 0.930 1_554 S
H1027 C1048 0.930 . S
H1028 C1022 0.929 . S
H1029 C1021 0.930 . S
H1030 C1044 0.929 . S
H1031 C1011 0.931 . S
H1032 C1017 0.931 . S
H1033 C1018 0.931 . S
H1034 C1039 0.931 . S
H1035 C1014 0.929 . S
H1036 C1047 0.930 . S
N1037 Eu1008 2.600 1_556 S
N1037 C1038 1.365 . S
N1037 C1041 1.319 . S
C1038 N1037 1.365 . S
C1038 C1040 1.405 . S
C1038 C1046 1.448 . S
C1039 H1034 0.931 . S
C1039 C1041 1.397 . S
C1039 C1042 1.367 . S
C1040 C1038 1.405 . S
C1040 C1042 1.403 . S
C1040 C1073 1.439 . S
C1041 H1026 0.930 1_556 S
C1041 N1037 1.319 . S
C1041 C1039 1.397 . S
C1042 C1039 1.367 . S
C1042 C1040 1.403 . S
C1042 H1049 0.929 . S
N1043 Eu1008 2.562 1_556 S
N1043 C1044 1.325 . S
N1043 C1046 1.351 . S
C1044 H1030 0.929 . S
C1044 N1043 1.325 . S
C1044 C1048 1.416 . S
C1045 C1046 1.430 . S
C1045 C1047 1.404 . S
C1045 C1074 1.387 . S
C1046 C1038 1.448 . S
C1046 N1043 1.351 . S
C1046 C1045 1.430 . S
C1047 H1036 0.930 . S
C1047 C1045 1.404 . S
C1047 C1048 1.366 . S
C1048 H1027 0.930 . S
C1048 C1044 1.416 . S
C1048 C1047 1.366 . S
H1049 C1042 0.929 . S
H1050 C1073 0.931 . S
H1051 C1074 0.931 . S
O1052 Eu1008 2.462 . S
O1052 C1072 1.252 . S
O1053 Eu1008 2.373 1_556 S
O1053 C1064 1.249 . S
O1054 Eu1019 2.335 1_556 S
O1054 C1064 1.264 . S
O1055 Eu1008 2.432 . S
O1055 C1072 1.268 . S
O1056 Eu1008 2.291 . S
O1056 C1071 1.255 . S
O1057 Eu1019 2.372 . S
O1057 C1071 1.257 . S
O1058 Eu1019 2.462 . S
O1058 C1083 1.252 . S
O1059 Eu1019 2.373 . S
O1059 C1075 1.249 . S
O1060 Eu1008 2.335 . S
O1060 C1075 1.264 . S
O1061 Eu1019 2.432 . S
O1061 C1083 1.268 . S
O1062 Eu1019 2.291 . S
O1062 C1082 1.255 . S
O1063 Eu1008 2.372 . S
O1063 C1082 1.257 . S
C1064 O1053 1.249 . S
C1064 O1054 1.264 . S
C1065 C1068 1.382 . S
C1065 C1070 1.390 . S
C1065 C1072 1.506 . S
C1066 C1067 1.398 . S
C1066 C1070 1.392 . S
C1067 C1066 1.398 . S
C1067 C1069 1.372 . S
C1067 H1084 0.931 . S
C1068 C1065 1.382 . S
C1068 C1069 1.390 . S
C1068 H1085 0.931 . S
C1069 C1067 1.372 . S
C1069 C1068 1.390 . S
C1069 H1086 0.929 . S
C1070 C1065 1.390 . S
C1070 C1066 1.392 . S
C1070 H1087 0.930 . S
C1071 O1056 1.255 . S
C1071 O1057 1.257 . S
C1072 Eu1008 2.787 . S
C1072 O1052 1.252 . S
C1072 O1055 1.268 . S
C1072 C1065 1.506 . S
C1073 C1040 1.439 . S
C1073 H1050 0.931 . S
C1073 C1074 1.374 . S
C1074 C1045 1.387 . S
C1074 H1051 0.931 . S
C1074 C1073 1.374 . S
C1075 O1059 1.249 . S
C1075 O1060 1.264 . S
C1076 C1079 1.382 . S
C1076 C1080 1.390 . S
C1076 C1083 1.506 1_556 S
C1077 C1078 1.398 . S
C1077 C1080 1.392 . S
C1078 C1077 1.398 . S
C1078 C1081 1.372 . S
C1078 H1088 0.931 . S
C1079 C1076 1.382 . S
C1079 C1081 1.390 . S
C1079 H1089 0.931 . S
C1080 C1076 1.390 . S
C1080 C1077 1.392 . S
C1080 H1090 0.930 . S
C1081 C1078 1.372 . S
C1081 C1079 1.390 . S
C1081 H1091 0.929 . S
C1082 O1062 1.255 . S
C1082 O1063 1.257 . S
C1083 Eu1019 2.787 . S
C1083 O1058 1.252 . S
C1083 O1061 1.268 . S
C1083 C1076 1.506 1_554 S
H1084 C1067 0.931 . S
H1085 C1068 0.931 . S
H1086 C1069 0.929 . S
H1087 C1070 0.930 . S
H1088 C1078 0.931 . S
H1089 C1079 0.931 . S
H1090 C1080 0.930 . S
H1091 C1081 0.929 . S
Eu1092 N1121 2.600 . S
Eu1092 N1127 2.562 . S
Eu1092 O1136 2.462 . S
Eu1092 O1137 2.373 . S
Eu1092 O1139 2.432 . S
Eu1092 O1140 2.291 . S
Eu1092 O1144 2.335 . S
Eu1092 O1147 2.372 . S
Eu1092 C1156 2.787 . S
C1093 N1094 1.365 . S
C1093 C1096 1.405 . S
C1093 C1100 1.448 . S
N1094 C1093 1.365 . S
N1094 C1097 1.319 . S
N1094 Eu1103 2.600 . S
C1095 C1097 1.397 . S
C1095 C1098 1.367 . S
C1095 H1115 0.931 . S
C1096 C1093 1.405 . S
C1096 C1098 1.403 . S
C1096 C1102 1.439 . S
C1097 N1094 1.319 . S
C1097 C1095 1.397 . S
C1097 H1108 0.930 . S
C1098 C1095 1.367 . S
C1098 C1096 1.403 . S
C1098 H1119 0.929 . S
C1099 C1100 1.430 . S
C1099 C1101 1.387 . S
C1099 C1105 1.404 . S
C1100 C1093 1.448 . S
C1100 C1099 1.430 . S
C1100 N1104 1.351 . S
C1101 C1099 1.387 . S
C1101 C1102 1.374 . S
C1101 H1116 0.931 . S
C1102 C1096 1.439 . S
C1102 C1101 1.374 . S
C1102 H1117 0.931 . S
Eu1103 N1094 2.600 . S
Eu1103 N1104 2.562 . S
Eu1103 O1138 2.335 . S
Eu1103 O1141 2.372 . S
Eu1103 O1142 2.462 . S
Eu1103 O1143 2.373 . S
Eu1103 O1145 2.432 . S
Eu1103 O1146 2.291 . S
Eu1103 C1167 2.787 . S
N1104 C1100 1.351 . S
N1104 Eu1103 2.562 . S
N1104 C1106 1.325 . S
C1105 C1099 1.404 . S
C1105 C1107 1.366 . S
C1105 H1113 0.930 . S
C1106 N1104 1.325 . S
C1106 C1107 1.416 . S
C1106 H1112 0.929 . S
C1107 C1105 1.366 . S
C1107 C1106 1.416 . S
C1107 H1109 0.930 . S
H1108 C1097 0.930 . S
H1109 C1107 0.930 . S
H1110 C1125 0.930 . S
H1111 C1132 0.930 . S
H1112 C1106 0.929 . S
H1113 C1105 0.930 . S
H1114 C1128 0.929 . S
H1115 C1095 0.931 . S
H1116 C1101 0.931 . S
H1117 C1102 0.931 . S
H1118 C1123 0.931 . S
H1119 C1098 0.929 . S
H1120 C1131 0.930 . S
N1121 Eu1092 2.600 . S
N1121 C1122 1.365 . S
N1121 C1125 1.319 . S
C1122 N1121 1.365 . S
C1122 C1124 1.405 . S
C1122 C1130 1.448 . S
C1123 H1118 0.931 . S
C1123 C1125 1.397 . S
C1123 C1126 1.367 . S
C1124 C1122 1.405 . S
C1124 C1126 1.403 . S
C1124 C1157 1.439 . S
C1125 H1110 0.930 . S
C1125 N1121 1.319 . S
C1125 C1123 1.397 . S
C1126 C1123 1.367 . S
C1126 C1124 1.403 . S
C1126 H1133 0.929 . S
N1127 Eu1092 2.562 . S
N1127 C1128 1.325 . S
N1127 C1130 1.351 . S
C1128 H1114 0.929 . S
C1128 N1127 1.325 . S
C1128 C1132 1.416 . S
C1129 C1130 1.430 . S
C1129 C1131 1.404 . S
C1129 C1158 1.387 . S
C1130 C1122 1.448 . S
C1130 N1127 1.351 . S
C1130 C1129 1.430 . S
C1131 H1120 0.930 . S
C1131 C1129 1.404 . S
C1131 C1132 1.366 . S
C1132 H1111 0.930 . S
C1132 C1128 1.416 . S
C1132 C1131 1.366 . S
H1133 C1126 0.929 . S
H1134 C1157 0.931 . S
H1135 C1158 0.931 . S
O1136 Eu1092 2.462 . S
O1136 C1156 1.252 . S
O1137 Eu1092 2.373 . S
O1137 C1148 1.249 . S
O1138 Eu1103 2.335 . S
O1138 C1148 1.264 . S
O1139 Eu1092 2.432 . S
O1139 C1156 1.268 . S
O1140 Eu1092 2.291 . S
O1140 C1155 1.255 . S
O1141 Eu1103 2.372 . S
O1141 C1155 1.257 . S
O1142 Eu1103 2.462 . S
O1142 C1167 1.252 . S
O1143 Eu1103 2.373 . S
O1143 C1159 1.249 . S
O1144 Eu1092 2.335 . S
O1144 C1159 1.264 . S
O1145 Eu1103 2.432 . S
O1145 C1167 1.268 . S
O1146 Eu1103 2.291 . S
O1146 C1166 1.255 . S
O1147 Eu1092 2.372 . S
O1147 C1166 1.257 . S
C1148 O1137 1.249 . S
C1148 O1138 1.264 . S
C1149 C1152 1.382 . S
C1149 C1154 1.390 . S
C1149 C1156 1.506 . S
C1150 C1151 1.398 . S
C1150 C1154 1.392 . S
C1151 C1150 1.398 . S
C1151 C1153 1.372 . S
C1151 H1168 0.931 . S
C1152 C1149 1.382 . S
C1152 C1153 1.390 . S
C1152 H1169 0.931 . S
C1153 C1151 1.372 . S
C1153 C1152 1.390 . S
C1153 H1170 0.929 . S
C1154 C1149 1.390 . S
C1154 C1150 1.392 . S
C1154 H1171 0.930 . S
C1155 O1140 1.255 . S
C1155 O1141 1.257 . S
C1156 Eu1092 2.787 . S
C1156 O1136 1.252 . S
C1156 O1139 1.268 . S
C1156 C1149 1.506 . S
C1157 C1124 1.439 . S
C1157 H1134 0.931 . S
C1157 C1158 1.374 . S
C1158 C1129 1.387 . S
C1158 H1135 0.931 . S
C1158 C1157 1.374 . S
C1159 O1143 1.249 . S
C1159 O1144 1.264 . S
C1160 C1163 1.382 . S
C1160 C1164 1.390 . S
C1160 C1167 1.506 . S
C1161 C1162 1.398 . S
C1161 C1164 1.392 . S
C1162 C1161 1.398 . S
C1162 C1165 1.372 . S
C1162 H1172 0.931 . S
C1163 C1160 1.382 . S
C1163 C1165 1.390 . S
C1163 H1173 0.931 . S
C1164 C1160 1.390 . S
C1164 C1161 1.392 . S
C1164 H1174 0.930 . S
C1165 C1162 1.372 . S
C1165 C1163 1.390 . S
C1165 H1175 0.929 . S
C1166 O1146 1.255 . S
C1166 O1147 1.257 . S
C1167 Eu1103 2.787 . S
C1167 O1142 1.252 . S
C1167 O1145 1.268 . S
C1167 C1160 1.506 . S
H1168 C1151 0.931 . S
H1169 C1152 0.931 . S
H1170 C1153 0.929 . S
H1171 C1154 0.930 . S
H1172 C1162 0.931 . S
H1173 C1163 0.931 . S
H1174 C1164 0.930 . S
H1175 C1165 0.929 . S
Eu1176 N1205 2.581 1_455 S
Eu1176 N1211 2.562 1_455 S
Eu1176 O1220 2.462 . S
Eu1176 O1221 2.373 1_455 S
Eu1176 O1223 2.432 . S
Eu1176 O1224 2.291 . S
Eu1176 O1228 2.335 . S
Eu1176 O1231 2.372 . S
Eu1176 C1240 2.787 . S
C1177 N1178 1.365 . S
C1177 C1180 1.405 . S
C1177 C1184 1.448 . S
N1178 C1177 1.365 . S
N1178 C1181 1.319 . S
N1178 Eu1187 2.600 . S
C1179 C1181 1.397 . S
C1179 C1182 1.367 . S
C1179 H1199 0.931 . S
C1180 C1177 1.405 . S
C1180 C1182 1.403 . S
C1180 C1186 1.439 . S
C1181 N1178 1.319 . S
C1181 C1179 1.397 . S
C1181 H1192 0.930 . S
C1182 C1179 1.367 . S
C1182 C1180 1.403 . S
C1182 H1203 0.929 . S
C1183 C1184 1.430 . S
C1183 C1185 1.387 . S
C1183 C1189 1.404 . S
C1184 C1177 1.448 . S
C1184 C1183 1.430 . S
C1184 N1188 1.351 . S
C1185 C1183 1.387 . S
C1185 C1186 1.374 . S
C1185 H1200 0.931 . S
C1186 C1180 1.439 . S
C1186 C1185 1.374 . S
C1186 H1201 0.931 . S
Eu1187 N1178 2.600 . S
Eu1187 N1188 2.562 . S
Eu1187 O1222 2.335 1_455 S
Eu1187 O1225 2.372 . S
Eu1187 O1226 2.462 . S
Eu1187 O1227 2.373 . S
Eu1187 O1229 2.432 . S
Eu1187 O1230 2.291 . S
Eu1187 C1251 2.787 . S
N1188 C1184 1.351 . S
N1188 Eu1187 2.562 . S
N1188 C1190 1.325 . S
C1189 C1183 1.404 . S
C1189 C1191 1.366 . S
C1189 H1197 0.930 . S
C1190 N1188 1.325 . S
C1190 C1191 1.416 . S
C1190 H1196 0.929 . S
C1191 C1189 1.366 . S
C1191 C1190 1.416 . S
C1191 H1193 0.930 . S
H1192 C1181 0.930 . S
H1193 C1191 0.930 . S
H1194 C1209 0.930 . S
H1195 C1216 0.930 . S
H1196 C1190 0.929 . S
H1197 C1189 0.930 . S
H1198 C1212 0.929 1_455 S
H1199 C1179 0.931 . S
H1200 C1185 0.931 . S
H1201 C1186 0.931 . S
H1202 C1207 0.931 . S
H1203 C1182 0.929 . S
H1204 C1215 0.930 . S
N1205 Eu1176 2.581 1_655 S
N1205 C1206 1.380 . S
N1205 C1209 1.325 1_655 S
C1206 N1205 1.380 . S
C1206 C1208 1.405 . S
C1206 C1214 1.448 . S
C1207 H1202 0.931 . S
C1207 C1209 1.397 1_655 S
C1207 C1210 1.367 . S
C1208 C1206 1.405 . S
C1208 C1210 1.403 . S
C1208 C1241 1.439 . S
C1209 H1194 0.930 . S
C1209 N1205 1.325 1_455 S
C1209 C1207 1.397 1_455 S
C1210 C1207 1.367 . S
C1210 C1208 1.403 . S
C1210 H1217 0.929 . S
N1211 Eu1176 2.562 1_655 S
N1211 C1212 1.325 . S
N1211 C1214 1.351 . S
C1212 H1198 0.929 1_655 S
C1212 N1211 1.325 . S
C1212 C1216 1.416 . S
C1213 C1214 1.430 . S
C1213 C1215 1.404 . S
C1213 C1242 1.387 . S
C1214 C1206 1.448 . S
C1214 N1211 1.351 . S
C1214 C1213 1.430 . S
C1215 H1204 0.930 . S
C1215 C1213 1.404 . S
C1215 C1216 1.366 . S
C1216 H1195 0.930 . S
C1216 C1212 1.416 . S
C1216 C1215 1.366 . S
H1217 C1210 0.929 . S
H1218 C1241 0.931 . S
H1219 C1242 0.931 . S
O1220 Eu1176 2.462 . S
O1220 C1240 1.252 . S
O1221 Eu1176 2.373 1_655 S
O1221 C1232 1.249 . S
O1222 Eu1187 2.335 1_655 S
O1222 C1232 1.264 . S
O1223 Eu1176 2.432 . S
O1223 C1240 1.268 . S
O1224 Eu1176 2.291 . S
O1224 C1239 1.255 . S
O1225 Eu1187 2.372 . S
O1225 C1239 1.257 . S
O1226 Eu1187 2.462 . S
O1226 C1251 1.252 . S
O1227 Eu1187 2.373 . S
O1227 C1243 1.249 . S
O1228 Eu1176 2.335 . S
O1228 C1243 1.264 . S
O1229 Eu1187 2.432 . S
O1229 C1251 1.268 . S
O1230 Eu1187 2.291 . S
O1230 C1250 1.255 . S
O1231 Eu1176 2.372 . S
O1231 C1250 1.257 . S
C1232 O1221 1.249 . S
C1232 O1222 1.264 . S
C1233 C1236 1.382 . S
C1233 C1238 1.390 . S
C1233 C1240 1.506 . S
C1234 C1235 1.398 . S
C1234 C1238 1.392 . S
C1235 C1234 1.398 . S
C1235 C1237 1.372 . S
C1235 H1252 0.931 . S
C1236 C1233 1.382 . S
C1236 C1237 1.390 . S
C1236 H1253 0.931 . S
C1237 C1235 1.372 . S
C1237 C1236 1.390 . S
C1237 H1254 0.929 . S
C1238 C1233 1.390 . S
C1238 C1234 1.392 . S
C1238 H1255 0.930 . S
C1239 O1224 1.255 . S
C1239 O1225 1.257 . S
C1240 Eu1176 2.787 . S
C1240 O1220 1.252 . S
C1240 O1223 1.268 . S
C1240 C1233 1.506 . S
C1241 C1208 1.439 . S
C1241 H1218 0.931 . S
C1241 C1242 1.374 . S
C1242 C1213 1.387 . S
C1242 H1219 0.931 . S
C1242 C1241 1.374 . S
C1243 O1227 1.249 . S
C1243 O1228 1.264 . S
C1244 C1247 1.382 . S
C1244 C1248 1.390 . S
C1244 C1251 1.506 1_655 S
C1245 C1246 1.398 . S
C1245 C1248 1.392 . S
C1246 C1245 1.398 . S
C1246 C1249 1.372 . S
C1246 H1256 0.931 . S
C1247 C1244 1.382 . S
C1247 C1249 1.390 . S
C1247 H1257 0.931 . S
C1248 C1244 1.390 . S
C1248 C1245 1.392 . S
C1248 H1258 0.930 . S
C1249 C1246 1.372 . S
C1249 C1247 1.390 . S
C1249 H1259 0.929 . S
C1250 O1230 1.255 . S
C1250 O1231 1.257 . S
C1251 Eu1187 2.787 . S
C1251 O1226 1.252 . S
C1251 O1229 1.268 . S
C1251 C1244 1.506 1_455 S
H1252 C1235 0.931 . S
H1253 C1236 0.931 . S
H1254 C1237 0.929 . S
H1255 C1238 0.930 . S
H1256 C1246 0.931 . S
H1257 C1247 0.931 . S
H1258 C1248 0.930 . S
H1259 C1249 0.929 . S
Eu1260 N1289 2.600 . S
Eu1260 N1295 2.562 . S
Eu1260 O1304 2.462 . S
Eu1260 O1305 2.373 . S
Eu1260 O1307 2.432 . S
Eu1260 O1308 2.291 . S
Eu1260 O1312 2.335 . S
Eu1260 O1315 2.372 . S
Eu1260 C1324 2.787 . S
C1261 N1262 1.365 . S
C1261 C1264 1.405 . S
C1261 C1268 1.448 . S
N1262 C1261 1.365 . S
N1262 C1265 1.319 . S
N1262 Eu1271 2.600 . S
C1263 C1265 1.397 . S
C1263 C1266 1.367 . S
C1263 H1283 0.931 . S
C1264 C1261 1.405 . S
C1264 C1266 1.403 . S
C1264 C1270 1.439 . S
C1265 N1262 1.319 . S
C1265 C1263 1.397 . S
C1265 H1276 0.930 . S
C1266 C1263 1.367 . S
C1266 C1264 1.403 . S
C1266 H1287 0.929 . S
C1267 C1268 1.430 . S
C1267 C1269 1.387 . S
C1267 C1273 1.404 . S
C1268 C1261 1.448 . S
C1268 C1267 1.430 . S
C1268 N1272 1.351 . S
C1269 C1267 1.387 . S
C1269 C1270 1.374 . S
C1269 H1284 0.931 . S
C1270 C1264 1.439 . S
C1270 C1269 1.374 . S
C1270 H1285 0.931 . S
Eu1271 N1262 2.600 . S
Eu1271 N1272 2.562 . S
Eu1271 O1306 2.335 . S
Eu1271 O1309 2.372 . S
Eu1271 O1310 2.462 . S
Eu1271 O1311 2.373 . S
Eu1271 O1313 2.432 . S
Eu1271 O1314 2.291 . S
Eu1271 C1335 2.787 . S
N1272 C1268 1.351 . S
N1272 Eu1271 2.562 . S
N1272 C1274 1.325 . S
C1273 C1267 1.404 . S
C1273 C1275 1.366 . S
C1273 H1281 0.930 . S
C1274 N1272 1.325 . S
C1274 C1275 1.416 . S
C1274 H1280 0.929 . S
C1275 C1273 1.366 . S
C1275 C1274 1.416 . S
C1275 H1277 0.930 . S
H1276 C1265 0.930 . S
H1277 C1275 0.930 . S
H1278 C1293 0.930 . S
H1279 C1300 0.930 . S
H1280 C1274 0.929 . S
H1281 C1273 0.930 . S
H1282 C1296 0.929 . S
H1283 C1263 0.931 . S
H1284 C1269 0.931 . S
H1285 C1270 0.931 . S
H1286 C1291 0.931 . S
H1287 C1266 0.929 . S
H1288 C1299 0.930 . S
N1289 Eu1260 2.600 . S
N1289 C1290 1.365 . S
N1289 C1293 1.319 . S
C1290 N1289 1.365 . S
C1290 C1292 1.405 . S
C1290 C1298 1.448 . S
C1291 H1286 0.931 . S
C1291 C1293 1.397 . S
C1291 C1294 1.367 . S
C1292 C1290 1.405 . S
C1292 C1294 1.403 . S
C1292 C1325 1.439 . S
C1293 H1278 0.930 . S
C1293 N1289 1.319 . S
C1293 C1291 1.397 . S
C1294 C1291 1.367 . S
C1294 C1292 1.403 . S
C1294 H1301 0.929 . S
N1295 Eu1260 2.562 . S
N1295 C1296 1.325 . S
N1295 C1298 1.351 . S
C1296 H1282 0.929 . S
C1296 N1295 1.325 . S
C1296 C1300 1.416 . S
C1297 C1298 1.430 . S
C1297 C1299 1.404 . S
C1297 C1326 1.387 . S
C1298 C1290 1.448 . S
C1298 N1295 1.351 . S
C1298 C1297 1.430 . S
C1299 H1288 0.930 . S
C1299 C1297 1.404 . S
C1299 C1300 1.366 . S
C1300 H1279 0.930 . S
C1300 C1296 1.416 . S
C1300 C1299 1.366 . S
H1301 C1294 0.929 . S
H1302 C1325 0.931 . S
H1303 C1326 0.931 . S
O1304 Eu1260 2.462 . S
O1304 C1324 1.252 . S
O1305 Eu1260 2.373 . S
O1305 C1316 1.249 . S
O1306 Eu1271 2.335 . S
O1306 C1316 1.264 . S
O1307 Eu1260 2.432 . S
O1307 C1324 1.268 . S
O1308 Eu1260 2.291 . S
O1308 C1323 1.255 . S
O1309 Eu1271 2.372 . S
O1309 C1323 1.257 . S
O1310 Eu1271 2.462 . S
O1310 C1335 1.252 . S
O1311 Eu1271 2.373 . S
O1311 C1327 1.249 . S
O1312 Eu1260 2.335 . S
O1312 C1327 1.264 . S
O1313 Eu1271 2.432 . S
O1313 C1335 1.268 . S
O1314 Eu1271 2.291 . S
O1314 C1334 1.255 . S
O1315 Eu1260 2.372 . S
O1315 C1334 1.257 . S
C1316 O1305 1.249 . S
C1316 O1306 1.264 . S
C1317 C1320 1.382 . S
C1317 C1322 1.390 . S
C1317 C1324 1.506 . S
C1318 C1319 1.398 . S
C1318 C1322 1.392 . S
C1319 C1318 1.398 . S
C1319 C1321 1.372 . S
C1319 H1336 0.931 . S
C1320 C1317 1.382 . S
C1320 C1321 1.390 . S
C1320 H1337 0.931 . S
C1321 C1319 1.372 . S
C1321 C1320 1.390 . S
C1321 H1338 0.929 . S
C1322 C1317 1.390 . S
C1322 C1318 1.392 . S
C1322 H1339 0.930 . S
C1323 O1308 1.255 . S
C1323 O1309 1.257 . S
C1324 Eu1260 2.787 . S
C1324 O1304 1.252 . S
C1324 O1307 1.268 . S
C1324 C1317 1.506 . S
C1325 C1292 1.439 . S
C1325 H1302 0.931 . S
C1325 C1326 1.374 . S
C1326 C1297 1.387 . S
C1326 H1303 0.931 . S
C1326 C1325 1.374 . S
C1327 O1311 1.249 . S
C1327 O1312 1.264 . S
C1328 C1331 1.382 . S
C1328 C1332 1.390 . S
C1328 C1335 1.506 . S
C1329 C1330 1.398 . S
C1329 C1332 1.392 . S
C1330 C1329 1.398 . S
C1330 C1333 1.372 . S
C1330 H1340 0.931 . S
C1331 C1328 1.382 . S
C1331 C1333 1.390 . S
C1331 H1341 0.931 . S
C1332 C1328 1.390 . S
C1332 C1329 1.392 . S
C1332 H1342 0.930 . S
C1333 C1330 1.372 . S
C1333 C1331 1.390 . S
C1333 H1343 0.929 . S
C1334 O1314 1.255 . S
C1334 O1315 1.257 . S
C1335 Eu1271 2.787 . S
C1335 O1310 1.252 . S
C1335 O1313 1.268 . S
C1335 C1328 1.506 . S
H1336 C1319 0.931 . S
H1337 C1320 0.931 . S
H1338 C1321 0.929 . S
H1339 C1322 0.930 . S
H1340 C1330 0.931 . S
H1341 C1331 0.931 . S
H1342 C1332 0.930 . S
H1343 C1333 0.929 . S
Eu1344 N1373 2.600 . S
Eu1344 N1379 2.562 . S
Eu1344 O1388 2.462 . S
Eu1344 O1389 2.373 . S
Eu1344 O1391 2.432 . S
Eu1344 O1392 2.291 . S
Eu1344 O1396 2.335 . S
Eu1344 O1399 2.372 . S
Eu1344 C1408 2.787 . S
C1345 N1346 1.365 . S
C1345 C1348 1.405 . S
C1345 C1352 1.448 . S
N1346 C1345 1.365 . S
N1346 C1349 1.319 . S
N1346 Eu1355 2.600 . S
C1347 C1349 1.397 . S
C1347 C1350 1.367 . S
C1347 H1367 0.931 . S
C1348 C1345 1.405 . S
C1348 C1350 1.403 . S
C1348 C1354 1.439 . S
C1349 N1346 1.319 . S
C1349 C1347 1.397 . S
C1349 H1360 0.930 . S
C1350 C1347 1.367 . S
C1350 C1348 1.403 . S
C1350 H1371 0.929 . S
C1351 C1352 1.430 . S
C1351 C1353 1.387 . S
C1351 C1357 1.404 . S
C1352 C1345 1.448 . S
C1352 C1351 1.430 . S
C1352 N1356 1.351 . S
C1353 C1351 1.387 . S
C1353 C1354 1.374 . S
C1353 H1368 0.931 . S
C1354 C1348 1.439 . S
C1354 C1353 1.374 . S
C1354 H1369 0.931 . S
Eu1355 N1346 2.600 . S
Eu1355 N1356 2.562 . S
Eu1355 O1390 2.335 . S
Eu1355 O1393 2.372 . S
Eu1355 O1394 2.462 . S
Eu1355 O1395 2.373 . S
Eu1355 O1397 2.432 . S
Eu1355 O1398 2.291 . S
Eu1355 C1419 2.787 . S
N1356 C1352 1.351 . S
N1356 Eu1355 2.562 . S
N1356 C1358 1.325 . S
C1357 C1351 1.404 . S
C1357 C1359 1.366 . S
C1357 H1365 0.930 . S
C1358 N1356 1.325 . S
C1358 C1359 1.416 . S
C1358 H1364 0.929 . S
C1359 C1357 1.366 . S
C1359 C1358 1.416 . S
C1359 H1361 0.930 . S
H1360 C1349 0.930 . S
H1361 C1359 0.930 . S
H1362 C1377 0.930 . S
H1363 C1384 0.930 . S
H1364 C1358 0.929 . S
H1365 C1357 0.930 . S
H1366 C1380 0.929 . S
H1367 C1347 0.931 . S
H1368 C1353 0.931 . S
H1369 C1354 0.931 . S
H1370 C1375 0.931 . S
H1371 C1350 0.929 . S
H1372 C1383 0.930 . S
N1373 Eu1344 2.600 . S
N1373 C1374 1.365 . S
N1373 C1377 1.319 . S
C1374 N1373 1.365 . S
C1374 C1376 1.405 . S
C1374 C1382 1.448 . S
C1375 H1370 0.931 . S
C1375 C1377 1.397 . S
C1375 C1378 1.367 . S
C1376 C1374 1.405 . S
C1376 C1378 1.403 . S
C1376 C1409 1.439 . S
C1377 H1362 0.930 . S
C1377 N1373 1.319 . S
C1377 C1375 1.397 . S
C1378 C1375 1.367 . S
C1378 C1376 1.403 . S
C1378 H1385 0.929 . S
N1379 Eu1344 2.562 . S
N1379 C1380 1.325 . S
N1379 C1382 1.351 . S
C1380 H1366 0.929 . S
C1380 N1379 1.325 . S
C1380 C1384 1.416 . S
C1381 C1382 1.430 . S
C1381 C1383 1.404 . S
C1381 C1410 1.387 . S
C1382 C1374 1.448 . S
C1382 N1379 1.351 . S
C1382 C1381 1.430 . S
C1383 H1372 0.930 . S
C1383 C1381 1.404 . S
C1383 C1384 1.366 . S
C1384 H1363 0.930 . S
C1384 C1380 1.416 . S
C1384 C1383 1.366 . S
H1385 C1378 0.929 . S
H1386 C1409 0.931 . S
H1387 C1410 0.931 . S
O1388 Eu1344 2.462 . S
O1388 C1408 1.252 . S
O1389 Eu1344 2.373 . S
O1389 C1400 1.249 . S
O1390 Eu1355 2.335 . S
O1390 C1400 1.264 . S
O1391 Eu1344 2.432 . S
O1391 C1408 1.268 . S
O1392 Eu1344 2.291 . S
O1392 C1407 1.255 . S
O1393 Eu1355 2.372 . S
O1393 C1407 1.257 . S
O1394 Eu1355 2.462 . S
O1394 C1419 1.252 . S
O1395 Eu1355 2.373 . S
O1395 C1411 1.249 . S
O1396 Eu1344 2.335 . S
O1396 C1411 1.264 . S
O1397 Eu1355 2.432 . S
O1397 C1419 1.268 . S
O1398 Eu1355 2.291 . S
O1398 C1418 1.255 . S
O1399 Eu1344 2.372 . S
O1399 C1418 1.257 . S
C1400 O1389 1.249 . S
C1400 O1390 1.264 . S
C1401 C1404 1.382 . S
C1401 C1406 1.390 . S
C1401 C1408 1.506 . S
C1402 C1403 1.398 . S
C1402 C1406 1.392 . S
C1403 C1402 1.398 . S
C1403 C1405 1.372 . S
C1403 H1420 0.931 . S
C1404 C1401 1.382 . S
C1404 C1405 1.390 . S
C1404 H1421 0.931 . S
C1405 C1403 1.372 . S
C1405 C1404 1.390 . S
C1405 H1422 0.929 . S
C1406 C1401 1.390 . S
C1406 C1402 1.392 . S
C1406 H1423 0.930 . S
C1407 O1392 1.255 . S
C1407 O1393 1.257 . S
C1408 Eu1344 2.787 . S
C1408 O1388 1.252 . S
C1408 O1391 1.268 . S
C1408 C1401 1.506 . S
C1409 C1376 1.439 . S
C1409 H1386 0.931 . S
C1409 C1410 1.374 . S
C1410 C1381 1.387 . S
C1410 H1387 0.931 . S
C1410 C1409 1.374 . S
C1411 O1395 1.249 . S
C1411 O1396 1.264 . S
C1412 C1415 1.382 . S
C1412 C1416 1.390 . S
C1412 C1419 1.506 . S
C1413 C1414 1.398 . S
C1413 C1416 1.392 . S
C1414 C1413 1.398 . S
C1414 C1417 1.372 . S
C1414 H1424 0.931 . S
C1415 C1412 1.382 . S
C1415 C1417 1.390 . S
C1415 H1425 0.931 . S
C1416 C1412 1.390 . S
C1416 C1413 1.392 . S
C1416 H1426 0.930 . S
C1417 C1414 1.372 . S
C1417 C1415 1.390 . S
C1417 H1427 0.929 . S
C1418 O1398 1.255 . S
C1418 O1399 1.257 . S
C1419 Eu1355 2.787 . S
C1419 O1394 1.252 . S
C1419 O1397 1.268 . S
C1419 C1412 1.506 . S
H1420 C1403 0.931 . S
H1421 C1404 0.931 . S
H1422 C1405 0.929 . S
H1423 C1406 0.930 . S
H1424 C1414 0.931 . S
H1425 C1415 0.931 . S
H1426 C1416 0.930 . S
H1427 C1417 0.929 . S
Eu1428 N1457 2.600 . S
Eu1428 N1463 2.562 . S
Eu1428 O1472 2.462 . S
Eu1428 O1473 2.373 . S
Eu1428 O1475 2.432 . S
Eu1428 O1476 2.291 . S
Eu1428 O1480 2.335 . S
Eu1428 O1483 2.372 . S
Eu1428 C1492 2.787 . S
C1429 N1430 1.365 . S
C1429 C1432 1.405 . S
C1429 C1436 1.448 . S
N1430 C1429 1.365 . S
N1430 C1433 1.319 . S
N1430 Eu1439 2.600 . S
C1431 C1433 1.397 . S
C1431 C1434 1.367 . S
C1431 H1451 0.931 . S
C1432 C1429 1.405 . S
C1432 C1434 1.403 . S
C1432 C1438 1.439 . S
C1433 N1430 1.319 . S
C1433 C1431 1.397 . S
C1433 H1444 0.930 . S
C1434 C1431 1.367 . S
C1434 C1432 1.403 . S
C1434 H1455 0.929 . S
C1435 C1436 1.430 . S
C1435 C1437 1.387 . S
C1435 C1441 1.404 . S
C1436 C1429 1.448 . S
C1436 C1435 1.430 . S
C1436 N1440 1.351 . S
C1437 C1435 1.387 . S
C1437 C1438 1.374 . S
C1437 H1452 0.931 . S
C1438 C1432 1.439 . S
C1438 C1437 1.374 . S
C1438 H1453 0.931 . S
Eu1439 N1430 2.600 . S
Eu1439 N1440 2.562 . S
Eu1439 O1474 2.335 . S
Eu1439 O1477 2.372 . S
Eu1439 O1478 2.462 . S
Eu1439 O1479 2.373 . S
Eu1439 O1481 2.432 . S
Eu1439 O1482 2.291 . S
Eu1439 C1503 2.787 . S
N1440 C1436 1.351 . S
N1440 Eu1439 2.562 . S
N1440 C1442 1.325 . S
C1441 C1435 1.404 . S
C1441 C1443 1.366 . S
C1441 H1449 0.930 . S
C1442 N1440 1.325 . S
C1442 C1443 1.416 . S
C1442 H1448 0.929 . S
C1443 C1441 1.366 . S
C1443 C1442 1.416 . S
C1443 H1445 0.930 . S
H1444 C1433 0.930 . S
H1445 C1443 0.930 . S
H1446 C1461 0.930 . S
H1447 C1468 0.930 . S
H1448 C1442 0.929 . S
H1449 C1441 0.930 . S
H1450 C1464 0.929 . S
H1451 C1431 0.931 . S
H1452 C1437 0.931 . S
H1453 C1438 0.931 . S
H1454 C1459 0.931 . S
H1455 C1434 0.929 . S
H1456 C1467 0.930 . S
N1457 Eu1428 2.600 . S
N1457 C1458 1.365 . S
N1457 C1461 1.319 . S
C1458 N1457 1.365 . S
C1458 C1460 1.405 . S
C1458 C1466 1.448 . S
C1459 H1454 0.931 . S
C1459 C1461 1.397 . S
C1459 C1462 1.367 . S
C1460 C1458 1.405 . S
C1460 C1462 1.403 . S
C1460 C1493 1.439 . S
C1461 H1446 0.930 . S
C1461 N1457 1.319 . S
C1461 C1459 1.397 . S
C1462 C1459 1.367 . S
C1462 C1460 1.403 . S
C1462 H1469 0.929 . S
N1463 Eu1428 2.562 . S
N1463 C1464 1.325 . S
N1463 C1466 1.351 . S
C1464 H1450 0.929 . S
C1464 N1463 1.325 . S
C1464 C1468 1.416 . S
C1465 C1466 1.430 . S
C1465 C1467 1.404 . S
C1465 C1494 1.387 . S
C1466 C1458 1.448 . S
C1466 N1463 1.351 . S
C1466 C1465 1.430 . S
C1467 H1456 0.930 . S
C1467 C1465 1.404 . S
C1467 C1468 1.366 . S
C1468 H1447 0.930 . S
C1468 C1464 1.416 . S
C1468 C1467 1.366 . S
H1469 C1462 0.929 . S
H1470 C1493 0.931 . S
H1471 C1494 0.931 . S
O1472 Eu1428 2.462 . S
O1472 C1492 1.252 . S
O1473 Eu1428 2.373 . S
O1473 C1484 1.249 . S
O1474 Eu1439 2.335 . S
O1474 C1484 1.264 . S
O1475 Eu1428 2.432 . S
O1475 C1492 1.268 . S
O1476 Eu1428 2.291 . S
O1476 C1491 1.255 . S
O1477 Eu1439 2.372 . S
O1477 C1491 1.257 . S
O1478 Eu1439 2.462 . S
O1478 C1503 1.252 . S
O1479 Eu1439 2.373 . S
O1479 C1495 1.249 . S
O1480 Eu1428 2.335 . S
O1480 C1495 1.264 . S
O1481 Eu1439 2.432 . S
O1481 C1503 1.268 . S
O1482 Eu1439 2.291 . S
O1482 C1502 1.255 . S
O1483 Eu1428 2.372 . S
O1483 C1502 1.257 . S
C1484 O1473 1.249 . S
C1484 O1474 1.264 . S
C1485 C1488 1.382 . S
C1485 C1490 1.390 . S
C1485 C1492 1.506 . S
C1486 C1487 1.398 . S
C1486 C1490 1.392 . S
C1487 C1486 1.398 . S
C1487 C1489 1.372 . S
C1487 H1504 0.931 . S
C1488 C1485 1.382 . S
C1488 C1489 1.390 . S
C1488 H1505 0.931 . S
C1489 C1487 1.372 . S
C1489 C1488 1.390 . S
C1489 H1506 0.929 . S
C1490 C1485 1.390 . S
C1490 C1486 1.392 . S
C1490 H1507 0.930 . S
C1491 O1476 1.255 . S
C1491 O1477 1.257 . S
C1492 Eu1428 2.787 . S
C1492 O1472 1.252 . S
C1492 O1475 1.268 . S
C1492 C1485 1.506 . S
C1493 C1460 1.439 . S
C1493 H1470 0.931 . S
C1493 C1494 1.374 . S
C1494 C1465 1.387 . S
C1494 H1471 0.931 . S
C1494 C1493 1.374 . S
C1495 O1479 1.249 . S
C1495 O1480 1.264 . S
C1496 C1499 1.382 . S
C1496 C1500 1.390 . S
C1496 C1503 1.506 . S
C1497 C1498 1.398 . S
C1497 C1500 1.392 . S
C1498 C1497 1.398 . S
C1498 C1501 1.372 . S
C1498 H1508 0.931 . S
C1499 C1496 1.382 . S
C1499 C1501 1.390 . S
C1499 H1509 0.931 . S
C1500 C1496 1.390 . S
C1500 C1497 1.392 . S
C1500 H1510 0.930 . S
C1501 C1498 1.372 . S
C1501 C1499 1.390 . S
C1501 H1511 0.929 . S
C1502 O1482 1.255 . S
C1502 O1483 1.257 . S
C1503 Eu1439 2.787 . S
C1503 O1478 1.252 . S
C1503 O1481 1.268 . S
C1503 C1496 1.506 . S
H1504 C1487 0.931 . S
H1505 C1488 0.931 . S
H1506 C1489 0.929 . S
H1507 C1490 0.930 . S
H1508 C1498 0.931 . S
H1509 C1499 0.931 . S
H1510 C1500 0.930 . S
H1511 C1501 0.929 . S
Eu1512 N1541 2.600 . S
Eu1512 N1547 2.562 . S
Eu1512 O1556 2.462 . S
Eu1512 O1557 2.373 . S
Eu1512 O1559 2.432 . S
Eu1512 O1560 2.291 . S
Eu1512 O1564 2.335 . S
Eu1512 O1567 2.372 . S
Eu1512 C1576 2.787 . S
C1513 N1514 1.365 . S
C1513 C1516 1.405 . S
C1513 C1520 1.448 . S
N1514 C1513 1.365 . S
N1514 C1517 1.319 . S
N1514 Eu1523 2.600 . S
C1515 C1517 1.397 . S
C1515 C1518 1.367 . S
C1515 H1535 0.931 . S
C1516 C1513 1.405 . S
C1516 C1518 1.403 . S
C1516 C1522 1.439 . S
C1517 N1514 1.319 . S
C1517 C1515 1.397 . S
C1517 H1528 0.930 . S
C1518 C1515 1.367 . S
C1518 C1516 1.403 . S
C1518 H1539 0.929 . S
C1519 C1520 1.430 . S
C1519 C1521 1.387 . S
C1519 C1525 1.404 . S
C1520 C1513 1.448 . S
C1520 C1519 1.430 . S
C1520 N1524 1.351 . S
C1521 C1519 1.387 . S
C1521 C1522 1.374 . S
C1521 H1536 0.931 . S
C1522 C1516 1.439 . S
C1522 C1521 1.374 . S
C1522 H1537 0.931 . S
Eu1523 N1514 2.600 . S
Eu1523 N1524 2.562 . S
Eu1523 O1558 2.335 . S
Eu1523 O1561 2.372 . S
Eu1523 O1562 2.462 . S
Eu1523 O1563 2.373 . S
Eu1523 O1565 2.432 . S
Eu1523 O1566 2.291 . S
Eu1523 C1587 2.787 . S
N1524 C1520 1.351 . S
N1524 Eu1523 2.562 . S
N1524 C1526 1.325 . S
C1525 C1519 1.404 . S
C1525 C1527 1.366 . S
C1525 H1533 0.930 . S
C1526 N1524 1.325 . S
C1526 C1527 1.416 . S
C1526 H1532 0.929 . S
C1527 C1525 1.366 . S
C1527 C1526 1.416 . S
C1527 H1529 0.930 . S
H1528 C1517 0.930 . S
H1529 C1527 0.930 . S
H1530 C1545 0.930 . S
H1531 C1552 0.930 . S
H1532 C1526 0.929 . S
H1533 C1525 0.930 . S
H1534 C1548 0.929 . S
H1535 C1515 0.931 . S
H1536 C1521 0.931 . S
H1537 C1522 0.931 . S
H1538 C1543 0.931 . S
H1539 C1518 0.929 . S
H1540 C1551 0.930 . S
N1541 Eu1512 2.600 . S
N1541 C1542 1.365 . S
N1541 C1545 1.319 . S
C1542 N1541 1.365 . S
C1542 C1544 1.405 . S
C1542 C1550 1.448 . S
C1543 H1538 0.931 . S
C1543 C1545 1.397 . S
C1543 C1546 1.367 . S
C1544 C1542 1.405 . S
C1544 C1546 1.403 . S
C1544 C1577 1.439 . S
C1545 H1530 0.930 . S
C1545 N1541 1.319 . S
C1545 C1543 1.397 . S
C1546 C1543 1.367 . S
C1546 C1544 1.403 . S
C1546 H1553 0.929 . S
N1547 Eu1512 2.562 . S
N1547 C1548 1.325 . S
N1547 C1550 1.351 . S
C1548 H1534 0.929 . S
C1548 N1547 1.325 . S
C1548 C1552 1.416 . S
C1549 C1550 1.430 . S
C1549 C1551 1.404 . S
C1549 C1578 1.387 . S
C1550 C1542 1.448 . S
C1550 N1547 1.351 . S
C1550 C1549 1.430 . S
C1551 H1540 0.930 . S
C1551 C1549 1.404 . S
C1551 C1552 1.366 . S
C1552 H1531 0.930 . S
C1552 C1548 1.416 . S
C1552 C1551 1.366 . S
H1553 C1546 0.929 . S
H1554 C1577 0.931 . S
H1555 C1578 0.931 . S
O1556 Eu1512 2.462 . S
O1556 C1576 1.252 . S
O1557 Eu1512 2.373 . S
O1557 C1568 1.249 . S
O1558 Eu1523 2.335 . S
O1558 C1568 1.264 . S
O1559 Eu1512 2.432 . S
O1559 C1576 1.268 . S
O1560 Eu1512 2.291 . S
O1560 C1575 1.255 . S
O1561 Eu1523 2.372 . S
O1561 C1575 1.257 . S
O1562 Eu1523 2.462 . S
O1562 C1587 1.252 . S
O1563 Eu1523 2.373 . S
O1563 C1579 1.249 . S
O1564 Eu1512 2.335 . S
O1564 C1579 1.264 . S
O1565 Eu1523 2.432 . S
O1565 C1587 1.268 . S
O1566 Eu1523 2.291 . S
O1566 C1586 1.255 . S
O1567 Eu1512 2.372 . S
O1567 C1586 1.257 . S
C1568 O1557 1.249 . S
C1568 O1558 1.264 . S
C1569 C1572 1.382 . S
C1569 C1574 1.390 . S
C1569 C1576 1.506 . S
C1570 C1571 1.398 . S
C1570 C1574 1.392 . S
C1571 C1570 1.398 . S
C1571 C1573 1.372 . S
C1571 H1588 0.931 . S
C1572 C1569 1.382 . S
C1572 C1573 1.390 . S
C1572 H1589 0.931 . S
C1573 C1571 1.372 . S
C1573 C1572 1.390 . S
C1573 H1590 0.929 . S
C1574 C1569 1.390 . S
C1574 C1570 1.392 . S
C1574 H1591 0.930 . S
C1575 O1560 1.255 . S
C1575 O1561 1.257 . S
C1576 Eu1512 2.787 . S
C1576 O1556 1.252 . S
C1576 O1559 1.268 . S
C1576 C1569 1.506 . S
C1577 C1544 1.439 . S
C1577 H1554 0.931 . S
C1577 C1578 1.374 . S
C1578 C1549 1.387 . S
C1578 H1555 0.931 . S
C1578 C1577 1.374 . S
C1579 O1563 1.249 . S
C1579 O1564 1.264 . S
C1580 C1583 1.382 . S
C1580 C1584 1.390 . S
C1580 C1587 1.506 . S
C1581 C1582 1.398 . S
C1581 C1584 1.392 . S
C1582 C1581 1.398 . S
C1582 C1585 1.372 . S
C1582 H1592 0.931 . S
C1583 C1580 1.382 . S
C1583 C1585 1.390 . S
C1583 H1593 0.931 . S
C1584 C1580 1.390 . S
C1584 C1581 1.392 . S
C1584 H1594 0.930 . S
C1585 C1582 1.372 . S
C1585 C1583 1.390 . S
C1585 H1595 0.929 . S
C1586 O1566 1.255 . S
C1586 O1567 1.257 . S
C1587 Eu1523 2.787 . S
C1587 O1562 1.252 . S
C1587 O1565 1.268 . S
C1587 C1580 1.506 . S
H1588 C1571 0.931 . S
H1589 C1572 0.931 . S
H1590 C1573 0.929 . S
H1591 C1574 0.930 . S
H1592 C1582 0.931 . S
H1593 C1583 0.931 . S
H1594 C1584 0.930 . S
H1595 C1585 0.929 . S
Eu1596 N1625 2.594 1_455 S
Eu1596 N1631 2.545 1_455 S
Eu1596 O1640 2.438 1_455 S
Eu1596 O1641 2.388 . S
Eu1596 O1643 2.413 1_455 S
Eu1596 O1644 2.296 1_455 S
Eu1596 O1648 2.342 . S
Eu1596 O1651 2.391 . S
Eu1596 C1660 2.763 1_455 S
C1597 N1598 1.365 . S
C1597 C1600 1.405 . S
C1597 C1604 1.448 1_556 S
N1598 C1597 1.365 . S
N1598 C1601 1.319 . S
N1598 Eu1607 2.600 1_556 S
C1599 C1601 1.397 . S
C1599 C1602 1.367 . S
C1599 H1619 0.931 . S
C1600 C1597 1.405 . S
C1600 C1602 1.403 . S
C1600 C1606 1.439 . S
C1601 N1598 1.319 . S
C1601 C1599 1.397 . S
C1601 H1612 0.930 . S
C1602 C1599 1.367 . S
C1602 C1600 1.403 . S
C1602 H1623 0.929 . S
C1603 C1604 1.430 . S
C1603 C1605 1.380 1_554 S
C1603 C1609 1.404 . S
C1604 C1597 1.448 1_554 S
C1604 C1603 1.430 . S
C1604 N1608 1.351 . S
C1605 C1603 1.380 1_556 S
C1605 C1606 1.382 . S
C1605 H1620 0.930 1_556 S
C1606 C1600 1.439 . S
C1606 C1605 1.382 . S
C1606 H1621 0.931 . S
Eu1607 N1598 2.600 1_554 S
Eu1607 N1608 2.562 . S
Eu1607 O1642 2.335 . S
Eu1607 O1645 2.372 1_554 S
Eu1607 O1646 2.462 . S
Eu1607 O1647 2.373 . S
Eu1607 O1649 2.432 1_554 S
Eu1607 O1650 2.291 . S
Eu1607 C1671 2.787 . S
N1608 C1604 1.351 . S
N1608 Eu1607 2.562 . S
N1608 C1610 1.325 . S
C1609 C1603 1.404 . S
C1609 C1611 1.366 . S
C1609 H1617 0.930 . S
C1610 N1608 1.325 . S
C1610 C1611 1.416 . S
C1610 H1616 0.929 . S
C1611 C1609 1.366 . S
C1611 C1610 1.416 . S
C1611 H1613 0.930 . S
H1612 C1601 0.930 . S
H1613 C1611 0.930 . S
H1614 C1629 0.930 . S
H1615 C1636 0.930 1_556 S
H1616 C1610 0.929 . S
H1617 C1609 0.930 . S
H1618 C1632 0.929 . S
H1619 C1599 0.931 . S
H1620 C1605 0.930 1_554 S
H1621 C1606 0.931 . S
H1622 C1627 0.931 1_455 S
H1623 C1602 0.929 . S
H1624 C1635 0.930 . S
N1625 Eu1596 2.594 1_655 S
N1625 C1626 1.365 . S
N1625 C1629 1.319 1_655 S
C1626 N1625 1.365 . S
C1626 C1628 1.405 . S
C1626 C1634 1.448 . S
C1627 H1622 0.931 1_655 S
C1627 C1629 1.397 1_655 S
C1627 C1630 1.367 . S
C1628 C1626 1.405 . S
C1628 C1630 1.403 . S
C1628 C1661 1.439 . S
C1629 H1614 0.930 . S
C1629 N1625 1.319 1_455 S
C1629 C1627 1.397 1_455 S
C1630 C1627 1.367 . S
C1630 C1628 1.403 . S
C1630 H1637 0.929 . S
N1631 Eu1596 2.545 1_655 S
N1631 C1632 1.325 . S
N1631 C1634 1.351 . S
C1632 H1618 0.929 . S
C1632 N1631 1.325 . S
C1632 C1636 1.416 . S
C1633 C1634 1.430 . S
C1633 C1635 1.404 . S
C1633 C1662 1.387 . S
C1634 C1626 1.448 . S
C1634 N1631 1.351 . S
C1634 C1633 1.430 . S
C1635 H1624 0.930 . S
C1635 C1633 1.404 . S
C1635 C1636 1.366 . S
C1636 H1615 0.930 1_554 S
C1636 C1632 1.416 . S
C1636 C1635 1.366 . S
H1637 C1630 0.929 . S
H1638 C1661 0.931 . S
H1639 C1662 0.931 . S
O1640 Eu1596 2.438 1_655 S
O1640 C1660 1.252 . S
O1641 Eu1596 2.388 . S
O1641 C1652 1.249 . S
O1642 Eu1607 2.335 . S
O1642 C1652 1.264 . S
O1643 Eu1596 2.413 1_655 S
O1643 C1660 1.268 . S
O1644 Eu1596 2.296 1_655 S
O1644 C1659 1.254 1_654 S
O1645 Eu1607 2.372 1_556 S
O1645 C1659 1.257 . S
O1646 Eu1607 2.462 . S
O1646 C1671 1.252 . S
O1647 Eu1607 2.373 . S
O1647 C1663 1.249 . S
O1648 Eu1596 2.342 . S
O1648 C1663 1.264 . S
O1649 Eu1607 2.432 1_556 S
O1649 C1671 1.268 1_556 S
O1650 Eu1607 2.291 . S
O1650 C1670 1.255 . S
O1651 Eu1596 2.391 . S
O1651 C1670 1.257 . S
C1652 O1641 1.249 . S
C1652 O1642 1.264 . S
C1653 C1656 1.382 . S
C1653 C1658 1.390 . S
C1653 C1660 1.506 . S
C1654 C1655 1.398 . S
C1654 C1658 1.392 . S
C1655 C1654 1.398 . S
C1655 C1657 1.372 . S
C1655 H1672 0.931 . S
C1656 C1653 1.382 . S
C1656 C1657 1.390 . S
C1656 H1673 0.931 . S
C1657 C1655 1.372 . S
C1657 C1656 1.390 . S
C1657 H1674 0.929 . S
C1658 C1653 1.390 . S
C1658 C1654 1.392 . S
C1658 H1675 0.930 . S
C1659 O1644 1.254 1_456 S
C1659 O1645 1.257 . S
C1660 Eu1596 2.763 1_655 S
C1660 O1640 1.252 . S
C1660 O1643 1.268 . S
C1660 C1653 1.506 . S
C1661 C1628 1.439 . S
C1661 H1638 0.931 . S
C1661 C1662 1.374 . S
C1662 C1633 1.387 . S
C1662 H1639 0.931 . S
C1662 C1661 1.374 . S
C1663 O1647 1.249 . S
C1663 O1648 1.264 . S
C1664 C1667 1.382 . S
C1664 C1668 1.390 1_556 S
C1664 C1671 1.506 1_556 S
C1665 C1666 1.398 1_554 S
C1665 C1668 1.392 . S
C1666 C1665 1.398 1_556 S
C1666 C1669 1.372 . S
C1666 H1676 0.931 . S
C1667 C1664 1.382 . S
C1667 C1669 1.390 . S
C1667 H1677 0.931 . S
C1668 C1664 1.390 1_554 S
C1668 C1665 1.392 . S
C1668 H1678 0.930 . S
C1669 C1666 1.372 . S
C1669 C1667 1.390 . S
C1669 H1679 0.929 . S
C1670 O1650 1.255 . S
C1670 O1651 1.257 . S
C1671 Eu1607 2.787 . S
C1671 O1646 1.252 . S
C1671 O1649 1.268 1_554 S
C1671 C1664 1.506 1_554 S
H1672 C1655 0.931 . S
H1673 C1656 0.931 . S
H1674 C1657 0.929 . S
H1675 C1658 0.930 . S
H1676 C1666 0.931 . S
H1677 C1667 0.931 . S
H1678 C1668 0.930 . S
H1679 C1669 0.929 . S
C1680 C1681 1.369 . S
C1680 C1682 1.419 . S
C1680 H1684 0.930 1_554 S
C1681 C1680 1.369 . S
C1681 C1690 1.429 1_455 S
C1682 C1680 1.419 . S
C1682 C1683 1.363 . S
C1682 H1685 0.929 . S
C1683 C1682 1.363 . S
C1683 C1689 1.456 . S
H1684 C1680 0.930 1_556 S
H1685 C1682 0.929 . S
S1686 N1687 1.613 . S
S1686 N1688 1.610 . S
N1687 S1686 1.613 . S
N1687 C1690 1.350 . S
N1688 S1686 1.610 . S
N1688 C1689 1.336 1_655 S
C1689 C1683 1.456 . S
C1689 N1688 1.336 1_455 S
C1689 C1690 1.419 1_455 S
C1690 C1681 1.429 1_655 S
C1690 N1687 1.350 . S
C1690 C1689 1.419 1_655 S
C1691 C1692 1.369 . S
C1691 C1693 1.419 . S
C1691 H1695 0.930 . S
C1692 C1691 1.369 . S
C1692 C1701 1.429 . S
C1693 C1691 1.419 . S
C1693 C1694 1.363 . S
C1693 H1696 0.929 . S
C1694 C1693 1.363 . S
C1694 C1700 1.428 . S
H1695 C1691 0.930 . S
H1696 C1693 0.929 . S
S1697 N1698 1.613 . S
S1697 N1699 1.610 . S
N1698 S1697 1.613 . S
N1698 C1701 1.350 . S
N1699 S1697 1.610 . S
N1699 C1700 1.351 . S
C1700 C1694 1.428 . S
C1700 N1699 1.351 . S
C1700 C1701 1.434 . S
C1701 C1692 1.429 . S
C1701 N1698 1.350 . S
C1701 C1700 1.434 . S
C1702 C1703 1.369 . S
C1702 C1704 1.419 . S
C1702 H1706 0.930 . S
C1703 C1702 1.369 . S
C1703 C1712 1.429 . S
C1704 C1702 1.419 . S
C1704 C1705 1.363 . S
C1704 H1707 0.929 . S
C1705 C1704 1.363 . S
C1705 C1711 1.428 . S
H1706 C1702 0.930 . S
H1707 C1704 0.929 . S
S1708 N1709 1.613 . S
S1708 N1710 1.610 . S
N1709 S1708 1.613 . S
N1709 C1712 1.350 . S
N1710 S1708 1.610 . S
N1710 C1711 1.351 . S
C1711 C1705 1.428 . S
C1711 N1710 1.351 . S
C1711 C1712 1.434 . S
C1712 C1703 1.429 . S
C1712 N1709 1.350 . S
C1712 C1711 1.434 . S
C1713 C1714 1.369 . S
C1713 C1715 1.419 . S
C1713 H1717 0.930 . S
C1714 C1713 1.369 . S
C1714 C1723 1.429 . S
C1715 C1713 1.419 . S
C1715 C1716 1.363 . S
C1715 H1718 0.929 . S
C1716 C1715 1.363 . S
C1716 C1722 1.428 . S
H1717 C1713 0.930 . S
H1718 C1715 0.929 . S
S1719 N1720 1.613 . S
S1719 N1721 1.610 . S
N1720 S1719 1.613 . S
N1720 C1723 1.350 . S
N1721 S1719 1.610 . S
N1721 C1722 1.351 . S
C1722 C1716 1.428 . S
C1722 N1721 1.351 . S
C1722 C1723 1.434 . S
C1723 C1714 1.429 . S
C1723 N1720 1.350 . S
C1723 C1722 1.434 . S
C1724 C1725 1.369 . S
C1724 C1726 1.419 . S
C1724 H1728 0.930 . S
C1725 C1724 1.369 . S
C1725 C1734 1.429 . S
C1726 C1724 1.419 . S
C1726 C1727 1.363 . S
C1726 H1729 0.929 . S
C1727 C1726 1.363 . S
C1727 C1733 1.428 . S
H1728 C1724 0.930 . S
H1729 C1726 0.929 . S
S1730 N1731 1.613 . S
S1730 N1732 1.610 . S
N1731 S1730 1.613 . S
N1731 C1734 1.350 . S
N1732 S1730 1.610 . S
N1732 C1733 1.351 . S
C1733 C1727 1.428 . S
C1733 N1732 1.351 . S
C1733 C1734 1.434 . S
C1734 C1725 1.429 . S
C1734 N1731 1.350 . S
C1734 C1733 1.434 . S
C1735 C1736 1.369 . S
C1735 C1737 1.419 . S
C1735 H1739 0.930 . S
C1736 C1735 1.369 . S
C1736 C1745 1.429 . S
C1737 C1735 1.419 . S
C1737 C1738 1.363 . S
C1737 H1740 0.929 . S
C1738 C1737 1.363 . S
C1738 C1744 1.428 . S
H1739 C1735 0.930 . S
H1740 C1737 0.929 . S
S1741 N1742 1.613 . S
S1741 N1743 1.610 . S
N1742 S1741 1.613 . S
N1742 C1745 1.350 . S
N1743 S1741 1.610 . S
N1743 C1744 1.351 . S
C1744 C1738 1.428 . S
C1744 N1743 1.351 . S
C1744 C1745 1.434 . S
C1745 C1736 1.429 . S
C1745 N1742 1.350 . S
C1745 C1744 1.434 . S
C1746 C1747 1.369 . S
C1746 C1748 1.419 . S
C1746 H1750 0.930 . S
C1747 C1746 1.369 . S
C1747 C1756 1.429 . S
C1748 C1746 1.419 . S
C1748 C1749 1.363 . S
C1748 H1751 0.929 . S
C1749 C1748 1.363 . S
C1749 C1755 1.428 . S
H1750 C1746 0.930 . S
H1751 C1748 0.929 . S
S1752 N1753 1.613 . S
S1752 N1754 1.610 . S
N1753 S1752 1.613 . S
N1753 C1756 1.350 . S
N1754 S1752 1.610 . S
N1754 C1755 1.351 . S
C1755 C1749 1.428 . S
C1755 N1754 1.351 . S
C1755 C1756 1.434 . S
C1756 C1747 1.429 . S
C1756 N1753 1.350 . S
C1756 C1755 1.434 . S
C1757 C1758 1.369 . S
C1757 C1759 1.419 . S
C1757 H1761 0.930 . S
C1758 C1757 1.369 . S
C1758 C1767 1.429 . S
C1759 C1757 1.419 . S
C1759 C1760 1.363 . S
C1759 H1762 0.929 . S
C1760 C1759 1.363 . S
C1760 C1766 1.428 . S
H1761 C1757 0.930 . S
H1762 C1759 0.929 . S
S1763 N1764 1.613 . S
S1763 N1765 1.610 . S
N1764 S1763 1.613 . S
N1764 C1767 1.350 . S
N1765 S1763 1.610 . S
N1765 C1766 1.351 . S
C1766 C1760 1.428 . S
C1766 N1765 1.351 . S
C1766 C1767 1.434 . S
C1767 C1758 1.429 . S
C1767 N1764 1.350 . S
C1767 C1766 1.434 . S
C1768 C1769 1.369 1_455 S
C1768 C1770 1.419 . S
C1768 H1772 0.930 . S
C1769 C1768 1.369 1_655 S
C1769 C1778 1.429 . S
C1770 C1768 1.419 . S
C1770 C1771 1.363 . S
C1770 H1773 0.929 . S
C1771 C1770 1.363 . S
C1771 C1777 1.428 1_455 S
H1772 C1768 0.930 . S
H1773 C1770 0.929 . S
S1774 N1775 1.613 . S
S1774 N1776 1.610 . S
N1775 S1774 1.613 . S
N1775 C1778 1.350 1_565 S
N1776 S1774 1.610 . S
N1776 C1777 1.351 1_565 S
C1777 C1771 1.428 1_655 S
C1777 N1776 1.351 1_545 S
C1777 C1778 1.434 . S
C1778 C1769 1.429 . S
C1778 N1775 1.350 1_545 S
C1778 C1777 1.434 . S
C1779 C1780 1.369 . S
C1779 C1781 1.419 . S
C1779 H1783 0.930 . S
C1780 C1779 1.369 . S
C1780 C1789 1.429 . S
C1781 C1779 1.419 . S
C1781 C1782 1.363 . S
C1781 H1784 0.929 . S
C1782 C1781 1.363 . S
C1782 C1788 1.428 . S
H1783 C1779 0.930 . S
H1784 C1781 0.929 . S
S1785 N1786 1.613 . S
S1785 N1787 1.610 . S
N1786 S1785 1.613 . S
N1786 C1789 1.350 . S
N1787 S1785 1.610 . S
N1787 C1788 1.351 . S
C1788 C1782 1.428 . S
C1788 N1787 1.351 . S
C1788 C1789 1.434 . S
C1789 C1780 1.429 . S
C1789 N1786 1.350 . S
C1789 C1788 1.434 . S
C1790 C1791 1.369 . S
C1790 C1792 1.419 . S
C1790 H1794 0.930 . S
C1791 C1790 1.369 . S
C1791 C1800 1.429 . S
C1792 C1790 1.419 . S
C1792 C1793 1.363 . S
C1792 H1795 0.929 . S
C1793 C1792 1.363 . S
C1793 C1799 1.428 . S
H1794 C1790 0.930 . S
H1795 C1792 0.929 . S
S1796 N1797 1.613 . S
S1796 N1798 1.610 . S
N1797 S1796 1.613 . S
N1797 C1800 1.350 . S
N1798 S1796 1.610 . S
N1798 C1799 1.351 . S
C1799 C1793 1.428 . S
C1799 N1798 1.351 . S
C1799 C1800 1.434 . S
C1800 C1791 1.429 . S
C1800 N1797 1.350 . S
C1800 C1799 1.434 . S
C1801 C1802 1.369 . S
C1801 C1803 1.419 . S
C1801 H1805 0.930 . S
C1802 C1801 1.369 . S
C1802 C1811 1.429 . S
C1803 C1801 1.419 . S
C1803 C1804 1.363 . S
C1803 H1806 0.929 . S
C1804 C1803 1.363 . S
C1804 C1810 1.428 . S
H1805 C1801 0.930 . S
H1806 C1803 0.929 . S
S1807 N1808 1.613 . S
S1807 N1809 1.610 . S
N1808 S1807 1.613 . S
N1808 C1811 1.350 . S
N1809 S1807 1.610 . S
N1809 C1810 1.351 . S
C1810 C1804 1.428 . S
C1810 N1809 1.351 . S
C1810 C1811 1.434 . S
C1811 C1802 1.429 . S
C1811 N1808 1.350 . S
C1811 C1810 1.434 . S
C1812 C1813 1.369 . S
C1812 C1814 1.418 . S
C1812 H1816 0.930 . S
C1813 C1812 1.369 . S
C1813 C1822 1.429 1_545 S
C1814 C1812 1.418 . S
C1814 C1815 1.365 1_655 S
C1814 H1817 0.927 . S
C1815 C1814 1.365 1_455 S
C1815 C1821 1.428 . S
H1816 C1812 0.930 . S
H1817 C1814 0.927 . S
S1818 N1819 1.613 1_455 S
S1818 N1820 1.610 . S
N1819 S1818 1.613 1_655 S
N1819 C1822 1.350 . S
N1820 S1818 1.610 . S
N1820 C1821 1.351 1_565 S
C1821 C1815 1.428 . S
C1821 N1820 1.351 1_545 S
C1821 C1822 1.434 1_445 S
C1822 C1813 1.429 1_565 S
C1822 N1819 1.350 . S
C1822 C1821 1.434 1_665 S
C1823 C1824 1.369 . S
C1823 C1825 1.419 . S
C1823 H1827 0.930 . S
C1824 C1823 1.369 . S
C1824 C1833 1.429 . S
C1825 C1823 1.419 . S
C1825 C1826 1.363 . S
C1825 H1828 0.929 . S
C1826 C1825 1.363 . S
C1826 C1832 1.428 . S
H1827 C1823 0.930 . S
H1828 C1825 0.929 . S
S1829 N1830 1.613 . S
S1829 N1831 1.610 . S
N1830 S1829 1.613 . S
N1830 C1833 1.350 . S
N1831 S1829 1.610 . S
N1831 C1832 1.351 . S
C1832 C1826 1.428 . S
C1832 N1831 1.351 . S
C1832 C1833 1.434 . S
C1833 C1824 1.429 . S
C1833 N1830 1.350 . S
C1833 C1832 1.434 . S
C1834 C1835 1.369 . S
C1834 C1836 1.419 . S
C1834 H1838 0.930 . S
C1835 C1834 1.369 . S
C1835 C1844 1.429 . S
C1836 C1834 1.419 . S
C1836 C1837 1.363 . S
C1836 H1839 0.929 . S
C1837 C1836 1.363 . S
C1837 C1843 1.428 . S
H1838 C1834 0.930 . S
H1839 C1836 0.929 . S
S1840 N1841 1.613 . S
S1840 N1842 1.610 . S
N1841 S1840 1.613 . S
N1841 C1844 1.350 . S
N1842 S1840 1.610 . S
N1842 C1843 1.351 . S
C1843 C1837 1.428 . S
C1843 N1842 1.351 . S
C1843 C1844 1.434 . S
C1844 C1835 1.429 . S
C1844 N1841 1.350 . S
C1844 C1843 1.434 . S
C1845 C1846 1.369 . S
C1845 C1847 1.419 . S
C1845 H1849 0.930 . S
C1846 C1845 1.369 . S
C1846 C1855 1.429 . S
C1847 C1845 1.419 . S
C1847 C1848 1.363 . S
C1847 H1850 0.929 . S
C1848 C1847 1.363 . S
C1848 C1854 1.428 . S
H1849 C1845 0.930 . S
H1850 C1847 0.929 . S
S1851 N1852 1.613 . S
S1851 N1853 1.610 . S
N1852 S1851 1.613 . S
N1852 C1855 1.350 . S
N1853 S1851 1.610 . S
N1853 C1854 1.351 . S
C1854 C1848 1.428 . S
C1854 N1853 1.351 . S
C1854 C1855 1.434 . S
C1855 C1846 1.429 . S
C1855 N1852 1.350 . S
C1855 C1854 1.434 . S
C1856 C1857 1.369 1_545 S
C1856 C1858 1.419 . S
C1856 H1860 0.930 . S
C1857 C1856 1.369 1_565 S
C1857 C1866 1.429 1_554 S
C1858 C1856 1.419 . S
C1858 C1859 1.363 . S
C1858 H1861 0.929 . S
C1859 C1858 1.363 . S
C1859 C1865 1.424 1_545 S
H1860 C1856 0.930 . S
H1861 C1858 0.929 . S
S1862 N1863 1.613 . S
S1862 N1864 1.610 . S
N1863 S1862 1.613 . S
N1863 C1866 1.350 . S
N1864 S1862 1.610 . S
N1864 C1865 1.346 1_556 S
C1865 C1859 1.424 1_565 S
C1865 N1864 1.346 1_554 S
C1865 C1866 1.443 1_554 S
C1866 C1857 1.429 1_556 S
C1866 N1863 1.350 . S
C1866 C1865 1.443 1_556 S
C1867 C1868 1.369 1_556 S
C1867 C1869 1.419 . S
C1867 H1871 0.930 . S
C1868 C1867 1.369 1_554 S
C1868 C1877 1.429 . S
C1869 C1867 1.419 . S
C1869 C1870 1.363 1_556 S
C1869 H1872 0.929 . S
C1870 C1869 1.363 1_554 S
C1870 C1876 1.428 . S
H1871 C1867 0.930 . S
H1872 C1869 0.929 . S
S1873 N1874 1.613 . S
S1873 N1875 1.610 . S
N1874 S1873 1.613 . S
N1874 C1877 1.350 . S
N1875 S1873 1.610 . S
N1875 C1876 1.351 . S
C1876 C1870 1.428 . S
C1876 N1875 1.351 . S
C1876 C1877 1.434 . S
C1877 C1868 1.429 . S
C1877 N1874 1.350 . S
C1877 C1876 1.434 . S
C1878 C1879 1.369 . S
C1878 C1880 1.419 . S
C1878 H1882 0.930 . S
C1879 C1878 1.369 . S
C1879 C1888 1.429 . S
C1880 C1878 1.419 . S
C1880 C1881 1.363 . S
C1880 H1883 0.929 . S
C1881 C1880 1.363 . S
C1881 C1887 1.428 . S
H1882 C1878 0.930 . S
H1883 C1880 0.929 . S
S1884 N1885 1.613 . S
S1884 N1886 1.610 . S
N1885 S1884 1.613 . S
N1885 C1888 1.350 . S
N1886 S1884 1.610 . S
N1886 C1887 1.351 . S
C1887 C1881 1.428 . S
C1887 N1886 1.351 . S
C1887 C1888 1.434 . S
C1888 C1879 1.429 . S
C1888 N1885 1.350 . S
C1888 C1887 1.434 . S
C1889 C1890 1.369 . S
C1889 C1891 1.419 . S
C1889 H1893 0.930 . S
C1890 C1889 1.369 . S
C1890 C1899 1.429 . S
C1891 C1889 1.419 . S
C1891 C1892 1.363 . S
C1891 H1894 0.929 . S
C1892 C1891 1.363 . S
C1892 C1898 1.428 . S
H1893 C1889 0.930 . S
H1894 C1891 0.929 . S
S1895 N1896 1.613 . S
S1895 N1897 1.610 . S
N1896 S1895 1.613 . S
N1896 C1899 1.350 . S
N1897 S1895 1.610 . S
N1897 C1898 1.351 . S
C1898 C1892 1.428 . S
C1898 N1897 1.351 . S
C1898 C1899 1.434 . S
C1899 C1890 1.429 . S
C1899 N1896 1.350 . S
C1899 C1898 1.434 . S
C1900 C1901 1.369 . S
C1900 C1902 1.419 . S
C1900 H1904 0.930 . S
C1901 C1900 1.369 . S
C1901 C1910 1.429 . S
C1902 C1900 1.419 . S
C1902 C1903 1.363 . S
C1902 H1905 0.929 . S
C1903 C1902 1.363 . S
C1903 C1909 1.428 . S
H1904 C1900 0.930 . S
H1905 C1902 0.929 . S
S1906 N1907 1.613 . S
S1906 N1908 1.610 . S
N1907 S1906 1.613 . S
N1907 C1910 1.350 . S
N1908 S1906 1.610 . S
N1908 C1909 1.351 . S
C1909 C1903 1.428 . S
C1909 N1908 1.351 . S
C1909 C1910 1.434 . S
C1910 C1901 1.429 . S
C1910 N1907 1.350 . S
C1910 C1909 1.434 . S
C1911 C1912 1.369 . S
C1911 C1913 1.419 . S
C1911 H1915 0.930 . S
C1912 C1911 1.369 . S
C1912 C1921 1.429 . S
C1913 C1911 1.419 . S
C1913 C1914 1.363 . S
C1913 H1916 0.929 . S
C1914 C1913 1.363 . S
C1914 C1920 1.428 . S
H1915 C1911 0.930 . S
H1916 C1913 0.929 . S
S1917 N1918 1.613 . S
S1917 N1919 1.610 . S
N1918 S1917 1.613 . S
N1918 C1921 1.350 . S
N1919 S1917 1.610 . S
N1919 C1920 1.351 . S
C1920 C1914 1.428 . S
C1920 N1919 1.351 . S
C1920 C1921 1.434 . S
C1921 C1912 1.429 . S
C1921 N1918 1.350 . S
C1921 C1920 1.434 . S
C1922 C1923 1.369 . S
C1922 C1924 1.419 . S
C1922 H1926 0.930 . S
C1923 C1922 1.369 . S
C1923 C1932 1.429 . S
C1924 C1922 1.419 . S
C1924 C1925 1.363 . S
C1924 H1927 0.929 . S
C1925 C1924 1.363 . S
C1925 C1931 1.428 . S
H1926 C1922 0.930 . S
H1927 C1924 0.929 . S
S1928 N1929 1.613 . S
S1928 N1930 1.610 . S
N1929 S1928 1.613 . S
N1929 C1932 1.350 . S
N1930 S1928 1.610 . S
N1930 C1931 1.351 . S
C1931 C1925 1.428 . S
C1931 N1930 1.351 . S
C1931 C1932 1.434 . S
C1932 C1923 1.429 . S
C1932 N1929 1.350 . S
C1932 C1931 1.434 . S
C1933 C1934 1.369 . S
C1933 C1935 1.419 . S
C1933 H1937 0.930 . S
C1934 C1933 1.369 . S
C1934 C1943 1.429 . S
C1935 C1933 1.419 . S
C1935 C1936 1.363 . S
C1935 H1938 0.929 . S
C1936 C1935 1.363 . S
C1936 C1942 1.428 . S
H1937 C1933 0.930 . S
H1938 C1935 0.929 . S
S1939 N1940 1.613 . S
S1939 N1941 1.610 . S
N1940 S1939 1.613 . S
N1940 C1943 1.350 . S
N1941 S1939 1.610 . S
N1941 C1942 1.351 . S
C1942 C1936 1.428 . S
C1942 N1941 1.351 . S
C1942 C1943 1.434 . S
C1943 C1934 1.429 . S
C1943 N1940 1.350 . S
C1943 C1942 1.434 . S
C1944 C1945 1.369 . S
C1944 C1946 1.419 . S
C1944 H1948 0.930 . S
C1945 C1944 1.369 . S
C1945 C1954 1.429 . S
C1946 C1944 1.419 . S
C1946 C1947 1.363 . S
C1946 H1949 0.929 . S
C1947 C1946 1.363 . S
C1947 C1953 1.428 . S
H1948 C1944 0.930 . S
H1949 C1946 0.929 . S
S1950 N1951 1.613 . S
S1950 N1952 1.610 . S
N1951 S1950 1.613 . S
N1951 C1954 1.350 . S
N1952 S1950 1.610 . S
N1952 C1953 1.351 . S
C1953 C1947 1.428 . S
C1953 N1952 1.351 . S
C1953 C1954 1.434 . S
C1954 C1945 1.429 . S
C1954 N1951 1.350 . S
C1954 C1953 1.434 . S
C1955 C1956 1.369 . S
C1955 C1957 1.419 . S
C1955 H1959 0.930 . S
C1956 C1955 1.369 . S
C1956 C1965 1.429 . S
C1957 C1955 1.419 . S
C1957 C1958 1.363 . S
C1957 H1960 0.929 . S
C1958 C1957 1.363 . S
C1958 C1964 1.428 . S
H1959 C1955 0.930 . S
H1960 C1957 0.929 . S
S1961 N1962 1.613 . S
S1961 N1963 1.610 . S
N1962 S1961 1.613 . S
N1962 C1965 1.350 . S
N1963 S1961 1.610 . S
N1963 C1964 1.351 . S
C1964 C1958 1.428 . S
C1964 N1963 1.351 . S
C1964 C1965 1.434 . S
C1965 C1956 1.429 . S
C1965 N1962 1.350 . S
C1965 C1964 1.434 . S
C1966 C1967 1.369 . S
C1966 C1968 1.419 . S
C1966 H1970 0.930 . S
C1967 C1966 1.369 . S
C1967 C1976 1.429 . S
C1968 C1966 1.419 . S
C1968 C1969 1.363 . S
C1968 H1971 0.929 . S
C1969 C1968 1.363 . S
C1969 C1975 1.428 . S
H1970 C1966 0.930 . S
H1971 C1968 0.929 . S
S1972 N1973 1.613 . S
S1972 N1974 1.610 . S
N1973 S1972 1.613 . S
N1973 C1976 1.350 . S
N1974 S1972 1.610 . S
N1974 C1975 1.351 . S
C1975 C1969 1.428 . S
C1975 N1974 1.351 . S
C1975 C1976 1.434 . S
C1976 C1967 1.429 . S
C1976 N1973 1.350 . S
C1976 C1975 1.434 . S
C1977 C1978 1.369 . S
C1977 C1979 1.419 . S
C1977 H1981 0.930 . S
C1978 C1977 1.369 . S
C1978 C1987 1.429 . S
C1979 C1977 1.419 . S
C1979 C1980 1.363 . S
C1979 H1982 0.929 . S
C1980 C1979 1.363 . S
C1980 C1986 1.428 . S
H1981 C1977 0.930 . S
H1982 C1979 0.929 . S
S1983 N1984 1.613 . S
S1983 N1985 1.610 . S
N1984 S1983 1.613 . S
N1984 C1987 1.350 . S
N1985 S1983 1.610 . S
N1985 C1986 1.351 . S
C1986 C1980 1.428 . S
C1986 N1985 1.351 . S
C1986 C1987 1.434 . S
C1987 C1978 1.429 . S
C1987 N1984 1.350 . S
C1987 C1986 1.434 . S
C1988 C1989 1.369 . S
C1988 C1990 1.419 . S
C1988 H1992 0.930 . S
C1989 C1988 1.369 . S
C1989 C1998 1.429 . S
C1990 C1988 1.419 . S
C1990 C1991 1.363 . S
C1990 H1993 0.929 . S
C1991 C1990 1.363 . S
C1991 C1997 1.428 . S
H1992 C1988 0.930 . S
H1993 C1990 0.929 . S
S1994 N1995 1.613 . S
S1994 N1996 1.610 . S
N1995 S1994 1.613 . S
N1995 C1998 1.350 1_655 S
N1996 S1994 1.610 . S
N1996 C1997 1.351 1_655 S
C1997 C1991 1.428 . S
C1997 N1996 1.351 1_455 S
C1997 C1998 1.434 . S
C1998 C1989 1.429 . S
C1998 N1995 1.350 1_455 S
C1998 C1997 1.434 . S
C1999 C2000 1.369 . S
C1999 C2001 1.419 . S
C1999 H2003 0.930 . S
C2000 C1999 1.369 . S
C2000 C2009 1.429 . S
C2001 C1999 1.419 . S
C2001 C2002 1.363 . S
C2001 H2004 0.929 . S
C2002 C2001 1.363 . S
C2002 C2008 1.428 . S
H2003 C1999 0.930 . S
H2004 C2001 0.929 . S
S2005 N2006 1.613 . S
S2005 N2007 1.610 . S
N2006 S2005 1.613 . S
N2006 C2009 1.350 . S
N2007 S2005 1.610 . S
N2007 C2008 1.351 . S
C2008 C2002 1.428 . S
C2008 N2007 1.351 . S
C2008 C2009 1.434 . S
C2009 C2000 1.429 . S
C2009 N2006 1.350 . S
C2009 C2008 1.434 . S
C2010 C2011 1.369 . S
C2010 C2012 1.419 . S
C2010 H2014 0.930 . S
C2011 C2010 1.369 . S
C2011 C2020 1.429 . S
C2012 C2010 1.419 . S
C2012 C2013 1.363 . S
C2012 H2015 0.929 . S
C2013 C2012 1.363 . S
C2013 C2019 1.428 . S
H2014 C2010 0.930 . S
H2015 C2012 0.929 . S
S2016 N2017 1.613 1_554 S
S2016 N2018 1.610 . S
N2017 S2016 1.613 1_556 S
N2017 C2020 1.350 . S
N2018 S2016 1.610 . S
N2018 C2019 1.351 1_554 S
C2019 C2013 1.428 . S
C2019 N2018 1.351 1_556 S
C2019 C2020 1.434 . S
C2020 C2011 1.429 . S
C2020 N2017 1.350 . S
C2020 C2019 1.434 . S
C2021 C2022 1.369 . S
C2021 C2023 1.419 . S
C2021 H2025 0.930 . S
C2022 C2021 1.369 . S
C2022 C2031 1.429 . S
C2023 C2021 1.419 . S
C2023 C2024 1.363 . S
C2023 H2026 0.929 . S
C2024 C2023 1.363 . S
C2024 C2030 1.428 . S
H2025 C2021 0.930 . S
H2026 C2023 0.929 . S
S2027 N2028 1.613 . S
S2027 N2029 1.610 . S
N2028 S2027 1.613 . S
N2028 C2031 1.350 . S
N2029 S2027 1.610 . S
N2029 C2030 1.351 . S
C2030 C2024 1.428 . S
C2030 N2029 1.351 . S
C2030 C2031 1.434 . S
C2031 C2022 1.429 . S
C2031 N2028 1.350 . S
C2031 C2030 1.434 . S
C2032 C2033 1.369 . S
C2032 C2034 1.419 . S
C2032 H2036 0.930 . S
C2033 C2032 1.369 . S
C2033 C2042 1.429 . S
C2034 C2032 1.419 . S
C2034 C2035 1.363 . S
C2034 H2037 0.929 . S
C2035 C2034 1.363 . S
C2035 C2041 1.428 . S
H2036 C2032 0.930 . S
H2037 C2034 0.929 . S
S2038 N2039 1.613 . S
S2038 N2040 1.610 . S
N2039 S2038 1.613 . S
N2039 C2042 1.350 . S
N2040 S2038 1.610 . S
N2040 C2041 1.351 . S
C2041 C2035 1.428 . S
C2041 N2040 1.351 . S
C2041 C2042 1.434 . S
C2042 C2033 1.429 . S
C2042 N2039 1.350 . S
C2042 C2041 1.434 . S
C2043 C2044 1.369 . S
C2043 C2045 1.419 . S
C2043 H2047 0.930 . S
C2044 C2043 1.369 . S
C2044 C2053 1.429 . S
C2045 C2043 1.419 . S
C2045 C2046 1.363 . S
C2045 H2048 0.929 . S
C2046 C2045 1.363 . S
C2046 C2052 1.428 . S
H2047 C2043 0.930 . S
H2048 C2045 0.929 . S
S2049 N2050 1.613 . S
S2049 N2051 1.610 . S
N2050 S2049 1.613 . S
N2050 C2053 1.350 . S
N2051 S2049 1.610 . S
N2051 C2052 1.351 . S
C2052 C2046 1.428 . S
C2052 N2051 1.351 . S
C2052 C2053 1.434 . S
C2053 C2044 1.429 . S
C2053 N2050 1.350 . S
C2053 C2052 1.434 . S
C2054 C2055 1.369 . S
C2054 C2056 1.419 . S
C2054 H2058 0.930 . S
C2055 C2054 1.369 . S
C2055 C2064 1.429 1_545 S
C2056 C2054 1.419 . S
C2056 C2057 1.363 . S
C2056 H2059 0.929 . S
C2057 C2056 1.363 . S
C2057 C2063 1.428 . S
H2058 C2054 0.930 . S
H2059 C2056 0.929 . S
S2060 N2061 1.613 . S
S2060 N2062 1.610 . S
N2061 S2060 1.613 . S
N2061 C2064 1.350 . S
N2062 S2060 1.610 . S
N2062 C2063 1.351 1_565 S
C2063 C2057 1.428 . S
C2063 N2062 1.351 1_545 S
C2063 C2064 1.434 1_545 S
C2064 C2055 1.429 1_565 S
C2064 N2061 1.350 . S
C2064 C2063 1.434 1_565 S
C2065 C2066 1.369 . S
C2065 C2067 1.419 . S
C2065 H2069 0.930 . S
C2066 C2065 1.369 . S
C2066 C2075 1.429 . S
C2067 C2065 1.419 . S
C2067 C2068 1.363 . S
C2067 H2070 0.929 . S
C2068 C2067 1.363 . S
C2068 C2074 1.428 . S
H2069 C2065 0.930 . S
H2070 C2067 0.929 . S
S2071 N2072 1.613 . S
S2071 N2073 1.610 . S
N2072 S2071 1.613 . S
N2072 C2075 1.350 . S
N2073 S2071 1.610 . S
N2073 C2074 1.351 . S
C2074 C2068 1.428 . S
C2074 N2073 1.351 . S
C2074 C2075 1.434 . S
C2075 C2066 1.429 . S
C2075 N2072 1.350 . S
C2075 C2074 1.434 . S
C2076 C2077 1.369 . S
C2076 C2078 1.419 . S
C2076 H2080 0.930 . S
C2077 C2076 1.369 . S
C2077 C2086 1.429 . S
C2078 C2076 1.419 . S
C2078 C2079 1.363 . S
C2078 H2081 0.929 . S
C2079 C2078 1.363 . S
C2079 C2085 1.428 . S
H2080 C2076 0.930 . S
H2081 C2078 0.929 . S
S2082 N2083 1.613 . S
S2082 N2084 1.610 . S
N2083 S2082 1.613 . S
N2083 C2086 1.350 . S
N2084 S2082 1.610 . S
N2084 C2085 1.351 . S
C2085 C2079 1.428 . S
C2085 N2084 1.351 . S
C2085 C2086 1.434 . S
C2086 C2077 1.429 . S
C2086 N2083 1.350 . S
C2086 C2085 1.434 . S
C2087 C2088 1.369 . S
C2087 C2089 1.419 . S
C2087 H2091 0.930 . S
C2088 C2087 1.369 . S
C2088 C2097 1.429 . S
C2089 C2087 1.419 . S
C2089 C2090 1.363 . S
C2089 H2092 0.929 . S
C2090 C2089 1.363 . S
C2090 C2096 1.428 . S
H2091 C2087 0.930 . S
H2092 C2089 0.929 . S
S2093 N2094 1.613 . S
S2093 N2095 1.610 . S
N2094 S2093 1.613 . S
N2094 C2097 1.350 . S
N2095 S2093 1.610 . S
N2095 C2096 1.351 . S
C2096 C2090 1.428 . S
C2096 N2095 1.351 . S
C2096 C2097 1.434 . S
C2097 C2088 1.429 . S
C2097 N2094 1.350 . S
C2097 C2096 1.434 . S
C2098 C2099 1.369 1_565 S
C2098 C2100 1.419 . S
C2098 H2102 0.930 . S
C2099 C2098 1.369 1_545 S
C2099 C2108 1.429 . S
C2100 C2098 1.419 . S
C2100 C2101 1.363 1_565 S
C2100 H2103 0.929 . S
C2101 C2100 1.363 1_545 S
C2101 C2107 1.428 . S
H2102 C2098 0.930 . S
H2103 C2100 0.929 . S
S2104 N2105 1.613 . S
S2104 N2106 1.610 . S
N2105 S2104 1.613 . S
N2105 C2108 1.350 . S
N2106 S2104 1.610 . S
N2106 C2107 1.351 . S
C2107 C2101 1.428 . S
C2107 N2106 1.351 . S
C2107 C2108 1.434 . S
C2108 C2099 1.429 . S
C2108 N2105 1.350 . S
C2108 C2107 1.434 . S
C2109 C2110 1.369 . S
C2109 C2111 1.419 . S
C2109 H2113 0.930 . S
C2110 C2109 1.369 . S
C2110 C2119 1.429 . S
C2111 C2109 1.419 . S
C2111 C2112 1.363 . S
C2111 H2114 0.929 . S
C2112 C2111 1.363 . S
C2112 C2118 1.428 . S
H2113 C2109 0.930 . S
H2114 C2111 0.929 . S
S2115 N2116 1.613 . S
S2115 N2117 1.610 . S
N2116 S2115 1.613 . S
N2116 C2119 1.350 . S
N2117 S2115 1.610 . S
N2117 C2118 1.351 . S
C2118 C2112 1.428 . S
C2118 N2117 1.351 . S
C2118 C2119 1.434 . S
C2119 C2110 1.429 . S
C2119 N2116 1.350 . S
C2119 C2118 1.434 . S
C2120 C2121 1.369 . S
C2120 C2122 1.419 . S
C2120 H2124 0.930 . S
C2121 C2120 1.369 . S
C2121 C2130 1.429 . S
C2122 C2120 1.419 . S
C2122 C2123 1.363 . S
C2122 H2125 0.929 . S
C2123 C2122 1.363 . S
C2123 C2129 1.428 . S
H2124 C2120 0.930 . S
H2125 C2122 0.929 . S
S2126 N2127 1.613 1_556 S
S2126 N2128 1.610 . S
N2127 S2126 1.613 1_554 S
N2127 C2130 1.350 . S
N2128 S2126 1.610 . S
N2128 C2129 1.351 1_556 S
C2129 C2123 1.428 . S
C2129 N2128 1.351 1_554 S
C2129 C2130 1.434 . S
C2130 C2121 1.429 . S
C2130 N2127 1.350 . S
C2130 C2129 1.434 . S
C2131 C2132 1.369 . S
C2131 C2133 1.419 . S
C2131 H2135 0.930 . S
C2132 C2131 1.369 . S
C2132 C2141 1.429 . S
C2133 C2131 1.419 . S
C2133 C2134 1.363 . S
C2133 H2136 0.929 . S
C2134 C2133 1.363 . S
C2134 C2140 1.428 . S
H2135 C2131 0.930 . S
H2136 C2133 0.929 . S
S2137 N2138 1.613 1_556 S
S2137 N2139 1.610 1_556 S
N2138 S2137 1.613 1_554 S
N2138 C2141 1.350 . S
N2139 S2137 1.610 1_554 S
N2139 C2140 1.351 . S
C2140 C2134 1.428 . S
C2140 N2139 1.351 . S
C2140 C2141 1.434 . S
C2141 C2132 1.429 . S
C2141 N2138 1.350 . S
C2141 C2140 1.434 . S
C2142 C2143 1.369 . S
C2142 C2144 1.419 . S
C2142 H2146 0.930 . S
C2143 C2142 1.369 . S
C2143 C2152 1.429 . S
C2144 C2142 1.419 . S
C2144 C2145 1.363 . S
C2144 H2147 0.929 . S
C2145 C2144 1.363 . S
C2145 C2151 1.428 . S
H2146 C2142 0.930 . S
H2147 C2144 0.929 . S
S2148 N2149 1.613 . S
S2148 N2150 1.610 . S
N2149 S2148 1.613 . S
N2149 C2152 1.350 . S
N2150 S2148 1.610 . S
N2150 C2151 1.351 . S
C2151 C2145 1.428 . S
C2151 N2150 1.351 . S
C2151 C2152 1.434 . S
C2152 C2143 1.429 . S
C2152 N2149 1.350 . S
C2152 C2151 1.434 . S
C2153 C2154 1.369 . S
C2153 C2155 1.419 . S
C2153 H2157 0.930 . S
C2154 C2153 1.369 . S
C2154 C2163 1.429 . S
C2155 C2153 1.419 . S
C2155 C2156 1.363 . S
C2155 H2158 0.929 . S
C2156 C2155 1.363 . S
C2156 C2162 1.428 . S
H2157 C2153 0.930 . S
H2158 C2155 0.929 . S
S2159 N2160 1.613 . S
S2159 N2161 1.610 . S
N2160 S2159 1.613 . S
N2160 C2163 1.350 . S
N2161 S2159 1.610 . S
N2161 C2162 1.351 . S
C2162 C2156 1.428 . S
C2162 N2161 1.351 . S
C2162 C2163 1.434 . S
C2163 C2154 1.429 . S
C2163 N2160 1.350 . S
C2163 C2162 1.434 . S
C2164 C2165 1.369 . S
C2164 C2166 1.419 1_545 S
C2164 H2168 0.930 . S
C2165 C2164 1.369 . S
C2165 C2174 1.429 1_545 S
C2166 C2164 1.419 1_565 S
C2166 C2167 1.363 . S
C2166 H2169 0.926 . S
C2167 C2166 1.363 . S
C2167 C2173 1.428 . S
H2168 C2164 0.930 . S
H2169 C2166 0.926 . S
S2170 N2171 1.613 . S
S2170 N2172 1.610 . S
N2171 S2170 1.613 . S
N2171 C2174 1.350 . S
N2172 S2170 1.610 . S
N2172 C2173 1.351 . S
C2173 C2167 1.428 . S
C2173 N2172 1.351 . S
C2173 C2174 1.434 . S
C2174 C2165 1.429 1_565 S
C2174 N2171 1.350 . S
C2174 C2173 1.434 . S
C2175 C2176 1.369 . S
C2175 C2177 1.419 . S
C2175 H2179 0.930 . S
C2176 C2175 1.369 . S
C2176 C2185 1.429 . S
C2177 C2175 1.419 . S
C2177 C2178 1.363 . S
C2177 H2180 0.929 . S
C2178 C2177 1.363 . S
C2178 C2184 1.428 . S
H2179 C2175 0.930 . S
H2180 C2177 0.929 . S
S2181 N2182 1.613 1_545 S
S2181 N2183 1.610 . S
N2182 S2181 1.613 1_565 S
N2182 C2185 1.350 . S
N2183 S2181 1.610 . S
N2183 C2184 1.351 1_545 S
C2184 C2178 1.428 . S
C2184 N2183 1.351 1_565 S
C2184 C2185 1.434 . S
C2185 C2176 1.429 . S
C2185 N2182 1.350 . S
C2185 C2184 1.434 . S
C2186 C2187 1.369 . S
C2186 C2188 1.419 . S
C2186 H2190 0.930 . S
C2187 C2186 1.369 . S
C2187 C2196 1.429 . S
C2188 C2186 1.419 . S
C2188 C2189 1.363 . S
C2188 H2191 0.929 . S
C2189 C2188 1.363 . S
C2189 C2195 1.428 . S
H2190 C2186 0.930 . S
H2191 C2188 0.929 . S
S2192 N2193 1.613 . S
S2192 N2194 1.610 . S
N2193 S2192 1.613 . S
N2193 C2196 1.350 . S
N2194 S2192 1.610 . S
N2194 C2195 1.351 . S
C2195 C2189 1.428 . S
C2195 N2194 1.351 . S
C2195 C2196 1.434 . S
C2196 C2187 1.429 . S
C2196 N2193 1.350 . S
C2196 C2195 1.434 . S
C2197 C2198 1.369 . S
C2197 C2199 1.419 . S
C2197 H2201 0.930 . S
C2198 C2197 1.369 . S
C2198 C2207 1.429 . S
C2199 C2197 1.419 . S
C2199 C2200 1.363 . S
C2199 H2202 0.929 . S
C2200 C2199 1.363 . S
C2200 C2206 1.428 . S
H2201 C2197 0.930 . S
H2202 C2199 0.929 . S
S2203 N2204 1.613 . S
S2203 N2205 1.610 . S
N2204 S2203 1.613 . S
N2204 C2207 1.350 . S
N2205 S2203 1.610 . S
N2205 C2206 1.351 . S
C2206 C2200 1.428 . S
C2206 N2205 1.351 . S
C2206 C2207 1.434 . S
C2207 C2198 1.429 . S
C2207 N2204 1.350 . S
C2207 C2206 1.434 . S
C2208 C2209 1.369 . S
C2208 C2210 1.419 . S
C2208 H2212 0.930 . S
C2209 C2208 1.369 . S
C2209 C2218 1.429 . S
C2210 C2208 1.419 . S
C2210 C2211 1.363 . S
C2210 H2213 0.929 . S
C2211 C2210 1.363 . S
C2211 C2217 1.428 . S
H2212 C2208 0.930 . S
H2213 C2210 0.929 . S
S2214 N2215 1.613 . S
S2214 N2216 1.610 . S
N2215 S2214 1.613 . S
N2215 C2218 1.350 . S
N2216 S2214 1.610 . S
N2216 C2217 1.351 . S
C2217 C2211 1.428 . S
C2217 N2216 1.351 . S
C2217 C2218 1.434 . S
C2218 C2209 1.429 . S
C2218 N2215 1.350 . S
C2218 C2217 1.434 . S
C2219 C2220 1.369 . S
C2219 C2221 1.419 . S
C2219 H2223 0.930 . S
C2220 C2219 1.369 . S
C2220 C2229 1.429 . S
C2221 C2219 1.419 . S
C2221 C2222 1.363 . S
C2221 H2224 0.929 . S
C2222 C2221 1.363 . S
C2222 C2228 1.428 . S
H2223 C2219 0.930 . S
H2224 C2221 0.929 . S
S2225 N2226 1.613 . S
S2225 N2227 1.610 . S
N2226 S2225 1.613 . S
N2226 C2229 1.350 . S
N2227 S2225 1.610 . S
N2227 C2228 1.351 . S
C2228 C2222 1.428 . S
C2228 N2227 1.351 . S
C2228 C2229 1.434 . S
C2229 C2220 1.429 . S
C2229 N2226 1.350 . S
C2229 C2228 1.434 . S
C2230 C2231 1.369 . S
C2230 C2232 1.419 . S
C2230 H2234 0.930 . S
C2231 C2230 1.369 . S
C2231 C2240 1.429 1_454 S
C2232 C2230 1.419 . S
C2232 C2233 1.363 . S
C2232 H2235 0.929 . S
C2233 C2232 1.363 . S
C2233 C2239 1.428 1_454 S
H2234 C2230 0.930 . S
H2235 C2232 0.929 . S
S2236 N2237 1.613 . S
S2236 N2238 1.610 . S
N2237 S2236 1.613 . S
N2237 C2240 1.350 . S
N2238 S2236 1.610 . S
N2238 C2239 1.351 . S
C2239 C2233 1.428 1_656 S
C2239 N2238 1.351 . S
C2239 C2240 1.434 . S
C2240 C2231 1.429 1_656 S
C2240 N2237 1.350 . S
C2240 C2239 1.434 . S
C2241 C2242 1.369 1_655 S
C2241 C2243 1.419 . S
C2241 H2245 0.930 . S
C2242 C2241 1.369 1_455 S
C2242 C2251 1.429 . S
C2243 C2241 1.419 . S
C2243 C2244 1.363 . S
C2243 H2246 0.929 . S
C2244 C2243 1.363 . S
C2244 C2250 1.428 . S
H2245 C2241 0.930 . S
H2246 C2243 0.929 . S
S2247 N2248 1.613 . S
S2247 N2249 1.610 1_455 S
N2248 S2247 1.613 . S
N2248 C2251 1.350 . S
N2249 S2247 1.610 1_655 S
N2249 C2250 1.351 . S
C2250 C2244 1.428 . S
C2250 N2249 1.351 . S
C2250 C2251 1.434 1_655 S
C2251 C2242 1.429 . S
C2251 N2248 1.350 . S
C2251 C2250 1.434 1_455 S
C2252 C2253 1.369 . S
C2252 C2254 1.419 . S
C2252 H2256 0.930 . S
C2253 C2252 1.369 . S
C2253 C2262 1.429 . S
C2254 C2252 1.419 . S
C2254 C2255 1.363 . S
C2254 H2257 0.929 . S
C2255 C2254 1.363 . S
C2255 C2261 1.428 . S
H2256 C2252 0.930 . S
H2257 C2254 0.929 . S
S2258 N2259 1.613 . S
S2258 N2260 1.610 . S
N2259 S2258 1.613 . S
N2259 C2262 1.350 . S
N2260 S2258 1.610 . S
N2260 C2261 1.351 . S
C2261 C2255 1.428 . S
C2261 N2260 1.351 . S
C2261 C2262 1.434 . S
C2262 C2253 1.429 . S
C2262 N2259 1.350 . S
C2262 C2261 1.434 . S
C2263 C2264 1.369 . S
C2263 C2265 1.419 . S
C2263 H2267 0.930 . S
C2264 C2263 1.369 . S
C2264 C2273 1.429 . S
C2265 C2263 1.419 . S
C2265 C2266 1.363 . S
C2265 H2268 0.929 . S
C2266 C2265 1.363 . S
C2266 C2272 1.428 . S
H2267 C2263 0.930 . S
H2268 C2265 0.929 . S
S2269 N2270 1.613 . S
S2269 N2271 1.610 . S
N2270 S2269 1.613 . S
N2270 C2273 1.350 . S
N2271 S2269 1.610 . S
N2271 C2272 1.351 . S
C2272 C2266 1.428 . S
C2272 N2271 1.351 . S
C2272 C2273 1.434 . S
C2273 C2264 1.429 . S
C2273 N2270 1.350 . S
C2273 C2272 1.434 . S
C2274 C2275 1.369 . S
C2274 C2276 1.419 . S
C2274 H2278 0.930 . S
C2275 C2274 1.369 . S
C2275 C2284 1.429 1_455 S
C2276 C2274 1.419 . S
C2276 C2277 1.363 . S
C2276 H2279 0.929 . S
C2277 C2276 1.363 . S
C2277 C2283 1.428 1_455 S
H2278 C2274 0.930 . S
H2279 C2276 0.929 . S
S2280 N2281 1.613 . S
S2280 N2282 1.610 . S
N2281 S2280 1.613 . S
N2281 C2284 1.350 . S
N2282 S2280 1.610 . S
N2282 C2283 1.351 . S
C2283 C2277 1.428 1_655 S
C2283 N2282 1.351 . S
C2283 C2284 1.434 . S
C2284 C2275 1.429 1_655 S
C2284 N2281 1.350 . S
C2284 C2283 1.434 . S
C2285 C2286 1.369 . S
C2285 C2287 1.419 . S
C2285 H2289 0.930 . S
C2286 C2285 1.369 . S
C2286 C2295 1.429 . S
C2287 C2285 1.419 . S
C2287 C2288 1.363 . S
C2287 H2290 0.929 . S
C2288 C2287 1.363 . S
C2288 C2294 1.428 . S
H2289 C2285 0.930 . S
H2290 C2287 0.929 . S
S2291 N2292 1.613 . S
S2291 N2293 1.610 . S
N2292 S2291 1.613 . S
N2292 C2295 1.350 . S
N2293 S2291 1.610 . S
N2293 C2294 1.351 . S
C2294 C2288 1.428 . S
C2294 N2293 1.351 . S
C2294 C2295 1.434 . S
C2295 C2286 1.429 . S
C2295 N2292 1.350 . S
C2295 C2294 1.434 . S
C2296 C2297 1.369 . S
C2296 C2298 1.419 . S
C2296 H2300 0.930 . S
C2297 C2296 1.369 . S
C2297 C2306 1.429 . S
C2298 C2296 1.419 . S
C2298 C2299 1.363 . S
C2298 H2301 0.929 . S
C2299 C2298 1.363 . S
C2299 C2305 1.428 . S
H2300 C2296 0.930 . S
H2301 C2298 0.929 . S
S2302 N2303 1.613 . S
S2302 N2304 1.610 . S
N2303 S2302 1.613 . S
N2303 C2306 1.350 . S
N2304 S2302 1.610 . S
N2304 C2305 1.351 . S
C2305 C2299 1.428 . S
C2305 N2304 1.351 . S
C2305 C2306 1.434 . S
C2306 C2297 1.429 . S
C2306 N2303 1.350 . S
C2306 C2305 1.434 . S
C2307 C2308 1.369 1_556 S
C2307 C2309 1.419 . S
C2307 H2311 0.930 . S
C2308 C2307 1.369 1_554 S
C2308 C2317 1.429 . S
C2309 C2307 1.419 . S
C2309 C2310 1.363 . S
C2309 H2312 0.929 . S
C2310 C2309 1.363 . S
C2310 C2316 1.428 . S
H2311 C2307 0.930 . S
H2312 C2309 0.929 . S
S2313 N2314 1.613 . S
S2313 N2315 1.610 . S
N2314 S2313 1.613 . S
N2314 C2317 1.350 . S
N2315 S2313 1.610 . S
N2315 C2316 1.351 1_554 S
C2316 C2310 1.428 . S
C2316 N2315 1.351 1_556 S
C2316 C2317 1.434 1_556 S
C2317 C2308 1.429 . S
C2317 N2314 1.350 . S
C2317 C2316 1.434 1_554 S
C2318 C2319 1.369 . S
C2318 C2320 1.419 . S
C2318 H2322 0.930 . S
C2319 C2318 1.369 . S
C2319 C2328 1.429 . S
C2320 C2318 1.419 . S
C2320 C2321 1.363 . S
C2320 H2323 0.929 . S
C2321 C2320 1.363 . S
C2321 C2327 1.428 . S
H2322 C2318 0.930 . S
H2323 C2320 0.929 . S
S2324 N2325 1.613 . S
S2324 N2326 1.610 . S
N2325 S2324 1.613 . S
N2325 C2328 1.350 . S
N2326 S2324 1.610 . S
N2326 C2327 1.351 . S
C2327 C2321 1.428 . S
C2327 N2326 1.351 . S
C2327 C2328 1.434 . S
C2328 C2319 1.429 . S
C2328 N2325 1.350 . S
C2328 C2327 1.434 . S
C2329 C2330 1.369 . S
C2329 C2331 1.419 . S
C2329 H2333 0.930 . S
C2330 C2329 1.369 . S
C2330 C2339 1.429 . S
C2331 C2329 1.419 . S
C2331 C2332 1.363 . S
C2331 H2334 0.929 . S
C2332 C2331 1.363 . S
C2332 C2338 1.428 . S
H2333 C2329 0.930 . S
H2334 C2331 0.929 . S
S2335 N2336 1.613 . S
S2335 N2337 1.610 . S
N2336 S2335 1.613 . S
N2336 C2339 1.350 . S
N2337 S2335 1.610 . S
N2337 C2338 1.351 . S
C2338 C2332 1.428 . S
C2338 N2337 1.351 . S
C2338 C2339 1.434 . S
C2339 C2330 1.429 . S
C2339 N2336 1.350 . S
C2339 C2338 1.434 . S
C2340 C2341 1.369 . S
C2340 C2342 1.419 . S
C2340 H2344 0.930 . S
C2341 C2340 1.369 . S
C2341 C2350 1.429 . S
C2342 C2340 1.419 . S
C2342 C2343 1.363 . S
C2342 H2345 0.929 . S
C2343 C2342 1.363 . S
C2343 C2349 1.428 . S
H2344 C2340 0.930 . S
H2345 C2342 0.929 . S
S2346 N2347 1.613 . S
S2346 N2348 1.610 . S
N2347 S2346 1.613 . S
N2347 C2350 1.350 . S
N2348 S2346 1.610 . S
N2348 C2349 1.351 . S
C2349 C2343 1.428 . S
C2349 N2348 1.351 . S
C2349 C2350 1.434 . S
C2350 C2341 1.429 . S
C2350 N2347 1.350 . S
C2350 C2349 1.434 . S
C2351 C2352 1.369 . S
C2351 C2353 1.419 . S
C2351 H2355 0.930 . S
C2352 C2351 1.369 . S
C2352 C2361 1.429 . S
C2353 C2351 1.419 . S
C2353 C2354 1.363 . S
C2353 H2356 0.929 . S
C2354 C2353 1.363 . S
C2354 C2360 1.428 . S
H2355 C2351 0.930 . S
H2356 C2353 0.929 . S
S2357 N2358 1.613 . S
S2357 N2359 1.610 . S
N2358 S2357 1.613 . S
N2358 C2361 1.350 . S
N2359 S2357 1.610 . S
N2359 C2360 1.351 . S
C2360 C2354 1.428 . S
C2360 N2359 1.351 . S
C2360 C2361 1.434 . S
C2361 C2352 1.429 . S
C2361 N2358 1.350 . S
C2361 C2360 1.434 . S
C2362 C2363 1.369 . S
C2362 C2364 1.419 . S
C2362 H2366 0.930 . S
C2363 C2362 1.369 . S
C2363 C2372 1.429 . S
C2364 C2362 1.419 . S
C2364 C2365 1.363 . S
C2364 H2367 0.929 . S
C2365 C2364 1.363 . S
C2365 C2371 1.428 . S
H2366 C2362 0.930 . S
H2367 C2364 0.929 . S
S2368 N2369 1.613 . S
S2368 N2370 1.610 . S
N2369 S2368 1.613 . S
N2369 C2372 1.350 . S
N2370 S2368 1.610 . S
N2370 C2371 1.351 . S
C2371 C2365 1.428 . S
C2371 N2370 1.351 . S
C2371 C2372 1.434 . S
C2372 C2363 1.429 . S
C2372 N2369 1.350 . S
C2372 C2371 1.434 . S
C2373 C2374 1.369 . S
C2373 C2375 1.419 . S
C2373 H2377 0.930 . S
C2374 C2373 1.369 . S
C2374 C2383 1.429 . S
C2375 C2373 1.419 . S
C2375 C2376 1.363 . S
C2375 H2378 0.929 . S
C2376 C2375 1.363 . S
C2376 C2382 1.428 . S
H2377 C2373 0.930 . S
H2378 C2375 0.929 . S
S2379 N2380 1.613 . S
S2379 N2381 1.610 . S
N2380 S2379 1.613 . S
N2380 C2383 1.350 . S
N2381 S2379 1.610 . S
N2381 C2382 1.351 . S
C2382 C2376 1.428 . S
C2382 N2381 1.351 . S
C2382 C2383 1.434 . S
C2383 C2374 1.429 . S
C2383 N2380 1.350 . S
C2383 C2382 1.434 . S
C2384 C2385 1.369 . S
C2384 C2386 1.419 . S
C2384 H2388 0.930 . S
C2385 C2384 1.369 . S
C2385 C2394 1.429 . S
C2386 C2384 1.419 . S
C2386 C2387 1.363 . S
C2386 H2389 0.929 . S
C2387 C2386 1.363 . S
C2387 C2393 1.428 . S
H2388 C2384 0.930 . S
H2389 C2386 0.929 . S
S2390 N2391 1.613 . S
S2390 N2392 1.610 . S
N2391 S2390 1.613 . S
N2391 C2394 1.350 . S
N2392 S2390 1.610 . S
N2392 C2393 1.351 . S
C2393 C2387 1.428 . S
C2393 N2392 1.351 . S
C2393 C2394 1.434 . S
C2394 C2385 1.429 . S
C2394 N2391 1.350 . S
C2394 C2393 1.434 . S
C2395 C2396 1.369 . S
C2395 C2397 1.419 . S
C2395 H2399 0.930 . S
C2396 C2395 1.369 . S
C2396 C2405 1.429 . S
C2397 C2395 1.419 . S
C2397 C2398 1.363 . S
C2397 H2400 0.929 . S
C2398 C2397 1.363 . S
C2398 C2404 1.428 . S
H2399 C2395 0.930 . S
H2400 C2397 0.929 . S
S2401 N2402 1.613 . S
S2401 N2403 1.610 . S
N2402 S2401 1.613 . S
N2402 C2405 1.350 . S
N2403 S2401 1.610 . S
N2403 C2404 1.351 . S
C2404 C2398 1.428 . S
C2404 N2403 1.351 . S
C2404 C2405 1.434 . S
C2405 C2396 1.429 . S
C2405 N2402 1.350 . S
C2405 C2404 1.434 . S
C2406 C2407 1.369 . S
C2406 C2408 1.419 . S
C2406 H2410 0.930 . S
C2407 C2406 1.369 . S
C2407 C2416 1.429 1_565 S
C2408 C2406 1.419 . S
C2408 C2409 1.363 . S
C2408 H2411 0.929 . S
C2409 C2408 1.363 . S
C2409 C2415 1.428 . S
H2410 C2406 0.930 . S
H2411 C2408 0.929 . S
S2412 N2413 1.613 . S
S2412 N2414 1.588 1_545 S
N2413 S2412 1.613 . S
N2413 C2416 1.350 . S
N2414 S2412 1.588 1_565 S
N2414 C2415 1.357 . S
C2415 C2409 1.428 . S
C2415 N2414 1.357 . S
C2415 C2416 1.434 1_565 S
C2416 C2407 1.429 1_545 S
C2416 N2413 1.350 . S
C2416 C2415 1.434 1_545 S
C2417 C2418 1.369 . S
C2417 C2419 1.419 . S
C2417 H2421 0.930 . S
C2418 C2417 1.369 . S
C2418 C2427 1.429 1_565 S
C2419 C2417 1.419 . S
C2419 C2420 1.363 1_565 S
C2419 H2422 0.929 . S
C2420 C2419 1.363 1_545 S
C2420 C2426 1.428 . S
H2421 C2417 0.930 . S
H2422 C2419 0.929 . S
S2423 N2424 1.613 . S
S2423 N2425 1.610 1_556 S
N2424 S2423 1.613 . S
N2424 C2427 1.350 1_556 S
N2425 S2423 1.610 1_554 S
N2425 C2426 1.351 . S
C2426 C2420 1.428 . S
C2426 N2425 1.351 . S
C2426 C2427 1.434 . S
C2427 C2418 1.429 1_545 S
C2427 N2424 1.350 1_554 S
C2427 C2426 1.434 . S
C2428 C2429 1.369 . S
C2428 C2430 1.419 . S
C2428 H2432 0.930 . S
C2429 C2428 1.369 . S
C2429 C2438 1.429 . S
C2430 C2428 1.419 . S
C2430 C2431 1.363 . S
C2430 H2433 0.929 . S
C2431 C2430 1.363 . S
C2431 C2437 1.428 . S
H2432 C2428 0.930 . S
H2433 C2430 0.929 . S
S2434 N2435 1.613 . S
S2434 N2436 1.610 . S
N2435 S2434 1.613 . S
N2435 C2438 1.350 . S
N2436 S2434 1.610 . S
N2436 C2437 1.351 . S
C2437 C2431 1.428 . S
C2437 N2436 1.351 . S
C2437 C2438 1.434 . S
C2438 C2429 1.429 . S
C2438 N2435 1.350 . S
C2438 C2437 1.434 . S
C2439 C2440 1.369 . S
C2439 C2441 1.419 . S
C2439 H2443 0.930 . S
C2440 C2439 1.369 . S
C2440 C2449 1.429 . S
C2441 C2439 1.419 . S
C2441 C2442 1.363 . S
C2441 H2444 0.929 . S
C2442 C2441 1.363 . S
C2442 C2448 1.428 . S
H2443 C2439 0.930 . S
H2444 C2441 0.929 . S
S2445 N2446 1.613 . S
S2445 N2447 1.610 . S
N2446 S2445 1.613 . S
N2446 C2449 1.350 1_556 S
N2447 S2445 1.610 . S
N2447 C2448 1.351 1_556 S
C2448 C2442 1.428 . S
C2448 N2447 1.351 1_554 S
C2448 C2449 1.434 . S
C2449 C2440 1.429 . S
C2449 N2446 1.350 1_554 S
C2449 C2448 1.434 . S
C2450 C2451 1.369 . S
C2450 C2452 1.419 . S
C2450 H2454 0.930 . S
C2451 C2450 1.369 . S
C2451 C2460 1.429 . S
C2452 C2450 1.419 . S
C2452 C2453 1.363 . S
C2452 H2455 0.929 . S
C2453 C2452 1.363 . S
C2453 C2459 1.428 . S
H2454 C2450 0.930 . S
H2455 C2452 0.929 . S
S2456 N2457 1.613 . S
S2456 N2458 1.610 . S
N2457 S2456 1.613 . S
N2457 C2460 1.350 . S
N2458 S2456 1.610 . S
N2458 C2459 1.351 . S
C2459 C2453 1.428 . S
C2459 N2458 1.351 . S
C2459 C2460 1.434 . S
C2460 C2451 1.429 . S
C2460 N2457 1.350 . S
C2460 C2459 1.434 . S
C2461 C2462 1.369 . S
C2461 C2463 1.419 . S
C2461 H2465 0.930 . S
C2462 C2461 1.369 . S
C2462 C2471 1.429 . S
C2463 C2461 1.419 . S
C2463 C2464 1.363 . S
C2463 H2466 0.929 . S
C2464 C2463 1.363 . S
C2464 C2470 1.428 . S
H2465 C2461 0.930 . S
H2466 C2463 0.929 . S
S2467 N2468 1.613 . S
S2467 N2469 1.610 . S
N2468 S2467 1.613 . S
N2468 C2471 1.350 . S
N2469 S2467 1.610 . S
N2469 C2470 1.351 . S
C2470 C2464 1.428 . S
C2470 N2469 1.351 . S
C2470 C2471 1.434 . S
C2471 C2462 1.429 . S
C2471 N2468 1.350 . S
C2471 C2470 1.434 . S
C2472 C2473 1.369 . S
C2472 C2474 1.419 . S
C2472 H2476 0.930 . S
C2473 C2472 1.369 . S
C2473 C2482 1.429 . S
C2474 C2472 1.419 . S
C2474 C2475 1.363 . S
C2474 H2477 0.929 . S
C2475 C2474 1.363 . S
C2475 C2481 1.428 . S
H2476 C2472 0.930 . S
H2477 C2474 0.929 . S
S2478 N2479 1.613 . S
S2478 N2480 1.610 . S
N2479 S2478 1.613 . S
N2479 C2482 1.350 . S
N2480 S2478 1.610 . S
N2480 C2481 1.351 . S
C2481 C2475 1.428 . S
C2481 N2480 1.351 . S
C2481 C2482 1.434 . S
C2482 C2473 1.429 . S
C2482 N2479 1.350 . S
C2482 C2481 1.434 . S
C2483 C2484 1.369 . S
C2483 C2485 1.419 . S
C2483 H2487 0.930 . S
C2484 C2483 1.369 . S
C2484 C2493 1.429 . S
C2485 C2483 1.419 . S
C2485 C2486 1.363 . S
C2485 H2488 0.929 . S
C2486 C2485 1.363 . S
C2486 C2492 1.428 . S
H2487 C2483 0.930 . S
H2488 C2485 0.929 . S
S2489 N2490 1.613 . S
S2489 N2491 1.610 . S
N2490 S2489 1.613 . S
N2490 C2493 1.350 . S
N2491 S2489 1.610 . S
N2491 C2492 1.351 . S
C2492 C2486 1.428 . S
C2492 N2491 1.351 . S
C2492 C2493 1.434 . S
C2493 C2484 1.429 . S
C2493 N2490 1.350 . S
C2493 C2492 1.434 . S
C2494 C2495 1.369 . S
C2494 C2496 1.419 . S
C2494 H2498 0.930 . S
C2495 C2494 1.369 . S
C2495 C2504 1.429 . S
C2496 C2494 1.419 . S
C2496 C2497 1.363 . S
C2496 H2499 0.929 . S
C2497 C2496 1.363 . S
C2497 C2503 1.428 . S
H2498 C2494 0.930 . S
H2499 C2496 0.929 . S
S2500 N2501 1.613 1_655 S
S2500 N2502 1.610 1_655 S
N2501 S2500 1.613 1_455 S
N2501 C2504 1.350 . S
N2502 S2500 1.610 1_455 S
N2502 C2503 1.351 . S
C2503 C2497 1.428 . S
C2503 N2502 1.351 . S
C2503 C2504 1.434 . S
C2504 C2495 1.429 . S
C2504 N2501 1.350 . S
C2504 C2503 1.434 . S
C2505 C2506 1.369 . S
C2505 C2507 1.419 . S
C2505 H2509 0.930 . S
C2506 C2505 1.369 . S
C2506 C2515 1.429 . S
C2507 C2505 1.419 . S
C2507 C2508 1.363 . S
C2507 H2510 0.929 . S
C2508 C2507 1.363 . S
C2508 C2514 1.428 . S
H2509 C2505 0.930 . S
H2510 C2507 0.929 . S
S2511 N2512 1.613 . S
S2511 N2513 1.610 . S
N2512 S2511 1.613 . S
N2512 C2515 1.350 . S
N2513 S2511 1.610 . S
N2513 C2514 1.351 . S
C2514 C2508 1.428 . S
C2514 N2513 1.351 . S
C2514 C2515 1.434 . S
C2515 C2506 1.429 . S
C2515 N2512 1.350 . S
C2515 C2514 1.434 . S
C2516 C2517 1.369 . S
C2516 C2518 1.419 . S
C2516 H2520 0.930 . S
C2517 C2516 1.369 . S
C2517 C2526 1.429 . S
C2518 C2516 1.419 . S
C2518 C2519 1.363 . S
C2518 H2521 0.929 . S
C2519 C2518 1.363 . S
C2519 C2525 1.428 . S
H2520 C2516 0.930 . S
H2521 C2518 0.929 . S
S2522 N2523 1.613 . S
S2522 N2524 1.610 . S
N2523 S2522 1.613 . S
N2523 C2526 1.350 . S
N2524 S2522 1.610 . S
N2524 C2525 1.351 . S
C2525 C2519 1.428 . S
C2525 N2524 1.351 . S
C2525 C2526 1.434 . S
C2526 C2517 1.429 . S
C2526 N2523 1.350 . S
C2526 C2525 1.434 . S
C2527 C2528 1.369 . S
C2527 C2529 1.419 . S
C2527 H2531 0.930 . S
C2528 C2527 1.369 . S
C2528 C2537 1.429 . S
C2529 C2527 1.419 . S
C2529 C2530 1.363 . S
C2529 H2532 0.929 . S
C2530 C2529 1.363 . S
C2530 C2536 1.428 . S
H2531 C2527 0.930 . S
H2532 C2529 0.929 . S
S2533 N2534 1.613 . S
S2533 N2535 1.610 . S
N2534 S2533 1.613 . S
N2534 C2537 1.350 . S
N2535 S2533 1.610 . S
N2535 C2536 1.351 . S
C2536 C2530 1.428 . S
C2536 N2535 1.351 . S
C2536 C2537 1.434 . S
C2537 C2528 1.429 . S
C2537 N2534 1.350 . S
C2537 C2536 1.434 . S
C2538 C2539 1.369 . S
C2538 C2540 1.419 . S
C2538 H2542 0.930 . S
C2539 C2538 1.369 . S
C2539 C2548 1.429 . S
C2540 C2538 1.419 . S
C2540 C2541 1.363 . S
C2540 H2543 0.929 . S
C2541 C2540 1.363 . S
C2541 C2547 1.428 . S
H2542 C2538 0.930 . S
H2543 C2540 0.929 . S
S2544 N2545 1.613 1_655 S
S2544 N2546 1.608 1_655 S
N2545 S2544 1.613 1_455 S
N2545 C2548 1.350 . S
N2546 S2544 1.608 1_455 S
N2546 C2547 1.368 . S
C2547 C2541 1.428 . S
C2547 N2546 1.368 . S
C2547 C2548 1.434 . S
C2548 C2539 1.429 . S
C2548 N2545 1.350 . S
C2548 C2547 1.434 . S
C2549 C2550 1.369 . S
C2549 C2551 1.419 . S
C2549 H2553 0.930 . S
C2550 C2549 1.369 . S
C2550 C2559 1.429 . S
C2551 C2549 1.419 . S
C2551 C2552 1.363 . S
C2551 H2554 0.929 . S
C2552 C2551 1.363 . S
C2552 C2558 1.428 . S
H2553 C2549 0.930 . S
H2554 C2551 0.929 . S
S2555 N2556 1.613 . S
S2555 N2557 1.610 . S
N2556 S2555 1.613 . S
N2556 C2559 1.350 . S
N2557 S2555 1.610 . S
N2557 C2558 1.351 . S
C2558 C2552 1.428 . S
C2558 N2557 1.351 . S
C2558 C2559 1.434 . S
C2559 C2550 1.429 . S
C2559 N2556 1.350 . S
C2559 C2558 1.434 . S
C2560 C2561 1.369 . S
C2560 C2562 1.419 . S
C2560 H2564 0.930 . S
C2561 C2560 1.369 . S
C2561 C2570 1.429 . S
C2562 C2560 1.419 . S
C2562 C2563 1.363 . S
C2562 H2565 0.929 . S
C2563 C2562 1.363 . S
C2563 C2569 1.428 . S
H2564 C2560 0.930 . S
H2565 C2562 0.929 . S
S2566 N2567 1.613 . S
S2566 N2568 1.610 . S
N2567 S2566 1.613 . S
N2567 C2570 1.350 . S
N2568 S2566 1.610 . S
N2568 C2569 1.351 . S
C2569 C2563 1.428 . S
C2569 N2568 1.351 . S
C2569 C2570 1.434 . S
C2570 C2561 1.429 . S
C2570 N2567 1.350 . S
C2570 C2569 1.434 . S
C2571 C2572 1.369 . S
C2571 C2573 1.419 . S
C2571 H2575 0.930 . S
C2572 C2571 1.369 . S
C2572 C2581 1.429 . S
C2573 C2571 1.419 . S
C2573 C2574 1.363 . S
C2573 H2576 0.929 . S
C2574 C2573 1.363 . S
C2574 C2580 1.428 . S
H2575 C2571 0.930 . S
H2576 C2573 0.929 . S
S2577 N2578 1.613 . S
S2577 N2579 1.610 . S
N2578 S2577 1.613 . S
N2578 C2581 1.350 . S
N2579 S2577 1.610 . S
N2579 C2580 1.351 . S
C2580 C2574 1.428 . S
C2580 N2579 1.351 . S
C2580 C2581 1.434 . S
C2581 C2572 1.429 . S
C2581 N2578 1.350 . S
C2581 C2580 1.434 . S
C2582 C2583 1.369 . S
C2582 C2584 1.419 . S
C2582 H2586 0.930 . S
C2583 C2582 1.369 . S
C2583 C2592 1.429 . S
C2584 C2582 1.419 . S
C2584 C2585 1.363 . S
C2584 H2587 0.929 1_655 S
C2585 C2584 1.363 . S
C2585 C2591 1.428 . S
H2586 C2582 0.930 . S
H2587 C2584 0.929 1_455 S
S2588 N2589 1.613 . S
S2588 N2590 1.610 . S
N2589 S2588 1.613 . S
N2589 C2592 1.350 . S
N2590 S2588 1.610 . S
N2590 C2591 1.351 . S
C2591 C2585 1.428 . S
C2591 N2590 1.351 . S
C2591 C2592 1.434 . S
C2592 C2583 1.429 . S
C2592 N2589 1.350 . S
C2592 C2591 1.434 . S
C2593 C2594 1.369 . S
C2593 C2595 1.419 . S
C2593 H2597 0.930 . S
C2594 C2593 1.369 . S
C2594 C2603 1.429 . S
C2595 C2593 1.419 . S
C2595 C2596 1.363 . S
C2595 H2598 0.929 . S
C2596 C2595 1.363 . S
C2596 C2602 1.428 . S
H2597 C2593 0.930 . S
H2598 C2595 0.929 . S
S2599 N2600 1.613 . S
S2599 N2601 1.610 . S
N2600 S2599 1.613 . S
N2600 C2603 1.350 . S
N2601 S2599 1.610 . S
N2601 C2602 1.351 . S
C2602 C2596 1.428 . S
C2602 N2601 1.351 . S
C2602 C2603 1.434 . S
C2603 C2594 1.429 . S
C2603 N2600 1.350 . S
C2603 C2602 1.434 . S
C2604 C2605 1.369 . S
C2604 C2606 1.419 . S
C2604 H2608 0.930 . S
C2605 C2604 1.369 . S
C2605 C2614 1.429 . S
C2606 C2604 1.419 . S
C2606 C2607 1.363 . S
C2606 H2609 0.929 . S
C2607 C2606 1.363 . S
C2607 C2613 1.428 . S
H2608 C2604 0.930 . S
H2609 C2606 0.929 . S
S2610 N2611 1.613 . S
S2610 N2612 1.610 . S
N2611 S2610 1.613 . S
N2611 C2614 1.350 . S
N2612 S2610 1.610 . S
N2612 C2613 1.351 . S
C2613 C2607 1.428 . S
C2613 N2612 1.351 . S
C2613 C2614 1.434 . S
C2614 C2605 1.429 . S
C2614 N2611 1.350 . S
C2614 C2613 1.434 . S
C2615 C2616 1.369 . S
C2615 C2617 1.419 . S
C2615 H2619 0.930 . S
C2616 C2615 1.369 . S
C2616 C2625 1.429 . S
C2617 C2615 1.419 . S
C2617 C2618 1.363 . S
C2617 H2620 0.929 . S
C2618 C2617 1.363 . S
C2618 C2624 1.428 . S
H2619 C2615 0.930 . S
H2620 C2617 0.929 . S
S2621 N2622 1.613 . S
S2621 N2623 1.610 . S
N2622 S2621 1.613 . S
N2622 C2625 1.350 . S
N2623 S2621 1.610 . S
N2623 C2624 1.351 . S
C2624 C2618 1.428 . S
C2624 N2623 1.351 . S
C2624 C2625 1.434 . S
C2625 C2616 1.429 . S
C2625 N2622 1.350 . S
C2625 C2624 1.434 . S
C2626 C2627 1.369 . S
C2626 C2628 1.419 . S
C2626 H2630 0.930 . S
C2627 C2626 1.369 . S
C2627 C2636 1.429 . S
C2628 C2626 1.419 . S
C2628 C2629 1.363 . S
C2628 H2631 0.929 . S
C2629 C2628 1.363 . S
C2629 C2635 1.428 . S
H2630 C2626 0.930 . S
H2631 C2628 0.929 . S
S2632 N2633 1.613 . S
S2632 N2634 1.610 . S
N2633 S2632 1.613 . S
N2633 C2636 1.350 . S
N2634 S2632 1.610 . S
N2634 C2635 1.351 . S
C2635 C2629 1.428 . S
C2635 N2634 1.351 . S
C2635 C2636 1.434 . S
C2636 C2627 1.429 . S
C2636 N2633 1.350 . S
C2636 C2635 1.434 . S
C2637 C2638 1.369 . S
C2637 C2639 1.419 . S
C2637 H2641 0.930 . S
C2638 C2637 1.369 . S
C2638 C2647 1.429 . S
C2639 C2637 1.419 . S
C2639 C2640 1.363 . S
C2639 H2642 0.929 . S
C2640 C2639 1.363 . S
C2640 C2646 1.428 . S
H2641 C2637 0.930 . S
H2642 C2639 0.929 . S
S2643 N2644 1.613 . S
S2643 N2645 1.610 . S
N2644 S2643 1.613 . S
N2644 C2647 1.350 . S
N2645 S2643 1.610 . S
N2645 C2646 1.351 . S
C2646 C2640 1.428 . S
C2646 N2645 1.351 . S
C2646 C2647 1.434 . S
C2647 C2638 1.429 . S
C2647 N2644 1.350 . S
C2647 C2646 1.434 . S
C2648 C2649 1.369 . S
C2648 C2650 1.419 . S
C2648 H2652 0.930 . S
C2649 C2648 1.369 . S
C2649 C2658 1.429 . S
C2650 C2648 1.419 . S
C2650 C2651 1.363 . S
C2650 H2653 0.929 . S
C2651 C2650 1.363 . S
C2651 C2657 1.428 . S
H2652 C2648 0.930 . S
H2653 C2650 0.929 . S
S2654 N2655 1.613 . S
S2654 N2656 1.610 . S
N2655 S2654 1.613 . S
N2655 C2658 1.350 . S
N2656 S2654 1.610 . S
N2656 C2657 1.351 . S
C2657 C2651 1.428 . S
C2657 N2656 1.351 . S
C2657 C2658 1.434 . S
C2658 C2649 1.429 . S
C2658 N2655 1.350 . S
C2658 C2657 1.434 . S
C2659 C2660 1.369 . S
C2659 C2661 1.419 . S
C2659 H2663 0.930 . S
C2660 C2659 1.369 . S
C2660 C2669 1.429 . S
C2661 C2659 1.419 . S
C2661 C2662 1.363 . S
C2661 H2664 0.929 . S
C2662 C2661 1.363 . S
C2662 C2668 1.428 . S
H2663 C2659 0.930 . S
H2664 C2661 0.929 . S
S2665 N2666 1.613 . S
S2665 N2667 1.610 1_565 S
N2666 S2665 1.613 . S
N2666 C2669 1.350 . S
N2667 S2665 1.610 1_545 S
N2667 C2668 1.351 1_545 S
C2668 C2662 1.428 . S
C2668 N2667 1.351 1_565 S
C2668 C2669 1.434 . S
C2669 C2660 1.429 . S
C2669 N2666 1.350 . S
C2669 C2668 1.434 . S
C2670 C2671 1.369 . S
C2670 C2672 1.419 . S
C2670 H2674 0.930 . S
C2671 C2670 1.369 . S
C2671 C2680 1.429 . S
C2672 C2670 1.419 . S
C2672 C2673 1.363 . S
C2672 H2675 0.929 . S
C2673 C2672 1.363 . S
C2673 C2679 1.428 . S
H2674 C2670 0.930 . S
H2675 C2672 0.929 . S
S2676 N2677 1.613 . S
S2676 N2678 1.610 . S
N2677 S2676 1.613 . S
N2677 C2680 1.350 . S
N2678 S2676 1.610 . S
N2678 C2679 1.351 . S
C2679 C2673 1.428 . S
C2679 N2678 1.351 . S
C2679 C2680 1.434 . S
C2680 C2671 1.429 . S
C2680 N2677 1.350 . S
C2680 C2679 1.434 . S
C2681 C2682 1.369 . S
C2681 C2683 1.419 . S
C2681 H2685 0.930 . S
C2682 C2681 1.369 . S
C2682 C2691 1.429 . S
C2683 C2681 1.419 . S
C2683 C2684 1.363 . S
C2683 H2686 0.929 . S
C2684 C2683 1.363 . S
C2684 C2690 1.428 . S
H2685 C2681 0.930 . S
H2686 C2683 0.929 . S
S2687 N2688 1.613 1_556 S
S2687 N2689 1.610 1_556 S
N2688 S2687 1.613 1_554 S
N2688 C2691 1.350 . S
N2689 S2687 1.610 1_554 S
N2689 C2690 1.351 . S
C2690 C2684 1.428 . S
C2690 N2689 1.351 . S
C2690 C2691 1.434 . S
C2691 C2682 1.429 . S
C2691 N2688 1.350 . S
C2691 C2690 1.434 . S
C2692 C2693 1.369 . S
C2692 C2694 1.419 . S
C2692 H2696 0.930 . S
C2693 C2692 1.369 . S
C2693 C2702 1.429 . S
C2694 C2692 1.419 . S
C2694 C2695 1.363 . S
C2694 H2697 0.929 . S
C2695 C2694 1.363 . S
C2695 C2701 1.428 . S
H2696 C2692 0.930 . S
H2697 C2694 0.929 . S
S2698 N2699 1.613 . S
S2698 N2700 1.610 . S
N2699 S2698 1.613 . S
N2699 C2702 1.350 . S
N2700 S2698 1.610 . S
N2700 C2701 1.351 . S
C2701 C2695 1.428 . S
C2701 N2700 1.351 . S
C2701 C2702 1.434 . S
C2702 C2693 1.429 . S
C2702 N2699 1.350 . S
C2702 C2701 1.434 . S
C2703 C2704 1.369 . S
C2703 C2705 1.419 . S
C2703 H2707 0.930 . S
C2704 C2703 1.369 . S
C2704 C2713 1.429 . S
C2705 C2703 1.419 . S
C2705 C2706 1.363 . S
C2705 H2708 0.929 . S
C2706 C2705 1.363 . S
C2706 C2712 1.428 . S
H2707 C2703 0.930 . S
H2708 C2705 0.929 . S
S2709 N2710 1.613 . S
S2709 N2711 1.610 . S
N2710 S2709 1.613 . S
N2710 C2713 1.350 . S
N2711 S2709 1.610 . S
N2711 C2712 1.351 . S
C2712 C2706 1.428 . S
C2712 N2711 1.351 . S
C2712 C2713 1.434 . S
C2713 C2704 1.429 . S
C2713 N2710 1.350 . S
C2713 C2712 1.434 . S
C2714 C2715 1.369 . S
C2714 C2716 1.419 . S
C2714 H2718 0.930 . S
C2715 C2714 1.369 . S
C2715 C2724 1.429 . S
C2716 C2714 1.419 . S
C2716 C2717 1.363 . S
C2716 H2719 0.929 . S
C2717 C2716 1.363 . S
C2717 C2723 1.428 . S
H2718 C2714 0.930 . S
H2719 C2716 0.929 . S
S2720 N2721 1.613 . S
S2720 N2722 1.610 . S
N2721 S2720 1.613 . S
N2721 C2724 1.350 . S
N2722 S2720 1.610 . S
N2722 C2723 1.351 . S
C2723 C2717 1.428 . S
C2723 N2722 1.351 . S
C2723 C2724 1.434 . S
C2724 C2715 1.429 . S
C2724 N2721 1.350 . S
C2724 C2723 1.434 . S
C2725 C2726 1.369 . S
C2725 C2727 1.419 . S
C2725 H2729 0.930 . S
C2726 C2725 1.369 . S
C2726 C2735 1.429 . S
C2727 C2725 1.419 . S
C2727 C2728 1.363 . S
C2727 H2730 0.929 . S
C2728 C2727 1.363 . S
C2728 C2734 1.428 . S
H2729 C2725 0.930 . S
H2730 C2727 0.929 . S
S2731 N2732 1.613 . S
S2731 N2733 1.610 . S
N2732 S2731 1.613 . S
N2732 C2735 1.350 . S
N2733 S2731 1.610 . S
N2733 C2734 1.351 . S
C2734 C2728 1.428 . S
C2734 N2733 1.351 . S
C2734 C2735 1.434 . S
C2735 C2726 1.429 . S
C2735 N2732 1.350 . S
C2735 C2734 1.434 . S
C1681 C111 2.301 1_455 S
C1683 C392 2.290 . S
C1692 C64 1.919 . S
C1694 C494 2.017 . S
C1703 C77 1.906 . S
C1705 C560 1.918 . S
C1716 C646 1.193 . S
C1714 C95 1.279 . S
C1725 C25 1.284 . S
C1727 C730 1.200 . S
C1738 C812 1.986 . S
C1736 C36 1.839 . S
C1749 C914 2.000 . S
C1747 C50 1.904 . S
C1758 C11 2.198 . S
C1760 C980 2.225 . S
C1771 C410 1.770 . S
C1769 C237 1.805 . S
C1780 C245 0.946 . S
C1782 C478 0.916 . S
C1793 C578 1.140 . S
C1791 C279 1.045 . S
C1804 C644 1.609 . S
C1802 C175 1.611 . S
C1813 C231 1.582 . S
C1815 C728 1.580 . S
C1826 C830 1.138 . S
C1824 C251 1.049 . S
C1837 C898 0.945 . S
C1835 C273 0.975 . S
C1848 C998 1.775 . S
C1846 C181 1.810 . S
C1859 C394 1.155 . S
C1857 C165 1.152 1_554 S
C1868 C288 1.629 . S
C1870 C1082 1.701 . S
C1881 C1150 1.338 . S
C1879 C333 1.397 . S
C1892 C1232 0.828 . S
C1890 C316 0.802 . S
C1901 C123 1.129 . S
C1903 C982 1.138 . S
C1912 C137 1.378 . S
C1914 C562 1.330 . S
C1923 C330 1.633 . S
C1925 C1334 1.701 . S
C1936 C1400 0.840 . S
C1934 C302 0.831 . S
C1947 C403 2.396 . S
C1945 C63 2.378 . S
C1958 C1407 2.029 . S
C1956 C106 2.031 . S
C1967 C97 1.929 . S
C1969 C571 1.983 . S
C1978 C81 1.312 . S
C1980 C1329 1.229 . S
C1991 C741 1.267 . S
C1989 C13 1.279 . S
C2000 C55 1.929 . S
C2002 C1159 1.983 . S
C2013 C903 1.940 1_556 S
C2011 C35 1.895 . S
C2024 C1495 2.390 . S
C2022 C21 2.375 . S
C2035 C399 1.881 . S
C2033 C147 1.951 . S
C2046 C1413 0.909 . S
C2044 C321 0.940 . S
C2055 C119 1.165 . S
C2057 C567 1.164 . S
C2066 C293 1.632 . S
C2068 C1327 1.691 . S
C2077 C153 1.629 . S
C2079 C739 1.697 . S
C2090 C1155 1.188 . S
C2088 C315 1.181 . S
C2099 C125 0.941 1_545 S
C2101 C909 0.917 . S
C2110 C287 1.942 . S
C2112 C1491 1.869 . S
C2121 C193 1.121 . S
C2123 C405 1.184 . S
C2132 C176 1.698 . S
C2134 C1071 1.704 . S
C2143 C263 1.346 . S
C2145 C825 1.341 . S
C2154 C246 0.938 . S
C2156 C1243 0.990 . S
C2167 C1497 1.150 . S
C2165 C277 1.104 . S
C2176 C221 1.345 . S
C2178 C573 1.321 . S
C2189 C651 1.718 . S
C2187 C260 1.716 . S
C2200 C487 0.972 . S
C2198 C204 0.932 . S
C2209 C83 2.302 . S
C2211 C1568 2.292 . S
C2222 C1418 2.018 . S
C2220 C92 1.922 . S
C2231 C105 1.905 . S
C2233 C1652 1.918 . S
C2242 C67 1.277 . S
C2244 C1318 1.198 . S
C2253 C53 1.286 . S
C2255 C1066 1.196 . S
C2266 C1148 1.987 . S
C2264 C8 1.837 1_655 S
C2277 C1250 2.001 . S
C2275 C22 1.910 . S
C2288 C1484 2.226 . S
C2286 C39 2.199 . S
C2299 C1586 1.776 . S
C2297 C265 1.809 . S
C2308 C189 0.944 . S
C2310 C1402 0.911 . S
C2321 C1670 1.143 . S
C2319 C209 1.060 . S
C2332 C1316 1.607 . S
C2330 C217 1.612 . S
C2343 C1064 1.579 . S
C2341 C259 1.583 . S
C2352 C195 1.043 . S
C2354 C1166 1.139 . S
C2365 C1234 0.940 . S
C2363 C203 0.978 . S
C2374 C223 1.810 . S
C2376 C1502 1.775 . S
C2387 C1570 1.150 . S
C2385 C319 1.144 . S
C2396 C134 1.625 . S
C2398 C746 1.701 . S
C2409 C814 1.341 . S
C2407 C151 1.397 1_565 S
C2420 C896 0.827 . S
C2418 C162 0.822 . S
C2431 C1486 1.141 . S
C2429 C305 1.134 . S
C2440 C291 1.378 . S
C2442 C1654 1.330 . S
C2453 C662 1.700 . S
C2451 C148 1.628 . S
C2464 C476 0.839 . S
C2462 C120 0.832 . S
C2473 C91 2.379 . S
C2475 C1579 2.396 . S
C2486 C483 2.029 . S
C2484 C78 2.032 . S
C2495 C69 1.935 . S
C2497 C1663 1.981 . S
C2506 C109 1.310 . S
C2508 C657 1.227 . S
C2517 C41 1.278 . S
C2519 C1077 1.267 . S
C2530 C823 1.983 . S
C2528 C27 1.930 . S
C2539 C7 1.896 . S
C2541 C1239 1.940 . S
C2550 C49 2.372 . S
C2552 C991 2.391 . S
C2563 C1575 1.880 . S
C2561 C329 1.951 . S
C2572 C167 0.927 . S
C2574 C489 0.906 . S
C2585 C1659 1.168 1_655 S
C2583 C301 1.170 . S
C2594 C139 1.631 . S
C2596 C655 1.694 . S
C2605 C335 1.627 . S
C2607 C1075 1.697 . S
C2618 C819 1.188 . S
C2616 C161 1.178 . S
C2627 C307 0.948 . S
C2629 C1245 0.915 . S
C2640 C987 1.871 . S
C2638 C133 1.941 . S
C2651 C1581 1.189 . S
C2649 C249 1.134 . S
C2662 C735 1.702 1_565 S
C2660 C218 1.701 . S
C2671 C235 1.348 . S
C2673 C1161 1.342 . S
C2684 C907 0.986 . S
C2682 C190 0.952 . S
C2693 C207 1.108 . S
C2695 C993 1.153 . S
C2704 C179 1.338 . S
C2706 C1665 1.314 . S
C2717 C1323 1.719 . S
C2715 C232 1.717 . S
C2728 C1411 0.971 . S
C2726 C274 0.938 . S
