# Generated by pormake.
# Topology anh, (6,3)-cn, num edge types: 1
# Building blocks:
#     Node 0, Type 0, BuildingBlock: VOLQOD_clean_sbu_1, # of connection points: 6
#     Node 1, Type 0, BuildingBlock: VOLQOD_clean_sbu_1, # of connection points: 6
#     Node 2, Type 0, BuildingBlock: VOLQOD_clean_sbu_1, # of connection points: 6
#     Node 3, Type 1, BuildingBlock: OLANEW_clean_sbu_2, # of connection points: 3
#     Node 4, Type 1, BuildingBlock: OLANEW_clean_sbu_2, # of connection points: 3
#     Node 5, Type 1, BuildingBlock: OLANEW_clean_sbu_2, # of connection points: 3
#     Node 6, Type 1, BuildingBlock: OLANEW_clean_sbu_2, # of connection points: 3
#     Node 7, Type 1, BuildingBlock: OLANEW_clean_sbu_2, # of connection points: 3
#     Node 8, Type 1, BuildingBlock: OLANEW_clean_sbu_2, # of connection points: 3
#     Edge 9, Type (0, 1), BuildingBlock: AJUNOK_clean_linker_0, # of connection points: 2
#     Edge 10, Type (0, 1), BuildingBlock: AJUNOK_clean_linker_0, # of connection points: 2
#     Edge 11, Type (0, 1), BuildingBlock: AJUNOK_clean_linker_0, # of connection points: 2
#     Edge 12, Type (0, 1), BuildingBlock: AJUNOK_clean_linker_0, # of connection points: 2
#     Edge 13, Type (0, 1), BuildingBlock: AJUNOK_clean_linker_0, # of connection points: 2
#     Edge 14, Type (0, 1), BuildingBlock: AJUNOK_clean_linker_0, # of connection points: 2
#     Edge 15, Type (0, 1), BuildingBlock: AJUNOK_clean_linker_0, # of connection points: 2
#     Edge 16, Type (0, 1), BuildingBlock: AJUNOK_clean_linker_0, # of connection points: 2
#     Edge 17, Type (0, 1), BuildingBlock: AJUNOK_clean_linker_0, # of connection points: 2
#     Edge 18, Type (0, 1), BuildingBlock: AJUNOK_clean_linker_0, # of connection points: 2
#     Edge 19, Type (0, 1), BuildingBlock: AJUNOK_clean_linker_0, # of connection points: 2
#     Edge 20, Type (0, 1), BuildingBlock: AJUNOK_clean_linker_0, # of connection points: 2
#     Edge 21, Type (0, 1), BuildingBlock: AJUNOK_clean_linker_0, # of connection points: 2
#     Edge 22, Type (0, 1), BuildingBlock: AJUNOK_clean_linker_0, # of connection points: 2
#     Edge 23, Type (0, 1), BuildingBlock: AJUNOK_clean_linker_0, # of connection points: 2
#     Edge 24, Type (0, 1), BuildingBlock: AJUNOK_clean_linker_0, # of connection points: 2
#     Edge 25, Type (0, 1), BuildingBlock: AJUNOK_clean_linker_0, # of connection points: 2
#     Edge 26, Type (0, 1), BuildingBlock: AJUNOK_clean_linker_0, # of connection points: 2
# Relax obj value: 0.162
# Max RMSD: 0.206
# Mean RMSD: 0.139
data_MOF--net-anh--node1-VOLQOD_clean_sbu_1--node2-OLANEW_clean_sbu_2--edge1-AJUNOK_clean_linker_0
_symmetry_space_group_name_H-M    P1
_symmetry_Int_Tables_number       1
_symmetry_cell_setting            triclinic
loop_
_symmetry_equiv_pos_as_xyz
'x, y, z'
_cell_length_a     25.249946
_cell_length_b     25.109254
_cell_length_c     45.502515
_cell_angle_alpha  89.959921
_cell_angle_beta   89.948758
_cell_angle_gamma 120.65162
loop_
_atom_site_label
_atom_site_type_symbol
_atom_site_fract_x
_atom_site_fract_y
_atom_site_fract_z
_atom_type_partial_charge
O0 O 0.95974 0.54105 0.21374 0.0
Zn1 Zn 0.96634 0.55757 0.17013 0.0
O2 O -0.03009 0.49068 0.1495 0.0
Zn3 Zn 0.89816 0.446 0.12496 0.0
Zn4 Zn -0.02693 0.43235 0.17747 0.0
Zn5 Zn 0.04149 0.52666 0.12393 0.0
O6 O 0.91929 0.44633 0.08248 0.0
O7 O 0.01993 0.51153 0.08078 0.0
O8 O 0.89271 0.56483 0.15731 0.0
O9 O 0.84577 0.48361 0.12763 0.0
O10 O 0.84427 0.35957 0.13884 0.0
O11 O 0.89345 0.34832 0.17645 0.0
O12 O 0.04721 0.42241 0.16977 0.0
O13 O 0.04654 0.6391 0.16495 0.0
O14 O 0.09344 0.49072 0.13367 0.0
O15 O 0.0966 0.61683 0.13182 0.0
C16 C -0.03015 0.5056 0.22982 0.0
C17 C -0.03094 0.47618 0.06788 0.0
C18 C 0.84657 0.32706 0.15966 0.0
C19 C 0.84787 0.52944 0.14058 0.0
C20 C 0.09166 0.45124 0.15174 0.0
C21 C 0.09416 0.65514 0.14918 0.0
O22 O -0.02016 0.46486 0.21877 0.0
O23 O 0.45756 0.00377 0.42204 0.0
Zn24 Zn 0.43458 -0.00083 0.46491 0.0
O25 O 0.49415 -0.01058 0.48892 0.0
Zn26 Zn 0.53874 0.06054 0.51423 0.0
Zn27 Zn 0.55365 0.98153 0.46414 0.0
Zn28 Zn 0.45041 0.91687 0.51371 0.0
O29 O 0.52728 0.03825 0.55695 0.0
O30 O 0.46071 0.93694 0.557 0.0
O31 O 0.43343 0.07798 0.47536 0.0
O32 O 0.5093 0.11908 0.50802 0.0
O33 O 0.62784 0.11023 0.50381 0.0
O34 O 0.63827 0.05876 0.46694 0.0
O35 O 0.55672 0.90354 0.47347 0.0
O36 O 0.34906 0.9226 0.46823 0.0
O37 O 0.48088 0.85941 0.50626 0.0
O38 O 0.36148 0.86784 0.50292 0.0
C39 C 0.49335 -0.00943 0.40824 0.0
C40 C 0.49387 -0.01236 0.57061 0.0
C41 C 0.66057 0.10583 0.4838 0.0
C42 C 0.46882 0.12179 0.49265 0.0
C43 C 0.52213 0.85881 0.49054 0.0
C44 C 0.32771 0.87409 0.48415 0.0
O45 O 0.52919 0.97712 0.42177 0.0
O46 O 0.3943 0.42462 0.75314 0.0
Zn47 Zn 0.3808 0.40787 0.79668 0.0
O48 O 0.4547 0.46924 0.81816 0.0
Zn49 Zn 0.43318 0.51595 0.84425 0.0
Zn50 Zn 0.5196 0.52681 0.79084 0.0
Zn51 Zn 0.48507 0.42678 0.84237 0.0
O52 O 0.44677 0.50565 0.88678 0.0
O53 O 0.48482 0.44316 0.88586 0.0
O54 O 0.3044 0.41146 0.80801 0.0
O55 O 0.34544 0.48974 0.83954 0.0
O56 O 0.47755 0.60528 0.83375 0.0
O57 O 0.53407 0.61413 0.79474 0.0
O58 O 0.59994 0.52759 0.79703 0.0
O59 O 0.36667 0.32139 0.80247 0.0
O60 O 0.57071 0.45354 0.83078 0.0
O61 O 0.43817 0.33577 0.83491 0.0
C62 C 0.44094 0.46046 0.73745 0.0
C63 C 0.46783 0.47567 0.89995 0.0
C64 C 0.51378 0.63774 0.81319 0.0
C65 C 0.29962 0.44904 0.82509 0.0
C66 C 0.61082 0.49291 0.81329 0.0
C67 C 0.39363 0.30026 0.8182 0.0
O68 O 0.49223 0.49974 0.749 0.0
O69 O 0.49216 0.01773 0.26417 0.0
Cd70 Cd 0.50152 0.01094 0.21106 0.0
O71 O 0.47109 0.92189 0.26954 0.0
Cd72 Cd 0.44348 0.89931 0.2237 0.0
O73 O 0.37015 0.85237 0.19137 0.0
C74 C 0.32215 0.85626 0.19435 0.0
O75 O 0.32091 0.89139 0.21542 0.0
C76 C 0.48391 0.97342 0.28078 0.0
C77 C 0.61573 0.10698 0.19205 0.0
O78 O 0.56723 0.11108 0.19053 0.0
O79 O 0.61025 0.05684 0.20224 0.0
O80 O 0.46519 0.44858 0.59437 0.0
Cd81 Cd 0.46155 0.44762 0.54045 0.0
O82 O 0.39395 0.4739 0.59744 0.0
Cd83 Cd 0.40671 0.50352 0.55163 0.0
O84 O 0.43831 0.58025 0.52071 0.0
C85 C 0.49333 0.62564 0.52222 0.0
O86 O 0.53145 0.62221 0.54068 0.0
C87 C 0.42844 0.45748 0.60984 0.0
C88 C 0.46266 0.3447 0.51793 0.0
O89 O 0.51244 0.3964 0.52233 0.0
O90 O 0.41158 0.34166 0.52394 0.0
O91 O -0.00618 0.48191 0.92292 0.0
Cd92 Cd -0.01695 0.47161 0.86944 0.0
O93 O 0.89407 0.42483 0.92947 0.0
Cd94 Cd 0.8731 0.42444 0.88305 0.0
O95 O 0.81858 0.43459 0.849 0.0
C96 C 0.82748 0.48762 0.84214 0.0
O97 O 0.87431 0.53695 0.85389 0.0
C98 C 0.94799 0.45481 0.94017 0.0
C99 C 0.07884 0.45939 0.84712 0.0
O100 O 0.08393 0.51253 0.85031 0.0
O101 O 0.02727 0.41128 0.85379 0.0
O102 O 0.01265 0.53247 0.37262 0.0
Cd103 Cd 0.00764 0.5392 0.42619 0.0
O104 O 0.91264 0.49348 0.36951 0.0
Cd105 Cd 0.89699 0.46343 0.41529 0.0
O106 O 0.8547 0.38448 0.44526 0.0
C107 C 0.85763 0.33693 0.43841 0.0
O108 O 0.88969 0.33973 0.4151 0.0
C109 C 0.96486 0.51599 0.35713 0.0
C110 C 0.10471 0.65026 0.44799 0.0
O111 O 0.10721 0.60053 0.44768 0.0
O112 O 0.05598 0.64763 0.43804 0.0
O113 O 0.53295 0.97857 0.71132 0.0
Cd114 Cd 0.55225 -0.01406 0.7641 0.0
O115 O 0.46502 0.00917 0.71204 0.0
Cd116 Cd 0.4595 0.02078 0.75918 0.0
O117 O 0.43577 0.07418 0.78852 0.0
C118 C 0.38903 0.07802 0.78156 0.0
O119 O 0.3556 0.04558 0.75906 0.0
C120 C 0.49714 -0.00801 0.6979 0.0
C121 C 0.54619 0.87836 0.7846 0.0
O122 O 0.4997 0.88583 0.78613 0.0
O123 O 0.59614 0.92213 0.77343 0.0
O124 O 0.52401 0.53204 0.04007 0.0
Cd125 Cd 0.53245 0.55312 0.0929 0.0
O126 O 0.42631 0.45806 0.04156 0.0
Cd127 Cd 0.41158 0.4631 0.08846 0.0
O128 O 0.34865 0.46803 0.11964 0.0
C129 C 0.29709 0.42033 0.12579 0.0
O130 O 0.28507 0.36639 0.11552 0.0
C131 C 0.47558 0.49129 0.02711 0.0
C132 C 0.63503 0.55215 0.11485 0.0
O133 O 0.5819 0.50279 0.11366 0.0
O134 O 0.63961 0.60289 0.10617 0.0
C135 C 0.13632 0.38268 0.14759 0.0
C136 C 0.14453 0.44174 0.15186 0.0
C137 C 0.18679 0.37559 0.14108 0.0
C138 C 0.24701 0.42732 0.13888 0.0
H139 H 0.09039 0.34231 0.14732 0.0
H140 H 0.17796 0.32955 0.1362 0.0
S141 S 0.29265 0.59079 0.15381 0.0
N142 N 0.21701 0.55173 0.15728 0.0
N143 N 0.31201 0.53882 0.14581 0.0
C144 C 0.25592 0.48603 0.14581 0.0
C145 C 0.20457 0.49312 0.15204 0.0
C146 C 0.73585 0.21895 0.48953 0.0
C147 C 0.7206 0.16194 0.47648 0.0
C148 C 0.78289 0.27516 0.47818 0.0
C149 C 0.81719 0.27692 0.45345 0.0
H150 H 0.70871 0.22082 0.50751 0.0
H151 H 0.7902 0.31765 0.48804 0.0
S152 S 0.80432 0.14039 0.41485 0.0
N153 N 0.74985 0.11049 0.44016 0.0
N154 N 0.83881 0.21616 0.41898 0.0
C155 C 0.8066 0.22015 0.44197 0.0
C156 C 0.75824 0.16271 0.45344 0.0
C157 C 0.57239 0.74237 0.7891 0.0
C158 C 0.5263 0.70186 0.80881 0.0
C159 C 0.58016 0.80047 0.78223 0.0
C160 C 0.54144 0.81981 0.79441 0.0
H161 H 0.60194 0.72865 0.77841 0.0
H162 H 0.6153 0.82943 0.76643 0.0
S163 S 0.41649 0.73354 0.84872 0.0
N164 N 0.44365 0.68742 0.84176 0.0
N165 N 0.45797 0.79584 0.82844 0.0
C166 C 0.4966 0.78083 0.81485 0.0
C167 C 0.48915 0.72214 0.82217 0.0
C168 C 0.73612 0.48557 0.13236 0.0
C169 C 0.79462 0.53816 0.1368 0.0
C170 C 0.68477 0.49086 0.12638 0.0
C171 C 0.68973 0.54908 0.12414 0.0
H172 H 0.72991 0.43958 0.13322 0.0
H173 H 0.64116 0.44874 0.12263 0.0
S174 S 0.83222 0.70135 0.13539 0.0
N175 N 0.85438 0.65032 0.13999 0.0
N176 N 0.75773 0.66076 0.1282 0.0
C177 C 0.74771 0.60225 0.12935 0.0
C178 C 0.80014 0.59668 0.13588 0.0
C179 C 0.25274 0.76053 0.48749 0.0
C180 C 0.26608 0.81944 0.47776 0.0
C181 C 0.19987 0.7065 0.47821 0.0
C182 C 0.15733 0.70885 0.45919 0.0
H183 H 0.2847 0.75552 0.50143 0.0
H184 H 0.19289 0.66238 0.48567 0.0
S185 S 0.16705 0.85126 0.42939 0.0
N186 N 0.23001 0.87689 0.44936 0.0
N187 N 0.12973 0.77507 0.43236 0.0
C188 C 0.16815 0.7674 0.45044 0.0
C189 C 0.2227 0.82268 0.45959 0.0
C190 C 0.42033 0.2182 0.82626 0.0
C191 C 0.38097 0.23617 0.81346 0.0
C192 C 0.41977 0.16469 0.81716 0.0
C193 C 0.37962 0.12654 0.79498 0.0
H194 H 0.45466 0.24752 0.84224 0.0
H195 H 0.45342 0.15509 0.82659 0.0
S196 S 0.25848 0.1457 0.75872 0.0
N197 N 0.29431 0.2063 0.78058 0.0
N198 N 0.29287 0.10538 0.76362 0.0
C199 C 0.33591 0.1406 0.78401 0.0
C200 C 0.33667 0.19543 0.79322 0.0
C201 C 0.47206 0.74625 0.48321 0.0
C202 C 0.52497 0.8019 0.49124 0.0
C203 C 0.46465 0.68905 0.49119 0.0
C204 C 0.50946 0.68541 0.50804 0.0
H205 H 0.43436 0.74704 0.47225 0.0
H206 H 0.42157 0.64766 0.48573 0.0
S207 S 0.66017 0.81879 0.53119 0.0
N208 N 0.62563 0.85077 0.51404 0.0
N209 N 0.61227 0.74322 0.5294 0.0
C210 C 0.565 0.74098 0.51409 0.0
C211 C 0.57255 0.79934 0.50567 0.0
C212 C 0.7244 0.55016 0.82082 0.0
C213 C 0.67047 0.49612 0.81222 0.0
C214 C 0.7775 0.54836 0.82813 0.0
C215 C 0.778 0.49243 0.82705 0.0
H216 H 0.72407 0.59271 0.82415 0.0
H217 H 0.81671 0.59009 0.83668 0.0
S218 S 0.6512 0.34145 0.79978 0.0
N219 N 0.6228 0.38784 0.79879 0.0
N220 N 0.7225 0.38428 0.81184 0.0
C221 C 0.72602 0.43975 0.81546 0.0
C222 C 0.67215 0.44162 0.80829 0.0
C223 C 0.15225 0.75407 0.17755 0.0
C224 C 0.15163 0.71504 0.15518 0.0
C225 C 0.20774 0.80246 0.18873 0.0
C226 C 0.26493 0.81359 0.17813 0.0
H227 H 0.10972 0.74513 0.18778 0.0
H228 H 0.20557 0.82883 0.20703 0.0
S229 S 0.28901 0.73304 0.11576 0.0
N230 N 0.21357 0.69725 0.11976 0.0
N231 N 0.31754 0.78767 0.14108 0.0
C232 C 0.26503 0.77864 0.15403 0.0
C233 C 0.20851 0.7296 0.14245 0.0
C234 C 0.4103 0.17743 0.49816 0.0
C235 C 0.46638 0.17916 0.49459 0.0
C236 C 0.40929 0.23163 0.50478 0.0
C237 C 0.46431 0.28932 0.50773 0.0
H238 H 0.36723 0.13366 0.49727 0.0
H239 H 0.36513 0.22784 0.5085 0.0
S240 S 0.62276 0.31865 0.49611 0.0
N241 N 0.57771 0.24333 0.49152 0.0
N242 N 0.57616 0.34493 0.50348 0.0
C243 C 0.52044 0.29176 0.50236 0.0
C244 C 0.52136 0.23673 0.49591 0.0
C245 C 0.2445 0.50582 0.83354 0.0
C246 C 0.24142 0.44933 0.82758 0.0
C247 C 0.19143 0.50856 0.83856 0.0
C248 C 0.13285 0.45478 0.83823 0.0
H249 H 0.28858 0.54854 0.83472 0.0
H250 H 0.19683 0.55319 0.84369 0.0
S251 S 0.09925 0.29564 0.82169 0.0
N252 N 0.17506 0.33875 0.81985 0.0
N253 N 0.07452 0.34344 0.82978 0.0
C254 C 0.12874 0.39806 0.83127 0.0
C255 C 0.18319 0.39546 0.82576 0.0
C256 C 0.73336 0.25538 0.1546 0.0
C257 C 0.78997 0.26699 0.1663 0.0
C258 C 0.67771 0.20306 0.16273 0.0
C259 C 0.67609 0.15936 0.18253 0.0
H260 H 0.73143 0.28807 0.13974 0.0
H261 H 0.63547 0.19725 0.15359 0.0
S262 S 0.81121 0.16517 0.2181 0.0
N263 N 0.841 0.22867 0.19789 0.0
N264 N 0.73607 0.12932 0.21276 0.0
C265 C 0.73233 0.16878 0.19359 0.0
C266 C 0.78927 0.22283 0.18561 0.0
C267 C 0.90937 0.43274 0.02149 0.0
C268 C 0.96656 0.47021 0.03531 0.0
C269 C 0.90434 0.42749 -0.00909 0.0
C270 C 0.95624 0.45938 0.9726 0.0
H271 H 0.86758 0.40749 0.03434 0.0
H272 H 0.85895 0.39847 0.98161 0.0
S273 S 0.11744 0.56189 -0.00249 0.0
N274 N 0.07687 0.53857 0.02818 0.0
N275 N 0.06736 0.52864 0.97058 0.0
C276 C 0.01408 0.49618 -0.01398 0.0
C277 C 0.01923 0.50162 0.01734 0.0
C278 C 0.50731 0.94926 0.36084 0.0
C279 C 0.4922 -0.01116 0.37573 0.0
C280 C 0.50469 0.94485 0.33015 0.0
C281 C 0.48817 0.98085 0.31309 0.0
H282 H 0.52007 0.92039 0.37301 0.0
H283 H 0.51592 0.91307 0.31971 0.0
S284 S 0.44633 0.09328 0.34125 0.0
N285 N 0.46098 0.0655 0.37107 0.0
N286 N 0.45735 0.05818 0.31327 0.0
C287 C 0.47414 0.02159 0.32762 0.0
C288 C 0.47572 0.02526 0.35895 0.0
C289 C 0.48733 0.4704 0.6877 0.0
C290 C 0.43562 0.4565 0.70501 0.0
C291 C 0.4839 0.46823 0.65693 0.0
C292 C 0.42903 0.45349 0.6423 0.0
H293 H 0.53084 0.483 0.69801 0.0
H294 H 0.52512 0.48006 0.64452 0.0
S295 S 0.28019 0.41222 0.67744 0.0
N296 N 0.32736 0.42576 0.70526 0.0
N297 N 0.32139 0.42327 0.64743 0.0
C298 C 0.37681 0.4389 0.65933 0.0
C299 C 0.37997 0.43993 0.69067 0.0
C300 C 0.4956 0.94191 0.61912 0.0
C301 C 0.49304 -0.0117 0.60296 0.0
C302 C 0.49746 0.94354 0.64995 0.0
C303 C 0.49479 -0.00951 0.66551 0.0
H304 H 0.49758 0.90497 0.60784 0.0
H305 H 0.50037 0.90755 0.66167 0.0
S306 S 0.48581 0.12143 0.63329 0.0
N307 N 0.48751 0.08205 0.60462 0.0
N308 N 0.4887 0.08394 0.6625 0.0
C309 C 0.49097 0.03637 0.64956 0.0
C310 C 0.49073 0.03559 0.61826 0.0
C311 C 0.42159 0.47443 0.94839 0.0
C312 C 0.47069 0.47765 0.93232 0.0
C313 C 0.42312 0.47727 0.97912 0.0
C314 C 0.47464 0.48539 -0.00517 0.0
H315 H 0.38142 0.4692 0.93712 0.0
H316 H 0.38426 0.47464 -0.00937 0.0
S317 S 0.6152 0.49655 0.96308 0.0
N318 N 0.57175 0.48807 0.93428 0.0
N319 N 0.57578 0.49614 -0.00783 0.0
C320 C 0.5242 0.48893 0.97906 0.0
C321 C 0.52188 0.48424 0.94775 0.0
C322 C 0.00929 0.50029 0.27946 0.0
C323 C -0.03005 0.51171 0.26215 0.0
C324 C 0.00928 0.50444 0.3102 0.0
C325 C -0.03123 0.51854 0.32472 0.0
H326 H 0.0404 0.48811 0.26917 0.0
H327 H 0.03971 0.49446 0.3227 0.0
S328 S 0.85759 0.55372 0.28957 0.0
N329 N 0.89088 0.53974 0.26179 0.0
N330 N 0.8895 0.54555 0.31959 0.0
C331 C 0.92968 0.53067 0.3077 0.0
C332 C 0.93066 0.52783 0.2764 0.0
loop_
_geom_bond_atom_site_label_1
_geom_bond_atom_site_label_2
_geom_bond_distance
_geom_bond_site_symmetry_2
_ccdc_geom_bond_type
O0 Zn1 1.953 . S
O0 C16 1.225 1_655 S
Zn1 O0 1.953 . S
Zn1 O2 1.949 1_655 S
Zn1 O8 1.919 . S
Zn1 O13 1.924 1_655 S
O2 Zn1 1.949 1_455 S
O2 Zn3 1.923 1_455 S
O2 Zn4 1.950 . S
O2 Zn5 1.945 . S
Zn3 O2 1.923 1_655 S
Zn3 O6 1.933 . S
Zn3 O9 1.941 . S
Zn3 O10 1.965 . S
Zn4 O2 1.950 . S
Zn4 O11 1.938 1_455 S
Zn4 O12 1.906 . S
Zn4 O22 1.953 . S
Zn5 O2 1.945 . S
Zn5 O7 1.932 . S
Zn5 O14 1.977 . S
Zn5 O15 1.910 . S
O6 Zn3 1.933 . S
O6 C17 1.226 1_655 S
O7 Zn5 1.932 . S
O7 C17 1.307 . S
O8 Zn1 1.919 . S
O8 C19 1.253 . S
O9 Zn3 1.941 . S
O9 C19 1.283 . S
O10 Zn3 1.965 . S
O10 C18 1.303 . S
O11 Zn4 1.938 1_655 S
O11 C18 1.247 . S
O12 Zn4 1.906 . S
O12 C20 1.304 . S
O13 Zn1 1.924 1_455 S
O13 C21 1.311 . S
O14 Zn5 1.977 . S
O14 C20 1.272 . S
O15 Zn5 1.910 . S
O15 C21 1.231 . S
C16 O0 1.225 1_455 S
C16 O22 1.298 . S
C17 O6 1.226 1_455 S
C17 O7 1.307 . S
C18 O10 1.303 . S
C18 O11 1.247 . S
C19 O8 1.253 . S
C19 O9 1.283 . S
C20 O12 1.304 . S
C20 O14 1.272 . S
C21 O13 1.311 . S
C21 O15 1.231 . S
O22 Zn4 1.953 . S
O22 C16 1.298 . S
O23 Zn24 1.953 . S
O23 C39 1.225 . S
Zn24 O23 1.953 . S
Zn24 O25 1.949 . S
Zn24 O31 1.919 . S
Zn24 O36 1.924 1_545 S
O25 Zn24 1.949 . S
O25 Zn26 1.923 . S
O25 Zn27 1.950 1_545 S
O25 Zn28 1.945 1_545 S
Zn26 O25 1.923 . S
Zn26 O29 1.933 . S
Zn26 O32 1.941 . S
Zn26 O33 1.965 . S
Zn27 O25 1.950 1_565 S
Zn27 O34 1.938 1_565 S
Zn27 O35 1.906 . S
Zn27 O45 1.953 . S
Zn28 O25 1.945 1_565 S
Zn28 O30 1.932 . S
Zn28 O37 1.977 . S
Zn28 O38 1.910 . S
O29 Zn26 1.933 . S
O29 C40 1.226 . S
O30 Zn28 1.932 . S
O30 C40 1.307 1_565 S
O31 Zn24 1.919 . S
O31 C42 1.253 . S
O32 Zn26 1.941 . S
O32 C42 1.283 . S
O33 Zn26 1.965 . S
O33 C41 1.303 . S
O34 Zn27 1.938 1_545 S
O34 C41 1.247 . S
O35 Zn27 1.906 . S
O35 C43 1.304 . S
O36 Zn24 1.924 1_565 S
O36 C44 1.311 . S
O37 Zn28 1.977 . S
O37 C43 1.272 . S
O38 Zn28 1.910 . S
O38 C44 1.231 . S
C39 O23 1.225 . S
C39 O45 1.298 1_545 S
C40 O29 1.226 . S
C40 O30 1.307 1_545 S
C41 O33 1.303 . S
C41 O34 1.247 . S
C42 O31 1.253 . S
C42 O32 1.283 . S
C43 O35 1.304 . S
C43 O37 1.272 . S
C44 O36 1.311 . S
C44 O38 1.231 . S
O45 Zn27 1.953 . S
O45 C39 1.298 1_565 S
O46 Zn47 1.953 . S
O46 C62 1.225 . S
Zn47 O46 1.953 . S
Zn47 O48 1.949 . S
Zn47 O54 1.919 . S
Zn47 O59 1.924 . S
O48 Zn47 1.949 . S
O48 Zn49 1.923 . S
O48 Zn50 1.950 . S
O48 Zn51 1.945 . S
Zn49 O48 1.923 . S
Zn49 O52 1.933 . S
Zn49 O55 1.941 . S
Zn49 O56 1.965 . S
Zn50 O48 1.950 . S
Zn50 O57 1.938 . S
Zn50 O58 1.906 . S
Zn50 O68 1.953 . S
Zn51 O48 1.945 . S
Zn51 O53 1.932 . S
Zn51 O60 1.977 . S
Zn51 O61 1.910 . S
O52 Zn49 1.933 . S
O52 C63 1.226 . S
O53 Zn51 1.932 . S
O53 C63 1.307 . S
O54 Zn47 1.919 . S
O54 C65 1.253 . S
O55 Zn49 1.941 . S
O55 C65 1.283 . S
O56 Zn49 1.965 . S
O56 C64 1.303 . S
O57 Zn50 1.938 . S
O57 C64 1.247 . S
O58 Zn50 1.906 . S
O58 C66 1.304 . S
O59 Zn47 1.924 . S
O59 C67 1.311 . S
O60 Zn51 1.977 . S
O60 C66 1.272 . S
O61 Zn51 1.910 . S
O61 C67 1.231 . S
C62 O46 1.225 . S
C62 O68 1.298 . S
C63 O52 1.226 . S
C63 O53 1.307 . S
C64 O56 1.303 . S
C64 O57 1.247 . S
C65 O54 1.253 . S
C65 O55 1.283 . S
C66 O58 1.304 . S
C66 O60 1.272 . S
C67 O59 1.311 . S
C67 O61 1.231 . S
O68 Zn50 1.953 . S
O68 C62 1.298 . S
O69 Cd70 2.300 . S
O69 C76 1.275 1_545 S
Cd70 O69 2.300 . S
Cd70 O78 2.381 . S
Cd70 O79 2.378 . S
O71 Cd72 2.385 . S
O71 C76 1.255 . S
Cd72 O71 2.385 . S
Cd72 O73 2.317 . S
O73 Cd72 2.317 . S
O73 C74 1.232 . S
C74 O73 1.232 . S
C74 O75 1.218 . S
O75 C74 1.218 . S
C76 O69 1.275 1_565 S
C76 O71 1.255 . S
C77 O78 1.258 . S
C77 O79 1.256 . S
O78 Cd70 2.381 . S
O78 C77 1.258 . S
O79 Cd70 2.378 . S
O79 C77 1.256 . S
O80 Cd81 2.300 . S
O80 C87 1.275 . S
Cd81 O80 2.300 . S
Cd81 O89 2.381 . S
Cd81 O90 2.378 . S
O82 Cd83 2.385 . S
O82 C87 1.255 . S
Cd83 O82 2.385 . S
Cd83 O84 2.317 . S
O84 Cd83 2.317 . S
O84 C85 1.232 . S
C85 O84 1.232 . S
C85 O86 1.218 . S
O86 C85 1.218 . S
C87 O80 1.275 . S
C87 O82 1.255 . S
C88 O89 1.258 . S
C88 O90 1.256 . S
O89 Cd81 2.381 . S
O89 C88 1.258 . S
O90 Cd81 2.378 . S
O90 C88 1.256 . S
O91 Cd92 2.300 . S
O91 C98 1.275 . S
Cd92 O91 2.300 . S
Cd92 O100 2.381 . S
Cd92 O101 2.378 . S
O93 Cd94 2.385 . S
O93 C98 1.255 1_655 S
Cd94 O93 2.385 . S
Cd94 O95 2.317 . S
O95 Cd94 2.317 . S
O95 C96 1.232 . S
C96 O95 1.232 . S
C96 O97 1.218 . S
O97 C96 1.218 . S
C98 O91 1.275 . S
C98 O93 1.255 1_455 S
C99 O100 1.258 . S
C99 O101 1.256 . S
O100 Cd92 2.381 . S
O100 C99 1.258 . S
O101 Cd92 2.378 . S
O101 C99 1.256 . S
O102 Cd103 2.300 . S
O102 C109 1.275 1_455 S
Cd103 O102 2.300 . S
Cd103 O111 2.381 . S
Cd103 O112 2.378 . S
O104 Cd105 2.385 . S
O104 C109 1.255 . S
Cd105 O104 2.385 . S
Cd105 O106 2.317 . S
O106 Cd105 2.317 . S
O106 C107 1.232 . S
C107 O106 1.232 . S
C107 O108 1.218 . S
O108 C107 1.218 . S
C109 O102 1.275 1_655 S
C109 O104 1.255 . S
C110 O111 1.258 . S
C110 O112 1.256 . S
O111 Cd103 2.381 . S
O111 C110 1.258 . S
O112 Cd103 2.378 . S
O112 C110 1.256 . S
O113 Cd114 2.300 . S
O113 C120 1.275 1_565 S
Cd114 O113 2.300 . S
Cd114 O122 2.381 . S
Cd114 O123 2.378 . S
O115 Cd116 2.385 . S
O115 C120 1.255 . S
Cd116 O115 2.385 . S
Cd116 O117 2.317 . S
O117 Cd116 2.317 . S
O117 C118 1.232 . S
C118 O117 1.232 . S
C118 O119 1.218 . S
O119 C118 1.218 . S
C120 O113 1.275 1_545 S
C120 O115 1.255 . S
C121 O122 1.258 . S
C121 O123 1.256 . S
O122 Cd114 2.381 . S
O122 C121 1.258 . S
O123 Cd114 2.378 . S
O123 C121 1.256 . S
O124 Cd125 2.300 . S
O124 C131 1.275 . S
Cd125 O124 2.300 . S
Cd125 O133 2.381 . S
Cd125 O134 2.378 . S
O126 Cd127 2.385 . S
O126 C131 1.255 . S
Cd127 O126 2.385 . S
Cd127 O128 2.317 . S
O128 Cd127 2.317 . S
O128 C129 1.232 . S
C129 O128 1.232 . S
C129 O130 1.218 . S
O130 C129 1.218 . S
C131 O124 1.275 . S
C131 O126 1.255 . S
C132 O133 1.258 . S
C132 O134 1.256 . S
O133 Cd125 2.381 . S
O133 C132 1.258 . S
O134 Cd125 2.378 . S
O134 C132 1.256 . S
C135 C136 1.369 . S
C135 C137 1.419 . S
C135 H139 0.930 . S
C136 C135 1.369 . S
C136 C145 1.429 . S
C137 C135 1.419 . S
C137 C138 1.363 . S
C137 H140 0.929 . S
C138 C137 1.363 . S
C138 C144 1.428 . S
H139 C135 0.930 . S
H140 C137 0.929 . S
S141 N142 1.613 . S
S141 N143 1.610 . S
N142 S141 1.613 . S
N142 C145 1.350 . S
N143 S141 1.610 . S
N143 C144 1.351 . S
C144 C138 1.428 . S
C144 N143 1.351 . S
C144 C145 1.434 . S
C145 C136 1.429 . S
C145 N142 1.350 . S
C145 C144 1.434 . S
C146 C147 1.369 . S
C146 C148 1.419 . S
C146 H150 0.930 . S
C147 C146 1.369 . S
C147 C156 1.429 . S
C148 C146 1.419 . S
C148 C149 1.363 . S
C148 H151 0.929 . S
C149 C148 1.363 . S
C149 C155 1.428 . S
H150 C146 0.930 . S
H151 C148 0.929 . S
S152 N153 1.613 . S
S152 N154 1.610 . S
N153 S152 1.613 . S
N153 C156 1.350 . S
N154 S152 1.610 . S
N154 C155 1.351 . S
C155 C149 1.428 . S
C155 N154 1.351 . S
C155 C156 1.434 . S
C156 C147 1.429 . S
C156 N153 1.350 . S
C156 C155 1.434 . S
C157 C158 1.369 . S
C157 C159 1.419 . S
C157 H161 0.930 . S
C158 C157 1.369 . S
C158 C167 1.429 . S
C159 C157 1.419 . S
C159 C160 1.363 . S
C159 H162 0.929 . S
C160 C159 1.363 . S
C160 C166 1.428 . S
H161 C157 0.930 . S
H162 C159 0.929 . S
S163 N164 1.613 . S
S163 N165 1.610 . S
N164 S163 1.613 . S
N164 C167 1.350 . S
N165 S163 1.610 . S
N165 C166 1.351 . S
C166 C160 1.428 . S
C166 N165 1.351 . S
C166 C167 1.434 . S
C167 C158 1.429 . S
C167 N164 1.350 . S
C167 C166 1.434 . S
C168 C169 1.369 . S
C168 C170 1.419 . S
C168 H172 0.930 . S
C169 C168 1.369 . S
C169 C178 1.429 . S
C170 C168 1.419 . S
C170 C171 1.363 . S
C170 H173 0.929 . S
C171 C170 1.363 . S
C171 C177 1.428 . S
H172 C168 0.930 . S
H173 C170 0.929 . S
S174 N175 1.613 . S
S174 N176 1.610 . S
N175 S174 1.613 . S
N175 C178 1.350 . S
N176 S174 1.610 . S
N176 C177 1.351 . S
C177 C171 1.428 . S
C177 N176 1.351 . S
C177 C178 1.434 . S
C178 C169 1.429 . S
C178 N175 1.350 . S
C178 C177 1.434 . S
C179 C180 1.369 . S
C179 C181 1.419 . S
C179 H183 0.930 . S
C180 C179 1.369 . S
C180 C189 1.429 . S
C181 C179 1.419 . S
C181 C182 1.363 . S
C181 H184 0.929 . S
C182 C181 1.363 . S
C182 C188 1.428 . S
H183 C179 0.930 . S
H184 C181 0.929 . S
S185 N186 1.613 . S
S185 N187 1.610 . S
N186 S185 1.613 . S
N186 C189 1.350 . S
N187 S185 1.610 . S
N187 C188 1.351 . S
C188 C182 1.428 . S
C188 N187 1.351 . S
C188 C189 1.434 . S
C189 C180 1.429 . S
C189 N186 1.350 . S
C189 C188 1.434 . S
C190 C191 1.369 . S
C190 C192 1.419 . S
C190 H194 0.930 . S
C191 C190 1.369 . S
C191 C200 1.429 . S
C192 C190 1.419 . S
C192 C193 1.363 . S
C192 H195 0.929 . S
C193 C192 1.363 . S
C193 C199 1.428 . S
H194 C190 0.930 . S
H195 C192 0.929 . S
S196 N197 1.613 . S
S196 N198 1.610 . S
N197 S196 1.613 . S
N197 C200 1.350 . S
N198 S196 1.610 . S
N198 C199 1.351 . S
C199 C193 1.428 . S
C199 N198 1.351 . S
C199 C200 1.434 . S
C200 C191 1.429 . S
C200 N197 1.350 . S
C200 C199 1.434 . S
C201 C202 1.369 . S
C201 C203 1.419 . S
C201 H205 0.930 . S
C202 C201 1.369 . S
C202 C211 1.429 . S
C203 C201 1.419 . S
C203 C204 1.363 . S
C203 H206 0.929 . S
C204 C203 1.363 . S
C204 C210 1.428 . S
H205 C201 0.930 . S
H206 C203 0.929 . S
S207 N208 1.613 . S
S207 N209 1.610 . S
N208 S207 1.613 . S
N208 C211 1.350 . S
N209 S207 1.610 . S
N209 C210 1.351 . S
C210 C204 1.428 . S
C210 N209 1.351 . S
C210 C211 1.434 . S
C211 C202 1.429 . S
C211 N208 1.350 . S
C211 C210 1.434 . S
C212 C213 1.369 . S
C212 C214 1.419 . S
C212 H216 0.930 . S
C213 C212 1.369 . S
C213 C222 1.429 . S
C214 C212 1.419 . S
C214 C215 1.363 . S
C214 H217 0.929 . S
C215 C214 1.363 . S
C215 C221 1.428 . S
H216 C212 0.930 . S
H217 C214 0.929 . S
S218 N219 1.613 . S
S218 N220 1.610 . S
N219 S218 1.613 . S
N219 C222 1.350 . S
N220 S218 1.610 . S
N220 C221 1.351 . S
C221 C215 1.428 . S
C221 N220 1.351 . S
C221 C222 1.434 . S
C222 C213 1.429 . S
C222 N219 1.350 . S
C222 C221 1.434 . S
C223 C224 1.369 . S
C223 C225 1.419 . S
C223 H227 0.930 . S
C224 C223 1.369 . S
C224 C233 1.429 . S
C225 C223 1.419 . S
C225 C226 1.363 . S
C225 H228 0.929 . S
C226 C225 1.363 . S
C226 C232 1.428 . S
H227 C223 0.930 . S
H228 C225 0.929 . S
S229 N230 1.613 . S
S229 N231 1.610 . S
N230 S229 1.613 . S
N230 C233 1.350 . S
N231 S229 1.610 . S
N231 C232 1.351 . S
C232 C226 1.428 . S
C232 N231 1.351 . S
C232 C233 1.434 . S
C233 C224 1.429 . S
C233 N230 1.350 . S
C233 C232 1.434 . S
C234 C235 1.369 . S
C234 C236 1.419 . S
C234 H238 0.930 . S
C235 C234 1.369 . S
C235 C244 1.429 . S
C236 C234 1.419 . S
C236 C237 1.363 . S
C236 H239 0.929 . S
C237 C236 1.363 . S
C237 C243 1.428 . S
H238 C234 0.930 . S
H239 C236 0.929 . S
S240 N241 1.613 . S
S240 N242 1.610 . S
N241 S240 1.613 . S
N241 C244 1.350 . S
N242 S240 1.610 . S
N242 C243 1.351 . S
C243 C237 1.428 . S
C243 N242 1.351 . S
C243 C244 1.434 . S
C244 C235 1.429 . S
C244 N241 1.350 . S
C244 C243 1.434 . S
C245 C246 1.369 . S
C245 C247 1.419 . S
C245 H249 0.930 . S
C246 C245 1.369 . S
C246 C255 1.429 . S
C247 C245 1.419 . S
C247 C248 1.363 . S
C247 H250 0.929 . S
C248 C247 1.363 . S
C248 C254 1.428 . S
H249 C245 0.930 . S
H250 C247 0.929 . S
S251 N252 1.613 . S
S251 N253 1.610 . S
N252 S251 1.613 . S
N252 C255 1.350 . S
N253 S251 1.610 . S
N253 C254 1.351 . S
C254 C248 1.428 . S
C254 N253 1.351 . S
C254 C255 1.434 . S
C255 C246 1.429 . S
C255 N252 1.350 . S
C255 C254 1.434 . S
C256 C257 1.369 . S
C256 C258 1.419 . S
C256 H260 0.930 . S
C257 C256 1.369 . S
C257 C266 1.429 . S
C258 C256 1.419 . S
C258 C259 1.363 . S
C258 H261 0.929 . S
C259 C258 1.363 . S
C259 C265 1.428 . S
H260 C256 0.930 . S
H261 C258 0.929 . S
S262 N263 1.613 . S
S262 N264 1.610 . S
N263 S262 1.613 . S
N263 C266 1.350 . S
N264 S262 1.610 . S
N264 C265 1.351 . S
C265 C259 1.428 . S
C265 N264 1.351 . S
C265 C266 1.434 . S
C266 C257 1.429 . S
C266 N263 1.350 . S
C266 C265 1.434 . S
C267 C268 1.369 1_655 S
C267 C269 1.419 . S
C267 H271 0.930 . S
C268 C267 1.369 1_455 S
C268 C277 1.429 . S
C269 C267 1.419 . S
C269 C270 1.363 1_654 S
C269 H272 0.929 1_554 S
C270 C269 1.363 1_456 S
C270 C276 1.428 1_556 S
H271 C267 0.930 . S
H272 C269 0.929 1_556 S
S273 N274 1.613 . S
S273 N275 1.610 1_554 S
N274 S273 1.613 . S
N274 C277 1.350 . S
N275 S273 1.610 1_556 S
N275 C276 1.351 1_556 S
C276 C270 1.428 1_554 S
C276 N275 1.351 1_554 S
C276 C277 1.434 . S
C277 C268 1.429 . S
C277 N274 1.350 . S
C277 C276 1.434 . S
C278 C279 1.369 . S
C278 C280 1.419 . S
C278 H282 0.930 . S
C279 C278 1.369 . S
C279 C288 1.429 1_545 S
C280 C278 1.419 . S
C280 C281 1.363 1_545 S
C280 H283 0.929 . S
C281 C280 1.363 1_565 S
C281 C287 1.428 . S
H282 C278 0.930 . S
H283 C280 0.929 . S
S284 N285 1.613 . S
S284 N286 1.610 . S
N285 S284 1.613 . S
N285 C288 1.350 . S
N286 S284 1.610 . S
N286 C287 1.351 . S
C287 C281 1.428 . S
C287 N286 1.351 . S
C287 C288 1.434 . S
C288 C279 1.429 1_565 S
C288 N285 1.350 . S
C288 C287 1.434 . S
C289 C290 1.369 . S
C289 C291 1.419 . S
C289 H293 0.930 . S
C290 C289 1.369 . S
C290 C299 1.429 . S
C291 C289 1.419 . S
C291 C292 1.363 . S
C291 H294 0.929 . S
C292 C291 1.363 . S
C292 C298 1.428 . S
H293 C289 0.930 . S
H294 C291 0.929 . S
S295 N296 1.613 . S
S295 N297 1.610 . S
N296 S295 1.613 . S
N296 C299 1.350 . S
N297 S295 1.610 . S
N297 C298 1.351 . S
C298 C292 1.428 . S
C298 N297 1.351 . S
C298 C299 1.434 . S
C299 C290 1.429 . S
C299 N296 1.350 . S
C299 C298 1.434 . S
C300 C301 1.369 1_565 S
C300 C302 1.419 . S
C300 H304 0.930 . S
C301 C300 1.369 1_545 S
C301 C310 1.429 . S
C302 C300 1.419 . S
C302 C303 1.363 1_565 S
C302 H305 0.929 . S
C303 C302 1.363 1_545 S
C303 C309 1.428 . S
H304 C300 0.930 . S
H305 C302 0.929 . S
S306 N307 1.613 . S
S306 N308 1.610 . S
N307 S306 1.613 . S
N307 C310 1.350 . S
N308 S306 1.610 . S
N308 C309 1.351 . S
C309 C303 1.428 . S
C309 N308 1.351 . S
C309 C310 1.434 . S
C310 C301 1.429 . S
C310 N307 1.350 . S
C310 C309 1.434 . S
C311 C312 1.369 . S
C311 C313 1.419 . S
C311 H315 0.930 . S
C312 C311 1.369 . S
C312 C321 1.429 . S
C313 C311 1.419 . S
C313 C314 1.363 1_556 S
C313 H316 0.929 1_556 S
C314 C313 1.363 1_554 S
C314 C320 1.422 1_554 S
H315 C311 0.930 . S
H316 C313 0.929 1_554 S
S317 N318 1.613 . S
S317 N319 1.610 1_556 S
N318 S317 1.613 . S
N318 C321 1.350 . S
N319 S317 1.610 1_554 S
N319 C320 1.346 1_554 S
C320 C314 1.422 1_556 S
C320 N319 1.346 1_556 S
C320 C321 1.447 . S
C321 C312 1.429 . S
C321 N318 1.350 . S
C321 C320 1.447 . S
C322 C323 1.369 1_655 S
C322 C324 1.419 . S
C322 H326 0.930 . S
C323 C322 1.369 1_455 S
C323 C332 1.429 . S
C324 C322 1.419 . S
C324 C325 1.363 . S
C324 H327 0.929 . S
C325 C324 1.363 . S
C325 C331 1.428 1_655 S
H326 C322 0.930 . S
H327 C324 0.929 . S
S328 N329 1.613 . S
S328 N330 1.610 . S
N329 S328 1.613 . S
N329 C332 1.350 . S
N330 S328 1.610 . S
N330 C331 1.351 . S
C331 C325 1.428 1_455 S
C331 N330 1.351 . S
C331 C332 1.434 . S
C332 C323 1.429 . S
C332 N329 1.350 . S
C332 C331 1.434 . S
C136 C20 1.432 . S
C138 C129 1.365 . S
C147 C41 1.523 . S
C149 C107 1.398 . S
C158 C64 1.288 . S
C160 C121 1.247 . S
C169 C19 1.223 . S
C171 C132 1.242 . S
C182 C110 1.224 . S
C180 C44 1.251 . S
C193 C118 1.381 . S
C191 C67 1.498 . S
C202 C43 1.436 . S
C204 C85 1.374 . S
C213 C66 1.428 . S
C215 C96 1.356 . S
C224 C21 1.506 . S
C226 C74 1.400 . S
C237 C88 1.238 . S
C235 C42 1.201 . S
C248 C99 1.242 . S
C246 C65 1.225 . S
C257 C18 1.271 . S
C259 C77 1.224 . S
C270 C98 1.428 . S
C268 C17 1.508 . S
C279 C39 1.504 . S
C281 C76 1.432 . S
C290 C62 1.520 . S
C292 C87 1.433 . S
C303 C120 1.419 . S
C301 C40 1.492 . S
C314 C131 1.424 . S
C312 C63 1.508 . S
C323 C16 1.507 . S
C325 C109 1.426 . S
