# Generated by pormake.
# Topology ibd, (4,6)-cn, num edge types: 1
# Building blocks:
#     Node 0, Type 0, BuildingBlock: QUQFOY_clean_sbu_3, # of connection points: 4
#     Node 1, Type 0, BuildingBlock: QUQFOY_clean_sbu_3, # of connection points: 4
#     Node 2, Type 0, BuildingBlock: QUQFOY_clean_sbu_3, # of connection points: 4
#     Node 3, Type 0, BuildingBlock: QUQFOY_clean_sbu_3, # of connection points: 4
#     Node 4, Type 0, BuildingBlock: QUQFOY_clean_sbu_3, # of connection points: 4
#     Node 5, Type 0, BuildingBlock: QUQFOY_clean_sbu_3, # of connection points: 4
#     Node 6, Type 0, BuildingBlock: QUQFOY_clean_sbu_3, # of connection points: 4
#     Node 7, Type 0, BuildingBlock: QUQFOY_clean_sbu_3, # of connection points: 4
#     Node 8, Type 0, BuildingBlock: QUQFOY_clean_sbu_3, # of connection points: 4
#     Node 9, Type 0, BuildingBlock: QUQFOY_clean_sbu_3, # of connection points: 4
#     Node 10, Type 0, BuildingBlock: QUQFOY_clean_sbu_3, # of connection points: 4
#     Node 11, Type 0, BuildingBlock: QUQFOY_clean_sbu_3, # of connection points: 4
#     Node 12, Type 0, BuildingBlock: QUQFOY_clean_sbu_3, # of connection points: 4
#     Node 13, Type 0, BuildingBlock: QUQFOY_clean_sbu_3, # of connection points: 4
#     Node 14, Type 0, BuildingBlock: QUQFOY_clean_sbu_3, # of connection points: 4
#     Node 15, Type 0, BuildingBlock: QUQFOY_clean_sbu_3, # of connection points: 4
#     Node 16, Type 0, BuildingBlock: QUQFOY_clean_sbu_3, # of connection points: 4
#     Node 17, Type 0, BuildingBlock: QUQFOY_clean_sbu_3, # of connection points: 4
#     Node 18, Type 0, BuildingBlock: QUQFOY_clean_sbu_3, # of connection points: 4
#     Node 19, Type 0, BuildingBlock: QUQFOY_clean_sbu_3, # of connection points: 4
#     Node 20, Type 0, BuildingBlock: QUQFOY_clean_sbu_3, # of connection points: 4
#     Node 21, Type 0, BuildingBlock: QUQFOY_clean_sbu_3, # of connection points: 4
#     Node 22, Type 0, BuildingBlock: QUQFOY_clean_sbu_3, # of connection points: 4
#     Node 23, Type 0, BuildingBlock: QUQFOY_clean_sbu_3, # of connection points: 4
#     Node 24, Type 1, BuildingBlock: OJICUG_clean_sbu_0, # of connection points: 6
#     Node 25, Type 1, BuildingBlock: OJICUG_clean_sbu_0, # of connection points: 6
#     Node 26, Type 1, BuildingBlock: OJICUG_clean_sbu_0, # of connection points: 6
#     Node 27, Type 1, BuildingBlock: OJICUG_clean_sbu_0, # of connection points: 6
#     Node 28, Type 1, BuildingBlock: OJICUG_clean_sbu_0, # of connection points: 6
#     Node 29, Type 1, BuildingBlock: OJICUG_clean_sbu_0, # of connection points: 6
#     Node 30, Type 1, BuildingBlock: OJICUG_clean_sbu_0, # of connection points: 6
#     Node 31, Type 1, BuildingBlock: OJICUG_clean_sbu_0, # of connection points: 6
#     Node 32, Type 1, BuildingBlock: OJICUG_clean_sbu_0, # of connection points: 6
#     Node 33, Type 1, BuildingBlock: OJICUG_clean_sbu_0, # of connection points: 6
#     Node 34, Type 1, BuildingBlock: OJICUG_clean_sbu_0, # of connection points: 6
#     Node 35, Type 1, BuildingBlock: OJICUG_clean_sbu_0, # of connection points: 6
#     Node 36, Type 1, BuildingBlock: OJICUG_clean_sbu_0, # of connection points: 6
#     Node 37, Type 1, BuildingBlock: OJICUG_clean_sbu_0, # of connection points: 6
#     Node 38, Type 1, BuildingBlock: OJICUG_clean_sbu_0, # of connection points: 6
#     Node 39, Type 1, BuildingBlock: OJICUG_clean_sbu_0, # of connection points: 6
#     Edge 40, Type (0, 1), BuildingBlock: ZUJKAS_clean_linker_0, # of connection points: 2
#     Edge 41, Type (0, 1), BuildingBlock: ZUJKAS_clean_linker_0, # of connection points: 2
#     Edge 42, Type (0, 1), BuildingBlock: ZUJKAS_clean_linker_0, # of connection points: 2
#     Edge 43, Type (0, 1), BuildingBlock: ZUJKAS_clean_linker_0, # of connection points: 2
#     Edge 44, Type (0, 1), BuildingBlock: ZUJKAS_clean_linker_0, # of connection points: 2
#     Edge 45, Type (0, 1), BuildingBlock: ZUJKAS_clean_linker_0, # of connection points: 2
#     Edge 46, Type (0, 1), BuildingBlock: ZUJKAS_clean_linker_0, # of connection points: 2
#     Edge 47, Type (0, 1), BuildingBlock: ZUJKAS_clean_linker_0, # of connection points: 2
#     Edge 48, Type (0, 1), BuildingBlock: ZUJKAS_clean_linker_0, # of connection points: 2
#     Edge 49, Type (0, 1), BuildingBlock: ZUJKAS_clean_linker_0, # of connection points: 2
#     Edge 50, Type (0, 1), BuildingBlock: ZUJKAS_clean_linker_0, # of connection points: 2
#     Edge 51, Type (0, 1), BuildingBlock: ZUJKAS_clean_linker_0, # of connection points: 2
#     Edge 52, Type (0, 1), BuildingBlock: ZUJKAS_clean_linker_0, # of connection points: 2
#     Edge 53, Type (0, 1), BuildingBlock: ZUJKAS_clean_linker_0, # of connection points: 2
#     Edge 54, Type (0, 1), BuildingBlock: ZUJKAS_clean_linker_0, # of connection points: 2
#     Edge 55, Type (0, 1), BuildingBlock: ZUJKAS_clean_linker_0, # of connection points: 2
#     Edge 56, Type (0, 1), BuildingBlock: ZUJKAS_clean_linker_0, # of connection points: 2
#     Edge 57, Type (0, 1), BuildingBlock: ZUJKAS_clean_linker_0, # of connection points: 2
#     Edge 58, Type (0, 1), BuildingBlock: ZUJKAS_clean_linker_0, # of connection points: 2
#     Edge 59, Type (0, 1), BuildingBlock: ZUJKAS_clean_linker_0, # of connection points: 2
#     Edge 60, Type (0, 1), BuildingBlock: ZUJKAS_clean_linker_0, # of connection points: 2
#     Edge 61, Type (0, 1), BuildingBlock: ZUJKAS_clean_linker_0, # of connection points: 2
#     Edge 62, Type (0, 1), BuildingBlock: ZUJKAS_clean_linker_0, # of connection points: 2
#     Edge 63, Type (0, 1), BuildingBlock: ZUJKAS_clean_linker_0, # of connection points: 2
#     Edge 64, Type (0, 1), BuildingBlock: ZUJKAS_clean_linker_0, # of connection points: 2
#     Edge 65, Type (0, 1), BuildingBlock: ZUJKAS_clean_linker_0, # of connection points: 2
#     Edge 66, Type (0, 1), BuildingBlock: ZUJKAS_clean_linker_0, # of connection points: 2
#     Edge 67, Type (0, 1), BuildingBlock: ZUJKAS_clean_linker_0, # of connection points: 2
#     Edge 68, Type (0, 1), BuildingBlock: ZUJKAS_clean_linker_0, # of connection points: 2
#     Edge 69, Type (0, 1), BuildingBlock: ZUJKAS_clean_linker_0, # of connection points: 2
#     Edge 70, Type (0, 1), BuildingBlock: ZUJKAS_clean_linker_0, # of connection points: 2
#     Edge 71, Type (0, 1), BuildingBlock: ZUJKAS_clean_linker_0, # of connection points: 2
#     Edge 72, Type (0, 1), BuildingBlock: ZUJKAS_clean_linker_0, # of connection points: 2
#     Edge 73, Type (0, 1), BuildingBlock: ZUJKAS_clean_linker_0, # of connection points: 2
#     Edge 74, Type (0, 1), BuildingBlock: ZUJKAS_clean_linker_0, # of connection points: 2
#     Edge 75, Type (0, 1), BuildingBlock: ZUJKAS_clean_linker_0, # of connection points: 2
#     Edge 76, Type (0, 1), BuildingBlock: ZUJKAS_clean_linker_0, # of connection points: 2
#     Edge 77, Type (0, 1), BuildingBlock: ZUJKAS_clean_linker_0, # of connection points: 2
#     Edge 78, Type (0, 1), BuildingBlock: ZUJKAS_clean_linker_0, # of connection points: 2
#     Edge 79, Type (0, 1), BuildingBlock: ZUJKAS_clean_linker_0, # of connection points: 2
#     Edge 80, Type (0, 1), BuildingBlock: ZUJKAS_clean_linker_0, # of connection points: 2
#     Edge 81, Type (0, 1), BuildingBlock: ZUJKAS_clean_linker_0, # of connection points: 2
#     Edge 82, Type (0, 1), BuildingBlock: ZUJKAS_clean_linker_0, # of connection points: 2
#     Edge 83, Type (0, 1), BuildingBlock: ZUJKAS_clean_linker_0, # of connection points: 2
#     Edge 84, Type (0, 1), BuildingBlock: ZUJKAS_clean_linker_0, # of connection points: 2
#     Edge 85, Type (0, 1), BuildingBlock: ZUJKAS_clean_linker_0, # of connection points: 2
#     Edge 86, Type (0, 1), BuildingBlock: ZUJKAS_clean_linker_0, # of connection points: 2
#     Edge 87, Type (0, 1), BuildingBlock: ZUJKAS_clean_linker_0, # of connection points: 2
#     Edge 88, Type (0, 1), BuildingBlock: ZUJKAS_clean_linker_0, # of connection points: 2
#     Edge 89, Type (0, 1), BuildingBlock: ZUJKAS_clean_linker_0, # of connection points: 2
#     Edge 90, Type (0, 1), BuildingBlock: ZUJKAS_clean_linker_0, # of connection points: 2
#     Edge 91, Type (0, 1), BuildingBlock: ZUJKAS_clean_linker_0, # of connection points: 2
#     Edge 92, Type (0, 1), BuildingBlock: ZUJKAS_clean_linker_0, # of connection points: 2
#     Edge 93, Type (0, 1), BuildingBlock: ZUJKAS_clean_linker_0, # of connection points: 2
#     Edge 94, Type (0, 1), BuildingBlock: ZUJKAS_clean_linker_0, # of connection points: 2
#     Edge 95, Type (0, 1), BuildingBlock: ZUJKAS_clean_linker_0, # of connection points: 2
#     Edge 96, Type (0, 1), BuildingBlock: ZUJKAS_clean_linker_0, # of connection points: 2
#     Edge 97, Type (0, 1), BuildingBlock: ZUJKAS_clean_linker_0, # of connection points: 2
#     Edge 98, Type (0, 1), BuildingBlock: ZUJKAS_clean_linker_0, # of connection points: 2
#     Edge 99, Type (0, 1), BuildingBlock: ZUJKAS_clean_linker_0, # of connection points: 2
#     Edge 100, Type (0, 1), BuildingBlock: ZUJKAS_clean_linker_0, # of connection points: 2
#     Edge 101, Type (0, 1), BuildingBlock: ZUJKAS_clean_linker_0, # of connection points: 2
#     Edge 102, Type (0, 1), BuildingBlock: ZUJKAS_clean_linker_0, # of connection points: 2
#     Edge 103, Type (0, 1), BuildingBlock: ZUJKAS_clean_linker_0, # of connection points: 2
#     Edge 104, Type (0, 1), BuildingBlock: ZUJKAS_clean_linker_0, # of connection points: 2
#     Edge 105, Type (0, 1), BuildingBlock: ZUJKAS_clean_linker_0, # of connection points: 2
#     Edge 106, Type (0, 1), BuildingBlock: ZUJKAS_clean_linker_0, # of connection points: 2
#     Edge 107, Type (0, 1), BuildingBlock: ZUJKAS_clean_linker_0, # of connection points: 2
#     Edge 108, Type (0, 1), BuildingBlock: ZUJKAS_clean_linker_0, # of connection points: 2
#     Edge 109, Type (0, 1), BuildingBlock: ZUJKAS_clean_linker_0, # of connection points: 2
#     Edge 110, Type (0, 1), BuildingBlock: ZUJKAS_clean_linker_0, # of connection points: 2
#     Edge 111, Type (0, 1), BuildingBlock: ZUJKAS_clean_linker_0, # of connection points: 2
#     Edge 112, Type (0, 1), BuildingBlock: ZUJKAS_clean_linker_0, # of connection points: 2
#     Edge 113, Type (0, 1), BuildingBlock: ZUJKAS_clean_linker_0, # of connection points: 2
#     Edge 114, Type (0, 1), BuildingBlock: ZUJKAS_clean_linker_0, # of connection points: 2
#     Edge 115, Type (0, 1), BuildingBlock: ZUJKAS_clean_linker_0, # of connection points: 2
#     Edge 116, Type (0, 1), BuildingBlock: ZUJKAS_clean_linker_0, # of connection points: 2
#     Edge 117, Type (0, 1), BuildingBlock: ZUJKAS_clean_linker_0, # of connection points: 2
#     Edge 118, Type (0, 1), BuildingBlock: ZUJKAS_clean_linker_0, # of connection points: 2
#     Edge 119, Type (0, 1), BuildingBlock: ZUJKAS_clean_linker_0, # of connection points: 2
#     Edge 120, Type (0, 1), BuildingBlock: ZUJKAS_clean_linker_0, # of connection points: 2
#     Edge 121, Type (0, 1), BuildingBlock: ZUJKAS_clean_linker_0, # of connection points: 2
#     Edge 122, Type (0, 1), BuildingBlock: ZUJKAS_clean_linker_0, # of connection points: 2
#     Edge 123, Type (0, 1), BuildingBlock: ZUJKAS_clean_linker_0, # of connection points: 2
#     Edge 124, Type (0, 1), BuildingBlock: ZUJKAS_clean_linker_0, # of connection points: 2
#     Edge 125, Type (0, 1), BuildingBlock: ZUJKAS_clean_linker_0, # of connection points: 2
#     Edge 126, Type (0, 1), BuildingBlock: ZUJKAS_clean_linker_0, # of connection points: 2
#     Edge 127, Type (0, 1), BuildingBlock: ZUJKAS_clean_linker_0, # of connection points: 2
#     Edge 128, Type (0, 1), BuildingBlock: ZUJKAS_clean_linker_0, # of connection points: 2
#     Edge 129, Type (0, 1), BuildingBlock: ZUJKAS_clean_linker_0, # of connection points: 2
#     Edge 130, Type (0, 1), BuildingBlock: ZUJKAS_clean_linker_0, # of connection points: 2
#     Edge 131, Type (0, 1), BuildingBlock: ZUJKAS_clean_linker_0, # of connection points: 2
#     Edge 132, Type (0, 1), BuildingBlock: ZUJKAS_clean_linker_0, # of connection points: 2
#     Edge 133, Type (0, 1), BuildingBlock: ZUJKAS_clean_linker_0, # of connection points: 2
#     Edge 134, Type (0, 1), BuildingBlock: ZUJKAS_clean_linker_0, # of connection points: 2
#     Edge 135, Type (0, 1), BuildingBlock: ZUJKAS_clean_linker_0, # of connection points: 2
# Relax obj value: 0.375
# Max RMSD: 0.288
# Mean RMSD: 0.282
data_MOF--net-ibd--node1-QUQFOY_clean_sbu_3--node2-OJICUG_clean_sbu_0--edge1-ZUJKAS_clean_linker_0
_symmetry_space_group_name_H-M    P1
_symmetry_Int_Tables_number       1
_symmetry_cell_setting            triclinic
loop_
_symmetry_equiv_pos_as_xyz
'x, y, z'
_cell_length_a     63.649394
_cell_length_b     63.575504
_cell_length_c     63.68295
_cell_angle_alpha  90.171426
_cell_angle_beta   90.153671
_cell_angle_gamma 91.157947
loop_
_atom_site_label
_atom_site_type_symbol
_atom_site_fract_x
_atom_site_fract_y
_atom_site_fract_z
_atom_type_partial_charge
C0 C 0.96292 0.19765 0.37233 0.0
O1 O 0.947 0.20762 0.36601 0.0
Cd2 Cd 0.94799 0.23826 0.34455 0.0
O3 O 0.98137 0.20281 0.36622 0.0
Cd4 Cd -0.00111 0.22804 0.34206 0.0
C5 C 0.98362 0.26757 0.37415 0.0
O6 O 0.97106 0.22904 0.31703 0.0
O7 O -0.00527 0.25323 0.31307 0.0
O8 O 0.02109 0.20061 0.32894 0.0
C9 C 0.97753 0.24491 0.30687 0.0
O10 O 0.96479 0.26482 0.36766 0.0
C11 C 0.03832 0.21055 0.33214 0.0
O12 O -0.00166 0.25586 0.36784 0.0
O13 O 0.03724 0.22872 0.34038 0.0
C14 C -0.00256 0.80274 0.59627 0.0
O15 O 0.98005 0.81216 0.59649 0.0
Cd16 Cd 0.9507 0.7986 0.61648 0.0
O17 O -0.00012 0.78621 0.6071 0.0
Cd18 Cd 0.98107 0.76334 0.63174 0.0
C19 C 0.94635 0.74937 0.5944 0.0
O20 O 0.96202 0.7896 0.65123 0.0
O21 O 0.95122 0.75731 0.65477 0.0
O22 O 0.01285 0.76307 0.65262 0.0
C23 C 0.95003 0.77638 0.66042 0.0
O24 O 0.93826 0.76729 0.59742 0.0
C25 C 0.01419 0.7432 0.65325 0.0
O26 O 0.96319 0.74432 0.60378 0.0
O27 O 3e-05 0.73252 0.64366 0.0
C28 C 0.45948 0.70482 0.87544 0.0
O29 O 0.44413 0.71632 0.8706 0.0
Cd30 Cd 0.44544 0.74817 0.85125 0.0
O31 O 0.47802 0.70916 0.86894 0.0
Cd32 Cd 0.49485 0.73588 0.84558 0.0
C33 C 0.48331 0.77408 0.88059 0.0
O34 O 0.46605 0.73902 0.82173 0.0
O35 O 0.48939 0.76363 0.81919 0.0
O36 O 0.51799 0.71032 0.82993 0.0
C37 C 0.47221 0.75563 0.81264 0.0
O38 O 0.46411 0.77316 0.87483 0.0
C39 C 0.53458 0.72154 0.83242 0.0
O40 O 0.49669 0.76158 0.87304 0.0
O41 O 0.53267 0.73911 0.84165 0.0
C42 C 0.49718 0.3056 0.11091 0.0
O43 O 0.48018 0.31571 0.11069 0.0
Cd44 Cd 0.4485 0.3016 0.12575 0.0
O45 O 0.49846 0.28846 0.12108 0.0
Cd46 Cd 0.47747 0.26578 0.14478 0.0
C47 C 0.44793 0.25243 0.10267 0.0
O48 O 0.45633 0.29228 0.16118 0.0
O49 O 0.44512 0.26033 0.16529 0.0
O50 O 0.50622 0.26327 0.16994 0.0
C51 C 0.44299 0.27972 0.16931 0.0
O52 O 0.43999 0.27065 0.10387 0.0
C53 C 0.50797 0.24348 0.16809 0.0
O54 O 0.46235 0.24697 0.11526 0.0
O55 O 0.49533 0.23408 0.15559 0.0
C56 C 0.94862 0.72981 0.12184 0.0
O57 O 0.93893 0.74643 0.11713 0.0
Cd58 Cd 0.95387 0.77424 0.09654 0.0
O59 O 0.96701 0.72653 0.11481 0.0
Cd60 Cd -0.00602 0.7418 0.09127 0.0
C61 C -0.00012 0.78268 0.12497 0.0
O62 O 0.96883 0.75591 0.06796 0.0
O63 O 0.00034 0.76683 0.06201 0.0
O64 O -0.00071 0.70561 0.08045 0.0
C65 C 0.98103 0.76743 0.05719 0.0
O66 O 0.98208 0.78926 0.11884 0.0
C67 C 0.0192 0.70722 0.08012 0.0
O68 O 0.00709 0.76541 0.11819 0.0
O69 O 0.02739 0.72495 0.08506 0.0
C70 C 0.52395 0.78853 0.34994 0.0
O71 O 0.50825 0.80055 0.35076 0.0
Cd72 Cd 0.47747 0.79509 0.37167 0.0
O73 O 0.52446 0.7718 0.36088 0.0
Cd74 Cd 0.50158 0.75377 0.3868 0.0
C75 C 0.46005 0.74765 0.35314 0.0
O76 O 0.49226 0.7857 0.40497 0.0
O77 O 0.47732 0.75727 0.41643 0.0
O78 O 0.53106 0.73931 0.40623 0.0
C79 C 0.48035 0.77694 0.41835 0.0
O80 O 0.45668 0.76731 0.35379 0.0
C81 C 0.52531 0.72027 0.4032 0.0
O82 O 0.47534 0.73989 0.36308 0.0
O83 O 0.50884 0.71704 0.39232 0.0
C84 C 0.42335 0.23423 0.62342 0.0
O85 O 0.41738 0.25261 0.61886 0.0
Cd86 Cd 0.43981 0.27746 0.60055 0.0
O87 O 0.44119 0.22789 0.61739 0.0
Cd88 Cd 0.47201 0.23912 0.59705 0.0
C89 C 0.48296 0.2769 0.63307 0.0
O90 O 0.4546 0.26012 0.57094 0.0
O91 O 0.48851 0.26311 0.57186 0.0
O92 O 0.47253 0.20552 0.57899 0.0
C93 C 0.47135 0.26811 0.56331 0.0
O94 O 0.46768 0.28709 0.62549 0.0
C95 C 0.49114 0.20115 0.58444 0.0
O96 O 0.48711 0.25853 0.62643 0.0
O97 O 0.50068 0.21425 0.5964 0.0
C98 C 0.02472 0.28727 0.84942 0.0
O99 O 0.01036 0.30087 0.84993 0.0
Cd100 Cd 0.97889 0.29914 0.87042 0.0
O101 O 0.02353 0.27076 0.86069 0.0
Cd102 Cd -0.00155 0.25624 0.88675 0.0
C103 C 0.95836 0.2534 0.85119 0.0
O104 O -0.00833 0.28926 0.9042 0.0
O105 O 0.97255 0.26302 0.91452 0.0
O106 O 0.0263 0.23965 0.90686 0.0
C107 C 0.97786 0.28222 0.91668 0.0
O108 O 0.95554 0.27308 0.8531 0.0
C109 C 0.01784 0.22137 0.906 0.0
O110 O 0.97333 0.2446 0.86076 0.0
O111 O 0.00073 0.21945 0.89585 0.0
C112 C 0.39198 0.96699 0.20187 0.0
O113 O 0.38607 0.95393 0.21581 0.0
Cd114 Cd 0.36463 0.96276 0.24494 0.0
O115 O 0.38612 0.98604 0.20248 0.0
Cd116 Cd 0.36286 0.00817 0.22393 0.0
C117 C 0.39402 0.00323 0.26657 0.0
O118 O 0.33661 0.98103 0.22849 0.0
O119 O 0.33216 0.00832 0.24787 0.0
O120 O 0.35151 0.02363 0.19132 0.0
C121 C 0.3252 -0.00937 0.24138 0.0
O122 O 0.38704 0.9844 0.26829 0.0
C123 C 0.35366 0.04261 0.1973 0.0
O124 O 0.38838 0.01473 0.25134 0.0
O125 O 0.36064 0.04571 0.21577 0.0
C126 C 0.30092 0.10038 0.49253 0.0
O127 O 0.30688 0.09783 0.47369 0.0
Cd128 Cd 0.28634 0.10852 0.44436 0.0
O129 O 0.28329 0.10861 0.49655 0.0
Cd130 Cd 0.25299 0.12369 0.47824 0.0
C131 C 0.24214 0.07822 0.45251 0.0
O132 O 0.27527 0.14298 0.45442 0.0
O133 O 0.24225 0.14476 0.44748 0.0
O134 O 0.2491 0.14357 0.51097 0.0
C135 C 0.2609 0.15057 0.44321 0.0
O136 O 0.25809 0.08182 0.44093 0.0
C137 C 0.22917 0.14223 0.51092 0.0
O138 O 0.23782 0.09047 0.46759 0.0
O139 O 0.2205 0.13266 0.49558 0.0
C140 C 0.12356 0.92586 0.75176 0.0
O141 O 0.12444 0.91858 0.77028 0.0
Cd142 Cd 0.11699 0.94023 0.80015 0.0
O143 O 0.11786 0.94465 0.74851 0.0
Cd144 Cd 0.10462 0.97559 0.76699 0.0
C145 C 0.15011 0.98299 0.79359 0.0
O146 O 0.08404 0.95579 0.79164 0.0
O147 O 0.08601 0.9891 0.79808 0.0
O148 O 0.08003 0.98104 0.73838 0.0
C149 C 0.07855 0.97112 0.80292 0.0
O150 O 0.14585 0.96642 0.80409 0.0
C151 C 0.0871 -0.00075 0.73374 0.0
O152 O 0.13807 0.98887 0.7789 0.0
O153 O 0.10204 0.00666 0.74494 0.0
C154 C 0.29572 0.84216 0.03796 0.0
O155 O 0.30955 0.84275 0.02361 0.0
Cd156 Cd 0.30489 0.85864 -0.00997 0.0
O157 O 0.27774 0.85006 0.035 0.0
Cd158 Cd 0.25951 0.8691 0.00691 0.0
C159 C 0.26317 0.82967 0.9715 0.0
O160 O 0.28936 0.89132 -0.00135 0.0
O161 O 0.2633 0.894 0.97727 0.0
O162 O 0.24367 0.88932 0.03456 0.0
C163 C 0.28131 0.90058 0.98318 0.0
O164 O 0.28229 0.83526 0.96882 0.0
C165 C 0.22486 0.88687 0.02822 0.0
O166 O 0.252 0.83835 0.98547 0.0
O167 O 0.22195 0.87567 0.01188 0.0
C168 C 0.23406 0.3484 0.02732 0.0
O169 O 0.25285 0.35192 0.03331 0.0
Cd170 Cd 0.27639 0.37488 0.01488 0.0
O171 O 0.22684 0.35727 0.01099 0.0
Cd172 Cd 0.23796 0.38263 0.9838 0.0
C173 C 0.2755 0.35035 0.96677 0.0
O174 O 0.25615 0.40559 0.00809 0.0
O175 O 0.2622 0.41218 0.97547 0.0
O176 O 0.2013 0.39345 0.98355 0.0
C177 C 0.26468 0.41744 -0.00547 0.0
O178 O 0.28603 0.35511 0.98322 0.0
C179 C 0.20019 0.39461 0.96368 0.0
O180 O 0.25719 0.35739 0.96394 0.0
O181 O 0.21659 0.39026 0.9534 0.0
C182 C 0.71197 0.09039 0.00391 0.0
O183 O 0.72336 0.0993 0.01788 0.0
Cd184 Cd 0.74371 0.13118 0.01372 0.0
O185 O 0.71029 0.09832 0.98564 0.0
Cd186 Cd 0.72363 0.12944 0.96635 0.0
C187 C 0.77472 0.11591 0.97284 0.0
O188 O 0.72108 0.15388 -0.00499 0.0
O189 O 0.73732 0.16586 0.96788 0.0
O190 O 0.69043 0.13384 0.94834 0.0
C191 C 0.73056 0.16916 0.98627 0.0
O192 O 0.77371 0.12141 -0.00794 0.0
C193 C 0.69799 0.13258 0.92995 0.0
O194 O 0.75856 0.11629 0.96103 0.0
O195 O 0.71753 0.12918 0.9285 0.0
C196 C 0.15932 0.50303 0.22431 0.0
O197 O 0.15428 0.48717 0.21307 0.0
Cd198 Cd 0.12458 0.46401 0.21932 0.0
O199 O 0.14869 0.50755 0.24055 0.0
Cd200 Cd 0.11792 0.49238 0.25862 0.0
C201 C 0.13757 0.44392 0.26647 0.0
O202 O 0.09569 0.4861 0.22791 0.0
O203 O 0.08489 0.47246 0.25703 0.0
O204 O 0.10498 0.52637 0.26977 0.0
C205 C 0.08118 0.47669 0.23797 0.0
O206 O 0.13331 0.43941 0.24743 0.0
C207 C 0.10533 0.52218 0.28926 0.0
O208 O 0.13514 0.46245 0.27348 0.0
O209 O 0.11256 0.50449 0.29448 0.0
C210 C 0.75672 0.83362 0.53058 0.0
O211 O 0.77601 0.83661 0.53505 0.0
Cd212 Cd 0.79801 0.86269 0.51839 0.0
O213 O 0.74793 0.84449 0.51642 0.0
Cd214 Cd 0.75737 0.87258 0.49163 0.0
C215 C 0.79499 0.8448 0.46787 0.0
O216 O 0.77775 0.89378 0.51588 0.0
O217 O 0.78176 0.90184 0.48322 0.0
O218 O 0.72386 0.89021 0.49488 0.0
C219 C 0.78543 0.90623 0.50234 0.0
O220 O 0.80681 0.84914 0.48354 0.0
C221 C 0.71893 0.88813 0.47565 0.0
O222 O 0.77577 0.84983 0.46775 0.0
O223 O 0.73169 0.87842 0.46402 0.0
C224 C 0.90013 0.97425 0.21342 0.0
O225 O 0.89793 0.95544 0.20691 0.0
Cd226 Cd 0.87258 0.93093 0.2206 0.0
O227 O 0.88857 0.98118 0.22808 0.0
Cd228 Cd 0.85971 0.96823 0.25062 0.0
C229 C 0.88846 0.92988 0.27191 0.0
O230 O 0.84071 0.94978 0.22348 0.0
O231 O 0.83099 0.94172 0.25486 0.0
O232 O 0.84127 0.00143 0.24923 0.0
C233 C 0.82796 0.93995 0.23524 0.0
O234 O 0.88573 0.91973 0.25482 0.0
C235 C 0.84223 0.00484 0.26886 0.0
O236 O 0.88196 0.94856 0.2739 0.0
O237 O 0.85145 -0.00872 0.27997 0.0
C238 C 0.19743 0.59209 0.50825 0.0
O239 O 0.20654 0.60014 0.52423 0.0
Cd240 Cd 0.23333 0.62699 0.5239 0.0
O241 O 0.20155 0.59873 0.48981 0.0
Cd242 Cd 0.2235 0.62634 0.47283 0.0
C243 C 0.26777 0.60288 0.4904 0.0
O244 O 0.22005 0.65207 0.50005 0.0
O245 O 0.24306 0.65989 0.47654 0.0
O246 O 0.19485 0.63495 0.44964 0.0
C247 C 0.23367 0.66506 0.49324 0.0
O248 O 0.2637 0.60931 0.50889 0.0
C249 C 0.20517 0.63307 0.43272 0.0
O250 O 0.25532 0.60628 0.47514 0.0
O251 O 0.22407 0.6272 0.43437 0.0
C252 C 0.39948 0.46724 0.69258 0.0
O253 O 0.40256 0.44802 0.68831 0.0
Cd254 Cd 0.38471 0.41946 0.70551 0.0
O255 O 0.38601 0.47249 0.70629 0.0
Cd256 Cd 0.35952 0.45559 0.72925 0.0
C257 C 0.39603 0.42957 0.75729 0.0
O258 O 0.34903 0.42991 0.70312 0.0
O259 O 0.33321 0.42662 0.73283 0.0
O260 O 0.33708 0.48557 0.72251 0.0
C261 C 0.33532 0.4204 0.71404 0.0
O262 O 0.39856 0.41774 0.74136 0.0
C263 C 0.33431 0.48984 0.74179 0.0
O264 O 0.38346 0.4448 0.75656 0.0
O265 O 0.34324 0.47814 0.75507 0.0
C266 C 0.64806 0.01875 0.71234 0.0
O267 O 0.63913 0.00599 0.69959 0.0
Cd268 Cd 0.6098 0.98332 0.70851 0.0
O269 O 0.64136 0.02066 0.73106 0.0
Cd270 Cd 0.61313 0.00691 0.75375 0.0
C271 C 0.63105 0.95716 0.7501 0.0
O272 O 0.58575 0.00492 0.72715 0.0
O273 O 0.57841 -0.00901 0.75713 0.0
O274 O 0.61093 0.04207 0.76835 0.0
C275 C 0.57248 -0.0046 0.7387 0.0
O276 O 0.62437 0.95618 0.73124 0.0
C277 C 0.61079 0.03615 0.78738 0.0
O278 O 0.62982 0.97401 0.76083 0.0
O279 O 0.61257 0.01659 0.79076 0.0
C280 C 0.80862 0.60149 -0.0017 0.0
O281 O 0.81265 0.5993 0.97891 0.0
Cd282 Cd 0.78824 0.60919 0.95189 0.0
O283 O 0.79089 0.60816 0.00426 0.0
Cd284 Cd 0.75755 0.61932 -0.01098 0.0
C285 C 0.7482 0.57447 0.96149 0.0
O286 O 0.7735 0.64201 0.96274 0.0
O287 O 0.73967 0.63866 0.9613 0.0
O288 O 0.75355 0.64312 0.01865 0.0
C289 C 0.7563 0.64769 0.95469 0.0
O290 O 0.76222 0.58062 0.94855 0.0
C291 C 0.73558 0.63597 0.024 0.0
O292 O 0.74463 0.58494 0.97808 0.0
O293 O 0.72798 0.6208 0.01322 0.0
C294 C 0.9048 0.46897 0.73307 0.0
O295 O 0.90179 0.4559 0.74786 0.0
Cd296 Cd 0.87608 0.45966 0.77465 0.0
O297 O 0.89413 0.48567 0.73198 0.0
Cd298 Cd 0.86561 0.50205 0.75214 0.0
C299 C 0.89265 0.50519 0.79797 0.0
O300 O 0.84558 0.46942 0.7547 0.0
O301 O 0.83273 0.49564 0.77153 0.0
O302 O 0.85417 0.51674 0.7189 0.0
C303 C 0.8305 0.47688 0.76501 0.0
O304 O 0.89075 0.48532 0.79976 0.0
C305 C 0.85183 0.53522 0.726 0.0
O306 O 0.88568 0.51455 0.7819 0.0
O307 O 0.85645 0.53832 0.74517 0.0
C308 C 0.78179 0.35072 0.53414 0.0
O309 O 0.79281 0.35648 0.51851 0.0
Cd310 Cd 0.77969 0.37503 0.48898 0.0
O311 O 0.76232 0.35489 0.53518 0.0
Cd312 Cd 0.73676 0.37476 0.51408 0.0
C313 C 0.73992 0.34197 0.47243 0.0
O314 O 0.76117 0.40265 0.50578 0.0
O315 O 0.7324 0.40363 0.48815 0.0
O316 O 0.72194 0.38796 0.54634 0.0
C317 C 0.74979 0.41244 0.49303 0.0
O318 O 0.75757 0.35063 0.46799 0.0
C319 C 0.70301 0.38313 0.54184 0.0
O320 O 0.73009 0.34708 0.48896 0.0
O321 O 0.69974 0.37376 0.52447 0.0
C322 C 0.62198 0.43552 0.24515 0.0
O323 O 0.62242 0.43452 0.26506 0.0
Cd324 Cd 0.60906 0.46272 0.28625 0.0
O325 O 0.61572 0.45197 0.23591 0.0
Cd326 Cd 0.60238 0.48699 0.2434 0.0
C327 C 0.64305 0.50292 0.27443 0.0
O328 O 0.57729 0.47325 0.26863 0.0
O329 O 0.57678 0.50681 0.2636 0.0
O330 O 0.58699 0.48302 0.20851 0.0
C331 C 0.56885 0.49073 0.27246 0.0
O332 O 0.63661 0.49008 0.28841 0.0
C333 C 0.59169 0.50161 0.20272 0.0
O334 O 0.63398 0.50378 0.25668 0.0
O335 O 0.60141 0.51329 0.21587 0.0
Sc336 Sc 0.10035 0.13314 0.12256 0.0
Sc337 Sc 0.13044 0.09195 0.14273 0.0
Sc338 Sc 0.14032 0.11111 0.09205 0.0
O339 O 0.12365 0.11207 0.1191 0.0
C340 C 0.0944 0.11808 0.07477 0.0
C341 C 0.0802 0.09277 0.14408 0.0
C342 C 0.1346 0.0623 0.10315 0.0
C343 C 0.12251 0.13405 0.16784 0.0
C344 C 0.13461 0.16058 0.09883 0.0
C345 C 0.17609 0.10553 0.12589 0.0
O346 O 0.08838 0.12775 0.09116 0.0
O347 O 0.09781 0.08525 0.14933 0.0
O348 O 0.14017 0.07721 0.091 0.0
O349 O 0.10984 0.14117 0.15422 0.0
O350 O 0.14263 0.14483 0.08976 0.0
O351 O 0.16394 0.09642 0.13901 0.0
O352 O 0.11974 0.15889 0.11199 0.0
O353 O 0.13191 0.11678 0.16555 0.0
O354 O 0.16973 0.11256 0.10842 0.0
O355 O 0.07855 0.10956 0.13351 0.0
O356 O 0.11242 0.11001 0.07318 0.0
O357 O 0.12952 0.06516 0.12218 0.0
Sc358 Sc 0.14515 0.84598 0.38009 0.0
Sc359 Sc 0.09668 0.82486 0.36211 0.0
Sc360 Sc 0.11087 0.87726 0.35066 0.0
O361 O 0.1176 0.84936 0.36424 0.0
C362 C 0.13295 0.8929 0.39273 0.0
C363 C 0.1121 0.82285 0.4099 0.0
C364 C 0.06589 0.86322 0.36829 0.0
C365 C 0.13992 0.8012 0.35746 0.0
C366 C 0.15993 0.8729 0.34088 0.0
C367 C 0.09418 0.84459 0.31618 0.0
O368 O 0.14356 0.87634 0.39495 0.0
O369 O 0.09932 0.81811 0.39514 0.0
O370 O 0.07902 0.877 0.36175 0.0
O371 O 0.15065 0.81517 0.36726 0.0
O372 O 0.14197 0.8808 0.33795 0.0
O373 O 0.09164 0.82948 0.32904 0.0
O374 O 0.16355 0.85933 0.355 0.0
O375 O 0.12039 0.80277 0.35397 0.0
O376 O 0.10128 0.86261 0.32165 0.0
O377 O 0.12922 0.83302 0.4069 0.0
O378 O 0.11968 0.89514 0.37802 0.0
O379 O 0.07017 0.84385 0.36957 0.0
Sc380 Sc 0.36253 0.85588 0.63555 0.0
Sc381 Sc 0.32589 0.88157 0.6036 0.0
Sc382 Sc 0.33671 0.90069 0.65439 0.0
O383 O 0.34175 0.87936 0.63118 0.0
C384 C 0.34205 0.85872 0.6809 0.0
C385 C 0.32489 0.83221 0.61178 0.0
C386 C 0.29057 0.89135 0.63748 0.0
C387 C 0.37118 0.86793 0.58782 0.0
C388 C 0.38619 0.89593 0.65586 0.0
C389 C 0.33588 0.9296 0.6136 0.0
O390 O 0.3508 0.84863 0.66621 0.0
O391 O 0.31766 0.84886 0.60383 0.0
O392 O 0.30332 0.89651 0.65208 0.0
O393 O 0.37669 0.86026 0.60532 0.0
O394 O 0.36965 0.90647 0.65845 0.0
O395 O 0.33259 0.91463 0.60069 0.0
O396 O 0.38607 0.8773 0.64843 0.0
O397 O 0.35337 0.87614 0.58487 0.0
O398 O 0.3367 0.92687 0.63329 0.0
O399 O 0.3413 0.83196 0.62319 0.0
O400 O 0.33661 0.87772 0.6791 0.0
O401 O 0.29636 0.8865 0.61905 0.0
Sc402 Sc 0.38541 0.1022 0.84561 0.0
Sc403 Sc 0.39821 0.15355 0.8631 0.0
Sc404 Sc 0.35752 0.1245 0.88737 0.0
O405 O 0.38041 0.12673 0.86539 0.0
C406 C 0.33523 0.10174 0.84881 0.0
C407 C 0.38946 0.14145 0.81509 0.0
C408 C 0.35345 0.17223 0.87257 0.0
C409 C 0.4323 0.11875 0.85557 0.0
C410 C 0.37648 0.07816 0.88798 0.0
C411 C 0.39409 0.1477 0.91285 0.0
O412 O 0.35241 0.09596 0.84069 0.0
O413 O 0.39577 0.15416 0.82933 0.0
O414 O 0.34677 0.15593 0.88215 0.0
O415 O 0.41911 0.1052 0.84847 0.0
O416 O 0.36542 0.09284 0.89538 0.0
O417 O 0.40241 0.15609 0.89668 0.0
O418 O 0.38589 0.07944 0.87045 0.0
O419 O 0.42702 0.13678 0.86202 0.0
O420 O 0.37828 0.13521 0.91189 0.0
O421 O 0.38459 0.12233 0.81864 0.0
O422 O 0.33445 0.11334 0.86506 0.0
O423 O 0.37141 0.1734 0.864 0.0
Sc424 Sc 0.63545 0.34507 0.8851 0.0
Sc425 Sc 0.58419 0.32937 0.86983 0.0
Sc426 Sc 0.60553 0.37778 0.85254 0.0
O427 O 0.60839 0.35076 0.86917 0.0
C428 C 0.63061 0.39422 0.89302 0.0
C429 C 0.60051 0.32892 0.91724 0.0
C430 C 0.55998 0.37278 0.87277 0.0
C431 C 0.62373 0.29976 0.86615 0.0
C432 C 0.65278 0.36547 0.84273 0.0
C433 C 0.58297 0.34425 0.82219 0.0
O434 O 0.63753 0.3763 0.898 0.0
O435 O 0.58649 0.32553 0.90331 0.0
O436 O 0.57497 0.38385 0.86519 0.0
O437 O 0.63674 0.3131 0.87391 0.0
O438 O 0.63577 0.37456 0.83815 0.0
O439 O 0.57933 0.33086 0.83655 0.0
O440 O 0.65504 0.35435 0.85911 0.0
O441 O 0.60433 0.3034 0.86389 0.0
O442 O 0.59199 0.36193 0.82567 0.0
O443 O 0.61885 0.33589 0.91304 0.0
O444 O 0.6189 0.39706 0.87714 0.0
O445 O 0.56098 0.35298 0.87518 0.0
Sc446 Sc 0.86384 0.35822 0.12791 0.0
Sc447 Sc 0.83984 0.4008 0.15282 0.0
Sc448 Sc 0.82536 0.38677 0.1014 0.0
O449 O 0.84305 0.38189 0.12735 0.0
C450 C 0.86975 0.37517 0.08152 0.0
C451 C 0.88893 0.39638 0.15039 0.0
C452 C 0.83612 0.4335 0.11513 0.0
C453 C 0.84717 0.35617 0.17438 0.0
C454 C 0.82469 0.33703 0.10388 0.0
C455 C 0.79275 0.3924 0.13903 0.0
O456 O 0.87677 0.36681 0.09813 0.0
O457 O 0.87286 0.40738 0.1539 0.0
O458 O 0.83306 0.41965 0.10102 0.0
O459 O 0.85301 0.34708 0.15769 0.0
O460 O 0.81626 0.35433 0.09929 0.0
O461 O 0.8066 0.39508 0.15326 0.0
O462 O 0.8423 0.33586 0.11327 0.0
O463 O 0.84317 0.37565 0.17517 0.0
O464 O 0.79721 0.39111 0.11961 0.0
O465 O 0.8879 0.37792 0.14255 0.0
O466 O 0.8513 0.38238 0.08015 0.0
O467 O 0.83692 0.42908 0.13454 0.0
Sc468 Sc 0.87731 0.59607 0.34245 0.0
Sc469 Sc 0.89987 0.64417 0.35974 0.0
Sc470 Sc 0.84881 0.62953 0.37548 0.0
O471 O 0.87535 0.62323 0.35927 0.0
C472 C 0.82954 0.60884 0.33437 0.0
C473 C 0.89758 0.62989 0.31161 0.0
C474 C 0.86139 0.67522 0.35836 0.0
C475 C 0.92406 0.60107 0.36058 0.0
C476 C 0.85382 0.58005 0.38315 0.0
C477 C 0.88453 0.64472 0.40743 0.0
O478 O 0.84564 0.5979 0.33081 0.0
O479 O 0.90376 0.64225 0.32622 0.0
O480 O 0.84835 0.66195 0.36599 0.0
O481 O 0.90934 0.59047 0.35178 0.0
O482 O 0.84591 0.59786 0.38695 0.0
O483 O 0.89817 0.64818 0.39322 0.0
O484 O 0.86665 0.57694 0.36824 0.0
O485 O 0.92257 0.6204 0.36509 0.0
O486 O 0.86613 0.6376 0.40349 0.0
O487 O 0.88746 0.6128 0.31497 0.0
O488 O 0.82871 0.62213 0.34925 0.0
O489 O 0.88042 0.67088 0.35474 0.0
Sc490 Sc 0.86701 0.86427 0.88754 0.0
Sc491 Sc 0.82312 0.89337 0.90307 0.0
Sc492 Sc 0.85031 0.90632 0.85647 0.0
O493 O 0.84679 0.88797 0.88236 0.0
C494 C 0.89735 0.90158 0.87278 0.0
C495 C 0.86024 0.88178 0.93385 0.0
C496 C 0.83985 0.93949 0.89226 0.0
C497 C 0.82234 0.84345 0.89864 0.0
C498 C 0.86119 0.86142 0.83798 0.0
C499 C 0.8009 0.89981 0.85864 0.0
O500 O 0.8939 0.8847 0.88294 0.0
O501 O 0.8427 0.89026 0.93053 0.0
O502 O 0.84632 0.93498 0.87399 0.0
O503 O 0.84145 0.84226 0.89294 0.0
O504 O 0.85465 0.88 0.83595 0.0
O505 O 0.80022 0.8972 0.8784 0.0
O506 O 0.86691 0.85385 0.85544 0.0
O507 O 0.81373 0.86072 0.90334 0.0
O508 O 0.81779 0.9033 0.84865 0.0
O509 O 0.8702 0.87176 0.92002 0.0
O510 O 0.88344 0.91059 0.86184 0.0
O511 O 0.83118 0.92621 0.9045 0.0
Sc512 Sc 0.86453 0.12928 0.60238 0.0
Sc513 Sc 0.91281 0.14803 0.62305 0.0
Sc514 Sc 0.88999 0.10088 0.6419 0.0
O515 O 0.8891 0.12609 0.62248 0.0
C516 C 0.84089 0.11088 0.64211 0.0
C517 C 0.87258 0.17659 0.61727 0.0
C518 C 0.90438 0.13877 0.67162 0.0
C519 C 0.9039 0.14267 0.57414 0.0
C520 C 0.87422 0.08026 0.59921 0.0
C521 C 0.93855 0.1065 0.63 0.0
O522 O 0.84126 0.12237 0.62585 0.0
O523 O 0.89159 0.17392 0.62252 0.0
O524 O 0.89532 0.12093 0.66889 0.0
O525 O 0.88503 0.13618 0.57642 0.0
O526 O 0.88462 0.07919 0.61625 0.0
O527 O 0.93722 0.12531 0.62368 0.0
O528 O 0.86536 0.09689 0.59303 0.0
O529 O 0.91575 0.14783 0.58948 0.0
O530 O 0.92301 0.09624 0.63749 0.0
O531 O 0.86098 0.16195 0.6097 0.0
O532 O 0.85702 0.1017 0.649 0.0
O533 O 0.9121 0.14974 0.65672 0.0
Sc534 Sc 0.62585 0.09259 0.3485 0.0
Sc535 Sc 0.64505 0.11054 0.39738 0.0
Sc536 Sc 0.60172 0.135 0.37395 0.0
O537 O 0.62421 0.11275 0.37326 0.0
C538 C 0.61366 0.1351 0.32538 0.0
C539 C 0.67413 0.1027 0.3573 0.0
C540 C 0.64234 0.1601 0.39084 0.0
C541 C 0.63519 0.06241 0.38736 0.0
C542 C 0.57656 0.09452 0.35678 0.0
C543 C 0.60305 0.12101 0.42204 0.0
O544 O 0.62092 0.11665 0.32534 0.0
O545 O 0.67136 0.10682 0.37663 0.0
O546 O 0.62423 0.15947 0.38233 0.0
O547 O 0.63058 0.06567 0.36824 0.0
O548 O 0.57714 0.11265 0.36533 0.0
O549 O 0.62152 0.11393 0.42119 0.0
O550 O 0.59283 0.0854 0.35008 0.0
O551 O 0.64027 0.07713 0.40003 0.0
O552 O 0.59394 0.12899 0.40627 0.0
O553 O 0.6591 0.0979 0.34487 0.0
O554 O 0.60655 0.14378 0.34179 0.0
O555 O 0.65167 0.14378 0.39717 0.0
Sc556 Sc 0.63447 0.84634 0.08242 0.0
Sc557 Sc 0.58997 0.83067 0.11179 0.0
Sc558 Sc 0.61699 0.8778 0.1242 0.0
O559 O 0.61385 0.85159 0.10612 0.0
C560 C 0.66417 0.86267 0.11948 0.0
C561 C 0.62661 0.79972 0.09935 0.0
C562 C 0.60519 0.84216 0.15778 0.0
C563 C 0.58966 0.83508 0.06204 0.0
C564 C 0.62986 0.89614 0.07949 0.0
C565 C 0.56771 0.87477 0.11893 0.0
O566 O 0.66131 0.85197 0.10276 0.0
O567 O 0.60894 0.80333 0.10762 0.0
O568 O 0.61151 0.86063 0.15297 0.0
O569 O 0.60906 0.84026 0.06041 0.0
O570 O 0.62298 0.89818 0.09805 0.0
O571 O 0.56723 0.85489 0.11683 0.0
O572 O 0.63482 0.87847 0.07183 0.0
O573 O 0.58083 0.8309 0.07946 0.0
O574 O 0.58463 0.88541 0.12106 0.0
O575 O 0.63735 0.81371 0.08985 0.0
O576 O 0.64979 0.87287 0.12851 0.0
O577 O 0.59761 0.82913 0.14449 0.0
Sc578 Sc 0.36084 0.63027 0.10613 0.0
Sc579 Sc 0.41032 0.64807 0.12446 0.0
Sc580 Sc 0.3896 0.59909 0.14099 0.0
O581 O 0.38689 0.62579 0.12389 0.0
C582 C 0.34114 0.60878 0.14701 0.0
C583 C 0.36915 0.67589 0.12487 0.0
C584 C 0.40663 0.63501 0.17238 0.0
C585 C 0.39816 0.64657 0.07627 0.0
C586 C 0.36937 0.58189 0.09815 0.0
C587 C 0.43612 0.60571 0.12399 0.0
O588 O 0.33961 0.61952 0.13029 0.0
O589 O 0.38889 0.67384 0.12659 0.0
O590 O 0.39983 0.61637 0.16874 0.0
O591 O 0.37912 0.64095 0.07945 0.0
O592 O 0.37952 0.57915 0.11514 0.0
O593 O 0.43511 0.62555 0.12235 0.0
O594 O 0.36187 0.59944 0.09286 0.0
O595 O 0.41133 0.64953 0.09102 0.0
O596 O 0.42093 0.59421 0.1303 0.0
O597 O 0.35693 0.66137 0.11817 0.0
O598 O 0.35824 0.60078 0.15304 0.0
O599 O 0.41098 0.64811 0.15794 0.0
Sc600 Sc 0.11815 0.59311 0.839 0.0
Sc601 Sc 0.14973 0.60561 0.88301 0.0
Sc602 Sc 0.10952 0.63961 0.86755 0.0
O603 O 0.12585 0.61281 0.86315 0.0
C604 C 0.11244 0.63791 0.81766 0.0
C605 C 0.16831 0.59362 0.83822 0.0
C606 C 0.15592 0.65541 0.87829 0.0
C607 C 0.12857 0.56039 0.87495 0.0
C608 C 0.0733 0.60603 0.85638 0.0
C609 C 0.11587 0.62317 0.9146 0.0
O610 O 0.11542 0.61825 0.81671 0.0
O611 O 0.17061 0.59915 0.85733 0.0
O612 O 0.13759 0.65865 0.87122 0.0
O613 O 0.11933 0.56532 0.85806 0.0
O614 O 0.07953 0.62336 0.86452 0.0
O615 O 0.13104 0.61113 0.91056 0.0
O616 O 0.08539 0.59383 0.84651 0.0
O617 O 0.14032 0.57315 0.88516 0.0
O618 O 0.10733 0.63465 0.90081 0.0
O619 O 0.15043 0.59057 0.82962 0.0
O620 O 0.10999 0.64768 0.83486 0.0
O621 O 0.1621 0.63734 0.88374 0.0
Sc622 Sc 0.12262 0.34784 0.57589 0.0
Sc623 Sc 0.07909 0.33124 0.60632 0.0
Sc624 Sc 0.10972 0.37519 0.62196 0.0
O625 O 0.1038 0.35139 0.60136 0.0
C626 C 0.15525 0.35774 0.61307 0.0
C627 C 0.11383 0.30022 0.58925 0.0
C628 C 0.09595 0.33779 0.65272 0.0
C629 C 0.07684 0.33911 0.55693 0.0
C630 C 0.12074 0.39758 0.57841 0.0
C631 C 0.06027 0.37617 0.61788 0.0
O632 O 0.15097 0.35097 0.59466 0.0
O633 O 0.09711 0.30359 0.59946 0.0
O634 O 0.1035 0.35607 0.6492 0.0
O635 O 0.09618 0.34414 0.55496 0.0
O636 O 0.11668 0.3979 0.5979 0.0
O637 O 0.05816 0.35657 0.61402 0.0
O638 O 0.12297 0.38064 0.56821 0.0
O639 O 0.06855 0.33402 0.57438 0.0
O640 O 0.07799 0.38532 0.62051 0.0
O641 O 0.12434 0.31464 0.58009 0.0
O642 O 0.14189 0.36664 0.62472 0.0
O643 O 0.08731 0.32643 0.6386 0.0
Sc644 Sc 0.59936 0.63226 0.61746 0.0
Sc645 Sc 0.61906 0.58987 0.64637 0.0
Sc646 Sc 0.6387 0.60056 0.59578 0.0
O647 O 0.61899 0.60754 0.61982 0.0
C648 C 0.5975 0.61314 0.57094 0.0
C649 C 0.5702 0.59762 0.63939 0.0
C650 C 0.62347 0.55494 0.61083 0.0
C651 C 0.61448 0.63578 0.66521 0.0
C652 C 0.64131 0.65079 0.59706 0.0
C653 C 0.66786 0.59411 0.63572 0.0
O654 O 0.59035 0.62434 0.58577 0.0
O655 O 0.58544 0.58774 0.64731 0.0
O656 O 0.63129 0.56745 0.59728 0.0
O657 O 0.60657 0.64356 0.6487 0.0
O658 O 0.64833 0.63297 0.59175 0.0
O659 O 0.65276 0.59078 0.64836 0.0
O660 O 0.62399 0.65294 0.6066 0.0
O661 O 0.61962 0.61669 0.66663 0.0
O662 O 0.66525 0.59744 0.61626 0.0
O663 O 0.57263 0.61385 0.62796 0.0
O664 O 0.61454 0.60321 0.57243 0.0
O665 O 0.61833 0.56074 0.62917 0.0
Sc666 Sc 0.3342 0.37727 0.39855 0.0
Sc667 Sc 0.33188 0.41063 0.35437 0.0
Sc668 Sc 0.36784 0.3692 0.35588 0.0
O669 O 0.34462 0.38573 0.36958 0.0
C670 C 0.38319 0.37036 0.4036 0.0
C671 C 0.33522 0.42734 0.40153 0.0
C672 C 0.38087 0.41645 0.34491 0.0
C673 C 0.29172 0.38828 0.3752 0.0
C674 C 0.33937 0.33297 0.3756 0.0
C675 C 0.33769 0.37845 0.31695 0.0
O676 O 0.36532 0.37475 0.41104 0.0
O677 O 0.33432 0.43023 0.38181 0.0
O678 O 0.38535 0.39745 0.34884 0.0
O679 O 0.30184 0.37835 0.38906 0.0
O680 O 0.35194 0.33958 0.36152 0.0
O681 O 0.32806 0.39376 0.32502 0.0
O682 O 0.33271 0.34455 0.39034 0.0
O683 O 0.30031 0.40084 0.36216 0.0
O684 O 0.35252 0.36903 0.32601 0.0
O685 O 0.33472 0.40919 0.40983 0.0
O686 O 0.38624 0.36715 0.38417 0.0
O687 O 0.3622 0.42319 0.34527 0.0
H688 H 0.04436 0.17305 0.31285 0.0
H689 H 0.07533 0.16222 0.29406 0.0
H690 H 0.1091 0.21779 0.31567 0.0
H691 H 0.07753 0.22919 0.3341 0.0
H692 H 0.11132 0.2162 0.2758 0.0
H693 H 0.13092 0.13723 0.30149 0.0
H694 H 0.10306 0.13673 0.29785 0.0
H695 H 0.11478 0.15402 0.31742 0.0
C696 C 0.05851 0.18273 0.31412 0.0
C697 C 0.05841 0.20212 0.32469 0.0
C698 C 0.07642 0.17635 0.30358 0.0
C699 C 0.09477 0.189 0.30366 0.0
C700 C 0.09519 0.20769 0.3155 0.0
H701 H 0.1533 0.12878 0.19745 0.0
H702 H 0.15627 0.14601 0.23177 0.0
C703 C 0.07713 0.2142 0.32597 0.0
C704 C 0.11139 0.18456 0.2881 0.0
H705 H 0.13025 0.14221 0.26202 0.0
C706 C 0.1162 0.20016 0.27319 0.0
C707 C 0.11875 0.16396 0.2849 0.0
C708 C 0.11677 0.14718 0.3015 0.0
C709 C 0.12507 0.19491 0.25381 0.0
C710 C 0.12847 0.17351 0.24909 0.0
C711 C 0.12688 0.15855 0.26523 0.0
C712 C 0.1294 0.16582 0.22712 0.0
C713 C 0.12936 0.21218 0.23812 0.0
C714 C 0.11346 0.17136 0.21299 0.0
C715 C 0.1118 0.16169 0.19339 0.0
C716 C 0.12577 0.1459 0.18763 0.0
C717 C 0.14216 0.14079 0.2015 0.0
C718 C 0.14396 0.15068 0.22107 0.0
H719 H 0.13551 0.22654 0.24622 0.0
H720 H 0.14085 0.20737 0.22602 0.0
H721 H 0.11445 0.21641 0.23028 0.0
H722 H 0.10153 0.1824 0.21751 0.0
H723 H 0.09893 0.16592 0.18317 0.0
H724 H 0.03837 0.79108 0.59711 0.0
H725 H 0.0647 0.79691 0.56985 0.0
H726 H 0.02095 0.83449 0.53514 0.0
H727 H -0.00534 0.82913 0.56257 0.0
H728 H 0.05868 0.78233 0.53077 0.0
H729 H 0.07505 0.86801 0.52764 0.0
H730 H 0.06242 0.85556 0.54987 0.0
H731 H 0.04739 0.86207 0.52687 0.0
C732 C 0.03452 0.80103 0.58392 0.0
C733 C 0.01438 0.8095 0.58187 0.0
C734 C 0.0496 0.80436 0.56839 0.0
C735 C 0.04482 0.81621 0.55054 0.0
C736 C 0.02513 0.82566 0.549 0.0
H737 H 0.07671 0.80172 0.42315 0.0
H738 H 0.06375 0.79873 0.45899 0.0
C739 C 0.01007 0.82248 0.56464 0.0
C740 C 0.05917 0.81623 0.53233 0.0
H741 H 0.08266 0.84828 0.49614 0.0
C742 C 0.06426 0.79676 0.52342 0.0
C743 C 0.06664 0.83503 0.5229 0.0
C744 C 0.06278 0.85633 0.53246 0.0
C745 C 0.07566 0.79559 0.5047 0.0
C746 C 0.08177 0.8144 0.49447 0.0
C747 C 0.07773 0.83387 0.50395 0.0
C748 C 0.09085 0.81429 0.47316 0.0
C749 C 0.08071 0.77425 0.49586 0.0
C750 C 0.1104 0.82401 0.46929 0.0
C751 C 0.11787 0.82583 0.44877 0.0
C752 C 0.10576 0.81815 0.43175 0.0
C753 C 0.08649 0.80776 0.43584 0.0
C754 C 0.07908 0.80594 0.45634 0.0
H755 H 0.08105 0.76212 0.50838 0.0
H756 H 0.06837 0.76945 0.48437 0.0
H757 H 0.0961 0.77456 0.48768 0.0
H758 H 0.11965 0.83061 0.48211 0.0
H759 H 0.13275 0.83396 0.44622 0.0
H760 H 0.47197 0.79835 0.80846 0.0
H761 H 0.44359 0.8193 0.79394 0.0
H762 H 0.40993 0.76233 0.77617 0.0
H763 H 0.43781 0.74136 0.79143 0.0
H764 H 0.42898 0.82226 0.75598 0.0
H765 H 0.36427 0.79253 0.80591 0.0
H766 H 0.39146 0.78719 0.81151 0.0
H767 H 0.37684 0.77118 0.79292 0.0
C768 C 0.45858 0.79033 0.8013 0.0
C769 C 0.45698 0.76826 0.80108 0.0
C770 C 0.44231 0.80229 0.79322 0.0
C771 C 0.42433 0.79235 0.78466 0.0
C772 C 0.42325 0.77032 0.7835 0.0
H773 H 0.34199 0.81701 0.69056 0.0
H774 H 0.35689 0.80251 0.72259 0.0
C775 C 0.43932 0.75836 0.79188 0.0
C776 C 0.40729 0.80495 0.77561 0.0
H777 H 0.35385 0.80824 0.77269 0.0
C778 C 0.4126 0.8196 0.76002 0.0
C779 C 0.38592 0.8016 0.78108 0.0
C780 C 0.37933 0.78743 0.79896 0.0
C781 C 0.39706 0.82987 0.74867 0.0
C782 C 0.37568 0.82532 0.75308 0.0
C783 C 0.3703 0.81158 0.76941 0.0
C784 C 0.35928 0.83248 0.73865 0.0
C785 C 0.40356 0.84459 0.73115 0.0
C786 C 0.35415 0.85379 0.73797 0.0
C787 C 0.34553 0.86213 0.71969 0.0
C788 C 0.34234 0.8492 0.70195 0.0
C789 C 0.34463 0.82736 0.7039 0.0
C790 C 0.35304 0.81903 0.72222 0.0
H791 H 0.42087 0.84541 0.729 0.0
H792 H 0.39619 0.83942 0.71613 0.0
H793 H 0.39803 0.86067 0.73465 0.0
H794 H 0.35889 0.86431 0.75061 0.0
H795 H 0.3438 0.87901 0.71869 0.0
H796 H 0.4213 0.2602 0.06996 0.0
H797 H 0.41244 0.2369 0.04059 0.0
H798 H 0.45014 0.18826 0.06769 0.0
H799 H 0.45945 0.2116 0.09697 0.0
H800 H 0.45911 0.19461 0.02664 0.0
H801 H 0.37311 0.18619 0.0369 0.0
H802 H 0.38149 0.21329 0.03638 0.0
H803 H 0.3902 0.19653 0.05729 0.0
C804 C 0.4275 0.24446 0.06984 0.0
C805 C 0.44109 0.23777 0.0858 0.0
C806 C 0.42231 0.23111 0.0531 0.0
C807 C 0.43038 0.21076 0.05215 0.0
C808 C 0.44366 0.20388 0.06822 0.0
H809 H 0.38492 0.12912 0.95051 0.0
H810 H 0.39581 0.14104 0.98544 0.0
C811 C 0.44895 0.21725 0.08493 0.0
C812 C 0.42614 0.19729 0.03359 0.0
H813 H 0.38645 0.17814 0.00252 0.0
C814 C 0.44323 0.19071 0.02151 0.0
C815 C 0.40545 0.19187 0.02715 0.0
C816 C 0.38654 0.19715 0.04025 0.0
C817 C 0.44014 0.17982 0.00255 0.0
C818 C 0.41941 0.17586 -0.00469 0.0
C819 C 0.40235 0.18143 0.00795 0.0
C820 C 0.41493 0.16715 0.97417 0.0
C821 C 0.45909 0.17282 -0.0096 0.0
C822 C 0.42228 0.17775 0.95625 0.0
C823 C 0.4162 0.17092 0.93625 0.0
C824 C 0.40238 0.15355 0.93383 0.0
C825 C 0.39549 0.14263 0.95181 0.0
C826 C 0.40171 0.14939 0.9718 0.0
H827 H 0.47277 0.17049 0.00095 0.0
H828 H 0.45576 0.15794 0.98172 0.0
H829 H 0.46358 0.18517 0.97888 0.0
H830 H 0.43207 0.1918 0.95774 0.0
H831 H 0.42169 0.17977 0.92276 0.0
H832 H -0.00978 0.82053 0.1429 0.0
H833 H 0.00878 0.83852 0.17169 0.0
H834 H 0.05494 0.78976 0.17233 0.0
H835 H 0.03688 0.77197 0.14341 0.0
H836 H 0.0134 0.82189 0.20991 0.0
H837 H 0.09202 0.84161 0.17827 0.0
H838 H 0.06996 0.83469 0.16154 0.0
H839 H 0.08526 0.81447 0.17364 0.0
C840 C 0.00454 0.81384 0.14892 0.0
C841 C 0.012 0.79474 0.14094 0.0
C842 C 0.01515 0.82418 0.16532 0.0
C843 C 0.0334 0.81564 0.17392 0.0
C844 C 0.04121 0.79694 0.16556 0.0
H845 H 0.07684 0.80902 0.2985 0.0
H846 H 0.06253 0.80493 0.26314 0.0
C847 C 0.0307 0.78666 0.14915 0.0
C848 C 0.04281 0.82458 0.19331 0.0
H849 H 0.08982 0.83774 0.2162 0.0
C850 C 0.03003 0.82579 0.21118 0.0
C851 C 0.06444 0.8299 0.1949 0.0
C852 C 0.07864 0.83032 0.17598 0.0
C853 C 0.03857 0.83085 0.23086 0.0
C854 C 0.06048 0.83439 0.23273 0.0
C855 C 0.07307 0.83459 0.2147 0.0
C856 C 0.07059 0.83666 0.25347 0.0
C857 C 0.02416 0.83184 0.24961 0.0
C858 C 0.08056 0.85562 0.25935 0.0
C859 C 0.08884 0.85804 0.27958 0.0
C860 C 0.08735 0.84145 0.29415 0.0
C861 C 0.07813 0.82218 0.28778 0.0
C862 C 0.06985 0.81982 0.26761 0.0
H863 H 0.00764 0.83455 0.24481 0.0
H864 H 0.02457 0.81666 0.25814 0.0
H865 H 0.02925 0.84454 0.26062 0.0
H866 H 0.08139 0.86872 0.24852 0.0
H867 H 0.09594 0.87306 0.28391 0.0
H868 H 0.45525 0.76235 0.45003 0.0
H869 H 0.43769 0.7831 0.47692 0.0
H870 H 0.46373 0.84016 0.45021 0.0
H871 H 0.48166 0.81953 0.42348 0.0
H872 H 0.46762 0.83886 0.49325 0.0
H873 H 0.38604 0.81911 0.46863 0.0
H874 H 0.40142 0.79621 0.47313 0.0
H875 H 0.40847 0.81398 0.45224 0.0
C876 C 0.45719 0.77931 0.44985 0.0
C877 C 0.46973 0.78933 0.43462 0.0
C878 C 0.44706 0.79115 0.46513 0.0
C879 C 0.44914 0.81316 0.46527 0.0
C880 C 0.46185 0.82319 0.45024 0.0
H881 H 0.36596 0.88261 0.54773 0.0
H882 H 0.38668 0.87371 0.51682 0.0
C883 C 0.47205 0.81137 0.43501 0.0
C884 C 0.43844 0.82565 0.48147 0.0
H885 H 0.39037 0.8341 0.50294 0.0
C886 C 0.45071 0.83806 0.49525 0.0
C887 C 0.41636 0.82493 0.48371 0.0
C888 C 0.40228 0.81302 0.4685 0.0
C889 C 0.44151 0.84896 0.51193 0.0
C890 C 0.41957 0.84702 0.51504 0.0
C891 C 0.40723 0.83545 0.50062 0.0
C892 C 0.4092 0.85532 0.53398 0.0
C893 C 0.4554 0.86226 0.52613 0.0
C894 C 0.41527 0.84827 0.55389 0.0
C895 C 0.40356 0.85339 0.57158 0.0
C896 C 0.38534 0.86541 0.56964 0.0
C897 C 0.37984 0.87324 0.54978 0.0
C898 C 0.39166 0.86819 0.53209 0.0
H899 H 0.46969 0.86798 0.51775 0.0
H900 H 0.44692 0.87603 0.53235 0.0
H901 H 0.4606 0.8526 0.53959 0.0
H902 H 0.42846 0.83791 0.55565 0.0
H903 H 0.40827 0.84704 0.5866 0.0
H904 H 0.43505 0.19762 0.64155 0.0
H905 H 0.41788 0.17922 0.67013 0.0
H906 H 0.36575 0.22147 0.66663 0.0
H907 H 0.38353 0.24083 0.63838 0.0
H908 H 0.3785 0.22031 0.70431 0.0
H909 H 0.37231 0.13787 0.6796 0.0
H910 H 0.39887 0.14631 0.67505 0.0
H911 H 0.37772 0.15862 0.66097 0.0
C912 C 0.4197 0.20278 0.64644 0.0
C913 C 0.41077 0.22086 0.63781 0.0
C914 C 0.40972 0.192 0.66271 0.0
C915 C 0.3903 0.19866 0.67038 0.0
C916 C 0.38068 0.21595 0.66091 0.0
H917 H 0.36236 0.1268 0.7849 0.0
H918 H 0.35687 0.1412 0.74976 0.0
C919 C 0.39086 0.22701 0.64478 0.0
C920 C 0.38213 0.18965 0.69028 0.0
H921 H 0.38046 0.14355 0.71744 0.0
C922 C 0.37831 0.20348 0.70701 0.0
C923 C 0.38118 0.16769 0.69388 0.0
C924 C 0.3825 0.15186 0.67627 0.0
C925 C 0.37571 0.19604 0.72754 0.0
C926 C 0.3779 0.17431 0.73153 0.0
C927 C 0.37951 0.16031 0.71454 0.0
C928 C 0.38041 0.16606 0.75313 0.0
C929 C 0.3712 0.21167 0.74474 0.0
C930 C 0.39572 0.17499 0.76657 0.0
C931 C 0.39864 0.16702 0.78672 0.0
C932 C 0.38677 0.14954 0.79359 0.0
C933 C 0.37183 0.14023 0.77995 0.0
C934 C 0.36861 0.14849 0.75992 0.0
H935 H 0.36175 0.22483 0.73864 0.0
H936 H 0.3626 0.20421 0.75801 0.0
H937 H 0.38624 0.21855 0.7507 0.0
H938 H 0.40563 0.18801 0.76141 0.0
H939 H 0.41042 0.17435 0.79681 0.0
H940 H 0.05117 0.22185 0.93298 0.0
H941 H 0.06231 0.19339 0.95574 0.0
H942 H 0.01537 0.15188 0.92808 0.0
H943 H 0.00377 0.18051 0.90552 0.0
H944 H 0.01273 0.15166 0.96965 0.0
H945 H 0.09551 0.14095 0.94806 0.0
H946 H 0.09104 0.16828 0.95283 0.0
H947 H 0.07754 0.15502 0.93149 0.0
C948 C 0.0435 0.20656 0.93142 0.0
C949 C 0.02654 0.20344 0.91755 0.0
C950 C 0.04999 0.19023 0.94433 0.0
C951 C 0.03988 0.1704 0.94338 0.0
C952 C 0.02346 0.16701 0.92895 0.0
H953 H 0.09746 0.09349 0.03961 0.0
H954 H 0.08021 0.09906 0.00582 0.0
C955 C 0.01687 0.18339 0.9161 0.0
C956 C 0.0449 0.15427 0.95921 0.0
H957 H 0.08658 0.13329 0.98465 0.0
C958 C 0.02881 0.14715 0.97263 0.0
C959 C 0.06572 0.14785 0.96278 0.0
C960 C 0.08336 0.15325 0.94783 0.0
C961 C 0.03335 0.13552 -0.00931 0.0
C962 C 0.05454 0.13143 -0.00435 0.0
C963 C 0.07033 0.13674 0.98112 0.0
C964 C 0.06111 0.12459 0.01684 0.0
C965 C 0.01545 0.12839 0.00461 0.0
C966 C 0.05555 0.13658 0.03446 0.0
C967 C 0.0652 0.13331 0.05382 0.0
C968 C 0.08096 0.11829 0.05582 0.0
C969 C 0.08552 0.10535 0.03852 0.0
C970 C 0.07566 0.10847 0.0192 0.0
H971 H 0.00119 0.12462 -0.00489 0.0
H972 H 0.01956 0.11434 0.01396 0.0
H973 H 0.01144 0.14134 0.01551 0.0
H974 H 0.04481 0.14949 0.03296 0.0
H975 H 0.06138 0.14361 0.06679 0.0
H976 H 0.33369 0.03933 0.15972 0.0
H977 H 0.31279 0.06585 0.14305 0.0
H978 H 0.33508 0.11207 0.18815 0.0
H979 H 0.35541 0.08496 0.20573 0.0
H980 H 0.29603 0.11125 0.18973 0.0
H981 H 0.31201 0.11447 0.10586 0.0
H982 H 0.31029 0.08703 0.11172 0.0
H983 H 0.33069 0.10323 0.12383 0.0
C984 C 0.3347 0.05527 0.16576 0.0
C985 C 0.34582 0.05996 0.1843 0.0
C986 C 0.32293 0.07063 0.15595 0.0
C987 C 0.3224 0.09116 0.16415 0.0
C988 C 0.33522 0.09638 0.18149 0.0
H989 H 0.20493 0.13242 0.10784 0.0
H990 H 0.24198 0.13744 0.11743 0.0
C991 C 0.3468 0.08086 0.19156 0.0
C992 C 0.30506 0.10499 0.15764 0.0
H993 H 0.27313 0.11162 0.11528 0.0
C994 C 0.29144 0.1121 0.17335 0.0
C995 C 0.29911 0.10708 0.13633 0.0
C996 C 0.31403 0.10274 0.11857 0.0
C997 C 0.27096 0.11806 0.16847 0.0
C998 C 0.26379 0.11612 0.14752 0.0
C999 C 0.27833 0.11222 0.13151 0.0
C1000 C 0.24109 0.11456 0.14251 0.0
C1001 C 0.25684 0.12507 0.18604 0.0
C1002 C 0.22839 0.09977 0.15318 0.0
C1003 C 0.20728 0.09695 0.14787 0.0
C1004 C 0.1985 0.10853 0.13143 0.0
C1005 C 0.21127 0.12318 0.12054 0.0
C1006 C 0.2324 0.12616 0.12605 0.0
H1007 H 0.26597 0.13429 0.19792 0.0
H1008 H 0.2438 0.13481 0.18016 0.0
H1009 H 0.2501 0.11104 0.1941 0.0
H1010 H 0.23492 0.09001 0.16538 0.0
H1011 H 0.19796 0.08541 0.15641 0.0
H1012 H 0.24783 0.04629 0.42424 0.0
H1013 H 0.22469 0.01571 0.41801 0.0
H1014 H 0.18201 0.0378 0.46532 0.0
H1015 H 0.20514 0.06817 0.47196 0.0
H1016 H 0.18973 -0.00435 0.46899 0.0
H1017 H 0.16857 0.01578 0.38714 0.0
H1018 H 0.19644 0.0149 0.39121 0.0
H1019 H 0.18135 0.03436 0.40471 0.0
C1020 C 0.23349 0.04468 0.43327 0.0
C1021 C 0.22828 0.05971 0.44851 0.0
C1022 C 0.22025 0.02727 0.42963 0.0
C1023 C 0.2015 0.02474 0.44098 0.0
C1024 C 0.19637 0.03956 0.45634 0.0
H1025 H 0.112 0.93001 0.39554 0.0
H1026 H 0.12502 0.96273 0.41152 0.0
C1027 C 0.20962 0.05691 0.46007 0.0
C1028 C 0.18739 0.00643 0.43702 0.0
H1029 H 0.16062 0.98059 0.39808 0.0
C1030 C 0.18313 -0.00756 0.45356 0.0
C1031 C 0.17842 0.00259 0.41703 0.0
C1032 C 0.18123 0.01782 0.39906 0.0
C1033 C 0.17094 0.97408 0.45032 0.0
C1034 C 0.1632 0.96952 0.42995 0.0
C1035 C 0.16665 0.98404 0.41369 0.0
C1036 C 0.15308 0.94909 0.42449 0.0
C1037 C 0.1666 0.95973 0.46869 0.0
C1038 C 0.16416 0.93044 0.42717 0.0
C1039 C 0.15671 0.91169 0.41821 0.0
C1040 C 0.13821 0.91135 0.40607 0.0
C1041 C 0.1264 0.92976 0.40463 0.0
C1042 C 0.1338 0.94848 0.41376 0.0
H1043 H 0.16684 0.96864 0.48374 0.0
H1044 H 0.15116 0.95145 0.46705 0.0
H1045 H 0.17905 0.94779 0.46956 0.0
H1046 H 0.17929 0.93062 0.435 0.0
H1047 H 0.16622 0.89782 0.41962 0.0
H1048 H 0.12603 0.88292 0.74864 0.0
H1049 H 0.14443 0.86322 0.72134 0.0
H1050 H 0.15778 0.9213 0.68853 0.0
H1051 H 0.13834 0.9406 0.71468 0.0
H1052 H 0.15484 0.8901 0.66133 0.0
H1053 H 0.20621 0.86575 0.72793 0.0
H1054 H 0.17964 0.85587 0.72762 0.0
H1055 H 0.18494 0.88346 0.73202 0.0
C1056 C 0.1325 0.89132 0.73529 0.0
C1057 C 0.13126 0.91333 0.73401 0.0
C1058 C 0.14304 0.88008 0.71976 0.0
C1059 C 0.15315 0.89086 0.7033 0.0
C1060 C 0.15023 0.91258 0.70112 0.0
H1061 H 0.26989 0.91281 0.66758 0.0
H1062 H 0.23404 0.90652 0.67968 0.0
C1063 C 0.13922 0.92368 0.71621 0.0
C1064 C 0.16953 0.88096 0.69033 0.0
H1065 H 0.2206 0.86636 0.69476 0.0
C1066 C 0.16906 0.8843 0.66851 0.0
C1067 C 0.18802 0.87314 0.69974 0.0
C1068 C 0.1899 0.8694 0.72309 0.0
C1069 C 0.18736 0.88284 0.65639 0.0
C1070 C 0.20625 0.87723 0.66634 0.0
C1071 C 0.206 0.87098 0.68741 0.0
C1072 C 0.22695 0.88196 0.65695 0.0
C1073 C 0.1869 0.88933 0.63364 0.0
C1074 C 0.23453 0.87065 0.63974 0.0
C1075 C 0.25501 0.87449 0.63256 0.0
C1076 C 0.26813 0.88942 0.64277 0.0
C1077 C 0.26017 0.90115 0.65952 0.0
C1078 C 0.23973 0.89753 0.66645 0.0
H1079 H 0.17104 0.89429 0.62855 0.0
H1080 H 0.19825 0.90254 0.63097 0.0
H1081 H 0.19171 0.87596 0.62362 0.0
H1082 H 0.22494 0.85844 0.63237 0.0
H1083 H 0.26089 0.86508 0.61972 0.0
H1084 H 0.31865 0.91851 -0.00532 0.0
H1085 H 0.33825 0.94646 0.97683 0.0
H1086 H 0.29112 0.94749 0.92804 0.0
H1087 H 0.27103 0.9197 0.94615 0.0
H1088 H 0.35539 0.9489 0.93697 0.0
H1089 H 0.2934 0.00813 0.9491 0.0
H1090 H 0.29298 0.98306 0.96227 0.0
H1091 H 0.28489 0.98481 0.93527 0.0
C1092 C 0.31242 0.92465 0.98014 0.0
C1093 C 0.2932 0.91709 0.97189 0.0
C1094 C 0.3237 0.94055 0.96993 0.0
C1095 C 0.31601 0.94914 0.95128 0.0
C1096 C 0.29711 0.94125 0.94263 0.0
H1097 H 0.38022 0.03907 0.87078 0.0
H1098 H 0.3687 0.00594 0.88678 0.0
C1099 C 0.28569 0.9254 0.95295 0.0
C1100 C 0.32747 0.96696 0.94154 0.0
H1101 H 0.32328 0.01896 0.92995 0.0
C1102 C 0.34841 0.96425 0.93537 0.0
C1103 C 0.31834 0.98695 0.93979 0.0
C1104 C 0.29624 -0.00895 0.94711 0.0
C1105 C 0.36055 0.98112 0.92752 0.0
C1106 C 0.35132 0.00103 0.92559 0.0
C1107 C 0.33032 0.00365 0.93157 0.0
C1108 C 0.36283 0.01959 0.91733 0.0
C1109 C 0.38321 0.97763 0.92184 0.0
C1110 C 0.36397 0.03806 0.92942 0.0
C1111 C 0.37025 0.05703 0.92026 0.0
C1112 C 0.37558 0.05778 0.89889 0.0
C1113 C 0.37632 0.03893 0.88732 0.0
C1114 C 0.36978 0.01996 0.89645 0.0
H1115 H 0.38935 0.96324 0.92935 0.0
H1116 H 0.38448 0.97568 0.90457 0.0
H1117 H 0.39327 -0.00869 0.92657 0.0
H1118 H 0.35874 0.03804 0.94559 0.0
H1119 H 0.36969 0.0713 0.92957 0.0
H1120 H 0.30605 -0.00041 0.2787 0.0
H1121 H 0.2783 0.9787 0.29596 0.0
H1122 H 0.2752 0.93696 0.24243 0.0
H1123 H 0.30328 0.95727 0.22548 0.0
H1124 H 0.23837 0.96867 0.28543 0.0
H1125 H 0.28487 0.89615 0.28961 0.0
H1126 H 0.29637 0.92133 0.28262 0.0
H1127 H 0.28255 0.90564 0.26323 0.0
C1128 C 0.29932 0.98603 0.27061 0.0
C1129 C 0.30694 0.97985 0.2509 0.0
C1130 C 0.28355 0.9741 0.28048 0.0
C1131 C 0.27516 0.95596 0.27069 0.0
C1132 C 0.28198 0.95049 0.25053 0.0
H1133 H 0.15842 0.89275 0.30302 0.0
H1134 H 0.18704 0.91202 0.28567 0.0
C1135 C 0.29788 0.9622 0.24081 0.0
C1136 C 0.25922 0.94271 0.28146 0.0
H1137 H 0.24807 0.8922 0.29635 0.0
C1138 C 0.24052 0.95198 0.28796 0.0
C1139 C 0.26229 0.92103 0.28511 0.0
C1140 C 0.28271 0.9105 0.27998 0.0
C1141 C 0.22451 0.94001 0.29751 0.0
C1142 C 0.22707 0.91809 0.29998 0.0
C1143 C 0.24601 0.90894 0.29404 0.0
C1144 C 0.21039 0.90448 0.30911 0.0
C1145 C 0.20519 0.95107 0.30516 0.0
C1146 C 0.21442 0.89273 0.32723 0.0
C1147 C 0.19821 0.88131 0.33693 0.0
C1148 C 0.17771 0.88165 0.32871 0.0
C1149 C 0.17401 0.89245 0.30987 0.0
C1150 C 0.19028 0.9036 0.30004 0.0
H1151 H 0.20837 0.96813 0.30776 0.0
H1152 H 0.1926 0.94951 0.29313 0.0
H1153 H 0.1993 0.94409 0.32004 0.0
H1154 H 0.22991 0.89304 0.33433 0.0
H1155 H 0.20153 0.87316 0.35144 0.0
H1156 H 0.33241 0.07208 0.48972 0.0
H1157 H 0.34587 0.05069 0.51823 0.0
H1158 H 0.3113 0.08724 0.56309 0.0
H1159 H 0.29713 0.10836 0.53452 0.0
H1160 H 0.36587 0.0537 0.55761 0.0
H1161 H 0.28123 0.02983 0.56328 0.0
H1162 H 0.2911 0.04626 0.54239 0.0
H1163 H 0.28729 0.05711 0.56817 0.0
C1164 C 0.32809 0.07597 0.50569 0.0
C1165 C 0.3132 0.09143 0.50986 0.0
C1166 C 0.33591 0.0638 0.52199 0.0
C1167 C 0.3291 0.06709 0.54263 0.0
C1168 C 0.31633 0.08422 0.54715 0.0
H1169 H 0.33881 0.96632 0.63611 0.0
H1170 H 0.34062 0.00217 0.62226 0.0
C1171 C 0.30824 0.09622 0.53082 0.0
C1172 C 0.33211 0.05032 0.55822 0.0
H1173 H 0.30524 0.01008 0.58206 0.0
C1174 C 0.35263 0.04441 0.56338 0.0
C1175 C 0.31473 0.03808 0.56541 0.0
C1176 C 0.29235 0.04296 0.55946 0.0
C1177 C 0.35621 0.02601 0.57485 0.0
C1178 C 0.33886 0.01352 0.58124 0.0
C1179 C 0.3184 0.01997 0.57712 0.0
C1180 C 0.34133 -0.00767 0.58978 0.0
C1181 C 0.37837 0.01937 0.57924 0.0
C1182 C 0.34119 0.97517 0.57594 0.0
C1183 C 0.33987 0.95472 0.58369 0.0
C1184 C 0.33864 0.95117 0.60543 0.0
C1185 C 0.33962 0.9685 0.61927 0.0
C1186 C 0.34081 0.98897 0.61146 0.0
H1187 H 0.39013 0.0318 0.57505 0.0
H1188 H 0.38015 0.01543 0.59612 0.0
H1189 H 0.38171 0.00496 0.57004 0.0
H1190 H 0.34132 0.97764 0.55911 0.0
H1191 H 0.33934 0.94176 0.57261 0.0
H1192 H 0.18378 0.97289 0.8183 0.0
H1193 H 0.21451 -0.00478 0.82661 0.0
H1194 H 0.18893 0.04527 0.78942 0.0
H1195 H 0.15864 0.02296 0.78053 0.0
H1196 H 0.22944 0.04043 0.7812 0.0
H1197 H 0.2177 0.04385 0.86732 0.0
H1198 H 0.21943 0.01742 0.85762 0.0
H1199 H 0.19787 0.03347 0.84961 0.0
C1200 C 0.18471 0.98867 0.81195 0.0
C1201 C 0.16878 -0.00384 0.79879 0.0
C1202 C 0.20219 0.00145 0.81681 0.0
C1203 C 0.20379 0.02203 0.80893 0.0
C1204 C 0.18796 0.02946 0.79572 0.0
H1205 H 0.2951 0.1137 0.85772 0.0
H1206 H 0.26236 0.09645 0.8462 0.0
C1207 C 0.17066 0.01666 0.79066 0.0
C1208 C 0.22219 0.03574 0.81392 0.0
H1209 H 0.25066 0.05682 0.85452 0.0
C1210 C 0.234 0.04414 0.79723 0.0
C1211 C 0.22784 0.04092 0.83482 0.0
C1212 C 0.21492 0.03363 0.85336 0.0
C1213 C 0.25166 0.05717 0.80089 0.0
C1214 C 0.25799 0.06138 0.82181 0.0
C1215 C 0.24586 0.05343 0.83849 0.0
C1216 C 0.27758 0.07325 0.82686 0.0
C1217 C 0.2632 0.06643 0.78231 0.0
C1218 C 0.29694 0.06609 0.81957 0.0
C1219 C 0.31563 0.07603 0.82591 0.0
C1220 C 0.31534 0.0931 0.84001 0.0
C1221 C 0.29588 0.10057 0.84689 0.0
C1222 C 0.27716 0.09073 0.84035 0.0
H1223 H 0.25271 0.06766 0.76842 0.0
H1224 H 0.26986 0.0823 0.78599 0.0
H1225 H 0.27629 0.05601 0.77797 0.0
H1226 H 0.29767 0.05231 0.80957 0.0
H1227 H 0.33033 0.06973 0.82044 0.0
H1228 H 0.18243 0.88264 0.02077 0.0
H1229 H 0.15457 0.90435 0.03551 0.0
H1230 H 0.20082 0.93824 0.07284 0.0
H1231 H 0.22827 0.91622 0.05904 0.0
H1232 H 0.16521 0.93239 0.09424 0.0
H1233 H 0.14713 0.96309 0.01437 0.0
H1234 H 0.14289 0.93545 0.01881 0.0
H1235 H 0.16916 0.94636 0.019 0.0
C1236 C 0.18652 0.89453 0.03237 0.0
C1237 C 0.20755 0.89795 0.03855 0.0
C1238 C 0.17063 0.90697 0.04068 0.0
C1239 C 0.17568 0.92322 0.05492 0.0
C1240 C 0.19651 0.92581 0.06186 0.0
H1241 H 0.1583 0.04732 0.07122 0.0
H1242 H 0.16127 0.01094 0.0598 0.0
C1243 C 0.21225 0.91325 0.05387 0.0
C1244 C 0.16016 0.93897 0.06153 0.0
H1245 H 0.13537 0.98223 0.04301 0.0
C1246 C 0.15823 0.94309 0.0831 0.0
C1247 C 0.15093 0.95273 0.04688 0.0
C1248 C 0.15264 0.94936 0.02347 0.0
C1249 C 0.1496 0.96187 0.09038 0.0
C1250 C 0.14187 0.97644 0.07562 0.0
C1251 C 0.14153 0.97109 0.05422 0.0
C1252 C 0.1379 -0.00142 0.08145 0.0
C1253 C 0.15075 0.96672 0.11359 0.0
C1254 C 0.12346 0.00385 0.09712 0.0
C1255 C 0.12214 0.02467 0.10407 0.0
C1256 C 0.13483 0.04057 0.09502 0.0
C1257 C 0.14835 0.03542 0.07851 0.0
C1258 C 0.14998 0.01461 0.07191 0.0
H1259 H 0.16042 0.95526 0.12229 0.0
H1260 H 0.15753 0.98272 0.11633 0.0
H1261 H 0.13469 0.96612 0.12031 0.0
H1262 H 0.11356 -0.00815 0.10429 0.0
H1263 H 0.11131 0.02831 0.1166 0.0
H1264 H 0.24634 0.32053 0.05725 0.0
H1265 H 0.22533 0.29187 0.07239 0.0
H1266 H 0.1708 0.31282 0.03864 0.0
H1267 H 0.1918 0.34127 0.02296 0.0
H1268 H 0.18834 0.2889 0.0958 0.0
H1269 H 0.17915 0.2533 0.01628 0.0
H1270 H 0.19716 0.27493 0.02156 0.0
H1271 H 0.16951 0.27952 0.01887 0.0
C1272 C 0.22982 0.31922 0.05323 0.0
C1273 C 0.22081 0.3329 0.03861 0.0
C1274 C 0.21784 0.30288 0.06195 0.0
C1275 C 0.19667 0.30006 0.05628 0.0
C1276 C 0.18725 0.31454 0.04283 0.0
H1277 H 0.11797 0.19862 0.10925 0.0
H1278 H 0.1316 0.23359 0.09991 0.0
C1279 C 0.19927 0.33076 0.03392 0.0
C1280 C 0.18512 0.28094 0.06305 0.0
H1281 H 0.16349 0.23508 0.04438 0.0
C1282 C 0.18273 0.27717 0.08462 0.0
C1283 C 0.17812 0.26564 0.04832 0.0
C1284 C 0.18123 0.26838 0.02497 0.0
C1285 C 0.17381 0.25821 0.09189 0.0
C1286 C 0.16685 0.24293 0.07713 0.0
C1287 C 0.16881 0.24694 0.05559 0.0
C1288 C 0.1588 0.22203 0.08354 0.0
C1289 C 0.17267 0.25433 0.11523 0.0
C1290 C 0.16945 0.20404 0.07712 0.0
C1291 C 0.16163 0.18409 0.08218 0.0
C1292 C 0.14299 0.18177 0.0938 0.0
C1293 C 0.13243 0.19987 0.10037 0.0
C1294 C 0.14023 0.21986 0.09517 0.0
H1295 H 0.18269 0.2657 0.12424 0.0
H1296 H 0.15621 0.25601 0.12055 0.0
H1297 H 0.17763 0.23813 0.11903 0.0
H1298 H 0.18382 0.20545 0.06809 0.0
H1299 H 0.17022 0.17051 0.07697 0.0
H1300 H 0.65917 0.14936 0.92956 0.0
H1301 H 0.64305 0.16752 0.90069 0.0
H1302 H 0.69142 0.14585 0.85884 0.0
H1303 H 0.70851 0.12858 0.88842 0.0
H1304 H 0.69162 0.18414 0.85567 0.0
H1305 H 0.60839 0.16496 0.85064 0.0
H1306 H 0.61267 0.16818 0.87819 0.0
H1307 H 0.62599 0.14757 0.8641 0.0
C1308 C 0.66605 0.14783 0.9141 0.0
C1309 C 0.68535 0.13796 0.91135 0.0
C1310 C 0.65657 0.15803 0.89736 0.0
C1311 C 0.66584 0.15806 0.87734 0.0
C1312 C 0.68395 0.14617 0.8741 0.0
H1313 H 0.60605 0.27208 0.8379 0.0
H1314 H 0.6173 0.23633 0.82995 0.0
C1315 C 0.69372 0.13631 0.89102 0.0
C1316 C 0.6595 0.17433 0.86197 0.0
H1317 H 0.61699 0.20469 0.85324 0.0
C1318 C 0.6752 0.18817 0.85437 0.0
C1319 C 0.63819 0.17947 0.85894 0.0
C1320 C 0.62046 0.164 0.86321 0.0
C1321 C 0.67024 0.20834 0.8474 0.0
C1322 C 0.64926 0.21505 0.84902 0.0
C1323 C 0.63328 0.20002 0.853 0.0
C1324 C 0.64422 0.23767 0.85082 0.0
C1325 C 0.68776 0.22267 0.83976 0.0
C1326 C 0.65563 0.25043 0.86507 0.0
C1327 C 0.64945 0.27088 0.86939 0.0
C1328 C 0.63132 0.27884 0.86002 0.0
C1329 C 0.62003 0.26627 0.84548 0.0
C1330 C 0.62649 0.24588 0.84085 0.0
H1331 H 0.69894 0.21369 0.83001 0.0
H1332 H 0.68176 0.23595 0.83035 0.0
H1333 H 0.69673 0.22902 0.85343 0.0
H1334 H 0.66883 0.24429 0.8737 0.0
H1335 H 0.65833 0.28009 0.88081 0.0
H1336 H 0.06782 0.48609 0.19842 0.0
H1337 H 0.03513 0.47428 0.18136 0.0
H1338 H 0.01813 0.439 0.23675 0.0
H1339 H 0.05043 0.45113 0.25409 0.0
H1340 H 0.02116 0.4345 0.17205 0.0
H1341 H 0.96609 0.47315 0.22644 0.0
H1342 H -0.00614 0.47944 0.2261 0.0
H1343 H 0.98418 0.45654 0.23985 0.0
C1344 C 0.05704 0.4759 0.20698 0.0
C1345 C 0.06157 0.46962 0.22762 0.0
C1346 C 0.03843 0.46917 0.19722 0.0
C1347 C 0.02411 0.45608 0.20795 0.0
C1348 C 0.02876 0.44953 0.22842 0.0
H1349 H 0.92519 0.37554 0.15859 0.0
H1350 H 0.95866 0.39081 0.17072 0.0
C1351 C 0.04726 0.45637 0.23824 0.0
C1352 C 0.00448 0.44883 0.1976 0.0
H1353 H 0.95133 0.44679 0.20369 0.0
C1354 C 0.00585 0.43733 0.17883 0.0
C1355 C 0.98457 0.45288 0.20632 0.0
C1356 C 0.98203 0.46637 0.22567 0.0
C1357 C 0.98778 0.42919 0.16884 0.0
C1358 C 0.96796 0.43226 0.17821 0.0
C1359 C 0.96658 0.44427 0.19666 0.0
C1360 C 0.94836 0.42305 0.16937 0.0
C1361 C -0.0099 0.41759 0.1483 0.0
C1362 C 0.93142 0.43608 0.16492 0.0
C1363 C 0.91222 0.42739 0.15839 0.0
C1364 C 0.90965 0.40549 0.15609 0.0
C1365 C 0.92678 0.39247 0.16005 0.0
C1366 C 0.94594 0.40119 0.16685 0.0
H1367 H 0.00491 0.42223 0.14019 0.0
H1368 H -0.0094 0.40044 0.1514 0.0
H1369 H 0.97668 0.42056 0.13761 0.0
H1370 H 0.93297 0.45298 0.16681 0.0
H1371 H 0.89934 0.43783 0.1553 0.0
H1372 H 0.77333 0.81925 0.4408 0.0
H1373 H 0.78776 0.79685 0.41341 0.0
H1374 H 0.84985 0.82241 0.42612 0.0
H1375 H 0.83562 0.84405 0.45438 0.0
H1376 H 0.80924 0.80172 0.3777 0.0
H1377 H 0.85866 0.76142 0.43683 0.0
H1378 H 0.83911 0.78012 0.44417 0.0
H1379 H 0.86429 0.78905 0.43449 0.0
C1380 C 0.79005 0.82018 0.43767 0.0
C1381 C 0.80345 0.83303 0.44996 0.0
C1382 C 0.79826 0.80746 0.42195 0.0
C1383 C 0.81995 0.80762 0.41805 0.0
C1384 C 0.83316 0.82158 0.42931 0.0
H1385 H 0.88673 0.70997 0.35247 0.0
H1386 H 0.8777 0.74624 0.36034 0.0
C1387 C 0.82503 0.83394 0.44539 0.0
C1388 C 0.82871 0.79189 0.4035 0.0
H1389 H 0.86032 0.74925 0.40226 0.0
C1390 C 0.8206 0.79039 0.38297 0.0
C1391 C 0.84345 0.77702 0.41047 0.0
C1392 C 0.85175 0.7768 0.43273 0.0
C1393 C 0.82637 0.77399 0.36946 0.0
C1394 C 0.84068 0.75898 0.37667 0.0
C1395 C 0.84953 0.76105 0.39676 0.0
C1396 C 0.84469 0.73931 0.36519 0.0
C1397 C 0.81673 0.77244 0.34786 0.0
C1398 C 0.82888 0.72366 0.36439 0.0
C1399 C 0.83399 0.70283 0.36016 0.0
C1400 C 0.85502 0.69741 0.35672 0.0
C1401 C 0.87041 0.71355 0.35523 0.0
C1402 C 0.86529 0.73434 0.35963 0.0
H1403 H 0.81024 0.7877 0.34275 0.0
H1404 H 0.8285 0.76725 0.33619 0.0
H1405 H 0.8037 0.76058 0.34807 0.0
H1406 H 0.81293 0.72717 0.36892 0.0
H1407 H 0.82173 0.69082 0.36119 0.0
H1408 H 0.92957 0.96386 0.18421 0.0
H1409 H 0.95867 0.98587 0.17141 0.0
H1410 H 0.93733 0.03768 0.20909 0.0
H1411 H 0.90832 0.01573 0.22228 0.0
H1412 H 0.95939 0.02484 0.15045 0.0
H1413 H -0.00177 0.02939 0.2287 0.0
H1414 H 0.97717 0.01083 0.22287 0.0
H1415 H 0.97149 0.0379 0.22816 0.0
C1416 C 0.93097 0.97997 0.18972 0.0
C1417 C 0.91678 0.98798 0.20446 0.0
C1418 C 0.94758 -0.00749 0.18235 0.0
C1419 C 0.95026 0.01323 0.18959 0.0
C1420 C 0.93569 0.02157 0.20365 0.0
H1421 H 0.03959 0.10534 0.1392 0.0
H1422 H 0.00757 0.0865 0.14984 0.0
C1423 C 0.9191 0.00902 0.2111 0.0
C1424 C 0.96877 0.0258 0.18295 0.0
H1425 H 0.01389 0.04915 0.20136 0.0
C1426 C 0.97131 0.03023 0.16154 0.0
C1427 C 0.98434 0.0325 0.19751 0.0
C1428 C 0.98285 0.02729 0.22058 0.0
C1429 C -0.01089 0.04128 0.15424 0.0
C1430 C 0.0045 0.04827 0.16886 0.0
C1431 C 0.00194 0.04384 0.19026 0.0
C1432 C 0.02378 0.05964 0.16224 0.0
C1433 C -0.00844 0.04488 0.13096 0.0
C1434 C 0.04345 0.05093 0.16616 0.0
C1435 C 0.0618 0.0617 0.16029 0.0
C1436 C 0.06077 0.08141 0.15043 0.0
C1437 C 0.04097 0.09013 0.14664 0.0
C1438 C 0.02263 0.07936 0.15259 0.0
H1439 H 0.98103 0.03429 0.12161 0.0
H1440 H 0.9875 0.06136 0.12726 0.0
H1441 H 0.00804 0.04242 0.12597 0.0
H1442 H 0.0446 0.03573 0.17369 0.0
H1443 H 0.07676 0.0545 0.16343 0.0
H1444 H 0.21819 0.67757 0.53098 0.0
H1445 H 0.2325 0.70507 0.55416 0.0
H1446 H 0.28114 0.71914 0.50899 0.0
H1447 H 0.26677 0.69188 0.48555 0.0
H1448 H 0.27333 0.7078 0.57152 0.0
H1449 H 0.25535 0.77649 0.52138 0.0
H1450 H 0.24352 0.75079 0.51709 0.0
H1451 H 0.26985 0.75639 0.50828 0.0
C1452 C 0.2318 0.68668 0.52588 0.0
C1453 C 0.24134 0.68266 0.50643 0.0
C1454 C 0.23999 0.70227 0.53918 0.0
C1455 C 0.25775 0.71413 0.53317 0.0
C1456 C 0.26722 0.71029 0.51372 0.0
H1457 H 0.34213 0.79367 0.60576 0.0
H1458 H 0.32474 0.7629 0.58957 0.0
C1459 C 0.25902 0.69473 0.50038 0.0
C1460 C 0.26652 0.73039 0.5474 0.0
H1461 H 0.27752 0.78289 0.55078 0.0
C1462 C 0.27416 0.72426 0.56711 0.0
C1463 C 0.26732 0.75179 0.54159 0.0
C1464 C 0.25841 0.75935 0.52102 0.0
C1465 C 0.28297 0.73908 0.58112 0.0
C1466 C 0.28435 0.76039 0.57501 0.0
C1467 C 0.27645 0.76649 0.55539 0.0
C1468 C 0.29401 0.7769 0.58843 0.0
C1469 C 0.2905 0.73186 0.60234 0.0
C1470 C 0.2824 0.7947 0.59347 0.0
C1471 C 0.29233 0.81231 0.6023 0.0
C1472 C 0.31401 0.81232 0.60638 0.0
C1473 C 0.32536 0.79395 0.60284 0.0
C1474 C 0.31543 0.77636 0.59369 0.0
H1475 H 0.28318 0.71649 0.60677 0.0
H1476 H 0.30777 0.7299 0.60184 0.0
H1477 H 0.28698 0.74362 0.6147 0.0
H1478 H 0.26584 0.79537 0.58957 0.0
H1479 H 0.2832 0.82624 0.60512 0.0
H1480 H 0.10647 0.51941 0.33216 0.0
H1481 H 0.08235 0.53613 0.35673 0.0
H1482 H 0.05534 0.57081 0.3055 0.0
H1483 H 0.07993 0.55506 0.28122 0.0
H1484 H 0.05462 0.59323 0.34085 0.0
H1485 H 0.0237 0.51206 0.35622 0.0
H1486 H 0.05036 0.51756 0.36405 0.0
H1487 H 0.04346 0.51732 0.33664 0.0
C1488 C 0.09577 0.53107 0.32629 0.0
C1489 C 0.09476 0.53563 0.30471 0.0
C1490 C 0.0819 0.54047 0.34031 0.0
C1491 C 0.06655 0.55412 0.33282 0.0
C1492 C 0.06692 0.56016 0.31163 0.0
H1493 H 0.9396 0.5673 0.3398 0.0
H1494 H 0.97585 0.55575 0.33974 0.0
C1495 C 0.08099 0.5511 0.29772 0.0
C1496 C 0.04846 0.56026 0.34592 0.0
H1497 H 0.00318 0.5399 0.36696 0.0
C1498 C 0.04351 0.58164 0.34698 0.0
C1499 C 0.03402 0.54502 0.35387 0.0
C1500 C 0.03798 0.5217 0.35258 0.0
C1501 C 0.02378 0.58811 0.35396 0.0
C1502 C 0.00892 0.57275 0.36085 0.0
C1503 C 0.01462 0.55157 0.36162 0.0
C1504 C 0.98648 0.57775 0.36377 0.0
C1505 C 0.01846 0.61108 0.35214 0.0
C1506 C 0.98018 0.59329 0.37796 0.0
C1507 C 0.95947 0.6002 0.37773 0.0
C1508 C 0.94468 0.5913 0.36366 0.0
C1509 C 0.95062 0.57448 0.3508 0.0
C1510 C 0.97136 0.56787 0.35076 0.0
H1511 H 0.0304 0.62012 0.34298 0.0
H1512 H 0.00293 0.61293 0.34445 0.0
H1513 H 0.01773 0.61815 0.36806 0.0
H1514 H -0.00858 0.60066 0.38859 0.0
H1515 H 0.95523 0.61299 0.38807 0.0
H1516 H 0.39541 0.45227 0.79396 0.0
H1517 H 0.4188 0.44872 0.82433 0.0
H1518 H 0.44838 0.39612 0.79451 0.0
H1519 H 0.42522 0.39943 0.76414 0.0
H1520 H 0.42994 0.40709 0.85051 0.0
H1521 H 0.49341 0.44797 0.8058 0.0
H1522 H 0.46584 0.45139 0.80018 0.0
H1523 H 0.4788 0.42814 0.79138 0.0
C1524 C 0.40671 0.43976 0.79396 0.0
C1525 C 0.40861 0.42625 0.77651 0.0
C1526 C 0.41996 0.43775 0.81136 0.0
C1527 C 0.43525 0.42223 0.81149 0.0
C1528 C 0.43661 0.4082 0.79456 0.0
H1529 H 0.52123 0.3538 0.87306 0.0
H1530 H 0.4882 0.37078 0.866 0.0
C1531 C 0.42341 0.41016 0.77722 0.0
C1532 C 0.45115 0.42154 0.82829 0.0
H1533 H 0.50392 0.42731 0.8349 0.0
C1534 C 0.44608 0.41191 0.84744 0.0
C1535 C 0.47197 0.4284 0.82439 0.0
C1536 C 0.4779 0.43973 0.8044 0.0
C1537 C 0.46184 0.40733 0.86213 0.0
C1538 C 0.48308 0.41213 0.85717 0.0
C1539 C 0.48771 0.4235 0.8388 0.0
C1540 C 0.50096 0.40257 0.86837 0.0
C1541 C 0.45564 0.39681 0.88243 0.0
C1542 C 0.51911 0.4147 0.87289 0.0
C1543 C 0.53827 0.40494 0.87635 0.0
C1544 C 0.53949 0.3829 0.87559 0.0
C1545 C 0.52085 0.37081 0.8737 0.0
C1546 C 0.50179 0.38057 0.86986 0.0
H1547 H 0.44027 0.40262 0.88798 0.0
H1548 H 0.45377 0.37961 0.87974 0.0
H1549 H 0.46758 0.39957 0.89493 0.0
H1550 H 0.51884 0.4317 0.8719 0.0
H1551 H 0.55235 0.41467 0.87807 0.0
H1552 H 0.91485 0.75493 0.67337 0.0
H1553 H 0.88941 0.76611 0.69973 0.0
H1554 H 0.92573 0.82339 0.7097 0.0
H1555 H 0.95047 0.81279 0.68275 0.0
H1556 H 0.89392 0.77215 0.73926 0.0
H1557 H 0.86897 0.84731 0.70627 0.0
H1558 H 0.88358 0.82869 0.69098 0.0
H1559 H 0.89706 0.8478 0.70749 0.0
C1560 C 0.9172 0.77003 0.68104 0.0
C1561 C 0.93453 0.78308 0.676 0.0
C1562 C 0.90265 0.77641 0.69603 0.0
C1563 C 0.90535 0.79583 0.70632 0.0
C1564 C 0.92282 0.80873 0.7014 0.0
H1565 H 0.89029 0.8319 0.82984 0.0
H1566 H 0.8953 0.81285 0.79708 0.0
C1567 C 0.93711 0.80256 0.68616 0.0
C1568 C 0.89115 0.802 0.72352 0.0
H1569 H 0.86894 0.84531 0.74483 0.0
C1570 C 0.88796 0.78799 0.74027 0.0
C1571 C 0.88258 0.82231 0.72459 0.0
C1572 C 0.88303 0.83723 0.7062 0.0
C1573 C 0.8783 0.7945 0.75886 0.0
C1574 C 0.87257 0.81579 0.76102 0.0
C1575 C 0.87383 0.82912 0.7435 0.0
C1576 C 0.86776 0.82526 0.78169 0.0
C1577 C 0.87484 0.77858 0.77609 0.0
C1578 C 0.85094 0.83906 0.78388 0.0
C1579 C 0.84856 0.85061 0.80237 0.0
C1580 C 0.86276 0.84824 0.81908 0.0
C1581 C 0.87903 0.83382 0.81724 0.0
C1582 C 0.88172 0.82271 0.79859 0.0
H1583 H 0.87101 0.76282 0.76935 0.0
H1584 H 0.88953 0.77711 0.78535 0.0
H1585 H 0.86194 0.78312 0.78679 0.0
H1586 H 0.84003 0.84139 0.77105 0.0
H1587 H 0.83577 0.86154 0.80352 0.0
H1588 H 0.92603 0.18147 0.38767 0.0
H1589 H 0.92124 0.1629 0.42078 0.0
H1590 H 0.98842 0.15956 0.42836 0.0
H1591 H -0.00653 0.17838 0.39525 0.0
H1592 H 0.93687 0.12451 0.44136 0.0
H1593 H 0.96702 0.20045 0.47505 0.0
H1594 H 0.95922 0.19795 0.4479 0.0
H1595 H 0.98358 0.18719 0.45664 0.0
C1596 C 0.93982 0.17633 0.39606 0.0
C1597 C 0.96014 0.18189 0.38913 0.0
C1598 C 0.93703 0.1656 0.41492 0.0
C1599 C 0.95449 0.16027 0.42709 0.0
C1600 C 0.97479 0.16381 0.4192 0.0
H1601 H 0.94523 0.14662 0.56302 0.0
H1602 H 0.95987 0.14706 0.52762 0.0
C1603 C 0.97762 0.17456 0.40029 0.0
C1604 C 0.95123 0.15446 0.44923 0.0
H1605 H 0.95295 0.17578 0.49837 0.0
C1606 C 0.94068 0.1355 0.45393 0.0
C1607 C 0.9562 0.16894 0.46548 0.0
C1608 C 0.96701 0.18985 0.46114 0.0
C1609 C 0.93446 0.13085 0.47455 0.0
C1610 C 0.9385 0.14583 0.49062 0.0
C1611 C 0.94988 0.16435 0.486 0.0
C1612 C 0.92977 0.14357 0.51198 0.0
C1613 C 0.92344 0.11009 0.47886 0.0
C1614 C 0.90797 0.14171 0.51488 0.0
C1615 C 0.89954 0.14142 0.53508 0.0
C1616 C 0.91275 0.14334 0.55273 0.0
C1617 C 0.9346 0.14528 0.54975 0.0
C1618 C 0.94301 0.14538 0.52955 0.0
H1619 H 0.92798 0.09794 0.46724 0.0
H1620 H 0.92703 0.10431 0.49488 0.0
H1621 H 0.90621 0.11211 0.47754 0.0
H1622 H 0.89741 0.141 0.50152 0.0
H1623 H 0.88264 0.14 0.53682 0.0
H1624 H 0.52141 0.20359 0.16111 0.0
H1625 H 0.54638 0.18383 0.1822 0.0
H1626 H 0.55462 0.23717 0.22368 0.0
H1627 H 0.53033 0.25728 0.20219 0.0
H1628 H 0.59162 0.21787 0.21632 0.0
H1629 H 0.52977 0.15877 0.23776 0.0
H1630 H 0.53452 0.16094 0.2101 0.0
H1631 H 0.52382 0.18278 0.22424 0.0
C1632 C 0.52864 0.21112 0.17467 0.0
C1633 C 0.52374 0.23187 0.18019 0.0
C1634 C 0.54284 0.1998 0.18673 0.0
C1635 C 0.55199 0.20888 0.20476 0.0
C1636 C 0.54768 0.22984 0.20986 0.0
H1637 H 0.60738 0.17702 0.31949 0.0
H1638 H 0.59719 0.19423 0.28694 0.0
C1639 C 0.53374 0.24128 0.19763 0.0
C1640 C 0.56518 0.19633 0.21902 0.0
H1641 H 0.5634 0.15404 0.25187 0.0
C1642 C 0.58553 0.2038 0.22396 0.0
C1643 C 0.55719 0.17797 0.22897 0.0
C1644 C 0.53508 0.1697 0.22518 0.0
C1645 C 0.5979 0.19369 0.239 0.0
C1646 C 0.58964 0.17574 0.24931 0.0
C1647 C 0.5697 0.16775 0.24375 0.0
C1648 C 0.6001 0.16637 0.26766 0.0
C1649 C 0.6195 0.20249 0.24408 0.0
C1650 C 0.60546 0.14508 0.26749 0.0
C1651 C 0.61132 0.13516 0.2861 0.0
C1652 C 0.61149 0.14632 0.30522 0.0
C1653 C 0.60726 0.16795 0.30506 0.0
C1654 C 0.60162 0.17787 0.28644 0.0
H1655 H 0.62579 0.21237 0.23108 0.0
H1656 H 0.61861 0.21248 0.25835 0.0
H1657 H 0.63064 0.18966 0.24728 0.0
H1658 H 0.60418 0.13594 0.25315 0.0
H1659 H 0.61446 0.11849 0.28569 0.0
H1660 H 0.52337 0.78681 0.88907 0.0
H1661 H 0.53598 0.80624 0.91973 0.0
H1662 H 0.47214 0.81467 0.94017 0.0
H1663 H 0.45924 0.79491 0.90937 0.0
H1664 H 0.52764 0.8469 0.93872 0.0
H1665 H 0.50041 0.7777 0.98582 0.0
H1666 H 0.50213 0.77665 0.95757 0.0
H1667 H 0.4813 0.79072 0.96988 0.0
C1668 C 0.51194 0.79306 0.89988 0.0
C1669 C 0.49033 0.78898 0.89707 0.0
C1670 C 0.51919 0.80431 0.9173 0.0
C1671 C 0.50499 0.81159 0.93226 0.0
C1672 C 0.48331 0.80895 0.92879 0.0
H1673 H 0.54695 0.83593 0.06033 0.0
H1674 H 0.52455 0.83463 0.02928 0.0
C1675 C 0.47599 0.79772 0.91123 0.0
C1676 C 0.51332 0.81928 0.95254 0.0
H1677 H 0.52204 0.80261 0.00254 0.0
C1678 C 0.52612 0.8375 0.95285 0.0
C1679 C 0.51132 0.80686 0.97083 0.0
C1680 C 0.49817 0.78682 0.97115 0.0
C1681 C 0.53761 0.84327 0.97087 0.0
C1682 C 0.53653 0.83017 -0.01125 0.0
C1683 C 0.52288 0.81257 -0.01125 0.0
C1684 C 0.5503 0.83346 0.00723 0.0
C1685 C 0.55099 0.86311 0.97046 0.0
C1686 C 0.57226 0.83324 0.00511 0.0
C1687 C 0.58519 0.83406 0.02288 0.0
C1688 C 0.57632 0.8347 0.04304 0.0
C1689 C 0.55432 0.83516 0.04504 0.0
C1690 C 0.54146 0.83458 0.02731 0.0
H1691 H 0.54483 0.87459 0.95898 0.0
H1692 H 0.55179 0.87069 0.98619 0.0
H1693 H 0.56717 0.85917 0.9656 0.0
H1694 H 0.57939 0.83179 -0.01023 0.0
H1695 H 0.60207 0.83365 0.02084 0.0
H1696 H 0.96695 0.21467 0.83589 0.0
H1697 H 0.94803 0.19495 0.80897 0.0
H1698 H 0.9006 0.2425 0.80709 0.0
H1699 H 0.92024 0.26308 0.83357 0.0
H1700 H 0.91044 0.17717 0.80449 0.0
H1701 H 0.91953 0.24299 0.74741 0.0
H1702 H 0.93215 0.24365 0.77273 0.0
H1703 H 0.90449 0.24852 0.77049 0.0
C1704 C 0.95241 0.22095 0.82992 0.0
C1705 C 0.94526 0.24063 0.83661 0.0
C1706 C 0.94153 0.20956 0.81457 0.0
C1707 C 0.92309 0.21741 0.80571 0.0
C1708 C 0.91511 0.23642 0.8133 0.0
H1709 H 0.87568 0.13407 0.70324 0.0
H1710 H 0.87549 0.153 0.73689 0.0
C1711 C 0.92627 0.24811 0.82847 0.0
C1712 C 0.91369 0.20623 0.78741 0.0
H1713 H 0.90734 0.21073 0.73445 0.0
C1714 C 0.90943 0.18452 0.78919 0.0
C1715 C 0.91239 0.21592 0.76748 0.0
C1716 C 0.9175 0.239 0.76426 0.0
C1717 C 0.90564 0.17194 0.77138 0.0
C1718 C 0.90534 0.18153 0.75138 0.0
C1719 C 0.90778 0.20346 0.74983 0.0
C1720 C 0.9053 0.16914 0.73167 0.0
C1721 C 0.90352 0.14841 0.77401 0.0
C1722 C 0.92202 0.17204 0.71757 0.0
C1723 C 0.92194 0.16165 0.69831 0.0
C1724 C 0.90529 0.1479 0.69287 0.0
C1725 C 0.88885 0.1444 0.70722 0.0
C1726 C 0.88873 0.15517 0.72643 0.0
H1727 H 0.90835 0.14328 0.78995 0.0
H1728 H 0.88687 0.14348 0.77161 0.0
H1729 H 0.91319 0.1401 0.76224 0.0
H1730 H 0.93504 0.18263 0.72135 0.0
H1731 H 0.93483 0.16456 0.68756 0.0
H1732 H 0.47756 0.17599 0.55234 0.0
H1733 H 0.49849 0.15179 0.532 0.0
H1734 H 0.55021 0.16077 0.5753 0.0
H1735 H 0.52951 0.18584 0.59534 0.0
H1736 H 0.56196 0.16995 0.53765 0.0
H1737 H 0.51989 0.09368 0.53233 0.0
H1738 H 0.50217 0.11421 0.52589 0.0
H1739 H 0.51341 0.11309 0.55191 0.0
C1740 C 0.49317 0.17237 0.55791 0.0
C1741 C 0.50201 0.18304 0.57525 0.0
C1742 C 0.50508 0.15829 0.54636 0.0
C1743 C 0.5259 0.15424 0.5522 0.0
C1744 C 0.53416 0.1636 0.57053 0.0
H1745 H 0.61887 0.11044 0.46059 0.0
H1746 H 0.60163 0.11387 0.4947 0.0
C1747 C 0.52234 0.17795 0.58194 0.0
C1748 C 0.53994 0.14372 0.53708 0.0
H1749 H 0.54122 0.10349 0.50148 0.0
C1750 C 0.55779 0.15507 0.53023 0.0
C1751 C 0.53452 0.12432 0.52732 0.0
C1752 C 0.51656 0.11057 0.53496 0.0
C1753 C 0.56936 0.14841 0.51286 0.0
C1754 C 0.56293 0.12989 0.50214 0.0
C1755 C 0.54594 0.11779 0.50971 0.0
C1756 C 0.57227 0.12445 0.48174 0.0
C1757 C 0.58751 0.16195 0.50519 0.0
C1758 C 0.56119 0.12877 0.46327 0.0
C1759 C 0.57097 0.127 0.44378 0.0
C1760 C 0.59201 0.12079 0.44247 0.0
C1761 C 0.60269 0.11539 0.46103 0.0
C1762 C 0.59289 0.11727 0.48053 0.0
H1763 H 0.58934 0.17681 0.5143 0.0
H1764 H 0.60231 0.15311 0.50654 0.0
H1765 H 0.58526 0.16592 0.48837 0.0
H1766 H 0.54525 0.13442 0.46399 0.0
H1767 H 0.5622 0.13108 0.42982 0.0
H1768 H 0.5311 0.82528 0.32895 0.0
H1769 H 0.55585 0.83151 0.30034 0.0
H1770 H 0.58022 0.76926 0.30832 0.0
H1771 H 0.55548 0.76279 0.33712 0.0
H1772 H 0.60402 0.82489 0.29531 0.0
H1773 H 0.54942 0.77328 0.24846 0.0
H1774 H 0.54122 0.78535 0.27269 0.0
H1775 H 0.5591 0.76393 0.27325 0.0
C1776 C 0.54197 0.81303 0.32492 0.0
C1777 C 0.54109 0.79341 0.33504 0.0
C1778 C 0.55621 0.81669 0.3087 0.0
C1779 C 0.5697 0.8008 0.30228 0.0
C1780 C 0.56988 0.78169 0.31318 0.0
H1781 H 0.61091 0.80262 0.17253 0.0
H1782 H 0.60887 0.79084 0.20896 0.0
C1783 C 0.55571 0.77803 0.32955 0.0
C1784 C 0.58099 0.80327 0.28227 0.0
H1785 H 0.57497 0.79246 0.23023 0.0
C1786 C 0.59803 0.81752 0.28106 0.0
C1787 C 0.57311 0.79352 0.26385 0.0
C1788 C 0.55466 0.7782 0.26442 0.0
C1789 C 0.60698 0.82287 0.26162 0.0
C1790 C 0.59812 0.81421 0.24301 0.0
C1791 C 0.58178 0.79911 0.24446 0.0
C1792 C 0.6038 0.82191 0.2218 0.0
C1793 C 0.62561 0.8379 0.26124 0.0
C1794 C 0.60218 0.84336 0.21694 0.0
C1795 C 0.6037 0.85016 0.19616 0.0
C1796 C 0.60625 0.83552 0.17988 0.0
C1797 C 0.60867 0.81419 0.18481 0.0
C1798 C 0.60762 0.80747 0.2056 0.0
H1799 H 0.63527 0.83636 0.27569 0.0
H1800 H 0.63573 0.83521 0.24736 0.0
H1801 H 0.61993 0.85429 0.26073 0.0
H1802 H 0.59858 0.85474 0.22903 0.0
H1803 H 0.60168 0.86668 0.19274 0.0
H1804 H 0.94095 0.77122 0.04371 0.0
H1805 H 0.92507 0.80197 0.02796 0.0
H1806 H 0.98529 0.83435 0.02808 0.0
H1807 H 0.00149 0.80335 0.04377 0.0
H1808 H 0.92595 0.84426 0.04637 0.0
H1809 H 0.96239 0.83956 0.9669 0.0
H1810 H 0.96158 0.81717 0.98425 0.0
H1811 H 0.97909 0.83895 -0.01026 0.0
C1812 C 0.95091 0.78476 0.04014 0.0
C1813 C 0.97245 0.7849 0.04494 0.0
C1814 C 0.94178 0.80236 0.03131 0.0
C1815 C 0.95401 0.8204 0.02707 0.0
C1816 C 0.97566 0.82048 0.03123 0.0
H1817 H 0.8939 0.90624 0.94315 0.0
H1818 H 0.91855 0.90001 0.97191 0.0
C1819 C 0.98487 0.80276 0.04006 0.0
C1820 C 0.94363 0.83885 0.01812 0.0
H1821 H 0.93426 0.86209 0.97111 0.0
C1822 C 0.92805 0.84862 0.03004 0.0
C1823 C 0.9467 0.84465 -0.00303 0.0
C1824 C 0.96327 0.83457 0.98358 0.0
C1825 C 0.91429 0.86286 0.02083 0.0
C1826 C 0.91604 0.86708 -0.00085 0.0
C1827 C 0.93289 0.85882 0.98776 0.0
C1828 C 0.89878 0.87647 0.98699 0.0
C1829 C 0.89745 0.87248 0.03417 0.0
C1830 C 0.87897 0.86624 0.98669 0.0
C1831 C 0.8648 0.87001 0.97043 0.0
C1832 C 0.87041 0.88391 0.95431 0.0
C1833 C 0.88924 0.89568 0.95571 0.0
C1834 C 0.90332 0.89208 0.97206 0.0
H1835 H 0.90311 0.87495 0.05053 0.0
H1836 H 0.89233 0.88776 0.02772 0.0
H1837 H 0.88365 0.86155 0.0348 0.0
H1838 H 0.87531 0.85376 -0.0023 0.0
H1839 H 0.85053 0.86049 0.96929 0.0
H1840 H 0.64999 0.92478 0.72961 0.0
H1841 H 0.6747 0.9001 0.74503 0.0
H1842 H 0.66131 0.92458 0.80671 0.0
H1843 H 0.63675 0.94911 0.79153 0.0
H1844 H 0.70821 0.91979 0.76461 0.0
H1845 H 0.67175 0.86279 0.81931 0.0
H1846 H 0.65724 0.87492 0.79826 0.0
H1847 H 0.66133 0.88857 0.8228 0.0
C1848 C 0.65177 0.92434 0.74653 0.0
C1849 C 0.64185 0.93914 0.75937 0.0
C1850 C 0.66578 0.91016 0.7553 0.0
C1851 C 0.6697 0.91042 0.777 0.0
C1852 C 0.65822 0.9238 0.78998 0.0
H1853 H 0.76103 0.90994 0.87017 0.0
H1854 H 0.72923 0.90719 0.8484 0.0
C1855 C 0.64441 0.93806 0.78124 0.0
C1856 C 0.68898 0.90117 0.78552 0.0
H1857 H 0.70726 0.87523 0.82839 0.0
C1858 C 0.70814 0.90948 0.77816 0.0
C1859 C 0.68871 0.88792 0.80327 0.0
C1860 C 0.66862 0.87788 0.81123 0.0
C1861 C 0.72684 0.90661 0.78924 0.0
C1862 C 0.72641 0.8944 0.8078 0.0
C1863 C 0.7075 0.8847 0.81425 0.0
C1864 C 0.74496 0.89341 0.8217 0.0
C1865 C 0.74646 0.91817 0.7819 0.0
C1866 C 0.7641 0.88608 0.81407 0.0
C1867 C 0.78227 0.88826 0.82617 0.0
C1868 C 0.78145 0.8972 0.84636 0.0
C1869 C 0.76205 0.90323 0.85456 0.0
C1870 C 0.74392 0.90151 0.84222 0.0
H1871 H 0.74291 0.93055 0.77021 0.0
H1872 H 0.75492 0.92569 0.79531 0.0
H1873 H 0.75713 0.90685 0.77433 0.0
H1874 H 0.7651 0.87924 0.79852 0.0
H1875 H 0.79699 0.88293 0.81973 0.0
H1876 H 0.81644 0.92485 0.47867 0.0
H1877 H 0.84249 0.95138 0.49046 0.0
H1878 H 0.81332 0.95227 0.55158 0.0
H1879 H 0.78814 0.92524 0.54025 0.0
H1880 H 0.83896 -0.01032 0.50247 0.0
H1881 H 0.87266 0.94783 0.56927 0.0
H1882 H 0.8562 0.93451 0.55008 0.0
H1883 H 0.84475 0.94735 0.57253 0.0
C1884 C 0.81575 0.93069 0.49465 0.0
C1885 C 0.80044 0.92295 0.50865 0.0
C1886 C 0.83067 0.94572 0.50138 0.0
C1887 C 0.83031 0.95329 0.52212 0.0
C1888 C 0.81454 0.94599 0.53581 0.0
H1889 H 0.84192 0.07047 0.57301 0.0
H1890 H 0.83744 0.03934 0.55117 0.0
C1891 C 0.79996 0.93076 0.52925 0.0
C1892 C 0.84512 0.97007 0.5293 0.0
H1893 H 0.87081 0.98649 0.57353 0.0
C1894 C 0.84645 0.9888 0.51775 0.0
C1895 C 0.85578 0.96877 0.54877 0.0
C1896 C 0.85747 0.94838 0.56067 0.0
C1897 C 0.856 0.00693 0.52632 0.0
C1898 C 0.8635 0.00646 0.54726 0.0
C1899 C 0.86444 0.98712 0.55773 0.0
C1900 C 0.86738 0.02598 0.55954 0.0
C1901 C 0.85721 0.02655 0.51308 0.0
C1902 C 0.88526 0.02843 0.57239 0.0
C1903 C 0.88751 0.046 0.58555 0.0
C1904 C 0.87201 0.06143 0.58583 0.0
C1905 C 0.85425 0.05897 0.5729 0.0
C1906 C 0.85182 0.04129 0.56015 0.0
H1907 H 0.86009 0.02247 0.49637 0.0
H1908 H 0.84194 0.03466 0.51374 0.0
H1909 H 0.86986 0.03757 0.51851 0.0
H1910 H 0.89733 0.01667 0.57241 0.0
H1911 H 0.9014 0.04761 0.59533 0.0
H1912 H 0.84872 0.02135 0.30802 0.0
H1913 H 0.82757 0.04781 0.3257 0.0
H1914 H 0.79022 0.05454 0.26957 0.0
H1915 H 0.81187 0.0289 0.25155 0.0
H1916 H 0.79509 0.09189 0.29038 0.0
H1917 H 0.77055 0.02811 0.34545 0.0
H1918 H 0.79812 0.03454 0.34556 0.0
H1919 H 0.78613 0.02308 0.32249 0.0
C1920 C 0.83623 0.02878 0.29937 0.0
C1921 C 0.83165 0.02283 0.27856 0.0
C1922 C 0.82414 0.04382 0.30949 0.0
C1923 C 0.80697 0.05267 0.29912 0.0
C1924 C 0.80333 0.04782 0.27789 0.0
H1925 H 0.68686 0.09814 0.31655 0.0
H1926 H 0.72236 0.09167 0.30415 0.0
C1927 C 0.81566 0.0331 0.26764 0.0
C1928 C 0.79135 0.06506 0.31075 0.0
H1929 H 0.75367 0.06014 0.34849 0.0
C1930 C 0.78622 0.0851 0.3033 0.0
C1931 C 0.77976 0.05613 0.32759 0.0
C1932 C 0.78374 0.03423 0.33567 0.0
C1933 C 0.76927 0.09609 0.31172 0.0
C1934 C 0.75723 0.08672 0.3279 0.0
C1935 C 0.76308 0.06728 0.33614 0.0
C1936 C 0.73692 0.09517 0.33474 0.0
C1937 C 0.76402 0.11732 0.3029 0.0
C1938 C 0.73341 0.09951 0.35602 0.0
C1939 C 0.71309 0.10309 0.36322 0.0
C1940 C 0.6959 0.10208 0.34926 0.0
C1941 C 0.69969 0.09887 0.32775 0.0
C1942 C 0.72002 0.09542 0.32058 0.0
H1943 H 0.77797 0.12504 0.29554 0.0
H1944 H 0.75173 0.11529 0.29062 0.0
H1945 H 0.75786 0.12784 0.3153 0.0
H1946 H 0.74626 0.09917 0.3672 0.0
H1947 H 0.71077 0.10561 0.37987 0.0
H1948 H 0.68729 0.066 0.97774 0.0
H1949 H 0.6702 0.03214 0.98579 0.0
H1950 H 0.69442 0.03566 0.04903 0.0
H1951 H 0.7117 0.06929 0.04118 0.0
H1952 H 0.70175 -0.00276 0.02776 0.0
H1953 H 0.61804 0.0207 0.02347 0.0
H1954 H 0.63435 0.02736 0.00134 0.0
H1955 H 0.63937 0.03967 0.02629 0.0
C1956 C 0.68887 0.05964 -0.00659 0.0
C1957 C 0.70088 0.07035 0.00882 0.0
C1958 C 0.67901 0.04036 -0.00202 0.0
C1959 C 0.68094 0.03157 0.01803 0.0
C1960 C 0.69275 0.04226 0.03347 0.0
H1961 H 0.62184 0.93677 0.09061 0.0
H1962 H 0.63259 0.96869 0.07211 0.0
C1963 C 0.7026 0.06149 0.02894 0.0
C1964 C 0.67143 0.0108 0.02293 0.0
H1965 H 0.62458 0.98521 0.03139 0.0
C1966 C 0.68489 -0.00551 0.02835 0.0
C1967 C 0.64943 0.00745 0.02374 0.0
C1968 C 0.63437 0.02471 0.01855 0.0
C1969 C 0.67694 0.975 0.03519 0.0
C1970 C 0.65493 0.97168 0.03625 0.0
C1971 C 0.64144 0.98782 0.03032 0.0
C1972 C 0.64582 0.95233 0.04558 0.0
C1973 C 0.69217 0.95848 0.04217 0.0
C1974 C 0.64907 0.9326 0.03638 0.0
C1975 C 0.64307 0.91424 0.04698 0.0
C1976 C 0.63365 0.91538 0.06691 0.0
C1977 C 0.62925 0.93527 0.0754 0.0
C1978 C 0.63529 0.95356 0.06482 0.0
H1979 H 0.70841 0.96498 0.044 0.0
H1980 H 0.68716 0.95147 0.05735 0.0
H1981 H 0.69249 0.9457 0.03029 0.0
H1982 H 0.65689 0.9314 0.02135 0.0
H1983 H 0.64649 0.8992 0.03987 0.0
H1984 H 0.66705 0.01884 0.67382 0.0
H1985 H 0.69913 0.03793 0.66362 0.0
H1986 H 0.70358 0.06552 0.72546 0.0
H1987 H 0.67141 0.04674 0.73579 0.0
H1988 H 0.71173 0.09422 0.69204 0.0
H1989 H 0.75756 0.02106 0.68545 0.0
H1990 H 0.73375 0.02094 0.67023 0.0
H1991 H 0.7324 0.02185 0.69841 0.0
C1992 C 0.67477 0.02904 0.68524 0.0
C1993 C 0.66678 0.0311 0.70568 0.0
C1994 C 0.69312 0.03988 0.67939 0.0
C1995 C 0.7038 0.05284 0.69391 0.0
C1996 C 0.69554 0.05549 0.71409 0.0
H1997 H 0.83411 0.09116 0.67963 0.0
H1998 H 0.80044 0.07969 0.69434 0.0
C1999 C 0.6772 0.04469 0.71995 0.0
C2000 C 0.72399 0.06311 0.68827 0.0
H2001 H 0.77405 0.05249 0.67338 0.0
C2002 C 0.72542 0.08516 0.68803 0.0
C2003 C 0.74183 0.05117 0.68344 0.0
C2004 C 0.74146 0.02744 0.68456 0.0
C2005 C 0.74422 0.09563 0.68253 0.0
C2006 C 0.76182 0.08366 0.67692 0.0
C2007 C 0.76047 0.06162 0.67762 0.0
C2008 C 0.78176 0.09345 0.66971 0.0
C2009 C 0.74514 0.11936 0.68295 0.0
C2010 C 0.78233 0.10536 0.65121 0.0
C2011 C 0.80155 0.11202 0.64277 0.0
C2012 C 0.82053 0.10661 0.65256 0.0
C2013 C 0.81981 0.09545 0.67159 0.0
C2014 C 0.80059 0.08891 0.68006 0.0
H2015 H 0.73268 0.12587 0.69314 0.0
H2016 H 0.76068 0.12528 0.68864 0.0
H2017 H 0.7427 0.12537 0.66681 0.0
H2018 H 0.76798 0.10868 0.64277 0.0
H2019 H 0.80154 0.12053 0.62806 0.0
H2020 H 0.69989 0.88035 0.43786 0.0
H2021 H 0.67449 0.9027 0.42015 0.0
H2022 H 0.67218 0.94259 0.475 0.0
H2023 H 0.69672 0.91984 0.49308 0.0
H2024 H 0.63438 0.94091 0.45425 0.0
H2025 H 0.70034 0.95691 0.39876 0.0
H2026 H 0.69094 0.93013 0.39962 0.0
H2027 H 0.70368 0.94166 0.42226 0.0
C2028 C 0.69352 0.89359 0.4463 0.0
C2029 C 0.70058 0.89866 0.46666 0.0
C2030 C 0.67908 0.90636 0.43616 0.0
C2031 C 0.672 0.92465 0.44604 0.0
C2032 C 0.67757 0.92862 0.46703 0.0
H2033 H 0.63981 0.049 0.42784 0.0
H2034 H 0.6431 0.01291 0.44004 0.0
C2035 C 0.69167 0.91564 0.47733 0.0
C2036 C 0.6614 0.9412 0.43393 0.0
H2037 H 0.67084 0.97769 0.39576 0.0
C2038 C 0.64214 0.94874 0.44121 0.0
C2039 C 0.67163 0.95144 0.41694 0.0
C2040 C 0.69285 0.94479 0.40899 0.0
C2041 C 0.63332 0.96683 0.43255 0.0
C2042 C 0.64411 0.97757 0.41633 0.0
C2043 C 0.66262 0.96929 0.40817 0.0
C2044 C 0.63828 -0.00119 0.40939 0.0
C2045 C 0.61289 0.97467 0.44124 0.0
C2046 C 0.63452 0.00282 0.38809 0.0
C2047 C 0.6328 0.02348 0.38099 0.0
C2048 C 0.63511 0.04048 0.39508 0.0
C2049 C 0.6381 0.03631 0.41654 0.0
C2050 C 0.6397 0.01566 0.42361 0.0
H2051 H 0.60347 0.96169 0.44844 0.0
H2052 H 0.61631 0.98657 0.45363 0.0
H2053 H 0.60337 0.98218 0.42881 0.0
H2054 H 0.63364 -0.01001 0.37686 0.0
H2055 H 0.63041 0.02611 0.36437 0.0
H2056 H 0.81196 0.94031 0.19601 0.0
H2057 H 0.78778 0.91484 0.17996 0.0
H2058 H 0.78676 0.87871 0.23727 0.0
H2059 H 0.81046 0.90492 0.25382 0.0
H2060 H 0.79105 0.87307 0.17216 0.0
H2061 H 0.72516 0.8877 0.22767 0.0
H2062 H 0.7484 0.90434 0.22737 0.0
H2063 H 0.74935 0.87842 0.23846 0.0
C2064 C 0.8065 0.92701 0.20524 0.0
C2065 C 0.81284 0.92467 0.22619 0.0
C2066 C 0.79283 0.91236 0.19601 0.0
C2067 C 0.78542 0.8949 0.20743 0.0
C2068 C 0.79203 0.89225 0.2283 0.0
H2069 H 0.69141 0.83023 0.12482 0.0
H2070 H 0.72279 0.83067 0.14764 0.0
C2071 C 0.80549 0.90721 0.23772 0.0
C2072 C 0.76987 0.88054 0.19731 0.0
H2073 H 0.7171 0.87058 0.19628 0.0
C2074 C 0.77494 0.87196 0.17763 0.0
C2075 C 0.74897 0.8789 0.20469 0.0
C2076 C 0.74249 0.88787 0.22564 0.0
C2077 C 0.75923 0.86415 0.16406 0.0
C2078 C 0.73812 0.86454 0.17067 0.0
C2079 C 0.7334 0.87056 0.19132 0.0
C2080 C 0.72064 0.86372 0.15545 0.0
C2081 C 0.765 0.85755 0.14209 0.0
C2082 C 0.70951 0.8822 0.15205 0.0
C2083 C 0.69174 0.88194 0.13938 0.0
C2084 C 0.68488 0.86323 0.12964 0.0
C2085 C 0.69662 0.84489 0.13204 0.0
C2086 C 0.71441 0.84509 0.14508 0.0
H2087 H 0.7822 0.85874 0.13926 0.0
H2088 H 0.75972 0.84103 0.13933 0.0
H2089 H 0.75688 0.86756 0.13048 0.0
H2090 H 0.71426 0.89678 0.15974 0.0
H2091 H 0.68298 0.89628 0.13766 0.0
H2092 H 0.78267 0.10395 0.93256 0.0
H2093 H 0.80985 0.08017 0.92119 0.0
H2094 H 0.8383 0.08323 0.98267 0.0
H2095 H 0.81078 0.10683 -0.00554 0.0
H2096 H 0.85517 0.07435 0.92164 0.0
H2097 H 0.81036 0.02406 0.9785 0.0
H2098 H 0.80116 0.0495 0.97077 0.0
H2099 H 0.82319 0.04753 0.9883 0.0
C2100 C 0.795 0.10006 0.94357 0.0
C2101 C 0.79414 0.10662 0.96464 0.0
C2102 C 0.81068 0.08664 0.93694 0.0
C2103 C 0.82574 0.07963 0.95125 0.0
C2104 C 0.82658 0.0883 0.97152 0.0
H2105 H 0.85564 0.94931 0.93043 0.0
H2106 H 0.86116 0.98433 0.94559 0.0
C2107 C 0.81078 0.1017 0.97823 0.0
C2108 C 0.83672 0.06005 0.94626 0.0
H2109 H 0.83059 0.00735 0.95378 0.0
C2110 C 0.85035 0.05966 0.92898 0.0
C2111 C 0.83037 0.04097 0.95594 0.0
C2112 C 0.8154 0.04035 0.97434 0.0
C2113 C 0.85679 0.04051 0.92032 0.0
C2114 C 0.84887 0.02144 0.92888 0.0
C2115 C 0.83663 0.02195 0.94716 0.0
C2116 C 0.8505 0.00092 0.918 0.0
C2117 C 0.87148 0.04097 0.90179 0.0
C2118 C 0.84324 -0.00142 0.89721 0.0
C2119 C 0.84048 0.97856 0.8884 0.0
C2120 C 0.84424 0.96066 0.90053 0.0
C2121 C 0.85224 0.96298 0.92097 0.0
C2122 C 0.85558 0.98294 0.92954 0.0
H2123 H 0.88252 0.0547 0.90283 0.0
H2124 H 0.88071 0.02637 0.90071 0.0
H2125 H 0.86219 0.04268 0.88714 0.0
H2126 H 0.83856 0.01211 0.88818 0.0
H2127 H 0.83439 0.97703 0.87255 0.0
H2128 H 0.78929 0.66648 0.93486 0.0
H2129 H 0.78953 0.70006 0.91652 0.0
H2130 H 0.72234 0.70365 0.92376 0.0
H2131 H 0.72195 0.66989 0.94237 0.0
H2132 H 0.76674 0.71777 0.88076 0.0
H2133 H 0.74801 0.75377 0.95844 0.0
H2134 H 0.75625 0.72686 0.9564 0.0
H2135 H 0.73048 0.73389 0.94776 0.0
C2136 C 0.77449 0.67419 0.93222 0.0
C2137 C 0.75566 0.66581 0.94037 0.0
C2138 C 0.77464 0.69329 0.92161 0.0
C2139 C 0.75599 0.70436 0.91906 0.0
C2140 C 0.73689 0.69533 0.92577 0.0
H2141 H 0.77985 0.8396 0.90496 0.0
H2142 H 0.75848 0.80722 0.90541 0.0
C2143 C 0.73671 0.67609 0.93636 0.0
C2144 C 0.75751 0.72641 0.91208 0.0
H2145 H 0.76234 0.77575 0.93278 0.0
C2146 C 0.76523 0.7306 0.89189 0.0
C2147 C 0.75532 0.74307 0.92663 0.0
C2148 C 0.74714 0.73933 0.94857 0.0
C2149 C 0.77238 0.75083 0.8864 0.0
C2150 C 0.77219 0.767 0.90169 0.0
C2151 C 0.76262 0.76324 0.92117 0.0
C2152 C 0.78449 0.78677 0.89915 0.0
C2153 C 0.7809 0.75447 0.86461 0.0
C2154 C 0.80623 0.78593 0.89577 0.0
C2155 C 0.81851 0.80432 0.89558 0.0
C2156 C 0.80931 0.82394 0.89903 0.0
C2157 C 0.78748 0.82474 0.90237 0.0
C2158 C 0.77519 0.8063 0.90247 0.0
H2159 H 0.77285 0.74395 0.85303 0.0
H2160 H 0.77905 0.77105 0.85962 0.0
H2161 H 0.79786 0.75077 0.8644 0.0
H2162 H 0.81385 0.77096 0.89388 0.0
H2163 H 0.83526 0.80309 0.89302 0.0
H2164 H 0.33305 0.82608 0.05047 0.0
H2165 H 0.33949 0.80416 0.08099 0.0
H2166 H 0.27565 0.81228 0.10153 0.0
H2167 H 0.26888 0.83419 0.07075 0.0
H2168 H 0.33354 0.80751 0.1269 0.0
H2169 H 0.28058 0.74883 0.0867 0.0
H2170 H 0.29031 0.77183 0.07307 0.0
H2171 H 0.27073 0.77437 0.09309 0.0
C2172 C 0.32042 0.82351 0.0616 0.0
C2173 C 0.30032 0.83145 0.05793 0.0
C2174 C 0.32421 0.81116 0.07916 0.0
C2175 C 0.30798 0.80651 0.09334 0.0
C2176 C 0.2883 0.81564 0.09063 0.0
H2177 H 0.33038 0.68276 0.14096 0.0
H2178 H 0.31283 0.71648 0.14388 0.0
C2179 C 0.28448 0.82805 0.07301 0.0
C2180 C 0.31112 0.78943 0.10854 0.0
H2181 H 0.30446 0.73632 0.11091 0.0
C2182 C 0.32675 0.79198 0.12396 0.0
C2183 C 0.30197 0.76932 0.10487 0.0
C2184 C 0.285 0.76573 0.08854 0.0
C2185 C 0.33487 0.77454 0.13444 0.0
C2186 C 0.32753 0.75414 0.1288 0.0
C2187 C 0.31027 0.75193 0.11513 0.0
C2188 C 0.33966 0.73502 0.1333 0.0
C2189 C 0.35186 0.77811 0.15066 0.0
C2190 C 0.36087 0.73428 0.12724 0.0
C2191 C 0.37101 0.71507 0.12591 0.0
C2192 C 0.35991 0.69627 0.13002 0.0
C2193 C 0.33916 0.69708 0.13739 0.0
C2194 C 0.32918 0.71633 0.13922 0.0
H2195 H 0.34888 0.79262 0.15986 0.0
H2196 H 0.35298 0.76464 0.16164 0.0
H2197 H 0.36719 0.78043 0.14265 0.0
H2198 H 0.36917 0.7483 0.12194 0.0
H2199 H 0.387 0.71483 0.12014 0.0
H2200 H 0.8865 0.54578 0.80964 0.0
H2201 H 0.91044 0.56827 0.83033 0.0
H2202 H 0.95043 0.51531 0.841 0.0
H2203 H 0.92595 0.49255 0.82132 0.0
H2204 H 0.95116 0.54202 0.87427 0.0
H2205 H 0.96259 0.58667 0.79985 0.0
H2206 H 0.93647 0.58689 0.81031 0.0
H2207 H 0.9472 0.56264 0.80093 0.0
C2208 C 0.90016 0.53887 0.81686 0.0
C2209 C 0.90464 0.51756 0.81364 0.0
C2210 C 0.91384 0.55174 0.82857 0.0
C2211 C 0.93254 0.54361 0.83658 0.0
C2212 C 0.93614 0.52194 0.83482 0.0
H2213 H 0.0577 0.56603 0.85609 0.0
H2214 H 0.02099 0.55454 0.85705 0.0
C2215 C 0.92219 0.50895 0.82355 0.0
C2216 C 0.94958 0.55776 0.84441 0.0
H2217 H 0.98512 0.59493 0.82763 0.0
C2218 C 0.95836 0.55387 0.86424 0.0
C2219 C 0.95897 0.57326 0.83126 0.0
C2220 C 0.95099 0.57756 0.80935 0.0
C2221 C 0.97694 0.5642 0.87077 0.0
C2222 C 0.98686 0.57875 0.85714 0.0
C2223 C 0.97729 0.58382 0.83805 0.0
C2224 C 0.00881 0.58591 0.86034 0.0
C2225 C 0.98637 0.55879 0.89176 0.0
C2226 C 0.01408 0.60741 0.86183 0.0
C2227 C 0.03517 0.61407 0.86131 0.0
C2228 C 0.05113 0.59931 0.85874 0.0
C2229 C 0.04573 0.57779 0.85783 0.0
C2230 C 0.02478 0.57116 0.85868 0.0
H2231 H 0.97421 0.55267 0.90278 0.0
H2232 H -0.00182 0.54637 0.88954 0.0
H2233 H -0.0056 0.57272 0.89895 0.0
H2234 H 0.00188 0.619 0.86278 0.0
H2235 H 0.03891 0.63075 0.86205 0.0
H2236 H 0.18881 0.15464 0.5078 0.0
H2237 H 0.16893 0.17453 0.53342 0.0
H2238 H 0.22028 0.17055 0.57759 0.0
H2239 H 0.24085 0.15171 0.55128 0.0
H2240 H 0.15409 0.16998 0.57202 0.0
H2241 H 0.21693 0.23251 0.5724 0.0
H2242 H 0.21767 0.21052 0.55459 0.0
H2243 H 0.22424 0.20715 0.58187 0.0
C2244 C 0.19583 0.1579 0.52301 0.0
C2245 C 0.21651 0.1521 0.52742 0.0
C2246 C 0.18439 0.16913 0.53774 0.0
C2247 C 0.19327 0.17446 0.5573 0.0
C2248 C 0.21336 0.16721 0.56237 0.0
H2249 H 0.11218 0.26907 0.61909 0.0
H2250 H 0.13094 0.23551 0.618 0.0
C2251 C 0.22506 0.15642 0.54737 0.0
C2252 C 0.18214 0.1895 0.57096 0.0
H2253 H 0.18458 0.24095 0.58625 0.0
C2254 C 0.16086 0.18536 0.57563 0.0
C2255 C 0.19109 0.20953 0.57584 0.0
C2256 C 0.21367 0.21534 0.57085 0.0
C2257 C 0.1478 0.20135 0.58288 0.0
C2258 C 0.15643 0.22173 0.58594 0.0
C2259 C 0.17812 0.22522 0.58368 0.0
C2260 C 0.14312 0.24045 0.58666 0.0
C2261 C 0.12458 0.19693 0.58537 0.0
C2262 C 0.14353 0.25395 0.56931 0.0
C2263 C 0.13319 0.27295 0.56998 0.0
C2264 C 0.12202 0.27879 0.58795 0.0
C2265 C 0.12061 0.2648 0.605 0.0
C2266 C 0.13129 0.24572 0.60442 0.0
H2267 H 0.12031 0.1802 0.58217 0.0
H2268 H 0.1197 0.20088 0.6016 0.0
H2269 H 0.11561 0.20701 0.57447 0.0
H2270 H 0.15245 0.25003 0.5554 0.0
H2271 H 0.13436 0.28335 0.55656 0.0
H2272 H 0.06756 -0.00049 0.83342 0.0
H2273 H 0.04232 -0.00634 0.86202 0.0
H2274 H 0.0322 0.92972 0.84062 0.0
H2275 H 0.05767 0.93515 0.813 0.0
H2276 H 0.0031 0.98677 0.85861 0.0
H2277 H 0.03123 0.91875 0.90127 0.0
H2278 H 0.04851 0.93384 0.88431 0.0
H2279 H 0.03326 0.91171 0.87417 0.0
C2280 C 0.06021 0.98411 0.83519 0.0
C2281 C 0.0645 0.96779 0.82098 0.0
C2282 C 0.04591 0.98075 0.85157 0.0
C2283 C 0.03576 0.96106 0.8539 0.0
C2284 C 0.04043 0.94477 0.83985 0.0
H2285 H 0.91712 0.92583 0.84367 0.0
H2286 H 0.95082 0.94425 0.84711 0.0
C2287 C 0.05479 0.94801 0.82375 0.0
C2288 C 0.0178 0.95806 0.86837 0.0
H2289 H -0.00769 0.91704 0.892 0.0
C2290 C 0.00097 0.97188 0.86667 0.0
C2291 C 0.01505 0.93924 0.87993 0.0
C2292 C 0.03317 0.92526 0.88521 0.0
C2293 C 0.98076 0.96569 0.87308 0.0
C2294 C 0.97733 0.94493 0.88043 0.0
C2295 C -0.00531 0.93262 0.88542 0.0
C2296 C 0.95633 0.93453 0.87926 0.0
C2297 C 0.96312 0.98099 0.87059 0.0
C2298 C 0.94871 0.92189 0.89571 0.0
C2299 C 0.92973 0.91066 0.89343 0.0
C2300 C 0.91805 0.91208 0.87473 0.0
C2301 C 0.92574 0.92463 0.8583 0.0
C2302 C 0.94484 0.93546 0.86042 0.0
H2303 H 0.96864 -0.00283 0.87471 0.0
H2304 H 0.95801 0.98125 0.85391 0.0
H2305 H 0.94944 0.97675 0.88061 0.0
H2306 H 0.95745 0.92067 0.91026 0.0
H2307 H 0.92399 0.90122 0.90643 0.0
H2308 H 0.75184 0.33133 0.43238 0.0
H2309 H 0.73553 0.30447 0.40949 0.0
H2310 H 0.69106 0.2889 0.45833 0.0
H2311 H 0.70671 0.31584 0.48087 0.0
H2312 H 0.73222 0.26321 0.41446 0.0
H2313 H 0.65222 0.29394 0.40926 0.0
H2314 H 0.67406 0.3097 0.41904 0.0
H2315 H 0.65968 0.29222 0.43632 0.0
C2316 C 0.73847 0.32227 0.43813 0.0
C2317 C 0.73048 0.32581 0.45838 0.0
C2318 C 0.72914 0.307 0.42503 0.0
C2319 C 0.71171 0.29509 0.432 0.0
C2320 C 0.70399 0.29842 0.45231 0.0
H2321 H 0.67407 0.17001 0.41808 0.0
H2322 H 0.6918 0.20392 0.42298 0.0
C2323 C 0.71312 0.31372 0.46528 0.0
C2324 C 0.70237 0.27799 0.41896 0.0
H2325 H 0.65491 0.25568 0.40613 0.0
C2326 C 0.71535 0.26177 0.41216 0.0
C2327 C 0.68046 0.27637 0.4153 0.0
C2328 C 0.66589 0.29415 0.42016 0.0
C2329 C 0.70679 0.24314 0.40359 0.0
C2330 C 0.68468 0.24047 0.4025 0.0
C2331 C 0.67185 0.25747 0.40744 0.0
C2332 C 0.67452 0.21968 0.39846 0.0
C2333 C 0.72155 0.22636 0.39631 0.0
C2334 C 0.65825 0.21739 0.38363 0.0
C2335 C 0.64765 0.19806 0.38118 0.0
C2336 C 0.65324 0.18067 0.39344 0.0
C2337 C 0.66955 0.18302 0.40822 0.0
C2338 C 0.67989 0.20237 0.41086 0.0
H2339 H 0.7364 0.2335 0.39023 0.0
H2340 H 0.72571 0.21626 0.40982 0.0
H2341 H 0.71436 0.21633 0.38381 0.0
H2342 H 0.65368 0.2306 0.37406 0.0
H2343 H 0.6352 0.19669 0.36959 0.0
H2344 H 0.93093 0.43561 0.73137 0.0
H2345 H 0.95521 0.42664 0.70336 0.0
H2346 H 0.93759 0.48183 0.6689 0.0
H2347 H 0.91308 0.49114 0.69699 0.0
H2348 H 0.93904 0.43311 0.64845 0.0
H2349 H 0.00982 0.46917 0.68665 0.0
H2350 H -0.00885 0.45599 0.70358 0.0
H2351 H 0.98376 0.47944 0.69006 0.0
C2352 C 0.93219 0.44593 0.71791 0.0
C2353 C 0.9201 0.46413 0.71644 0.0
C2354 C 0.94602 0.44073 0.70192 0.0
C2355 C 0.948 0.45357 0.68419 0.0
C2356 C 0.93609 0.47176 0.68254 0.0
H2357 H 0.05722 0.41839 0.61221 0.0
H2358 H 0.02774 0.44047 0.62162 0.0
C2359 C 0.92223 0.47706 0.69862 0.0
C2360 C 0.96301 0.44775 0.6678 0.0
H2361 H 0.01559 0.44311 0.66066 0.0
C2362 C 0.9558 0.43568 0.65069 0.0
C2363 C 0.98471 0.45144 0.67075 0.0
C2364 C -0.00705 0.46484 0.68866 0.0
C2365 C 0.97001 0.42587 0.6372 0.0
C2366 C -0.0082 0.42794 0.64135 0.0
C2367 C -0.00111 0.44141 0.65752 0.0
C2368 C 0.00747 0.41449 0.63111 0.0
C2369 C 0.96153 0.41292 0.61908 0.0
C2370 C 0.00561 0.39248 0.63272 0.0
C2371 C 0.02238 0.3798 0.62719 0.0
C2372 C 0.0414 0.38898 0.6204 0.0
C2373 C 0.04281 0.4109 0.61769 0.0
C2374 C 0.02596 0.42353 0.62293 0.0
H2375 H 0.94649 0.4193 0.61323 0.0
H2376 H 0.97289 0.41241 0.60589 0.0
H2377 H 0.9583 0.3966 0.6245 0.0
H2378 H -0.00829 0.38517 0.63952 0.0
H2379 H 0.02089 0.36296 0.62948 0.0
H2380 H 0.58994 0.54268 0.19114 0.0
H2381 H 0.56931 0.55683 0.16238 0.0
H2382 H 0.55623 0.49394 0.13958 0.0
H2383 H 0.57619 0.47955 0.16897 0.0
H2384 H 0.5638 0.55519 0.11852 0.0
H2385 H 0.49978 0.51267 0.16181 0.0
H2386 H 0.52612 0.51482 0.17204 0.0
H2387 H 0.52008 0.4968 0.15095 0.0
C2388 C 0.58313 0.53186 0.17972 0.0
C2389 C 0.58406 0.51001 0.18263 0.0
C2390 C 0.57148 0.53999 0.16317 0.0
C2391 C 0.56082 0.52638 0.14922 0.0
C2392 C 0.56398 0.50465 0.15052 0.0
H2393 H 0.44022 0.56759 0.10555 0.0
H2394 H 0.47232 0.54745 0.10231 0.0
C2395 C 0.57533 0.49647 0.16731 0.0
C2396 C 0.54341 0.53477 0.1366 0.0
H2397 H 0.49005 0.53723 0.13723 0.0
C2398 C 0.54762 0.55098 0.12217 0.0
C2399 C 0.52232 0.52924 0.14147 0.0
C2400 C 0.51668 0.51256 0.15749 0.0
C2401 C 0.53127 0.56255 0.11332 0.0
C2402 C 0.51033 0.55791 0.11934 0.0
C2403 C 0.50612 0.54073 0.13255 0.0
C2404 C 0.49269 0.57208 0.11495 0.0
C2405 C 0.53662 0.58 0.09816 0.0
C2406 C 0.49363 0.59298 0.12223 0.0
C2407 C 0.47531 0.60462 0.12383 0.0
C2408 C 0.45582 0.59529 0.11868 0.0
C2409 C 0.45509 0.57497 0.10997 0.0
C2410 C 0.47342 0.56354 0.10793 0.0
H2411 H 0.55094 0.5763 0.08902 0.0
H2412 H 0.52349 0.58284 0.08707 0.0
H2413 H 0.53998 0.5947 0.1071 0.0
H2414 H 0.50819 0.59975 0.12826 0.0
H2415 H 0.47621 0.62028 0.13057 0.0
H2416 H 0.56895 0.74684 0.82518 0.0
H2417 H 0.59769 0.73951 0.80089 0.0
H2418 H 0.5739 0.676 0.793 0.0
H2419 H 0.54502 0.68321 0.81695 0.0
H2420 H 0.62413 0.68678 0.79209 0.0
H2421 H 0.57015 0.72949 0.73853 0.0
H2422 H 0.57745 0.74031 0.76376 0.0
H2423 H 0.56006 0.71782 0.76233 0.0
C2424 C 0.57026 0.7311 0.81883 0.0
C2425 C 0.55455 0.71568 0.82257 0.0
C2426 C 0.58673 0.72695 0.80505 0.0
C2427 C 0.58774 0.70729 0.79518 0.0
C2428 C 0.57335 0.69125 0.80061 0.0
H2429 H 0.61483 0.62333 0.70588 0.0
H2430 H 0.61614 0.64538 0.737 0.0
C2431 C 0.55679 0.69543 0.81416 0.0
C2432 C 0.60044 0.70446 0.77616 0.0
H2433 H 0.59369 0.70637 0.72326 0.0
C2434 C 0.61799 0.69156 0.77697 0.0
C2435 C 0.59263 0.71116 0.75657 0.0
C2436 C 0.57405 0.72549 0.75504 0.0
C2437 C 0.62681 0.68363 0.75847 0.0
C2438 C 0.61711 0.688 0.73895 0.0
C2439 C 0.60103 0.70276 0.73817 0.0
C2440 C 0.62028 0.67473 0.72008 0.0
C2441 C 0.64582 0.66997 0.76016 0.0
C2442 C 0.62162 0.68378 0.69999 0.0
C2443 C 0.62001 0.67115 0.68203 0.0
C2444 C 0.61736 0.64925 0.6839 0.0
C2445 C 0.61701 0.64016 0.70396 0.0
C2446 C 0.61813 0.65278 0.72183 0.0
H2447 H 0.65664 0.67608 0.77258 0.0
H2448 H 0.64079 0.65384 0.76485 0.0
H2449 H 0.65454 0.66914 0.74511 0.0
H2450 H 0.62308 0.70069 0.69821 0.0
H2451 H 0.62056 0.67852 0.66672 0.0
H2452 H 0.50423 0.34415 0.09292 0.0
H2453 H 0.52803 0.35204 0.06373 0.0
H2454 H 0.55183 0.28907 0.06685 0.0
H2455 H 0.52893 0.2814 0.09655 0.0
H2456 H 0.58205 0.31649 0.05457 0.0
H2457 H 0.50908 0.32801 0.0082 0.0
H2458 H 0.51258 0.34627 0.0295 0.0
H2459 H 0.5086 0.3187 0.03487 0.0
C2460 C 0.51494 0.33218 0.08772 0.0
C2461 C 0.51442 0.31203 0.09672 0.0
C2462 C 0.52843 0.33667 0.07098 0.0
C2463 C 0.54113 0.32089 0.06269 0.0
C2464 C 0.542 0.30141 0.07288 0.0
H2465 H 0.5701 0.30274 0.93305 0.0
H2466 H 0.55811 0.30056 0.96939 0.0
C2467 C 0.52885 0.29705 0.08986 0.0
C2468 C 0.55154 0.32358 0.04209 0.0
H2469 H 0.54102 0.3315 -0.00978 0.0
C2470 C 0.57315 0.31988 0.04048 0.0
C2471 C 0.53975 0.32758 0.02369 0.0
C2472 C 0.5162 0.33017 0.02403 0.0
C2473 C 0.58326 0.31978 0.0209 0.0
C2474 C 0.57148 0.32405 0.00258 0.0
C2475 C 0.55 0.32821 0.00429 0.0
C2476 C 0.58069 0.32365 0.98127 0.0
C2477 C 0.60619 0.31427 0.01998 0.0
C2478 C 0.59763 0.33703 0.97596 0.0
C2479 C 0.60476 0.338 0.95525 0.0
C2480 C 0.59471 0.32597 0.93945 0.0
C2481 C 0.57806 0.31226 0.94489 0.0
C2482 C 0.57121 0.31102 0.96563 0.0
H2483 H 0.6112 0.30567 0.03425 0.0
H2484 H 0.60955 0.30446 0.00598 0.0
H2485 H 0.61583 0.32897 0.01897 0.0
H2486 H 0.60484 0.3473 0.98762 0.0
H2487 H 0.61749 0.3489 0.95145 0.0
H2488 H 0.97963 0.28651 0.29633 0.0
H2489 H 0.9524 0.30669 0.27882 0.0
H2490 H 0.91515 0.24986 0.27 0.0
H2491 H 0.94196 0.22973 0.28813 0.0
H2492 H 0.93687 0.30425 0.24038 0.0
H2493 H 0.87267 0.28744 0.29672 0.0
H2494 H 0.89971 0.28132 0.3022 0.0
H2495 H 0.88363 0.26382 0.28637 0.0
C2496 C 0.96571 0.27831 0.2905 0.0
C2497 C 0.96281 0.25659 0.29366 0.0
C2498 C 0.95012 0.28986 0.28066 0.0
C2499 C 0.93149 0.27985 0.27373 0.0
C2500 C 0.92906 0.258 0.27594 0.0
H2501 H 0.84654 0.31361 0.17957 0.0
H2502 H 0.86305 0.29514 0.20861 0.0
C2503 C 0.94451 0.24649 0.28601 0.0
C2504 C 0.91501 0.29212 0.26331 0.0
H2505 H 0.86234 0.30172 0.26332 0.0
C2506 C 0.92066 0.30394 0.24559 0.0
C2507 C 0.89387 0.29181 0.27028 0.0
C2508 C 0.88715 0.28059 0.29007 0.0
C2509 C 0.9056 0.31479 0.23414 0.0
C2510 C 0.88436 0.3136 0.24049 0.0
C2511 C 0.87868 0.30237 0.25853 0.0
C2512 C 0.86805 0.32312 0.22747 0.0
C2513 C 0.91233 0.32703 0.21492 0.0
C2514 C 0.86416 0.34465 0.22933 0.0
C2515 C 0.85467 0.35527 0.21279 0.0
C2516 C 0.84932 0.34443 0.19417 0.0
C2517 C 0.85079 0.3224 0.1936 0.0
C2518 C 0.86012 0.3118 0.2102 0.0
H2519 H 0.9296 0.32682 0.21246 0.0
H2520 H 0.90445 0.32032 0.20078 0.0
H2521 H 0.90747 0.34364 0.21643 0.0
H2522 H 0.87029 0.35355 0.24261 0.0
H2523 H 0.85366 0.37224 0.21373 0.0
H2524 H 0.90806 0.75249 0.57535 0.0
H2525 H 0.89352 0.73014 0.54742 0.0
H2526 H 0.94819 0.69123 0.55035 0.0
H2527 H 0.96265 0.71318 0.57859 0.0
H2528 H 0.91236 0.72627 0.50998 0.0
H2529 H 0.9013 0.64735 0.54535 0.0
H2530 H 0.90494 0.67091 0.56099 0.0
H2531 H 0.92723 0.65815 0.54965 0.0
C2532 C 0.91684 0.73897 0.5703 0.0
C2533 C 0.93659 0.73469 0.57906 0.0
C2534 C 0.90846 0.72618 0.55441 0.0
C2535 C 0.91967 0.70891 0.54699 0.0
C2536 C 0.93905 0.70417 0.55618 0.0
H2537 H 0.92215 0.66003 0.42237 0.0
H2538 H 0.92966 0.67378 0.45744 0.0
C2539 C 0.94738 0.71687 0.5722 0.0
C2540 C 0.91244 0.69758 0.52794 0.0
H2541 H 0.9022 0.6487 0.50756 0.0
C2542 C 0.90986 0.70934 0.50954 0.0
C2543 C 0.90909 0.67552 0.52745 0.0
C2544 C 0.91057 0.66227 0.54698 0.0
C2545 C 0.90473 0.69956 0.49047 0.0
C2546 C 0.90249 0.67743 0.48975 0.0
C2547 C 0.90426 0.66566 0.50823 0.0
C2548 C 0.89872 0.66644 0.46967 0.0
C2549 C 0.90192 0.71296 0.47117 0.0
C2550 C 0.87908 0.65708 0.46533 0.0
C2551 C 0.87467 0.64919 0.44527 0.0
C2552 C 0.88991 0.65056 0.42931 0.0
C2553 C 0.90997 0.65892 0.43418 0.0
C2554 C 0.91432 0.66678 0.45421 0.0
H2555 H 0.89946 0.72973 0.47526 0.0
H2556 H 0.91623 0.71211 0.46131 0.0
H2557 H 0.88835 0.70716 0.46164 0.0
H2558 H 0.8669 0.65668 0.47719 0.0
H2559 H 0.85911 0.64273 0.44211 0.0
H2560 H 0.51091 0.25721 0.65855 0.0
H2561 H 0.53028 0.2723 0.68832 0.0
H2562 H 0.50389 0.33295 0.6757 0.0
H2563 H 0.48397 0.31788 0.64622 0.0
H2564 H 0.55956 0.30456 0.69159 0.0
H2565 H 0.48717 0.32281 0.7363 0.0
H2566 H 0.48669 0.30656 0.71304 0.0
H2567 H 0.48878 0.33471 0.71082 0.0
C2568 C 0.50927 0.27378 0.66205 0.0
C2569 C 0.4957 0.2863 0.65021 0.0
C2570 C 0.52039 0.28238 0.67903 0.0
C2571 C 0.51822 0.30363 0.68439 0.0
C2572 C 0.50538 0.31639 0.67209 0.0
H2573 H 0.58018 0.37088 0.78856 0.0
H2574 H 0.56618 0.36255 0.75354 0.0
C2575 C 0.49407 0.30776 0.65523 0.0
C2576 C 0.52888 0.31211 0.70332 0.0
H2577 H 0.51954 0.33256 0.75195 0.0
C2578 C 0.55085 0.31084 0.70472 0.0
C2579 C 0.51739 0.32016 0.72046 0.0
C2580 C 0.4937 0.32101 0.72025 0.0
C2581 C 0.56159 0.31715 0.723 0.0
C2582 C 0.55006 0.32495 0.74009 0.0
C2583 C 0.52822 0.32669 0.73859 0.0
C2584 C 0.56011 0.32972 0.76039 0.0
C2585 C 0.5851 0.31499 0.7243 0.0
C2586 C 0.56133 0.31389 0.77554 0.0
C2587 C 0.56916 0.31855 0.79551 0.0
C2588 C 0.57591 0.33915 0.80062 0.0
C2589 C 0.57514 0.35486 0.78512 0.0
C2590 C 0.56718 0.35018 0.76515 0.0
H2591 H 0.59197 0.30979 0.70917 0.0
H2592 H 0.59253 0.33026 0.72895 0.0
H2593 H 0.58898 0.30335 0.73661 0.0
H2594 H 0.55584 0.29802 0.77202 0.0
H2595 H 0.56968 0.30604 0.807 0.0
H2596 H 0.9506 0.27111 0.94787 0.0
H2597 H 0.93239 0.29456 0.97189 0.0
H2598 H 0.96179 0.34841 0.94209 0.0
H2599 H 0.98054 0.32502 0.9184 0.0
H2600 H 0.96354 0.35186 0.98374 0.0
H2601 H 0.88234 0.33044 0.9602 0.0
H2602 H 0.8966 0.30749 0.9673 0.0
H2603 H 0.90486 0.32289 0.94497 0.0
C2604 C 0.95311 0.28795 0.9464 0.0
C2605 C 0.9669 0.29626 0.93125 0.0
C2606 C 0.94257 0.30133 0.95999 0.0
C2607 C 0.94536 0.32324 0.95841 0.0
C2608 C 0.95928 0.33156 0.94342 0.0
H2609 H 0.86078 0.39004 0.0421 0.0
H2610 H 0.88057 0.38373 0.00988 0.0
C2611 C 0.96999 0.31818 0.92995 0.0
C2612 C 0.93449 0.33731 0.97315 0.0
H2613 H 0.88655 0.3459 -0.00522 0.0
C2614 C 0.94665 0.35089 0.9859 0.0
C2615 C 0.91241 0.33652 0.97553 0.0
C2616 C 0.8983 0.32372 0.96108 0.0
C2617 C 0.93745 0.36249 0.00208 0.0
C2618 C 0.91567 0.35996 0.00587 0.0
C2619 C 0.90331 0.34764 -0.00793 0.0
C2620 C 0.9058 0.36751 0.02541 0.0
C2621 C 0.95127 0.37693 0.01522 0.0
C2622 C 0.91367 0.3609 0.04483 0.0
C2623 C 0.90254 0.36459 0.06322 0.0
C2624 C 0.88305 0.37462 0.06253 0.0
C2625 C 0.87568 0.38218 0.04318 0.0
C2626 C 0.88696 0.3786 0.02475 0.0
H2627 H 0.96443 0.38358 0.00573 0.0
H2628 H 0.94228 0.39008 0.02202 0.0
H2629 H 0.95828 0.36781 0.02822 0.0
H2630 H 0.92785 0.3518 0.04571 0.0
H2631 H 0.90874 0.35855 0.07781 0.0
H2632 H 0.96799 0.69836 0.14288 0.0
H2633 H 0.95337 0.67657 0.17079 0.0
H2634 H 0.89286 0.70475 0.16201 0.0
H2635 H 0.90763 0.72727 0.13447 0.0
H2636 H 0.90423 0.70722 0.20111 0.0
H2637 H 0.91631 0.62555 0.17541 0.0
H2638 H 0.94051 0.64027 0.17354 0.0
H2639 H 0.9184 0.64747 0.15752 0.0
C2640 C 0.95146 0.69965 0.14658 0.0
C2641 C 0.939 0.71466 0.13662 0.0
C2642 C 0.94305 0.68699 0.16241 0.0
C2643 C 0.92192 0.68878 0.16826 0.0
C2644 C 0.90917 0.70305 0.15764 0.0
H2645 H 0.87867 0.61397 0.27616 0.0
H2646 H 0.88203 0.62734 0.24033 0.0
C2647 C 0.91765 0.71594 0.14198 0.0
C2648 C 0.91418 0.67802 0.18737 0.0
H2649 H 0.91535 0.63123 0.21338 0.0
C2650 C 0.90623 0.69051 0.2036 0.0
C2651 C 0.91644 0.65617 0.19055 0.0
C2652 C 0.92316 0.6416 0.17319 0.0
C2653 C 0.90181 0.68201 0.22336 0.0
C2654 C 0.90608 0.66062 0.22713 0.0
C2655 C 0.9126 0.64777 0.21054 0.0
C2656 C 0.90486 0.6517 0.24846 0.0
C2657 C 0.89297 0.69615 0.2401 0.0
C2658 C 0.91714 0.66056 0.26466 0.0
C2659 C 0.91519 0.6531 0.28512 0.0
C2660 C 0.90116 0.6364 0.28966 0.0
C2661 C 0.88962 0.62687 0.27318 0.0
C2662 C 0.89146 0.63449 0.25272 0.0
H2663 H 0.8843 0.70941 0.23307 0.0
H2664 H 0.88219 0.68731 0.25073 0.0
H2665 H 0.90607 0.70296 0.24962 0.0
H2666 H 0.92803 0.67348 0.26152 0.0
H2667 H 0.92449 0.6606 0.2974 0.0
H2668 H 0.52001 0.67827 0.39519 0.0
H2669 H 0.53367 0.64914 0.41588 0.0
H2670 H 0.56759 0.69352 0.45535 0.0
H2671 H 0.55464 0.72256 0.43436 0.0
H2672 H 0.58969 0.65786 0.4483 0.0
H2673 H 0.50762 0.63799 0.47272 0.0
H2674 H 0.51331 0.63633 0.44517 0.0
H2675 H 0.51403 0.66148 0.45813 0.0
C2676 C 0.53069 0.68176 0.40806 0.0
C2677 C 0.53603 0.70268 0.4134 0.0
C2678 C 0.53838 0.66511 0.4199 0.0
C2679 C 0.5512 0.66922 0.43743 0.0
C2680 C 0.55763 0.69002 0.44191 0.0
H2681 H 0.56494 0.63787 0.5593 0.0
H2682 H 0.55278 0.64448 0.52379 0.0
C2683 C 0.55019 0.70662 0.42993 0.0
C2684 C 0.55651 0.65245 0.45246 0.0
H2685 H 0.53473 0.62247 0.49139 0.0
C2686 C 0.57774 0.6497 0.45747 0.0
C2687 C 0.54078 0.64185 0.4643 0.0
C2688 C 0.51765 0.64457 0.45998 0.0
C2689 C 0.58366 0.63816 0.47517 0.0
C2690 C 0.56785 0.62863 0.48777 0.0
C2691 C 0.54674 0.62979 0.48163 0.0
C2692 C 0.57251 0.62124 0.50924 0.0
C2693 C 0.60662 0.63788 0.4812 0.0
C2694 C 0.58687 0.60523 0.51296 0.0
C2695 C 0.59413 0.60159 0.53333 0.0
C2696 C 0.5869 0.61374 0.55027 0.0
C2697 C 0.57103 0.62836 0.54664 0.0
C2698 C 0.56399 0.63212 0.52631 0.0
H2699 H 0.6164 0.64858 0.47131 0.0
H2700 H 0.60876 0.64259 0.49788 0.0
H2701 H 0.61257 0.6217 0.4793 0.0
H2702 H 0.59321 0.59629 0.50003 0.0
H2703 H 0.6061 0.58994 0.53564 0.0
H2704 H 0.83956 0.57403 0.73901 0.0
H2705 H 0.81318 0.59558 0.72191 0.0
H2706 H 0.81342 0.5544 0.66803 0.0
H2707 H 0.83974 0.53272 0.68494 0.0
H2708 H 0.80391 0.60367 0.66271 0.0
H2709 H 0.75697 0.55538 0.71951 0.0
H2710 H 0.77965 0.56992 0.72897 0.0
H2711 H 0.783 0.54797 0.71164 0.0
C2712 C 0.8346 0.57001 0.72319 0.0
C2713 C 0.84124 0.55138 0.71352 0.0
C2714 C 0.81964 0.58242 0.71342 0.0
C2715 C 0.81131 0.57636 0.69389 0.0
C2716 C 0.81978 0.55928 0.68312 0.0
H2717 H 0.70422 0.58518 0.61529 0.0
H2718 H 0.73974 0.58553 0.62994 0.0
C2719 C 0.83469 0.54682 0.69288 0.0
C2720 C 0.79079 0.58418 0.68714 0.0
H2721 H 0.73859 0.57467 0.69483 0.0
C2722 C 0.78955 0.59769 0.66987 0.0
C2723 C 0.77223 0.57629 0.69664 0.0
C2724 C 0.77283 0.56152 0.71517 0.0
C2725 C 0.76998 0.60319 0.6615 0.0
C2726 C 0.75141 0.59433 0.67031 0.0
C2727 C 0.7528 0.58148 0.68809 0.0
C2728 C 0.73042 0.59666 0.66067 0.0
C2729 C 0.76944 0.61832 0.64332 0.0
C2730 C 0.71329 0.60226 0.6732 0.0
C2731 C 0.69294 0.60133 0.66508 0.0
C2732 C 0.68938 0.59507 0.64419 0.0
C2733 C 0.70657 0.59011 0.63144 0.0
C2734 C 0.7269 0.59061 0.63971 0.0
H2735 H 0.78323 0.62932 0.64371 0.0
H2736 H 0.77011 0.60934 0.62838 0.0
H2737 H 0.75487 0.62765 0.64338 0.0
H2738 H 0.71563 0.60685 0.68945 0.0
H2739 H 0.67998 0.60554 0.67516 0.0
H2740 H 0.74682 0.55151 0.92513 0.0
H2741 H 0.7246 0.52067 0.91736 0.0
H2742 H 0.69898 0.52289 0.97995 0.0
H2743 H 0.72076 0.55403 0.98774 0.0
H2744 H 0.72324 0.48222 0.93621 0.0
H2745 H 0.64631 0.52125 0.94369 0.0
H2746 H 0.67089 0.53582 0.94227 0.0
H2747 H 0.66287 0.52364 0.96647 0.0
C2748 C 0.73646 0.54546 0.93725 0.0
C2749 C 0.73545 0.5553 0.957 0.0
C2750 C 0.72377 0.52785 0.93278 0.0
C2751 C 0.7099 0.51976 0.94797 0.0
C2752 C 0.70921 0.52922 0.96786 0.0
H2753 H 0.65219 0.39502 0.93032 0.0
H2754 H 0.66979 0.42545 0.94667 0.0
C2755 C 0.72177 0.54693 0.9723 0.0
C2756 C 0.69645 0.50119 0.94297 0.0
H2757 H 0.64539 0.48443 0.93803 0.0
C2758 C 0.70622 0.48265 0.93667 0.0
C2759 C 0.67426 0.50194 0.94345 0.0
C2760 C 0.66291 0.52177 0.94915 0.0
C2761 C 0.6944 0.46485 0.93053 0.0
C2762 C 0.6722 0.46549 0.93126 0.0
C2763 C 0.66241 0.48395 0.93778 0.0
C2764 C 0.65897 0.4477 0.9236 0.0
C2765 C 0.70579 0.44584 0.92251 0.0
C2766 C 0.64605 0.45042 0.90599 0.0
C2767 C 0.63576 0.43316 0.89676 0.0
C2768 C 0.63832 0.41284 0.90493 0.0
C2769 C 0.65014 0.41041 0.92344 0.0
C2770 C 0.66028 0.42774 0.93277 0.0
H2771 H 0.72241 0.44967 0.91848 0.0
H2772 H 0.70578 0.43356 0.93485 0.0
H2773 H 0.69787 0.43915 0.90836 0.0
H2774 H 0.64473 0.46576 0.89878 0.0
H2775 H 0.6267 0.43564 0.88259 0.0
H2776 H 0.60996 0.42386 0.2058 0.0
H2777 H 0.62988 0.40239 0.18133 0.0
H2778 H 0.67431 0.38901 0.23064 0.0
H2779 H 0.65386 0.40952 0.25529 0.0
H2780 H 0.66597 0.41686 0.17132 0.0
H2781 H 0.67875 0.33618 0.19808 0.0
H2782 H 0.65755 0.3517 0.20822 0.0
H2783 H 0.68344 0.35349 0.21988 0.0
C2784 C 0.62353 0.4156 0.21156 0.0
C2785 C 0.63064 0.41854 0.23229 0.0
C2786 C 0.63483 0.40327 0.19761 0.0
C2787 C 0.65362 0.39405 0.20407 0.0
C2788 C 0.65963 0.39547 0.22531 0.0
H2789 H 0.77701 0.39373 0.17882 0.0
H2790 H 0.74059 0.38907 0.18965 0.0
C2791 C 0.64805 0.40742 0.2394 0.0
C2792 C 0.66928 0.38772 0.18823 0.0
H2793 H 0.70975 0.35408 0.18145 0.0
C2794 C 0.67504 0.40269 0.17298 0.0
C2795 C 0.68108 0.36923 0.19022 0.0
C2796 C 0.67466 0.35169 0.20487 0.0
C2797 C 0.69358 0.40086 0.16144 0.0
C2798 C 0.70657 0.38353 0.1652 0.0
C2799 C 0.69981 0.36749 0.17884 0.0
C2800 C 0.7286 0.38392 0.1582 0.0
C2801 C 0.70016 0.41845 0.14683 0.0
C2802 C 0.73382 0.3825 0.1369 0.0
C2803 C 0.75468 0.38537 0.13056 0.0
C2804 C 0.77058 0.38969 0.14549 0.0
C2805 C 0.76521 0.39062 0.16687 0.0
C2806 C 0.74442 0.38774 0.17313 0.0
H2807 H 0.68888 0.43156 0.14686 0.0
H2808 H 0.7159 0.42481 0.15138 0.0
H2809 H 0.70128 0.41227 0.13056 0.0
H2810 H 0.72173 0.37951 0.12519 0.0
H2811 H 0.75831 0.38429 0.11399 0.0
H2812 H 0.73695 0.42852 0.45531 0.0
H2813 H 0.75478 0.45634 0.43498 0.0
H2814 H 0.7996 0.4656 0.48528 0.0
H2815 H 0.78232 0.43762 0.5053 0.0
H2816 H 0.76336 0.49791 0.44281 0.0
H2817 H 0.83744 0.45443 0.4356 0.0
H2818 H 0.81334 0.44219 0.44473 0.0
H2819 H 0.82964 0.45746 0.46246 0.0
C2820 C 0.7505 0.43664 0.46204 0.0
C2821 C 0.75845 0.43078 0.48172 0.0
C2822 C 0.76069 0.45243 0.45042 0.0
C2823 C 0.77884 0.46254 0.45842 0.0
C2824 C 0.78602 0.45749 0.47856 0.0
H2825 H 0.83513 0.58055 0.42162 0.0
H2826 H 0.81739 0.5512 0.4393 0.0
C2827 C 0.77603 0.44163 0.49004 0.0
C2828 C 0.79044 0.47839 0.44584 0.0
H2829 H 0.83941 0.49125 0.42768 0.0
C2830 C 0.77993 0.49639 0.43931 0.0
C2831 C 0.81195 0.47612 0.44092 0.0
C2832 C 0.82369 0.45639 0.44609 0.0
C2833 C 0.79059 0.51265 0.42869 0.0
C2834 C 0.81244 0.51101 0.42509 0.0
C2835 C 0.82275 0.49262 0.43085 0.0
C2836 C 0.82487 0.52827 0.4154 0.0
C2837 C 0.77831 0.53131 0.42132 0.0
C2838 C 0.83608 0.52477 0.39682 0.0
C2839 C 0.84661 0.54143 0.38688 0.0
C2840 C 0.84595 0.56186 0.39535 0.0
C2841 C 0.83567 0.56504 0.41457 0.0
C2842 C 0.82537 0.54834 0.42459 0.0
H2843 H 0.76133 0.52727 0.41951 0.0
H2844 H 0.77977 0.54412 0.43314 0.0
H2845 H 0.78434 0.53733 0.40609 0.0
H2846 H 0.83607 0.5093 0.38963 0.0
H2847 H 0.85437 0.53849 0.37208 0.0
H2848 H 0.80174 0.48333 0.7959 0.0
H2849 H 0.77153 0.46074 0.80482 0.0
H2850 H 0.78627 0.41926 0.75338 0.0
H2851 H 0.81704 0.44125 0.74502 0.0
H2852 H 0.73736 0.45014 0.78355 0.0
H2853 H 0.78187 0.37792 0.80038 0.0
H2854 H 0.79463 0.40318 0.79651 0.0
H2855 H 0.78587 0.38775 0.7743 0.0
C2856 C 0.79855 0.46935 0.78656 0.0
C2857 C 0.81181 0.46388 0.76994 0.0
C2858 C 0.78131 0.45647 0.79164 0.0
C2859 C 0.77691 0.43808 0.78002 0.0
C2860 C 0.78974 0.433 0.76296 0.0
H2861 H 0.6539 0.3777 0.80161 0.0
H2862 H 0.68428 0.39233 0.78277 0.0
C2863 C 0.80722 0.44565 0.75812 0.0
C2864 C 0.75874 0.42443 0.78576 0.0
H2865 H 0.7448 0.37466 0.80099 0.0
C2866 C 0.73896 0.43362 0.78732 0.0
C2867 C 0.76094 0.40291 0.79079 0.0
C2868 C 0.782 0.39238 0.79062 0.0
C2869 C 0.72139 0.42208 0.79436 0.0
C2870 C 0.72351 0.40048 0.79913 0.0
C2871 C 0.74319 0.39114 0.79704 0.0
C2872 C 0.70607 0.38799 0.80848 0.0
C2873 C 0.70105 0.43348 0.79763 0.0
C2874 C 0.70867 0.37917 0.82847 0.0
C2875 C 0.69152 0.3703 0.83902 0.0
C2876 C 0.67143 0.37037 0.82983 0.0
C2877 C 0.66916 0.37775 0.80918 0.0
C2878 C 0.68645 0.38624 0.79847 0.0
H2879 H 0.70354 0.45082 0.79815 0.0
H2880 H 0.69019 0.42981 0.78441 0.0
H2881 H 0.69334 0.42848 0.81247 0.0
H2882 H 0.72373 0.3802 0.83642 0.0
H2883 H 0.69377 0.36472 0.85491 0.0
H2884 H 0.81242 0.61431 0.03899 0.0
H2885 H 0.82939 0.59516 0.06736 0.0
H2886 H 0.85314 0.55088 0.02216 0.0
H2887 H 0.83716 0.57053 -0.00617 0.0
H2888 H 0.81451 0.55869 0.07523 0.0
H2889 H 0.89903 0.54821 0.06381 0.0
H2890 H 0.88504 0.56877 0.05055 0.0
H2891 H 0.88617 0.54268 0.03934 0.0
C2892 C 0.82201 0.60098 0.03509 0.0
C2893 C 0.82324 0.59366 0.0143 0.0
C2894 C 0.83176 0.5901 0.05129 0.0
C2895 C 0.84256 0.57154 0.04698 0.0
C2896 C 0.84539 0.56539 0.02596 0.0
H2897 H 0.84017 0.44833 0.07518 0.0
H2898 H 0.84569 0.48463 0.0641 0.0
C2899 C 0.83602 0.57654 0.00972 0.0
C2900 C 0.84632 0.55616 0.06396 0.0
H2901 H 0.87931 0.51681 0.0775 0.0
C2902 C 0.829 0.55007 0.07634 0.0
C2903 C 0.86519 0.5449 0.06555 0.0
C2904 C 0.88493 0.55171 0.05422 0.0
C2905 C 0.82927 0.53174 0.08843 0.0
C2906 C 0.84736 0.51929 0.08815 0.0
C2907 C 0.86537 0.52635 0.07743 0.0
C2908 C 0.84637 0.4974 0.09561 0.0
C2909 C 0.80957 0.52477 0.09983 0.0
C2910 C 0.84501 0.49267 0.11704 0.0
C2911 C 0.84171 0.47187 0.1235 0.0
C2912 C 0.83964 0.45557 0.10856 0.0
C2913 C 0.84146 0.46046 0.08711 0.0
C2914 C 0.84484 0.48117 0.08073 0.0
H2915 H 0.79649 0.53586 0.09762 0.0
H2916 H 0.80435 0.50896 0.09419 0.0
H2917 H 0.81291 0.52355 0.11689 0.0
H2918 H 0.84613 0.50509 0.1287 0.0
H2919 H 0.84054 0.46861 0.14014 0.0
H2920 H 0.67208 0.50041 0.306 0.0
H2921 H 0.70187 0.52436 0.31274 0.0
H2922 H 0.68378 0.56243 0.25997 0.0
H2923 H 0.65442 0.53819 0.25268 0.0
H2924 H 0.72454 0.55616 0.25946 0.0
H2925 H 0.70216 0.58166 0.33915 0.0
H2926 H 0.70344 0.55356 0.33768 0.0
H2927 H 0.68429 0.56717 0.32218 0.0
C2928 C 0.67439 0.51394 0.29591 0.0
C2929 C 0.6609 0.51743 0.27885 0.0
C2930 C 0.69131 0.5277 0.29987 0.0
C2931 C 0.69475 0.54544 0.28713 0.0
C2932 C 0.68132 0.54893 0.27007 0.0
H2933 H 0.79327 0.63136 0.33332 0.0
H2934 H 0.75963 0.62025 0.31784 0.0
C2935 C 0.66458 0.53503 0.26592 0.0
C2936 C 0.71296 0.55974 0.29104 0.0
H2937 H 0.73865 0.58678 0.32993 0.0
C2938 C 0.72747 0.56316 0.27477 0.0
C2939 C 0.71648 0.56938 0.31081 0.0
C2940 C 0.70062 0.56795 0.32835 0.0
C2941 C 0.74608 0.57485 0.27816 0.0
C2942 C 0.75051 0.58278 0.2985 0.0
C2943 C 0.73538 0.58049 0.31438 0.0
C2944 C 0.77144 0.59153 0.30435 0.0
C2945 C 0.76085 0.57836 0.25996 0.0
C2946 C 0.78934 0.57936 0.30143 0.0
C2947 C 0.80859 0.58575 0.31002 0.0
C2948 C 0.81022 0.60425 0.32212 0.0
C2949 C 0.79251 0.61696 0.32419 0.0
C2950 C 0.77328 0.61065 0.31535 0.0
H2951 H 0.75207 0.57896 0.24488 0.0
H2952 H 0.77022 0.59317 0.26181 0.0
H2953 H 0.77177 0.56501 0.25895 0.0
H2954 H 0.78822 0.56427 0.29351 0.0
H2955 H 0.82186 0.57552 0.30819 0.0
H2956 H 0.66094 0.37314 0.53835 0.0
H2957 H 0.63203 0.39135 0.55558 0.0
H2958 H 0.67714 0.42883 0.59092 0.0
H2959 H 0.70568 0.41003 0.57487 0.0
H2960 H 0.64259 0.42285 0.61318 0.0
H2961 H 0.61994 0.44771 0.53232 0.0
H2962 H 0.61728 0.42037 0.53891 0.0
H2963 H 0.643 0.43241 0.53669 0.0
C2964 C 0.66458 0.38489 0.55023 0.0
C2965 C 0.68556 0.39054 0.55493 0.0
C2966 C 0.64806 0.39537 0.55995 0.0
C2967 C 0.65241 0.41197 0.574 0.0
C2968 C 0.67332 0.41618 0.58004 0.0
H2969 H 0.64389 0.53385 0.58013 0.0
H2970 H 0.64218 0.49637 0.57261 0.0
C2971 C 0.68971 0.40547 0.57073 0.0
C2972 C 0.63625 0.42722 0.58031 0.0
H2973 H 0.61144 0.46962 0.5599 0.0
C2974 C 0.63521 0.43282 0.60163 0.0
C2975 C 0.62627 0.43997 0.56519 0.0
C2976 C 0.62665 0.43496 0.54199 0.0
C2977 C 0.6275 0.45239 0.60789 0.0
C2978 C 0.61979 0.46618 0.5924 0.0
C2979 C 0.61775 0.45909 0.5716 0.0
C2980 C 0.61865 0.48912 0.5962 0.0
C2981 C 0.6299 0.45897 0.63058 0.0
C2982 C 0.60575 0.49763 0.61176 0.0
C2983 C 0.60706 0.51915 0.61642 0.0
C2984 C 0.62096 0.53248 0.60526 0.0
C2985 C 0.63304 0.52403 0.58902 0.0
C2986 C 0.632 0.50258 0.58465 0.0
H2987 H 0.63839 0.44719 0.64005 0.0
H2988 H 0.63859 0.47426 0.63175 0.0
H2989 H 0.61414 0.46095 0.63761 0.0
H2990 H 0.59498 0.48764 0.62053 0.0
H2991 H 0.59731 0.52532 0.62883 0.0
H2992 H 0.71478 0.82477 0.52673 0.0
H2993 H 0.69528 0.79479 0.54126 0.0
H2994 H 0.7515 0.77378 0.57203 0.0
H2995 H 0.77117 0.80392 0.5578 0.0
H2996 H 0.70512 0.75335 0.53242 0.0
H2997 H 0.7067 0.76906 0.6183 0.0
H2998 H 0.71226 0.78923 0.59907 0.0
H2999 H 0.73191 0.77045 0.60568 0.0
C3000 C 0.72297 0.81396 0.53682 0.0
C3001 C 0.74456 0.81666 0.54102 0.0
C3002 C 0.71179 0.79686 0.54512 0.0
C3003 C 0.72195 0.78222 0.5578 0.0
C3004 C 0.74333 0.78514 0.56256 0.0
H3005 H 0.67946 0.6533 0.57729 0.0
H3006 H 0.69969 0.68512 0.56847 0.0
C3007 C 0.75455 0.80231 0.55432 0.0
C3008 C 0.71054 0.76297 0.56447 0.0
H3009 H 0.69403 0.73531 0.60738 0.0
C3010 C 0.70263 0.74941 0.54881 0.0
C3011 C 0.70729 0.75804 0.58585 0.0
C3012 C 0.71481 0.77252 0.60323 0.0
C3013 C 0.69159 0.73089 0.55394 0.0
C3014 C 0.68873 0.7257 0.57531 0.0
C3015 C 0.69649 0.73933 0.59101 0.0
C3016 C 0.67712 0.70646 0.58159 0.0
C3017 C 0.68272 0.71724 0.53648 0.0
C3018 C 0.65805 0.70803 0.59233 0.0
C3019 C 0.64646 0.68993 0.59745 0.0
C3020 C 0.65383 0.66993 0.59196 0.0
C3021 C 0.67323 0.66845 0.58159 0.0
C3022 C 0.6848 0.68658 0.5765 0.0
H3023 H 0.68215 0.72581 0.52131 0.0
H3024 H 0.69282 0.70338 0.53436 0.0
H3025 H 0.66662 0.71146 0.54036 0.0
H3026 H 0.65195 0.72329 0.59641 0.0
H3027 H 0.63166 0.69168 0.60555 0.0
H3028 H 0.16804 0.65226 0.42644 0.0
H3029 H 0.15762 0.67177 0.39582 0.0
H3030 H 0.21154 0.64936 0.36202 0.0
H3031 H 0.2228 0.63056 0.39349 0.0
H3032 H 0.21241 0.68802 0.35876 0.0
H3033 H 0.13091 0.6682 0.34101 0.0
H3034 H 0.13111 0.67177 0.36883 0.0
H3035 H 0.1464 0.65107 0.35718 0.0
C3036 C 0.1774 0.65092 0.41234 0.0
C3037 C 0.19642 0.64015 0.4125 0.0
C3038 C 0.17122 0.66191 0.39457 0.0
C3039 C 0.18358 0.66192 0.37631 0.0
C3040 C 0.20169 0.64961 0.37585 0.0
H3041 H 0.12819 0.7735 0.32636 0.0
H3042 H 0.14215 0.73843 0.3201 0.0
C3043 C 0.20811 0.63887 0.39385 0.0
C3044 C 0.17973 0.67809 0.35999 0.0
H3045 H 0.13904 0.70772 0.34348 0.0
C3046 C 0.1964 0.6919 0.35468 0.0
C3047 C 0.15916 0.68295 0.35339 0.0
C3048 C 0.14102 0.66746 0.35523 0.0
C3049 C 0.19254 0.7118 0.34628 0.0
C3050 C 0.17153 0.71834 0.34415 0.0
C3051 C 0.1552 0.70325 0.34603 0.0
C3052 C 0.16605 0.74096 0.34431 0.0
C3053 C 0.21104 0.726 0.34101 0.0
C3054 C 0.17511 0.75435 0.35961 0.0
C3055 C 0.16747 0.77448 0.36289 0.0
C3056 C 0.15013 0.78145 0.35142 0.0
C3057 C 0.14151 0.76845 0.33554 0.0
C3058 C 0.14951 0.74843 0.33192 0.0
H3059 H 0.22352 0.71682 0.33326 0.0
H3060 H 0.20654 0.73907 0.33048 0.0
H3061 H 0.2179 0.73264 0.3557 0.0
H3062 H 0.18726 0.74885 0.37004 0.0
H3063 H 0.17429 0.78401 0.37538 0.0
H3064 H 0.54499 0.96844 0.75796 0.0
H3065 H 0.51401 0.95106 0.74271 0.0
H3066 H 0.52409 0.9849 0.68486 0.0
H3067 H 0.55557 0.00196 0.69983 0.0
H3068 H 0.47823 0.96691 0.72768 0.0
H3069 H 0.51988 0.92444 0.66453 0.0
H3070 H 0.53353 0.9374 0.68597 0.0
H3071 H 0.52436 0.9524 0.66399 0.0
C3072 C 0.54061 0.97223 0.74204 0.0
C3073 C 0.55278 0.98642 0.73004 0.0
C3074 C 0.52293 0.96228 0.73331 0.0
C3075 C 0.51706 0.96638 0.71252 0.0
C3076 C 0.52872 0.98111 0.70074 0.0
H3077 H 0.39494 0.93775 0.66009 0.0
H3078 H 0.42728 0.95436 0.67314 0.0
C3079 C 0.54654 -0.00904 0.70939 0.0
C3080 C 0.49851 0.95542 0.70338 0.0
H3081 H 0.48248 0.92345 0.66303 0.0
C3082 C 0.47916 0.95735 0.71358 0.0
C3083 C 0.49991 0.94265 0.68522 0.0
C3084 C 0.52057 0.93889 0.67439 0.0
C3085 C 0.46102 0.94713 0.70593 0.0
C3086 C 0.46222 0.93517 0.68722 0.0
C3087 C 0.48164 0.93287 0.67722 0.0
C3088 C 0.44337 0.92508 0.67779 0.0
C3089 C 0.44084 0.94899 0.71814 0.0
C3090 C 0.44215 0.90316 0.67513 0.0
C3091 C 0.42375 0.89359 0.66737 0.0
C3092 C 0.40633 0.90585 0.66229 0.0
C3093 C 0.40797 0.92786 0.66423 0.0
C3094 C 0.42639 0.93738 0.67174 0.0
H3095 H 0.44388 0.95331 0.73481 0.0
H3096 H 0.43121 0.96151 0.71108 0.0
H3097 H 0.43154 0.93402 0.71771 0.0
H3098 H 0.45521 0.89345 0.67958 0.0
H3099 H 0.42293 0.87661 0.666 0.0
H3100 H 0.30813 0.32354 0.9716 0.0
H3101 H 0.32 0.29723 0.94656 0.0
H3102 H 0.27461 0.31838 0.90122 0.0
H3103 H 0.26216 0.34428 0.92645 0.0
H3104 H 0.27228 0.27741 0.90482 0.0
H3105 H 0.35566 0.30023 0.89508 0.0
H3106 H 0.34972 0.29738 0.92241 0.0
H3107 H 0.33702 0.31743 0.90728 0.0
C3108 C 0.30091 0.32282 0.95618 0.0
C3109 C 0.28418 0.33591 0.95101 0.0
C3110 C 0.30782 0.30788 0.94181 0.0
C3111 C 0.29844 0.3061 0.92187 0.0
C3112 C 0.28213 0.31957 0.91647 0.0
H3113 H 0.35802 0.20774 0.84868 0.0
H3114 H 0.34133 0.24154 0.85455 0.0
C3115 C 0.27503 0.33432 0.93092 0.0
C3116 C 0.30433 0.28884 0.90758 0.0
H3117 H 0.34686 0.2633 0.88876 0.0
C3118 C 0.28855 0.27456 0.90089 0.0
C3119 C 0.32543 0.28539 0.90191 0.0
C3120 C 0.34285 0.30109 0.90686 0.0
C3121 C 0.29353 0.25607 0.89014 0.0
C3122 C 0.31488 0.25151 0.88659 0.0
C3123 C 0.33048 0.2666 0.89176 0.0
C3124 C 0.32167 0.23038 0.88003 0.0
C3125 C 0.2759 0.24142 0.88319 0.0
C3126 C 0.3157 0.21275 0.892 0.0
C3127 C 0.325 0.1934 0.88854 0.0
C3128 C 0.34082 0.19143 0.87335 0.0
C3129 C 0.34599 0.20881 0.86062 0.0
C3130 C 0.33646 0.22812 0.86392 0.0
H3131 H 0.26165 0.25038 0.87912 0.0
H3132 H 0.28042 0.23182 0.86939 0.0
H3133 H 0.27166 0.2307 0.8963 0.0
H3134 H 0.30478 0.2142 0.90491 0.0
H3135 H 0.32074 0.18037 0.8987 0.0
H3136 H 0.40968 0.50641 0.70713 0.0
H3137 H 0.43359 0.53211 0.69112 0.0
H3138 H 0.44055 0.49132 0.63735 0.0
H3139 H 0.41751 0.46503 0.65391 0.0
H3140 H 0.47657 0.50188 0.651 0.0
H3141 H 0.43211 0.57509 0.64644 0.0
H3142 H 0.43095 0.5653 0.67275 0.0
H3143 H 0.41941 0.54999 0.6516 0.0
C3144 C 0.41605 0.5031 0.69174 0.0
C3145 C 0.41196 0.48368 0.68184 0.0
C3146 C 0.42951 0.51793 0.68246 0.0
C3147 C 0.4386 0.51386 0.66283 0.0
C3148 C 0.43366 0.49485 0.65247 0.0
H3149 H 0.53527 0.60281 0.61481 0.0
H3150 H 0.50153 0.58364 0.61777 0.0
C3151 C 0.4206 0.47981 0.66197 0.0
C3152 C 0.45559 0.52788 0.65477 0.0
H3153 H 0.47041 0.57953 0.64964 0.0
C3154 C 0.47499 0.51882 0.65022 0.0
C3155 C 0.45359 0.54998 0.65337 0.0
C3156 C 0.43278 0.56057 0.65607 0.0
C3157 C 0.49274 0.53128 0.64576 0.0
C3158 C 0.49122 0.55341 0.64659 0.0
C3159 C 0.47158 0.56253 0.64957 0.0
C3160 C 0.51024 0.56701 0.64597 0.0
C3161 C 0.51312 0.5206 0.64078 0.0
C3162 C 0.52579 0.5646 0.66136 0.0
C3163 C 0.54498 0.57528 0.65964 0.0
C3164 C 0.54885 0.58885 0.64266 0.0
C3165 C 0.5327 0.59241 0.62804 0.0
C3166 C 0.51348 0.58148 0.62967 0.0
H3167 H 0.51024 0.50462 0.63414 0.0
H3168 H 0.52267 0.52993 0.62944 0.0
H3169 H 0.52237 0.51888 0.65544 0.0
H3170 H 0.52331 0.55386 0.67434 0.0
H3171 H 0.557 0.57249 0.67133 0.0
H3172 H 0.71823 0.18013 0.02563 0.0
H3173 H 0.73265 0.2086 0.04755 0.0
H3174 H 0.77417 0.22742 -0.00275 0.0
H3175 H 0.75948 0.19934 0.97506 0.0
H3176 H 0.77344 0.21374 0.06059 0.0
H3177 H 0.74849 0.28269 0.0143 0.0
H3178 H 0.73782 0.25655 0.00979 0.0
H3179 H 0.76303 0.26411 -0.0008 0.0
C3180 C 0.7302 0.19055 0.01913 0.0
C3181 C 0.7377 0.18758 -0.00138 0.0
C3182 C 0.73846 0.20672 0.03169 0.0
C3183 C 0.75433 0.22018 0.02394 0.0
C3184 C 0.76164 0.21745 0.00337 0.0
H3185 H 0.84215 0.29941 0.09367 0.0
H3186 H 0.8245 0.2695 0.07629 0.0
C3187 C 0.75327 0.20137 -0.00927 0.0
C3188 C 0.76381 0.23653 0.03769 0.0
H3189 H 0.77367 0.28926 0.04133 0.0
C3190 C 0.77338 0.23029 0.05651 0.0
C3191 C 0.7635 0.25807 0.03235 0.0
C3192 C 0.75248 0.26581 0.01292 0.0
C3193 C 0.78295 0.24507 0.07004 0.0
C3194 C 0.78326 0.26653 0.06433 0.0
C3195 C 0.77347 0.27275 0.04563 0.0
C3196 C 0.79355 0.28301 0.07737 0.0
C3197 C 0.79236 0.23762 0.09041 0.0
C3198 C 0.78198 0.30039 0.08384 0.0
C3199 C 0.79204 0.31756 0.09339 0.0
C3200 C 0.81386 0.3176 0.09677 0.0
C3201 C 0.82529 0.2997 0.09138 0.0
C3202 C 0.81521 0.28259 0.08153 0.0
H3203 H 0.78559 0.22212 0.09518 0.0
H3204 H 0.80954 0.23582 0.08838 0.0
H3205 H 0.7898 0.24912 0.10326 0.0
H3206 H 0.76524 0.30099 0.08081 0.0
H3207 H 0.78282 0.33109 0.09757 0.0
H3208 H 0.59361 0.02601 0.82515 0.0
H3209 H 0.57117 0.04886 0.84559 0.0
H3210 H 0.59161 0.10212 0.80859 0.0
H3211 H 0.61341 0.07908 0.78732 0.0
H3212 H 0.5674 0.08748 0.86716 0.0
H3213 H 0.53242 0.08852 0.78674 0.0
H3214 H 0.55424 0.07218 0.79324 0.0
H3215 H 0.5583 0.09996 0.78924 0.0
C3216 C 0.59401 0.04273 0.82188 0.0
C3217 C 0.60459 0.0507 0.80419 0.0
C3218 C 0.58122 0.05582 0.83367 0.0
C3219 C 0.57919 0.077 0.82806 0.0
C3220 C 0.5926 0.08567 0.81276 0.0
H3221 H 0.46584 0.14458 0.86595 0.0
H3222 H 0.5032 0.13684 0.8626 0.0
C3223 C 0.60502 0.0725 0.80063 0.0
C3224 C 0.55985 0.0879 0.83417 0.0
H3225 H 0.51231 0.1015 0.81401 0.0
C3226 C 0.55548 0.091 0.85556 0.0
C3227 C 0.54418 0.09203 0.81894 0.0
C3228 C 0.54735 0.08789 0.79578 0.0
C3229 C 0.53554 0.09747 0.86213 0.0
C3230 C 0.51986 0.1009 0.84689 0.0
C3231 C 0.52453 0.09879 0.82556 0.0
C3232 C 0.49782 0.10472 0.85241 0.0
C3233 C 0.53091 0.09951 0.88523 0.0
C3234 C 0.48258 0.08911 0.84793 0.0
C3235 C 0.46129 0.09347 0.84959 0.0
C3236 C 0.45485 0.11359 0.8557 0.0
C3237 C 0.47024 0.12894 0.8611 0.0
C3238 C 0.4916 0.12454 0.85937 0.0
H3239 H 0.54453 0.0952 0.89517 0.0
H3240 H 0.52668 0.11597 0.88886 0.0
H3241 H 0.51722 0.08926 0.8894 0.0
H3242 H 0.4872 0.07375 0.84239 0.0
H3243 H 0.44991 0.08122 0.8455 0.0
H3244 H 0.89811 0.88852 0.27683 0.0
H3245 H 0.92171 0.87366 0.30293 0.0
H3246 H 0.93014 0.93491 0.33146 0.0
H3247 H 0.90606 0.94973 0.30591 0.0
H3248 H 0.96147 0.88541 0.30403 0.0
H3249 H 0.92822 0.89864 0.38297 0.0
H3250 H 0.91266 0.90052 0.3593 0.0
H3251 H 0.92904 0.92237 0.36782 0.0
C3252 C 0.90462 0.89873 0.28895 0.0
C3253 C 0.90043 0.92033 0.28919 0.0
C3254 C 0.918 0.89019 0.30392 0.0
C3255 C 0.92752 0.90312 0.31928 0.0
C3256 C 0.92256 0.92451 0.32013 0.0
H3257 H 0.05011 0.90296 0.36751 0.0
H3258 H 0.0135 0.91177 0.3612 0.0
C3259 C 0.90896 0.93301 0.30534 0.0
C3260 C 0.94516 0.89514 0.33192 0.0
H3261 H 0.96592 0.89364 0.38146 0.0
C3262 C 0.9622 0.8868 0.321 0.0
C3263 C 0.94618 0.89712 0.35406 0.0
C3264 C 0.92793 0.90496 0.36672 0.0
C3265 C 0.98053 0.88113 0.33146 0.0
C3266 C 0.98189 0.88393 0.35342 0.0
C3267 C 0.96473 0.89166 0.36457 0.0
C3268 C 0.00175 0.87981 0.36436 0.0
C3269 C -0.00129 0.87283 0.31888 0.0
C3270 C 0.00686 0.85912 0.36942 0.0
C3271 C 0.02779 0.85396 0.37294 0.0
C3272 C 0.04382 0.86946 0.37121 0.0
C3273 C 0.03821 0.89059 0.36861 0.0
C3274 C 0.01728 0.89572 0.36517 0.0
H3275 H -0.00495 0.87162 0.30184 0.0
H3276 H 0.0127 0.88335 0.32095 0.0
H3277 H 0.00291 0.85701 0.32467 0.0
H3278 H -0.00501 0.84669 0.36875 0.0
H3279 H 0.0315 0.83757 0.37516 0.0
H3280 H 0.43514 0.32027 0.17995 0.0
H3281 H 0.40511 0.33349 0.19931 0.0
H3282 H 0.37872 0.27059 0.20307 0.0
H3283 H 0.40905 0.25709 0.18398 0.0
H3284 H 0.36097 0.33103 0.19163 0.0
H3285 H 0.38457 0.28912 0.26455 0.0
H3286 H 0.40196 0.29185 0.24238 0.0
H3287 H 0.38027 0.27338 0.2414 0.0
C3288 C 0.42295 0.30922 0.18486 0.0
C3289 C 0.42457 0.28761 0.18069 0.0
C3290 C 0.40573 0.31683 0.19577 0.0
C3291 C 0.38979 0.303 0.2027 0.0
C3292 C 0.391 0.28147 0.19804 0.0
H3293 H 0.31526 0.34335 0.30725 0.0
H3294 H 0.31887 0.3234 0.27459 0.0
C3295 C 0.40833 0.2738 0.18719 0.0
C3296 C 0.37292 0.31121 0.21614 0.0
H3297 H 0.35779 0.31327 0.2673 0.0
C3298 C 0.35991 0.32689 0.20811 0.0
C3299 C 0.37147 0.30562 0.23755 0.0
C3300 C 0.38535 0.28918 0.24712 0.0
C3301 C 0.34634 0.33799 0.22126 0.0
C3302 C 0.34607 0.33347 0.24297 0.0
C3303 C 0.35792 0.31671 0.25063 0.0
C3304 C 0.33683 0.34781 0.25868 0.0
C3305 C 0.33296 0.35488 0.2119 0.0
C3306 C 0.34446 0.36868 0.26005 0.0
C3307 C 0.34207 0.38019 0.27857 0.0
C3308 C 0.33216 0.37088 0.29592 0.0
C3309 C 0.3226 0.35092 0.29384 0.0
C3310 C 0.32477 0.33949 0.27524 0.0
H3311 H 0.32832 0.35079 0.19554 0.0
H3312 H 0.31856 0.35742 0.2213 0.0
H3313 H 0.3422 0.36986 0.21134 0.0
H3314 H 0.35426 0.37529 0.24775 0.0
H3315 H 0.34999 0.39537 0.28011 0.0
H3316 H 0.42203 0.68763 0.88784 0.0
H3317 H 0.41545 0.66859 0.92036 0.0
H3318 H 0.48213 0.6653 0.93159 0.0
H3319 H 0.48896 0.68471 0.89908 0.0
H3320 H 0.42898 0.6309 0.94236 0.0
H3321 H 0.45889 0.70671 0.97644 0.0
H3322 H 0.45279 0.7038 0.94891 0.0
H3323 H 0.47642 0.69294 0.9594 0.0
C3324 C 0.43535 0.68235 0.89689 0.0
C3325 C 0.456 0.6882 0.89125 0.0
C3326 C 0.43154 0.67134 0.91541 0.0
C3327 C 0.4483 0.66601 0.9285 0.0
C3328 C 0.46902 0.66958 0.92172 0.0
H3329 H 0.43886 0.65053 0.06342 0.0
H3330 H 0.45204 0.65203 0.02764 0.0
C3331 C 0.47287 0.68063 0.90314 0.0
C3332 C 0.44382 0.66055 0.95054 0.0
H3333 H 0.44431 0.68214 -0.00041 0.0
C3334 C 0.43258 0.64189 0.95499 0.0
C3335 C 0.44834 0.67513 0.96683 0.0
C3336 C 0.45963 0.69585 0.96276 0.0
C3337 C 0.42557 0.6375 0.97543 0.0
C3338 C 0.42956 0.65242 -0.00844 0.0
C3339 C 0.44128 0.67076 0.98716 0.0
C3340 C 0.42133 0.64981 0.01308 0.0
C3341 C 0.41395 0.61702 0.97955 0.0
C3342 C 0.39961 0.6483 0.01676 0.0
C3343 C 0.39194 0.64741 0.0373 0.0
C3344 C 0.40588 0.64833 0.05446 0.0
C3345 C 0.42762 0.64997 0.05062 0.0
C3346 C 0.43524 0.65068 0.03016 0.0
H3347 H 0.41768 0.60496 0.96753 0.0
H3348 H 0.41783 0.61077 -0.00468 0.0
H3349 H 0.39679 0.6197 0.97889 0.0
H3350 H 0.38858 0.64821 0.00379 0.0
H3351 H 0.37512 0.64615 0.03971 0.0
H3352 H 0.01993 0.70112 0.65917 0.0
H3353 H 0.04435 0.68487 0.68377 0.0
H3354 H 0.06998 0.74604 0.70011 0.0
H3355 H 0.04569 0.76248 0.67563 0.0
H3356 H 0.09313 0.69084 0.69056 0.0
H3357 H 0.04 0.71824 0.75409 0.0
H3358 H 0.03133 0.71564 0.72718 0.0
H3359 H 0.04845 0.73712 0.73471 0.0
C3360 C 0.03102 0.71108 0.66771 0.0
C3361 C 0.0307 0.73309 0.66572 0.0
C3362 C 0.04501 0.70177 0.68164 0.0
C3363 C 0.05879 0.71433 0.69372 0.0
C3364 C 0.05938 0.73617 0.69087 0.0
H3365 H 0.11555 0.68044 0.81227 0.0
H3366 H 0.10725 0.70023 0.78062 0.0
C3367 C 0.04544 0.7455 0.67695 0.0
C3368 C 0.07055 0.7049 0.71112 0.0
H3369 H 0.06904 0.69868 0.76416 0.0
C3370 C 0.08805 0.69262 0.7067 0.0
C3371 C 0.06381 0.70741 0.73205 0.0
C3372 C 0.04481 0.72021 0.73745 0.0
C3373 C 0.099 0.68258 0.72289 0.0
C3374 C 0.09185 0.68459 0.74381 0.0
C3375 C 0.07458 0.69726 0.74813 0.0
C3376 C 0.10087 0.67265 0.76145 0.0
C3377 C 0.11811 0.67005 0.71744 0.0
C3378 C 0.10053 0.65058 0.761 0.0
C3379 C 0.10544 0.63922 0.77902 0.0
C3380 C 0.11034 0.64977 0.7979 0.0
C3381 C 0.11161 0.67186 0.79803 0.0
C3382 C 0.10696 0.68319 0.77994 0.0
H3383 H 0.12556 0.67585 0.70274 0.0
H3384 H 0.12995 0.67071 0.73027 0.0
H3385 H 0.11328 0.65336 0.71487 0.0
H3386 H 0.09536 0.64211 0.74708 0.0
H3387 H 0.10424 0.62221 0.77844 0.0
H3388 H 0.95632 0.28645 0.40112 0.0
H3389 H 0.96557 0.30852 0.43154 0.0
H3390 H 0.03095 0.3066 0.41416 0.0
H3391 H 0.02194 0.28463 0.38393 0.0
H3392 H -0.00719 0.2919 0.46208 0.0
H3393 H 0.02371 0.36821 0.4327 0.0
H3394 H 0.00638 0.35127 0.41736 0.0
H3395 H 0.03404 0.34613 0.41876 0.0
C3396 C 0.97259 0.29122 0.40349 0.0
C3397 C 0.98845 0.28364 0.3903 0.0
C3398 C 0.97782 0.30384 0.42082 0.0
C3399 C -0.00111 0.30936 0.42491 0.0
C3400 C 0.01455 0.30286 0.41103 0.0
H3401 H 0.0893 0.33684 0.51602 0.0
H3402 H 0.06692 0.3332 0.48498 0.0
C3403 C 0.00939 0.29011 0.39389 0.0
C3404 C 0.00517 0.31869 0.44527 0.0
H3405 H 0.03648 0.35726 0.46672 0.0
C3406 C 0.00188 0.30648 0.4633 0.0
C3407 C 0.01707 0.33763 0.44663 0.0
C3408 C 0.02036 0.35167 0.42785 0.0
C3409 C 0.01164 0.3118 0.48238 0.0
C3410 C 0.02452 0.3302 0.4835 0.0
C3411 C 0.02666 0.34315 0.46578 0.0
C3412 C 0.03769 0.33489 0.50215 0.0
C3413 C 0.00934 0.29682 0.50064 0.0
C3414 C 0.02865 0.33759 0.52201 0.0
C3415 C 0.04139 0.33928 0.53983 0.0
C3416 C 0.0634 0.33872 0.538 0.0
C3417 C 0.07241 0.33722 0.51795 0.0
C3418 C 0.05964 0.33523 0.50019 0.0
H3419 H 0.00252 0.28134 0.49576 0.0
H3420 H 0.02478 0.29416 0.50823 0.0
H3421 H -0.00127 0.30368 0.51251 0.0
H3422 H 0.01174 0.33788 0.52377 0.0
H3423 H 0.03401 0.34082 0.55505 0.0
H3424 H 0.45318 0.70563 0.35804 0.0
H3425 H 0.43732 0.68115 0.33264 0.0
H3426 H 0.42311 0.73308 0.29189 0.0
H3427 H 0.43831 0.75777 0.31762 0.0
H3428 H 0.3922 0.70178 0.29116 0.0
H3429 H 0.47166 0.66814 0.28095 0.0
H3430 H 0.46119 0.66651 0.30705 0.0
H3431 H 0.46744 0.6918 0.29587 0.0
C3432 C 0.44632 0.71186 0.34383 0.0
C3433 C 0.44725 0.73356 0.3396 0.0
C3434 C 0.43735 0.69785 0.32932 0.0
C3435 C 0.42961 0.70527 0.31017 0.0
C3436 C 0.42915 0.72705 0.30656 0.0
H3437 H 0.40883 0.67565 0.18551 0.0
H3438 H 0.41113 0.68889 0.22127 0.0
C3439 C 0.43782 0.74113 0.32124 0.0
C3440 C 0.42381 0.69044 0.29308 0.0
H3441 H 0.44487 0.65515 0.25894 0.0
C3442 C 0.4036 0.69135 0.28431 0.0
C3443 C 0.43876 0.67682 0.28418 0.0
C3444 C 0.46103 0.6758 0.29234 0.0
C3445 C 0.39823 0.67962 0.26633 0.0
C3446 C 0.41347 0.66679 0.25696 0.0
C3447 C 0.43323 0.66492 0.26638 0.0
C3448 C 0.41053 0.65812 0.23565 0.0
C3449 C 0.37657 0.68162 0.25698 0.0
C3450 C 0.40982 0.63635 0.23195 0.0
C3451 C 0.40847 0.62861 0.21136 0.0
C3452 C 0.4083 0.6426 0.19429 0.0
C3453 C 0.40913 0.66439 0.19823 0.0
C3454 C 0.41019 0.67204 0.21869 0.0
H3455 H 0.36511 0.68717 0.2688 0.0
H3456 H 0.37721 0.69325 0.24402 0.0
H3457 H 0.37085 0.66635 0.25039 0.0
H3458 H 0.41036 0.62542 0.24495 0.0
H3459 H 0.40782 0.61176 0.2088 0.0
H3460 H 0.05796 0.71032 0.06268 0.0
H3461 H 0.07585 0.68321 0.04292 0.0
H3462 H 0.02817 0.63757 0.06103 0.0
H3463 H 0.00938 0.66518 0.07976 0.0
H3464 H 0.09266 0.64563 0.04724 0.0
H3465 H 0.01934 0.63759 -0.00067 0.0
H3466 H 0.02218 0.65729 0.01951 0.0
H3467 H 0.01745 0.63017 0.0264 0.0
C3468 C 0.05146 0.69443 0.06275 0.0
C3469 C 0.03205 0.68992 0.07225 0.0
C3470 C 0.06176 0.67888 0.05154 0.0
C3471 C 0.05301 0.65847 0.04996 0.0
C3472 C 0.0348 0.65338 0.06142 0.0
H3473 H 0.12207 0.59539 0.94703 0.0
H3474 H 0.10694 0.59699 0.98246 0.0
C3475 C 0.02415 0.66911 0.07217 0.0
C3476 C 0.06152 0.64397 0.03397 0.0
H3477 H 0.04991 0.62465 0.98518 0.0
C3478 C 0.08327 0.64054 0.03385 0.0
C3479 C 0.04914 0.63719 0.01658 0.0
C3480 C 0.02578 0.6408 0.01528 0.0
C3481 C 0.09329 0.63272 0.01592 0.0
C3482 C 0.08108 0.6277 -0.00202 0.0
C3483 C 0.05913 0.62872 -0.00099 0.0
C3484 C 0.09058 0.62597 0.97693 0.0
C3485 C 0.11695 0.63175 0.0156 0.0
C3486 C 0.08623 0.64161 0.96216 0.0
C3487 C 0.09456 0.64065 0.94205 0.0
C3488 C 0.10759 0.62407 0.93623 0.0
C3489 C 0.11217 0.60844 0.95111 0.0
C3490 C 0.1036 0.60933 0.97133 0.0
H3491 H 0.12418 0.63776 0.0304 0.0
H3492 H 0.12172 0.61521 0.01332 0.0
H3493 H 0.12331 0.64111 0.00228 0.0
H3494 H 0.07633 0.65467 0.96623 0.0
H3495 H 0.09081 0.65303 0.93108 0.0
H3496 H 0.04883 0.25665 0.83217 0.0
H3497 H 0.07195 0.26034 0.80163 0.0
H3498 H 0.06218 0.32726 0.80142 0.0
H3499 H 0.03893 0.32371 0.83166 0.0
H3500 H 0.05231 0.27831 0.7647 0.0
H3501 H 0.12595 0.32095 0.78679 0.0
H3502 H 0.11065 0.3055 0.80527 0.0
H3503 H 0.10256 0.33145 0.79819 0.0
C3504 C 0.05213 0.27222 0.82601 0.0
C3505 C 0.04189 0.28988 0.83409 0.0
C3506 C 0.06537 0.27429 0.80862 0.0
C3507 C 0.06888 0.29408 0.79946 0.0
C3508 C 0.05994 0.31191 0.80852 0.0
H3509 H 0.09531 0.36024 0.68917 0.0
H3510 H 0.09255 0.34641 0.72484 0.0
C3511 C 0.0465 0.30983 0.82566 0.0
C3512 C 0.07819 0.29583 0.77836 0.0
H3513 H 0.11559 0.32276 0.75053 0.0
C3514 C 0.06645 0.28757 0.76151 0.0
C3515 C 0.09645 0.30812 0.77444 0.0
C3516 C 0.10977 0.3169 0.79213 0.0
C3517 C 0.07155 0.29259 0.74072 0.0
C3518 C 0.08943 0.30559 0.73672 0.0
C3519 C 0.10192 0.3128 0.75361 0.0
C3520 C 0.09397 0.3137 0.71541 0.0
C3521 C 0.05677 0.28523 0.72348 0.0
C3522 C 0.09636 0.29995 0.69834 0.0
C3523 C 0.09734 0.30781 0.67791 0.0
C3524 C 0.09663 0.32958 0.67431 0.0
C3525 C 0.09579 0.34339 0.69151 0.0
C3526 C 0.0943 0.3355 0.71189 0.0
H3527 H 0.04134 0.27974 0.72975 0.0
H3528 H 0.05394 0.29801 0.71204 0.0
H3529 H 0.06381 0.27185 0.71499 0.0
H3530 H 0.0968 0.28312 0.70075 0.0
H3531 H 0.09843 0.29685 0.66491 0.0
H3532 H 0.50331 0.28091 0.53747 0.0
H3533 H 0.50134 0.30619 0.50842 0.0
H3534 H 0.4361 0.31619 0.52263 0.0
H3535 H 0.43778 0.29081 0.55124 0.0
H3536 H 0.46816 0.3001 0.47425 0.0
H3537 H 0.46563 0.37685 0.51537 0.0
H3538 H 0.4784 0.35413 0.52624 0.0
H3539 H 0.45032 0.3563 0.52771 0.0
C3540 C 0.48865 0.28867 0.53446 0.0
C3541 C 0.47065 0.28385 0.54645 0.0
C3542 C 0.48759 0.30312 0.51799 0.0
C3543 C 0.4687 0.31321 0.51373 0.0
C3544 C 0.45091 0.30877 0.526 0.0
H3545 H 0.38119 0.36822 0.44626 0.0
H3546 H 0.40902 0.35873 0.47036 0.0
C3547 C 0.45184 0.29414 0.54216 0.0
C3548 C 0.46633 0.32661 0.49512 0.0
H3549 H 0.44766 0.37457 0.4819 0.0
C3550 C 0.46438 0.31661 0.47558 0.0
C3551 C 0.46159 0.34808 0.49712 0.0
C3552 C 0.46427 0.35957 0.51772 0.0
C3553 C 0.45522 0.32686 0.45849 0.0
C3554 C 0.44845 0.3478 0.46108 0.0
C3555 C 0.45274 0.3585 0.47999 0.0
C3556 C 0.43309 0.35699 0.44648 0.0
C3557 C 0.45088 0.31444 0.43864 0.0
C3558 C 0.43755 0.35985 0.42511 0.0
C3559 C 0.42147 0.36494 0.41112 0.0
C3560 C 0.40081 0.36754 0.41841 0.0
C3561 C 0.39685 0.36617 0.44005 0.0
C3562 C 0.4128 0.36085 0.45391 0.0
H3563 H 0.45489 0.29759 0.44028 0.0
H3564 H 0.43404 0.31535 0.43421 0.0
H3565 H 0.46038 0.32115 0.42561 0.0
H3566 H 0.45323 0.35741 0.41915 0.0
H3567 H 0.4251 0.36626 0.39456 0.0
H3568 H 0.15677 0.45055 0.30399 0.0
H3569 H 0.17251 0.42482 0.32681 0.0
H3570 H 0.15198 0.3748 0.2851 0.0
H3571 H 0.13677 0.4009 0.26142 0.0
H3572 H 0.15845 0.39076 0.34864 0.0
H3573 H 0.21425 0.36609 0.28602 0.0
H3574 H 0.19762 0.38835 0.28218 0.0
H3575 H 0.18652 0.36213 0.28182 0.0
C3576 C 0.15545 0.43409 0.29963 0.0
C3577 C 0.14582 0.42778 0.28073 0.0
C3578 C 0.16433 0.41933 0.31282 0.0
C3579 C 0.1636 0.39787 0.3076 0.0
C3580 C 0.15308 0.39131 0.28924 0.0
H3581 H 0.27204 0.34994 0.37412 0.0
H3582 H 0.23577 0.34253 0.36236 0.0
C3583 C 0.14441 0.40622 0.27575 0.0
C3584 C 0.17591 0.38335 0.32069 0.0
H3585 H 0.22487 0.36267 0.32071 0.0
C3586 C 0.17262 0.38383 0.34251 0.0
C3587 C 0.19419 0.37388 0.31269 0.0
C3588 C 0.19852 0.37253 0.28943 0.0
C3589 C 0.18861 0.37831 0.35648 0.0
C3590 C 0.20799 0.37182 0.34834 0.0
C3591 C 0.20994 0.36791 0.32677 0.0
C3592 C 0.22762 0.37531 0.36024 0.0
C3593 C 0.18561 0.38169 0.37969 0.0
C3594 C 0.23478 0.39615 0.3631 0.0
C3595 C 0.25547 0.40039 0.36912 0.0
C3596 C 0.26915 0.38383 0.37284 0.0
C3597 C 0.26159 0.36293 0.37153 0.0
C3598 C 0.24096 0.35867 0.36489 0.0
H3599 H 0.16875 0.38029 0.38405 0.0
H3600 H 0.19472 0.37022 0.38895 0.0
H3601 H 0.1913 0.39778 0.38394 0.0
H3602 H 0.22479 0.40918 0.35916 0.0
H3603 H 0.26105 0.41659 0.37 0.0
H3604 H 0.26362 0.44012 0.03035 0.0
H3605 H 0.28958 0.46595 0.04292 0.0
H3606 H 0.32638 0.45682 0.98689 0.0
H3607 H 0.29969 0.43166 0.97372 0.0
H3608 H 0.32955 0.4601 0.05241 0.0
H3609 H 0.32461 0.51965 0.98873 0.0
H3610 H 0.30581 0.4982 -0.00897 0.0
H3611 H 0.33157 0.49362 0.98069 0.0
C3612 C 0.27711 0.44387 0.02059 0.0
C3613 C 0.27965 0.43409 0.00104 0.0
C3614 C 0.29198 0.45851 0.02782 0.0
C3615 C 0.30989 0.46339 0.01582 0.0
C3616 C 0.31248 0.45364 -0.00379 0.0
H3617 H 0.39283 0.5465 0.09289 0.0
H3618 H 0.38463 0.51636 0.06984 0.0
C3619 C 0.29728 0.43927 0.98872 0.0
C3620 C 0.32567 0.47853 0.02443 0.0
H3621 H 0.34597 0.52805 0.0176 0.0
C3622 C 0.33338 0.4749 0.04474 0.0
C3623 C 0.33084 0.49764 0.01419 0.0
C3624 C 0.3227 0.50267 -0.00748 0.0
C3625 C 0.34438 0.49062 0.05595 0.0
C3626 C 0.34856 0.51019 0.04613 0.0
C3627 C 0.34263 0.51304 0.02508 0.0
C3628 C 0.3554 0.52896 0.05835 0.0
C3629 C 0.34978 0.48666 0.07869 0.0
C3630 C 0.34221 0.54637 0.05882 0.0
C3631 C 0.34709 0.56364 0.07146 0.0
C3632 C 0.36513 0.56379 0.08419 0.0
C3633 C 0.37865 0.54659 0.08345 0.0
C3634 C 0.37396 0.52939 0.07036 0.0
H3635 H 0.342 0.47211 0.08478 0.0
H3636 H 0.367 0.48484 0.08028 0.0
H3637 H 0.34504 0.50007 0.0887 0.0
H3638 H 0.32775 0.54637 0.04979 0.0
H3639 H 0.33635 0.57665 0.07172 0.0
H3640 H 0.30818 0.51319 0.71744 0.0
H3641 H 0.28249 0.53871 0.72951 0.0
H3642 H 0.30357 0.53046 0.79332 0.0
H3643 H 0.3292 0.50498 0.78146 0.0
H3644 H 0.25114 0.52596 0.75892 0.0
H3645 H 0.29734 0.59507 0.78783 0.0
H3646 H 0.30768 0.57636 0.76929 0.0
H3647 H 0.30681 0.57021 0.79681 0.0
C3648 C 0.30761 0.51712 0.73399 0.0
C3649 C 0.32056 0.50698 0.74855 0.0
C3650 C 0.293 0.53173 0.74082 0.0
C3651 C 0.29137 0.53662 0.76224 0.0
C3652 C 0.3049 0.5272 0.77667 0.0
H3653 H 0.20765 0.5847 0.85241 0.0
H3654 H 0.23773 0.57397 0.83147 0.0
C3655 C 0.31938 0.51249 0.76989 0.0
C3656 C 0.27369 0.54912 0.76998 0.0
H3657 H 0.26187 0.59162 0.80021 0.0
C3658 C 0.25337 0.54055 0.7676 0.0
C3659 C 0.27682 0.56799 0.78142 0.0
C3660 C 0.29833 0.57809 0.78387 0.0
C3661 C 0.23612 0.54971 0.77738 0.0
C3662 C 0.23927 0.56834 0.78933 0.0
C3663 C 0.25952 0.57737 0.79101 0.0
C3664 C 0.222 0.57756 0.80155 0.0
C3665 C 0.21495 0.53862 0.77584 0.0
C3666 C 0.20346 0.58381 0.79161 0.0
C3667 C 0.18613 0.58958 0.80354 0.0
C3668 C 0.18723 0.58962 0.8256 0.0
C3669 C 0.2063 0.58474 0.83545 0.0
C3670 C 0.22351 0.57866 0.82351 0.0
H3671 H 0.21631 0.5221 0.77035 0.0
H3672 H 0.20686 0.5385 0.79127 0.0
H3673 H 0.20496 0.547 0.76443 0.0
H3674 H 0.20219 0.5836 0.77465 0.0
H3675 H 0.17176 0.59365 0.7955 0.0
H3676 H 0.18195 0.57659 0.54509 0.0
H3677 H 0.1619 0.54394 0.55027 0.0
H3678 H 0.16009 0.53354 0.48335 0.0
H3679 H 0.18031 0.56627 0.4779 0.0
H3680 H 0.12146 0.52786 0.53233 0.0
H3681 H 0.19219 0.48267 0.50963 0.0
H3682 H 0.19392 0.5102 0.51657 0.0
H3683 H 0.1829 0.50231 0.49175 0.0
C3684 C 0.17708 0.56755 0.53142 0.0
C3685 C 0.18297 0.57387 0.5111 0.0
C3686 C 0.16554 0.54895 0.53442 0.0
C3687 C 0.15977 0.53634 0.5172 0.0
C3688 C 0.1646 0.54308 0.49681 0.0
H3689 H 0.12551 0.40383 0.53613 0.0
H3690 H 0.13099 0.43728 0.51794 0.0
C3691 C 0.17611 0.56177 0.49376 0.0
C3692 C 0.15049 0.51529 0.52103 0.0
H3693 H 0.16385 0.46375 0.52393 0.0
C3694 C 0.13051 0.51375 0.53017 0.0
C3695 C 0.16238 0.49699 0.51806 0.0
C3696 C 0.18409 0.49796 0.50857 0.0
C3697 C 0.12241 0.49436 0.53723 0.0
C3698 C 0.13489 0.47628 0.53552 0.0
C3699 C 0.15435 0.47767 0.52527 0.0
C3700 C 0.1292 0.45631 0.54607 0.0
C3701 C 0.10076 0.49352 0.54681 0.0
C3702 C 0.12645 0.45596 0.56792 0.0
C3703 C 0.12331 0.43692 0.57837 0.0
C3704 C 0.12314 0.41782 0.56719 0.0
C3705 C 0.12564 0.41824 0.54524 0.0
C3706 C 0.12869 0.43733 0.53479 0.0
H3707 H 0.09073 0.50605 0.54031 0.0
H3708 H 0.09286 0.47802 0.54407 0.0
H3709 H 0.1021 0.49617 0.564 0.0
H3710 H 0.12742 0.47037 0.57701 0.0
H3711 H 0.12151 0.43719 0.59528 0.0
H3712 H 0.18402 0.49973 0.18947 0.0
H3713 H 0.21476 0.52134 0.18033 0.0
H3714 H 0.20728 0.55782 0.23692 0.0
H3715 H 0.17624 0.5365 0.24611 0.0
H3716 H 0.21558 0.58239 0.20153 0.0
H3717 H 0.27217 0.51771 0.20887 0.0
H3718 H 0.25068 0.51134 0.19153 0.0
H3719 H 0.24573 0.51578 0.21899 0.0
C3720 C 0.18889 0.51232 0.20002 0.0
C3721 C 0.17777 0.51628 0.2186 0.0
C3722 C 0.20651 0.52459 0.1948 0.0
C3723 C 0.21346 0.54089 0.20815 0.0
C3724 C 0.2022 0.5452 0.2265 0.0
H3725 H 0.33848 0.59407 0.18719 0.0
H3726 H 0.30704 0.58102 0.20521 0.0
C3727 C 0.1845 0.53298 0.23171 0.0
C3728 C 0.2325 0.55341 0.20285 0.0
H3729 H 0.28433 0.54858 0.19101 0.0
C3730 C 0.2307 0.5751 0.19945 0.0
C3731 C 0.25224 0.5439 0.20059 0.0
C3732 C 0.25542 0.52094 0.2054 0.0
C3733 C 0.24802 0.58739 0.19289 0.0
C3734 C 0.26744 0.57759 0.18932 0.0
C3735 C 0.26939 0.55607 0.19361 0.0
C3736 C 0.28571 0.58884 0.18002 0.0
C3737 C 0.24532 0.6107 0.18983 0.0
C3738 C 0.28406 0.59804 0.16009 0.0
C3739 C 0.30199 0.60568 0.14982 0.0
C3740 C 0.32191 0.60388 0.15915 0.0
C3741 C 0.32338 0.59552 0.1795 0.0
C3742 C 0.30543 0.58809 0.18984 0.0
H3743 H 0.23241 0.61672 0.19975 0.0
H3744 H 0.26 0.61967 0.19363 0.0
H3745 H 0.24117 0.61372 0.17319 0.0
H3746 H 0.26909 0.59833 0.15199 0.0
H3747 H 0.30033 0.61193 0.13411 0.0
H3748 H 0.19856 0.41276 0.92541 0.0
H3749 H 0.1696 0.43194 0.91046 0.0
H3750 H 0.12979 0.41243 0.96197 0.0
H3751 H 0.15957 0.39437 0.97792 0.0
H3752 H 0.13104 0.42685 0.8969 0.0
H3753 H 0.12852 0.4736 0.97126 0.0
H3754 H 0.1482 0.4541 0.96737 0.0
H3755 H 0.12136 0.44622 0.9724 0.0
C3756 C 0.18358 0.41231 0.93345 0.0
C3757 C 0.18142 0.40259 0.95306 0.0
C3758 C 0.16691 0.42317 0.92481 0.0
C3759 C 0.1476 0.42417 0.93537 0.0
C3760 C 0.14474 0.41256 0.95392 0.0
H3761 H 0.09612 0.53225 0.86711 0.0
H3762 H 0.09122 0.49701 0.88232 0.0
C3763 C 0.1617 0.40217 0.96295 0.0
C3764 C 0.13224 0.43985 0.92814 0.0
H3765 H 0.1172 0.48944 0.94086 0.0
C3766 C 0.12741 0.44035 0.90659 0.0
C3767 C 0.12701 0.45725 0.94095 0.0
C3768 C 0.13155 0.45793 0.96425 0.0
C3769 C 0.12092 0.45896 0.89696 0.0
C3770 C 0.11837 0.47711 0.90947 0.0
C3771 C 0.11964 0.47549 0.93138 0.0
C3772 C 0.12006 0.49845 0.9004 0.0
C3773 C 0.11922 0.4597 0.87334 0.0
C3774 C 0.1377 0.51096 0.90575 0.0
C3775 C 0.14037 0.531 0.89742 0.0
C3776 C 0.12558 0.53893 0.88331 0.0
C3777 C 0.1079 0.5264 0.8778 0.0
C3778 C 0.10507 0.5063 0.88644 0.0
H3779 H 0.12299 0.44442 0.86588 0.0
H3780 H 0.10298 0.46381 0.86878 0.0
H3781 H 0.13006 0.47202 0.867 0.0
H3782 H 0.14959 0.50512 0.91634 0.0
H3783 H 0.1542 0.54018 0.9019 0.0
H3784 H 0.34227 0.39803 0.67844 0.0
H3785 H 0.31681 0.37611 0.65908 0.0
H3786 H 0.27119 0.38527 0.70807 0.0
H3787 H 0.29682 0.40674 0.72784 0.0
H3788 H 0.26929 0.34447 0.68931 0.0
H3789 H 0.27038 0.40896 0.63014 0.0
H3790 H 0.29503 0.39669 0.6352 0.0
H3791 H 0.28282 0.41184 0.65547 0.0
C3792 C 0.32694 0.39502 0.68527 0.0
C3793 C 0.32131 0.40438 0.70442 0.0
C3794 C 0.31245 0.38252 0.6742 0.0
C3795 C 0.29203 0.37953 0.68195 0.0
C3796 C 0.28689 0.38751 0.70182 0.0
H3797 H 0.16726 0.36091 0.65395 0.0
H3798 H 0.20262 0.36 0.66821 0.0
C3799 C 0.30149 0.3998 0.71306 0.0
C3800 C 0.27528 0.37047 0.66842 0.0
H3801 H 0.24514 0.38223 0.62586 0.0
C3802 C 0.26419 0.35247 0.67522 0.0
C3803 C 0.26879 0.38093 0.64997 0.0
C3804 C 0.27973 0.40075 0.64226 0.0
C3805 C 0.24612 0.34523 0.66459 0.0
C3806 C 0.23891 0.3565 0.64696 0.0
C3807 C 0.25081 0.3736 0.63934 0.0
C3808 C 0.21747 0.35335 0.63845 0.0
C3809 C 0.2345 0.32604 0.67273 0.0
C3810 C 0.21407 0.35009 0.61688 0.0
C3811 C 0.19373 0.35081 0.60855 0.0
C3812 C 0.17662 0.35517 0.62167 0.0
C3813 C 0.1801 0.35773 0.64335 0.0
C3814 C 0.2003 0.35688 0.65162 0.0
H3815 H 0.24542 0.31514 0.68062 0.0
H3816 H 0.22277 0.33099 0.68453 0.0
H3817 H 0.22613 0.31745 0.6599 0.0
H3818 H 0.22722 0.34766 0.60643 0.0
H3819 H 0.19153 0.34873 0.59179 0.0
H3820 H 0.29146 0.58254 0.51969 0.0
H3821 H 0.31699 0.55507 0.51285 0.0
H3822 H 0.31072 0.5656 0.44625 0.0
H3823 H 0.28546 0.59297 0.45289 0.0
H3824 H 0.30279 0.52067 0.49131 0.0
H3825 H 0.37272 0.55287 0.45101 0.0
H3826 H 0.35594 0.56899 0.46699 0.0
H3827 H 0.34934 0.56356 0.43994 0.0
C3828 C 0.29606 0.57946 0.50362 0.0
C3829 C 0.2862 0.58964 0.48679 0.0
C3830 C 0.3107 0.56382 0.49977 0.0
C3831 C 0.31591 0.55844 0.47907 0.0
C3832 C 0.30732 0.56979 0.46237 0.0
H3833 H 0.32864 0.46826 0.39111 0.0
H3834 H 0.32974 0.49882 0.41425 0.0
C3835 C 0.29263 0.58527 0.46618 0.0
C3836 C 0.32638 0.53845 0.47442 0.0
H3837 H 0.36084 0.51748 0.4397 0.0
C3838 C 0.31599 0.51982 0.48062 0.0
C3839 C 0.34361 0.53745 0.46056 0.0
C3840 C 0.35615 0.55683 0.45444 0.0
C3841 C 0.32073 0.50048 0.47138 0.0
C3842 C 0.33665 0.49981 0.45594 0.0
C3843 C 0.3485 0.5181 0.45139 0.0
C3844 C 0.33864 0.48141 0.44194 0.0
C3845 C 0.3073 0.48139 0.47673 0.0
C3846 C 0.34363 0.46154 0.44979 0.0
C3847 C 0.34265 0.44391 0.43664 0.0
C3848 C 0.33698 0.44597 0.41538 0.0
C3849 C 0.33294 0.46608 0.40741 0.0
C3850 C 0.33371 0.4836 0.42059 0.0
H3851 H 0.2937 0.48538 0.48679 0.0
H3852 H 0.30124 0.47366 0.46221 0.0
H3853 H 0.31693 0.46987 0.48532 0.0
H3854 H 0.34782 0.45961 0.46615 0.0
H3855 H 0.34621 0.42867 0.44317 0.0
H3856 H 0.23442 0.16558 0.41288 0.0
H3857 H 0.24318 0.19134 0.38548 0.0
H3858 H 0.30734 0.19398 0.40772 0.0
H3859 H 0.29895 0.16795 0.4342 0.0
H3860 H 0.25386 0.22948 0.39179 0.0
H3861 H 0.31891 0.19725 0.34712 0.0
H3862 H 0.30228 0.18062 0.36329 0.0
H3863 H 0.32545 0.19356 0.37415 0.0
C3864 C 0.25047 0.17138 0.41155 0.0
C3865 C 0.26599 0.16487 0.42571 0.0
C3866 C 0.25549 0.18597 0.39583 0.0
C3867 C 0.27606 0.19425 0.39414 0.0
C3868 C 0.29158 0.18727 0.40803 0.0
H3869 H 0.32222 0.30969 0.40704 0.0
H3870 H 0.30396 0.27586 0.40416 0.0
C3871 C 0.28666 0.17259 0.42348 0.0
C3872 C 0.28087 0.2127 0.38073 0.0
H3873 H 0.32328 0.23574 0.35689 0.0
C3874 C 0.26865 0.23064 0.38341 0.0
C3875 C 0.29971 0.2143 0.36902 0.0
C3876 C 0.31212 0.19525 0.36306 0.0
C3877 C 0.27636 0.25052 0.37756 0.0
C3878 C 0.29698 0.25244 0.3695 0.0
C3879 C 0.30778 0.2343 0.36385 0.0
C3880 C 0.30874 0.27267 0.37064 0.0
C3881 C 0.26298 0.26943 0.38155 0.0
C3882 C 0.31862 0.28145 0.35297 0.0
C3883 C 0.32948 0.30075 0.35466 0.0
C3884 C 0.33058 0.31139 0.37407 0.0
C3885 C 0.32142 0.30202 0.39183 0.0
C3886 C 0.31077 0.2828 0.39016 0.0
H3887 H 0.24606 0.26536 0.37932 0.0
H3888 H 0.26512 0.27469 0.39807 0.0
H3889 H 0.26729 0.28269 0.37098 0.0
H3890 H 0.31753 0.27363 0.33786 0.0
H3891 H 0.33634 0.30766 0.34068 0.0
H3892 H 0.76339 0.32131 0.55953 0.0
H3893 H 0.78113 0.2978 0.58378 0.0
H3894 H 0.84012 0.33017 0.57167 0.0
H3895 H 0.8226 0.35297 0.54659 0.0
H3896 H 0.84352 0.29077 0.5644 0.0
H3897 H 0.80503 0.29786 0.6415 0.0
H3898 H 0.78578 0.29299 0.62141 0.0
H3899 H 0.80145 0.31694 0.62092 0.0
C3900 C 0.78005 0.32365 0.56241 0.0
C3901 C 0.79172 0.33869 0.55102 0.0
C3902 C 0.79015 0.31038 0.57647 0.0
C3903 C 0.81193 0.31239 0.57979 0.0
C3904 C 0.8233 0.32838 0.5694 0.0
H3905 H 0.89365 0.21354 0.62642 0.0
H3906 H 0.88026 0.24915 0.62283 0.0
C3907 C 0.81332 0.34129 0.555 0.0
C3908 C 0.82329 0.29571 0.591 0.0
H3909 H 0.82166 0.26422 0.63434 0.0
C3910 C 0.83914 0.28538 0.57996 0.0
C3911 C 0.81752 0.2886 0.61126 0.0
C3912 C 0.80166 0.29987 0.6245 0.0
C3913 C 0.84845 0.26739 0.58802 0.0
C3914 C 0.84178 0.25958 0.60768 0.0
C3915 C 0.82666 0.27036 0.61924 0.0
C3916 C 0.84864 0.23886 0.61491 0.0
C3917 C 0.86443 0.2561 0.57486 0.0
C3918 C 0.83498 0.22148 0.61245 0.0
C3919 C 0.84255 0.20115 0.61431 0.0
C3920 C 0.86391 0.19793 0.61869 0.0
C3921 C 0.87716 0.21546 0.62281 0.0
C3922 C 0.86956 0.23581 0.62087 0.0
H3923 H 0.86618 0.26306 0.55895 0.0
H3924 H 0.87996 0.25696 0.58281 0.0
H3925 H 0.85989 0.23923 0.57312 0.0
H3926 H 0.81879 0.22362 0.60777 0.0
H3927 H 0.83184 0.18801 0.61136 0.0
H3928 H 0.40835 0.04378 0.27037 0.0
H3929 H 0.43721 0.05696 0.29239 0.0
H3930 H 0.44439 -0.0048 0.31883 0.0
H3931 H 0.41537 0.98171 0.29688 0.0
H3932 H 0.44578 0.045 0.34516 0.0
H3933 H 0.50007 0.0223 0.28063 0.0
H3934 H 0.4741 0.03138 0.27447 0.0
H3935 H 0.47714 0.00636 0.28687 0.0
C3936 C 0.41581 0.03301 0.28108 0.0
C3937 C 0.40972 0.01163 0.28171 0.0
C3938 C 0.4322 0.04063 0.29371 0.0
C3939 C 0.44276 0.02701 0.30714 0.0
C3940 C 0.43621 0.00589 0.30859 0.0
H3941 H 0.56941 0.05248 0.35157 0.0
H3942 H 0.53612 0.03456 0.34343 0.0
C3943 C 0.41971 -0.00175 0.296 0.0
C3944 C 0.46213 0.03445 0.31766 0.0
H3945 H 0.51447 0.04165 0.30873 0.0
C3946 C 0.4609 0.04411 0.33741 0.0
C3947 C 0.48167 0.0331 0.30741 0.0
C3948 C 0.48355 0.02272 0.28617 0.0
C3949 C 0.4789 0.05289 0.34709 0.0
C3950 C 0.49837 0.05229 0.33643 0.0
C3951 C 0.49955 0.04209 0.3169 0.0
C3952 C 0.5177 0.06278 0.3446 0.0
C3953 C 0.47691 0.06263 0.3686 0.0
C3954 C 0.51833 0.08456 0.34833 0.0
C3955 C 0.53735 0.09486 0.35317 0.0
C3956 C 0.55608 0.08356 0.35394 0.0
C3957 C 0.55527 0.06165 0.35085 0.0
C3958 C 0.53625 0.05137 0.34629 0.0
H3959 H 0.46318 0.05592 0.3772 0.0
H3960 H 0.4913 0.06028 0.37815 0.0
H3961 H 0.47454 0.07978 0.36692 0.0
H3962 H 0.5043 0.09377 0.34658 0.0
H3963 H 0.53751 0.11176 0.35538 0.0
H3964 H 0.69843 0.62221 0.04119 0.0
H3965 H 0.67579 0.64178 0.06503 0.0
H3966 H 0.7221 0.69222 0.06771 0.0
H3967 H 0.74502 0.67254 0.04458 0.0
H3968 H 0.70202 0.68611 0.10572 0.0
H3969 H 0.64443 0.69041 0.03971 0.0
H3970 H 0.65059 0.66464 0.04906 0.0
H3971 H 0.67041 0.6803 0.03606 0.0
C3972 C 0.70392 0.63731 0.04719 0.0
C3973 C 0.72332 0.64604 0.04074 0.0
C3974 C 0.69095 0.64848 0.06074 0.0
C3975 C 0.69707 0.66864 0.06772 0.0
C3976 C 0.71705 0.6767 0.06245 0.0
H3977 H 0.66741 0.78868 0.0952 0.0
H3978 H 0.68141 0.75337 0.09384 0.0
C3979 C 0.7301 0.66547 0.04914 0.0
C3980 C 0.68213 0.68257 0.07844 0.0
H3981 H 0.6395 0.71262 0.06827 0.0
C3982 C 0.68806 0.69157 0.09778 0.0
C3983 C 0.66383 0.68958 0.06811 0.0
C3984 C 0.65691 0.68089 0.04704 0.0
C3985 C 0.67705 0.70847 0.10628 0.0
C3986 C 0.65984 0.71654 0.09507 0.0
C3987 C 0.65275 0.70632 0.07678 0.0
C3988 C 0.65154 0.73758 0.09959 0.0
C3989 C 0.68458 0.71825 0.12662 0.0
C3990 C 0.63004 0.74041 0.10322 0.0
C3991 C 0.62193 0.76069 0.10396 0.0
C3992 C 0.63517 0.77835 0.10062 0.0
C3993 C 0.65677 0.7754 0.09763 0.0
C3994 C 0.66486 0.75523 0.09715 0.0
H3995 H 0.69254 0.70652 0.13662 0.0
H3996 H 0.69613 0.73107 0.12313 0.0
H3997 H 0.67136 0.72503 0.13555 0.0
H3998 H 0.6195 0.72693 0.10483 0.0
H3999 H 0.60521 0.76249 0.10628 0.0
H4000 H 0.55142 0.45973 0.29628 0.0
H4001 H 0.51724 0.4596 0.31341 0.0
H4002 H 0.50802 0.52372 0.29403 0.0
H4003 H 0.54243 0.52399 0.27664 0.0
H4004 H 0.49868 0.48794 0.34488 0.0
H4005 H 0.45912 0.48771 0.26648 0.0
H4006 H 0.48657 0.4816 0.26903 0.0
H4007 H 0.47819 0.50811 0.27272 0.0
C4008 C 0.54228 0.47391 0.29586 0.0
C4009 C 0.54944 0.49177 0.2849 0.0
C4010 C 0.52282 0.47385 0.30574 0.0
C4011 C 0.51014 0.49159 0.30479 0.0
C4012 C 0.51761 0.50985 0.29477 0.0
H4013 H 0.37848 0.45762 0.33222 0.0
H4014 H 0.40781 0.48219 0.32526 0.0
C4015 C 0.53722 0.50997 0.2849 0.0
C4016 C 0.48845 0.48974 0.31268 0.0
H4017 H 0.43929 0.47634 0.29529 0.0
C4018 C 0.48549 0.48603 0.33416 0.0
C4019 C 0.47131 0.48747 0.29864 0.0
C4020 C 0.47378 0.49136 0.2754 0.0
C4021 C 0.46621 0.47829 0.34172 0.0
C4022 C 0.44977 0.47386 0.32733 0.0
C4023 C 0.45205 0.47963 0.30622 0.0
C4024 C 0.43187 0.45993 0.33298 0.0
C4025 C 0.464 0.47374 0.36485 0.0
C4026 C 0.4358 0.43924 0.33918 0.0
C4027 C 0.41923 0.42517 0.34295 0.0
C4028 C 0.39833 0.43147 0.34051 0.0
C4029 C 0.3944 0.45226 0.33427 0.0
C4030 C 0.41109 0.46636 0.33038 0.0
H4031 H 0.47422 0.48452 0.37434 0.0
H4032 H 0.44748 0.47527 0.37011 0.0
H4033 H 0.469 0.45741 0.36797 0.0
H4034 H 0.45176 0.43382 0.34069 0.0
H4035 H 0.42287 0.40932 0.34775 0.0
H4036 H 0.22967 0.80438 0.98108 0.0
H4037 H 0.21406 0.77621 0.95976 0.0
H4038 H 0.25886 0.78945 0.91053 0.0
H4039 H 0.27524 0.81708 0.93232 0.0
H4040 H 0.19508 0.77719 0.92331 0.0
H4041 H 0.26545 0.72744 0.91614 0.0
H4042 H 0.2646 0.74966 0.93374 0.0
H4043 H 0.2691 0.7536 0.90613 0.0
C4044 C 0.23627 0.80122 0.96575 0.0
C4045 C 0.25375 0.8128 0.9584 0.0
C4046 C 0.22732 0.78515 0.95356 0.0
C4047 C 0.23547 0.78051 0.93365 0.0
C4048 C 0.25267 0.79235 0.92606 0.0
H4049 H 0.15579 0.69366 0.85866 0.0
H4050 H 0.17689 0.72501 0.8679 0.0
C4051 C 0.26193 0.8082 0.93847 0.0
C4052 C 0.22559 0.76337 0.92101 0.0
H4053 H 0.23492 0.71585 0.89819 0.0
C4054 C 0.20379 0.7638 0.91773 0.0
C4055 C 0.23702 0.74591 0.91381 0.0
C4056 C 0.26029 0.74396 0.91777 0.0
C4057 C 0.19291 0.74685 0.90832 0.0
C4058 C 0.20432 0.72936 0.90113 0.0
C4059 C 0.22625 0.72934 0.90358 0.0
C4060 C 0.19361 0.70999 0.89325 0.0
C4061 C 0.1692 0.7474 0.90739 0.0
C4062 C 0.19699 0.69084 0.9035 0.0
C4063 C 0.18544 0.67284 0.89787 0.0
C4064 C 0.17004 0.67371 0.88207 0.0
C4065 C 0.16735 0.69263 0.87112 0.0
C4066 C 0.17927 0.71057 0.87647 0.0
H4067 H 0.1628 0.75945 0.91816 0.0
H4068 H 0.16421 0.7514 0.8912 0.0
H4069 H 0.1621 0.73188 0.91156 0.0
H4070 H 0.20802 0.68998 0.91645 0.0
H4071 H 0.18787 0.65849 0.90662 0.0
H4072 H 0.41482 -0.0084 0.17471 0.0
H4073 H 0.44172 0.97999 0.15006 0.0
H4074 H 0.42849 0.91542 0.16689 0.0
H4075 H 0.40169 0.92677 0.19146 0.0
H4076 H 0.47602 0.95761 0.16583 0.0
H4077 H 0.43557 0.9126 0.10257 0.0
H4078 H 0.42244 0.93184 0.11857 0.0
H4079 H 0.42639 0.90568 0.12833 0.0
C4080 C 0.41734 0.97491 0.17282 0.0
C4081 C 0.40634 0.9601 0.18519 0.0
C4082 C 0.43262 0.96833 0.15868 0.0
C4083 C 0.43682 0.94687 0.15648 0.0
C4084 C 0.42513 0.93203 0.16804 0.0
H4085 H 0.5289 0.85927 0.12961 0.0
H4086 H 0.49681 0.87928 0.13424 0.0
C4087 C 0.41001 0.93857 0.18227 0.0
C4088 C 0.45556 0.94002 0.14501 0.0
H4089 H 0.47183 0.904 0.10912 0.0
C4090 C 0.47522 0.9463 0.15304 0.0
C4091 C 0.45429 0.92519 0.12849 0.0
C4092 C 0.43352 0.91857 0.11884 0.0
C4093 C 0.49366 0.93693 0.1461 0.0
C4094 C 0.49234 0.92131 0.13022 0.0
C4095 C 0.47276 0.91595 0.1213 0.0
C4096 C 0.51081 0.90895 0.12436 0.0
C4097 C 0.51412 0.94275 0.15693 0.0
C4098 C 0.52903 0.9189 0.11661 0.0
C4099 C 0.54745 0.90762 0.11438 0.0
C4100 C 0.54778 0.88611 0.11942 0.0
C4101 C 0.52911 0.87585 0.12574 0.0
C4102 C 0.51078 0.88724 0.1283 0.0
H4103 H 0.5116 0.9516 0.17176 0.0
H4104 H 0.5232 0.92849 0.16063 0.0
H4105 H 0.52377 0.95288 0.1464 0.0
H4106 H 0.52919 0.93553 0.11298 0.0
H4107 H 0.56152 0.91582 0.10904 0.0
H4108 H 0.10273 0.03553 0.71626 0.0
H4109 H 0.08669 0.05642 0.68845 0.0
H4110 H 0.03525 0.01133 0.68435 0.0
H4111 H 0.05146 -0.0099 0.71156 0.0
H4112 H 0.04802 0.02622 0.64524 0.0
H4113 H 0.03621 0.09183 0.70213 0.0
H4114 H 0.06278 0.08395 0.69778 0.0
H4115 H 0.04453 0.06625 0.7105 0.0
C4116 C 0.08807 0.03002 0.70931 0.0
C4117 C 0.07816 0.01136 0.71628 0.0
C4118 C 0.07896 0.04196 0.69345 0.0
C4119 C 0.05964 0.03557 0.68461 0.0
C4120 C 0.05018 0.01652 0.69097 0.0
H4121 H 0.94695 0.065 0.6356 0.0
H4122 H 0.98109 0.04967 0.64189 0.0
C4123 C 0.05939 0.00448 0.70662 0.0
C4124 C 0.04812 0.04931 0.6701 0.0
H4125 H 0.01905 0.09373 0.66994 0.0
C4126 C 0.04202 0.04122 0.65041 0.0
C4127 C 0.04052 0.06898 0.67681 0.0
C4128 C 0.04618 0.07829 0.69798 0.0
C4129 C 0.0273 0.05155 0.63794 0.0
C4130 C 0.01841 0.07027 0.64549 0.0
C4131 C 0.02593 0.07933 0.66423 0.0
C4132 C -0.0012 0.07861 0.63666 0.0
C4133 C 0.02065 0.04185 0.61728 0.0
C4134 C -0.00255 0.09993 0.63136 0.0
C4135 C 0.97785 0.10883 0.6279 0.0
C4136 C 0.95933 0.09656 0.63004 0.0
C4137 C 0.96089 0.07492 0.63404 0.0
C4138 C 0.98044 0.06605 0.63736 0.0
H4139 H 0.03364 0.03282 0.61022 0.0
H4140 H 0.00728 0.03071 0.61997 0.0
H4141 H 0.01558 0.054 0.60595 0.0
H4142 H 0.01145 0.1099 0.63098 0.0
H4143 H 0.97719 0.12554 0.62476 0.0
loop_
_geom_bond_atom_site_label_1
_geom_bond_atom_site_label_2
_geom_bond_distance
_geom_bond_site_symmetry_2
_ccdc_geom_bond_type
C0 O1 1.306 . S
C0 O3 1.160 . S
O1 C0 1.306 . S
O1 Cd2 2.228 . S
Cd2 O1 2.228 . S
Cd2 O6 2.273 . S
Cd2 O10 2.322 . S
O3 C0 1.160 . S
O3 Cd4 2.203 1_655 S
Cd4 O3 2.203 1_455 S
Cd4 O6 2.411 1_455 S
Cd4 O7 2.333 . S
Cd4 O8 2.352 . S
Cd4 O12 2.277 . S
Cd4 O13 2.356 . S
C5 O10 1.163 1_455 S
C5 O12 1.226 . S
O6 Cd2 2.273 . S
O6 Cd4 2.411 1_655 S
O6 C9 1.320 . S
O7 Cd4 2.333 . S
O7 C9 1.214 1_455 S
O8 Cd4 2.352 . S
O8 C11 1.258 . S
C9 O6 1.320 . S
C9 O7 1.214 1_655 S
O10 Cd2 2.322 . S
O10 C5 1.163 1_655 S
C11 O8 1.258 . S
C11 O13 1.282 . S
O12 Cd4 2.277 . S
O12 C5 1.226 . S
O13 Cd4 2.356 . S
O13 C11 1.282 . S
C14 O15 1.306 . S
C14 O17 1.160 . S
O15 C14 1.306 . S
O15 Cd16 2.228 1_455 S
Cd16 O15 2.228 1_655 S
Cd16 O20 2.273 . S
Cd16 O24 2.277 . S
O17 C14 1.160 . S
O17 Cd18 2.203 . S
Cd18 O17 2.203 . S
Cd18 O20 2.411 1_455 S
Cd18 O21 2.333 1_455 S
Cd18 O22 2.352 . S
Cd18 O26 2.277 1_455 S
Cd18 O27 2.356 . S
C19 O24 1.209 . S
C19 O26 1.226 . S
O20 Cd16 2.273 . S
O20 Cd18 2.411 1_655 S
O20 C23 1.320 . S
O21 Cd18 2.333 1_655 S
O21 C23 1.214 . S
O22 Cd18 2.352 . S
O22 C25 1.258 . S
C23 O20 1.320 . S
C23 O21 1.214 . S
O24 Cd16 2.277 . S
O24 C19 1.209 . S
C25 O22 1.258 . S
C25 O27 1.282 . S
O26 Cd18 2.277 1_655 S
O26 C19 1.226 . S
O27 Cd18 2.356 . S
O27 C25 1.282 . S
C28 O29 1.306 . S
C28 O31 1.160 . S
O29 C28 1.306 . S
O29 Cd30 2.228 . S
Cd30 O29 2.228 . S
Cd30 O34 2.273 . S
Cd30 O38 2.277 . S
O31 C28 1.160 . S
O31 Cd32 2.203 . S
Cd32 O31 2.203 . S
Cd32 O34 2.411 . S
Cd32 O35 2.333 . S
Cd32 O36 2.352 . S
Cd32 O40 2.277 . S
Cd32 O41 2.356 . S
C33 O38 1.209 . S
C33 O40 1.226 . S
O34 Cd30 2.273 . S
O34 Cd32 2.411 . S
O34 C37 1.320 . S
O35 Cd32 2.333 . S
O35 C37 1.214 . S
O36 Cd32 2.352 . S
O36 C39 1.258 . S
C37 O34 1.320 . S
C37 O35 1.214 . S
O38 Cd30 2.277 . S
O38 C33 1.209 . S
C39 O36 1.258 . S
C39 O41 1.282 . S
O40 Cd32 2.277 . S
O40 C33 1.226 . S
O41 Cd32 2.356 . S
O41 C39 1.282 . S
C42 O43 1.306 . S
C42 O45 1.160 . S
O43 C42 1.306 . S
O43 Cd44 2.228 . S
Cd44 O43 2.228 . S
Cd44 O48 2.273 . S
Cd44 O52 2.277 . S
O45 C42 1.160 . S
O45 Cd46 2.203 . S
Cd46 O45 2.203 . S
Cd46 O48 2.411 . S
Cd46 O49 2.333 . S
Cd46 O50 2.352 . S
Cd46 O54 2.277 . S
Cd46 O55 2.356 . S
C47 O52 1.209 . S
C47 O54 1.226 . S
O48 Cd44 2.273 . S
O48 Cd46 2.411 . S
O48 C51 1.320 . S
O49 Cd46 2.333 . S
O49 C51 1.214 . S
O50 Cd46 2.352 . S
O50 C53 1.258 . S
C51 O48 1.320 . S
C51 O49 1.214 . S
O52 Cd44 2.277 . S
O52 C47 1.209 . S
C53 O50 1.258 . S
C53 O55 1.282 . S
O54 Cd46 2.277 . S
O54 C47 1.226 . S
O55 Cd46 2.356 . S
O55 C53 1.282 . S
C56 O57 1.306 . S
C56 O59 1.160 . S
O57 C56 1.306 . S
O57 Cd58 2.228 . S
Cd58 O57 2.228 . S
Cd58 O62 2.273 . S
Cd58 O66 2.277 . S
O59 C56 1.160 . S
O59 Cd60 2.203 1_655 S
Cd60 O59 2.203 1_455 S
Cd60 O62 2.411 1_455 S
Cd60 O63 2.333 . S
Cd60 O64 2.359 . S
Cd60 O68 2.277 . S
Cd60 O69 2.356 . S
C61 O66 1.209 1_455 S
C61 O68 1.226 . S
O62 Cd58 2.273 . S
O62 Cd60 2.411 1_655 S
O62 C65 1.320 . S
O63 Cd60 2.333 . S
O63 C65 1.214 1_455 S
O64 Cd60 2.359 . S
O64 C67 1.313 . S
C65 O62 1.320 . S
C65 O63 1.214 1_655 S
O66 Cd58 2.277 . S
O66 C61 1.209 1_655 S
C67 O64 1.313 . S
C67 O69 1.282 . S
O68 Cd60 2.277 . S
O68 C61 1.226 . S
O69 Cd60 2.356 . S
O69 C67 1.282 . S
C70 O71 1.306 . S
C70 O73 1.160 . S
O71 C70 1.306 . S
O71 Cd72 2.228 . S
Cd72 O71 2.228 . S
Cd72 O76 2.273 . S
Cd72 O80 2.277 . S
O73 C70 1.160 . S
O73 Cd74 2.203 . S
Cd74 O73 2.203 . S
Cd74 O76 2.411 . S
Cd74 O77 2.333 . S
Cd74 O78 2.352 . S
Cd74 O82 2.277 . S
Cd74 O83 2.356 . S
C75 O80 1.209 . S
C75 O82 1.226 . S
O76 Cd72 2.273 . S
O76 Cd74 2.411 . S
O76 C79 1.320 . S
O77 Cd74 2.333 . S
O77 C79 1.214 . S
O78 Cd74 2.352 . S
O78 C81 1.258 . S
C79 O76 1.320 . S
C79 O77 1.214 . S
O80 Cd72 2.277 . S
O80 C75 1.209 . S
C81 O78 1.258 . S
C81 O83 1.282 . S
O82 Cd74 2.277 . S
O82 C75 1.226 . S
O83 Cd74 2.356 . S
O83 C81 1.282 . S
C84 O85 1.306 . S
C84 O87 1.160 . S
O85 C84 1.306 . S
O85 Cd86 2.228 . S
Cd86 O85 2.228 . S
Cd86 O90 2.273 . S
Cd86 O94 2.277 . S
O87 C84 1.160 . S
O87 Cd88 2.203 . S
Cd88 O87 2.203 . S
Cd88 O90 2.411 . S
Cd88 O91 2.333 . S
Cd88 O92 2.352 . S
Cd88 O96 2.277 . S
Cd88 O97 2.356 . S
C89 O94 1.209 . S
C89 O96 1.226 . S
O90 Cd86 2.273 . S
O90 Cd88 2.411 . S
O90 C93 1.320 . S
O91 Cd88 2.333 . S
O91 C93 1.214 . S
O92 Cd88 2.352 . S
O92 C95 1.258 . S
C93 O90 1.320 . S
C93 O91 1.214 . S
O94 Cd86 2.277 . S
O94 C89 1.209 . S
C95 O92 1.258 . S
C95 O97 1.282 . S
O96 Cd88 2.277 . S
O96 C89 1.226 . S
O97 Cd88 2.356 . S
O97 C95 1.282 . S
C98 O99 1.306 . S
C98 O101 1.160 . S
O99 C98 1.306 . S
O99 Cd100 2.228 1_455 S
Cd100 O99 2.228 1_655 S
Cd100 O104 2.273 . S
Cd100 O108 2.277 . S
O101 C98 1.160 . S
O101 Cd102 2.203 . S
Cd102 O101 2.203 . S
Cd102 O104 2.411 1_455 S
Cd102 O105 2.333 1_455 S
Cd102 O106 2.352 . S
Cd102 O110 2.277 1_455 S
Cd102 O111 2.356 . S
C103 O108 1.209 . S
C103 O110 1.226 . S
O104 Cd100 2.273 . S
O104 Cd102 2.411 1_655 S
O104 C107 1.320 . S
O105 Cd102 2.333 1_655 S
O105 C107 1.214 . S
O106 Cd102 2.352 . S
O106 C109 1.258 . S
C107 O104 1.320 . S
C107 O105 1.214 . S
O108 Cd100 2.277 . S
O108 C103 1.209 . S
C109 O106 1.258 . S
C109 O111 1.282 . S
O110 Cd102 2.277 1_655 S
O110 C103 1.226 . S
O111 Cd102 2.356 . S
O111 C109 1.282 . S
C112 O113 1.306 . S
C112 O115 1.160 1_565 S
O113 C112 1.306 . S
O113 Cd114 2.228 . S
Cd114 O113 2.228 . S
Cd114 O118 2.273 . S
Cd114 O122 2.277 1_565 S
O115 C112 1.160 1_545 S
O115 Cd116 2.203 . S
Cd116 O115 2.203 . S
Cd116 O118 2.411 1_545 S
Cd116 O119 2.333 . S
Cd116 O120 2.352 . S
Cd116 O124 2.277 . S
Cd116 O125 2.356 . S
C117 O122 1.209 . S
C117 O124 1.226 . S
O118 Cd114 2.273 . S
O118 Cd116 2.411 1_565 S
O118 C121 1.320 . S
O119 Cd116 2.333 . S
O119 C121 1.214 1_545 S
O120 Cd116 2.352 . S
O120 C123 1.258 . S
C121 O118 1.320 . S
C121 O119 1.214 1_565 S
O122 Cd114 2.277 1_545 S
O122 C117 1.209 . S
C123 O120 1.258 . S
C123 O125 1.282 . S
O124 Cd116 2.277 . S
O124 C117 1.226 . S
O125 Cd116 2.356 . S
O125 C123 1.282 . S
C126 O127 1.306 . S
C126 O129 1.160 . S
O127 C126 1.306 . S
O127 Cd128 2.228 . S
Cd128 O127 2.228 . S
Cd128 O132 2.273 . S
Cd128 O136 2.277 . S
O129 C126 1.160 . S
O129 Cd130 2.203 . S
Cd130 O129 2.203 . S
Cd130 O132 2.411 . S
Cd130 O133 2.333 . S
Cd130 O134 2.352 . S
Cd130 O138 2.277 . S
Cd130 O139 2.356 . S
C131 O136 1.209 . S
C131 O138 1.226 . S
O132 Cd128 2.273 . S
O132 Cd130 2.411 . S
O132 C135 1.320 . S
O133 Cd130 2.333 . S
O133 C135 1.214 . S
O134 Cd130 2.352 . S
O134 C137 1.258 . S
C135 O132 1.320 . S
C135 O133 1.214 . S
O136 Cd128 2.277 . S
O136 C131 1.209 . S
C137 O134 1.258 . S
C137 O139 1.282 . S
O138 Cd130 2.277 . S
O138 C131 1.226 . S
O139 Cd130 2.356 . S
O139 C137 1.282 . S
C140 O141 1.306 . S
C140 O143 1.160 . S
O141 C140 1.306 . S
O141 Cd142 2.228 . S
Cd142 O141 2.228 . S
Cd142 O146 2.273 . S
Cd142 O150 2.277 . S
O143 C140 1.160 . S
O143 Cd144 2.203 1_565 S
Cd144 O143 2.203 1_545 S
Cd144 O146 2.411 1_545 S
Cd144 O147 2.333 . S
Cd144 O148 2.352 . S
Cd144 O152 2.277 . S
Cd144 O153 2.356 . S
C145 O150 1.209 1_545 S
C145 O152 1.226 . S
O146 Cd142 2.273 . S
O146 Cd144 2.411 1_565 S
O146 C149 1.320 . S
O147 Cd144 2.333 . S
O147 C149 1.214 1_545 S
O148 Cd144 2.352 . S
O148 C151 1.258 . S
C149 O146 1.320 . S
C149 O147 1.214 1_565 S
O150 Cd142 2.277 . S
O150 C145 1.209 1_565 S
C151 O148 1.258 . S
C151 O153 1.282 . S
O152 Cd144 2.277 . S
O152 C145 1.226 . S
O153 Cd144 2.356 . S
O153 C151 1.282 . S
C154 O155 1.306 . S
C154 O157 1.160 . S
O155 C154 1.306 . S
O155 Cd156 2.228 1_554 S
Cd156 O155 2.228 1_556 S
Cd156 O160 2.273 . S
Cd156 O164 2.277 . S
O157 C154 1.160 . S
O157 Cd158 2.203 . S
Cd158 O157 2.203 . S
Cd158 O160 2.411 1_554 S
Cd158 O161 2.333 1_554 S
Cd158 O162 2.352 . S
Cd158 O166 2.277 1_554 S
Cd158 O167 2.356 . S
C159 O164 1.209 . S
C159 O166 1.226 . S
O160 Cd156 2.273 . S
O160 Cd158 2.411 1_556 S
O160 C163 1.320 . S
O161 Cd158 2.333 1_556 S
O161 C163 1.214 . S
O162 Cd158 2.352 . S
O162 C165 1.258 . S
C163 O160 1.320 . S
C163 O161 1.214 . S
O164 Cd156 2.277 . S
O164 C159 1.209 . S
C165 O162 1.258 . S
C165 O167 1.282 . S
O166 Cd158 2.277 1_556 S
O166 C159 1.226 . S
O167 Cd158 2.356 . S
O167 C165 1.282 . S
C168 O169 1.306 . S
C168 O171 1.160 . S
O169 C168 1.306 . S
O169 Cd170 2.228 . S
Cd170 O169 2.228 . S
Cd170 O174 2.273 . S
Cd170 O178 2.277 . S
O171 C168 1.160 . S
O171 Cd172 2.203 1_554 S
Cd172 O171 2.203 1_556 S
Cd172 O174 2.411 1_556 S
Cd172 O175 2.334 . S
Cd172 O176 2.345 1_556 S
Cd172 O180 2.277 . S
Cd172 O181 2.356 . S
C173 O178 1.209 1_556 S
C173 O180 1.226 . S
O174 Cd170 2.273 . S
O174 Cd172 2.411 1_554 S
O174 C177 1.320 . S
O175 Cd172 2.334 . S
O175 C177 1.198 1_556 S
O176 Cd172 2.345 1_554 S
O176 C179 1.207 1_554 S
C177 O174 1.320 . S
C177 O175 1.198 1_554 S
O178 Cd170 2.277 . S
O178 C173 1.209 1_554 S
C179 O176 1.207 1_556 S
C179 O181 1.282 . S
O180 Cd172 2.277 . S
O180 C173 1.226 . S
O181 Cd172 2.356 . S
O181 C179 1.282 . S
C182 O183 1.306 . S
C182 O185 1.160 . S
O183 C182 1.306 . S
O183 Cd184 2.228 . S
Cd184 O183 2.228 . S
Cd184 O188 2.273 . S
Cd184 O192 2.277 . S
O185 C182 1.160 . S
O185 Cd186 2.203 1_554 S
Cd186 O185 2.203 1_556 S
Cd186 O188 2.411 1_556 S
Cd186 O189 2.333 . S
Cd186 O190 2.360 . S
Cd186 O194 2.277 . S
Cd186 O195 2.356 . S
C187 O192 1.209 1_556 S
C187 O194 1.226 . S
O188 Cd184 2.273 . S
O188 Cd186 2.411 1_554 S
O188 C191 1.320 . S
O189 Cd186 2.333 . S
O189 C191 1.214 1_556 S
O190 Cd186 2.360 . S
O190 C193 1.312 . S
C191 O188 1.320 . S
C191 O189 1.214 1_554 S
O192 Cd184 2.277 . S
O192 C187 1.209 1_554 S
C193 O190 1.312 . S
C193 O195 1.282 . S
O194 Cd186 2.277 . S
O194 C187 1.226 . S
O195 Cd186 2.356 . S
O195 C193 1.282 . S
C196 O197 1.306 . S
C196 O199 1.160 . S
O197 C196 1.306 . S
O197 Cd198 2.228 . S
Cd198 O197 2.228 . S
Cd198 O202 2.273 . S
Cd198 O206 2.277 . S
O199 C196 1.160 . S
O199 Cd200 2.203 . S
Cd200 O199 2.203 . S
Cd200 O202 2.411 . S
Cd200 O203 2.333 . S
Cd200 O204 2.352 . S
Cd200 O208 2.277 . S
Cd200 O209 2.356 . S
C201 O206 1.209 . S
C201 O208 1.226 . S
O202 Cd198 2.273 . S
O202 Cd200 2.411 . S
O202 C205 1.320 . S
O203 Cd200 2.333 . S
O203 C205 1.214 . S
O204 Cd200 2.352 . S
O204 C207 1.258 . S
C205 O202 1.320 . S
C205 O203 1.214 . S
O206 Cd198 2.277 . S
O206 C201 1.209 . S
C207 O204 1.258 . S
C207 O209 1.282 . S
O208 Cd200 2.277 . S
O208 C201 1.226 . S
O209 Cd200 2.356 . S
O209 C207 1.282 . S
C210 O211 1.306 . S
C210 O213 1.160 . S
O211 C210 1.306 . S
O211 Cd212 2.228 . S
Cd212 O211 2.228 . S
Cd212 O216 2.273 . S
Cd212 O220 2.277 . S
O213 C210 1.160 . S
O213 Cd214 2.203 . S
Cd214 O213 2.203 . S
Cd214 O216 2.411 . S
Cd214 O217 2.333 . S
Cd214 O218 2.352 . S
Cd214 O222 2.277 . S
Cd214 O223 2.356 . S
C215 O220 1.209 . S
C215 O222 1.226 . S
O216 Cd212 2.273 . S
O216 Cd214 2.411 . S
O216 C219 1.320 . S
O217 Cd214 2.333 . S
O217 C219 1.214 . S
O218 Cd214 2.352 . S
O218 C221 1.258 . S
C219 O216 1.320 . S
C219 O217 1.214 . S
O220 Cd212 2.277 . S
O220 C215 1.209 . S
C221 O218 1.258 . S
C221 O223 1.282 . S
O222 Cd214 2.277 . S
O222 C215 1.226 . S
O223 Cd214 2.356 . S
O223 C221 1.282 . S
C224 O225 1.306 . S
C224 O227 1.160 . S
O225 C224 1.306 . S
O225 Cd226 2.228 1_545 S
Cd226 O225 2.228 1_565 S
Cd226 O230 2.273 . S
Cd226 O234 2.277 . S
O227 C224 1.160 . S
O227 Cd228 2.203 . S
Cd228 O227 2.203 . S
Cd228 O230 2.411 1_545 S
Cd228 O231 2.333 1_545 S
Cd228 O232 2.352 . S
Cd228 O236 2.277 1_545 S
Cd228 O237 2.356 . S
C229 O234 1.209 . S
C229 O236 1.226 . S
O230 Cd226 2.273 . S
O230 Cd228 2.411 1_565 S
O230 C233 1.320 . S
O231 Cd228 2.333 1_565 S
O231 C233 1.214 . S
O232 Cd228 2.352 . S
O232 C235 1.258 . S
C233 O230 1.320 . S
C233 O231 1.214 . S
O234 Cd226 2.277 . S
O234 C229 1.209 . S
C235 O232 1.258 . S
C235 O237 1.282 . S
O236 Cd228 2.277 1_565 S
O236 C229 1.226 . S
O237 Cd228 2.356 . S
O237 C235 1.282 . S
C238 O239 1.306 . S
C238 O241 1.160 . S
O239 C238 1.306 . S
O239 Cd240 2.228 . S
Cd240 O239 2.228 . S
Cd240 O244 2.273 . S
Cd240 O248 2.277 . S
O241 C238 1.160 . S
O241 Cd242 2.203 . S
Cd242 O241 2.203 . S
Cd242 O244 2.411 . S
Cd242 O245 2.333 . S
Cd242 O246 2.352 . S
Cd242 O250 2.277 . S
Cd242 O251 2.356 . S
C243 O248 1.209 . S
C243 O250 1.226 . S
O244 Cd240 2.273 . S
O244 Cd242 2.411 . S
O244 C247 1.320 . S
O245 Cd242 2.333 . S
O245 C247 1.214 . S
O246 Cd242 2.352 . S
O246 C249 1.258 . S
C247 O244 1.320 . S
C247 O245 1.214 . S
O248 Cd240 2.277 . S
O248 C243 1.209 . S
C249 O246 1.258 . S
C249 O251 1.282 . S
O250 Cd242 2.277 . S
O250 C243 1.226 . S
O251 Cd242 2.356 . S
O251 C249 1.282 . S
C252 O253 1.306 . S
C252 O255 1.160 . S
O253 C252 1.306 . S
O253 Cd254 2.228 . S
Cd254 O253 2.228 . S
Cd254 O258 2.273 . S
Cd254 O262 2.277 . S
O255 C252 1.160 . S
O255 Cd256 2.203 . S
Cd256 O255 2.203 . S
Cd256 O258 2.411 . S
Cd256 O259 2.333 . S
Cd256 O260 2.352 . S
Cd256 O264 2.277 . S
Cd256 O265 2.356 . S
C257 O262 1.209 . S
C257 O264 1.226 . S
O258 Cd254 2.273 . S
O258 Cd256 2.411 . S
O258 C261 1.320 . S
O259 Cd256 2.333 . S
O259 C261 1.214 . S
O260 Cd256 2.352 . S
O260 C263 1.258 . S
C261 O258 1.320 . S
C261 O259 1.214 . S
O262 Cd254 2.277 . S
O262 C257 1.209 . S
C263 O260 1.258 . S
C263 O265 1.282 . S
O264 Cd256 2.277 . S
O264 C257 1.226 . S
O265 Cd256 2.356 . S
O265 C263 1.282 . S
C266 O267 1.306 . S
C266 O269 1.160 . S
O267 C266 1.306 . S
O267 Cd268 2.228 1_545 S
Cd268 O267 2.228 1_565 S
Cd268 O272 2.273 . S
Cd268 O276 2.277 . S
O269 C266 1.160 . S
O269 Cd270 2.203 . S
Cd270 O269 2.203 . S
Cd270 O272 2.411 1_545 S
Cd270 O273 2.333 1_545 S
Cd270 O274 2.352 . S
Cd270 O278 2.277 1_545 S
Cd270 O279 2.356 . S
C271 O276 1.209 . S
C271 O278 1.226 . S
O272 Cd268 2.273 . S
O272 Cd270 2.411 1_565 S
O272 C275 1.320 . S
O273 Cd270 2.333 1_565 S
O273 C275 1.214 . S
O274 Cd270 2.352 . S
O274 C277 1.258 . S
C275 O272 1.320 . S
C275 O273 1.214 . S
O276 Cd268 2.277 . S
O276 C271 1.209 . S
C277 O274 1.258 . S
C277 O279 1.282 . S
O278 Cd270 2.277 1_565 S
O278 C271 1.226 . S
O279 Cd270 2.356 . S
O279 C277 1.282 . S
C280 O281 1.306 . S
C280 O283 1.160 . S
O281 C280 1.306 . S
O281 Cd282 2.228 1_554 S
Cd282 O281 2.228 1_556 S
Cd282 O286 2.273 . S
Cd282 O290 2.277 . S
O283 C280 1.160 . S
O283 Cd284 2.203 . S
Cd284 O283 2.203 . S
Cd284 O286 2.411 1_554 S
Cd284 O287 2.333 1_554 S
Cd284 O288 2.352 . S
Cd284 O292 2.277 1_554 S
Cd284 O293 2.356 . S
C285 O290 1.209 . S
C285 O292 1.226 . S
O286 Cd282 2.273 . S
O286 Cd284 2.411 1_556 S
O286 C289 1.320 . S
O287 Cd284 2.333 1_556 S
O287 C289 1.214 . S
O288 Cd284 2.352 . S
O288 C291 1.258 . S
C289 O286 1.320 . S
C289 O287 1.214 . S
O290 Cd282 2.277 . S
O290 C285 1.209 . S
C291 O288 1.258 . S
C291 O293 1.282 . S
O292 Cd284 2.277 1_556 S
O292 C285 1.226 . S
O293 Cd284 2.356 . S
O293 C291 1.282 . S
C294 O295 1.306 . S
C294 O297 1.160 . S
O295 C294 1.306 . S
O295 Cd296 2.228 . S
Cd296 O295 2.228 . S
Cd296 O300 2.273 . S
Cd296 O304 2.277 . S
O297 C294 1.160 . S
O297 Cd298 2.203 . S
Cd298 O297 2.203 . S
Cd298 O300 2.411 . S
Cd298 O301 2.333 . S
Cd298 O302 2.352 . S
Cd298 O306 2.277 . S
Cd298 O307 2.356 . S
C299 O304 1.209 . S
C299 O306 1.226 . S
O300 Cd296 2.273 . S
O300 Cd298 2.411 . S
O300 C303 1.320 . S
O301 Cd298 2.333 . S
O301 C303 1.214 . S
O302 Cd298 2.352 . S
O302 C305 1.258 . S
C303 O300 1.320 . S
C303 O301 1.214 . S
O304 Cd296 2.277 . S
O304 C299 1.209 . S
C305 O302 1.258 . S
C305 O307 1.282 . S
O306 Cd298 2.277 . S
O306 C299 1.226 . S
O307 Cd298 2.356 . S
O307 C305 1.282 . S
C308 O309 1.306 . S
C308 O311 1.160 . S
O309 C308 1.306 . S
O309 Cd310 2.228 . S
Cd310 O309 2.228 . S
Cd310 O314 2.273 . S
Cd310 O318 2.277 . S
O311 C308 1.160 . S
O311 Cd312 2.203 . S
Cd312 O311 2.203 . S
Cd312 O314 2.411 . S
Cd312 O315 2.333 . S
Cd312 O316 2.352 . S
Cd312 O320 2.277 . S
Cd312 O321 2.356 . S
C313 O318 1.209 . S
C313 O320 1.226 . S
O314 Cd310 2.273 . S
O314 Cd312 2.411 . S
O314 C317 1.320 . S
O315 Cd312 2.333 . S
O315 C317 1.214 . S
O316 Cd312 2.352 . S
O316 C319 1.258 . S
C317 O314 1.320 . S
C317 O315 1.214 . S
O318 Cd310 2.277 . S
O318 C313 1.209 . S
C319 O316 1.258 . S
C319 O321 1.282 . S
O320 Cd312 2.277 . S
O320 C313 1.226 . S
O321 Cd312 2.356 . S
O321 C319 1.282 . S
C322 O323 1.306 . S
C322 O325 1.160 . S
O323 C322 1.306 . S
O323 Cd324 2.228 . S
Cd324 O323 2.228 . S
Cd324 O328 2.273 . S
Cd324 O332 2.277 . S
O325 C322 1.160 . S
O325 Cd326 2.203 . S
Cd326 O325 2.203 . S
Cd326 O328 2.411 . S
Cd326 O329 2.333 . S
Cd326 O330 2.352 . S
Cd326 O334 2.277 . S
Cd326 O335 2.356 . S
C327 O332 1.209 . S
C327 O334 1.226 . S
O328 Cd324 2.273 . S
O328 Cd326 2.411 . S
O328 C331 1.320 . S
O329 Cd326 2.333 . S
O329 C331 1.214 . S
O330 Cd326 2.352 . S
O330 C333 1.258 . S
C331 O328 1.320 . S
C331 O329 1.214 . S
O332 Cd324 2.277 . S
O332 C327 1.209 . S
C333 O330 1.258 . S
C333 O335 1.282 . S
O334 Cd326 2.277 . S
O334 C327 1.226 . S
O335 Cd326 2.356 . S
O335 C333 1.282 . S
Sc336 O339 2.025 . S
Sc336 O346 2.105 . S
Sc336 O349 2.105 . S
Sc336 O352 2.105 . S
Sc336 O355 2.105 . S
Sc337 O339 2.025 . S
Sc337 O347 2.105 . S
Sc337 O351 2.105 . S
Sc337 O353 2.105 . S
Sc337 O357 2.105 . S
Sc338 O339 2.025 . S
Sc338 O348 2.105 . S
Sc338 O350 2.105 . S
Sc338 O354 2.105 . S
Sc338 O356 2.105 . S
O339 Sc336 2.025 . S
O339 Sc337 2.025 . S
O339 Sc338 2.025 . S
C340 O346 1.268 . S
C340 O356 1.268 . S
C341 O347 1.268 . S
C341 O355 1.268 . S
C342 O348 1.268 . S
C342 O357 1.268 . S
C343 O349 1.268 . S
C343 O353 1.268 . S
C344 O350 1.268 . S
C344 O352 1.268 . S
C345 O351 1.268 . S
C345 O354 1.268 . S
O346 Sc336 2.105 . S
O346 C340 1.268 . S
O347 Sc337 2.105 . S
O347 C341 1.268 . S
O348 Sc338 2.105 . S
O348 C342 1.268 . S
O349 Sc336 2.105 . S
O349 C343 1.268 . S
O350 Sc338 2.105 . S
O350 C344 1.268 . S
O351 Sc337 2.105 . S
O351 C345 1.268 . S
O352 Sc336 2.105 . S
O352 C344 1.268 . S
O353 Sc337 2.105 . S
O353 C343 1.268 . S
O354 Sc338 2.105 . S
O354 C345 1.268 . S
O355 Sc336 2.105 . S
O355 C341 1.268 . S
O356 Sc338 2.105 . S
O356 C340 1.268 . S
O357 Sc337 2.105 . S
O357 C342 1.268 . S
Sc358 O361 2.025 . S
Sc358 O368 2.105 . S
Sc358 O371 2.105 . S
Sc358 O374 2.105 . S
Sc358 O377 2.105 . S
Sc359 O361 2.025 . S
Sc359 O369 2.105 . S
Sc359 O373 2.105 . S
Sc359 O375 2.105 . S
Sc359 O379 2.105 . S
Sc360 O361 2.025 . S
Sc360 O370 2.105 . S
Sc360 O372 2.105 . S
Sc360 O376 2.105 . S
Sc360 O378 2.105 . S
O361 Sc358 2.025 . S
O361 Sc359 2.025 . S
O361 Sc360 2.025 . S
C362 O368 1.268 . S
C362 O378 1.268 . S
C363 O369 1.268 . S
C363 O377 1.268 . S
C364 O370 1.268 . S
C364 O379 1.268 . S
C365 O371 1.268 . S
C365 O375 1.268 . S
C366 O372 1.268 . S
C366 O374 1.268 . S
C367 O373 1.268 . S
C367 O376 1.268 . S
O368 Sc358 2.105 . S
O368 C362 1.268 . S
O369 Sc359 2.105 . S
O369 C363 1.268 . S
O370 Sc360 2.105 . S
O370 C364 1.268 . S
O371 Sc358 2.105 . S
O371 C365 1.268 . S
O372 Sc360 2.105 . S
O372 C366 1.268 . S
O373 Sc359 2.105 . S
O373 C367 1.268 . S
O374 Sc358 2.105 . S
O374 C366 1.268 . S
O375 Sc359 2.105 . S
O375 C365 1.268 . S
O376 Sc360 2.105 . S
O376 C367 1.268 . S
O377 Sc358 2.105 . S
O377 C363 1.268 . S
O378 Sc360 2.105 . S
O378 C362 1.268 . S
O379 Sc359 2.105 . S
O379 C364 1.268 . S
Sc380 O383 2.025 . S
Sc380 O390 2.105 . S
Sc380 O393 2.105 . S
Sc380 O396 2.105 . S
Sc380 O399 2.105 . S
Sc381 O383 2.025 . S
Sc381 O391 2.105 . S
Sc381 O395 2.105 . S
Sc381 O397 2.105 . S
Sc381 O401 2.105 . S
Sc382 O383 2.025 . S
Sc382 O392 2.105 . S
Sc382 O394 2.105 . S
Sc382 O398 2.105 . S
Sc382 O400 2.105 . S
O383 Sc380 2.025 . S
O383 Sc381 2.025 . S
O383 Sc382 2.025 . S
C384 O390 1.268 . S
C384 O400 1.268 . S
C385 O391 1.268 . S
C385 O399 1.268 . S
C386 O392 1.268 . S
C386 O401 1.268 . S
C387 O393 1.268 . S
C387 O397 1.268 . S
C388 O394 1.268 . S
C388 O396 1.268 . S
C389 O395 1.268 . S
C389 O398 1.268 . S
O390 Sc380 2.105 . S
O390 C384 1.268 . S
O391 Sc381 2.105 . S
O391 C385 1.268 . S
O392 Sc382 2.105 . S
O392 C386 1.268 . S
O393 Sc380 2.105 . S
O393 C387 1.268 . S
O394 Sc382 2.105 . S
O394 C388 1.268 . S
O395 Sc381 2.105 . S
O395 C389 1.268 . S
O396 Sc380 2.105 . S
O396 C388 1.268 . S
O397 Sc381 2.105 . S
O397 C387 1.268 . S
O398 Sc382 2.105 . S
O398 C389 1.268 . S
O399 Sc380 2.105 . S
O399 C385 1.268 . S
O400 Sc382 2.105 . S
O400 C384 1.268 . S
O401 Sc381 2.105 . S
O401 C386 1.268 . S
Sc402 O405 2.025 . S
Sc402 O412 2.105 . S
Sc402 O415 2.105 . S
Sc402 O418 2.105 . S
Sc402 O421 2.105 . S
Sc403 O405 2.025 . S
Sc403 O413 2.105 . S
Sc403 O417 2.105 . S
Sc403 O419 2.105 . S
Sc403 O423 2.105 . S
Sc404 O405 2.025 . S
Sc404 O414 2.105 . S
Sc404 O416 2.105 . S
Sc404 O420 2.105 . S
Sc404 O422 2.105 . S
O405 Sc402 2.025 . S
O405 Sc403 2.025 . S
O405 Sc404 2.025 . S
C406 O412 1.268 . S
C406 O422 1.268 . S
C407 O413 1.268 . S
C407 O421 1.268 . S
C408 O414 1.268 . S
C408 O423 1.268 . S
C409 O415 1.268 . S
C409 O419 1.268 . S
C410 O416 1.268 . S
C410 O418 1.268 . S
C411 O417 1.268 . S
C411 O420 1.268 . S
O412 Sc402 2.105 . S
O412 C406 1.268 . S
O413 Sc403 2.105 . S
O413 C407 1.268 . S
O414 Sc404 2.105 . S
O414 C408 1.268 . S
O415 Sc402 2.105 . S
O415 C409 1.268 . S
O416 Sc404 2.105 . S
O416 C410 1.268 . S
O417 Sc403 2.105 . S
O417 C411 1.268 . S
O418 Sc402 2.105 . S
O418 C410 1.268 . S
O419 Sc403 2.105 . S
O419 C409 1.268 . S
O420 Sc404 2.105 . S
O420 C411 1.268 . S
O421 Sc402 2.105 . S
O421 C407 1.268 . S
O422 Sc404 2.105 . S
O422 C406 1.268 . S
O423 Sc403 2.105 . S
O423 C408 1.268 . S
Sc424 O427 2.025 . S
Sc424 O434 2.105 . S
Sc424 O437 2.105 . S
Sc424 O440 2.105 . S
Sc424 O443 2.105 . S
Sc425 O427 2.025 . S
Sc425 O435 2.105 . S
Sc425 O439 2.105 . S
Sc425 O441 2.105 . S
Sc425 O445 2.105 . S
Sc426 O427 2.025 . S
Sc426 O436 2.105 . S
Sc426 O438 2.105 . S
Sc426 O442 2.105 . S
Sc426 O444 2.105 . S
O427 Sc424 2.025 . S
O427 Sc425 2.025 . S
O427 Sc426 2.025 . S
C428 O434 1.268 . S
C428 O444 1.268 . S
C429 O435 1.268 . S
C429 O443 1.268 . S
C430 O436 1.268 . S
C430 O445 1.268 . S
C431 O437 1.268 . S
C431 O441 1.268 . S
C432 O438 1.268 . S
C432 O440 1.268 . S
C433 O439 1.268 . S
C433 O442 1.268 . S
O434 Sc424 2.105 . S
O434 C428 1.268 . S
O435 Sc425 2.105 . S
O435 C429 1.268 . S
O436 Sc426 2.105 . S
O436 C430 1.268 . S
O437 Sc424 2.105 . S
O437 C431 1.268 . S
O438 Sc426 2.105 . S
O438 C432 1.268 . S
O439 Sc425 2.105 . S
O439 C433 1.268 . S
O440 Sc424 2.105 . S
O440 C432 1.268 . S
O441 Sc425 2.105 . S
O441 C431 1.268 . S
O442 Sc426 2.105 . S
O442 C433 1.268 . S
O443 Sc424 2.105 . S
O443 C429 1.268 . S
O444 Sc426 2.105 . S
O444 C428 1.268 . S
O445 Sc425 2.105 . S
O445 C430 1.268 . S
Sc446 O449 2.025 . S
Sc446 O456 2.105 . S
Sc446 O459 2.105 . S
Sc446 O462 2.105 . S
Sc446 O465 2.105 . S
Sc447 O449 2.025 . S
Sc447 O457 2.105 . S
Sc447 O461 2.105 . S
Sc447 O463 2.105 . S
Sc447 O467 2.105 . S
Sc448 O449 2.025 . S
Sc448 O458 2.105 . S
Sc448 O460 2.105 . S
Sc448 O464 2.105 . S
Sc448 O466 2.105 . S
O449 Sc446 2.025 . S
O449 Sc447 2.025 . S
O449 Sc448 2.025 . S
C450 O456 1.268 . S
C450 O466 1.268 . S
C451 O457 1.268 . S
C451 O465 1.268 . S
C452 O458 1.268 . S
C452 O467 1.268 . S
C453 O459 1.268 . S
C453 O463 1.268 . S
C454 O460 1.268 . S
C454 O462 1.268 . S
C455 O461 1.268 . S
C455 O464 1.268 . S
O456 Sc446 2.105 . S
O456 C450 1.268 . S
O457 Sc447 2.105 . S
O457 C451 1.268 . S
O458 Sc448 2.105 . S
O458 C452 1.268 . S
O459 Sc446 2.105 . S
O459 C453 1.268 . S
O460 Sc448 2.105 . S
O460 C454 1.268 . S
O461 Sc447 2.105 . S
O461 C455 1.268 . S
O462 Sc446 2.105 . S
O462 C454 1.268 . S
O463 Sc447 2.105 . S
O463 C453 1.268 . S
O464 Sc448 2.105 . S
O464 C455 1.268 . S
O465 Sc446 2.105 . S
O465 C451 1.268 . S
O466 Sc448 2.105 . S
O466 C450 1.268 . S
O467 Sc447 2.105 . S
O467 C452 1.268 . S
Sc468 O471 2.025 . S
Sc468 O478 2.105 . S
Sc468 O481 2.105 . S
Sc468 O484 2.105 . S
Sc468 O487 2.105 . S
Sc469 O471 2.025 . S
Sc469 O479 2.105 . S
Sc469 O483 2.105 . S
Sc469 O485 2.105 . S
Sc469 O489 2.105 . S
Sc470 O471 2.025 . S
Sc470 O480 2.105 . S
Sc470 O482 2.105 . S
Sc470 O486 2.105 . S
Sc470 O488 2.105 . S
O471 Sc468 2.025 . S
O471 Sc469 2.025 . S
O471 Sc470 2.025 . S
C472 O478 1.268 . S
C472 O488 1.268 . S
C473 O479 1.268 . S
C473 O487 1.268 . S
C474 O480 1.268 . S
C474 O489 1.268 . S
C475 O481 1.268 . S
C475 O485 1.268 . S
C476 O482 1.268 . S
C476 O484 1.268 . S
C477 O483 1.268 . S
C477 O486 1.268 . S
O478 Sc468 2.105 . S
O478 C472 1.268 . S
O479 Sc469 2.105 . S
O479 C473 1.268 . S
O480 Sc470 2.105 . S
O480 C474 1.268 . S
O481 Sc468 2.105 . S
O481 C475 1.268 . S
O482 Sc470 2.105 . S
O482 C476 1.268 . S
O483 Sc469 2.105 . S
O483 C477 1.268 . S
O484 Sc468 2.105 . S
O484 C476 1.268 . S
O485 Sc469 2.105 . S
O485 C475 1.268 . S
O486 Sc470 2.105 . S
O486 C477 1.268 . S
O487 Sc468 2.105 . S
O487 C473 1.268 . S
O488 Sc470 2.105 . S
O488 C472 1.268 . S
O489 Sc469 2.105 . S
O489 C474 1.268 . S
Sc490 O493 2.025 . S
Sc490 O500 2.105 . S
Sc490 O503 2.105 . S
Sc490 O506 2.105 . S
Sc490 O509 2.105 . S
Sc491 O493 2.025 . S
Sc491 O501 2.105 . S
Sc491 O505 2.105 . S
Sc491 O507 2.105 . S
Sc491 O511 2.105 . S
Sc492 O493 2.025 . S
Sc492 O502 2.105 . S
Sc492 O504 2.105 . S
Sc492 O508 2.105 . S
Sc492 O510 2.105 . S
O493 Sc490 2.025 . S
O493 Sc491 2.025 . S
O493 Sc492 2.025 . S
C494 O500 1.268 . S
C494 O510 1.268 . S
C495 O501 1.268 . S
C495 O509 1.268 . S
C496 O502 1.268 . S
C496 O511 1.268 . S
C497 O503 1.268 . S
C497 O507 1.268 . S
C498 O504 1.268 . S
C498 O506 1.268 . S
C499 O505 1.268 . S
C499 O508 1.268 . S
O500 Sc490 2.105 . S
O500 C494 1.268 . S
O501 Sc491 2.105 . S
O501 C495 1.268 . S
O502 Sc492 2.105 . S
O502 C496 1.268 . S
O503 Sc490 2.105 . S
O503 C497 1.268 . S
O504 Sc492 2.105 . S
O504 C498 1.268 . S
O505 Sc491 2.105 . S
O505 C499 1.268 . S
O506 Sc490 2.105 . S
O506 C498 1.268 . S
O507 Sc491 2.105 . S
O507 C497 1.268 . S
O508 Sc492 2.105 . S
O508 C499 1.268 . S
O509 Sc490 2.105 . S
O509 C495 1.268 . S
O510 Sc492 2.105 . S
O510 C494 1.268 . S
O511 Sc491 2.105 . S
O511 C496 1.268 . S
Sc512 O515 2.025 . S
Sc512 O522 2.105 . S
Sc512 O525 2.105 . S
Sc512 O528 2.105 . S
Sc512 O531 2.105 . S
Sc513 O515 2.025 . S
Sc513 O523 2.105 . S
Sc513 O527 2.105 . S
Sc513 O529 2.105 . S
Sc513 O533 2.105 . S
Sc514 O515 2.025 . S
Sc514 O524 2.105 . S
Sc514 O526 2.105 . S
Sc514 O530 2.105 . S
Sc514 O532 2.105 . S
O515 Sc512 2.025 . S
O515 Sc513 2.025 . S
O515 Sc514 2.025 . S
C516 O522 1.268 . S
C516 O532 1.268 . S
C517 O523 1.268 . S
C517 O531 1.268 . S
C518 O524 1.268 . S
C518 O533 1.268 . S
C519 O525 1.268 . S
C519 O529 1.268 . S
C520 O526 1.268 . S
C520 O528 1.268 . S
C521 O527 1.268 . S
C521 O530 1.268 . S
O522 Sc512 2.105 . S
O522 C516 1.268 . S
O523 Sc513 2.105 . S
O523 C517 1.268 . S
O524 Sc514 2.105 . S
O524 C518 1.268 . S
O525 Sc512 2.105 . S
O525 C519 1.268 . S
O526 Sc514 2.105 . S
O526 C520 1.268 . S
O527 Sc513 2.105 . S
O527 C521 1.268 . S
O528 Sc512 2.105 . S
O528 C520 1.268 . S
O529 Sc513 2.105 . S
O529 C519 1.268 . S
O530 Sc514 2.105 . S
O530 C521 1.268 . S
O531 Sc512 2.105 . S
O531 C517 1.268 . S
O532 Sc514 2.105 . S
O532 C516 1.268 . S
O533 Sc513 2.105 . S
O533 C518 1.268 . S
Sc534 O537 2.025 . S
Sc534 O544 2.105 . S
Sc534 O547 2.105 . S
Sc534 O550 2.105 . S
Sc534 O553 2.105 . S
Sc535 O537 2.025 . S
Sc535 O545 2.105 . S
Sc535 O549 2.105 . S
Sc535 O551 2.105 . S
Sc535 O555 2.105 . S
Sc536 O537 2.025 . S
Sc536 O546 2.105 . S
Sc536 O548 2.105 . S
Sc536 O552 2.105 . S
Sc536 O554 2.105 . S
O537 Sc534 2.025 . S
O537 Sc535 2.025 . S
O537 Sc536 2.025 . S
C538 O544 1.268 . S
C538 O554 1.268 . S
C539 O545 1.268 . S
C539 O553 1.268 . S
C540 O546 1.268 . S
C540 O555 1.268 . S
C541 O547 1.268 . S
C541 O551 1.268 . S
C542 O548 1.268 . S
C542 O550 1.268 . S
C543 O549 1.268 . S
C543 O552 1.268 . S
O544 Sc534 2.105 . S
O544 C538 1.268 . S
O545 Sc535 2.105 . S
O545 C539 1.268 . S
O546 Sc536 2.105 . S
O546 C540 1.268 . S
O547 Sc534 2.105 . S
O547 C541 1.268 . S
O548 Sc536 2.105 . S
O548 C542 1.268 . S
O549 Sc535 2.105 . S
O549 C543 1.268 . S
O550 Sc534 2.105 . S
O550 C542 1.268 . S
O551 Sc535 2.105 . S
O551 C541 1.268 . S
O552 Sc536 2.105 . S
O552 C543 1.268 . S
O553 Sc534 2.105 . S
O553 C539 1.268 . S
O554 Sc536 2.105 . S
O554 C538 1.268 . S
O555 Sc535 2.105 . S
O555 C540 1.268 . S
Sc556 O559 2.025 . S
Sc556 O566 2.105 . S
Sc556 O569 2.105 . S
Sc556 O572 2.105 . S
Sc556 O575 2.105 . S
Sc557 O559 2.025 . S
Sc557 O567 2.105 . S
Sc557 O571 2.105 . S
Sc557 O573 2.105 . S
Sc557 O577 2.105 . S
Sc558 O559 2.025 . S
Sc558 O568 2.105 . S
Sc558 O570 2.105 . S
Sc558 O574 2.105 . S
Sc558 O576 2.105 . S
O559 Sc556 2.025 . S
O559 Sc557 2.025 . S
O559 Sc558 2.025 . S
C560 O566 1.268 . S
C560 O576 1.268 . S
C561 O567 1.268 . S
C561 O575 1.268 . S
C562 O568 1.268 . S
C562 O577 1.268 . S
C563 O569 1.268 . S
C563 O573 1.268 . S
C564 O570 1.268 . S
C564 O572 1.268 . S
C565 O571 1.268 . S
C565 O574 1.268 . S
O566 Sc556 2.105 . S
O566 C560 1.268 . S
O567 Sc557 2.105 . S
O567 C561 1.268 . S
O568 Sc558 2.105 . S
O568 C562 1.268 . S
O569 Sc556 2.105 . S
O569 C563 1.268 . S
O570 Sc558 2.105 . S
O570 C564 1.268 . S
O571 Sc557 2.105 . S
O571 C565 1.268 . S
O572 Sc556 2.105 . S
O572 C564 1.268 . S
O573 Sc557 2.105 . S
O573 C563 1.268 . S
O574 Sc558 2.105 . S
O574 C565 1.268 . S
O575 Sc556 2.105 . S
O575 C561 1.268 . S
O576 Sc558 2.105 . S
O576 C560 1.268 . S
O577 Sc557 2.105 . S
O577 C562 1.268 . S
Sc578 O581 2.025 . S
Sc578 O588 2.105 . S
Sc578 O591 2.105 . S
Sc578 O594 2.105 . S
Sc578 O597 2.105 . S
Sc579 O581 2.025 . S
Sc579 O589 2.105 . S
Sc579 O593 2.105 . S
Sc579 O595 2.105 . S
Sc579 O599 2.105 . S
Sc580 O581 2.025 . S
Sc580 O590 2.105 . S
Sc580 O592 2.105 . S
Sc580 O596 2.105 . S
Sc580 O598 2.105 . S
O581 Sc578 2.025 . S
O581 Sc579 2.025 . S
O581 Sc580 2.025 . S
C582 O588 1.268 . S
C582 O598 1.268 . S
C583 O589 1.268 . S
C583 O597 1.268 . S
C584 O590 1.268 . S
C584 O599 1.268 . S
C585 O591 1.268 . S
C585 O595 1.268 . S
C586 O592 1.268 . S
C586 O594 1.268 . S
C587 O593 1.268 . S
C587 O596 1.268 . S
O588 Sc578 2.105 . S
O588 C582 1.268 . S
O589 Sc579 2.105 . S
O589 C583 1.268 . S
O590 Sc580 2.105 . S
O590 C584 1.268 . S
O591 Sc578 2.105 . S
O591 C585 1.268 . S
O592 Sc580 2.105 . S
O592 C586 1.268 . S
O593 Sc579 2.105 . S
O593 C587 1.268 . S
O594 Sc578 2.105 . S
O594 C586 1.268 . S
O595 Sc579 2.105 . S
O595 C585 1.268 . S
O596 Sc580 2.105 . S
O596 C587 1.268 . S
O597 Sc578 2.105 . S
O597 C583 1.268 . S
O598 Sc580 2.105 . S
O598 C582 1.268 . S
O599 Sc579 2.105 . S
O599 C584 1.268 . S
Sc600 O603 2.025 . S
Sc600 O610 2.105 . S
Sc600 O613 2.105 . S
Sc600 O616 2.105 . S
Sc600 O619 2.105 . S
Sc601 O603 2.025 . S
Sc601 O611 2.105 . S
Sc601 O615 2.105 . S
Sc601 O617 2.105 . S
Sc601 O621 2.105 . S
Sc602 O603 2.025 . S
Sc602 O612 2.105 . S
Sc602 O614 2.105 . S
Sc602 O618 2.105 . S
Sc602 O620 2.105 . S
O603 Sc600 2.025 . S
O603 Sc601 2.025 . S
O603 Sc602 2.025 . S
C604 O610 1.268 . S
C604 O620 1.268 . S
C605 O611 1.268 . S
C605 O619 1.268 . S
C606 O612 1.268 . S
C606 O621 1.268 . S
C607 O613 1.268 . S
C607 O617 1.268 . S
C608 O614 1.268 . S
C608 O616 1.268 . S
C609 O615 1.268 . S
C609 O618 1.268 . S
O610 Sc600 2.105 . S
O610 C604 1.268 . S
O611 Sc601 2.105 . S
O611 C605 1.268 . S
O612 Sc602 2.105 . S
O612 C606 1.268 . S
O613 Sc600 2.105 . S
O613 C607 1.268 . S
O614 Sc602 2.105 . S
O614 C608 1.268 . S
O615 Sc601 2.105 . S
O615 C609 1.268 . S
O616 Sc600 2.105 . S
O616 C608 1.268 . S
O617 Sc601 2.105 . S
O617 C607 1.268 . S
O618 Sc602 2.105 . S
O618 C609 1.268 . S
O619 Sc600 2.105 . S
O619 C605 1.268 . S
O620 Sc602 2.105 . S
O620 C604 1.268 . S
O621 Sc601 2.105 . S
O621 C606 1.268 . S
Sc622 O625 2.025 . S
Sc622 O632 2.105 . S
Sc622 O635 2.105 . S
Sc622 O638 2.105 . S
Sc622 O641 2.105 . S
Sc623 O625 2.025 . S
Sc623 O633 2.105 . S
Sc623 O637 2.105 . S
Sc623 O639 2.105 . S
Sc623 O643 2.105 . S
Sc624 O625 2.025 . S
Sc624 O634 2.105 . S
Sc624 O636 2.105 . S
Sc624 O640 2.105 . S
Sc624 O642 2.105 . S
O625 Sc622 2.025 . S
O625 Sc623 2.025 . S
O625 Sc624 2.025 . S
C626 O632 1.268 . S
C626 O642 1.268 . S
C627 O633 1.268 . S
C627 O641 1.268 . S
C628 O634 1.268 . S
C628 O643 1.268 . S
C629 O635 1.268 . S
C629 O639 1.268 . S
C630 O636 1.268 . S
C630 O638 1.268 . S
C631 O637 1.268 . S
C631 O640 1.268 . S
O632 Sc622 2.105 . S
O632 C626 1.268 . S
O633 Sc623 2.105 . S
O633 C627 1.268 . S
O634 Sc624 2.105 . S
O634 C628 1.268 . S
O635 Sc622 2.105 . S
O635 C629 1.268 . S
O636 Sc624 2.105 . S
O636 C630 1.268 . S
O637 Sc623 2.105 . S
O637 C631 1.268 . S
O638 Sc622 2.105 . S
O638 C630 1.268 . S
O639 Sc623 2.105 . S
O639 C629 1.268 . S
O640 Sc624 2.105 . S
O640 C631 1.268 . S
O641 Sc622 2.105 . S
O641 C627 1.268 . S
O642 Sc624 2.105 . S
O642 C626 1.268 . S
O643 Sc623 2.105 . S
O643 C628 1.268 . S
Sc644 O647 2.025 . S
Sc644 O654 2.105 . S
Sc644 O657 2.105 . S
Sc644 O660 2.105 . S
Sc644 O663 2.105 . S
Sc645 O647 2.025 . S
Sc645 O655 2.105 . S
Sc645 O659 2.105 . S
Sc645 O661 2.105 . S
Sc645 O665 2.105 . S
Sc646 O647 2.025 . S
Sc646 O656 2.105 . S
Sc646 O658 2.105 . S
Sc646 O662 2.105 . S
Sc646 O664 2.105 . S
O647 Sc644 2.025 . S
O647 Sc645 2.025 . S
O647 Sc646 2.025 . S
C648 O654 1.268 . S
C648 O664 1.268 . S
C649 O655 1.268 . S
C649 O663 1.268 . S
C650 O656 1.268 . S
C650 O665 1.268 . S
C651 O657 1.268 . S
C651 O661 1.268 . S
C652 O658 1.268 . S
C652 O660 1.268 . S
C653 O659 1.268 . S
C653 O662 1.268 . S
O654 Sc644 2.105 . S
O654 C648 1.268 . S
O655 Sc645 2.105 . S
O655 C649 1.268 . S
O656 Sc646 2.105 . S
O656 C650 1.268 . S
O657 Sc644 2.105 . S
O657 C651 1.268 . S
O658 Sc646 2.105 . S
O658 C652 1.268 . S
O659 Sc645 2.105 . S
O659 C653 1.268 . S
O660 Sc644 2.105 . S
O660 C652 1.268 . S
O661 Sc645 2.105 . S
O661 C651 1.268 . S
O662 Sc646 2.105 . S
O662 C653 1.268 . S
O663 Sc644 2.105 . S
O663 C649 1.268 . S
O664 Sc646 2.105 . S
O664 C648 1.268 . S
O665 Sc645 2.105 . S
O665 C650 1.268 . S
Sc666 O669 2.025 . S
Sc666 O676 2.105 . S
Sc666 O679 2.105 . S
Sc666 O682 2.105 . S
Sc666 O685 2.105 . S
Sc667 O669 2.025 . S
Sc667 O677 2.105 . S
Sc667 O681 2.105 . S
Sc667 O683 2.105 . S
Sc667 O687 2.105 . S
Sc668 O669 2.025 . S
Sc668 O678 2.105 . S
Sc668 O680 2.105 . S
Sc668 O684 2.105 . S
Sc668 O686 2.105 . S
O669 Sc666 2.025 . S
O669 Sc667 2.025 . S
O669 Sc668 2.025 . S
C670 O676 1.268 . S
C670 O686 1.268 . S
C671 O677 1.268 . S
C671 O685 1.268 . S
C672 O678 1.268 . S
C672 O687 1.268 . S
C673 O679 1.268 . S
C673 O683 1.268 . S
C674 O680 1.268 . S
C674 O682 1.268 . S
C675 O681 1.268 . S
C675 O684 1.268 . S
O676 Sc666 2.105 . S
O676 C670 1.268 . S
O677 Sc667 2.105 . S
O677 C671 1.268 . S
O678 Sc668 2.105 . S
O678 C672 1.268 . S
O679 Sc666 2.105 . S
O679 C673 1.268 . S
O680 Sc668 2.105 . S
O680 C674 1.268 . S
O681 Sc667 2.105 . S
O681 C675 1.268 . S
O682 Sc666 2.105 . S
O682 C674 1.268 . S
O683 Sc667 2.105 . S
O683 C673 1.268 . S
O684 Sc668 2.105 . S
O684 C675 1.268 . S
O685 Sc666 2.105 . S
O685 C671 1.268 . S
O686 Sc668 2.105 . S
O686 C670 1.268 . S
O687 Sc667 2.105 . S
O687 C672 1.268 . S
H688 C696 0.929 . S
H689 C698 0.930 . S
H690 C700 0.930 . S
H691 C703 0.929 . S
H692 C706 0.930 . S
H693 C708 0.960 . S
H694 C708 0.960 . S
H695 C708 0.960 . S
C696 H688 0.929 . S
C696 C697 1.377 . S
C696 C698 1.384 . S
C697 C696 1.377 . S
C697 C703 1.390 . S
C698 H689 0.930 . S
C698 C696 1.384 . S
C698 C699 1.372 . S
C699 C698 1.372 . S
C699 C700 1.400 . S
C699 C704 1.490 . S
C700 H690 0.930 . S
C700 C699 1.400 . S
C700 C703 1.386 . S
H701 C717 0.930 . S
H702 C718 0.931 . S
C703 H691 0.929 . S
C703 C697 1.390 . S
C703 C700 1.386 . S
C704 C699 1.490 . S
C704 C706 1.395 . S
C704 C707 1.403 . S
H705 C711 0.930 . S
C706 H692 0.930 . S
C706 C704 1.395 . S
C706 C709 1.403 . S
C707 C704 1.403 . S
C707 C708 1.524 . S
C707 C711 1.400 . S
C708 H693 0.960 . S
C708 H694 0.960 . S
C708 H695 0.960 . S
C708 C707 1.524 . S
C709 C706 1.403 . S
C709 C710 1.392 . S
C709 C713 1.495 . S
C710 C709 1.392 . S
C710 C711 1.385 . S
C710 C712 1.478 . S
C711 H705 0.930 . S
C711 C707 1.400 . S
C711 C710 1.385 . S
C712 C710 1.478 . S
C712 C714 1.381 . S
C712 C718 1.383 . S
C713 C709 1.495 . S
C713 H719 0.959 . S
C713 H720 0.961 . S
C713 H721 0.960 . S
C714 C712 1.381 . S
C714 C715 1.394 . S
C714 H722 0.930 . S
C715 C714 1.394 . S
C715 C716 1.383 . S
C715 H723 0.929 . S
C716 C715 1.383 . S
C716 C717 1.377 . S
C717 H701 0.930 . S
C717 C716 1.377 . S
C717 C718 1.379 . S
C718 H702 0.931 . S
C718 C712 1.383 . S
C718 C717 1.379 . S
H719 C713 0.959 . S
H720 C713 0.961 . S
H721 C713 0.960 . S
H722 C714 0.930 . S
H723 C715 0.929 . S
H724 C732 0.929 . S
H725 C734 0.930 . S
H726 C736 0.930 . S
H727 C739 0.929 . S
H728 C742 0.930 . S
H729 C744 0.960 . S
H730 C744 0.960 . S
H731 C744 0.960 . S
C732 H724 0.929 . S
C732 C733 1.377 . S
C732 C734 1.384 . S
C733 C732 1.377 . S
C733 C739 1.390 . S
C734 H725 0.930 . S
C734 C732 1.384 . S
C734 C735 1.372 . S
C735 C734 1.372 . S
C735 C736 1.400 . S
C735 C740 1.490 . S
C736 H726 0.930 . S
C736 C735 1.400 . S
C736 C739 1.386 . S
H737 C753 0.930 . S
H738 C754 0.931 . S
C739 H727 0.929 . S
C739 C733 1.390 . S
C739 C736 1.386 . S
C740 C735 1.490 . S
C740 C742 1.395 . S
C740 C743 1.403 . S
H741 C747 0.930 . S
C742 H728 0.930 . S
C742 C740 1.395 . S
C742 C745 1.403 . S
C743 C740 1.403 . S
C743 C744 1.524 . S
C743 C747 1.400 . S
C744 H729 0.960 . S
C744 H730 0.960 . S
C744 H731 0.960 . S
C744 C743 1.524 . S
C745 C742 1.403 . S
C745 C746 1.392 . S
C745 C749 1.495 . S
C746 C745 1.392 . S
C746 C747 1.385 . S
C746 C748 1.478 . S
C747 H741 0.930 . S
C747 C743 1.400 . S
C747 C746 1.385 . S
C748 C746 1.478 . S
C748 C750 1.381 . S
C748 C754 1.383 . S
C749 C745 1.495 . S
C749 H755 0.959 . S
C749 H756 0.961 . S
C749 H757 0.960 . S
C750 C748 1.381 . S
C750 C751 1.394 . S
C750 H758 0.930 . S
C751 C750 1.394 . S
C751 C752 1.383 . S
C751 H759 0.929 . S
C752 C751 1.383 . S
C752 C753 1.377 . S
C753 H737 0.930 . S
C753 C752 1.377 . S
C753 C754 1.379 . S
C754 H738 0.931 . S
C754 C748 1.383 . S
C754 C753 1.379 . S
H755 C749 0.959 . S
H756 C749 0.961 . S
H757 C749 0.960 . S
H758 C750 0.930 . S
H759 C751 0.929 . S
H760 C768 0.929 . S
H761 C770 0.930 . S
H762 C772 0.930 . S
H763 C775 0.929 . S
H764 C778 0.930 . S
H765 C780 0.960 . S
H766 C780 0.960 . S
H767 C780 0.960 . S
C768 H760 0.929 . S
C768 C769 1.377 . S
C768 C770 1.384 . S
C769 C768 1.377 . S
C769 C775 1.390 . S
C770 H761 0.930 . S
C770 C768 1.384 . S
C770 C771 1.372 . S
C771 C770 1.372 . S
C771 C772 1.400 . S
C771 C776 1.490 . S
C772 H762 0.930 . S
C772 C771 1.400 . S
C772 C775 1.386 . S
H773 C789 0.930 . S
H774 C790 0.931 . S
C775 H763 0.929 . S
C775 C769 1.390 . S
C775 C772 1.386 . S
C776 C771 1.490 . S
C776 C778 1.395 . S
C776 C779 1.403 . S
H777 C783 0.930 . S
C778 H764 0.930 . S
C778 C776 1.395 . S
C778 C781 1.403 . S
C779 C776 1.403 . S
C779 C780 1.524 . S
C779 C783 1.400 . S
C780 H765 0.960 . S
C780 H766 0.960 . S
C780 H767 0.960 . S
C780 C779 1.524 . S
C781 C778 1.403 . S
C781 C782 1.392 . S
C781 C785 1.495 . S
C782 C781 1.392 . S
C782 C783 1.385 . S
C782 C784 1.478 . S
C783 H777 0.930 . S
C783 C779 1.400 . S
C783 C782 1.385 . S
C784 C782 1.478 . S
C784 C786 1.381 . S
C784 C790 1.383 . S
C785 C781 1.495 . S
C785 H791 0.959 . S
C785 H792 0.961 . S
C785 H793 0.960 . S
C786 C784 1.381 . S
C786 C787 1.394 . S
C786 H794 0.930 . S
C787 C786 1.394 . S
C787 C788 1.383 . S
C787 H795 0.929 . S
C788 C787 1.383 . S
C788 C789 1.377 . S
C789 H773 0.930 . S
C789 C788 1.377 . S
C789 C790 1.379 . S
C790 H774 0.931 . S
C790 C784 1.383 . S
C790 C789 1.379 . S
H791 C785 0.959 . S
H792 C785 0.961 . S
H793 C785 0.960 . S
H794 C786 0.930 . S
H795 C787 0.929 . S
H796 C804 0.929 . S
H797 C806 0.930 . S
H798 C808 0.930 . S
H799 C811 0.929 . S
H800 C814 0.930 . S
H801 C816 0.960 . S
H802 C816 0.960 . S
H803 C816 0.960 . S
C804 H796 0.929 . S
C804 C805 1.377 . S
C804 C806 1.384 . S
C805 C804 1.377 . S
C805 C811 1.390 . S
C806 H797 0.930 . S
C806 C804 1.384 . S
C806 C807 1.372 . S
C807 C806 1.372 . S
C807 C808 1.400 . S
C807 C812 1.490 . S
C808 H798 0.930 . S
C808 C807 1.400 . S
C808 C811 1.386 . S
H809 C825 0.930 . S
H810 C826 0.931 . S
C811 H799 0.929 . S
C811 C805 1.390 . S
C811 C808 1.386 . S
C812 C807 1.490 . S
C812 C814 1.395 . S
C812 C815 1.403 . S
H813 C819 0.930 . S
C814 H800 0.930 . S
C814 C812 1.395 . S
C814 C817 1.403 1_554 S
C815 C812 1.403 . S
C815 C816 1.524 . S
C815 C819 1.400 . S
C816 H801 0.960 . S
C816 H802 0.960 . S
C816 H803 0.960 . S
C816 C815 1.524 . S
C817 C814 1.403 1_556 S
C817 C818 1.392 . S
C817 C821 1.495 . S
C818 C817 1.392 . S
C818 C819 1.385 1_556 S
C818 C820 1.478 . S
C819 H813 0.930 . S
C819 C815 1.400 . S
C819 C818 1.385 1_554 S
C820 C818 1.478 . S
C820 C822 1.381 . S
C820 C826 1.383 . S
C821 C817 1.495 . S
C821 H827 0.959 . S
C821 H828 0.961 . S
C821 H829 0.960 . S
C822 C820 1.381 . S
C822 C823 1.394 . S
C822 H830 0.930 . S
C823 C822 1.394 . S
C823 C824 1.383 . S
C823 H831 0.929 . S
C824 C823 1.383 . S
C824 C825 1.377 . S
C825 H809 0.930 . S
C825 C824 1.377 . S
C825 C826 1.379 . S
C826 H810 0.931 . S
C826 C820 1.383 . S
C826 C825 1.379 . S
H827 C821 0.959 . S
H828 C821 0.961 . S
H829 C821 0.960 . S
H830 C822 0.930 . S
H831 C823 0.929 . S
H832 C840 0.929 . S
H833 C842 0.930 . S
H834 C844 0.930 . S
H835 C847 0.929 . S
H836 C850 0.930 . S
H837 C852 0.960 . S
H838 C852 0.960 . S
H839 C852 0.960 . S
C840 H832 0.929 . S
C840 C841 1.377 . S
C840 C842 1.384 . S
C841 C840 1.377 . S
C841 C847 1.390 . S
C842 H833 0.930 . S
C842 C840 1.384 . S
C842 C843 1.372 . S
C843 C842 1.372 . S
C843 C844 1.400 . S
C843 C848 1.490 . S
C844 H834 0.930 . S
C844 C843 1.400 . S
C844 C847 1.386 . S
H845 C861 0.930 . S
H846 C862 0.931 . S
C847 H835 0.929 . S
C847 C841 1.390 . S
C847 C844 1.386 . S
C848 C843 1.490 . S
C848 C850 1.395 . S
C848 C851 1.403 . S
H849 C855 0.930 . S
C850 H836 0.930 . S
C850 C848 1.395 . S
C850 C853 1.403 . S
C851 C848 1.403 . S
C851 C852 1.524 . S
C851 C855 1.400 . S
C852 H837 0.960 . S
C852 H838 0.960 . S
C852 H839 0.960 . S
C852 C851 1.524 . S
C853 C850 1.403 . S
C853 C854 1.392 . S
C853 C857 1.495 . S
C854 C853 1.392 . S
C854 C855 1.385 . S
C854 C856 1.478 . S
C855 H849 0.930 . S
C855 C851 1.400 . S
C855 C854 1.385 . S
C856 C854 1.478 . S
C856 C858 1.381 . S
C856 C862 1.383 . S
C857 C853 1.495 . S
C857 H863 0.959 . S
C857 H864 0.961 . S
C857 H865 0.960 . S
C858 C856 1.381 . S
C858 C859 1.394 . S
C858 H866 0.930 . S
C859 C858 1.394 . S
C859 C860 1.383 . S
C859 H867 0.929 . S
C860 C859 1.383 . S
C860 C861 1.377 . S
C861 H845 0.930 . S
C861 C860 1.377 . S
C861 C862 1.379 . S
C862 H846 0.931 . S
C862 C856 1.383 . S
C862 C861 1.379 . S
H863 C857 0.959 . S
H864 C857 0.961 . S
H865 C857 0.960 . S
H866 C858 0.930 . S
H867 C859 0.929 . S
H868 C876 0.929 . S
H869 C878 0.930 . S
H870 C880 0.930 . S
H871 C883 0.929 . S
H872 C886 0.930 . S
H873 C888 0.960 . S
H874 C888 0.960 . S
H875 C888 0.960 . S
C876 H868 0.929 . S
C876 C877 1.377 . S
C876 C878 1.384 . S
C877 C876 1.377 . S
C877 C883 1.390 . S
C878 H869 0.930 . S
C878 C876 1.384 . S
C878 C879 1.372 . S
C879 C878 1.372 . S
C879 C880 1.400 . S
C879 C884 1.490 . S
C880 H870 0.930 . S
C880 C879 1.400 . S
C880 C883 1.386 . S
H881 C897 0.930 . S
H882 C898 0.931 . S
C883 H871 0.929 . S
C883 C877 1.390 . S
C883 C880 1.386 . S
C884 C879 1.490 . S
C884 C886 1.395 . S
C884 C887 1.403 . S
H885 C891 0.930 . S
C886 H872 0.930 . S
C886 C884 1.395 . S
C886 C889 1.403 . S
C887 C884 1.403 . S
C887 C888 1.524 . S
C887 C891 1.400 . S
C888 H873 0.960 . S
C888 H874 0.960 . S
C888 H875 0.960 . S
C888 C887 1.524 . S
C889 C886 1.403 . S
C889 C890 1.392 . S
C889 C893 1.495 . S
C890 C889 1.392 . S
C890 C891 1.385 . S
C890 C892 1.478 . S
C891 H885 0.930 . S
C891 C887 1.400 . S
C891 C890 1.385 . S
C892 C890 1.478 . S
C892 C894 1.381 . S
C892 C898 1.383 . S
C893 C889 1.495 . S
C893 H899 0.959 . S
C893 H900 0.961 . S
C893 H901 0.960 . S
C894 C892 1.381 . S
C894 C895 1.394 . S
C894 H902 0.930 . S
C895 C894 1.394 . S
C895 C896 1.383 . S
C895 H903 0.929 . S
C896 C895 1.383 . S
C896 C897 1.377 . S
C897 H881 0.930 . S
C897 C896 1.377 . S
C897 C898 1.379 . S
C898 H882 0.931 . S
C898 C892 1.383 . S
C898 C897 1.379 . S
H899 C893 0.959 . S
H900 C893 0.961 . S
H901 C893 0.960 . S
H902 C894 0.930 . S
H903 C895 0.929 . S
H904 C912 0.929 . S
H905 C914 0.930 . S
H906 C916 0.930 . S
H907 C919 0.929 . S
H908 C922 0.930 . S
H909 C924 0.960 . S
H910 C924 0.960 . S
H911 C924 0.960 . S
C912 H904 0.929 . S
C912 C913 1.377 . S
C912 C914 1.384 . S
C913 C912 1.377 . S
C913 C919 1.390 . S
C914 H905 0.930 . S
C914 C912 1.384 . S
C914 C915 1.372 . S
C915 C914 1.372 . S
C915 C916 1.400 . S
C915 C920 1.490 . S
C916 H906 0.930 . S
C916 C915 1.400 . S
C916 C919 1.386 . S
H917 C933 0.930 . S
H918 C934 0.931 . S
C919 H907 0.929 . S
C919 C913 1.390 . S
C919 C916 1.386 . S
C920 C915 1.490 . S
C920 C922 1.395 . S
C920 C923 1.403 . S
H921 C927 0.930 . S
C922 H908 0.930 . S
C922 C920 1.395 . S
C922 C925 1.403 . S
C923 C920 1.403 . S
C923 C924 1.524 . S
C923 C927 1.400 . S
C924 H909 0.960 . S
C924 H910 0.960 . S
C924 H911 0.960 . S
C924 C923 1.524 . S
C925 C922 1.403 . S
C925 C926 1.392 . S
C925 C929 1.495 . S
C926 C925 1.392 . S
C926 C927 1.385 . S
C926 C928 1.478 . S
C927 H921 0.930 . S
C927 C923 1.400 . S
C927 C926 1.385 . S
C928 C926 1.478 . S
C928 C930 1.381 . S
C928 C934 1.383 . S
C929 C925 1.495 . S
C929 H935 0.959 . S
C929 H936 0.961 . S
C929 H937 0.960 . S
C930 C928 1.381 . S
C930 C931 1.394 . S
C930 H938 0.930 . S
C931 C930 1.394 . S
C931 C932 1.383 . S
C931 H939 0.929 . S
C932 C931 1.383 . S
C932 C933 1.377 . S
C933 H917 0.930 . S
C933 C932 1.377 . S
C933 C934 1.379 . S
C934 H918 0.931 . S
C934 C928 1.383 . S
C934 C933 1.379 . S
H935 C929 0.959 . S
H936 C929 0.961 . S
H937 C929 0.960 . S
H938 C930 0.930 . S
H939 C931 0.929 . S
H940 C948 0.929 . S
H941 C950 0.930 . S
H942 C952 0.930 . S
H943 C955 0.929 . S
H944 C958 0.930 . S
H945 C960 0.960 . S
H946 C960 0.960 . S
H947 C960 0.960 . S
C948 H940 0.929 . S
C948 C949 1.377 . S
C948 C950 1.384 . S
C949 C948 1.377 . S
C949 C955 1.390 . S
C950 H941 0.930 . S
C950 C948 1.384 . S
C950 C951 1.372 . S
C951 C950 1.372 . S
C951 C952 1.400 . S
C951 C956 1.490 . S
C952 H942 0.930 . S
C952 C951 1.400 . S
C952 C955 1.386 . S
H953 C969 0.930 . S
H954 C970 0.931 . S
C955 H943 0.929 . S
C955 C949 1.390 . S
C955 C952 1.386 . S
C956 C951 1.490 . S
C956 C958 1.395 . S
C956 C959 1.403 . S
H957 C963 0.930 . S
C958 H944 0.930 . S
C958 C956 1.395 . S
C958 C961 1.403 1_556 S
C959 C956 1.403 . S
C959 C960 1.524 . S
C959 C963 1.400 1_556 S
C960 H945 0.960 . S
C960 H946 0.960 . S
C960 H947 0.960 . S
C960 C959 1.524 . S
C961 C958 1.403 1_554 S
C961 C962 1.392 . S
C961 C965 1.495 . S
C962 C961 1.392 . S
C962 C963 1.385 . S
C962 C964 1.478 . S
C963 H957 0.930 . S
C963 C959 1.400 1_554 S
C963 C962 1.385 . S
C964 C962 1.478 . S
C964 C966 1.381 . S
C964 C970 1.383 . S
C965 C961 1.495 . S
C965 H971 0.959 . S
C965 H972 0.961 . S
C965 H973 0.960 . S
C966 C964 1.381 . S
C966 C967 1.394 . S
C966 H974 0.930 . S
C967 C966 1.394 . S
C967 C968 1.383 . S
C967 H975 0.929 . S
C968 C967 1.383 . S
C968 C969 1.377 . S
C969 H953 0.930 . S
C969 C968 1.377 . S
C969 C970 1.379 . S
C970 H954 0.931 . S
C970 C964 1.383 . S
C970 C969 1.379 . S
H971 C965 0.959 . S
H972 C965 0.961 . S
H973 C965 0.960 . S
H974 C966 0.930 . S
H975 C967 0.929 . S
H976 C984 0.929 . S
H977 C986 0.930 . S
H978 C988 0.930 . S
H979 C991 0.929 . S
H980 C994 0.930 . S
H981 C996 0.960 . S
H982 C996 0.960 . S
H983 C996 0.960 . S
C984 H976 0.929 . S
C984 C985 1.377 . S
C984 C986 1.384 . S
C985 C984 1.377 . S
C985 C991 1.390 . S
C986 H977 0.930 . S
C986 C984 1.384 . S
C986 C987 1.372 . S
C987 C986 1.372 . S
C987 C988 1.400 . S
C987 C992 1.490 . S
C988 H978 0.930 . S
C988 C987 1.400 . S
C988 C991 1.386 . S
H989 C1005 0.930 . S
H990 C1006 0.931 . S
C991 H979 0.929 . S
C991 C985 1.390 . S
C991 C988 1.386 . S
C992 C987 1.490 . S
C992 C994 1.395 . S
C992 C995 1.403 . S
H993 C999 0.930 . S
C994 H980 0.930 . S
C994 C992 1.395 . S
C994 C997 1.403 . S
C995 C992 1.403 . S
C995 C996 1.524 . S
C995 C999 1.400 . S
C996 H981 0.960 . S
C996 H982 0.960 . S
C996 H983 0.960 . S
C996 C995 1.524 . S
C997 C994 1.403 . S
C997 C998 1.392 . S
C997 C1001 1.495 . S
C998 C997 1.392 . S
C998 C999 1.385 . S
C998 C1000 1.478 . S
C999 H993 0.930 . S
C999 C995 1.400 . S
C999 C998 1.385 . S
C1000 C998 1.478 . S
C1000 C1002 1.381 . S
C1000 C1006 1.383 . S
C1001 C997 1.495 . S
C1001 H1007 0.959 . S
C1001 H1008 0.961 . S
C1001 H1009 0.960 . S
C1002 C1000 1.381 . S
C1002 C1003 1.394 . S
C1002 H1010 0.930 . S
C1003 C1002 1.394 . S
C1003 C1004 1.383 . S
C1003 H1011 0.929 . S
C1004 C1003 1.383 . S
C1004 C1005 1.377 . S
C1005 H989 0.930 . S
C1005 C1004 1.377 . S
C1005 C1006 1.379 . S
C1006 H990 0.931 . S
C1006 C1000 1.383 . S
C1006 C1005 1.379 . S
H1007 C1001 0.959 . S
H1008 C1001 0.961 . S
H1009 C1001 0.960 . S
H1010 C1002 0.930 . S
H1011 C1003 0.929 . S
H1012 C1020 0.929 . S
H1013 C1022 0.930 . S
H1014 C1024 0.930 . S
H1015 C1027 0.929 . S
H1016 C1030 0.930 . S
H1017 C1032 0.960 . S
H1018 C1032 0.960 . S
H1019 C1032 0.960 . S
C1020 H1012 0.929 . S
C1020 C1021 1.377 . S
C1020 C1022 1.384 . S
C1021 C1020 1.377 . S
C1021 C1027 1.390 . S
C1022 H1013 0.930 . S
C1022 C1020 1.384 . S
C1022 C1023 1.372 . S
C1023 C1022 1.372 . S
C1023 C1024 1.400 . S
C1023 C1028 1.490 . S
C1024 H1014 0.930 . S
C1024 C1023 1.400 . S
C1024 C1027 1.386 . S
H1025 C1041 0.930 . S
H1026 C1042 0.931 . S
C1027 H1015 0.929 . S
C1027 C1021 1.390 . S
C1027 C1024 1.386 . S
C1028 C1023 1.490 . S
C1028 C1030 1.395 . S
C1028 C1031 1.403 . S
H1029 C1035 0.930 . S
C1030 H1016 0.930 . S
C1030 C1028 1.395 . S
C1030 C1033 1.403 1_545 S
C1031 C1028 1.403 . S
C1031 C1032 1.524 . S
C1031 C1035 1.400 . S
C1032 H1017 0.960 . S
C1032 H1018 0.960 . S
C1032 H1019 0.960 . S
C1032 C1031 1.524 . S
C1033 C1030 1.403 1_565 S
C1033 C1034 1.392 . S
C1033 C1037 1.495 . S
C1034 C1033 1.392 . S
C1034 C1035 1.385 1_565 S
C1034 C1036 1.478 . S
C1035 H1029 0.930 . S
C1035 C1031 1.400 . S
C1035 C1034 1.385 1_545 S
C1036 C1034 1.478 . S
C1036 C1038 1.381 . S
C1036 C1042 1.383 . S
C1037 C1033 1.495 . S
C1037 H1043 0.959 . S
C1037 H1044 0.961 . S
C1037 H1045 0.960 . S
C1038 C1036 1.381 . S
C1038 C1039 1.394 . S
C1038 H1046 0.930 . S
C1039 C1038 1.394 . S
C1039 C1040 1.383 . S
C1039 H1047 0.929 . S
C1040 C1039 1.383 . S
C1040 C1041 1.377 . S
C1041 H1025 0.930 . S
C1041 C1040 1.377 . S
C1041 C1042 1.379 . S
C1042 H1026 0.931 . S
C1042 C1036 1.383 . S
C1042 C1041 1.379 . S
H1043 C1037 0.959 . S
H1044 C1037 0.961 . S
H1045 C1037 0.960 . S
H1046 C1038 0.930 . S
H1047 C1039 0.929 . S
H1048 C1056 0.929 . S
H1049 C1058 0.930 . S
H1050 C1060 0.930 . S
H1051 C1063 0.929 . S
H1052 C1066 0.930 . S
H1053 C1068 0.960 . S
H1054 C1068 0.960 . S
H1055 C1068 0.960 . S
C1056 H1048 0.929 . S
C1056 C1057 1.377 . S
C1056 C1058 1.384 . S
C1057 C1056 1.377 . S
C1057 C1063 1.390 . S
C1058 H1049 0.930 . S
C1058 C1056 1.384 . S
C1058 C1059 1.372 . S
C1059 C1058 1.372 . S
C1059 C1060 1.400 . S
C1059 C1064 1.490 . S
C1060 H1050 0.930 . S
C1060 C1059 1.400 . S
C1060 C1063 1.386 . S
H1061 C1077 0.930 . S
H1062 C1078 0.931 . S
C1063 H1051 0.929 . S
C1063 C1057 1.390 . S
C1063 C1060 1.386 . S
C1064 C1059 1.490 . S
C1064 C1066 1.395 . S
C1064 C1067 1.403 . S
H1065 C1071 0.930 . S
C1066 H1052 0.930 . S
C1066 C1064 1.395 . S
C1066 C1069 1.403 . S
C1067 C1064 1.403 . S
C1067 C1068 1.524 . S
C1067 C1071 1.400 . S
C1068 H1053 0.960 . S
C1068 H1054 0.960 . S
C1068 H1055 0.960 . S
C1068 C1067 1.524 . S
C1069 C1066 1.403 . S
C1069 C1070 1.392 . S
C1069 C1073 1.495 . S
C1070 C1069 1.392 . S
C1070 C1071 1.385 . S
C1070 C1072 1.478 . S
C1071 H1065 0.930 . S
C1071 C1067 1.400 . S
C1071 C1070 1.385 . S
C1072 C1070 1.478 . S
C1072 C1074 1.381 . S
C1072 C1078 1.383 . S
C1073 C1069 1.495 . S
C1073 H1079 0.959 . S
C1073 H1080 0.961 . S
C1073 H1081 0.960 . S
C1074 C1072 1.381 . S
C1074 C1075 1.394 . S
C1074 H1082 0.930 . S
C1075 C1074 1.394 . S
C1075 C1076 1.383 . S
C1075 H1083 0.929 . S
C1076 C1075 1.383 . S
C1076 C1077 1.377 . S
C1077 H1061 0.930 . S
C1077 C1076 1.377 . S
C1077 C1078 1.379 . S
C1078 H1062 0.931 . S
C1078 C1072 1.383 . S
C1078 C1077 1.379 . S
H1079 C1073 0.959 . S
H1080 C1073 0.961 . S
H1081 C1073 0.960 . S
H1082 C1074 0.930 . S
H1083 C1075 0.929 . S
H1084 C1092 0.929 . S
H1085 C1094 0.930 . S
H1086 C1096 0.930 . S
H1087 C1099 0.929 . S
H1088 C1102 0.930 . S
H1089 C1104 0.960 1_545 S
H1090 C1104 0.960 . S
H1091 C1104 0.960 . S
C1092 H1084 0.929 . S
C1092 C1093 1.377 . S
C1092 C1094 1.384 . S
C1093 C1092 1.377 . S
C1093 C1099 1.390 . S
C1094 H1085 0.930 . S
C1094 C1092 1.384 . S
C1094 C1095 1.372 . S
C1095 C1094 1.372 . S
C1095 C1096 1.400 . S
C1095 C1100 1.490 . S
C1096 H1086 0.930 . S
C1096 C1095 1.400 . S
C1096 C1099 1.386 . S
H1097 C1113 0.930 . S
H1098 C1114 0.931 . S
C1099 H1087 0.929 . S
C1099 C1093 1.390 . S
C1099 C1096 1.386 . S
C1100 C1095 1.490 . S
C1100 C1102 1.395 . S
C1100 C1103 1.403 . S
H1101 C1107 0.930 . S
C1102 H1088 0.930 . S
C1102 C1100 1.395 . S
C1102 C1105 1.403 . S
C1103 C1100 1.403 . S
C1103 C1104 1.524 . S
C1103 C1107 1.400 1_565 S
C1104 H1089 0.960 1_565 S
C1104 H1090 0.960 . S
C1104 H1091 0.960 . S
C1104 C1103 1.524 . S
C1105 C1102 1.403 . S
C1105 C1106 1.392 1_565 S
C1105 C1109 1.495 . S
C1106 C1105 1.392 1_545 S
C1106 C1107 1.385 . S
C1106 C1108 1.478 . S
C1107 H1101 0.930 . S
C1107 C1103 1.400 1_545 S
C1107 C1106 1.385 . S
C1108 C1106 1.478 . S
C1108 C1110 1.381 . S
C1108 C1114 1.383 . S
C1109 C1105 1.495 . S
C1109 H1115 0.959 . S
C1109 H1116 0.961 . S
C1109 H1117 0.960 . S
C1110 C1108 1.381 . S
C1110 C1111 1.394 . S
C1110 H1118 0.930 . S
C1111 C1110 1.394 . S
C1111 C1112 1.383 . S
C1111 H1119 0.929 . S
C1112 C1111 1.383 . S
C1112 C1113 1.377 . S
C1113 H1097 0.930 . S
C1113 C1112 1.377 . S
C1113 C1114 1.379 . S
C1114 H1098 0.931 . S
C1114 C1108 1.383 . S
C1114 C1113 1.379 . S
H1115 C1109 0.959 . S
H1116 C1109 0.961 . S
H1117 C1109 0.960 . S
H1118 C1110 0.930 . S
H1119 C1111 0.929 . S
H1120 C1128 0.929 . S
H1121 C1130 0.930 . S
H1122 C1132 0.930 . S
H1123 C1135 0.929 . S
H1124 C1138 0.930 . S
H1125 C1140 0.960 . S
H1126 C1140 0.960 . S
H1127 C1140 0.960 . S
C1128 H1120 0.929 . S
C1128 C1129 1.377 . S
C1128 C1130 1.384 . S
C1129 C1128 1.377 . S
C1129 C1135 1.390 . S
C1130 H1121 0.930 . S
C1130 C1128 1.384 . S
C1130 C1131 1.372 . S
C1131 C1130 1.372 . S
C1131 C1132 1.400 . S
C1131 C1136 1.490 . S
C1132 H1122 0.930 . S
C1132 C1131 1.400 . S
C1132 C1135 1.386 . S
H1133 C1149 0.930 . S
H1134 C1150 0.931 . S
C1135 H1123 0.929 . S
C1135 C1129 1.390 . S
C1135 C1132 1.386 . S
C1136 C1131 1.490 . S
C1136 C1138 1.395 . S
C1136 C1139 1.403 . S
H1137 C1143 0.930 . S
C1138 H1124 0.930 . S
C1138 C1136 1.395 . S
C1138 C1141 1.403 . S
C1139 C1136 1.403 . S
C1139 C1140 1.524 . S
C1139 C1143 1.400 . S
C1140 H1125 0.960 . S
C1140 H1126 0.960 . S
C1140 H1127 0.960 . S
C1140 C1139 1.524 . S
C1141 C1138 1.403 . S
C1141 C1142 1.392 . S
C1141 C1145 1.495 . S
C1142 C1141 1.392 . S
C1142 C1143 1.385 . S
C1142 C1144 1.478 . S
C1143 H1137 0.930 . S
C1143 C1139 1.400 . S
C1143 C1142 1.385 . S
C1144 C1142 1.478 . S
C1144 C1146 1.381 . S
C1144 C1150 1.383 . S
C1145 C1141 1.495 . S
C1145 H1151 0.959 . S
C1145 H1152 0.961 . S
C1145 H1153 0.960 . S
C1146 C1144 1.381 . S
C1146 C1147 1.394 . S
C1146 H1154 0.930 . S
C1147 C1146 1.394 . S
C1147 C1148 1.383 . S
C1147 H1155 0.929 . S
C1148 C1147 1.383 . S
C1148 C1149 1.377 . S
C1149 H1133 0.930 . S
C1149 C1148 1.377 . S
C1149 C1150 1.379 . S
C1150 H1134 0.931 . S
C1150 C1144 1.383 . S
C1150 C1149 1.379 . S
H1151 C1145 0.959 . S
H1152 C1145 0.961 . S
H1153 C1145 0.960 . S
H1154 C1146 0.930 . S
H1155 C1147 0.929 . S
H1156 C1164 0.929 . S
H1157 C1166 0.930 . S
H1158 C1168 0.930 . S
H1159 C1171 0.929 . S
H1160 C1174 0.930 . S
H1161 C1176 0.960 1_565 S
H1162 C1176 0.960 . S
H1163 C1176 0.960 . S
C1164 H1156 0.929 . S
C1164 C1165 1.377 . S
C1164 C1166 1.384 . S
C1165 C1164 1.377 . S
C1165 C1171 1.390 . S
C1166 H1157 0.930 . S
C1166 C1164 1.384 . S
C1166 C1167 1.372 . S
C1167 C1166 1.372 . S
C1167 C1168 1.400 . S
C1167 C1172 1.490 . S
C1168 H1158 0.930 . S
C1168 C1167 1.400 . S
C1168 C1171 1.386 . S
H1169 C1185 0.930 . S
H1170 C1186 0.931 . S
C1171 H1159 0.929 . S
C1171 C1165 1.390 . S
C1171 C1168 1.386 . S
C1172 C1167 1.490 . S
C1172 C1174 1.395 . S
C1172 C1175 1.403 . S
H1173 C1179 0.930 . S
C1174 H1160 0.930 . S
C1174 C1172 1.395 . S
C1174 C1177 1.403 . S
C1175 C1172 1.403 . S
C1175 C1176 1.524 . S
C1175 C1179 1.400 1_545 S
C1176 H1161 0.960 1_545 S
C1176 H1162 0.960 . S
C1176 H1163 0.960 . S
C1176 C1175 1.524 . S
C1177 C1174 1.403 . S
C1177 C1178 1.392 1_545 S
C1177 C1181 1.495 . S
C1178 C1177 1.392 1_565 S
C1178 C1179 1.385 . S
C1178 C1180 1.478 . S
C1179 H1173 0.930 . S
C1179 C1175 1.400 1_565 S
C1179 C1178 1.385 . S
C1180 C1178 1.478 . S
C1180 C1182 1.381 . S
C1180 C1186 1.383 . S
C1181 C1177 1.495 . S
C1181 H1187 0.959 . S
C1181 H1188 0.961 . S
C1181 H1189 0.960 . S
C1182 C1180 1.381 . S
C1182 C1183 1.394 . S
C1182 H1190 0.930 . S
C1183 C1182 1.394 . S
C1183 C1184 1.383 . S
C1183 H1191 0.929 . S
C1184 C1183 1.383 . S
C1184 C1185 1.377 . S
C1185 H1169 0.930 . S
C1185 C1184 1.377 . S
C1185 C1186 1.379 . S
C1186 H1170 0.931 . S
C1186 C1180 1.383 . S
C1186 C1185 1.379 . S
H1187 C1181 0.959 . S
H1188 C1181 0.961 . S
H1189 C1181 0.960 . S
H1190 C1182 0.930 . S
H1191 C1183 0.929 . S
H1192 C1200 0.929 . S
H1193 C1202 0.930 . S
H1194 C1204 0.930 . S
H1195 C1207 0.929 . S
H1196 C1210 0.930 . S
H1197 C1212 0.960 . S
H1198 C1212 0.960 . S
H1199 C1212 0.960 . S
C1200 H1192 0.929 . S
C1200 C1201 1.377 . S
C1200 C1202 1.384 . S
C1201 C1200 1.377 . S
C1201 C1207 1.390 . S
C1202 H1193 0.930 . S
C1202 C1200 1.384 . S
C1202 C1203 1.372 . S
C1203 C1202 1.372 . S
C1203 C1204 1.400 . S
C1203 C1208 1.490 . S
C1204 H1194 0.930 . S
C1204 C1203 1.400 . S
C1204 C1207 1.386 . S
H1205 C1221 0.930 . S
H1206 C1222 0.931 . S
C1207 H1195 0.929 . S
C1207 C1201 1.390 . S
C1207 C1204 1.386 . S
C1208 C1203 1.490 . S
C1208 C1210 1.395 . S
C1208 C1211 1.403 . S
H1209 C1215 0.930 . S
C1210 H1196 0.930 . S
C1210 C1208 1.395 . S
C1210 C1213 1.403 . S
C1211 C1208 1.403 . S
C1211 C1212 1.524 . S
C1211 C1215 1.400 . S
C1212 H1197 0.960 . S
C1212 H1198 0.960 . S
C1212 H1199 0.960 . S
C1212 C1211 1.524 . S
C1213 C1210 1.403 . S
C1213 C1214 1.392 . S
C1213 C1217 1.495 . S
C1214 C1213 1.392 . S
C1214 C1215 1.385 . S
C1214 C1216 1.478 . S
C1215 H1209 0.930 . S
C1215 C1211 1.400 . S
C1215 C1214 1.385 . S
C1216 C1214 1.478 . S
C1216 C1218 1.381 . S
C1216 C1222 1.383 . S
C1217 C1213 1.495 . S
C1217 H1223 0.959 . S
C1217 H1224 0.961 . S
C1217 H1225 0.960 . S
C1218 C1216 1.381 . S
C1218 C1219 1.394 . S
C1218 H1226 0.930 . S
C1219 C1218 1.394 . S
C1219 C1220 1.383 . S
C1219 H1227 0.929 . S
C1220 C1219 1.383 . S
C1220 C1221 1.377 . S
C1221 H1205 0.930 . S
C1221 C1220 1.377 . S
C1221 C1222 1.379 . S
C1222 H1206 0.931 . S
C1222 C1216 1.383 . S
C1222 C1221 1.379 . S
H1223 C1217 0.959 . S
H1224 C1217 0.961 . S
H1225 C1217 0.960 . S
H1226 C1218 0.930 . S
H1227 C1219 0.929 . S
H1228 C1236 0.929 . S
H1229 C1238 0.930 . S
H1230 C1240 0.930 . S
H1231 C1243 0.929 . S
H1232 C1246 0.930 . S
H1233 C1248 0.960 1_545 S
H1234 C1248 0.960 . S
H1235 C1248 0.960 . S
C1236 H1228 0.929 . S
C1236 C1237 1.377 . S
C1236 C1238 1.384 . S
C1237 C1236 1.377 . S
C1237 C1243 1.390 . S
C1238 H1229 0.930 . S
C1238 C1236 1.384 . S
C1238 C1239 1.372 . S
C1239 C1238 1.372 . S
C1239 C1240 1.400 . S
C1239 C1244 1.490 . S
C1240 H1230 0.930 . S
C1240 C1239 1.400 . S
C1240 C1243 1.386 . S
H1241 C1257 0.930 . S
H1242 C1258 0.931 . S
C1243 H1231 0.929 . S
C1243 C1237 1.390 . S
C1243 C1240 1.386 . S
C1244 C1239 1.490 . S
C1244 C1246 1.395 . S
C1244 C1247 1.403 . S
H1245 C1251 0.930 . S
C1246 H1232 0.930 . S
C1246 C1244 1.395 . S
C1246 C1249 1.403 . S
C1247 C1244 1.403 . S
C1247 C1248 1.524 . S
C1247 C1251 1.400 1_565 S
C1248 H1233 0.960 1_565 S
C1248 H1234 0.960 . S
C1248 H1235 0.960 . S
C1248 C1247 1.524 . S
C1249 C1246 1.403 . S
C1249 C1250 1.392 1_565 S
C1249 C1253 1.495 . S
C1250 C1249 1.392 1_545 S
C1250 C1251 1.385 . S
C1250 C1252 1.478 . S
C1251 H1245 0.930 . S
C1251 C1247 1.400 1_545 S
C1251 C1250 1.385 . S
C1252 C1250 1.478 . S
C1252 C1254 1.381 . S
C1252 C1258 1.383 . S
C1253 C1249 1.495 . S
C1253 H1259 0.959 . S
C1253 H1260 0.961 1_565 S
C1253 H1261 0.960 . S
C1254 C1252 1.381 . S
C1254 C1255 1.394 . S
C1254 H1262 0.930 . S
C1255 C1254 1.394 . S
C1255 C1256 1.383 . S
C1255 H1263 0.929 . S
C1256 C1255 1.383 . S
C1256 C1257 1.377 . S
C1257 H1241 0.930 . S
C1257 C1256 1.377 . S
C1257 C1258 1.379 . S
C1258 H1242 0.931 . S
C1258 C1252 1.383 . S
C1258 C1257 1.379 . S
H1259 C1253 0.959 . S
H1260 C1253 0.961 1_545 S
H1261 C1253 0.960 . S
H1262 C1254 0.930 . S
H1263 C1255 0.929 . S
H1264 C1272 0.929 . S
H1265 C1274 0.930 . S
H1266 C1276 0.930 . S
H1267 C1279 0.929 . S
H1268 C1282 0.930 . S
H1269 C1284 0.960 . S
H1270 C1284 0.960 . S
H1271 C1284 0.960 . S
C1272 H1264 0.929 . S
C1272 C1273 1.377 . S
C1272 C1274 1.384 . S
C1273 C1272 1.377 . S
C1273 C1279 1.390 . S
C1274 H1265 0.930 . S
C1274 C1272 1.384 . S
C1274 C1275 1.372 . S
C1275 C1274 1.372 . S
C1275 C1276 1.400 . S
C1275 C1280 1.490 . S
C1276 H1266 0.930 . S
C1276 C1275 1.400 . S
C1276 C1279 1.386 . S
H1277 C1293 0.930 . S
H1278 C1294 0.931 . S
C1279 H1267 0.929 . S
C1279 C1273 1.390 . S
C1279 C1276 1.386 . S
C1280 C1275 1.490 . S
C1280 C1282 1.395 . S
C1280 C1283 1.403 . S
H1281 C1287 0.930 . S
C1282 H1268 0.930 . S
C1282 C1280 1.395 . S
C1282 C1285 1.403 . S
C1283 C1280 1.403 . S
C1283 C1284 1.524 . S
C1283 C1287 1.400 . S
C1284 H1269 0.960 . S
C1284 H1270 0.960 . S
C1284 H1271 0.960 . S
C1284 C1283 1.524 . S
C1285 C1282 1.403 . S
C1285 C1286 1.392 . S
C1285 C1289 1.495 . S
C1286 C1285 1.392 . S
C1286 C1287 1.385 . S
C1286 C1288 1.478 . S
C1287 H1281 0.930 . S
C1287 C1283 1.400 . S
C1287 C1286 1.385 . S
C1288 C1286 1.478 . S
C1288 C1290 1.381 . S
C1288 C1294 1.383 . S
C1289 C1285 1.495 . S
C1289 H1295 0.959 . S
C1289 H1296 0.961 . S
C1289 H1297 0.960 . S
C1290 C1288 1.381 . S
C1290 C1291 1.394 . S
C1290 H1298 0.930 . S
C1291 C1290 1.394 . S
C1291 C1292 1.383 . S
C1291 H1299 0.929 . S
C1292 C1291 1.383 . S
C1292 C1293 1.377 . S
C1293 H1277 0.930 . S
C1293 C1292 1.377 . S
C1293 C1294 1.379 . S
C1294 H1278 0.931 . S
C1294 C1288 1.383 . S
C1294 C1293 1.379 . S
H1295 C1289 0.959 . S
H1296 C1289 0.961 . S
H1297 C1289 0.960 . S
H1298 C1290 0.930 . S
H1299 C1291 0.929 . S
H1300 C1308 0.929 . S
H1301 C1310 0.930 . S
H1302 C1312 0.930 . S
H1303 C1315 0.929 . S
H1304 C1318 0.930 . S
H1305 C1320 0.960 . S
H1306 C1320 0.960 . S
H1307 C1320 0.960 . S
C1308 H1300 0.929 . S
C1308 C1309 1.377 . S
C1308 C1310 1.384 . S
C1309 C1308 1.377 . S
C1309 C1315 1.390 . S
C1310 H1301 0.930 . S
C1310 C1308 1.384 . S
C1310 C1311 1.372 . S
C1311 C1310 1.372 . S
C1311 C1312 1.400 . S
C1311 C1316 1.490 . S
C1312 H1302 0.930 . S
C1312 C1311 1.400 . S
C1312 C1315 1.386 . S
H1313 C1329 0.930 . S
H1314 C1330 0.931 . S
C1315 H1303 0.929 . S
C1315 C1309 1.390 . S
C1315 C1312 1.386 . S
C1316 C1311 1.490 . S
C1316 C1318 1.395 . S
C1316 C1319 1.403 . S
H1317 C1323 0.930 . S
C1318 H1304 0.930 . S
C1318 C1316 1.395 . S
C1318 C1321 1.403 . S
C1319 C1316 1.403 . S
C1319 C1320 1.524 . S
C1319 C1323 1.400 . S
C1320 H1305 0.960 . S
C1320 H1306 0.960 . S
C1320 H1307 0.960 . S
C1320 C1319 1.524 . S
C1321 C1318 1.403 . S
C1321 C1322 1.392 . S
C1321 C1325 1.495 . S
C1322 C1321 1.392 . S
C1322 C1323 1.385 . S
C1322 C1324 1.478 . S
C1323 H1317 0.930 . S
C1323 C1319 1.400 . S
C1323 C1322 1.385 . S
C1324 C1322 1.478 . S
C1324 C1326 1.381 . S
C1324 C1330 1.383 . S
C1325 C1321 1.495 . S
C1325 H1331 0.959 . S
C1325 H1332 0.961 . S
C1325 H1333 0.960 . S
C1326 C1324 1.381 . S
C1326 C1327 1.394 . S
C1326 H1334 0.930 . S
C1327 C1326 1.394 . S
C1327 C1328 1.383 . S
C1327 H1335 0.929 . S
C1328 C1327 1.383 . S
C1328 C1329 1.377 . S
C1329 H1313 0.930 . S
C1329 C1328 1.377 . S
C1329 C1330 1.379 . S
C1330 H1314 0.931 . S
C1330 C1324 1.383 . S
C1330 C1329 1.379 . S
H1331 C1325 0.959 . S
H1332 C1325 0.961 . S
H1333 C1325 0.960 . S
H1334 C1326 0.930 . S
H1335 C1327 0.929 . S
H1336 C1344 0.929 . S
H1337 C1346 0.930 . S
H1338 C1348 0.930 . S
H1339 C1351 0.929 . S
H1340 C1354 0.930 . S
H1341 C1356 0.960 1_655 S
H1342 C1356 0.960 . S
H1343 C1356 0.960 . S
C1344 H1336 0.929 . S
C1344 C1345 1.377 . S
C1344 C1346 1.384 . S
C1345 C1344 1.377 . S
C1345 C1351 1.390 . S
C1346 H1337 0.930 . S
C1346 C1344 1.384 . S
C1346 C1347 1.372 . S
C1347 C1346 1.372 . S
C1347 C1348 1.400 . S
C1347 C1352 1.490 . S
C1348 H1338 0.930 . S
C1348 C1347 1.400 . S
C1348 C1351 1.386 . S
H1349 C1365 0.930 . S
H1350 C1366 0.931 . S
C1351 H1339 0.929 . S
C1351 C1345 1.390 . S
C1351 C1348 1.386 . S
C1352 C1347 1.490 . S
C1352 C1354 1.395 . S
C1352 C1355 1.403 . S
H1353 C1359 0.930 . S
C1354 H1340 0.930 . S
C1354 C1352 1.395 . S
C1354 C1357 1.403 . S
C1355 C1352 1.403 . S
C1355 C1356 1.524 . S
C1355 C1359 1.400 1_455 S
C1356 H1341 0.960 1_455 S
C1356 H1342 0.960 . S
C1356 H1343 0.960 . S
C1356 C1355 1.524 . S
C1357 C1354 1.403 . S
C1357 C1358 1.379 1_455 S
C1357 C1361 1.495 . S
C1358 C1357 1.379 1_655 S
C1358 C1359 1.387 . S
C1358 C1360 1.489 . S
C1359 H1353 0.930 . S
C1359 C1355 1.400 1_655 S
C1359 C1358 1.387 . S
C1360 C1358 1.489 . S
C1360 C1362 1.381 . S
C1360 C1366 1.383 . S
C1361 C1357 1.495 . S
C1361 H1367 0.959 . S
C1361 H1368 0.961 . S
C1361 H1369 0.960 . S
C1362 C1360 1.381 . S
C1362 C1363 1.394 . S
C1362 H1370 0.930 . S
C1363 C1362 1.394 . S
C1363 C1364 1.383 . S
C1363 H1371 0.929 . S
C1364 C1363 1.383 . S
C1364 C1365 1.377 . S
C1365 H1349 0.930 . S
C1365 C1364 1.377 . S
C1365 C1366 1.379 . S
C1366 H1350 0.931 . S
C1366 C1360 1.383 . S
C1366 C1365 1.379 . S
H1367 C1361 0.959 . S
H1368 C1361 0.961 . S
H1369 C1361 0.960 . S
H1370 C1362 0.930 . S
H1371 C1363 0.929 . S
H1372 C1380 0.929 . S
H1373 C1382 0.930 . S
H1374 C1384 0.930 . S
H1375 C1387 0.929 . S
H1376 C1390 0.930 . S
H1377 C1392 0.960 . S
H1378 C1392 0.960 . S
H1379 C1392 0.960 . S
C1380 H1372 0.929 . S
C1380 C1381 1.377 . S
C1380 C1382 1.384 . S
C1381 C1380 1.377 . S
C1381 C1387 1.390 . S
C1382 H1373 0.930 . S
C1382 C1380 1.384 . S
C1382 C1383 1.372 . S
C1383 C1382 1.372 . S
C1383 C1384 1.400 . S
C1383 C1388 1.490 . S
C1384 H1374 0.930 . S
C1384 C1383 1.400 . S
C1384 C1387 1.386 . S
H1385 C1401 0.930 . S
H1386 C1402 0.931 . S
C1387 H1375 0.929 . S
C1387 C1381 1.390 . S
C1387 C1384 1.386 . S
C1388 C1383 1.490 . S
C1388 C1390 1.395 . S
C1388 C1391 1.403 . S
H1389 C1395 0.930 . S
C1390 H1376 0.930 . S
C1390 C1388 1.395 . S
C1390 C1393 1.403 . S
C1391 C1388 1.403 . S
C1391 C1392 1.524 . S
C1391 C1395 1.400 . S
C1392 H1377 0.960 . S
C1392 H1378 0.960 . S
C1392 H1379 0.960 . S
C1392 C1391 1.524 . S
C1393 C1390 1.403 . S
C1393 C1394 1.392 . S
C1393 C1397 1.495 . S
C1394 C1393 1.392 . S
C1394 C1395 1.385 . S
C1394 C1396 1.478 . S
C1395 H1389 0.930 . S
C1395 C1391 1.400 . S
C1395 C1394 1.385 . S
C1396 C1394 1.478 . S
C1396 C1398 1.381 . S
C1396 C1402 1.383 . S
C1397 C1393 1.495 . S
C1397 H1403 0.959 . S
C1397 H1404 0.961 . S
C1397 H1405 0.960 . S
C1398 C1396 1.381 . S
C1398 C1399 1.394 . S
C1398 H1406 0.930 . S
C1399 C1398 1.394 . S
C1399 C1400 1.383 . S
C1399 H1407 0.929 . S
C1400 C1399 1.383 . S
C1400 C1401 1.377 . S
C1401 H1385 0.930 . S
C1401 C1400 1.377 . S
C1401 C1402 1.379 . S
C1402 H1386 0.931 . S
C1402 C1396 1.383 . S
C1402 C1401 1.379 . S
H1403 C1397 0.959 . S
H1404 C1397 0.961 . S
H1405 C1397 0.960 . S
H1406 C1398 0.930 . S
H1407 C1399 0.929 . S
H1408 C1416 0.929 . S
H1409 C1418 0.930 . S
H1410 C1420 0.930 . S
H1411 C1423 0.929 . S
H1412 C1426 0.930 . S
H1413 C1428 0.960 1_455 S
H1414 C1428 0.960 . S
H1415 C1428 0.960 . S
C1416 H1408 0.929 . S
C1416 C1417 1.377 . S
C1416 C1418 1.384 . S
C1417 C1416 1.377 . S
C1417 C1423 1.390 . S
C1418 H1409 0.930 . S
C1418 C1416 1.384 . S
C1418 C1419 1.372 . S
C1419 C1418 1.372 . S
C1419 C1420 1.400 . S
C1419 C1424 1.490 . S
C1420 H1410 0.930 . S
C1420 C1419 1.400 . S
C1420 C1423 1.386 . S
H1421 C1437 0.930 . S
H1422 C1438 0.931 . S
C1423 H1411 0.929 . S
C1423 C1417 1.390 . S
C1423 C1420 1.386 . S
C1424 C1419 1.490 . S
C1424 C1426 1.395 . S
C1424 C1427 1.403 . S
H1425 C1431 0.930 . S
C1426 H1412 0.930 . S
C1426 C1424 1.395 . S
C1426 C1429 1.403 . S
C1427 C1424 1.403 . S
C1427 C1428 1.524 . S
C1427 C1431 1.400 1_655 S
C1428 H1413 0.960 1_655 S
C1428 H1414 0.960 . S
C1428 H1415 0.960 . S
C1428 C1427 1.524 . S
C1429 C1426 1.403 . S
C1429 C1430 1.392 1_655 S
C1429 C1433 1.495 . S
C1430 C1429 1.392 1_455 S
C1430 C1431 1.385 . S
C1430 C1432 1.478 . S
C1431 H1425 0.930 . S
C1431 C1427 1.400 1_455 S
C1431 C1430 1.385 . S
C1432 C1430 1.478 . S
C1432 C1434 1.381 . S
C1432 C1438 1.383 . S
C1433 C1429 1.495 . S
C1433 H1439 0.959 . S
C1433 H1440 0.961 . S
C1433 H1441 0.960 . S
C1434 C1432 1.381 . S
C1434 C1435 1.394 . S
C1434 H1442 0.930 . S
C1435 C1434 1.394 . S
C1435 C1436 1.383 . S
C1435 H1443 0.929 . S
C1436 C1435 1.383 . S
C1436 C1437 1.377 . S
C1437 H1421 0.930 . S
C1437 C1436 1.377 . S
C1437 C1438 1.379 . S
C1438 H1422 0.931 . S
C1438 C1432 1.383 . S
C1438 C1437 1.379 . S
H1439 C1433 0.959 . S
H1440 C1433 0.961 . S
H1441 C1433 0.960 . S
H1442 C1434 0.930 . S
H1443 C1435 0.929 . S
H1444 C1452 0.929 . S
H1445 C1454 0.930 . S
H1446 C1456 0.930 . S
H1447 C1459 0.929 . S
H1448 C1462 0.930 . S
H1449 C1464 0.960 . S
H1450 C1464 0.960 . S
H1451 C1464 0.960 . S
C1452 H1444 0.929 . S
C1452 C1453 1.377 . S
C1452 C1454 1.384 . S
C1453 C1452 1.377 . S
C1453 C1459 1.390 . S
C1454 H1445 0.930 . S
C1454 C1452 1.384 . S
C1454 C1455 1.372 . S
C1455 C1454 1.372 . S
C1455 C1456 1.400 . S
C1455 C1460 1.490 . S
C1456 H1446 0.930 . S
C1456 C1455 1.400 . S
C1456 C1459 1.386 . S
H1457 C1473 0.930 . S
H1458 C1474 0.931 . S
C1459 H1447 0.929 . S
C1459 C1453 1.390 . S
C1459 C1456 1.386 . S
C1460 C1455 1.490 . S
C1460 C1462 1.395 . S
C1460 C1463 1.403 . S
H1461 C1467 0.930 . S
C1462 H1448 0.930 . S
C1462 C1460 1.395 . S
C1462 C1465 1.403 . S
C1463 C1460 1.403 . S
C1463 C1464 1.524 . S
C1463 C1467 1.400 . S
C1464 H1449 0.960 . S
C1464 H1450 0.960 . S
C1464 H1451 0.960 . S
C1464 C1463 1.524 . S
C1465 C1462 1.403 . S
C1465 C1466 1.392 . S
C1465 C1469 1.495 . S
C1466 C1465 1.392 . S
C1466 C1467 1.385 . S
C1466 C1468 1.478 . S
C1467 H1461 0.930 . S
C1467 C1463 1.400 . S
C1467 C1466 1.385 . S
C1468 C1466 1.478 . S
C1468 C1470 1.381 . S
C1468 C1474 1.383 . S
C1469 C1465 1.495 . S
C1469 H1475 0.959 . S
C1469 H1476 0.961 . S
C1469 H1477 0.960 . S
C1470 C1468 1.381 . S
C1470 C1471 1.394 . S
C1470 H1478 0.930 . S
C1471 C1470 1.394 . S
C1471 C1472 1.383 . S
C1471 H1479 0.929 . S
C1472 C1471 1.383 . S
C1472 C1473 1.377 . S
C1473 H1457 0.930 . S
C1473 C1472 1.377 . S
C1473 C1474 1.379 . S
C1474 H1458 0.931 . S
C1474 C1468 1.383 . S
C1474 C1473 1.379 . S
H1475 C1469 0.959 . S
H1476 C1469 0.961 . S
H1477 C1469 0.960 . S
H1478 C1470 0.930 . S
H1479 C1471 0.929 . S
H1480 C1488 0.929 . S
H1481 C1490 0.930 . S
H1482 C1492 0.930 . S
H1483 C1495 0.929 . S
H1484 C1498 0.930 . S
H1485 C1500 0.960 . S
H1486 C1500 0.960 . S
H1487 C1500 0.960 . S
C1488 H1480 0.929 . S
C1488 C1489 1.377 . S
C1488 C1490 1.384 . S
C1489 C1488 1.377 . S
C1489 C1495 1.390 . S
C1490 H1481 0.930 . S
C1490 C1488 1.384 . S
C1490 C1491 1.372 . S
C1491 C1490 1.372 . S
C1491 C1492 1.400 . S
C1491 C1496 1.490 . S
C1492 H1482 0.930 . S
C1492 C1491 1.400 . S
C1492 C1495 1.386 . S
H1493 C1509 0.930 . S
H1494 C1510 0.931 . S
C1495 H1483 0.929 . S
C1495 C1489 1.390 . S
C1495 C1492 1.386 . S
C1496 C1491 1.490 . S
C1496 C1498 1.395 . S
C1496 C1499 1.403 . S
H1497 C1503 0.930 . S
C1498 H1484 0.930 . S
C1498 C1496 1.395 . S
C1498 C1501 1.403 . S
C1499 C1496 1.403 . S
C1499 C1500 1.524 . S
C1499 C1503 1.400 1_455 S
C1500 H1485 0.960 . S
C1500 H1486 0.960 . S
C1500 H1487 0.960 . S
C1500 C1499 1.524 . S
C1501 C1498 1.403 . S
C1501 C1502 1.392 1_455 S
C1501 C1505 1.495 . S
C1502 C1501 1.392 1_655 S
C1502 C1503 1.385 . S
C1502 C1504 1.478 . S
C1503 H1497 0.930 . S
C1503 C1499 1.400 1_655 S
C1503 C1502 1.385 . S
C1504 C1502 1.478 . S
C1504 C1506 1.381 . S
C1504 C1510 1.383 . S
C1505 C1501 1.495 . S
C1505 H1511 0.959 . S
C1505 H1512 0.961 1_455 S
C1505 H1513 0.960 . S
C1506 C1504 1.381 . S
C1506 C1507 1.394 . S
C1506 H1514 0.930 . S
C1507 C1506 1.394 . S
C1507 C1508 1.383 . S
C1507 H1515 0.929 . S
C1508 C1507 1.383 . S
C1508 C1509 1.377 . S
C1509 H1493 0.930 . S
C1509 C1508 1.377 . S
C1509 C1510 1.379 . S
C1510 H1494 0.931 . S
C1510 C1504 1.383 . S
C1510 C1509 1.379 . S
H1511 C1505 0.959 . S
H1512 C1505 0.961 1_655 S
H1513 C1505 0.960 . S
H1514 C1506 0.930 . S
H1515 C1507 0.929 . S
H1516 C1524 0.929 . S
H1517 C1526 0.930 . S
H1518 C1528 0.930 . S
H1519 C1531 0.929 . S
H1520 C1534 0.930 . S
H1521 C1536 0.960 . S
H1522 C1536 0.960 . S
H1523 C1536 0.960 . S
C1524 H1516 0.929 . S
C1524 C1525 1.377 . S
C1524 C1526 1.384 . S
C1525 C1524 1.377 . S
C1525 C1531 1.390 . S
C1526 H1517 0.930 . S
C1526 C1524 1.384 . S
C1526 C1527 1.372 . S
C1527 C1526 1.372 . S
C1527 C1528 1.400 . S
C1527 C1532 1.490 . S
C1528 H1518 0.930 . S
C1528 C1527 1.400 . S
C1528 C1531 1.386 . S
H1529 C1545 0.930 . S
H1530 C1546 0.931 . S
C1531 H1519 0.929 . S
C1531 C1525 1.390 . S
C1531 C1528 1.386 . S
C1532 C1527 1.490 . S
C1532 C1534 1.395 . S
C1532 C1535 1.403 . S
H1533 C1539 0.930 . S
C1534 H1520 0.930 . S
C1534 C1532 1.395 . S
C1534 C1537 1.403 . S
C1535 C1532 1.403 . S
C1535 C1536 1.524 . S
C1535 C1539 1.400 . S
C1536 H1521 0.960 . S
C1536 H1522 0.960 . S
C1536 H1523 0.960 . S
C1536 C1535 1.524 . S
C1537 C1534 1.403 . S
C1537 C1538 1.392 . S
C1537 C1541 1.495 . S
C1538 C1537 1.392 . S
C1538 C1539 1.385 . S
C1538 C1540 1.478 . S
C1539 H1533 0.930 . S
C1539 C1535 1.400 . S
C1539 C1538 1.385 . S
C1540 C1538 1.478 . S
C1540 C1542 1.381 . S
C1540 C1546 1.383 . S
C1541 C1537 1.495 . S
C1541 H1547 0.959 . S
C1541 H1548 0.961 . S
C1541 H1549 0.960 . S
C1542 C1540 1.381 . S
C1542 C1543 1.394 . S
C1542 H1550 0.930 . S
C1543 C1542 1.394 . S
C1543 C1544 1.383 . S
C1543 H1551 0.929 . S
C1544 C1543 1.383 . S
C1544 C1545 1.377 . S
C1545 H1529 0.930 . S
C1545 C1544 1.377 . S
C1545 C1546 1.379 . S
C1546 H1530 0.931 . S
C1546 C1540 1.383 . S
C1546 C1545 1.379 . S
H1547 C1541 0.959 . S
H1548 C1541 0.961 . S
H1549 C1541 0.960 . S
H1550 C1542 0.930 . S
H1551 C1543 0.929 . S
H1552 C1560 0.929 . S
H1553 C1562 0.930 . S
H1554 C1564 0.930 . S
H1555 C1567 0.929 . S
H1556 C1570 0.930 . S
H1557 C1572 0.960 . S
H1558 C1572 0.960 . S
H1559 C1572 0.960 . S
C1560 H1552 0.929 . S
C1560 C1561 1.377 . S
C1560 C1562 1.384 . S
C1561 C1560 1.377 . S
C1561 C1567 1.390 . S
C1562 H1553 0.930 . S
C1562 C1560 1.384 . S
C1562 C1563 1.372 . S
C1563 C1562 1.372 . S
C1563 C1564 1.400 . S
C1563 C1568 1.490 . S
C1564 H1554 0.930 . S
C1564 C1563 1.400 . S
C1564 C1567 1.386 . S
H1565 C1581 0.930 . S
H1566 C1582 0.931 . S
C1567 H1555 0.929 . S
C1567 C1561 1.390 . S
C1567 C1564 1.386 . S
C1568 C1563 1.490 . S
C1568 C1570 1.395 . S
C1568 C1571 1.403 . S
H1569 C1575 0.930 . S
C1570 H1556 0.930 . S
C1570 C1568 1.395 . S
C1570 C1573 1.403 . S
C1571 C1568 1.403 . S
C1571 C1572 1.524 . S
C1571 C1575 1.400 . S
C1572 H1557 0.960 . S
C1572 H1558 0.960 . S
C1572 H1559 0.960 . S
C1572 C1571 1.524 . S
C1573 C1570 1.403 . S
C1573 C1574 1.392 . S
C1573 C1577 1.495 . S
C1574 C1573 1.392 . S
C1574 C1575 1.385 . S
C1574 C1576 1.478 . S
C1575 H1569 0.930 . S
C1575 C1571 1.400 . S
C1575 C1574 1.385 . S
C1576 C1574 1.478 . S
C1576 C1578 1.381 . S
C1576 C1582 1.383 . S
C1577 C1573 1.495 . S
C1577 H1583 0.959 . S
C1577 H1584 0.961 . S
C1577 H1585 0.960 . S
C1578 C1576 1.381 . S
C1578 C1579 1.394 . S
C1578 H1586 0.930 . S
C1579 C1578 1.394 . S
C1579 C1580 1.383 . S
C1579 H1587 0.929 . S
C1580 C1579 1.383 . S
C1580 C1581 1.377 . S
C1581 H1565 0.930 . S
C1581 C1580 1.377 . S
C1581 C1582 1.379 . S
C1582 H1566 0.931 . S
C1582 C1576 1.383 . S
C1582 C1581 1.379 . S
H1583 C1577 0.959 . S
H1584 C1577 0.961 . S
H1585 C1577 0.960 . S
H1586 C1578 0.930 . S
H1587 C1579 0.929 . S
H1588 C1596 0.929 . S
H1589 C1598 0.930 . S
H1590 C1600 0.930 . S
H1591 C1603 0.929 1_455 S
H1592 C1606 0.930 . S
H1593 C1608 0.960 . S
H1594 C1608 0.960 . S
H1595 C1608 0.960 . S
C1596 H1588 0.929 . S
C1596 C1597 1.377 . S
C1596 C1598 1.384 . S
C1597 C1596 1.377 . S
C1597 C1603 1.390 . S
C1598 H1589 0.930 . S
C1598 C1596 1.384 . S
C1598 C1599 1.372 . S
C1599 C1598 1.372 . S
C1599 C1600 1.400 . S
C1599 C1604 1.490 . S
C1600 H1590 0.930 . S
C1600 C1599 1.400 . S
C1600 C1603 1.386 . S
H1601 C1617 0.930 . S
H1602 C1618 0.931 . S
C1603 H1591 0.929 1_655 S
C1603 C1597 1.390 . S
C1603 C1600 1.386 . S
C1604 C1599 1.490 . S
C1604 C1606 1.395 . S
C1604 C1607 1.403 . S
H1605 C1611 0.930 . S
C1606 H1592 0.930 . S
C1606 C1604 1.395 . S
C1606 C1609 1.403 . S
C1607 C1604 1.403 . S
C1607 C1608 1.524 . S
C1607 C1611 1.400 . S
C1608 H1593 0.960 . S
C1608 H1594 0.960 . S
C1608 H1595 0.960 . S
C1608 C1607 1.524 . S
C1609 C1606 1.403 . S
C1609 C1610 1.392 . S
C1609 C1613 1.495 . S
C1610 C1609 1.392 . S
C1610 C1611 1.385 . S
C1610 C1612 1.478 . S
C1611 H1605 0.930 . S
C1611 C1607 1.400 . S
C1611 C1610 1.385 . S
C1612 C1610 1.478 . S
C1612 C1614 1.381 . S
C1612 C1618 1.383 . S
C1613 C1609 1.495 . S
C1613 H1619 0.959 . S
C1613 H1620 0.961 . S
C1613 H1621 0.960 . S
C1614 C1612 1.381 . S
C1614 C1615 1.394 . S
C1614 H1622 0.930 . S
C1615 C1614 1.394 . S
C1615 C1616 1.383 . S
C1615 H1623 0.929 . S
C1616 C1615 1.383 . S
C1616 C1617 1.377 . S
C1617 H1601 0.930 . S
C1617 C1616 1.377 . S
C1617 C1618 1.379 . S
C1618 H1602 0.931 . S
C1618 C1612 1.383 . S
C1618 C1617 1.379 . S
H1619 C1613 0.959 . S
H1620 C1613 0.961 . S
H1621 C1613 0.960 . S
H1622 C1614 0.930 . S
H1623 C1615 0.929 . S
H1624 C1632 0.929 . S
H1625 C1634 0.930 . S
H1626 C1636 0.930 . S
H1627 C1639 0.929 . S
H1628 C1642 0.930 . S
H1629 C1644 0.960 . S
H1630 C1644 0.960 . S
H1631 C1644 0.960 . S
C1632 H1624 0.929 . S
C1632 C1633 1.377 . S
C1632 C1634 1.384 . S
C1633 C1632 1.377 . S
C1633 C1639 1.390 . S
C1634 H1625 0.930 . S
C1634 C1632 1.384 . S
C1634 C1635 1.372 . S
C1635 C1634 1.372 . S
C1635 C1636 1.400 . S
C1635 C1640 1.490 . S
C1636 H1626 0.930 . S
C1636 C1635 1.400 . S
C1636 C1639 1.386 . S
H1637 C1653 0.930 . S
H1638 C1654 0.931 . S
C1639 H1627 0.929 . S
C1639 C1633 1.390 . S
C1639 C1636 1.386 . S
C1640 C1635 1.490 . S
C1640 C1642 1.395 . S
C1640 C1643 1.403 . S
H1641 C1647 0.930 . S
C1642 H1628 0.930 . S
C1642 C1640 1.395 . S
C1642 C1645 1.403 . S
C1643 C1640 1.403 . S
C1643 C1644 1.524 . S
C1643 C1647 1.400 . S
C1644 H1629 0.960 . S
C1644 H1630 0.960 . S
C1644 H1631 0.960 . S
C1644 C1643 1.524 . S
C1645 C1642 1.403 . S
C1645 C1646 1.392 . S
C1645 C1649 1.495 . S
C1646 C1645 1.392 . S
C1646 C1647 1.385 . S
C1646 C1648 1.478 . S
C1647 H1641 0.930 . S
C1647 C1643 1.400 . S
C1647 C1646 1.385 . S
C1648 C1646 1.478 . S
C1648 C1650 1.381 . S
C1648 C1654 1.383 . S
C1649 C1645 1.495 . S
C1649 H1655 0.959 . S
C1649 H1656 0.961 . S
C1649 H1657 0.960 . S
C1650 C1648 1.381 . S
C1650 C1651 1.394 . S
C1650 H1658 0.930 . S
C1651 C1650 1.394 . S
C1651 C1652 1.383 . S
C1651 H1659 0.929 . S
C1652 C1651 1.383 . S
C1652 C1653 1.377 . S
C1653 H1637 0.930 . S
C1653 C1652 1.377 . S
C1653 C1654 1.379 . S
C1654 H1638 0.931 . S
C1654 C1648 1.383 . S
C1654 C1653 1.379 . S
H1655 C1649 0.959 . S
H1656 C1649 0.961 . S
H1657 C1649 0.960 . S
H1658 C1650 0.930 . S
H1659 C1651 0.929 . S
H1660 C1668 0.929 . S
H1661 C1670 0.930 . S
H1662 C1672 0.930 . S
H1663 C1675 0.929 . S
H1664 C1678 0.930 . S
H1665 C1680 0.944 1_554 S
H1666 C1680 0.968 . S
H1667 C1680 0.965 . S
C1668 H1660 0.929 . S
C1668 C1669 1.377 . S
C1668 C1670 1.384 . S
C1669 C1668 1.377 . S
C1669 C1675 1.390 . S
C1670 H1661 0.930 . S
C1670 C1668 1.384 . S
C1670 C1671 1.372 . S
C1671 C1670 1.372 . S
C1671 C1672 1.400 . S
C1671 C1676 1.490 . S
C1672 H1662 0.930 . S
C1672 C1671 1.400 . S
C1672 C1675 1.386 . S
H1673 C1689 0.930 . S
H1674 C1690 0.931 . S
C1675 H1663 0.929 . S
C1675 C1669 1.390 . S
C1675 C1672 1.386 . S
C1676 C1671 1.490 . S
C1676 C1678 1.395 . S
C1676 C1679 1.403 . S
H1677 C1683 0.930 . S
C1678 H1664 0.930 . S
C1678 C1676 1.395 . S
C1678 C1681 1.403 . S
C1679 C1676 1.403 . S
C1679 C1680 1.527 . S
C1679 C1683 1.400 1_556 S
C1680 H1665 0.944 1_556 S
C1680 H1666 0.968 . S
C1680 H1667 0.965 . S
C1680 C1679 1.527 . S
C1681 C1678 1.403 . S
C1681 C1682 1.392 1_556 S
C1681 C1685 1.495 . S
C1682 C1681 1.392 1_554 S
C1682 C1683 1.385 . S
C1682 C1684 1.478 . S
C1683 H1677 0.930 . S
C1683 C1679 1.400 1_554 S
C1683 C1682 1.385 . S
C1684 C1682 1.478 . S
C1684 C1686 1.381 . S
C1684 C1690 1.383 . S
C1685 C1681 1.495 . S
C1685 H1691 0.959 . S
C1685 H1692 0.961 . S
C1685 H1693 0.960 . S
C1686 C1684 1.381 . S
C1686 C1687 1.394 . S
C1686 H1694 0.930 . S
C1687 C1686 1.394 . S
C1687 C1688 1.383 . S
C1687 H1695 0.929 . S
C1688 C1687 1.383 . S
C1688 C1689 1.377 . S
C1689 H1673 0.930 . S
C1689 C1688 1.377 . S
C1689 C1690 1.379 . S
C1690 H1674 0.931 . S
C1690 C1684 1.383 . S
C1690 C1689 1.379 . S
H1691 C1685 0.959 . S
H1692 C1685 0.961 . S
H1693 C1685 0.960 . S
H1694 C1686 0.930 . S
H1695 C1687 0.929 . S
H1696 C1704 0.929 . S
H1697 C1706 0.930 . S
H1698 C1708 0.930 . S
H1699 C1711 0.929 . S
H1700 C1714 0.930 . S
H1701 C1716 0.960 . S
H1702 C1716 0.960 . S
H1703 C1716 0.960 . S
C1704 H1696 0.929 . S
C1704 C1705 1.377 . S
C1704 C1706 1.384 . S
C1705 C1704 1.377 . S
C1705 C1711 1.390 . S
C1706 H1697 0.930 . S
C1706 C1704 1.384 . S
C1706 C1707 1.372 . S
C1707 C1706 1.372 . S
C1707 C1708 1.400 . S
C1707 C1712 1.490 . S
C1708 H1698 0.930 . S
C1708 C1707 1.400 . S
C1708 C1711 1.386 . S
H1709 C1725 0.930 . S
H1710 C1726 0.931 . S
C1711 H1699 0.929 . S
C1711 C1705 1.390 . S
C1711 C1708 1.386 . S
C1712 C1707 1.490 . S
C1712 C1714 1.395 . S
C1712 C1715 1.403 . S
H1713 C1719 0.930 . S
C1714 H1700 0.930 . S
C1714 C1712 1.395 . S
C1714 C1717 1.403 . S
C1715 C1712 1.403 . S
C1715 C1716 1.524 . S
C1715 C1719 1.400 . S
C1716 H1701 0.960 . S
C1716 H1702 0.960 . S
C1716 H1703 0.960 . S
C1716 C1715 1.524 . S
C1717 C1714 1.403 . S
C1717 C1718 1.392 . S
C1717 C1721 1.495 . S
C1718 C1717 1.392 . S
C1718 C1719 1.385 . S
C1718 C1720 1.478 . S
C1719 H1713 0.930 . S
C1719 C1715 1.400 . S
C1719 C1718 1.385 . S
C1720 C1718 1.478 . S
C1720 C1722 1.381 . S
C1720 C1726 1.383 . S
C1721 C1717 1.495 . S
C1721 H1727 0.959 . S
C1721 H1728 0.961 . S
C1721 H1729 0.960 . S
C1722 C1720 1.381 . S
C1722 C1723 1.394 . S
C1722 H1730 0.930 . S
C1723 C1722 1.394 . S
C1723 C1724 1.383 . S
C1723 H1731 0.929 . S
C1724 C1723 1.383 . S
C1724 C1725 1.377 . S
C1725 H1709 0.930 . S
C1725 C1724 1.377 . S
C1725 C1726 1.379 . S
C1726 H1710 0.931 . S
C1726 C1720 1.383 . S
C1726 C1725 1.379 . S
H1727 C1721 0.959 . S
H1728 C1721 0.961 . S
H1729 C1721 0.960 . S
H1730 C1722 0.930 . S
H1731 C1723 0.929 . S
H1732 C1740 0.929 . S
H1733 C1742 0.930 . S
H1734 C1744 0.930 . S
H1735 C1747 0.929 . S
H1736 C1750 0.930 . S
H1737 C1752 0.960 . S
H1738 C1752 0.960 . S
H1739 C1752 0.960 . S
C1740 H1732 0.929 . S
C1740 C1741 1.377 . S
C1740 C1742 1.384 . S
C1741 C1740 1.377 . S
C1741 C1747 1.390 . S
C1742 H1733 0.930 . S
C1742 C1740 1.384 . S
C1742 C1743 1.372 . S
C1743 C1742 1.372 . S
C1743 C1744 1.400 . S
C1743 C1748 1.490 . S
C1744 H1734 0.930 . S
C1744 C1743 1.400 . S
C1744 C1747 1.386 . S
H1745 C1761 0.930 . S
H1746 C1762 0.931 . S
C1747 H1735 0.929 . S
C1747 C1741 1.390 . S
C1747 C1744 1.386 . S
C1748 C1743 1.490 . S
C1748 C1750 1.395 . S
C1748 C1751 1.403 . S
H1749 C1755 0.930 . S
C1750 H1736 0.930 . S
C1750 C1748 1.395 . S
C1750 C1753 1.403 . S
C1751 C1748 1.403 . S
C1751 C1752 1.524 . S
C1751 C1755 1.400 . S
C1752 H1737 0.960 . S
C1752 H1738 0.960 . S
C1752 H1739 0.960 . S
C1752 C1751 1.524 . S
C1753 C1750 1.403 . S
C1753 C1754 1.392 . S
C1753 C1757 1.495 . S
C1754 C1753 1.392 . S
C1754 C1755 1.385 . S
C1754 C1756 1.478 . S
C1755 H1749 0.930 . S
C1755 C1751 1.400 . S
C1755 C1754 1.385 . S
C1756 C1754 1.478 . S
C1756 C1758 1.381 . S
C1756 C1762 1.383 . S
C1757 C1753 1.495 . S
C1757 H1763 0.959 . S
C1757 H1764 0.961 . S
C1757 H1765 0.960 . S
C1758 C1756 1.381 . S
C1758 C1759 1.394 . S
C1758 H1766 0.930 . S
C1759 C1758 1.394 . S
C1759 C1760 1.383 . S
C1759 H1767 0.929 . S
C1760 C1759 1.383 . S
C1760 C1761 1.377 . S
C1761 H1745 0.930 . S
C1761 C1760 1.377 . S
C1761 C1762 1.379 . S
C1762 H1746 0.931 . S
C1762 C1756 1.383 . S
C1762 C1761 1.379 . S
H1763 C1757 0.959 . S
H1764 C1757 0.961 . S
H1765 C1757 0.960 . S
H1766 C1758 0.930 . S
H1767 C1759 0.929 . S
H1768 C1776 0.929 . S
H1769 C1778 0.930 . S
H1770 C1780 0.930 . S
H1771 C1783 0.929 . S
H1772 C1786 0.930 . S
H1773 C1788 0.960 . S
H1774 C1788 0.960 . S
H1775 C1788 0.960 . S
C1776 H1768 0.929 . S
C1776 C1777 1.377 . S
C1776 C1778 1.384 . S
C1777 C1776 1.377 . S
C1777 C1783 1.390 . S
C1778 H1769 0.930 . S
C1778 C1776 1.384 . S
C1778 C1779 1.372 . S
C1779 C1778 1.372 . S
C1779 C1780 1.400 . S
C1779 C1784 1.490 . S
C1780 H1770 0.930 . S
C1780 C1779 1.400 . S
C1780 C1783 1.386 . S
H1781 C1797 0.930 . S
H1782 C1798 0.931 . S
C1783 H1771 0.929 . S
C1783 C1777 1.390 . S
C1783 C1780 1.386 . S
C1784 C1779 1.490 . S
C1784 C1786 1.395 . S
C1784 C1787 1.403 . S
H1785 C1791 0.930 . S
C1786 H1772 0.930 . S
C1786 C1784 1.395 . S
C1786 C1789 1.403 . S
C1787 C1784 1.403 . S
C1787 C1788 1.524 . S
C1787 C1791 1.400 . S
C1788 H1773 0.960 . S
C1788 H1774 0.960 . S
C1788 H1775 0.960 . S
C1788 C1787 1.524 . S
C1789 C1786 1.403 . S
C1789 C1790 1.392 . S
C1789 C1793 1.495 . S
C1790 C1789 1.392 . S
C1790 C1791 1.385 . S
C1790 C1792 1.478 . S
C1791 H1785 0.930 . S
C1791 C1787 1.400 . S
C1791 C1790 1.385 . S
C1792 C1790 1.478 . S
C1792 C1794 1.381 . S
C1792 C1798 1.383 . S
C1793 C1789 1.495 . S
C1793 H1799 0.959 . S
C1793 H1800 0.961 . S
C1793 H1801 0.960 . S
C1794 C1792 1.381 . S
C1794 C1795 1.394 . S
C1794 H1802 0.930 . S
C1795 C1794 1.394 . S
C1795 C1796 1.383 . S
C1795 H1803 0.929 . S
C1796 C1795 1.383 . S
C1796 C1797 1.377 . S
C1797 H1781 0.930 . S
C1797 C1796 1.377 . S
C1797 C1798 1.379 . S
C1798 H1782 0.931 . S
C1798 C1792 1.383 . S
C1798 C1797 1.379 . S
H1799 C1793 0.959 . S
H1800 C1793 0.961 . S
H1801 C1793 0.960 . S
H1802 C1794 0.930 . S
H1803 C1795 0.929 . S
H1804 C1812 0.929 . S
H1805 C1814 0.930 . S
H1806 C1816 0.930 . S
H1807 C1819 0.929 . S
H1808 C1822 0.930 . S
H1809 C1824 0.960 . S
H1810 C1824 0.960 . S
H1811 C1824 0.960 . S
C1812 H1804 0.929 . S
C1812 C1813 1.377 . S
C1812 C1814 1.384 . S
C1813 C1812 1.377 . S
C1813 C1819 1.390 . S
C1814 H1805 0.930 . S
C1814 C1812 1.384 . S
C1814 C1815 1.372 . S
C1815 C1814 1.372 . S
C1815 C1816 1.400 . S
C1815 C1820 1.490 . S
C1816 H1806 0.930 . S
C1816 C1815 1.400 . S
C1816 C1819 1.386 . S
H1817 C1833 0.930 . S
H1818 C1834 0.931 . S
C1819 H1807 0.929 . S
C1819 C1813 1.390 . S
C1819 C1816 1.386 . S
C1820 C1815 1.490 . S
C1820 C1822 1.395 . S
C1820 C1823 1.403 . S
H1821 C1827 0.930 1_556 S
C1822 H1808 0.930 . S
C1822 C1820 1.395 . S
C1822 C1825 1.403 . S
C1823 C1820 1.403 . S
C1823 C1824 1.524 . S
C1823 C1827 1.400 . S
C1824 H1809 0.960 . S
C1824 H1810 0.960 . S
C1824 H1811 0.960 . S
C1824 C1823 1.524 . S
C1825 C1822 1.403 . S
C1825 C1826 1.392 1_554 S
C1825 C1829 1.495 . S
C1826 C1825 1.392 1_556 S
C1826 C1827 1.385 1_556 S
C1826 C1828 1.478 . S
C1827 H1821 0.930 1_554 S
C1827 C1823 1.400 . S
C1827 C1826 1.385 1_554 S
C1828 C1826 1.478 . S
C1828 C1830 1.381 . S
C1828 C1834 1.383 . S
C1829 C1825 1.495 . S
C1829 H1835 0.959 . S
C1829 H1836 0.961 . S
C1829 H1837 0.960 1_554 S
C1830 C1828 1.381 . S
C1830 C1831 1.394 . S
C1830 H1838 0.930 . S
C1831 C1830 1.394 . S
C1831 C1832 1.383 . S
C1831 H1839 0.929 . S
C1832 C1831 1.383 . S
C1832 C1833 1.377 . S
C1833 H1817 0.930 . S
C1833 C1832 1.377 . S
C1833 C1834 1.379 . S
C1834 H1818 0.931 . S
C1834 C1828 1.383 . S
C1834 C1833 1.379 . S
H1835 C1829 0.959 . S
H1836 C1829 0.961 . S
H1837 C1829 0.960 1_556 S
H1838 C1830 0.930 . S
H1839 C1831 0.929 . S
H1840 C1848 0.929 . S
H1841 C1850 0.930 . S
H1842 C1852 0.930 . S
H1843 C1855 0.929 . S
H1844 C1858 0.930 . S
H1845 C1860 0.960 . S
H1846 C1860 0.960 . S
H1847 C1860 0.960 . S
C1848 H1840 0.929 . S
C1848 C1849 1.377 . S
C1848 C1850 1.384 . S
C1849 C1848 1.377 . S
C1849 C1855 1.390 . S
C1850 H1841 0.930 . S
C1850 C1848 1.384 . S
C1850 C1851 1.372 . S
C1851 C1850 1.372 . S
C1851 C1852 1.400 . S
C1851 C1856 1.490 . S
C1852 H1842 0.930 . S
C1852 C1851 1.400 . S
C1852 C1855 1.386 . S
H1853 C1869 0.930 . S
H1854 C1870 0.931 . S
C1855 H1843 0.929 . S
C1855 C1849 1.390 . S
C1855 C1852 1.386 . S
C1856 C1851 1.490 . S
C1856 C1858 1.395 . S
C1856 C1859 1.403 . S
H1857 C1863 0.930 . S
C1858 H1844 0.930 . S
C1858 C1856 1.395 . S
C1858 C1861 1.403 . S
C1859 C1856 1.403 . S
C1859 C1860 1.524 . S
C1859 C1863 1.400 . S
C1860 H1845 0.960 . S
C1860 H1846 0.960 . S
C1860 H1847 0.960 . S
C1860 C1859 1.524 . S
C1861 C1858 1.403 . S
C1861 C1862 1.392 . S
C1861 C1865 1.495 . S
C1862 C1861 1.392 . S
C1862 C1863 1.385 . S
C1862 C1864 1.478 . S
C1863 H1857 0.930 . S
C1863 C1859 1.400 . S
C1863 C1862 1.385 . S
C1864 C1862 1.478 . S
C1864 C1866 1.381 . S
C1864 C1870 1.383 . S
C1865 C1861 1.495 . S
C1865 H1871 0.959 . S
C1865 H1872 0.961 . S
C1865 H1873 0.960 . S
C1866 C1864 1.381 . S
C1866 C1867 1.394 . S
C1866 H1874 0.930 . S
C1867 C1866 1.394 . S
C1867 C1868 1.383 . S
C1867 H1875 0.929 . S
C1868 C1867 1.383 . S
C1868 C1869 1.377 . S
C1869 H1853 0.930 . S
C1869 C1868 1.377 . S
C1869 C1870 1.379 . S
C1870 H1854 0.931 . S
C1870 C1864 1.383 . S
C1870 C1869 1.379 . S
H1871 C1865 0.959 . S
H1872 C1865 0.961 . S
H1873 C1865 0.960 . S
H1874 C1866 0.930 . S
H1875 C1867 0.929 . S
H1876 C1884 0.929 . S
H1877 C1886 0.930 . S
H1878 C1888 0.930 . S
H1879 C1891 0.929 . S
H1880 C1894 0.930 . S
H1881 C1896 0.960 . S
H1882 C1896 0.960 . S
H1883 C1896 0.960 . S
C1884 H1876 0.929 . S
C1884 C1885 1.377 . S
C1884 C1886 1.384 . S
C1885 C1884 1.377 . S
C1885 C1891 1.390 . S
C1886 H1877 0.930 . S
C1886 C1884 1.384 . S
C1886 C1887 1.372 . S
C1887 C1886 1.372 . S
C1887 C1888 1.400 . S
C1887 C1892 1.490 . S
C1888 H1878 0.930 . S
C1888 C1887 1.400 . S
C1888 C1891 1.386 . S
H1889 C1905 0.930 . S
H1890 C1906 0.931 . S
C1891 H1879 0.929 . S
C1891 C1885 1.390 . S
C1891 C1888 1.386 . S
C1892 C1887 1.490 . S
C1892 C1894 1.395 . S
C1892 C1895 1.403 . S
H1893 C1899 0.930 . S
C1894 H1880 0.930 . S
C1894 C1892 1.395 . S
C1894 C1897 1.403 1_565 S
C1895 C1892 1.403 . S
C1895 C1896 1.524 . S
C1895 C1899 1.400 . S
C1896 H1881 0.960 . S
C1896 H1882 0.960 . S
C1896 H1883 0.960 . S
C1896 C1895 1.524 . S
C1897 C1894 1.403 1_545 S
C1897 C1898 1.392 . S
C1897 C1901 1.495 . S
C1898 C1897 1.392 . S
C1898 C1899 1.385 1_545 S
C1898 C1900 1.478 . S
C1899 H1893 0.930 . S
C1899 C1895 1.400 . S
C1899 C1898 1.385 1_565 S
C1900 C1898 1.478 . S
C1900 C1902 1.381 . S
C1900 C1906 1.383 . S
C1901 C1897 1.495 . S
C1901 H1907 0.959 . S
C1901 H1908 0.961 . S
C1901 H1909 0.960 . S
C1902 C1900 1.381 . S
C1902 C1903 1.394 . S
C1902 H1910 0.930 . S
C1903 C1902 1.394 . S
C1903 C1904 1.383 . S
C1903 H1911 0.929 . S
C1904 C1903 1.383 . S
C1904 C1905 1.377 . S
C1905 H1889 0.930 . S
C1905 C1904 1.377 . S
C1905 C1906 1.379 . S
C1906 H1890 0.931 . S
C1906 C1900 1.383 . S
C1906 C1905 1.379 . S
H1907 C1901 0.959 . S
H1908 C1901 0.961 . S
H1909 C1901 0.960 . S
H1910 C1902 0.930 . S
H1911 C1903 0.929 . S
H1912 C1920 0.929 . S
H1913 C1922 0.930 . S
H1914 C1924 0.930 . S
H1915 C1927 0.929 . S
H1916 C1930 0.930 . S
H1917 C1932 0.960 . S
H1918 C1932 0.960 . S
H1919 C1932 0.960 . S
C1920 H1912 0.929 . S
C1920 C1921 1.377 . S
C1920 C1922 1.384 . S
C1921 C1920 1.377 . S
C1921 C1927 1.390 . S
C1922 H1913 0.930 . S
C1922 C1920 1.384 . S
C1922 C1923 1.372 . S
C1923 C1922 1.372 . S
C1923 C1924 1.400 . S
C1923 C1928 1.490 . S
C1924 H1914 0.930 . S
C1924 C1923 1.400 . S
C1924 C1927 1.386 . S
H1925 C1941 0.930 . S
H1926 C1942 0.931 . S
C1927 H1915 0.929 . S
C1927 C1921 1.390 . S
C1927 C1924 1.386 . S
C1928 C1923 1.490 . S
C1928 C1930 1.395 . S
C1928 C1931 1.403 . S
H1929 C1935 0.930 . S
C1930 H1916 0.930 . S
C1930 C1928 1.395 . S
C1930 C1933 1.403 . S
C1931 C1928 1.403 . S
C1931 C1932 1.524 . S
C1931 C1935 1.400 . S
C1932 H1917 0.960 . S
C1932 H1918 0.960 . S
C1932 H1919 0.960 . S
C1932 C1931 1.524 . S
C1933 C1930 1.403 . S
C1933 C1934 1.392 . S
C1933 C1937 1.495 . S
C1934 C1933 1.392 . S
C1934 C1935 1.385 . S
C1934 C1936 1.478 . S
C1935 H1929 0.930 . S
C1935 C1931 1.400 . S
C1935 C1934 1.385 . S
C1936 C1934 1.478 . S
C1936 C1938 1.381 . S
C1936 C1942 1.383 . S
C1937 C1933 1.495 . S
C1937 H1943 0.959 . S
C1937 H1944 0.961 . S
C1937 H1945 0.960 . S
C1938 C1936 1.381 . S
C1938 C1939 1.394 . S
C1938 H1946 0.930 . S
C1939 C1938 1.394 . S
C1939 C1940 1.383 . S
C1939 H1947 0.929 . S
C1940 C1939 1.383 . S
C1940 C1941 1.377 . S
C1941 H1925 0.930 . S
C1941 C1940 1.377 . S
C1941 C1942 1.379 . S
C1942 H1926 0.931 . S
C1942 C1936 1.383 . S
C1942 C1941 1.379 . S
H1943 C1937 0.959 . S
H1944 C1937 0.961 . S
H1945 C1937 0.960 . S
H1946 C1938 0.930 . S
H1947 C1939 0.929 . S
H1948 C1956 0.929 . S
H1949 C1958 0.930 . S
H1950 C1960 0.930 . S
H1951 C1963 0.929 . S
H1952 C1966 0.930 . S
H1953 C1968 0.960 . S
H1954 C1968 0.960 . S
H1955 C1968 0.960 . S
C1956 H1948 0.929 . S
C1956 C1957 1.377 . S
C1956 C1958 1.384 . S
C1957 C1956 1.377 . S
C1957 C1963 1.390 . S
C1958 H1949 0.930 . S
C1958 C1956 1.384 . S
C1958 C1959 1.372 . S
C1959 C1958 1.372 . S
C1959 C1960 1.400 . S
C1959 C1964 1.490 . S
C1960 H1950 0.930 . S
C1960 C1959 1.400 . S
C1960 C1963 1.386 . S
H1961 C1977 0.930 . S
H1962 C1978 0.931 . S
C1963 H1951 0.929 . S
C1963 C1957 1.390 . S
C1963 C1960 1.386 . S
C1964 C1959 1.490 . S
C1964 C1966 1.395 . S
C1964 C1967 1.403 . S
H1965 C1971 0.930 1_565 S
C1966 H1952 0.930 . S
C1966 C1964 1.395 . S
C1966 C1969 1.403 . S
C1967 C1964 1.403 . S
C1967 C1968 1.524 . S
C1967 C1971 1.400 . S
C1968 H1953 0.960 . S
C1968 H1954 0.960 . S
C1968 H1955 0.960 . S
C1968 C1967 1.524 . S
C1969 C1966 1.403 . S
C1969 C1970 1.392 1_545 S
C1969 C1973 1.485 1_545 S
C1970 C1969 1.392 1_565 S
C1970 C1971 1.385 1_565 S
C1970 C1972 1.478 . S
C1971 H1965 0.930 1_545 S
C1971 C1967 1.400 . S
C1971 C1970 1.385 1_545 S
C1972 C1970 1.478 . S
C1972 C1974 1.381 . S
C1972 C1978 1.383 . S
C1973 C1969 1.485 1_565 S
C1973 H1979 0.940 1_565 S
C1973 H1980 0.959 1_565 S
C1973 H1981 0.992 . S
C1974 C1972 1.381 . S
C1974 C1975 1.394 . S
C1974 H1982 0.930 . S
C1975 C1974 1.394 . S
C1975 C1976 1.383 . S
C1975 H1983 0.929 . S
C1976 C1975 1.383 . S
C1976 C1977 1.377 . S
C1977 H1961 0.930 . S
C1977 C1976 1.377 . S
C1977 C1978 1.379 . S
C1978 H1962 0.931 . S
C1978 C1972 1.383 . S
C1978 C1977 1.379 . S
H1979 C1973 0.940 1_545 S
H1980 C1973 0.959 1_545 S
H1981 C1973 0.992 . S
H1982 C1974 0.930 . S
H1983 C1975 0.929 . S
H1984 C1992 0.929 . S
H1985 C1994 0.930 . S
H1986 C1996 0.930 . S
H1987 C1999 0.929 . S
H1988 C2002 0.930 . S
H1989 C2004 0.960 . S
H1990 C2004 0.960 . S
H1991 C2004 0.960 . S
C1992 H1984 0.929 . S
C1992 C1993 1.377 . S
C1992 C1994 1.384 . S
C1993 C1992 1.377 . S
C1993 C1999 1.390 . S
C1994 H1985 0.930 . S
C1994 C1992 1.384 . S
C1994 C1995 1.372 . S
C1995 C1994 1.372 . S
C1995 C1996 1.400 . S
C1995 C2000 1.490 . S
C1996 H1986 0.930 . S
C1996 C1995 1.400 . S
C1996 C1999 1.386 . S
H1997 C2013 0.930 . S
H1998 C2014 0.931 . S
C1999 H1987 0.929 . S
C1999 C1993 1.390 . S
C1999 C1996 1.386 . S
C2000 C1995 1.490 . S
C2000 C2002 1.395 . S
C2000 C2003 1.403 . S
H2001 C2007 0.930 . S
C2002 H1988 0.930 . S
C2002 C2000 1.395 . S
C2002 C2005 1.403 . S
C2003 C2000 1.403 . S
C2003 C2004 1.524 . S
C2003 C2007 1.400 . S
C2004 H1989 0.960 . S
C2004 H1990 0.960 . S
C2004 H1991 0.960 . S
C2004 C2003 1.524 . S
C2005 C2002 1.403 . S
C2005 C2006 1.392 . S
C2005 C2009 1.495 . S
C2006 C2005 1.392 . S
C2006 C2007 1.385 . S
C2006 C2008 1.478 . S
C2007 H2001 0.930 . S
C2007 C2003 1.400 . S
C2007 C2006 1.385 . S
C2008 C2006 1.478 . S
C2008 C2010 1.381 . S
C2008 C2014 1.383 . S
C2009 C2005 1.495 . S
C2009 H2015 0.959 . S
C2009 H2016 0.961 . S
C2009 H2017 0.960 . S
C2010 C2008 1.381 . S
C2010 C2011 1.394 . S
C2010 H2018 0.930 . S
C2011 C2010 1.394 . S
C2011 C2012 1.383 . S
C2011 H2019 0.929 . S
C2012 C2011 1.383 . S
C2012 C2013 1.377 . S
C2013 H1997 0.930 . S
C2013 C2012 1.377 . S
C2013 C2014 1.379 . S
C2014 H1998 0.931 . S
C2014 C2008 1.383 . S
C2014 C2013 1.379 . S
H2015 C2009 0.959 . S
H2016 C2009 0.961 . S
H2017 C2009 0.960 . S
H2018 C2010 0.930 . S
H2019 C2011 0.929 . S
H2020 C2028 0.929 . S
H2021 C2030 0.930 . S
H2022 C2032 0.930 . S
H2023 C2035 0.929 . S
H2024 C2038 0.930 . S
H2025 C2040 0.960 1_545 S
H2026 C2040 0.960 . S
H2027 C2040 0.960 . S
C2028 H2020 0.929 . S
C2028 C2029 1.377 . S
C2028 C2030 1.384 . S
C2029 C2028 1.377 . S
C2029 C2035 1.390 . S
C2030 H2021 0.930 . S
C2030 C2028 1.384 . S
C2030 C2031 1.372 . S
C2031 C2030 1.372 . S
C2031 C2032 1.400 . S
C2031 C2036 1.490 . S
C2032 H2022 0.930 . S
C2032 C2031 1.400 . S
C2032 C2035 1.386 . S
H2033 C2049 0.930 . S
H2034 C2050 0.931 . S
C2035 H2023 0.929 . S
C2035 C2029 1.390 . S
C2035 C2032 1.386 . S
C2036 C2031 1.490 . S
C2036 C2038 1.395 . S
C2036 C2039 1.403 . S
H2037 C2043 0.930 . S
C2038 H2024 0.930 . S
C2038 C2036 1.395 . S
C2038 C2041 1.403 . S
C2039 C2036 1.403 . S
C2039 C2040 1.524 . S
C2039 C2043 1.400 1_565 S
C2040 H2025 0.960 1_565 S
C2040 H2026 0.960 . S
C2040 H2027 0.960 . S
C2040 C2039 1.524 . S
C2041 C2038 1.403 . S
C2041 C2042 1.392 1_565 S
C2041 C2045 1.495 . S
C2042 C2041 1.392 1_545 S
C2042 C2043 1.385 . S
C2042 C2044 1.478 . S
C2043 H2037 0.930 . S
C2043 C2039 1.400 1_545 S
C2043 C2042 1.385 . S
C2044 C2042 1.478 . S
C2044 C2046 1.381 . S
C2044 C2050 1.383 . S
C2045 C2041 1.495 . S
C2045 H2051 0.959 . S
C2045 H2052 0.938 1_565 S
C2045 H2053 0.960 . S
C2046 C2044 1.381 . S
C2046 C2047 1.394 . S
C2046 H2054 0.930 . S
C2047 C2046 1.394 . S
C2047 C2048 1.383 . S
C2047 H2055 0.929 . S
C2048 C2047 1.383 . S
C2048 C2049 1.377 . S
C2049 H2033 0.930 . S
C2049 C2048 1.377 . S
C2049 C2050 1.379 . S
C2050 H2034 0.931 . S
C2050 C2044 1.383 . S
C2050 C2049 1.379 . S
H2051 C2045 0.959 . S
H2052 C2045 0.938 1_545 S
H2053 C2045 0.960 . S
H2054 C2046 0.930 . S
H2055 C2047 0.929 . S
H2056 C2064 0.929 . S
H2057 C2066 0.930 . S
H2058 C2068 0.930 . S
H2059 C2071 0.929 . S
H2060 C2074 0.930 . S
H2061 C2076 0.960 . S
H2062 C2076 0.960 . S
H2063 C2076 0.960 . S
C2064 H2056 0.929 . S
C2064 C2065 1.377 . S
C2064 C2066 1.384 . S
C2065 C2064 1.377 . S
C2065 C2071 1.390 . S
C2066 H2057 0.930 . S
C2066 C2064 1.384 . S
C2066 C2067 1.372 . S
C2067 C2066 1.372 . S
C2067 C2068 1.400 . S
C2067 C2072 1.490 . S
C2068 H2058 0.930 . S
C2068 C2067 1.400 . S
C2068 C2071 1.386 . S
H2069 C2085 0.930 . S
H2070 C2086 0.931 . S
C2071 H2059 0.929 . S
C2071 C2065 1.390 . S
C2071 C2068 1.386 . S
C2072 C2067 1.490 . S
C2072 C2074 1.395 . S
C2072 C2075 1.403 . S
H2073 C2079 0.930 . S
C2074 H2060 0.930 . S
C2074 C2072 1.395 . S
C2074 C2077 1.403 . S
C2075 C2072 1.403 . S
C2075 C2076 1.524 . S
C2075 C2079 1.400 . S
C2076 H2061 0.960 . S
C2076 H2062 0.960 . S
C2076 H2063 0.960 . S
C2076 C2075 1.524 . S
C2077 C2074 1.403 . S
C2077 C2078 1.392 . S
C2077 C2081 1.495 . S
C2078 C2077 1.392 . S
C2078 C2079 1.385 . S
C2078 C2080 1.478 . S
C2079 H2073 0.930 . S
C2079 C2075 1.400 . S
C2079 C2078 1.385 . S
C2080 C2078 1.478 . S
C2080 C2082 1.381 . S
C2080 C2086 1.383 . S
C2081 C2077 1.495 . S
C2081 H2087 0.959 . S
C2081 H2088 0.961 . S
C2081 H2089 0.960 . S
C2082 C2080 1.381 . S
C2082 C2083 1.394 . S
C2082 H2090 0.930 . S
C2083 C2082 1.394 . S
C2083 C2084 1.383 . S
C2083 H2091 0.929 . S
C2084 C2083 1.383 . S
C2084 C2085 1.377 . S
C2085 H2069 0.930 . S
C2085 C2084 1.377 . S
C2085 C2086 1.379 . S
C2086 H2070 0.931 . S
C2086 C2080 1.383 . S
C2086 C2085 1.379 . S
H2087 C2081 0.959 . S
H2088 C2081 0.961 . S
H2089 C2081 0.960 . S
H2090 C2082 0.930 . S
H2091 C2083 0.929 . S
H2092 C2100 0.929 . S
H2093 C2102 0.930 . S
H2094 C2104 0.930 . S
H2095 C2107 0.895 1_554 S
H2096 C2110 0.930 . S
H2097 C2112 0.960 1_565 S
H2098 C2112 0.960 . S
H2099 C2112 0.960 . S
C2100 H2092 0.929 . S
C2100 C2101 1.377 . S
C2100 C2102 1.384 . S
C2101 C2100 1.377 . S
C2101 C2107 1.390 . S
C2102 H2093 0.930 . S
C2102 C2100 1.384 . S
C2102 C2103 1.372 . S
C2103 C2102 1.372 . S
C2103 C2104 1.400 . S
C2103 C2108 1.490 . S
C2104 H2094 0.930 . S
C2104 C2103 1.400 . S
C2104 C2107 1.386 . S
H2105 C2121 0.930 . S
H2106 C2122 0.931 . S
C2107 H2095 0.895 1_556 S
C2107 C2101 1.390 . S
C2107 C2104 1.386 . S
C2108 C2103 1.490 . S
C2108 C2110 1.395 . S
C2108 C2111 1.403 . S
H2109 C2115 0.930 . S
C2110 H2096 0.930 . S
C2110 C2108 1.395 . S
C2110 C2113 1.403 . S
C2111 C2108 1.403 . S
C2111 C2112 1.524 . S
C2111 C2115 1.400 1_545 S
C2112 H2097 0.960 1_545 S
C2112 H2098 0.960 . S
C2112 H2099 0.960 . S
C2112 C2111 1.524 . S
C2113 C2110 1.403 . S
C2113 C2114 1.392 1_545 S
C2113 C2117 1.495 . S
C2114 C2113 1.392 1_565 S
C2114 C2115 1.385 . S
C2114 C2116 1.478 . S
C2115 H2109 0.930 . S
C2115 C2111 1.400 1_565 S
C2115 C2114 1.385 . S
C2116 C2114 1.478 . S
C2116 C2118 1.381 . S
C2116 C2122 1.383 . S
C2117 C2113 1.495 . S
C2117 H2123 0.959 . S
C2117 H2124 0.961 . S
C2117 H2125 0.960 . S
C2118 C2116 1.381 . S
C2118 C2119 1.394 . S
C2118 H2126 0.930 . S
C2119 C2118 1.394 . S
C2119 C2120 1.383 . S
C2119 H2127 0.929 . S
C2120 C2119 1.383 . S
C2120 C2121 1.377 . S
C2121 H2105 0.930 . S
C2121 C2120 1.377 . S
C2121 C2122 1.379 . S
C2122 H2106 0.931 . S
C2122 C2116 1.383 . S
C2122 C2121 1.379 . S
H2123 C2117 0.959 . S
H2124 C2117 0.961 . S
H2125 C2117 0.960 . S
H2126 C2118 0.930 . S
H2127 C2119 0.929 . S
H2128 C2136 0.929 . S
H2129 C2138 0.930 . S
H2130 C2140 0.930 . S
H2131 C2143 0.929 . S
H2132 C2146 0.930 . S
H2133 C2148 0.960 . S
H2134 C2148 0.960 . S
H2135 C2148 0.960 . S
C2136 H2128 0.929 . S
C2136 C2137 1.377 . S
C2136 C2138 1.384 . S
C2137 C2136 1.377 . S
C2137 C2143 1.390 . S
C2138 H2129 0.930 . S
C2138 C2136 1.384 . S
C2138 C2139 1.372 . S
C2139 C2138 1.372 . S
C2139 C2140 1.400 . S
C2139 C2144 1.490 . S
C2140 H2130 0.930 . S
C2140 C2139 1.400 . S
C2140 C2143 1.386 . S
H2141 C2157 0.930 . S
H2142 C2158 0.931 . S
C2143 H2131 0.929 . S
C2143 C2137 1.390 . S
C2143 C2140 1.386 . S
C2144 C2139 1.490 . S
C2144 C2146 1.395 . S
C2144 C2147 1.403 . S
H2145 C2151 0.930 . S
C2146 H2132 0.930 . S
C2146 C2144 1.395 . S
C2146 C2149 1.403 . S
C2147 C2144 1.403 . S
C2147 C2148 1.524 . S
C2147 C2151 1.400 . S
C2148 H2133 0.960 . S
C2148 H2134 0.960 . S
C2148 H2135 0.960 . S
C2148 C2147 1.524 . S
C2149 C2146 1.403 . S
C2149 C2150 1.392 . S
C2149 C2153 1.495 . S
C2150 C2149 1.392 . S
C2150 C2151 1.385 . S
C2150 C2152 1.478 . S
C2151 H2145 0.930 . S
C2151 C2147 1.400 . S
C2151 C2150 1.385 . S
C2152 C2150 1.478 . S
C2152 C2154 1.381 . S
C2152 C2158 1.383 . S
C2153 C2149 1.495 . S
C2153 H2159 0.959 . S
C2153 H2160 0.961 . S
C2153 H2161 0.960 . S
C2154 C2152 1.381 . S
C2154 C2155 1.394 . S
C2154 H2162 0.930 . S
C2155 C2154 1.394 . S
C2155 C2156 1.383 . S
C2155 H2163 0.929 . S
C2156 C2155 1.383 . S
C2156 C2157 1.377 . S
C2157 H2141 0.930 . S
C2157 C2156 1.377 . S
C2157 C2158 1.379 . S
C2158 H2142 0.931 . S
C2158 C2152 1.383 . S
C2158 C2157 1.379 . S
H2159 C2153 0.959 . S
H2160 C2153 0.961 . S
H2161 C2153 0.960 . S
H2162 C2154 0.930 . S
H2163 C2155 0.929 . S
H2164 C2172 0.929 . S
H2165 C2174 0.930 . S
H2166 C2176 0.930 . S
H2167 C2179 0.929 . S
H2168 C2182 0.930 . S
H2169 C2184 0.960 . S
H2170 C2184 0.960 . S
H2171 C2184 0.960 . S
C2172 H2164 0.929 . S
C2172 C2173 1.377 . S
C2172 C2174 1.384 . S
C2173 C2172 1.377 . S
C2173 C2179 1.390 . S
C2174 H2165 0.930 . S
C2174 C2172 1.384 . S
C2174 C2175 1.372 . S
C2175 C2174 1.372 . S
C2175 C2176 1.400 . S
C2175 C2180 1.490 . S
C2176 H2166 0.930 . S
C2176 C2175 1.400 . S
C2176 C2179 1.386 . S
H2177 C2193 0.930 . S
H2178 C2194 0.931 . S
C2179 H2167 0.929 . S
C2179 C2173 1.390 . S
C2179 C2176 1.386 . S
C2180 C2175 1.490 . S
C2180 C2182 1.395 . S
C2180 C2183 1.403 . S
H2181 C2187 0.930 . S
C2182 H2168 0.930 . S
C2182 C2180 1.395 . S
C2182 C2185 1.403 . S
C2183 C2180 1.403 . S
C2183 C2184 1.524 . S
C2183 C2187 1.400 . S
C2184 H2169 0.960 . S
C2184 H2170 0.960 . S
C2184 H2171 0.960 . S
C2184 C2183 1.524 . S
C2185 C2182 1.403 . S
C2185 C2186 1.392 . S
C2185 C2189 1.495 . S
C2186 C2185 1.392 . S
C2186 C2187 1.385 . S
C2186 C2188 1.478 . S
C2187 H2181 0.930 . S
C2187 C2183 1.400 . S
C2187 C2186 1.385 . S
C2188 C2186 1.478 . S
C2188 C2190 1.381 . S
C2188 C2194 1.383 . S
C2189 C2185 1.495 . S
C2189 H2195 0.959 . S
C2189 H2196 0.961 . S
C2189 H2197 0.960 . S
C2190 C2188 1.381 . S
C2190 C2191 1.394 . S
C2190 H2198 0.930 . S
C2191 C2190 1.394 . S
C2191 C2192 1.383 . S
C2191 H2199 0.929 . S
C2192 C2191 1.383 . S
C2192 C2193 1.377 . S
C2193 H2177 0.930 . S
C2193 C2192 1.377 . S
C2193 C2194 1.379 . S
C2194 H2178 0.931 . S
C2194 C2188 1.383 . S
C2194 C2193 1.379 . S
H2195 C2189 0.959 . S
H2196 C2189 0.961 . S
H2197 C2189 0.960 . S
H2198 C2190 0.930 . S
H2199 C2191 0.929 . S
H2200 C2208 0.929 . S
H2201 C2210 0.930 . S
H2202 C2212 0.930 . S
H2203 C2215 0.929 . S
H2204 C2218 0.930 . S
H2205 C2220 0.960 . S
H2206 C2220 0.960 . S
H2207 C2220 0.960 . S
C2208 H2200 0.929 . S
C2208 C2209 1.377 . S
C2208 C2210 1.384 . S
C2209 C2208 1.377 . S
C2209 C2215 1.390 . S
C2210 H2201 0.930 . S
C2210 C2208 1.384 . S
C2210 C2211 1.372 . S
C2211 C2210 1.372 . S
C2211 C2212 1.400 . S
C2211 C2216 1.490 . S
C2212 H2202 0.930 . S
C2212 C2211 1.400 . S
C2212 C2215 1.386 . S
H2213 C2229 0.930 . S
H2214 C2230 0.931 . S
C2215 H2203 0.929 . S
C2215 C2209 1.390 . S
C2215 C2212 1.386 . S
C2216 C2211 1.490 . S
C2216 C2218 1.395 . S
C2216 C2219 1.403 . S
H2217 C2223 0.930 . S
C2218 H2204 0.930 . S
C2218 C2216 1.395 . S
C2218 C2221 1.403 . S
C2219 C2216 1.403 . S
C2219 C2220 1.524 . S
C2219 C2223 1.400 1_655 S
C2220 H2205 0.960 . S
C2220 H2206 0.960 . S
C2220 H2207 0.960 . S
C2220 C2219 1.524 . S
C2221 C2218 1.403 . S
C2221 C2222 1.392 1_655 S
C2221 C2225 1.495 . S
C2222 C2221 1.392 1_455 S
C2222 C2223 1.385 . S
C2222 C2224 1.478 . S
C2223 H2217 0.930 . S
C2223 C2219 1.400 1_455 S
C2223 C2222 1.385 . S
C2224 C2222 1.478 . S
C2224 C2226 1.381 . S
C2224 C2230 1.383 . S
C2225 C2221 1.495 . S
C2225 H2231 0.959 . S
C2225 H2232 0.961 1_655 S
C2225 H2233 0.960 . S
C2226 C2224 1.381 . S
C2226 C2227 1.394 . S
C2226 H2234 0.930 . S
C2227 C2226 1.394 . S
C2227 C2228 1.383 . S
C2227 H2235 0.929 . S
C2228 C2227 1.383 . S
C2228 C2229 1.377 . S
C2229 H2213 0.930 . S
C2229 C2228 1.377 . S
C2229 C2230 1.379 . S
C2230 H2214 0.931 . S
C2230 C2224 1.383 . S
C2230 C2229 1.379 . S
H2231 C2225 0.959 . S
H2232 C2225 0.961 1_455 S
H2233 C2225 0.960 . S
H2234 C2226 0.930 . S
H2235 C2227 0.929 . S
H2236 C2244 0.929 . S
H2237 C2246 0.930 . S
H2238 C2248 0.930 . S
H2239 C2251 0.929 . S
H2240 C2254 0.930 . S
H2241 C2256 0.960 . S
H2242 C2256 0.960 . S
H2243 C2256 0.960 . S
C2244 H2236 0.929 . S
C2244 C2245 1.377 . S
C2244 C2246 1.384 . S
C2245 C2244 1.377 . S
C2245 C2251 1.390 . S
C2246 H2237 0.930 . S
C2246 C2244 1.384 . S
C2246 C2247 1.372 . S
C2247 C2246 1.372 . S
C2247 C2248 1.400 . S
C2247 C2252 1.490 . S
C2248 H2238 0.930 . S
C2248 C2247 1.400 . S
C2248 C2251 1.386 . S
H2249 C2265 0.930 . S
H2250 C2266 0.931 . S
C2251 H2239 0.929 . S
C2251 C2245 1.390 . S
C2251 C2248 1.386 . S
C2252 C2247 1.490 . S
C2252 C2254 1.395 . S
C2252 C2255 1.403 . S
H2253 C2259 0.930 . S
C2254 H2240 0.930 . S
C2254 C2252 1.395 . S
C2254 C2257 1.403 . S
C2255 C2252 1.403 . S
C2255 C2256 1.524 . S
C2255 C2259 1.400 . S
C2256 H2241 0.960 . S
C2256 H2242 0.960 . S
C2256 H2243 0.960 . S
C2256 C2255 1.524 . S
C2257 C2254 1.403 . S
C2257 C2258 1.392 . S
C2257 C2261 1.495 . S
C2258 C2257 1.392 . S
C2258 C2259 1.385 . S
C2258 C2260 1.478 . S
C2259 H2253 0.930 . S
C2259 C2255 1.400 . S
C2259 C2258 1.385 . S
C2260 C2258 1.478 . S
C2260 C2262 1.381 . S
C2260 C2266 1.383 . S
C2261 C2257 1.495 . S
C2261 H2267 0.959 . S
C2261 H2268 0.961 . S
C2261 H2269 0.960 . S
C2262 C2260 1.381 . S
C2262 C2263 1.394 . S
C2262 H2270 0.930 . S
C2263 C2262 1.394 . S
C2263 C2264 1.383 . S
C2263 H2271 0.929 . S
C2264 C2263 1.383 . S
C2264 C2265 1.377 . S
C2265 H2249 0.930 . S
C2265 C2264 1.377 . S
C2265 C2266 1.379 . S
C2266 H2250 0.931 . S
C2266 C2260 1.383 . S
C2266 C2265 1.379 . S
H2267 C2261 0.959 . S
H2268 C2261 0.961 . S
H2269 C2261 0.960 . S
H2270 C2262 0.930 . S
H2271 C2263 0.929 . S
H2272 C2280 0.929 . S
H2273 C2282 0.930 . S
H2274 C2284 0.930 . S
H2275 C2287 0.929 . S
H2276 C2290 0.930 . S
H2277 C2292 0.960 . S
H2278 C2292 0.960 . S
H2279 C2292 0.960 . S
C2280 H2272 0.929 . S
C2280 C2281 1.377 . S
C2280 C2282 1.384 . S
C2281 C2280 1.377 . S
C2281 C2287 1.390 . S
C2282 H2273 0.930 . S
C2282 C2280 1.384 . S
C2282 C2283 1.372 . S
C2283 C2282 1.372 . S
C2283 C2284 1.400 . S
C2283 C2288 1.490 . S
C2284 H2274 0.930 . S
C2284 C2283 1.400 . S
C2284 C2287 1.386 . S
H2285 C2301 0.930 . S
H2286 C2302 0.931 . S
C2287 H2275 0.929 . S
C2287 C2281 1.390 . S
C2287 C2284 1.386 . S
C2288 C2283 1.490 . S
C2288 C2290 1.395 . S
C2288 C2291 1.403 . S
H2289 C2295 0.930 . S
C2290 H2276 0.930 . S
C2290 C2288 1.395 . S
C2290 C2293 1.403 . S
C2291 C2288 1.403 . S
C2291 C2292 1.524 . S
C2291 C2295 1.400 . S
C2292 H2277 0.960 . S
C2292 H2278 0.960 . S
C2292 H2279 0.960 . S
C2292 C2291 1.524 . S
C2293 C2290 1.403 . S
C2293 C2294 1.392 1_455 S
C2293 C2297 1.495 1_455 S
C2294 C2293 1.392 1_655 S
C2294 C2295 1.385 1_655 S
C2294 C2296 1.478 . S
C2295 H2289 0.930 . S
C2295 C2291 1.400 . S
C2295 C2294 1.385 1_455 S
C2296 C2294 1.478 . S
C2296 C2298 1.381 . S
C2296 C2302 1.383 . S
C2297 C2293 1.495 1_655 S
C2297 H2303 0.959 . S
C2297 H2304 0.961 . S
C2297 H2305 0.960 . S
C2298 C2296 1.381 . S
C2298 C2299 1.394 . S
C2298 H2306 0.930 . S
C2299 C2298 1.394 . S
C2299 C2300 1.383 . S
C2299 H2307 0.929 . S
C2300 C2299 1.383 . S
C2300 C2301 1.377 . S
C2301 H2285 0.930 . S
C2301 C2300 1.377 . S
C2301 C2302 1.379 . S
C2302 H2286 0.931 . S
C2302 C2296 1.383 . S
C2302 C2301 1.379 . S
H2303 C2297 0.959 . S
H2304 C2297 0.961 . S
H2305 C2297 0.960 . S
H2306 C2298 0.930 . S
H2307 C2299 0.929 . S
H2308 C2316 0.929 . S
H2309 C2318 0.930 . S
H2310 C2320 0.930 . S
H2311 C2323 0.929 . S
H2312 C2326 0.930 . S
H2313 C2328 0.960 . S
H2314 C2328 0.960 . S
H2315 C2328 0.960 . S
C2316 H2308 0.929 . S
C2316 C2317 1.377 . S
C2316 C2318 1.384 . S
C2317 C2316 1.377 . S
C2317 C2323 1.390 . S
C2318 H2309 0.930 . S
C2318 C2316 1.384 . S
C2318 C2319 1.372 . S
C2319 C2318 1.372 . S
C2319 C2320 1.400 . S
C2319 C2324 1.490 . S
C2320 H2310 0.930 . S
C2320 C2319 1.400 . S
C2320 C2323 1.386 . S
H2321 C2337 0.930 . S
H2322 C2338 0.931 . S
C2323 H2311 0.929 . S
C2323 C2317 1.390 . S
C2323 C2320 1.386 . S
C2324 C2319 1.490 . S
C2324 C2326 1.395 . S
C2324 C2327 1.403 . S
H2325 C2331 0.930 . S
C2326 H2312 0.930 . S
C2326 C2324 1.395 . S
C2326 C2329 1.403 . S
C2327 C2324 1.403 . S
C2327 C2328 1.524 . S
C2327 C2331 1.400 . S
C2328 H2313 0.960 . S
C2328 H2314 0.960 . S
C2328 H2315 0.960 . S
C2328 C2327 1.524 . S
C2329 C2326 1.403 . S
C2329 C2330 1.392 . S
C2329 C2333 1.495 . S
C2330 C2329 1.392 . S
C2330 C2331 1.385 . S
C2330 C2332 1.478 . S
C2331 H2325 0.930 . S
C2331 C2327 1.400 . S
C2331 C2330 1.385 . S
C2332 C2330 1.478 . S
C2332 C2334 1.381 . S
C2332 C2338 1.383 . S
C2333 C2329 1.495 . S
C2333 H2339 0.959 . S
C2333 H2340 0.961 . S
C2333 H2341 0.960 . S
C2334 C2332 1.381 . S
C2334 C2335 1.394 . S
C2334 H2342 0.930 . S
C2335 C2334 1.394 . S
C2335 C2336 1.383 . S
C2335 H2343 0.929 . S
C2336 C2335 1.383 . S
C2336 C2337 1.377 . S
C2337 H2321 0.930 . S
C2337 C2336 1.377 . S
C2337 C2338 1.379 . S
C2338 H2322 0.931 . S
C2338 C2332 1.383 . S
C2338 C2337 1.379 . S
H2339 C2333 0.959 . S
H2340 C2333 0.961 . S
H2341 C2333 0.960 . S
H2342 C2334 0.930 . S
H2343 C2335 0.929 . S
H2344 C2352 0.929 . S
H2345 C2354 0.930 . S
H2346 C2356 0.930 . S
H2347 C2359 0.929 . S
H2348 C2362 0.930 . S
H2349 C2364 0.960 . S
H2350 C2364 0.960 . S
H2351 C2364 0.960 . S
C2352 H2344 0.929 . S
C2352 C2353 1.377 . S
C2352 C2354 1.384 . S
C2353 C2352 1.377 . S
C2353 C2359 1.390 . S
C2354 H2345 0.930 . S
C2354 C2352 1.384 . S
C2354 C2355 1.372 . S
C2355 C2354 1.372 . S
C2355 C2356 1.400 . S
C2355 C2360 1.490 . S
C2356 H2346 0.930 . S
C2356 C2355 1.400 . S
C2356 C2359 1.386 . S
H2357 C2373 0.930 . S
H2358 C2374 0.931 . S
C2359 H2347 0.929 . S
C2359 C2353 1.390 . S
C2359 C2356 1.386 . S
C2360 C2355 1.490 . S
C2360 C2362 1.395 . S
C2360 C2363 1.403 . S
H2361 C2367 0.930 . S
C2362 H2348 0.930 . S
C2362 C2360 1.395 . S
C2362 C2365 1.403 . S
C2363 C2360 1.403 . S
C2363 C2364 1.524 . S
C2363 C2367 1.400 1_655 S
C2364 H2349 0.960 . S
C2364 H2350 0.960 . S
C2364 H2351 0.960 . S
C2364 C2363 1.524 . S
C2365 C2362 1.403 . S
C2365 C2366 1.392 1_655 S
C2365 C2369 1.495 . S
C2366 C2365 1.392 1_455 S
C2366 C2367 1.385 . S
C2366 C2368 1.478 . S
C2367 H2361 0.930 . S
C2367 C2363 1.400 1_455 S
C2367 C2366 1.385 . S
C2368 C2366 1.478 . S
C2368 C2370 1.381 . S
C2368 C2374 1.383 . S
C2369 C2365 1.495 . S
C2369 H2375 0.959 . S
C2369 H2376 0.961 1_655 S
C2369 H2377 0.960 . S
C2370 C2368 1.381 . S
C2370 C2371 1.394 . S
C2370 H2378 0.930 . S
C2371 C2370 1.394 . S
C2371 C2372 1.383 . S
C2371 H2379 0.929 . S
C2372 C2371 1.383 . S
C2372 C2373 1.377 . S
C2373 H2357 0.930 . S
C2373 C2372 1.377 . S
C2373 C2374 1.379 . S
C2374 H2358 0.931 . S
C2374 C2368 1.383 . S
C2374 C2373 1.379 . S
H2375 C2369 0.959 . S
H2376 C2369 0.961 1_455 S
H2377 C2369 0.960 . S
H2378 C2370 0.930 . S
H2379 C2371 0.929 . S
H2380 C2388 0.929 . S
H2381 C2390 0.930 . S
H2382 C2392 0.930 . S
H2383 C2395 0.929 . S
H2384 C2398 0.930 . S
H2385 C2400 0.960 . S
H2386 C2400 0.960 . S
H2387 C2400 0.960 . S
C2388 H2380 0.929 . S
C2388 C2389 1.377 . S
C2388 C2390 1.384 . S
C2389 C2388 1.377 . S
C2389 C2395 1.390 . S
C2390 H2381 0.930 . S
C2390 C2388 1.384 . S
C2390 C2391 1.372 . S
C2391 C2390 1.372 . S
C2391 C2392 1.400 . S
C2391 C2396 1.490 . S
C2392 H2382 0.930 . S
C2392 C2391 1.400 . S
C2392 C2395 1.386 . S
H2393 C2409 0.930 . S
H2394 C2410 0.931 . S
C2395 H2383 0.929 . S
C2395 C2389 1.390 . S
C2395 C2392 1.386 . S
C2396 C2391 1.490 . S
C2396 C2398 1.395 . S
C2396 C2399 1.403 . S
H2397 C2403 0.930 . S
C2398 H2384 0.930 . S
C2398 C2396 1.395 . S
C2398 C2401 1.403 . S
C2399 C2396 1.403 . S
C2399 C2400 1.524 . S
C2399 C2403 1.400 . S
C2400 H2385 0.960 . S
C2400 H2386 0.960 . S
C2400 H2387 0.960 . S
C2400 C2399 1.524 . S
C2401 C2398 1.403 . S
C2401 C2402 1.392 . S
C2401 C2405 1.495 . S
C2402 C2401 1.392 . S
C2402 C2403 1.385 . S
C2402 C2404 1.478 . S
C2403 H2397 0.930 . S
C2403 C2399 1.400 . S
C2403 C2402 1.385 . S
C2404 C2402 1.478 . S
C2404 C2406 1.381 . S
C2404 C2410 1.383 . S
C2405 C2401 1.495 . S
C2405 H2411 0.959 . S
C2405 H2412 0.961 . S
C2405 H2413 0.960 . S
C2406 C2404 1.381 . S
C2406 C2407 1.394 . S
C2406 H2414 0.930 . S
C2407 C2406 1.394 . S
C2407 C2408 1.383 . S
C2407 H2415 0.929 . S
C2408 C2407 1.383 . S
C2408 C2409 1.377 . S
C2409 H2393 0.930 . S
C2409 C2408 1.377 . S
C2409 C2410 1.379 . S
C2410 H2394 0.931 . S
C2410 C2404 1.383 . S
C2410 C2409 1.379 . S
H2411 C2405 0.959 . S
H2412 C2405 0.961 . S
H2413 C2405 0.960 . S
H2414 C2406 0.930 . S
H2415 C2407 0.929 . S
H2416 C2424 0.929 . S
H2417 C2426 0.930 . S
H2418 C2428 0.930 . S
H2419 C2431 0.929 . S
H2420 C2434 0.930 . S
H2421 C2436 0.960 . S
H2422 C2436 0.960 . S
H2423 C2436 0.960 . S
C2424 H2416 0.929 . S
C2424 C2425 1.377 . S
C2424 C2426 1.384 . S
C2425 C2424 1.377 . S
C2425 C2431 1.390 . S
C2426 H2417 0.930 . S
C2426 C2424 1.384 . S
C2426 C2427 1.372 . S
C2427 C2426 1.372 . S
C2427 C2428 1.400 . S
C2427 C2432 1.490 . S
C2428 H2418 0.930 . S
C2428 C2427 1.400 . S
C2428 C2431 1.386 . S
H2429 C2445 0.930 . S
H2430 C2446 0.931 . S
C2431 H2419 0.929 . S
C2431 C2425 1.390 . S
C2431 C2428 1.386 . S
C2432 C2427 1.490 . S
C2432 C2434 1.395 . S
C2432 C2435 1.403 . S
H2433 C2439 0.930 . S
C2434 H2420 0.930 . S
C2434 C2432 1.395 . S
C2434 C2437 1.403 . S
C2435 C2432 1.403 . S
C2435 C2436 1.524 . S
C2435 C2439 1.400 . S
C2436 H2421 0.960 . S
C2436 H2422 0.960 . S
C2436 H2423 0.960 . S
C2436 C2435 1.524 . S
C2437 C2434 1.403 . S
C2437 C2438 1.392 . S
C2437 C2441 1.495 . S
C2438 C2437 1.392 . S
C2438 C2439 1.385 . S
C2438 C2440 1.478 . S
C2439 H2433 0.930 . S
C2439 C2435 1.400 . S
C2439 C2438 1.385 . S
C2440 C2438 1.478 . S
C2440 C2442 1.381 . S
C2440 C2446 1.383 . S
C2441 C2437 1.495 . S
C2441 H2447 0.959 . S
C2441 H2448 0.961 . S
C2441 H2449 0.960 . S
C2442 C2440 1.381 . S
C2442 C2443 1.394 . S
C2442 H2450 0.930 . S
C2443 C2442 1.394 . S
C2443 C2444 1.383 . S
C2443 H2451 0.929 . S
C2444 C2443 1.383 . S
C2444 C2445 1.377 . S
C2445 H2429 0.930 . S
C2445 C2444 1.377 . S
C2445 C2446 1.379 . S
C2446 H2430 0.931 . S
C2446 C2440 1.383 . S
C2446 C2445 1.379 . S
H2447 C2441 0.959 . S
H2448 C2441 0.961 . S
H2449 C2441 0.960 . S
H2450 C2442 0.930 . S
H2451 C2443 0.929 . S
H2452 C2460 0.929 . S
H2453 C2462 0.930 . S
H2454 C2464 0.930 . S
H2455 C2467 0.929 . S
H2456 C2470 0.930 . S
H2457 C2472 0.960 . S
H2458 C2472 0.960 . S
H2459 C2472 0.960 . S
C2460 H2452 0.929 . S
C2460 C2461 1.377 . S
C2460 C2462 1.384 . S
C2461 C2460 1.377 . S
C2461 C2467 1.390 . S
C2462 H2453 0.930 . S
C2462 C2460 1.384 . S
C2462 C2463 1.372 . S
C2463 C2462 1.372 . S
C2463 C2464 1.400 . S
C2463 C2468 1.490 . S
C2464 H2454 0.930 . S
C2464 C2463 1.400 . S
C2464 C2467 1.386 . S
H2465 C2481 0.930 . S
H2466 C2482 0.931 . S
C2467 H2455 0.929 . S
C2467 C2461 1.390 . S
C2467 C2464 1.386 . S
C2468 C2463 1.490 . S
C2468 C2470 1.395 . S
C2468 C2471 1.403 . S
H2469 C2475 0.930 . S
C2470 H2456 0.930 . S
C2470 C2468 1.395 . S
C2470 C2473 1.403 . S
C2471 C2468 1.403 . S
C2471 C2472 1.524 . S
C2471 C2475 1.400 . S
C2472 H2457 0.960 . S
C2472 H2458 0.960 . S
C2472 H2459 0.960 . S
C2472 C2471 1.524 . S
C2473 C2470 1.403 . S
C2473 C2474 1.392 1_554 S
C2473 C2477 1.495 1_554 S
C2474 C2473 1.392 1_556 S
C2474 C2475 1.385 1_556 S
C2474 C2476 1.478 . S
C2475 H2469 0.930 . S
C2475 C2471 1.400 . S
C2475 C2474 1.385 1_554 S
C2476 C2474 1.478 . S
C2476 C2478 1.381 . S
C2476 C2482 1.383 . S
C2477 C2473 1.495 1_556 S
C2477 H2483 0.959 1_556 S
C2477 H2484 0.961 . S
C2477 H2485 0.960 . S
C2478 C2476 1.381 . S
C2478 C2479 1.394 . S
C2478 H2486 0.930 . S
C2479 C2478 1.394 . S
C2479 C2480 1.383 . S
C2479 H2487 0.929 . S
C2480 C2479 1.383 . S
C2480 C2481 1.377 . S
C2481 H2465 0.930 . S
C2481 C2480 1.377 . S
C2481 C2482 1.379 . S
C2482 H2466 0.931 . S
C2482 C2476 1.383 . S
C2482 C2481 1.379 . S
H2483 C2477 0.959 1_554 S
H2484 C2477 0.961 . S
H2485 C2477 0.960 . S
H2486 C2478 0.930 . S
H2487 C2479 0.929 . S
H2488 C2496 0.929 . S
H2489 C2498 0.930 . S
H2490 C2500 0.930 . S
H2491 C2503 0.929 . S
H2492 C2506 0.930 . S
H2493 C2508 0.960 . S
H2494 C2508 0.960 . S
H2495 C2508 0.960 . S
C2496 H2488 0.929 . S
C2496 C2497 1.377 . S
C2496 C2498 1.384 . S
C2497 C2496 1.377 . S
C2497 C2503 1.390 . S
C2498 H2489 0.930 . S
C2498 C2496 1.384 . S
C2498 C2499 1.372 . S
C2499 C2498 1.372 . S
C2499 C2500 1.400 . S
C2499 C2504 1.490 . S
C2500 H2490 0.930 . S
C2500 C2499 1.400 . S
C2500 C2503 1.386 . S
H2501 C2517 0.930 . S
H2502 C2518 0.931 . S
C2503 H2491 0.929 . S
C2503 C2497 1.390 . S
C2503 C2500 1.386 . S
C2504 C2499 1.490 . S
C2504 C2506 1.395 . S
C2504 C2507 1.403 . S
H2505 C2511 0.930 . S
C2506 H2492 0.930 . S
C2506 C2504 1.395 . S
C2506 C2509 1.403 . S
C2507 C2504 1.403 . S
C2507 C2508 1.524 . S
C2507 C2511 1.400 . S
C2508 H2493 0.960 . S
C2508 H2494 0.960 . S
C2508 H2495 0.960 . S
C2508 C2507 1.524 . S
C2509 C2506 1.403 . S
C2509 C2510 1.392 . S
C2509 C2513 1.495 . S
C2510 C2509 1.392 . S
C2510 C2511 1.385 . S
C2510 C2512 1.478 . S
C2511 H2505 0.930 . S
C2511 C2507 1.400 . S
C2511 C2510 1.385 . S
C2512 C2510 1.478 . S
C2512 C2514 1.381 . S
C2512 C2518 1.383 . S
C2513 C2509 1.495 . S
C2513 H2519 0.959 . S
C2513 H2520 0.961 . S
C2513 H2521 0.960 . S
C2514 C2512 1.381 . S
C2514 C2515 1.394 . S
C2514 H2522 0.930 . S
C2515 C2514 1.394 . S
C2515 C2516 1.383 . S
C2515 H2523 0.929 . S
C2516 C2515 1.383 . S
C2516 C2517 1.377 . S
C2517 H2501 0.930 . S
C2517 C2516 1.377 . S
C2517 C2518 1.379 . S
C2518 H2502 0.931 . S
C2518 C2512 1.383 . S
C2518 C2517 1.379 . S
H2519 C2513 0.959 . S
H2520 C2513 0.961 . S
H2521 C2513 0.960 . S
H2522 C2514 0.930 . S
H2523 C2515 0.929 . S
H2524 C2532 0.929 . S
H2525 C2534 0.930 . S
H2526 C2536 0.930 . S
H2527 C2539 0.929 . S
H2528 C2542 0.930 . S
H2529 C2544 0.960 . S
H2530 C2544 0.960 . S
H2531 C2544 0.960 . S
C2532 H2524 0.929 . S
C2532 C2533 1.377 . S
C2532 C2534 1.384 . S
C2533 C2532 1.377 . S
C2533 C2539 1.390 . S
C2534 H2525 0.930 . S
C2534 C2532 1.384 . S
C2534 C2535 1.372 . S
C2535 C2534 1.372 . S
C2535 C2536 1.400 . S
C2535 C2540 1.490 . S
C2536 H2526 0.930 . S
C2536 C2535 1.400 . S
C2536 C2539 1.386 . S
H2537 C2553 0.930 . S
H2538 C2554 0.931 . S
C2539 H2527 0.929 . S
C2539 C2533 1.390 . S
C2539 C2536 1.386 . S
C2540 C2535 1.490 . S
C2540 C2542 1.395 . S
C2540 C2543 1.403 . S
H2541 C2547 0.930 . S
C2542 H2528 0.930 . S
C2542 C2540 1.395 . S
C2542 C2545 1.403 . S
C2543 C2540 1.403 . S
C2543 C2544 1.524 . S
C2543 C2547 1.400 . S
C2544 H2529 0.960 . S
C2544 H2530 0.960 . S
C2544 H2531 0.960 . S
C2544 C2543 1.524 . S
C2545 C2542 1.403 . S
C2545 C2546 1.392 . S
C2545 C2549 1.495 . S
C2546 C2545 1.392 . S
C2546 C2547 1.385 . S
C2546 C2548 1.478 . S
C2547 H2541 0.930 . S
C2547 C2543 1.400 . S
C2547 C2546 1.385 . S
C2548 C2546 1.478 . S
C2548 C2550 1.381 . S
C2548 C2554 1.383 . S
C2549 C2545 1.495 . S
C2549 H2555 0.959 . S
C2549 H2556 0.961 . S
C2549 H2557 0.960 . S
C2550 C2548 1.381 . S
C2550 C2551 1.394 . S
C2550 H2558 0.930 . S
C2551 C2550 1.394 . S
C2551 C2552 1.383 . S
C2551 H2559 0.929 . S
C2552 C2551 1.383 . S
C2552 C2553 1.377 . S
C2553 H2537 0.930 . S
C2553 C2552 1.377 . S
C2553 C2554 1.379 . S
C2554 H2538 0.931 . S
C2554 C2548 1.383 . S
C2554 C2553 1.379 . S
H2555 C2549 0.959 . S
H2556 C2549 0.961 . S
H2557 C2549 0.960 . S
H2558 C2550 0.930 . S
H2559 C2551 0.929 . S
H2560 C2568 0.929 . S
H2561 C2570 0.930 . S
H2562 C2572 0.930 . S
H2563 C2575 0.929 . S
H2564 C2578 0.930 . S
H2565 C2580 0.960 . S
H2566 C2580 0.960 . S
H2567 C2580 0.960 . S
C2568 H2560 0.929 . S
C2568 C2569 1.377 . S
C2568 C2570 1.384 . S
C2569 C2568 1.377 . S
C2569 C2575 1.390 . S
C2570 H2561 0.930 . S
C2570 C2568 1.384 . S
C2570 C2571 1.372 . S
C2571 C2570 1.372 . S
C2571 C2572 1.400 . S
C2571 C2576 1.490 . S
C2572 H2562 0.930 . S
C2572 C2571 1.400 . S
C2572 C2575 1.386 . S
H2573 C2589 0.930 . S
H2574 C2590 0.931 . S
C2575 H2563 0.929 . S
C2575 C2569 1.390 . S
C2575 C2572 1.386 . S
C2576 C2571 1.490 . S
C2576 C2578 1.395 . S
C2576 C2579 1.403 . S
H2577 C2583 0.930 . S
C2578 H2564 0.930 . S
C2578 C2576 1.395 . S
C2578 C2581 1.403 . S
C2579 C2576 1.403 . S
C2579 C2580 1.524 . S
C2579 C2583 1.400 . S
C2580 H2565 0.960 . S
C2580 H2566 0.960 . S
C2580 H2567 0.960 . S
C2580 C2579 1.524 . S
C2581 C2578 1.403 . S
C2581 C2582 1.392 . S
C2581 C2585 1.495 . S
C2582 C2581 1.392 . S
C2582 C2583 1.385 . S
C2582 C2584 1.478 . S
C2583 H2577 0.930 . S
C2583 C2579 1.400 . S
C2583 C2582 1.385 . S
C2584 C2582 1.478 . S
C2584 C2586 1.381 . S
C2584 C2590 1.383 . S
C2585 C2581 1.495 . S
C2585 H2591 0.959 . S
C2585 H2592 0.961 . S
C2585 H2593 0.960 . S
C2586 C2584 1.381 . S
C2586 C2587 1.394 . S
C2586 H2594 0.930 . S
C2587 C2586 1.394 . S
C2587 C2588 1.383 . S
C2587 H2595 0.929 . S
C2588 C2587 1.383 . S
C2588 C2589 1.377 . S
C2589 H2573 0.930 . S
C2589 C2588 1.377 . S
C2589 C2590 1.379 . S
C2590 H2574 0.931 . S
C2590 C2584 1.383 . S
C2590 C2589 1.379 . S
H2591 C2585 0.959 . S
H2592 C2585 0.961 . S
H2593 C2585 0.960 . S
H2594 C2586 0.930 . S
H2595 C2587 0.929 . S
H2596 C2604 0.929 . S
H2597 C2606 0.930 . S
H2598 C2608 0.930 . S
H2599 C2611 0.929 . S
H2600 C2614 0.930 . S
H2601 C2616 0.960 . S
H2602 C2616 0.960 . S
H2603 C2616 0.960 . S
C2604 H2596 0.929 . S
C2604 C2605 1.377 . S
C2604 C2606 1.384 . S
C2605 C2604 1.377 . S
C2605 C2611 1.390 . S
C2606 H2597 0.930 . S
C2606 C2604 1.384 . S
C2606 C2607 1.372 . S
C2607 C2606 1.372 . S
C2607 C2608 1.400 . S
C2607 C2612 1.490 . S
C2608 H2598 0.930 . S
C2608 C2607 1.400 . S
C2608 C2611 1.386 . S
H2609 C2625 0.930 . S
H2610 C2626 0.931 . S
C2611 H2599 0.929 . S
C2611 C2605 1.390 . S
C2611 C2608 1.386 . S
C2612 C2607 1.490 . S
C2612 C2614 1.395 . S
C2612 C2615 1.403 . S
H2613 C2619 0.930 . S
C2614 H2600 0.930 . S
C2614 C2612 1.395 . S
C2614 C2617 1.403 1_556 S
C2615 C2612 1.403 . S
C2615 C2616 1.524 . S
C2615 C2619 1.400 . S
C2616 H2601 0.960 . S
C2616 H2602 0.960 . S
C2616 H2603 0.960 . S
C2616 C2615 1.524 . S
C2617 C2614 1.403 1_554 S
C2617 C2618 1.392 . S
C2617 C2621 1.495 . S
C2618 C2617 1.392 . S
C2618 C2619 1.385 1_554 S
C2618 C2620 1.478 . S
C2619 H2613 0.930 . S
C2619 C2615 1.400 . S
C2619 C2618 1.385 1_556 S
C2620 C2618 1.478 . S
C2620 C2622 1.381 . S
C2620 C2626 1.383 . S
C2621 C2617 1.495 . S
C2621 H2627 0.959 . S
C2621 H2628 0.961 . S
C2621 H2629 0.960 . S
C2622 C2620 1.381 . S
C2622 C2623 1.394 . S
C2622 H2630 0.930 . S
C2623 C2622 1.394 . S
C2623 C2624 1.383 . S
C2623 H2631 0.929 . S
C2624 C2623 1.383 . S
C2624 C2625 1.377 . S
C2625 H2609 0.930 . S
C2625 C2624 1.377 . S
C2625 C2626 1.379 . S
C2626 H2610 0.931 . S
C2626 C2620 1.383 . S
C2626 C2625 1.379 . S
H2627 C2621 0.959 . S
H2628 C2621 0.961 . S
H2629 C2621 0.960 . S
H2630 C2622 0.930 . S
H2631 C2623 0.929 . S
H2632 C2640 0.929 . S
H2633 C2642 0.930 . S
H2634 C2644 0.930 . S
H2635 C2647 0.929 . S
H2636 C2650 0.930 . S
H2637 C2652 0.960 . S
H2638 C2652 0.960 . S
H2639 C2652 0.960 . S
C2640 H2632 0.929 . S
C2640 C2641 1.377 . S
C2640 C2642 1.384 . S
C2641 C2640 1.377 . S
C2641 C2647 1.390 . S
C2642 H2633 0.930 . S
C2642 C2640 1.384 . S
C2642 C2643 1.372 . S
C2643 C2642 1.372 . S
C2643 C2644 1.400 . S
C2643 C2648 1.490 . S
C2644 H2634 0.930 . S
C2644 C2643 1.400 . S
C2644 C2647 1.386 . S
H2645 C2661 0.930 . S
H2646 C2662 0.931 . S
C2647 H2635 0.929 . S
C2647 C2641 1.390 . S
C2647 C2644 1.386 . S
C2648 C2643 1.490 . S
C2648 C2650 1.395 . S
C2648 C2651 1.403 . S
H2649 C2655 0.930 . S
C2650 H2636 0.930 . S
C2650 C2648 1.395 . S
C2650 C2653 1.403 . S
C2651 C2648 1.403 . S
C2651 C2652 1.524 . S
C2651 C2655 1.400 . S
C2652 H2637 0.960 . S
C2652 H2638 0.960 . S
C2652 H2639 0.960 . S
C2652 C2651 1.524 . S
C2653 C2650 1.403 . S
C2653 C2654 1.392 . S
C2653 C2657 1.495 . S
C2654 C2653 1.392 . S
C2654 C2655 1.385 . S
C2654 C2656 1.478 . S
C2655 H2649 0.930 . S
C2655 C2651 1.400 . S
C2655 C2654 1.385 . S
C2656 C2654 1.478 . S
C2656 C2658 1.381 . S
C2656 C2662 1.383 . S
C2657 C2653 1.495 . S
C2657 H2663 0.959 . S
C2657 H2664 0.961 . S
C2657 H2665 0.960 . S
C2658 C2656 1.381 . S
C2658 C2659 1.394 . S
C2658 H2666 0.930 . S
C2659 C2658 1.394 . S
C2659 C2660 1.383 . S
C2659 H2667 0.929 . S
C2660 C2659 1.383 . S
C2660 C2661 1.377 . S
C2661 H2645 0.930 . S
C2661 C2660 1.377 . S
C2661 C2662 1.379 . S
C2662 H2646 0.931 . S
C2662 C2656 1.383 . S
C2662 C2661 1.379 . S
H2663 C2657 0.959 . S
H2664 C2657 0.961 . S
H2665 C2657 0.960 . S
H2666 C2658 0.930 . S
H2667 C2659 0.929 . S
H2668 C2676 0.929 . S
H2669 C2678 0.930 . S
H2670 C2680 0.930 . S
H2671 C2683 0.929 . S
H2672 C2686 0.930 . S
H2673 C2688 0.960 . S
H2674 C2688 0.960 . S
H2675 C2688 0.960 . S
C2676 H2668 0.929 . S
C2676 C2677 1.377 . S
C2676 C2678 1.384 . S
C2677 C2676 1.377 . S
C2677 C2683 1.390 . S
C2678 H2669 0.930 . S
C2678 C2676 1.384 . S
C2678 C2679 1.372 . S
C2679 C2678 1.372 . S
C2679 C2680 1.400 . S
C2679 C2684 1.490 . S
C2680 H2670 0.930 . S
C2680 C2679 1.400 . S
C2680 C2683 1.386 . S
H2681 C2697 0.930 . S
H2682 C2698 0.931 . S
C2683 H2671 0.929 . S
C2683 C2677 1.390 . S
C2683 C2680 1.386 . S
C2684 C2679 1.490 . S
C2684 C2686 1.395 . S
C2684 C2687 1.403 . S
H2685 C2691 0.930 . S
C2686 H2672 0.930 . S
C2686 C2684 1.395 . S
C2686 C2689 1.403 . S
C2687 C2684 1.403 . S
C2687 C2688 1.524 . S
C2687 C2691 1.400 . S
C2688 H2673 0.960 . S
C2688 H2674 0.960 . S
C2688 H2675 0.960 . S
C2688 C2687 1.524 . S
C2689 C2686 1.403 . S
C2689 C2690 1.392 . S
C2689 C2693 1.495 . S
C2690 C2689 1.392 . S
C2690 C2691 1.385 . S
C2690 C2692 1.478 . S
C2691 H2685 0.930 . S
C2691 C2687 1.400 . S
C2691 C2690 1.385 . S
C2692 C2690 1.478 . S
C2692 C2694 1.381 . S
C2692 C2698 1.383 . S
C2693 C2689 1.495 . S
C2693 H2699 0.959 . S
C2693 H2700 0.961 . S
C2693 H2701 0.960 . S
C2694 C2692 1.381 . S
C2694 C2695 1.394 . S
C2694 H2702 0.930 . S
C2695 C2694 1.394 . S
C2695 C2696 1.383 . S
C2695 H2703 0.929 . S
C2696 C2695 1.383 . S
C2696 C2697 1.377 . S
C2697 H2681 0.930 . S
C2697 C2696 1.377 . S
C2697 C2698 1.379 . S
C2698 H2682 0.931 . S
C2698 C2692 1.383 . S
C2698 C2697 1.379 . S
H2699 C2693 0.959 . S
H2700 C2693 0.961 . S
H2701 C2693 0.960 . S
H2702 C2694 0.930 . S
H2703 C2695 0.929 . S
H2704 C2712 0.929 . S
H2705 C2714 0.930 . S
H2706 C2716 0.930 . S
H2707 C2719 0.929 . S
H2708 C2722 0.930 . S
H2709 C2724 0.960 . S
H2710 C2724 0.960 . S
H2711 C2724 0.960 . S
C2712 H2704 0.929 . S
C2712 C2713 1.377 . S
C2712 C2714 1.384 . S
C2713 C2712 1.377 . S
C2713 C2719 1.390 . S
C2714 H2705 0.930 . S
C2714 C2712 1.384 . S
C2714 C2715 1.372 . S
C2715 C2714 1.372 . S
C2715 C2716 1.400 . S
C2715 C2720 1.490 . S
C2716 H2706 0.930 . S
C2716 C2715 1.400 . S
C2716 C2719 1.386 . S
H2717 C2733 0.930 . S
H2718 C2734 0.931 . S
C2719 H2707 0.929 . S
C2719 C2713 1.390 . S
C2719 C2716 1.386 . S
C2720 C2715 1.490 . S
C2720 C2722 1.395 . S
C2720 C2723 1.403 . S
H2721 C2727 0.930 . S
C2722 H2708 0.930 . S
C2722 C2720 1.395 . S
C2722 C2725 1.403 . S
C2723 C2720 1.403 . S
C2723 C2724 1.524 . S
C2723 C2727 1.400 . S
C2724 H2709 0.960 . S
C2724 H2710 0.960 . S
C2724 H2711 0.960 . S
C2724 C2723 1.524 . S
C2725 C2722 1.403 . S
C2725 C2726 1.392 . S
C2725 C2729 1.495 . S
C2726 C2725 1.392 . S
C2726 C2727 1.385 . S
C2726 C2728 1.478 . S
C2727 H2721 0.930 . S
C2727 C2723 1.400 . S
C2727 C2726 1.385 . S
C2728 C2726 1.478 . S
C2728 C2730 1.381 . S
C2728 C2734 1.383 . S
C2729 C2725 1.495 . S
C2729 H2735 0.959 . S
C2729 H2736 0.961 . S
C2729 H2737 0.960 . S
C2730 C2728 1.381 . S
C2730 C2731 1.394 . S
C2730 H2738 0.930 . S
C2731 C2730 1.394 . S
C2731 C2732 1.383 . S
C2731 H2739 0.929 . S
C2732 C2731 1.383 . S
C2732 C2733 1.377 . S
C2733 H2717 0.930 . S
C2733 C2732 1.377 . S
C2733 C2734 1.379 . S
C2734 H2718 0.931 . S
C2734 C2728 1.383 . S
C2734 C2733 1.379 . S
H2735 C2729 0.959 . S
H2736 C2729 0.961 . S
H2737 C2729 0.960 . S
H2738 C2730 0.930 . S
H2739 C2731 0.929 . S
H2740 C2748 0.929 . S
H2741 C2750 0.930 . S
H2742 C2752 0.930 . S
H2743 C2755 0.929 . S
H2744 C2758 0.930 . S
H2745 C2760 0.960 . S
H2746 C2760 0.960 . S
H2747 C2760 0.960 . S
C2748 H2740 0.929 . S
C2748 C2749 1.377 . S
C2748 C2750 1.384 . S
C2749 C2748 1.377 . S
C2749 C2755 1.390 . S
C2750 H2741 0.930 . S
C2750 C2748 1.384 . S
C2750 C2751 1.372 . S
C2751 C2750 1.372 . S
C2751 C2752 1.400 . S
C2751 C2756 1.490 . S
C2752 H2742 0.930 . S
C2752 C2751 1.400 . S
C2752 C2755 1.386 . S
H2753 C2769 0.930 . S
H2754 C2770 0.931 . S
C2755 H2743 0.929 . S
C2755 C2749 1.390 . S
C2755 C2752 1.386 . S
C2756 C2751 1.490 . S
C2756 C2758 1.395 . S
C2756 C2759 1.403 . S
H2757 C2763 0.930 . S
C2758 H2744 0.930 . S
C2758 C2756 1.395 . S
C2758 C2761 1.403 . S
C2759 C2756 1.403 . S
C2759 C2760 1.524 . S
C2759 C2763 1.400 . S
C2760 H2745 0.960 . S
C2760 H2746 0.960 . S
C2760 H2747 0.960 . S
C2760 C2759 1.524 . S
C2761 C2758 1.403 . S
C2761 C2762 1.392 . S
C2761 C2765 1.495 . S
C2762 C2761 1.392 . S
C2762 C2763 1.385 . S
C2762 C2764 1.478 . S
C2763 H2757 0.930 . S
C2763 C2759 1.400 . S
C2763 C2762 1.385 . S
C2764 C2762 1.478 . S
C2764 C2766 1.381 . S
C2764 C2770 1.383 . S
C2765 C2761 1.495 . S
C2765 H2771 0.959 . S
C2765 H2772 0.961 . S
C2765 H2773 0.960 . S
C2766 C2764 1.381 . S
C2766 C2767 1.394 . S
C2766 H2774 0.930 . S
C2767 C2766 1.394 . S
C2767 C2768 1.383 . S
C2767 H2775 0.929 . S
C2768 C2767 1.383 . S
C2768 C2769 1.377 . S
C2769 H2753 0.930 . S
C2769 C2768 1.377 . S
C2769 C2770 1.379 . S
C2770 H2754 0.931 . S
C2770 C2764 1.383 . S
C2770 C2769 1.379 . S
H2771 C2765 0.959 . S
H2772 C2765 0.961 . S
H2773 C2765 0.960 . S
H2774 C2766 0.930 . S
H2775 C2767 0.929 . S
H2776 C2784 0.929 . S
H2777 C2786 0.930 . S
H2778 C2788 0.930 . S
H2779 C2791 0.929 . S
H2780 C2794 0.930 . S
H2781 C2796 0.960 . S
H2782 C2796 0.960 . S
H2783 C2796 0.960 . S
C2784 H2776 0.929 . S
C2784 C2785 1.377 . S
C2784 C2786 1.384 . S
C2785 C2784 1.377 . S
C2785 C2791 1.390 . S
C2786 H2777 0.930 . S
C2786 C2784 1.384 . S
C2786 C2787 1.372 . S
C2787 C2786 1.372 . S
C2787 C2788 1.400 . S
C2787 C2792 1.490 . S
C2788 H2778 0.930 . S
C2788 C2787 1.400 . S
C2788 C2791 1.386 . S
H2789 C2805 0.930 . S
H2790 C2806 0.931 . S
C2791 H2779 0.929 . S
C2791 C2785 1.390 . S
C2791 C2788 1.386 . S
C2792 C2787 1.490 . S
C2792 C2794 1.395 . S
C2792 C2795 1.403 . S
H2793 C2799 0.930 . S
C2794 H2780 0.930 . S
C2794 C2792 1.395 . S
C2794 C2797 1.403 . S
C2795 C2792 1.403 . S
C2795 C2796 1.524 . S
C2795 C2799 1.400 . S
C2796 H2781 0.960 . S
C2796 H2782 0.960 . S
C2796 H2783 0.960 . S
C2796 C2795 1.524 . S
C2797 C2794 1.403 . S
C2797 C2798 1.392 . S
C2797 C2801 1.495 . S
C2798 C2797 1.392 . S
C2798 C2799 1.385 . S
C2798 C2800 1.478 . S
C2799 H2793 0.930 . S
C2799 C2795 1.400 . S
C2799 C2798 1.385 . S
C2800 C2798 1.478 . S
C2800 C2802 1.381 . S
C2800 C2806 1.383 . S
C2801 C2797 1.495 . S
C2801 H2807 0.959 . S
C2801 H2808 0.961 . S
C2801 H2809 0.960 . S
C2802 C2800 1.381 . S
C2802 C2803 1.394 . S
C2802 H2810 0.930 . S
C2803 C2802 1.394 . S
C2803 C2804 1.383 . S
C2803 H2811 0.929 . S
C2804 C2803 1.383 . S
C2804 C2805 1.377 . S
C2805 H2789 0.930 . S
C2805 C2804 1.377 . S
C2805 C2806 1.379 . S
C2806 H2790 0.931 . S
C2806 C2800 1.383 . S
C2806 C2805 1.379 . S
H2807 C2801 0.959 . S
H2808 C2801 0.961 . S
H2809 C2801 0.960 . S
H2810 C2802 0.930 . S
H2811 C2803 0.929 . S
H2812 C2820 0.929 . S
H2813 C2822 0.930 . S
H2814 C2824 0.930 . S
H2815 C2827 0.929 . S
H2816 C2830 0.930 . S
H2817 C2832 0.960 . S
H2818 C2832 0.960 . S
H2819 C2832 0.960 . S
C2820 H2812 0.929 . S
C2820 C2821 1.377 . S
C2820 C2822 1.384 . S
C2821 C2820 1.377 . S
C2821 C2827 1.390 . S
C2822 H2813 0.930 . S
C2822 C2820 1.384 . S
C2822 C2823 1.372 . S
C2823 C2822 1.372 . S
C2823 C2824 1.400 . S
C2823 C2828 1.490 . S
C2824 H2814 0.930 . S
C2824 C2823 1.400 . S
C2824 C2827 1.386 . S
H2825 C2841 0.930 . S
H2826 C2842 0.931 . S
C2827 H2815 0.929 . S
C2827 C2821 1.390 . S
C2827 C2824 1.386 . S
C2828 C2823 1.490 . S
C2828 C2830 1.395 . S
C2828 C2831 1.403 . S
H2829 C2835 0.930 . S
C2830 H2816 0.930 . S
C2830 C2828 1.395 . S
C2830 C2833 1.403 . S
C2831 C2828 1.403 . S
C2831 C2832 1.524 . S
C2831 C2835 1.400 . S
C2832 H2817 0.960 . S
C2832 H2818 0.960 . S
C2832 H2819 0.960 . S
C2832 C2831 1.524 . S
C2833 C2830 1.403 . S
C2833 C2834 1.392 . S
C2833 C2837 1.495 . S
C2834 C2833 1.392 . S
C2834 C2835 1.385 . S
C2834 C2836 1.478 . S
C2835 H2829 0.930 . S
C2835 C2831 1.400 . S
C2835 C2834 1.385 . S
C2836 C2834 1.478 . S
C2836 C2838 1.381 . S
C2836 C2842 1.383 . S
C2837 C2833 1.495 . S
C2837 H2843 0.959 . S
C2837 H2844 0.961 . S
C2837 H2845 0.960 . S
C2838 C2836 1.381 . S
C2838 C2839 1.394 . S
C2838 H2846 0.930 . S
C2839 C2838 1.394 . S
C2839 C2840 1.383 . S
C2839 H2847 0.929 . S
C2840 C2839 1.383 . S
C2840 C2841 1.377 . S
C2841 H2825 0.930 . S
C2841 C2840 1.377 . S
C2841 C2842 1.379 . S
C2842 H2826 0.931 . S
C2842 C2836 1.383 . S
C2842 C2841 1.379 . S
H2843 C2837 0.959 . S
H2844 C2837 0.961 . S
H2845 C2837 0.960 . S
H2846 C2838 0.930 . S
H2847 C2839 0.929 . S
H2848 C2856 0.929 . S
H2849 C2858 0.930 . S
H2850 C2860 0.930 . S
H2851 C2863 0.929 . S
H2852 C2866 0.930 . S
H2853 C2868 0.960 . S
H2854 C2868 0.960 . S
H2855 C2868 0.960 . S
C2856 H2848 0.929 . S
C2856 C2857 1.377 . S
C2856 C2858 1.384 . S
C2857 C2856 1.377 . S
C2857 C2863 1.390 . S
C2858 H2849 0.930 . S
C2858 C2856 1.384 . S
C2858 C2859 1.372 . S
C2859 C2858 1.372 . S
C2859 C2860 1.400 . S
C2859 C2864 1.490 . S
C2860 H2850 0.930 . S
C2860 C2859 1.400 . S
C2860 C2863 1.386 . S
H2861 C2877 0.930 . S
H2862 C2878 0.931 . S
C2863 H2851 0.929 . S
C2863 C2857 1.390 . S
C2863 C2860 1.386 . S
C2864 C2859 1.490 . S
C2864 C2866 1.395 . S
C2864 C2867 1.403 . S
H2865 C2871 0.930 . S
C2866 H2852 0.930 . S
C2866 C2864 1.395 . S
C2866 C2869 1.403 . S
C2867 C2864 1.403 . S
C2867 C2868 1.524 . S
C2867 C2871 1.400 . S
C2868 H2853 0.960 . S
C2868 H2854 0.960 . S
C2868 H2855 0.960 . S
C2868 C2867 1.524 . S
C2869 C2866 1.403 . S
C2869 C2870 1.392 . S
C2869 C2873 1.495 . S
C2870 C2869 1.392 . S
C2870 C2871 1.385 . S
C2870 C2872 1.478 . S
C2871 H2865 0.930 . S
C2871 C2867 1.400 . S
C2871 C2870 1.385 . S
C2872 C2870 1.478 . S
C2872 C2874 1.381 . S
C2872 C2878 1.383 . S
C2873 C2869 1.495 . S
C2873 H2879 0.959 . S
C2873 H2880 0.961 . S
C2873 H2881 0.960 . S
C2874 C2872 1.381 . S
C2874 C2875 1.394 . S
C2874 H2882 0.930 . S
C2875 C2874 1.394 . S
C2875 C2876 1.383 . S
C2875 H2883 0.929 . S
C2876 C2875 1.383 . S
C2876 C2877 1.377 . S
C2877 H2861 0.930 . S
C2877 C2876 1.377 . S
C2877 C2878 1.379 . S
C2878 H2862 0.931 . S
C2878 C2872 1.383 . S
C2878 C2877 1.379 . S
H2879 C2873 0.959 . S
H2880 C2873 0.961 . S
H2881 C2873 0.960 . S
H2882 C2874 0.930 . S
H2883 C2875 0.929 . S
H2884 C2892 0.929 . S
H2885 C2894 0.930 . S
H2886 C2896 0.930 . S
H2887 C2899 0.929 . S
H2888 C2902 0.930 . S
H2889 C2904 0.960 . S
H2890 C2904 0.960 . S
H2891 C2904 0.960 . S
C2892 H2884 0.929 . S
C2892 C2893 1.377 . S
C2892 C2894 1.384 . S
C2893 C2892 1.377 . S
C2893 C2899 1.390 . S
C2894 H2885 0.930 . S
C2894 C2892 1.384 . S
C2894 C2895 1.372 . S
C2895 C2894 1.372 . S
C2895 C2896 1.400 . S
C2895 C2900 1.490 . S
C2896 H2886 0.930 . S
C2896 C2895 1.400 . S
C2896 C2899 1.386 . S
H2897 C2913 0.930 . S
H2898 C2914 0.931 . S
C2899 H2887 0.929 . S
C2899 C2893 1.390 . S
C2899 C2896 1.386 . S
C2900 C2895 1.490 . S
C2900 C2902 1.395 . S
C2900 C2903 1.403 . S
H2901 C2907 0.930 . S
C2902 H2888 0.930 . S
C2902 C2900 1.395 . S
C2902 C2905 1.403 . S
C2903 C2900 1.403 . S
C2903 C2904 1.524 . S
C2903 C2907 1.400 . S
C2904 H2889 0.960 . S
C2904 H2890 0.960 . S
C2904 H2891 0.960 . S
C2904 C2903 1.524 . S
C2905 C2902 1.403 . S
C2905 C2906 1.392 . S
C2905 C2909 1.495 . S
C2906 C2905 1.392 . S
C2906 C2907 1.385 . S
C2906 C2908 1.478 . S
C2907 H2901 0.930 . S
C2907 C2903 1.400 . S
C2907 C2906 1.385 . S
C2908 C2906 1.478 . S
C2908 C2910 1.381 . S
C2908 C2914 1.383 . S
C2909 C2905 1.495 . S
C2909 H2915 0.959 . S
C2909 H2916 0.961 . S
C2909 H2917 0.960 . S
C2910 C2908 1.381 . S
C2910 C2911 1.394 . S
C2910 H2918 0.930 . S
C2911 C2910 1.394 . S
C2911 C2912 1.383 . S
C2911 H2919 0.929 . S
C2912 C2911 1.383 . S
C2912 C2913 1.377 . S
C2913 H2897 0.930 . S
C2913 C2912 1.377 . S
C2913 C2914 1.379 . S
C2914 H2898 0.931 . S
C2914 C2908 1.383 . S
C2914 C2913 1.379 . S
H2915 C2909 0.959 . S
H2916 C2909 0.961 . S
H2917 C2909 0.960 . S
H2918 C2910 0.930 . S
H2919 C2911 0.929 . S
H2920 C2928 0.929 . S
H2921 C2930 0.930 . S
H2922 C2932 0.930 . S
H2923 C2935 0.929 . S
H2924 C2938 0.930 . S
H2925 C2940 0.960 . S
H2926 C2940 0.960 . S
H2927 C2940 0.960 . S
C2928 H2920 0.929 . S
C2928 C2929 1.377 . S
C2928 C2930 1.384 . S
C2929 C2928 1.377 . S
C2929 C2935 1.390 . S
C2930 H2921 0.930 . S
C2930 C2928 1.384 . S
C2930 C2931 1.372 . S
C2931 C2930 1.372 . S
C2931 C2932 1.400 . S
C2931 C2936 1.490 . S
C2932 H2922 0.930 . S
C2932 C2931 1.400 . S
C2932 C2935 1.386 . S
H2933 C2949 0.930 . S
H2934 C2950 0.931 . S
C2935 H2923 0.929 . S
C2935 C2929 1.390 . S
C2935 C2932 1.386 . S
C2936 C2931 1.490 . S
C2936 C2938 1.395 . S
C2936 C2939 1.403 . S
H2937 C2943 0.930 . S
C2938 H2924 0.930 . S
C2938 C2936 1.395 . S
C2938 C2941 1.403 . S
C2939 C2936 1.403 . S
C2939 C2940 1.524 . S
C2939 C2943 1.400 . S
C2940 H2925 0.960 . S
C2940 H2926 0.960 . S
C2940 H2927 0.960 . S
C2940 C2939 1.524 . S
C2941 C2938 1.403 . S
C2941 C2942 1.392 . S
C2941 C2945 1.495 . S
C2942 C2941 1.392 . S
C2942 C2943 1.385 . S
C2942 C2944 1.478 . S
C2943 H2937 0.930 . S
C2943 C2939 1.400 . S
C2943 C2942 1.385 . S
C2944 C2942 1.478 . S
C2944 C2946 1.381 . S
C2944 C2950 1.383 . S
C2945 C2941 1.495 . S
C2945 H2951 0.959 . S
C2945 H2952 0.961 . S
C2945 H2953 0.960 . S
C2946 C2944 1.381 . S
C2946 C2947 1.394 . S
C2946 H2954 0.930 . S
C2947 C2946 1.394 . S
C2947 C2948 1.383 . S
C2947 H2955 0.929 . S
C2948 C2947 1.383 . S
C2948 C2949 1.377 . S
C2949 H2933 0.930 . S
C2949 C2948 1.377 . S
C2949 C2950 1.379 . S
C2950 H2934 0.931 . S
C2950 C2944 1.383 . S
C2950 C2949 1.379 . S
H2951 C2945 0.959 . S
H2952 C2945 0.961 . S
H2953 C2945 0.960 . S
H2954 C2946 0.930 . S
H2955 C2947 0.929 . S
H2956 C2964 0.929 . S
H2957 C2966 0.930 . S
H2958 C2968 0.930 . S
H2959 C2971 0.929 . S
H2960 C2974 0.930 . S
H2961 C2976 0.960 . S
H2962 C2976 0.960 . S
H2963 C2976 0.960 . S
C2964 H2956 0.929 . S
C2964 C2965 1.377 . S
C2964 C2966 1.384 . S
C2965 C2964 1.377 . S
C2965 C2971 1.390 . S
C2966 H2957 0.930 . S
C2966 C2964 1.384 . S
C2966 C2967 1.372 . S
C2967 C2966 1.372 . S
C2967 C2968 1.400 . S
C2967 C2972 1.490 . S
C2968 H2958 0.930 . S
C2968 C2967 1.400 . S
C2968 C2971 1.386 . S
H2969 C2985 0.930 . S
H2970 C2986 0.931 . S
C2971 H2959 0.929 . S
C2971 C2965 1.390 . S
C2971 C2968 1.386 . S
C2972 C2967 1.490 . S
C2972 C2974 1.395 . S
C2972 C2975 1.403 . S
H2973 C2979 0.930 . S
C2974 H2960 0.930 . S
C2974 C2972 1.395 . S
C2974 C2977 1.403 . S
C2975 C2972 1.403 . S
C2975 C2976 1.524 . S
C2975 C2979 1.400 . S
C2976 H2961 0.960 . S
C2976 H2962 0.960 . S
C2976 H2963 0.960 . S
C2976 C2975 1.524 . S
C2977 C2974 1.403 . S
C2977 C2978 1.392 . S
C2977 C2981 1.495 . S
C2978 C2977 1.392 . S
C2978 C2979 1.385 . S
C2978 C2980 1.478 . S
C2979 H2973 0.930 . S
C2979 C2975 1.400 . S
C2979 C2978 1.385 . S
C2980 C2978 1.478 . S
C2980 C2982 1.381 . S
C2980 C2986 1.383 . S
C2981 C2977 1.495 . S
C2981 H2987 0.959 . S
C2981 H2988 0.961 . S
C2981 H2989 0.960 . S
C2982 C2980 1.381 . S
C2982 C2983 1.394 . S
C2982 H2990 0.930 . S
C2983 C2982 1.394 . S
C2983 C2984 1.383 . S
C2983 H2991 0.929 . S
C2984 C2983 1.383 . S
C2984 C2985 1.377 . S
C2985 H2969 0.930 . S
C2985 C2984 1.377 . S
C2985 C2986 1.379 . S
C2986 H2970 0.931 . S
C2986 C2980 1.383 . S
C2986 C2985 1.379 . S
H2987 C2981 0.959 . S
H2988 C2981 0.961 . S
H2989 C2981 0.960 . S
H2990 C2982 0.930 . S
H2991 C2983 0.929 . S
H2992 C3000 0.929 . S
H2993 C3002 0.930 . S
H2994 C3004 0.930 . S
H2995 C3007 0.929 . S
H2996 C3010 0.930 . S
H2997 C3012 0.960 . S
H2998 C3012 0.960 . S
H2999 C3012 0.960 . S
C3000 H2992 0.929 . S
C3000 C3001 1.377 . S
C3000 C3002 1.384 . S
C3001 C3000 1.377 . S
C3001 C3007 1.390 . S
C3002 H2993 0.930 . S
C3002 C3000 1.384 . S
C3002 C3003 1.372 . S
C3003 C3002 1.372 . S
C3003 C3004 1.400 . S
C3003 C3008 1.490 . S
C3004 H2994 0.930 . S
C3004 C3003 1.400 . S
C3004 C3007 1.386 . S
H3005 C3021 0.930 . S
H3006 C3022 0.931 . S
C3007 H2995 0.929 . S
C3007 C3001 1.390 . S
C3007 C3004 1.386 . S
C3008 C3003 1.490 . S
C3008 C3010 1.395 . S
C3008 C3011 1.403 . S
H3009 C3015 0.930 . S
C3010 H2996 0.930 . S
C3010 C3008 1.395 . S
C3010 C3013 1.403 . S
C3011 C3008 1.403 . S
C3011 C3012 1.524 . S
C3011 C3015 1.400 . S
C3012 H2997 0.960 . S
C3012 H2998 0.960 . S
C3012 H2999 0.960 . S
C3012 C3011 1.524 . S
C3013 C3010 1.403 . S
C3013 C3014 1.392 . S
C3013 C3017 1.495 . S
C3014 C3013 1.392 . S
C3014 C3015 1.385 . S
C3014 C3016 1.478 . S
C3015 H3009 0.930 . S
C3015 C3011 1.400 . S
C3015 C3014 1.385 . S
C3016 C3014 1.478 . S
C3016 C3018 1.381 . S
C3016 C3022 1.383 . S
C3017 C3013 1.495 . S
C3017 H3023 0.959 . S
C3017 H3024 0.961 . S
C3017 H3025 0.960 . S
C3018 C3016 1.381 . S
C3018 C3019 1.394 . S
C3018 H3026 0.930 . S
C3019 C3018 1.394 . S
C3019 C3020 1.383 . S
C3019 H3027 0.929 . S
C3020 C3019 1.383 . S
C3020 C3021 1.377 . S
C3021 H3005 0.930 . S
C3021 C3020 1.377 . S
C3021 C3022 1.379 . S
C3022 H3006 0.931 . S
C3022 C3016 1.383 . S
C3022 C3021 1.379 . S
H3023 C3017 0.959 . S
H3024 C3017 0.961 . S
H3025 C3017 0.960 . S
H3026 C3018 0.930 . S
H3027 C3019 0.929 . S
H3028 C3036 0.929 . S
H3029 C3038 0.930 . S
H3030 C3040 0.930 . S
H3031 C3043 0.929 . S
H3032 C3046 0.930 . S
H3033 C3048 0.960 . S
H3034 C3048 0.960 . S
H3035 C3048 0.960 . S
C3036 H3028 0.929 . S
C3036 C3037 1.377 . S
C3036 C3038 1.384 . S
C3037 C3036 1.377 . S
C3037 C3043 1.390 . S
C3038 H3029 0.930 . S
C3038 C3036 1.384 . S
C3038 C3039 1.372 . S
C3039 C3038 1.372 . S
C3039 C3040 1.400 . S
C3039 C3044 1.490 . S
C3040 H3030 0.930 . S
C3040 C3039 1.400 . S
C3040 C3043 1.386 . S
H3041 C3057 0.930 . S
H3042 C3058 0.931 . S
C3043 H3031 0.929 . S
C3043 C3037 1.390 . S
C3043 C3040 1.386 . S
C3044 C3039 1.490 . S
C3044 C3046 1.395 . S
C3044 C3047 1.403 . S
H3045 C3051 0.930 . S
C3046 H3032 0.930 . S
C3046 C3044 1.395 . S
C3046 C3049 1.403 . S
C3047 C3044 1.403 . S
C3047 C3048 1.524 . S
C3047 C3051 1.400 . S
C3048 H3033 0.960 . S
C3048 H3034 0.960 . S
C3048 H3035 0.960 . S
C3048 C3047 1.524 . S
C3049 C3046 1.403 . S
C3049 C3050 1.392 . S
C3049 C3053 1.495 . S
C3050 C3049 1.392 . S
C3050 C3051 1.385 . S
C3050 C3052 1.478 . S
C3051 H3045 0.930 . S
C3051 C3047 1.400 . S
C3051 C3050 1.385 . S
C3052 C3050 1.478 . S
C3052 C3054 1.381 . S
C3052 C3058 1.383 . S
C3053 C3049 1.495 . S
C3053 H3059 0.959 . S
C3053 H3060 0.961 . S
C3053 H3061 0.960 . S
C3054 C3052 1.381 . S
C3054 C3055 1.394 . S
C3054 H3062 0.930 . S
C3055 C3054 1.394 . S
C3055 C3056 1.383 . S
C3055 H3063 0.929 . S
C3056 C3055 1.383 . S
C3056 C3057 1.377 . S
C3057 H3041 0.930 . S
C3057 C3056 1.377 . S
C3057 C3058 1.379 . S
C3058 H3042 0.931 . S
C3058 C3052 1.383 . S
C3058 C3057 1.379 . S
H3059 C3053 0.959 . S
H3060 C3053 0.961 . S
H3061 C3053 0.960 . S
H3062 C3054 0.930 . S
H3063 C3055 0.929 . S
H3064 C3072 0.929 . S
H3065 C3074 0.930 . S
H3066 C3076 0.930 . S
H3067 C3079 0.929 . S
H3068 C3082 0.930 . S
H3069 C3084 0.960 . S
H3070 C3084 0.960 . S
H3071 C3084 0.960 . S
C3072 H3064 0.929 . S
C3072 C3073 1.377 . S
C3072 C3074 1.384 . S
C3073 C3072 1.377 . S
C3073 C3079 1.390 . S
C3074 H3065 0.930 . S
C3074 C3072 1.384 . S
C3074 C3075 1.372 . S
C3075 C3074 1.372 . S
C3075 C3076 1.400 . S
C3075 C3080 1.490 . S
C3076 H3066 0.930 . S
C3076 C3075 1.400 . S
C3076 C3079 1.386 . S
H3077 C3093 0.930 . S
H3078 C3094 0.931 . S
C3079 H3067 0.929 . S
C3079 C3073 1.390 . S
C3079 C3076 1.386 . S
C3080 C3075 1.490 . S
C3080 C3082 1.395 . S
C3080 C3083 1.403 . S
H3081 C3087 0.930 . S
C3082 H3068 0.930 . S
C3082 C3080 1.395 . S
C3082 C3085 1.403 . S
C3083 C3080 1.403 . S
C3083 C3084 1.524 . S
C3083 C3087 1.400 . S
C3084 H3069 0.960 . S
C3084 H3070 0.960 . S
C3084 H3071 0.960 . S
C3084 C3083 1.524 . S
C3085 C3082 1.403 . S
C3085 C3086 1.392 . S
C3085 C3089 1.495 . S
C3086 C3085 1.392 . S
C3086 C3087 1.385 . S
C3086 C3088 1.478 . S
C3087 H3081 0.930 . S
C3087 C3083 1.400 . S
C3087 C3086 1.385 . S
C3088 C3086 1.478 . S
C3088 C3090 1.381 . S
C3088 C3094 1.383 . S
C3089 C3085 1.495 . S
C3089 H3095 0.959 . S
C3089 H3096 0.961 . S
C3089 H3097 0.960 . S
C3090 C3088 1.381 . S
C3090 C3091 1.394 . S
C3090 H3098 0.930 . S
C3091 C3090 1.394 . S
C3091 C3092 1.383 . S
C3091 H3099 0.929 . S
C3092 C3091 1.383 . S
C3092 C3093 1.377 . S
C3093 H3077 0.930 . S
C3093 C3092 1.377 . S
C3093 C3094 1.379 . S
C3094 H3078 0.931 . S
C3094 C3088 1.383 . S
C3094 C3093 1.379 . S
H3095 C3089 0.959 . S
H3096 C3089 0.961 . S
H3097 C3089 0.960 . S
H3098 C3090 0.930 . S
H3099 C3091 0.929 . S
H3100 C3108 0.929 . S
H3101 C3110 0.930 . S
H3102 C3112 0.930 . S
H3103 C3115 0.929 . S
H3104 C3118 0.930 . S
H3105 C3120 0.960 . S
H3106 C3120 0.960 . S
H3107 C3120 0.960 . S
C3108 H3100 0.929 . S
C3108 C3109 1.377 . S
C3108 C3110 1.384 . S
C3109 C3108 1.377 . S
C3109 C3115 1.390 . S
C3110 H3101 0.930 . S
C3110 C3108 1.384 . S
C3110 C3111 1.372 . S
C3111 C3110 1.372 . S
C3111 C3112 1.400 . S
C3111 C3116 1.490 . S
C3112 H3102 0.930 . S
C3112 C3111 1.400 . S
C3112 C3115 1.386 . S
H3113 C3129 0.930 . S
H3114 C3130 0.931 . S
C3115 H3103 0.929 . S
C3115 C3109 1.390 . S
C3115 C3112 1.386 . S
C3116 C3111 1.490 . S
C3116 C3118 1.395 . S
C3116 C3119 1.403 . S
H3117 C3123 0.930 . S
C3118 H3104 0.930 . S
C3118 C3116 1.395 . S
C3118 C3121 1.403 . S
C3119 C3116 1.403 . S
C3119 C3120 1.524 . S
C3119 C3123 1.400 . S
C3120 H3105 0.960 . S
C3120 H3106 0.960 . S
C3120 H3107 0.960 . S
C3120 C3119 1.524 . S
C3121 C3118 1.403 . S
C3121 C3122 1.392 . S
C3121 C3125 1.495 . S
C3122 C3121 1.392 . S
C3122 C3123 1.385 . S
C3122 C3124 1.478 . S
C3123 H3117 0.930 . S
C3123 C3119 1.400 . S
C3123 C3122 1.385 . S
C3124 C3122 1.478 . S
C3124 C3126 1.381 . S
C3124 C3130 1.383 . S
C3125 C3121 1.495 . S
C3125 H3131 0.959 . S
C3125 H3132 0.961 . S
C3125 H3133 0.960 . S
C3126 C3124 1.381 . S
C3126 C3127 1.394 . S
C3126 H3134 0.930 . S
C3127 C3126 1.394 . S
C3127 C3128 1.383 . S
C3127 H3135 0.929 . S
C3128 C3127 1.383 . S
C3128 C3129 1.377 . S
C3129 H3113 0.930 . S
C3129 C3128 1.377 . S
C3129 C3130 1.379 . S
C3130 H3114 0.931 . S
C3130 C3124 1.383 . S
C3130 C3129 1.379 . S
H3131 C3125 0.959 . S
H3132 C3125 0.961 . S
H3133 C3125 0.960 . S
H3134 C3126 0.930 . S
H3135 C3127 0.929 . S
H3136 C3144 0.929 . S
H3137 C3146 0.930 . S
H3138 C3148 0.930 . S
H3139 C3151 0.929 . S
H3140 C3154 0.930 . S
H3141 C3156 0.960 . S
H3142 C3156 0.960 . S
H3143 C3156 0.960 . S
C3144 H3136 0.929 . S
C3144 C3145 1.377 . S
C3144 C3146 1.384 . S
C3145 C3144 1.377 . S
C3145 C3151 1.390 . S
C3146 H3137 0.930 . S
C3146 C3144 1.384 . S
C3146 C3147 1.372 . S
C3147 C3146 1.372 . S
C3147 C3148 1.400 . S
C3147 C3152 1.490 . S
C3148 H3138 0.930 . S
C3148 C3147 1.400 . S
C3148 C3151 1.386 . S
H3149 C3165 0.930 . S
H3150 C3166 0.931 . S
C3151 H3139 0.929 . S
C3151 C3145 1.390 . S
C3151 C3148 1.386 . S
C3152 C3147 1.490 . S
C3152 C3154 1.395 . S
C3152 C3155 1.403 . S
H3153 C3159 0.930 . S
C3154 H3140 0.930 . S
C3154 C3152 1.395 . S
C3154 C3157 1.403 . S
C3155 C3152 1.403 . S
C3155 C3156 1.524 . S
C3155 C3159 1.400 . S
C3156 H3141 0.960 . S
C3156 H3142 0.960 . S
C3156 H3143 0.960 . S
C3156 C3155 1.524 . S
C3157 C3154 1.403 . S
C3157 C3158 1.392 . S
C3157 C3161 1.495 . S
C3158 C3157 1.392 . S
C3158 C3159 1.385 . S
C3158 C3160 1.478 . S
C3159 H3153 0.930 . S
C3159 C3155 1.400 . S
C3159 C3158 1.385 . S
C3160 C3158 1.478 . S
C3160 C3162 1.381 . S
C3160 C3166 1.383 . S
C3161 C3157 1.495 . S
C3161 H3167 0.959 . S
C3161 H3168 0.961 . S
C3161 H3169 0.960 . S
C3162 C3160 1.381 . S
C3162 C3163 1.394 . S
C3162 H3170 0.930 . S
C3163 C3162 1.394 . S
C3163 C3164 1.383 . S
C3163 H3171 0.929 . S
C3164 C3163 1.383 . S
C3164 C3165 1.377 . S
C3165 H3149 0.930 . S
C3165 C3164 1.377 . S
C3165 C3166 1.379 . S
C3166 H3150 0.931 . S
C3166 C3160 1.383 . S
C3166 C3165 1.379 . S
H3167 C3161 0.959 . S
H3168 C3161 0.961 . S
H3169 C3161 0.960 . S
H3170 C3162 0.930 . S
H3171 C3163 0.929 . S
H3172 C3180 0.929 . S
H3173 C3182 0.930 . S
H3174 C3184 0.930 . S
H3175 C3187 0.929 . S
H3176 C3190 0.930 . S
H3177 C3192 0.960 . S
H3178 C3192 0.960 . S
H3179 C3192 0.960 . S
C3180 H3172 0.929 . S
C3180 C3181 1.377 . S
C3180 C3182 1.384 . S
C3181 C3180 1.377 . S
C3181 C3187 1.390 . S
C3182 H3173 0.930 . S
C3182 C3180 1.384 . S
C3182 C3183 1.372 . S
C3183 C3182 1.372 . S
C3183 C3184 1.400 . S
C3183 C3188 1.490 . S
C3184 H3174 0.930 . S
C3184 C3183 1.400 . S
C3184 C3187 1.386 . S
H3185 C3201 0.930 . S
H3186 C3202 0.931 . S
C3187 H3175 0.929 . S
C3187 C3181 1.390 . S
C3187 C3184 1.386 . S
C3188 C3183 1.490 . S
C3188 C3190 1.395 . S
C3188 C3191 1.403 . S
H3189 C3195 0.930 . S
C3190 H3176 0.930 . S
C3190 C3188 1.395 . S
C3190 C3193 1.403 . S
C3191 C3188 1.403 . S
C3191 C3192 1.524 . S
C3191 C3195 1.400 . S
C3192 H3177 0.960 . S
C3192 H3178 0.960 . S
C3192 H3179 0.960 . S
C3192 C3191 1.524 . S
C3193 C3190 1.403 . S
C3193 C3194 1.392 . S
C3193 C3197 1.495 . S
C3194 C3193 1.392 . S
C3194 C3195 1.385 . S
C3194 C3196 1.478 . S
C3195 H3189 0.930 . S
C3195 C3191 1.400 . S
C3195 C3194 1.385 . S
C3196 C3194 1.478 . S
C3196 C3198 1.381 . S
C3196 C3202 1.383 . S
C3197 C3193 1.495 . S
C3197 H3203 0.959 . S
C3197 H3204 0.961 . S
C3197 H3205 0.960 . S
C3198 C3196 1.381 . S
C3198 C3199 1.394 . S
C3198 H3206 0.930 . S
C3199 C3198 1.394 . S
C3199 C3200 1.383 . S
C3199 H3207 0.929 . S
C3200 C3199 1.383 . S
C3200 C3201 1.377 . S
C3201 H3185 0.930 . S
C3201 C3200 1.377 . S
C3201 C3202 1.379 . S
C3202 H3186 0.931 . S
C3202 C3196 1.383 . S
C3202 C3201 1.379 . S
H3203 C3197 0.959 . S
H3204 C3197 0.961 . S
H3205 C3197 0.960 . S
H3206 C3198 0.930 . S
H3207 C3199 0.929 . S
H3208 C3216 0.929 . S
H3209 C3218 0.930 . S
H3210 C3220 0.930 . S
H3211 C3223 0.929 . S
H3212 C3226 0.930 . S
H3213 C3228 0.960 . S
H3214 C3228 0.960 . S
H3215 C3228 0.960 . S
C3216 H3208 0.929 . S
C3216 C3217 1.377 . S
C3216 C3218 1.384 . S
C3217 C3216 1.377 . S
C3217 C3223 1.390 . S
C3218 H3209 0.930 . S
C3218 C3216 1.384 . S
C3218 C3219 1.372 . S
C3219 C3218 1.372 . S
C3219 C3220 1.400 . S
C3219 C3224 1.490 . S
C3220 H3210 0.930 . S
C3220 C3219 1.400 . S
C3220 C3223 1.386 . S
H3221 C3237 0.930 . S
H3222 C3238 0.931 . S
C3223 H3211 0.929 . S
C3223 C3217 1.390 . S
C3223 C3220 1.386 . S
C3224 C3219 1.490 . S
C3224 C3226 1.395 . S
C3224 C3227 1.403 . S
H3225 C3231 0.930 . S
C3226 H3212 0.930 . S
C3226 C3224 1.395 . S
C3226 C3229 1.403 . S
C3227 C3224 1.403 . S
C3227 C3228 1.524 . S
C3227 C3231 1.400 . S
C3228 H3213 0.960 . S
C3228 H3214 0.960 . S
C3228 H3215 0.960 . S
C3228 C3227 1.524 . S
C3229 C3226 1.403 . S
C3229 C3230 1.392 . S
C3229 C3233 1.495 . S
C3230 C3229 1.392 . S
C3230 C3231 1.385 . S
C3230 C3232 1.478 . S
C3231 H3225 0.930 . S
C3231 C3227 1.400 . S
C3231 C3230 1.385 . S
C3232 C3230 1.478 . S
C3232 C3234 1.381 . S
C3232 C3238 1.383 . S
C3233 C3229 1.495 . S
C3233 H3239 0.959 . S
C3233 H3240 0.961 . S
C3233 H3241 0.960 . S
C3234 C3232 1.381 . S
C3234 C3235 1.394 . S
C3234 H3242 0.930 . S
C3235 C3234 1.394 . S
C3235 C3236 1.383 . S
C3235 H3243 0.929 . S
C3236 C3235 1.383 . S
C3236 C3237 1.377 . S
C3237 H3221 0.930 . S
C3237 C3236 1.377 . S
C3237 C3238 1.379 . S
C3238 H3222 0.931 . S
C3238 C3232 1.383 . S
C3238 C3237 1.379 . S
H3239 C3233 0.959 . S
H3240 C3233 0.961 . S
H3241 C3233 0.960 . S
H3242 C3234 0.930 . S
H3243 C3235 0.929 . S
H3244 C3252 0.929 . S
H3245 C3254 0.930 . S
H3246 C3256 0.930 . S
H3247 C3259 0.929 . S
H3248 C3262 0.930 . S
H3249 C3264 0.960 . S
H3250 C3264 0.960 . S
H3251 C3264 0.960 . S
C3252 H3244 0.929 . S
C3252 C3253 1.377 . S
C3252 C3254 1.384 . S
C3253 C3252 1.377 . S
C3253 C3259 1.390 . S
C3254 H3245 0.930 . S
C3254 C3252 1.384 . S
C3254 C3255 1.372 . S
C3255 C3254 1.372 . S
C3255 C3256 1.400 . S
C3255 C3260 1.490 . S
C3256 H3246 0.930 . S
C3256 C3255 1.400 . S
C3256 C3259 1.386 . S
H3257 C3273 0.930 . S
H3258 C3274 0.931 . S
C3259 H3247 0.929 . S
C3259 C3253 1.390 . S
C3259 C3256 1.386 . S
C3260 C3255 1.490 . S
C3260 C3262 1.395 . S
C3260 C3263 1.403 . S
H3261 C3267 0.930 . S
C3262 H3248 0.930 . S
C3262 C3260 1.395 . S
C3262 C3265 1.403 1_655 S
C3263 C3260 1.403 . S
C3263 C3264 1.524 . S
C3263 C3267 1.400 . S
C3264 H3249 0.960 . S
C3264 H3250 0.960 . S
C3264 H3251 0.960 . S
C3264 C3263 1.524 . S
C3265 C3262 1.403 1_455 S
C3265 C3266 1.392 . S
C3265 C3269 1.495 . S
C3266 C3265 1.392 . S
C3266 C3267 1.385 1_455 S
C3266 C3268 1.478 . S
C3267 H3261 0.930 . S
C3267 C3263 1.400 . S
C3267 C3266 1.385 1_655 S
C3268 C3266 1.478 . S
C3268 C3270 1.381 . S
C3268 C3274 1.383 . S
C3269 C3265 1.495 . S
C3269 H3275 0.959 . S
C3269 H3276 0.961 . S
C3269 H3277 0.960 . S
C3270 C3268 1.381 . S
C3270 C3271 1.394 . S
C3270 H3278 0.930 . S
C3271 C3270 1.394 . S
C3271 C3272 1.383 . S
C3271 H3279 0.929 . S
C3272 C3271 1.383 . S
C3272 C3273 1.377 . S
C3273 H3257 0.930 . S
C3273 C3272 1.377 . S
C3273 C3274 1.379 . S
C3274 H3258 0.931 . S
C3274 C3268 1.383 . S
C3274 C3273 1.379 . S
H3275 C3269 0.959 . S
H3276 C3269 0.961 . S
H3277 C3269 0.960 . S
H3278 C3270 0.930 . S
H3279 C3271 0.929 . S
H3280 C3288 0.929 . S
H3281 C3290 0.930 . S
H3282 C3292 0.930 . S
H3283 C3295 0.929 . S
H3284 C3298 0.930 . S
H3285 C3300 0.960 . S
H3286 C3300 0.960 . S
H3287 C3300 0.960 . S
C3288 H3280 0.929 . S
C3288 C3289 1.377 . S
C3288 C3290 1.384 . S
C3289 C3288 1.377 . S
C3289 C3295 1.390 . S
C3290 H3281 0.930 . S
C3290 C3288 1.384 . S
C3290 C3291 1.372 . S
C3291 C3290 1.372 . S
C3291 C3292 1.400 . S
C3291 C3296 1.490 . S
C3292 H3282 0.930 . S
C3292 C3291 1.400 . S
C3292 C3295 1.386 . S
H3293 C3309 0.930 . S
H3294 C3310 0.931 . S
C3295 H3283 0.929 . S
C3295 C3289 1.390 . S
C3295 C3292 1.386 . S
C3296 C3291 1.490 . S
C3296 C3298 1.395 . S
C3296 C3299 1.403 . S
H3297 C3303 0.930 . S
C3298 H3284 0.930 . S
C3298 C3296 1.395 . S
C3298 C3301 1.403 . S
C3299 C3296 1.403 . S
C3299 C3300 1.524 . S
C3299 C3303 1.400 . S
C3300 H3285 0.960 . S
C3300 H3286 0.960 . S
C3300 H3287 0.960 . S
C3300 C3299 1.524 . S
C3301 C3298 1.403 . S
C3301 C3302 1.392 . S
C3301 C3305 1.495 . S
C3302 C3301 1.392 . S
C3302 C3303 1.385 . S
C3302 C3304 1.478 . S
C3303 H3297 0.930 . S
C3303 C3299 1.400 . S
C3303 C3302 1.385 . S
C3304 C3302 1.478 . S
C3304 C3306 1.381 . S
C3304 C3310 1.383 . S
C3305 C3301 1.495 . S
C3305 H3311 0.959 . S
C3305 H3312 0.961 . S
C3305 H3313 0.960 . S
C3306 C3304 1.381 . S
C3306 C3307 1.394 . S
C3306 H3314 0.930 . S
C3307 C3306 1.394 . S
C3307 C3308 1.383 . S
C3307 H3315 0.929 . S
C3308 C3307 1.383 . S
C3308 C3309 1.377 . S
C3309 H3293 0.930 . S
C3309 C3308 1.377 . S
C3309 C3310 1.379 . S
C3310 H3294 0.931 . S
C3310 C3304 1.383 . S
C3310 C3309 1.379 . S
H3311 C3305 0.959 . S
H3312 C3305 0.961 . S
H3313 C3305 0.960 . S
H3314 C3306 0.930 . S
H3315 C3307 0.929 . S
H3316 C3324 0.929 . S
H3317 C3326 0.930 . S
H3318 C3328 0.930 . S
H3319 C3331 0.929 . S
H3320 C3334 0.930 . S
H3321 C3336 0.960 1_554 S
H3322 C3336 0.960 . S
H3323 C3336 0.960 . S
C3324 H3316 0.929 . S
C3324 C3325 1.377 . S
C3324 C3326 1.384 . S
C3325 C3324 1.377 . S
C3325 C3331 1.390 . S
C3326 H3317 0.930 . S
C3326 C3324 1.384 . S
C3326 C3327 1.372 . S
C3327 C3326 1.372 . S
C3327 C3328 1.400 . S
C3327 C3332 1.490 . S
C3328 H3318 0.930 . S
C3328 C3327 1.400 . S
C3328 C3331 1.386 . S
H3329 C3345 0.930 . S
H3330 C3346 0.931 . S
C3331 H3319 0.929 . S
C3331 C3325 1.390 . S
C3331 C3328 1.386 . S
C3332 C3327 1.490 . S
C3332 C3334 1.395 . S
C3332 C3335 1.403 . S
H3333 C3339 0.930 . S
C3334 H3320 0.930 . S
C3334 C3332 1.395 . S
C3334 C3337 1.403 . S
C3335 C3332 1.403 . S
C3335 C3336 1.524 . S
C3335 C3339 1.400 1_556 S
C3336 H3321 0.960 1_556 S
C3336 H3322 0.960 . S
C3336 H3323 0.960 . S
C3336 C3335 1.524 . S
C3337 C3334 1.403 . S
C3337 C3338 1.392 1_556 S
C3337 C3341 1.495 . S
C3338 C3337 1.392 1_554 S
C3338 C3339 1.385 . S
C3338 C3340 1.478 . S
C3339 H3333 0.930 . S
C3339 C3335 1.400 1_554 S
C3339 C3338 1.385 . S
C3340 C3338 1.478 . S
C3340 C3342 1.381 . S
C3340 C3346 1.383 . S
C3341 C3337 1.495 . S
C3341 H3347 0.959 . S
C3341 H3348 0.961 . S
C3341 H3349 0.960 . S
C3342 C3340 1.381 . S
C3342 C3343 1.394 . S
C3342 H3350 0.930 . S
C3343 C3342 1.394 . S
C3343 C3344 1.383 . S
C3343 H3351 0.929 . S
C3344 C3343 1.383 . S
C3344 C3345 1.377 . S
C3345 H3329 0.930 . S
C3345 C3344 1.377 . S
C3345 C3346 1.379 . S
C3346 H3330 0.931 . S
C3346 C3340 1.383 . S
C3346 C3345 1.379 . S
H3347 C3341 0.959 . S
H3348 C3341 0.961 . S
H3349 C3341 0.960 . S
H3350 C3342 0.930 . S
H3351 C3343 0.929 . S
H3352 C3360 0.929 . S
H3353 C3362 0.930 . S
H3354 C3364 0.930 . S
H3355 C3367 0.929 . S
H3356 C3370 0.930 . S
H3357 C3372 0.960 . S
H3358 C3372 0.960 . S
H3359 C3372 0.960 . S
C3360 H3352 0.929 . S
C3360 C3361 1.377 . S
C3360 C3362 1.384 . S
C3361 C3360 1.377 . S
C3361 C3367 1.390 . S
C3362 H3353 0.930 . S
C3362 C3360 1.384 . S
C3362 C3363 1.372 . S
C3363 C3362 1.372 . S
C3363 C3364 1.400 . S
C3363 C3368 1.490 . S
C3364 H3354 0.930 . S
C3364 C3363 1.400 . S
C3364 C3367 1.386 . S
H3365 C3381 0.930 . S
H3366 C3382 0.931 . S
C3367 H3355 0.929 . S
C3367 C3361 1.390 . S
C3367 C3364 1.386 . S
C3368 C3363 1.490 . S
C3368 C3370 1.395 . S
C3368 C3371 1.403 . S
H3369 C3375 0.930 . S
C3370 H3356 0.930 . S
C3370 C3368 1.395 . S
C3370 C3373 1.403 . S
C3371 C3368 1.403 . S
C3371 C3372 1.524 . S
C3371 C3375 1.400 . S
C3372 H3357 0.960 . S
C3372 H3358 0.960 . S
C3372 H3359 0.960 . S
C3372 C3371 1.524 . S
C3373 C3370 1.403 . S
C3373 C3374 1.392 . S
C3373 C3377 1.495 . S
C3374 C3373 1.392 . S
C3374 C3375 1.385 . S
C3374 C3376 1.478 . S
C3375 H3369 0.930 . S
C3375 C3371 1.400 . S
C3375 C3374 1.385 . S
C3376 C3374 1.478 . S
C3376 C3378 1.381 . S
C3376 C3382 1.383 . S
C3377 C3373 1.495 . S
C3377 H3383 0.959 . S
C3377 H3384 0.961 . S
C3377 H3385 0.960 . S
C3378 C3376 1.381 . S
C3378 C3379 1.394 . S
C3378 H3386 0.930 . S
C3379 C3378 1.394 . S
C3379 C3380 1.383 . S
C3379 H3387 0.929 . S
C3380 C3379 1.383 . S
C3380 C3381 1.377 . S
C3381 H3365 0.930 . S
C3381 C3380 1.377 . S
C3381 C3382 1.379 . S
C3382 H3366 0.931 . S
C3382 C3376 1.383 . S
C3382 C3381 1.379 . S
H3383 C3377 0.959 . S
H3384 C3377 0.961 . S
H3385 C3377 0.960 . S
H3386 C3378 0.930 . S
H3387 C3379 0.929 . S
H3388 C3396 0.929 1_655 S
H3389 C3398 0.930 . S
H3390 C3400 0.930 . S
H3391 C3403 0.929 . S
H3392 C3406 0.930 . S
H3393 C3408 0.960 . S
H3394 C3408 0.960 . S
H3395 C3408 0.960 . S
C3396 H3388 0.929 1_455 S
C3396 C3397 1.377 . S
C3396 C3398 1.384 . S
C3397 C3396 1.377 . S
C3397 C3403 1.390 . S
C3398 H3389 0.930 . S
C3398 C3396 1.384 . S
C3398 C3399 1.372 . S
C3399 C3398 1.372 . S
C3399 C3400 1.400 . S
C3399 C3404 1.490 . S
C3400 H3390 0.930 . S
C3400 C3399 1.400 . S
C3400 C3403 1.386 . S
H3401 C3417 0.930 . S
H3402 C3418 0.931 . S
C3403 H3391 0.929 . S
C3403 C3397 1.390 . S
C3403 C3400 1.386 . S
C3404 C3399 1.490 . S
C3404 C3406 1.395 . S
C3404 C3407 1.403 . S
H3405 C3411 0.930 . S
C3406 H3392 0.930 . S
C3406 C3404 1.395 . S
C3406 C3409 1.403 . S
C3407 C3404 1.403 . S
C3407 C3408 1.524 . S
C3407 C3411 1.400 . S
C3408 H3393 0.960 . S
C3408 H3394 0.960 . S
C3408 H3395 0.960 . S
C3408 C3407 1.524 . S
C3409 C3406 1.403 . S
C3409 C3410 1.392 . S
C3409 C3413 1.495 . S
C3410 C3409 1.392 . S
C3410 C3411 1.385 . S
C3410 C3412 1.478 . S
C3411 H3405 0.930 . S
C3411 C3407 1.400 . S
C3411 C3410 1.385 . S
C3412 C3410 1.478 . S
C3412 C3414 1.381 . S
C3412 C3418 1.383 . S
C3413 C3409 1.495 . S
C3413 H3419 0.959 . S
C3413 H3420 0.961 . S
C3413 H3421 0.960 . S
C3414 C3412 1.381 . S
C3414 C3415 1.394 . S
C3414 H3422 0.930 . S
C3415 C3414 1.394 . S
C3415 C3416 1.383 . S
C3415 H3423 0.929 . S
C3416 C3415 1.383 . S
C3416 C3417 1.377 . S
C3417 H3401 0.930 . S
C3417 C3416 1.377 . S
C3417 C3418 1.379 . S
C3418 H3402 0.931 . S
C3418 C3412 1.383 . S
C3418 C3417 1.379 . S
H3419 C3413 0.959 . S
H3420 C3413 0.961 . S
H3421 C3413 0.960 . S
H3422 C3414 0.930 . S
H3423 C3415 0.929 . S
H3424 C3432 0.929 . S
H3425 C3434 0.930 . S
H3426 C3436 0.930 . S
H3427 C3439 0.929 . S
H3428 C3442 0.930 . S
H3429 C3444 0.960 . S
H3430 C3444 0.960 . S
H3431 C3444 0.960 . S
C3432 H3424 0.929 . S
C3432 C3433 1.377 . S
C3432 C3434 1.384 . S
C3433 C3432 1.377 . S
C3433 C3439 1.390 . S
C3434 H3425 0.930 . S
C3434 C3432 1.384 . S
C3434 C3435 1.372 . S
C3435 C3434 1.372 . S
C3435 C3436 1.400 . S
C3435 C3440 1.490 . S
C3436 H3426 0.930 . S
C3436 C3435 1.400 . S
C3436 C3439 1.386 . S
H3437 C3453 0.930 . S
H3438 C3454 0.931 . S
C3439 H3427 0.929 . S
C3439 C3433 1.390 . S
C3439 C3436 1.386 . S
C3440 C3435 1.490 . S
C3440 C3442 1.395 . S
C3440 C3443 1.403 . S
H3441 C3447 0.930 . S
C3442 H3428 0.930 . S
C3442 C3440 1.395 . S
C3442 C3445 1.403 . S
C3443 C3440 1.403 . S
C3443 C3444 1.524 . S
C3443 C3447 1.400 . S
C3444 H3429 0.960 . S
C3444 H3430 0.960 . S
C3444 H3431 0.960 . S
C3444 C3443 1.524 . S
C3445 C3442 1.403 . S
C3445 C3446 1.392 . S
C3445 C3449 1.495 . S
C3446 C3445 1.392 . S
C3446 C3447 1.385 . S
C3446 C3448 1.478 . S
C3447 H3441 0.930 . S
C3447 C3443 1.400 . S
C3447 C3446 1.385 . S
C3448 C3446 1.478 . S
C3448 C3450 1.381 . S
C3448 C3454 1.383 . S
C3449 C3445 1.495 . S
C3449 H3455 0.959 . S
C3449 H3456 0.961 . S
C3449 H3457 0.960 . S
C3450 C3448 1.381 . S
C3450 C3451 1.394 . S
C3450 H3458 0.930 . S
C3451 C3450 1.394 . S
C3451 C3452 1.383 . S
C3451 H3459 0.929 . S
C3452 C3451 1.383 . S
C3452 C3453 1.377 . S
C3453 H3437 0.930 . S
C3453 C3452 1.377 . S
C3453 C3454 1.379 . S
C3454 H3438 0.931 . S
C3454 C3448 1.383 . S
C3454 C3453 1.379 . S
H3455 C3449 0.959 . S
H3456 C3449 0.961 . S
H3457 C3449 0.960 . S
H3458 C3450 0.930 . S
H3459 C3451 0.929 . S
H3460 C3468 0.929 . S
H3461 C3470 0.930 . S
H3462 C3472 0.930 . S
H3463 C3475 0.929 . S
H3464 C3478 0.930 . S
H3465 C3480 0.960 . S
H3466 C3480 0.960 . S
H3467 C3480 0.960 . S
C3468 H3460 0.929 . S
C3468 C3469 1.377 . S
C3468 C3470 1.384 . S
C3469 C3468 1.377 . S
C3469 C3475 1.390 . S
C3470 H3461 0.930 . S
C3470 C3468 1.384 . S
C3470 C3471 1.372 . S
C3471 C3470 1.372 . S
C3471 C3472 1.400 . S
C3471 C3476 1.490 . S
C3472 H3462 0.930 . S
C3472 C3471 1.400 . S
C3472 C3475 1.386 . S
H3473 C3489 0.930 . S
H3474 C3490 0.931 . S
C3475 H3463 0.929 . S
C3475 C3469 1.390 . S
C3475 C3472 1.386 . S
C3476 C3471 1.490 . S
C3476 C3478 1.395 . S
C3476 C3479 1.403 . S
H3477 C3483 0.930 1_556 S
C3478 H3464 0.930 . S
C3478 C3476 1.395 . S
C3478 C3481 1.403 . S
C3479 C3476 1.403 . S
C3479 C3480 1.524 . S
C3479 C3483 1.400 . S
C3480 H3465 0.960 . S
C3480 H3466 0.960 . S
C3480 H3467 0.960 . S
C3480 C3479 1.524 . S
C3481 C3478 1.403 . S
C3481 C3482 1.392 1_554 S
C3481 C3485 1.495 1_554 S
C3482 C3481 1.392 1_556 S
C3482 C3483 1.385 1_556 S
C3482 C3484 1.478 . S
C3483 H3477 0.930 1_554 S
C3483 C3479 1.400 . S
C3483 C3482 1.385 1_554 S
C3484 C3482 1.478 . S
C3484 C3486 1.381 . S
C3484 C3490 1.383 . S
C3485 C3481 1.495 1_556 S
C3485 H3491 0.959 1_556 S
C3485 H3492 0.961 . S
C3485 H3493 0.960 . S
C3486 C3484 1.381 . S
C3486 C3487 1.394 . S
C3486 H3494 0.930 . S
C3487 C3486 1.394 . S
C3487 C3488 1.383 . S
C3487 H3495 0.929 . S
C3488 C3487 1.383 . S
C3488 C3489 1.377 . S
C3489 H3473 0.930 . S
C3489 C3488 1.377 . S
C3489 C3490 1.379 . S
C3490 H3474 0.931 . S
C3490 C3484 1.383 . S
C3490 C3489 1.379 . S
H3491 C3485 0.959 1_554 S
H3492 C3485 0.961 . S
H3493 C3485 0.960 . S
H3494 C3486 0.930 . S
H3495 C3487 0.929 . S
H3496 C3504 0.929 . S
H3497 C3506 0.930 . S
H3498 C3508 0.930 . S
H3499 C3511 0.929 . S
H3500 C3514 0.930 . S
H3501 C3516 0.960 . S
H3502 C3516 0.960 . S
H3503 C3516 0.960 . S
C3504 H3496 0.929 . S
C3504 C3505 1.377 . S
C3504 C3506 1.384 . S
C3505 C3504 1.377 . S
C3505 C3511 1.390 . S
C3506 H3497 0.930 . S
C3506 C3504 1.384 . S
C3506 C3507 1.372 . S
C3507 C3506 1.372 . S
C3507 C3508 1.400 . S
C3507 C3512 1.490 . S
C3508 H3498 0.930 . S
C3508 C3507 1.400 . S
C3508 C3511 1.386 . S
H3509 C3525 0.930 . S
H3510 C3526 0.931 . S
C3511 H3499 0.929 . S
C3511 C3505 1.390 . S
C3511 C3508 1.386 . S
C3512 C3507 1.490 . S
C3512 C3514 1.395 . S
C3512 C3515 1.403 . S
H3513 C3519 0.930 . S
C3514 H3500 0.930 . S
C3514 C3512 1.395 . S
C3514 C3517 1.403 . S
C3515 C3512 1.403 . S
C3515 C3516 1.524 . S
C3515 C3519 1.400 . S
C3516 H3501 0.960 . S
C3516 H3502 0.960 . S
C3516 H3503 0.960 . S
C3516 C3515 1.524 . S
C3517 C3514 1.403 . S
C3517 C3518 1.392 . S
C3517 C3521 1.495 . S
C3518 C3517 1.392 . S
C3518 C3519 1.385 . S
C3518 C3520 1.478 . S
C3519 H3513 0.930 . S
C3519 C3515 1.400 . S
C3519 C3518 1.385 . S
C3520 C3518 1.478 . S
C3520 C3522 1.381 . S
C3520 C3526 1.383 . S
C3521 C3517 1.495 . S
C3521 H3527 0.959 . S
C3521 H3528 0.961 . S
C3521 H3529 0.960 . S
C3522 C3520 1.381 . S
C3522 C3523 1.394 . S
C3522 H3530 0.930 . S
C3523 C3522 1.394 . S
C3523 C3524 1.383 . S
C3523 H3531 0.929 . S
C3524 C3523 1.383 . S
C3524 C3525 1.377 . S
C3525 H3509 0.930 . S
C3525 C3524 1.377 . S
C3525 C3526 1.379 . S
C3526 H3510 0.931 . S
C3526 C3520 1.383 . S
C3526 C3525 1.379 . S
H3527 C3521 0.959 . S
H3528 C3521 0.961 . S
H3529 C3521 0.960 . S
H3530 C3522 0.930 . S
H3531 C3523 0.929 . S
H3532 C3540 0.929 . S
H3533 C3542 0.930 . S
H3534 C3544 0.930 . S
H3535 C3547 0.929 . S
H3536 C3550 0.930 . S
H3537 C3552 0.960 . S
H3538 C3552 0.960 . S
H3539 C3552 0.960 . S
C3540 H3532 0.929 . S
C3540 C3541 1.377 . S
C3540 C3542 1.384 . S
C3541 C3540 1.377 . S
C3541 C3547 1.390 . S
C3542 H3533 0.930 . S
C3542 C3540 1.384 . S
C3542 C3543 1.372 . S
C3543 C3542 1.372 . S
C3543 C3544 1.400 . S
C3543 C3548 1.490 . S
C3544 H3534 0.930 . S
C3544 C3543 1.400 . S
C3544 C3547 1.386 . S
H3545 C3561 0.930 . S
H3546 C3562 0.931 . S
C3547 H3535 0.929 . S
C3547 C3541 1.390 . S
C3547 C3544 1.386 . S
C3548 C3543 1.490 . S
C3548 C3550 1.395 . S
C3548 C3551 1.403 . S
H3549 C3555 0.930 . S
C3550 H3536 0.930 . S
C3550 C3548 1.395 . S
C3550 C3553 1.403 . S
C3551 C3548 1.403 . S
C3551 C3552 1.524 . S
C3551 C3555 1.400 . S
C3552 H3537 0.960 . S
C3552 H3538 0.960 . S
C3552 H3539 0.960 . S
C3552 C3551 1.524 . S
C3553 C3550 1.403 . S
C3553 C3554 1.392 . S
C3553 C3557 1.495 . S
C3554 C3553 1.392 . S
C3554 C3555 1.385 . S
C3554 C3556 1.478 . S
C3555 H3549 0.930 . S
C3555 C3551 1.400 . S
C3555 C3554 1.385 . S
C3556 C3554 1.478 . S
C3556 C3558 1.381 . S
C3556 C3562 1.383 . S
C3557 C3553 1.495 . S
C3557 H3563 0.959 . S
C3557 H3564 0.961 . S
C3557 H3565 0.960 . S
C3558 C3556 1.381 . S
C3558 C3559 1.394 . S
C3558 H3566 0.930 . S
C3559 C3558 1.394 . S
C3559 C3560 1.383 . S
C3559 H3567 0.929 . S
C3560 C3559 1.383 . S
C3560 C3561 1.377 . S
C3561 H3545 0.930 . S
C3561 C3560 1.377 . S
C3561 C3562 1.379 . S
C3562 H3546 0.931 . S
C3562 C3556 1.383 . S
C3562 C3561 1.379 . S
H3563 C3557 0.959 . S
H3564 C3557 0.961 . S
H3565 C3557 0.960 . S
H3566 C3558 0.930 . S
H3567 C3559 0.929 . S
H3568 C3576 0.929 . S
H3569 C3578 0.930 . S
H3570 C3580 0.930 . S
H3571 C3583 0.929 . S
H3572 C3586 0.930 . S
H3573 C3588 0.960 . S
H3574 C3588 0.960 . S
H3575 C3588 0.960 . S
C3576 H3568 0.929 . S
C3576 C3577 1.377 . S
C3576 C3578 1.384 . S
C3577 C3576 1.377 . S
C3577 C3583 1.390 . S
C3578 H3569 0.930 . S
C3578 C3576 1.384 . S
C3578 C3579 1.372 . S
C3579 C3578 1.372 . S
C3579 C3580 1.400 . S
C3579 C3584 1.490 . S
C3580 H3570 0.930 . S
C3580 C3579 1.400 . S
C3580 C3583 1.386 . S
H3581 C3597 0.930 . S
H3582 C3598 0.931 . S
C3583 H3571 0.929 . S
C3583 C3577 1.390 . S
C3583 C3580 1.386 . S
C3584 C3579 1.490 . S
C3584 C3586 1.395 . S
C3584 C3587 1.403 . S
H3585 C3591 0.930 . S
C3586 H3572 0.930 . S
C3586 C3584 1.395 . S
C3586 C3589 1.403 . S
C3587 C3584 1.403 . S
C3587 C3588 1.524 . S
C3587 C3591 1.400 . S
C3588 H3573 0.960 . S
C3588 H3574 0.960 . S
C3588 H3575 0.960 . S
C3588 C3587 1.524 . S
C3589 C3586 1.403 . S
C3589 C3590 1.392 . S
C3589 C3593 1.495 . S
C3590 C3589 1.392 . S
C3590 C3591 1.385 . S
C3590 C3592 1.478 . S
C3591 H3585 0.930 . S
C3591 C3587 1.400 . S
C3591 C3590 1.385 . S
C3592 C3590 1.478 . S
C3592 C3594 1.381 . S
C3592 C3598 1.383 . S
C3593 C3589 1.495 . S
C3593 H3599 0.959 . S
C3593 H3600 0.961 . S
C3593 H3601 0.960 . S
C3594 C3592 1.381 . S
C3594 C3595 1.394 . S
C3594 H3602 0.930 . S
C3595 C3594 1.394 . S
C3595 C3596 1.383 . S
C3595 H3603 0.929 . S
C3596 C3595 1.383 . S
C3596 C3597 1.377 . S
C3597 H3581 0.930 . S
C3597 C3596 1.377 . S
C3597 C3598 1.379 . S
C3598 H3582 0.931 . S
C3598 C3592 1.383 . S
C3598 C3597 1.379 . S
H3599 C3593 0.959 . S
H3600 C3593 0.961 . S
H3601 C3593 0.960 . S
H3602 C3594 0.930 . S
H3603 C3595 0.929 . S
H3604 C3612 0.929 . S
H3605 C3614 0.930 . S
H3606 C3616 0.930 . S
H3607 C3619 0.929 . S
H3608 C3622 0.930 . S
H3609 C3624 0.960 . S
H3610 C3624 0.960 . S
H3611 C3624 0.960 . S
C3612 H3604 0.929 . S
C3612 C3613 1.377 . S
C3612 C3614 1.384 . S
C3613 C3612 1.377 . S
C3613 C3619 1.390 . S
C3614 H3605 0.930 . S
C3614 C3612 1.384 . S
C3614 C3615 1.372 . S
C3615 C3614 1.372 . S
C3615 C3616 1.400 . S
C3615 C3620 1.490 . S
C3616 H3606 0.930 . S
C3616 C3615 1.400 . S
C3616 C3619 1.386 . S
H3617 C3633 0.930 . S
H3618 C3634 0.931 . S
C3619 H3607 0.929 . S
C3619 C3613 1.390 . S
C3619 C3616 1.386 . S
C3620 C3615 1.490 . S
C3620 C3622 1.395 . S
C3620 C3623 1.403 . S
H3621 C3627 0.930 . S
C3622 H3608 0.930 . S
C3622 C3620 1.395 . S
C3622 C3625 1.403 . S
C3623 C3620 1.403 . S
C3623 C3624 1.524 . S
C3623 C3627 1.400 . S
C3624 H3609 0.960 . S
C3624 H3610 0.960 . S
C3624 H3611 0.960 . S
C3624 C3623 1.524 . S
C3625 C3622 1.403 . S
C3625 C3626 1.392 . S
C3625 C3629 1.495 . S
C3626 C3625 1.392 . S
C3626 C3627 1.385 . S
C3626 C3628 1.478 . S
C3627 H3621 0.930 . S
C3627 C3623 1.400 . S
C3627 C3626 1.385 . S
C3628 C3626 1.478 . S
C3628 C3630 1.381 . S
C3628 C3634 1.383 . S
C3629 C3625 1.495 . S
C3629 H3635 0.959 . S
C3629 H3636 0.961 . S
C3629 H3637 0.960 . S
C3630 C3628 1.381 . S
C3630 C3631 1.394 . S
C3630 H3638 0.930 . S
C3631 C3630 1.394 . S
C3631 C3632 1.383 . S
C3631 H3639 0.929 . S
C3632 C3631 1.383 . S
C3632 C3633 1.377 . S
C3633 H3617 0.930 . S
C3633 C3632 1.377 . S
C3633 C3634 1.379 . S
C3634 H3618 0.931 . S
C3634 C3628 1.383 . S
C3634 C3633 1.379 . S
H3635 C3629 0.959 . S
H3636 C3629 0.961 . S
H3637 C3629 0.960 . S
H3638 C3630 0.930 . S
H3639 C3631 0.929 . S
H3640 C3648 0.929 . S
H3641 C3650 0.930 . S
H3642 C3652 0.930 . S
H3643 C3655 0.929 . S
H3644 C3658 0.930 . S
H3645 C3660 0.960 . S
H3646 C3660 0.960 . S
H3647 C3660 0.960 . S
C3648 H3640 0.929 . S
C3648 C3649 1.377 . S
C3648 C3650 1.384 . S
C3649 C3648 1.377 . S
C3649 C3655 1.390 . S
C3650 H3641 0.930 . S
C3650 C3648 1.384 . S
C3650 C3651 1.372 . S
C3651 C3650 1.372 . S
C3651 C3652 1.400 . S
C3651 C3656 1.490 . S
C3652 H3642 0.930 . S
C3652 C3651 1.400 . S
C3652 C3655 1.386 . S
H3653 C3669 0.930 . S
H3654 C3670 0.931 . S
C3655 H3643 0.929 . S
C3655 C3649 1.390 . S
C3655 C3652 1.386 . S
C3656 C3651 1.490 . S
C3656 C3658 1.395 . S
C3656 C3659 1.403 . S
H3657 C3663 0.930 . S
C3658 H3644 0.930 . S
C3658 C3656 1.395 . S
C3658 C3661 1.403 . S
C3659 C3656 1.403 . S
C3659 C3660 1.524 . S
C3659 C3663 1.400 . S
C3660 H3645 0.960 . S
C3660 H3646 0.960 . S
C3660 H3647 0.960 . S
C3660 C3659 1.524 . S
C3661 C3658 1.403 . S
C3661 C3662 1.392 . S
C3661 C3665 1.495 . S
C3662 C3661 1.392 . S
C3662 C3663 1.385 . S
C3662 C3664 1.478 . S
C3663 H3657 0.930 . S
C3663 C3659 1.400 . S
C3663 C3662 1.385 . S
C3664 C3662 1.478 . S
C3664 C3666 1.381 . S
C3664 C3670 1.383 . S
C3665 C3661 1.495 . S
C3665 H3671 0.959 . S
C3665 H3672 0.961 . S
C3665 H3673 0.960 . S
C3666 C3664 1.381 . S
C3666 C3667 1.394 . S
C3666 H3674 0.930 . S
C3667 C3666 1.394 . S
C3667 C3668 1.383 . S
C3667 H3675 0.929 . S
C3668 C3667 1.383 . S
C3668 C3669 1.377 . S
C3669 H3653 0.930 . S
C3669 C3668 1.377 . S
C3669 C3670 1.379 . S
C3670 H3654 0.931 . S
C3670 C3664 1.383 . S
C3670 C3669 1.379 . S
H3671 C3665 0.959 . S
H3672 C3665 0.961 . S
H3673 C3665 0.960 . S
H3674 C3666 0.930 . S
H3675 C3667 0.929 . S
H3676 C3684 0.929 . S
H3677 C3686 0.930 . S
H3678 C3688 0.930 . S
H3679 C3691 0.929 . S
H3680 C3694 0.930 . S
H3681 C3696 0.960 . S
H3682 C3696 0.960 . S
H3683 C3696 0.960 . S
C3684 H3676 0.929 . S
C3684 C3685 1.377 . S
C3684 C3686 1.384 . S
C3685 C3684 1.377 . S
C3685 C3691 1.390 . S
C3686 H3677 0.930 . S
C3686 C3684 1.384 . S
C3686 C3687 1.372 . S
C3687 C3686 1.372 . S
C3687 C3688 1.400 . S
C3687 C3692 1.490 . S
C3688 H3678 0.930 . S
C3688 C3687 1.400 . S
C3688 C3691 1.386 . S
H3689 C3705 0.930 . S
H3690 C3706 0.931 . S
C3691 H3679 0.929 . S
C3691 C3685 1.390 . S
C3691 C3688 1.386 . S
C3692 C3687 1.490 . S
C3692 C3694 1.395 . S
C3692 C3695 1.403 . S
H3693 C3699 0.930 . S
C3694 H3680 0.930 . S
C3694 C3692 1.395 . S
C3694 C3697 1.403 . S
C3695 C3692 1.403 . S
C3695 C3696 1.524 . S
C3695 C3699 1.400 . S
C3696 H3681 0.960 . S
C3696 H3682 0.960 . S
C3696 H3683 0.960 . S
C3696 C3695 1.524 . S
C3697 C3694 1.403 . S
C3697 C3698 1.392 . S
C3697 C3701 1.495 . S
C3698 C3697 1.392 . S
C3698 C3699 1.385 . S
C3698 C3700 1.478 . S
C3699 H3693 0.930 . S
C3699 C3695 1.400 . S
C3699 C3698 1.385 . S
C3700 C3698 1.478 . S
C3700 C3702 1.381 . S
C3700 C3706 1.383 . S
C3701 C3697 1.495 . S
C3701 H3707 0.959 . S
C3701 H3708 0.961 . S
C3701 H3709 0.960 . S
C3702 C3700 1.381 . S
C3702 C3703 1.394 . S
C3702 H3710 0.930 . S
C3703 C3702 1.394 . S
C3703 C3704 1.383 . S
C3703 H3711 0.929 . S
C3704 C3703 1.383 . S
C3704 C3705 1.377 . S
C3705 H3689 0.930 . S
C3705 C3704 1.377 . S
C3705 C3706 1.379 . S
C3706 H3690 0.931 . S
C3706 C3700 1.383 . S
C3706 C3705 1.379 . S
H3707 C3701 0.959 . S
H3708 C3701 0.961 . S
H3709 C3701 0.960 . S
H3710 C3702 0.930 . S
H3711 C3703 0.929 . S
H3712 C3720 0.929 . S
H3713 C3722 0.930 . S
H3714 C3724 0.930 . S
H3715 C3727 0.929 . S
H3716 C3730 0.930 . S
H3717 C3732 0.960 . S
H3718 C3732 0.960 . S
H3719 C3732 0.960 . S
C3720 H3712 0.929 . S
C3720 C3721 1.377 . S
C3720 C3722 1.384 . S
C3721 C3720 1.377 . S
C3721 C3727 1.390 . S
C3722 H3713 0.930 . S
C3722 C3720 1.384 . S
C3722 C3723 1.372 . S
C3723 C3722 1.372 . S
C3723 C3724 1.400 . S
C3723 C3728 1.490 . S
C3724 H3714 0.930 . S
C3724 C3723 1.400 . S
C3724 C3727 1.386 . S
H3725 C3741 0.930 . S
H3726 C3742 0.931 . S
C3727 H3715 0.929 . S
C3727 C3721 1.390 . S
C3727 C3724 1.386 . S
C3728 C3723 1.490 . S
C3728 C3730 1.395 . S
C3728 C3731 1.403 . S
H3729 C3735 0.930 . S
C3730 H3716 0.930 . S
C3730 C3728 1.395 . S
C3730 C3733 1.403 . S
C3731 C3728 1.403 . S
C3731 C3732 1.524 . S
C3731 C3735 1.400 . S
C3732 H3717 0.960 . S
C3732 H3718 0.960 . S
C3732 H3719 0.960 . S
C3732 C3731 1.524 . S
C3733 C3730 1.403 . S
C3733 C3734 1.392 . S
C3733 C3737 1.495 . S
C3734 C3733 1.392 . S
C3734 C3735 1.385 . S
C3734 C3736 1.478 . S
C3735 H3729 0.930 . S
C3735 C3731 1.400 . S
C3735 C3734 1.385 . S
C3736 C3734 1.478 . S
C3736 C3738 1.381 . S
C3736 C3742 1.383 . S
C3737 C3733 1.495 . S
C3737 H3743 0.959 . S
C3737 H3744 0.961 . S
C3737 H3745 0.960 . S
C3738 C3736 1.381 . S
C3738 C3739 1.394 . S
C3738 H3746 0.930 . S
C3739 C3738 1.394 . S
C3739 C3740 1.383 . S
C3739 H3747 0.929 . S
C3740 C3739 1.383 . S
C3740 C3741 1.377 . S
C3741 H3725 0.930 . S
C3741 C3740 1.377 . S
C3741 C3742 1.379 . S
C3742 H3726 0.931 . S
C3742 C3736 1.383 . S
C3742 C3741 1.379 . S
H3743 C3737 0.959 . S
H3744 C3737 0.961 . S
H3745 C3737 0.960 . S
H3746 C3738 0.930 . S
H3747 C3739 0.929 . S
H3748 C3756 0.929 . S
H3749 C3758 0.930 . S
H3750 C3760 0.930 . S
H3751 C3763 0.929 . S
H3752 C3766 0.930 . S
H3753 C3768 0.960 . S
H3754 C3768 0.960 . S
H3755 C3768 0.960 . S
C3756 H3748 0.929 . S
C3756 C3757 1.377 . S
C3756 C3758 1.384 . S
C3757 C3756 1.377 . S
C3757 C3763 1.390 . S
C3758 H3749 0.930 . S
C3758 C3756 1.384 . S
C3758 C3759 1.372 . S
C3759 C3758 1.372 . S
C3759 C3760 1.400 . S
C3759 C3764 1.490 . S
C3760 H3750 0.930 . S
C3760 C3759 1.400 . S
C3760 C3763 1.386 . S
H3761 C3777 0.930 . S
H3762 C3778 0.931 . S
C3763 H3751 0.929 . S
C3763 C3757 1.390 . S
C3763 C3760 1.386 . S
C3764 C3759 1.490 . S
C3764 C3766 1.395 . S
C3764 C3767 1.403 . S
H3765 C3771 0.930 . S
C3766 H3752 0.930 . S
C3766 C3764 1.395 . S
C3766 C3769 1.403 . S
C3767 C3764 1.403 . S
C3767 C3768 1.524 . S
C3767 C3771 1.400 . S
C3768 H3753 0.960 . S
C3768 H3754 0.960 . S
C3768 H3755 0.960 . S
C3768 C3767 1.524 . S
C3769 C3766 1.403 . S
C3769 C3770 1.392 . S
C3769 C3773 1.495 . S
C3770 C3769 1.392 . S
C3770 C3771 1.385 . S
C3770 C3772 1.478 . S
C3771 H3765 0.930 . S
C3771 C3767 1.400 . S
C3771 C3770 1.385 . S
C3772 C3770 1.478 . S
C3772 C3774 1.381 . S
C3772 C3778 1.383 . S
C3773 C3769 1.495 . S
C3773 H3779 0.959 . S
C3773 H3780 0.961 . S
C3773 H3781 0.960 . S
C3774 C3772 1.381 . S
C3774 C3775 1.394 . S
C3774 H3782 0.930 . S
C3775 C3774 1.394 . S
C3775 C3776 1.383 . S
C3775 H3783 0.929 . S
C3776 C3775 1.383 . S
C3776 C3777 1.377 . S
C3777 H3761 0.930 . S
C3777 C3776 1.377 . S
C3777 C3778 1.379 . S
C3778 H3762 0.931 . S
C3778 C3772 1.383 . S
C3778 C3777 1.379 . S
H3779 C3773 0.959 . S
H3780 C3773 0.961 . S
H3781 C3773 0.960 . S
H3782 C3774 0.930 . S
H3783 C3775 0.929 . S
H3784 C3792 0.929 . S
H3785 C3794 0.930 . S
H3786 C3796 0.930 . S
H3787 C3799 0.929 . S
H3788 C3802 0.930 . S
H3789 C3804 0.960 . S
H3790 C3804 0.960 . S
H3791 C3804 0.960 . S
C3792 H3784 0.929 . S
C3792 C3793 1.377 . S
C3792 C3794 1.384 . S
C3793 C3792 1.377 . S
C3793 C3799 1.390 . S
C3794 H3785 0.930 . S
C3794 C3792 1.384 . S
C3794 C3795 1.372 . S
C3795 C3794 1.372 . S
C3795 C3796 1.400 . S
C3795 C3800 1.490 . S
C3796 H3786 0.930 . S
C3796 C3795 1.400 . S
C3796 C3799 1.386 . S
H3797 C3813 0.930 . S
H3798 C3814 0.931 . S
C3799 H3787 0.929 . S
C3799 C3793 1.390 . S
C3799 C3796 1.386 . S
C3800 C3795 1.490 . S
C3800 C3802 1.395 . S
C3800 C3803 1.403 . S
H3801 C3807 0.930 . S
C3802 H3788 0.930 . S
C3802 C3800 1.395 . S
C3802 C3805 1.403 . S
C3803 C3800 1.403 . S
C3803 C3804 1.524 . S
C3803 C3807 1.400 . S
C3804 H3789 0.960 . S
C3804 H3790 0.960 . S
C3804 H3791 0.960 . S
C3804 C3803 1.524 . S
C3805 C3802 1.403 . S
C3805 C3806 1.392 . S
C3805 C3809 1.495 . S
C3806 C3805 1.392 . S
C3806 C3807 1.385 . S
C3806 C3808 1.478 . S
C3807 H3801 0.930 . S
C3807 C3803 1.400 . S
C3807 C3806 1.385 . S
C3808 C3806 1.478 . S
C3808 C3810 1.381 . S
C3808 C3814 1.383 . S
C3809 C3805 1.495 . S
C3809 H3815 0.959 . S
C3809 H3816 0.961 . S
C3809 H3817 0.960 . S
C3810 C3808 1.381 . S
C3810 C3811 1.394 . S
C3810 H3818 0.930 . S
C3811 C3810 1.394 . S
C3811 C3812 1.383 . S
C3811 H3819 0.929 . S
C3812 C3811 1.383 . S
C3812 C3813 1.377 . S
C3813 H3797 0.930 . S
C3813 C3812 1.377 . S
C3813 C3814 1.379 . S
C3814 H3798 0.931 . S
C3814 C3808 1.383 . S
C3814 C3813 1.379 . S
H3815 C3809 0.959 . S
H3816 C3809 0.961 . S
H3817 C3809 0.960 . S
H3818 C3810 0.930 . S
H3819 C3811 0.929 . S
H3820 C3828 0.929 . S
H3821 C3830 0.930 . S
H3822 C3832 0.930 . S
H3823 C3835 0.929 . S
H3824 C3838 0.930 . S
H3825 C3840 0.960 . S
H3826 C3840 0.960 . S
H3827 C3840 0.960 . S
C3828 H3820 0.929 . S
C3828 C3829 1.377 . S
C3828 C3830 1.384 . S
C3829 C3828 1.377 . S
C3829 C3835 1.390 . S
C3830 H3821 0.930 . S
C3830 C3828 1.384 . S
C3830 C3831 1.372 . S
C3831 C3830 1.372 . S
C3831 C3832 1.400 . S
C3831 C3836 1.490 . S
C3832 H3822 0.930 . S
C3832 C3831 1.400 . S
C3832 C3835 1.386 . S
H3833 C3849 0.930 . S
H3834 C3850 0.931 . S
C3835 H3823 0.929 . S
C3835 C3829 1.390 . S
C3835 C3832 1.386 . S
C3836 C3831 1.490 . S
C3836 C3838 1.395 . S
C3836 C3839 1.403 . S
H3837 C3843 0.930 . S
C3838 H3824 0.930 . S
C3838 C3836 1.395 . S
C3838 C3841 1.403 . S
C3839 C3836 1.403 . S
C3839 C3840 1.524 . S
C3839 C3843 1.400 . S
C3840 H3825 0.960 . S
C3840 H3826 0.960 . S
C3840 H3827 0.960 . S
C3840 C3839 1.524 . S
C3841 C3838 1.403 . S
C3841 C3842 1.392 . S
C3841 C3845 1.495 . S
C3842 C3841 1.392 . S
C3842 C3843 1.385 . S
C3842 C3844 1.478 . S
C3843 H3837 0.930 . S
C3843 C3839 1.400 . S
C3843 C3842 1.385 . S
C3844 C3842 1.478 . S
C3844 C3846 1.381 . S
C3844 C3850 1.383 . S
C3845 C3841 1.495 . S
C3845 H3851 0.959 . S
C3845 H3852 0.961 . S
C3845 H3853 0.960 . S
C3846 C3844 1.381 . S
C3846 C3847 1.394 . S
C3846 H3854 0.930 . S
C3847 C3846 1.394 . S
C3847 C3848 1.383 . S
C3847 H3855 0.929 . S
C3848 C3847 1.383 . S
C3848 C3849 1.377 . S
C3849 H3833 0.930 . S
C3849 C3848 1.377 . S
C3849 C3850 1.379 . S
C3850 H3834 0.931 . S
C3850 C3844 1.383 . S
C3850 C3849 1.379 . S
H3851 C3845 0.959 . S
H3852 C3845 0.961 . S
H3853 C3845 0.960 . S
H3854 C3846 0.930 . S
H3855 C3847 0.929 . S
H3856 C3864 0.929 . S
H3857 C3866 0.930 . S
H3858 C3868 0.930 . S
H3859 C3871 0.929 . S
H3860 C3874 0.930 . S
H3861 C3876 0.960 . S
H3862 C3876 0.960 . S
H3863 C3876 0.960 . S
C3864 H3856 0.929 . S
C3864 C3865 1.377 . S
C3864 C3866 1.384 . S
C3865 C3864 1.377 . S
C3865 C3871 1.390 . S
C3866 H3857 0.930 . S
C3866 C3864 1.384 . S
C3866 C3867 1.372 . S
C3867 C3866 1.372 . S
C3867 C3868 1.400 . S
C3867 C3872 1.490 . S
C3868 H3858 0.930 . S
C3868 C3867 1.400 . S
C3868 C3871 1.386 . S
H3869 C3885 0.930 . S
H3870 C3886 0.931 . S
C3871 H3859 0.929 . S
C3871 C3865 1.390 . S
C3871 C3868 1.386 . S
C3872 C3867 1.490 . S
C3872 C3874 1.395 . S
C3872 C3875 1.403 . S
H3873 C3879 0.930 . S
C3874 H3860 0.930 . S
C3874 C3872 1.395 . S
C3874 C3877 1.403 . S
C3875 C3872 1.403 . S
C3875 C3876 1.524 . S
C3875 C3879 1.400 . S
C3876 H3861 0.960 . S
C3876 H3862 0.960 . S
C3876 H3863 0.960 . S
C3876 C3875 1.524 . S
C3877 C3874 1.403 . S
C3877 C3878 1.392 . S
C3877 C3881 1.495 . S
C3878 C3877 1.392 . S
C3878 C3879 1.385 . S
C3878 C3880 1.478 . S
C3879 H3873 0.930 . S
C3879 C3875 1.400 . S
C3879 C3878 1.385 . S
C3880 C3878 1.478 . S
C3880 C3882 1.381 . S
C3880 C3886 1.383 . S
C3881 C3877 1.495 . S
C3881 H3887 0.959 . S
C3881 H3888 0.961 . S
C3881 H3889 0.960 . S
C3882 C3880 1.381 . S
C3882 C3883 1.394 . S
C3882 H3890 0.930 . S
C3883 C3882 1.394 . S
C3883 C3884 1.383 . S
C3883 H3891 0.929 . S
C3884 C3883 1.383 . S
C3884 C3885 1.377 . S
C3885 H3869 0.930 . S
C3885 C3884 1.377 . S
C3885 C3886 1.379 . S
C3886 H3870 0.931 . S
C3886 C3880 1.383 . S
C3886 C3885 1.379 . S
H3887 C3881 0.959 . S
H3888 C3881 0.961 . S
H3889 C3881 0.960 . S
H3890 C3882 0.930 . S
H3891 C3883 0.929 . S
H3892 C3900 0.929 . S
H3893 C3902 0.930 . S
H3894 C3904 0.930 . S
H3895 C3907 0.929 . S
H3896 C3910 0.930 . S
H3897 C3912 0.960 . S
H3898 C3912 0.960 . S
H3899 C3912 0.960 . S
C3900 H3892 0.929 . S
C3900 C3901 1.377 . S
C3900 C3902 1.384 . S
C3901 C3900 1.377 . S
C3901 C3907 1.390 . S
C3902 H3893 0.930 . S
C3902 C3900 1.384 . S
C3902 C3903 1.372 . S
C3903 C3902 1.372 . S
C3903 C3904 1.400 . S
C3903 C3908 1.490 . S
C3904 H3894 0.930 . S
C3904 C3903 1.400 . S
C3904 C3907 1.386 . S
H3905 C3921 0.930 . S
H3906 C3922 0.931 . S
C3907 H3895 0.929 . S
C3907 C3901 1.390 . S
C3907 C3904 1.386 . S
C3908 C3903 1.490 . S
C3908 C3910 1.395 . S
C3908 C3911 1.403 . S
H3909 C3915 0.930 . S
C3910 H3896 0.930 . S
C3910 C3908 1.395 . S
C3910 C3913 1.403 . S
C3911 C3908 1.403 . S
C3911 C3912 1.524 . S
C3911 C3915 1.400 . S
C3912 H3897 0.960 . S
C3912 H3898 0.960 . S
C3912 H3899 0.960 . S
C3912 C3911 1.524 . S
C3913 C3910 1.403 . S
C3913 C3914 1.392 . S
C3913 C3917 1.495 . S
C3914 C3913 1.392 . S
C3914 C3915 1.385 . S
C3914 C3916 1.478 . S
C3915 H3909 0.930 . S
C3915 C3911 1.400 . S
C3915 C3914 1.385 . S
C3916 C3914 1.478 . S
C3916 C3918 1.381 . S
C3916 C3922 1.383 . S
C3917 C3913 1.495 . S
C3917 H3923 0.959 . S
C3917 H3924 0.961 . S
C3917 H3925 0.960 . S
C3918 C3916 1.381 . S
C3918 C3919 1.394 . S
C3918 H3926 0.930 . S
C3919 C3918 1.394 . S
C3919 C3920 1.383 . S
C3919 H3927 0.929 . S
C3920 C3919 1.383 . S
C3920 C3921 1.377 . S
C3921 H3905 0.930 . S
C3921 C3920 1.377 . S
C3921 C3922 1.379 . S
C3922 H3906 0.931 . S
C3922 C3916 1.383 . S
C3922 C3921 1.379 . S
H3923 C3917 0.959 . S
H3924 C3917 0.961 . S
H3925 C3917 0.960 . S
H3926 C3918 0.930 . S
H3927 C3919 0.929 . S
H3928 C3936 0.929 . S
H3929 C3938 0.930 . S
H3930 C3940 0.930 . S
H3931 C3943 0.948 . S
H3932 C3946 0.930 . S
H3933 C3948 0.960 . S
H3934 C3948 0.960 . S
H3935 C3948 0.960 . S
C3936 H3928 0.929 . S
C3936 C3937 1.377 . S
C3936 C3938 1.384 . S
C3937 C3936 1.377 . S
C3937 C3943 1.390 . S
C3938 H3929 0.930 . S
C3938 C3936 1.384 . S
C3938 C3939 1.372 . S
C3939 C3938 1.372 . S
C3939 C3940 1.400 . S
C3939 C3944 1.490 . S
C3940 H3930 0.930 . S
C3940 C3939 1.400 . S
C3940 C3943 1.386 . S
H3941 C3957 0.930 . S
H3942 C3958 0.931 . S
C3943 H3931 0.948 . S
C3943 C3937 1.390 . S
C3943 C3940 1.386 . S
C3944 C3939 1.490 . S
C3944 C3946 1.395 . S
C3944 C3947 1.403 . S
H3945 C3951 0.930 . S
C3946 H3932 0.930 . S
C3946 C3944 1.395 . S
C3946 C3949 1.403 . S
C3947 C3944 1.403 . S
C3947 C3948 1.524 . S
C3947 C3951 1.400 . S
C3948 H3933 0.960 . S
C3948 H3934 0.960 . S
C3948 H3935 0.960 . S
C3948 C3947 1.524 . S
C3949 C3946 1.403 . S
C3949 C3950 1.392 . S
C3949 C3953 1.495 . S
C3950 C3949 1.392 . S
C3950 C3951 1.385 . S
C3950 C3952 1.478 . S
C3951 H3945 0.930 . S
C3951 C3947 1.400 . S
C3951 C3950 1.385 . S
C3952 C3950 1.478 . S
C3952 C3954 1.381 . S
C3952 C3958 1.383 . S
C3953 C3949 1.495 . S
C3953 H3959 0.959 . S
C3953 H3960 0.961 . S
C3953 H3961 0.960 . S
C3954 C3952 1.381 . S
C3954 C3955 1.394 . S
C3954 H3962 0.930 . S
C3955 C3954 1.394 . S
C3955 C3956 1.383 . S
C3955 H3963 0.929 . S
C3956 C3955 1.383 . S
C3956 C3957 1.377 . S
C3957 H3941 0.930 . S
C3957 C3956 1.377 . S
C3957 C3958 1.379 . S
C3958 H3942 0.931 . S
C3958 C3952 1.383 . S
C3958 C3957 1.379 . S
H3959 C3953 0.959 . S
H3960 C3953 0.961 . S
H3961 C3953 0.960 . S
H3962 C3954 0.930 . S
H3963 C3955 0.929 . S
H3964 C3972 0.929 . S
H3965 C3974 0.930 . S
H3966 C3976 0.930 . S
H3967 C3979 0.929 . S
H3968 C3982 0.930 . S
H3969 C3984 0.960 . S
H3970 C3984 0.960 . S
H3971 C3984 0.960 . S
C3972 H3964 0.929 . S
C3972 C3973 1.377 . S
C3972 C3974 1.384 . S
C3973 C3972 1.377 . S
C3973 C3979 1.390 . S
C3974 H3965 0.930 . S
C3974 C3972 1.384 . S
C3974 C3975 1.372 . S
C3975 C3974 1.372 . S
C3975 C3976 1.400 . S
C3975 C3980 1.490 . S
C3976 H3966 0.930 . S
C3976 C3975 1.400 . S
C3976 C3979 1.386 . S
H3977 C3993 0.930 . S
H3978 C3994 0.931 . S
C3979 H3967 0.929 . S
C3979 C3973 1.390 . S
C3979 C3976 1.386 . S
C3980 C3975 1.490 . S
C3980 C3982 1.395 . S
C3980 C3983 1.403 . S
H3981 C3987 0.930 . S
C3982 H3968 0.930 . S
C3982 C3980 1.395 . S
C3982 C3985 1.403 . S
C3983 C3980 1.403 . S
C3983 C3984 1.524 . S
C3983 C3987 1.400 . S
C3984 H3969 0.960 . S
C3984 H3970 0.960 . S
C3984 H3971 0.960 . S
C3984 C3983 1.524 . S
C3985 C3982 1.403 . S
C3985 C3986 1.392 . S
C3985 C3989 1.495 . S
C3986 C3985 1.392 . S
C3986 C3987 1.385 . S
C3986 C3988 1.478 . S
C3987 H3981 0.930 . S
C3987 C3983 1.400 . S
C3987 C3986 1.385 . S
C3988 C3986 1.478 . S
C3988 C3990 1.381 . S
C3988 C3994 1.383 . S
C3989 C3985 1.495 . S
C3989 H3995 0.959 . S
C3989 H3996 0.961 . S
C3989 H3997 0.960 . S
C3990 C3988 1.381 . S
C3990 C3991 1.394 . S
C3990 H3998 0.930 . S
C3991 C3990 1.394 . S
C3991 C3992 1.383 . S
C3991 H3999 0.929 . S
C3992 C3991 1.383 . S
C3992 C3993 1.377 . S
C3993 H3977 0.930 . S
C3993 C3992 1.377 . S
C3993 C3994 1.379 . S
C3994 H3978 0.931 . S
C3994 C3988 1.383 . S
C3994 C3993 1.379 . S
H3995 C3989 0.959 . S
H3996 C3989 0.961 . S
H3997 C3989 0.960 . S
H3998 C3990 0.930 . S
H3999 C3991 0.929 . S
H4000 C4008 0.929 . S
H4001 C4010 0.930 . S
H4002 C4012 0.930 . S
H4003 C4015 0.929 . S
H4004 C4018 0.930 . S
H4005 C4020 0.960 . S
H4006 C4020 0.960 . S
H4007 C4020 0.960 . S
C4008 H4000 0.929 . S
C4008 C4009 1.377 . S
C4008 C4010 1.384 . S
C4009 C4008 1.377 . S
C4009 C4015 1.390 . S
C4010 H4001 0.930 . S
C4010 C4008 1.384 . S
C4010 C4011 1.372 . S
C4011 C4010 1.372 . S
C4011 C4012 1.400 . S
C4011 C4016 1.490 . S
C4012 H4002 0.930 . S
C4012 C4011 1.400 . S
C4012 C4015 1.386 . S
H4013 C4029 0.930 . S
H4014 C4030 0.931 . S
C4015 H4003 0.929 . S
C4015 C4009 1.390 . S
C4015 C4012 1.386 . S
C4016 C4011 1.490 . S
C4016 C4018 1.395 . S
C4016 C4019 1.403 . S
H4017 C4023 0.930 . S
C4018 H4004 0.930 . S
C4018 C4016 1.395 . S
C4018 C4021 1.403 . S
C4019 C4016 1.403 . S
C4019 C4020 1.524 . S
C4019 C4023 1.400 . S
C4020 H4005 0.960 . S
C4020 H4006 0.960 . S
C4020 H4007 0.960 . S
C4020 C4019 1.524 . S
C4021 C4018 1.403 . S
C4021 C4022 1.392 . S
C4021 C4025 1.495 . S
C4022 C4021 1.392 . S
C4022 C4023 1.385 . S
C4022 C4024 1.478 . S
C4023 H4017 0.930 . S
C4023 C4019 1.400 . S
C4023 C4022 1.385 . S
C4024 C4022 1.478 . S
C4024 C4026 1.381 . S
C4024 C4030 1.383 . S
C4025 C4021 1.495 . S
C4025 H4031 0.959 . S
C4025 H4032 0.961 . S
C4025 H4033 0.960 . S
C4026 C4024 1.381 . S
C4026 C4027 1.394 . S
C4026 H4034 0.930 . S
C4027 C4026 1.394 . S
C4027 C4028 1.383 . S
C4027 H4035 0.929 . S
C4028 C4027 1.383 . S
C4028 C4029 1.377 . S
C4029 H4013 0.930 . S
C4029 C4028 1.377 . S
C4029 C4030 1.379 . S
C4030 H4014 0.931 . S
C4030 C4024 1.383 . S
C4030 C4029 1.379 . S
H4031 C4025 0.959 . S
H4032 C4025 0.961 . S
H4033 C4025 0.960 . S
H4034 C4026 0.930 . S
H4035 C4027 0.929 . S
H4036 C4044 0.929 . S
H4037 C4046 0.930 . S
H4038 C4048 0.930 . S
H4039 C4051 0.929 . S
H4040 C4054 0.930 . S
H4041 C4056 0.960 . S
H4042 C4056 0.960 . S
H4043 C4056 0.960 . S
C4044 H4036 0.929 . S
C4044 C4045 1.377 . S
C4044 C4046 1.384 . S
C4045 C4044 1.377 . S
C4045 C4051 1.390 . S
C4046 H4037 0.930 . S
C4046 C4044 1.384 . S
C4046 C4047 1.372 . S
C4047 C4046 1.372 . S
C4047 C4048 1.400 . S
C4047 C4052 1.490 . S
C4048 H4038 0.930 . S
C4048 C4047 1.400 . S
C4048 C4051 1.386 . S
H4049 C4065 0.930 . S
H4050 C4066 0.931 . S
C4051 H4039 0.929 . S
C4051 C4045 1.390 . S
C4051 C4048 1.386 . S
C4052 C4047 1.490 . S
C4052 C4054 1.395 . S
C4052 C4055 1.403 . S
H4053 C4059 0.930 . S
C4054 H4040 0.930 . S
C4054 C4052 1.395 . S
C4054 C4057 1.403 . S
C4055 C4052 1.403 . S
C4055 C4056 1.524 . S
C4055 C4059 1.400 . S
C4056 H4041 0.960 . S
C4056 H4042 0.960 . S
C4056 H4043 0.960 . S
C4056 C4055 1.524 . S
C4057 C4054 1.403 . S
C4057 C4058 1.392 . S
C4057 C4061 1.495 . S
C4058 C4057 1.392 . S
C4058 C4059 1.385 . S
C4058 C4060 1.478 . S
C4059 H4053 0.930 . S
C4059 C4055 1.400 . S
C4059 C4058 1.385 . S
C4060 C4058 1.478 . S
C4060 C4062 1.381 . S
C4060 C4066 1.383 . S
C4061 C4057 1.495 . S
C4061 H4067 0.959 . S
C4061 H4068 0.961 . S
C4061 H4069 0.960 . S
C4062 C4060 1.381 . S
C4062 C4063 1.394 . S
C4062 H4070 0.930 . S
C4063 C4062 1.394 . S
C4063 C4064 1.383 . S
C4063 H4071 0.929 . S
C4064 C4063 1.383 . S
C4064 C4065 1.377 . S
C4065 H4049 0.930 . S
C4065 C4064 1.377 . S
C4065 C4066 1.379 . S
C4066 H4050 0.931 . S
C4066 C4060 1.383 . S
C4066 C4065 1.379 . S
H4067 C4061 0.959 . S
H4068 C4061 0.961 . S
H4069 C4061 0.960 . S
H4070 C4062 0.930 . S
H4071 C4063 0.929 . S
H4072 C4080 0.929 1_545 S
H4073 C4082 0.930 . S
H4074 C4084 0.930 . S
H4075 C4087 0.929 . S
H4076 C4090 0.930 . S
H4077 C4092 0.960 . S
H4078 C4092 0.960 . S
H4079 C4092 0.960 . S
C4080 H4072 0.929 1_565 S
C4080 C4081 1.377 . S
C4080 C4082 1.384 . S
C4081 C4080 1.377 . S
C4081 C4087 1.390 . S
C4082 H4073 0.930 . S
C4082 C4080 1.384 . S
C4082 C4083 1.372 . S
C4083 C4082 1.372 . S
C4083 C4084 1.400 . S
C4083 C4088 1.490 . S
C4084 H4074 0.930 . S
C4084 C4083 1.400 . S
C4084 C4087 1.386 . S
H4085 C4101 0.930 . S
H4086 C4102 0.931 . S
C4087 H4075 0.929 . S
C4087 C4081 1.390 . S
C4087 C4084 1.386 . S
C4088 C4083 1.490 . S
C4088 C4090 1.395 . S
C4088 C4091 1.403 . S
H4089 C4095 0.930 . S
C4090 H4076 0.930 . S
C4090 C4088 1.395 . S
C4090 C4093 1.403 . S
C4091 C4088 1.403 . S
C4091 C4092 1.524 . S
C4091 C4095 1.400 . S
C4092 H4077 0.960 . S
C4092 H4078 0.960 . S
C4092 H4079 0.960 . S
C4092 C4091 1.524 . S
C4093 C4090 1.403 . S
C4093 C4094 1.392 . S
C4093 C4097 1.495 . S
C4094 C4093 1.392 . S
C4094 C4095 1.385 . S
C4094 C4096 1.478 . S
C4095 H4089 0.930 . S
C4095 C4091 1.400 . S
C4095 C4094 1.385 . S
C4096 C4094 1.478 . S
C4096 C4098 1.381 . S
C4096 C4102 1.383 . S
C4097 C4093 1.495 . S
C4097 H4103 0.959 . S
C4097 H4104 0.961 . S
C4097 H4105 0.960 . S
C4098 C4096 1.381 . S
C4098 C4099 1.394 . S
C4098 H4106 0.930 . S
C4099 C4098 1.394 . S
C4099 C4100 1.383 . S
C4099 H4107 0.929 . S
C4100 C4099 1.383 . S
C4100 C4101 1.377 . S
C4101 H4085 0.930 . S
C4101 C4100 1.377 . S
C4101 C4102 1.379 . S
C4102 H4086 0.931 . S
C4102 C4096 1.383 . S
C4102 C4101 1.379 . S
H4103 C4097 0.959 . S
H4104 C4097 0.961 . S
H4105 C4097 0.960 . S
H4106 C4098 0.930 . S
H4107 C4099 0.929 . S
H4108 C4116 0.929 . S
H4109 C4118 0.930 . S
H4110 C4120 0.930 . S
H4111 C4123 0.875 1_565 S
H4112 C4126 0.930 . S
H4113 C4128 0.960 1_655 S
H4114 C4128 0.960 . S
H4115 C4128 0.960 . S
C4116 H4108 0.929 . S
C4116 C4117 1.377 . S
C4116 C4118 1.384 . S
C4117 C4116 1.377 . S
C4117 C4123 1.390 . S
C4118 H4109 0.930 . S
C4118 C4116 1.384 . S
C4118 C4119 1.372 . S
C4119 C4118 1.372 . S
C4119 C4120 1.400 . S
C4119 C4124 1.490 . S
C4120 H4110 0.930 . S
C4120 C4119 1.400 . S
C4120 C4123 1.386 . S
H4121 C4137 0.930 . S
H4122 C4138 0.931 . S
C4123 H4111 0.875 1_545 S
C4123 C4117 1.390 . S
C4123 C4120 1.386 . S
C4124 C4119 1.490 . S
C4124 C4126 1.395 . S
C4124 C4127 1.403 . S
H4125 C4131 0.930 . S
C4126 H4112 0.930 . S
C4126 C4124 1.395 . S
C4126 C4129 1.403 . S
C4127 C4124 1.403 . S
C4127 C4128 1.524 . S
C4127 C4131 1.400 1_455 S
C4128 H4113 0.960 1_455 S
C4128 H4114 0.960 . S
C4128 H4115 0.960 . S
C4128 C4127 1.524 . S
C4129 C4126 1.403 . S
C4129 C4130 1.392 1_455 S
C4129 C4133 1.495 . S
C4130 C4129 1.392 1_655 S
C4130 C4131 1.385 . S
C4130 C4132 1.478 . S
C4131 H4125 0.930 . S
C4131 C4127 1.400 1_655 S
C4131 C4130 1.385 . S
C4132 C4130 1.478 . S
C4132 C4134 1.381 . S
C4132 C4138 1.383 . S
C4133 C4129 1.495 . S
C4133 H4139 0.959 . S
C4133 H4140 0.961 . S
C4133 H4141 0.960 . S
C4134 C4132 1.381 . S
C4134 C4135 1.394 . S
C4134 H4142 0.930 . S
C4135 C4134 1.394 . S
C4135 C4136 1.383 . S
C4135 H4143 0.929 . S
C4136 C4135 1.383 . S
C4136 C4137 1.377 . S
C4137 H4121 0.930 . S
C4137 C4136 1.377 . S
C4137 C4138 1.379 . S
C4138 H4122 0.931 . S
C4138 C4132 1.383 . S
C4138 C4137 1.379 . S
H4139 C4133 0.959 . S
H4140 C4133 0.961 . S
H4141 C4133 0.960 . S
H4142 C4134 0.930 . S
H4143 C4135 0.929 . S
C716 C343 0.900 . S
C697 C11 0.909 . S
C733 C14 1.042 . S
C752 C363 0.992 . S
C788 C384 0.997 . S
C769 C37 1.075 . S
C824 C411 0.994 . S
C805 C47 1.032 . S
C860 C367 0.955 . S
C841 C61 1.026 . S
C877 C79 1.076 . S
C896 C387 1.024 . S
C932 C407 1.005 . S
C913 C84 1.041 . S
C949 C109 0.906 . S
C968 C340 0.922 . S
C985 C123 0.919 . S
C1004 C345 0.938 . S
C1040 C362 0.992 . S
C1021 C131 1.020 . S
C1076 C386 1.057 . S
C1057 C140 1.085 . S
C1112 C410 1.029 . S
C1093 C163 1.008 . S
C1148 C366 0.965 . S
C1129 C121 1.016 . S
C1184 C389 1.093 . S
C1165 C126 1.081 . S
C1201 C145 1.020 . S
C1220 C406 0.997 . S
C1256 C342 0.891 . S
C1237 C165 0.912 . S
C1273 C168 0.948 . S
C1292 C344 0.964 . S
C1309 C193 0.982 . S
C1328 C431 0.921 . S
C1364 C451 1.048 . S
C1345 C205 1.038 . S
C1400 C474 1.067 . S
C1381 C215 1.059 . S
C1417 C224 0.949 . S
C1436 C341 0.948 . S
C1453 C247 1.042 . S
C1472 C385 1.046 . S
C1508 C475 0.917 . S
C1489 C207 0.974 . S
C1544 C430 1.067 . S
C1525 C257 1.057 . S
C1580 C498 1.034 . S
C1561 C23 1.043 . S
C1616 C519 0.984 . S
C1597 C0 0.965 . S
C1633 C53 0.884 . S
C1652 C538 0.919 . S
C1669 C33 1.049 . S
C1688 C563 1.055 . S
C1705 C103 1.049 . S
C1724 C518 0.994 . S
C1741 C95 0.888 . S
C1760 C543 0.823 . S
C1796 C562 0.956 . S
C1777 C70 0.964 . S
C1813 C65 1.032 . S
C1832 C495 0.991 . S
C1849 C271 1.074 . S
C1868 C499 0.998 . S
C1904 C520 0.997 . S
C1885 C219 1.018 . S
C1940 C539 0.919 . S
C1921 C235 0.884 . S
C1976 C564 0.921 . S
C1957 C182 0.970 . S
C2012 C516 0.996 . S
C1993 C266 0.969 . S
C2048 C541 0.919 . S
C2029 C221 0.884 . S
C2084 C560 0.962 . S
C2065 C233 1.007 . S
C2101 C187 1.071 . S
C2120 C496 1.053 . S
C2156 C497 0.996 . S
C2137 C289 0.988 . S
C2173 C154 1.016 . S
C2192 C583 1.026 . S
C2228 C608 0.983 . S
C2209 C299 0.964 . S
C2245 C137 0.961 . S
C2264 C627 0.920 . S
C2300 C494 0.995 . S
C2281 C149 1.000 . S
C2336 C540 0.970 . S
C2317 C313 0.967 . S
C2372 C631 1.044 . S
C2353 C294 1.022 . S
C2389 C333 0.958 . S
C2408 C587 0.969 . S
C2425 C39 0.897 . S
C2444 C651 0.912 . S
C2461 C42 1.038 . S
C2480 C429 0.971 . S
C2516 C453 1.028 . S
C2497 C9 1.070 . S
C2533 C19 1.033 . S
C2552 C477 0.982 . S
C2569 C89 1.027 . S
C2588 C433 1.034 . S
C2605 C107 1.074 . S
C2624 C450 1.038 . S
C2660 C473 1.041 . S
C2641 C56 1.040 . S
C2696 C648 0.856 . S
C2677 C81 0.901 . S
C2732 C653 0.916 . S
C2713 C305 0.910 . S
C2768 C428 0.936 . S
C2749 C285 1.022 . S
C2804 C455 1.041 . S
C2785 C322 1.094 . S
C2821 C317 1.017 . S
C2840 C476 0.958 . S
C2876 C432 0.955 . S
C2857 C303 1.021 . S
C2893 C280 1.095 . S
C2912 C452 1.029 . S
C2948 C472 0.994 . S
C2929 C327 1.020 . S
C2965 C319 0.911 . S
C2984 C650 0.894 . S
C3020 C652 0.922 . S
C3001 C210 0.964 . S
C3037 C249 0.978 . S
C3056 C365 0.974 . S
C3092 C388 0.969 . S
C3073 C275 1.050 . S
C3109 C173 1.063 . S
C3128 C408 1.045 . S
C3164 C649 0.983 . S
C3145 C252 0.954 . S
C3200 C454 1.061 . S
C3181 C191 1.038 . S
C3236 C409 0.974 . S
C3217 C277 0.969 . S
C3272 C364 0.994 . S
C3253 C229 1.067 . S
C3289 C51 1.033 . S
C3308 C675 1.037 . S
C3325 C28 0.964 . S
C3344 C585 0.960 . S
C3361 C25 0.881 . S
C3380 C604 0.915 . S
C3416 C629 0.994 . S
C3397 C5 1.055 . S
C3452 C584 1.060 . S
C3433 C75 1.053 . S
C3469 C67 0.883 . S
C3488 C609 0.827 . S
C3524 C628 0.950 . S
C3505 C98 0.976 . S
C3541 C93 1.043 . S
C3560 C670 1.020 . S
C3596 C673 1.030 . S
C3577 C201 1.070 . S
C3613 C177 1.007 . S
C3632 C586 0.961 . S
C3649 C263 0.892 . S
C3668 C605 0.841 . S
C3704 C630 0.950 . S
C3685 C238 0.967 . S
C3740 C582 0.983 . S
C3721 C196 0.967 . S
C3757 C179 0.882 . S
C3776 C607 0.857 . S
C3812 C626 1.035 . S
C3793 C261 1.015 . S
C3848 C671 1.027 . S
C3829 C243 1.078 . S
C3884 C674 1.010 . S
C3865 C135 0.996 . S
C3920 C517 0.963 . S
C3901 C308 1.025 . S
C3937 C117 0.961 . S
C3956 C542 0.973 . S
C3973 C291 0.960 . S
C3992 C561 0.985 . S
C4028 C672 0.998 . S
C4009 C331 0.988 . S
C4064 C606 0.907 . S
C4045 C159 0.960 . S
C4100 C565 0.965 . S
C4081 C112 1.026 . S
C4136 C521 0.977 . S
C4117 C151 0.956 . S
