# Generated by pormake.
# Topology ctn, (3,4)-cn, num edge types: 1
# Building blocks:
#     Node 0, Type 0, BuildingBlock: OLANEW_clean_sbu_2, # of connection points: 3
#     Node 1, Type 0, BuildingBlock: OLANEW_clean_sbu_2, # of connection points: 3
#     Node 2, Type 0, BuildingBlock: OLANEW_clean_sbu_2, # of connection points: 3
#     Node 3, Type 0, BuildingBlock: OLANEW_clean_sbu_2, # of connection points: 3
#     Node 4, Type 0, BuildingBlock: OLANEW_clean_sbu_2, # of connection points: 3
#     Node 5, Type 0, BuildingBlock: OLANEW_clean_sbu_2, # of connection points: 3
#     Node 6, Type 0, BuildingBlock: OLANEW_clean_sbu_2, # of connection points: 3
#     Node 7, Type 0, BuildingBlock: OLANEW_clean_sbu_2, # of connection points: 3
#     Node 8, Type 0, BuildingBlock: OLANEW_clean_sbu_2, # of connection points: 3
#     Node 9, Type 0, BuildingBlock: OLANEW_clean_sbu_2, # of connection points: 3
#     Node 10, Type 0, BuildingBlock: OLANEW_clean_sbu_2, # of connection points: 3
#     Node 11, Type 0, BuildingBlock: OLANEW_clean_sbu_2, # of connection points: 3
#     Node 12, Type 0, BuildingBlock: OLANEW_clean_sbu_2, # of connection points: 3
#     Node 13, Type 0, BuildingBlock: OLANEW_clean_sbu_2, # of connection points: 3
#     Node 14, Type 0, BuildingBlock: OLANEW_clean_sbu_2, # of connection points: 3
#     Node 15, Type 0, BuildingBlock: OLANEW_clean_sbu_2, # of connection points: 3
#     Node 16, Type 1, BuildingBlock: TATPOV_clean_sbu_0, # of connection points: 4
#     Node 17, Type 1, BuildingBlock: TATPOV_clean_sbu_0, # of connection points: 4
#     Node 18, Type 1, BuildingBlock: TATPOV_clean_sbu_0, # of connection points: 4
#     Node 19, Type 1, BuildingBlock: TATPOV_clean_sbu_0, # of connection points: 4
#     Node 20, Type 1, BuildingBlock: TATPOV_clean_sbu_0, # of connection points: 4
#     Node 21, Type 1, BuildingBlock: TATPOV_clean_sbu_0, # of connection points: 4
#     Node 22, Type 1, BuildingBlock: TATPOV_clean_sbu_0, # of connection points: 4
#     Node 23, Type 1, BuildingBlock: TATPOV_clean_sbu_0, # of connection points: 4
#     Node 24, Type 1, BuildingBlock: TATPOV_clean_sbu_0, # of connection points: 4
#     Node 25, Type 1, BuildingBlock: TATPOV_clean_sbu_0, # of connection points: 4
#     Node 26, Type 1, BuildingBlock: TATPOV_clean_sbu_0, # of connection points: 4
#     Node 27, Type 1, BuildingBlock: TATPOV_clean_sbu_0, # of connection points: 4
#     Edge 28, Type (0, 1), BuildingBlock: KIFKEQ_clean_linker_1, # of connection points: 2
#     Edge 29, Type (0, 1), BuildingBlock: KIFKEQ_clean_linker_1, # of connection points: 2
#     Edge 30, Type (0, 1), BuildingBlock: KIFKEQ_clean_linker_1, # of connection points: 2
#     Edge 31, Type (0, 1), BuildingBlock: KIFKEQ_clean_linker_1, # of connection points: 2
#     Edge 32, Type (0, 1), BuildingBlock: KIFKEQ_clean_linker_1, # of connection points: 2
#     Edge 33, Type (0, 1), BuildingBlock: KIFKEQ_clean_linker_1, # of connection points: 2
#     Edge 34, Type (0, 1), BuildingBlock: KIFKEQ_clean_linker_1, # of connection points: 2
#     Edge 35, Type (0, 1), BuildingBlock: KIFKEQ_clean_linker_1, # of connection points: 2
#     Edge 36, Type (0, 1), BuildingBlock: KIFKEQ_clean_linker_1, # of connection points: 2
#     Edge 37, Type (0, 1), BuildingBlock: KIFKEQ_clean_linker_1, # of connection points: 2
#     Edge 38, Type (0, 1), BuildingBlock: KIFKEQ_clean_linker_1, # of connection points: 2
#     Edge 39, Type (0, 1), BuildingBlock: KIFKEQ_clean_linker_1, # of connection points: 2
#     Edge 40, Type (0, 1), BuildingBlock: KIFKEQ_clean_linker_1, # of connection points: 2
#     Edge 41, Type (0, 1), BuildingBlock: KIFKEQ_clean_linker_1, # of connection points: 2
#     Edge 42, Type (0, 1), BuildingBlock: KIFKEQ_clean_linker_1, # of connection points: 2
#     Edge 43, Type (0, 1), BuildingBlock: KIFKEQ_clean_linker_1, # of connection points: 2
#     Edge 44, Type (0, 1), BuildingBlock: KIFKEQ_clean_linker_1, # of connection points: 2
#     Edge 45, Type (0, 1), BuildingBlock: KIFKEQ_clean_linker_1, # of connection points: 2
#     Edge 46, Type (0, 1), BuildingBlock: KIFKEQ_clean_linker_1, # of connection points: 2
#     Edge 47, Type (0, 1), BuildingBlock: KIFKEQ_clean_linker_1, # of connection points: 2
#     Edge 48, Type (0, 1), BuildingBlock: KIFKEQ_clean_linker_1, # of connection points: 2
#     Edge 49, Type (0, 1), BuildingBlock: KIFKEQ_clean_linker_1, # of connection points: 2
#     Edge 50, Type (0, 1), BuildingBlock: KIFKEQ_clean_linker_1, # of connection points: 2
#     Edge 51, Type (0, 1), BuildingBlock: KIFKEQ_clean_linker_1, # of connection points: 2
#     Edge 52, Type (0, 1), BuildingBlock: KIFKEQ_clean_linker_1, # of connection points: 2
#     Edge 53, Type (0, 1), BuildingBlock: KIFKEQ_clean_linker_1, # of connection points: 2
#     Edge 54, Type (0, 1), BuildingBlock: KIFKEQ_clean_linker_1, # of connection points: 2
#     Edge 55, Type (0, 1), BuildingBlock: KIFKEQ_clean_linker_1, # of connection points: 2
#     Edge 56, Type (0, 1), BuildingBlock: KIFKEQ_clean_linker_1, # of connection points: 2
#     Edge 57, Type (0, 1), BuildingBlock: KIFKEQ_clean_linker_1, # of connection points: 2
#     Edge 58, Type (0, 1), BuildingBlock: KIFKEQ_clean_linker_1, # of connection points: 2
#     Edge 59, Type (0, 1), BuildingBlock: KIFKEQ_clean_linker_1, # of connection points: 2
#     Edge 60, Type (0, 1), BuildingBlock: KIFKEQ_clean_linker_1, # of connection points: 2
#     Edge 61, Type (0, 1), BuildingBlock: KIFKEQ_clean_linker_1, # of connection points: 2
#     Edge 62, Type (0, 1), BuildingBlock: KIFKEQ_clean_linker_1, # of connection points: 2
#     Edge 63, Type (0, 1), BuildingBlock: KIFKEQ_clean_linker_1, # of connection points: 2
#     Edge 64, Type (0, 1), BuildingBlock: KIFKEQ_clean_linker_1, # of connection points: 2
#     Edge 65, Type (0, 1), BuildingBlock: KIFKEQ_clean_linker_1, # of connection points: 2
#     Edge 66, Type (0, 1), BuildingBlock: KIFKEQ_clean_linker_1, # of connection points: 2
#     Edge 67, Type (0, 1), BuildingBlock: KIFKEQ_clean_linker_1, # of connection points: 2
#     Edge 68, Type (0, 1), BuildingBlock: KIFKEQ_clean_linker_1, # of connection points: 2
#     Edge 69, Type (0, 1), BuildingBlock: KIFKEQ_clean_linker_1, # of connection points: 2
#     Edge 70, Type (0, 1), BuildingBlock: KIFKEQ_clean_linker_1, # of connection points: 2
#     Edge 71, Type (0, 1), BuildingBlock: KIFKEQ_clean_linker_1, # of connection points: 2
#     Edge 72, Type (0, 1), BuildingBlock: KIFKEQ_clean_linker_1, # of connection points: 2
#     Edge 73, Type (0, 1), BuildingBlock: KIFKEQ_clean_linker_1, # of connection points: 2
#     Edge 74, Type (0, 1), BuildingBlock: KIFKEQ_clean_linker_1, # of connection points: 2
#     Edge 75, Type (0, 1), BuildingBlock: KIFKEQ_clean_linker_1, # of connection points: 2
# Relax obj value: 0.053
# Max RMSD: 0.169
# Mean RMSD: 0.095
data_MOF--net-ctn--node1-OLANEW_clean_sbu_2--node2-TATPOV_clean_sbu_0--edge1-KIFKEQ_clean_linker_1
_symmetry_space_group_name_H-M    P1
_symmetry_Int_Tables_number       1
_symmetry_cell_setting            triclinic
loop_
_symmetry_equiv_pos_as_xyz
'x, y, z'
_cell_length_a     58.545894
_cell_length_b     59.911268
_cell_length_c     56.845177
_cell_angle_alpha  92.176029
_cell_angle_beta   95.739655
_cell_angle_gamma 96.786031
loop_
_atom_site_label
_atom_site_type_symbol
_atom_site_fract_x
_atom_site_fract_y
_atom_site_fract_z
_atom_type_partial_charge
O0 O 0.04224 0.03634 0.98648 0.0
Cd1 Cd 0.03977 0.99678 0.99719 0.0
O2 O 0.02287 0.04292 0.0163 0.0
Cd3 Cd 0.00279 0.05692 0.04271 0.0
O4 O 0.98579 0.05291 0.07534 0.0
C5 C 0.96601 0.0588 0.07805 0.0
O6 O 0.95509 0.06875 0.06088 0.0
C7 C 0.03229 0.05009 0.99832 0.0
C8 C 0.0804 0.97619 0.00109 0.0
O9 O 0.06898 0.97775 0.98089 0.0
O10 O 0.07307 0.98503 0.01936 0.0
O11 O 0.30316 0.73557 0.28136 0.0
Cd12 Cd 0.26336 0.73273 0.26239 0.0
O13 O 0.30326 0.69901 0.2838 0.0
Cd14 Cd 0.26654 0.69039 0.27199 0.0
O15 O 0.23258 0.67132 0.2734 0.0
C16 C 0.22517 0.67015 0.29364 0.0
O17 O 0.23758 0.68133 0.31182 0.0
C18 C 0.31379 0.71887 0.28689 0.0
C19 C 0.26127 0.7579 0.22194 0.0
O20 O 0.25776 0.76653 0.24204 0.0
O21 O 0.26549 0.73739 0.22097 0.0
O22 O 0.9709 0.45718 0.12324 0.0
Cd23 Cd 0.95645 0.45111 0.08141 0.0
O24 O 0.0033 0.44288 0.1189 0.0
Cd25 Cd 0.99338 0.42791 0.08321 0.0
O26 O 0.99467 0.40206 0.05534 0.0
C27 C 0.01457 0.39706 0.05169 0.0
O28 O 0.03288 0.40812 0.06404 0.0
C29 C 0.99074 0.45292 0.13177 0.0
C30 C 0.92579 0.48191 0.06805 0.0
O31 O 0.91835 0.46207 0.07378 0.0
O32 O 0.9477 0.48717 0.06855 0.0
O33 O 0.75536 0.80611 0.23129 0.0
Cd34 Cd 0.72931 0.77067 0.22666 0.0
O35 O 0.76035 0.80409 0.27001 0.0
Cd36 Cd 0.73523 0.77438 0.27257 0.0
O37 O 0.70581 0.75802 0.28908 0.0
C38 C 0.7069 0.76086 0.31147 0.0
O39 O 0.72577 0.77189 0.32285 0.0
C40 C 0.76482 0.81421 0.25141 0.0
C41 C 0.73978 0.74068 0.19157 0.0
O42 O 0.72667 0.75591 0.18657 0.0
O43 O 0.74815 0.73975 0.21318 0.0
O44 O 0.14921 0.92726 0.4847 0.0
Cd45 Cd 0.13313 0.88855 0.49002 0.0
O46 O 0.11559 0.93674 0.47088 0.0
Cd47 Cd 0.09226 0.95839 0.45345 0.0
O48 O 0.06245 0.97016 0.43368 0.0
C49 C 0.06382 0.98029 0.41453 0.0
O50 O 0.08408 0.98466 0.40652 0.0
C51 C 0.13718 0.94203 0.47643 0.0
C52 C 0.10203 0.88415 0.52408 0.0
O53 O 0.12389 0.88558 0.52993 0.0
O54 O 0.09488 0.88521 0.50213 0.0
O55 O 0.29783 0.76049 0.83445 0.0
Cd56 Cd 0.29841 0.74499 0.79401 0.0
O57 O 0.26083 0.76133 0.82549 0.0
Cd58 Cd 0.22582 0.76986 0.82776 0.0
O59 O 0.19091 0.77455 0.81316 0.0
C60 C 0.18933 0.78303 0.79299 0.0
O61 O 0.20839 0.78901 0.78322 0.0
C62 C 0.27864 0.76547 0.84044 0.0
C63 C 0.30793 0.70049 0.79079 0.0
O64 O 0.32424 0.71691 0.7921 0.0
O65 O 0.28716 0.70513 0.79136 0.0
O66 O 0.91041 0.58816 0.44018 0.0
Cd67 Cd 0.8782 0.60008 0.4597 0.0
O68 O 0.9251 0.58749 0.47684 0.0
Cd69 Cd 0.9496 0.58599 0.50816 0.0
O70 O 0.95687 0.60228 0.5435 0.0
C71 C 0.97472 0.61642 0.54901 0.0
O72 O 0.99024 0.61948 0.53389 0.0
C73 C 0.9271 0.58434 0.45494 0.0
C74 C 0.85751 0.56377 0.48235 0.0
O75 O 0.8483 0.56956 0.46246 0.0
O76 O 0.87617 0.57538 0.49178 0.0
O77 O 0.8272 0.81269 0.89336 0.0
Cd78 Cd 0.82926 0.8477 0.87259 0.0
O79 O 0.80419 0.82305 0.91897 0.0
Cd80 Cd 0.79914 0.85526 0.90379 0.0
O81 O 0.77595 0.88001 0.89339 0.0
C82 C 0.7584 0.87282 0.87896 0.0
O83 O 0.75636 0.85195 0.87028 0.0
C84 C 0.81598 0.80849 0.91102 0.0
C85 C 0.85461 0.8433 0.834 0.0
O86 O 0.86454 0.85137 0.85416 0.0
O87 O 0.83266 0.83773 0.83201 0.0
O88 O 0.31249 0.31279 0.3907 0.0
Cd89 Cd 0.31363 0.34639 0.36769 0.0
O90 O 0.28157 0.31856 0.40803 0.0
Cd91 Cd 0.27586 0.35027 0.39205 0.0
O92 O 0.25383 0.3767 0.38456 0.0
C93 C 0.24077 0.38057 0.40043 0.0
O94 O 0.24231 0.36941 0.41987 0.0
C95 C 0.29758 0.30657 0.40466 0.0
C96 C 0.33908 0.33965 0.32961 0.0
O97 O 0.34888 0.34917 0.34921 0.0
O98 O 0.31717 0.33381 0.32786 0.0
O99 O 0.44941 0.95109 0.6414 0.0
Cd100 Cd 0.42712 0.94202 0.60294 0.0
O101 O 0.4819 0.9428 0.62881 0.0
Cd102 Cd 0.46666 0.92694 0.59483 0.0
O103 O 0.4685 0.9011 0.5672 0.0
C104 C 0.48878 0.89628 0.56498 0.0
O105 O 0.50627 0.90731 0.57859 0.0
C106 C 0.47107 0.95034 0.64509 0.0
C107 C 0.40579 0.97889 0.58734 0.0
O108 O 0.39549 0.96418 0.59973 0.0
O109 O 0.42614 0.9761 0.58226 0.0
O110 O 0.24176 0.30129 0.72518 0.0
Cd111 Cd 0.21815 0.26456 0.72477 0.0
O112 O 0.2659 0.29418 0.75542 0.0
Cd113 Cd 0.24312 0.26426 0.76315 0.0
O114 O 0.21173 0.24741 0.77591 0.0
C115 C 0.21054 0.24569 0.798 0.0
O116 O 0.22891 0.25275 0.81278 0.0
C117 C 0.25999 0.30713 0.73924 0.0
C118 C 0.22723 0.23433 0.68915 0.0
O119 O 0.21149 0.24733 0.68548 0.0
O120 O 0.23878 0.23569 0.70964 0.0
O121 O 0.80335 0.23207 0.77786 0.0
Cd122 Cd 0.76495 0.22704 0.7554 0.0
O123 O 0.8036 0.19574 0.78217 0.0
Cd124 Cd 0.76722 0.186 0.76948 0.0
O125 O 0.73409 0.16561 0.77174 0.0
C126 C 0.72771 0.16371 0.79237 0.0
O127 O 0.74055 0.17488 0.81029 0.0
C128 C 0.81386 0.21572 0.78488 0.0
C129 C 0.76416 0.25346 0.71585 0.0
O130 O 0.75588 0.25987 0.73466 0.0
O131 O 0.77254 0.23465 0.7157 0.0
O132 O 0.53838 0.5359 0.48708 0.0
Cd133 Cd 0.53476 0.49685 0.49945 0.0
O134 O 0.51638 0.5432 0.51448 0.0
Cd135 Cd 0.4959 0.55933 0.53901 0.0
O136 O 0.47676 0.55929 0.57034 0.0
C137 C 0.45886 0.54502 0.57042 0.0
O138 O 0.452 0.53186 0.55139 0.0
C139 C 0.52742 0.5499 0.49734 0.0
C140 C 0.57431 0.47461 0.50154 0.0
O141 O 0.56156 0.47546 0.48198 0.0
O142 O 0.56879 0.48486 0.51996 0.0
O143 O 0.63592 0.44723 0.00503 0.0
Cd144 Cd 0.62314 0.40694 0.00398 0.0
O145 O 0.60642 0.45303 0.98021 0.0
Cd146 Cd 0.58269 0.47094 0.95791 0.0
O147 O 0.55179 0.47728 0.93553 0.0
C148 C 0.55229 0.48948 0.91773 0.0
O149 O 0.57224 0.49946 0.91254 0.0
C150 C 0.62506 0.46074 0.99285 0.0
C151 C 0.59121 0.39503 0.03586 0.0
O152 O 0.61299 0.39767 0.04243 0.0
O153 O 0.5845 0.3983 0.01424 0.0
O154 O 0.79584 0.26304 0.32933 0.0
Cd155 Cd 0.80551 0.25131 0.29014 0.0
O156 O 0.76012 0.26546 0.31514 0.0
Cd157 Cd 0.72372 0.27007 0.31559 0.0
O158 O 0.68718 0.26774 0.30243 0.0
C159 C 0.6761 0.28474 0.30187 0.0
O160 O 0.68663 0.30437 0.31047 0.0
C161 C 0.77571 0.26766 0.33259 0.0
C162 C 0.81709 0.20747 0.28805 0.0
O163 O 0.83204 0.22407 0.29605 0.0
O164 O 0.79656 0.21155 0.28105 0.0
O165 O 0.42122 0.07733 0.93584 0.0
Cd166 Cd 0.39055 0.09421 0.95349 0.0
O167 O 0.43886 0.08478 0.97134 0.0
Cd168 Cd 0.46379 0.08551 0.00265 0.0
O169 O 0.46763 0.10093 0.03842 0.0
C170 C 0.48399 0.11631 0.04545 0.0
O171 O 0.50032 0.12151 0.03162 0.0
C172 C 0.4389 0.07635 0.95049 0.0
C173 C 0.36766 0.0616 0.97924 0.0
O174 O 0.35885 0.06625 0.95873 0.0
O175 O 0.38688 0.07276 0.98784 0.0
Zn176 Zn 0.30619 0.86883 0.04314 0.0
Zn177 Zn 0.2616 0.87596 0.03606 0.0
O178 O 0.26369 0.85963 0.06778 0.0
O179 O 0.30014 0.85344 0.07299 0.0
O180 O 0.22959 0.88598 0.03312 0.0
O181 O 0.3176 0.90207 0.04401 0.0
O182 O 0.28114 0.90664 0.03459 0.0
C183 C 0.28011 0.85155 0.07984 0.0
C184 C 0.28092 0.84687 0.99971 0.0
O185 O 0.26357 0.85521 0.00674 0.0
O186 O 0.3005 0.85056 0.01184 0.0
C187 C 0.21705 0.88669 0.01361 0.0
O188 O 0.224 0.87879 0.99402 0.0
C189 C 0.30234 0.91477 0.0384 0.0
Zn190 Zn 0.05556 0.46853 0.35304 0.0
Zn191 Zn 0.08259 0.5066 0.34385 0.0
O192 O 0.06134 0.51777 0.36731 0.0
O193 O 0.04056 0.48683 0.37642 0.0
O194 O 0.10351 0.53455 0.33784 0.0
O195 O 0.08443 0.4544 0.36365 0.0
O196 O 0.10584 0.48561 0.35644 0.0
C197 C 0.04578 0.50798 0.37884 0.0
C198 C 0.05017 0.48024 0.30401 0.0
O199 O 0.06577 0.49632 0.3113 0.0
O200 O 0.04258 0.46617 0.31834 0.0
C201 C 0.09874 0.54805 0.32185 0.0
O202 O 0.07894 0.54414 0.30843 0.0
C203 C 0.10417 0.46556 0.36335 0.0
Zn204 Zn 0.78453 0.60443 0.969 0.0
Zn205 Zn 0.78151 0.62249 0.01271 0.0
O206 O 0.80707 0.60222 0.02011 0.0
O207 O 0.80888 0.58668 0.98464 0.0
O208 O 0.7785 0.63964 0.04324 0.0
O209 O 0.79327 0.63506 0.9563 0.0
O210 O 0.79 0.64891 0.99199 0.0
C211 C 0.81557 0.58858 0.00663 0.0
C212 C 0.7399 0.59292 0.98558 0.0
O213 O 0.74949 0.60423 0.00416 0.0
O214 O 0.75097 0.59119 0.96768 0.0
C215 C 0.77057 0.63183 0.06167 0.0
O216 O 0.76412 0.61011 0.06225 0.0
C217 C 0.7942 0.65187 0.9707 0.0
Zn218 Zn 0.86563 0.0085 0.31513 0.0
Zn219 Zn 0.88452 0.01122 0.27424 0.0
O220 O 0.86908 0.04048 0.27754 0.0
O221 O 0.85413 0.03854 0.31153 0.0
O222 O 0.89943 0.01555 0.24384 0.0
O223 O 0.89704 0.00726 0.33264 0.0
O224 O 0.91253 0.00909 0.29893 0.0
C225 C 0.85812 0.04907 0.29321 0.0
C226 C 0.84846 0.97123 0.28166 0.0
O227 O 0.86254 0.98126 0.26861 0.0
O228 O 0.84634 0.9798 0.30194 0.0
C229 C 0.88762 0.01808 0.22431 0.0
O230 O 0.86501 0.01687 0.22365 0.0
C231 C 0.91467 0.00773 0.32137 0.0
Zn232 Zn 0.2874 0.10447 0.46841 0.0
Zn233 Zn 0.27316 0.1203 0.50877 0.0
O234 O 0.3004 0.10378 0.52143 0.0
O235 O 0.31283 0.09167 0.4885 0.0
O236 O 0.263 0.13587 0.5374 0.0
O237 O 0.29284 0.1354 0.4558 0.0
O238 O 0.28109 0.1477 0.4889 0.0
C239 C 0.31441 0.09315 0.51092 0.0
C240 C 0.24111 0.08536 0.47648 0.0
O241 O 0.24507 0.09787 0.49546 0.0
O242 O 0.25614 0.08567 0.46188 0.0
C243 C 0.26396 0.12923 0.55841 0.0
O244 O 0.27164 0.10994 0.5629 0.0
C245 C 0.28848 0.15156 0.46893 0.0
Zn246 Zn 0.35308 0.49911 0.8058 0.0
Zn247 Zn 0.37597 0.50509 0.76721 0.0
O248 O 0.35975 0.53373 0.77101 0.0
O249 O 0.34084 0.52894 0.80236 0.0
O250 O 0.39207 0.51082 0.73773 0.0
O251 O 0.38412 0.49783 0.82487 0.0
O252 O 0.40254 0.50301 0.7932 0.0
C253 C 0.34668 0.54088 0.78554 0.0
C254 C 0.33962 0.46371 0.76981 0.0
O255 O 0.35519 0.47473 0.7592 0.0
O256 O 0.33489 0.47094 0.78975 0.0
C257 C 0.38033 0.51477 0.71861 0.0
O258 O 0.35783 0.51449 0.71835 0.0
C259 C 0.40287 0.50009 0.81533 0.0
Zn260 Zn 0.79943 0.36571 0.53605 0.0
Zn261 Zn 0.75504 0.37315 0.53 0.0
O262 O 0.75723 0.35617 0.56127 0.0
O263 O 0.79297 0.34753 0.56415 0.0
O264 O 0.72333 0.38378 0.52788 0.0
O265 O 0.81116 0.399 0.53952 0.0
O266 O 0.77489 0.40371 0.5293 0.0
C267 C 0.77333 0.34646 0.57182 0.0
C268 C 0.77398 0.34592 0.49184 0.0
O269 O 0.75646 0.35303 0.49996 0.0
O270 O 0.79377 0.34996 0.50349 0.0
C271 C 0.70843 0.38182 0.5098 0.0
O272 O 0.7124 0.37043 0.49075 0.0
C273 C 0.79604 0.41183 0.53386 0.0
Zn274 Zn 0.56813 0.95643 0.85547 0.0
Zn275 Zn 0.59277 0.99544 0.84584 0.0
O276 O 0.57336 0.00503 0.87191 0.0
O277 O 0.55447 0.97312 0.88114 0.0
O278 O 0.61239 0.02414 0.83945 0.0
O279 O 0.5977 0.94237 0.86207 0.0
O280 O 0.61741 0.97445 0.85466 0.0
C281 C 0.55899 0.9943 0.88413 0.0
C282 C 0.55732 0.97012 0.80786 0.0
O283 O 0.573 0.98638 0.81436 0.0
O284 O 0.55197 0.9551 0.82214 0.0
C285 C 0.60651 0.0378 0.82403 0.0
O286 O 0.58624 0.03364 0.81148 0.0
C287 C 0.6169 0.95404 0.86034 0.0
Zn288 Zn 0.02285 0.27293 0.87074 0.0
Zn289 Zn 0.0199 0.23599 0.89537 0.0
O290 O 0.04914 0.23449 0.8773 0.0
O291 O 0.04961 0.26385 0.85515 0.0
O292 O 0.01813 0.20679 0.91276 0.0
O293 O 0.02812 0.29194 0.90115 0.0
O294 O 0.02275 0.26155 0.92154 0.0
C295 C 0.0582 0.24641 0.86169 0.0
C296 C 0.97933 0.24602 0.85965 0.0
O297 O 0.98835 0.23323 0.87447 0.0
O298 O 0.99066 0.26435 0.85501 0.0
C299 C 0.02702 0.20492 0.93387 0.0
O300 O 0.03785 0.22288 0.94592 0.0
C301 C 0.02642 0.28292 0.92078 0.0
Zn302 Zn 0.51722 0.78044 0.38351 0.0
Zn303 Zn 0.51436 0.7426 0.40696 0.0
O304 O 0.54571 0.74374 0.39213 0.0
O305 O 0.54824 0.77569 0.37407 0.0
O306 O 0.51356 0.71394 0.4251 0.0
O307 O 0.51563 0.79858 0.41347 0.0
O308 O 0.51275 0.76746 0.43301 0.0
C309 C 0.55676 0.75806 0.38004 0.0
C310 C 0.47694 0.74967 0.3668 0.0
O311 O 0.48479 0.73775 0.38318 0.0
O312 O 0.48799 0.76843 0.363 0.0
C313 C 0.51778 0.69575 0.41506 0.0
O314 O 0.522 0.69582 0.39278 0.0
C315 C 0.51359 0.78883 0.43264 0.0
Zn316 Zn 0.95281 0.79789 0.64984 0.0
Zn317 Zn 0.99024 0.79375 0.68123 0.0
O318 O 0.0026 0.81604 0.65785 0.0
O319 O 0.97287 0.82041 0.63228 0.0
O320 O 0.01852 0.7918 0.70386 0.0
O321 O 0.93627 0.80829 0.67722 0.0
O322 O 0.96648 0.80402 0.70224 0.0
C323 C 0.99418 0.82492 0.63946 0.0
C324 C 0.96696 0.75285 0.65053 0.0
O325 O 0.98266 0.76193 0.66624 0.0
O326 O 0.95192 0.76436 0.64122 0.0
C327 C 0.03611 0.7856 0.69525 0.0
O328 O 0.03473 0.78043 0.67243 0.0
C329 C 0.94601 0.80922 0.69823 0.0
Zn330 Zn 0.44212 0.28857 0.15006 0.0
Zn331 Zn 0.47895 0.28605 0.18289 0.0
O332 O 0.49127 0.3093 0.16052 0.0
O333 O 0.46191 0.31257 0.13401 0.0
O334 O 0.5065 0.28513 0.20685 0.0
O335 O 0.42372 0.29745 0.17661 0.0
O336 O 0.45365 0.29495 0.20267 0.0
C337 C 0.48289 0.31811 0.14206 0.0
C338 C 0.45904 0.2448 0.1507 0.0
O339 O 0.4736 0.25438 0.16722 0.0
O340 O 0.44354 0.25551 0.14089 0.0
C341 C 0.52414 0.27725 0.20015 0.0
O342 O 0.52355 0.26969 0.17807 0.0
C343 C 0.43284 0.29896 0.19787 0.0
H344 H 0.24192 0.7646 0.86724 0.0
H345 H 0.31355 0.79174 0.86684 0.0
H346 H 0.24114 0.78363 0.9059 0.0
H347 H 0.3128 0.81075 0.90526 0.0
H348 H 0.31259 0.82188 0.98363 0.0
H349 H 0.31081 0.80147 0.94569 0.0
H350 H 0.24306 0.82097 0.92593 0.0
H351 H 0.24459 0.84112 0.96445 0.0
C352 C 0.25735 0.77496 0.87516 0.0
C353 C 0.2777 0.77691 0.86382 0.0
C354 C 0.25694 0.78578 0.89738 0.0
C355 C 0.27692 0.79867 0.90874 0.0
C356 C 0.2972 0.80064 0.89726 0.0
C357 C 0.29762 0.78981 0.87516 0.0
C358 C 0.29723 0.82179 0.97129 0.0
C359 C 0.27881 0.83332 0.97704 0.0
C360 C 0.29628 0.81016 0.94943 0.0
C361 C 0.27695 0.80985 0.93259 0.0
C362 C 0.25817 0.8208 0.93855 0.0
C363 C 0.25907 0.83241 0.96058 0.0
H364 H 0.95712 0.55887 0.47823 0.0
H365 H 0.94361 0.5909 0.41234 0.0
H366 H 0.98948 0.54297 0.46287 0.0
H367 H 0.97565 0.57459 0.39678 0.0
H368 H 0.04431 0.55358 0.38034 0.0
H369 H 0.01856 0.57456 0.40142 0.0
H370 H 0.99108 0.5133 0.43167 0.0
H371 H 0.01676 0.4924 0.41083 0.0
C372 C 0.96139 0.56298 0.46071 0.0
C373 C 0.94796 0.57633 0.44659 0.0
C374 C 0.97976 0.55364 0.4518 0.0
C375 C 0.98511 0.55753 0.42862 0.0
C376 C 0.97215 0.57151 0.41481 0.0
C377 C 0.95369 0.5807 0.42365 0.0
C378 C 0.03304 0.54467 0.3918 0.0
C379 C 0.03245 0.52129 0.39376 0.0
C380 C 0.01822 0.55666 0.40375 0.0
C381 C 0.00273 0.54555 0.4181 0.0
C382 C 0.00296 0.52239 0.42093 0.0
C383 C 0.01758 0.51038 0.40884 0.0
H384 H 0.83914 0.77333 0.89882 0.0
H385 H 0.79142 0.79303 0.94677 0.0
H386 H 0.83605 0.73578 0.91426 0.0
H387 H 0.7879 0.75543 0.96171 0.0
H388 H 0.80042 0.69134 0.99762 0.0
H389 H 0.80817 0.72943 0.98444 0.0
H390 H 0.80759 0.70289 0.9126 0.0
H391 H 0.80043 0.66475 0.92586 0.0
C392 C 0.82807 0.7697 0.91271 0.0
C393 C 0.81548 0.78619 0.9215 0.0
C394 C 0.82618 0.74812 0.92145 0.0
C395 C 0.81163 0.74254 0.93914 0.0
C396 C 0.79949 0.75921 0.9483 0.0
C397 C 0.80142 0.78077 0.93962 0.0
C398 C 0.80206 0.6936 0.97902 0.0
C399 C 0.7997 0.67498 0.96278 0.0
C400 C 0.80641 0.71547 0.97145 0.0
C401 C 0.80842 0.71924 0.94744 0.0
C402 C 0.80645 0.70059 0.93127 0.0
C403 C 0.80219 0.67871 0.93885 0.0
H404 H 0.06027 0.00358 0.37396 0.0
H405 H 0.01922 0.96971 0.42411 0.0
H406 H 0.02497 0.01212 0.35122 0.0
H407 H 0.98414 0.97762 0.40115 0.0
H408 H 0.92611 0.01261 0.36904 0.0
H409 H 0.96272 0.00797 0.39127 0.0
H410 H 0.99156 0.99398 0.32598 0.0
H411 H 0.95492 0.99935 0.30357 0.0
C412 C 0.04374 0.99795 0.38013 0.0
C413 C 0.04258 0.98603 0.4009 0.0
C414 C 0.02351 0.00272 0.36701 0.0
C415 C 0.0017 0.99563 0.37437 0.0
C416 C 0.00062 0.98373 0.39517 0.0
C417 C 0.02079 0.97907 0.4083 0.0
C418 C 0.94027 0.00866 0.35936 0.0
C419 C 0.93752 0.00615 0.33452 0.0
C420 C 0.96126 0.00588 0.37214 0.0
C421 C 0.98002 1.0003 0.36046 0.0
C422 C 0.97752 0.99843 0.33555 0.0
C423 C 0.95649 0.0014 0.3227 0.0
H424 H 0.20423 0.22612 0.64482 0.0
H425 H 0.26074 0.20603 0.69076 0.0
H426 H 0.21198 0.19984 0.61369 0.0
H427 H 0.26886 0.18012 0.6594 0.0
H428 H 0.2636 0.12068 0.60546 0.0
H429 H 0.25384 0.1453 0.63721 0.0
H430 H 0.24049 0.1956 0.5868 0.0
H431 H 0.24967 0.17089 0.5551 0.0
C432 C 0.21837 0.21615 0.64826 0.0
C433 C 0.23191 0.21824 0.67027 0.0
C434 C 0.22289 0.20114 0.63036 0.0
C435 C 0.2411 0.18788 0.63398 0.0
C436 C 0.25452 0.18984 0.65609 0.0
C437 C 0.24996 0.20483 0.67402 0.0
C438 C 0.25847 0.13695 0.60115 0.0
C439 C 0.25742 0.14378 0.57772 0.0
C440 C 0.25301 0.15113 0.61938 0.0
C441 C 0.24639 0.17247 0.6146 0.0
C442 C 0.24517 0.17918 0.59111 0.0
C443 C 0.25058 0.16502 0.57292 0.0
H444 H 0.47152 0.5653 0.61467 0.0
H445 H 0.41888 0.5179 0.57516 0.0
H446 H 0.45243 0.55879 0.65055 0.0
H447 H 0.40003 0.51126 0.61098 0.0
H448 H 0.35985 0.5216 0.67456 0.0
H449 H 0.37851 0.53021 0.63898 0.0
H450 H 0.4454 0.52815 0.67792 0.0
H451 H 0.42675 0.51977 0.71367 0.0
C452 C 0.45584 0.55358 0.6136 0.0
C453 C 0.44674 0.54212 0.59202 0.0
C454 C 0.445 0.54973 0.6342 0.0
C455 C 0.42474 0.53445 0.63365 0.0
C456 C 0.41546 0.5233 0.61198 0.0
C457 C 0.42635 0.52705 0.59145 0.0
C458 C 0.37854 0.52299 0.67558 0.0
C459 C 0.39179 0.51992 0.69698 0.0
C460 C 0.38923 0.52784 0.65513 0.0
C461 C 0.41345 0.52985 0.65559 0.0
C462 C 0.42672 0.52697 0.67703 0.0
C463 C 0.41602 0.522 0.69748 0.0
H464 H 0.734 0.28305 0.7014 0.0
H465 H 0.79521 0.25552 0.68345 0.0
H466 H 0.73401 0.30494 0.66602 0.0
H467 H 0.79649 0.27848 0.64931 0.0
H468 H 0.78466 0.30469 0.57797 0.0
H469 H 0.78044 0.28192 0.61197 0.0
H470 H 0.75017 0.33512 0.64671 0.0
H471 H 0.75278 0.35705 0.6114 0.0
C472 C 0.74761 0.28192 0.68998 0.0
C473 C 0.76446 0.26743 0.69499 0.0
C474 C 0.74775 0.29459 0.66975 0.0
C475 C 0.76511 0.29346 0.65439 0.0
C476 C 0.78232 0.27936 0.66003 0.0
C477 C 0.78178 0.26628 0.67981 0.0
C478 C 0.77688 0.31136 0.59283 0.0
C479 C 0.76914 0.3326 0.59219 0.0
C480 C 0.7747 0.29843 0.61254 0.0
C481 C 0.76545 0.30673 0.6326 0.0
C482 C 0.7572 0.32793 0.63166 0.0
C483 C 0.75876 0.34062 0.6115 0.0
H484 H 0.45277 0.95789 0.68669 0.0
H485 H 0.51781 0.95741 0.65685 0.0
H486 H 0.47362 0.96486 0.72619 0.0
H487 H 0.53854 0.96436 0.69632 0.0
H488 H 0.56778 0.99538 0.77029 0.0
H489 H 0.54656 0.99339 0.73078 0.0
H490 H 0.49717 0.94056 0.75192 0.0
H491 H 0.51822 0.94244 0.79124 0.0
C492 C 0.47149 0.95955 0.68851 0.0
C493 C 0.48363 0.95691 0.66867 0.0
C494 C 0.4834 0.96342 0.71112 0.0
C495 C 0.50767 0.96499 0.71429 0.0
C496 C 0.51984 0.96335 0.69437 0.0
C497 C 0.50794 0.95924 0.6718 0.0
C498 C 0.55238 0.98336 0.7665 0.0
C499 C 0.54474 0.969 0.78387 0.0
C500 C 0.54028 0.98222 0.7439 0.0
C501 C 0.52017 0.96691 0.73838 0.0
C502 C 0.51244 0.95273 0.7558 0.0
C503 C 0.52464 0.95369 0.77826 0.0
H504 H 0.84023 0.25619 0.79679 0.0
H505 H 0.84225 0.18439 0.79862 0.0
H506 H 0.87997 0.2627 0.81524 0.0
H507 H 0.88219 0.19091 0.81647 0.0
H508 H 0.94638 0.21219 0.86998 0.0
H509 H 0.90619 0.20467 0.85243 0.0
H510 H 0.91828 0.25898 0.80558 0.0
H511 H 0.95797 0.26682 0.82339 0.0
C512 C 0.84917 0.24179 0.80101 0.0
C513 C 0.83804 0.21978 0.79615 0.0
C514 C 0.87202 0.24551 0.81149 0.0
C515 C 0.88436 0.22732 0.81724 0.0
C516 C 0.87315 0.20531 0.81254 0.0
C517 C 0.85027 0.20158 0.80215 0.0
C518 C 0.94044 0.22243 0.85586 0.0
C519 C 0.95537 0.24018 0.84821 0.0
C520 C 0.91743 0.21809 0.84575 0.0
C521 C 0.90892 0.23137 0.82773 0.0
C522 C 0.92406 0.24875 0.81977 0.0
C523 C 0.94693 0.25313 0.8299 0.0
H524 H 0.45681 0.86504 0.53951 0.0
H525 H 0.53009 0.88789 0.55071 0.0
H526 H 0.46398 0.83695 0.50954 0.0
H527 H 0.53709 0.86002 0.52074 0.0
H528 H 0.53071 0.83261 0.44206 0.0
H529 H 0.52523 0.85693 0.4758 0.0
H530 H 0.4862 0.80122 0.50561 0.0
H531 H 0.49198 0.77653 0.47172 0.0
C532 C 0.47442 0.86402 0.53565 0.0
C533 C 0.49287 0.8788 0.54734 0.0
C534 C 0.47852 0.84783 0.51868 0.0
C535 C 0.50108 0.84637 0.51288 0.0
C536 C 0.51952 0.86089 0.52482 0.0
C537 C 0.51549 0.87683 0.54198 0.0
C538 C 0.52114 0.82545 0.4559 0.0
C539 C 0.51174 0.80269 0.45426 0.0
C540 C 0.5181 0.83936 0.47525 0.0
C541 C 0.50527 0.83094 0.49324 0.0
C542 C 0.49608 0.8081 0.49186 0.0
C543 C 0.49951 0.79399 0.47262 0.0
H544 H 0.20123 0.24363 0.84419 0.0
H545 H 0.16865 0.23267 0.77237 0.0
H546 H 0.16333 0.23864 0.85891 0.0
H547 H 0.13081 0.22733 0.78717 0.0
H548 H 0.07346 0.26072 0.8207 0.0
H549 H 0.1095 0.25517 0.80506 0.0
H550 H 0.12677 0.21368 0.86316 0.0
H551 H 0.0903 0.2194 0.8791 0.0
C552 C 0.18603 0.2397 0.83155 0.0
C553 C 0.18797 0.23894 0.80707 0.0
C554 C 0.1643 0.23668 0.84003 0.0
C555 C 0.14404 0.23287 0.8242 0.0
C556 C 0.14608 0.23063 0.7998 0.0
C557 C 0.16779 0.23362 0.79133 0.0
C558 C 0.08477 0.25019 0.83008 0.0
C559 C 0.07909 0.24065 0.85127 0.0
C560 C 0.10538 0.24683 0.82095 0.0
C561 C 0.12102 0.23395 0.83282 0.0
C562 C 0.1151 0.22379 0.85368 0.0
C563 C 0.09421 0.22697 0.86274 0.0
H564 H 0.49615 0.5801 0.50362 0.0
H565 H 0.55783 0.57156 0.4702 0.0
H566 H 0.49401 0.61604 0.4851 0.0
H567 H 0.55573 0.60736 0.45181 0.0
H568 H 0.52801 0.65505 0.39882 0.0
H569 H 0.5307 0.62105 0.4204 0.0
H570 H 0.51295 0.65505 0.48317 0.0
H571 H 0.50992 0.68922 0.46137 0.0
C572 C 0.50956 0.58609 0.49284 0.0
C573 C 0.52721 0.57293 0.48852 0.0
C574 C 0.50828 0.60668 0.48211 0.0
C575 C 0.52455 0.61449 0.46674 0.0
C576 C 0.54263 0.60166 0.46315 0.0
C577 C 0.54391 0.58117 0.47383 0.0
C578 C 0.52463 0.65535 0.41721 0.0
C579 C 0.51881 0.67494 0.42834 0.0
C580 C 0.52634 0.63585 0.42966 0.0
C581 C 0.52227 0.63535 0.45362 0.0
C582 C 0.51609 0.65482 0.46472 0.0
C583 C 0.51444 0.67443 0.45223 0.0
H584 H 0.90093 0.85524 0.83195 0.0
H585 H 0.83898 0.82349 0.79039 0.0
H586 H 0.92338 0.84851 0.79904 0.0
H587 H 0.86147 0.81622 0.75779 0.0
H588 H 0.90385 0.82482 0.69571 0.0
H589 H 0.88228 0.8346 0.72824 0.0
H590 H 0.93737 0.81783 0.77836 0.0
H591 H 0.95928 0.80863 0.74579 0.0
C592 C 0.8921 0.84682 0.8158 0.0
C593 C 0.86816 0.83991 0.81379 0.0
C594 C 0.905 0.84283 0.79698 0.0
C595 C 0.89426 0.83178 0.77576 0.0
C596 C 0.87026 0.82507 0.77372 0.0
C597 C 0.85737 0.82913 0.79249 0.0
C598 C 0.91144 0.82331 0.71366 0.0
C599 C 0.93328 0.81587 0.71812 0.0
C600 C 0.89899 0.8288 0.73233 0.0
C601 C 0.90801 0.82689 0.75594 0.0
C602 C 0.93001 0.81976 0.76041 0.0
C603 C 0.94253 0.81436 0.74172 0.0
H604 H 0.05579 0.8698 0.51645 0.0
H605 H 0.11106 0.88932 0.57218 0.0
H606 H 0.0296 0.85911 0.54581 0.0
H607 H 0.0846 0.87967 0.60172 0.0
H608 H 0.04131 0.82924 0.64347 0.0
H609 H 0.06676 0.84688 0.6166 0.0
H610 H 0.00809 0.86975 0.57628 0.0
H611 H 0.98243 0.85111 0.60272 0.0
C612 C 0.06222 0.87225 0.53502 0.0
C613 C 0.08554 0.88017 0.542 0.0
C614 C 0.04713 0.86626 0.55193 0.0
C615 C 0.05495 0.86836 0.57624 0.0
C616 C 0.07807 0.87734 0.58318 0.0
C617 C 0.09322 0.88301 0.56625 0.0
C618 C 0.03384 0.8383 0.62908 0.0
C619 C 0.0098 0.83859 0.62513 0.0
C620 C 0.0485 0.84857 0.61367 0.0
C621 C 0.03954 0.85967 0.59407 0.0
C622 C 0.01558 0.86096 0.59086 0.0
C623 C 0.00086 0.85042 0.60613 0.0
H624 H 0.14634 0.76985 0.80662 0.0
H625 H 0.18067 0.79997 0.74962 0.0
H626 H 0.10892 0.77046 0.78354 0.0
H627 H 0.14338 0.80089 0.72684 0.0
H628 H 0.07661 0.7737 0.68183 0.0
H629 H 0.11315 0.77355 0.70626 0.0
H630 H 0.08218 0.79624 0.76731 0.0
H631 H 0.04536 0.79606 0.74289 0.0
C632 C 0.1459 0.77678 0.78928 0.0
C633 C 0.1665 0.78473 0.7799 0.0
C634 C 0.12446 0.77721 0.7761 0.0
C635 C 0.1232 0.78555 0.75328 0.0
C636 C 0.14378 0.79398 0.74418 0.0
C637 C 0.16516 0.79358 0.75733 0.0
C638 C 0.07753 0.77861 0.70047 0.0
C639 C 0.05808 0.78496 0.71039 0.0
C640 C 0.09854 0.77866 0.71445 0.0
C641 C 0.10062 0.78506 0.73869 0.0
C642 C 0.08108 0.79108 0.74872 0.0
C643 C 0.06003 0.79107 0.73471 0.0
H644 H 0.00946 0.64961 0.56544 0.0
H645 H 0.94188 0.61912 0.57968 0.0
H646 H 0.00771 0.67979 0.59497 0.0
H647 H 0.94025 0.6493 0.60924 0.0
H648 H 0.93309 0.72601 0.62265 0.0
H649 H 0.93608 0.68978 0.60306 0.0
H650 H 0.00526 0.69058 0.63776 0.0
H651 H 0.00233 0.72696 0.65745 0.0
C652 C 0.99446 0.64906 0.57522 0.0
C653 C 0.97567 0.63215 0.56993 0.0
C654 C 0.99351 0.66631 0.59223 0.0
C655 C 0.97371 0.66703 0.6042 0.0
C656 C 0.95559 0.64932 0.60004 0.0
C657 C 0.9566 0.632 0.58316 0.0
C658 C 0.9488 0.71831 0.62644 0.0
C659 C 0.96753 0.72946 0.64145 0.0
C660 C 0.95046 0.69746 0.61533 0.0
C661 C 0.97095 0.68739 0.61881 0.0
C662 C 0.98933 0.69804 0.63462 0.0
C663 C 0.98758 0.71881 0.64597 0.0
H664 H 0.77394 0.84384 0.21668 0.0
H665 H 0.78908 0.83469 0.29144 0.0
H666 H 0.79447 0.88206 0.222 0.0
H667 H 0.80964 0.87249 0.29657 0.0
H668 H 0.81512 0.9479 0.30419 0.0
H669 H 0.79635 0.90988 0.29507 0.0
H670 H 0.83351 0.90509 0.23354 0.0
H671 H 0.85242 0.94368 0.2426 0.0
C672 C 0.78191 0.84982 0.23415 0.0
C673 C 0.77961 0.83626 0.25369 0.0
C674 C 0.7937 0.87169 0.23717 0.0
C675 C 0.80333 0.88042 0.25977 0.0
C676 C 0.80195 0.86645 0.27902 0.0
C677 C 0.79026 0.84469 0.27603 0.0
C678 C 0.81929 0.9389 0.28861 0.0
C679 C 0.8355 0.94883 0.27427 0.0
C680 C 0.80859 0.91699 0.28347 0.0
C681 C 0.81377 0.9043 0.26384 0.0
C682 C 0.82922 0.91445 0.24883 0.0
C683 C 0.84004 0.93653 0.25402 0.0
H684 H 0.79471 0.17087 0.26143 0.0
H685 H 0.85353 0.19169 0.31292 0.0
H686 H 0.80473 0.13225 0.26106 0.0
H687 H 0.86311 0.15307 0.31287 0.0
H688 H 0.84825 0.07703 0.32856 0.0
H689 H 0.83864 0.1154 0.32591 0.0
H690 H 0.84243 0.11146 0.25049 0.0
H691 H 0.85266 0.07293 0.25309 0.0
C692 C 0.80975 0.1672 0.27263 0.0
C693 C 0.8233 0.18427 0.28727 0.0
C694 C 0.81553 0.14518 0.27229 0.0
C695 C 0.83464 0.1398 0.28696 0.0
C696 C 0.84824 0.15685 0.30147 0.0
C697 C 0.84277 0.17892 0.30145 0.0
C698 C 0.84696 0.08424 0.31135 0.0
C699 C 0.85123 0.07195 0.29101 0.0
C700 C 0.84157 0.10623 0.3099 0.0
C701 C 0.8399 0.1163 0.28804 0.0
C702 C 0.8436 0.10396 0.26754 0.0
C703 C 0.8495 0.08201 0.26906 0.0
H704 H 0.32166 0.04724 0.97897 0.0
H705 H 0.3893 0.03349 0.00762 0.0
H706 H 0.30403 0.01447 0.99754 0.0
H707 H 0.37221 0.99967 0.02441 0.0
H708 H 0.33823 0.94317 0.0613 0.0
H709 H 0.35208 0.98116 0.05111 0.0
H710 H 0.29742 0.97658 0.99319 0.0
H711 H 0.28266 0.93962 0.00493 0.0
C712 C 0.33272 0.03709 0.98923 0.0
C713 C 0.35679 0.04281 0.99188 0.0
C714 C 0.32268 0.01812 0.99971 0.0
C715 C 0.33657 0.00396 0.01236 0.0
C716 C 0.36071 0.01017 0.01533 0.0
C717 C 0.37064 0.02953 0.00551 0.0
C718 C 0.32901 0.9506 0.0467 0.0
C719 C 0.30943 0.93853 0.03388 0.0
C720 C 0.33707 0.97231 0.04061 0.0
C721 C 0.32621 0.98212 0.02098 0.0
C722 C 0.30615 0.97007 0.00866 0.0
C723 C 0.29769 0.94869 0.01526 0.0
H724 H 0.20866 0.38972 0.42983 0.0
H725 H 0.2319 0.40573 0.36194 0.0
H726 H 0.17685 0.41207 0.4221 0.0
H727 H 0.19982 0.42803 0.35418 0.0
H728 H 0.1492 0.48129 0.35801 0.0
H729 H 0.18364 0.46268 0.3681 0.0
H730 H 0.14111 0.40709 0.3942 0.0
H731 H 0.10684 0.42559 0.38431 0.0
C732 C 0.2071 0.39813 0.41331 0.0
C733 C 0.22273 0.39578 0.39641 0.0
C734 C 0.18879 0.41086 0.40886 0.0
C735 C 0.18572 0.42163 0.38745 0.0
C736 C 0.20183 0.42002 0.3709 0.0
C737 C 0.22013 0.40716 0.3753 0.0
C738 C 0.14724 0.46517 0.36606 0.0
C739 C 0.12526 0.45493 0.37035 0.0
C740 C 0.16694 0.45448 0.3717 0.0
C741 C 0.16507 0.43346 0.38197 0.0
C742 C 0.14315 0.42341 0.38657 0.0
C743 C 0.12348 0.43397 0.38077 0.0
H744 H 0.12082 0.98273 0.4825 0.0
H745 H 0.1799 0.95234 0.46285 0.0
H746 H 0.14198 0.02027 0.47935 0.0
H747 H 0.20085 0.98952 0.45964 0.0
H748 H 0.22765 0.05673 0.43782 0.0
H749 H 0.19874 0.02377 0.43473 0.0
H750 H 0.17885 0.04185 0.50333 0.0
H751 H 0.20789 0.07501 0.50659 0.0
C752 C 0.13809 0.98409 0.47701 0.0
C753 C 0.1487 0.96469 0.47272 0.0
C754 C 0.15023 0.0055 0.47541 0.0
C755 C 0.17296 0.00776 0.46907 0.0
C756 C 0.18323 0.9883 0.4642 0.0
C757 C 0.17131 0.96702 0.4662 0.0
C758 C 0.21684 0.05401 0.45209 0.0
C759 C 0.2204 0.06831 0.47266 0.0
C760 C 0.2003 0.03508 0.45029 0.0
C761 C 0.18684 0.0301 0.46894 0.0
C762 C 0.18899 0.04534 0.48867 0.0
C763 C 0.20568 0.06429 0.49055 0.0
H764 H 0.71116 0.15463 0.83463 0.0
H765 H 0.69874 0.13604 0.75982 0.0
H766 H 0.68036 0.1257 0.84234 0.0
H767 H 0.66804 0.10684 0.76765 0.0
H768 H 0.60161 0.06808 0.78948 0.0
H769 H 0.62918 0.1002 0.78176 0.0
H770 H 0.67584 0.08441 0.84084 0.0
H771 H 0.64832 0.05256 0.84873 0.0
C772 C 0.70177 0.14448 0.81979 0.0
C773 C 0.70755 0.14754 0.79662 0.0
C774 C 0.68419 0.12781 0.82425 0.0
C775 C 0.67192 0.11383 0.80565 0.0
C776 C 0.67708 0.11744 0.78235 0.0
C777 C 0.69474 0.1341 0.77788 0.0
C778 C 0.6177 0.07155 0.8009 0.0
C779 C 0.62277 0.05774 0.81972 0.0
C780 C 0.63352 0.08988 0.79639 0.0
C781 C 0.65466 0.09486 0.81071 0.0
C782 C 0.65957 0.08121 0.82969 0.0
C783 C 0.64384 0.06285 0.83411 0.0
H784 H 0.36243 0.98875 0.59422 0.0
H785 H 0.42331 0.01293 0.56111 0.0
H786 H 0.34276 0.01931 0.57801 0.0
H787 H 0.40378 0.04376 0.5453 0.0
H788 H 0.34878 0.07209 0.49423 0.0
H789 H 0.37245 0.04681 0.51484 0.0
H790 H 0.34176 0.06007 0.57918 0.0
H791 H 0.3176 0.08521 0.55833 0.0
C792 C 0.37171 0.00073 0.5837 0.0
C793 C 0.39436 0.99827 0.57877 0.0
C794 C 0.3605 0.01837 0.57457 0.0
C795 C 0.37167 0.03396 0.5603 0.0
C796 C 0.39458 0.03187 0.55596 0.0
C797 C 0.40579 0.01423 0.56509 0.0
C798 C 0.34726 0.0699 0.51286 0.0
C799 C 0.33114 0.08055 0.52456 0.0
C800 C 0.36097 0.05547 0.52473 0.0
C801 C 0.35891 0.05129 0.54863 0.0
C802 C 0.34352 0.0627 0.56067 0.0
C803 C 0.32982 0.07724 0.54877 0.0
H804 H 0.59855 0.46184 0.54134 0.0
H805 H 0.59499 0.45731 0.46504 0.0
H806 H 0.62988 0.43843 0.5438 0.0
H807 H 0.62705 0.43474 0.46742 0.0
H808 H 0.66992 0.37699 0.47759 0.0
H809 H 0.63736 0.39896 0.47603 0.0
H810 H 0.66901 0.43786 0.539 0.0
H811 H 0.70089 0.41523 0.5411 0.0
C812 C 0.60468 0.45608 0.52508 0.0
C813 C 0.59427 0.46144 0.503 0.0
C814 C 0.62275 0.4427 0.52647 0.0
C815 C 0.63111 0.43457 0.50581 0.0
C816 C 0.62085 0.44025 0.48372 0.0
C817 C 0.60257 0.4534 0.48234 0.0
C818 C 0.66979 0.39011 0.4912 0.0
C819 C 0.68798 0.3943 0.50949 0.0
C820 C 0.6512 0.40288 0.49021 0.0
C821 C 0.6505 0.42037 0.5073 0.0
C822 C 0.66865 0.42435 0.52572 0.0
C823 C 0.68706 0.4114 0.52688 0.0
H824 H 0.74657 0.29821 0.34373 0.0
H825 H 0.79535 0.25631 0.37496 0.0
H826 H 0.74359 0.31543 0.38281 0.0
H827 H 0.79209 0.27309 0.41398 0.0
H828 H 0.80847 0.32991 0.47014 0.0
H829 H 0.80594 0.30931 0.4324 0.0
H830 H 0.73209 0.31139 0.42307 0.0
H831 H 0.73469 0.33275 0.46113 0.0
C832 C 0.75608 0.29217 0.35903 0.0
C833 C 0.77116 0.27588 0.35632 0.0
C834 C 0.75443 0.30209 0.38143 0.0
C835 C 0.76783 0.29587 0.40151 0.0
C836 C 0.78192 0.27867 0.39884 0.0
C837 C 0.78372 0.26895 0.3765 0.0
C838 C 0.7916 0.32597 0.46019 0.0
C839 C 0.77176 0.33298 0.46877 0.0
C840 C 0.79014 0.31394 0.43854 0.0
C841 C 0.76877 0.3084 0.42478 0.0
C842 C 0.74883 0.31544 0.43322 0.0
C843 C 0.7503 0.32759 0.45504 0.0
H844 H 0.485 0.08508 0.96674 0.0
H845 H 0.43637 0.04156 0.91818 0.0
H846 H 0.51667 0.06534 0.95449 0.0
H847 H 0.46781 0.02189 0.90617 0.0
H848 H 0.52376 0.97664 0.90838 0.0
H849 H 0.49633 0.99691 0.92732 0.0
H850 H 0.53493 0.06013 0.91364 0.0
H851 H 0.5625 0.03989 0.89432 0.0
C852 C 0.48106 0.07116 0.95371 0.0
C853 C 0.45822 0.06469 0.94355 0.0
C854 C 0.49917 0.06002 0.9466 0.0
C855 C 0.49459 0.04199 0.92959 0.0
C856 C 0.47175 0.03554 0.91956 0.0
C857 C 0.4538 0.04689 0.92631 0.0
C858 C 0.52674 0.99485 0.90974 0.0
C859 C 0.54519 0.00664 0.89951 0.0
C860 C 0.51095 0.00643 0.92053 0.0
C861 C 0.51339 0.03003 0.92164 0.0
C862 C 0.53271 0.0419 0.91301 0.0
C863 C 0.54844 0.0303 0.90192 0.0
H864 H 0.32924 0.27664 0.40175 0.0
H865 H 0.26707 0.28719 0.43354 0.0
H866 H 0.32872 0.23988 0.41881 0.0
H867 H 0.26628 0.25029 0.45009 0.0
H868 H 0.28184 0.19041 0.49286 0.0
H869 H 0.28595 0.22856 0.47902 0.0
H870 H 0.30567 0.20343 0.41268 0.0
H871 H 0.30209 0.16542 0.42667 0.0
C872 C 0.31551 0.27117 0.41243 0.0
C873 C 0.29815 0.28485 0.41619 0.0
C874 C 0.31514 0.25004 0.42209 0.0
C875 C 0.29739 0.24209 0.43571 0.0
C876 C 0.28035 0.25599 0.43993 0.0
C877 C 0.28074 0.27712 0.43031 0.0
C878 C 0.28716 0.19304 0.47537 0.0
C879 C 0.29157 0.17484 0.46085 0.0
C880 C 0.28941 0.2149 0.4674 0.0
C881 C 0.2961 0.21905 0.44473 0.0
C882 C 0.30081 0.20088 0.43036 0.0
C883 C 0.29859 0.17905 0.43834 0.0
H884 H 0.50907 0.46817 0.92162 0.0
H885 H 0.54639 0.51575 0.87965 0.0
H886 H 0.47353 0.47104 0.89654 0.0
H887 H 0.51054 0.51909 0.85484 0.0
H888 H 0.44623 0.50024 0.80083 0.0
H889 H 0.4825 0.4981 0.82541 0.0
H890 H 0.44603 0.49687 0.88788 0.0
H891 H 0.40985 0.49839 0.86338 0.0
C892 C 0.50968 0.47939 0.90714 0.0
C893 C 0.5306 0.49175 0.90267 0.0
C894 C 0.48923 0.48113 0.89281 0.0
C895 C 0.48912 0.49537 0.87371 0.0
C896 C 0.51005 0.50777 0.86923 0.0
C897 C 0.53057 0.50596 0.88355 0.0
C898 C 0.44598 0.49952 0.81981 0.0
C899 C 0.4251 0.49935 0.8301 0.0
C900 C 0.46679 0.49843 0.83392 0.0
C901 C 0.46719 0.49721 0.85863 0.0
C902 C 0.44633 0.49737 0.86889 0.0
C903 C 0.42556 0.49836 0.85481 0.0
H904 H 0.72849 0.74133 0.14384 0.0
H905 H 0.76252 0.70351 0.19716 0.0
H906 H 0.73655 0.71472 0.11313 0.0
H907 H 0.77067 0.6769 0.16631 0.0
H908 H 0.75614 0.62144 0.10487 0.0
H909 H 0.74919 0.64763 0.13673 0.0
H910 H 0.77081 0.70372 0.09527 0.0
H911 H 0.77765 0.67775 0.0635 0.0
C912 C 0.73773 0.72736 0.14902 0.0
C913 C 0.7449 0.72457 0.17295 0.0
C914 C 0.74245 0.71218 0.1314 0.0
C915 C 0.7543 0.69374 0.1373 0.0
C916 C 0.76135 0.69084 0.16124 0.0
C917 C 0.7568 0.70616 0.17888 0.0
C918 C 0.75951 0.63936 0.10261 0.0
C919 C 0.76737 0.64747 0.08159 0.0
C920 C 0.75562 0.65434 0.12089 0.0
C921 C 0.75933 0.67773 0.11843 0.0
C922 C 0.76749 0.6858 0.09756 0.0
C923 C 0.77154 0.67087 0.0794 0.0
H924 H 0.92545 0.07144 0.09116 0.0
H925 H 0.98142 0.03381 0.11433 0.0
H926 H 0.90685 0.06178 0.12654 0.0
H927 H 0.9625 0.02355 0.14928 0.0
H928 H 0.93405 0.02763 0.22095 0.0
H929 H 0.95306 0.03813 0.1861 0.0
H930 H 0.88665 0.03082 0.14406 0.0
H931 H 0.8676 0.02103 0.17911 0.0
C932 C 0.93377 0.06106 0.10377 0.0
C933 C 0.95494 0.05343 0.09989 0.0
C934 C 0.923 0.05536 0.124 0.0
C935 C 0.93308 0.04178 0.1408 0.0
C936 C 0.95436 0.03429 0.13695 0.0
C937 C 0.96517 0.04009 0.1168 0.0
C938 C 0.9235 0.0282 0.20426 0.0
C939 C 0.89928 0.0235 0.20285 0.0
C940 C 0.93442 0.03413 0.18421 0.0
C941 C 0.92143 0.03538 0.16218 0.0
C942 C 0.89721 0.03043 0.16077 0.0
C943 C 0.88628 0.02463 0.18086 0.0
H944 H 0.27409 0.74606 0.17882 0.0
H945 H 0.2487 0.80029 0.2168 0.0
H946 H 0.27687 0.76904 0.14453 0.0
H947 H 0.25146 0.8233 0.18224 0.0
H948 H 0.24116 0.84702 0.10373 0.0
H949 H 0.23464 0.8243 0.13807 0.0
H950 H 0.30317 0.80449 0.13813 0.0
H951 H 0.30978 0.82699 0.10431 0.0
C952 C 0.26891 0.76281 0.17981 0.0
C953 C 0.26134 0.7714 0.20062 0.0
C954 C 0.27059 0.77599 0.16018 0.0
C955 C 0.26454 0.798 0.1608 0.0
C956 C 0.25614 0.80635 0.18126 0.0
C957 C 0.25469 0.79322 0.20106 0.0
C958 C 0.25483 0.83788 0.11117 0.0
C959 C 0.27596 0.8388 0.1012 0.0
C960 C 0.25112 0.82495 0.13083 0.0
C961 C 0.26833 0.81247 0.14058 0.0
C962 C 0.28947 0.81365 0.13077 0.0
C963 C 0.29328 0.8267 0.11144 0.0
H964 H 0.96564 0.46434 0.16756 0.0
H965 H 0.03504 0.45543 0.1526 0.0
H966 H 0.97964 0.47257 0.20937 0.0
H967 H 0.04892 0.46378 0.19426 0.0
H968 H 0.06791 0.50146 0.26689 0.0
H969 H 0.05308 0.49667 0.22503 0.0
H970 H 0.99658 0.44915 0.2422 0.0
H971 H 0.01138 0.45375 0.28401 0.0
C972 C 0.98388 0.46433 0.17314 0.0
C973 C 0.99922 0.45914 0.15681 0.0
C974 C 0.99185 0.46893 0.19706 0.0
C975 C 0.01534 0.46878 0.20499 0.0
C976 C 0.03076 0.46418 0.18857 0.0
C977 C 0.02277 0.45927 0.16476 0.0
C978 C 0.05228 0.49005 0.26175 0.0
C979 C 0.04089 0.47788 0.27875 0.0
C980 C 0.04385 0.48728 0.23781 0.0
C981 C 0.0237 0.47256 0.23044 0.0
C982 C 0.01204 0.46076 0.24745 0.0
C983 C 0.02062 0.46328 0.27135 0.0
H984 H 0.34177 0.68694 0.30003 0.0
H985 H 0.34121 0.75891 0.29769 0.0
H986 H 0.38179 0.69287 0.31789 0.0
H987 H 0.381 0.7648 0.31598 0.0
H988 H 0.4584 0.76858 0.32762 0.0
H989 H 0.41967 0.76006 0.30726 0.0
H990 H 0.40463 0.70698 0.35483 0.0
H991 H 0.44378 0.71522 0.37501 0.0
C992 C 0.35015 0.70403 0.30333 0.0
C993 C 0.33826 0.72246 0.29737 0.0
C994 C 0.37307 0.70741 0.3137 0.0
C995 C 0.38463 0.72929 0.31833 0.0
C996 C 0.37274 0.7477 0.31231 0.0
C997 C 0.34986 0.74433 0.30193 0.0
C998 C 0.44695 0.75494 0.33366 0.0
C999 C 0.45416 0.74269 0.35309 0.0
C1000 C 0.42465 0.75016 0.32206 0.0
C1001 C 0.40892 0.73306 0.32961 0.0
C1002 C 0.41637 0.7202 0.34848 0.0
C1003 C 0.43879 0.72494 0.36008 0.0
H1004 H 0.05439 0.38727 0.03475 0.0
H1005 H 0.98086 0.36574 0.02903 0.0
H1006 H 0.05892 0.35788 0.00528 0.0
H1007 H 0.98551 0.33622 0.99957 0.0
H1008 H 0.00744 0.27352 0.96205 0.0
H1009 H 0.00536 0.30002 0.99557 0.0
H1010 H 0.04539 0.35208 0.96139 0.0
H1011 H 0.0473 0.3259 0.92803 0.0
C1012 C 0.03921 0.37621 0.0273 0.0
C1013 C 0.01723 0.37894 0.0341 0.0
C1014 C 0.04182 0.3594 0.01042 0.0
C1015 C 0.02258 0.34477 0.00019 0.0
C1016 C 0.00067 0.34713 0.00737 0.0
C1017 C 0.99799 0.36415 0.02406 0.0
C1018 C 0.01607 0.29053 0.96192 0.0
C1019 C 0.02745 0.29768 0.9424 0.0
C1020 C 0.01473 0.3057 0.98097 0.0
C1021 C 0.02515 0.32809 0.981 0.0
C1022 C 0.03734 0.33489 0.96192 0.0
C1023 C 0.03834 0.31991 0.94278 0.0
H1024 H 0.70178 0.77153 0.35752 0.0
H1025 H 0.66529 0.73685 0.29418 0.0
H1026 H 0.66629 0.76709 0.37681 0.0
H1027 H 0.62974 0.73221 0.31384 0.0
H1028 H 0.57354 0.71866 0.36782 0.0
H1029 H 0.61121 0.71504 0.35304 0.0
H1030 H 0.62946 0.78696 0.36276 0.0
H1031 H 0.59206 0.79064 0.37675 0.0
C1032 C 0.68634 0.76254 0.34785 0.0
C1033 C 0.6863 0.75484 0.32417 0.0
C1034 C 0.66603 0.76 0.35895 0.0
C1035 C 0.64533 0.74941 0.34675 0.0
C1036 C 0.64555 0.7403 0.32365 0.0
C1037 C 0.66585 0.7431 0.31239 0.0
C1038 C 0.58578 0.73358 0.36699 0.0
C1039 C 0.57993 0.75493 0.37331 0.0
C1040 C 0.60719 0.73153 0.35848 0.0
C1041 C 0.62318 0.75073 0.3569 0.0
C1042 C 0.61753 0.77189 0.36402 0.0
C1043 C 0.59609 0.77399 0.37191 0.0
H1044 H 0.04091 0.06524 0.95526 0.0
H1045 H 0.02119 0.0876 0.02264 0.0
H1046 H 0.03858 0.10255 0.94068 0.0
H1047 H 0.01838 0.12507 0.00774 0.0
H1048 H 0.04307 0.19507 0.97882 0.0
H1049 H 0.0435 0.15801 0.99526 0.0
H1050 H 0.00916 0.12702 0.92926 0.0
H1051 H 0.00893 0.16395 0.91273 0.0
C1052 C 0.036 0.07809 0.96701 0.0
C1053 C 0.03102 0.07325 0.99012 0.0
C1054 C 0.03447 0.09949 0.95852 0.0
C1055 C 0.02805 0.11677 0.97292 0.0
C1056 C 0.02339 0.11212 0.99619 0.0
C1057 C 0.02478 0.09056 0.00467 0.0
C1058 C 0.0355 0.18036 0.96784 0.0
C1059 C 0.02611 0.18251 0.94437 0.0
C1060 C 0.03564 0.15912 0.97733 0.0
C1061 C 0.02651 0.13952 0.96354 0.0
C1062 C 0.01666 0.14174 0.94026 0.0
C1063 C 0.01642 0.16295 0.93081 0.0
H1064 H 0.38528 0.35174 0.32707 0.0
H1065 H 0.32383 0.31651 0.28756 0.0
H1066 H 0.40798 0.34268 0.29508 0.0
H1067 H 0.3466 0.30692 0.2559 0.0
H1068 H 0.38957 0.31222 0.19357 0.0
H1069 H 0.36722 0.32312 0.22503 0.0
H1070 H 0.42264 0.31089 0.27724 0.0
H1071 H 0.44531 0.30057 0.24572 0.0
C1072 C 0.37661 0.34205 0.31156 0.0
C1073 C 0.35274 0.33486 0.30985 0.0
C1074 C 0.38966 0.33672 0.29329 0.0
C1075 C 0.37915 0.324 0.27293 0.0
C1076 C 0.35522 0.317 0.27116 0.0
C1077 C 0.34217 0.32241 0.28938 0.0
C1078 C 0.39703 0.31187 0.21176 0.0
C1079 C 0.41924 0.30549 0.2171 0.0
C1080 C 0.38414 0.31801 0.22982 0.0
C1081 C 0.39309 0.31785 0.2537 0.0
C1082 C 0.41534 0.31152 0.25905 0.0
C1083 C 0.42828 0.30546 0.24096 0.0
H1084 H 0.5461 0.37723 0.02528 0.0
H1085 H 0.59844 0.39564 0.08408 0.0
H1086 H 0.51957 0.36142 0.05233 0.0
H1087 H 0.57156 0.38085 0.11138 0.0
H1088 H 0.53002 0.32472 0.14735 0.0
H1089 H 0.55539 0.3458 0.12266 0.0
H1090 H 0.49601 0.36755 0.08249 0.0
H1091 H 0.47051 0.34546 0.10664 0.0
C1092 C 0.55178 0.37828 0.04406 0.0
C1093 C 0.57442 0.38747 0.05254 0.0
C1094 C 0.5365 0.36934 0.05964 0.0
C1095 C 0.54339 0.3697 0.08412 0.0
C1096 C 0.56578 0.3798 0.09263 0.0
C1097 C 0.58117 0.38841 0.077 0.0
C1098 C 0.52236 0.33421 0.13343 0.0
C1099 C 0.49823 0.33328 0.12886 0.0
C1100 C 0.53696 0.34646 0.1193 0.0
C1101 C 0.52782 0.35836 0.10042 0.0
C1102 C 0.50367 0.35822 0.09653 0.0
C1103 C 0.48904 0.3457 0.11049 0.0
H1104 H 0.64753 0.31767 0.29652 0.0
H1105 H 0.65089 0.24727 0.27948 0.0
H1106 H 0.60978 0.31497 0.27335 0.0
H1107 H 0.61313 0.2446 0.25658 0.0
H1108 H 0.56302 0.25832 0.19236 0.0
H1109 H 0.59858 0.25946 0.21877 0.0
H1110 H 0.56895 0.29717 0.2718 0.0
H1111 H 0.53329 0.29622 0.24524 0.0
C1112 C 0.64013 0.30157 0.28807 0.0
C1113 C 0.65232 0.28274 0.2897 0.0
C1114 C 0.61845 0.30001 0.2749 0.0
C1115 C 0.60858 0.27961 0.263 0.0
C1116 C 0.62045 0.26062 0.26525 0.0
C1117 C 0.64204 0.26215 0.27849 0.0
C1118 C 0.56401 0.26678 0.20967 0.0
C1119 C 0.54534 0.27722 0.21667 0.0
C1120 C 0.58435 0.26731 0.22487 0.0
C1121 C 0.58654 0.27837 0.24738 0.0
C1122 C 0.56782 0.28867 0.25448 0.0
C1123 C 0.54737 0.28802 0.23932 0.0
H1124 H 0.51521 0.15119 0.06528 0.0
H1125 H 0.44857 0.11454 0.07353 0.0
H1126 H 0.50908 0.17911 0.09561 0.0
H1127 H 0.44254 0.14246 0.1039 0.0
H1128 H 0.42833 0.21697 0.12024 0.0
H1129 H 0.43534 0.18249 0.09955 0.0
H1130 H 0.50319 0.18682 0.13823 0.0
H1131 H 0.49623 0.22142 0.15901 0.0
C1132 C 0.49948 0.14882 0.0739 0.0
C1133 C 0.48225 0.13082 0.06672 0.0
C1134 C 0.49602 0.16476 0.09138 0.0
C1135 C 0.47521 0.16308 0.10194 0.0
C1136 C 0.45861 0.14432 0.09583 0.0
C1137 C 0.46214 0.12829 0.07849 0.0
C1138 C 0.44458 0.21037 0.12468 0.0
C1139 C 0.46178 0.22206 0.14112 0.0
C1140 C 0.44854 0.19052 0.11292 0.0
C1141 C 0.46988 0.18203 0.11718 0.0
C1142 C 0.48667 0.1931 0.13445 0.0
C1143 C 0.48261 0.21284 0.14643 0.0
H1144 H 0.30455 0.32151 0.75764 0.0
H1145 H 0.24486 0.34402 0.71894 0.0
H1146 H 0.32429 0.36005 0.76013 0.0
H1147 H 0.26447 0.38256 0.72199 0.0
H1148 H 0.29561 0.44587 0.77456 0.0
H1149 H 0.27708 0.40795 0.76235 0.0
H1150 H 0.33845 0.39351 0.73148 0.0
H1151 H 0.35689 0.4319 0.74312 0.0
C1152 C 0.29578 0.3346 0.74939 0.0
C1153 C 0.27311 0.32973 0.73819 0.0
C1154 C 0.30713 0.3566 0.75071 0.0
C1155 C 0.29584 0.3742 0.74128 0.0
C1156 C 0.27351 0.36924 0.7294 0.0
C1157 C 0.26235 0.34719 0.72762 0.0
C1158 C 0.305 0.43475 0.76478 0.0
C1159 C 0.32768 0.44179 0.75978 0.0
C1160 C 0.29437 0.4131 0.75773 0.0
C1161 C 0.30638 0.39787 0.74602 0.0
C1162 C 0.32887 0.405 0.7405 0.0
C1163 C 0.33933 0.42693 0.74704 0.0
H1164 H 0.27737 0.66215 0.78965 0.0
H1165 H 0.3497 0.68539 0.78654 0.0
H1166 H 0.28559 0.62327 0.78606 0.0
H1167 H 0.35792 0.64647 0.78323 0.0
H1168 H 0.36092 0.57408 0.75638 0.0
H1169 H 0.35073 0.6125 0.75601 0.0
H1170 H 0.30593 0.59757 0.81075 0.0
H1171 H 0.31582 0.55929 0.81099 0.0
C1172 C 0.29503 0.65898 0.78821 0.0
C1173 C 0.3129 0.67688 0.78849 0.0
C1174 C 0.29973 0.63669 0.78622 0.0
C1175 C 0.32241 0.63179 0.78437 0.0
C1176 C 0.34023 0.64969 0.78434 0.0
C1177 C 0.33554 0.67199 0.78643 0.0
C1178 C 0.34872 0.57894 0.76816 0.0
C1179 C 0.33926 0.56362 0.78377 0.0
C1180 C 0.34301 0.60099 0.76805 0.0
C1181 C 0.32759 0.6081 0.78342 0.0
C1182 C 0.31767 0.59258 0.79853 0.0
C1183 C 0.32346 0.57064 0.79874 0.0
H1184 H 0.88069 0.53441 0.50759 0.0
H1185 H 0.812 0.5476 0.48192 0.0
H1186 H 0.86492 0.49892 0.52226 0.0
H1187 H 0.79572 0.51308 0.49842 0.0
H1188 H 0.77591 0.43779 0.50184 0.0
H1189 H 0.79006 0.47541 0.49163 0.0
H1190 H 0.84577 0.47821 0.54829 0.0
H1191 H 0.83246 0.4396 0.55696 0.0
C1192 C 0.8621 0.52989 0.50565 0.0
C1193 C 0.84755 0.54356 0.49347 0.0
C1194 C 0.85294 0.50957 0.51426 0.0
C1195 C 0.82889 0.50275 0.51152 0.0
C1196 C 0.81433 0.5172 0.50031 0.0
C1197 C 0.82359 0.53716 0.49102 0.0
C1198 C 0.79106 0.44657 0.51223 0.0
C1199 C 0.80317 0.43577 0.53009 0.0
C1200 C 0.79917 0.46834 0.50651 0.0
C1201 C 0.81926 0.48017 0.51899 0.0
C1202 C 0.83066 0.4696 0.53774 0.0
C1203 C 0.82292 0.44752 0.54295 0.0
H1204 H 0.75529 0.9156 0.89643 0.0
H1205 H 0.718 0.86123 0.85067 0.0
H1206 H 0.72172 0.93636 0.8917 0.0
H1207 H 0.68472 0.88203 0.84582 0.0
H1208 H 0.62131 0.91024 0.86921 0.0
H1209 H 0.6564 0.89209 0.87257 0.0
H1210 H 0.69681 0.95534 0.86207 0.0
H1211 H 0.66154 0.97373 0.85886 0.0
C1212 C 0.74008 0.9082 0.88513 0.0
C1213 C 0.73925 0.88665 0.87412 0.0
C1214 C 0.72088 0.92013 0.88238 0.0
C1215 C 0.70048 0.91069 0.86865 0.0
C1216 C 0.70004 0.88955 0.85689 0.0
C1217 C 0.71919 0.87769 0.85957 0.0
C1218 C 0.63764 0.92037 0.86771 0.0
C1219 C 0.63857 0.94346 0.86369 0.0
C1220 C 0.65776 0.9099 0.86946 0.0
C1221 C 0.67934 0.92223 0.86732 0.0
C1222 C 0.68042 0.94543 0.86385 0.0
C1223 C 0.66021 0.95593 0.86196 0.0
H1224 H 0.62056 0.49053 0.95752 0.0
H1225 H 0.65316 0.48453 0.02817 0.0
H1226 H 0.64234 0.52765 0.95599 0.0
H1227 H 0.67571 0.52097 0.02628 0.0
H1228 H 0.71264 0.58861 0.02214 0.0
H1229 H 0.67882 0.56102 0.02425 0.0
H1230 H 0.68222 0.53859 0.95166 0.0
H1231 H 0.71534 0.56647 0.94932 0.0
C1232 C 0.63178 0.49739 0.973 0.0
C1233 C 0.63503 0.48462 0.99301 0.0
C1234 C 0.64457 0.51856 0.972 0.0
C1235 C 0.66096 0.52727 0.99092 0.0
C1236 C 0.66309 0.51501 0.01147 0.0
C1237 C 0.6503 0.49396 0.01247 0.0
C1238 C 0.7058 0.57816 0.00646 0.0
C1239 C 0.71697 0.57948 0.9857 0.0
C1240 C 0.68648 0.56225 0.00771 0.0
C1241 C 0.67798 0.5473 0.98826 0.0
C1242 C 0.6881 0.54988 0.96696 0.0
C1243 C 0.70731 0.5658 0.96568 0.0
H1244 H 0.19678 0.64269 0.26046 0.0
H1245 H 0.20634 0.66253 0.33504 0.0
H1246 H 0.16479 0.61453 0.26739 0.0
H1247 H 0.17423 0.63462 0.34185 0.0
H1248 H 0.13978 0.56228 0.34826 0.0
H1249 H 0.16854 0.59335 0.34112 0.0
H1250 H 0.12511 0.60921 0.27957 0.0
H1251 H 0.09629 0.57785 0.28654 0.0
C1252 C 0.19187 0.64126 0.27827 0.0
C1253 C 0.20425 0.65472 0.29723 0.0
C1254 C 0.17347 0.62519 0.28222 0.0
C1255 C 0.16712 0.62221 0.30521 0.0
C1256 C 0.17896 0.63625 0.324 0.0
C1257 C 0.19729 0.65233 0.32005 0.0
C1258 C 0.13627 0.57242 0.33325 0.0
C1259 C 0.11574 0.56754 0.31794 0.0
C1260 C 0.15271 0.59034 0.32925 0.0
C1261 C 0.14907 0.60378 0.30981 0.0
C1262 C 0.12847 0.59904 0.29459 0.0
C1263 C 0.11193 0.58115 0.29866 0.0
H1264 H 0.93529 0.52754 0.06579 0.0
H1265 H 0.87961 0.4729 0.05376 0.0
H1266 H 0.90856 0.55409 0.05235 0.0
H1267 H 0.85312 0.49941 0.03996 0.0
H1268 H 0.82607 0.54971 0.98644 0.0
H1269 H 0.85249 0.52439 0.00281 0.0
H1270 H 0.86972 0.56848 0.06546 0.0
H1271 H 0.84277 0.59387 0.04926 0.0
C1272 C 0.91736 0.52122 0.06033 0.0
C1273 C 0.90956 0.49812 0.06072 0.0
C1274 C 0.90209 0.53643 0.05279 0.0
C1275 C 0.87885 0.52875 0.0451 0.0
C1276 C 0.871 0.50572 0.04571 0.0
C1277 C 0.88615 0.49058 0.05365 0.0
C1278 C 0.8355 0.55412 0.00368 0.0
C1279 C 0.83234 0.57384 0.01655 0.0
C1280 C 0.85051 0.53952 0.01309 0.0
C1281 C 0.86302 0.54447 0.0354 0.0
C1282 C 0.86026 0.56435 0.04818 0.0
C1283 C 0.84484 0.57881 0.03895 0.0
H1284 H 0.10114 0.96032 0.0412 0.0
H1285 H 0.10564 0.9635 0.96604 0.0
H1286 H 0.13305 0.93765 0.0446 0.0
H1287 H 0.13836 0.94181 0.9695 0.0
H1288 H 0.18196 0.88468 0.97776 0.0
H1289 H 0.14882 0.90586 0.97519 0.0
H1290 H 0.17277 0.93792 0.04414 0.0
H1291 H 0.20514 0.91587 0.0471 0.0
C1292 C 0.10919 0.95645 0.02544 0.0
C1293 C 0.10084 0.9637 0.00335 0.0
C1294 C 0.12761 0.94349 0.02738 0.0
C1295 C 0.1384 0.93773 0.00733 0.0
C1296 C 0.13025 0.94541 0.98529 0.0
C1297 C 0.11159 0.95806 0.9833 0.0
C1298 C 0.17999 0.8961 0.99244 0.0
C1299 C 0.19616 0.89854 0.01264 0.0
C1300 C 0.16109 0.90846 0.9909 0.0
C1301 C 0.15807 0.92385 0.00936 0.0
C1302 C 0.17418 0.92603 0.02969 0.0
C1303 C 0.19287 0.91342 0.03137 0.0
loop_
_geom_bond_atom_site_label_1
_geom_bond_atom_site_label_2
_geom_bond_distance
_geom_bond_site_symmetry_2
_ccdc_geom_bond_type
O0 Cd1 2.300 . S
O0 C7 1.275 . S
Cd1 O0 2.300 . S
Cd1 O9 2.381 . S
Cd1 O10 2.378 . S
O2 Cd3 2.385 . S
O2 C7 1.255 . S
Cd3 O2 2.385 . S
Cd3 O4 2.317 . S
O4 Cd3 2.317 . S
O4 C5 1.232 1_455 S
C5 O4 1.232 1_655 S
C5 O6 1.218 . S
O6 C5 1.218 . S
C7 O0 1.275 . S
C7 O2 1.255 . S
C8 O9 1.249 1_565 S
C8 O10 1.252 1_565 S
O9 Cd1 2.381 . S
O9 C8 1.249 1_545 S
O10 Cd1 2.378 . S
O10 C8 1.252 1_545 S
O11 Cd12 2.300 . S
O11 C18 1.275 . S
Cd12 O11 2.300 . S
Cd12 O20 2.381 . S
Cd12 O21 2.378 . S
O13 Cd14 2.385 . S
O13 C18 1.255 . S
Cd14 O13 2.385 . S
Cd14 O15 2.317 . S
O15 Cd14 2.317 . S
O15 C16 1.232 . S
C16 O15 1.232 . S
C16 O17 1.218 . S
O17 C16 1.218 . S
C18 O11 1.275 . S
C18 O13 1.255 . S
C19 O20 1.258 . S
C19 O21 1.256 . S
O20 Cd12 2.381 . S
O20 C19 1.258 . S
O21 Cd12 2.378 . S
O21 C19 1.256 . S
O22 Cd23 2.300 . S
O22 C29 1.275 . S
Cd23 O22 2.300 . S
Cd23 O31 2.381 . S
Cd23 O32 2.378 . S
O24 Cd25 2.385 . S
O24 C29 1.255 . S
Cd25 O24 2.385 . S
Cd25 O26 2.317 . S
O26 Cd25 2.317 . S
O26 C27 1.232 . S
C27 O26 1.232 . S
C27 O28 1.218 . S
O28 C27 1.218 . S
C29 O22 1.275 . S
C29 O24 1.255 . S
C30 O31 1.258 . S
C30 O32 1.256 . S
O31 Cd23 2.381 . S
O31 C30 1.258 . S
O32 Cd23 2.378 . S
O32 C30 1.256 . S
O33 Cd34 2.300 . S
O33 C40 1.275 . S
Cd34 O33 2.300 . S
Cd34 O42 2.381 . S
Cd34 O43 2.378 . S
O35 Cd36 2.385 . S
O35 C40 1.255 . S
Cd36 O35 2.385 . S
Cd36 O37 2.317 . S
O37 Cd36 2.317 . S
O37 C38 1.232 . S
C38 O37 1.232 . S
C38 O39 1.218 . S
O39 C38 1.218 . S
C40 O33 1.275 . S
C40 O35 1.255 . S
C41 O42 1.258 . S
C41 O43 1.256 . S
O42 Cd34 2.381 . S
O42 C41 1.258 . S
O43 Cd34 2.378 . S
O43 C41 1.256 . S
O44 Cd45 2.300 . S
O44 C51 1.275 . S
Cd45 O44 2.300 . S
Cd45 O53 2.381 . S
Cd45 O54 2.378 . S
O46 Cd47 2.393 . S
O46 C51 1.255 . S
Cd47 O46 2.393 . S
Cd47 O48 2.331 . S
O48 Cd47 2.331 . S
O48 C49 1.232 . S
C49 O48 1.232 . S
C49 O50 1.168 1_565 S
O50 C49 1.168 1_545 S
C51 O44 1.275 . S
C51 O46 1.255 . S
C52 O53 1.258 . S
C52 O54 1.256 . S
O53 Cd45 2.381 . S
O53 C52 1.258 . S
O54 Cd45 2.378 . S
O54 C52 1.256 . S
O55 Cd56 2.300 . S
O55 C62 1.275 . S
Cd56 O55 2.300 . S
Cd56 O64 2.381 . S
Cd56 O65 2.378 . S
O57 Cd58 2.385 . S
O57 C62 1.255 . S
Cd58 O57 2.385 . S
Cd58 O59 2.317 . S
O59 Cd58 2.317 . S
O59 C60 1.232 . S
C60 O59 1.232 . S
C60 O61 1.218 . S
O61 C60 1.218 . S
C62 O55 1.275 . S
C62 O57 1.255 . S
C63 O64 1.258 . S
C63 O65 1.256 . S
O64 Cd56 2.381 . S
O64 C63 1.258 . S
O65 Cd56 2.378 . S
O65 C63 1.256 . S
O66 Cd67 2.300 . S
O66 C73 1.275 . S
Cd67 O66 2.300 . S
Cd67 O75 2.381 . S
Cd67 O76 2.378 . S
O68 Cd69 2.385 1_655 S
O68 C73 1.255 . S
Cd69 O68 2.385 1_455 S
Cd69 O70 2.317 1_455 S
O70 Cd69 2.317 1_655 S
O70 C71 1.232 . S
C71 O70 1.232 . S
C71 O72 1.218 1_655 S
O72 C71 1.218 1_455 S
C73 O66 1.275 . S
C73 O68 1.255 . S
C74 O75 1.258 . S
C74 O76 1.256 . S
O75 Cd67 2.381 . S
O75 C74 1.258 . S
O76 Cd67 2.378 . S
O76 C74 1.256 . S
O77 Cd78 2.300 . S
O77 C84 1.275 . S
Cd78 O77 2.300 . S
Cd78 O86 2.381 . S
Cd78 O87 2.378 . S
O79 Cd80 2.385 . S
O79 C84 1.255 . S
Cd80 O79 2.385 . S
Cd80 O81 2.317 . S
O81 Cd80 2.317 . S
O81 C82 1.232 . S
C82 O81 1.232 . S
C82 O83 1.218 . S
O83 C82 1.218 . S
C84 O77 1.275 . S
C84 O79 1.255 . S
C85 O86 1.258 . S
C85 O87 1.256 . S
O86 Cd78 2.381 . S
O86 C85 1.258 . S
O87 Cd78 2.378 . S
O87 C85 1.256 . S
O88 Cd89 2.300 . S
O88 C95 1.275 . S
Cd89 O88 2.300 . S
Cd89 O97 2.381 . S
Cd89 O98 2.378 . S
O90 Cd91 2.385 . S
O90 C95 1.255 . S
Cd91 O90 2.385 . S
Cd91 O92 2.317 . S
O92 Cd91 2.317 . S
O92 C93 1.232 . S
C93 O92 1.232 . S
C93 O94 1.218 . S
O94 C93 1.218 . S
C95 O88 1.275 . S
C95 O90 1.255 . S
C96 O97 1.258 . S
C96 O98 1.256 . S
O97 Cd89 2.381 . S
O97 C96 1.258 . S
O98 Cd89 2.378 . S
O98 C96 1.256 . S
O99 Cd100 2.300 . S
O99 C106 1.275 . S
Cd100 O99 2.300 . S
Cd100 O108 2.381 1_565 S
Cd100 O109 2.378 1_565 S
O101 Cd102 2.385 . S
O101 C106 1.255 . S
Cd102 O101 2.385 . S
Cd102 O103 2.317 . S
O103 Cd102 2.317 . S
O103 C104 1.232 . S
C104 O103 1.232 . S
C104 O105 1.218 . S
O105 C104 1.218 . S
C106 O99 1.275 . S
C106 O101 1.255 . S
C107 O108 1.258 . S
C107 O109 1.256 . S
O108 Cd100 2.381 1_545 S
O108 C107 1.258 . S
O109 Cd100 2.378 1_545 S
O109 C107 1.256 . S
O110 Cd111 2.300 . S
O110 C117 1.275 . S
Cd111 O110 2.300 . S
Cd111 O119 2.381 . S
Cd111 O120 2.378 . S
O112 Cd113 2.385 . S
O112 C117 1.255 . S
Cd113 O112 2.385 . S
Cd113 O114 2.317 . S
O114 Cd113 2.317 . S
O114 C115 1.232 . S
C115 O114 1.232 . S
C115 O116 1.218 . S
O116 C115 1.218 . S
C117 O110 1.275 . S
C117 O112 1.255 . S
C118 O119 1.258 . S
C118 O120 1.256 . S
O119 Cd111 2.381 . S
O119 C118 1.258 . S
O120 Cd111 2.378 . S
O120 C118 1.256 . S
O121 Cd122 2.300 . S
O121 C128 1.275 . S
Cd122 O121 2.300 . S
Cd122 O130 2.381 . S
Cd122 O131 2.378 . S
O123 Cd124 2.385 . S
O123 C128 1.255 . S
Cd124 O123 2.385 . S
Cd124 O125 2.317 . S
O125 Cd124 2.317 . S
O125 C126 1.232 . S
C126 O125 1.232 . S
C126 O127 1.218 . S
O127 C126 1.218 . S
C128 O121 1.275 . S
C128 O123 1.255 . S
C129 O130 1.258 . S
C129 O131 1.256 . S
O130 Cd122 2.381 . S
O130 C129 1.258 . S
O131 Cd122 2.378 . S
O131 C129 1.256 . S
O132 Cd133 2.300 . S
O132 C139 1.275 . S
Cd133 O132 2.300 . S
Cd133 O141 2.381 . S
Cd133 O142 2.378 . S
O134 Cd135 2.385 . S
O134 C139 1.255 . S
Cd135 O134 2.385 . S
Cd135 O136 2.317 . S
O136 Cd135 2.317 . S
O136 C137 1.232 . S
C137 O136 1.232 . S
C137 O138 1.218 . S
O138 C137 1.218 . S
C139 O132 1.275 . S
C139 O134 1.255 . S
C140 O141 1.258 . S
C140 O142 1.256 . S
O141 Cd133 2.381 . S
O141 C140 1.258 . S
O142 Cd133 2.378 . S
O142 C140 1.256 . S
O143 Cd144 2.300 1_556 S
O143 C150 1.275 . S
Cd144 O143 2.300 1_554 S
Cd144 O152 2.381 . S
Cd144 O153 2.378 . S
O145 Cd146 2.385 . S
O145 C150 1.255 . S
Cd146 O145 2.385 . S
Cd146 O147 2.317 . S
O147 Cd146 2.317 . S
O147 C148 1.232 . S
C148 O147 1.232 . S
C148 O149 1.218 . S
O149 C148 1.218 . S
C150 O143 1.275 . S
C150 O145 1.255 . S
C151 O152 1.258 . S
C151 O153 1.256 . S
O152 Cd144 2.381 . S
O152 C151 1.258 . S
O153 Cd144 2.378 . S
O153 C151 1.256 . S
O154 Cd155 2.300 . S
O154 C161 1.275 . S
Cd155 O154 2.300 . S
Cd155 O163 2.381 . S
Cd155 O164 2.378 . S
O156 Cd157 2.385 . S
O156 C161 1.255 . S
Cd157 O156 2.385 . S
Cd157 O158 2.317 . S
O158 Cd157 2.317 . S
O158 C159 1.232 . S
C159 O158 1.232 . S
C159 O160 1.218 . S
O160 C159 1.218 . S
C161 O154 1.275 . S
C161 O156 1.255 . S
C162 O163 1.258 . S
C162 O164 1.256 . S
O163 Cd155 2.381 . S
O163 C162 1.258 . S
O164 Cd155 2.378 . S
O164 C162 1.256 . S
O165 Cd166 2.300 . S
O165 C172 1.275 . S
Cd166 O165 2.300 . S
Cd166 O174 2.381 . S
Cd166 O175 2.378 1_556 S
O167 Cd168 2.385 1_556 S
O167 C172 1.255 . S
Cd168 O167 2.385 1_554 S
Cd168 O169 2.317 . S
O169 Cd168 2.317 . S
O169 C170 1.232 . S
C170 O169 1.232 . S
C170 O171 1.218 . S
O171 C170 1.218 . S
C172 O165 1.275 . S
C172 O167 1.255 . S
C173 O174 1.258 . S
C173 O175 1.256 1_556 S
O174 Cd166 2.381 . S
O174 C173 1.258 . S
O175 Cd166 2.378 1_554 S
O175 C173 1.256 1_554 S
Zn176 O179 2.031 . S
Zn176 O181 2.049 . S
Zn176 O186 2.067 1_554 S
Zn177 O178 1.962 . S
Zn177 O180 1.986 . S
Zn177 O182 1.996 . S
Zn177 O185 1.943 1_554 S
O178 Zn177 1.962 . S
O178 C183 1.254 . S
O179 Zn176 2.031 . S
O179 C183 1.269 . S
O180 Zn177 1.986 . S
O180 C187 1.262 . S
O181 Zn176 2.049 . S
O181 C189 1.260 . S
O182 Zn177 1.996 . S
O182 C189 1.257 . S
C183 O178 1.254 . S
C183 O179 1.269 . S
C184 O185 1.249 . S
C184 O186 1.270 . S
O185 Zn177 1.943 1_556 S
O185 C184 1.249 . S
O186 Zn176 2.067 1_556 S
O186 C184 1.270 . S
C187 O180 1.262 . S
C187 O188 1.232 . S
O188 C187 1.232 . S
C189 O181 1.260 . S
C189 O182 1.257 . S
Zn190 O193 2.031 . S
Zn190 O195 2.049 . S
Zn190 O200 2.067 . S
Zn191 O192 1.962 . S
Zn191 O194 1.986 . S
Zn191 O196 1.996 . S
Zn191 O199 1.943 . S
O192 Zn191 1.962 . S
O192 C197 1.254 . S
O193 Zn190 2.031 . S
O193 C197 1.269 . S
O194 Zn191 1.986 . S
O194 C201 1.262 . S
O195 Zn190 2.049 . S
O195 C203 1.260 . S
O196 Zn191 1.996 . S
O196 C203 1.257 . S
C197 O192 1.254 . S
C197 O193 1.269 . S
C198 O199 1.249 . S
C198 O200 1.270 . S
O199 Zn191 1.943 . S
O199 C198 1.249 . S
O200 Zn190 2.067 . S
O200 C198 1.270 . S
C201 O194 1.262 . S
C201 O202 1.232 . S
O202 C201 1.232 . S
C203 O195 1.260 . S
C203 O196 1.257 . S
Zn204 O207 2.031 1_556 S
Zn204 O209 2.049 . S
Zn204 O214 2.067 . S
Zn205 O206 1.962 . S
Zn205 O208 1.986 . S
Zn205 O210 1.996 1_554 S
Zn205 O213 1.943 . S
O206 Zn205 1.962 . S
O206 C211 1.254 . S
O207 Zn204 2.031 1_554 S
O207 C211 1.269 . S
O208 Zn205 1.986 . S
O208 C215 1.262 . S
O209 Zn204 2.049 . S
O209 C217 1.260 . S
O210 Zn205 1.996 1_556 S
O210 C217 1.257 . S
C211 O206 1.254 . S
C211 O207 1.269 . S
C212 O213 1.249 . S
C212 O214 1.270 1_554 S
O213 Zn205 1.943 . S
O213 C212 1.249 . S
O214 Zn204 2.067 . S
O214 C212 1.270 1_556 S
C215 O208 1.262 . S
C215 O216 1.232 . S
O216 C215 1.232 . S
C217 O209 1.260 . S
C217 O210 1.257 . S
Zn218 O221 2.031 . S
Zn218 O223 2.049 . S
Zn218 O228 2.067 1_545 S
Zn219 O220 1.962 . S
Zn219 O222 1.986 . S
Zn219 O224 1.996 . S
Zn219 O227 1.943 1_545 S
O220 Zn219 1.962 . S
O220 C225 1.254 . S
O221 Zn218 2.031 . S
O221 C225 1.269 . S
O222 Zn219 1.986 . S
O222 C229 1.262 . S
O223 Zn218 2.049 . S
O223 C231 1.260 . S
O224 Zn219 1.996 . S
O224 C231 1.257 . S
C225 O220 1.254 . S
C225 O221 1.269 . S
C226 O227 1.249 . S
C226 O228 1.270 . S
O227 Zn219 1.943 1_565 S
O227 C226 1.249 . S
O228 Zn218 2.067 1_565 S
O228 C226 1.270 . S
C229 O222 1.262 . S
C229 O230 1.232 . S
O230 C229 1.232 . S
C231 O223 1.260 . S
C231 O224 1.257 . S
Zn232 O235 2.031 . S
Zn232 O237 2.049 . S
Zn232 O242 2.067 . S
Zn233 O234 1.962 . S
Zn233 O236 1.986 . S
Zn233 O238 1.996 . S
Zn233 O241 1.943 . S
O234 Zn233 1.962 . S
O234 C239 1.254 . S
O235 Zn232 2.031 . S
O235 C239 1.269 . S
O236 Zn233 1.986 . S
O236 C243 1.262 . S
O237 Zn232 2.049 . S
O237 C245 1.260 . S
O238 Zn233 1.996 . S
O238 C245 1.257 . S
C239 O234 1.254 . S
C239 O235 1.269 . S
C240 O241 1.249 . S
C240 O242 1.270 . S
O241 Zn233 1.943 . S
O241 C240 1.249 . S
O242 Zn232 2.067 . S
O242 C240 1.270 . S
C243 O236 1.262 . S
C243 O244 1.232 . S
O244 C243 1.232 . S
C245 O237 1.260 . S
C245 O238 1.257 . S
Zn246 O249 2.031 . S
Zn246 O251 2.049 . S
Zn246 O256 2.067 . S
Zn247 O248 1.962 . S
Zn247 O250 1.986 . S
Zn247 O252 1.996 . S
Zn247 O255 1.943 . S
O248 Zn247 1.962 . S
O248 C253 1.254 . S
O249 Zn246 2.031 . S
O249 C253 1.269 . S
O250 Zn247 1.986 . S
O250 C257 1.262 . S
O251 Zn246 2.049 . S
O251 C259 1.260 . S
O252 Zn247 1.996 . S
O252 C259 1.257 . S
C253 O248 1.254 . S
C253 O249 1.269 . S
C254 O255 1.249 . S
C254 O256 1.270 . S
O255 Zn247 1.943 . S
O255 C254 1.249 . S
O256 Zn246 2.067 . S
O256 C254 1.270 . S
C257 O250 1.262 . S
C257 O258 1.232 . S
O258 C257 1.232 . S
C259 O251 1.260 . S
C259 O252 1.257 . S
Zn260 O263 2.031 . S
Zn260 O265 2.049 . S
Zn260 O270 2.067 . S
Zn261 O262 1.962 . S
Zn261 O264 1.986 . S
Zn261 O266 1.996 . S
Zn261 O269 1.943 . S
O262 Zn261 1.962 . S
O262 C267 1.254 . S
O263 Zn260 2.031 . S
O263 C267 1.269 . S
O264 Zn261 1.986 . S
O264 C271 1.262 . S
O265 Zn260 2.049 . S
O265 C273 1.260 . S
O266 Zn261 1.996 . S
O266 C273 1.257 . S
C267 O262 1.254 . S
C267 O263 1.269 . S
C268 O269 1.249 . S
C268 O270 1.270 . S
O269 Zn261 1.943 . S
O269 C268 1.249 . S
O270 Zn260 2.067 . S
O270 C268 1.270 . S
C271 O264 1.262 . S
C271 O272 1.232 . S
O272 C271 1.232 . S
C273 O265 1.260 . S
C273 O266 1.257 . S
Zn274 O277 2.031 . S
Zn274 O279 2.049 . S
Zn274 O284 2.067 . S
Zn275 O276 1.962 . S
Zn275 O278 1.986 . S
Zn275 O280 1.996 1_545 S
Zn275 O283 1.943 . S
O276 Zn275 1.962 . S
O276 C281 1.254 . S
O277 Zn274 2.031 . S
O277 C281 1.269 1_565 S
O278 Zn275 1.986 . S
O278 C285 1.262 . S
O279 Zn274 2.049 . S
O279 C287 1.260 . S
O280 Zn275 1.996 1_565 S
O280 C287 1.257 . S
C281 O276 1.254 . S
C281 O277 1.269 1_545 S
C282 O283 1.249 1_565 S
C282 O284 1.270 . S
O283 Zn275 1.943 . S
O283 C282 1.249 1_545 S
O284 Zn274 2.067 . S
O284 C282 1.270 . S
C285 O278 1.262 . S
C285 O286 1.232 . S
O286 C285 1.232 . S
C287 O279 1.260 . S
C287 O280 1.257 . S
Zn288 O291 2.031 . S
Zn288 O293 2.049 1_455 S
Zn288 O298 2.067 1_455 S
Zn289 O290 1.962 . S
Zn289 O292 1.986 . S
Zn289 O294 1.996 . S
Zn289 O297 1.943 1_455 S
O290 Zn289 1.962 . S
O290 C295 1.254 . S
O291 Zn288 2.031 . S
O291 C295 1.269 . S
O292 Zn289 1.986 . S
O292 C299 1.262 . S
O293 Zn288 2.049 1_655 S
O293 C301 1.260 1_655 S
O294 Zn289 1.996 . S
O294 C301 1.257 . S
C295 O290 1.254 . S
C295 O291 1.269 . S
C296 O297 1.249 . S
C296 O298 1.270 . S
O297 Zn289 1.943 1_655 S
O297 C296 1.249 . S
O298 Zn288 2.067 1_655 S
O298 C296 1.270 . S
C299 O292 1.262 . S
C299 O300 1.232 . S
O300 C299 1.232 . S
C301 O293 1.260 1_455 S
C301 O294 1.257 . S
Zn302 O305 2.031 . S
Zn302 O307 2.049 . S
Zn302 O312 2.067 . S
Zn303 O304 1.962 . S
Zn303 O306 1.986 . S
Zn303 O308 1.996 . S
Zn303 O311 1.943 . S
O304 Zn303 1.962 . S
O304 C309 1.254 . S
O305 Zn302 2.031 . S
O305 C309 1.269 . S
O306 Zn303 1.986 . S
O306 C313 1.262 . S
O307 Zn302 2.049 . S
O307 C315 1.260 . S
O308 Zn303 1.996 . S
O308 C315 1.257 . S
C309 O304 1.254 . S
C309 O305 1.269 . S
C310 O311 1.249 . S
C310 O312 1.270 . S
O311 Zn303 1.943 . S
O311 C310 1.249 . S
O312 Zn302 2.067 . S
O312 C310 1.270 . S
C313 O306 1.262 . S
C313 O314 1.232 . S
O314 C313 1.232 . S
C315 O307 1.260 . S
C315 O308 1.257 . S
Zn316 O319 2.031 1_655 S
Zn316 O321 2.049 . S
Zn316 O326 2.067 . S
Zn317 O318 1.962 . S
Zn317 O320 1.986 . S
Zn317 O322 1.996 1_455 S
Zn317 O325 1.943 . S
O318 Zn317 1.962 . S
O318 C323 1.254 . S
O319 Zn316 2.031 1_455 S
O319 C323 1.269 . S
O320 Zn317 1.986 . S
O320 C327 1.262 . S
O321 Zn316 2.049 . S
O321 C329 1.260 . S
O322 Zn317 1.996 1_655 S
O322 C329 1.257 . S
C323 O318 1.254 . S
C323 O319 1.269 . S
C324 O325 1.249 . S
C324 O326 1.270 1_455 S
O325 Zn317 1.943 . S
O325 C324 1.249 . S
O326 Zn316 2.067 . S
O326 C324 1.270 1_655 S
C327 O320 1.262 . S
C327 O328 1.232 . S
O328 C327 1.232 . S
C329 O321 1.260 . S
C329 O322 1.257 . S
Zn330 O333 2.031 . S
Zn330 O335 2.049 . S
Zn330 O340 2.067 . S
Zn331 O332 1.962 . S
Zn331 O334 1.986 . S
Zn331 O336 1.996 . S
Zn331 O339 1.943 . S
O332 Zn331 1.962 . S
O332 C337 1.254 . S
O333 Zn330 2.031 . S
O333 C337 1.269 . S
O334 Zn331 1.986 . S
O334 C341 1.262 . S
O335 Zn330 2.049 . S
O335 C343 1.260 . S
O336 Zn331 1.996 . S
O336 C343 1.257 . S
C337 O332 1.254 . S
C337 O333 1.269 . S
C338 O339 1.249 . S
C338 O340 1.270 . S
O339 Zn331 1.943 . S
O339 C338 1.249 . S
O340 Zn330 2.067 . S
O340 C338 1.270 . S
C341 O334 1.262 . S
C341 O342 1.232 . S
O342 C341 1.232 . S
C343 O335 1.260 . S
C343 O336 1.257 . S
H344 C352 0.950 . S
H345 C357 0.950 . S
H346 C354 0.950 . S
H347 C356 0.950 . S
H348 C358 0.950 . S
H349 C360 0.950 . S
H350 C362 0.950 . S
H351 C363 0.950 . S
C352 H344 0.950 . S
C352 C353 1.386 . S
C352 C354 1.391 . S
C353 C352 1.386 . S
C353 C357 1.393 . S
C354 H346 0.950 . S
C354 C352 1.391 . S
C354 C355 1.400 . S
C355 C354 1.400 . S
C355 C356 1.398 . S
C355 C361 1.491 . S
C356 H347 0.950 . S
C356 C355 1.398 . S
C356 C357 1.391 . S
C357 H345 0.950 . S
C357 C353 1.393 . S
C357 C356 1.391 . S
C358 H348 0.950 . S
C358 C359 1.386 . S
C358 C360 1.391 . S
C359 C358 1.386 . S
C359 C363 1.393 . S
C360 H349 0.950 . S
C360 C358 1.391 . S
C360 C361 1.400 . S
C361 C355 1.491 . S
C361 C360 1.400 . S
C361 C362 1.398 . S
C362 H350 0.950 . S
C362 C361 1.398 . S
C362 C363 1.391 . S
C363 H351 0.950 . S
C363 C359 1.393 . S
C363 C362 1.391 . S
H364 C372 0.950 . S
H365 C377 0.950 . S
H366 C374 0.950 . S
H367 C376 0.950 . S
H368 C378 0.950 . S
H369 C380 0.950 . S
H370 C382 0.950 . S
H371 C383 0.950 . S
C372 H364 0.950 . S
C372 C373 1.386 . S
C372 C374 1.391 . S
C373 C372 1.386 . S
C373 C377 1.393 1_455 S
C374 H366 0.950 . S
C374 C372 1.391 . S
C374 C375 1.400 . S
C375 C374 1.400 . S
C375 C376 1.398 . S
C375 C381 1.491 . S
C376 H367 0.950 . S
C376 C375 1.398 . S
C376 C377 1.391 1_455 S
C377 H365 0.950 . S
C377 C373 1.393 1_655 S
C377 C376 1.391 1_655 S
C378 H368 0.950 . S
C378 C379 1.386 . S
C378 C380 1.391 . S
C379 C378 1.386 . S
C379 C383 1.393 . S
C380 H369 0.950 . S
C380 C378 1.391 . S
C380 C381 1.400 . S
C381 C375 1.491 . S
C381 C380 1.400 . S
C381 C382 1.398 . S
C382 H370 0.950 . S
C382 C381 1.398 . S
C382 C383 1.391 . S
C383 H371 0.950 . S
C383 C379 1.393 . S
C383 C382 1.391 . S
H384 C392 0.950 . S
H385 C397 0.950 . S
H386 C394 0.950 . S
H387 C396 0.950 . S
H388 C398 0.950 . S
H389 C400 0.950 . S
H390 C402 0.950 . S
H391 C403 0.950 . S
C392 H384 0.950 . S
C392 C393 1.386 . S
C392 C394 1.391 . S
C393 C392 1.386 . S
C393 C397 1.393 . S
C394 H386 0.950 . S
C394 C392 1.391 . S
C394 C395 1.400 . S
C395 C394 1.400 . S
C395 C396 1.398 . S
C395 C401 1.491 . S
C396 H387 0.950 . S
C396 C395 1.398 . S
C396 C397 1.391 . S
C397 H385 0.950 . S
C397 C393 1.393 . S
C397 C396 1.391 . S
C398 H388 0.950 . S
C398 C399 1.386 . S
C398 C400 1.391 . S
C399 C398 1.386 . S
C399 C403 1.393 . S
C400 H389 0.950 . S
C400 C398 1.391 . S
C400 C401 1.400 . S
C401 C395 1.491 . S
C401 C400 1.400 . S
C401 C402 1.398 . S
C402 H390 0.950 . S
C402 C401 1.398 . S
C402 C403 1.391 . S
C403 H391 0.950 . S
C403 C399 1.393 . S
C403 C402 1.391 . S
H404 C412 0.950 . S
H405 C417 0.950 . S
H406 C414 0.950 . S
H407 C416 0.950 . S
H408 C418 0.950 . S
H409 C420 0.950 . S
H410 C422 0.950 . S
H411 C423 0.950 . S
C412 H404 0.950 . S
C412 C413 1.386 . S
C412 C414 1.391 . S
C413 C412 1.386 . S
C413 C417 1.393 1_455 S
C414 H406 0.950 . S
C414 C412 1.391 . S
C414 C415 1.400 1_455 S
C415 C414 1.400 1_655 S
C415 C416 1.398 . S
C415 C421 1.491 . S
C416 H407 0.950 . S
C416 C415 1.398 . S
C416 C417 1.391 . S
C417 H405 0.950 . S
C417 C413 1.393 1_655 S
C417 C416 1.391 . S
C418 H408 0.950 . S
C418 C419 1.386 1_565 S
C418 C420 1.391 . S
C419 C418 1.386 1_545 S
C419 C423 1.393 . S
C420 H409 0.950 . S
C420 C418 1.391 . S
C420 C421 1.400 . S
C421 C415 1.491 . S
C421 C420 1.400 . S
C421 C422 1.399 1_565 S
C422 H410 0.950 . S
C422 C421 1.399 1_545 S
C422 C423 1.390 . S
C423 H411 0.950 . S
C423 C419 1.393 . S
C423 C422 1.390 . S
H424 C432 0.950 . S
H425 C437 0.950 . S
H426 C434 0.950 . S
H427 C436 0.950 . S
H428 C438 0.950 . S
H429 C440 0.950 . S
H430 C442 0.950 . S
H431 C443 0.950 . S
C432 H424 0.950 . S
C432 C433 1.386 . S
C432 C434 1.391 . S
C433 C432 1.386 . S
C433 C437 1.393 . S
C434 H426 0.950 . S
C434 C432 1.391 . S
C434 C435 1.400 . S
C435 C434 1.400 . S
C435 C436 1.398 . S
C435 C441 1.491 . S
C436 H427 0.950 . S
C436 C435 1.398 . S
C436 C437 1.391 . S
C437 H425 0.950 . S
C437 C433 1.393 . S
C437 C436 1.391 . S
C438 H428 0.950 . S
C438 C439 1.386 . S
C438 C440 1.391 . S
C439 C438 1.386 . S
C439 C443 1.393 . S
C440 H429 0.950 . S
C440 C438 1.391 . S
C440 C441 1.400 . S
C441 C435 1.491 . S
C441 C440 1.400 . S
C441 C442 1.398 . S
C442 H430 0.950 . S
C442 C441 1.398 . S
C442 C443 1.391 . S
C443 H431 0.950 . S
C443 C439 1.393 . S
C443 C442 1.391 . S
H444 C452 0.950 . S
H445 C457 0.950 . S
H446 C454 0.950 . S
H447 C456 0.950 . S
H448 C458 0.950 . S
H449 C460 0.950 . S
H450 C462 0.950 . S
H451 C463 0.950 . S
C452 H444 0.950 . S
C452 C453 1.386 . S
C452 C454 1.391 . S
C453 C452 1.386 . S
C453 C457 1.393 . S
C454 H446 0.950 . S
C454 C452 1.391 . S
C454 C455 1.400 . S
C455 C454 1.400 . S
C455 C456 1.398 . S
C455 C461 1.491 . S
C456 H447 0.950 . S
C456 C455 1.398 . S
C456 C457 1.391 . S
C457 H445 0.950 . S
C457 C453 1.393 . S
C457 C456 1.391 . S
C458 H448 0.950 . S
C458 C459 1.386 . S
C458 C460 1.391 . S
C459 C458 1.386 . S
C459 C463 1.393 . S
C460 H449 0.950 . S
C460 C458 1.391 . S
C460 C461 1.400 . S
C461 C455 1.491 . S
C461 C460 1.400 . S
C461 C462 1.398 . S
C462 H450 0.950 . S
C462 C461 1.398 . S
C462 C463 1.391 . S
C463 H451 0.950 . S
C463 C459 1.393 . S
C463 C462 1.391 . S
H464 C472 0.950 . S
H465 C477 0.950 . S
H466 C474 0.950 . S
H467 C476 0.950 . S
H468 C478 0.950 . S
H469 C480 0.950 . S
H470 C482 0.950 . S
H471 C483 0.950 . S
C472 H464 0.950 . S
C472 C473 1.386 . S
C472 C474 1.391 . S
C473 C472 1.386 . S
C473 C477 1.393 . S
C474 H466 0.950 . S
C474 C472 1.391 . S
C474 C475 1.400 . S
C475 C474 1.400 . S
C475 C476 1.398 . S
C475 C481 1.491 . S
C476 H467 0.950 . S
C476 C475 1.398 . S
C476 C477 1.391 . S
C477 H465 0.950 . S
C477 C473 1.393 . S
C477 C476 1.391 . S
C478 H468 0.950 . S
C478 C479 1.386 . S
C478 C480 1.391 . S
C479 C478 1.386 . S
C479 C483 1.393 . S
C480 H469 0.950 . S
C480 C478 1.391 . S
C480 C481 1.400 . S
C481 C475 1.491 . S
C481 C480 1.400 . S
C481 C482 1.398 . S
C482 H470 0.950 . S
C482 C481 1.398 . S
C482 C483 1.391 . S
C483 H471 0.950 . S
C483 C479 1.393 . S
C483 C482 1.391 . S
H484 C492 0.950 . S
H485 C497 0.950 . S
H486 C494 0.950 . S
H487 C496 0.950 . S
H488 C498 0.960 . S
H489 C500 0.950 . S
H490 C502 0.950 . S
H491 C503 0.950 . S
C492 H484 0.950 . S
C492 C493 1.386 . S
C492 C494 1.391 . S
C493 C492 1.386 . S
C493 C497 1.393 . S
C494 H486 0.950 . S
C494 C492 1.391 . S
C494 C495 1.400 . S
C495 C494 1.400 . S
C495 C496 1.398 . S
C495 C501 1.491 . S
C496 H487 0.950 . S
C496 C495 1.398 . S
C496 C497 1.391 . S
C497 H485 0.950 . S
C497 C493 1.393 . S
C497 C496 1.391 . S
C498 H488 0.960 . S
C498 C499 1.386 . S
C498 C500 1.391 . S
C499 C498 1.386 . S
C499 C503 1.393 . S
C500 H489 0.950 . S
C500 C498 1.391 . S
C500 C501 1.400 . S
C501 C495 1.491 . S
C501 C500 1.400 . S
C501 C502 1.398 . S
C502 H490 0.950 . S
C502 C501 1.398 . S
C502 C503 1.391 . S
C503 H491 0.950 . S
C503 C499 1.393 . S
C503 C502 1.391 . S
H504 C512 0.950 . S
H505 C517 0.950 . S
H506 C514 0.950 . S
H507 C516 0.950 . S
H508 C518 0.950 . S
H509 C520 0.950 . S
H510 C522 0.950 . S
H511 C523 0.950 . S
C512 H504 0.950 . S
C512 C513 1.386 . S
C512 C514 1.391 . S
C513 C512 1.386 . S
C513 C517 1.393 . S
C514 H506 0.950 . S
C514 C512 1.391 . S
C514 C515 1.400 . S
C515 C514 1.400 . S
C515 C516 1.398 . S
C515 C521 1.491 . S
C516 H507 0.950 . S
C516 C515 1.398 . S
C516 C517 1.391 . S
C517 H505 0.950 . S
C517 C513 1.393 . S
C517 C516 1.391 . S
C518 H508 0.950 . S
C518 C519 1.386 . S
C518 C520 1.391 . S
C519 C518 1.386 . S
C519 C523 1.393 . S
C520 H509 0.950 . S
C520 C518 1.391 . S
C520 C521 1.400 . S
C521 C515 1.491 . S
C521 C520 1.400 . S
C521 C522 1.398 . S
C522 H510 0.950 . S
C522 C521 1.398 . S
C522 C523 1.391 . S
C523 H511 0.950 . S
C523 C519 1.393 . S
C523 C522 1.391 . S
H524 C532 0.950 . S
H525 C537 0.950 . S
H526 C534 0.950 . S
H527 C536 0.950 . S
H528 C538 0.950 . S
H529 C540 0.950 . S
H530 C542 0.950 . S
H531 C543 0.950 . S
C532 H524 0.950 . S
C532 C533 1.386 . S
C532 C534 1.391 . S
C533 C532 1.386 . S
C533 C537 1.393 . S
C534 H526 0.950 . S
C534 C532 1.391 . S
C534 C535 1.400 . S
C535 C534 1.400 . S
C535 C536 1.398 . S
C535 C541 1.491 . S
C536 H527 0.950 . S
C536 C535 1.398 . S
C536 C537 1.391 . S
C537 H525 0.950 . S
C537 C533 1.393 . S
C537 C536 1.391 . S
C538 H528 0.950 . S
C538 C539 1.386 . S
C538 C540 1.391 . S
C539 C538 1.386 . S
C539 C543 1.393 . S
C540 H529 0.950 . S
C540 C538 1.391 . S
C540 C541 1.400 . S
C541 C535 1.491 . S
C541 C540 1.400 . S
C541 C542 1.398 . S
C542 H530 0.950 . S
C542 C541 1.398 . S
C542 C543 1.391 . S
C543 H531 0.950 . S
C543 C539 1.393 . S
C543 C542 1.391 . S
H544 C552 0.950 . S
H545 C557 0.950 . S
H546 C554 0.950 . S
H547 C556 0.950 . S
H548 C558 0.950 . S
H549 C560 0.950 . S
H550 C562 0.950 . S
H551 C563 0.950 . S
C552 H544 0.950 . S
C552 C553 1.386 . S
C552 C554 1.391 . S
C553 C552 1.386 . S
C553 C557 1.393 . S
C554 H546 0.950 . S
C554 C552 1.391 . S
C554 C555 1.400 . S
C555 C554 1.400 . S
C555 C556 1.398 . S
C555 C561 1.491 . S
C556 H547 0.950 . S
C556 C555 1.398 . S
C556 C557 1.391 . S
C557 H545 0.950 . S
C557 C553 1.393 . S
C557 C556 1.391 . S
C558 H548 0.950 . S
C558 C559 1.386 . S
C558 C560 1.391 . S
C559 C558 1.386 . S
C559 C563 1.393 . S
C560 H549 0.950 . S
C560 C558 1.391 . S
C560 C561 1.400 . S
C561 C555 1.491 . S
C561 C560 1.400 . S
C561 C562 1.398 . S
C562 H550 0.950 . S
C562 C561 1.398 . S
C562 C563 1.391 . S
C563 H551 0.950 . S
C563 C559 1.393 . S
C563 C562 1.391 . S
H564 C572 0.950 . S
H565 C577 0.950 . S
H566 C574 0.950 . S
H567 C576 0.950 . S
H568 C578 0.950 . S
H569 C580 0.950 . S
H570 C582 0.950 . S
H571 C583 0.950 . S
C572 H564 0.950 . S
C572 C573 1.386 . S
C572 C574 1.391 . S
C573 C572 1.386 . S
C573 C577 1.393 . S
C574 H566 0.950 . S
C574 C572 1.391 . S
C574 C575 1.400 . S
C575 C574 1.400 . S
C575 C576 1.398 . S
C575 C581 1.491 . S
C576 H567 0.950 . S
C576 C575 1.398 . S
C576 C577 1.391 . S
C577 H565 0.950 . S
C577 C573 1.393 . S
C577 C576 1.391 . S
C578 H568 0.950 . S
C578 C579 1.386 . S
C578 C580 1.391 . S
C579 C578 1.386 . S
C579 C583 1.393 . S
C580 H569 0.950 . S
C580 C578 1.391 . S
C580 C581 1.400 . S
C581 C575 1.491 . S
C581 C580 1.400 . S
C581 C582 1.398 . S
C582 H570 0.950 . S
C582 C581 1.398 . S
C582 C583 1.391 . S
C583 H571 0.950 . S
C583 C579 1.393 . S
C583 C582 1.391 . S
H584 C592 0.950 . S
H585 C597 0.950 . S
H586 C594 0.950 . S
H587 C596 0.950 . S
H588 C598 0.950 . S
H589 C600 0.950 . S
H590 C602 0.950 . S
H591 C603 0.950 . S
C592 H584 0.950 . S
C592 C593 1.386 . S
C592 C594 1.391 . S
C593 C592 1.386 . S
C593 C597 1.393 . S
C594 H586 0.950 . S
C594 C592 1.391 . S
C594 C595 1.400 . S
C595 C594 1.400 . S
C595 C596 1.398 . S
C595 C601 1.491 . S
C596 H587 0.950 . S
C596 C595 1.398 . S
C596 C597 1.391 . S
C597 H585 0.950 . S
C597 C593 1.393 . S
C597 C596 1.391 . S
C598 H588 0.950 . S
C598 C599 1.386 . S
C598 C600 1.391 . S
C599 C598 1.386 . S
C599 C603 1.393 . S
C600 H589 0.950 . S
C600 C598 1.391 . S
C600 C601 1.400 . S
C601 C595 1.491 . S
C601 C600 1.400 . S
C601 C602 1.398 . S
C602 H590 0.950 . S
C602 C601 1.398 . S
C602 C603 1.391 . S
C603 H591 0.950 . S
C603 C599 1.393 . S
C603 C602 1.391 . S
H604 C612 0.950 . S
H605 C617 0.950 . S
H606 C614 0.950 . S
H607 C616 0.950 . S
H608 C618 0.950 . S
H609 C620 0.950 . S
H610 C622 0.950 . S
H611 C623 0.950 . S
C612 H604 0.950 . S
C612 C613 1.386 . S
C612 C614 1.391 . S
C613 C612 1.386 . S
C613 C617 1.393 . S
C614 H606 0.950 . S
C614 C612 1.391 . S
C614 C615 1.400 . S
C615 C614 1.400 . S
C615 C616 1.398 . S
C615 C621 1.491 . S
C616 H607 0.950 . S
C616 C615 1.398 . S
C616 C617 1.391 . S
C617 H605 0.950 . S
C617 C613 1.393 . S
C617 C616 1.391 . S
C618 H608 0.950 . S
C618 C619 1.386 . S
C618 C620 1.391 . S
C619 C618 1.386 . S
C619 C623 1.393 . S
C620 H609 0.950 . S
C620 C618 1.391 . S
C620 C621 1.400 . S
C621 C615 1.491 . S
C621 C620 1.400 . S
C621 C622 1.398 . S
C622 H610 0.950 . S
C622 C621 1.398 . S
C622 C623 1.391 . S
C623 H611 0.950 . S
C623 C619 1.393 . S
C623 C622 1.391 . S
H624 C632 0.950 . S
H625 C637 0.950 . S
H626 C634 0.950 . S
H627 C636 0.950 . S
H628 C638 0.950 . S
H629 C640 0.950 . S
H630 C642 0.950 . S
H631 C643 0.950 . S
C632 H624 0.950 . S
C632 C633 1.386 . S
C632 C634 1.391 . S
C633 C632 1.386 . S
C633 C637 1.393 . S
C634 H626 0.950 . S
C634 C632 1.391 . S
C634 C635 1.400 . S
C635 C634 1.400 . S
C635 C636 1.398 . S
C635 C641 1.491 . S
C636 H627 0.950 . S
C636 C635 1.398 . S
C636 C637 1.391 . S
C637 H625 0.950 . S
C637 C633 1.393 . S
C637 C636 1.391 . S
C638 H628 0.950 . S
C638 C639 1.386 . S
C638 C640 1.391 . S
C639 C638 1.386 . S
C639 C643 1.393 . S
C640 H629 0.950 . S
C640 C638 1.391 . S
C640 C641 1.400 . S
C641 C635 1.491 . S
C641 C640 1.400 . S
C641 C642 1.398 . S
C642 H630 0.950 . S
C642 C641 1.398 . S
C642 C643 1.391 . S
C643 H631 0.950 . S
C643 C639 1.393 . S
C643 C642 1.391 . S
H644 C652 0.950 . S
H645 C657 0.950 . S
H646 C654 0.950 . S
H647 C656 0.950 . S
H648 C658 0.950 . S
H649 C660 0.950 . S
H650 C662 0.950 . S
H651 C663 0.950 . S
C652 H644 0.950 . S
C652 C653 1.386 1_455 S
C652 C654 1.391 . S
C653 C652 1.386 1_655 S
C653 C657 1.393 . S
C654 H646 0.950 . S
C654 C652 1.391 . S
C654 C655 1.400 1_455 S
C655 C654 1.400 1_655 S
C655 C656 1.398 . S
C655 C661 1.490 . S
C656 H647 0.950 . S
C656 C655 1.398 . S
C656 C657 1.391 . S
C657 H645 0.950 . S
C657 C653 1.393 . S
C657 C656 1.391 . S
C658 H648 0.950 . S
C658 C659 1.386 1_655 S
C658 C660 1.391 . S
C659 C658 1.386 1_455 S
C659 C663 1.393 . S
C660 H649 0.950 . S
C660 C658 1.391 . S
C660 C661 1.436 . S
C661 C655 1.490 . S
C661 C660 1.436 . S
C661 C662 1.363 1_655 S
C662 H650 0.950 . S
C662 C661 1.363 1_455 S
C662 C663 1.391 . S
C663 H651 0.950 . S
C663 C659 1.393 . S
C663 C662 1.391 . S
H664 C672 0.950 . S
H665 C677 0.950 . S
H666 C674 0.950 . S
H667 C676 0.950 . S
H668 C678 0.950 . S
H669 C680 0.950 . S
H670 C682 0.950 . S
H671 C683 0.950 . S
C672 H664 0.950 . S
C672 C673 1.386 . S
C672 C674 1.391 . S
C673 C672 1.386 . S
C673 C677 1.393 . S
C674 H666 0.950 . S
C674 C672 1.391 . S
C674 C675 1.400 . S
C675 C674 1.400 . S
C675 C676 1.398 . S
C675 C681 1.491 . S
C676 H667 0.950 . S
C676 C675 1.398 . S
C676 C677 1.391 . S
C677 H665 0.950 . S
C677 C673 1.393 . S
C677 C676 1.391 . S
C678 H668 0.950 . S
C678 C679 1.386 . S
C678 C680 1.391 . S
C679 C678 1.386 . S
C679 C683 1.393 . S
C680 H669 0.950 . S
C680 C678 1.391 . S
C680 C681 1.400 . S
C681 C675 1.491 . S
C681 C680 1.400 . S
C681 C682 1.398 . S
C682 H670 0.950 . S
C682 C681 1.398 . S
C682 C683 1.391 . S
C683 H671 0.950 . S
C683 C679 1.393 . S
C683 C682 1.391 . S
H684 C692 0.950 . S
H685 C697 0.950 . S
H686 C694 0.950 . S
H687 C696 0.950 . S
H688 C698 0.950 . S
H689 C700 0.950 . S
H690 C702 0.950 . S
H691 C703 0.950 . S
C692 H684 0.950 . S
C692 C693 1.386 . S
C692 C694 1.391 . S
C693 C692 1.386 . S
C693 C697 1.393 . S
C694 H686 0.950 . S
C694 C692 1.391 . S
C694 C695 1.400 . S
C695 C694 1.400 . S
C695 C696 1.398 . S
C695 C701 1.491 . S
C696 H687 0.950 . S
C696 C695 1.398 . S
C696 C697 1.391 . S
C697 H685 0.950 . S
C697 C693 1.393 . S
C697 C696 1.391 . S
C698 H688 0.950 . S
C698 C699 1.386 . S
C698 C700 1.391 . S
C699 C698 1.386 . S
C699 C703 1.393 . S
C700 H689 0.950 . S
C700 C698 1.391 . S
C700 C701 1.400 . S
C701 C695 1.491 . S
C701 C700 1.400 . S
C701 C702 1.398 . S
C702 H690 0.950 . S
C702 C701 1.398 . S
C702 C703 1.391 . S
C703 H691 0.950 . S
C703 C699 1.393 . S
C703 C702 1.391 . S
H704 C712 0.950 . S
H705 C717 0.950 . S
H706 C714 0.962 . S
H707 C716 0.950 . S
H708 C718 0.950 . S
H709 C720 0.950 . S
H710 C722 0.950 . S
H711 C723 0.950 . S
C712 H704 0.950 . S
C712 C713 1.386 1_545 S
C712 C714 1.391 1_545 S
C713 C712 1.386 1_565 S
C713 C717 1.393 . S
C714 H706 0.962 . S
C714 C712 1.391 1_565 S
C714 C715 1.400 . S
C715 C714 1.400 . S
C715 C716 1.398 . S
C715 C721 1.491 . S
C716 H707 0.950 . S
C716 C715 1.398 . S
C716 C717 1.391 . S
C717 H705 0.950 . S
C717 C713 1.393 . S
C717 C716 1.391 . S
C718 H708 0.950 . S
C718 C719 1.386 1_556 S
C718 C720 1.391 . S
C719 C718 1.386 1_554 S
C719 C723 1.393 . S
C720 H709 0.950 . S
C720 C718 1.391 . S
C720 C721 1.400 . S
C721 C715 1.491 . S
C721 C720 1.400 . S
C721 C722 1.398 1_556 S
C722 H710 0.950 . S
C722 C721 1.398 1_554 S
C722 C723 1.391 . S
C723 H711 0.950 . S
C723 C719 1.393 . S
C723 C722 1.391 . S
H724 C732 0.950 . S
H725 C737 0.950 . S
H726 C734 0.950 . S
H727 C736 0.950 . S
H728 C738 0.950 . S
H729 C740 0.950 . S
H730 C742 0.950 . S
H731 C743 0.950 . S
C732 H724 0.950 . S
C732 C733 1.386 . S
C732 C734 1.391 . S
C733 C732 1.386 . S
C733 C737 1.393 . S
C734 H726 0.950 . S
C734 C732 1.391 . S
C734 C735 1.400 . S
C735 C734 1.400 . S
C735 C736 1.398 . S
C735 C741 1.491 . S
C736 H727 0.950 . S
C736 C735 1.398 . S
C736 C737 1.391 . S
C737 H725 0.950 . S
C737 C733 1.393 . S
C737 C736 1.391 . S
C738 H728 0.950 . S
C738 C739 1.386 . S
C738 C740 1.391 . S
C739 C738 1.386 . S
C739 C743 1.393 . S
C740 H729 0.950 . S
C740 C738 1.391 . S
C740 C741 1.400 . S
C741 C735 1.491 . S
C741 C740 1.400 . S
C741 C742 1.398 . S
C742 H730 0.950 . S
C742 C741 1.398 . S
C742 C743 1.391 . S
C743 H731 0.950 . S
C743 C739 1.393 . S
C743 C742 1.391 . S
H744 C752 0.950 . S
H745 C757 0.950 1_565 S
H746 C754 0.950 . S
H747 C756 0.950 . S
H748 C758 0.950 . S
H749 C760 0.950 . S
H750 C762 0.950 . S
H751 C763 0.950 . S
C752 H744 0.950 . S
C752 C753 1.358 1_545 S
C752 C754 1.391 . S
C753 C752 1.358 1_565 S
C753 C757 1.387 1_565 S
C754 H746 0.950 . S
C754 C752 1.391 . S
C754 C755 1.400 . S
C755 C754 1.400 . S
C755 C756 1.398 . S
C755 C761 1.491 . S
C756 H747 0.950 . S
C756 C755 1.398 . S
C756 C757 1.391 . S
C757 H745 0.950 1_545 S
C757 C753 1.387 1_545 S
C757 C756 1.391 . S
C758 H748 0.950 . S
C758 C759 1.386 . S
C758 C760 1.391 . S
C759 C758 1.386 . S
C759 C763 1.393 . S
C760 H749 0.950 . S
C760 C758 1.391 . S
C760 C761 1.400 . S
C761 C755 1.491 . S
C761 C760 1.400 . S
C761 C762 1.398 . S
C762 H750 0.950 . S
C762 C761 1.398 . S
C762 C763 1.391 . S
C763 H751 0.950 . S
C763 C759 1.393 . S
C763 C762 1.391 . S
H764 C772 0.950 . S
H765 C777 0.950 . S
H766 C774 0.950 . S
H767 C776 0.950 . S
H768 C778 0.950 . S
H769 C780 0.950 . S
H770 C782 0.950 . S
H771 C783 0.950 . S
C772 H764 0.950 . S
C772 C773 1.386 . S
C772 C774 1.391 . S
C773 C772 1.386 . S
C773 C777 1.393 . S
C774 H766 0.950 . S
C774 C772 1.391 . S
C774 C775 1.400 . S
C775 C774 1.400 . S
C775 C776 1.398 . S
C775 C781 1.491 . S
C776 H767 0.950 . S
C776 C775 1.398 . S
C776 C777 1.391 . S
C777 H765 0.950 . S
C777 C773 1.393 . S
C777 C776 1.391 . S
C778 H768 0.950 . S
C778 C779 1.386 . S
C778 C780 1.391 . S
C779 C778 1.386 . S
C779 C783 1.393 . S
C780 H769 0.950 . S
C780 C778 1.391 . S
C780 C781 1.400 . S
C781 C775 1.491 . S
C781 C780 1.400 . S
C781 C782 1.398 . S
C782 H770 0.950 . S
C782 C781 1.398 . S
C782 C783 1.391 . S
C783 H771 0.950 . S
C783 C779 1.393 . S
C783 C782 1.391 . S
H784 C792 0.950 . S
H785 C797 0.950 . S
H786 C794 0.950 . S
H787 C796 0.950 . S
H788 C798 0.950 . S
H789 C800 0.950 . S
H790 C802 0.950 . S
H791 C803 0.950 . S
C792 H784 0.950 . S
C792 C793 1.386 . S
C792 C794 1.391 . S
C793 C792 1.386 . S
C793 C797 1.393 . S
C794 H786 0.950 . S
C794 C792 1.391 . S
C794 C795 1.400 . S
C795 C794 1.400 . S
C795 C796 1.398 . S
C795 C801 1.491 . S
C796 H787 0.950 . S
C796 C795 1.398 . S
C796 C797 1.391 . S
C797 H785 0.950 . S
C797 C793 1.393 . S
C797 C796 1.391 . S
C798 H788 0.950 . S
C798 C799 1.386 . S
C798 C800 1.391 . S
C799 C798 1.386 . S
C799 C803 1.393 . S
C800 H789 0.950 . S
C800 C798 1.391 . S
C800 C801 1.400 . S
C801 C795 1.491 . S
C801 C800 1.400 . S
C801 C802 1.398 . S
C802 H790 0.950 . S
C802 C801 1.398 . S
C802 C803 1.391 . S
C803 H791 0.950 . S
C803 C799 1.393 . S
C803 C802 1.391 . S
H804 C812 0.950 . S
H805 C817 0.950 . S
H806 C814 0.950 . S
H807 C816 0.950 . S
H808 C818 0.950 . S
H809 C820 0.950 . S
H810 C822 0.950 . S
H811 C823 0.950 . S
C812 H804 0.950 . S
C812 C813 1.386 . S
C812 C814 1.391 . S
C813 C812 1.386 . S
C813 C817 1.393 . S
C814 H806 0.950 . S
C814 C812 1.391 . S
C814 C815 1.400 . S
C815 C814 1.400 . S
C815 C816 1.398 . S
C815 C821 1.491 . S
C816 H807 0.950 . S
C816 C815 1.398 . S
C816 C817 1.391 . S
C817 H805 0.950 . S
C817 C813 1.393 . S
C817 C816 1.391 . S
C818 H808 0.950 . S
C818 C819 1.386 . S
C818 C820 1.391 . S
C819 C818 1.386 . S
C819 C823 1.393 . S
C820 H809 0.950 . S
C820 C818 1.391 . S
C820 C821 1.400 . S
C821 C815 1.491 . S
C821 C820 1.400 . S
C821 C822 1.398 . S
C822 H810 0.950 . S
C822 C821 1.398 . S
C822 C823 1.391 . S
C823 H811 0.950 . S
C823 C819 1.393 . S
C823 C822 1.391 . S
H824 C832 0.950 . S
H825 C837 0.950 . S
H826 C834 0.950 . S
H827 C836 0.950 . S
H828 C838 0.950 . S
H829 C840 0.950 . S
H830 C842 0.950 . S
H831 C843 0.950 . S
C832 H824 0.950 . S
C832 C833 1.386 . S
C832 C834 1.391 . S
C833 C832 1.386 . S
C833 C837 1.393 . S
C834 H826 0.950 . S
C834 C832 1.391 . S
C834 C835 1.400 . S
C835 C834 1.400 . S
C835 C836 1.398 . S
C835 C841 1.491 . S
C836 H827 0.950 . S
C836 C835 1.398 . S
C836 C837 1.391 . S
C837 H825 0.950 . S
C837 C833 1.393 . S
C837 C836 1.391 . S
C838 H828 0.950 . S
C838 C839 1.386 . S
C838 C840 1.391 . S
C839 C838 1.386 . S
C839 C843 1.393 . S
C840 H829 0.950 . S
C840 C838 1.391 . S
C840 C841 1.400 . S
C841 C835 1.491 . S
C841 C840 1.400 . S
C841 C842 1.398 . S
C842 H830 0.950 . S
C842 C841 1.398 . S
C842 C843 1.391 . S
C843 H831 0.950 . S
C843 C839 1.393 . S
C843 C842 1.391 . S
H844 C852 0.950 . S
H845 C857 0.950 . S
H846 C854 0.950 . S
H847 C856 0.950 . S
H848 C858 0.950 . S
H849 C860 0.950 1_565 S
H850 C862 0.950 . S
H851 C863 0.950 . S
C852 H844 0.950 . S
C852 C853 1.386 . S
C852 C854 1.391 . S
C853 C852 1.386 . S
C853 C857 1.393 . S
C854 H846 0.950 . S
C854 C852 1.391 . S
C854 C855 1.400 . S
C855 C854 1.400 . S
C855 C856 1.398 . S
C855 C861 1.491 . S
C856 H847 0.950 . S
C856 C855 1.398 . S
C856 C857 1.391 . S
C857 H845 0.950 . S
C857 C853 1.393 . S
C857 C856 1.391 . S
C858 H848 0.950 . S
C858 C859 1.386 1_565 S
C858 C860 1.391 1_565 S
C859 C858 1.386 1_545 S
C859 C863 1.393 . S
C860 H849 0.950 1_545 S
C860 C858 1.391 1_545 S
C860 C861 1.400 . S
C861 C855 1.491 . S
C861 C860 1.400 . S
C861 C862 1.398 . S
C862 H850 0.950 . S
C862 C861 1.398 . S
C862 C863 1.391 . S
C863 H851 0.950 . S
C863 C859 1.393 . S
C863 C862 1.391 . S
H864 C872 0.950 . S
H865 C877 0.950 . S
H866 C874 0.950 . S
H867 C876 0.950 . S
H868 C878 0.950 . S
H869 C880 0.950 . S
H870 C882 0.950 . S
H871 C883 0.950 . S
C872 H864 0.950 . S
C872 C873 1.386 . S
C872 C874 1.391 . S
C873 C872 1.386 . S
C873 C877 1.393 . S
C874 H866 0.950 . S
C874 C872 1.391 . S
C874 C875 1.400 . S
C875 C874 1.400 . S
C875 C876 1.398 . S
C875 C881 1.491 . S
C876 H867 0.950 . S
C876 C875 1.398 . S
C876 C877 1.391 . S
C877 H865 0.950 . S
C877 C873 1.393 . S
C877 C876 1.391 . S
C878 H868 0.950 . S
C878 C879 1.386 . S
C878 C880 1.391 . S
C879 C878 1.386 . S
C879 C883 1.393 . S
C880 H869 0.950 . S
C880 C878 1.391 . S
C880 C881 1.400 . S
C881 C875 1.491 . S
C881 C880 1.400 . S
C881 C882 1.398 . S
C882 H870 0.950 . S
C882 C881 1.398 . S
C882 C883 1.391 . S
C883 H871 0.950 . S
C883 C879 1.393 . S
C883 C882 1.391 . S
H884 C892 0.950 . S
H885 C897 0.950 . S
H886 C894 0.950 . S
H887 C896 0.950 . S
H888 C898 0.950 . S
H889 C900 0.950 . S
H890 C902 0.950 . S
H891 C903 0.950 . S
C892 H884 0.950 . S
C892 C893 1.386 . S
C892 C894 1.391 . S
C893 C892 1.386 . S
C893 C897 1.393 . S
C894 H886 0.950 . S
C894 C892 1.391 . S
C894 C895 1.400 . S
C895 C894 1.400 . S
C895 C896 1.398 . S
C895 C901 1.491 . S
C896 H887 0.950 . S
C896 C895 1.398 . S
C896 C897 1.391 . S
C897 H885 0.950 . S
C897 C893 1.393 . S
C897 C896 1.391 . S
C898 H888 0.950 . S
C898 C899 1.386 . S
C898 C900 1.391 . S
C899 C898 1.386 . S
C899 C903 1.393 . S
C900 H889 0.950 . S
C900 C898 1.391 . S
C900 C901 1.400 . S
C901 C895 1.491 . S
C901 C900 1.400 . S
C901 C902 1.398 . S
C902 H890 0.950 . S
C902 C901 1.398 . S
C902 C903 1.391 . S
C903 H891 0.950 . S
C903 C899 1.393 . S
C903 C902 1.391 . S
H904 C912 0.950 . S
H905 C917 0.950 . S
H906 C914 0.950 . S
H907 C916 0.950 . S
H908 C918 0.950 . S
H909 C920 0.950 . S
H910 C922 0.950 . S
H911 C923 0.950 . S
C912 H904 0.950 . S
C912 C913 1.386 . S
C912 C914 1.391 . S
C913 C912 1.386 . S
C913 C917 1.393 . S
C914 H906 0.950 . S
C914 C912 1.391 . S
C914 C915 1.400 . S
C915 C914 1.400 . S
C915 C916 1.398 . S
C915 C921 1.491 . S
C916 H907 0.950 . S
C916 C915 1.398 . S
C916 C917 1.391 . S
C917 H905 0.950 . S
C917 C913 1.393 . S
C917 C916 1.391 . S
C918 H908 0.950 . S
C918 C919 1.386 . S
C918 C920 1.391 . S
C919 C918 1.386 . S
C919 C923 1.393 . S
C920 H909 0.950 . S
C920 C918 1.391 . S
C920 C921 1.400 . S
C921 C915 1.491 . S
C921 C920 1.400 . S
C921 C922 1.398 . S
C922 H910 0.950 . S
C922 C921 1.398 . S
C922 C923 1.391 . S
C923 H911 0.950 . S
C923 C919 1.393 . S
C923 C922 1.391 . S
H924 C932 0.950 . S
H925 C937 0.950 1_455 S
H926 C934 0.950 . S
H927 C936 0.950 . S
H928 C938 0.950 . S
H929 C940 0.950 . S
H930 C942 0.950 . S
H931 C943 0.950 . S
C932 H924 0.950 . S
C932 C933 1.386 . S
C932 C934 1.391 . S
C933 C932 1.386 . S
C933 C937 1.393 . S
C934 H926 0.950 . S
C934 C932 1.391 . S
C934 C935 1.400 . S
C935 C934 1.400 . S
C935 C936 1.398 . S
C935 C941 1.491 . S
C936 H927 0.950 . S
C936 C935 1.398 . S
C936 C937 1.391 . S
C937 H925 0.950 1_655 S
C937 C933 1.393 . S
C937 C936 1.391 . S
C938 H928 0.950 . S
C938 C939 1.386 . S
C938 C940 1.391 . S
C939 C938 1.386 . S
C939 C943 1.393 . S
C940 H929 0.950 . S
C940 C938 1.391 . S
C940 C941 1.400 . S
C941 C935 1.491 . S
C941 C940 1.400 . S
C941 C942 1.398 . S
C942 H930 0.950 . S
C942 C941 1.398 . S
C942 C943 1.391 . S
C943 H931 0.950 . S
C943 C939 1.393 . S
C943 C942 1.391 . S
H944 C952 0.950 . S
H945 C957 0.950 . S
H946 C954 0.950 . S
H947 C956 0.950 . S
H948 C958 0.950 . S
H949 C960 0.950 . S
H950 C962 0.950 . S
H951 C963 0.950 . S
C952 H944 0.950 . S
C952 C953 1.386 . S
C952 C954 1.391 . S
C953 C952 1.386 . S
C953 C957 1.393 . S
C954 H946 0.950 . S
C954 C952 1.391 . S
C954 C955 1.400 . S
C955 C954 1.400 . S
C955 C956 1.398 . S
C955 C961 1.491 . S
C956 H947 0.950 . S
C956 C955 1.398 . S
C956 C957 1.391 . S
C957 H945 0.950 . S
C957 C953 1.393 . S
C957 C956 1.391 . S
C958 H948 0.950 . S
C958 C959 1.386 . S
C958 C960 1.391 . S
C959 C958 1.386 . S
C959 C963 1.393 . S
C960 H949 0.950 . S
C960 C958 1.391 . S
C960 C961 1.400 . S
C961 C955 1.491 . S
C961 C960 1.400 . S
C961 C962 1.398 . S
C962 H950 0.950 . S
C962 C961 1.398 . S
C962 C963 1.391 . S
C963 H951 0.950 . S
C963 C959 1.393 . S
C963 C962 1.391 . S
H964 C972 0.950 . S
H965 C977 0.950 . S
H966 C974 0.950 . S
H967 C976 0.950 . S
H968 C978 0.950 . S
H969 C980 0.950 . S
H970 C982 0.950 . S
H971 C983 0.950 . S
C972 H964 0.950 . S
C972 C973 1.386 . S
C972 C974 1.391 1_655 S
C973 C972 1.386 . S
C973 C977 1.393 1_655 S
C974 H966 0.950 . S
C974 C972 1.391 1_455 S
C974 C975 1.400 . S
C975 C974 1.400 . S
C975 C976 1.398 . S
C975 C981 1.491 . S
C976 H967 0.950 . S
C976 C975 1.398 . S
C976 C977 1.391 . S
C977 H965 0.950 . S
C977 C973 1.393 1_455 S
C977 C976 1.391 . S
C978 H968 0.950 . S
C978 C979 1.386 . S
C978 C980 1.391 . S
C979 C978 1.386 . S
C979 C983 1.393 . S
C980 H969 0.950 . S
C980 C978 1.391 . S
C980 C981 1.400 . S
C981 C975 1.491 . S
C981 C980 1.400 . S
C981 C982 1.398 . S
C982 H970 0.950 . S
C982 C981 1.398 . S
C982 C983 1.391 . S
C983 H971 0.950 . S
C983 C979 1.393 . S
C983 C982 1.391 . S
H984 C992 0.950 . S
H985 C997 0.950 . S
H986 C994 0.950 . S
H987 C996 0.950 . S
H988 C998 0.950 . S
H989 C1000 0.950 . S
H990 C1002 0.950 . S
H991 C1003 0.950 . S
C992 H984 0.950 . S
C992 C993 1.386 . S
C992 C994 1.391 . S
C993 C992 1.386 . S
C993 C997 1.393 . S
C994 H986 0.950 . S
C994 C992 1.391 . S
C994 C995 1.400 . S
C995 C994 1.400 . S
C995 C996 1.398 . S
C995 C1001 1.491 . S
C996 H987 0.950 . S
C996 C995 1.398 . S
C996 C997 1.391 . S
C997 H985 0.950 . S
C997 C993 1.393 . S
C997 C996 1.391 . S
C998 H988 0.950 . S
C998 C999 1.386 . S
C998 C1000 1.391 . S
C999 C998 1.386 . S
C999 C1003 1.393 . S
C1000 H989 0.950 . S
C1000 C998 1.391 . S
C1000 C1001 1.400 . S
C1001 C995 1.491 . S
C1001 C1000 1.400 . S
C1001 C1002 1.398 . S
C1002 H990 0.950 . S
C1002 C1001 1.398 . S
C1002 C1003 1.391 . S
C1003 H991 0.950 . S
C1003 C999 1.393 . S
C1003 C1002 1.391 . S
H1004 C1012 0.950 1_455 S
H1005 C1017 0.950 . S
H1006 C1014 0.950 1_455 S
H1007 C1016 0.950 . S
H1008 C1018 0.950 . S
H1009 C1020 0.950 . S
H1010 C1022 0.950 . S
H1011 C1023 0.950 . S
C1012 H1004 0.950 1_655 S
C1012 C1013 1.386 . S
C1012 C1014 1.391 . S
C1013 C1012 1.386 . S
C1013 C1017 1.393 . S
C1014 H1006 0.950 1_655 S
C1014 C1012 1.391 . S
C1014 C1015 1.400 . S
C1015 C1014 1.400 . S
C1015 C1016 1.398 . S
C1015 C1021 1.491 . S
C1016 H1007 0.950 . S
C1016 C1015 1.398 . S
C1016 C1017 1.391 . S
C1017 H1005 0.950 . S
C1017 C1013 1.393 . S
C1017 C1016 1.391 . S
C1018 H1008 0.950 . S
C1018 C1019 1.386 . S
C1018 C1020 1.391 1_556 S
C1019 C1018 1.386 . S
C1019 C1023 1.393 1_655 S
C1020 H1009 0.950 . S
C1020 C1018 1.391 1_554 S
C1020 C1021 1.400 . S
C1021 C1015 1.491 . S
C1021 C1020 1.400 . S
C1021 C1022 1.398 1_655 S
C1022 H1010 0.950 . S
C1022 C1021 1.398 1_455 S
C1022 C1023 1.391 1_554 S
C1023 H1011 0.950 . S
C1023 C1019 1.393 1_455 S
C1023 C1022 1.391 1_556 S
H1024 C1032 0.950 . S
H1025 C1037 0.950 . S
H1026 C1034 0.950 . S
H1027 C1036 0.950 . S
H1028 C1038 0.950 . S
H1029 C1040 0.950 . S
H1030 C1042 0.950 . S
H1031 C1043 0.950 . S
C1032 H1024 0.950 . S
C1032 C1033 1.386 . S
C1032 C1034 1.391 . S
C1033 C1032 1.386 . S
C1033 C1037 1.393 . S
C1034 H1026 0.950 . S
C1034 C1032 1.391 . S
C1034 C1035 1.400 . S
C1035 C1034 1.400 . S
C1035 C1036 1.398 . S
C1035 C1041 1.491 . S
C1036 H1027 0.950 . S
C1036 C1035 1.398 . S
C1036 C1037 1.391 . S
C1037 H1025 0.950 . S
C1037 C1033 1.393 . S
C1037 C1036 1.391 . S
C1038 H1028 0.950 . S
C1038 C1039 1.386 . S
C1038 C1040 1.391 . S
C1039 C1038 1.386 . S
C1039 C1043 1.393 . S
C1040 H1029 0.950 . S
C1040 C1038 1.391 . S
C1040 C1041 1.400 . S
C1041 C1035 1.491 . S
C1041 C1040 1.400 . S
C1041 C1042 1.398 . S
C1042 H1030 0.950 . S
C1042 C1041 1.398 . S
C1042 C1043 1.391 . S
C1043 H1031 0.950 . S
C1043 C1039 1.393 . S
C1043 C1042 1.391 . S
H1044 C1052 0.950 1_655 S
H1045 C1057 0.950 . S
H1046 C1054 0.950 1_655 S
H1047 C1056 0.950 . S
H1048 C1058 0.950 . S
H1049 C1060 0.946 1_554 S
H1050 C1062 0.947 . S
H1051 C1063 0.994 . S
C1052 H1044 0.950 1_455 S
C1052 C1053 1.386 . S
C1052 C1054 1.391 . S
C1053 C1052 1.386 . S
C1053 C1057 1.393 . S
C1054 H1046 0.950 1_455 S
C1054 C1052 1.391 . S
C1054 C1055 1.400 . S
C1055 C1054 1.400 . S
C1055 C1056 1.398 . S
C1055 C1061 1.481 1_554 S
C1056 H1047 0.950 . S
C1056 C1055 1.398 . S
C1056 C1057 1.391 . S
C1057 H1045 0.950 . S
C1057 C1053 1.393 . S
C1057 C1056 1.391 . S
C1058 H1048 0.950 . S
C1058 C1059 1.386 . S
C1058 C1060 1.391 . S
C1059 C1058 1.386 . S
C1059 C1063 1.354 1_455 S
C1060 H1049 0.946 1_556 S
C1060 C1058 1.391 . S
C1060 C1061 1.405 . S
C1061 C1055 1.481 1_556 S
C1061 C1060 1.405 . S
C1061 C1062 1.406 1_455 S
C1062 H1050 0.947 . S
C1062 C1061 1.406 1_655 S
C1062 C1063 1.386 . S
C1063 H1051 0.994 . S
C1063 C1059 1.354 1_655 S
C1063 C1062 1.386 . S
H1064 C1072 0.950 . S
H1065 C1077 0.950 . S
H1066 C1074 0.950 . S
H1067 C1076 0.950 . S
H1068 C1078 0.950 . S
H1069 C1080 0.950 . S
H1070 C1082 0.950 . S
H1071 C1083 0.950 . S
C1072 H1064 0.950 . S
C1072 C1073 1.386 . S
C1072 C1074 1.391 . S
C1073 C1072 1.386 . S
C1073 C1077 1.393 . S
C1074 H1066 0.950 . S
C1074 C1072 1.391 . S
C1074 C1075 1.400 . S
C1075 C1074 1.400 . S
C1075 C1076 1.398 . S
C1075 C1081 1.491 . S
C1076 H1067 0.950 . S
C1076 C1075 1.398 . S
C1076 C1077 1.391 . S
C1077 H1065 0.950 . S
C1077 C1073 1.393 . S
C1077 C1076 1.391 . S
C1078 H1068 0.950 . S
C1078 C1079 1.386 . S
C1078 C1080 1.391 . S
C1079 C1078 1.386 . S
C1079 C1083 1.393 . S
C1080 H1069 0.950 . S
C1080 C1078 1.391 . S
C1080 C1081 1.400 . S
C1081 C1075 1.491 . S
C1081 C1080 1.400 . S
C1081 C1082 1.398 . S
C1082 H1070 0.950 . S
C1082 C1081 1.398 . S
C1082 C1083 1.391 . S
C1083 H1071 0.950 . S
C1083 C1079 1.393 . S
C1083 C1082 1.391 . S
H1084 C1092 0.950 . S
H1085 C1097 0.950 . S
H1086 C1094 0.950 . S
H1087 C1096 0.950 . S
H1088 C1098 0.950 . S
H1089 C1100 0.950 . S
H1090 C1102 0.950 . S
H1091 C1103 0.950 . S
C1092 H1084 0.950 . S
C1092 C1093 1.386 . S
C1092 C1094 1.391 . S
C1093 C1092 1.386 . S
C1093 C1097 1.393 . S
C1094 H1086 0.950 . S
C1094 C1092 1.391 . S
C1094 C1095 1.400 . S
C1095 C1094 1.400 . S
C1095 C1096 1.398 . S
C1095 C1101 1.491 . S
C1096 H1087 0.950 . S
C1096 C1095 1.398 . S
C1096 C1097 1.391 . S
C1097 H1085 0.950 . S
C1097 C1093 1.393 . S
C1097 C1096 1.391 . S
C1098 H1088 0.950 . S
C1098 C1099 1.386 . S
C1098 C1100 1.391 . S
C1099 C1098 1.386 . S
C1099 C1103 1.393 . S
C1100 H1089 0.950 . S
C1100 C1098 1.391 . S
C1100 C1101 1.400 . S
C1101 C1095 1.491 . S
C1101 C1100 1.400 . S
C1101 C1102 1.398 . S
C1102 H1090 0.950 . S
C1102 C1101 1.398 . S
C1102 C1103 1.391 . S
C1103 H1091 0.950 . S
C1103 C1099 1.393 . S
C1103 C1102 1.391 . S
H1104 C1112 0.950 . S
H1105 C1117 0.950 . S
H1106 C1114 0.950 . S
H1107 C1116 0.950 . S
H1108 C1118 0.950 . S
H1109 C1120 0.950 . S
H1110 C1122 0.950 . S
H1111 C1123 0.950 . S
C1112 H1104 0.950 . S
C1112 C1113 1.386 . S
C1112 C1114 1.391 . S
C1113 C1112 1.386 . S
C1113 C1117 1.393 . S
C1114 H1106 0.950 . S
C1114 C1112 1.391 . S
C1114 C1115 1.400 . S
C1115 C1114 1.400 . S
C1115 C1116 1.398 . S
C1115 C1121 1.491 . S
C1116 H1107 0.950 . S
C1116 C1115 1.398 . S
C1116 C1117 1.391 . S
C1117 H1105 0.950 . S
C1117 C1113 1.393 . S
C1117 C1116 1.391 . S
C1118 H1108 0.950 . S
C1118 C1119 1.386 . S
C1118 C1120 1.391 . S
C1119 C1118 1.386 . S
C1119 C1123 1.393 . S
C1120 H1109 0.950 . S
C1120 C1118 1.391 . S
C1120 C1121 1.400 . S
C1121 C1115 1.491 . S
C1121 C1120 1.400 . S
C1121 C1122 1.398 . S
C1122 H1110 0.950 . S
C1122 C1121 1.398 . S
C1122 C1123 1.391 . S
C1123 H1111 0.950 . S
C1123 C1119 1.393 . S
C1123 C1122 1.391 . S
H1124 C1132 0.950 . S
H1125 C1137 0.950 . S
H1126 C1134 0.950 . S
H1127 C1136 0.950 . S
H1128 C1138 0.950 . S
H1129 C1140 0.950 . S
H1130 C1142 0.950 . S
H1131 C1143 0.950 . S
C1132 H1124 0.950 . S
C1132 C1133 1.386 . S
C1132 C1134 1.391 . S
C1133 C1132 1.386 . S
C1133 C1137 1.393 . S
C1134 H1126 0.950 . S
C1134 C1132 1.391 . S
C1134 C1135 1.400 . S
C1135 C1134 1.400 . S
C1135 C1136 1.398 . S
C1135 C1141 1.491 . S
C1136 H1127 0.950 . S
C1136 C1135 1.398 . S
C1136 C1137 1.391 . S
C1137 H1125 0.950 . S
C1137 C1133 1.393 . S
C1137 C1136 1.391 . S
C1138 H1128 0.950 . S
C1138 C1139 1.386 . S
C1138 C1140 1.391 . S
C1139 C1138 1.386 . S
C1139 C1143 1.393 . S
C1140 H1129 0.950 . S
C1140 C1138 1.391 . S
C1140 C1141 1.400 . S
C1141 C1135 1.491 . S
C1141 C1140 1.400 . S
C1141 C1142 1.398 . S
C1142 H1130 0.950 . S
C1142 C1141 1.398 . S
C1142 C1143 1.391 . S
C1143 H1131 0.950 . S
C1143 C1139 1.393 . S
C1143 C1142 1.391 . S
H1144 C1152 0.950 . S
H1145 C1157 0.950 . S
H1146 C1154 0.950 . S
H1147 C1156 0.950 . S
H1148 C1158 0.950 . S
H1149 C1160 0.950 . S
H1150 C1162 0.950 . S
H1151 C1163 0.950 . S
C1152 H1144 0.950 . S
C1152 C1153 1.386 . S
C1152 C1154 1.391 . S
C1153 C1152 1.386 . S
C1153 C1157 1.393 . S
C1154 H1146 0.950 . S
C1154 C1152 1.391 . S
C1154 C1155 1.400 . S
C1155 C1154 1.400 . S
C1155 C1156 1.398 . S
C1155 C1161 1.491 . S
C1156 H1147 0.950 . S
C1156 C1155 1.398 . S
C1156 C1157 1.391 . S
C1157 H1145 0.950 . S
C1157 C1153 1.393 . S
C1157 C1156 1.391 . S
C1158 H1148 0.950 . S
C1158 C1159 1.386 . S
C1158 C1160 1.391 . S
C1159 C1158 1.386 . S
C1159 C1163 1.393 . S
C1160 H1149 0.950 . S
C1160 C1158 1.391 . S
C1160 C1161 1.400 . S
C1161 C1155 1.491 . S
C1161 C1160 1.400 . S
C1161 C1162 1.398 . S
C1162 H1150 0.950 . S
C1162 C1161 1.398 . S
C1162 C1163 1.391 . S
C1163 H1151 0.950 . S
C1163 C1159 1.393 . S
C1163 C1162 1.391 . S
H1164 C1172 0.950 . S
H1165 C1177 0.950 . S
H1166 C1174 0.950 . S
H1167 C1176 0.950 . S
H1168 C1178 0.950 . S
H1169 C1180 0.950 . S
H1170 C1182 0.950 . S
H1171 C1183 0.950 . S
C1172 H1164 0.950 . S
C1172 C1173 1.386 . S
C1172 C1174 1.391 . S
C1173 C1172 1.386 . S
C1173 C1177 1.393 . S
C1174 H1166 0.950 . S
C1174 C1172 1.391 . S
C1174 C1175 1.400 . S
C1175 C1174 1.400 . S
C1175 C1176 1.398 . S
C1175 C1181 1.491 . S
C1176 H1167 0.950 . S
C1176 C1175 1.398 . S
C1176 C1177 1.391 . S
C1177 H1165 0.950 . S
C1177 C1173 1.393 . S
C1177 C1176 1.391 . S
C1178 H1168 0.950 . S
C1178 C1179 1.386 . S
C1178 C1180 1.391 . S
C1179 C1178 1.386 . S
C1179 C1183 1.393 . S
C1180 H1169 0.950 . S
C1180 C1178 1.391 . S
C1180 C1181 1.400 . S
C1181 C1175 1.491 . S
C1181 C1180 1.400 . S
C1181 C1182 1.398 . S
C1182 H1170 0.950 . S
C1182 C1181 1.398 . S
C1182 C1183 1.391 . S
C1183 H1171 0.950 . S
C1183 C1179 1.393 . S
C1183 C1182 1.391 . S
H1184 C1192 0.950 . S
H1185 C1197 0.950 . S
H1186 C1194 0.950 . S
H1187 C1196 0.950 . S
H1188 C1198 0.950 . S
H1189 C1200 0.950 . S
H1190 C1202 0.950 . S
H1191 C1203 0.950 . S
C1192 H1184 0.950 . S
C1192 C1193 1.386 . S
C1192 C1194 1.391 . S
C1193 C1192 1.386 . S
C1193 C1197 1.393 . S
C1194 H1186 0.950 . S
C1194 C1192 1.391 . S
C1194 C1195 1.400 . S
C1195 C1194 1.400 . S
C1195 C1196 1.398 . S
C1195 C1201 1.491 . S
C1196 H1187 0.950 . S
C1196 C1195 1.398 . S
C1196 C1197 1.391 . S
C1197 H1185 0.950 . S
C1197 C1193 1.393 . S
C1197 C1196 1.391 . S
C1198 H1188 0.950 . S
C1198 C1199 1.386 . S
C1198 C1200 1.391 . S
C1199 C1198 1.386 . S
C1199 C1203 1.393 . S
C1200 H1189 0.950 . S
C1200 C1198 1.391 . S
C1200 C1201 1.400 . S
C1201 C1195 1.491 . S
C1201 C1200 1.400 . S
C1201 C1202 1.398 . S
C1202 H1190 0.950 . S
C1202 C1201 1.398 . S
C1202 C1203 1.391 . S
C1203 H1191 0.950 . S
C1203 C1199 1.393 . S
C1203 C1202 1.391 . S
H1204 C1212 0.950 . S
H1205 C1217 0.950 . S
H1206 C1214 0.950 . S
H1207 C1216 0.950 . S
H1208 C1218 0.950 . S
H1209 C1220 0.950 . S
H1210 C1222 0.950 . S
H1211 C1223 0.950 . S
C1212 H1204 0.950 . S
C1212 C1213 1.386 . S
C1212 C1214 1.391 . S
C1213 C1212 1.386 . S
C1213 C1217 1.393 . S
C1214 H1206 0.950 . S
C1214 C1212 1.391 . S
C1214 C1215 1.400 . S
C1215 C1214 1.400 . S
C1215 C1216 1.398 . S
C1215 C1221 1.491 . S
C1216 H1207 0.950 . S
C1216 C1215 1.398 . S
C1216 C1217 1.391 . S
C1217 H1205 0.950 . S
C1217 C1213 1.393 . S
C1217 C1216 1.391 . S
C1218 H1208 0.950 . S
C1218 C1219 1.386 . S
C1218 C1220 1.391 . S
C1219 C1218 1.386 . S
C1219 C1223 1.393 . S
C1220 H1209 0.950 . S
C1220 C1218 1.391 . S
C1220 C1221 1.400 . S
C1221 C1215 1.491 . S
C1221 C1220 1.400 . S
C1221 C1222 1.398 . S
C1222 H1210 0.950 . S
C1222 C1221 1.398 . S
C1222 C1223 1.391 . S
C1223 H1211 0.950 . S
C1223 C1219 1.393 . S
C1223 C1222 1.391 . S
H1224 C1232 0.950 . S
H1225 C1237 0.940 1_554 S
H1226 C1234 0.950 . S
H1227 C1236 0.950 . S
H1228 C1238 0.950 . S
H1229 C1240 0.950 . S
H1230 C1242 0.950 . S
H1231 C1243 0.950 . S
C1232 H1224 0.950 . S
C1232 C1233 1.386 . S
C1232 C1234 1.391 . S
C1233 C1232 1.386 . S
C1233 C1237 1.404 . S
C1234 H1226 0.950 . S
C1234 C1232 1.391 . S
C1234 C1235 1.400 . S
C1235 C1234 1.400 . S
C1235 C1236 1.398 1_556 S
C1235 C1241 1.491 . S
C1236 H1227 0.950 . S
C1236 C1235 1.398 1_554 S
C1236 C1237 1.390 1_554 S
C1237 H1225 0.940 1_556 S
C1237 C1233 1.404 . S
C1237 C1236 1.390 1_556 S
C1238 H1228 0.950 . S
C1238 C1239 1.386 . S
C1238 C1240 1.391 . S
C1239 C1238 1.386 . S
C1239 C1243 1.393 1_554 S
C1240 H1229 0.950 . S
C1240 C1238 1.391 . S
C1240 C1241 1.400 1_554 S
C1241 C1235 1.491 . S
C1241 C1240 1.400 1_556 S
C1241 C1242 1.398 . S
C1242 H1230 0.950 . S
C1242 C1241 1.398 . S
C1242 C1243 1.391 . S
C1243 H1231 0.950 . S
C1243 C1239 1.393 1_556 S
C1243 C1242 1.391 . S
H1244 C1252 0.950 . S
H1245 C1257 0.950 . S
H1246 C1254 0.950 . S
H1247 C1256 0.950 . S
H1248 C1258 0.950 . S
H1249 C1260 0.950 . S
H1250 C1262 0.950 . S
H1251 C1263 0.950 . S
C1252 H1244 0.950 . S
C1252 C1253 1.386 . S
C1252 C1254 1.391 . S
C1253 C1252 1.386 . S
C1253 C1257 1.393 . S
C1254 H1246 0.950 . S
C1254 C1252 1.391 . S
C1254 C1255 1.400 . S
C1255 C1254 1.400 . S
C1255 C1256 1.398 . S
C1255 C1261 1.491 . S
C1256 H1247 0.950 . S
C1256 C1255 1.398 . S
C1256 C1257 1.391 . S
C1257 H1245 0.950 . S
C1257 C1253 1.393 . S
C1257 C1256 1.391 . S
C1258 H1248 0.950 . S
C1258 C1259 1.386 . S
C1258 C1260 1.391 . S
C1259 C1258 1.386 . S
C1259 C1263 1.393 . S
C1260 H1249 0.950 . S
C1260 C1258 1.391 . S
C1260 C1261 1.400 . S
C1261 C1255 1.491 . S
C1261 C1260 1.400 . S
C1261 C1262 1.398 . S
C1262 H1250 0.950 . S
C1262 C1261 1.398 . S
C1262 C1263 1.391 . S
C1263 H1251 0.950 . S
C1263 C1259 1.393 . S
C1263 C1262 1.391 . S
H1264 C1272 0.950 . S
H1265 C1277 0.950 . S
H1266 C1274 0.950 . S
H1267 C1276 0.950 . S
H1268 C1278 0.950 . S
H1269 C1280 0.950 . S
H1270 C1282 0.950 . S
H1271 C1283 0.950 . S
C1272 H1264 0.950 . S
C1272 C1273 1.386 . S
C1272 C1274 1.391 . S
C1273 C1272 1.386 . S
C1273 C1277 1.393 . S
C1274 H1266 0.950 . S
C1274 C1272 1.391 . S
C1274 C1275 1.400 . S
C1275 C1274 1.400 . S
C1275 C1276 1.398 . S
C1275 C1281 1.491 . S
C1276 H1267 0.950 . S
C1276 C1275 1.398 . S
C1276 C1277 1.391 . S
C1277 H1265 0.950 . S
C1277 C1273 1.393 . S
C1277 C1276 1.391 . S
C1278 H1268 0.950 . S
C1278 C1279 1.386 . S
C1278 C1280 1.391 . S
C1279 C1278 1.386 . S
C1279 C1283 1.393 . S
C1280 H1269 0.950 . S
C1280 C1278 1.391 . S
C1280 C1281 1.400 . S
C1281 C1275 1.491 . S
C1281 C1280 1.400 . S
C1281 C1282 1.398 . S
C1282 H1270 0.950 . S
C1282 C1281 1.398 . S
C1282 C1283 1.391 . S
C1283 H1271 0.950 . S
C1283 C1279 1.393 . S
C1283 C1282 1.391 . S
H1284 C1292 0.950 . S
H1285 C1297 0.984 . S
H1286 C1294 0.950 . S
H1287 C1296 0.950 1_556 S
H1288 C1298 0.950 1_556 S
H1289 C1300 0.950 1_556 S
H1290 C1302 0.950 . S
H1291 C1303 0.950 . S
C1292 H1284 0.950 . S
C1292 C1293 1.386 . S
C1292 C1294 1.391 . S
C1293 C1292 1.386 . S
C1293 C1297 1.393 . S
C1294 H1286 0.950 . S
C1294 C1292 1.391 . S
C1294 C1295 1.400 . S
C1295 C1294 1.400 . S
C1295 C1296 1.398 . S
C1295 C1301 1.491 . S
C1296 H1287 0.950 1_554 S
C1296 C1295 1.398 . S
C1296 C1297 1.391 . S
C1297 H1285 0.984 . S
C1297 C1293 1.393 . S
C1297 C1296 1.391 . S
C1298 H1288 0.950 1_554 S
C1298 C1299 1.386 . S
C1298 C1300 1.391 . S
C1299 C1298 1.386 . S
C1299 C1303 1.393 . S
C1300 H1289 0.950 1_554 S
C1300 C1298 1.391 . S
C1300 C1301 1.400 . S
C1301 C1295 1.491 . S
C1301 C1300 1.400 . S
C1301 C1302 1.398 . S
C1302 H1290 0.950 . S
C1302 C1301 1.398 . S
C1302 C1303 1.391 . S
C1303 H1291 0.950 . S
C1303 C1299 1.393 . S
C1303 C1302 1.391 . S
C359 C184 1.145 . S
C353 C62 1.149 . S
C379 C197 1.540 . S
C373 C73 1.434 1_455 S
C393 C84 1.655 . S
C399 C217 1.603 . S
C419 C231 1.215 . S
C413 C49 1.082 . S
C439 C243 1.389 . S
C433 C118 1.383 . S
C459 C257 1.565 . S
C453 C137 1.334 . S
C473 C129 1.568 . S
C479 C267 1.569 . S
C499 C282 1.900 . S
C493 C106 1.866 . S
C513 C128 1.806 . S
C519 C296 1.818 . S
C539 C315 1.505 . S
C533 C104 1.350 . S
C553 C115 1.584 . S
C559 C295 1.789 . S
C579 C313 1.717 . S
C573 C139 1.641 . S
C593 C85 1.712 . S
C599 C329 1.589 . S
C613 C52 1.200 . S
C619 C323 1.209 . S
C633 C60 0.988 . S
C639 C327 1.078 . S
C653 C71 1.415 . S
C659 C324 1.588 . S
C673 C40 1.709 . S
C679 C226 1.756 . S
C693 C162 1.102 . S
C699 C225 1.086 . S
C719 C189 1.006 . S
C713 C173 1.064 1_565 S
C739 C203 1.740 . S
C733 C93 1.725 . S
C753 C51 1.486 . S
C759 C240 1.498 . S
C779 C285 1.565 . S
C773 C126 1.402 . S
C799 C239 1.757 . S
C793 C107 1.730 . S
C819 C271 1.539 . S
C813 C140 1.517 . S
C839 C268 1.158 . S
C833 C161 1.150 . S
C853 C172 1.441 . S
C859 C281 1.534 . S
C873 C95 1.663 . S
C879 C245 1.592 . S
C899 C259 1.221 . S
C893 C148 1.032 . S
C913 C41 1.376 . S
C919 C215 1.394 . S
C939 C229 1.560 . S
C933 C5 1.336 . S
C959 C183 1.561 . S
C953 C19 1.561 . S
C979 C198 1.896 . S
C973 C29 1.858 . S
C993 C18 1.811 . S
C999 C310 1.834 . S
C1013 C27 1.382 . S
C1019 C301 1.472 1_655 S
C1033 C38 1.575 . S
C1039 C309 1.780 . S
C1053 C7 1.636 . S
C1059 C299 1.707 . S
C1079 C343 1.596 . S
C1073 C96 1.712 . S
C1099 C337 1.206 . S
C1093 C151 1.204 . S
C1119 C341 1.082 . S
C1113 C159 1.007 . S
C1133 C170 1.418 . S
C1139 C338 1.591 . S
C1153 C117 1.707 . S
C1159 C254 1.756 . S
C1179 C253 1.089 . S
C1173 C63 1.105 . S
C1199 C273 0.992 . S
C1193 C74 1.058 . S
C1219 C287 1.751 . S
C1213 C82 1.699 . S
C1233 C150 1.463 . S
C1239 C212 1.502 . S
C1259 C201 1.561 . S
C1253 C16 1.367 . S
C1273 C30 1.733 . S
C1279 C211 1.759 . S
C1299 C187 1.536 . S
C1293 C8 1.538 . S
