# Generated by pormake.
# Topology pts, (4,4)-cn, num edge types: 1
# Building blocks:
#     Node 0, Type 0, BuildingBlock: NAWXER_clean_sbu_0, # of connection points: 4
#     Node 1, Type 0, BuildingBlock: NAWXER_clean_sbu_0, # of connection points: 4
#     Node 2, Type 1, BuildingBlock: UXUYUI_clean_sbu_0, # of connection points: 4
#     Node 3, Type 1, BuildingBlock: UXUYUI_clean_sbu_0, # of connection points: 4
#     Edge 4, Type (0, 1), BuildingBlock: XIVTED_clean_linker_0, # of connection points: 2
#     Edge 5, Type (0, 1), BuildingBlock: XIVTED_clean_linker_0, # of connection points: 2
#     Edge 6, Type (0, 1), BuildingBlock: XIVTED_clean_linker_0, # of connection points: 2
#     Edge 7, Type (0, 1), BuildingBlock: XIVTED_clean_linker_0, # of connection points: 2
#     Edge 8, Type (0, 1), BuildingBlock: XIVTED_clean_linker_0, # of connection points: 2
#     Edge 9, Type (0, 1), BuildingBlock: XIVTED_clean_linker_0, # of connection points: 2
#     Edge 10, Type (0, 1), BuildingBlock: XIVTED_clean_linker_0, # of connection points: 2
#     Edge 11, Type (0, 1), BuildingBlock: XIVTED_clean_linker_0, # of connection points: 2
# Relax obj value: 0.015
# Max RMSD: 0.059
# Mean RMSD: 0.051
data_MOF--net-pts--node1-NAWXER_clean_sbu_0--node2-UXUYUI_clean_sbu_0--edge1-XIVTED_clean_linker_0
_symmetry_space_group_name_H-M    P1
_symmetry_Int_Tables_number       1
_symmetry_cell_setting            triclinic
loop_
_symmetry_equiv_pos_as_xyz
'x, y, z'
_cell_length_a     29.030619
_cell_length_b     29.060798
_cell_length_c     46.429254
_cell_angle_alpha  89.919304
_cell_angle_beta   90.036377
_cell_angle_gamma 89.962943
loop_
_atom_site_label
_atom_site_type_symbol
_atom_site_fract_x
_atom_site_fract_y
_atom_site_fract_z
_atom_type_partial_charge
C0 C 0.45188 0.04195 0.96399 0.0
C1 C 0.56272 0.04456 0.04409 0.0
O2 O 0.46387 1.00243 0.97361 0.0
Zn3 Zn 0.50643 0.97194 1.00527 0.0
O4 O 0.4689 0.07812 0.97523 0.0
Zn5 Zn 0.50784 0.04703 1.00391 0.0
O6 O 0.55833 0.01366 0.97859 0.0
O7 O 0.55132 0.93815 0.98171 0.0
O8 O 0.54752 0.08006 0.031 0.0
O9 O 0.54956 1.00442 0.03624 0.0
O10 O 0.46086 0.94171 0.0301 0.0
O11 O 0.45813 0.01759 0.03189 0.0
C12 C 0.57216 0.97331 0.97176 0.0
C13 C 0.44307 0.97837 0.04024 0.0
C14 C 0.03643 0.56378 0.46689 0.0
C15 C 0.03836 0.43972 0.53941 0.0
O16 O 0.99708 0.55064 0.47624 0.0
Zn17 Zn 0.96643 0.50306 0.50515 0.0
O18 O 0.07292 0.54414 0.47609 0.0
Zn19 Zn 0.04173 0.50135 0.50254 0.0
O20 O 0.00668 0.45864 0.47283 0.0
O21 O 0.93136 0.46311 0.47916 0.0
O22 O 0.07402 0.45653 0.52737 0.0
O23 O 0.99856 0.45496 0.53242 0.0
O24 O 0.93755 0.54498 0.53282 0.0
O25 O 0.01356 0.54864 0.53259 0.0
C26 C 0.96583 0.44664 0.46568 0.0
C27 C 0.97473 0.5628 0.54223 0.0
Li28 Li 1.00044 0.04894 0.27456 0.0
Li29 Li 1.00367 0.96608 0.27455 0.0
Li30 Li 0.04475 0.00567 0.2361 0.0
Li31 Li 0.96066 1.00294 0.23738 0.0
C32 C 0.07744 0.99688 0.30347 0.0
N33 N 0.11865 0.96767 0.35399 0.0
C34 C 0.06204 0.01351 0.33002 0.0
C35 C 0.11391 0.96549 0.30264 0.0
C36 C 0.08333 0.99836 0.3553 0.0
C37 C 0.13422 0.95107 0.32841 0.0
C38 C 0.92356 0.98582 0.3006 0.0
C39 C 0.87727 0.92299 0.31833 0.0
N40 N 0.87405 0.94434 0.34431 0.0
C41 C 0.91967 0.00723 0.32744 0.0
C42 C 0.90205 0.94346 0.29595 0.0
C43 C 0.89451 0.98567 0.34927 0.0
C44 C 0.95094 0.12131 0.29876 0.0
N45 N 0.99438 0.10448 0.29582 0.0
C46 C 0.0248 0.16622 0.32389 0.0
C47 C 0.0312 0.12627 0.30765 0.0
C48 C 0.9801 0.18392 0.32786 0.0
C49 C 0.94293 0.16103 0.31487 0.0
H50 H 0.92241 0.10346 0.28879 0.0
H51 H 0.06542 0.11226 0.30481 0.0
C52 C 0.02523 0.87307 0.2872 0.0
N53 N 0.0101 0.91307 0.29912 0.0
C54 C 0.0327 0.83422 0.30444 0.0
C55 C 0.00924 0.87857 0.34588 0.0
C56 C 1.00262 0.91648 0.32795 0.0
C57 C 0.02424 0.83667 0.33418 0.0
H58 H 0.03177 0.87141 0.2643 0.0
H59 H 0.99204 0.94878 0.33722 0.0
C60 C 0.01978 0.09918 0.22515 0.0
N61 N 0.05849 0.18379 0.21296 0.0
C62 C 0.99612 0.1308 0.20793 0.0
C63 C 0.06302 0.11063 0.2363 0.0
C64 C 0.01632 0.17338 0.20197 0.0
C65 C 0.08203 0.15357 0.22985 0.0
C66 C 0.98501 0.92871 0.21067 0.0
C67 C 0.99669 0.94067 0.18244 0.0
C68 C 0.95199 0.89466 0.21561 0.0
C69 C 0.9747 0.91859 0.15954 0.0
C70 C 0.93077 0.87338 0.19213 0.0
N71 N 0.94244 0.88572 0.16481 0.0
C72 C 0.12652 0.96656 0.21549 0.0
C73 C 0.10274 0.03192 0.18881 0.0
C74 C 0.16462 0.96052 0.19751 0.0
N75 N 0.09698 1.00224 0.21118 0.0
C76 C 0.14045 0.02731 0.17037 0.0
C77 C 0.17219 0.99138 0.1747 0.0
H78 H 0.12012 0.94238 0.23272 0.0
H79 H 0.07777 0.05877 0.18491 0.0
C80 C 0.86556 0.99409 0.22343 0.0
N81 N 0.90781 0.00546 0.21309 0.0
C82 C 0.82634 1.00058 0.20647 0.0
C83 C 0.87484 0.03025 0.16846 0.0
C84 C 0.91312 0.02321 0.18619 0.0
C85 C 0.8306 0.01922 0.17862 0.0
H86 H 0.86208 0.98117 0.24513 0.0
H87 H 0.94711 0.03266 0.17869 0.0
O88 O 0.05665 0.01096 0.27849 0.0
O89 O 0.94806 0.0064 0.27898 0.0
O90 O 1.00011 0.05766 0.23151 0.0
O91 O 0.00529 0.95073 0.23336 0.0
H92 H 0.03324 0.037 0.33119 0.0
H93 H 0.12628 0.95216 0.28237 0.0
H94 H 0.07152 0.01072 0.37599 0.0
H95 H 0.16235 0.92664 0.32807 0.0
H96 H 0.86068 0.89009 0.31507 0.0
H97 H 0.93632 0.03984 0.33152 0.0
H98 H 0.90484 0.92637 0.27536 0.0
H99 H 0.8914 1.00173 0.37018 0.0
H100 H 0.05443 0.1825 0.33371 0.0
H101 H 0.90805 0.17382 0.31697 0.0
H102 H 0.0441 0.80245 0.29457 0.0
H103 H 1.00305 0.88216 0.36877 0.0
H104 H 0.96249 0.12251 0.19929 0.0
H105 H 0.08177 0.08663 0.24973 0.0
H106 H 0.99844 0.19819 0.18863 0.0
H107 H 0.11548 0.16287 0.2383 0.0
H108 H 0.02204 0.96712 0.17826 0.0
H109 H 0.94285 0.88478 0.23733 0.0
H110 H 0.98316 0.9277 0.13757 0.0
H111 H 0.90503 0.84706 0.19561 0.0
H112 H 0.18815 0.93233 0.20163 0.0
H113 H 0.14429 0.05122 0.15263 0.0
H114 H 0.79292 0.99225 0.21541 0.0
H115 H 0.87988 0.04417 0.14705 0.0
Li116 Li 0.96679 1.00255 0.77404 0.0
Li117 Li 0.04965 1.00303 0.77347 0.0
Li118 Li 0.00762 0.04307 0.73624 0.0
Li119 Li 0.00703 0.96046 0.73736 0.0
C120 C 0.00922 0.07155 0.80604 0.0
N121 N 0.01161 0.10152 0.86246 0.0
C122 C 0.00625 0.03988 0.82866 0.0
C123 C 0.01343 0.11842 0.81211 0.0
C124 C 0.00751 0.05573 0.85703 0.0
C125 C 0.01456 0.13291 0.84078 0.0
C126 C 0.03348 0.91016 0.78503 0.0
C127 C 0.10201 0.86427 0.77869 0.0
N128 N 0.08388 0.8314 0.7962 0.0
C129 C 0.01558 0.87596 0.80299 0.0
C130 C 0.0771 0.90433 0.7728 0.0
C131 C 0.04157 0.83638 0.80837 0.0
C132 C 0.8977 0.95633 0.8041 0.0
N133 N 0.91374 0.99921 0.79812 0.0
C134 C 0.8563 0.03289 0.82828 0.0
C135 C 0.89362 0.03729 0.8095 0.0
C136 C 0.83964 0.98887 0.83553 0.0
C137 C 0.8606 0.9503 0.82287 0.0
H138 H 0.91428 0.92669 0.7946 0.0
H139 H 0.90691 0.07106 0.80433 0.0
C140 C 0.13597 0.03918 0.78844 0.0
N141 N 0.10363 0.00804 0.79673 0.0
C142 C 0.17551 0.046 0.8051 0.0
C143 C 0.14762 0.98854 0.8385 0.0
C144 C 0.10845 0.98322 0.82139 0.0
C145 C 0.18182 0.02021 0.83039 0.0
H146 H 0.13086 0.05888 0.7689 0.0
H147 H 0.08174 0.95954 0.82794 0.0
C148 C 0.91429 0.02711 0.72696 0.0
N149 N 0.8356 0.07807 0.71644 0.0
C150 C 0.87945 0.00941 0.7094 0.0
C151 C 0.90913 0.07082 0.73911 0.0
C152 C 0.83992 0.03568 0.70435 0.0
C153 C 0.8691 0.09601 0.73355 0.0
C154 C 0.07478 1.00101 0.70326 0.0
C155 C 0.04229 0.99621 0.68122 0.0
C156 C 0.12136 0.00574 0.69636 0.0
C157 C 0.05703 0.9962 0.65259 0.0
C158 C 0.13474 0.00556 0.66745 0.0
N159 N 0.10256 1.00084 0.64636 0.0
C160 C 0.04275 0.12861 0.71837 0.0
C161 C 0.9861 0.09801 0.687 0.0
C162 C 0.04894 0.16664 0.70028 0.0
N163 N 0.01158 0.09546 0.71153 0.0
C164 C 0.99089 0.13553 0.66846 0.0
C165 C 0.02257 0.17055 0.67503 0.0
H166 H 0.06301 0.1253 0.73784 0.0
H167 H 0.96241 0.07067 0.68162 0.0
C168 C 0.95989 0.89076 0.70833 0.0
N169 N 1.00294 0.90625 0.71449 0.0
C170 C 0.95374 0.85249 0.69058 0.0
C171 C 0.0365 0.84594 0.68662 0.0
C172 C 0.04101 0.88461 0.70421 0.0
C173 C 0.99236 0.82966 0.67922 0.0
H174 H 0.93025 0.9086 0.71692 0.0
H175 H 0.07488 0.89763 0.7094 0.0
O176 O 0.0082 0.05708 0.77801 0.0
O177 O 0.0082 0.94901 0.77962 0.0
O178 O 0.95312 1.00157 0.732 0.0
O179 O 0.06137 1.00133 0.7315 0.0
H180 H 1.00293 1.00348 0.82443 0.0
H181 H 0.0158 0.14334 0.79481 0.0
H182 H 0.00523 0.03161 0.87474 0.0
H183 H 0.0178 0.1691 0.8458 0.0
H184 H 0.13579 0.85934 0.76936 0.0
H185 H 0.98195 0.87997 0.81273 0.0
H186 H 0.09177 0.93043 0.75899 0.0
H187 H 0.02811 0.80964 0.82223 0.0
H188 H 0.84075 0.06369 0.83707 0.0
H189 H 0.84934 0.91572 0.82797 0.0
H190 H 0.20118 0.07059 0.79806 0.0
H191 H 0.15087 0.96849 0.85808 0.0
H192 H 0.88293 0.97574 0.69971 0.0
H193 H 0.93571 0.08538 0.75257 0.0
H194 H 0.8127 0.02238 0.69081 0.0
H195 H 0.86469 0.12985 0.74282 0.0
H196 H 0.00608 0.99252 0.6861 0.0
H197 H 0.14691 0.00953 0.71319 0.0
H198 H 0.03226 0.99252 0.63533 0.0
H199 H 0.1707 0.00919 0.6618 0.0
H200 H 0.07352 0.193 0.70621 0.0
H201 H 0.97039 0.13684 0.64898 0.0
H202 H 0.91908 0.8417 0.68528 0.0
H203 H 0.06735 0.82906 0.6789 0.0
H204 H 0.40778 0.05128 0.0692 0.0
H205 H 0.21032 0.91233 0.15206 0.0
H206 H 0.39139 0.90434 0.05996 0.0
H207 H 0.22773 0.05976 0.15423 0.0
H208 H 0.27787 0.90657 0.12044 0.0
H209 H 0.34374 0.05268 0.10241 0.0
C210 C 0.39071 0.01909 0.07415 0.0
C211 C 0.40498 0.97759 0.06151 0.0
C212 C 0.26682 0.94011 0.12788 0.0
C213 C 0.33067 0.9791 0.09996 0.0
C214 C 0.22844 0.94344 0.14602 0.0
C215 C 0.21315 0.98667 0.15571 0.0
C216 C 0.29018 0.98027 0.11954 0.0
C217 C 0.23768 0.0258 0.14696 0.0
C218 C 0.35393 0.01998 0.09323 0.0
C219 C 0.3815 0.9371 0.06914 0.0
N220 N 0.27483 0.02162 0.12945 0.0
N221 N 0.34527 0.93887 0.08784 0.0
H222 H 0.11391 0.38859 0.558 0.0
H223 H 0.95328 0.22011 0.6505 0.0
H224 H 0.96733 0.40489 0.5703 0.0
H225 H 0.10149 0.21407 0.65622 0.0
H226 H 0.9597 0.28614 0.61859 0.0
H227 H 0.11246 0.32347 0.5922 0.0
C228 C 0.08163 0.37876 0.56792 0.0
C229 C 0.04067 0.40212 0.56103 0.0
C230 C 0.99098 0.2706 0.6268 0.0
C231 C 0.03872 0.32796 0.59977 0.0
C232 C 0.98726 0.23261 0.64491 0.0
C233 C 0.02687 0.21138 0.65593 0.0
C234 C 0.03469 0.28769 0.61936 0.0
C235 C 0.07006 0.22965 0.6483 0.0
C236 C 0.08081 0.34166 0.58738 0.0
C237 C 0.99981 0.3879 0.57459 0.0
N238 N 0.07289 0.26668 0.63032 0.0
N239 N 0.99993 0.35185 0.59305 0.0
H240 H 0.57513 0.98346 0.08735 0.0
H241 H 0.81204 0.0923 0.14252 0.0
H242 H 0.6284 0.1115 0.05414 0.0
H243 H 0.75434 0.96445 0.17321 0.0
H244 H 0.74374 0.10353 0.11226 0.0
H245 H 0.63776 0.98072 0.12199 0.0
C246 C 0.5999 0.01134 0.08756 0.0
C247 C 0.59679 0.04759 0.06767 0.0
C248 C 0.74599 0.07318 0.12575 0.0
C249 C 0.66946 0.04432 0.10722 0.0
C250 C 0.78513 0.06652 0.14286 0.0
C251 C 0.78912 0.02723 0.16042 0.0
C252 C 0.7106 0.04029 0.12614 0.0
C253 C 0.75272 0.99549 0.16034 0.0
C254 C 0.6358 0.0097 0.10736 0.0
C255 C 0.62957 0.08298 0.06914 0.0
N256 N 0.71522 1.00266 0.14344 0.0
N257 N 0.665 0.0802 0.08839 0.0
H258 H 0.04646 0.61894 0.5546 0.0
H259 H 0.92642 0.76096 0.67995 0.0
H260 H 0.90387 0.59565 0.57672 0.0
H261 H 0.04512 0.80805 0.63222 0.0
H262 H 0.91897 0.6963 0.64637 0.0
H263 H 0.04862 0.68325 0.58763 0.0
C264 C 0.01546 0.6272 0.56651 0.0
C265 C 0.97485 0.60164 0.56286 0.0
C266 C 0.9465 0.72096 0.64333 0.0
C267 C 0.97729 0.67603 0.60103 0.0
C268 C 0.95078 0.75799 0.66241 0.0
C269 C 0.98678 0.79003 0.65917 0.0
C270 C 0.97871 0.71569 0.62107 0.0
C271 C 0.01754 0.78384 0.63617 0.0
C272 C 0.01674 0.66426 0.58531 0.0
C273 C 0.93585 0.61447 0.57885 0.0
N274 N 0.01291 0.74739 0.61819 0.0
N275 N 0.93806 0.65077 0.59744 0.0
H276 H 0.40037 0.11617 0.94444 0.0
H277 H 0.23521 0.95202 0.85286 0.0
H278 H 0.4229 0.97093 0.93086 0.0
H279 H 0.22486 0.09989 0.84786 0.0
H280 H 0.30353 0.95993 0.88285 0.0
H281 H 0.33626 0.11322 0.90964 0.0
C282 C 0.39227 0.08392 0.93394 0.0
C283 C 0.41673 0.04367 0.94085 0.0
C284 C 0.28658 0.9908 0.87516 0.0
C285 C 0.34361 0.03995 0.90147 0.0
C286 C 0.24733 0.98622 0.85817 0.0
C287 C 0.22419 0.02532 0.848 0.0
C288 C 0.30285 0.03485 0.88237 0.0
C289 C 0.24189 0.06885 0.85519 0.0
C290 C 0.35567 0.08221 0.91418 0.0
C291 C 0.40474 1.00278 0.92661 0.0
N292 N 0.28003 0.07251 0.87216 0.0
N293 N 0.36898 1.00196 0.90788 0.0
H294 H 0.02383 0.4352 0.42082 0.0
H295 H 0.91065 0.20059 0.36681 0.0
H296 H 0.89713 0.38244 0.45634 0.0
H297 H 0.03178 0.26266 0.32947 0.0
H298 H 0.90101 0.26852 0.39742 0.0
H299 H 0.02283 0.37475 0.38482 0.0
C300 C 0.99548 0.41096 0.42087 0.0
C301 C 0.96073 0.41354 0.44178 0.0
C302 C 0.92948 0.26735 0.38238 0.0
C303 C 0.95965 0.3434 0.4006 0.0
C304 C 0.93496 0.22867 0.36481 0.0
C305 C 0.97236 0.2257 0.34567 0.0
C306 C 0.96164 0.30332 0.3808 0.0
C307 C 1.00297 0.26295 0.34427 0.0
C308 C 0.99493 0.37636 0.40025 0.0
C309 C 0.92457 0.38158 0.44058 0.0
N310 N 0.99703 0.29999 0.36165 0.0
N311 N 0.92526 0.34733 0.42052 0.0
H312 H 0.59871 0.90251 0.93533 0.0
H313 H 0.82503 0.03832 0.88479 0.0
H314 H 0.63987 0.03629 0.96627 0.0
H315 H 0.76816 0.9261 0.83537 0.0
H316 H 0.76224 0.03043 0.91906 0.0
H317 H 0.66589 0.90275 0.90272 0.0
C318 C 0.622 0.9316 0.93545 0.0
C319 C 0.61351 0.96959 0.95331 0.0
C320 C 0.76339 0.00747 0.90072 0.0
C321 C 0.68993 0.97001 0.91652 0.0
C322 C 0.79915 0.01221 0.88097 0.0
C323 C 0.8017 0.98331 0.85684 0.0
C324 C 0.72972 0.97343 0.89657 0.0
C325 C 0.76775 0.94908 0.85369 0.0
C326 C 0.66008 0.93185 0.91679 0.0
C327 C 0.64467 0.00649 0.95262 0.0
N328 N 0.73303 0.94517 0.87327 0.0
N329 N 0.68131 0.00574 0.9346 0.0
H330 H 0.96428 0.61723 0.45116 0.0
H331 H 0.09487 0.77308 0.33591 0.0
H332 H 0.11007 0.60013 0.43587 0.0
H333 H 0.96438 0.80664 0.37505 0.0
H334 H 0.10081 0.70554 0.36789 0.0
H335 H 0.96339 0.68194 0.4186 0.0
C336 C 0.99634 0.62696 0.4409 0.0
C337 C 0.03743 0.60299 0.44641 0.0
C338 C 0.07108 0.72791 0.36945 0.0
C339 C 0.03646 0.67821 0.40866 0.0
C340 C 0.06749 0.76617 0.35115 0.0
C341 C 0.02911 0.79556 0.35293 0.0
C342 C 0.03565 0.71881 0.38924 0.0
C343 C 0.99481 0.78531 0.37316 0.0
C344 C 0.99574 0.66429 0.42229 0.0
C345 C 0.07767 0.6177 0.43232 0.0
N346 N 0.99885 0.74781 0.39036 0.0
N347 N 0.0762 0.65446 0.41395 0.0
loop_
_geom_bond_atom_site_label_1
_geom_bond_atom_site_label_2
_geom_bond_distance
_geom_bond_site_symmetry_2
_ccdc_geom_bond_type
C0 O2 1.246 . S
C0 O4 1.259 1_565 S
C1 O8 1.251 . S
C1 O9 1.254 1_545 S
O2 C0 1.246 . S
O2 Zn3 2.028 1_556 S
Zn3 O2 2.028 1_554 S
Zn3 O7 2.035 1_554 S
Zn3 O9 2.035 . S
Zn3 O10 2.028 . S
O4 C0 1.259 1_545 S
O4 Zn5 2.035 1_556 S
Zn5 O4 2.035 1_554 S
Zn5 O6 2.028 1_554 S
Zn5 O8 2.028 . S
Zn5 O11 2.035 . S
O6 Zn5 2.028 1_556 S
O6 C12 1.251 . S
O7 Zn3 2.035 1_556 S
O7 C12 1.254 1_565 S
O8 C1 1.251 . S
O8 Zn5 2.028 . S
O9 C1 1.254 1_565 S
O9 Zn3 2.035 . S
O10 Zn3 2.028 . S
O10 C13 1.246 . S
O11 Zn5 2.035 . S
O11 C13 1.259 1_545 S
C12 O6 1.251 . S
C12 O7 1.254 1_545 S
C13 O10 1.246 . S
C13 O11 1.259 1_565 S
C14 O16 1.246 . S
C14 O18 1.259 1_655 S
C15 O22 1.251 . S
C15 O23 1.254 1_455 S
O16 C14 1.246 . S
O16 Zn17 2.028 . S
Zn17 O16 2.028 . S
Zn17 O21 2.035 . S
Zn17 O23 2.035 . S
Zn17 O24 2.028 . S
O18 C14 1.259 1_455 S
O18 Zn19 2.035 . S
Zn19 O18 2.035 . S
Zn19 O20 2.028 . S
Zn19 O22 2.028 . S
Zn19 O25 2.035 . S
O20 Zn19 2.028 . S
O20 C26 1.251 . S
O21 Zn17 2.035 . S
O21 C26 1.254 1_655 S
O22 C15 1.251 . S
O22 Zn19 2.028 . S
O23 C15 1.254 1_655 S
O23 Zn17 2.035 . S
O24 Zn17 2.028 . S
O24 C27 1.246 . S
O25 Zn19 2.035 . S
O25 C27 1.259 1_455 S
C26 O20 1.251 . S
C26 O21 1.254 1_455 S
C27 O24 1.246 . S
C27 O25 1.259 1_655 S
Li28 N45 1.990 . S
Li28 O88 1.956 1_545 S
Li28 O89 1.970 1_455 S
Li28 O90 1.961 1_455 S
Li29 N53 1.990 . S
Li29 O88 1.970 1_655 S
Li29 O89 1.956 1_565 S
Li29 O91 1.961 1_655 S
Li30 N75 1.990 . S
Li30 O88 1.961 1_545 S
Li30 O90 1.956 1_455 S
Li30 O91 1.970 1_545 S
Li31 N81 1.990 . S
Li31 O89 1.961 1_565 S
Li31 O90 1.970 1_565 S
Li31 O91 1.956 1_655 S
C32 C34 1.348 1_545 S
C32 C35 1.356 . S
C32 O88 1.325 1_545 S
N33 C36 1.314 1_545 S
N33 C37 1.279 . S
C34 C32 1.348 1_565 S
C34 C36 1.353 . S
C34 H92 0.929 . S
C35 C32 1.356 . S
C35 C37 1.358 . S
C35 H93 0.930 . S
C36 N33 1.314 1_565 S
C36 C34 1.353 . S
C36 H94 0.930 . S
C37 N33 1.279 . S
C37 C35 1.358 . S
C37 H95 0.930 . S
C38 C41 1.348 . S
C38 C42 1.356 1_545 S
C38 O89 1.325 . S
C39 N40 1.279 . S
C39 C42 1.358 . S
C39 H96 0.930 . S
N40 C39 1.279 . S
N40 C43 1.314 1_565 S
C41 C38 1.348 . S
C41 C43 1.353 . S
C41 H97 0.929 . S
C42 C38 1.356 1_565 S
C42 C39 1.358 . S
C42 H98 0.930 . S
C43 N40 1.314 1_545 S
C43 C41 1.353 . S
C43 H99 0.930 . S
C44 N45 1.314 1_655 S
C44 C49 1.353 . S
C44 H50 0.930 . S
N45 Li28 1.990 . S
N45 C44 1.314 1_455 S
N45 C47 1.279 . S
C46 C47 1.358 . S
C46 C48 1.356 . S
C46 H100 0.930 . S
C47 N45 1.279 . S
C47 C46 1.358 . S
C47 H51 0.930 . S
C48 C46 1.356 . S
C48 C49 1.348 1_455 S
C49 C44 1.353 . S
C49 C48 1.348 1_655 S
C49 H101 0.929 . S
H50 C44 0.930 . S
H51 C47 0.930 . S
C52 N53 1.314 1_455 S
C52 C54 1.353 . S
C52 H58 0.930 . S
N53 Li29 1.990 . S
N53 C52 1.314 1_655 S
N53 C56 1.279 . S
C54 C52 1.353 . S
C54 C57 1.348 . S
C54 H102 0.929 . S
C55 C56 1.358 . S
C55 C57 1.356 1_655 S
C55 H103 0.930 . S
C56 N53 1.279 . S
C56 C55 1.358 . S
C56 H59 0.930 . S
C57 C54 1.348 . S
C57 C55 1.356 1_455 S
H58 C52 0.930 . S
H59 C56 0.930 . S
C60 C62 1.348 1_455 S
C60 C63 1.356 . S
C60 O90 1.325 1_455 S
N61 C64 1.314 1_455 S
N61 C65 1.279 . S
C62 C60 1.348 1_655 S
C62 C64 1.353 . S
C62 H104 0.929 . S
C63 C60 1.356 . S
C63 C65 1.358 . S
C63 H105 0.930 . S
C64 N61 1.314 1_655 S
C64 C62 1.353 . S
C64 H106 0.930 . S
C65 N61 1.279 . S
C65 C63 1.358 . S
C65 H107 0.930 . S
C66 C67 1.348 . S
C66 C68 1.356 1_455 S
C66 O91 1.325 . S
C67 C66 1.348 . S
C67 C69 1.353 . S
C67 H108 0.929 . S
C68 C66 1.356 1_655 S
C68 C70 1.358 . S
C68 H109 0.930 . S
C69 C67 1.353 . S
C69 N71 1.314 1_455 S
C69 H110 0.930 . S
C70 C68 1.358 . S
C70 N71 1.279 . S
C70 H111 0.930 . S
N71 C69 1.314 1_655 S
N71 C70 1.279 . S
C72 C74 1.353 . S
C72 N75 1.314 1_565 S
C72 H78 0.930 . S
C73 N75 1.279 . S
C73 C76 1.358 . S
C73 H79 0.930 . S
C74 C72 1.353 . S
C74 C77 1.348 1_565 S
C74 H112 0.929 . S
N75 Li30 1.990 . S
N75 C72 1.314 1_545 S
N75 C73 1.279 . S
C76 C73 1.358 . S
C76 C77 1.356 . S
C76 H113 0.930 . S
C77 C74 1.348 1_545 S
C77 C76 1.356 . S
H78 C72 0.930 . S
H79 C73 0.930 . S
C80 N81 1.314 1_545 S
C80 C82 1.353 . S
C80 H86 0.930 . S
N81 Li31 1.990 . S
N81 C80 1.314 1_565 S
N81 C84 1.279 . S
C82 C80 1.353 . S
C82 C85 1.348 . S
C82 H114 0.929 . S
C83 C84 1.358 . S
C83 C85 1.356 1_565 S
C83 H115 0.930 . S
C84 N81 1.279 . S
C84 C83 1.358 . S
C84 H87 0.930 . S
C85 C82 1.348 . S
C85 C83 1.356 1_545 S
H86 C80 0.930 . S
H87 C84 0.930 . S
O88 Li28 1.956 1_565 S
O88 Li29 1.970 1_455 S
O88 Li30 1.961 1_565 S
O88 C32 1.325 1_565 S
O89 Li28 1.970 1_655 S
O89 Li29 1.956 1_545 S
O89 Li31 1.961 1_545 S
O89 C38 1.325 . S
O90 Li28 1.961 1_655 S
O90 Li30 1.956 1_655 S
O90 Li31 1.970 1_545 S
O90 C60 1.325 1_655 S
O91 Li29 1.961 1_455 S
O91 Li30 1.970 1_565 S
O91 Li31 1.956 1_455 S
O91 C66 1.325 . S
H92 C34 0.929 . S
H93 C35 0.930 . S
H94 C36 0.930 . S
H95 C37 0.930 . S
H96 C39 0.930 . S
H97 C41 0.929 . S
H98 C42 0.930 . S
H99 C43 0.930 . S
H100 C46 0.930 . S
H101 C49 0.929 . S
H102 C54 0.929 . S
H103 C55 0.930 . S
H104 C62 0.929 . S
H105 C63 0.930 . S
H106 C64 0.930 . S
H107 C65 0.930 . S
H108 C67 0.929 . S
H109 C68 0.930 . S
H110 C69 0.930 . S
H111 C70 0.930 . S
H112 C74 0.929 . S
H113 C76 0.930 . S
H114 C82 0.929 . S
H115 C83 0.930 . S
Li116 N133 1.990 . S
Li116 O176 1.956 1_655 S
Li116 O177 1.970 1_545 S
Li116 O178 1.961 1_545 S
Li117 N141 1.990 . S
Li117 O176 1.970 1_565 S
Li117 O177 1.956 1_455 S
Li117 O179 1.961 1_565 S
Li118 N163 1.990 . S
Li118 O176 1.961 1_655 S
Li118 O178 1.956 1_545 S
Li118 O179 1.970 1_655 S
Li119 N169 1.990 . S
Li119 O177 1.961 1_455 S
Li119 O178 1.970 1_455 S
Li119 O179 1.956 1_565 S
C120 C122 1.348 . S
C120 C123 1.356 1_455 S
C120 O176 1.325 . S
N121 C124 1.314 1_655 S
N121 C125 1.279 . S
C122 C120 1.348 . S
C122 C124 1.353 . S
C122 H180 0.929 . S
C123 C120 1.356 1_655 S
C123 C125 1.358 . S
C123 H181 0.930 . S
C124 N121 1.314 1_455 S
C124 C122 1.353 . S
C124 H182 0.930 . S
C125 N121 1.279 . S
C125 C123 1.358 . S
C125 H183 0.930 . S
C126 C129 1.348 1_455 S
C126 C130 1.356 . S
C126 O177 1.325 1_455 S
C127 N128 1.279 . S
C127 C130 1.358 . S
C127 H184 0.930 . S
N128 C127 1.279 . S
N128 C131 1.314 1_455 S
C129 C126 1.348 1_655 S
C129 C131 1.353 . S
C129 H185 0.929 . S
C130 C126 1.356 . S
C130 C127 1.358 . S
C130 H186 0.930 . S
C131 N128 1.314 1_655 S
C131 C129 1.353 . S
C131 H187 0.930 . S
C132 N133 1.314 1_565 S
C132 C137 1.353 . S
C132 H138 0.930 . S
N133 Li116 1.990 . S
N133 C132 1.314 1_545 S
N133 C135 1.279 . S
C134 C135 1.358 . S
C134 C136 1.356 . S
C134 H188 0.930 . S
C135 N133 1.279 . S
C135 C134 1.358 . S
C135 H139 0.930 . S
C136 C134 1.356 . S
C136 C137 1.348 1_545 S
C137 C132 1.353 . S
C137 C136 1.348 1_565 S
C137 H189 0.929 . S
H138 C132 0.930 . S
H139 C135 0.930 . S
C140 N141 1.314 1_545 S
C140 C142 1.353 . S
C140 H146 0.930 . S
N141 Li117 1.990 . S
N141 C140 1.314 1_565 S
N141 C144 1.279 . S
C142 C140 1.353 . S
C142 C145 1.348 . S
C142 H190 0.929 . S
C143 C144 1.358 . S
C143 C145 1.356 1_565 S
C143 H191 0.930 . S
C144 N141 1.279 . S
C144 C143 1.358 . S
C144 H147 0.930 . S
C145 C142 1.348 . S
C145 C143 1.356 1_545 S
H146 C140 0.930 . S
H147 C144 0.930 . S
C148 C150 1.348 1_545 S
C148 C151 1.356 . S
C148 O178 1.325 1_545 S
N149 C152 1.314 1_545 S
N149 C153 1.279 . S
C150 C148 1.348 1_565 S
C150 C152 1.353 . S
C150 H192 0.929 . S
C151 C148 1.356 . S
C151 C153 1.358 . S
C151 H193 0.930 . S
C152 N149 1.314 1_565 S
C152 C150 1.353 . S
C152 H194 0.930 . S
C153 N149 1.279 . S
C153 C151 1.358 . S
C153 H195 0.930 . S
C154 C155 1.348 . S
C154 C156 1.356 1_545 S
C154 O179 1.325 . S
C155 C154 1.348 . S
C155 C157 1.353 . S
C155 H196 0.929 . S
C156 C154 1.356 1_565 S
C156 C158 1.358 . S
C156 H197 0.930 . S
C157 C155 1.353 . S
C157 N159 1.314 1_545 S
C157 H198 0.930 . S
C158 C156 1.358 . S
C158 N159 1.279 . S
C158 H199 0.930 . S
N159 C157 1.314 1_565 S
N159 C158 1.279 . S
C160 C162 1.353 . S
C160 N163 1.314 1_455 S
C160 H166 0.930 . S
C161 N163 1.279 . S
C161 C164 1.358 . S
C161 H167 0.930 . S
C162 C160 1.353 . S
C162 C165 1.348 . S
C162 H200 0.929 . S
N163 Li118 1.990 . S
N163 C160 1.314 1_655 S
N163 C161 1.279 . S
C164 C161 1.358 . S
C164 C165 1.356 1_655 S
C164 H201 0.930 . S
C165 C162 1.348 . S
C165 C164 1.356 1_455 S
H166 C160 0.930 . S
H167 C161 0.930 . S
C168 N169 1.314 1_655 S
C168 C170 1.353 . S
C168 H174 0.930 . S
N169 Li119 1.990 . S
N169 C168 1.314 1_455 S
N169 C172 1.279 . S
C170 C168 1.353 . S
C170 C173 1.348 1_655 S
C170 H202 0.929 . S
C171 C172 1.358 . S
C171 C173 1.356 . S
C171 H203 0.930 . S
C172 N169 1.279 . S
C172 C171 1.358 . S
C172 H175 0.930 . S
C173 C170 1.348 1_455 S
C173 C171 1.356 . S
H174 C168 0.930 . S
H175 C172 0.930 . S
O176 Li116 1.956 1_455 S
O176 Li117 1.970 1_545 S
O176 Li118 1.961 1_455 S
O176 C120 1.325 . S
O177 Li116 1.970 1_565 S
O177 Li117 1.956 1_655 S
O177 Li119 1.961 1_655 S
O177 C126 1.325 1_655 S
O178 Li116 1.961 1_565 S
O178 Li118 1.956 1_565 S
O178 Li119 1.970 1_655 S
O178 C148 1.325 1_565 S
O179 Li117 1.961 1_545 S
O179 Li118 1.970 1_455 S
O179 Li119 1.956 1_545 S
O179 C154 1.325 . S
H180 C122 0.929 . S
H181 C123 0.930 . S
H182 C124 0.930 . S
H183 C125 0.930 . S
H184 C127 0.930 . S
H185 C129 0.929 . S
H186 C130 0.930 . S
H187 C131 0.930 . S
H188 C134 0.930 . S
H189 C137 0.929 . S
H190 C142 0.929 . S
H191 C143 0.930 . S
H192 C150 0.929 . S
H193 C151 0.930 . S
H194 C152 0.930 . S
H195 C153 0.930 . S
H196 C155 0.929 . S
H197 C156 0.930 . S
H198 C157 0.930 . S
H199 C158 0.930 . S
H200 C162 0.929 . S
H201 C164 0.930 . S
H202 C170 0.929 . S
H203 C171 0.930 . S
H204 C210 0.930 . S
H205 C214 0.930 . S
H206 C219 0.929 . S
H207 C217 0.929 . S
H208 C212 0.929 . S
H209 C218 0.929 . S
C210 H204 0.930 . S
C210 C211 1.388 . S
C210 C218 1.378 . S
C211 C210 1.388 . S
C211 C219 1.412 1_545 S
C212 H208 0.929 . S
C212 C214 1.378 . S
C212 C216 1.350 . S
C213 C216 1.463 1_545 S
C213 C218 1.350 . S
C213 N221 1.427 1_545 S
C214 H205 0.930 . S
C214 C212 1.378 . S
C214 C215 1.367 . S
C215 C214 1.367 . S
C215 C217 1.433 1_565 S
C216 C212 1.350 . S
C216 C213 1.463 1_565 S
C216 N220 1.427 1_565 S
C217 H207 0.929 . S
C217 C215 1.433 1_545 S
C217 N220 1.384 . S
C218 H209 0.929 . S
C218 C210 1.378 . S
C218 C213 1.350 . S
C219 H206 0.929 . S
C219 C211 1.412 1_565 S
C219 N221 1.384 . S
N220 C216 1.427 1_545 S
N220 C217 1.384 . S
N221 C213 1.427 1_565 S
N221 C219 1.384 . S
H222 C228 0.930 . S
H223 C232 0.930 . S
H224 C237 0.929 . S
H225 C235 0.929 . S
H226 C230 0.929 . S
H227 C236 0.929 . S
C228 H222 0.930 . S
C228 C229 1.382 . S
C228 C236 1.378 . S
C229 C228 1.382 . S
C229 C237 1.418 1_455 S
C230 H226 0.929 . S
C230 C232 1.378 . S
C230 C234 1.354 . S
C231 C234 1.462 1_455 S
C231 C236 1.350 . S
C231 N239 1.427 1_455 S
C232 H223 0.930 . S
C232 C230 1.378 . S
C232 C233 1.362 1_655 S
C233 C232 1.362 1_455 S
C233 C235 1.438 . S
C234 C230 1.354 . S
C234 C231 1.462 1_655 S
C234 N238 1.423 1_655 S
C235 H225 0.929 . S
C235 C233 1.438 . S
C235 N238 1.384 . S
C236 H227 0.929 . S
C236 C228 1.378 . S
C236 C231 1.350 . S
C237 H224 0.929 . S
C237 C229 1.418 1_655 S
C237 N239 1.384 . S
N238 C234 1.423 1_455 S
N238 C235 1.384 . S
N239 C231 1.427 1_655 S
N239 C237 1.384 . S
H240 C246 0.930 . S
H241 C250 0.930 . S
H242 C255 0.929 . S
H243 C253 0.929 . S
H244 C248 0.929 . S
H245 C254 0.929 . S
C246 H240 0.930 . S
C246 C247 1.367 . S
C246 C254 1.378 . S
C247 C246 1.367 . S
C247 C255 1.433 1_545 S
C248 H244 0.929 . S
C248 C250 1.378 . S
C248 C252 1.349 1_565 S
C249 C252 1.463 . S
C249 C254 1.351 . S
C249 N257 1.427 1_545 S
C250 H241 0.930 . S
C250 C248 1.378 . S
C250 C251 1.367 1_565 S
C251 C250 1.367 1_545 S
C251 C253 1.433 . S
C252 C248 1.349 1_545 S
C252 C249 1.463 . S
C252 N256 1.428 . S
C253 H243 0.929 . S
C253 C251 1.433 . S
C253 N256 1.384 . S
C254 H245 0.929 . S
C254 C246 1.378 . S
C254 C249 1.351 . S
C255 H242 0.929 . S
C255 C247 1.433 1_565 S
C255 N257 1.384 . S
N256 C252 1.428 . S
N256 C253 1.384 . S
N257 C249 1.427 1_565 S
N257 C255 1.384 . S
H258 C264 0.930 . S
H259 C268 0.930 . S
H260 C273 0.929 . S
H261 C271 0.929 . S
H262 C266 0.929 . S
H263 C272 0.929 . S
C264 H258 0.930 . S
C264 C265 1.367 . S
C264 C272 1.378 . S
C265 C264 1.367 . S
C265 C273 1.433 1_455 S
C266 H262 0.929 . S
C266 C268 1.378 . S
C266 C270 1.351 . S
C267 C270 1.462 . S
C267 C272 1.350 1_655 S
C267 N275 1.428 . S
C268 H259 0.930 . S
C268 C266 1.378 . S
C268 C269 1.369 . S
C269 C268 1.369 . S
C269 C271 1.432 1_655 S
C270 C266 1.351 . S
C270 C267 1.462 . S
C270 N274 1.426 1_655 S
C271 H261 0.929 . S
C271 C269 1.432 1_455 S
C271 N274 1.384 . S
C272 H263 0.929 . S
C272 C264 1.378 . S
C272 C267 1.350 1_455 S
C273 H260 0.929 . S
C273 C265 1.433 1_655 S
C273 N275 1.384 . S
N274 C270 1.426 1_455 S
N274 C271 1.384 . S
N275 C267 1.428 . S
N275 C273 1.384 . S
H276 C282 0.930 . S
H277 C286 0.930 . S
H278 C291 0.929 . S
H279 C289 0.929 . S
H280 C284 0.929 . S
H281 C290 0.929 . S
C282 H276 0.930 . S
C282 C283 1.367 . S
C282 C290 1.378 . S
C283 C282 1.367 . S
C283 C291 1.433 1_545 S
C284 H280 0.929 . S
C284 C286 1.378 . S
C284 C288 1.361 . S
C285 C288 1.462 1_545 S
C285 C290 1.350 . S
C285 N293 1.427 1_545 S
C286 H277 0.930 . S
C286 C284 1.378 . S
C286 C287 1.365 1_565 S
C287 C286 1.365 1_545 S
C287 C289 1.435 . S
C288 C284 1.361 . S
C288 C285 1.462 1_565 S
C288 N292 1.417 1_565 S
C289 H279 0.929 . S
C289 C287 1.435 . S
C289 N292 1.384 . S
C290 H281 0.929 . S
C290 C282 1.378 . S
C290 C285 1.350 . S
C291 H278 0.929 . S
C291 C283 1.433 1_565 S
C291 N293 1.384 . S
N292 C288 1.417 1_545 S
N292 C289 1.384 . S
N293 C285 1.427 1_565 S
N293 C291 1.384 . S
H294 C300 0.930 . S
H295 C304 0.930 . S
H296 C309 0.929 . S
H297 C307 0.929 . S
H298 C302 0.929 . S
H299 C308 0.929 . S
C300 H294 0.930 . S
C300 C301 1.380 . S
C300 C308 1.378 . S
C301 C300 1.380 . S
C301 C309 1.420 1_455 S
C302 H298 0.929 . S
C302 C304 1.378 . S
C302 C306 1.350 . S
C303 C306 1.462 1_455 S
C303 C308 1.363 . S
C303 N311 1.414 1_455 S
C304 H295 0.930 . S
C304 C302 1.378 . S
C304 C305 1.367 . S
C305 C304 1.367 . S
C305 C307 1.433 1_655 S
C306 C302 1.350 . S
C306 C303 1.462 1_655 S
C306 N310 1.427 1_655 S
C307 H297 0.929 . S
C307 C305 1.433 1_455 S
C307 N310 1.384 . S
C308 H299 0.929 . S
C308 C300 1.378 . S
C308 C303 1.363 . S
C309 H296 0.929 . S
C309 C301 1.420 1_655 S
C309 N311 1.384 . S
N310 C306 1.427 1_455 S
N310 C307 1.384 . S
N311 C303 1.414 1_655 S
N311 C309 1.384 . S
H312 C318 0.930 . S
H313 C322 0.930 . S
H314 C327 0.929 . S
H315 C325 0.929 . S
H316 C320 0.929 . S
H317 C326 0.929 . S
C318 H312 0.930 . S
C318 C319 1.376 . S
C318 C326 1.378 . S
C319 C318 1.376 . S
C319 C327 1.424 1_565 S
C320 H316 0.929 . S
C320 C322 1.378 . S
C320 C324 1.356 . S
C321 C324 1.462 1_565 S
C321 C326 1.350 . S
C321 N329 1.427 1_565 S
C322 H313 0.930 . S
C322 C320 1.378 . S
C322 C323 1.365 1_545 S
C323 C322 1.365 1_565 S
C323 C325 1.435 . S
C324 C320 1.356 . S
C324 C321 1.462 1_545 S
C324 N328 1.421 1_545 S
C325 H315 0.929 . S
C325 C323 1.435 . S
C325 N328 1.384 . S
C326 H317 0.929 . S
C326 C318 1.378 . S
C326 C321 1.350 . S
C327 H314 0.929 . S
C327 C319 1.424 1_545 S
C327 N329 1.384 . S
N328 C324 1.421 1_565 S
N328 C325 1.384 . S
N329 C321 1.427 1_545 S
N329 C327 1.384 . S
H330 C336 0.930 . S
H331 C340 0.930 . S
H332 C345 0.929 . S
H333 C343 0.929 . S
H334 C338 0.929 . S
H335 C344 0.929 . S
C336 H330 0.930 . S
C336 C337 1.377 . S
C336 C344 1.378 . S
C337 C336 1.377 . S
C337 C345 1.423 1_655 S
C338 H334 0.929 . S
C338 C340 1.378 . S
C338 C342 1.350 . S
C339 C342 1.462 1_655 S
C339 C344 1.361 . S
C339 N347 1.416 1_655 S
C340 H331 0.930 . S
C340 C338 1.378 . S
C340 C341 1.367 . S
C341 C340 1.367 . S
C341 C343 1.433 1_455 S
C342 C338 1.350 . S
C342 C339 1.462 1_455 S
C342 N346 1.427 1_455 S
C343 H333 0.929 . S
C343 C341 1.433 1_655 S
C343 N346 1.384 . S
C344 H335 0.929 . S
C344 C336 1.378 . S
C344 C339 1.361 . S
C345 H332 0.929 . S
C345 C337 1.423 1_455 S
C345 N347 1.384 . S
N346 C342 1.427 1_655 S
N346 C343 1.384 . S
N347 C339 1.416 1_455 S
N347 C345 1.384 . S
C215 C77 1.460 1_565 S
C211 C13 1.455 1_545 S
C233 C165 1.457 . S
C229 C15 1.458 . S
C251 C85 1.458 . S
C247 C1 1.457 . S
C269 C173 1.460 1_655 S
C265 C27 1.460 1_455 S
C287 C145 1.458 . S
C283 C0 1.460 1_545 S
C305 C48 1.459 1_655 S
C301 C26 1.458 . S
C323 C136 1.457 1_565 S
C319 C12 1.463 1_565 S
C337 C14 1.460 . S
C341 C57 1.460 . S
