# Generated by pormake.
# Topology gar, (4,6)-cn, num edge types: 1
# Building blocks:
#     Node 0, Type 0, BuildingBlock: NAHDIM_clean_sbu_0, # of connection points: 4
#     Node 1, Type 0, BuildingBlock: NAHDIM_clean_sbu_0, # of connection points: 4
#     Node 2, Type 0, BuildingBlock: NAHDIM_clean_sbu_0, # of connection points: 4
#     Node 3, Type 0, BuildingBlock: NAHDIM_clean_sbu_0, # of connection points: 4
#     Node 4, Type 0, BuildingBlock: NAHDIM_clean_sbu_0, # of connection points: 4
#     Node 5, Type 0, BuildingBlock: NAHDIM_clean_sbu_0, # of connection points: 4
#     Node 6, Type 0, BuildingBlock: NAHDIM_clean_sbu_0, # of connection points: 4
#     Node 7, Type 0, BuildingBlock: NAHDIM_clean_sbu_0, # of connection points: 4
#     Node 8, Type 0, BuildingBlock: NAHDIM_clean_sbu_0, # of connection points: 4
#     Node 9, Type 0, BuildingBlock: NAHDIM_clean_sbu_0, # of connection points: 4
#     Node 10, Type 0, BuildingBlock: NAHDIM_clean_sbu_0, # of connection points: 4
#     Node 11, Type 0, BuildingBlock: NAHDIM_clean_sbu_0, # of connection points: 4
#     Node 12, Type 0, BuildingBlock: NAHDIM_clean_sbu_0, # of connection points: 4
#     Node 13, Type 0, BuildingBlock: NAHDIM_clean_sbu_0, # of connection points: 4
#     Node 14, Type 0, BuildingBlock: NAHDIM_clean_sbu_0, # of connection points: 4
#     Node 15, Type 0, BuildingBlock: NAHDIM_clean_sbu_0, # of connection points: 4
#     Node 16, Type 0, BuildingBlock: NAHDIM_clean_sbu_0, # of connection points: 4
#     Node 17, Type 0, BuildingBlock: NAHDIM_clean_sbu_0, # of connection points: 4
#     Node 18, Type 0, BuildingBlock: NAHDIM_clean_sbu_0, # of connection points: 4
#     Node 19, Type 0, BuildingBlock: NAHDIM_clean_sbu_0, # of connection points: 4
#     Node 20, Type 0, BuildingBlock: NAHDIM_clean_sbu_0, # of connection points: 4
#     Node 21, Type 0, BuildingBlock: NAHDIM_clean_sbu_0, # of connection points: 4
#     Node 22, Type 0, BuildingBlock: NAHDIM_clean_sbu_0, # of connection points: 4
#     Node 23, Type 0, BuildingBlock: NAHDIM_clean_sbu_0, # of connection points: 4
#     Node 24, Type 1, BuildingBlock: BETDIP_clean_sbu_0, # of connection points: 6
#     Node 25, Type 1, BuildingBlock: BETDIP_clean_sbu_0, # of connection points: 6
#     Node 26, Type 1, BuildingBlock: BETDIP_clean_sbu_0, # of connection points: 6
#     Node 27, Type 1, BuildingBlock: BETDIP_clean_sbu_0, # of connection points: 6
#     Node 28, Type 1, BuildingBlock: BETDIP_clean_sbu_0, # of connection points: 6
#     Node 29, Type 1, BuildingBlock: BETDIP_clean_sbu_0, # of connection points: 6
#     Node 30, Type 1, BuildingBlock: BETDIP_clean_sbu_0, # of connection points: 6
#     Node 31, Type 1, BuildingBlock: BETDIP_clean_sbu_0, # of connection points: 6
#     Node 32, Type 1, BuildingBlock: BETDIP_clean_sbu_0, # of connection points: 6
#     Node 33, Type 1, BuildingBlock: BETDIP_clean_sbu_0, # of connection points: 6
#     Node 34, Type 1, BuildingBlock: BETDIP_clean_sbu_0, # of connection points: 6
#     Node 35, Type 1, BuildingBlock: BETDIP_clean_sbu_0, # of connection points: 6
#     Node 36, Type 1, BuildingBlock: BETDIP_clean_sbu_0, # of connection points: 6
#     Node 37, Type 1, BuildingBlock: BETDIP_clean_sbu_0, # of connection points: 6
#     Node 38, Type 1, BuildingBlock: BETDIP_clean_sbu_0, # of connection points: 6
#     Node 39, Type 1, BuildingBlock: BETDIP_clean_sbu_0, # of connection points: 6
#     Edge 40, Type (0, 1), BuildingBlock: XUDNAN_clean_linker_2, # of connection points: 2
#     Edge 41, Type (0, 1), BuildingBlock: XUDNAN_clean_linker_2, # of connection points: 2
#     Edge 42, Type (0, 1), BuildingBlock: XUDNAN_clean_linker_2, # of connection points: 2
#     Edge 43, Type (0, 1), BuildingBlock: XUDNAN_clean_linker_2, # of connection points: 2
#     Edge 44, Type (0, 1), BuildingBlock: XUDNAN_clean_linker_2, # of connection points: 2
#     Edge 45, Type (0, 1), BuildingBlock: XUDNAN_clean_linker_2, # of connection points: 2
#     Edge 46, Type (0, 1), BuildingBlock: XUDNAN_clean_linker_2, # of connection points: 2
#     Edge 47, Type (0, 1), BuildingBlock: XUDNAN_clean_linker_2, # of connection points: 2
#     Edge 48, Type (0, 1), BuildingBlock: XUDNAN_clean_linker_2, # of connection points: 2
#     Edge 49, Type (0, 1), BuildingBlock: XUDNAN_clean_linker_2, # of connection points: 2
#     Edge 50, Type (0, 1), BuildingBlock: XUDNAN_clean_linker_2, # of connection points: 2
#     Edge 51, Type (0, 1), BuildingBlock: XUDNAN_clean_linker_2, # of connection points: 2
#     Edge 52, Type (0, 1), BuildingBlock: XUDNAN_clean_linker_2, # of connection points: 2
#     Edge 53, Type (0, 1), BuildingBlock: XUDNAN_clean_linker_2, # of connection points: 2
#     Edge 54, Type (0, 1), BuildingBlock: XUDNAN_clean_linker_2, # of connection points: 2
#     Edge 55, Type (0, 1), BuildingBlock: XUDNAN_clean_linker_2, # of connection points: 2
#     Edge 56, Type (0, 1), BuildingBlock: XUDNAN_clean_linker_2, # of connection points: 2
#     Edge 57, Type (0, 1), BuildingBlock: XUDNAN_clean_linker_2, # of connection points: 2
#     Edge 58, Type (0, 1), BuildingBlock: XUDNAN_clean_linker_2, # of connection points: 2
#     Edge 59, Type (0, 1), BuildingBlock: XUDNAN_clean_linker_2, # of connection points: 2
#     Edge 60, Type (0, 1), BuildingBlock: XUDNAN_clean_linker_2, # of connection points: 2
#     Edge 61, Type (0, 1), BuildingBlock: XUDNAN_clean_linker_2, # of connection points: 2
#     Edge 62, Type (0, 1), BuildingBlock: XUDNAN_clean_linker_2, # of connection points: 2
#     Edge 63, Type (0, 1), BuildingBlock: XUDNAN_clean_linker_2, # of connection points: 2
#     Edge 64, Type (0, 1), BuildingBlock: XUDNAN_clean_linker_2, # of connection points: 2
#     Edge 65, Type (0, 1), BuildingBlock: XUDNAN_clean_linker_2, # of connection points: 2
#     Edge 66, Type (0, 1), BuildingBlock: XUDNAN_clean_linker_2, # of connection points: 2
#     Edge 67, Type (0, 1), BuildingBlock: XUDNAN_clean_linker_2, # of connection points: 2
#     Edge 68, Type (0, 1), BuildingBlock: XUDNAN_clean_linker_2, # of connection points: 2
#     Edge 69, Type (0, 1), BuildingBlock: XUDNAN_clean_linker_2, # of connection points: 2
#     Edge 70, Type (0, 1), BuildingBlock: XUDNAN_clean_linker_2, # of connection points: 2
#     Edge 71, Type (0, 1), BuildingBlock: XUDNAN_clean_linker_2, # of connection points: 2
#     Edge 72, Type (0, 1), BuildingBlock: XUDNAN_clean_linker_2, # of connection points: 2
#     Edge 73, Type (0, 1), BuildingBlock: XUDNAN_clean_linker_2, # of connection points: 2
#     Edge 74, Type (0, 1), BuildingBlock: XUDNAN_clean_linker_2, # of connection points: 2
#     Edge 75, Type (0, 1), BuildingBlock: XUDNAN_clean_linker_2, # of connection points: 2
#     Edge 76, Type (0, 1), BuildingBlock: XUDNAN_clean_linker_2, # of connection points: 2
#     Edge 77, Type (0, 1), BuildingBlock: XUDNAN_clean_linker_2, # of connection points: 2
#     Edge 78, Type (0, 1), BuildingBlock: XUDNAN_clean_linker_2, # of connection points: 2
#     Edge 79, Type (0, 1), BuildingBlock: XUDNAN_clean_linker_2, # of connection points: 2
#     Edge 80, Type (0, 1), BuildingBlock: XUDNAN_clean_linker_2, # of connection points: 2
#     Edge 81, Type (0, 1), BuildingBlock: XUDNAN_clean_linker_2, # of connection points: 2
#     Edge 82, Type (0, 1), BuildingBlock: XUDNAN_clean_linker_2, # of connection points: 2
#     Edge 83, Type (0, 1), BuildingBlock: XUDNAN_clean_linker_2, # of connection points: 2
#     Edge 84, Type (0, 1), BuildingBlock: XUDNAN_clean_linker_2, # of connection points: 2
#     Edge 85, Type (0, 1), BuildingBlock: XUDNAN_clean_linker_2, # of connection points: 2
#     Edge 86, Type (0, 1), BuildingBlock: XUDNAN_clean_linker_2, # of connection points: 2
#     Edge 87, Type (0, 1), BuildingBlock: XUDNAN_clean_linker_2, # of connection points: 2
#     Edge 88, Type (0, 1), BuildingBlock: XUDNAN_clean_linker_2, # of connection points: 2
#     Edge 89, Type (0, 1), BuildingBlock: XUDNAN_clean_linker_2, # of connection points: 2
#     Edge 90, Type (0, 1), BuildingBlock: XUDNAN_clean_linker_2, # of connection points: 2
#     Edge 91, Type (0, 1), BuildingBlock: XUDNAN_clean_linker_2, # of connection points: 2
#     Edge 92, Type (0, 1), BuildingBlock: XUDNAN_clean_linker_2, # of connection points: 2
#     Edge 93, Type (0, 1), BuildingBlock: XUDNAN_clean_linker_2, # of connection points: 2
#     Edge 94, Type (0, 1), BuildingBlock: XUDNAN_clean_linker_2, # of connection points: 2
#     Edge 95, Type (0, 1), BuildingBlock: XUDNAN_clean_linker_2, # of connection points: 2
#     Edge 96, Type (0, 1), BuildingBlock: XUDNAN_clean_linker_2, # of connection points: 2
#     Edge 97, Type (0, 1), BuildingBlock: XUDNAN_clean_linker_2, # of connection points: 2
#     Edge 98, Type (0, 1), BuildingBlock: XUDNAN_clean_linker_2, # of connection points: 2
#     Edge 99, Type (0, 1), BuildingBlock: XUDNAN_clean_linker_2, # of connection points: 2
#     Edge 100, Type (0, 1), BuildingBlock: XUDNAN_clean_linker_2, # of connection points: 2
#     Edge 101, Type (0, 1), BuildingBlock: XUDNAN_clean_linker_2, # of connection points: 2
#     Edge 102, Type (0, 1), BuildingBlock: XUDNAN_clean_linker_2, # of connection points: 2
#     Edge 103, Type (0, 1), BuildingBlock: XUDNAN_clean_linker_2, # of connection points: 2
#     Edge 104, Type (0, 1), BuildingBlock: XUDNAN_clean_linker_2, # of connection points: 2
#     Edge 105, Type (0, 1), BuildingBlock: XUDNAN_clean_linker_2, # of connection points: 2
#     Edge 106, Type (0, 1), BuildingBlock: XUDNAN_clean_linker_2, # of connection points: 2
#     Edge 107, Type (0, 1), BuildingBlock: XUDNAN_clean_linker_2, # of connection points: 2
#     Edge 108, Type (0, 1), BuildingBlock: XUDNAN_clean_linker_2, # of connection points: 2
#     Edge 109, Type (0, 1), BuildingBlock: XUDNAN_clean_linker_2, # of connection points: 2
#     Edge 110, Type (0, 1), BuildingBlock: XUDNAN_clean_linker_2, # of connection points: 2
#     Edge 111, Type (0, 1), BuildingBlock: XUDNAN_clean_linker_2, # of connection points: 2
#     Edge 112, Type (0, 1), BuildingBlock: XUDNAN_clean_linker_2, # of connection points: 2
#     Edge 113, Type (0, 1), BuildingBlock: XUDNAN_clean_linker_2, # of connection points: 2
#     Edge 114, Type (0, 1), BuildingBlock: XUDNAN_clean_linker_2, # of connection points: 2
#     Edge 115, Type (0, 1), BuildingBlock: XUDNAN_clean_linker_2, # of connection points: 2
#     Edge 116, Type (0, 1), BuildingBlock: XUDNAN_clean_linker_2, # of connection points: 2
#     Edge 117, Type (0, 1), BuildingBlock: XUDNAN_clean_linker_2, # of connection points: 2
#     Edge 118, Type (0, 1), BuildingBlock: XUDNAN_clean_linker_2, # of connection points: 2
#     Edge 119, Type (0, 1), BuildingBlock: XUDNAN_clean_linker_2, # of connection points: 2
#     Edge 120, Type (0, 1), BuildingBlock: XUDNAN_clean_linker_2, # of connection points: 2
#     Edge 121, Type (0, 1), BuildingBlock: XUDNAN_clean_linker_2, # of connection points: 2
#     Edge 122, Type (0, 1), BuildingBlock: XUDNAN_clean_linker_2, # of connection points: 2
#     Edge 123, Type (0, 1), BuildingBlock: XUDNAN_clean_linker_2, # of connection points: 2
#     Edge 124, Type (0, 1), BuildingBlock: XUDNAN_clean_linker_2, # of connection points: 2
#     Edge 125, Type (0, 1), BuildingBlock: XUDNAN_clean_linker_2, # of connection points: 2
#     Edge 126, Type (0, 1), BuildingBlock: XUDNAN_clean_linker_2, # of connection points: 2
#     Edge 127, Type (0, 1), BuildingBlock: XUDNAN_clean_linker_2, # of connection points: 2
#     Edge 128, Type (0, 1), BuildingBlock: XUDNAN_clean_linker_2, # of connection points: 2
#     Edge 129, Type (0, 1), BuildingBlock: XUDNAN_clean_linker_2, # of connection points: 2
#     Edge 130, Type (0, 1), BuildingBlock: XUDNAN_clean_linker_2, # of connection points: 2
#     Edge 131, Type (0, 1), BuildingBlock: XUDNAN_clean_linker_2, # of connection points: 2
#     Edge 132, Type (0, 1), BuildingBlock: XUDNAN_clean_linker_2, # of connection points: 2
#     Edge 133, Type (0, 1), BuildingBlock: XUDNAN_clean_linker_2, # of connection points: 2
#     Edge 134, Type (0, 1), BuildingBlock: XUDNAN_clean_linker_2, # of connection points: 2
#     Edge 135, Type (0, 1), BuildingBlock: XUDNAN_clean_linker_2, # of connection points: 2
# Relax obj value: 0.196
# Max RMSD: 0.304
# Mean RMSD: 0.171
data_MOF--net-gar--node1-NAHDIM_clean_sbu_0--node2-BETDIP_clean_sbu_0--edge1-XUDNAN_clean_linker_2
_symmetry_space_group_name_H-M    P1
_symmetry_Int_Tables_number       1
_symmetry_cell_setting            triclinic
loop_
_symmetry_equiv_pos_as_xyz
'x, y, z'
_cell_length_a     64.43088
_cell_length_b     57.056939
_cell_length_c     53.840221
_cell_angle_alpha  97.506654
_cell_angle_beta   99.405774
_cell_angle_gamma 101.44391
loop_
_atom_site_label
_atom_site_type_symbol
_atom_site_fract_x
_atom_site_fract_y
_atom_site_fract_z
_atom_type_partial_charge
C0 C 0.07378 0.32533 0.36604 0.0
O1 O 0.07322 0.34715 0.37684 0.0
O2 O 0.04884 0.27834 0.41771 0.0
Zn3 Zn 0.04556 0.30677 0.40047 0.0
O4 O 0.05569 0.33615 0.42799 0.0
C5 C 1.00111 0.28938 0.36988 0.0
O6 O 1.00733 0.2706 0.35917 0.0
O7 O 0.06314 0.30688 0.37292 0.0
C8 C 0.04772 0.35465 0.42618 0.0
O9 O 0.0349 0.35546 0.40481 0.0
C10 C 0.06812 0.27763 0.42697 0.0
O11 O 0.08405 0.29466 0.42389 0.0
O12 O 1.01449 0.30538 0.38665 0.0
C13 C 0.02273 0.73921 0.73358 0.0
O14 O 0.02166 0.71824 0.71947 0.0
O15 O 0.05738 0.72328 0.6916 0.0
Zn16 Zn 0.06402 0.75336 0.71839 0.0
O17 O 0.06997 0.78154 0.70004 0.0
C18 C 0.1037 0.74164 0.73998 0.0
O19 O 0.09823 0.72444 0.71981 0.0
O20 O 0.03927 0.75627 0.73591 0.0
C21 C 0.08739 0.78661 0.6917 0.0
O22 O 0.10215 0.77402 0.69645 0.0
C23 C 0.04811 0.72435 0.66917 0.0
O24 O 0.04163 0.74413 0.66485 0.0
O25 O 0.09088 0.75534 0.744 0.0
C26 C 0.58187 0.85438 0.88721 0.0
O27 O 0.57999 0.86639 0.90896 0.0
O28 O 0.54968 0.79473 0.90772 0.0
Zn29 Zn 0.54253 0.82314 0.89254 0.0
O30 O 0.53866 0.84801 0.92049 0.0
C31 C 0.50354 0.82655 0.86136 0.0
O32 O 0.51044 0.84955 0.87174 0.0
O33 O 0.5669 0.83632 0.87589 0.0
C34 C 0.53272 0.84192 0.94057 0.0
O35 O 0.52897 0.81896 0.94309 0.0
C36 C 0.56839 0.7961 0.9206 0.0
O37 O 0.58317 0.81629 0.92372 0.0
O38 O 0.51507 0.81166 0.86696 0.0
C39 C 0.53166 0.26078 0.23402 0.0
O40 O 0.52808 0.26428 0.21019 0.0
O41 O 0.55924 0.22844 0.18852 0.0
Zn42 Zn 0.57021 0.2556 0.21883 0.0
O43 O 0.57383 0.2874 0.20591 0.0
C44 C 0.60522 0.23225 0.23065 0.0
O45 O 0.59071 0.21294 0.21833 0.0
O46 O 0.5494 0.2556 0.24294 0.0
C47 C 0.59177 0.30264 0.20919 0.0
O48 O 0.60913 0.29831 0.22258 0.0
C49 C 0.56275 0.2319 0.16656 0.0
O50 O 0.57168 0.25379 0.16336 0.0
O51 O 0.59955 0.25221 0.23528 0.0
C52 C 0.04507 0.8044 0.18288 0.0
O53 O 0.03729 0.80282 0.15844 0.0
O54 O 0.0762 0.77189 0.14181 0.0
Zn55 Zn 0.08472 0.80598 0.16336 0.0
O56 O 0.07904 0.83192 0.1409 0.0
C57 C 0.12337 0.80456 0.20118 0.0
O58 O 0.10891 0.79743 0.21485 0.0
O59 O 0.06531 0.80626 0.19008 0.0
C60 C 0.08919 0.85413 0.14454 0.0
O61 O 0.10568 0.86197 0.16369 0.0
C62 C 0.08869 0.76619 0.12716 0.0
O63 O 0.10539 0.78291 0.12539 0.0
O64 O 0.11706 0.81041 0.17958 0.0
C65 C 0.56856 0.77638 0.43676 0.0
O66 O 0.56895 0.78237 0.46127 0.0
O67 O 0.51864 0.73442 0.45559 0.0
Zn68 Zn 0.52307 0.76583 0.439 0.0
O69 O 0.52763 0.79596 0.46669 0.0
C70 C 0.47852 0.7523 0.40245 0.0
O71 O 0.47865 0.72923 0.40165 0.0
O72 O 0.55017 0.76858 0.42186 0.0
C73 C 0.53589 0.81711 0.46284 0.0
O74 O 0.54303 0.81933 0.44157 0.0
C75 C 0.5332 0.72237 0.46024 0.0
O76 O 0.55191 0.72958 0.45377 0.0
O77 O 0.49492 0.7683 0.41513 0.0
C78 C 0.54014 0.29909 0.68744 0.0
O79 O 0.53276 0.29514 0.66267 0.0
O80 O 0.57779 0.27237 0.64813 0.0
Zn81 Zn 0.58207 0.30555 0.67072 0.0
O82 O 0.57644 0.3311 0.64763 0.0
C83 C 0.61991 0.30398 0.70953 0.0
O84 O 0.60499 0.29246 0.72032 0.0
O85 O 0.56056 0.3038 0.69557 0.0
C86 C 0.5868 0.35311 0.64999 0.0
O87 O 0.60351 0.36156 0.66879 0.0
C88 C 0.56743 0.25208 0.65192 0.0
O89 O 0.55707 0.25163 0.67099 0.0
O90 O 0.61403 0.31243 0.68935 0.0
C91 C 0.05867 0.26731 0.92595 0.0
O92 O 0.06562 0.26955 0.95067 0.0
O93 O 0.02248 0.24395 0.96837 0.0
Zn94 Zn 0.01762 0.26763 0.9429 0.0
O95 O 0.0259 0.30337 0.96045 0.0
C96 C 0.97219 0.26868 0.93645 0.0
O97 O 0.97847 0.27535 0.96126 0.0
O98 O 0.03853 0.26541 0.91769 0.0
C99 C 0.02313 0.31419 0.98155 0.0
O100 O 1.01446 0.30144 0.99739 0.0
C101 C 1.01292 0.22158 0.96519 0.0
O102 O 0.99767 0.21249 0.94491 0.0
O103 O 0.98576 0.26228 0.92365 0.0
C104 C 0.38572 0.09301 0.29332 0.0
O105 O 0.36935 0.07412 0.28772 0.0
O106 O 0.43609 0.05259 0.25979 0.0
Zn107 Zn 0.41974 0.055 0.29381 0.0
O108 O 0.43996 0.05373 0.33084 0.0
C109 C 0.39485 1.00463 0.30338 0.0
O110 O 0.40719 1.01129 0.32619 0.0
O111 O 0.40513 0.08882 0.29624 0.0
C112 C 0.45897 0.0636 0.34434 0.0
O113 O 0.47172 0.07988 0.33525 0.0
C114 C 0.4557 0.05588 0.25561 0.0
O115 O 0.47167 0.06291 0.27545 0.0
O116 O 0.39627 0.01986 0.28752 0.0
C117 C 0.31014 0.14146 0.53578 0.0
O118 O 0.31442 0.1583 0.52171 0.0
O119 O 0.27201 0.18445 0.566 0.0
Zn120 Zn 0.2683 0.1573 0.53562 0.0
O121 O 0.26968 0.17148 0.50205 0.0
C122 C 0.2224 0.14571 0.53625 0.0
O123 O 0.22629 0.16944 0.53816 0.0
O124 O 0.29201 0.13789 0.54303 0.0
C125 C 0.27666 0.19382 0.50078 0.0
O126 O 0.28366 0.20953 0.52209 0.0
C127 C 0.28653 0.1884 0.58616 0.0
O128 O 0.30126 0.17541 0.58743 0.0
O129 O 0.23796 0.1353 0.53391 0.0
C130 C 0.19665 0.03216 0.83707 0.0
O131 O 0.20202 0.0448 0.81945 0.0
O132 O 0.14538 0.05083 0.80412 0.0
Zn133 Zn 0.16177 0.059 0.84099 0.0
O134 O 0.14123 0.05282 0.86546 0.0
C135 C 0.17188 0.10922 0.83641 0.0
O136 O 0.15164 0.10319 0.82437 0.0
O137 O 0.18102 0.03574 0.84756 0.0
C138 C 0.14181 0.06545 0.88697 0.0
O139 O 0.15555 0.08655 0.89416 0.0
C140 C 0.13979 0.02919 0.792 0.0
O141 O 0.14433 1.01155 0.80382 0.0
O142 O 0.1799 0.09339 0.84679 0.0
C143 C 0.19869 0.89516 0.9548 0.0
O144 O 0.19444 0.87142 0.94861 0.0
O145 O 0.2343 0.88227 0.01952 0.0
Zn146 Zn 0.23993 0.89291 0.98683 0.0
O147 O 0.24534 0.86474 0.96499 0.0
C148 C 0.27348 0.93368 0.01513 0.0
O149 O 0.26157 0.93277 0.03275 0.0
O150 O 0.21615 0.90628 0.9699 0.0
C151 C 0.2616 0.85736 0.97496 0.0
O152 O 0.27233 0.8681 0.99784 0.0
C153 C 0.2197 0.86374 0.01964 0.0
O154 O 0.20684 0.85262 0.99803 0.0
O155 O 0.26712 0.9188 0.99427 0.0
C156 C 0.28338 0.41211 0.0875 0.0
O157 O 0.28163 0.38929 0.0902 0.0
O158 O 0.3271 0.38427 0.11107 0.0
Zn159 Zn 0.32586 0.4054 0.08251 0.0
O160 O 0.31876 0.3829 0.04754 0.0
C161 C 0.37038 0.41793 0.07739 0.0
O162 O 0.36603 0.39413 0.07257 0.0
O163 O 0.30138 0.4239 0.08401 0.0
C164 C 0.32232 0.3616 0.04525 0.0
O165 O 0.32947 0.35338 0.06593 0.0
C166 C 0.3239 0.38946 0.13375 0.0
O167 O 0.32 0.41077 0.14111 0.0
O168 O 0.35575 0.42827 0.08384 0.0
C169 C 0.84239 0.16397 0.04244 0.0
O170 O 0.84587 0.17417 0.06652 0.0
O171 O 0.80866 0.1896 0.07704 0.0
Zn172 Zn 0.79949 0.16053 0.04909 0.0
O173 O 0.77331 0.16484 0.02625 0.0
C174 C 0.79873 0.12812 0.08652 0.0
O175 O 0.81383 0.14563 0.10119 0.0
O176 O 0.82312 0.1571 0.03003 0.0
C177 C 0.75781 0.16962 0.0364 0.0
O178 O 0.75883 0.16946 0.06095 0.0
C179 C 0.8062 0.21032 0.07262 0.0
O180 O 0.79874 0.21299 0.0492 0.0
O181 O 0.79107 0.1307 0.06401 0.0
C182 C 0.21339 0.47436 0.32202 0.0
O183 O 0.22943 0.49249 0.32171 0.0
O184 O 0.16126 0.51071 0.28291 0.0
Zn185 Zn 0.17994 0.51342 0.32199 0.0
O186 O 0.15872 0.51622 0.3519 0.0
C187 C 0.20176 0.56996 0.32934 0.0
O188 O 0.18431 0.57358 0.33742 0.0
O189 O 0.19443 0.4793 0.32245 0.0
C190 C 0.1626 0.52251 0.37672 0.0
O191 O 0.18288 0.52908 0.38854 0.0
C192 C 0.14483 0.51935 0.2745 0.0
O193 O 0.13593 0.53056 0.29135 0.0
O194 O 0.20369 0.54776 0.3239 0.0
C195 C 0.78845 0.92021 0.56627 0.0
O196 O 0.78685 0.90768 0.5435 0.0
O197 O 0.82564 0.87546 0.60672 0.0
Zn198 Zn 0.82588 0.89801 0.57966 0.0
O199 O 0.81695 0.87622 0.54469 0.0
C200 C 0.87108 0.9329 0.59528 0.0
O201 O 0.86682 0.94074 0.61752 0.0
O202 O 0.80396 0.91951 0.58409 0.0
C203 C 0.82902 0.8615 0.54085 0.0
O204 O 0.84472 0.86098 0.55959 0.0
C205 C 0.82615 0.88163 0.6305 0.0
O206 O 0.82767 0.90455 0.6396 0.0
O207 O 0.85676 0.91691 0.57924 0.0
C208 C 0.92808 0.03287 0.26596 0.0
O209 O 0.94083 0.03502 0.24931 0.0
O210 O 0.97019 1.00562 0.25608 0.0
Zn211 Zn 0.95115 0.99634 0.28148 0.0
O212 O 0.96973 1.0048 0.31707 0.0
C213 C 0.93263 0.94575 0.28746 0.0
O214 O 0.94649 0.95053 0.30924 0.0
O215 O 0.92976 0.01778 0.28118 0.0
C216 C 0.96146 1.0043 0.33694 0.0
O217 O 0.94048 0.99669 0.33445 0.0
C218 C 0.96746 0.99686 0.23249 0.0
O219 O 0.95138 0.97825 0.22238 0.0
O220 O 0.93304 0.96159 0.2728 0.0
C221 C 0.34731 0.66773 0.55454 0.0
O222 O 0.33198 0.66046 0.53405 0.0
O223 O 0.31035 0.70209 0.60531 0.0
Zn224 Zn 0.31234 0.67462 0.57964 0.0
O225 O 0.29217 0.67584 0.54788 0.0
C226 C 0.29704 0.62369 0.57635 0.0
O227 O 0.29937 0.62359 0.55255 0.0
O228 O 0.34261 0.67616 0.57538 0.0
C229 C 0.27341 0.6781 0.55073 0.0
O230 O 0.26834 0.67796 0.57339 0.0
C231 C 0.31179 0.7236 0.60076 0.0
O232 O 0.31691 0.72899 0.57923 0.0
O233 O 0.30191 0.64368 0.59173 0.0
C234 C 0.41348 0.53336 0.75656 0.0
O235 O 0.41834 0.52863 0.73394 0.0
O236 O 0.45796 0.51114 0.74315 0.0
Zn237 Zn 0.44182 0.50153 0.77089 0.0
O238 O 0.46317 0.50914 0.80452 0.0
C239 C 0.43294 0.44969 0.77201 0.0
O240 O 0.45388 0.45428 0.78057 0.0
O241 O 0.4213 0.52348 0.77465 0.0
C242 C 0.45862 0.50097 0.82432 0.0
O243 O 0.43974 0.48642 0.82287 0.0
C244 C 0.45717 0.4998 0.72094 0.0
O245 O 0.44488 0.47786 0.71356 0.0
O246 O 0.42452 0.4667 0.76496 0.0
C247 C 0.69736 0.96409 0.81932 0.0
O248 O 0.67739 0.95301 0.80872 0.0
O249 O 0.66206 1.01308 0.78524 0.0
Zn250 Zn 0.68037 0.01627 0.82469 0.0
O251 O 0.65856 0.01489 0.85391 0.0
C252 C 0.70507 0.06709 0.81472 0.0
O253 O 0.69826 0.05748 0.7905 0.0
O254 O 0.70132 0.98764 0.82653 0.0
C255 C 0.66224 0.024 0.87816 0.0
O256 O 0.68197 0.03592 0.88881 0.0
C257 C 0.64459 0.02003 0.77706 0.0
O258 O 0.63466 0.02917 0.79414 0.0
O259 O 0.70036 0.05365 0.83157 0.0
C260 C 0.80845 0.64108 0.04105 0.0
O261 O 0.81433 0.66202 0.05655 0.0
O262 O 0.77364 0.67677 0.06698 0.0
Zn263 Zn 0.76651 0.65578 0.03143 0.0
O264 O 0.76679 0.67721 1.00294 0.0
C265 C 0.72091 0.64707 0.03198 0.0
O266 O 0.72634 0.67086 0.03494 0.0
O267 O 0.78896 0.63435 0.02867 0.0
C268 C 0.78278 0.68255 0.99185 0.0
O269 O 0.80014 0.6744 0.99887 0.0
C270 C 0.78537 0.69819 0.07265 0.0
O271 O 0.79401 0.70791 0.05486 0.0
O272 O 0.73549 0.63528 0.02899 0.0
C273 C 0.90452 0.61142 0.80404 0.0
O274 O 0.92368 0.62135 0.81812 0.0
O275 O 0.93487 0.5541 0.75829 0.0
Zn276 Zn 0.9208 0.55895 0.79436 0.0
O277 O 0.94544 0.56518 0.8299 0.0
C278 C 0.89765 0.5021 0.78557 0.0
O279 O 0.90895 0.49845 0.7678 0.0
O280 O 0.90092 0.58851 0.79385 0.0
C281 C 0.94472 0.55262 0.84832 0.0
O282 O 0.92785 0.5347 0.84606 0.0
C283 C 0.9543 0.55852 0.75337 0.0
O284 O 0.9704 0.56816 0.77261 0.0
O285 O 0.89969 0.52414 0.79687 0.0
C286 C 0.70962 0.37604 0.48596 0.0
O287 O 0.71511 0.36265 0.50291 0.0
O288 O 0.76132 0.37348 0.51484 0.0
Zn289 Zn 0.75307 0.37919 0.47905 0.0
O290 O 0.75779 0.3518 0.4555 0.0
C291 C 0.77156 0.43084 0.48029 0.0
O292 O 0.75463 0.43521 0.48911 0.0
O293 O 0.7229 0.38372 0.47225 0.0
C294 C 0.75174 0.32937 0.45624 0.0
O295 O 0.73964 0.32232 0.47249 0.0
C296 C 0.76215 0.3891 0.5343 0.0
O297 O 0.75708 0.40985 0.53118 0.0
O298 O 0.77343 0.4091 0.47475 0.0
C299 C 0.68887 0.52584 0.33337 0.0
O300 O 0.70035 0.5432 0.35181 0.0
O301 O 0.63483 0.55769 0.30137 0.0
Zn302 Zn 0.65626 0.55504 0.33241 0.0
O303 O 0.64033 0.54541 0.36044 0.0
C304 C 0.68356 0.59926 0.3257 0.0
O305 O 0.67259 0.59185 0.30224 0.0
O306 O 0.67031 0.52759 0.32253 0.0
C307 C 0.63999 0.55773 0.38179 0.0
O308 O 0.65084 0.5804 0.38785 0.0
C309 C 0.62794 0.54059 0.2823 0.0
O310 O 0.6339 0.51994 0.2832 0.0
O311 O 0.67929 0.58661 0.34284 0.0
Tb312 Tb 0.02838 0.02855 0.04674 0.0
Tb313 Tb 0.07441 0.05172 0.07169 0.0
C314 C 0.98809 0.02093 0.03583 0.0
C315 C 0.97422 0.03801 0.03083 0.0
C316 C 0.98073 0.06214 0.04352 0.0
C317 C 0.96852 0.07892 0.03772 0.0
C318 C 0.94907 0.07183 0.01971 0.0
C319 C 0.9425 0.04757 1.00704 0.0
C320 C 0.95511 0.03084 0.01243 0.0
C321 C 0.05689 0.02524 0.01753 0.0
C322 C 0.04669 0.08644 0.05049 0.0
C323 C 0.11439 0.05932 0.0763 0.0
C324 C 0.12578 0.04352 0.06242 0.0
C325 C 0.13516 0.05153 0.04234 0.0
C326 C 0.13905 0.03484 0.02325 0.0
C327 C 0.13367 1.00991 0.02395 0.0
C328 C 0.12623 1.00213 0.04527 0.0
C329 C 0.12243 0.01878 0.06439 0.0
C330 C 0.04695 0.05391 0.10258 0.0
C331 C 0.05564 0.99384 0.06734 0.0
O332 O 0.99901 0.02427 0.05927 0.0
O333 O 0.99997 0.01724 0.01878 0.0
O334 O 0.05673 0.04313 0.03376 0.0
O335 O 0.03955 1.00847 0.01585 0.0
O336 O 0.03027 0.06726 0.0441 0.0
O337 O 0.06608 0.08479 0.06159 0.0
O338 O 0.10238 0.06972 0.06127 0.0
O339 O 0.10431 0.05046 0.09349 0.0
O340 O 0.04627 0.03679 0.08492 0.0
O341 O 0.06503 0.06982 0.10509 0.0
O342 O 0.07267 1.01208 0.06953 0.0
O343 O 0.03574 0.99666 0.06063 0.0
H344 H 0.99529 0.06816 0.05801 0.0
H345 H 0.97436 0.09748 0.04751 0.0
H346 H 0.92743 0.04134 0.99338 0.0
H347 H 0.94989 1.01231 1.00238 0.0
H348 H 0.13785 0.07049 0.04033 0.0
H349 H 0.14516 0.04129 1.00724 0.0
H350 H 0.12273 0.98306 0.04682 0.0
H351 H 0.11549 1.01198 0.07976 0.0
Tb352 Tb 0.30549 0.77226 0.2737 0.0
Tb353 Tb 0.30018 0.79103 0.32797 0.0
C354 C 0.30122 0.76323 0.22605 0.0
C355 C 0.2916 0.77375 0.20479 0.0
C356 C 0.28977 0.79799 0.20833 0.0
C357 C 0.27793 0.8068 0.18898 0.0
C358 C 0.26764 0.79144 0.16582 0.0
C359 C 0.26992 0.7673 0.16217 0.0
C360 C 0.2818 0.75854 0.18153 0.0
C361 C 0.33703 0.76926 0.31088 0.0
C362 C 0.31941 0.8301 0.29572 0.0
C363 C 0.30421 0.80057 0.37523 0.0
C364 C 0.28901 0.79137 0.39099 0.0
C365 C 0.29334 0.79931 0.4174 0.0
C366 C 0.27992 0.78817 0.43246 0.0
C367 C 0.26228 0.76886 0.42118 0.0
C368 C 0.25736 0.76188 0.39459 0.0
C369 C 0.27051 0.77326 0.37956 0.0
C370 C 0.26421 0.78909 0.294 0.0
C371 C 0.28335 0.7335 0.30505 0.0
O372 O 0.28725 0.75302 0.23874 0.0
O373 O 0.31895 0.77638 0.2411 0.0
O374 O 0.32677 0.78595 0.31003 0.0
O375 O 0.33085 0.75458 0.28921 0.0
O376 O 0.31275 0.81243 0.27536 0.0
O377 O 0.31821 0.82522 0.31903 0.0
O378 O 0.31266 0.78398 0.36387 0.0
O379 O 0.29745 0.81468 0.35983 0.0
O380 O 0.28151 0.78346 0.2907 0.0
O381 O 0.26665 0.7961 0.31834 0.0
O382 O 0.28818 0.75102 0.32544 0.0
O383 O 0.28752 0.73821 0.28259 0.0
H384 H 0.29683 0.80987 0.22634 0.0
H385 H 0.2763 0.82543 0.19241 0.0
H386 H 0.26247 0.75515 0.14437 0.0
H387 H 0.28286 0.73969 0.17858 0.0
H388 H 0.30751 0.81333 0.42643 0.0
H389 H 0.28415 0.79351 0.45303 0.0
H390 H 0.24395 0.74688 0.38561 0.0
H391 H 0.26677 0.76716 0.35911 0.0
Tb392 Tb 0.57336 0.03651 0.54944 0.0
Tb393 Tb 0.52826 0.03094 0.5645 0.0
C394 C 0.61176 0.03479 0.54643 0.0
C395 C 0.62877 0.0212 0.55348 0.0
C396 C 0.64701 0.0327 0.57237 0.0
C397 C 0.66434 0.02155 0.57782 0.0
C398 C 0.66405 0.99851 0.56449 0.0
C399 C 0.64566 0.98682 0.54572 0.0
C400 C 0.62824 0.99802 0.54026 0.0
C401 C 0.54169 0.04296 0.51334 0.0
C402 C 0.54379 0.98366 0.54624 0.0
C403 C 0.48858 0.03106 0.55801 0.0
C404 C 0.47139 0.04337 0.5646 0.0
C405 C 0.47278 0.06824 0.56401 0.0
C406 C 0.45471 0.07837 0.56542 0.0
C407 C 0.43478 0.06392 0.56743 0.0
C408 C 0.43376 0.03924 0.56891 0.0
C409 C 0.45177 0.02915 0.56749 0.0
C410 C 0.5589 0.03045 0.60565 0.0
C411 C 0.5599 0.0833 0.57408 0.0
O412 O 0.60644 0.04797 0.56517 0.0
O413 O 0.59503 0.02418 0.52835 0.0
O414 O 0.54022 0.02814 0.5291 0.0
O415 O 0.56197 0.05358 0.51681 0.0
O416 O 0.56338 0.99727 0.54792 0.0
O417 O 0.52705 0.99301 0.54999 0.0
O418 O 0.50211 0.04215 0.54531 0.0
O419 O 0.49777 0.01914 0.5743 0.0
O420 O 0.56066 0.03264 0.58286 0.0
O421 O 0.53847 0.02896 0.60583 0.0
O422 O 0.54016 0.07029 0.57271 0.0
O423 O 0.57579 0.07364 0.56774 0.0
H424 H 0.64814 0.05071 0.5826 0.0
H425 H 0.67828 0.0314 0.59206 0.0
H426 H 0.6447 0.96898 0.53521 0.0
H427 H 0.61453 0.98866 0.52544 0.0
H428 H 0.48762 0.07972 0.56162 0.0
H429 H 0.45631 0.0975 0.56461 0.0
H430 H 0.41873 0.02734 0.57008 0.0
H431 H 0.45007 1.00987 0.56751 0.0
Tb432 Tb 0.28124 0.2944 0.80917 0.0
Tb433 Tb 0.3224 0.27373 0.81367 0.0
C434 C 0.24427 0.30237 0.81178 0.0
C435 C 0.22491 0.29452 0.82322 0.0
C436 C 0.22347 0.30519 0.84783 0.0
C437 C 0.20399 0.30014 0.85679 0.0
C438 C 0.18535 0.28451 0.84128 0.0
C439 C 0.18711 0.27317 0.8171 0.0
C440 C 0.20653 0.27813 0.8082 0.0
C441 C 0.31646 0.32418 0.80296 0.0
C442 C 0.30843 0.2927 0.86395 0.0
C443 C 0.35919 0.26573 0.81026 0.0
C444 C 0.37768 0.2729 0.79714 0.0
C445 C 0.39434 0.29342 0.80794 0.0
C446 C 0.41313 0.29842 0.79778 0.0
C447 C 0.41604 0.28291 0.77664 0.0
C448 C 0.39903 0.26286 0.76522 0.0
C449 C 0.38016 0.25787 0.7754 0.0
C450 C 0.28712 0.24391 0.81975 0.0
C451 C 0.2949 0.27441 0.75907 0.0
O452 O 0.24802 0.28679 0.79394 0.0
O453 O 0.26218 0.31509 0.82672 0.0
O454 O 0.31534 0.30881 0.81767 0.0
O455 O 0.297 0.32531 0.79309 0.0
O456 O 0.28931 0.29221 0.84998 0.0
O457 O 0.3249 0.28845 0.85362 0.0
O458 O 0.35583 0.28217 0.82755 0.0
O459 O 0.34105 0.25212 0.79664 0.0
O460 O 0.28833 0.25937 0.80516 0.0
O461 O 0.30657 0.24262 0.82945 0.0
O462 O 0.31428 0.2762 0.77304 0.0
O463 O 0.27836 0.27808 0.76956 0.0
H464 H 0.2372 0.31807 0.85989 0.0
H465 H 0.20329 0.30932 0.87546 0.0
H466 H 0.17329 0.26071 0.80474 0.0
H467 H 0.20691 0.26966 0.78911 0.0
H468 H 0.39321 0.30534 0.82482 0.0
H469 H 0.42561 0.3143 0.80686 0.0
H470 H 0.40066 0.25038 0.74906 0.0
H471 H 0.36782 0.24174 0.76672 0.0
Tb472 Tb 0.04858 0.05434 0.5758 0.0
Tb473 Tb 0.05194 1.0017 0.55419 0.0
C474 C 0.05159 0.09915 0.58303 0.0
C475 C 0.05631 0.11781 0.56702 0.0
C476 C 0.04627 0.11391 0.54115 0.0
C477 C 0.0514 0.13142 0.52599 0.0
C478 C 0.06674 0.1531 0.53634 0.0
C479 C 0.07694 0.15688 0.56215 0.0
C480 C 0.07173 0.13937 0.57737 0.0
C481 C 0.01667 0.01856 0.57978 0.0
C482 C 0.03439 0.03296 0.51615 0.0
C483 C 0.04403 0.95648 0.54325 0.0
C484 C 0.05481 0.93794 0.55191 0.0
C485 C 0.04378 0.91359 0.54604 0.0
C486 C 0.05229 0.89621 0.55772 0.0
C487 C 0.07193 0.90303 0.57547 0.0
C488 C 0.08354 0.92728 0.58019 0.0
C489 C 0.07497 0.94468 0.56855 0.0
C490 C 0.08788 0.03514 0.55439 0.0
C491 C 0.0697 0.02384 0.6133 0.0
O492 O 0.06765 0.08918 0.59072 0.0
O493 O 0.03311 0.08325 0.57535 0.0
O494 O 0.0268 0.01979 0.56164 0.0
O495 O 0.02349 0.03878 0.59583 0.0
O496 O 0.04265 0.05255 0.53392 0.0
O497 O 0.03346 1.01074 0.52105 0.0
O498 O 0.03628 0.96817 0.56094 0.0
O499 O 0.05415 0.9709 0.52979 0.0
O500 O 0.07085 0.03703 0.56194 0.0
O501 O 0.08545 1.0121 0.5464 0.0
O502 O 0.06281 1.00437 0.5952 0.0
O503 O 0.06778 0.04588 0.60938 0.0
H504 H 0.0345 0.09731 0.53255 0.0
H505 H 0.04351 0.12787 0.50607 0.0
H506 H 0.0887 0.17352 0.57067 0.0
H507 H 0.07977 0.14263 0.59722 0.0
H508 H 0.02815 0.9082 0.53332 0.0
H509 H 0.04313 0.87758 0.55363 0.0
H510 H 0.09857 0.93305 0.594 0.0
H511 H 0.08354 0.96353 0.57345 0.0
Tb512 Tb 0.29938 0.75863 0.78384 0.0
Tb513 Tb 0.30789 0.81211 0.80907 0.0
C514 C 0.29879 0.71923 0.75631 0.0
C515 C 0.31253 0.70163 0.75731 0.0
C516 C 0.30865 0.68188 0.73746 0.0
C517 C 0.32011 0.66359 0.73967 0.0
C518 C 0.33552 0.66483 0.76186 0.0
C519 C 0.33992 0.68522 0.78123 0.0
C520 C 0.3285 0.70345 0.77899 0.0
C521 C 0.29905 0.7665 0.83285 0.0
C522 C 0.34776 0.78846 0.80274 0.0
C523 C 0.3159 0.85134 0.83945 0.0
C524 C 0.30337 0.86989 0.84428 0.0
C525 C 0.28129 0.86315 0.84493 0.0
C526 C 0.26941 0.88082 0.84883 0.0
C527 C 0.27928 0.90557 0.85178 0.0
C528 C 0.30135 0.91229 0.85103 0.0
C529 C 0.31331 0.89458 0.84743 0.0
C530 C 0.29522 0.80353 0.7591 0.0
C531 C 0.26054 0.78137 0.79042 0.0
O532 O 0.3074 0.74049 0.75146 0.0
O533 O 0.28832 0.72096 0.77505 0.0
O534 O 0.31126 0.77882 0.82117 0.0
O535 O 0.28656 0.74813 0.81714 0.0
O536 O 0.33446 0.76686 0.79482 0.0
O537 O 0.3409 0.80851 0.80877 0.0
O538 O 0.3086 0.83016 0.84567 0.0
O539 O 0.32192 0.84944 0.81727 0.0
O540 O 0.3069 0.79289 0.77241 0.0
O541 O 0.29218 0.82207 0.77357 0.0
O542 O 0.2737 0.79826 0.8085 0.0
O543 O 0.26783 0.76666 0.7746 0.0
H544 H 0.29632 0.68023 0.72063 0.0
H545 H 0.3163 0.64805 0.7245 0.0
H546 H 0.35195 0.68689 0.79834 0.0
H547 H 0.33166 0.71859 0.79453 0.0
H548 H 0.27312 0.84422 0.84215 0.0
H549 H 0.25236 0.87509 0.84895 0.0
H550 H 0.30938 0.93124 0.85338 0.0
H551 H 0.33029 0.90014 0.84687 0.0
Tb552 Tb 0.5264 0.03211 0.03688 0.0
Tb553 Tb 0.56559 0.03629 0.07576 0.0
C554 C 0.48945 0.01763 0.00925 0.0
C555 C 0.4672 0.01447 0.01359 0.0
C556 C 0.46164 1.00611 0.03554 0.0
C557 C 0.44044 1.00307 0.03937 0.0
C558 C 0.42437 1.00806 0.02114 0.0
C559 C 0.43 0.01653 0.99923 0.0
C560 C 0.45129 0.0198 0.99555 0.0
C561 C 0.54783 0.0769 0.05536 0.0
C562 C 0.5222 0.03595 0.0971 0.0
C563 C 0.60181 0.04948 0.10507 0.0
C564 C 0.62416 0.04698 0.10581 0.0
C565 C 0.6353 0.05322 0.08647 0.0
C566 C 0.65707 0.05264 0.08885 0.0
C567 C 0.66807 0.04558 0.11049 0.0
C568 C 0.65655 0.03832 0.12924 0.0
C569 C 0.63481 0.03911 0.12694 0.0
C570 C 0.54397 0.99153 0.05677 0.0
C571 C 0.56957 0.03198 0.01492 0.0
O572 O 0.50075 1.00313 0.019 0.0
O573 O 0.50055 0.04004 0.01276 0.0
O574 O 0.54453 0.05965 0.06759 0.0
O575 O 0.53809 0.06947 0.03174 0.0
O576 O 0.51249 0.02938 0.0725 0.0
O577 O 0.54366 0.04226 0.10288 0.0
O578 O 0.5942 0.06282 0.08926 0.0
O579 O 0.58777 0.02962 0.10551 0.0
O580 O 0.54749 1.00908 0.04516 0.0
O581 O 0.55429 0.99835 0.08016 0.0
O582 O 0.57986 0.03711 0.03953 0.0
O583 O 0.5481 0.02768 0.00968 0.0
H584 H 0.47359 1.00156 0.04956 0.0
H585 H 0.43649 0.99613 0.05622 0.0
H586 H 0.41792 0.02059 0.98493 0.0
H587 H 0.4553 0.02631 0.97851 0.0
H588 H 0.62742 0.05923 0.06988 0.0
H589 H 0.66548 0.0588 0.07424 0.0
H590 H 0.66445 0.03255 0.14597 0.0
H591 H 0.62642 0.03408 0.142 0.0
Tb592 Tb 0.27882 0.26518 0.29615 0.0
Tb593 Tb 0.31842 0.30018 0.32207 0.0
C594 C 0.24043 0.24146 0.28671 0.0
C595 C 0.21973 0.24907 0.28404 0.0
C596 C 0.20476 0.24022 0.29863 0.0
C597 C 0.18673 0.2501 0.29993 0.0
C598 C 0.18315 0.26892 0.2864 0.0
C599 C 0.19764 0.27686 0.27071 0.0
C600 C 0.21585 0.26718 0.2697 0.0
C601 C 0.30088 0.28588 0.26468 0.0
C602 C 0.27687 0.32251 0.31535 0.0
C603 C 0.35679 0.32405 0.33029 0.0
C604 C 0.37649 0.31704 0.32432 0.0
C605 C 0.37549 0.3012 0.30165 0.0
C606 C 0.39397 0.29417 0.29609 0.0
C607 C 0.41392 0.30286 0.31301 0.0
C608 C 0.41489 0.31856 0.33584 0.0
C609 C 0.39629 0.3256 0.34143 0.0
C610 C 0.29693 0.27734 0.35318 0.0
C611 C 0.32047 0.24326 0.30261 0.0
O612 O 0.25231 0.24755 0.30971 0.0
O613 O 0.25179 0.24532 0.26897 0.0
O614 O 0.29789 0.2961 0.28567 0.0
O615 O 0.29051 0.26334 0.2603 0.0
O616 O 0.26662 0.2993 0.30633 0.0
O617 O 0.29829 0.32779 0.32239 0.0
O618 O 0.34223 0.32464 0.31051 0.0
O619 O 0.34824 0.31353 0.34755 0.0
O620 O 0.29979 0.26874 0.33159 0.0
O621 O 0.30735 0.29996 0.35881 0.0
O622 O 0.33057 0.26678 0.30899 0.0
O623 O 0.29897 0.2376 0.29851 0.0
H624 H 0.20758 0.22646 0.31007 0.0
H625 H 0.17627 0.24377 0.31264 0.0
H626 H 0.19528 0.29105 0.25973 0.0
H627 H 0.22727 0.27452 0.25844 0.0
H628 H 0.36039 0.29413 0.28816 0.0
H629 H 0.39256 0.2817 0.27859 0.0
H630 H 0.43005 0.32572 0.34917 0.0
H631 H 0.39738 0.33775 0.35906 0.0
Tb632 Tb 0.53827 0.56333 0.0586 0.0
Tb633 Tb 0.54737 0.51116 0.05143 0.0
C634 C 0.53794 0.60685 0.05689 0.0
C635 C 0.5461 0.62469 0.0414 0.0
C636 C 0.54179 0.61938 0.01458 0.0
C637 C 0.54951 0.63688 1.0004 0.0
C638 C 0.56185 0.6598 0.01282 0.0
C639 C 0.56656 0.66481 0.03964 0.0
C640 C 0.55868 0.64742 0.05378 0.0
C641 C 0.50687 0.52746 0.06387 0.0
C642 C 0.5334 0.53344 1.00319 0.0
C643 C 0.54278 0.46656 0.05101 0.0
C644 C 0.55418 0.45181 0.06614 0.0
C645 C 0.54783 0.42651 0.06028 0.0
C646 C 0.55676 0.41231 0.07642 0.0
C647 C 0.57205 0.42326 0.09878 0.0
C648 C 0.57899 0.44867 0.10402 0.0
C649 C 0.57013 0.46285 0.08777 0.0
C650 C 0.58274 0.54509 0.0515 0.0
C651 C 0.55792 0.54377 0.10684 0.0
O652 O 0.5528 0.59997 0.07211 0.0
O653 O 0.52179 0.5888 0.04541 0.0
O654 O 0.51968 0.5268 0.04859 0.0
O655 O 0.51034 0.54959 0.07567 0.0
O656 O 0.53894 0.55514 0.01785 0.0
O657 O 0.53246 0.5131 0.01275 0.0
O658 O 0.53263 0.48014 0.06394 0.0
O659 O 0.55348 0.47814 0.03583 0.0
O660 O 0.56426 0.54721 0.05452 0.0
O661 O 0.58203 0.52198 0.04875 0.0
O662 O 0.55417 0.52181 0.09301 0.0
O663 O 0.55486 0.56311 0.09688 0.0
H664 H 0.53235 0.60185 1.00454 0.0
H665 H 0.54579 0.63253 0.97974 0.0
H666 H 0.5758 0.68244 0.04969 0.0
H667 H 0.56226 0.6518 0.07445 0.0
H668 H 0.53554 0.41777 0.04363 0.0
H669 H 0.55138 0.39276 0.07164 0.0
H670 H 0.59058 0.45765 0.12119 0.0
H671 H 0.57516 0.48243 0.09254 0.0
Tb672 Tb 0.80746 0.25017 0.26726 0.0
Tb673 Tb 0.80472 0.30155 0.2893 0.0
C674 C 0.80707 0.21053 0.24047 0.0
C675 C 0.81754 0.19045 0.24482 0.0
C676 C 0.81949 0.17405 0.22405 0.0
C677 C 0.82945 0.15486 0.22818 0.0
C678 C 0.83746 0.1518 0.25319 0.0
C679 C 0.8356 0.16845 0.27392 0.0
C680 C 0.8258 0.18767 0.26976 0.0
C681 C 0.8032 0.25675 0.31512 0.0
C682 C 0.84886 0.28357 0.30128 0.0
C683 C 0.80409 0.34071 0.3163 0.0
C684 C 0.79039 0.35839 0.31499 0.0
C685 C 0.77676 0.35896 0.29205 0.0
C686 C 0.76348 0.37557 0.29114 0.0
C687 C 0.7634 0.39173 0.31325 0.0
C688 C 0.77709 0.39095 0.33623 0.0
C689 C 0.7905 0.37447 0.33703 0.0
C690 C 0.80849 0.29493 0.24122 0.0
C691 C 0.76307 0.26691 0.25714 0.0
O692 O 0.82005 0.23105 0.23962 0.0
O693 O 0.79258 0.21352 0.25432 0.0
O694 O 0.79484 0.26624 0.29749 0.0
O695 O 0.81217 0.24022 0.30559 0.0
O696 O 0.84133 0.26434 0.28318 0.0
O697 O 0.83672 0.29858 0.30817 0.0
O698 O 0.79476 0.31933 0.32025 0.0
O699 O 0.81577 0.3393 0.29863 0.0
O700 O 0.81744 0.28564 0.2588 0.0
O701 O 0.79792 0.30988 0.25067 0.0
O702 O 0.77066 0.28574 0.27576 0.0
O703 O 0.77576 0.25366 0.24811 0.0
H704 H 0.81328 0.17605 0.20467 0.0
H705 H 0.83062 0.14223 0.21188 0.0
H706 H 0.84196 0.16678 0.29335 0.0
H707 H 0.82467 0.20035 0.28602 0.0
H708 H 0.77639 0.34656 0.27484 0.0
H709 H 0.75342 0.37586 0.27304 0.0
H710 H 0.77722 0.40279 0.35372 0.0
H711 H 0.80086 0.37418 0.35494 0.0
Tb712 Tb 0.02476 0.53042 0.53406 0.0
Tb713 Tb 0.06456 0.53805 0.57289 0.0
C714 C 0.98866 0.51244 0.50562 0.0
C715 C 0.96554 0.51107 0.50509 0.0
C716 C 0.95147 0.48817 0.49989 0.0
C717 C 0.92928 0.48607 0.49724 0.0
C718 C 0.92064 0.50687 0.49944 0.0
C719 C 0.9348 0.52986 0.50534 0.0
C720 C 0.95711 0.53197 0.50815 0.0
C721 C 0.04316 0.57638 0.55197 0.0
C722 C 0.0207 0.53545 0.59446 0.0
C723 C 0.10108 0.55371 0.60086 0.0
C724 C 0.12301 0.55043 0.59962 0.0
C725 C 0.13385 0.55895 0.58085 0.0
C726 C 0.15483 0.55622 0.5805 0.0
C727 C 0.16537 0.54472 0.59875 0.0
C728 C 0.15422 0.53558 0.61704 0.0
C729 C 0.1333 0.53854 0.61755 0.0
C730 C 0.04629 0.49203 0.55401 0.0
C731 C 0.06848 0.53312 0.51213 0.0
O732 O 0.99828 0.50081 0.52178 0.0
O733 O 1.00065 0.53351 0.5044 0.0
O734 O 0.0416 0.55909 0.56425 0.0
O735 O 0.03264 0.56832 0.52878 0.0
O736 O 1.01091 0.52838 0.56988 0.0
O737 O 0.04218 0.54254 0.60006 0.0
O738 O 0.09245 0.5659 0.58447 0.0
O739 O 0.08741 0.5344 0.60364 0.0
O740 O 0.04794 0.5098 0.54251 0.0
O741 O 0.05665 0.49974 0.5773 0.0
O742 O 0.07875 0.53975 0.53667 0.0
O743 O 0.04699 0.5266 0.50715 0.0
H744 H 0.95763 0.47184 0.4975 0.0
H745 H 0.91887 0.46806 0.49336 0.0
H746 H 0.92863 0.5462 0.50714 0.0
H747 H 0.96766 0.54989 0.51221 0.0
H748 H 0.12634 0.56811 0.56669 0.0
H749 H 0.16304 0.564 0.56647 0.0
H750 H 0.16179 0.52647 0.63122 0.0
H751 H 0.1252 0.53171 0.63214 0.0
Tb752 Tb 0.78225 0.77822 0.30351 0.0
Tb753 Tb 0.82939 0.77303 0.31189 0.0
C754 C 0.74253 0.7744 0.30427 0.0
C755 C 0.72705 0.77485 0.32197 0.0
C756 C 0.70724 0.75773 0.31603 0.0
C757 C 0.6916 0.75864 0.33129 0.0
C758 C 0.69533 0.77677 0.35296 0.0
C759 C 0.71535 0.79381 0.35896 0.0
C760 C 0.731 0.79284 0.34372 0.0
C761 C 0.81078 0.81456 0.2945 0.0
C762 C 0.81199 0.79088 0.35996 0.0
C763 C 0.86891 0.77486 0.31238 0.0
C764 C 0.88656 0.7772 0.29771 0.0
C765 C 0.88914 0.79365 0.28052 0.0
C766 C 0.90771 0.79724 0.26957 0.0
C767 C 0.92404 0.78461 0.27583 0.0
C768 C 0.92086 0.76754 0.29226 0.0
C769 C 0.90239 0.76391 0.30302 0.0
C770 C 0.80086 0.737 0.32143 0.0
C771 C 0.80081 0.76252 0.25556 0.0
O772 O 0.75172 0.7559 0.30247 0.0
O773 O 0.75596 0.79481 0.30389 0.0
O774 O 0.81348 0.80223 0.31202 0.0
O775 O 0.79091 0.80778 0.28218 0.0
O776 O 0.79226 0.78572 0.34563 0.0
O777 O 0.82942 0.78978 0.35025 0.0
O778 O 0.86103 0.79393 0.31803 0.0
O779 O 0.85408 0.7546 0.30702 0.0
O780 O 0.79816 0.74896 0.30357 0.0
O781 O 0.82068 0.74393 0.33365 0.0
O782 O 0.82025 0.76971 0.27038 0.0
O783 O 0.78284 0.76101 0.26489 0.0
H784 H 0.70374 0.74371 0.29932 0.0
H785 H 0.67664 0.74496 0.32618 0.0
H786 H 0.71885 0.80828 0.37522 0.0
H787 H 0.74606 0.80638 0.34879 0.0
H788 H 0.87717 0.80419 0.27614 0.0
H789 H 0.90966 0.81056 0.25704 0.0
H790 H 0.93286 0.75716 0.29714 0.0
H791 H 0.90079 0.75113 0.3162 0.0
Tb792 Tb 0.80454 0.28037 0.79096 0.0
Tb793 Tb 0.79613 0.29959 0.84367 0.0
C794 C 0.8046 0.27287 0.74415 0.0
C795 C 0.80353 0.28807 0.72417 0.0
C796 C 0.78891 0.27903 0.70104 0.0
C797 C 0.7863 0.29381 0.6826 0.0
C798 C 0.79832 0.31791 0.68701 0.0
C799 C 0.81322 0.3268 0.71006 0.0
C800 C 0.81581 0.31201 0.72851 0.0
C801 C 0.83349 0.27691 0.83046 0.0
C802 C 0.81938 0.33836 0.81342 0.0
C803 C 0.79742 0.30992 0.89049 0.0
C804 C 0.7808 0.30233 0.90516 0.0
C805 C 0.78522 0.30806 0.93183 0.0
C806 C 0.77039 0.2976 0.94575 0.0
C807 C 0.75108 0.2812 0.93307 0.0
C808 C 0.74613 0.2769 0.90627 0.0
C809 C 0.76091 0.28734 0.89243 0.0
C810 C 0.76164 0.29712 0.80733 0.0
C811 C 0.78027 0.24196 0.82104 0.0
O812 O 0.78705 0.26797 0.75363 0.0
O813 O 0.82226 0.27851 0.76176 0.0
O814 O 0.82379 0.29401 0.82844 0.0
O815 O 0.82801 0.26174 0.80907 0.0
O816 O 0.81513 0.32072 0.79309 0.0
O817 O 0.81501 0.33344 0.83575 0.0
O818 O 0.80529 0.29219 0.8804 0.0
O819 O 0.79264 0.32422 0.87428 0.0
O820 O 0.77939 0.29188 0.80543 0.0
O821 O 0.76272 0.3039 0.83144 0.0
O822 O 0.78515 0.25978 0.84115 0.0
O823 O 0.78481 0.24625 0.79851 0.0
H824 H 0.77916 0.26068 0.69747 0.0
H825 H 0.77447 0.28655 0.66517 0.0
H826 H 0.82288 0.34518 0.71382 0.0
H827 H 0.8272 0.31942 0.74623 0.0
H828 H 0.80054 0.31957 0.94189 0.0
H829 H 0.77477 0.30091 0.96641 0.0
H830 H 0.7314 0.26431 0.89607 0.0
H831 H 0.75728 0.28265 0.87181 0.0
Tb832 Tb 0.78009 0.77302 0.80272 0.0
Tb833 Tb 0.82383 0.80369 0.8213 0.0
C834 C 0.74128 0.7546 0.80173 0.0
C835 C 0.72642 0.76653 0.81395 0.0
C836 C 0.73506 0.78747 0.83233 0.0
C837 C 0.72174 0.80121 0.84193 0.0
C838 C 0.69921 0.79384 0.83427 0.0
C839 C 0.69044 0.77221 0.81649 0.0
C840 C 0.704 0.75882 0.80615 0.0
C841 C 0.80081 0.78473 0.76609 0.0
C842 C 0.78426 0.83124 0.81845 0.0
C843 C 0.86014 0.83086 0.82483 0.0
C844 C 0.88116 0.82434 0.82627 0.0
C845 C 0.89638 0.83626 0.81357 0.0
C846 C 0.91303 0.82556 0.80741 0.0
C847 C 0.91444 0.80269 0.81364 0.0
C848 C 0.9003 0.79187 0.8283 0.0
C849 C 0.88378 0.80259 0.83455 0.0
C850 C 0.80862 0.77878 0.85508 0.0
C851 C 0.81979 0.74607 0.80517 0.0
O852 O 0.75724 0.75023 0.81758 0.0
O853 O 0.74791 0.76457 0.78303 0.0
O854 O 0.80095 0.79797 0.78678 0.0
O855 O 0.78781 0.76385 0.76489 0.0
O856 O 0.77173 0.80964 0.80745 0.0
O857 O 0.80535 0.8329 0.82676 0.0
O858 O 0.84697 0.82137 0.80303 0.0
O859 O 0.85068 0.82856 0.84451 0.0
O860 O 0.79824 0.78928 0.83971 0.0
O861 O 0.82867 0.78343 0.85288 0.0
O862 O 0.83229 0.76832 0.80796 0.0
O863 O 0.79863 0.74371 0.80472 0.0
H864 H 0.75227 0.79369 0.83891 0.0
H865 H 0.72934 0.81797 0.85492 0.0
H866 H 0.67316 0.7656 0.81044 0.0
H867 H 0.69701 0.7427 0.79195 0.0
H868 H 0.89437 0.85283 0.80663 0.0
H869 H 0.92368 0.8342 0.796 0.0
H870 H 0.90122 0.77437 0.8336 0.0
H871 H 0.87205 0.79289 0.84406 0.0
Tb872 Tb 0.52374 0.51829 0.53829 0.0
Tb873 Tb 0.56953 0.54448 0.56265 0.0
C874 C 0.4834 0.50871 0.52953 0.0
C875 C 0.46996 0.52557 0.53626 0.0
C876 C 0.47914 0.5458 0.55542 0.0
C877 C 0.46799 0.56382 0.56024 0.0
C878 C 0.44701 0.56177 0.54653 0.0
C879 C 0.43745 0.54093 0.52792 0.0
C880 C 0.44897 0.52305 0.52265 0.0
C881 C 0.55225 0.51467 0.50901 0.0
C882 C 0.53982 0.57577 0.5389 0.0
C883 C 0.60989 0.55523 0.57234 0.0
C884 C 0.62461 0.53912 0.56795 0.0
C885 C 0.62209 0.51694 0.57706 0.0
C886 C 0.6304 0.49822 0.5661 0.0
C887 C 0.64159 0.50147 0.54606 0.0
C888 C 0.64602 0.52448 0.53883 0.0
C889 C 0.63759 0.54316 0.54972 0.0
C890 C 0.54084 0.54795 0.59177 0.0
C891 C 0.55329 0.48653 0.56131 0.0
O892 O 0.495 0.50293 0.54914 0.0
O893 O 0.49472 0.51451 0.51222 0.0
O894 O 0.55184 0.53284 0.52471 0.0
O895 O 0.53482 0.49806 0.50741 0.0
O896 O 0.52366 0.55707 0.53828 0.0
O897 O 0.56012 0.57452 0.54611 0.0
O898 O 0.59832 0.55851 0.55129 0.0
O899 O 0.59831 0.55114 0.58987 0.0
O900 O 0.5415 0.52982 0.57619 0.0
O901 O 0.55794 0.5649 0.59296 0.0
O902 O 0.56969 0.50559 0.56383 0.0
O903 O 0.53314 0.48769 0.55296 0.0
H904 H 0.49531 0.54812 0.56625 0.0
H905 H 0.47623 0.5797 0.57425 0.0
H906 H 0.42117 0.53843 0.51731 0.0
H907 H 0.44165 0.50753 0.50777 0.0
H908 H 0.61232 0.51338 0.59127 0.0
H909 H 0.62673 0.48073 0.57212 0.0
H910 H 0.65512 0.52771 0.52391 0.0
H911 H 0.63981 0.56015 0.54247 0.0
Tb912 Tb 0.07796 0.5421 0.0483 0.0
Tb913 Tb 0.03144 0.53774 0.06357 0.0
C914 C 0.11737 0.54184 0.05084 0.0
C915 C 0.13292 0.52683 0.0584 0.0
C916 C 0.15506 0.53765 0.06537 0.0
C917 C 0.17028 0.52365 0.07104 0.0
C918 C 0.16373 0.4984 0.06987 0.0
C919 C 0.14142 0.48767 0.06307 0.0
C920 C 0.12622 0.50171 0.05746 0.0
C921 C 0.04809 0.54942 0.0096 0.0
C922 C 0.04567 0.4905 0.03997 0.0
C923 C 0.99197 0.53698 0.06279 0.0
C924 C 0.97416 0.54962 0.05592 0.0
C925 C 0.9631 0.54712 0.03058 0.0
C926 C 0.9444 0.5562 0.02508 0.0
C927 C 0.93617 0.56794 0.04477 0.0
C928 C 0.94769 0.57105 0.07 0.0
C929 C 0.96633 0.56197 0.07547 0.0
C930 C 0.06183 0.53132 0.10244 0.0
C931 C 0.06346 0.58977 0.06793 0.0
O932 O 0.10993 0.55315 0.0691 0.0
O933 O 0.10232 0.53246 0.03049 0.0
O934 O 0.04588 0.54413 0.03139 0.0
O935 O 0.06857 0.55137 0.00975 0.0
O936 O 0.06569 0.50322 0.04266 0.0
O937 O 0.02947 0.50006 0.04582 0.0
O938 O 0.99905 0.52525 0.04446 0.0
O939 O 1.00756 0.54789 0.08212 0.0
O940 O 0.06327 0.53503 0.08 0.0
O941 O 0.0417 0.53073 0.10319 0.0
O942 O 0.04337 0.57722 0.06638 0.0
O943 O 0.07967 0.57948 0.06418 0.0
H944 H 0.16063 0.557 0.06619 0.0
H945 H 0.18719 0.53269 0.07655 0.0
H946 H 0.13566 0.46829 0.06157 0.0
H947 H 0.10924 0.49288 0.05202 0.0
H948 H 0.96854 0.53758 0.01504 0.0
H949 H 0.93623 0.55373 1.00536 0.0
H950 H 0.94183 0.57963 0.08577 0.0
H951 H 0.97419 0.56387 0.09524 0.0
H952 H 0.99422 0.17364 0.9657 0.0
H953 H 0.04788 0.23247 1.00494 0.0
H954 H 0.06107 0.20499 0.03247 0.0
H955 H 0.98568 0.14525 0.02237 0.0
H956 H 0.97902 0.1151 1.00395 0.0
H957 H 0.97327 0.14014 0.98901 0.0
H958 H 0.99536 0.12862 0.95482 0.0
H959 H 1.00141 0.10405 0.97041 0.0
H960 H 0.02304 0.12694 0.96492 0.0
H961 H 0.07006 0.1702 0.05369 0.0
H962 H 0.07344 0.13143 0.06781 0.0
H963 H 1.01336 0.09516 0.01596 0.0
C964 C 1.00861 0.18087 0.98028 0.0
C965 C 0.01996 0.20539 0.98308 0.0
C966 C 0.03879 0.21392 1.00239 0.0
C967 C 0.04644 0.19838 0.01816 0.0
C968 C 0.03502 0.17431 0.01468 0.0
C969 C 0.01637 0.16564 0.99637 0.0
C970 C 1.00746 0.13881 0.99611 0.0
C971 C 0.98503 0.1346 1.00331 0.0
C972 C 1.00679 0.12373 0.97001 0.0
C973 C 0.02422 0.13363 0.0168 0.0
C974 C 0.03996 0.15439 0.02728 0.0
C975 C 0.05768 0.15393 0.04581 0.0
C976 C 0.05948 0.13174 0.0537 0.0
C977 C 0.04363 0.11014 0.04324 0.0
C978 C 0.02563 0.11132 0.0247 0.0
H979 H 0.14341 0.8028 0.24974 0.0
H980 H 0.1554 0.80375 0.1729 0.0
H981 H 0.19262 0.79884 0.18748 0.0
H982 H 0.1966 0.83712 0.28229 0.0
H983 H 0.19722 0.82011 0.30825 0.0
H984 H 0.1718 0.82372 0.29142 0.0
H985 H 0.15784 0.77701 0.2818 0.0
H986 H 0.18329 0.77326 0.29838 0.0
H987 H 0.17293 0.75851 0.26574 0.0
H988 H 0.22878 0.79163 0.21107 0.0
H989 H 0.26044 0.78711 0.24186 0.0
H990 H 0.22466 0.79297 0.30293 0.0
C991 C 0.15387 0.80211 0.23595 0.0
C992 C 0.14637 0.80364 0.21011 0.0
C993 C 0.16073 0.80277 0.19281 0.0
C994 C 0.18189 0.79984 0.20091 0.0
C995 C 0.18864 0.79806 0.22649 0.0
C996 C 0.17506 0.79952 0.24378 0.0
C997 C 0.18615 0.79768 0.2703 0.0
C998 C 0.18806 0.82105 0.28918 0.0
C999 C 0.17435 0.77528 0.27959 0.0
C1000 C 0.20807 0.79477 0.26535 0.0
C1001 C 0.20926 0.79478 0.23994 0.0
C1002 C 0.22795 0.79179 0.23101 0.0
C1003 C 0.24586 0.78912 0.24855 0.0
C1004 C 0.24505 0.78977 0.27473 0.0
C1005 C 0.22581 0.79249 0.28303 0.0
H1006 H 0.56161 0.86265 0.46803 0.0
H1007 H 0.50951 0.82193 0.49754 0.0
H1008 H 0.5066 0.85985 0.52357 0.0
H1009 H 0.58634 0.90515 0.52809 0.0
H1010 H 0.59373 0.93025 0.51173 0.0
H1011 H 0.59232 0.89974 0.49655 0.0
H1012 H 0.56548 0.90554 0.45764 0.0
H1013 H 0.56673 0.93598 0.47274 0.0
H1014 H 0.54103 0.91469 0.46254 0.0
H1015 H 0.50694 0.9033 0.54282 0.0
H1016 H 0.51302 0.94765 0.55699 0.0
H1017 H 0.56659 0.95936 0.51725 0.0
C1018 C 0.54978 0.86165 0.48024 0.0
C1019 C 0.53575 0.83928 0.48071 0.0
C1020 C 0.52052 0.83878 0.49698 0.0
C1021 C 0.5187 0.86027 0.51176 0.0
C1022 C 0.53251 0.88209 0.51046 0.0
C1023 C 0.54804 0.88283 0.49546 0.0
C1024 C 0.56083 0.90858 0.49728 0.0
C1025 C 0.58472 0.91107 0.50912 0.0
C1026 C 0.55836 0.91666 0.47099 0.0
C1027 C 0.54975 0.92232 0.51515 0.0
C1028 C 0.53337 0.90678 0.52245 0.0
C1029 C 0.51999 0.91556 0.53757 0.0
C1030 C 0.5235 0.94078 0.54546 0.0
C1031 C 0.54044 0.95697 0.53854 0.0
C1032 C 0.55377 0.94746 0.52332 0.0
H1033 H 0.49563 0.28624 0.67556 0.0
H1034 H 0.54938 0.30927 0.74002 0.0
H1035 H 0.52363 0.3078 0.76952 0.0
H1036 H 0.46001 0.31983 0.70133 0.0
H1037 H 0.43599 0.2964 0.68839 0.0
H1038 H 0.4586 0.29924 0.67238 0.0
H1039 H 0.45971 0.25444 0.67465 0.0
H1040 H 0.4371 0.25146 0.69066 0.0
H1041 H 0.46185 0.24436 0.70515 0.0
H1042 H 0.49181 0.30411 0.7921 0.0
H1043 H 0.45684 0.29766 0.80606 0.0
H1044 H 0.42348 0.27691 0.72694 0.0
C1045 C 0.50205 0.29099 0.69588 0.0
C1046 C 0.52466 0.29794 0.70539 0.0
C1047 C 0.53222 0.3039 0.73218 0.0
C1048 C 0.51768 0.30313 0.74911 0.0
C1049 C 0.49554 0.29627 0.73907 0.0
C1050 C 0.48776 0.29022 0.71306 0.0
C1051 C 0.4632 0.28329 0.7072 0.0
C1052 C 0.45391 0.30074 0.69139 0.0
C1053 C 0.45499 0.25682 0.69361 0.0
C1054 C 0.45835 0.28645 0.73396 0.0
C1055 C 0.47725 0.29401 0.75205 0.0
C1056 C 0.47694 0.29827 0.77806 0.0
C1057 C 0.4569 0.29471 0.7858 0.0
C1058 C 0.4372 0.28693 0.7677 0.0
C1059 C 0.43812 0.28271 0.74137 0.0
H1060 H 0.05636 0.80748 0.66909 0.0
H1061 H 0.12431 0.8068 0.67593 0.0
H1062 H 0.12802 0.83634 0.64621 0.0
H1063 H 0.0463 0.81006 0.60254 0.0
H1064 H 0.02765 0.82959 0.605 0.0
H1065 H 0.03064 0.80907 0.62739 0.0
H1066 H 0.03968 0.84504 0.66514 0.0
H1067 H 0.03652 0.86562 0.64287 0.0
H1068 H 0.06133 0.87072 0.66588 0.0
H1069 H 0.12406 0.86651 0.61588 0.0
H1070 H 0.11253 0.89418 0.58719 0.0
H1071 H 0.04714 0.87332 0.59994 0.0
C1072 C 0.0721 0.81367 0.66456 0.0
C1073 C 0.09009 0.805 0.67492 0.0
C1074 C 0.11032 0.8133 0.66822 0.0
C1075 C 0.11258 0.83003 0.65136 0.0
C1076 C 0.09441 0.83805 0.6413 0.0
C1077 C 0.07457 0.83008 0.64765 0.0
C1078 C 0.05742 0.84101 0.63397 0.0
C1079 C 0.03945 0.82125 0.61617 0.0
C1080 C 0.04821 0.85652 0.65311 0.0
C1081 C 0.0707 0.8565 0.61898 0.0
C1082 C 0.09202 0.85469 0.62346 0.0
C1083 C 0.10738 0.86796 0.61213 0.0
C1084 C 0.10073 0.8836 0.59593 0.0
C1085 C 0.07893 0.88557 0.59115 0.0
C1086 C 0.06381 0.87174 0.60279 0.0
H1087 H 0.47134 0.85128 0.85515 0.0
H1088 H 0.48586 0.78113 0.83384 0.0
H1089 H 0.44776 0.76455 0.81287 0.0
H1090 H 0.42276 0.82933 0.87219 0.0
H1091 H 0.40917 0.85151 0.86027 0.0
H1092 H 0.43806 0.85891 0.87024 0.0
H1093 H 0.44236 0.86988 0.82584 0.0
H1094 H 0.41341 0.86273 0.81578 0.0
H1095 H 0.42969 0.84802 0.79744 0.0
H1096 H 0.40762 0.7545 0.79858 0.0
H1097 H 0.36837 0.75193 0.79113 0.0
H1098 H 0.38026 0.82864 0.82226 0.0
C1099 C 0.46665 0.83261 0.84549 0.0
C1100 C 0.48155 0.81751 0.84602 0.0
C1101 C 0.47469 0.79303 0.8336 0.0
C1102 C 0.45311 0.78347 0.82159 0.0
C1103 C 0.43868 0.79866 0.8221 0.0
C1104 C 0.44518 0.82275 0.83355 0.0
C1105 C 0.4262 0.83469 0.8333 0.0
C1106 C 0.42392 0.84415 0.86062 0.0
C1107 C 0.42803 0.85503 0.81712 0.0
C1108 C 0.40796 0.81335 0.82059 0.0
C1109 C 0.41548 0.7928 0.81402 0.0
C1110 C 0.40153 0.77054 0.80331 0.0
C1111 C 0.37926 0.76925 0.79928 0.0
C1112 C 0.37122 0.79009 0.8061 0.0
C1113 C 0.38585 0.81241 0.81666 0.0
H1114 H 0.55783 0.18375 0.17038 0.0
H1115 H 0.56107 0.23338 0.11579 0.0
H1116 H 0.55879 0.19924 0.08137 0.0
H1117 H 0.59102 0.14757 0.14454 0.0
H1118 H 0.57592 0.1194 0.15051 0.0
H1119 H 0.57675 0.14749 0.17069 0.0
H1120 H 0.53493 0.13881 0.16117 0.0
H1121 H 0.53402 0.11057 0.14125 0.0
H1122 H 0.5206 0.13252 0.12848 0.0
H1123 H 0.55616 0.15961 0.05289 0.0
H1124 H 0.5525 0.11712 0.03241 0.0
H1125 H 0.55292 0.09415 0.10616 0.0
C1126 C 0.55774 0.18739 0.15112 0.0
C1127 C 0.55946 0.21118 0.14569 0.0
C1128 C 0.55969 0.21527 0.12033 0.0
C1129 C 0.55846 0.19601 0.10068 0.0
C1130 C 0.55719 0.17285 0.10677 0.0
C1131 C 0.55679 0.16845 0.13136 0.0
C1132 C 0.55589 0.14198 0.13297 0.0
C1133 C 0.5761 0.13895 0.15073 0.0
C1134 C 0.53512 0.13028 0.14146 0.0
C1135 C 0.55564 0.13217 0.10539 0.0
C1136 C 0.55638 0.15023 0.09056 0.0
C1137 C 0.55566 0.14533 0.06432 0.0
C1138 C 0.55367 0.12122 0.05287 0.0
C1139 C 0.55256 0.10248 0.06772 0.0
C1140 C 0.55396 0.10816 0.09436 0.0
H1141 H 0.07948 0.28241 0.34232 0.0
H1142 H 0.10181 0.36042 0.34988 0.0
H1143 H 0.12935 0.35414 0.32421 0.0
H1144 H 0.12932 0.26926 0.3516 0.0
H1145 H 0.12205 0.24125 0.32914 0.0
H1146 H 0.10185 0.25176 0.3441 0.0
H1147 H 0.07843 0.25018 0.29966 0.0
H1148 H 0.09856 0.23951 0.2845 0.0
H1149 H 0.08992 0.26627 0.27667 0.0
H1150 H 0.15748 0.33933 0.30298 0.0
H1151 H 0.18394 0.31752 0.28879 0.0
H1152 H 0.14267 0.24915 0.29447 0.0
C1153 C 0.08978 0.29822 0.33806 0.0
C1154 C 0.08845 0.32192 0.34806 0.0
C1155 C 0.10245 0.34209 0.34232 0.0
C1156 C 0.1181 0.33869 0.32768 0.0
C1157 C 0.11935 0.31504 0.31873 0.0
C1158 C 0.10542 0.29515 0.32355 0.0
C1159 C 0.11138 0.2717 0.31403 0.0
C1160 C 0.11646 0.25769 0.33603 0.0
C1161 C 0.09351 0.25599 0.29242 0.0
C1162 C 0.13142 0.28152 0.30408 0.0
C1163 C 0.13557 0.30651 0.30654 0.0
C1164 C 0.15415 0.31973 0.30052 0.0
C1165 C 0.16912 0.30712 0.29241 0.0
C1166 C 0.16557 0.28156 0.29067 0.0
C1167 C 0.14606 0.26868 0.29581 0.0
H1168 H 0.97025 0.9808 0.18275 0.0
H1169 H 0.99511 0.04148 0.24521 0.0
H1170 H 0.01638 0.06347 0.2179 0.0
H1171 H 0.01994 0.98423 0.15949 0.0
H1172 H 1.00685 0.97607 0.12634 0.0
H1173 H 0.99303 0.96531 0.15056 0.0
H1174 H 0.96111 0.98413 0.13385 0.0
H1175 H 0.97496 0.99516 0.10973 0.0
H1176 H 0.96614 0.01596 0.13169 0.0
H1177 H 0.03491 0.07915 0.18391 0.0
H1178 H 0.05171 0.08591 0.14655 0.0
H1179 H 0.01579 0.0148 0.10649 0.0
C1180 C 0.98017 0.9987 0.19068 0.0
C1181 C 0.98096 1.00939 0.21616 0.0
C1182 C 0.99427 0.03282 0.22582 0.0
C1183 C 1.00634 0.04556 0.2104 0.0
C1184 C 1.00508 0.03461 0.18536 0.0
C1185 C 0.99252 1.01162 0.1756 0.0
C1186 C 0.9947 1.0037 0.1483 0.0
C1187 C 1.0042 0.98099 0.14605 0.0
C1188 C 0.97293 0.99949 0.1298 0.0
C1189 C 1.01048 0.02578 0.14433 0.0
C1190 C 0.01609 0.0435 0.16587 0.0
C1191 C 0.03064 0.06541 0.16693 0.0
C1192 C 0.04006 0.06912 0.14561 0.0
C1193 C 0.035 0.05095 0.12362 0.0
C1194 C 0.01979 0.02915 0.12292 0.0
H1195 H 0.27124 0.66764 0.49969 0.0
H1196 H 0.24609 0.70824 0.55695 0.0
H1197 H 0.23147 0.73072 0.52472 0.0
H1198 H 0.29146 0.71222 0.4734 0.0
H1199 H 0.28477 0.69762 0.44043 0.0
H1200 H 0.28707 0.6797 0.46523 0.0
H1201 H 0.24807 0.65421 0.44745 0.0
H1202 H 0.24617 0.67188 0.42212 0.0
H1203 H 0.22611 0.66937 0.44196 0.0
H1204 H 0.23099 0.757 0.49178 0.0
H1205 H 0.24074 0.78146 0.45893 0.0
H1206 H 0.26277 0.72203 0.4211 0.0
C1207 C 0.26172 0.68045 0.50502 0.0
C1208 C 0.25974 0.68629 0.5306 0.0
C1209 C 0.24753 0.70334 0.53728 0.0
C1210 C 0.23915 0.71619 0.51908 0.0
C1211 C 0.24257 0.71116 0.49422 0.0
C1212 C 0.25298 0.6931 0.48696 0.0
C1213 C 0.25736 0.69349 0.46028 0.0
C1214 C 0.28159 0.69593 0.45985 0.0
C1215 C 0.24358 0.67089 0.44186 0.0
C1216 C 0.24987 0.71607 0.45469 0.0
C1217 C 0.24097 0.7258 0.47426 0.0
C1218 C 0.23691 0.74905 0.47574 0.0
C1219 C 0.24257 0.76288 0.45716 0.0
C1220 C 0.25189 0.7532 0.43734 0.0
C1221 C 0.25478 0.72927 0.43558 0.0
H1222 H 0.6044 0.02642 0.75462 0.0
H1223 H 0.66378 1.01263 0.73443 0.0
H1224 H 0.64932 0.01428 0.6891 0.0
H1225 H 0.56836 0.9901 0.69741 0.0
H1226 H 0.55034 1.01056 0.69576 0.0
H1227 H 0.56556 1.00824 0.72618 0.0
H1228 H 0.58138 0.05453 0.73456 0.0
H1229 H 0.56631 0.05697 0.7041 0.0
H1230 H 0.5952 0.0681 0.71163 0.0
H1231 H 0.62741 0.01923 0.64413 0.0
H1232 H 0.60088 0.0238 0.60695 0.0
H1233 H 0.5555 0.03278 0.65656 0.0
C1234 C 0.61447 0.0236 0.74076 0.0
C1235 C 0.6355 0.01934 0.74871 0.0
C1236 C 0.64771 0.01577 0.72937 0.0
C1237 C 0.63956 0.01681 0.70337 0.0
C1238 C 0.61888 0.02125 0.69636 0.0
C1239 C 0.60646 0.02432 0.71468 0.0
C1240 C 0.58461 0.02848 0.70249 0.0
C1241 C 0.56613 1.00813 0.70565 0.0
C1242 C 0.58171 0.0535 0.71388 0.0
C1243 C 0.58652 0.02743 0.67446 0.0
C1244 C 0.60645 0.02342 0.67118 0.0
C1245 C 0.61181 0.02225 0.64681 0.0
C1246 C 0.59658 0.02499 0.62561 0.0
C1247 C 0.57587 0.02873 0.62838 0.0
C1248 C 0.57105 0.02993 0.65342 0.0
H1249 H 0.29991 0.36613 0.99818 0.0
H1250 H 0.34216 0.32466 0.03442 0.0
H1251 H 0.34231 0.30192 0.99232 0.0
H1252 H 0.26789 0.31516 0.94921 0.0
H1253 H 0.26483 0.33372 0.9248 0.0
H1254 H 0.26767 0.3467 0.95788 0.0
H1255 H 0.30034 0.37979 0.95398 0.0
H1256 H 0.2976 0.3669 0.92093 0.0
H1257 H 0.32294 0.37086 0.94271 0.0
H1258 H 0.34045 0.28589 0.94623 0.0
H1259 H 0.33394 0.27512 0.89916 0.0
H1260 H 0.29059 0.32418 0.8923 0.0
C1261 C 0.30906 0.35215 0.99723 0.0
C1262 C 0.32106 0.34725 0.01969 0.0
C1263 C 0.33275 0.32872 0.0176 0.0
C1264 C 0.333 0.31571 0.99372 0.0
C1265 C 0.32117 0.32107 0.97198 0.0
C1266 C 0.30914 0.33857 0.97347 0.0
C1267 C 0.29771 0.3405 0.94704 0.0
C1268 C 0.27306 0.3336 0.9446 0.0
C1269 C 0.3051 0.36603 0.94081 0.0
C1270 C 0.30555 0.32169 0.93053 0.0
C1271 C 0.3192 0.31085 0.94534 0.0
C1272 C 0.32952 0.29398 0.93444 0.0
C1273 C 0.32579 0.28802 0.90771 0.0
C1274 C 0.31159 0.29857 0.89214 0.0
C1275 C 0.30121 0.31547 0.90378 0.0
H1276 H 0.9556 0.98765 0.38111 0.0
H1277 H 0.99818 0.04042 0.35056 0.0
H1278 H 0.0202 0.05603 0.394 0.0
H1279 H 0.95747 0.02416 0.44185 0.0
H1280 H 0.95801 0.99932 0.4593 0.0
H1281 H 0.94486 0.99355 0.42619 0.0
H1282 H 0.96878 0.96346 0.41571 0.0
H1283 H 0.98183 0.96897 0.4488 0.0
H1284 H 0.99774 0.97344 0.4245 0.0
H1285 H 0.03701 0.06648 0.44167 0.0
H1286 H 0.0502 0.0665 0.48772 0.0
H1287 H 0.99829 1.00446 0.48542 0.0
C1288 C 0.96949 1.00259 0.38362 0.0
C1289 C 0.97513 1.01301 0.36262 0.0
C1290 C 0.99364 0.0322 0.36649 0.0
C1291 C 1.00613 0.04128 0.39108 0.0
C1292 C 1.00007 0.03068 0.41149 0.0
C1293 C 0.9824 1.01143 0.40788 0.0
C1294 C 0.9802 1.00196 0.4325 0.0
C1295 C 0.95887 1.00494 0.44042 0.0
C1296 C 0.98227 0.97539 0.43023 0.0
C1297 C 0.99939 0.01881 0.45054 0.0
C1298 C 1.01043 0.03563 0.43829 0.0
C1299 C 0.02856 0.05328 0.45139 0.0
C1300 C 0.03587 0.05327 0.4775 0.0
C1301 C 0.02533 0.03538 0.48989 0.0
C1302 C 1.00673 0.01823 0.47627 0.0
H1303 H 0.28595 0.7144 0.6347 0.0
H1304 H 0.32486 0.77332 0.6079 0.0
H1305 H 0.31778 0.8027 0.64194 0.0
H1306 H 0.24652 0.75051 0.6567 0.0
H1307 H 0.24463 0.73459 0.68332 0.0
H1308 H 0.24868 0.71928 0.6536 0.0
H1309 H 0.28325 0.70844 0.67716 0.0
H1310 H 0.2782 0.72277 0.70642 0.0
H1311 H 0.30401 0.73235 0.69745 0.0
H1312 H 0.31153 0.82428 0.68315 0.0
H1313 H 0.30889 0.83531 0.72845 0.0
H1314 H 0.27495 0.76171 0.72783 0.0
C1315 C 0.29264 0.73355 0.6357 0.0
C1316 C 0.30611 0.74168 0.61898 0.0
C1317 C 0.31447 0.76682 0.62062 0.0
C1318 C 0.3104 0.78359 0.63975 0.0
C1319 C 0.29751 0.77485 0.65652 0.0
C1320 C 0.28856 0.75037 0.65438 0.0
C1321 C 0.27743 0.74504 0.67626 0.0
C1322 C 0.25286 0.73688 0.6669 0.0
C1323 C 0.28632 0.72609 0.69015 0.0
C1324 C 0.28344 0.76994 0.69249 0.0
C1325 C 0.29411 0.78718 0.68032 0.0
C1326 C 0.30275 0.81109 0.6926 0.0
C1327 C 0.30114 0.81723 0.71823 0.0
C1328 C 0.2915 0.79933 0.73121 0.0
C1329 C 0.28201 0.77572 0.71802 0.0
H1330 H 0.66689 0.04033 0.93094 0.0
H1331 H 0.61777 1.00368 0.86486 0.0
H1332 H 0.59017 1.00173 0.89221 0.0
H1333 H 0.64454 1.00644 0.97754 0.0
H1334 H 0.65161 0.03221 1.00299 0.0
H1335 H 0.66752 0.03066 0.97847 0.0
H1336 H 0.66148 0.07216 0.96864 0.0
H1337 H 0.64553 0.07381 0.99311 0.0
H1338 H 0.63433 0.07645 0.96093 0.0
H1339 H 0.5671 1.00445 0.9275 0.0
H1340 H 0.55119 1.01063 0.96558 0.0
H1341 H 0.61462 0.0452 0.01093 0.0
C1342 C 0.65033 0.03177 0.92204 0.0
C1343 C 0.64491 0.02211 0.8951 0.0
C1344 C 0.62281 1.01121 0.88498 0.0
C1345 C 0.60688 1.01006 0.90059 0.0
C1346 C 0.61284 0.01978 0.92681 0.0
C1347 C 0.63415 0.03038 0.9375 0.0
C1348 C 0.63626 0.03949 0.96628 0.0
C1349 C 0.65086 0.02642 0.98227 0.0
C1350 C 0.64492 0.06712 0.97261 0.0
C1351 C 0.61285 0.03251 0.97026 0.0
C1352 C 0.59968 0.02119 0.94709 0.0
C1353 C 0.57746 1.01332 0.94555 0.0
C1354 C 0.56847 0.01706 0.96768 0.0
C1355 C 0.5812 0.0286 0.99205 0.0
C1356 C 0.60402 0.03628 0.99305 0.0
H1357 H 0.31697 0.39431 0.1834 0.0
H1358 H 0.32935 0.34287 0.12381 0.0
H1359 H 0.32692 0.31187 0.15184 0.0
H1360 H 0.34724 0.37427 0.23737 0.0
H1361 H 0.32821 0.37856 0.25769 0.0
H1362 H 0.33189 0.39719 0.23347 0.0
H1363 H 0.29092 0.38422 0.21445 0.0
H1364 H 0.28716 0.36564 0.23864 0.0
H1365 H 0.27825 0.35241 0.20535 0.0
H1366 H 0.32099 0.28556 0.18527 0.0
H1367 H 0.31234 0.26602 0.22181 0.0
H1368 H 0.30475 0.33441 0.26065 0.0
C1369 C 0.31938 0.3766 0.17629 0.0
C1370 C 0.32341 0.37114 0.15127 0.0
C1371 C 0.32631 0.34763 0.14281 0.0
C1372 C 0.32497 0.32986 0.15865 0.0
C1373 C 0.32083 0.33578 0.18306 0.0
C1374 C 0.31817 0.35862 0.19193 0.0
C1375 C 0.31332 0.36004 0.21876 0.0
C1376 C 0.33124 0.37862 0.23795 0.0
C1377 C 0.29109 0.36592 0.21932 0.0
C1378 C 0.31334 0.33433 0.22342 0.0
C1379 C 0.31777 0.32068 0.20256 0.0
C1380 C 0.31773 0.29615 0.20178 0.0
C1381 C 0.31279 0.28519 0.22263 0.0
C1382 C 0.30805 0.29869 0.24415 0.0
C1383 C 0.30864 0.3237 0.24464 0.0
H1384 H 0.20513 0.94302 0.95308 0.0
H1385 H 0.1548 0.87834 0.94562 0.0
H1386 H 0.12855 0.90371 0.95131 0.0
H1387 H 0.19578 0.97153 1.0026 0.0
H1388 H 0.20062 1.00209 0.99592 0.0
H1389 H 0.21298 0.98037 0.98055 0.0
H1390 H 0.19577 0.98751 0.936 0.0
H1391 H 0.18365 1.00991 0.95133 0.0
H1392 H 0.16704 0.98491 0.92797 0.0
H1393 H 0.1117 0.93425 0.97154 0.0
H1394 H 0.10532 0.96699 1.002 0.0
H1395 H 0.16693 1.01213 0.99825 0.0
C1396 C 0.1883 0.93427 0.95128 0.0
C1397 C 0.18192 0.90887 0.94906 0.0
C1398 C 0.15993 0.89781 0.94706 0.0
C1399 C 0.14491 0.91214 0.95027 0.0
C1400 C 0.15214 0.93736 0.95491 0.0
C1401 C 0.17328 0.94838 0.9547 0.0
C1402 C 0.17826 0.97525 0.96522 0.0
C1403 C 0.19804 0.98269 0.98738 0.0
C1404 C 0.18136 0.99028 0.94386 0.0
C1405 C 0.15757 0.97703 0.97434 0.0
C1406 C 0.14234 0.95529 0.9672 0.0
C1407 C 0.12323 0.95152 0.97657 0.0
C1408 C 0.1199 0.97008 0.99418 0.0
C1409 C 0.13577 0.99196 1.00257 0.0
C1410 C 0.15438 0.99575 0.99174 0.0
H1411 H 0.70412 0.59875 0.03513 0.0
H1412 H 0.6864 0.66804 0.03234 0.0
H1413 H 0.64955 0.64978 0.03684 0.0
H1414 H 0.65249 0.56111 0.99971 0.0
H1415 H 0.65292 0.53755 0.01895 0.0
H1416 H 0.6779 0.55584 0.01473 0.0
H1417 H 0.6903 0.56758 0.06382 0.0
H1418 H 0.66531 0.54943 0.06817 0.0
H1419 H 0.67345 0.58106 0.08236 0.0
H1420 H 0.61427 0.62422 0.04243 0.0
H1421 H 0.58358 0.5929 0.04807 0.0
H1422 H 0.62366 0.54023 0.04786 0.0
C1423 C 0.69244 0.61002 0.03523 0.0
C1424 C 0.69835 0.63493 0.03331 0.0
C1425 C 0.68248 0.64898 0.03377 0.0
C1426 C 0.66139 0.63875 0.03633 0.0
C1427 C 0.65616 0.61432 0.03848 0.0
C1428 C 0.67119 0.60007 0.03789 0.0
C1429 C 0.66134 0.57435 0.04098 0.0
C1430 C 0.66115 0.55614 0.01717 0.0
C1431 C 0.67331 0.56772 0.06528 0.0
C1432 C 0.63856 0.57644 0.04346 0.0
C1433 C 0.63589 0.59966 0.04194 0.0
C1434 C 0.61624 0.60599 0.04373 0.0
C1435 C 0.59889 0.58813 0.0471 0.0
C1436 C 0.60123 0.56422 0.04872 0.0
C1437 C 0.62138 0.5584 0.04682 0.0
H1438 H 0.72857 0.51671 0.35084 0.0
H1439 H 0.66709 0.48496 0.29953 0.0
H1440 H 0.6796 0.44749 0.28856 0.0
H1441 H 0.76161 0.49065 0.31137 0.0
H1442 H 0.77999 0.48576 0.33823 0.0
H1443 H 0.76633 0.51029 0.34177 0.0
H1444 H 0.75123 0.49372 0.37937 0.0
H1445 H 0.76475 0.46908 0.37585 0.0
H1446 H 0.73603 0.4628 0.3746 0.0
H1447 H 0.69811 0.41289 0.28443 0.0
H1448 H 0.72194 0.38404 0.28616 0.0
H1449 H 0.77198 0.43885 0.33868 0.0
C1450 C 0.71776 0.50193 0.33721 0.0
C1451 C 0.69683 0.5038 0.32608 0.0
C1452 C 0.68321 0.48401 0.3083 0.0
C1453 C 0.69015 0.46262 0.30196 0.0
C1454 C 0.71078 0.46131 0.31342 0.0
C1455 C 0.72446 0.48047 0.33054 0.0
C1456 C 0.74585 0.47432 0.34013 0.0
C1457 C 0.76455 0.49126 0.3324 0.0
C1458 C 0.74968 0.47502 0.36921 0.0
C1459 C 0.74197 0.44865 0.32589 0.0
C1460 C 0.72163 0.44149 0.31064 0.0
C1461 C 0.71417 0.41838 0.29609 0.0
C1462 C 0.72791 0.40216 0.29707 0.0
C1463 C 0.74896 0.40914 0.31239 0.0
C1464 C 0.75596 0.43278 0.32695 0.0
H1465 H 0.80237 0.42986 0.45165 0.0
H1466 H 0.78299 0.47592 0.51006 0.0
H1467 H 0.81816 0.5051 0.51658 0.0
H1468 H 0.85247 0.43389 0.4821 0.0
H1469 H 0.86548 0.43451 0.45492 0.0
H1470 H 0.83735 0.42044 0.4505 0.0
H1471 H 0.82778 0.44833 0.41813 0.0
H1472 H 0.85605 0.46233 0.42209 0.0
H1473 H 0.83692 0.48077 0.42718 0.0
H1474 H 0.85783 0.52413 0.52302 0.0
H1475 H 0.8975 0.53245 0.527 0.0
H1476 H 0.89017 0.4748 0.46296 0.0
C1477 C 0.80525 0.44653 0.46515 0.0
C1478 C 0.79007 0.45071 0.48035 0.0
C1479 C 0.79438 0.47254 0.49804 0.0
C1480 C 0.81431 0.48919 0.50186 0.0
C1481 C 0.82942 0.48392 0.48741 0.0
C1482 C 0.82488 0.46333 0.46898 0.0
C1483 C 0.84448 0.46029 0.45795 0.0
C1484 C 0.85028 0.43585 0.46161 0.0
C1485 C 0.8411 0.46311 0.42966 0.0
C1486 C 0.86116 0.48142 0.47426 0.0
C1487 C 0.85217 0.49515 0.49083 0.0
C1488 C 0.86495 0.51396 0.50963 0.0
C1489 C 0.88746 0.51855 0.51176 0.0
C1490 C 0.89691 0.50423 0.49532 0.0
C1491 C 0.88344 0.48597 0.47591 0.0
H1492 H 0.34538 0.10592 0.28854 0.0
H1493 H 0.4137 0.1394 0.30372 0.0
H1494 H 0.40477 0.18 0.30724 0.0
H1495 H 0.32717 0.14889 0.25045 0.0
H1496 H 0.3028 0.14839 0.26291 0.0
H1497 H 0.31456 0.12222 0.26167 0.0
H1498 H 0.31603 0.1233 0.31003 0.0
H1499 H 0.30424 0.14945 0.31141 0.0
H1500 H 0.32961 0.15072 0.33203 0.0
H1501 H 0.38739 0.21874 0.30919 0.0
H1502 H 0.36491 0.24911 0.30971 0.0
H1503 H 0.30725 0.19127 0.29322 0.0
C1504 C 0.35865 0.1217 0.29263 0.0
C1505 C 0.38057 0.11867 0.29581 0.0
C1506 C 0.39692 0.14045 0.30115 0.0
C1507 C 0.39187 0.16386 0.30318 0.0
C1508 C 0.3702 0.16601 0.29991 0.0
C1509 C 0.35385 0.14532 0.29476 0.0
C1510 C 0.33182 0.15244 0.29211 0.0
C1511 C 0.31828 0.14238 0.26518 0.0
C1512 C 0.31971 0.14343 0.31261 0.0
C1513 C 0.33811 0.18034 0.29652 0.0
C1514 C 0.36039 0.18781 0.30099 0.0
C1515 C 0.36999 0.21271 0.30565 0.0
C1516 C 0.35688 0.2301 0.30586 0.0
C1517 C 0.33388 0.22335 0.3014 0.0
C1518 C 0.3246 0.19769 0.29663 0.0
H1519 H 0.34918 0.14219 0.52059 0.0
H1520 H 0.30874 0.10899 0.56934 0.0
H1521 H 0.3364 0.08654 0.58343 0.0
H1522 H 0.3691 0.08933 0.50072 0.0
H1523 H 0.39578 0.10642 0.50057 0.0
H1524 H 0.37292 0.12005 0.49457 0.0
H1525 H 0.39155 0.1556 0.5315 0.0
H1526 H 0.41442 0.142 0.5377 0.0
H1527 H 0.40032 0.1492 0.56296 0.0
H1528 H 0.36887 0.06785 0.59262 0.0
H1529 H 0.40259 0.05328 0.59489 0.0
H1530 H 0.42166 0.09769 0.53926 0.0
C1531 C 0.34609 0.1302 0.53424 0.0
C1532 C 0.32666 0.12745 0.54384 0.0
C1533 C 0.32338 0.11145 0.56161 0.0
C1534 C 0.33907 0.09864 0.56981 0.0
C1535 C 0.35803 0.10187 0.56004 0.0
C1536 C 0.36155 0.11717 0.54254 0.0
C1537 C 0.38317 0.11711 0.53469 0.0
C1538 C 0.38005 0.10766 0.50593 0.0
C1539 C 0.39826 0.14249 0.54216 0.0
C1540 C 0.39129 0.0994 0.55052 0.0
C1541 C 0.37656 0.09089 0.56507 0.0
C1542 C 0.38043 0.07432 0.58117 0.0
C1543 C 0.39966 0.06603 0.58222 0.0
C1544 C 0.41494 0.07412 0.56718 0.0
C1545 C 0.4106 0.09126 0.55129 0.0
H1546 H 0.69361 0.63221 0.29431 0.0
H1547 H 0.71419 0.61587 0.36976 0.0
H1548 H 0.74548 0.65078 0.37767 0.0
H1549 H 0.74491 0.64822 0.27936 0.0
H1550 H 0.73934 0.67256 0.26299 0.0
H1551 H 0.71769 0.64757 0.26401 0.0
H1552 H 0.69701 0.67753 0.28382 0.0
H1553 H 0.71861 0.70264 0.28276 0.0
H1554 H 0.71015 0.69876 0.31253 0.0
H1555 H 0.77601 0.68559 0.37602 0.0
H1556 H 0.80274 0.71844 0.36551 0.0
H1557 H 0.76209 0.71219 0.29128 0.0
C1558 C 0.70454 0.6361 0.31264 0.0
C1559 C 0.70144 0.62125 0.33143 0.0
C1560 C 0.71617 0.62701 0.35512 0.0
C1561 C 0.734 0.6468 0.35978 0.0
C1562 C 0.73674 0.66082 0.34067 0.0
C1563 C 0.7223 0.65586 0.31766 0.0
C1564 C 0.72926 0.67326 0.29999 0.0
C1565 C 0.73303 0.65958 0.27513 0.0
C1566 C 0.71277 0.68897 0.29445 0.0
C1567 C 0.75024 0.68833 0.31633 0.0
C1568 C 0.75418 0.68099 0.33981 0.0
C1569 C 0.77296 0.69163 0.3578 0.0
C1570 C 0.78808 0.71019 0.35163 0.0
C1571 C 0.78435 0.71796 0.3277 0.0
C1572 C 0.76514 0.7069 0.3099 0.0
H1573 H 0.88647 0.45356 0.7612 0.0
H1574 H 0.87718 0.49991 0.82708 0.0
H1575 H 0.85632 0.46391 0.84037 0.0
H1576 H 0.83276 0.41246 0.74856 0.0
H1577 H 0.8425 0.38587 0.73884 0.0
H1578 H 0.85637 0.41519 0.73426 0.0
H1579 H 0.89193 0.40894 0.75977 0.0
H1580 H 0.87809 0.37964 0.76447 0.0
H1581 H 0.89274 0.4021 0.79163 0.0
H1582 H 0.83737 0.42185 0.8477 0.0
H1583 H 0.82106 0.37902 0.84765 0.0
H1584 H 0.84097 0.35856 0.77623 0.0
C1585 C 0.87996 0.45628 0.77839 0.0
C1586 C 0.88369 0.48012 0.79301 0.0
C1587 C 0.87469 0.4823 0.81533 0.0
C1588 C 0.86278 0.46176 0.8231 0.0
C1589 C 0.85959 0.43869 0.80838 0.0
C1590 C 0.86778 0.43587 0.78632 0.0
C1591 C 0.86191 0.40901 0.77388 0.0
C1592 C 0.84753 0.40543 0.7473 0.0
C1593 C 0.88239 0.39936 0.77235 0.0
C1594 C 0.84936 0.39704 0.79249 0.0
C1595 C 0.84831 0.4146 0.81228 0.0
C1596 C 0.83809 0.40813 0.83215 0.0
C1597 C 0.82881 0.38346 0.83194 0.0
C1598 C 0.82938 0.36475 0.81195 0.0
C1599 C 0.83986 0.372 0.79181 0.0
H1600 H 0.10853 0.90221 0.14534 0.0
H1601 H 0.05278 0.84551 0.10705 0.0
H1602 H 0.03935 0.87447 0.08178 0.0
H1603 H 0.08123 0.95052 0.15016 0.0
H1604 H 0.10292 0.97301 0.14417 0.0
H1605 H 0.10876 0.94763 0.15843 0.0
H1606 H 0.12904 0.93643 0.12243 0.0
H1607 H 0.1232 0.96177 0.108 0.0
H1608 H 0.11538 0.93161 0.08956 0.0
H1609 H 0.03064 0.91029 0.0626 0.0
H1610 H 0.02782 0.9498 0.05008 0.0
H1611 H 0.08969 0.98348 0.09948 0.0
C1612 C 0.09359 0.89578 0.13148 0.0
C1613 C 0.08175 0.8714 0.12826 0.0
C1614 C 0.06223 0.86393 0.10991 0.0
C1615 C 0.05445 0.8803 0.09543 0.0
C1616 C 0.0664 0.90417 0.09924 0.0
C1617 C 0.08564 0.91188 0.11668 0.0
C1618 C 0.09511 0.93869 0.11741 0.0
C1619 C 0.09712 0.95332 0.14413 0.0
C1620 C 0.11698 0.94233 0.10884 0.0
C1621 C 0.07802 0.94495 0.09797 0.0
C1622 C 0.06161 0.92473 0.08773 0.0
C1623 C 0.04353 0.92614 0.0703 0.0
C1624 C 0.04206 0.94874 0.06332 0.0
C1625 C 0.05861 0.9698 0.07352 0.0
C1626 C 0.07696 0.96769 0.09089 0.0
H1627 H 0.94711 0.24707 0.88837 0.0
H1628 H 0.94833 0.29775 0.95645 0.0
H1629 H 0.91338 0.30496 0.93709 0.0
H1630 H 0.92202 0.27883 0.84253 0.0
H1631 H 0.90523 0.25182 0.82227 0.0
H1632 H 0.93065 0.25058 0.84118 0.0
H1633 H 0.91112 0.21622 0.86178 0.0
H1634 H 0.88564 0.21736 0.84292 0.0
H1635 H 0.88912 0.22094 0.87721 0.0
H1636 H 0.87919 0.30882 0.9097 0.0
H1637 H 0.84659 0.3063 0.87715 0.0
H1638 H 0.86502 0.25078 0.82788 0.0
C1639 C 0.93998 0.25964 0.89916 0.0
C1640 C 0.95064 0.27184 0.92401 0.0
C1641 C 0.94059 0.28803 0.9375 0.0
C1642 C 0.92069 0.29236 0.92662 0.0
C1643 C 0.91062 0.28013 0.90222 0.0
C1644 C 0.91972 0.26386 0.88871 0.0
C1645 C 0.90503 0.25274 0.86302 0.0
C1646 C 0.91641 0.25887 0.84094 0.0
C1647 C 0.89727 0.22518 0.86113 0.0
C1648 C 0.88648 0.26552 0.86418 0.0
C1649 C 0.89018 0.28142 0.88691 0.0
C1650 C 0.87594 0.29614 0.89199 0.0
C1651 C 0.85739 0.29454 0.87343 0.0
C1652 C 0.85294 0.27802 0.8502 0.0
C1653 C 0.86774 0.26329 0.84565 0.0
H1654 H 0.54162 0.20657 0.64823 0.0
H1655 H 0.59621 0.24509 0.62089 0.0
H1656 H 0.60008 0.2063 0.59781 0.0
H1657 H 0.5617 0.15415 0.65815 0.0
H1658 H 0.53597 0.13307 0.64707 0.0
H1659 H 0.53708 0.16388 0.66093 0.0
H1660 H 0.51197 0.169 0.62018 0.0
H1661 H 0.51069 0.13814 0.60624 0.0
H1662 H 0.51931 0.16259 0.58951 0.0
H1663 H 0.59952 0.16279 0.58002 0.0
H1664 H 0.59257 0.11847 0.5658 0.0
H1665 H 0.53719 0.10845 0.60279 0.0
C1666 C 0.55429 0.20689 0.63723 0.0
C1667 C 0.56865 0.22895 0.63645 0.0
C1668 C 0.58495 0.2285 0.62173 0.0
C1669 C 0.58733 0.20652 0.60862 0.0
C1670 C 0.57311 0.18509 0.61007 0.0
C1671 C 0.5567 0.18513 0.62371 0.0
C1672 C 0.54348 0.15959 0.62203 0.0
C1673 C 0.54464 0.15225 0.64863 0.0
C1674 C 0.51997 0.1572 0.60869 0.0
C1675 C 0.55519 0.14515 0.60563 0.0
C1676 C 0.57232 0.16017 0.59907 0.0
C1677 C 0.58601 0.1509 0.58483 0.0
C1678 C 0.58199 0.12566 0.57693 0.0
C1679 C 0.56428 0.10993 0.58302 0.0
C1680 C 0.55073 0.11996 0.59755 0.0
H1681 H 0.57612 0.7659 0.38704 0.0
H1682 H 0.60886 0.79026 0.46615 0.0
H1683 H 0.64388 0.79255 0.45326 0.0
H1684 H 0.61289 0.72897 0.36923 0.0
H1685 H 0.61231 0.73701 0.33788 0.0
H1686 H 0.5893 0.73713 0.35291 0.0
H1687 H 0.59097 0.78183 0.34745 0.0
H1688 H 0.61395 0.78182 0.33234 0.0
H1689 H 0.61575 0.80426 0.35994 0.0
H1690 H 0.67564 0.79183 0.43267 0.0
H1691 H 0.70231 0.78907 0.40518 0.0
H1692 H 0.65038 0.76644 0.33854 0.0
C1693 C 0.59066 0.77174 0.40161 0.0
C1694 C 0.5895 0.77787 0.42771 0.0
C1695 C 0.60905 0.78544 0.44607 0.0
C1696 C 0.62917 0.7868 0.43895 0.0
C1697 C 0.62978 0.78062 0.41327 0.0
C1698 C 0.61112 0.77332 0.39478 0.0
C1699 C 0.61667 0.7679 0.36848 0.0
C1700 C 0.60723 0.74116 0.35642 0.0
C1701 C 0.60887 0.78497 0.35102 0.0
C1702 C 0.64126 0.77327 0.37521 0.0
C1703 C 0.64837 0.78053 0.40121 0.0
C1704 C 0.67027 0.78636 0.41224 0.0
C1705 C 0.68537 0.7849 0.39635 0.0
C1706 C 0.6787 0.77779 0.3695 0.0
C1707 C 0.65619 0.77179 0.35893 0.0
H1708 H 0.03876 0.24117 0.43898 0.0
H1709 H 0.10752 0.27217 0.45023 0.0
H1710 H 0.11486 0.24266 0.47831 0.0
H1711 H 0.03818 0.23144 0.50225 0.0
H1712 H 0.01826 0.2032 0.49345 0.0
H1713 H 0.01849 0.22574 0.47296 0.0
H1714 H 0.02135 0.19421 0.43509 0.0
H1715 H 0.02105 0.17153 0.45546 0.0
H1716 H 0.04288 0.17825 0.43857 0.0
H1717 H 0.11455 0.21128 0.5071 0.0
H1718 H 0.10654 0.17941 0.53344 0.0
H1719 H 0.03808 0.1693 0.50328 0.0
C1720 C 0.05538 0.2416 0.4471 0.0
C1721 C 0.07257 0.25896 0.4424 0.0
C1722 C 0.09409 0.259 0.45353 0.0
C1723 C 0.09843 0.24232 0.4695 0.0
C1724 C 0.08109 0.22567 0.47403 0.0
C1725 C 0.06001 0.22509 0.46304 0.0
C1726 C 0.04424 0.20587 0.47158 0.0
C1727 C 0.02889 0.21725 0.48592 0.0
C1728 C 0.03164 0.18631 0.44882 0.0
C1729 C 0.05974 0.19596 0.48937 0.0
C1730 C 0.08092 0.20756 0.4905 0.0
C1731 C 0.09803 0.20196 0.50626 0.0
C1732 C 0.09333 0.18399 0.52125 0.0
C1733 C 0.07171 0.17188 0.5203 0.0
C1734 C 0.05478 0.17798 0.50408 0.0
H1735 H 0.63955 0.26871 0.25605 0.0
H1736 H 0.62329 0.19555 0.2128 0.0
H1737 H 0.66192 0.19724 0.21351 0.0
H1738 H 0.68188 0.29262 0.22581 0.0
H1739 H 0.69885 0.31109 0.25443 0.0
H1740 H 0.66997 0.30397 0.25161 0.0
H1741 H 0.67385 0.28583 0.2934 0.0
H1742 H 0.70276 0.2933 0.29656 0.0
H1743 H 0.68891 0.26253 0.29639 0.0
H1744 H 0.70187 0.20777 0.21639 0.0
H1745 H 0.74117 0.22431 0.22626 0.0
H1746 H 0.73156 0.29031 0.26851 0.0
C1747 C 0.64412 0.2529 0.24705 0.0
C1748 C 0.62839 0.232 0.23434 0.0
C1749 C 0.63504 0.21172 0.22276 0.0
C1750 C 0.65694 0.21256 0.22289 0.0
C1751 C 0.67195 0.23371 0.23489 0.0
C1752 C 0.6659 0.25335 0.24716 0.0
C1753 C 0.6853 0.27383 0.25879 0.0
C1754 C 0.68391 0.29672 0.24694 0.0
C1755 C 0.68786 0.27917 0.28802 0.0
C1756 C 0.70318 0.26265 0.25099 0.0
C1757 C 0.6951 0.2396 0.23701 0.0
C1758 C 0.70844 0.22573 0.22748 0.0
C1759 C 0.73075 0.23538 0.23305 0.0
C1760 C 0.73948 0.2586 0.24822 0.0
C1761 C 0.72541 0.27252 0.25688 0.0
H1762 H 0.53228 0.88936 0.93814 0.0
H1763 H 0.52913 0.83685 0.9897 0.0
H1764 H 0.52828 0.86895 0.02487 0.0
H1765 H 0.56708 0.9378 0.98107 0.0
H1766 H 0.55419 0.96078 0.96988 0.0
H1767 H 0.55277 0.93327 0.9485 0.0
H1768 H 0.51095 0.92525 0.9392 0.0
H1769 H 0.5123 0.95279 0.96064 0.0
H1770 H 0.49672 0.92436 0.96537 0.0
H1771 H 0.53169 0.90787 0.05536 0.0
H1772 H 0.53797 0.95016 0.07803 0.0
H1773 H 0.53686 0.97604 1.00569 0.0
C1774 C 0.53115 0.88452 0.95675 0.0
C1775 C 0.53081 0.86064 0.96122 0.0
C1776 C 0.52934 0.85504 0.98584 0.0
C1777 C 0.52882 0.87314 1.00592 0.0
C1778 C 0.52946 0.8966 1.00092 0.0
C1779 C 0.53038 0.90225 0.97686 0.0
C1780 C 0.53178 0.92897 0.97663 0.0
C1781 C 0.5527 0.94089 0.96856 0.0
C1782 C 0.51174 0.93307 0.95944 0.0
C1783 C 0.53213 0.93761 1.00447 0.0
C1784 C 0.53071 0.91873 0.01824 0.0
C1785 C 0.53242 0.92274 0.04471 0.0
C1786 C 0.53599 0.94673 0.05742 0.0
C1787 C 0.5377 0.96621 0.04356 0.0
C1788 C 0.53528 0.96145 0.01674 0.0
H1789 H 0.02042 0.78033 0.76464 0.0
H1790 H 0.9837 0.70789 0.72953 0.0
H1791 H 0.95256 0.71591 0.74779 0.0
H1792 H 0.99893 0.78289 0.82332 0.0
H1793 H 0.99854 0.81457 0.82518 0.0
H1794 H 0.01831 0.80271 0.8104 0.0
H1795 H 1.00559 0.81902 0.76916 0.0
H1796 H 0.98573 0.83084 0.78375 0.0
H1797 H 0.97751 0.8102 0.75378 0.0
H1798 H 0.92476 0.73274 0.76698 0.0
H1799 H 0.90238 0.75669 0.7876 0.0
H1800 H 0.95745 0.81765 0.81175 0.0
C1801 C 1.00591 0.76604 0.76096 0.0
C1802 C 1.00448 0.74346 0.74563 0.0
C1803 C 0.98517 0.7253 0.74123 0.0
C1804 C 0.96741 0.72969 0.75152 0.0
C1805 C 0.96928 0.75224 0.76627 0.0
C1806 C 0.98807 0.77007 0.77114 0.0
C1807 C 0.98568 0.79297 0.78708 0.0
C1808 C 1.00129 0.79861 0.81304 0.0
C1809 C 0.98881 0.81452 0.77257 0.0
C1810 C 0.96248 0.78534 0.7901 0.0
C1811 C 0.95337 0.76176 0.77797 0.0
C1812 C 0.93185 0.751 0.77706 0.0
C1813 C 0.91934 0.76463 0.78902 0.0
C1814 C 0.92842 0.78863 0.802 0.0
C1815 C 0.95024 0.79917 0.80235 0.0
H1816 H 0.13004 0.08936 0.92849 0.0
H1817 H 0.1249 0.01752 0.88637 0.0
H1818 H 0.10519 0.99929 0.91729 0.0
H1819 H 0.13734 0.0753 0.99095 0.0
H1820 H 0.11999 0.0931 1.00343 0.0
H1821 H 0.13365 0.10215 0.97839 0.0
H1822 H 0.09842 0.10198 0.94846 0.0
H1823 H 0.08406 0.09482 0.9735 0.0
H1824 H 0.07624 0.07583 0.9425 0.0
H1825 H 0.08481 0.98877 0.95172 0.0
H1826 H 0.06351 0.98704 0.98606 0.0
H1827 H 0.08203 0.06544 1.00618 0.0
C1828 C 0.1248 0.0698 0.92583 0.0
C1829 C 0.12904 0.05487 0.90501 0.0
C1830 C 0.12172 0.02935 0.90205 0.0
C1831 C 0.11064 0.0188 0.91963 0.0
C1832 C 0.10677 0.03398 0.93997 0.0
C1833 C 0.11338 0.05895 0.943 0.0
C1834 C 0.10603 0.07118 0.96569 0.0
C1835 C 0.12539 0.0863 0.98583 0.0
C1836 C 0.09025 0.08687 0.95701 0.0
C1837 C 0.09458 0.04917 0.97515 0.0
C1838 C 0.09512 0.02789 0.95997 0.0
C1839 C 0.08437 1.0053 0.96383 0.0
C1840 C 0.0723 1.00446 0.98331 0.0
C1841 C 0.07122 0.02605 0.99873 0.0
C1842 C 0.08286 0.04861 0.99489 0.0
H1843 H 0.77176 0.34709 0.54666 0.0
H1844 H 0.76695 0.41879 0.58026 0.0
H1845 H 0.77742 0.40916 0.62339 0.0
H1846 H 0.74942 0.31549 0.59192 0.0
H1847 H 0.76701 0.29456 0.59187 0.0
H1848 H 0.76013 0.30764 0.56383 0.0
H1849 H 0.80078 0.32378 0.56426 0.0
H1850 H 0.8078 0.31075 0.59233 0.0
H1851 H 0.81784 0.34263 0.59263 0.0
H1852 H 0.78748 0.39102 0.66282 0.0
H1853 H 0.79518 0.36543 0.69534 0.0
H1854 H 0.79355 0.30605 0.63524 0.0
C1855 C 0.77301 0.36087 0.56304 0.0
C1856 C 0.76859 0.38371 0.56013 0.0
C1857 C 0.7703 0.40116 0.58208 0.0
C1858 C 0.77628 0.39589 0.60662 0.0
C1859 C 0.78049 0.37313 0.60877 0.0
C1860 C 0.77891 0.35592 0.58755 0.0
C1861 C 0.7836 0.33257 0.59492 0.0
C1862 C 0.76386 0.31132 0.58505 0.0
C1863 C 0.8037 0.32712 0.58548 0.0
C1864 C 0.78785 0.3392 0.62365 0.0
C1865 C 0.78614 0.36271 0.63133 0.0
C1866 C 0.78898 0.37264 0.65704 0.0
C1867 C 0.79346 0.35803 0.67534 0.0
C1868 C 0.79492 0.33376 0.66777 0.0
C1869 C 0.7923 0.32444 0.64159 0.0
H1870 H 0.49885 0.08188 0.37739 0.0
H1871 H 0.43825 0.03022 0.37101 0.0
H1872 H 0.45199 0.01957 0.41289 0.0
H1873 H 0.53353 0.04648 0.40693 0.0
H1874 H 0.55185 0.07235 0.42744 0.0
H1875 H 0.5371 0.07585 0.39722 0.0
H1876 H 0.52173 0.10929 0.42023 0.0
H1877 H 0.53642 0.10587 0.45053 0.0
H1878 H 0.5076 0.10283 0.44569 0.0
H1879 H 0.47362 0.01422 0.4572 0.0
H1880 H 0.49978 0.015 0.49686 0.0
H1881 H 0.54611 0.07044 0.47465 0.0
C1882 C 0.48833 0.0683 0.38468 0.0
C1883 C 0.4672 0.05696 0.37029 0.0
C1884 C 0.45435 0.03931 0.38113 0.0
C1885 C 0.46212 0.03312 0.40514 0.0
C1886 C 0.48296 0.04464 0.41868 0.0
C1887 C 0.49585 0.06193 0.40869 0.0
C1888 C 0.51767 0.07171 0.42685 0.0
C1889 C 0.53613 0.06627 0.41383 0.0
C1890 C 0.52105 0.09905 0.43639 0.0
C1891 C 0.51522 0.0573 0.44864 0.0
C1892 C 0.49507 0.04173 0.44365 0.0
C1893 C 0.48934 0.02649 0.46108 0.0
C1894 C 0.50438 0.02708 0.48379 0.0
C1895 C 0.52519 0.04286 0.48943 0.0
C1896 C 0.53042 0.05817 0.47132 0.0
H1897 H 0.76478 0.68771 0.1125 0.0
H1898 H 0.81599 0.73967 0.09292 0.0
H1899 H 0.82418 0.76228 0.1369 0.0
H1900 H 0.74673 0.73188 0.15448 0.0
H1901 H 0.74103 0.71171 0.17685 0.0
H1902 H 0.73881 0.69955 0.14366 0.0
H1903 H 0.76546 0.67266 0.15634 0.0
H1904 H 0.76773 0.6847 0.18955 0.0
H1905 H 0.79163 0.6866 0.17588 0.0
H1906 H 0.82842 0.778 0.18326 0.0
H1907 H 0.82751 0.78694 0.22907 0.0
H1908 H 0.77239 0.72653 0.21919 0.0
C1909 C 0.77768 0.70388 0.11746 0.0
C1910 C 0.78979 0.71185 0.09917 0.0
C1911 C 0.80645 0.73318 0.10646 0.0
C1912 C 0.81125 0.74617 0.13145 0.0
C1913 C 0.79909 0.73783 0.14897 0.0
C1914 C 0.78254 0.7173 0.14234 0.0
C1915 C 0.77204 0.71235 0.16503 0.0
C1916 C 0.74824 0.71398 0.15968 0.0
C1917 C 0.77436 0.68761 0.17211 0.0
C1918 C 0.78551 0.73311 0.18552 0.0
C1919 C 0.80106 0.74749 0.17575 0.0
C1920 C 0.81618 0.76703 0.19106 0.0
C1921 C 0.81556 0.77192 0.21708 0.0
C1922 C 0.79979 0.75756 0.22762 0.0
C1923 C 0.78438 0.73806 0.21153 0.0
H1924 H 0.12763 0.06129 0.76126 0.0
H1925 H 0.12702 0.98498 0.7609 0.0
H1926 H 0.10923 0.97571 0.71552 0.0
H1927 H 0.07554 0.05222 0.71974 0.0
H1928 H 0.0838 0.07716 0.70351 0.0
H1929 H 0.09652 0.078 0.7361 0.0
H1930 H 0.13398 0.0846 0.72316 0.0
H1931 H 0.12137 0.08375 0.69052 0.0
H1932 H 0.13863 0.06331 0.69798 0.0
H1933 H 0.09194 0.9745 0.67032 0.0
H1934 H 0.0756 0.98116 0.62806 0.0
H1935 H 0.08686 0.05832 0.65698 0.0
C1936 C 0.12372 0.04262 0.75165 0.0
C1937 C 0.12875 0.02385 0.76474 0.0
C1938 C 0.12335 0.99968 0.7514 0.0
C1939 C 0.11324 0.99421 0.72557 0.0
C1940 C 0.10857 1.01309 0.71325 0.0
C1941 C 0.11356 0.0368 0.7258 0.0
C1942 C 0.10671 0.05362 0.70795 0.0
C1943 C 0.08962 0.06597 0.71739 0.0
C1944 C 0.12634 0.07243 0.70472 0.0
C1945 C 0.09712 0.03562 0.68344 0.0
C1946 C 0.09842 1.01237 0.68701 0.0
C1947 C 0.09079 0.99261 0.6673 0.0
C1948 C 0.0815 0.99665 0.64328 0.0
C1949 C 0.07983 0.0203 0.63903 0.0
C1950 C 0.08782 0.04002 0.65951 0.0
H1951 H 0.78665 0.33882 0.43422 0.0
H1952 H 0.73428 0.28049 0.44064 0.0
H1953 H 0.74615 0.25255 0.40942 0.0
H1954 H 0.78287 0.32707 0.37004 0.0
H1955 H 0.81163 0.33492 0.37121 0.0
H1956 H 0.80052 0.34808 0.39658 0.0
H1957 H 0.82682 0.33194 0.4286 0.0
H1958 H 0.83717 0.31807 0.40262 0.0
H1959 H 0.82635 0.29996 0.42453 0.0
H1960 H 0.76067 0.23307 0.37299 0.0
H1961 H 0.77555 0.22441 0.33394 0.0
H1962 H 0.81807 0.29582 0.35215 0.0
C1963 C 0.77785 0.32005 0.4294 0.0
C1964 C 0.75947 0.31177 0.4396 0.0
C1965 C 0.74846 0.28711 0.433 0.0
C1966 C 0.75515 0.27114 0.41542 0.0
C1967 C 0.77312 0.28011 0.4052 0.0
C1968 C 0.78442 0.30398 0.41222 0.0
C1969 C 0.80191 0.30996 0.397 0.0
C1970 C 0.799 0.33122 0.38285 0.0
C1971 C 0.82439 0.31529 0.41422 0.0
C1972 C 0.79764 0.28627 0.37886 0.0
C1973 C 0.78147 0.26896 0.38436 0.0
C1974 C 0.77367 0.24627 0.36887 0.0
C1975 C 0.78219 0.24146 0.34685 0.0
C1976 C 0.79801 0.25944 0.34056 0.0
C1977 C 0.80619 0.28177 0.357 0.0
H1978 H 0.49634 0.06306 0.24145 0.0
H1979 H 0.4282 0.03886 0.20797 0.0
H1980 H 0.43751 0.03148 0.1651 0.0
H1981 H 0.5121 0.09378 0.1895 0.0
H1982 H 0.53766 0.08509 0.19184 0.0
H1983 H 0.52567 0.08869 0.21969 0.0
H1984 H 0.52763 0.04498 0.22605 0.0
H1985 H 0.5396 0.04126 0.1982 0.0
H1986 H 0.51536 0.02011 0.20023 0.0
H1987 H 0.45499 0.02643 0.12438 0.0
H1988 H 0.47772 0.02433 0.09183 0.0
H1989 H 0.5351 0.05155 0.15088 0.0
C1990 C 0.48323 0.05624 0.22517 0.0
C1991 C 0.46125 0.05163 0.22876 0.0
C1992 C 0.44503 0.04269 0.20639 0.0
C1993 C 0.45027 0.0384 0.18172 0.0
C1994 C 0.47198 0.04308 0.17902 0.0
C1995 C 0.48822 0.0519 0.20028 0.0
C1996 C 0.51033 0.05547 0.19224 0.0
C1997 C 0.52214 0.08235 0.19871 0.0
C1998 C 0.52404 0.03951 0.20494 0.0
C1999 C 0.50416 0.04707 0.16321 0.0
C2000 C 0.48191 0.04009 0.15598 0.0
C2001 C 0.47238 0.03185 0.13017 0.0
C2002 C 0.48561 0.03065 0.11156 0.0
C2003 C 0.50856 0.03749 0.11811 0.0
C2004 C 0.51776 0.04592 0.14468 0.0
H2005 H 0.8145 0.69662 0.96474 0.0
H2006 H 0.74958 0.70276 0.97175 0.0
H2007 H 0.74873 0.72759 0.93729 0.0
H2008 H 0.83306 0.75711 0.95334 0.0
H2009 H 0.84905 0.74823 0.93078 0.0
H2010 H 0.84432 0.73078 0.95568 0.0
H2011 H 0.82866 0.69199 0.92172 0.0
H2012 H 0.83332 0.70934 0.89672 0.0
H2013 H 0.80666 0.69178 0.89619 0.0
H2014 H 0.75533 0.75232 0.90163 0.0
H2015 H 0.76893 0.77468 0.86901 0.0
H2016 H 0.82935 0.75212 0.88538 0.0
C2017 C 0.80005 0.70313 0.95908 0.0
C2018 C 0.78207 0.69763 0.9711 0.0
C2019 C 0.76356 0.70665 0.96295 0.0
C2020 C 0.76293 0.72078 0.94333 0.0
C2021 C 0.78094 0.72581 0.93193 0.0
C2022 C 0.79916 0.71723 0.93956 0.0
C2023 C 0.81646 0.72528 0.92443 0.0
C2024 C 0.83693 0.7413 0.94211 0.0
C2025 C 0.82157 0.70329 0.90884 0.0
C2026 C 0.80521 0.73984 0.90713 0.0
C2027 C 0.78471 0.73989 0.91165 0.0
C2028 C 0.77135 0.75226 0.89796 0.0
C2029 C 0.77915 0.76487 0.87933 0.0
C2030 C 0.80012 0.7651 0.87444 0.0
C2031 C 0.81323 0.75234 0.88862 0.0
H2032 H 0.88214 0.16332 0.06821 0.0
H2033 H 0.84192 0.14619 0.99243 0.0
H2034 H 0.86891 0.12621 0.97627 0.0
H2035 H 0.93643 0.16989 0.04804 0.0
H2036 H 0.94644 0.15535 0.07379 0.0
H2037 H 0.927 0.17365 0.07773 0.0
H2038 H 0.90181 0.1373 0.0899 0.0
H2039 H 0.92098 0.11893 0.0858 0.0
H2040 H 0.89362 0.10882 0.06814 0.0
H2041 H 0.89698 0.10221 0.97021 0.0
H2042 H 0.92317 0.07601 0.97497 0.0
H2043 H 0.94277 0.10686 0.05557 0.0
C2044 C 0.87939 0.15625 0.04799 0.0
C2045 C 0.86005 0.15642 0.03153 0.0
C2046 C 0.85674 0.14635 1.00534 0.0
C2047 C 0.87202 0.13507 0.99597 0.0
C2048 C 0.89049 0.13414 0.01304 0.0
C2049 C 0.89428 0.14465 0.03849 0.0
C2050 C 0.91346 0.13805 0.05379 0.0
C2051 C 0.93193 0.16058 0.06393 0.0
C2052 C 0.90707 0.12499 0.07566 0.0
C2053 C 0.91915 0.12113 0.03331 0.0
C2054 C 0.90618 0.11958 0.00977 0.0
C2055 C 0.90746 0.10356 0.98847 0.0
C2056 C 0.92219 0.08854 0.99143 0.0
C2057 C 0.9351 0.08933 0.01565 0.0
C2058 C 0.93367 0.10618 0.03662 0.0
H2059 H 0.39267 0.4659 0.09703 0.0
H2060 H 0.39564 0.4009 0.04711 0.0
H2061 H 0.43023 0.42177 0.0385 0.0
H2062 H 0.4169 0.50947 0.06052 0.0
H2063 H 0.43236 0.53079 0.08816 0.0
H2064 H 0.4073 0.51115 0.09019 0.0
H2065 H 0.42703 0.49527 0.12813 0.0
H2066 H 0.45215 0.51483 0.12618 0.0
H2067 H 0.4501 0.48266 0.1244 0.0
H2068 H 0.4639 0.4495 0.03378 0.0
H2069 H 0.49582 0.48209 0.03533 0.0
H2070 H 0.47365 0.52902 0.09039 0.0
C2071 C 0.40059 0.45616 0.08422 0.0
C2072 C 0.39127 0.43167 0.07274 0.0
C2073 C 0.40234 0.41955 0.05629 0.0
C2074 C 0.42205 0.43129 0.05116 0.0
C2075 C 0.43087 0.45523 0.06281 0.0
C2076 C 0.42068 0.46757 0.07917 0.0
C2077 C 0.43425 0.49309 0.08964 0.0
C2078 C 0.42197 0.51226 0.08164 0.0
C2079 C 0.4413 0.49667 0.11882 0.0
C2080 C 0.45348 0.49307 0.07647 0.0
C2081 C 0.45102 0.47105 0.06094 0.0
C2082 C 0.46616 0.46672 0.04615 0.0
C2083 C 0.48435 0.48532 0.04728 0.0
C2084 C 0.48758 0.50793 0.06341 0.0
C2085 C 0.47183 0.5118 0.07816 0.0
H2086 H 0.39747 0.56135 0.72364 0.0
H2087 H 0.39959 0.5458 0.80077 0.0
H2088 H 0.37908 0.577 0.80994 0.0
H2089 H 0.40494 0.62516 0.73989 0.0
H2090 H 0.38682 0.62828 0.71186 0.0
H2091 H 0.40068 0.60381 0.71073 0.0
H2092 H 0.36407 0.57267 0.69552 0.0
H2093 H 0.3501 0.59707 0.69651 0.0
H2094 H 0.34325 0.57284 0.71417 0.0
H2095 H 0.35981 0.6108 0.81147 0.0
H2096 H 0.34212 0.64468 0.80493 0.0
H2097 H 0.3527 0.6387 0.72697 0.0
C2098 C 0.39343 0.56431 0.74238 0.0
C2099 C 0.40012 0.5511 0.76148 0.0
C2100 C 0.39464 0.55567 0.78582 0.0
C2101 C 0.38298 0.57335 0.79122 0.0
C2102 C 0.37689 0.58625 0.77209 0.0
C2103 C 0.38181 0.58192 0.74812 0.0
C2104 C 0.37381 0.59882 0.73122 0.0
C2105 C 0.39269 0.61497 0.72295 0.0
C2106 C 0.3568 0.58449 0.70798 0.0
C2107 C 0.36382 0.61347 0.74955 0.0
C2108 C 0.36575 0.60587 0.77299 0.0
C2109 C 0.35816 0.61691 0.79319 0.0
C2110 C 0.3483 0.63625 0.78935 0.0
C2111 C 0.34614 0.64441 0.76549 0.0
C2112 C 0.35395 0.63273 0.74534 0.0
H2113 H 0.26687 0.58695 0.54545 0.0
H2114 H 0.29835 0.6132 0.62442 0.0
H2115 H 0.27092 0.58382 0.63814 0.0
H2116 H 0.21901 0.58801 0.55329 0.0
H2117 H 0.20392 0.56118 0.53127 0.0
H2118 H 0.22978 0.5762 0.52662 0.0
H2119 H 0.24334 0.53646 0.52739 0.0
H2120 H 0.21722 0.5211 0.53176 0.0
H2121 H 0.24122 0.52055 0.55399 0.0
H2122 H 0.2359 0.56289 0.64407 0.0
H2123 H 0.19678 0.55265 0.64176 0.0
H2124 H 0.18653 0.53835 0.55904 0.0
C2125 C 0.26861 0.58545 0.56549 0.0
C2126 C 0.28469 0.6021 0.58389 0.0
C2127 C 0.28615 0.60043 0.61005 0.0
C2128 C 0.27071 0.58366 0.61798 0.0
C2129 C 0.25398 0.56866 0.5995 0.0
C2130 C 0.253 0.56909 0.57367 0.0
C2131 C 0.23124 0.55522 0.55814 0.0
C2132 C 0.22037 0.57112 0.5414 0.0
C2133 C 0.23339 0.53194 0.54186 0.0
C2134 C 0.21941 0.54934 0.57942 0.0
C2135 C 0.23306 0.55629 0.60306 0.0
C2136 C 0.22519 0.55649 0.62569 0.0
C2137 C 0.20283 0.55059 0.62418 0.0
C2138 C 0.18856 0.54472 0.60017 0.0
C2139 C 0.19708 0.5428 0.57764 0.0
H2140 H 0.69181 0.91343 0.80564 0.0
H2141 H 0.74226 0.97734 0.83914 0.0
H2142 H 0.76894 0.95128 0.84277 0.0
H2143 H 0.71224 0.87148 0.84434 0.0
H2144 H 0.70454 0.84616 0.81839 0.0
H2145 H 0.68958 0.86968 0.81904 0.0
H2146 H 0.69636 0.87588 0.77408 0.0
H2147 H 0.71139 0.8524 0.77366 0.0
H2148 H 0.72364 0.88222 0.76863 0.0
H2149 H 0.79117 0.91638 0.84243 0.0
H2150 H 0.80531 0.8791 0.8382 0.0
H2151 H 0.74079 0.83689 0.80473 0.0
C2152 C 0.70847 0.92219 0.81385 0.0
C2153 C 0.71445 0.94815 0.82211 0.0
C2154 C 0.73671 0.95798 0.83261 0.0
C2155 C 0.75215 0.94306 0.83474 0.0
C2156 C 0.74562 0.91776 0.8264 0.0
C2157 C 0.72414 0.90745 0.81615 0.0
C2158 C 0.72118 0.87981 0.80836 0.0
C2159 C 0.70597 0.86599 0.82345 0.0
C2160 C 0.71263 0.87212 0.77946 0.0
C2161 C 0.74423 0.87594 0.81571 0.0
C2162 C 0.75811 0.89812 0.82613 0.0
C2163 C 0.78018 0.89914 0.83427 0.0
C2164 C 0.7882 0.87753 0.83177 0.0
C2165 C 0.7746 0.85427 0.8211 0.0
C2166 C 0.75207 0.85391 0.81301 0.0
H2167 H 0.75464 0.92715 0.53156 0.0
H2168 H 0.78376 0.94391 0.61224 0.0
H2169 H 0.75486 0.96487 0.6206 0.0
H2170 H 0.73828 0.98387 0.52777 0.0
H2171 H 0.71346 0.97004 0.50544 0.0
H2172 H 0.73643 0.95643 0.50591 0.0
H2173 H 0.71321 0.91597 0.51247 0.0
H2174 H 0.6902 0.9295 0.51221 0.0
H2175 H 0.69935 0.91568 0.53897 0.0
H2176 H 0.72216 0.98339 0.62024 0.0
H2177 H 0.68949 0.99959 0.61113 0.0
H2178 H 0.68203 0.97173 0.53042 0.0
C2179 C 0.75502 0.93527 0.55101 0.0
C2180 C 0.77158 0.93381 0.57126 0.0
C2181 C 0.77137 0.94478 0.59638 0.0
C2182 C 0.75495 0.95669 0.60133 0.0
C2183 C 0.73881 0.9576 0.58096 0.0
C2184 C 0.7388 0.94731 0.55627 0.0
C2185 C 0.71972 0.95105 0.53775 0.0
C2186 C 0.72744 0.96625 0.51806 0.0
C2187 C 0.70473 0.92659 0.52458 0.0
C2188 C 0.70893 0.96499 0.55586 0.0
C2189 C 0.72018 0.96851 0.58071 0.0
C2190 C 0.71335 0.98087 0.60082 0.0
C2191 C 0.69477 0.99014 0.59539 0.0
C2192 C 0.68309 0.9872 0.57 0.0
C2193 C 0.69032 0.97418 0.55007 0.0
H2194 H 0.38912 0.43281 0.75418 0.0
H2195 H 0.445 0.41488 0.79786 0.0
H2196 H 0.42133 0.37971 0.80865 0.0
H2197 H 0.35374 0.41902 0.79539 0.0
H2198 H 0.33015 0.40566 0.77094 0.0
H2199 H 0.35148 0.4282 0.76445 0.0
H2200 H 0.35504 0.39852 0.72546 0.0
H2201 H 0.33351 0.37594 0.73165 0.0
H2202 H 0.3593 0.36887 0.72961 0.0
H2203 H 0.39148 0.3504 0.81988 0.0
H2204 H 0.35754 0.3254 0.82632 0.0
H2205 H 0.32087 0.3594 0.77263 0.0
C2206 C 0.39643 0.4212 0.76558 0.0
C2207 C 0.41896 0.42667 0.77518 0.0
C2208 C 0.42784 0.41107 0.79015 0.0
C2209 C 0.4145 0.39105 0.79647 0.0
C2210 C 0.39234 0.38659 0.78734 0.0
C2211 C 0.38336 0.40089 0.77179 0.0
C2212 C 0.35894 0.39239 0.7651 0.0
C2213 C 0.34794 0.41252 0.77454 0.0
C2214 C 0.35125 0.38339 0.73624 0.0
C2215 C 0.35558 0.37159 0.77999 0.0
C2216 C 0.37509 0.36863 0.79271 0.0
C2217 C 0.37615 0.35196 0.80933 0.0
C2218 C 0.35679 0.33768 0.81274 0.0
C2219 C 0.33664 0.33974 0.79927 0.0
C2220 C 0.33607 0.35703 0.78275 0.0
H2221 H 0.20606 0.61934 0.3475 0.0
H2222 H 0.23367 0.57131 0.30005 0.0
H2223 H 0.25713 0.60713 0.28943 0.0
H2224 H 0.20586 0.66565 0.30808 0.0
H2225 H 0.21318 0.6907 0.33432 0.0
H2226 H 0.19879 0.66146 0.3385 0.0
H2227 H 0.22864 0.66136 0.37665 0.0
H2228 H 0.24319 0.69064 0.37274 0.0
H2229 H 0.25632 0.66552 0.37268 0.0
H2230 H 0.27606 0.64926 0.28118 0.0
H2231 H 0.29089 0.69228 0.2795 0.0
H2232 H 0.25367 0.71428 0.33491 0.0
C2233 C 0.21719 0.61623 0.33505 0.0
C2234 C 0.21778 0.59194 0.32472 0.0
C2235 C 0.23274 0.58927 0.30849 0.0
C2236 C 0.24615 0.60972 0.30222 0.0
C2237 C 0.24493 0.63322 0.31247 0.0
C2238 C 0.23101 0.63656 0.3289 0.0
C2239 C 0.23301 0.66379 0.33757 0.0
C2240 C 0.21142 0.67081 0.32911 0.0
C2241 C 0.24077 0.67075 0.36664 0.0
C2242 C 0.25013 0.67536 0.32343 0.0
C2243 C 0.25654 0.65731 0.30877 0.0
C2244 C 0.27125 0.66334 0.29292 0.0
C2245 C 0.27962 0.68806 0.29203 0.0
C2246 C 0.27386 0.70718 0.30719 0.0
C2247 C 0.25886 0.70043 0.32329 0.0
H2248 H 0.56284 0.69626 0.47663 0.0
H2249 H 0.49556 0.69882 0.473 0.0
H2250 H 0.49008 0.66243 0.49386 0.0
H2251 H 0.55494 0.63151 0.46351 0.0
H2252 H 0.57925 0.63096 0.4852 0.0
H2253 H 0.57766 0.65713 0.4702 0.0
H2254 H 0.5875 0.68447 0.51475 0.0
H2255 H 0.58896 0.65829 0.52982 0.0
H2256 H 0.57139 0.67766 0.5384 0.0
H2257 H 0.4919 0.62442 0.5141 0.0
H2258 H 0.50086 0.58918 0.53217 0.0
H2259 H 0.56727 0.61241 0.52368 0.0
C2260 C 0.5469 0.68925 0.48019 0.0
C2261 C 0.5296 0.70053 0.47304 0.0
C2262 C 0.50909 0.69064 0.47824 0.0
C2263 C 0.50583 0.66992 0.49011 0.0
C2264 C 0.52326 0.6593 0.49686 0.0
C2265 C 0.54342 0.66872 0.49213 0.0
C2266 C 0.55953 0.65398 0.50116 0.0
C2267 C 0.56835 0.64273 0.47868 0.0
C2268 C 0.57793 0.66953 0.52229 0.0
C2269 C 0.54531 0.63464 0.51162 0.0
C2270 C 0.52442 0.63796 0.50891 0.0
C2271 C 0.50826 0.62184 0.51644 0.0
C2272 C 0.51352 0.60182 0.52673 0.0
C2273 C 0.53484 0.59803 0.52969 0.0
C2274 C 0.55091 0.6149 0.52215 0.0
H2275 H 0.63831 0.29812 0.75737 0.0
H2276 H 0.65418 0.31153 0.68453 0.0
H2277 H 0.69204 0.30953 0.70045 0.0
H2278 H 0.68835 0.3346 0.79618 0.0
H2279 H 0.68926 0.31446 0.81929 0.0
H2280 H 0.66365 0.31675 0.80172 0.0
H2281 H 0.65392 0.27025 0.78628 0.0
H2282 H 0.67962 0.26787 0.80355 0.0
H2283 H 0.67177 0.25637 0.76978 0.0
H2284 H 0.72867 0.30404 0.72475 0.0
H2285 H 0.76035 0.30064 0.75626 0.0
H2286 H 0.72021 0.29301 0.81318 0.0
C2287 C 0.64974 0.30075 0.74475 0.0
C2288 C 0.64316 0.30493 0.71962 0.0
C2289 C 0.65877 0.30843 0.70388 0.0
C2290 C 0.68033 0.30716 0.71273 0.0
C2291 C 0.68618 0.30266 0.73752 0.0
C2292 C 0.67133 0.29991 0.7534 0.0
C2293 C 0.68166 0.29605 0.77948 0.0
C2294 C 0.68067 0.3167 0.8004 0.0
C2295 C 0.67111 0.27116 0.78509 0.0
C2296 C 0.70463 0.29692 0.77589 0.0
C2297 C 0.707 0.30043 0.7515 0.0
C2298 C 0.7269 0.3014 0.7439 0.0
C2299 C 0.7448 0.29925 0.76182 0.0
C2300 C 0.74272 0.29647 0.78711 0.0
C2301 C 0.7223 0.29513 0.79398 0.0
H2302 H 1.01203 0.3444 0.01954 0.0
H2303 H 0.04578 0.34529 0.95597 0.0
H2304 H 0.05339 0.38991 0.96342 0.0
H2305 H 0.98751 0.3949 0.00784 0.0
H2306 H 0.99052 0.40716 0.04116 0.0
H2307 H 0.98763 0.37507 0.03131 0.0
H2308 H 0.02332 0.37658 0.06225 0.0
H2309 H 0.02624 0.40863 0.07233 0.0
H2310 H 0.04759 0.39763 0.06013 0.0
H2311 H 0.05814 0.43382 0.97761 0.0
H2312 H 0.06039 0.4755 0.99836 0.0
H2313 H 0.02279 0.44801 0.05252 0.0
C2314 C 0.02112 0.354 1.00728 0.0
C2315 C 0.02834 0.3412 0.98714 0.0
C2316 C 0.04004 0.35453 0.97147 0.0
C2317 C 0.04443 0.37993 0.97552 0.0
C2318 C 0.03694 0.39192 0.99527 0.0
C2319 C 0.02555 0.37953 0.01096 0.0
C2320 C 0.01947 0.39717 0.03083 0.0
C2321 C 0.99481 0.39334 0.02758 0.0
C2322 C 0.02977 0.39486 0.05799 0.0
C2323 C 0.02938 0.42138 0.02392 0.0
C2324 C 0.03934 0.41771 1.00329 0.0
C2325 C 0.05031 0.43693 0.99367 0.0
C2326 C 0.05149 0.46056 1.00561 0.0
C2327 C 0.04167 0.46501 0.02693 0.0
C2328 C 0.03014 0.44513 0.03601 0.0
H2329 H 1.00112 0.80089 0.17311 0.0
H2330 H 0.05517 0.80518 0.23467 0.0
H2331 H 0.03027 0.80209 0.2651 0.0
H2332 H 0.97173 0.83604 0.21003 0.0
H2333 H 0.94563 0.81762 0.19431 0.0
H2334 H 0.96775 0.82092 0.17748 0.0
H2335 H 0.96253 0.77422 0.16805 0.0
H2336 H 0.9404 0.77077 0.18482 0.0
H2337 H 0.96295 0.75738 0.19416 0.0
H2338 H 0.99931 0.79714 0.2886 0.0
H2339 H 0.96478 0.79085 0.30362 0.0
H2340 H 0.93051 0.78989 0.22696 0.0
C2341 C 1.0078 0.80133 0.19302 0.0
C2342 C 0.03022 0.80331 0.20145 0.0
C2343 C 0.03814 0.80373 0.22769 0.0
C2344 C 0.02409 0.802 0.24514 0.0
C2345 C 1.00211 0.79994 0.23614 0.0
C2346 C 0.994 0.79967 0.21071 0.0
C2347 C 0.96964 0.79685 0.20591 0.0
C2348 C 0.96332 0.81919 0.19637 0.0
C2349 C 0.95821 0.77341 0.18712 0.0
C2350 C 0.96526 0.7953 0.23258 0.0
C2351 C 0.98426 0.79718 0.24971 0.0
C2352 C 0.98437 0.79569 0.27535 0.0
C2353 C 0.96462 0.79197 0.28367 0.0
C2354 C 0.94485 0.78973 0.26649 0.0
C2355 C 0.94531 0.79173 0.24063 0.0
H2356 H 0.55909 0.31534 0.17857 0.0
H2357 H 0.62781 0.33804 0.21017 0.0
H2358 H 0.63035 0.37225 0.18612 0.0
H2359 H 0.5621 0.32746 0.11659 0.0
H2360 H 0.53742 0.33807 0.11208 0.0
H2361 H 0.54083 0.31634 0.13295 0.0
H2362 H 0.53306 0.34495 0.17016 0.0
H2363 H 0.52943 0.36669 0.14933 0.0
H2364 H 0.5488 0.37569 0.17898 0.0
H2365 H 0.62542 0.40304 0.15695 0.0
H2366 H 0.61328 0.42805 0.12564 0.0
H2367 H 0.5479 0.38476 0.114 0.0
C2368 C 0.57467 0.32762 0.1807 0.0
C2369 C 0.59325 0.32405 0.19628 0.0
C2370 C 0.61333 0.34047 0.19838 0.0
C2371 C 0.61494 0.35993 0.18479 0.0
C2372 C 0.59632 0.36269 0.1693 0.0
C2373 C 0.57656 0.34703 0.16732 0.0
C2374 C 0.55906 0.35346 0.1489 0.0
C2375 C 0.54929 0.33259 0.12629 0.0
C2376 C 0.54156 0.36063 0.16267 0.0
C2377 C 0.57209 0.37504 0.14055 0.0
C2378 C 0.59353 0.3802 0.15256 0.0
C2379 C 0.60864 0.39924 0.14754 0.0
C2380 C 0.6016 0.41336 0.1298 0.0
C2381 C 0.57968 0.40825 0.11727 0.0
C2382 C 0.56483 0.38887 0.12291 0.0
H2383 H 0.9675 0.25928 0.33438 0.0
H2384 H 0.98407 0.32621 0.3894 0.0
H2385 H 0.94699 0.33166 0.37798 0.0
H2386 H 0.93285 0.27969 0.28652 0.0
H2387 H 0.91367 0.25093 0.27719 0.0
H2388 H 0.94155 0.25191 0.28985 0.0
H2389 H 0.93002 0.22777 0.32481 0.0
H2390 H 0.9021 0.22672 0.31224 0.0
H2391 H 0.91344 0.23904 0.34535 0.0
H2392 H 0.90843 0.3302 0.36084 0.0
H2393 H 0.87052 0.32195 0.33855 0.0
H2394 H 0.87871 0.25615 0.29438 0.0
C2395 C 0.96332 0.27506 0.34404 0.0
C2396 C 0.97872 0.29229 0.36279 0.0
C2397 C 0.97259 0.31272 0.37497 0.0
C2398 C 0.95154 0.31601 0.36864 0.0
C2399 C 0.93678 0.29873 0.3501 0.0
C2400 C 0.94233 0.27866 0.33794 0.0
C2401 C 0.9233 0.26295 0.31857 0.0
C2402 C 0.92814 0.26129 0.29143 0.0
C2403 C 0.91684 0.23762 0.32567 0.0
C2404 C 0.9063 0.27744 0.32172 0.0
C2405 C 0.91443 0.29796 0.34006 0.0
C2406 C 0.90184 0.31419 0.34641 0.0
C2407 C 0.88031 0.30933 0.33361 0.0
C2408 C 0.87161 0.28844 0.31464 0.0
C2409 C 0.88486 0.27231 0.30871 0.0
H2410 H 0.05645 0.67925 0.67159 0.0
H2411 H 0.03627 0.72504 0.61821 0.0
H2412 H 0.03541 0.69315 0.58216 0.0
H2413 H 0.09069 0.65288 0.63514 0.0
H2414 H 0.0829 0.62317 0.64333 0.0
H2415 H 0.08234 0.64973 0.66513 0.0
H2416 H 0.04204 0.63227 0.66544 0.0
H2417 H 0.04256 0.60559 0.64386 0.0
H2418 H 0.02291 0.62319 0.63561 0.0
H2419 H 0.03649 0.65621 0.55185 0.0
H2420 H 0.03657 0.61541 0.52966 0.0
H2421 H 0.05609 0.59403 0.60282 0.0
C2422 C 0.05184 0.68257 0.65232 0.0
C2423 C 0.04648 0.70466 0.64771 0.0
C2424 C 0.0404 0.70824 0.62222 0.0
C2425 C 0.03997 0.6903 0.6016 0.0
C2426 C 0.04559 0.66886 0.60679 0.0
C2427 C 0.05119 0.6648 0.63152 0.0
C2428 C 0.0558 0.63984 0.63188 0.0
C2429 C 0.07933 0.64152 0.64462 0.0
C2430 C 0.03988 0.62431 0.64496 0.0
C2431 C 0.05186 0.6305 0.6035 0.0
C2432 C 0.04613 0.64755 0.58934 0.0
C2433 C 0.04103 0.64273 0.56272 0.0
C2434 C 0.04121 0.61959 0.55028 0.0
C2435 C 0.04635 0.60167 0.56455 0.0
C2436 C 0.05223 0.60745 0.59143 0.0
H2437 H 0.59061 0.83715 0.84122 0.0
H2438 H 0.62115 0.87551 0.91748 0.0
H2439 H 0.65623 0.86861 0.90973 0.0
H2440 H 0.61509 0.79179 0.84052 0.0
H2441 H 0.61936 0.78881 0.8081 0.0
H2442 H 0.59771 0.80186 0.81633 0.0
H2443 H 0.61247 0.84097 0.7992 0.0
H2444 H 0.63386 0.82771 0.79006 0.0
H2445 H 0.64025 0.85685 0.81051 0.0
H2446 H 0.68458 0.84812 0.89863 0.0
H2447 H 0.70671 0.8219 0.88197 0.0
H2448 H 0.65953 0.79985 0.8108 0.0
C2449 C 0.60487 0.84505 0.85582 0.0
C2450 C 0.60319 0.85677 0.87995 0.0
C2451 C 0.62209 0.86662 0.89878 0.0
C2452 C 0.6421 0.86274 0.89457 0.0
C2453 C 0.64297 0.84961 0.87121 0.0
C2454 C 0.62503 0.84164 0.85176 0.0
C2455 C 0.62989 0.82597 0.82943 0.0
C2456 C 0.61461 0.80062 0.82326 0.0
C2457 C 0.62907 0.83864 0.80591 0.0
C2458 C 0.65276 0.82473 0.84026 0.0
C2459 C 0.66006 0.83872 0.86423 0.0
C2460 C 0.6795 0.838 0.87939 0.0
C2461 C 0.692 0.82296 0.86964 0.0
C2462 C 0.68525 0.80903 0.84469 0.0
C2463 C 0.66532 0.81015 0.82988 0.0
H2464 H 0.4636 0.47984 0.67408 0.0
H2465 H 0.47895 0.54721 0.72815 0.0
H2466 H 0.49991 0.5676 0.69955 0.0
H2467 H 0.51498 0.48639 0.65673 0.0
H2468 H 0.5046 0.47342 0.62358 0.0
H2469 H 0.48957 0.46447 0.64749 0.0
H2470 H 0.45624 0.47675 0.62324 0.0
H2471 H 0.47127 0.48589 0.59933 0.0
H2472 H 0.45886 0.50708 0.61606 0.0
H2473 H 0.52043 0.5805 0.6658 0.0
H2474 H 0.54021 0.58411 0.6302 0.0
H2475 H 0.51206 0.50838 0.5987 0.0
C2476 C 0.47121 0.49892 0.67982 0.0
C2477 C 0.46957 0.51189 0.70339 0.0
C2478 C 0.47997 0.53682 0.71024 0.0
C2479 C 0.49185 0.54864 0.69406 0.0
C2480 C 0.49322 0.53533 0.67103 0.0
C2481 C 0.48324 0.511 0.66391 0.0
C2482 C 0.48811 0.50062 0.63868 0.0
C2483 C 0.50003 0.48002 0.64182 0.0
C2484 C 0.46738 0.49208 0.61811 0.0
C2485 C 0.50267 0.52278 0.63301 0.0
C2486 C 0.50522 0.5427 0.65172 0.0
C2487 C 0.51845 0.56505 0.65095 0.0
C2488 C 0.52962 0.56695 0.6307 0.0
C2489 C 0.52755 0.5466 0.61166 0.0
C2490 C 0.5137 0.52436 0.61276 0.0
H2491 H 0.74423 0.16372 0.98522 0.0
H2492 H 0.73918 0.2046 0.0567 0.0
H2493 H 0.72517 0.23439 0.03358 0.0
H2494 H 0.76691 0.20713 0.96148 0.0
H2495 H 0.75361 0.19833 0.92841 0.0
H2496 H 0.75458 0.17575 0.94835 0.0
H2497 H 0.71289 0.16192 0.93767 0.0
H2498 H 0.71182 0.18453 0.91728 0.0
H2499 H 0.6966 0.18377 0.94255 0.0
H2500 H 0.72554 0.26579 1.00657 0.0
H2501 H 0.73686 0.29368 0.97737 0.0
H2502 H 0.73954 0.23248 0.92227 0.0
C2503 C 0.73895 0.17823 0.99571 0.0
C2504 C 0.74274 0.18195 0.02258 0.0
C2505 C 0.73612 0.20126 0.03602 0.0
C2506 C 0.72812 0.21831 0.02299 0.0
C2507 C 0.7263 0.21534 0.99653 0.0
C2508 C 0.73083 0.19525 0.98287 0.0
C2509 C 0.73145 0.19834 0.9555 0.0
C2510 C 0.75291 0.19472 0.94807 0.0
C2511 C 0.71202 0.18112 0.93717 0.0
C2512 C 0.72941 0.2244 0.95681 0.0
C2513 C 0.72567 0.23369 0.98033 0.0
C2514 C 0.72748 0.25853 0.9877 0.0
C2515 C 0.73405 0.27429 0.97112 0.0
C2516 C 0.73867 0.26509 0.94747 0.0
C2517 C 0.73526 0.23982 0.93982 0.0
H2518 H 0.10589 0.52837 0.25162 0.0
H2519 H 0.16346 0.50862 0.23206 0.0
H2520 H 0.14967 0.51003 0.18647 0.0
H2521 H 0.06857 0.49282 0.19497 0.0
H2522 H 0.05214 0.5149 0.19277 0.0
H2523 H 0.06679 0.51227 0.22339 0.0
H2524 H 0.08518 0.5579 0.23077 0.0
H2525 H 0.07069 0.56063 0.2001 0.0
H2526 H 0.09974 0.56968 0.20753 0.0
H2527 H 0.12868 0.51562 0.14095 0.0
H2528 H 0.10293 0.52126 0.1035 0.0
H2529 H 0.05881 0.53553 0.15319 0.0
C2530 C 0.11568 0.52419 0.23784 0.0
C2531 C 0.13601 0.51835 0.24603 0.0
C2532 C 0.14791 0.51301 0.2268 0.0
C2533 C 0.14015 0.5139 0.20065 0.0
C2534 C 0.12017 0.51995 0.19339 0.0
C2535 C 0.10804 0.5247 0.21164 0.0
C2536 C 0.08691 0.53032 0.19925 0.0
C2537 C 0.06745 0.51146 0.20281 0.0
C2538 C 0.08556 0.55617 0.21006 0.0
C2539 C 0.0889 0.52819 0.1712 0.0
C2540 C 0.10825 0.5224 0.16802 0.0
C2541 C 0.11352 0.52005 0.14358 0.0
C2542 C 0.09878 0.52344 0.12222 0.0
C2543 C 0.07864 0.52896 0.12497 0.0
C2544 C 0.07394 0.5313 0.15006 0.0
H2545 H 0.80085 0.86028 0.49535 0.0
H2546 H 0.85258 0.82862 0.52874 0.0
H2547 H 0.85182 0.80557 0.48668 0.0
H2548 H 0.77173 0.80528 0.4483 0.0
H2549 H 0.76443 0.82242 0.42371 0.0
H2550 H 0.76766 0.83541 0.45686 0.0
H2551 H 0.7956 0.87245 0.4505 0.0
H2552 H 0.7925 0.85955 0.41739 0.0
H2553 H 0.81889 0.86764 0.43772 0.0
H2554 H 0.84837 0.78899 0.44133 0.0
H2555 H 0.84097 0.77783 0.3945 0.0
H2556 H 0.79028 0.81799 0.38884 0.0
C2557 C 0.81176 0.8482 0.49384 0.0
C2558 C 0.82681 0.84633 0.51549 0.0
C2559 C 0.84092 0.83046 0.5126 0.0
C2560 C 0.84061 0.8172 0.48872 0.0
C2561 C 0.82594 0.81973 0.46778 0.0
C2562 C 0.81158 0.83459 0.46999 0.0
C2563 C 0.79804 0.83444 0.44396 0.0
C2564 C 0.77404 0.82375 0.44317 0.0
C2565 C 0.80147 0.86004 0.43699 0.0
C2566 C 0.80747 0.81769 0.42686 0.0
C2567 C 0.82353 0.80946 0.44118 0.0
C2568 C 0.83565 0.79502 0.42992 0.0
C2569 C 0.83139 0.78889 0.40329 0.0
C2570 C 0.81502 0.79696 0.38808 0.0
C2571 C 0.80267 0.81128 0.40006 0.0
H2572 H 0.45983 0.47838 0.8662 0.0
H2573 H 0.49174 0.54131 0.83846 0.0
H2574 H 0.5156 0.55582 0.88086 0.0
H2575 H 0.46013 0.50754 0.92824 0.0
H2576 H 0.46558 0.48269 0.94383 0.0
H2577 H 0.45164 0.47685 0.91107 0.0
H2578 H 0.4804 0.45438 0.89786 0.0
H2579 H 0.49441 0.46011 0.93063 0.0
H2580 H 0.50853 0.46963 0.90611 0.0
H2581 H 0.53359 0.5653 0.92754 0.0
H2582 H 0.54643 0.56716 0.97384 0.0
H2583 H 0.5045 0.49664 0.97001 0.0
C2584 C 0.47195 0.49512 0.869 0.0
C2585 C 0.4739 0.50878 0.8491 0.0
C2586 C 0.49003 0.53052 0.85343 0.0
C2587 C 0.50362 0.53893 0.87746 0.0
C2588 C 0.50111 0.52516 0.89678 0.0
C2589 C 0.48589 0.50354 0.89269 0.0
C2590 C 0.48641 0.4922 0.91663 0.0
C2591 C 0.46465 0.48969 0.92546 0.0
C2592 C 0.49283 0.46763 0.91256 0.0
C2593 C 0.50399 0.51108 0.93499 0.0
C2594 C 0.5122 0.53003 0.92324 0.0
C2595 C 0.52756 0.55036 0.93682 0.0
C2596 C 0.53471 0.5513 0.96309 0.0
C2597 C 0.52669 0.53189 0.97535 0.0
C2598 C 0.51128 0.51149 0.961 0.0
H2599 H 0.83063 0.21619 0.12033 0.0
H2600 H 0.78583 0.24795 0.0737 0.0
H2601 H 0.78471 0.27669 0.11171 0.0
H2602 H 0.80726 0.21682 0.17349 0.0
H2603 H 0.83259 0.2244 0.19598 0.0
H2604 H 0.83105 0.20899 0.16432 0.0
H2605 H 0.86266 0.24376 0.15983 0.0
H2606 H 0.86295 0.25932 0.19131 0.0
H2607 H 0.85955 0.27466 0.16421 0.0
H2608 H 0.7838 0.29699 0.15548 0.0
H2609 H 0.78535 0.30961 0.20157 0.0
H2610 H 0.83278 0.26697 0.21945 0.0
C2611 C 0.82103 0.22963 0.11806 0.0
C2612 C 0.80834 0.22993 0.09419 0.0
C2613 C 0.79586 0.24763 0.09182 0.0
C2614 C 0.79509 0.26397 0.1133 0.0
C2615 C 0.80725 0.26267 0.13678 0.0
C2616 C 0.82036 0.2463 0.13919 0.0
C2617 C 0.83087 0.24767 0.16678 0.0
C2618 C 0.82505 0.22302 0.17564 0.0
C2619 C 0.85547 0.25691 0.17076 0.0
C2620 C 0.82057 0.26629 0.17967 0.0
C2621 C 0.80719 0.27493 0.16202 0.0
C2622 C 0.79457 0.29077 0.16946 0.0
C2623 C 0.7955 0.29778 0.19564 0.0
C2624 C 0.80894 0.28892 0.21394 0.0
C2625 C 0.82203 0.27354 0.20582 0.0
H2626 H 0.16712 0.53528 0.43015 0.0
H2627 H 0.11749 0.51011 0.36174 0.0
H2628 H 0.08952 0.5103 0.38841 0.0
H2629 H 0.13921 0.50054 0.47222 0.0
H2630 H 0.14839 0.52413 0.49987 0.0
H2631 H 0.16453 0.52206 0.47565 0.0
H2632 H 0.16449 0.5664 0.47057 0.0
H2633 H 0.14833 0.56856 0.49476 0.0
H2634 H 0.13915 0.57538 0.46362 0.0
H2635 H 0.06616 0.51322 0.42341 0.0
H2636 H 0.05003 0.51844 0.46142 0.0
H2637 H 0.11396 0.54195 0.50926 0.0
C2638 C 0.15036 0.52976 0.42058 0.0
C2639 C 0.14494 0.52262 0.39318 0.0
C2640 C 0.12256 0.51566 0.38222 0.0
C2641 C 0.10641 0.51573 0.39745 0.0
C2642 C 0.11238 0.52282 0.42414 0.0
C2643 C 0.13392 0.52974 0.43564 0.0
C2644 C 0.13597 0.53662 0.4648 0.0
C2645 C 0.14773 0.51984 0.47897 0.0
C2646 C 0.14769 0.56333 0.47398 0.0
C2647 C 0.11227 0.53255 0.46806 0.0
C2648 C 0.09902 0.52456 0.44421 0.0
C2649 C 0.07659 0.51951 0.44199 0.0
C2650 C 0.06747 0.52261 0.46412 0.0
C2651 C 0.08025 0.53077 0.48919 0.0
C2652 C 0.10328 0.53577 0.49083 0.0
H2653 H 0.82791 0.88886 0.68257 0.0
H2654 H 0.81905 0.83208 0.61721 0.0
H2655 H 0.81358 0.80114 0.64508 0.0
H2656 H 0.85669 0.85922 0.72906 0.0
H2657 H 0.84399 0.8698 0.75445 0.0
H2658 H 0.84818 0.88751 0.7296 0.0
H2659 H 0.80735 0.88703 0.7198 0.0
H2660 H 0.80306 0.86937 0.74462 0.0
H2661 H 0.78793 0.85839 0.71256 0.0
H2662 H 0.80683 0.77607 0.67999 0.0
H2663 H 0.79999 0.7594 0.71891 0.0
H2664 H 0.81424 0.83249 0.76157 0.0
C2665 C 0.82501 0.86994 0.6741 0.0
C2666 C 0.82394 0.863 0.64758 0.0
C2667 C 0.82002 0.83796 0.63741 0.0
C2668 C 0.81689 0.82021 0.65312 0.0
C2669 C 0.81786 0.82768 0.67911 0.0
C2670 C 0.82196 0.85198 0.68955 0.0
C2671 C 0.8217 0.85522 0.71794 0.0
C2672 C 0.84397 0.86874 0.73369 0.0
C2673 C 0.80395 0.86827 0.72408 0.0
C2674 C 0.81647 0.82897 0.72178 0.0
C2675 C 0.81436 0.81333 0.69918 0.0
C2676 C 0.80866 0.78819 0.69782 0.0
C2677 C 0.80481 0.77886 0.72001 0.0
C2678 C 0.80673 0.79458 0.74331 0.0
C2679 C 0.81291 0.81995 0.74415 0.0
H2680 H 0.69357 0.38737 0.52837 0.0
H2681 H 0.68668 0.39331 0.44814 0.0
H2682 H 0.66354 0.42247 0.45403 0.0
H2683 H 0.63867 0.39886 0.53778 0.0
H2684 H 0.65059 0.4166 0.56889 0.0
H2685 H 0.66128 0.39137 0.55704 0.0
H2686 H 0.69918 0.41998 0.56462 0.0
H2687 H 0.68861 0.44536 0.57588 0.0
H2688 H 0.70268 0.44657 0.54959 0.0
H2689 H 0.64735 0.45603 0.46989 0.0
H2690 H 0.63781 0.49065 0.49428 0.0
H2691 H 0.65752 0.46477 0.56484 0.0
C2692 C 0.68624 0.39384 0.5118 0.0
C2693 C 0.69153 0.38788 0.48772 0.0
C2694 C 0.6825 0.39749 0.46665 0.0
C2695 C 0.66935 0.41403 0.46983 0.0
C2696 C 0.66548 0.4207 0.49419 0.0
C2697 C 0.67343 0.4107 0.5148 0.0
C2698 C 0.66985 0.42363 0.53961 0.0
C2699 C 0.65416 0.4066 0.55152 0.0
C2700 C 0.69136 0.43453 0.55851 0.0
C2701 C 0.65967 0.4432 0.52988 0.0
C2702 C 0.65685 0.44088 0.5036 0.0
C2703 C 0.64916 0.45783 0.49043 0.0
C2704 C 0.64412 0.47763 0.5045 0.0
C2705 C 0.64711 0.4805 0.53149 0.0
C2706 C 0.65481 0.46289 0.54422 0.0
H2707 H 0.20771 0.09629 0.53714 0.0
H2708 H 0.18697 0.16435 0.53971 0.0
H2709 H 0.15095 0.14364 0.54451 0.0
H2710 H 0.1565 0.05805 0.50119 0.0
H2711 H 0.15815 0.03325 0.51845 0.0
H2712 H 0.18249 0.05322 0.51477 0.0
H2713 H 0.19553 0.06227 0.56386 0.0
H2714 H 0.1712 0.04241 0.56768 0.0
H2715 H 0.17852 0.07345 0.58386 0.0
H2716 H 0.11697 0.11601 0.54973 0.0
H2717 H 0.08737 0.08281 0.55397 0.0
H2718 H 0.12904 0.03216 0.54837 0.0
C2719 C 0.19555 0.10679 0.53855 0.0
C2720 C 0.2004 0.1321 0.53801 0.0
C2721 C 0.1839 0.14505 0.54005 0.0
C2722 C 0.16327 0.13343 0.54281 0.0
C2723 C 0.15908 0.10865 0.5435 0.0
C2724 C 0.17467 0.09539 0.54132 0.0
C2725 C 0.16576 0.06891 0.54278 0.0
C2726 C 0.16572 0.05238 0.51781 0.0
C2727 C 0.17852 0.06132 0.56592 0.0
C2728 C 0.14285 0.06948 0.54622 0.0
C2729 C 0.13939 0.09264 0.54662 0.0
C2730 C 0.11957 0.09784 0.54963 0.0
C2731 C 0.10287 0.07891 0.55234 0.0
C2732 C 0.10597 0.05503 0.55211 0.0
C2733 C 0.12623 0.05029 0.54881 0.0
H2734 H 0.23017 0.01806 0.81779 0.0
H2735 H 0.18888 1.00318 0.87271 0.0
H2736 H 0.20672 0.97055 0.88388 0.0
H2737 H 0.23018 0.95685 0.79517 0.0
H2738 H 0.25802 0.96298 0.79178 0.0
H2739 H 0.2428 0.98609 0.78899 0.0
H2740 H 0.27158 0.0156 0.82468 0.0
H2741 H 0.28691 0.99255 0.82758 0.0
H2742 H 0.27866 1.00653 0.85522 0.0
H2743 H 0.22754 0.93804 0.88745 0.0
H2744 H 0.25053 0.90834 0.88364 0.0
H2745 H 0.2786 0.94449 0.8269 0.0
C2746 C 0.225 1.00809 0.83231 0.0
C2747 C 0.2081 1.01322 0.84433 0.0
C2748 C 0.20178 0.99963 0.86318 0.0
C2749 C 0.21183 0.98105 0.86972 0.0
C2750 C 0.22828 0.97631 0.85734 0.0
C2751 C 0.23491 0.98948 0.83912 0.0
C2752 C 0.25261 0.98025 0.82824 0.0
C2753 C 0.24547 0.97099 0.79933 0.0
C2754 C 0.27369 0.99991 0.8343 0.0
C2755 C 0.25463 0.95962 0.84289 0.0
C2756 C 0.24049 0.9577 0.85963 0.0
C2757 C 0.2388 0.93946 0.87455 0.0
C2758 C 0.25182 0.92263 0.87217 0.0
C2759 C 0.26638 0.92419 0.85506 0.0
C2760 C 0.26788 0.94309 0.84044 0.0
H2761 H 0.30106 0.94049 0.98192 0.0
H2762 H 0.29456 0.96427 0.05966 0.0
H2763 H 0.33182 0.98926 0.06872 0.0
H2764 H 0.35364 0.93341 0.9966 0.0
H2765 H 0.36185 0.94399 0.96883 0.0
H2766 H 0.33398 0.93034 0.96771 0.0
H2767 H 0.32282 0.96868 0.95402 0.0
H2768 H 0.35071 0.98248 0.95504 0.0
H2769 H 0.33493 0.99797 0.9734 0.0
H2770 H 0.371 1.00806 0.07044 0.0
H2771 H 0.40867 0.01995 0.06432 0.0
H2772 H 0.38896 0.98392 0.9854 0.0
C2773 C 0.30729 0.95128 1.00074 0.0
C2774 C 0.2949 0.95046 0.02009 0.0
C2775 C 0.30374 0.9647 0.04451 0.0
C2776 C 0.32487 0.97896 0.04983 0.0
C2777 C 0.33679 0.97894 0.03043 0.0
C2778 C 0.32824 0.96561 1.00631 0.0
C2779 C 0.34474 0.96743 0.98925 0.0
C2780 C 0.34879 0.9423 0.98008 0.0
C2781 C 0.33789 0.97989 0.96659 0.0
C2782 C 0.36414 0.98333 1.00773 0.0
C2783 C 0.35923 0.98995 0.03134 0.0
C2784 C 0.37496 1.00329 0.05194 0.0
C2785 C 0.39629 1.00985 0.04834 0.0
C2786 C 0.40162 1.00302 0.02434 0.0
C2787 C 0.38524 0.98988 1.00377 0.0
H2788 H 0.90938 0.66088 0.82376 0.0
H2789 H 0.8613 0.60032 0.77722 0.0
H2790 H 0.8353 0.62713 0.77274 0.0
H2791 H 0.87178 0.68772 0.85664 0.0
H2792 H 0.88595 0.71852 0.85766 0.0
H2793 H 0.90047 0.69456 0.85753 0.0
H2794 H 0.9147 0.70586 0.81718 0.0
H2795 H 0.90092 0.73033 0.81892 0.0
H2796 H 0.89566 0.70862 0.78977 0.0
H2797 H 0.81329 0.66224 0.77454 0.0
H2798 H 0.79945 0.69968 0.78015 0.0
H2799 H 0.86211 0.73896 0.82367 0.0
C2800 C 0.89339 0.65302 0.81252 0.0
C2801 C 0.88787 0.6278 0.80083 0.0
C2802 C 0.86646 0.6191 0.78647 0.0
C2803 C 0.85142 0.63445 0.78385 0.0
C2804 C 0.8575 0.65903 0.7956 0.0
C2805 C 0.87813 0.6682 0.80966 0.0
C2806 C 0.8808 0.69524 0.82047 0.0
C2807 C 0.88501 0.69924 0.84982 0.0
C2808 C 0.89911 0.71093 0.81097 0.0
C2809 C 0.85877 0.70034 0.80974 0.0
C2810 C 0.84538 0.679 0.79587 0.0
C2811 C 0.82395 0.67886 0.78519 0.0
C2812 C 0.8161 0.70053 0.78854 0.0
C2813 C 0.82937 0.72305 0.8021 0.0
C2814 C 0.85125 0.72256 0.81277 0.0
H2815 H 0.85079 0.65041 0.06609 0.0
H2816 H 0.80333 0.59809 0.0081 0.0
H2817 H 0.83084 0.57421 1.00201 0.0
H2818 H 0.89638 0.64879 0.03566 0.0
H2819 H 0.91518 0.6516 0.06519 0.0
H2820 H 0.8918 0.66448 0.06486 0.0
H2821 H 0.88034 0.63994 0.09951 0.0
H2822 H 0.90371 0.62703 0.09999 0.0
H2823 H 0.87714 0.60745 0.09404 0.0
H2824 H 0.86408 0.55601 1.00234 0.0
H2825 H 0.89922 0.54442 0.00997 0.0
H2826 H 0.92502 0.60897 0.06756 0.0
C2827 C 0.84609 0.63392 0.05209 0.0
C2828 C 0.82476 0.62619 0.03756 0.0
C2829 C 0.81947 0.60444 0.01951 0.0
C2830 C 0.83504 0.59077 0.01588 0.0
C2831 C 0.85591 0.599 0.03046 0.0
C2832 C 0.8614 0.62006 0.04827 0.0
C2833 C 0.88486 0.6249 0.06169 0.0
C2834 C 0.89782 0.64886 0.05653 0.0
C2835 C 0.88661 0.62482 0.09052 0.0
C2836 C 0.89176 0.60325 0.04875 0.0
C2837 C 0.87487 0.58856 0.03071 0.0
C2838 C 0.87739 0.56747 0.01638 0.0
C2839 C 0.89756 0.56113 0.02073 0.0
C2840 C 0.91513 0.57574 0.03933 0.0
C2841 C 0.91201 0.59718 0.05336 0.0
H2842 H 0.21543 0.12677 0.85608 0.0
H2843 H 0.1596 0.14535 0.81304 0.0
H2844 H 0.18279 0.18296 0.80644 0.0
H2845 H 0.24313 0.1898 0.88661 0.0
H2846 H 0.2695 0.1845 0.88453 0.0
H2847 H 0.24824 0.15999 0.88787 0.0
H2848 H 0.25366 0.13443 0.84697 0.0
H2849 H 0.2748 0.15888 0.84341 0.0
H2850 H 0.25196 0.14663 0.81765 0.0
H2851 H 0.21227 0.21599 0.80024 0.0
H2852 H 0.24602 0.2437 0.7973 0.0
H2853 H 0.28288 0.20567 0.84617 0.0
C2854 C 0.20801 0.13897 0.84568 0.0
C2855 C 0.18564 0.13304 0.83509 0.0
C2856 C 0.17665 0.14943 0.82139 0.0
C2857 C 0.1897 0.17088 0.81752 0.0
C2858 C 0.21172 0.1759 0.82768 0.0
C2859 C 0.22082 0.1606 0.84175 0.0
C2860 C 0.24511 0.16988 0.84969 0.0
C2861 C 0.25189 0.17644 0.87891 0.0
C2862 C 0.25708 0.15135 0.83877 0.0
C2863 C 0.24827 0.19239 0.83728 0.0
C2864 C 0.22876 0.19551 0.82475 0.0
C2865 C 0.22759 0.21405 0.81048 0.0
C2866 C 0.24685 0.22984 0.80902 0.0
C2867 C 0.26699 0.22729 0.82201 0.0
C2868 C 0.26766 0.20832 0.83639 0.0
H2869 H 0.38617 0.97113 0.33566 0.0
H2870 H 0.37154 0.97874 0.25602 0.0
H2871 H 0.35077 0.93591 0.24558 0.0
H2872 H 0.39305 0.90993 0.32569 0.0
H2873 H 0.38068 0.90119 0.35179 0.0
H2874 H 0.39387 0.93237 0.35293 0.0
H2875 H 0.35888 0.94581 0.35971 0.0
H2876 H 0.34559 0.91467 0.35868 0.0
H2877 H 0.33404 0.93248 0.33721 0.0
H2878 H 0.3324 0.89025 0.24379 0.0
H2879 H 0.31745 0.84886 0.25081 0.0
H2880 H 0.34291 0.87085 0.33203 0.0
C2881 C 0.3785 0.96398 0.31596 0.0
C2882 C 0.3807 0.97889 0.29669 0.0
C2883 C 0.37023 0.96823 0.27127 0.0
C2884 C 0.35838 0.9437 0.26516 0.0
C2885 C 0.35679 0.9296 0.28459 0.0
C2886 C 0.36647 0.93955 0.30957 0.0
C2887 C 0.36237 0.92067 0.32704 0.0
C2888 C 0.38377 0.91576 0.34014 0.0
C2889 C 0.34945 0.9289 0.34683 0.0
C2890 C 0.34897 0.89839 0.30811 0.0
C2891 C 0.34601 0.90389 0.28367 0.0
C2892 C 0.33463 0.88605 0.26294 0.0
C2893 C 0.32613 0.86232 0.26716 0.0
C2894 C 0.32866 0.85601 0.29202 0.0
C2895 C 0.34032 0.87468 0.31274 0.0
H2896 H 0.60548 0.40115 0.64933 0.0
H2897 H 0.55184 0.34216 0.61032 0.0
H2898 H 0.53918 0.36915 0.58185 0.0
H2899 H 0.57666 0.44815 0.64821 0.0
H2900 H 0.59854 0.4707 0.64269 0.0
H2901 H 0.60424 0.44646 0.65909 0.0
H2902 H 0.62686 0.43427 0.62584 0.0
H2903 H 0.62134 0.45877 0.60974 0.0
H2904 H 0.61484 0.42822 0.59232 0.0
H2905 H 0.53097 0.40306 0.55915 0.0
H2906 H 0.5277 0.44132 0.54394 0.0
H2907 H 0.58676 0.47886 0.59686 0.0
C2908 C 0.59117 0.3938 0.63466 0.0
C2909 C 0.5797 0.36934 0.63216 0.0
C2910 C 0.56099 0.36068 0.61271 0.0
C2911 C 0.55367 0.37591 0.59637 0.0
C2912 C 0.56525 0.39987 0.59946 0.0
C2913 C 0.58366 0.40879 0.61804 0.0
C2914 C 0.59269 0.43553 0.61777 0.0
C2915 C 0.59305 0.45112 0.64346 0.0
C2916 C 0.61527 0.43941 0.61101 0.0
C2917 C 0.57623 0.44036 0.59649 0.0
C2918 C 0.56063 0.41945 0.58612 0.0
C2919 C 0.54322 0.41946 0.56699 0.0
C2920 C 0.54149 0.44137 0.55848 0.0
C2921 C 0.55708 0.4632 0.56891 0.0
C2922 C 0.57485 0.46249 0.588 0.0
H2923 H 0.44307 0.72442 0.36735 0.0
H2924 H 0.46847 0.79689 0.41105 0.0
H2925 H 0.43476 0.80865 0.39385 0.0
H2926 H 0.4165 0.74339 0.31117 0.0
H2927 H 0.39384 0.71772 0.30448 0.0
H2928 H 0.41981 0.71496 0.32061 0.0
H2929 H 0.4026 0.70055 0.35779 0.0
H2930 H 0.37661 0.70346 0.34187 0.0
H2931 H 0.38774 0.71924 0.37399 0.0
H2932 H 0.39722 0.81216 0.37281 0.0
H2933 H 0.36096 0.80821 0.34648 0.0
H2934 H 0.36063 0.73424 0.31479 0.0
C2935 C 0.4416 0.74279 0.37327 0.0
C2936 C 0.45857 0.75968 0.3907 0.0
C2937 C 0.45587 0.78358 0.39773 0.0
C2938 C 0.43667 0.79042 0.38813 0.0
C2939 C 0.42022 0.77329 0.37122 0.0
C2940 C 0.42262 0.75004 0.36358 0.0
C2941 C 0.40274 0.73531 0.34458 0.0
C2942 C 0.40858 0.72738 0.31868 0.0
C2943 C 0.39178 0.71334 0.3552 0.0
C2944 C 0.38878 0.75384 0.34275 0.0
C2945 C 0.39904 0.77556 0.35849 0.0
C2946 C 0.38914 0.79525 0.36031 0.0
C2947 C 0.36848 0.79283 0.34535 0.0
C2948 C 0.35794 0.77098 0.32848 0.0
C2949 C 0.36826 0.75122 0.32744 0.0
H2950 H 0.05891 0.72458 0.13048 0.0
H2951 H 0.11217 0.75027 0.09353 0.0
H2952 H 0.10995 0.70847 0.07325 0.0
H2953 H 0.07435 0.67044 0.14401 0.0
H2954 H 0.04734 0.65183 0.1375 0.0
H2955 H 0.05188 0.68401 0.14813 0.0
H2956 H 0.02485 0.68752 0.10829 0.0
H2957 H 0.02018 0.6553 0.09757 0.0
H2958 H 0.02874 0.6762 0.07692 0.0
H2959 H 0.10424 0.66432 0.05938 0.0
H2960 H 0.0943 0.61975 0.0511 0.0
H2961 H 0.04381 0.62091 0.09539 0.0
C2962 C 0.06989 0.72143 0.11783 0.0
C2963 C 0.08573 0.74088 0.11364 0.0
C2964 C 0.0999 0.73585 0.09712 0.0
C2965 C 0.09877 0.71209 0.08544 0.0
C2966 C 0.08328 0.69337 0.09024 0.0
C2967 C 0.06894 0.69764 0.10584 0.0
C2968 C 0.05431 0.67387 0.1082 0.0
C2969 C 0.05715 0.66981 0.13612 0.0
C2970 C 0.03061 0.67319 0.09708 0.0
C2971 C 0.06297 0.65566 0.09185 0.0
C2972 C 0.07968 0.66747 0.08173 0.0
C2973 C 0.09105 0.65485 0.06698 0.0
C2974 C 0.08532 0.62947 0.0625 0.0
C2975 C 0.06826 0.61675 0.07254 0.0
C2976 C 0.05676 0.6301 0.08721 0.0
H2977 H 0.10222 0.26854 0.93779 0.0
H2978 H 0.05117 0.26879 0.87437 0.0
H2979 H 0.07778 0.27254 0.84596 0.0
H2980 H 0.1434 0.31211 0.92168 0.0
H2981 H 0.16481 0.29708 0.93107 0.0
H2982 H 0.1417 0.29352 0.94622 0.0
H2983 H 0.13477 0.24683 0.93384 0.0
H2984 H 0.15793 0.25024 0.91874 0.0
H2985 H 0.1319 0.23349 0.90086 0.0
H2986 H 0.11036 0.27751 0.82464 0.0
H2987 H 0.14585 0.28276 0.81196 0.0
H2988 H 0.17597 0.27897 0.88912 0.0
C2989 C 0.09655 0.26924 0.91789 0.0
C2990 C 0.07446 0.26834 0.90838 0.0
C2991 C 0.06789 0.26934 0.88217 0.0
C2992 C 0.08293 0.27151 0.86587 0.0
C2993 C 0.10456 0.27255 0.87594 0.0
C2994 C 0.11135 0.27132 0.90133 0.0
C2995 C 0.13555 0.27298 0.90741 0.0
C2996 C 0.14704 0.29525 0.9278 0.0
C2997 C 0.14032 0.24949 0.9157 0.0
C2998 C 0.14144 0.27583 0.8816 0.0
C2999 C 0.12329 0.27535 0.86368 0.0
C3000 C 0.12462 0.27771 0.83851 0.0
C3001 C 0.14492 0.28055 0.83145 0.0
C3002 C 0.16386 0.2811 0.8494 0.0
C3003 C 0.16194 0.27876 0.87489 0.0
H3004 H 0.54066 0.75285 0.91987 0.0
H3005 H 0.6064 0.79353 0.95036 0.0
H3006 H 0.61313 0.76073 0.97415 0.0
H3007 H 0.53086 0.73234 0.9757 0.0
H3008 H 0.51486 0.70285 0.96027 0.0
H3009 H 0.51605 0.72813 0.9434 0.0
H3010 H 0.52899 0.70413 0.90687 0.0
H3011 H 0.52784 0.67872 0.92368 0.0
H3012 H 0.55255 0.69185 0.91419 0.0
H3013 H 0.6115 0.72558 0.99794 0.0
H3014 H 0.60158 0.69055 0.0197 0.0
H3015 H 0.53709 0.67302 0.97332 0.0
C3016 C 0.5566 0.7547 0.93118 0.0
C3017 C 0.57302 0.77573 0.93324 0.0
C3018 C 0.59358 0.77755 0.94846 0.0
C3019 C 0.59759 0.75898 0.96197 0.0
C3020 C 0.58092 0.73868 0.95987 0.0
C3021 C 0.56087 0.73637 0.94473 0.0
C3022 C 0.54525 0.71355 0.94704 0.0
C3023 C 0.52561 0.71959 0.95722 0.0
C3024 C 0.53825 0.69603 0.92142 0.0
C3025 C 0.55945 0.70373 0.96644 0.0
C3026 C 0.58003 0.71834 0.97343 0.0
C3027 C 0.59554 0.7138 0.99235 0.0
C3028 C 0.58975 0.69399 1.00467 0.0
C3029 C 0.56864 0.67905 0.998 0.0
C3030 C 0.55348 0.68382 0.97836 0.0
H3031 H 0.1374 0.72154 0.73078 0.0
H3032 H 0.12056 0.7769 0.78212 0.0
H3033 H 0.15898 0.79178 0.80256 0.0
H3034 H 0.18238 0.71029 0.77673 0.0
H3035 H 0.19807 0.7063 0.75231 0.0
H3036 H 0.16901 0.69815 0.74414 0.0
H3037 H 0.16991 0.72629 0.71004 0.0
H3038 H 0.19889 0.73483 0.71836 0.0
H3039 H 0.18338 0.75786 0.71947 0.0
H3040 H 0.19954 0.80355 0.81393 0.0
H3041 H 0.23899 0.80959 0.81713 0.0
H3042 H 0.22885 0.74632 0.7584 0.0
C3043 C 0.14168 0.73638 0.74676 0.0
C3044 C 0.12599 0.74802 0.75489 0.0
C3045 C 0.13232 0.76764 0.77562 0.0
C3046 C 0.1541 0.77625 0.78734 0.0
C3047 C 0.16926 0.76491 0.7782 0.0
C3048 C 0.1633 0.74522 0.75859 0.0
C3049 C 0.1828 0.73727 0.75117 0.0
C3050 C 0.18308 0.71147 0.75641 0.0
C3051 C 0.18379 0.73919 0.7231 0.0
C3052 C 0.20066 0.75593 0.76924 0.0
C3053 C 0.19257 0.77164 0.7848 0.0
C3054 C 0.20606 0.7911 0.80216 0.0
C3055 C 0.22843 0.7944 0.80381 0.0
C3056 C 0.23701 0.77828 0.78824 0.0
C3057 C 0.22285 0.75888 0.77073 0.0
H3058 H 0.03455 0.39751 0.42844 0.0
H3059 H 0.06582 0.35338 0.47561 0.0
H3060 H 0.06626 0.38224 0.51421 0.0
H3061 H 0.06418 0.45554 0.46547 0.0
H3062 H 0.04124 0.4692 0.46038 0.0
H3063 H 0.04376 0.44501 0.43682 0.0
H3064 H 1.00578 0.42104 0.43992 0.0
H3065 H 1.00354 0.44499 0.464 0.0
H3066 H 1.00062 0.41442 0.47047 0.0
H3067 H 0.06273 0.41578 0.54783 0.0
H3068 H 0.05928 0.45383 0.57315 0.0
H3069 H 0.03026 0.47537 0.50369 0.0
C3070 C 0.04163 0.39397 0.44686 0.0
C3071 C 0.05009 0.37316 0.44901 0.0
C3072 C 0.05928 0.36925 0.47348 0.0
C3073 C 0.05948 0.38544 0.49553 0.0
C3074 C 0.05052 0.40547 0.49277 0.0
C3075 C 0.04206 0.40997 0.46901 0.0
C3076 C 0.03397 0.43314 0.47115 0.0
C3077 C 0.04655 0.45182 0.45766 0.0
C3078 C 1.00953 0.42808 0.46077 0.0
C3079 C 0.03919 0.44097 0.49981 0.0
C3080 C 0.04857 0.42472 0.51201 0.0
C3081 C 0.05535 0.42861 0.53849 0.0
C3082 C 0.05319 0.45014 0.55273 0.0
C3083 C 0.04446 0.46741 0.54033 0.0
C3084 C 0.03684 0.46237 0.51367 0.0
H3085 H 0.49326 0.27356 0.22035 0.0
H3086 H 0.53449 0.25701 0.28485 0.0
H3087 H 0.50878 0.2657 0.31241 0.0
H3088 H 0.47835 0.32312 0.25445 0.0
H3089 H 0.45105 0.31599 0.23653 0.0
H3090 H 0.47227 0.30754 0.22187 0.0
H3091 H 0.45091 0.26272 0.21118 0.0
H3092 H 0.42957 0.27106 0.22572 0.0
H3093 H 0.44226 0.24774 0.23643 0.0
H3094 H 0.47868 0.27751 0.3331 0.0
H3095 H 0.44642 0.29015 0.3447 0.0
H3096 H 0.42588 0.29947 0.26643 0.0
C3097 C 0.49686 0.27156 0.24022 0.0
C3098 C 0.51588 0.26457 0.25044 0.0
C3099 C 0.51998 0.26229 0.27659 0.0
C3100 C 0.50549 0.26722 0.29238 0.0
C3101 C 0.48701 0.27436 0.28171 0.0
C3102 C 0.48265 0.27641 0.25619 0.0
C3103 C 0.46191 0.28476 0.24936 0.0
C3104 C 0.46616 0.30931 0.24001 0.0
C3105 C 0.44517 0.26541 0.2295 0.0
C3106 C 0.45526 0.2872 0.27505 0.0
C3107 C 0.46988 0.28114 0.29352 0.0
C3108 C 0.46712 0.28227 0.31877 0.0
C3109 C 0.44884 0.28962 0.32522 0.0
C3110 C 0.43358 0.29572 0.30647 0.0
C3111 C 0.43704 0.29457 0.28114 0.0
H3112 H 0.63219 0.57936 0.42725 0.0
H3113 H 0.61904 0.51016 0.37655 0.0
H3114 H 0.59736 0.49101 0.40526 0.0
H3115 H 0.63553 0.55473 0.48733 0.0
H3116 H 0.62247 0.57651 0.50197 0.0
H3117 H 0.63835 0.58443 0.47843 0.0
H3118 H 0.6054 0.59554 0.4518 0.0
H3119 H 0.58953 0.58748 0.47525 0.0
H3120 H 0.5802 0.57327 0.4423 0.0
H3121 H 0.57549 0.47963 0.43828 0.0
H3122 H 0.55427 0.47744 0.47267 0.0
H3123 H 0.58131 0.55388 0.50158 0.0
C3124 C 0.62493 0.56013 0.4223 0.0
C3125 C 0.62739 0.54629 0.3996 0.0
C3126 C 0.61743 0.5212 0.39377 0.0
C3127 C 0.60513 0.5101 0.41003 0.0
C3128 C 0.60292 0.52426 0.43213 0.0
C3129 C 0.61253 0.54874 0.43831 0.0
C3130 C 0.60678 0.56005 0.46264 0.0
C3131 C 0.62699 0.56948 0.48384 0.0
C3132 C 0.59476 0.58027 0.45769 0.0
C3133 C 0.59205 0.53826 0.46876 0.0
C3134 C 0.59023 0.51772 0.45112 0.0
C3135 C 0.57692 0.49556 0.45232 0.0
C3136 C 0.56492 0.49448 0.47187 0.0
C3137 C 0.56628 0.51541 0.48985 0.0
C3138 C 0.58023 0.53747 0.48838 0.0
H3139 H 0.24908 0.87775 0.0645 0.0
H3140 H 0.19118 0.8238 0.02684 0.0
H3141 H 0.19493 0.80158 0.06315 0.0
H3142 H 0.27833 0.83781 0.08502 0.0
H3143 H 0.29204 0.8564 0.11516 0.0
H3144 H 0.28275 0.87039 0.08873 0.0
H3145 H 0.26072 0.89266 0.11613 0.0
H3146 H 0.27013 0.87891 0.14284 0.0
H3147 H 0.24158 0.87542 0.1316 0.0
H3148 H 0.20771 0.78252 0.10052 0.0
H3149 H 0.22812 0.76855 0.13653 0.0
H3150 H 0.27802 0.83461 0.1489 0.0
C3151 C 0.23679 0.86167 0.06419 0.0
C3152 C 0.21977 0.85256 0.04289 0.0
C3153 C 0.20429 0.83118 0.04302 0.0
C3154 C 0.20626 0.81846 0.06358 0.0
C3155 C 0.22371 0.82748 0.08386 0.0
C3156 C 0.2386 0.84873 0.08442 0.0
C3157 C 0.25703 0.85333 0.1071 0.0
C3158 C 0.27881 0.85454 0.09847 0.0
C3159 C 0.25737 0.87645 0.12551 0.0
C3160 C 0.25063 0.83089 0.11871 0.0
C3161 C 0.23122 0.81637 0.10526 0.0
C3162 C 0.22277 0.7939 0.11141 0.0
C3163 C 0.23456 0.78603 0.13171 0.0
C3164 C 0.25463 0.80052 0.14547 0.0
C3165 C 0.26254 0.82336 0.13903 0.0
H3166 H 0.94659 0.52754 0.88963 0.0
H3167 H 0.98322 0.588 0.86253 0.0
H3168 H 1.01156 0.5948 0.90161 0.0
H3169 H 0.96011 0.55382 0.95794 0.0
H3170 H 0.96157 0.52511 0.96785 0.0
H3171 H 0.94413 0.52599 0.93837 0.0
H3172 H 0.96322 0.49671 0.91449 0.0
H3173 H 0.98085 0.49638 0.94403 0.0
H3174 H 0.99209 0.50498 0.91714 0.0
H3175 H 0.03699 0.59416 0.9437 0.0
H3176 H 0.05732 0.58594 0.9833 0.0
H3177 H 1.00465 0.52609 0.98499 0.0
C3178 C 0.9605 0.54236 0.89182 0.0
C3179 C 0.96232 0.55729 0.87244 0.0
C3180 C 0.98108 0.57627 0.87662 0.0
C3181 C 0.99735 0.58028 0.89897 0.0
C3182 C 0.99495 0.56527 0.91751 0.0
C3183 C 0.97694 0.54663 0.91414 0.0
C3184 C 0.97852 0.53275 0.93675 0.0
C3185 C 0.95998 0.53453 0.95107 0.0
C3186 C 0.97868 0.50612 0.92755 0.0
C3187 C 1.00031 0.54632 0.95343 0.0
C3188 C 1.00942 0.56506 0.94185 0.0
C3189 C 0.02978 0.57966 0.95284 0.0
C3190 C 0.04125 0.57487 0.97562 0.0
C3191 C 0.0327 0.55572 0.98807 0.0
C3192 C 1.01161 0.54137 0.97673 0.0
H3193 H 0.31554 0.20179 0.63184 0.0
H3194 H 0.2552 0.21382 0.59235 0.0
H3195 H 0.25204 0.23965 0.63149 0.0
H3196 H 0.30004 0.19664 0.69072 0.0
H3197 H 0.32591 0.21214 0.71001 0.0
H3198 H 0.32437 0.19633 0.67835 0.0
H3199 H 0.34504 0.2357 0.66631 0.0
H3200 H 0.34668 0.2516 0.69802 0.0
H3201 H 0.33494 0.26295 0.6706 0.0
H3202 H 0.25374 0.26105 0.67627 0.0
H3203 H 0.2609 0.27743 0.72245 0.0
H3204 H 0.32065 0.25247 0.73229 0.0
C3205 C 0.30182 0.21014 0.63126 0.0
C3206 C 0.28563 0.20575 0.60892 0.0
C3207 C 0.26787 0.21695 0.60912 0.0
C3208 C 0.26592 0.23167 0.6313 0.0
C3209 C 0.28197 0.23526 0.65311 0.0
C3210 C 0.29969 0.225 0.65317 0.0
C3211 C 0.31424 0.23089 0.67938 0.0
C3212 C 0.31624 0.20762 0.69025 0.0
C3213 C 0.33654 0.2462 0.67851 0.0
C3214 C 0.3017 0.24559 0.69419 0.0
C3215 C 0.28316 0.24798 0.6787 0.0
C3216 C 0.26837 0.25958 0.68848 0.0
C3217 C 0.27255 0.2688 0.71476 0.0
C3218 C 0.29143 0.26648 0.73101 0.0
C3219 C 0.30626 0.25496 0.72037 0.0
H3220 H 0.61375 0.50923 0.23662 0.0
H3221 H 0.61301 0.58119 0.27403 0.0
H3222 H 0.59352 0.58898 0.23362 0.0
H3223 H 0.62359 0.52596 0.17801 0.0
H3224 H 0.60659 0.49874 0.15834 0.0
H3225 H 0.61911 0.49799 0.19058 0.0
H3226 H 0.58166 0.48096 0.20079 0.0
H3227 H 0.56909 0.48152 0.16849 0.0
H3228 H 0.56045 0.49711 0.19492 0.0
H3229 H 0.57625 0.59 0.18876 0.0
H3230 H 0.56154 0.5839 0.1426 0.0
H3231 H 0.57325 0.51113 0.13423 0.0
C3232 C 0.60924 0.52651 0.23644 0.0
C3233 C 0.61486 0.54458 0.25857 0.0
C3234 C 0.60883 0.56704 0.25739 0.0
C3235 C 0.59775 0.57164 0.23452 0.0
C3236 C 0.59275 0.55358 0.213 0.0
C3237 C 0.59818 0.53141 0.21376 0.0
C3238 C 0.59161 0.51546 0.18765 0.0
C3239 C 0.61141 0.50918 0.17809 0.0
C3240 C 0.57469 0.4924 0.188 0.0
C3241 C 0.58191 0.53229 0.17205 0.0
C3242 C 0.58268 0.55414 0.18707 0.0
C3243 C 0.57539 0.57289 0.17684 0.0
C3244 C 0.56712 0.56926 0.15054 0.0
C3245 C 0.56617 0.54701 0.13472 0.0
C3246 C 0.57357 0.52827 0.14577 0.0
H3247 H 0.23976 0.8245 0.93268 0.0
H3248 H 0.30245 0.84995 0.98301 0.0
H3249 H 0.31799 0.82398 0.95436 0.0
H3250 H 0.24654 0.76061 0.91293 0.0
H3251 H 0.23218 0.75918 0.88089 0.0
H3252 H 0.22521 0.77665 0.90743 0.0
H3253 H 0.23124 0.8148 0.88566 0.0
H3254 H 0.23798 0.79719 0.85927 0.0
H3255 H 0.25671 0.82462 0.87618 0.0
H3256 H 0.32807 0.80293 0.91661 0.0
H3257 H 0.33128 0.78407 0.87376 0.0
H3258 H 0.26181 0.76886 0.84936 0.0
C3259 C 0.25662 0.82407 0.93797 0.0
C3260 C 0.26995 0.83921 0.95993 0.0
C3261 C 0.29195 0.83835 0.9663 0.0
C3262 C 0.30091 0.82365 0.95018 0.0
C3263 C 0.28751 0.8095 0.9282 0.0
C3264 C 0.26572 0.80913 0.92234 0.0
C3265 C 0.25524 0.79366 0.89664 0.0
C3266 C 0.23882 0.77119 0.89966 0.0
C3267 C 0.2447 0.80849 0.87837 0.0
C3268 C 0.2748 0.78671 0.88824 0.0
C3269 C 0.29323 0.7959 0.90684 0.0
C3270 C 0.31371 0.79481 0.90225 0.0
C3271 C 0.31541 0.78421 0.87795 0.0
C3272 C 0.29673 0.77456 0.85888 0.0
C3273 C 0.27617 0.77533 0.86416 0.0
H3274 H 0.9946 0.56732 0.73836 0.0
H3275 H 0.92685 0.53708 0.70631 0.0
H3276 H 0.93613 0.5282 0.66356 0.0
H3277 H 1.00794 0.59545 0.68387 0.0
H3278 H 0.03437 0.58881 0.68722 0.0
H3279 H 0.02216 0.59296 0.71482 0.0
H3280 H 0.02716 0.55084 0.72414 0.0
H3281 H 0.03912 0.54662 0.69634 0.0
H3282 H 0.01601 0.52449 0.69973 0.0
H3283 H 0.95371 0.52241 0.62259 0.0
H3284 H 0.97644 0.52034 0.58991 0.0
H3285 H 0.03335 0.55414 0.64787 0.0
C3286 C 0.98155 0.55884 0.72244 0.0
C3287 C 0.95969 0.55303 0.72645 0.0
C3288 C 0.94358 0.5419 0.70447 0.0
C3289 C 0.94882 0.53675 0.67985 0.0
C3290 C 0.97042 0.5427 0.67675 0.0
C3291 C 0.98654 0.55359 0.69762 0.0
C3292 C 1.00855 0.55817 0.6893 0.0
C3293 C 0.01886 0.58547 0.69409 0.0
C3294 C 0.0236 0.5442 0.70321 0.0
C3295 C 1.00251 0.54809 0.66054 0.0
C3296 C 0.98037 0.53931 0.65366 0.0
C3297 C 0.971 0.52928 0.62813 0.0
C3298 C 0.98423 0.52816 0.60944 0.0
C3299 C 1.00707 0.53688 0.61562 0.0
C3300 C 0.01611 0.54705 0.64193 0.0
H3301 H 0.29046 0.24045 0.49162 0.0
H3302 H 0.26393 0.16633 0.45269 0.0
H3303 H 0.26493 0.18006 0.41114 0.0
H3304 H 0.26177 0.26952 0.44511 0.0
H3305 H 0.28415 0.29499 0.44809 0.0
H3306 H 0.28098 0.27953 0.47482 0.0
H3307 H 0.31959 0.27213 0.47763 0.0
H3308 H 0.32291 0.28762 0.45097 0.0
H3309 H 0.32684 0.25711 0.44979 0.0
H3310 H 0.26985 0.2016 0.37371 0.0
H3311 H 0.27849 0.22905 0.34327 0.0
H3312 H 0.30135 0.28975 0.40584 0.0
C3313 C 0.28477 0.22707 0.47437 0.0
C3314 C 0.27707 0.2022 0.47559 0.0
C3315 C 0.26987 0.18542 0.45243 0.0
C3316 C 0.27036 0.19308 0.42867 0.0
C3317 C 0.27805 0.21765 0.4282 0.0
C3318 C 0.28512 0.23443 0.45044 0.0
C3319 C 0.29295 0.25973 0.44458 0.0
C3320 C 0.27914 0.27696 0.4537 0.0
C3321 C 0.317 0.26973 0.45645 0.0
C3322 C 0.28934 0.25456 0.41558 0.0
C3323 C 0.28068 0.23015 0.40658 0.0
C3324 C 0.27646 0.22076 0.38058 0.0
C3325 C 0.28137 0.23658 0.36338 0.0
C3326 C 0.29036 0.26168 0.37201 0.0
C3327 C 0.29423 0.27075 0.39855 0.0
H3328 H 0.3603 0.64098 0.51624 0.0
H3329 H 0.38091 0.67719 0.59518 0.0
H3330 H 0.41097 0.65653 0.6003 0.0
H3331 H 0.36775 0.58599 0.52547 0.0
H3332 H 0.37834 0.57822 0.49728 0.0
H3333 H 0.361 0.59931 0.49749 0.0
H3334 H 0.39011 0.63187 0.48552 0.0
H3335 H 0.40739 0.61062 0.48452 0.0
H3336 H 0.41705 0.63998 0.50452 0.0
H3337 H 0.43266 0.62554 0.60002 0.0
H3338 H 0.44965 0.59118 0.59223 0.0
H3339 H 0.4179 0.57725 0.51228 0.0
C3340 C 0.37164 0.64531 0.53428 0.0
C3341 C 0.36814 0.66053 0.55535 0.0
C3342 C 0.38319 0.66552 0.57877 0.0
C3343 C 0.40035 0.65387 0.5819 0.0
C3344 C 0.40251 0.63775 0.56127 0.0
C3345 C 0.38903 0.63399 0.53766 0.0
C3346 C 0.39396 0.61431 0.51926 0.0
C3347 C 0.37408 0.59322 0.50931 0.0
C3348 C 0.40265 0.62483 0.49715 0.0
C3349 C 0.41141 0.60669 0.53671 0.0
C3350 C 0.41611 0.62052 0.56079 0.0
C3351 C 0.42985 0.61522 0.58097 0.0
C3352 C 0.43948 0.59562 0.57627 0.0
C3353 C 0.43565 0.5817 0.55144 0.0
C3354 C 0.42133 0.58742 0.53147 0.0
H3355 H 0.90506 0.96917 0.62351 0.0
H3356 H 0.8861 0.91783 0.55242 0.0
H3357 H 0.92159 0.93287 0.54158 0.0
H3358 H 0.93407 0.01818 0.59835 0.0
H3359 H 0.95488 0.02859 0.62663 0.0
H3360 H 0.92821 1.01331 0.62914 0.0
H3361 H 0.94436 0.98189 0.65198 0.0
H3362 H 0.97109 0.99703 0.64945 0.0
H3363 H 0.96118 0.96517 0.63678 0.0
H3364 H 0.95936 0.95405 0.53804 0.0
H3365 H 0.99553 0.98054 0.54165 0.0
H3366 H 0.99004 0.01818 0.61483 0.0
C3367 C 0.90835 0.96101 0.60569 0.0
C3368 C 0.89263 0.94222 0.58887 0.0
C3369 C 0.89773 0.93222 0.56568 0.0
C3370 C 0.91793 0.94062 0.55935 0.0
C3371 C 0.93303 0.95911 0.57633 0.0
C3372 C 0.92846 0.96924 0.59901 0.0
C3373 C 0.94735 0.98929 0.61365 0.0
C3374 C 0.94073 1.01379 0.61714 0.0
C3375 C 0.95654 0.98296 0.6395 0.0
C3376 C 0.96319 0.98896 0.59563 0.0
C3377 C 0.95466 0.97133 0.57426 0.0
C3378 C 0.96618 0.96785 0.55476 0.0
C3379 C 0.98677 0.98293 0.557 0.0
C3380 C 0.9957 1.00136 0.57855 0.0
C3381 C 0.98373 1.00417 0.59817 0.0
H3382 H 0.92078 0.06737 0.2367 0.0
H3383 H 0.89916 0.03275 0.29805 0.0
H3384 H 0.87276 0.05855 0.30048 0.0
H3385 H 0.91733 0.12712 0.26193 0.0
H3386 H 0.90802 0.13468 0.2312 0.0
H3387 H 0.92473 0.11296 0.23376 0.0
H3388 H 0.89567 0.08121 0.20038 0.0
H3389 H 0.87883 0.10284 0.19776 0.0
H3390 H 0.86842 0.07364 0.20576 0.0
H3391 H 0.84953 0.08887 0.29712 0.0
H3392 H 0.83096 0.12167 0.28806 0.0
H3393 H 0.86775 0.13635 0.22894 0.0
C3394 C 0.91044 0.0651 0.25058 0.0
C3395 C 0.91203 0.04802 0.26718 0.0
C3396 C 0.89823 0.04571 0.28512 0.0
C3397 C 0.88317 0.06025 0.28663 0.0
C3398 C 0.88209 0.07695 0.27004 0.0
C3399 C 0.89532 0.07944 0.25234 0.0
C3400 C 0.89121 0.0991 0.23707 0.0
C3401 C 0.91153 0.11968 0.24125 0.0
C3402 C 0.88304 0.08856 0.20856 0.0
C3403 C 0.87366 0.10737 0.24905 0.0
C3404 C 0.86862 0.09435 0.26802 0.0
C3405 C 0.85329 0.09914 0.28226 0.0
C3406 C 0.84291 0.11784 0.27707 0.0
C3407 C 0.84791 0.13147 0.25779 0.0
C3408 C 0.86339 0.12599 0.24353 0.0
H3409 H 0.77151 0.08668 0.06018 0.0
H3410 H 0.79927 0.12508 0.13701 0.0
H3411 H 0.77222 0.09775 0.15365 0.0
H3412 H 0.72212 0.08523 0.06267 0.0
H3413 H 0.7096 0.0555 0.04451 0.0
H3414 H 0.73519 0.07105 0.03962 0.0
H3415 H 0.75198 0.03493 0.04984 0.0
H3416 H 0.72616 0.01892 0.05444 0.0
H3417 H 0.74974 0.0237 0.07929 0.0
H3418 H 0.73679 0.0766 0.15982 0.0
H3419 H 0.69754 0.06277 0.15521 0.0
H3420 H 0.69234 0.03615 0.07473 0.0
C3421 C 0.7725 0.08853 0.08064 0.0
C3422 C 0.78733 0.10798 0.0973 0.0
C3423 C 0.78812 0.11016 0.12392 0.0
C3424 C 0.77281 0.09464 0.13354 0.0
C3425 C 0.75721 0.07678 0.11634 0.0
C3426 C 0.7573 0.07324 0.09042 0.0
C3427 C 0.73677 0.05609 0.07538 0.0
C3428 C 0.72526 0.06769 0.05436 0.0
C3429 C 0.74145 0.03197 0.06408 0.0
C3430 C 0.72413 0.05272 0.09645 0.0
C3431 C 0.73644 0.06403 0.12007 0.0
C3432 C 0.72722 0.06686 0.14165 0.0
C3433 C 0.70482 0.05889 0.13883 0.0
C3434 C 0.69184 0.04836 0.11455 0.0
C3435 C 0.70186 0.04414 0.0935 0.0
H3436 H 0.25315 0.46042 0.32312 0.0
H3437 H 0.18556 0.42867 0.31933 0.0
H3438 H 0.19412 0.38792 0.31755 0.0
H3439 H 0.26416 0.41164 0.28006 0.0
H3440 H 0.29094 0.41375 0.29774 0.0
H3441 H 0.27952 0.44016 0.29878 0.0
H3442 H 0.28604 0.44555 0.34802 0.0
H3443 H 0.29751 0.41916 0.34712 0.0
H3444 H 0.2752 0.42071 0.36311 0.0
H3445 H 0.21106 0.34878 0.31564 0.0
H3446 H 0.23289 0.31768 0.31366 0.0
H3447 H 0.29031 0.37425 0.32008 0.0
C3448 C 0.23998 0.445 0.32198 0.0
C3449 C 0.21836 0.4486 0.32142 0.0
C3450 C 0.20213 0.42724 0.31988 0.0
C3451 C 0.20696 0.40372 0.31882 0.0
C3452 C 0.22832 0.40102 0.31938 0.0
C3453 C 0.24459 0.42129 0.321 0.0
C3454 C 0.26628 0.41363 0.32135 0.0
C3455 C 0.27579 0.42019 0.29811 0.0
C3456 C 0.28221 0.42547 0.34639 0.0
C3457 C 0.25992 0.38591 0.31969 0.0
C3458 C 0.23787 0.37899 0.31845 0.0
C3459 C 0.22823 0.3543 0.31643 0.0
C3460 C 0.24098 0.33653 0.3154 0.0
C3461 C 0.26376 0.34275 0.31684 0.0
C3462 C 0.27313 0.36823 0.31913 0.0
H3463 H 0.27527 0.45386 0.06982 0.0
H3464 H 0.2482 0.39543 0.10736 0.0
H3465 H 0.21568 0.41177 0.10799 0.0
H3466 H 0.25361 0.50103 0.10293 0.0
H3467 H 0.24777 0.51475 0.07503 0.0
H3468 H 0.26965 0.49931 0.07855 0.0
H3469 H 0.25288 0.4718 0.03482 0.0
H3470 H 0.23095 0.48713 0.03119 0.0
H3471 H 0.22537 0.45465 0.0293 0.0
H3472 H 0.18563 0.43365 0.10406 0.0
H3473 H 0.15973 0.45936 0.09512 0.0
H3474 H 0.20483 0.50316 0.05844 0.0
C3475 C 0.26259 0.4447 0.07842 0.0
C3476 C 0.26443 0.42333 0.08864 0.0
C3477 C 0.24728 0.41174 0.09938 0.0
C3478 C 0.22869 0.42093 0.09989 0.0
C3479 C 0.22724 0.44176 0.08946 0.0
C3480 C 0.24367 0.45354 0.07887 0.0
C3481 C 0.23748 0.47513 0.06812 0.0
C3482 C 0.25305 0.49897 0.08199 0.0
C3483 C 0.23662 0.47198 0.03913 0.0
C3484 C 0.21505 0.47352 0.07427 0.0
C3485 C 0.20957 0.45419 0.0867 0.0
C3486 C 0.18971 0.44881 0.09424 0.0
C3487 C 0.17498 0.46346 0.08886 0.0
C3488 C 0.17997 0.48331 0.07585 0.0
C3489 C 0.20045 0.48836 0.06863 0.0
H3490 H 0.92235 0.91251 0.31872 0.0
H3491 H 0.90174 0.92976 0.2437 0.0
H3492 H 0.86947 0.8962 0.23627 0.0
H3493 H 0.90274 0.84639 0.30095 0.0
H3494 H 0.89384 0.84282 0.33057 0.0
H3495 H 0.91653 0.86684 0.3299 0.0
H3496 H 0.89827 0.8991 0.34951 0.0
H3497 H 0.87563 0.87554 0.35115 0.0
H3498 H 0.87138 0.90024 0.33466 0.0
H3499 H 0.8377 0.86331 0.23858 0.0
H3500 H 0.80949 0.8327 0.25004 0.0
H3501 H 0.85052 0.83711 0.32359 0.0
C3502 C 0.91132 0.90893 0.30049 0.0
C3503 C 0.91469 0.92378 0.28175 0.0
C3504 C 0.89961 0.91863 0.25833 0.0
C3505 C 0.88121 0.89959 0.25392 0.0
C3506 C 0.87811 0.88572 0.27304 0.0
C3507 C 0.89283 0.89003 0.2958 0.0
C3508 C 0.88511 0.87334 0.31379 0.0
C3509 C 0.90046 0.85633 0.31912 0.0
C3510 C 0.88244 0.88793 0.33875 0.0
C3511 C 0.86347 0.85948 0.2979 0.0
C3512 C 0.85982 0.86673 0.27436 0.0
C3513 C 0.84051 0.85731 0.25684 0.0
C3514 C 0.82453 0.84006 0.26356 0.0
C3515 C 0.82793 0.83244 0.28758 0.0
C3516 C 0.84769 0.84226 0.30489 0.0
H3517 H 0.71984 0.09811 0.78217 0.0
H3518 H 0.71837 0.09732 0.86228 0.0
H3519 H 0.73701 0.1409 0.87225 0.0
H3520 H 0.77294 0.1386 0.79162 0.0
H3521 H 0.76558 0.15383 0.76533 0.0
H3522 H 0.75226 0.12277 0.76462 0.0
H3523 H 0.71523 0.13446 0.75787 0.0
H3524 H 0.72843 0.16557 0.75861 0.0
H3525 H 0.71048 0.15826 0.78029 0.0
H3526 H 0.75548 0.18612 0.8732 0.0
H3527 H 0.77252 0.22655 0.86575 0.0
H3528 H 0.76315 0.19861 0.78484 0.0
C3529 C 0.72346 0.10696 0.80192 0.0
C3530 C 0.7174 0.09369 0.82143 0.0
C3531 C 0.72269 0.10653 0.84688 0.0
C3532 C 0.73332 0.1315 0.85271 0.0
C3533 C 0.7389 0.14389 0.833 0.0
C3534 C 0.73422 0.13191 0.80808 0.0
C3535 C 0.742 0.14931 0.79037 0.0
C3536 C 0.75922 0.1406 0.7772 0.0
C3537 C 0.7229 0.15205 0.77061 0.0
C3538 C 0.75178 0.17307 0.80906 0.0
C3539 C 0.74972 0.16952 0.83358 0.0
C3540 C 0.75718 0.18881 0.85404 0.0
C3541 C 0.76694 0.21198 0.84952 0.0
C3542 C 0.76956 0.21641 0.82465 0.0
C3543 C 0.76172 0.1963 0.80417 0.0
loop_
_geom_bond_atom_site_label_1
_geom_bond_atom_site_label_2
_geom_bond_distance
_geom_bond_site_symmetry_2
_ccdc_geom_bond_type
C0 O1 1.160 . S
C0 O7 1.185 . S
O1 C0 1.160 . S
O2 Zn3 1.899 . S
O2 C10 1.284 . S
Zn3 O2 1.899 . S
Zn3 O4 2.032 . S
Zn3 O7 2.086 . S
Zn3 O12 1.977 1_455 S
O4 Zn3 2.032 . S
O4 C8 1.278 . S
C5 O6 1.203 . S
C5 O12 1.267 . S
O6 C5 1.203 . S
O7 C0 1.185 . S
O7 Zn3 2.086 . S
C8 O4 1.278 . S
C8 O9 1.211 1_455 S
O9 C8 1.211 1_655 S
C10 O2 1.284 . S
C10 O11 1.273 1_455 S
O11 C10 1.273 1_655 S
O12 Zn3 1.977 1_655 S
O12 C5 1.267 . S
C13 O14 1.160 . S
C13 O20 1.185 . S
O14 C13 1.160 . S
O15 Zn16 1.899 . S
O15 C23 1.284 . S
Zn16 O15 1.899 . S
Zn16 O17 2.032 . S
Zn16 O20 2.086 . S
Zn16 O25 1.977 . S
O17 Zn16 2.032 . S
O17 C21 1.278 . S
C18 O19 1.203 . S
C18 O25 1.267 . S
O19 C18 1.203 . S
O20 C13 1.185 . S
O20 Zn16 2.086 . S
C21 O17 1.278 . S
C21 O22 1.211 . S
O22 C21 1.211 . S
C23 O15 1.284 . S
C23 O24 1.273 . S
O24 C23 1.273 . S
O25 Zn16 1.977 . S
O25 C18 1.267 . S
C26 O27 1.160 . S
C26 O33 1.185 . S
O27 C26 1.160 . S
O28 Zn29 1.899 . S
O28 C36 1.284 . S
Zn29 O28 1.899 . S
Zn29 O30 2.032 . S
Zn29 O33 2.086 . S
Zn29 O38 1.977 . S
O30 Zn29 2.032 . S
O30 C34 1.278 . S
C31 O32 1.203 . S
C31 O38 1.267 . S
O32 C31 1.203 . S
O33 C26 1.185 . S
O33 Zn29 2.086 . S
C34 O30 1.278 . S
C34 O35 1.211 . S
O35 C34 1.211 . S
C36 O28 1.284 . S
C36 O37 1.273 . S
O37 C36 1.273 . S
O38 Zn29 1.977 . S
O38 C31 1.267 . S
C39 O40 1.160 . S
C39 O46 1.185 . S
O40 C39 1.160 . S
O41 Zn42 1.899 . S
O41 C49 1.284 . S
Zn42 O41 1.899 . S
Zn42 O43 2.032 . S
Zn42 O46 2.086 . S
Zn42 O51 1.977 . S
O43 Zn42 2.032 . S
O43 C47 1.278 . S
C44 O45 1.203 . S
C44 O51 1.267 . S
O45 C44 1.203 . S
O46 C39 1.185 . S
O46 Zn42 2.086 . S
C47 O43 1.278 . S
C47 O48 1.211 . S
O48 C47 1.211 . S
C49 O41 1.284 . S
C49 O50 1.273 . S
O50 C49 1.273 . S
O51 Zn42 1.977 . S
O51 C44 1.267 . S
C52 O53 1.160 . S
C52 O59 1.185 . S
O53 C52 1.160 . S
O54 Zn55 1.899 . S
O54 C62 1.284 . S
Zn55 O54 1.899 . S
Zn55 O56 2.032 . S
Zn55 O59 2.086 . S
Zn55 O64 1.977 . S
O56 Zn55 2.032 . S
O56 C60 1.278 . S
C57 O58 1.203 . S
C57 O64 1.267 . S
O58 C57 1.203 . S
O59 C52 1.185 . S
O59 Zn55 2.086 . S
C60 O56 1.278 . S
C60 O61 1.211 . S
O61 C60 1.211 . S
C62 O54 1.284 . S
C62 O63 1.273 . S
O63 C62 1.273 . S
O64 Zn55 1.977 . S
O64 C57 1.267 . S
C65 O66 1.160 . S
C65 O72 1.185 . S
O66 C65 1.160 . S
O67 Zn68 1.899 . S
O67 C75 1.284 . S
Zn68 O67 1.899 . S
Zn68 O69 2.032 . S
Zn68 O72 2.086 . S
Zn68 O77 1.977 . S
O69 Zn68 2.032 . S
O69 C73 1.278 . S
C70 O71 1.203 . S
C70 O77 1.267 . S
O71 C70 1.203 . S
O72 C65 1.185 . S
O72 Zn68 2.086 . S
C73 O69 1.278 . S
C73 O74 1.211 . S
O74 C73 1.211 . S
C75 O67 1.284 . S
C75 O76 1.273 . S
O76 C75 1.273 . S
O77 Zn68 1.977 . S
O77 C70 1.267 . S
C78 O79 1.160 . S
C78 O85 1.185 . S
O79 C78 1.160 . S
O80 Zn81 1.899 . S
O80 C88 1.284 . S
Zn81 O80 1.899 . S
Zn81 O82 2.032 . S
Zn81 O85 2.086 . S
Zn81 O90 1.977 . S
O82 Zn81 2.032 . S
O82 C86 1.278 . S
C83 O84 1.203 . S
C83 O90 1.267 . S
O84 C83 1.203 . S
O85 C78 1.185 . S
O85 Zn81 2.086 . S
C86 O82 1.278 . S
C86 O87 1.211 . S
O87 C86 1.211 . S
C88 O80 1.284 . S
C88 O89 1.273 . S
O89 C88 1.273 . S
O90 Zn81 1.977 . S
O90 C83 1.267 . S
C91 O92 1.160 . S
C91 O98 1.185 . S
O92 C91 1.160 . S
O93 Zn94 1.899 . S
O93 C101 1.284 . S
Zn94 O93 1.899 . S
Zn94 O95 2.032 . S
Zn94 O98 2.086 . S
Zn94 O103 1.977 1_455 S
O95 Zn94 2.032 . S
O95 C99 1.278 . S
C96 O97 1.203 . S
C96 O103 1.267 . S
O97 C96 1.203 . S
O98 C91 1.185 . S
O98 Zn94 2.086 . S
C99 O95 1.278 . S
C99 O100 1.211 1_455 S
O100 C99 1.211 1_655 S
C101 O93 1.284 . S
C101 O102 1.273 . S
O102 C101 1.273 . S
O103 Zn94 1.977 1_655 S
O103 C96 1.267 . S
C104 O105 1.160 . S
C104 O111 1.185 . S
O105 C104 1.160 . S
O106 Zn107 1.899 . S
O106 C114 1.284 . S
Zn107 O106 1.899 . S
Zn107 O108 2.032 . S
Zn107 O111 2.086 . S
Zn107 O116 1.977 1_545 S
O108 Zn107 2.032 . S
O108 C112 1.278 . S
C109 O110 1.203 . S
C109 O116 1.267 . S
O110 C109 1.203 . S
O111 C104 1.185 . S
O111 Zn107 2.086 . S
C112 O108 1.278 . S
C112 O113 1.211 . S
O113 C112 1.211 . S
C114 O106 1.284 . S
C114 O115 1.273 . S
O115 C114 1.273 . S
O116 Zn107 1.977 1_565 S
O116 C109 1.267 . S
C117 O118 1.160 . S
C117 O124 1.185 . S
O118 C117 1.160 . S
O119 Zn120 1.899 . S
O119 C127 1.284 . S
Zn120 O119 1.899 . S
Zn120 O121 2.032 . S
Zn120 O124 2.086 . S
Zn120 O129 1.977 . S
O121 Zn120 2.032 . S
O121 C125 1.278 . S
C122 O123 1.203 . S
C122 O129 1.267 . S
O123 C122 1.203 . S
O124 C117 1.185 . S
O124 Zn120 2.086 . S
C125 O121 1.278 . S
C125 O126 1.211 . S
O126 C125 1.211 . S
C127 O119 1.284 . S
C127 O128 1.273 . S
O128 C127 1.273 . S
O129 Zn120 1.977 . S
O129 C122 1.267 . S
C130 O131 1.160 . S
C130 O137 1.185 1_565 S
O131 C130 1.160 . S
O132 Zn133 1.899 . S
O132 C140 1.284 . S
Zn133 O132 1.899 . S
Zn133 O134 2.032 . S
Zn133 O137 2.086 . S
Zn133 O142 1.977 . S
O134 Zn133 2.032 . S
O134 C138 1.278 . S
C135 O136 1.203 . S
C135 O142 1.267 . S
O136 C135 1.203 . S
O137 C130 1.185 1_545 S
O137 Zn133 2.086 . S
C138 O134 1.278 . S
C138 O139 1.211 . S
O139 C138 1.211 . S
C140 O132 1.284 . S
C140 O141 1.273 . S
O141 C140 1.273 . S
O142 Zn133 1.977 . S
O142 C135 1.267 . S
C143 O144 1.160 . S
C143 O150 1.185 1_554 S
O144 C143 1.160 . S
O145 Zn146 1.899 . S
O145 C153 1.284 . S
Zn146 O145 1.899 . S
Zn146 O147 2.032 1_554 S
Zn146 O150 2.086 1_554 S
Zn146 O155 1.977 . S
O147 Zn146 2.032 1_556 S
O147 C151 1.278 . S
C148 O149 1.203 . S
C148 O155 1.267 . S
O149 C148 1.203 . S
O150 C143 1.185 1_556 S
O150 Zn146 2.086 1_556 S
C151 O147 1.278 . S
C151 O152 1.211 . S
O152 C151 1.211 . S
C153 O145 1.284 . S
C153 O154 1.273 . S
O154 C153 1.273 . S
O155 Zn146 1.977 . S
O155 C148 1.267 . S
C156 O157 1.160 . S
C156 O163 1.185 . S
O157 C156 1.160 . S
O158 Zn159 1.899 . S
O158 C166 1.284 . S
Zn159 O158 1.899 . S
Zn159 O160 2.032 . S
Zn159 O163 2.086 . S
Zn159 O168 1.977 . S
O160 Zn159 2.032 . S
O160 C164 1.278 . S
C161 O162 1.203 . S
C161 O168 1.267 . S
O162 C161 1.203 . S
O163 C156 1.185 . S
O163 Zn159 2.086 . S
C164 O160 1.278 . S
C164 O165 1.211 . S
O165 C164 1.211 . S
C166 O158 1.284 . S
C166 O167 1.273 . S
O167 C166 1.273 . S
O168 Zn159 1.977 . S
O168 C161 1.267 . S
C169 O170 1.160 . S
C169 O176 1.185 . S
O170 C169 1.160 . S
O171 Zn172 1.899 . S
O171 C179 1.284 . S
Zn172 O171 1.899 . S
Zn172 O173 2.032 . S
Zn172 O176 2.086 . S
Zn172 O181 1.977 . S
O173 Zn172 2.032 . S
O173 C177 1.278 . S
C174 O175 1.203 . S
C174 O181 1.267 . S
O175 C174 1.203 . S
O176 C169 1.185 . S
O176 Zn172 2.086 . S
C177 O173 1.278 . S
C177 O178 1.211 . S
O178 C177 1.211 . S
C179 O171 1.284 . S
C179 O180 1.273 . S
O180 C179 1.273 . S
O181 Zn172 1.977 . S
O181 C174 1.267 . S
C182 O183 1.160 . S
C182 O189 1.185 . S
O183 C182 1.160 . S
O184 Zn185 1.899 . S
O184 C192 1.284 . S
Zn185 O184 1.899 . S
Zn185 O186 2.032 . S
Zn185 O189 2.086 . S
Zn185 O194 1.977 . S
O186 Zn185 2.032 . S
O186 C190 1.278 . S
C187 O188 1.203 . S
C187 O194 1.267 . S
O188 C187 1.203 . S
O189 C182 1.185 . S
O189 Zn185 2.086 . S
C190 O186 1.278 . S
C190 O191 1.211 . S
O191 C190 1.211 . S
C192 O184 1.284 . S
C192 O193 1.273 . S
O193 C192 1.273 . S
O194 Zn185 1.977 . S
O194 C187 1.267 . S
C195 O196 1.160 . S
C195 O202 1.185 . S
O196 C195 1.160 . S
O197 Zn198 1.899 . S
O197 C205 1.284 . S
Zn198 O197 1.899 . S
Zn198 O199 2.032 . S
Zn198 O202 2.086 . S
Zn198 O207 1.977 . S
O199 Zn198 2.032 . S
O199 C203 1.278 . S
C200 O201 1.203 . S
C200 O207 1.267 . S
O201 C200 1.203 . S
O202 C195 1.185 . S
O202 Zn198 2.086 . S
C203 O199 1.278 . S
C203 O204 1.211 . S
O204 C203 1.211 . S
C205 O197 1.284 . S
C205 O206 1.273 . S
O206 C205 1.273 . S
O207 Zn198 1.977 . S
O207 C200 1.267 . S
C208 O209 1.160 . S
C208 O215 1.185 . S
O209 C208 1.160 . S
O210 Zn211 1.897 . S
O210 C218 1.270 1_545 S
Zn211 O210 1.897 . S
Zn211 O212 2.032 . S
Zn211 O215 2.086 . S
Zn211 O220 1.977 1_545 S
O212 Zn211 2.032 . S
O212 C216 1.278 . S
C213 O214 1.203 . S
C213 O220 1.267 . S
O214 C213 1.203 . S
O215 C208 1.185 . S
O215 Zn211 2.086 . S
C216 O212 1.278 . S
C216 O217 1.211 1_545 S
O217 C216 1.211 1_565 S
C218 O210 1.270 1_565 S
C218 O219 1.273 . S
O219 C218 1.273 . S
O220 Zn211 1.977 1_565 S
O220 C213 1.267 . S
C221 O222 1.160 . S
C221 O228 1.185 . S
O222 C221 1.160 . S
O223 Zn224 1.899 . S
O223 C231 1.284 . S
Zn224 O223 1.899 . S
Zn224 O225 2.032 . S
Zn224 O228 2.086 . S
Zn224 O233 1.977 . S
O225 Zn224 2.032 . S
O225 C229 1.278 . S
C226 O227 1.203 . S
C226 O233 1.267 . S
O227 C226 1.203 . S
O228 C221 1.185 . S
O228 Zn224 2.086 . S
C229 O225 1.278 . S
C229 O230 1.211 . S
O230 C229 1.211 . S
C231 O223 1.284 . S
C231 O232 1.273 . S
O232 C231 1.273 . S
O233 Zn224 1.977 . S
O233 C226 1.267 . S
C234 O235 1.160 . S
C234 O241 1.185 . S
O235 C234 1.160 . S
O236 Zn237 1.899 . S
O236 C244 1.284 . S
Zn237 O236 1.899 . S
Zn237 O238 2.032 . S
Zn237 O241 2.086 . S
Zn237 O246 1.977 . S
O238 Zn237 2.032 . S
O238 C242 1.278 . S
C239 O240 1.203 . S
C239 O246 1.267 . S
O240 C239 1.203 . S
O241 C234 1.185 . S
O241 Zn237 2.086 . S
C242 O238 1.278 . S
C242 O243 1.211 . S
O243 C242 1.211 . S
C244 O236 1.284 . S
C244 O245 1.273 . S
O245 C244 1.273 . S
O246 Zn237 1.977 . S
O246 C239 1.267 . S
C247 O248 1.160 . S
C247 O254 1.185 . S
O248 C247 1.160 . S
O249 Zn250 1.899 . S
O249 C257 1.284 . S
Zn250 O249 1.899 . S
Zn250 O251 2.032 . S
Zn250 O254 2.086 1_545 S
Zn250 O259 1.977 . S
O251 Zn250 2.032 . S
O251 C255 1.278 . S
C252 O253 1.203 . S
C252 O259 1.267 . S
O253 C252 1.203 . S
O254 C247 1.185 . S
O254 Zn250 2.086 1_565 S
C255 O251 1.278 . S
C255 O256 1.211 . S
O256 C255 1.211 . S
C257 O249 1.284 . S
C257 O258 1.273 . S
O258 C257 1.273 . S
O259 Zn250 1.977 . S
O259 C252 1.267 . S
C260 O261 1.160 . S
C260 O267 1.185 . S
O261 C260 1.160 . S
O262 Zn263 1.899 . S
O262 C270 1.284 . S
Zn263 O262 1.899 . S
Zn263 O264 2.032 . S
Zn263 O267 2.086 . S
Zn263 O272 1.977 . S
O264 Zn263 2.032 . S
O264 C268 1.278 . S
C265 O266 1.203 . S
C265 O272 1.267 . S
O266 C265 1.203 . S
O267 C260 1.185 . S
O267 Zn263 2.086 . S
C268 O264 1.278 . S
C268 O269 1.211 . S
O269 C268 1.211 . S
C270 O262 1.284 . S
C270 O271 1.273 . S
O271 C270 1.273 . S
O272 Zn263 1.977 . S
O272 C265 1.267 . S
C273 O274 1.160 . S
C273 O280 1.185 . S
O274 C273 1.160 . S
O275 Zn276 1.899 . S
O275 C283 1.284 . S
Zn276 O275 1.899 . S
Zn276 O277 2.032 . S
Zn276 O280 2.086 . S
Zn276 O285 1.977 . S
O277 Zn276 2.032 . S
O277 C281 1.278 . S
C278 O279 1.203 . S
C278 O285 1.267 . S
O279 C278 1.203 . S
O280 C273 1.185 . S
O280 Zn276 2.086 . S
C281 O277 1.278 . S
C281 O282 1.211 . S
O282 C281 1.211 . S
C283 O275 1.284 . S
C283 O284 1.273 . S
O284 C283 1.273 . S
O285 Zn276 1.977 . S
O285 C278 1.267 . S
C286 O287 1.160 . S
C286 O293 1.185 . S
O287 C286 1.160 . S
O288 Zn289 1.899 . S
O288 C296 1.284 . S
Zn289 O288 1.899 . S
Zn289 O290 2.032 . S
Zn289 O293 2.086 . S
Zn289 O298 1.977 . S
O290 Zn289 2.032 . S
O290 C294 1.278 . S
C291 O292 1.203 . S
C291 O298 1.267 . S
O292 C291 1.203 . S
O293 C286 1.185 . S
O293 Zn289 2.086 . S
C294 O290 1.278 . S
C294 O295 1.211 . S
O295 C294 1.211 . S
C296 O288 1.284 . S
C296 O297 1.273 . S
O297 C296 1.273 . S
O298 Zn289 1.977 . S
O298 C291 1.267 . S
C299 O300 1.160 . S
C299 O306 1.185 . S
O300 C299 1.160 . S
O301 Zn302 1.899 . S
O301 C309 1.284 . S
Zn302 O301 1.899 . S
Zn302 O303 2.032 . S
Zn302 O306 2.086 . S
Zn302 O311 1.977 . S
O303 Zn302 2.032 . S
O303 C307 1.278 . S
C304 O305 1.203 . S
C304 O311 1.267 . S
O305 C304 1.203 . S
O306 C299 1.185 . S
O306 Zn302 2.086 . S
C307 O303 1.278 . S
C307 O308 1.211 . S
O308 C307 1.211 . S
C309 O301 1.284 . S
C309 O310 1.273 . S
O310 C309 1.273 . S
O311 Zn302 1.977 . S
O311 C304 1.267 . S
Tb312 C314 2.809 . S
Tb312 O332 2.484 . S
Tb312 O333 2.454 . S
Tb312 O334 2.658 1_655 S
Tb312 O335 2.409 1_654 S
Tb312 O336 2.378 1_655 S
Tb312 O340 2.325 1_655 S
Tb312 O343 2.341 1_645 S
Tb313 C323 2.809 1_545 S
Tb313 O334 2.325 . S
Tb313 O337 2.341 . S
Tb313 O338 2.484 1_545 S
Tb313 O339 2.440 . S
Tb313 O340 2.658 . S
Tb313 O341 2.409 . S
Tb313 O342 2.378 1_545 S
C314 Tb312 2.809 . S
C314 C315 1.514 . S
C314 O332 1.248 . S
C314 O333 1.289 . S
C315 C314 1.514 . S
C315 C316 1.359 . S
C315 C320 1.348 1_554 S
C316 C315 1.359 . S
C316 C317 1.380 . S
C316 H344 0.929 . S
C317 C316 1.380 . S
C317 C318 1.347 . S
C317 H345 0.931 . S
C318 C317 1.347 . S
C318 C319 1.369 1_554 S
C319 C318 1.369 1_556 S
C319 C320 1.408 . S
C319 H346 0.930 . S
C320 C315 1.348 1_556 S
C320 C319 1.408 . S
C320 H347 0.930 . S
C321 O334 1.281 1_556 S
C321 O335 1.254 . S
C322 O336 1.236 . S
C322 O337 1.266 . S
C323 Tb313 2.809 1_565 S
C323 C324 1.514 . S
C323 O338 1.248 . S
C323 O339 1.266 1_565 S
C324 C323 1.514 . S
C324 C325 1.359 . S
C324 C329 1.348 . S
C325 C324 1.359 . S
C325 C326 1.380 . S
C325 H348 0.929 . S
C326 C325 1.380 . S
C326 C327 1.347 . S
C326 H349 0.931 . S
C327 C326 1.347 . S
C327 C328 1.369 . S
C328 C327 1.369 . S
C328 C329 1.408 . S
C328 H350 0.930 . S
C329 C324 1.348 . S
C329 C328 1.408 . S
C329 H351 0.930 . S
C330 O340 1.281 . S
C330 O341 1.254 . S
C331 O342 1.236 . S
C331 O343 1.266 . S
O332 Tb312 2.484 . S
O332 C314 1.248 . S
O333 Tb312 2.454 . S
O333 C314 1.289 . S
O334 Tb312 2.658 1_455 S
O334 Tb313 2.325 . S
O334 C321 1.281 1_554 S
O335 Tb312 2.409 1_456 S
O335 C321 1.254 . S
O336 Tb312 2.378 1_455 S
O336 C322 1.236 . S
O337 Tb313 2.341 . S
O337 C322 1.266 . S
O338 Tb313 2.484 1_565 S
O338 C323 1.248 . S
O339 Tb313 2.440 . S
O339 C323 1.266 1_545 S
O340 Tb312 2.325 1_455 S
O340 Tb313 2.658 . S
O340 C330 1.281 . S
O341 Tb313 2.409 . S
O341 C330 1.254 . S
O342 Tb313 2.378 1_565 S
O342 C331 1.236 . S
O343 Tb312 2.341 1_465 S
O343 C331 1.266 . S
H344 C316 0.929 . S
H345 C317 0.931 . S
H346 C319 0.930 . S
H347 C320 0.930 . S
H348 C325 0.929 . S
H349 C326 0.931 . S
H350 C328 0.930 . S
H351 C329 0.930 . S
Tb352 C354 2.809 . S
Tb352 O372 2.484 . S
Tb352 O373 2.440 . S
Tb352 O374 2.658 . S
Tb352 O375 2.409 . S
Tb352 O376 2.378 . S
Tb352 O380 2.325 . S
Tb352 O383 2.341 . S
Tb353 C363 2.809 . S
Tb353 O374 2.325 . S
Tb353 O377 2.341 . S
Tb353 O378 2.484 . S
Tb353 O379 2.440 . S
Tb353 O380 2.658 . S
Tb353 O381 2.409 . S
Tb353 O382 2.378 . S
C354 Tb352 2.809 . S
C354 C355 1.514 . S
C354 O372 1.248 . S
C354 O373 1.266 . S
C355 C354 1.514 . S
C355 C356 1.359 . S
C355 C360 1.348 . S
C356 C355 1.359 . S
C356 C357 1.380 . S
C356 H384 0.929 . S
C357 C356 1.380 . S
C357 C358 1.347 . S
C357 H385 0.931 . S
C358 C357 1.347 . S
C358 C359 1.369 . S
C359 C358 1.369 . S
C359 C360 1.408 . S
C359 H386 0.930 . S
C360 C355 1.348 . S
C360 C359 1.408 . S
C360 H387 0.930 . S
C361 O374 1.281 . S
C361 O375 1.254 . S
C362 O376 1.236 . S
C362 O377 1.266 . S
C363 Tb353 2.809 . S
C363 C364 1.514 . S
C363 O378 1.248 . S
C363 O379 1.266 . S
C364 C363 1.514 . S
C364 C365 1.359 . S
C364 C369 1.348 . S
C365 C364 1.359 . S
C365 C366 1.380 . S
C365 H388 0.929 . S
C366 C365 1.380 . S
C366 C367 1.347 . S
C366 H389 0.931 . S
C367 C366 1.347 . S
C367 C368 1.369 . S
C368 C367 1.369 . S
C368 C369 1.408 . S
C368 H390 0.930 . S
C369 C364 1.348 . S
C369 C368 1.408 . S
C369 H391 0.930 . S
C370 O380 1.281 . S
C370 O381 1.254 . S
C371 O382 1.236 . S
C371 O383 1.266 . S
O372 Tb352 2.484 . S
O372 C354 1.248 . S
O373 Tb352 2.440 . S
O373 C354 1.266 . S
O374 Tb352 2.658 . S
O374 Tb353 2.325 . S
O374 C361 1.281 . S
O375 Tb352 2.409 . S
O375 C361 1.254 . S
O376 Tb352 2.378 . S
O376 C362 1.236 . S
O377 Tb353 2.341 . S
O377 C362 1.266 . S
O378 Tb353 2.484 . S
O378 C363 1.248 . S
O379 Tb353 2.440 . S
O379 C363 1.266 . S
O380 Tb352 2.325 . S
O380 Tb353 2.658 . S
O380 C370 1.281 . S
O381 Tb353 2.409 . S
O381 C370 1.254 . S
O382 Tb353 2.378 . S
O382 C371 1.236 . S
O383 Tb352 2.341 . S
O383 C371 1.266 . S
H384 C356 0.929 . S
H385 C357 0.931 . S
H386 C359 0.930 . S
H387 C360 0.930 . S
H388 C365 0.929 . S
H389 C366 0.931 . S
H390 C368 0.930 . S
H391 C369 0.930 . S
Tb392 C394 2.817 . S
Tb392 O412 2.484 . S
Tb392 O413 2.440 . S
Tb392 O414 2.658 . S
Tb392 O415 2.409 . S
Tb392 O416 2.378 1_545 S
Tb392 O420 2.325 . S
Tb392 O423 2.341 . S
Tb393 C403 2.809 . S
Tb393 O414 2.325 . S
Tb393 O417 2.341 1_545 S
Tb393 O418 2.484 . S
Tb393 O419 2.440 . S
Tb393 O420 2.658 . S
Tb393 O421 2.409 . S
Tb393 O422 2.378 . S
C394 Tb392 2.817 . S
C394 C395 1.505 1_545 S
C394 O412 1.248 . S
C394 O413 1.274 . S
C395 C394 1.505 1_565 S
C395 C396 1.359 . S
C395 C400 1.348 . S
C396 C395 1.359 . S
C396 C397 1.380 . S
C396 H424 0.929 . S
C397 C396 1.380 . S
C397 C398 1.347 . S
C397 H425 0.931 . S
C398 C397 1.347 . S
C398 C399 1.369 . S
C399 C398 1.369 . S
C399 C400 1.408 . S
C399 H426 0.930 . S
C400 C395 1.348 . S
C400 C399 1.408 . S
C400 H427 0.930 . S
C401 O414 1.281 . S
C401 O415 1.254 . S
C402 O416 1.236 . S
C402 O417 1.266 . S
C403 Tb393 2.809 . S
C403 C404 1.514 . S
C403 O418 1.248 . S
C403 O419 1.266 . S
C404 C403 1.514 . S
C404 C405 1.359 . S
C404 C409 1.348 . S
C405 C404 1.359 . S
C405 C406 1.380 . S
C405 H428 0.929 . S
C406 C405 1.380 . S
C406 C407 1.347 . S
C406 H429 0.931 . S
C407 C406 1.347 . S
C407 C408 1.369 . S
C408 C407 1.369 . S
C408 C409 1.408 . S
C408 H430 0.930 . S
C409 C404 1.348 . S
C409 C408 1.408 . S
C409 H431 0.930 . S
C410 O420 1.281 . S
C410 O421 1.254 . S
C411 O422 1.236 . S
C411 O423 1.266 . S
O412 Tb392 2.484 . S
O412 C394 1.248 . S
O413 Tb392 2.440 . S
O413 C394 1.274 . S
O414 Tb392 2.658 . S
O414 Tb393 2.325 . S
O414 C401 1.281 . S
O415 Tb392 2.409 . S
O415 C401 1.254 . S
O416 Tb392 2.378 1_565 S
O416 C402 1.236 . S
O417 Tb393 2.341 1_565 S
O417 C402 1.266 . S
O418 Tb393 2.484 . S
O418 C403 1.248 . S
O419 Tb393 2.440 . S
O419 C403 1.266 . S
O420 Tb392 2.325 . S
O420 Tb393 2.658 . S
O420 C410 1.281 . S
O421 Tb393 2.409 . S
O421 C410 1.254 . S
O422 Tb393 2.378 . S
O422 C411 1.236 . S
O423 Tb392 2.341 . S
O423 C411 1.266 . S
H424 C396 0.929 . S
H425 C397 0.931 . S
H426 C399 0.930 . S
H427 C400 0.930 . S
H428 C405 0.929 . S
H429 C406 0.931 . S
H430 C408 0.930 . S
H431 C409 0.930 . S
Tb432 C434 2.809 . S
Tb432 O452 2.484 . S
Tb432 O453 2.440 . S
Tb432 O454 2.658 . S
Tb432 O455 2.409 . S
Tb432 O456 2.378 . S
Tb432 O460 2.325 . S
Tb432 O463 2.341 . S
Tb433 C443 2.809 . S
Tb433 O454 2.325 . S
Tb433 O457 2.341 . S
Tb433 O458 2.484 . S
Tb433 O459 2.440 . S
Tb433 O460 2.658 . S
Tb433 O461 2.409 . S
Tb433 O462 2.378 . S
C434 Tb432 2.809 . S
C434 C435 1.514 . S
C434 O452 1.248 . S
C434 O453 1.266 . S
C435 C434 1.514 . S
C435 C436 1.359 . S
C435 C440 1.348 . S
C436 C435 1.359 . S
C436 C437 1.380 . S
C436 H464 0.929 . S
C437 C436 1.380 . S
C437 C438 1.347 . S
C437 H465 0.931 . S
C438 C437 1.347 . S
C438 C439 1.369 . S
C439 C438 1.369 . S
C439 C440 1.408 . S
C439 H466 0.930 . S
C440 C435 1.348 . S
C440 C439 1.408 . S
C440 H467 0.930 . S
C441 O454 1.281 . S
C441 O455 1.254 . S
C442 O456 1.236 . S
C442 O457 1.266 . S
C443 Tb433 2.809 . S
C443 C444 1.514 . S
C443 O458 1.248 . S
C443 O459 1.266 . S
C444 C443 1.514 . S
C444 C445 1.359 . S
C444 C449 1.348 . S
C445 C444 1.359 . S
C445 C446 1.380 . S
C445 H468 0.929 . S
C446 C445 1.380 . S
C446 C447 1.347 . S
C446 H469 0.931 . S
C447 C446 1.347 . S
C447 C448 1.369 . S
C448 C447 1.369 . S
C448 C449 1.408 . S
C448 H470 0.930 . S
C449 C444 1.348 . S
C449 C448 1.408 . S
C449 H471 0.930 . S
C450 O460 1.281 . S
C450 O461 1.254 . S
C451 O462 1.236 . S
C451 O463 1.266 . S
O452 Tb432 2.484 . S
O452 C434 1.248 . S
O453 Tb432 2.440 . S
O453 C434 1.266 . S
O454 Tb432 2.658 . S
O454 Tb433 2.325 . S
O454 C441 1.281 . S
O455 Tb432 2.409 . S
O455 C441 1.254 . S
O456 Tb432 2.378 . S
O456 C442 1.236 . S
O457 Tb433 2.341 . S
O457 C442 1.266 . S
O458 Tb433 2.484 . S
O458 C443 1.248 . S
O459 Tb433 2.440 . S
O459 C443 1.266 . S
O460 Tb432 2.325 . S
O460 Tb433 2.658 . S
O460 C450 1.281 . S
O461 Tb433 2.409 . S
O461 C450 1.254 . S
O462 Tb433 2.378 . S
O462 C451 1.236 . S
O463 Tb432 2.341 . S
O463 C451 1.266 . S
H464 C436 0.929 . S
H465 C437 0.931 . S
H466 C439 0.930 . S
H467 C440 0.930 . S
H468 C445 0.929 . S
H469 C446 0.931 . S
H470 C448 0.930 . S
H471 C449 0.930 . S
Tb472 C474 2.809 . S
Tb472 O492 2.484 . S
Tb472 O493 2.440 . S
Tb472 O494 2.658 . S
Tb472 O495 2.409 1_455 S
Tb472 O496 2.378 . S
Tb472 O500 2.325 . S
Tb472 O503 2.341 . S
Tb473 C483 2.809 . S
Tb473 O494 2.325 1_565 S
Tb473 O497 2.328 1_565 S
Tb473 O498 2.484 . S
Tb473 O499 2.440 . S
Tb473 O500 2.658 1_565 S
Tb473 O501 2.409 1_565 S
Tb473 O502 2.378 1_565 S
C474 Tb472 2.809 . S
C474 C475 1.514 . S
C474 O492 1.248 . S
C474 O493 1.266 . S
C475 C474 1.514 . S
C475 C476 1.359 . S
C475 C480 1.348 1_455 S
C476 C475 1.359 . S
C476 C477 1.380 . S
C476 H504 0.929 . S
C477 C476 1.380 . S
C477 C478 1.356 . S
C477 H505 0.931 . S
C478 C477 1.356 . S
C478 C479 1.362 1_455 S
C479 C478 1.362 1_655 S
C479 C480 1.408 . S
C479 H506 0.930 . S
C480 C475 1.348 1_655 S
C480 C479 1.408 . S
C480 H507 0.930 . S
C481 O494 1.281 1_655 S
C481 O495 1.254 . S
C482 O496 1.236 . S
C482 O497 1.290 . S
C483 Tb473 2.809 . S
C483 C484 1.514 . S
C483 O498 1.248 . S
C483 O499 1.266 . S
C484 C483 1.514 . S
C484 C485 1.359 . S
C484 C489 1.348 . S
C485 C484 1.359 . S
C485 C486 1.380 . S
C485 H508 0.929 . S
C486 C485 1.380 . S
C486 C487 1.347 . S
C486 H509 0.931 . S
C487 C486 1.347 . S
C487 C488 1.369 . S
C488 C487 1.369 . S
C488 C489 1.408 . S
C488 H510 0.930 . S
C489 C484 1.348 . S
C489 C488 1.408 . S
C489 H511 0.930 . S
C490 O500 1.281 . S
C490 O501 1.254 . S
C491 O502 1.236 . S
C491 O503 1.266 . S
O492 Tb472 2.484 . S
O492 C474 1.248 . S
O493 Tb472 2.440 . S
O493 C474 1.266 . S
O494 Tb472 2.658 . S
O494 Tb473 2.325 1_545 S
O494 C481 1.281 1_455 S
O495 Tb472 2.409 1_655 S
O495 C481 1.254 . S
O496 Tb472 2.378 . S
O496 C482 1.236 . S
O497 Tb473 2.328 1_545 S
O497 C482 1.290 . S
O498 Tb473 2.484 . S
O498 C483 1.248 . S
O499 Tb473 2.440 . S
O499 C483 1.266 . S
O500 Tb472 2.325 . S
O500 Tb473 2.658 1_545 S
O500 C490 1.281 . S
O501 Tb473 2.409 1_545 S
O501 C490 1.254 . S
O502 Tb473 2.378 1_545 S
O502 C491 1.236 . S
O503 Tb472 2.341 . S
O503 C491 1.266 . S
H504 C476 0.929 . S
H505 C477 0.931 . S
H506 C479 0.930 . S
H507 C480 0.930 . S
H508 C485 0.929 . S
H509 C486 0.931 . S
H510 C488 0.930 . S
H511 C489 0.930 . S
Tb512 C514 2.809 . S
Tb512 O532 2.484 . S
Tb512 O533 2.440 . S
Tb512 O534 2.658 . S
Tb512 O535 2.409 . S
Tb512 O536 2.378 . S
Tb512 O540 2.325 . S
Tb512 O543 2.341 . S
Tb513 C523 2.809 . S
Tb513 O534 2.325 . S
Tb513 O537 2.341 . S
Tb513 O538 2.484 . S
Tb513 O539 2.440 . S
Tb513 O540 2.658 . S
Tb513 O541 2.409 . S
Tb513 O542 2.378 . S
C514 Tb512 2.809 . S
C514 C515 1.514 . S
C514 O532 1.248 . S
C514 O533 1.266 . S
C515 C514 1.514 . S
C515 C516 1.359 . S
C515 C520 1.348 . S
C516 C515 1.359 . S
C516 C517 1.380 . S
C516 H544 0.929 . S
C517 C516 1.380 . S
C517 C518 1.347 . S
C517 H545 0.931 . S
C518 C517 1.347 . S
C518 C519 1.369 . S
C519 C518 1.369 . S
C519 C520 1.408 . S
C519 H546 0.930 . S
C520 C515 1.348 . S
C520 C519 1.408 . S
C520 H547 0.930 . S
C521 O534 1.281 . S
C521 O535 1.254 . S
C522 O536 1.236 . S
C522 O537 1.266 . S
C523 Tb513 2.809 . S
C523 C524 1.514 . S
C523 O538 1.248 . S
C523 O539 1.266 . S
C524 C523 1.514 . S
C524 C525 1.359 . S
C524 C529 1.348 . S
C525 C524 1.359 . S
C525 C526 1.380 . S
C525 H548 0.929 . S
C526 C525 1.380 . S
C526 C527 1.347 . S
C526 H549 0.931 . S
C527 C526 1.347 . S
C527 C528 1.369 . S
C528 C527 1.369 . S
C528 C529 1.408 . S
C528 H550 0.930 . S
C529 C524 1.348 . S
C529 C528 1.408 . S
C529 H551 0.930 . S
C530 O540 1.281 . S
C530 O541 1.254 . S
C531 O542 1.236 . S
C531 O543 1.266 . S
O532 Tb512 2.484 . S
O532 C514 1.248 . S
O533 Tb512 2.440 . S
O533 C514 1.266 . S
O534 Tb512 2.658 . S
O534 Tb513 2.325 . S
O534 C521 1.281 . S
O535 Tb512 2.409 . S
O535 C521 1.254 . S
O536 Tb512 2.378 . S
O536 C522 1.236 . S
O537 Tb513 2.341 . S
O537 C522 1.266 . S
O538 Tb513 2.484 . S
O538 C523 1.248 . S
O539 Tb513 2.440 . S
O539 C523 1.266 . S
O540 Tb512 2.325 . S
O540 Tb513 2.658 . S
O540 C530 1.281 . S
O541 Tb513 2.409 . S
O541 C530 1.254 . S
O542 Tb513 2.378 . S
O542 C531 1.236 . S
O543 Tb512 2.341 . S
O543 C531 1.266 . S
H544 C516 0.929 . S
H545 C517 0.931 . S
H546 C519 0.930 . S
H547 C520 0.930 . S
H548 C525 0.929 . S
H549 C526 0.931 . S
H550 C528 0.930 . S
H551 C529 0.930 . S
Tb552 C554 2.809 1_545 S
Tb552 O572 2.484 1_545 S
Tb552 O573 2.440 . S
Tb552 O574 2.658 . S
Tb552 O575 2.409 . S
Tb552 O576 2.378 . S
Tb552 O580 2.325 1_545 S
Tb552 O583 2.341 . S
Tb553 C563 2.809 . S
Tb553 O574 2.325 . S
Tb553 O577 2.341 . S
Tb553 O578 2.484 . S
Tb553 O579 2.440 . S
Tb553 O580 2.658 1_545 S
Tb553 O581 2.409 1_545 S
Tb553 O582 2.378 . S
C554 Tb552 2.809 1_565 S
C554 C555 1.514 . S
C554 O572 1.248 . S
C554 O573 1.266 1_565 S
C555 C554 1.514 . S
C555 C556 1.359 . S
C555 C560 1.348 1_565 S
C556 C555 1.359 . S
C556 C557 1.380 . S
C556 H584 0.929 . S
C557 C556 1.380 . S
C557 C558 1.347 . S
C557 H585 0.931 . S
C558 C557 1.347 . S
C558 C559 1.369 . S
C559 C558 1.369 . S
C559 C560 1.408 1_565 S
C559 H586 0.930 1_565 S
C560 C555 1.348 1_545 S
C560 C559 1.408 1_545 S
C560 H587 0.930 . S
C561 O574 1.281 . S
C561 O575 1.254 . S
C562 O576 1.236 . S
C562 O577 1.266 . S
C563 Tb553 2.809 . S
C563 C564 1.514 . S
C563 O578 1.248 . S
C563 O579 1.266 . S
C564 C563 1.514 . S
C564 C565 1.359 . S
C564 C569 1.348 . S
C565 C564 1.359 . S
C565 C566 1.380 . S
C565 H588 0.929 . S
C566 C565 1.380 . S
C566 C567 1.347 . S
C566 H589 0.931 . S
C567 C566 1.347 . S
C567 C568 1.369 . S
C568 C567 1.369 . S
C568 C569 1.408 . S
C568 H590 0.930 . S
C569 C564 1.348 . S
C569 C568 1.408 . S
C569 H591 0.930 . S
C570 O580 1.281 . S
C570 O581 1.254 . S
C571 O582 1.236 . S
C571 O583 1.266 . S
O572 Tb552 2.484 1_565 S
O572 C554 1.248 . S
O573 Tb552 2.440 . S
O573 C554 1.266 1_545 S
O574 Tb552 2.658 . S
O574 Tb553 2.325 . S
O574 C561 1.281 . S
O575 Tb552 2.409 . S
O575 C561 1.254 . S
O576 Tb552 2.378 . S
O576 C562 1.236 . S
O577 Tb553 2.341 . S
O577 C562 1.266 . S
O578 Tb553 2.484 . S
O578 C563 1.248 . S
O579 Tb553 2.440 . S
O579 C563 1.266 . S
O580 Tb552 2.325 1_565 S
O580 Tb553 2.658 1_565 S
O580 C570 1.281 . S
O581 Tb553 2.409 1_565 S
O581 C570 1.254 . S
O582 Tb553 2.378 . S
O582 C571 1.236 . S
O583 Tb552 2.341 . S
O583 C571 1.266 . S
H584 C556 0.929 . S
H585 C557 0.931 . S
H586 C559 0.930 1_545 S
H587 C560 0.930 . S
H588 C565 0.929 . S
H589 C566 0.931 . S
H590 C568 0.930 . S
H591 C569 0.930 . S
Tb592 C594 2.809 . S
Tb592 O612 2.484 . S
Tb592 O613 2.440 . S
Tb592 O614 2.658 . S
Tb592 O615 2.409 . S
Tb592 O616 2.378 . S
Tb592 O620 2.325 . S
Tb592 O623 2.341 . S
Tb593 C603 2.809 . S
Tb593 O614 2.325 . S
Tb593 O617 2.341 . S
Tb593 O618 2.484 . S
Tb593 O619 2.440 . S
Tb593 O620 2.658 . S
Tb593 O621 2.409 . S
Tb593 O622 2.378 . S
C594 Tb592 2.809 . S
C594 C595 1.514 . S
C594 O612 1.248 . S
C594 O613 1.266 . S
C595 C594 1.514 . S
C595 C596 1.359 . S
C595 C600 1.348 . S
C596 C595 1.359 . S
C596 C597 1.380 . S
C596 H624 0.929 . S
C597 C596 1.380 . S
C597 C598 1.347 . S
C597 H625 0.931 . S
C598 C597 1.347 . S
C598 C599 1.369 . S
C599 C598 1.369 . S
C599 C600 1.408 . S
C599 H626 0.930 . S
C600 C595 1.348 . S
C600 C599 1.408 . S
C600 H627 0.930 . S
C601 O614 1.281 . S
C601 O615 1.254 . S
C602 O616 1.236 . S
C602 O617 1.266 . S
C603 Tb593 2.809 . S
C603 C604 1.514 . S
C603 O618 1.248 . S
C603 O619 1.266 . S
C604 C603 1.514 . S
C604 C605 1.359 . S
C604 C609 1.348 . S
C605 C604 1.359 . S
C605 C606 1.380 . S
C605 H628 0.929 . S
C606 C605 1.380 . S
C606 C607 1.347 . S
C606 H629 0.931 . S
C607 C606 1.347 . S
C607 C608 1.369 . S
C608 C607 1.369 . S
C608 C609 1.408 . S
C608 H630 0.930 . S
C609 C604 1.348 . S
C609 C608 1.408 . S
C609 H631 0.930 . S
C610 O620 1.281 . S
C610 O621 1.254 . S
C611 O622 1.236 . S
C611 O623 1.266 . S
O612 Tb592 2.484 . S
O612 C594 1.248 . S
O613 Tb592 2.440 . S
O613 C594 1.266 . S
O614 Tb592 2.658 . S
O614 Tb593 2.325 . S
O614 C601 1.281 . S
O615 Tb592 2.409 . S
O615 C601 1.254 . S
O616 Tb592 2.378 . S
O616 C602 1.236 . S
O617 Tb593 2.341 . S
O617 C602 1.266 . S
O618 Tb593 2.484 . S
O618 C603 1.248 . S
O619 Tb593 2.440 . S
O619 C603 1.266 . S
O620 Tb592 2.325 . S
O620 Tb593 2.658 . S
O620 C610 1.281 . S
O621 Tb593 2.409 . S
O621 C610 1.254 . S
O622 Tb593 2.378 . S
O622 C611 1.236 . S
O623 Tb592 2.341 . S
O623 C611 1.266 . S
H624 C596 0.929 . S
H625 C597 0.931 . S
H626 C599 0.930 . S
H627 C600 0.930 . S
H628 C605 0.929 . S
H629 C606 0.931 . S
H630 C608 0.930 . S
H631 C609 0.930 . S
Tb632 C634 2.809 . S
Tb632 O652 2.484 . S
Tb632 O653 2.440 . S
Tb632 O654 2.658 . S
Tb632 O655 2.409 . S
Tb632 O656 2.378 . S
Tb632 O660 2.325 . S
Tb632 O663 2.341 . S
Tb633 C643 2.809 . S
Tb633 O654 2.325 . S
Tb633 O657 2.341 . S
Tb633 O658 2.484 . S
Tb633 O659 2.440 . S
Tb633 O660 2.658 . S
Tb633 O661 2.409 . S
Tb633 O662 2.378 . S
C634 Tb632 2.809 . S
C634 C635 1.514 . S
C634 O652 1.248 . S
C634 O653 1.266 . S
C635 C634 1.514 . S
C635 C636 1.359 1_554 S
C635 C640 1.348 . S
C636 C635 1.359 1_556 S
C636 C637 1.380 . S
C636 H664 0.929 . S
C637 C636 1.380 . S
C637 C638 1.347 . S
C637 H665 0.931 . S
C638 C637 1.347 . S
C638 C639 1.369 . S
C639 C638 1.369 . S
C639 C640 1.408 1_556 S
C639 H666 0.930 . S
C640 C635 1.348 . S
C640 C639 1.408 1_554 S
C640 H667 0.930 . S
C641 O654 1.281 . S
C641 O655 1.254 . S
C642 O656 1.236 1_556 S
C642 O657 1.266 1_556 S
C643 Tb633 2.809 . S
C643 C644 1.514 . S
C643 O658 1.248 . S
C643 O659 1.266 . S
C644 C643 1.514 . S
C644 C645 1.359 . S
C644 C649 1.348 . S
C645 C644 1.359 . S
C645 C646 1.380 . S
C645 H668 0.929 . S
C646 C645 1.380 . S
C646 C647 1.347 . S
C646 H669 0.931 . S
C647 C646 1.347 . S
C647 C648 1.369 . S
C648 C647 1.369 . S
C648 C649 1.408 . S
C648 H670 0.930 . S
C649 C644 1.348 . S
C649 C648 1.408 . S
C649 H671 0.930 . S
C650 O660 1.281 . S
C650 O661 1.254 . S
C651 O662 1.236 . S
C651 O663 1.266 . S
O652 Tb632 2.484 . S
O652 C634 1.248 . S
O653 Tb632 2.440 . S
O653 C634 1.266 . S
O654 Tb632 2.658 . S
O654 Tb633 2.325 . S
O654 C641 1.281 . S
O655 Tb632 2.409 . S
O655 C641 1.254 . S
O656 Tb632 2.378 . S
O656 C642 1.236 1_554 S
O657 Tb633 2.341 . S
O657 C642 1.266 1_554 S
O658 Tb633 2.484 . S
O658 C643 1.248 . S
O659 Tb633 2.440 . S
O659 C643 1.266 . S
O660 Tb632 2.325 . S
O660 Tb633 2.658 . S
O660 C650 1.281 . S
O661 Tb633 2.409 . S
O661 C650 1.254 . S
O662 Tb633 2.378 . S
O662 C651 1.236 . S
O663 Tb632 2.341 . S
O663 C651 1.266 . S
H664 C636 0.929 . S
H665 C637 0.931 . S
H666 C639 0.930 . S
H667 C640 0.930 . S
H668 C645 0.929 . S
H669 C646 0.931 . S
H670 C648 0.930 . S
H671 C649 0.930 . S
Tb672 C674 2.809 . S
Tb672 O692 2.484 . S
Tb672 O693 2.440 . S
Tb672 O694 2.658 . S
Tb672 O695 2.409 . S
Tb672 O696 2.378 . S
Tb672 O700 2.325 . S
Tb672 O703 2.341 . S
Tb673 C683 2.809 . S
Tb673 O694 2.325 . S
Tb673 O697 2.341 . S
Tb673 O698 2.484 . S
Tb673 O699 2.440 . S
Tb673 O700 2.658 . S
Tb673 O701 2.409 . S
Tb673 O702 2.378 . S
C674 Tb672 2.809 . S
C674 C675 1.514 . S
C674 O692 1.248 . S
C674 O693 1.266 . S
C675 C674 1.514 . S
C675 C676 1.359 . S
C675 C680 1.348 . S
C676 C675 1.359 . S
C676 C677 1.380 . S
C676 H704 0.929 . S
C677 C676 1.380 . S
C677 C678 1.347 . S
C677 H705 0.931 . S
C678 C677 1.347 . S
C678 C679 1.369 . S
C679 C678 1.369 . S
C679 C680 1.408 . S
C679 H706 0.930 . S
C680 C675 1.348 . S
C680 C679 1.408 . S
C680 H707 0.930 . S
C681 O694 1.281 . S
C681 O695 1.254 . S
C682 O696 1.236 . S
C682 O697 1.266 . S
C683 Tb673 2.809 . S
C683 C684 1.514 . S
C683 O698 1.248 . S
C683 O699 1.266 . S
C684 C683 1.514 . S
C684 C685 1.359 . S
C684 C689 1.348 . S
C685 C684 1.359 . S
C685 C686 1.380 . S
C685 H708 0.929 . S
C686 C685 1.380 . S
C686 C687 1.347 . S
C686 H709 0.931 . S
C687 C686 1.347 . S
C687 C688 1.369 . S
C688 C687 1.369 . S
C688 C689 1.408 . S
C688 H710 0.930 . S
C689 C684 1.348 . S
C689 C688 1.408 . S
C689 H711 0.930 . S
C690 O700 1.281 . S
C690 O701 1.254 . S
C691 O702 1.236 . S
C691 O703 1.266 . S
O692 Tb672 2.484 . S
O692 C674 1.248 . S
O693 Tb672 2.440 . S
O693 C674 1.266 . S
O694 Tb672 2.658 . S
O694 Tb673 2.325 . S
O694 C681 1.281 . S
O695 Tb672 2.409 . S
O695 C681 1.254 . S
O696 Tb672 2.378 . S
O696 C682 1.236 . S
O697 Tb673 2.341 . S
O697 C682 1.266 . S
O698 Tb673 2.484 . S
O698 C683 1.248 . S
O699 Tb673 2.440 . S
O699 C683 1.266 . S
O700 Tb672 2.325 . S
O700 Tb673 2.658 . S
O700 C690 1.281 . S
O701 Tb673 2.409 . S
O701 C690 1.254 . S
O702 Tb673 2.378 . S
O702 C691 1.236 . S
O703 Tb672 2.341 . S
O703 C691 1.266 . S
H704 C676 0.929 . S
H705 C677 0.931 . S
H706 C679 0.930 . S
H707 C680 0.930 . S
H708 C685 0.929 . S
H709 C686 0.931 . S
H710 C688 0.930 . S
H711 C689 0.930 . S
Tb712 C714 2.809 1_455 S
Tb712 O732 2.484 1_455 S
Tb712 O733 2.440 1_455 S
Tb712 O734 2.658 . S
Tb712 O735 2.409 . S
Tb712 O736 2.378 . S
Tb712 O740 2.325 . S
Tb712 O743 2.341 . S
Tb713 C723 2.809 . S
Tb713 O734 2.325 . S
Tb713 O737 2.341 . S
Tb713 O738 2.484 . S
Tb713 O739 2.440 . S
Tb713 O740 2.658 . S
Tb713 O741 2.409 . S
Tb713 O742 2.378 . S
C714 Tb712 2.809 1_655 S
C714 C715 1.514 . S
C714 O732 1.248 . S
C714 O733 1.266 . S
C715 C714 1.514 . S
C715 C716 1.359 . S
C715 C720 1.348 . S
C716 C715 1.359 . S
C716 C717 1.380 . S
C716 H744 0.929 . S
C717 C716 1.380 . S
C717 C718 1.347 . S
C717 H745 0.931 . S
C718 C717 1.347 . S
C718 C719 1.369 . S
C719 C718 1.369 . S
C719 C720 1.408 . S
C719 H746 0.930 . S
C720 C715 1.348 . S
C720 C719 1.408 . S
C720 H747 0.930 . S
C721 O734 1.281 . S
C721 O735 1.254 . S
C722 O736 1.236 . S
C722 O737 1.266 . S
C723 Tb713 2.809 . S
C723 C724 1.514 . S
C723 O738 1.248 . S
C723 O739 1.266 . S
C724 C723 1.514 . S
C724 C725 1.359 . S
C724 C729 1.348 . S
C725 C724 1.359 . S
C725 C726 1.380 . S
C725 H748 0.929 . S
C726 C725 1.380 . S
C726 C727 1.347 . S
C726 H749 0.931 . S
C727 C726 1.347 . S
C727 C728 1.369 . S
C728 C727 1.369 . S
C728 C729 1.408 . S
C728 H750 0.930 . S
C729 C724 1.348 . S
C729 C728 1.408 . S
C729 H751 0.930 . S
C730 O740 1.281 . S
C730 O741 1.254 . S
C731 O742 1.236 . S
C731 O743 1.266 . S
O732 Tb712 2.484 1_655 S
O732 C714 1.248 . S
O733 Tb712 2.440 1_655 S
O733 C714 1.266 . S
O734 Tb712 2.658 . S
O734 Tb713 2.325 . S
O734 C721 1.281 . S
O735 Tb712 2.409 . S
O735 C721 1.254 . S
O736 Tb712 2.378 . S
O736 C722 1.236 . S
O737 Tb713 2.341 . S
O737 C722 1.266 . S
O738 Tb713 2.484 . S
O738 C723 1.248 . S
O739 Tb713 2.440 . S
O739 C723 1.266 . S
O740 Tb712 2.325 . S
O740 Tb713 2.658 . S
O740 C730 1.281 . S
O741 Tb713 2.409 . S
O741 C730 1.254 . S
O742 Tb713 2.378 . S
O742 C731 1.236 . S
O743 Tb712 2.341 . S
O743 C731 1.266 . S
H744 C716 0.929 . S
H745 C717 0.931 . S
H746 C719 0.930 . S
H747 C720 0.930 . S
H748 C725 0.929 . S
H749 C726 0.931 . S
H750 C728 0.930 . S
H751 C729 0.930 . S
Tb752 C754 2.809 . S
Tb752 O772 2.484 . S
Tb752 O773 2.440 . S
Tb752 O774 2.658 . S
Tb752 O775 2.409 . S
Tb752 O776 2.378 . S
Tb752 O780 2.325 . S
Tb752 O783 2.341 . S
Tb753 C763 2.809 . S
Tb753 O774 2.325 . S
Tb753 O777 2.341 . S
Tb753 O778 2.484 . S
Tb753 O779 2.440 . S
Tb753 O780 2.658 . S
Tb753 O781 2.409 . S
Tb753 O782 2.378 . S
C754 Tb752 2.809 . S
C754 C755 1.514 . S
C754 O772 1.248 . S
C754 O773 1.266 . S
C755 C754 1.514 . S
C755 C756 1.359 . S
C755 C760 1.348 . S
C756 C755 1.359 . S
C756 C757 1.380 . S
C756 H784 0.929 . S
C757 C756 1.380 . S
C757 C758 1.347 . S
C757 H785 0.931 . S
C758 C757 1.347 . S
C758 C759 1.369 . S
C759 C758 1.369 . S
C759 C760 1.408 . S
C759 H786 0.930 . S
C760 C755 1.348 . S
C760 C759 1.408 . S
C760 H787 0.930 . S
C761 O774 1.281 . S
C761 O775 1.254 . S
C762 O776 1.236 . S
C762 O777 1.266 . S
C763 Tb753 2.809 . S
C763 C764 1.514 . S
C763 O778 1.248 . S
C763 O779 1.266 . S
C764 C763 1.514 . S
C764 C765 1.359 . S
C764 C769 1.348 . S
C765 C764 1.359 . S
C765 C766 1.380 . S
C765 H788 0.929 . S
C766 C765 1.380 . S
C766 C767 1.347 . S
C766 H789 0.931 . S
C767 C766 1.347 . S
C767 C768 1.369 . S
C768 C767 1.369 . S
C768 C769 1.408 . S
C768 H790 0.930 . S
C769 C764 1.348 . S
C769 C768 1.408 . S
C769 H791 0.930 . S
C770 O780 1.281 . S
C770 O781 1.254 . S
C771 O782 1.236 . S
C771 O783 1.266 . S
O772 Tb752 2.484 . S
O772 C754 1.248 . S
O773 Tb752 2.440 . S
O773 C754 1.266 . S
O774 Tb752 2.658 . S
O774 Tb753 2.325 . S
O774 C761 1.281 . S
O775 Tb752 2.409 . S
O775 C761 1.254 . S
O776 Tb752 2.378 . S
O776 C762 1.236 . S
O777 Tb753 2.341 . S
O777 C762 1.266 . S
O778 Tb753 2.484 . S
O778 C763 1.248 . S
O779 Tb753 2.440 . S
O779 C763 1.266 . S
O780 Tb752 2.325 . S
O780 Tb753 2.658 . S
O780 C770 1.281 . S
O781 Tb753 2.409 . S
O781 C770 1.254 . S
O782 Tb753 2.378 . S
O782 C771 1.236 . S
O783 Tb752 2.341 . S
O783 C771 1.266 . S
H784 C756 0.929 . S
H785 C757 0.931 . S
H786 C759 0.930 . S
H787 C760 0.930 . S
H788 C765 0.929 . S
H789 C766 0.931 . S
H790 C768 0.930 . S
H791 C769 0.930 . S
Tb792 C794 2.809 . S
Tb792 O812 2.484 . S
Tb792 O813 2.440 . S
Tb792 O814 2.658 . S
Tb792 O815 2.409 . S
Tb792 O816 2.378 . S
Tb792 O820 2.325 . S
Tb792 O823 2.341 . S
Tb793 C803 2.809 . S
Tb793 O814 2.325 . S
Tb793 O817 2.341 . S
Tb793 O818 2.484 . S
Tb793 O819 2.440 . S
Tb793 O820 2.658 . S
Tb793 O821 2.409 . S
Tb793 O822 2.378 . S
C794 Tb792 2.809 . S
C794 C795 1.514 . S
C794 O812 1.248 . S
C794 O813 1.266 . S
C795 C794 1.514 . S
C795 C796 1.359 . S
C795 C800 1.348 . S
C796 C795 1.359 . S
C796 C797 1.380 . S
C796 H824 0.929 . S
C797 C796 1.380 . S
C797 C798 1.347 . S
C797 H825 0.931 . S
C798 C797 1.347 . S
C798 C799 1.369 . S
C799 C798 1.369 . S
C799 C800 1.408 . S
C799 H826 0.930 . S
C800 C795 1.348 . S
C800 C799 1.408 . S
C800 H827 0.930 . S
C801 O814 1.281 . S
C801 O815 1.254 . S
C802 O816 1.236 . S
C802 O817 1.266 . S
C803 Tb793 2.809 . S
C803 C804 1.514 . S
C803 O818 1.248 . S
C803 O819 1.266 . S
C804 C803 1.514 . S
C804 C805 1.359 . S
C804 C809 1.348 . S
C805 C804 1.359 . S
C805 C806 1.380 . S
C805 H828 0.929 . S
C806 C805 1.380 . S
C806 C807 1.347 . S
C806 H829 0.931 . S
C807 C806 1.347 . S
C807 C808 1.369 . S
C808 C807 1.369 . S
C808 C809 1.408 . S
C808 H830 0.930 . S
C809 C804 1.348 . S
C809 C808 1.408 . S
C809 H831 0.930 . S
C810 O820 1.281 . S
C810 O821 1.254 . S
C811 O822 1.236 . S
C811 O823 1.266 . S
O812 Tb792 2.484 . S
O812 C794 1.248 . S
O813 Tb792 2.440 . S
O813 C794 1.266 . S
O814 Tb792 2.658 . S
O814 Tb793 2.325 . S
O814 C801 1.281 . S
O815 Tb792 2.409 . S
O815 C801 1.254 . S
O816 Tb792 2.378 . S
O816 C802 1.236 . S
O817 Tb793 2.341 . S
O817 C802 1.266 . S
O818 Tb793 2.484 . S
O818 C803 1.248 . S
O819 Tb793 2.440 . S
O819 C803 1.266 . S
O820 Tb792 2.325 . S
O820 Tb793 2.658 . S
O820 C810 1.281 . S
O821 Tb793 2.409 . S
O821 C810 1.254 . S
O822 Tb793 2.378 . S
O822 C811 1.236 . S
O823 Tb792 2.341 . S
O823 C811 1.266 . S
H824 C796 0.929 . S
H825 C797 0.931 . S
H826 C799 0.930 . S
H827 C800 0.930 . S
H828 C805 0.929 . S
H829 C806 0.931 . S
H830 C808 0.930 . S
H831 C809 0.930 . S
Tb832 C834 2.809 . S
Tb832 O852 2.484 . S
Tb832 O853 2.440 . S
Tb832 O854 2.658 . S
Tb832 O855 2.409 . S
Tb832 O856 2.378 . S
Tb832 O860 2.325 . S
Tb832 O863 2.341 . S
Tb833 C843 2.809 . S
Tb833 O854 2.325 . S
Tb833 O857 2.341 . S
Tb833 O858 2.484 . S
Tb833 O859 2.440 . S
Tb833 O860 2.658 . S
Tb833 O861 2.409 . S
Tb833 O862 2.378 . S
C834 Tb832 2.809 . S
C834 C835 1.514 . S
C834 O852 1.248 . S
C834 O853 1.266 . S
C835 C834 1.514 . S
C835 C836 1.359 . S
C835 C840 1.348 . S
C836 C835 1.359 . S
C836 C837 1.380 . S
C836 H864 0.929 . S
C837 C836 1.380 . S
C837 C838 1.347 . S
C837 H865 0.931 . S
C838 C837 1.347 . S
C838 C839 1.369 . S
C839 C838 1.369 . S
C839 C840 1.408 . S
C839 H866 0.930 . S
C840 C835 1.348 . S
C840 C839 1.408 . S
C840 H867 0.930 . S
C841 O854 1.281 . S
C841 O855 1.254 . S
C842 O856 1.236 . S
C842 O857 1.266 . S
C843 Tb833 2.809 . S
C843 C844 1.514 . S
C843 O858 1.248 . S
C843 O859 1.266 . S
C844 C843 1.514 . S
C844 C845 1.359 . S
C844 C849 1.348 . S
C845 C844 1.359 . S
C845 C846 1.380 . S
C845 H868 0.929 . S
C846 C845 1.380 . S
C846 C847 1.347 . S
C846 H869 0.931 . S
C847 C846 1.347 . S
C847 C848 1.369 . S
C848 C847 1.369 . S
C848 C849 1.408 . S
C848 H870 0.930 . S
C849 C844 1.348 . S
C849 C848 1.408 . S
C849 H871 0.930 . S
C850 O860 1.281 . S
C850 O861 1.254 . S
C851 O862 1.236 . S
C851 O863 1.266 . S
O852 Tb832 2.484 . S
O852 C834 1.248 . S
O853 Tb832 2.440 . S
O853 C834 1.266 . S
O854 Tb832 2.658 . S
O854 Tb833 2.325 . S
O854 C841 1.281 . S
O855 Tb832 2.409 . S
O855 C841 1.254 . S
O856 Tb832 2.378 . S
O856 C842 1.236 . S
O857 Tb833 2.341 . S
O857 C842 1.266 . S
O858 Tb833 2.484 . S
O858 C843 1.248 . S
O859 Tb833 2.440 . S
O859 C843 1.266 . S
O860 Tb832 2.325 . S
O860 Tb833 2.658 . S
O860 C850 1.281 . S
O861 Tb833 2.409 . S
O861 C850 1.254 . S
O862 Tb833 2.378 . S
O862 C851 1.236 . S
O863 Tb832 2.341 . S
O863 C851 1.266 . S
H864 C836 0.929 . S
H865 C837 0.931 . S
H866 C839 0.930 . S
H867 C840 0.930 . S
H868 C845 0.929 . S
H869 C846 0.931 . S
H870 C848 0.930 . S
H871 C849 0.930 . S
Tb872 C874 2.809 . S
Tb872 O892 2.484 . S
Tb872 O893 2.440 . S
Tb872 O894 2.658 . S
Tb872 O895 2.409 . S
Tb872 O896 2.378 . S
Tb872 O900 2.325 . S
Tb872 O903 2.341 . S
Tb873 C883 2.809 . S
Tb873 O894 2.325 . S
Tb873 O897 2.341 . S
Tb873 O898 2.484 . S
Tb873 O899 2.440 . S
Tb873 O900 2.658 . S
Tb873 O901 2.409 . S
Tb873 O902 2.378 . S
C874 Tb872 2.809 . S
C874 C875 1.514 . S
C874 O892 1.248 . S
C874 O893 1.266 . S
C875 C874 1.514 . S
C875 C876 1.359 . S
C875 C880 1.348 . S
C876 C875 1.359 . S
C876 C877 1.380 . S
C876 H904 0.929 . S
C877 C876 1.380 . S
C877 C878 1.347 . S
C877 H905 0.931 . S
C878 C877 1.347 . S
C878 C879 1.369 . S
C879 C878 1.369 . S
C879 C880 1.408 . S
C879 H906 0.930 . S
C880 C875 1.348 . S
C880 C879 1.408 . S
C880 H907 0.930 . S
C881 O894 1.281 . S
C881 O895 1.254 . S
C882 O896 1.236 . S
C882 O897 1.266 . S
C883 Tb873 2.809 . S
C883 C884 1.514 . S
C883 O898 1.248 . S
C883 O899 1.266 . S
C884 C883 1.514 . S
C884 C885 1.359 . S
C884 C889 1.348 . S
C885 C884 1.359 . S
C885 C886 1.380 . S
C885 H908 0.929 . S
C886 C885 1.380 . S
C886 C887 1.347 . S
C886 H909 0.931 . S
C887 C886 1.347 . S
C887 C888 1.369 . S
C888 C887 1.369 . S
C888 C889 1.408 . S
C888 H910 0.930 . S
C889 C884 1.348 . S
C889 C888 1.408 . S
C889 H911 0.930 . S
C890 O900 1.281 . S
C890 O901 1.254 . S
C891 O902 1.236 . S
C891 O903 1.266 . S
O892 Tb872 2.484 . S
O892 C874 1.248 . S
O893 Tb872 2.440 . S
O893 C874 1.266 . S
O894 Tb872 2.658 . S
O894 Tb873 2.325 . S
O894 C881 1.281 . S
O895 Tb872 2.409 . S
O895 C881 1.254 . S
O896 Tb872 2.378 . S
O896 C882 1.236 . S
O897 Tb873 2.341 . S
O897 C882 1.266 . S
O898 Tb873 2.484 . S
O898 C883 1.248 . S
O899 Tb873 2.440 . S
O899 C883 1.266 . S
O900 Tb872 2.325 . S
O900 Tb873 2.658 . S
O900 C890 1.281 . S
O901 Tb873 2.409 . S
O901 C890 1.254 . S
O902 Tb873 2.378 . S
O902 C891 1.236 . S
O903 Tb872 2.341 . S
O903 C891 1.266 . S
H904 C876 0.929 . S
H905 C877 0.931 . S
H906 C879 0.930 . S
H907 C880 0.930 . S
H908 C885 0.929 . S
H909 C886 0.931 . S
H910 C888 0.930 . S
H911 C889 0.930 . S
Tb912 C914 2.809 . S
Tb912 O932 2.484 . S
Tb912 O933 2.440 . S
Tb912 O934 2.658 . S
Tb912 O935 2.409 1_554 S
Tb912 O936 2.378 . S
Tb912 O940 2.325 . S
Tb912 O943 2.341 . S
Tb913 C923 2.809 1_455 S
Tb913 O934 2.325 . S
Tb913 O937 2.341 . S
Tb913 O938 2.484 1_455 S
Tb913 O939 2.440 1_455 S
Tb913 O940 2.658 . S
Tb913 O941 2.409 . S
Tb913 O942 2.378 . S
C914 Tb912 2.809 . S
C914 C915 1.514 . S
C914 O932 1.248 . S
C914 O933 1.266 . S
C915 C914 1.514 . S
C915 C916 1.359 . S
C915 C920 1.311 1_554 S
C916 C915 1.359 . S
C916 C917 1.380 . S
C916 H944 0.929 . S
C917 C916 1.380 . S
C917 C918 1.347 . S
C917 H945 0.931 . S
C918 C917 1.347 . S
C918 C919 1.369 1_554 S
C919 C918 1.369 1_556 S
C919 C920 1.417 . S
C919 H946 0.930 . S
C920 C915 1.311 1_556 S
C920 C919 1.417 . S
C920 H947 0.959 . S
C921 O934 1.281 1_556 S
C921 O935 1.254 . S
C922 O936 1.236 . S
C922 O937 1.266 . S
C923 Tb913 2.809 1_655 S
C923 C924 1.514 . S
C923 O938 1.248 . S
C923 O939 1.266 . S
C924 C923 1.514 . S
C924 C925 1.359 . S
C924 C929 1.348 . S
C925 C924 1.359 . S
C925 C926 1.380 . S
C925 H948 0.929 . S
C926 C925 1.380 . S
C926 C927 1.347 . S
C926 H949 0.931 . S
C927 C926 1.347 . S
C927 C928 1.369 . S
C928 C927 1.369 . S
C928 C929 1.408 . S
C928 H950 0.930 . S
C929 C924 1.348 . S
C929 C928 1.408 . S
C929 H951 0.930 . S
C930 O940 1.281 . S
C930 O941 1.254 . S
C931 O942 1.236 . S
C931 O943 1.266 . S
O932 Tb912 2.484 . S
O932 C914 1.248 . S
O933 Tb912 2.440 . S
O933 C914 1.266 . S
O934 Tb912 2.658 . S
O934 Tb913 2.325 . S
O934 C921 1.281 1_554 S
O935 Tb912 2.409 1_556 S
O935 C921 1.254 . S
O936 Tb912 2.378 . S
O936 C922 1.236 . S
O937 Tb913 2.341 . S
O937 C922 1.266 . S
O938 Tb913 2.484 1_655 S
O938 C923 1.248 . S
O939 Tb913 2.440 1_655 S
O939 C923 1.266 . S
O940 Tb912 2.325 . S
O940 Tb913 2.658 . S
O940 C930 1.281 . S
O941 Tb913 2.409 . S
O941 C930 1.254 . S
O942 Tb913 2.378 . S
O942 C931 1.236 . S
O943 Tb912 2.341 . S
O943 C931 1.266 . S
H944 C916 0.929 . S
H945 C917 0.931 . S
H946 C919 0.930 . S
H947 C920 0.959 . S
H948 C925 0.929 . S
H949 C926 0.931 . S
H950 C928 0.930 . S
H951 C929 0.930 . S
H952 C964 0.930 . S
H953 C966 0.930 . S
H954 C967 0.930 . S
H955 C971 0.959 . S
H956 C971 0.959 . S
H957 C971 0.961 . S
H958 C972 0.960 . S
H959 C972 0.961 . S
H960 C972 0.959 . S
H961 C975 0.929 . S
H962 C976 0.931 1_556 S
H963 C978 0.930 . S
C964 H952 0.930 . S
C964 C965 1.399 1_554 S
C964 C969 1.399 . S
C965 C964 1.399 1_556 S
C965 C966 1.376 . S
C966 H953 0.930 . S
C966 C965 1.376 . S
C966 C967 1.388 . S
C967 H954 0.930 . S
C967 C966 1.388 . S
C967 C968 1.390 . S
C968 C967 1.390 . S
C968 C969 1.394 1_556 S
C968 C974 1.465 1_556 S
C969 C964 1.399 . S
C969 C968 1.394 1_554 S
C969 C970 1.516 . S
C970 C969 1.516 . S
C970 C971 1.502 . S
C970 C972 1.561 1_455 S
C970 C973 1.526 . S
C971 H955 0.959 . S
C971 H956 0.959 . S
C971 H957 0.961 . S
C971 C970 1.502 . S
C972 H958 0.960 . S
C972 H959 0.961 . S
C972 H960 0.959 . S
C972 C970 1.561 1_655 S
C973 C970 1.526 . S
C973 C974 1.396 . S
C973 C978 1.390 . S
C974 C968 1.465 1_554 S
C974 C973 1.396 . S
C974 C975 1.399 1_554 S
C975 H961 0.929 . S
C975 C974 1.399 1_556 S
C975 C976 1.385 1_556 S
C976 H962 0.931 1_554 S
C976 C975 1.385 1_554 S
C976 C977 1.389 . S
C977 C976 1.389 . S
C977 C978 1.387 . S
C978 H963 0.930 . S
C978 C973 1.390 . S
C978 C977 1.387 . S
H979 C991 0.930 . S
H980 C993 0.930 . S
H981 C994 0.930 . S
H982 C998 0.959 . S
H983 C998 0.959 . S
H984 C998 0.961 . S
H985 C999 0.960 . S
H986 C999 0.961 . S
H987 C999 0.959 . S
H988 C1002 0.929 . S
H989 C1003 0.931 . S
H990 C1005 0.930 . S
C991 H979 0.930 . S
C991 C992 1.399 . S
C991 C996 1.399 . S
C992 C991 1.399 . S
C992 C993 1.376 . S
C993 H980 0.930 . S
C993 C992 1.376 . S
C993 C994 1.388 . S
C994 H981 0.930 . S
C994 C993 1.388 . S
C994 C995 1.390 . S
C995 C994 1.390 . S
C995 C996 1.394 . S
C995 C1001 1.465 . S
C996 C991 1.399 . S
C996 C995 1.394 . S
C996 C997 1.516 . S
C997 C996 1.516 . S
C997 C998 1.502 . S
C997 C999 1.561 . S
C997 C1000 1.526 . S
C998 H982 0.959 . S
C998 H983 0.959 . S
C998 H984 0.961 . S
C998 C997 1.502 . S
C999 H985 0.960 . S
C999 H986 0.961 . S
C999 H987 0.959 . S
C999 C997 1.561 . S
C1000 C997 1.526 . S
C1000 C1001 1.396 . S
C1000 C1005 1.390 . S
C1001 C995 1.465 . S
C1001 C1000 1.396 . S
C1001 C1002 1.399 . S
C1002 H988 0.929 . S
C1002 C1001 1.399 . S
C1002 C1003 1.385 . S
C1003 H989 0.931 . S
C1003 C1002 1.385 . S
C1003 C1004 1.389 . S
C1004 C1003 1.389 . S
C1004 C1005 1.387 . S
C1005 H990 0.930 . S
C1005 C1000 1.390 . S
C1005 C1004 1.387 . S
H1006 C1018 0.930 . S
H1007 C1020 0.930 . S
H1008 C1021 0.930 . S
H1009 C1025 0.959 . S
H1010 C1025 0.959 . S
H1011 C1025 0.961 . S
H1012 C1026 0.960 . S
H1013 C1026 0.961 . S
H1014 C1026 0.959 . S
H1015 C1029 0.929 . S
H1016 C1030 0.931 . S
H1017 C1032 0.930 . S
C1018 H1006 0.930 . S
C1018 C1019 1.399 . S
C1018 C1023 1.399 . S
C1019 C1018 1.399 . S
C1019 C1020 1.376 . S
C1020 H1007 0.930 . S
C1020 C1019 1.376 . S
C1020 C1021 1.388 . S
C1021 H1008 0.930 . S
C1021 C1020 1.388 . S
C1021 C1022 1.390 . S
C1022 C1021 1.390 . S
C1022 C1023 1.394 . S
C1022 C1028 1.465 . S
C1023 C1018 1.399 . S
C1023 C1022 1.394 . S
C1023 C1024 1.516 . S
C1024 C1023 1.516 . S
C1024 C1025 1.502 . S
C1024 C1026 1.561 . S
C1024 C1027 1.526 . S
C1025 H1009 0.959 . S
C1025 H1010 0.959 . S
C1025 H1011 0.961 . S
C1025 C1024 1.502 . S
C1026 H1012 0.960 . S
C1026 H1013 0.961 . S
C1026 H1014 0.959 . S
C1026 C1024 1.561 . S
C1027 C1024 1.526 . S
C1027 C1028 1.396 . S
C1027 C1032 1.390 . S
C1028 C1022 1.465 . S
C1028 C1027 1.396 . S
C1028 C1029 1.399 . S
C1029 H1015 0.929 . S
C1029 C1028 1.399 . S
C1029 C1030 1.385 . S
C1030 H1016 0.931 . S
C1030 C1029 1.385 . S
C1030 C1031 1.389 . S
C1031 C1030 1.389 . S
C1031 C1032 1.387 . S
C1032 H1017 0.930 . S
C1032 C1027 1.390 . S
C1032 C1031 1.387 . S
H1033 C1045 0.930 . S
H1034 C1047 0.930 . S
H1035 C1048 0.930 . S
H1036 C1052 0.959 . S
H1037 C1052 0.959 . S
H1038 C1052 0.961 . S
H1039 C1053 0.960 . S
H1040 C1053 0.961 . S
H1041 C1053 0.959 . S
H1042 C1056 0.929 . S
H1043 C1057 0.931 . S
H1044 C1059 0.930 . S
C1045 H1033 0.930 . S
C1045 C1046 1.399 . S
C1045 C1050 1.399 . S
C1046 C1045 1.399 . S
C1046 C1047 1.376 . S
C1047 H1034 0.930 . S
C1047 C1046 1.376 . S
C1047 C1048 1.388 . S
C1048 H1035 0.930 . S
C1048 C1047 1.388 . S
C1048 C1049 1.390 . S
C1049 C1048 1.390 . S
C1049 C1050 1.394 . S
C1049 C1055 1.465 . S
C1050 C1045 1.399 . S
C1050 C1049 1.394 . S
C1050 C1051 1.516 . S
C1051 C1050 1.516 . S
C1051 C1052 1.502 . S
C1051 C1053 1.561 . S
C1051 C1054 1.526 . S
C1052 H1036 0.959 . S
C1052 H1037 0.959 . S
C1052 H1038 0.961 . S
C1052 C1051 1.502 . S
C1053 H1039 0.960 . S
C1053 H1040 0.961 . S
C1053 H1041 0.959 . S
C1053 C1051 1.561 . S
C1054 C1051 1.526 . S
C1054 C1055 1.396 . S
C1054 C1059 1.390 . S
C1055 C1049 1.465 . S
C1055 C1054 1.396 . S
C1055 C1056 1.399 . S
C1056 H1042 0.929 . S
C1056 C1055 1.399 . S
C1056 C1057 1.385 . S
C1057 H1043 0.931 . S
C1057 C1056 1.385 . S
C1057 C1058 1.389 . S
C1058 C1057 1.389 . S
C1058 C1059 1.387 . S
C1059 H1044 0.930 . S
C1059 C1054 1.390 . S
C1059 C1058 1.387 . S
H1060 C1072 0.930 . S
H1061 C1074 0.930 . S
H1062 C1075 0.930 . S
H1063 C1079 0.959 . S
H1064 C1079 0.959 . S
H1065 C1079 0.961 . S
H1066 C1080 0.960 . S
H1067 C1080 0.961 . S
H1068 C1080 0.959 . S
H1069 C1083 0.929 . S
H1070 C1084 0.931 . S
H1071 C1086 0.930 . S
C1072 H1060 0.930 . S
C1072 C1073 1.399 . S
C1072 C1077 1.399 . S
C1073 C1072 1.399 . S
C1073 C1074 1.376 . S
C1074 H1061 0.930 . S
C1074 C1073 1.376 . S
C1074 C1075 1.388 . S
C1075 H1062 0.930 . S
C1075 C1074 1.388 . S
C1075 C1076 1.390 . S
C1076 C1075 1.390 . S
C1076 C1077 1.394 . S
C1076 C1082 1.465 . S
C1077 C1072 1.399 . S
C1077 C1076 1.394 . S
C1077 C1078 1.516 . S
C1078 C1077 1.516 . S
C1078 C1079 1.502 . S
C1078 C1080 1.561 . S
C1078 C1081 1.526 . S
C1079 H1063 0.959 . S
C1079 H1064 0.959 . S
C1079 H1065 0.961 . S
C1079 C1078 1.502 . S
C1080 H1066 0.960 . S
C1080 H1067 0.961 . S
C1080 H1068 0.959 . S
C1080 C1078 1.561 . S
C1081 C1078 1.526 . S
C1081 C1082 1.396 . S
C1081 C1086 1.390 . S
C1082 C1076 1.465 . S
C1082 C1081 1.396 . S
C1082 C1083 1.399 . S
C1083 H1069 0.929 . S
C1083 C1082 1.399 . S
C1083 C1084 1.385 . S
C1084 H1070 0.931 . S
C1084 C1083 1.385 . S
C1084 C1085 1.389 . S
C1085 C1084 1.389 . S
C1085 C1086 1.387 . S
C1086 H1071 0.930 . S
C1086 C1081 1.390 . S
C1086 C1085 1.387 . S
H1087 C1099 0.930 . S
H1088 C1101 0.930 . S
H1089 C1102 0.930 . S
H1090 C1106 0.959 . S
H1091 C1106 0.959 . S
H1092 C1106 0.961 . S
H1093 C1107 0.960 . S
H1094 C1107 0.961 . S
H1095 C1107 0.959 . S
H1096 C1110 0.929 . S
H1097 C1111 0.931 . S
H1098 C1113 0.930 . S
C1099 H1087 0.930 . S
C1099 C1100 1.399 . S
C1099 C1104 1.399 . S
C1100 C1099 1.399 . S
C1100 C1101 1.376 . S
C1101 H1088 0.930 . S
C1101 C1100 1.376 . S
C1101 C1102 1.388 . S
C1102 H1089 0.930 . S
C1102 C1101 1.388 . S
C1102 C1103 1.390 . S
C1103 C1102 1.390 . S
C1103 C1104 1.394 . S
C1103 C1109 1.465 . S
C1104 C1099 1.399 . S
C1104 C1103 1.394 . S
C1104 C1105 1.516 . S
C1105 C1104 1.516 . S
C1105 C1106 1.502 . S
C1105 C1107 1.561 . S
C1105 C1108 1.526 . S
C1106 H1090 0.959 . S
C1106 H1091 0.959 . S
C1106 H1092 0.961 . S
C1106 C1105 1.502 . S
C1107 H1093 0.960 . S
C1107 H1094 0.961 . S
C1107 H1095 0.959 . S
C1107 C1105 1.561 . S
C1108 C1105 1.526 . S
C1108 C1109 1.396 . S
C1108 C1113 1.390 . S
C1109 C1103 1.465 . S
C1109 C1108 1.396 . S
C1109 C1110 1.399 . S
C1110 H1096 0.929 . S
C1110 C1109 1.399 . S
C1110 C1111 1.385 . S
C1111 H1097 0.931 . S
C1111 C1110 1.385 . S
C1111 C1112 1.389 . S
C1112 C1111 1.389 . S
C1112 C1113 1.387 . S
C1113 H1098 0.930 . S
C1113 C1108 1.390 . S
C1113 C1112 1.387 . S
H1114 C1126 0.930 . S
H1115 C1128 0.930 . S
H1116 C1129 0.930 . S
H1117 C1133 0.959 . S
H1118 C1133 0.959 . S
H1119 C1133 0.961 . S
H1120 C1134 0.960 . S
H1121 C1134 0.961 . S
H1122 C1134 0.959 . S
H1123 C1137 0.929 . S
H1124 C1138 0.931 . S
H1125 C1140 0.930 . S
C1126 H1114 0.930 . S
C1126 C1127 1.399 . S
C1126 C1131 1.399 . S
C1127 C1126 1.399 . S
C1127 C1128 1.376 . S
C1128 H1115 0.930 . S
C1128 C1127 1.376 . S
C1128 C1129 1.388 . S
C1129 H1116 0.930 . S
C1129 C1128 1.388 . S
C1129 C1130 1.390 . S
C1130 C1129 1.390 . S
C1130 C1131 1.394 . S
C1130 C1136 1.465 . S
C1131 C1126 1.399 . S
C1131 C1130 1.394 . S
C1131 C1132 1.516 . S
C1132 C1131 1.516 . S
C1132 C1133 1.502 . S
C1132 C1134 1.561 . S
C1132 C1135 1.526 . S
C1133 H1117 0.959 . S
C1133 H1118 0.959 . S
C1133 H1119 0.961 . S
C1133 C1132 1.502 . S
C1134 H1120 0.960 . S
C1134 H1121 0.961 . S
C1134 H1122 0.959 . S
C1134 C1132 1.561 . S
C1135 C1132 1.526 . S
C1135 C1136 1.396 . S
C1135 C1140 1.390 . S
C1136 C1130 1.465 . S
C1136 C1135 1.396 . S
C1136 C1137 1.399 . S
C1137 H1123 0.929 . S
C1137 C1136 1.399 . S
C1137 C1138 1.385 . S
C1138 H1124 0.931 . S
C1138 C1137 1.385 . S
C1138 C1139 1.389 . S
C1139 C1138 1.389 . S
C1139 C1140 1.387 . S
C1140 H1125 0.930 . S
C1140 C1135 1.390 . S
C1140 C1139 1.387 . S
H1141 C1153 0.930 . S
H1142 C1155 0.930 . S
H1143 C1156 0.930 . S
H1144 C1160 0.959 . S
H1145 C1160 0.959 . S
H1146 C1160 0.961 . S
H1147 C1161 0.960 . S
H1148 C1161 0.961 . S
H1149 C1161 0.959 . S
H1150 C1164 0.929 . S
H1151 C1165 0.931 . S
H1152 C1167 0.930 . S
C1153 H1141 0.930 . S
C1153 C1154 1.399 . S
C1153 C1158 1.399 . S
C1154 C1153 1.399 . S
C1154 C1155 1.376 . S
C1155 H1142 0.930 . S
C1155 C1154 1.376 . S
C1155 C1156 1.388 . S
C1156 H1143 0.930 . S
C1156 C1155 1.388 . S
C1156 C1157 1.390 . S
C1157 C1156 1.390 . S
C1157 C1158 1.394 . S
C1157 C1163 1.465 . S
C1158 C1153 1.399 . S
C1158 C1157 1.394 . S
C1158 C1159 1.516 . S
C1159 C1158 1.516 . S
C1159 C1160 1.502 . S
C1159 C1161 1.561 . S
C1159 C1162 1.526 . S
C1160 H1144 0.959 . S
C1160 H1145 0.959 . S
C1160 H1146 0.961 . S
C1160 C1159 1.502 . S
C1161 H1147 0.960 . S
C1161 H1148 0.961 . S
C1161 H1149 0.959 . S
C1161 C1159 1.561 . S
C1162 C1159 1.526 . S
C1162 C1163 1.396 . S
C1162 C1167 1.390 . S
C1163 C1157 1.465 . S
C1163 C1162 1.396 . S
C1163 C1164 1.399 . S
C1164 H1150 0.929 . S
C1164 C1163 1.399 . S
C1164 C1165 1.385 . S
C1165 H1151 0.931 . S
C1165 C1164 1.385 . S
C1165 C1166 1.389 . S
C1166 C1165 1.389 . S
C1166 C1167 1.387 . S
C1167 H1152 0.930 . S
C1167 C1162 1.390 . S
C1167 C1166 1.387 . S
H1168 C1180 0.930 . S
H1169 C1182 0.930 . S
H1170 C1183 0.930 . S
H1171 C1187 0.959 . S
H1172 C1187 0.959 . S
H1173 C1187 0.961 . S
H1174 C1188 0.960 . S
H1175 C1188 0.961 . S
H1176 C1188 0.959 . S
H1177 C1191 0.929 . S
H1178 C1192 0.931 . S
H1179 C1194 0.930 1_565 S
C1180 H1168 0.930 . S
C1180 C1181 1.399 1_565 S
C1180 C1185 1.399 . S
C1181 C1180 1.399 1_545 S
C1181 C1182 1.376 . S
C1182 H1169 0.930 . S
C1182 C1181 1.376 . S
C1182 C1183 1.388 . S
C1183 H1170 0.930 . S
C1183 C1182 1.388 . S
C1183 C1184 1.390 . S
C1184 C1183 1.390 . S
C1184 C1185 1.394 1_545 S
C1184 C1190 1.465 . S
C1185 C1180 1.399 . S
C1185 C1184 1.394 1_565 S
C1185 C1186 1.516 . S
C1186 C1185 1.516 . S
C1186 C1187 1.502 1_655 S
C1186 C1188 1.561 . S
C1186 C1189 1.526 1_565 S
C1187 H1171 0.959 . S
C1187 H1172 0.959 . S
C1187 H1173 0.961 . S
C1187 C1186 1.502 1_455 S
C1188 H1174 0.960 . S
C1188 H1175 0.961 . S
C1188 H1176 0.959 . S
C1188 C1186 1.561 . S
C1189 C1186 1.526 1_545 S
C1189 C1190 1.396 . S
C1189 C1194 1.390 1_655 S
C1190 C1184 1.465 . S
C1190 C1189 1.396 . S
C1190 C1191 1.399 . S
C1191 H1177 0.929 . S
C1191 C1190 1.399 . S
C1191 C1192 1.385 1_655 S
C1192 H1178 0.931 . S
C1192 C1191 1.385 1_455 S
C1192 C1193 1.389 . S
C1193 C1192 1.389 . S
C1193 C1194 1.387 . S
C1194 H1179 0.930 1_545 S
C1194 C1189 1.390 1_455 S
C1194 C1193 1.387 . S
H1195 C1207 0.930 . S
H1196 C1209 0.930 . S
H1197 C1210 0.930 . S
H1198 C1214 0.959 . S
H1199 C1214 0.959 . S
H1200 C1214 0.961 . S
H1201 C1215 0.960 . S
H1202 C1215 0.961 . S
H1203 C1215 0.959 . S
H1204 C1218 0.929 . S
H1205 C1219 0.931 . S
H1206 C1221 0.930 . S
C1207 H1195 0.930 . S
C1207 C1208 1.399 . S
C1207 C1212 1.399 . S
C1208 C1207 1.399 . S
C1208 C1209 1.376 . S
C1209 H1196 0.930 . S
C1209 C1208 1.376 . S
C1209 C1210 1.388 . S
C1210 H1197 0.930 . S
C1210 C1209 1.388 . S
C1210 C1211 1.390 . S
C1211 C1210 1.390 . S
C1211 C1212 1.394 . S
C1211 C1217 1.465 . S
C1212 C1207 1.399 . S
C1212 C1211 1.394 . S
C1212 C1213 1.516 . S
C1213 C1212 1.516 . S
C1213 C1214 1.502 . S
C1213 C1215 1.561 . S
C1213 C1216 1.526 . S
C1214 H1198 0.959 . S
C1214 H1199 0.959 . S
C1214 H1200 0.961 . S
C1214 C1213 1.502 . S
C1215 H1201 0.960 . S
C1215 H1202 0.961 . S
C1215 H1203 0.959 . S
C1215 C1213 1.561 . S
C1216 C1213 1.526 . S
C1216 C1217 1.396 . S
C1216 C1221 1.390 . S
C1217 C1211 1.465 . S
C1217 C1216 1.396 . S
C1217 C1218 1.399 . S
C1218 H1204 0.929 . S
C1218 C1217 1.399 . S
C1218 C1219 1.385 . S
C1219 H1205 0.931 . S
C1219 C1218 1.385 . S
C1219 C1220 1.389 . S
C1220 C1219 1.389 . S
C1220 C1221 1.387 . S
C1221 H1206 0.930 . S
C1221 C1216 1.390 . S
C1221 C1220 1.387 . S
H1222 C1234 0.930 . S
H1223 C1236 0.930 . S
H1224 C1237 0.930 . S
H1225 C1241 0.959 . S
H1226 C1241 0.959 . S
H1227 C1241 0.961 . S
H1228 C1242 0.960 . S
H1229 C1242 0.961 . S
H1230 C1242 0.959 . S
H1231 C1245 0.929 . S
H1232 C1246 0.925 1_565 S
H1233 C1248 0.930 . S
C1234 H1222 0.930 . S
C1234 C1235 1.399 . S
C1234 C1239 1.399 . S
C1235 C1234 1.399 . S
C1235 C1236 1.376 1_545 S
C1236 H1223 0.930 . S
C1236 C1235 1.376 1_565 S
C1236 C1237 1.388 . S
C1237 H1224 0.930 . S
C1237 C1236 1.388 . S
C1237 C1238 1.390 1_565 S
C1238 C1237 1.390 1_545 S
C1238 C1239 1.394 . S
C1238 C1244 1.465 . S
C1239 C1234 1.399 . S
C1239 C1238 1.394 . S
C1239 C1240 1.516 . S
C1240 C1239 1.516 . S
C1240 C1241 1.502 . S
C1240 C1242 1.561 . S
C1240 C1243 1.526 . S
C1241 H1225 0.959 . S
C1241 H1226 0.959 . S
C1241 H1227 0.961 . S
C1241 C1240 1.502 . S
C1242 H1228 0.960 . S
C1242 H1229 0.961 . S
C1242 H1230 0.959 . S
C1242 C1240 1.561 . S
C1243 C1240 1.526 . S
C1243 C1244 1.396 . S
C1243 C1248 1.390 . S
C1244 C1238 1.465 . S
C1244 C1243 1.396 . S
C1244 C1245 1.399 1_545 S
C1245 H1231 0.929 . S
C1245 C1244 1.399 1_565 S
C1245 C1246 1.379 1_565 S
C1246 H1232 0.925 1_545 S
C1246 C1245 1.379 1_545 S
C1246 C1247 1.402 . S
C1247 C1246 1.402 . S
C1247 C1248 1.387 . S
C1248 H1233 0.930 . S
C1248 C1243 1.390 . S
C1248 C1247 1.387 . S
H1249 C1261 0.930 . S
H1250 C1263 0.905 1_554 S
H1251 C1264 0.930 . S
H1252 C1268 0.959 . S
H1253 C1268 0.959 . S
H1254 C1268 0.961 . S
H1255 C1269 0.960 . S
H1256 C1269 0.961 . S
H1257 C1269 0.959 . S
H1258 C1272 0.929 . S
H1259 C1273 0.931 . S
H1260 C1275 0.930 . S
C1261 H1249 0.930 . S
C1261 C1262 1.399 . S
C1261 C1266 1.399 . S
C1262 C1261 1.399 . S
C1262 C1263 1.376 . S
C1263 H1250 0.905 1_556 S
C1263 C1262 1.376 . S
C1263 C1264 1.388 . S
C1264 H1251 0.930 . S
C1264 C1263 1.388 . S
C1264 C1265 1.390 . S
C1265 C1264 1.390 . S
C1265 C1266 1.394 . S
C1265 C1271 1.465 . S
C1266 C1261 1.399 . S
C1266 C1265 1.394 . S
C1266 C1267 1.516 . S
C1267 C1266 1.516 . S
C1267 C1268 1.502 . S
C1267 C1269 1.561 . S
C1267 C1270 1.526 . S
C1268 H1252 0.959 . S
C1268 H1253 0.959 . S
C1268 H1254 0.961 . S
C1268 C1267 1.502 . S
C1269 H1255 0.960 . S
C1269 H1256 0.961 . S
C1269 H1257 0.959 . S
C1269 C1267 1.561 . S
C1270 C1267 1.526 . S
C1270 C1271 1.396 . S
C1270 C1275 1.390 . S
C1271 C1265 1.465 . S
C1271 C1270 1.396 . S
C1271 C1272 1.399 . S
C1272 H1258 0.929 . S
C1272 C1271 1.399 . S
C1272 C1273 1.385 . S
C1273 H1259 0.931 . S
C1273 C1272 1.385 . S
C1273 C1274 1.389 . S
C1274 C1273 1.389 . S
C1274 C1275 1.387 . S
C1275 H1260 0.930 . S
C1275 C1270 1.390 . S
C1275 C1274 1.387 . S
H1276 C1288 0.930 . S
H1277 C1290 0.930 . S
H1278 C1291 0.930 1_455 S
H1279 C1295 0.959 . S
H1280 C1295 0.959 . S
H1281 C1295 0.961 . S
H1282 C1296 0.960 . S
H1283 C1296 0.961 . S
H1284 C1296 0.959 1_455 S
H1285 C1299 0.929 . S
H1286 C1300 0.931 . S
H1287 C1302 0.942 1_565 S
C1288 H1276 0.930 . S
C1288 C1289 1.399 1_565 S
C1288 C1293 1.399 1_565 S
C1289 C1288 1.399 1_545 S
C1289 C1290 1.376 . S
C1290 H1277 0.930 . S
C1290 C1289 1.376 . S
C1290 C1291 1.388 . S
C1291 H1278 0.930 1_655 S
C1291 C1290 1.388 . S
C1291 C1292 1.390 . S
C1292 C1291 1.390 . S
C1292 C1293 1.394 . S
C1292 C1298 1.456 1_655 S
C1293 C1288 1.399 1_545 S
C1293 C1292 1.394 . S
C1293 C1294 1.516 1_545 S
C1294 C1293 1.516 1_565 S
C1294 C1295 1.502 . S
C1294 C1296 1.561 . S
C1294 C1297 1.526 1_565 S
C1295 H1279 0.959 . S
C1295 H1280 0.959 . S
C1295 H1281 0.961 . S
C1295 C1294 1.502 . S
C1296 H1282 0.960 . S
C1296 H1283 0.961 . S
C1296 H1284 0.959 1_655 S
C1296 C1294 1.561 . S
C1297 C1294 1.526 1_545 S
C1297 C1298 1.387 1_655 S
C1297 C1302 1.397 . S
C1298 C1292 1.456 1_455 S
C1298 C1297 1.387 1_455 S
C1298 C1299 1.417 . S
C1299 H1285 0.929 . S
C1299 C1298 1.417 . S
C1299 C1300 1.385 . S
C1300 H1286 0.931 . S
C1300 C1299 1.385 . S
C1300 C1301 1.389 . S
C1301 C1300 1.389 . S
C1301 C1302 1.371 1_455 S
C1302 H1287 0.942 1_545 S
C1302 C1297 1.397 . S
C1302 C1301 1.371 1_655 S
H1303 C1315 0.930 . S
H1304 C1317 0.930 . S
H1305 C1318 0.930 . S
H1306 C1322 0.959 . S
H1307 C1322 0.959 . S
H1308 C1322 0.961 . S
H1309 C1323 0.960 . S
H1310 C1323 0.961 . S
H1311 C1323 0.959 . S
H1312 C1326 0.929 . S
H1313 C1327 0.931 . S
H1314 C1329 0.930 . S
C1315 H1303 0.930 . S
C1315 C1316 1.399 . S
C1315 C1320 1.399 . S
C1316 C1315 1.399 . S
C1316 C1317 1.376 . S
C1317 H1304 0.930 . S
C1317 C1316 1.376 . S
C1317 C1318 1.388 . S
C1318 H1305 0.930 . S
C1318 C1317 1.388 . S
C1318 C1319 1.390 . S
C1319 C1318 1.390 . S
C1319 C1320 1.394 . S
C1319 C1325 1.465 . S
C1320 C1315 1.399 . S
C1320 C1319 1.394 . S
C1320 C1321 1.516 . S
C1321 C1320 1.516 . S
C1321 C1322 1.502 . S
C1321 C1323 1.561 . S
C1321 C1324 1.526 . S
C1322 H1306 0.959 . S
C1322 H1307 0.959 . S
C1322 H1308 0.961 . S
C1322 C1321 1.502 . S
C1323 H1309 0.960 . S
C1323 H1310 0.961 . S
C1323 H1311 0.959 . S
C1323 C1321 1.561 . S
C1324 C1321 1.526 . S
C1324 C1325 1.396 . S
C1324 C1329 1.390 . S
C1325 C1319 1.465 . S
C1325 C1324 1.396 . S
C1325 C1326 1.399 . S
C1326 H1312 0.929 . S
C1326 C1325 1.399 . S
C1326 C1327 1.385 . S
C1327 H1313 0.931 . S
C1327 C1326 1.385 . S
C1327 C1328 1.389 . S
C1328 C1327 1.389 . S
C1328 C1329 1.387 . S
C1329 H1314 0.930 . S
C1329 C1324 1.390 . S
C1329 C1328 1.387 . S
H1330 C1342 0.930 . S
H1331 C1344 0.930 . S
H1332 C1345 0.930 . S
H1333 C1349 0.959 . S
H1334 C1349 0.959 . S
H1335 C1349 0.961 . S
H1336 C1350 0.960 . S
H1337 C1350 0.961 . S
H1338 C1350 0.959 . S
H1339 C1353 0.929 . S
H1340 C1354 0.931 1_565 S
H1341 C1356 0.930 . S
C1342 H1330 0.930 . S
C1342 C1343 1.399 . S
C1342 C1347 1.399 . S
C1343 C1342 1.399 . S
C1343 C1344 1.376 1_545 S
C1344 H1331 0.930 . S
C1344 C1343 1.376 1_565 S
C1344 C1345 1.388 . S
C1345 H1332 0.930 . S
C1345 C1344 1.388 . S
C1345 C1346 1.390 1_565 S
C1346 C1345 1.390 1_545 S
C1346 C1347 1.394 . S
C1346 C1352 1.465 . S
C1347 C1342 1.399 . S
C1347 C1346 1.394 . S
C1347 C1348 1.516 . S
C1348 C1347 1.516 . S
C1348 C1349 1.502 . S
C1348 C1350 1.561 . S
C1348 C1351 1.526 . S
C1349 H1333 0.959 . S
C1349 H1334 0.959 . S
C1349 H1335 0.961 . S
C1349 C1348 1.502 . S
C1350 H1336 0.960 . S
C1350 H1337 0.961 . S
C1350 H1338 0.959 . S
C1350 C1348 1.561 . S
C1351 C1348 1.526 . S
C1351 C1352 1.396 . S
C1351 C1356 1.390 . S
C1352 C1346 1.465 . S
C1352 C1351 1.396 . S
C1352 C1353 1.399 1_545 S
C1353 H1339 0.929 . S
C1353 C1352 1.399 1_565 S
C1353 C1354 1.385 1_565 S
C1354 H1340 0.931 1_545 S
C1354 C1353 1.385 1_545 S
C1354 C1355 1.389 . S
C1355 C1354 1.389 . S
C1355 C1356 1.387 . S
C1356 H1341 0.930 . S
C1356 C1351 1.390 . S
C1356 C1355 1.387 . S
H1357 C1369 0.930 . S
H1358 C1371 0.930 . S
H1359 C1372 0.930 . S
H1360 C1376 0.959 . S
H1361 C1376 0.959 . S
H1362 C1376 0.961 . S
H1363 C1377 0.960 . S
H1364 C1377 0.961 . S
H1365 C1377 0.959 . S
H1366 C1380 0.929 . S
H1367 C1381 0.931 . S
H1368 C1383 0.930 . S
C1369 H1357 0.930 . S
C1369 C1370 1.399 . S
C1369 C1374 1.399 . S
C1370 C1369 1.399 . S
C1370 C1371 1.376 . S
C1371 H1358 0.930 . S
C1371 C1370 1.376 . S
C1371 C1372 1.388 . S
C1372 H1359 0.930 . S
C1372 C1371 1.388 . S
C1372 C1373 1.390 . S
C1373 C1372 1.390 . S
C1373 C1374 1.394 . S
C1373 C1379 1.465 . S
C1374 C1369 1.399 . S
C1374 C1373 1.394 . S
C1374 C1375 1.516 . S
C1375 C1374 1.516 . S
C1375 C1376 1.502 . S
C1375 C1377 1.561 . S
C1375 C1378 1.526 . S
C1376 H1360 0.959 . S
C1376 H1361 0.959 . S
C1376 H1362 0.961 . S
C1376 C1375 1.502 . S
C1377 H1363 0.960 . S
C1377 H1364 0.961 . S
C1377 H1365 0.959 . S
C1377 C1375 1.561 . S
C1378 C1375 1.526 . S
C1378 C1379 1.396 . S
C1378 C1383 1.390 . S
C1379 C1373 1.465 . S
C1379 C1378 1.396 . S
C1379 C1380 1.399 . S
C1380 H1366 0.929 . S
C1380 C1379 1.399 . S
C1380 C1381 1.385 . S
C1381 H1367 0.931 . S
C1381 C1380 1.385 . S
C1381 C1382 1.389 . S
C1382 C1381 1.389 . S
C1382 C1383 1.387 . S
C1383 H1368 0.930 . S
C1383 C1378 1.390 . S
C1383 C1382 1.387 . S
H1384 C1396 0.930 . S
H1385 C1398 0.930 . S
H1386 C1399 0.930 . S
H1387 C1403 0.959 . S
H1388 C1403 0.959 . S
H1389 C1403 0.961 . S
H1390 C1404 0.960 . S
H1391 C1404 0.961 . S
H1392 C1404 0.959 . S
H1393 C1407 0.929 . S
H1394 C1408 0.931 . S
H1395 C1410 0.930 . S
C1396 H1384 0.930 . S
C1396 C1397 1.394 1_554 S
C1396 C1401 1.399 . S
C1397 C1396 1.394 1_556 S
C1397 C1398 1.380 . S
C1398 H1385 0.930 . S
C1398 C1397 1.380 . S
C1398 C1399 1.388 . S
C1399 H1386 0.930 . S
C1399 C1398 1.388 . S
C1399 C1400 1.390 1_556 S
C1400 C1399 1.390 1_554 S
C1400 C1401 1.394 . S
C1400 C1406 1.465 . S
C1401 C1396 1.399 . S
C1401 C1400 1.394 . S
C1401 C1402 1.516 . S
C1402 C1401 1.516 . S
C1402 C1403 1.502 . S
C1402 C1404 1.561 . S
C1402 C1405 1.526 . S
C1403 H1387 0.959 . S
C1403 H1388 0.959 . S
C1403 H1389 0.961 . S
C1403 C1402 1.502 . S
C1404 H1390 0.960 . S
C1404 H1391 0.961 . S
C1404 H1392 0.959 . S
C1404 C1402 1.561 . S
C1405 C1402 1.526 . S
C1405 C1406 1.396 . S
C1405 C1410 1.390 . S
C1406 C1400 1.465 . S
C1406 C1405 1.396 . S
C1406 C1407 1.399 . S
C1407 H1393 0.929 . S
C1407 C1406 1.399 . S
C1407 C1408 1.385 . S
C1408 H1394 0.931 . S
C1408 C1407 1.385 . S
C1408 C1409 1.389 . S
C1409 C1408 1.389 . S
C1409 C1410 1.387 . S
C1410 H1395 0.930 . S
C1410 C1405 1.390 . S
C1410 C1409 1.387 . S
H1411 C1423 0.930 . S
H1412 C1425 0.930 . S
H1413 C1426 0.930 . S
H1414 C1430 0.959 . S
H1415 C1430 0.959 . S
H1416 C1430 0.961 . S
H1417 C1431 0.960 . S
H1418 C1431 0.961 . S
H1419 C1431 0.959 1_554 S
H1420 C1434 0.929 . S
H1421 C1435 0.931 . S
H1422 C1437 0.930 . S
C1423 H1411 0.930 . S
C1423 C1424 1.399 . S
C1423 C1428 1.399 . S
C1424 C1423 1.399 . S
C1424 C1425 1.376 . S
C1425 H1412 0.930 . S
C1425 C1424 1.376 . S
C1425 C1426 1.388 . S
C1426 H1413 0.930 . S
C1426 C1425 1.388 . S
C1426 C1427 1.390 . S
C1427 C1426 1.390 . S
C1427 C1428 1.394 . S
C1427 C1433 1.465 . S
C1428 C1423 1.399 . S
C1428 C1427 1.394 . S
C1428 C1429 1.516 . S
C1429 C1428 1.516 . S
C1429 C1430 1.502 1_554 S
C1429 C1431 1.561 1_554 S
C1429 C1432 1.526 . S
C1430 H1414 0.959 . S
C1430 H1415 0.959 . S
C1430 H1416 0.961 . S
C1430 C1429 1.502 1_556 S
C1431 H1417 0.960 . S
C1431 H1418 0.961 . S
C1431 H1419 0.959 1_556 S
C1431 C1429 1.561 1_556 S
C1432 C1429 1.526 . S
C1432 C1433 1.396 . S
C1432 C1437 1.390 . S
C1433 C1427 1.465 . S
C1433 C1432 1.396 . S
C1433 C1434 1.399 . S
C1434 H1420 0.929 . S
C1434 C1433 1.399 . S
C1434 C1435 1.385 . S
C1435 H1421 0.931 . S
C1435 C1434 1.385 . S
C1435 C1436 1.389 . S
C1436 C1435 1.389 . S
C1436 C1437 1.387 . S
C1437 H1422 0.930 . S
C1437 C1432 1.390 . S
C1437 C1436 1.387 . S
H1438 C1450 0.930 . S
H1439 C1452 0.930 . S
H1440 C1453 0.930 . S
H1441 C1457 0.959 . S
H1442 C1457 0.959 . S
H1443 C1457 0.961 . S
H1444 C1458 0.960 . S
H1445 C1458 0.961 . S
H1446 C1458 0.959 . S
H1447 C1461 0.929 . S
H1448 C1462 0.931 . S
H1449 C1464 0.930 . S
C1450 H1438 0.930 . S
C1450 C1451 1.399 . S
C1450 C1455 1.399 . S
C1451 C1450 1.399 . S
C1451 C1452 1.376 . S
C1452 H1439 0.930 . S
C1452 C1451 1.376 . S
C1452 C1453 1.388 . S
C1453 H1440 0.930 . S
C1453 C1452 1.388 . S
C1453 C1454 1.390 . S
C1454 C1453 1.390 . S
C1454 C1455 1.394 . S
C1454 C1460 1.465 . S
C1455 C1450 1.399 . S
C1455 C1454 1.394 . S
C1455 C1456 1.516 . S
C1456 C1455 1.516 . S
C1456 C1457 1.502 . S
C1456 C1458 1.561 . S
C1456 C1459 1.526 . S
C1457 H1441 0.959 . S
C1457 H1442 0.959 . S
C1457 H1443 0.961 . S
C1457 C1456 1.502 . S
C1458 H1444 0.960 . S
C1458 H1445 0.961 . S
C1458 H1446 0.959 . S
C1458 C1456 1.561 . S
C1459 C1456 1.526 . S
C1459 C1460 1.396 . S
C1459 C1464 1.390 . S
C1460 C1454 1.465 . S
C1460 C1459 1.396 . S
C1460 C1461 1.399 . S
C1461 H1447 0.929 . S
C1461 C1460 1.399 . S
C1461 C1462 1.385 . S
C1462 H1448 0.931 . S
C1462 C1461 1.385 . S
C1462 C1463 1.389 . S
C1463 C1462 1.389 . S
C1463 C1464 1.387 . S
C1464 H1449 0.930 . S
C1464 C1459 1.390 . S
C1464 C1463 1.387 . S
H1465 C1477 0.930 . S
H1466 C1479 0.930 . S
H1467 C1480 0.930 . S
H1468 C1484 0.959 . S
H1469 C1484 0.959 . S
H1470 C1484 0.961 . S
H1471 C1485 0.960 . S
H1472 C1485 0.961 . S
H1473 C1485 0.959 . S
H1474 C1488 0.929 . S
H1475 C1489 0.931 . S
H1476 C1491 0.930 . S
C1477 H1465 0.930 . S
C1477 C1478 1.399 . S
C1477 C1482 1.399 . S
C1478 C1477 1.399 . S
C1478 C1479 1.376 . S
C1479 H1466 0.930 . S
C1479 C1478 1.376 . S
C1479 C1480 1.388 . S
C1480 H1467 0.930 . S
C1480 C1479 1.388 . S
C1480 C1481 1.390 . S
C1481 C1480 1.390 . S
C1481 C1482 1.394 . S
C1481 C1487 1.465 . S
C1482 C1477 1.399 . S
C1482 C1481 1.394 . S
C1482 C1483 1.516 . S
C1483 C1482 1.516 . S
C1483 C1484 1.502 . S
C1483 C1485 1.561 . S
C1483 C1486 1.526 . S
C1484 H1468 0.959 . S
C1484 H1469 0.959 . S
C1484 H1470 0.961 . S
C1484 C1483 1.502 . S
C1485 H1471 0.960 . S
C1485 H1472 0.961 . S
C1485 H1473 0.959 . S
C1485 C1483 1.561 . S
C1486 C1483 1.526 . S
C1486 C1487 1.396 . S
C1486 C1491 1.390 . S
C1487 C1481 1.465 . S
C1487 C1486 1.396 . S
C1487 C1488 1.399 . S
C1488 H1474 0.929 . S
C1488 C1487 1.399 . S
C1488 C1489 1.385 . S
C1489 H1475 0.931 . S
C1489 C1488 1.385 . S
C1489 C1490 1.389 . S
C1490 C1489 1.389 . S
C1490 C1491 1.387 . S
C1491 H1476 0.930 . S
C1491 C1486 1.390 . S
C1491 C1490 1.387 . S
H1492 C1504 0.930 . S
H1493 C1506 0.930 . S
H1494 C1507 0.930 . S
H1495 C1511 0.959 . S
H1496 C1511 0.959 . S
H1497 C1511 0.961 . S
H1498 C1512 0.960 . S
H1499 C1512 0.961 . S
H1500 C1512 0.959 . S
H1501 C1515 0.929 . S
H1502 C1516 0.931 . S
H1503 C1518 0.930 . S
C1504 H1492 0.930 . S
C1504 C1505 1.399 . S
C1504 C1509 1.399 . S
C1505 C1504 1.399 . S
C1505 C1506 1.376 . S
C1506 H1493 0.930 . S
C1506 C1505 1.376 . S
C1506 C1507 1.388 . S
C1507 H1494 0.930 . S
C1507 C1506 1.388 . S
C1507 C1508 1.390 . S
C1508 C1507 1.390 . S
C1508 C1509 1.394 . S
C1508 C1514 1.465 . S
C1509 C1504 1.399 . S
C1509 C1508 1.394 . S
C1509 C1510 1.516 . S
C1510 C1509 1.516 . S
C1510 C1511 1.502 . S
C1510 C1512 1.561 . S
C1510 C1513 1.526 . S
C1511 H1495 0.959 . S
C1511 H1496 0.959 . S
C1511 H1497 0.961 . S
C1511 C1510 1.502 . S
C1512 H1498 0.960 . S
C1512 H1499 0.961 . S
C1512 H1500 0.959 . S
C1512 C1510 1.561 . S
C1513 C1510 1.526 . S
C1513 C1514 1.396 . S
C1513 C1518 1.390 . S
C1514 C1508 1.465 . S
C1514 C1513 1.396 . S
C1514 C1515 1.399 . S
C1515 H1501 0.929 . S
C1515 C1514 1.399 . S
C1515 C1516 1.385 . S
C1516 H1502 0.931 . S
C1516 C1515 1.385 . S
C1516 C1517 1.389 . S
C1517 C1516 1.389 . S
C1517 C1518 1.387 . S
C1518 H1503 0.930 . S
C1518 C1513 1.390 . S
C1518 C1517 1.387 . S
H1519 C1531 0.930 . S
H1520 C1533 0.930 . S
H1521 C1534 0.930 . S
H1522 C1538 0.959 . S
H1523 C1538 0.959 . S
H1524 C1538 0.961 . S
H1525 C1539 0.960 . S
H1526 C1539 0.961 . S
H1527 C1539 0.959 . S
H1528 C1542 0.929 . S
H1529 C1543 0.931 . S
H1530 C1545 0.930 . S
C1531 H1519 0.930 . S
C1531 C1532 1.399 . S
C1531 C1536 1.399 . S
C1532 C1531 1.399 . S
C1532 C1533 1.376 . S
C1533 H1520 0.930 . S
C1533 C1532 1.376 . S
C1533 C1534 1.388 . S
C1534 H1521 0.930 . S
C1534 C1533 1.388 . S
C1534 C1535 1.390 . S
C1535 C1534 1.390 . S
C1535 C1536 1.394 . S
C1535 C1541 1.465 . S
C1536 C1531 1.399 . S
C1536 C1535 1.394 . S
C1536 C1537 1.516 . S
C1537 C1536 1.516 . S
C1537 C1538 1.502 . S
C1537 C1539 1.561 . S
C1537 C1540 1.526 . S
C1538 H1522 0.959 . S
C1538 H1523 0.959 . S
C1538 H1524 0.961 . S
C1538 C1537 1.502 . S
C1539 H1525 0.960 . S
C1539 H1526 0.961 . S
C1539 H1527 0.959 . S
C1539 C1537 1.561 . S
C1540 C1537 1.526 . S
C1540 C1541 1.396 . S
C1540 C1545 1.390 . S
C1541 C1535 1.465 . S
C1541 C1540 1.396 . S
C1541 C1542 1.399 . S
C1542 H1528 0.929 . S
C1542 C1541 1.399 . S
C1542 C1543 1.385 . S
C1543 H1529 0.931 . S
C1543 C1542 1.385 . S
C1543 C1544 1.389 . S
C1544 C1543 1.389 . S
C1544 C1545 1.387 . S
C1545 H1530 0.930 . S
C1545 C1540 1.390 . S
C1545 C1544 1.387 . S
H1546 C1558 0.930 . S
H1547 C1560 0.930 . S
H1548 C1561 0.930 . S
H1549 C1565 0.959 . S
H1550 C1565 0.959 . S
H1551 C1565 0.961 . S
H1552 C1566 0.960 . S
H1553 C1566 0.961 . S
H1554 C1566 0.959 . S
H1555 C1569 0.929 . S
H1556 C1570 0.931 . S
H1557 C1572 0.930 . S
C1558 H1546 0.930 . S
C1558 C1559 1.399 . S
C1558 C1563 1.399 . S
C1559 C1558 1.399 . S
C1559 C1560 1.376 . S
C1560 H1547 0.930 . S
C1560 C1559 1.376 . S
C1560 C1561 1.388 . S
C1561 H1548 0.930 . S
C1561 C1560 1.388 . S
C1561 C1562 1.390 . S
C1562 C1561 1.390 . S
C1562 C1563 1.394 . S
C1562 C1568 1.465 . S
C1563 C1558 1.399 . S
C1563 C1562 1.394 . S
C1563 C1564 1.516 . S
C1564 C1563 1.516 . S
C1564 C1565 1.502 . S
C1564 C1566 1.561 . S
C1564 C1567 1.526 . S
C1565 H1549 0.959 . S
C1565 H1550 0.959 . S
C1565 H1551 0.961 . S
C1565 C1564 1.502 . S
C1566 H1552 0.960 . S
C1566 H1553 0.961 . S
C1566 H1554 0.959 . S
C1566 C1564 1.561 . S
C1567 C1564 1.526 . S
C1567 C1568 1.396 . S
C1567 C1572 1.390 . S
C1568 C1562 1.465 . S
C1568 C1567 1.396 . S
C1568 C1569 1.399 . S
C1569 H1555 0.929 . S
C1569 C1568 1.399 . S
C1569 C1570 1.385 . S
C1570 H1556 0.931 . S
C1570 C1569 1.385 . S
C1570 C1571 1.389 . S
C1571 C1570 1.389 . S
C1571 C1572 1.387 . S
C1572 H1557 0.930 . S
C1572 C1567 1.390 . S
C1572 C1571 1.387 . S
H1573 C1585 0.930 . S
H1574 C1587 0.930 . S
H1575 C1588 0.930 . S
H1576 C1592 0.959 . S
H1577 C1592 0.959 . S
H1578 C1592 0.961 . S
H1579 C1593 0.960 . S
H1580 C1593 0.961 . S
H1581 C1593 0.959 . S
H1582 C1596 0.929 . S
H1583 C1597 0.931 . S
H1584 C1599 0.930 . S
C1585 H1573 0.930 . S
C1585 C1586 1.399 . S
C1585 C1590 1.399 . S
C1586 C1585 1.399 . S
C1586 C1587 1.376 . S
C1587 H1574 0.930 . S
C1587 C1586 1.376 . S
C1587 C1588 1.388 . S
C1588 H1575 0.930 . S
C1588 C1587 1.388 . S
C1588 C1589 1.390 . S
C1589 C1588 1.390 . S
C1589 C1590 1.394 . S
C1589 C1595 1.465 . S
C1590 C1585 1.399 . S
C1590 C1589 1.394 . S
C1590 C1591 1.516 . S
C1591 C1590 1.516 . S
C1591 C1592 1.502 . S
C1591 C1593 1.561 . S
C1591 C1594 1.526 . S
C1592 H1576 0.959 . S
C1592 H1577 0.959 . S
C1592 H1578 0.961 . S
C1592 C1591 1.502 . S
C1593 H1579 0.960 . S
C1593 H1580 0.961 . S
C1593 H1581 0.959 . S
C1593 C1591 1.561 . S
C1594 C1591 1.526 . S
C1594 C1595 1.396 . S
C1594 C1599 1.390 . S
C1595 C1589 1.465 . S
C1595 C1594 1.396 . S
C1595 C1596 1.399 . S
C1596 H1582 0.929 . S
C1596 C1595 1.399 . S
C1596 C1597 1.385 . S
C1597 H1583 0.931 . S
C1597 C1596 1.385 . S
C1597 C1598 1.389 . S
C1598 C1597 1.389 . S
C1598 C1599 1.387 . S
C1599 H1584 0.930 . S
C1599 C1594 1.390 . S
C1599 C1598 1.387 . S
H1600 C1612 0.930 . S
H1601 C1614 0.930 . S
H1602 C1615 0.930 . S
H1603 C1619 0.959 . S
H1604 C1619 0.959 . S
H1605 C1619 0.961 . S
H1606 C1620 0.960 . S
H1607 C1620 0.961 . S
H1608 C1620 0.959 . S
H1609 C1623 0.929 . S
H1610 C1624 0.931 . S
H1611 C1626 0.930 . S
C1612 H1600 0.930 . S
C1612 C1613 1.399 . S
C1612 C1617 1.399 . S
C1613 C1612 1.399 . S
C1613 C1614 1.376 . S
C1614 H1601 0.930 . S
C1614 C1613 1.376 . S
C1614 C1615 1.388 . S
C1615 H1602 0.930 . S
C1615 C1614 1.388 . S
C1615 C1616 1.390 . S
C1616 C1615 1.390 . S
C1616 C1617 1.394 . S
C1616 C1622 1.465 . S
C1617 C1612 1.399 . S
C1617 C1616 1.394 . S
C1617 C1618 1.516 . S
C1618 C1617 1.516 . S
C1618 C1619 1.502 . S
C1618 C1620 1.561 . S
C1618 C1621 1.526 . S
C1619 H1603 0.959 . S
C1619 H1604 0.959 . S
C1619 H1605 0.961 . S
C1619 C1618 1.502 . S
C1620 H1606 0.960 . S
C1620 H1607 0.961 . S
C1620 H1608 0.959 . S
C1620 C1618 1.561 . S
C1621 C1618 1.526 . S
C1621 C1622 1.396 . S
C1621 C1626 1.390 . S
C1622 C1616 1.465 . S
C1622 C1621 1.396 . S
C1622 C1623 1.399 . S
C1623 H1609 0.929 . S
C1623 C1622 1.399 . S
C1623 C1624 1.385 . S
C1624 H1610 0.931 . S
C1624 C1623 1.385 . S
C1624 C1625 1.389 . S
C1625 C1624 1.389 . S
C1625 C1626 1.387 . S
C1626 H1611 0.930 . S
C1626 C1621 1.390 . S
C1626 C1625 1.387 . S
H1627 C1639 0.930 . S
H1628 C1641 0.930 . S
H1629 C1642 0.930 . S
H1630 C1646 0.959 . S
H1631 C1646 0.959 . S
H1632 C1646 0.961 . S
H1633 C1647 0.960 . S
H1634 C1647 0.961 . S
H1635 C1647 0.959 . S
H1636 C1650 0.929 . S
H1637 C1651 0.931 . S
H1638 C1653 0.930 . S
C1639 H1627 0.930 . S
C1639 C1640 1.399 . S
C1639 C1644 1.399 . S
C1640 C1639 1.399 . S
C1640 C1641 1.376 . S
C1641 H1628 0.930 . S
C1641 C1640 1.376 . S
C1641 C1642 1.388 . S
C1642 H1629 0.930 . S
C1642 C1641 1.388 . S
C1642 C1643 1.390 . S
C1643 C1642 1.390 . S
C1643 C1644 1.394 . S
C1643 C1649 1.465 . S
C1644 C1639 1.399 . S
C1644 C1643 1.394 . S
C1644 C1645 1.516 . S
C1645 C1644 1.516 . S
C1645 C1646 1.502 . S
C1645 C1647 1.561 . S
C1645 C1648 1.526 . S
C1646 H1630 0.959 . S
C1646 H1631 0.959 . S
C1646 H1632 0.961 . S
C1646 C1645 1.502 . S
C1647 H1633 0.960 . S
C1647 H1634 0.961 . S
C1647 H1635 0.959 . S
C1647 C1645 1.561 . S
C1648 C1645 1.526 . S
C1648 C1649 1.396 . S
C1648 C1653 1.390 . S
C1649 C1643 1.465 . S
C1649 C1648 1.396 . S
C1649 C1650 1.399 . S
C1650 H1636 0.929 . S
C1650 C1649 1.399 . S
C1650 C1651 1.385 . S
C1651 H1637 0.931 . S
C1651 C1650 1.385 . S
C1651 C1652 1.389 . S
C1652 C1651 1.389 . S
C1652 C1653 1.387 . S
C1653 H1638 0.930 . S
C1653 C1648 1.390 . S
C1653 C1652 1.387 . S
H1654 C1666 0.930 . S
H1655 C1668 0.930 . S
H1656 C1669 0.930 . S
H1657 C1673 0.959 . S
H1658 C1673 0.959 . S
H1659 C1673 0.961 . S
H1660 C1674 0.960 . S
H1661 C1674 0.961 . S
H1662 C1674 0.959 . S
H1663 C1677 0.929 . S
H1664 C1678 0.931 . S
H1665 C1680 0.930 . S
C1666 H1654 0.930 . S
C1666 C1667 1.399 . S
C1666 C1671 1.399 . S
C1667 C1666 1.399 . S
C1667 C1668 1.376 . S
C1668 H1655 0.930 . S
C1668 C1667 1.376 . S
C1668 C1669 1.388 . S
C1669 H1656 0.930 . S
C1669 C1668 1.388 . S
C1669 C1670 1.390 . S
C1670 C1669 1.390 . S
C1670 C1671 1.394 . S
C1670 C1676 1.465 . S
C1671 C1666 1.399 . S
C1671 C1670 1.394 . S
C1671 C1672 1.516 . S
C1672 C1671 1.516 . S
C1672 C1673 1.502 . S
C1672 C1674 1.561 . S
C1672 C1675 1.526 . S
C1673 H1657 0.959 . S
C1673 H1658 0.959 . S
C1673 H1659 0.961 . S
C1673 C1672 1.502 . S
C1674 H1660 0.960 . S
C1674 H1661 0.961 . S
C1674 H1662 0.959 . S
C1674 C1672 1.561 . S
C1675 C1672 1.526 . S
C1675 C1676 1.396 . S
C1675 C1680 1.390 . S
C1676 C1670 1.465 . S
C1676 C1675 1.396 . S
C1676 C1677 1.399 . S
C1677 H1663 0.929 . S
C1677 C1676 1.399 . S
C1677 C1678 1.385 . S
C1678 H1664 0.931 . S
C1678 C1677 1.385 . S
C1678 C1679 1.389 . S
C1679 C1678 1.389 . S
C1679 C1680 1.387 . S
C1680 H1665 0.930 . S
C1680 C1675 1.390 . S
C1680 C1679 1.387 . S
H1681 C1693 0.930 . S
H1682 C1695 0.930 . S
H1683 C1696 0.930 . S
H1684 C1700 0.959 . S
H1685 C1700 0.959 . S
H1686 C1700 0.961 . S
H1687 C1701 0.960 . S
H1688 C1701 0.961 . S
H1689 C1701 0.959 . S
H1690 C1704 0.929 . S
H1691 C1705 0.931 . S
H1692 C1707 0.930 . S
C1693 H1681 0.930 . S
C1693 C1694 1.399 . S
C1693 C1698 1.399 . S
C1694 C1693 1.399 . S
C1694 C1695 1.376 . S
C1695 H1682 0.930 . S
C1695 C1694 1.376 . S
C1695 C1696 1.388 . S
C1696 H1683 0.930 . S
C1696 C1695 1.388 . S
C1696 C1697 1.390 . S
C1697 C1696 1.390 . S
C1697 C1698 1.394 . S
C1697 C1703 1.465 . S
C1698 C1693 1.399 . S
C1698 C1697 1.394 . S
C1698 C1699 1.516 . S
C1699 C1698 1.516 . S
C1699 C1700 1.502 . S
C1699 C1701 1.561 . S
C1699 C1702 1.526 . S
C1700 H1684 0.959 . S
C1700 H1685 0.959 . S
C1700 H1686 0.961 . S
C1700 C1699 1.502 . S
C1701 H1687 0.960 . S
C1701 H1688 0.961 . S
C1701 H1689 0.959 . S
C1701 C1699 1.561 . S
C1702 C1699 1.526 . S
C1702 C1703 1.396 . S
C1702 C1707 1.390 . S
C1703 C1697 1.465 . S
C1703 C1702 1.396 . S
C1703 C1704 1.399 . S
C1704 H1690 0.929 . S
C1704 C1703 1.399 . S
C1704 C1705 1.385 . S
C1705 H1691 0.931 . S
C1705 C1704 1.385 . S
C1705 C1706 1.389 . S
C1706 C1705 1.389 . S
C1706 C1707 1.387 . S
C1707 H1692 0.930 . S
C1707 C1702 1.390 . S
C1707 C1706 1.387 . S
H1708 C1720 0.930 . S
H1709 C1722 0.930 . S
H1710 C1723 0.930 . S
H1711 C1727 0.959 . S
H1712 C1727 0.959 . S
H1713 C1727 0.961 . S
H1714 C1728 0.960 . S
H1715 C1728 0.961 . S
H1716 C1728 0.959 1_455 S
H1717 C1731 0.929 . S
H1718 C1732 0.931 . S
H1719 C1734 0.930 . S
C1720 H1708 0.930 . S
C1720 C1721 1.399 1_655 S
C1720 C1725 1.399 . S
C1721 C1720 1.399 1_455 S
C1721 C1722 1.376 . S
C1722 H1709 0.930 . S
C1722 C1721 1.376 . S
C1722 C1723 1.388 . S
C1723 H1710 0.930 . S
C1723 C1722 1.388 . S
C1723 C1724 1.390 . S
C1724 C1723 1.390 . S
C1724 C1725 1.394 1_455 S
C1724 C1730 1.465 . S
C1725 C1720 1.399 . S
C1725 C1724 1.394 1_655 S
C1725 C1726 1.516 . S
C1726 C1725 1.516 . S
C1726 C1727 1.502 . S
C1726 C1728 1.561 . S
C1726 C1729 1.526 . S
C1727 H1711 0.959 . S
C1727 H1712 0.959 . S
C1727 H1713 0.961 . S
C1727 C1726 1.502 . S
C1728 H1714 0.960 . S
C1728 H1715 0.961 . S
C1728 H1716 0.959 1_655 S
C1728 C1726 1.561 . S
C1729 C1726 1.526 . S
C1729 C1730 1.396 1_655 S
C1729 C1734 1.390 . S
C1730 C1724 1.465 . S
C1730 C1729 1.396 1_455 S
C1730 C1731 1.399 . S
C1731 H1717 0.929 . S
C1731 C1730 1.399 . S
C1731 C1732 1.385 . S
C1732 H1718 0.931 . S
C1732 C1731 1.385 . S
C1732 C1733 1.376 1_455 S
C1733 C1732 1.376 1_655 S
C1733 C1734 1.401 . S
C1734 H1719 0.930 . S
C1734 C1729 1.390 . S
C1734 C1733 1.401 . S
H1735 C1747 0.930 . S
H1736 C1749 0.930 . S
H1737 C1750 0.930 . S
H1738 C1754 0.959 . S
H1739 C1754 0.959 . S
H1740 C1754 0.961 . S
H1741 C1755 0.960 . S
H1742 C1755 0.961 . S
H1743 C1755 0.959 . S
H1744 C1758 0.929 . S
H1745 C1759 0.931 . S
H1746 C1761 0.930 . S
C1747 H1735 0.930 . S
C1747 C1748 1.399 . S
C1747 C1752 1.399 . S
C1748 C1747 1.399 . S
C1748 C1749 1.376 . S
C1749 H1736 0.930 . S
C1749 C1748 1.376 . S
C1749 C1750 1.388 . S
C1750 H1737 0.930 . S
C1750 C1749 1.388 . S
C1750 C1751 1.390 . S
C1751 C1750 1.390 . S
C1751 C1752 1.394 . S
C1751 C1757 1.465 . S
C1752 C1747 1.399 . S
C1752 C1751 1.394 . S
C1752 C1753 1.516 . S
C1753 C1752 1.516 . S
C1753 C1754 1.502 . S
C1753 C1755 1.561 . S
C1753 C1756 1.526 . S
C1754 H1738 0.959 . S
C1754 H1739 0.959 . S
C1754 H1740 0.961 . S
C1754 C1753 1.502 . S
C1755 H1741 0.960 . S
C1755 H1742 0.961 . S
C1755 H1743 0.959 . S
C1755 C1753 1.561 . S
C1756 C1753 1.526 . S
C1756 C1757 1.396 . S
C1756 C1761 1.390 . S
C1757 C1751 1.465 . S
C1757 C1756 1.396 . S
C1757 C1758 1.399 . S
C1758 H1744 0.929 . S
C1758 C1757 1.399 . S
C1758 C1759 1.385 . S
C1759 H1745 0.931 . S
C1759 C1758 1.385 . S
C1759 C1760 1.389 . S
C1760 C1759 1.389 . S
C1760 C1761 1.387 . S
C1761 H1746 0.930 . S
C1761 C1756 1.390 . S
C1761 C1760 1.387 . S
H1762 C1774 0.930 . S
H1763 C1776 0.930 . S
H1764 C1777 0.930 . S
H1765 C1781 0.959 . S
H1766 C1781 0.959 . S
H1767 C1781 0.961 . S
H1768 C1782 0.960 . S
H1769 C1782 0.961 . S
H1770 C1782 0.959 . S
H1771 C1785 0.929 . S
H1772 C1786 0.931 . S
H1773 C1788 0.930 . S
C1774 H1762 0.930 . S
C1774 C1775 1.399 . S
C1774 C1779 1.399 . S
C1775 C1774 1.399 . S
C1775 C1776 1.376 . S
C1776 H1763 0.930 . S
C1776 C1775 1.376 . S
C1776 C1777 1.388 . S
C1777 H1764 0.930 . S
C1777 C1776 1.388 . S
C1777 C1778 1.390 . S
C1778 C1777 1.390 . S
C1778 C1779 1.394 . S
C1778 C1784 1.465 . S
C1779 C1774 1.399 . S
C1779 C1778 1.394 . S
C1779 C1780 1.516 . S
C1780 C1779 1.516 . S
C1780 C1781 1.502 . S
C1780 C1782 1.561 . S
C1780 C1783 1.526 . S
C1781 H1765 0.959 . S
C1781 H1766 0.959 . S
C1781 H1767 0.961 . S
C1781 C1780 1.502 . S
C1782 H1768 0.960 . S
C1782 H1769 0.961 . S
C1782 H1770 0.959 . S
C1782 C1780 1.561 . S
C1783 C1780 1.526 . S
C1783 C1784 1.396 . S
C1783 C1788 1.390 1_556 S
C1784 C1778 1.465 . S
C1784 C1783 1.396 . S
C1784 C1785 1.399 1_556 S
C1785 H1771 0.929 . S
C1785 C1784 1.399 1_554 S
C1785 C1786 1.385 . S
C1786 H1772 0.931 . S
C1786 C1785 1.385 . S
C1786 C1787 1.389 . S
C1787 C1786 1.389 . S
C1787 C1788 1.387 . S
C1788 H1773 0.930 . S
C1788 C1783 1.390 1_554 S
C1788 C1787 1.387 . S
H1789 C1801 0.930 . S
H1790 C1803 0.931 1_455 S
H1791 C1804 0.930 . S
H1792 C1808 0.959 . S
H1793 C1808 0.959 . S
H1794 C1808 0.961 1_455 S
H1795 C1809 0.960 . S
H1796 C1809 0.961 . S
H1797 C1809 0.959 . S
H1798 C1812 0.929 . S
H1799 C1813 0.931 . S
H1800 C1815 0.930 . S
C1801 H1789 0.930 . S
C1801 C1802 1.399 . S
C1801 C1806 1.399 1_455 S
C1802 C1801 1.399 . S
C1802 C1803 1.377 1_455 S
C1803 H1790 0.931 1_655 S
C1803 C1802 1.377 1_655 S
C1803 C1804 1.388 . S
C1804 H1791 0.930 . S
C1804 C1803 1.388 . S
C1804 C1805 1.390 . S
C1805 C1804 1.390 . S
C1805 C1806 1.394 . S
C1805 C1811 1.465 . S
C1806 C1801 1.399 1_655 S
C1806 C1805 1.394 . S
C1806 C1807 1.516 . S
C1807 C1806 1.516 . S
C1807 C1808 1.502 . S
C1807 C1809 1.561 . S
C1807 C1810 1.526 . S
C1808 H1792 0.959 . S
C1808 H1793 0.959 . S
C1808 H1794 0.961 1_655 S
C1808 C1807 1.502 . S
C1809 H1795 0.960 . S
C1809 H1796 0.961 . S
C1809 H1797 0.959 . S
C1809 C1807 1.561 . S
C1810 C1807 1.526 . S
C1810 C1811 1.396 . S
C1810 C1815 1.390 . S
C1811 C1805 1.465 . S
C1811 C1810 1.396 . S
C1811 C1812 1.399 . S
C1812 H1798 0.929 . S
C1812 C1811 1.399 . S
C1812 C1813 1.385 . S
C1813 H1799 0.931 . S
C1813 C1812 1.385 . S
C1813 C1814 1.389 . S
C1814 C1813 1.389 . S
C1814 C1815 1.387 . S
C1815 H1800 0.930 . S
C1815 C1810 1.390 . S
C1815 C1814 1.387 . S
H1816 C1828 0.930 . S
H1817 C1830 0.930 . S
H1818 C1831 0.930 1_565 S
H1819 C1835 0.959 . S
H1820 C1835 0.959 . S
H1821 C1835 0.961 . S
H1822 C1836 0.960 . S
H1823 C1836 0.961 . S
H1824 C1836 0.959 . S
H1825 C1839 0.929 . S
H1826 C1840 0.931 . S
H1827 C1842 0.930 . S
C1828 H1816 0.930 . S
C1828 C1829 1.399 . S
C1828 C1833 1.399 . S
C1829 C1828 1.399 . S
C1829 C1830 1.376 . S
C1830 H1817 0.930 . S
C1830 C1829 1.376 . S
C1830 C1831 1.388 . S
C1831 H1818 0.930 1_545 S
C1831 C1830 1.388 . S
C1831 C1832 1.390 . S
C1832 C1831 1.390 . S
C1832 C1833 1.394 . S
C1832 C1838 1.465 . S
C1833 C1828 1.399 . S
C1833 C1832 1.394 . S
C1833 C1834 1.516 . S
C1834 C1833 1.516 . S
C1834 C1835 1.502 . S
C1834 C1836 1.561 . S
C1834 C1837 1.526 . S
C1835 H1819 0.959 . S
C1835 H1820 0.959 . S
C1835 H1821 0.961 . S
C1835 C1834 1.502 . S
C1836 H1822 0.960 . S
C1836 H1823 0.961 . S
C1836 H1824 0.959 . S
C1836 C1834 1.561 . S
C1837 C1834 1.526 . S
C1837 C1838 1.396 . S
C1837 C1842 1.390 . S
C1838 C1832 1.465 . S
C1838 C1837 1.396 . S
C1838 C1839 1.399 1_545 S
C1839 H1825 0.929 . S
C1839 C1838 1.399 1_565 S
C1839 C1840 1.385 . S
C1840 H1826 0.931 . S
C1840 C1839 1.385 . S
C1840 C1841 1.389 1_565 S
C1841 C1840 1.389 1_545 S
C1841 C1842 1.387 . S
C1842 H1827 0.930 . S
C1842 C1837 1.390 . S
C1842 C1841 1.387 . S
H1843 C1855 0.930 . S
H1844 C1857 0.930 . S
H1845 C1858 0.930 . S
H1846 C1862 0.959 . S
H1847 C1862 0.959 . S
H1848 C1862 0.961 . S
H1849 C1863 0.960 . S
H1850 C1863 0.961 . S
H1851 C1863 0.959 . S
H1852 C1866 0.929 . S
H1853 C1867 0.931 . S
H1854 C1869 0.930 . S
C1855 H1843 0.930 . S
C1855 C1856 1.399 . S
C1855 C1860 1.399 . S
C1856 C1855 1.399 . S
C1856 C1857 1.376 . S
C1857 H1844 0.930 . S
C1857 C1856 1.376 . S
C1857 C1858 1.388 . S
C1858 H1845 0.930 . S
C1858 C1857 1.388 . S
C1858 C1859 1.390 . S
C1859 C1858 1.390 . S
C1859 C1860 1.394 . S
C1859 C1865 1.465 . S
C1860 C1855 1.399 . S
C1860 C1859 1.394 . S
C1860 C1861 1.516 . S
C1861 C1860 1.516 . S
C1861 C1862 1.502 . S
C1861 C1863 1.561 . S
C1861 C1864 1.526 . S
C1862 H1846 0.959 . S
C1862 H1847 0.959 . S
C1862 H1848 0.961 . S
C1862 C1861 1.502 . S
C1863 H1849 0.960 . S
C1863 H1850 0.961 . S
C1863 H1851 0.959 . S
C1863 C1861 1.561 . S
C1864 C1861 1.526 . S
C1864 C1865 1.396 . S
C1864 C1869 1.390 . S
C1865 C1859 1.465 . S
C1865 C1864 1.396 . S
C1865 C1866 1.399 . S
C1866 H1852 0.929 . S
C1866 C1865 1.399 . S
C1866 C1867 1.385 . S
C1867 H1853 0.931 . S
C1867 C1866 1.385 . S
C1867 C1868 1.389 . S
C1868 C1867 1.389 . S
C1868 C1869 1.387 . S
C1869 H1854 0.930 . S
C1869 C1864 1.390 . S
C1869 C1868 1.387 . S
H1870 C1882 0.930 . S
H1871 C1884 0.930 1_565 S
H1872 C1885 0.930 1_565 S
H1873 C1889 0.959 . S
H1874 C1889 0.959 . S
H1875 C1889 0.961 . S
H1876 C1890 0.960 . S
H1877 C1890 0.961 . S
H1878 C1890 0.959 . S
H1879 C1893 0.929 . S
H1880 C1894 0.931 1_565 S
H1881 C1896 0.930 . S
C1882 H1870 0.930 . S
C1882 C1883 1.399 . S
C1882 C1887 1.399 . S
C1883 C1882 1.399 . S
C1883 C1884 1.376 . S
C1884 H1871 0.930 1_545 S
C1884 C1883 1.376 . S
C1884 C1885 1.388 . S
C1885 H1872 0.930 1_545 S
C1885 C1884 1.388 . S
C1885 C1886 1.390 . S
C1886 C1885 1.390 . S
C1886 C1887 1.394 . S
C1886 C1892 1.465 . S
C1887 C1882 1.399 . S
C1887 C1886 1.394 . S
C1887 C1888 1.516 . S
C1888 C1887 1.516 . S
C1888 C1889 1.502 . S
C1888 C1890 1.561 . S
C1888 C1891 1.526 . S
C1889 H1873 0.959 . S
C1889 H1874 0.959 . S
C1889 H1875 0.961 . S
C1889 C1888 1.502 . S
C1890 H1876 0.960 . S
C1890 H1877 0.961 . S
C1890 H1878 0.959 . S
C1890 C1888 1.561 . S
C1891 C1888 1.526 . S
C1891 C1892 1.396 . S
C1891 C1896 1.390 . S
C1892 C1886 1.465 . S
C1892 C1891 1.396 . S
C1892 C1893 1.399 1_545 S
C1893 H1879 0.929 . S
C1893 C1892 1.399 1_565 S
C1893 C1894 1.385 1_565 S
C1894 H1880 0.931 1_545 S
C1894 C1893 1.385 1_545 S
C1894 C1895 1.389 . S
C1895 C1894 1.389 . S
C1895 C1896 1.387 . S
C1896 H1881 0.930 . S
C1896 C1891 1.390 . S
C1896 C1895 1.387 . S
H1897 C1909 0.930 . S
H1898 C1911 0.930 . S
H1899 C1912 0.930 . S
H1900 C1916 0.959 . S
H1901 C1916 0.959 . S
H1902 C1916 0.961 . S
H1903 C1917 0.960 . S
H1904 C1917 0.961 . S
H1905 C1917 0.959 . S
H1906 C1920 0.929 . S
H1907 C1921 0.931 . S
H1908 C1923 0.930 . S
C1909 H1897 0.930 . S
C1909 C1910 1.399 . S
C1909 C1914 1.399 . S
C1910 C1909 1.399 . S
C1910 C1911 1.376 . S
C1911 H1898 0.930 . S
C1911 C1910 1.376 . S
C1911 C1912 1.388 . S
C1912 H1899 0.930 . S
C1912 C1911 1.388 . S
C1912 C1913 1.390 . S
C1913 C1912 1.390 . S
C1913 C1914 1.394 . S
C1913 C1919 1.465 . S
C1914 C1909 1.399 . S
C1914 C1913 1.394 . S
C1914 C1915 1.516 . S
C1915 C1914 1.516 . S
C1915 C1916 1.502 . S
C1915 C1917 1.561 . S
C1915 C1918 1.526 . S
C1916 H1900 0.959 . S
C1916 H1901 0.959 . S
C1916 H1902 0.961 . S
C1916 C1915 1.502 . S
C1917 H1903 0.960 . S
C1917 H1904 0.961 . S
C1917 H1905 0.959 . S
C1917 C1915 1.561 . S
C1918 C1915 1.526 . S
C1918 C1919 1.396 . S
C1918 C1923 1.390 . S
C1919 C1913 1.465 . S
C1919 C1918 1.396 . S
C1919 C1920 1.399 . S
C1920 H1906 0.929 . S
C1920 C1919 1.399 . S
C1920 C1921 1.385 . S
C1921 H1907 0.931 . S
C1921 C1920 1.385 . S
C1921 C1922 1.389 . S
C1922 C1921 1.389 . S
C1922 C1923 1.387 . S
C1923 H1908 0.930 . S
C1923 C1918 1.390 . S
C1923 C1922 1.387 . S
H1924 C1936 0.930 . S
H1925 C1938 0.930 . S
H1926 C1939 0.930 1_565 S
H1927 C1943 0.959 . S
H1928 C1943 0.959 . S
H1929 C1943 0.961 . S
H1930 C1944 0.960 . S
H1931 C1944 0.961 . S
H1932 C1944 0.959 . S
H1933 C1947 0.929 1_565 S
H1934 C1948 0.931 1_565 S
H1935 C1950 0.930 . S
C1936 H1924 0.930 . S
C1936 C1937 1.399 . S
C1936 C1941 1.399 . S
C1937 C1936 1.399 . S
C1937 C1938 1.376 . S
C1938 H1925 0.930 . S
C1938 C1937 1.376 . S
C1938 C1939 1.388 . S
C1939 H1926 0.930 1_545 S
C1939 C1938 1.388 . S
C1939 C1940 1.390 . S
C1940 C1939 1.390 . S
C1940 C1941 1.394 . S
C1940 C1946 1.465 . S
C1941 C1936 1.399 . S
C1941 C1940 1.394 . S
C1941 C1942 1.516 . S
C1942 C1941 1.516 . S
C1942 C1943 1.502 . S
C1942 C1944 1.561 . S
C1942 C1945 1.526 . S
C1943 H1927 0.959 . S
C1943 H1928 0.959 . S
C1943 H1929 0.961 . S
C1943 C1942 1.502 . S
C1944 H1930 0.960 . S
C1944 H1931 0.961 . S
C1944 H1932 0.959 . S
C1944 C1942 1.561 . S
C1945 C1942 1.526 . S
C1945 C1946 1.396 . S
C1945 C1950 1.390 . S
C1946 C1940 1.465 . S
C1946 C1945 1.396 . S
C1946 C1947 1.399 . S
C1947 H1933 0.929 1_545 S
C1947 C1946 1.399 . S
C1947 C1948 1.385 . S
C1948 H1934 0.931 1_545 S
C1948 C1947 1.385 . S
C1948 C1949 1.389 . S
C1949 C1948 1.389 . S
C1949 C1950 1.387 . S
C1950 H1935 0.930 . S
C1950 C1945 1.390 . S
C1950 C1949 1.387 . S
H1951 C1963 0.930 . S
H1952 C1965 0.930 . S
H1953 C1966 0.930 . S
H1954 C1970 0.959 . S
H1955 C1970 0.959 . S
H1956 C1970 0.961 . S
H1957 C1971 0.960 . S
H1958 C1971 0.961 . S
H1959 C1971 0.959 . S
H1960 C1974 0.929 . S
H1961 C1975 0.931 . S
H1962 C1977 0.930 . S
C1963 H1951 0.930 . S
C1963 C1964 1.399 . S
C1963 C1968 1.399 . S
C1964 C1963 1.399 . S
C1964 C1965 1.376 . S
C1965 H1952 0.930 . S
C1965 C1964 1.376 . S
C1965 C1966 1.388 . S
C1966 H1953 0.930 . S
C1966 C1965 1.388 . S
C1966 C1967 1.390 . S
C1967 C1966 1.390 . S
C1967 C1968 1.394 . S
C1967 C1973 1.465 . S
C1968 C1963 1.399 . S
C1968 C1967 1.394 . S
C1968 C1969 1.516 . S
C1969 C1968 1.516 . S
C1969 C1970 1.502 . S
C1969 C1971 1.561 . S
C1969 C1972 1.526 . S
C1970 H1954 0.959 . S
C1970 H1955 0.959 . S
C1970 H1956 0.961 . S
C1970 C1969 1.502 . S
C1971 H1957 0.960 . S
C1971 H1958 0.961 . S
C1971 H1959 0.959 . S
C1971 C1969 1.561 . S
C1972 C1969 1.526 . S
C1972 C1973 1.396 . S
C1972 C1977 1.390 . S
C1973 C1967 1.465 . S
C1973 C1972 1.396 . S
C1973 C1974 1.399 . S
C1974 H1960 0.929 . S
C1974 C1973 1.399 . S
C1974 C1975 1.385 . S
C1975 H1961 0.931 . S
C1975 C1974 1.385 . S
C1975 C1976 1.389 . S
C1976 C1975 1.389 . S
C1976 C1977 1.387 . S
C1977 H1962 0.930 . S
C1977 C1972 1.390 . S
C1977 C1976 1.387 . S
H1978 C1990 0.930 1_565 S
H1979 C1992 0.930 . S
H1980 C1993 0.930 . S
H1981 C1997 0.959 1_545 S
H1982 C1997 0.959 . S
H1983 C1997 0.961 . S
H1984 C1998 0.960 . S
H1985 C1998 0.961 . S
H1986 C1998 0.959 . S
H1987 C2001 0.929 . S
H1988 C2002 0.931 . S
H1989 C2004 0.930 . S
C1990 H1978 0.930 1_545 S
C1990 C1991 1.399 . S
C1990 C1995 1.399 . S
C1991 C1990 1.399 . S
C1991 C1992 1.376 . S
C1992 H1979 0.930 . S
C1992 C1991 1.376 . S
C1992 C1993 1.388 . S
C1993 H1980 0.930 . S
C1993 C1992 1.388 . S
C1993 C1994 1.390 . S
C1994 C1993 1.390 . S
C1994 C1995 1.394 . S
C1994 C2000 1.465 . S
C1995 C1990 1.399 . S
C1995 C1994 1.394 . S
C1995 C1996 1.516 1_545 S
C1996 C1995 1.516 1_565 S
C1996 C1997 1.502 . S
C1996 C1998 1.561 . S
C1996 C1999 1.537 . S
C1997 H1981 0.959 1_565 S
C1997 H1982 0.959 . S
C1997 H1983 0.961 . S
C1997 C1996 1.502 . S
C1998 H1984 0.960 . S
C1998 H1985 0.961 . S
C1998 H1986 0.959 . S
C1998 C1996 1.561 . S
C1999 C1996 1.537 . S
C1999 C2000 1.375 1_565 S
C1999 C2004 1.397 . S
C2000 C1994 1.465 . S
C2000 C1999 1.375 1_545 S
C2000 C2001 1.399 . S
C2001 H1987 0.929 . S
C2001 C2000 1.399 . S
C2001 C2002 1.385 . S
C2002 H1988 0.931 . S
C2002 C2001 1.385 . S
C2002 C2003 1.389 . S
C2003 C2002 1.389 . S
C2003 C2004 1.387 1_545 S
C2004 H1989 0.930 . S
C2004 C1999 1.397 . S
C2004 C2003 1.387 1_565 S
H2005 C2017 0.930 . S
H2006 C2019 0.930 . S
H2007 C2020 0.930 . S
H2008 C2024 0.959 . S
H2009 C2024 0.959 . S
H2010 C2024 0.961 . S
H2011 C2025 0.960 . S
H2012 C2025 0.961 . S
H2013 C2025 0.959 . S
H2014 C2028 0.929 . S
H2015 C2029 0.931 . S
H2016 C2031 0.930 . S
C2017 H2005 0.930 . S
C2017 C2018 1.399 . S
C2017 C2022 1.399 . S
C2018 C2017 1.399 . S
C2018 C2019 1.376 . S
C2019 H2006 0.930 . S
C2019 C2018 1.376 . S
C2019 C2020 1.388 . S
C2020 H2007 0.930 . S
C2020 C2019 1.388 . S
C2020 C2021 1.390 . S
C2021 C2020 1.390 . S
C2021 C2022 1.394 . S
C2021 C2027 1.465 . S
C2022 C2017 1.399 . S
C2022 C2021 1.394 . S
C2022 C2023 1.516 . S
C2023 C2022 1.516 . S
C2023 C2024 1.502 . S
C2023 C2025 1.561 . S
C2023 C2026 1.526 . S
C2024 H2008 0.959 . S
C2024 H2009 0.959 . S
C2024 H2010 0.961 . S
C2024 C2023 1.502 . S
C2025 H2011 0.960 . S
C2025 H2012 0.961 . S
C2025 H2013 0.959 . S
C2025 C2023 1.561 . S
C2026 C2023 1.526 . S
C2026 C2027 1.396 . S
C2026 C2031 1.390 . S
C2027 C2021 1.465 . S
C2027 C2026 1.396 . S
C2027 C2028 1.399 . S
C2028 H2014 0.929 . S
C2028 C2027 1.399 . S
C2028 C2029 1.385 . S
C2029 H2015 0.931 . S
C2029 C2028 1.385 . S
C2029 C2030 1.389 . S
C2030 C2029 1.389 . S
C2030 C2031 1.387 . S
C2031 H2016 0.930 . S
C2031 C2026 1.390 . S
C2031 C2030 1.387 . S
H2032 C2044 0.930 . S
H2033 C2046 0.930 . S
H2034 C2047 0.930 . S
H2035 C2051 0.959 . S
H2036 C2051 0.959 . S
H2037 C2051 0.961 . S
H2038 C2052 0.960 . S
H2039 C2052 0.961 . S
H2040 C2052 0.959 . S
H2041 C2055 0.929 1_556 S
H2042 C2056 0.931 . S
H2043 C2058 0.930 . S
C2044 H2032 0.930 . S
C2044 C2045 1.399 . S
C2044 C2049 1.399 . S
C2045 C2044 1.399 . S
C2045 C2046 1.376 . S
C2046 H2033 0.930 . S
C2046 C2045 1.376 . S
C2046 C2047 1.388 . S
C2047 H2034 0.930 . S
C2047 C2046 1.388 . S
C2047 C2048 1.390 . S
C2048 C2047 1.390 . S
C2048 C2049 1.394 . S
C2048 C2054 1.465 . S
C2049 C2044 1.399 . S
C2049 C2048 1.394 . S
C2049 C2050 1.516 . S
C2050 C2049 1.516 . S
C2050 C2051 1.502 . S
C2050 C2052 1.561 . S
C2050 C2053 1.526 . S
C2051 H2035 0.959 . S
C2051 H2036 0.959 . S
C2051 H2037 0.961 . S
C2051 C2050 1.502 . S
C2052 H2038 0.960 . S
C2052 H2039 0.961 . S
C2052 H2040 0.959 . S
C2052 C2050 1.561 . S
C2053 C2050 1.526 . S
C2053 C2054 1.396 . S
C2053 C2058 1.390 . S
C2054 C2048 1.465 . S
C2054 C2053 1.396 . S
C2054 C2055 1.399 . S
C2055 H2041 0.929 1_554 S
C2055 C2054 1.399 . S
C2055 C2056 1.385 1_554 S
C2056 H2042 0.931 . S
C2056 C2055 1.385 1_556 S
C2056 C2057 1.389 1_556 S
C2057 C2056 1.389 1_554 S
C2057 C2058 1.387 . S
C2058 H2043 0.930 . S
C2058 C2053 1.390 . S
C2058 C2057 1.387 . S
H2059 C2071 0.930 . S
H2060 C2073 0.930 . S
H2061 C2074 0.930 . S
H2062 C2078 0.959 . S
H2063 C2078 0.959 . S
H2064 C2078 0.961 . S
H2065 C2079 0.960 . S
H2066 C2079 0.961 . S
H2067 C2079 0.959 . S
H2068 C2082 0.929 . S
H2069 C2083 0.931 . S
H2070 C2085 0.930 . S
C2071 H2059 0.930 . S
C2071 C2072 1.399 . S
C2071 C2076 1.399 . S
C2072 C2071 1.399 . S
C2072 C2073 1.376 . S
C2073 H2060 0.930 . S
C2073 C2072 1.376 . S
C2073 C2074 1.388 . S
C2074 H2061 0.930 . S
C2074 C2073 1.388 . S
C2074 C2075 1.390 . S
C2075 C2074 1.390 . S
C2075 C2076 1.394 . S
C2075 C2081 1.465 . S
C2076 C2071 1.399 . S
C2076 C2075 1.394 . S
C2076 C2077 1.516 . S
C2077 C2076 1.516 . S
C2077 C2078 1.502 . S
C2077 C2079 1.561 . S
C2077 C2080 1.526 . S
C2078 H2062 0.959 . S
C2078 H2063 0.959 . S
C2078 H2064 0.961 . S
C2078 C2077 1.502 . S
C2079 H2065 0.960 . S
C2079 H2066 0.961 . S
C2079 H2067 0.959 . S
C2079 C2077 1.561 . S
C2080 C2077 1.526 . S
C2080 C2081 1.396 . S
C2080 C2085 1.390 . S
C2081 C2075 1.465 . S
C2081 C2080 1.396 . S
C2081 C2082 1.399 . S
C2082 H2068 0.929 . S
C2082 C2081 1.399 . S
C2082 C2083 1.385 . S
C2083 H2069 0.931 . S
C2083 C2082 1.385 . S
C2083 C2084 1.389 . S
C2084 C2083 1.389 . S
C2084 C2085 1.387 . S
C2085 H2070 0.930 . S
C2085 C2080 1.390 . S
C2085 C2084 1.387 . S
H2086 C2098 0.930 . S
H2087 C2100 0.930 . S
H2088 C2101 0.930 . S
H2089 C2105 0.959 . S
H2090 C2105 0.959 . S
H2091 C2105 0.961 . S
H2092 C2106 0.960 . S
H2093 C2106 0.961 . S
H2094 C2106 0.959 . S
H2095 C2109 0.929 . S
H2096 C2110 0.931 . S
H2097 C2112 0.930 . S
C2098 H2086 0.930 . S
C2098 C2099 1.399 . S
C2098 C2103 1.399 . S
C2099 C2098 1.399 . S
C2099 C2100 1.376 . S
C2100 H2087 0.930 . S
C2100 C2099 1.376 . S
C2100 C2101 1.388 . S
C2101 H2088 0.930 . S
C2101 C2100 1.388 . S
C2101 C2102 1.390 . S
C2102 C2101 1.390 . S
C2102 C2103 1.394 . S
C2102 C2108 1.465 . S
C2103 C2098 1.399 . S
C2103 C2102 1.394 . S
C2103 C2104 1.516 . S
C2104 C2103 1.516 . S
C2104 C2105 1.502 . S
C2104 C2106 1.561 . S
C2104 C2107 1.526 . S
C2105 H2089 0.959 . S
C2105 H2090 0.959 . S
C2105 H2091 0.961 . S
C2105 C2104 1.502 . S
C2106 H2092 0.960 . S
C2106 H2093 0.961 . S
C2106 H2094 0.959 . S
C2106 C2104 1.561 . S
C2107 C2104 1.526 . S
C2107 C2108 1.396 . S
C2107 C2112 1.390 . S
C2108 C2102 1.465 . S
C2108 C2107 1.396 . S
C2108 C2109 1.399 . S
C2109 H2095 0.929 . S
C2109 C2108 1.399 . S
C2109 C2110 1.385 . S
C2110 H2096 0.931 . S
C2110 C2109 1.385 . S
C2110 C2111 1.389 . S
C2111 C2110 1.389 . S
C2111 C2112 1.387 . S
C2112 H2097 0.930 . S
C2112 C2107 1.390 . S
C2112 C2111 1.387 . S
H2113 C2125 0.930 . S
H2114 C2127 0.930 . S
H2115 C2128 0.930 . S
H2116 C2132 0.959 . S
H2117 C2132 0.959 . S
H2118 C2132 0.961 . S
H2119 C2133 0.960 . S
H2120 C2133 0.961 . S
H2121 C2133 0.959 . S
H2122 C2136 0.929 . S
H2123 C2137 0.931 . S
H2124 C2139 0.930 . S
C2125 H2113 0.930 . S
C2125 C2126 1.399 . S
C2125 C2130 1.399 . S
C2126 C2125 1.399 . S
C2126 C2127 1.376 . S
C2127 H2114 0.930 . S
C2127 C2126 1.376 . S
C2127 C2128 1.388 . S
C2128 H2115 0.930 . S
C2128 C2127 1.388 . S
C2128 C2129 1.390 . S
C2129 C2128 1.390 . S
C2129 C2130 1.394 . S
C2129 C2135 1.465 . S
C2130 C2125 1.399 . S
C2130 C2129 1.394 . S
C2130 C2131 1.516 . S
C2131 C2130 1.516 . S
C2131 C2132 1.502 . S
C2131 C2133 1.561 . S
C2131 C2134 1.526 . S
C2132 H2116 0.959 . S
C2132 H2117 0.959 . S
C2132 H2118 0.961 . S
C2132 C2131 1.502 . S
C2133 H2119 0.960 . S
C2133 H2120 0.961 . S
C2133 H2121 0.959 . S
C2133 C2131 1.561 . S
C2134 C2131 1.526 . S
C2134 C2135 1.396 . S
C2134 C2139 1.390 . S
C2135 C2129 1.465 . S
C2135 C2134 1.396 . S
C2135 C2136 1.399 . S
C2136 H2122 0.929 . S
C2136 C2135 1.399 . S
C2136 C2137 1.385 . S
C2137 H2123 0.931 . S
C2137 C2136 1.385 . S
C2137 C2138 1.389 . S
C2138 C2137 1.389 . S
C2138 C2139 1.387 . S
C2139 H2124 0.930 . S
C2139 C2134 1.390 . S
C2139 C2138 1.387 . S
H2140 C2152 0.930 . S
H2141 C2154 0.930 . S
H2142 C2155 0.930 . S
H2143 C2159 0.959 . S
H2144 C2159 0.959 . S
H2145 C2159 0.961 . S
H2146 C2160 0.960 . S
H2147 C2160 0.961 . S
H2148 C2160 0.959 . S
H2149 C2163 0.929 . S
H2150 C2164 0.931 . S
H2151 C2166 0.930 . S
C2152 H2140 0.930 . S
C2152 C2153 1.399 . S
C2152 C2157 1.399 . S
C2153 C2152 1.399 . S
C2153 C2154 1.376 . S
C2154 H2141 0.930 . S
C2154 C2153 1.376 . S
C2154 C2155 1.388 . S
C2155 H2142 0.930 . S
C2155 C2154 1.388 . S
C2155 C2156 1.390 . S
C2156 C2155 1.390 . S
C2156 C2157 1.394 . S
C2156 C2162 1.465 . S
C2157 C2152 1.399 . S
C2157 C2156 1.394 . S
C2157 C2158 1.516 . S
C2158 C2157 1.516 . S
C2158 C2159 1.502 . S
C2158 C2160 1.561 . S
C2158 C2161 1.526 . S
C2159 H2143 0.959 . S
C2159 H2144 0.959 . S
C2159 H2145 0.961 . S
C2159 C2158 1.502 . S
C2160 H2146 0.960 . S
C2160 H2147 0.961 . S
C2160 H2148 0.959 . S
C2160 C2158 1.561 . S
C2161 C2158 1.526 . S
C2161 C2162 1.396 . S
C2161 C2166 1.390 . S
C2162 C2156 1.465 . S
C2162 C2161 1.396 . S
C2162 C2163 1.399 . S
C2163 H2149 0.929 . S
C2163 C2162 1.399 . S
C2163 C2164 1.385 . S
C2164 H2150 0.931 . S
C2164 C2163 1.385 . S
C2164 C2165 1.389 . S
C2165 C2164 1.389 . S
C2165 C2166 1.387 . S
C2166 H2151 0.930 . S
C2166 C2161 1.390 . S
C2166 C2165 1.387 . S
H2167 C2179 0.930 . S
H2168 C2181 0.930 . S
H2169 C2182 0.930 . S
H2170 C2186 0.959 . S
H2171 C2186 0.959 . S
H2172 C2186 0.961 . S
H2173 C2187 0.960 . S
H2174 C2187 0.961 . S
H2175 C2187 0.959 . S
H2176 C2190 0.929 . S
H2177 C2191 0.931 . S
H2178 C2193 0.930 . S
C2179 H2167 0.930 . S
C2179 C2180 1.399 . S
C2179 C2184 1.399 . S
C2180 C2179 1.399 . S
C2180 C2181 1.376 . S
C2181 H2168 0.930 . S
C2181 C2180 1.376 . S
C2181 C2182 1.388 . S
C2182 H2169 0.930 . S
C2182 C2181 1.388 . S
C2182 C2183 1.390 . S
C2183 C2182 1.390 . S
C2183 C2184 1.394 . S
C2183 C2189 1.465 . S
C2184 C2179 1.399 . S
C2184 C2183 1.394 . S
C2184 C2185 1.516 . S
C2185 C2184 1.516 . S
C2185 C2186 1.502 . S
C2185 C2187 1.561 . S
C2185 C2188 1.526 . S
C2186 H2170 0.959 . S
C2186 H2171 0.959 . S
C2186 H2172 0.961 . S
C2186 C2185 1.502 . S
C2187 H2173 0.960 . S
C2187 H2174 0.961 . S
C2187 H2175 0.959 . S
C2187 C2185 1.561 . S
C2188 C2185 1.526 . S
C2188 C2189 1.396 . S
C2188 C2193 1.390 . S
C2189 C2183 1.465 . S
C2189 C2188 1.396 . S
C2189 C2190 1.399 . S
C2190 H2176 0.929 . S
C2190 C2189 1.399 . S
C2190 C2191 1.385 . S
C2191 H2177 0.931 . S
C2191 C2190 1.385 . S
C2191 C2192 1.389 . S
C2192 C2191 1.389 . S
C2192 C2193 1.387 . S
C2193 H2178 0.930 . S
C2193 C2188 1.390 . S
C2193 C2192 1.387 . S
H2194 C2206 0.930 . S
H2195 C2208 0.930 . S
H2196 C2209 0.930 . S
H2197 C2213 0.959 . S
H2198 C2213 0.959 . S
H2199 C2213 0.961 . S
H2200 C2214 0.960 . S
H2201 C2214 0.961 . S
H2202 C2214 0.959 . S
H2203 C2217 0.929 . S
H2204 C2218 0.931 . S
H2205 C2220 0.930 . S
C2206 H2194 0.930 . S
C2206 C2207 1.399 . S
C2206 C2211 1.399 . S
C2207 C2206 1.399 . S
C2207 C2208 1.376 . S
C2208 H2195 0.930 . S
C2208 C2207 1.376 . S
C2208 C2209 1.388 . S
C2209 H2196 0.930 . S
C2209 C2208 1.388 . S
C2209 C2210 1.390 . S
C2210 C2209 1.390 . S
C2210 C2211 1.394 . S
C2210 C2216 1.465 . S
C2211 C2206 1.399 . S
C2211 C2210 1.394 . S
C2211 C2212 1.516 . S
C2212 C2211 1.516 . S
C2212 C2213 1.502 . S
C2212 C2214 1.561 . S
C2212 C2215 1.526 . S
C2213 H2197 0.959 . S
C2213 H2198 0.959 . S
C2213 H2199 0.961 . S
C2213 C2212 1.502 . S
C2214 H2200 0.960 . S
C2214 H2201 0.961 . S
C2214 H2202 0.959 . S
C2214 C2212 1.561 . S
C2215 C2212 1.526 . S
C2215 C2216 1.396 . S
C2215 C2220 1.390 . S
C2216 C2210 1.465 . S
C2216 C2215 1.396 . S
C2216 C2217 1.399 . S
C2217 H2203 0.929 . S
C2217 C2216 1.399 . S
C2217 C2218 1.385 . S
C2218 H2204 0.931 . S
C2218 C2217 1.385 . S
C2218 C2219 1.389 . S
C2219 C2218 1.389 . S
C2219 C2220 1.387 . S
C2220 H2205 0.930 . S
C2220 C2215 1.390 . S
C2220 C2219 1.387 . S
H2221 C2233 0.930 . S
H2222 C2235 0.930 . S
H2223 C2236 0.930 . S
H2224 C2240 0.959 . S
H2225 C2240 0.959 . S
H2226 C2240 0.961 . S
H2227 C2241 0.960 . S
H2228 C2241 0.961 . S
H2229 C2241 0.959 . S
H2230 C2244 0.929 . S
H2231 C2245 0.931 . S
H2232 C2247 0.930 . S
C2233 H2221 0.930 . S
C2233 C2234 1.399 . S
C2233 C2238 1.399 . S
C2234 C2233 1.399 . S
C2234 C2235 1.376 . S
C2235 H2222 0.930 . S
C2235 C2234 1.376 . S
C2235 C2236 1.388 . S
C2236 H2223 0.930 . S
C2236 C2235 1.388 . S
C2236 C2237 1.390 . S
C2237 C2236 1.390 . S
C2237 C2238 1.394 . S
C2237 C2243 1.465 . S
C2238 C2233 1.399 . S
C2238 C2237 1.394 . S
C2238 C2239 1.516 . S
C2239 C2238 1.516 . S
C2239 C2240 1.502 . S
C2239 C2241 1.561 . S
C2239 C2242 1.526 . S
C2240 H2224 0.959 . S
C2240 H2225 0.959 . S
C2240 H2226 0.961 . S
C2240 C2239 1.502 . S
C2241 H2227 0.960 . S
C2241 H2228 0.961 . S
C2241 H2229 0.959 . S
C2241 C2239 1.561 . S
C2242 C2239 1.526 . S
C2242 C2243 1.396 . S
C2242 C2247 1.390 . S
C2243 C2237 1.465 . S
C2243 C2242 1.396 . S
C2243 C2244 1.399 . S
C2244 H2230 0.929 . S
C2244 C2243 1.399 . S
C2244 C2245 1.385 . S
C2245 H2231 0.931 . S
C2245 C2244 1.385 . S
C2245 C2246 1.389 . S
C2246 C2245 1.389 . S
C2246 C2247 1.387 . S
C2247 H2232 0.930 . S
C2247 C2242 1.390 . S
C2247 C2246 1.387 . S
H2248 C2260 0.930 . S
H2249 C2262 0.930 . S
H2250 C2263 0.930 . S
H2251 C2267 0.959 . S
H2252 C2267 0.959 . S
H2253 C2267 0.961 . S
H2254 C2268 0.960 . S
H2255 C2268 0.961 . S
H2256 C2268 0.959 . S
H2257 C2271 0.929 . S
H2258 C2272 0.931 . S
H2259 C2274 0.930 . S
C2260 H2248 0.930 . S
C2260 C2261 1.399 . S
C2260 C2265 1.399 . S
C2261 C2260 1.399 . S
C2261 C2262 1.376 . S
C2262 H2249 0.930 . S
C2262 C2261 1.376 . S
C2262 C2263 1.388 . S
C2263 H2250 0.930 . S
C2263 C2262 1.388 . S
C2263 C2264 1.390 . S
C2264 C2263 1.390 . S
C2264 C2265 1.394 . S
C2264 C2270 1.465 . S
C2265 C2260 1.399 . S
C2265 C2264 1.394 . S
C2265 C2266 1.516 . S
C2266 C2265 1.516 . S
C2266 C2267 1.502 . S
C2266 C2268 1.561 . S
C2266 C2269 1.526 . S
C2267 H2251 0.959 . S
C2267 H2252 0.959 . S
C2267 H2253 0.961 . S
C2267 C2266 1.502 . S
C2268 H2254 0.960 . S
C2268 H2255 0.961 . S
C2268 H2256 0.959 . S
C2268 C2266 1.561 . S
C2269 C2266 1.526 . S
C2269 C2270 1.396 . S
C2269 C2274 1.390 . S
C2270 C2264 1.465 . S
C2270 C2269 1.396 . S
C2270 C2271 1.399 . S
C2271 H2257 0.929 . S
C2271 C2270 1.399 . S
C2271 C2272 1.385 . S
C2272 H2258 0.931 . S
C2272 C2271 1.385 . S
C2272 C2273 1.389 . S
C2273 C2272 1.389 . S
C2273 C2274 1.387 . S
C2274 H2259 0.930 . S
C2274 C2269 1.390 . S
C2274 C2273 1.387 . S
H2275 C2287 0.930 . S
H2276 C2289 0.930 . S
H2277 C2290 0.930 . S
H2278 C2294 0.959 . S
H2279 C2294 0.959 . S
H2280 C2294 0.961 . S
H2281 C2295 0.960 . S
H2282 C2295 0.961 . S
H2283 C2295 0.959 . S
H2284 C2298 0.929 . S
H2285 C2299 0.931 . S
H2286 C2301 0.930 . S
C2287 H2275 0.930 . S
C2287 C2288 1.399 . S
C2287 C2292 1.399 . S
C2288 C2287 1.399 . S
C2288 C2289 1.376 . S
C2289 H2276 0.930 . S
C2289 C2288 1.376 . S
C2289 C2290 1.388 . S
C2290 H2277 0.930 . S
C2290 C2289 1.388 . S
C2290 C2291 1.390 . S
C2291 C2290 1.390 . S
C2291 C2292 1.394 . S
C2291 C2297 1.465 . S
C2292 C2287 1.399 . S
C2292 C2291 1.394 . S
C2292 C2293 1.516 . S
C2293 C2292 1.516 . S
C2293 C2294 1.502 . S
C2293 C2295 1.561 . S
C2293 C2296 1.526 . S
C2294 H2278 0.959 . S
C2294 H2279 0.959 . S
C2294 H2280 0.961 . S
C2294 C2293 1.502 . S
C2295 H2281 0.960 . S
C2295 H2282 0.961 . S
C2295 H2283 0.959 . S
C2295 C2293 1.561 . S
C2296 C2293 1.526 . S
C2296 C2297 1.396 . S
C2296 C2301 1.390 . S
C2297 C2291 1.465 . S
C2297 C2296 1.396 . S
C2297 C2298 1.399 . S
C2298 H2284 0.929 . S
C2298 C2297 1.399 . S
C2298 C2299 1.385 . S
C2299 H2285 0.931 . S
C2299 C2298 1.385 . S
C2299 C2300 1.389 . S
C2300 C2299 1.389 . S
C2300 C2301 1.387 . S
C2301 H2286 0.930 . S
C2301 C2296 1.390 . S
C2301 C2300 1.387 . S
H2302 C2314 0.930 . S
H2303 C2316 0.930 . S
H2304 C2317 0.930 . S
H2305 C2321 0.959 . S
H2306 C2321 0.959 . S
H2307 C2321 0.961 . S
H2308 C2322 0.960 . S
H2309 C2322 0.961 . S
H2310 C2322 0.959 . S
H2311 C2325 0.929 . S
H2312 C2326 0.939 . S
H2313 C2328 0.930 . S
C2314 H2302 0.930 . S
C2314 C2315 1.399 1_554 S
C2314 C2319 1.399 . S
C2315 C2314 1.399 1_556 S
C2315 C2316 1.376 . S
C2316 H2303 0.930 . S
C2316 C2315 1.376 . S
C2316 C2317 1.388 . S
C2317 H2304 0.930 . S
C2317 C2316 1.388 . S
C2317 C2318 1.390 . S
C2318 C2317 1.390 . S
C2318 C2319 1.394 1_556 S
C2318 C2324 1.463 1_556 S
C2319 C2314 1.399 . S
C2319 C2318 1.394 1_554 S
C2319 C2320 1.516 . S
C2320 C2319 1.516 . S
C2320 C2321 1.502 1_455 S
C2320 C2322 1.561 . S
C2320 C2323 1.526 . S
C2321 H2305 0.959 . S
C2321 H2306 0.959 . S
C2321 H2307 0.961 . S
C2321 C2320 1.502 1_655 S
C2322 H2308 0.960 . S
C2322 H2309 0.961 . S
C2322 H2310 0.959 . S
C2322 C2320 1.561 . S
C2323 C2320 1.526 . S
C2323 C2324 1.421 . S
C2323 C2328 1.390 . S
C2324 C2318 1.463 1_554 S
C2324 C2323 1.421 . S
C2324 C2325 1.382 1_554 S
C2325 H2311 0.929 . S
C2325 C2324 1.382 1_556 S
C2325 C2326 1.389 . S
C2326 H2312 0.939 . S
C2326 C2325 1.389 . S
C2326 C2327 1.378 1_556 S
C2327 C2326 1.378 1_554 S
C2327 C2328 1.387 . S
C2328 H2313 0.930 . S
C2328 C2323 1.390 . S
C2328 C2327 1.387 . S
H2329 C2341 0.930 . S
H2330 C2343 0.930 1_455 S
H2331 C2344 0.930 . S
H2332 C2348 0.959 . S
H2333 C2348 0.959 . S
H2334 C2348 0.961 . S
H2335 C2349 0.960 . S
H2336 C2349 0.961 . S
H2337 C2349 0.959 . S
H2338 C2352 0.929 . S
H2339 C2353 0.931 . S
H2340 C2355 0.930 . S
C2341 H2329 0.930 . S
C2341 C2342 1.399 . S
C2341 C2346 1.399 . S
C2342 C2341 1.399 . S
C2342 C2343 1.376 . S
C2343 H2330 0.930 1_655 S
C2343 C2342 1.376 . S
C2343 C2344 1.388 . S
C2344 H2331 0.930 . S
C2344 C2343 1.388 . S
C2344 C2345 1.390 . S
C2345 C2344 1.390 . S
C2345 C2346 1.394 . S
C2345 C2351 1.465 . S
C2346 C2341 1.399 . S
C2346 C2345 1.394 . S
C2346 C2347 1.516 . S
C2347 C2346 1.516 . S
C2347 C2348 1.502 . S
C2347 C2349 1.561 . S
C2347 C2350 1.526 . S
C2348 H2332 0.959 . S
C2348 H2333 0.959 . S
C2348 H2334 0.961 . S
C2348 C2347 1.502 . S
C2349 H2335 0.960 . S
C2349 H2336 0.961 . S
C2349 H2337 0.959 . S
C2349 C2347 1.561 . S
C2350 C2347 1.526 . S
C2350 C2351 1.396 . S
C2350 C2355 1.390 . S
C2351 C2345 1.465 . S
C2351 C2350 1.396 . S
C2351 C2352 1.399 . S
C2352 H2338 0.929 . S
C2352 C2351 1.399 . S
C2352 C2353 1.385 . S
C2353 H2339 0.931 . S
C2353 C2352 1.385 . S
C2353 C2354 1.389 . S
C2354 C2353 1.389 . S
C2354 C2355 1.387 . S
C2355 H2340 0.930 . S
C2355 C2350 1.390 . S
C2355 C2354 1.387 . S
H2356 C2368 0.930 . S
H2357 C2370 0.930 . S
H2358 C2371 0.930 . S
H2359 C2375 0.959 . S
H2360 C2375 0.959 . S
H2361 C2375 0.961 . S
H2362 C2376 0.960 . S
H2363 C2376 0.961 . S
H2364 C2376 0.959 . S
H2365 C2379 0.929 . S
H2366 C2380 0.931 . S
H2367 C2382 0.930 . S
C2368 H2356 0.930 . S
C2368 C2369 1.399 . S
C2368 C2373 1.399 . S
C2369 C2368 1.399 . S
C2369 C2370 1.376 . S
C2370 H2357 0.930 . S
C2370 C2369 1.376 . S
C2370 C2371 1.388 . S
C2371 H2358 0.930 . S
C2371 C2370 1.388 . S
C2371 C2372 1.390 . S
C2372 C2371 1.390 . S
C2372 C2373 1.394 . S
C2372 C2378 1.465 . S
C2373 C2368 1.399 . S
C2373 C2372 1.394 . S
C2373 C2374 1.516 . S
C2374 C2373 1.516 . S
C2374 C2375 1.502 . S
C2374 C2376 1.561 . S
C2374 C2377 1.526 . S
C2375 H2359 0.959 . S
C2375 H2360 0.959 . S
C2375 H2361 0.961 . S
C2375 C2374 1.502 . S
C2376 H2362 0.960 . S
C2376 H2363 0.961 . S
C2376 H2364 0.959 . S
C2376 C2374 1.561 . S
C2377 C2374 1.526 . S
C2377 C2378 1.396 . S
C2377 C2382 1.390 . S
C2378 C2372 1.465 . S
C2378 C2377 1.396 . S
C2378 C2379 1.399 . S
C2379 H2365 0.929 . S
C2379 C2378 1.399 . S
C2379 C2380 1.385 . S
C2380 H2366 0.931 . S
C2380 C2379 1.385 . S
C2380 C2381 1.389 . S
C2381 C2380 1.389 . S
C2381 C2382 1.387 . S
C2382 H2367 0.930 . S
C2382 C2377 1.390 . S
C2382 C2381 1.387 . S
H2383 C2395 0.930 . S
H2384 C2397 0.930 . S
H2385 C2398 0.930 . S
H2386 C2402 0.959 . S
H2387 C2402 0.959 . S
H2388 C2402 0.961 . S
H2389 C2403 0.960 . S
H2390 C2403 0.961 . S
H2391 C2403 0.959 . S
H2392 C2406 0.929 . S
H2393 C2407 0.931 . S
H2394 C2409 0.930 . S
C2395 H2383 0.930 . S
C2395 C2396 1.399 . S
C2395 C2400 1.399 . S
C2396 C2395 1.399 . S
C2396 C2397 1.376 . S
C2397 H2384 0.930 . S
C2397 C2396 1.376 . S
C2397 C2398 1.388 . S
C2398 H2385 0.930 . S
C2398 C2397 1.388 . S
C2398 C2399 1.390 . S
C2399 C2398 1.390 . S
C2399 C2400 1.394 . S
C2399 C2405 1.465 . S
C2400 C2395 1.399 . S
C2400 C2399 1.394 . S
C2400 C2401 1.516 . S
C2401 C2400 1.516 . S
C2401 C2402 1.502 . S
C2401 C2403 1.561 . S
C2401 C2404 1.526 . S
C2402 H2386 0.959 . S
C2402 H2387 0.959 . S
C2402 H2388 0.961 . S
C2402 C2401 1.502 . S
C2403 H2389 0.960 . S
C2403 H2390 0.961 . S
C2403 H2391 0.959 . S
C2403 C2401 1.561 . S
C2404 C2401 1.526 . S
C2404 C2405 1.396 . S
C2404 C2409 1.390 . S
C2405 C2399 1.465 . S
C2405 C2404 1.396 . S
C2405 C2406 1.399 . S
C2406 H2392 0.929 . S
C2406 C2405 1.399 . S
C2406 C2407 1.385 . S
C2407 H2393 0.931 . S
C2407 C2406 1.385 . S
C2407 C2408 1.389 . S
C2408 C2407 1.389 . S
C2408 C2409 1.387 . S
C2409 H2394 0.930 . S
C2409 C2404 1.390 . S
C2409 C2408 1.387 . S
H2410 C2422 0.930 . S
H2411 C2424 0.930 . S
H2412 C2425 0.930 . S
H2413 C2429 0.959 . S
H2414 C2429 0.959 . S
H2415 C2429 0.961 . S
H2416 C2430 0.960 . S
H2417 C2430 0.961 . S
H2418 C2430 0.959 . S
H2419 C2433 0.929 . S
H2420 C2434 0.931 . S
H2421 C2436 0.930 . S
C2422 H2410 0.930 . S
C2422 C2423 1.399 . S
C2422 C2427 1.399 . S
C2423 C2422 1.399 . S
C2423 C2424 1.376 . S
C2424 H2411 0.930 . S
C2424 C2423 1.376 . S
C2424 C2425 1.388 . S
C2425 H2412 0.930 . S
C2425 C2424 1.388 . S
C2425 C2426 1.390 . S
C2426 C2425 1.390 . S
C2426 C2427 1.394 . S
C2426 C2432 1.465 . S
C2427 C2422 1.399 . S
C2427 C2426 1.394 . S
C2427 C2428 1.516 . S
C2428 C2427 1.516 . S
C2428 C2429 1.502 . S
C2428 C2430 1.561 . S
C2428 C2431 1.526 . S
C2429 H2413 0.959 . S
C2429 H2414 0.959 . S
C2429 H2415 0.961 . S
C2429 C2428 1.502 . S
C2430 H2416 0.960 . S
C2430 H2417 0.961 . S
C2430 H2418 0.959 . S
C2430 C2428 1.561 . S
C2431 C2428 1.526 . S
C2431 C2432 1.396 . S
C2431 C2436 1.390 . S
C2432 C2426 1.465 . S
C2432 C2431 1.396 . S
C2432 C2433 1.399 . S
C2433 H2419 0.929 . S
C2433 C2432 1.399 . S
C2433 C2434 1.385 . S
C2434 H2420 0.931 . S
C2434 C2433 1.385 . S
C2434 C2435 1.389 . S
C2435 C2434 1.389 . S
C2435 C2436 1.387 . S
C2436 H2421 0.930 . S
C2436 C2431 1.390 . S
C2436 C2435 1.387 . S
H2437 C2449 0.930 . S
H2438 C2451 0.930 . S
H2439 C2452 0.930 . S
H2440 C2456 0.959 . S
H2441 C2456 0.959 . S
H2442 C2456 0.961 . S
H2443 C2457 0.960 . S
H2444 C2457 0.961 . S
H2445 C2457 0.959 . S
H2446 C2460 0.929 . S
H2447 C2461 0.931 . S
H2448 C2463 0.930 . S
C2449 H2437 0.930 . S
C2449 C2450 1.399 . S
C2449 C2454 1.399 . S
C2450 C2449 1.399 . S
C2450 C2451 1.376 . S
C2451 H2438 0.930 . S
C2451 C2450 1.376 . S
C2451 C2452 1.388 . S
C2452 H2439 0.930 . S
C2452 C2451 1.388 . S
C2452 C2453 1.390 . S
C2453 C2452 1.390 . S
C2453 C2454 1.394 . S
C2453 C2459 1.465 . S
C2454 C2449 1.399 . S
C2454 C2453 1.394 . S
C2454 C2455 1.516 . S
C2455 C2454 1.516 . S
C2455 C2456 1.502 . S
C2455 C2457 1.561 . S
C2455 C2458 1.526 . S
C2456 H2440 0.959 . S
C2456 H2441 0.959 . S
C2456 H2442 0.961 . S
C2456 C2455 1.502 . S
C2457 H2443 0.960 . S
C2457 H2444 0.961 . S
C2457 H2445 0.959 . S
C2457 C2455 1.561 . S
C2458 C2455 1.526 . S
C2458 C2459 1.396 . S
C2458 C2463 1.390 . S
C2459 C2453 1.465 . S
C2459 C2458 1.396 . S
C2459 C2460 1.399 . S
C2460 H2446 0.929 . S
C2460 C2459 1.399 . S
C2460 C2461 1.385 . S
C2461 H2447 0.931 . S
C2461 C2460 1.385 . S
C2461 C2462 1.389 . S
C2462 C2461 1.389 . S
C2462 C2463 1.387 . S
C2463 H2448 0.930 . S
C2463 C2458 1.390 . S
C2463 C2462 1.387 . S
H2464 C2476 0.930 . S
H2465 C2478 0.930 . S
H2466 C2479 0.930 . S
H2467 C2483 0.959 . S
H2468 C2483 0.959 . S
H2469 C2483 0.961 . S
H2470 C2484 0.960 . S
H2471 C2484 0.961 . S
H2472 C2484 0.959 . S
H2473 C2487 0.929 . S
H2474 C2488 0.931 . S
H2475 C2490 0.930 . S
C2476 H2464 0.930 . S
C2476 C2477 1.399 . S
C2476 C2481 1.399 . S
C2477 C2476 1.399 . S
C2477 C2478 1.376 . S
C2478 H2465 0.930 . S
C2478 C2477 1.376 . S
C2478 C2479 1.388 . S
C2479 H2466 0.930 . S
C2479 C2478 1.388 . S
C2479 C2480 1.390 . S
C2480 C2479 1.390 . S
C2480 C2481 1.394 . S
C2480 C2486 1.465 . S
C2481 C2476 1.399 . S
C2481 C2480 1.394 . S
C2481 C2482 1.516 . S
C2482 C2481 1.516 . S
C2482 C2483 1.502 . S
C2482 C2484 1.561 . S
C2482 C2485 1.526 . S
C2483 H2467 0.959 . S
C2483 H2468 0.959 . S
C2483 H2469 0.961 . S
C2483 C2482 1.502 . S
C2484 H2470 0.960 . S
C2484 H2471 0.961 . S
C2484 H2472 0.959 . S
C2484 C2482 1.561 . S
C2485 C2482 1.526 . S
C2485 C2486 1.396 . S
C2485 C2490 1.390 . S
C2486 C2480 1.465 . S
C2486 C2485 1.396 . S
C2486 C2487 1.399 . S
C2487 H2473 0.929 . S
C2487 C2486 1.399 . S
C2487 C2488 1.385 . S
C2488 H2474 0.931 . S
C2488 C2487 1.385 . S
C2488 C2489 1.389 . S
C2489 C2488 1.389 . S
C2489 C2490 1.387 . S
C2490 H2475 0.930 . S
C2490 C2485 1.390 . S
C2490 C2489 1.387 . S
H2491 C2503 0.930 . S
H2492 C2505 0.930 . S
H2493 C2506 0.930 . S
H2494 C2510 0.959 . S
H2495 C2510 0.959 . S
H2496 C2510 0.961 . S
H2497 C2511 0.960 1_554 S
H2498 C2511 0.961 . S
H2499 C2511 0.959 1_554 S
H2500 C2514 0.929 . S
H2501 C2515 0.931 . S
H2502 C2517 0.930 . S
C2503 H2491 0.930 . S
C2503 C2504 1.399 . S
C2503 C2508 1.399 . S
C2504 C2503 1.399 . S
C2504 C2505 1.376 . S
C2505 H2492 0.930 . S
C2505 C2504 1.376 . S
C2505 C2506 1.388 . S
C2506 H2493 0.930 . S
C2506 C2505 1.388 . S
C2506 C2507 1.390 . S
C2507 C2506 1.390 . S
C2507 C2508 1.394 . S
C2507 C2513 1.465 1_554 S
C2508 C2503 1.399 . S
C2508 C2507 1.394 . S
C2508 C2509 1.516 1_554 S
C2509 C2508 1.516 1_556 S
C2509 C2510 1.502 . S
C2509 C2511 1.561 . S
C2509 C2512 1.526 . S
C2510 H2494 0.959 . S
C2510 H2495 0.959 . S
C2510 H2496 0.961 . S
C2510 C2509 1.502 . S
C2511 H2497 0.960 1_556 S
C2511 H2498 0.961 . S
C2511 H2499 0.959 1_556 S
C2511 C2509 1.561 . S
C2512 C2509 1.526 . S
C2512 C2513 1.396 . S
C2512 C2517 1.390 . S
C2513 C2507 1.465 1_556 S
C2513 C2512 1.396 . S
C2513 C2514 1.399 . S
C2514 H2500 0.929 . S
C2514 C2513 1.399 . S
C2514 C2515 1.385 . S
C2515 H2501 0.931 . S
C2515 C2514 1.385 . S
C2515 C2516 1.389 . S
C2516 C2515 1.389 . S
C2516 C2517 1.387 . S
C2517 H2502 0.930 . S
C2517 C2512 1.390 . S
C2517 C2516 1.387 . S
H2518 C2530 0.930 . S
H2519 C2532 0.930 . S
H2520 C2533 0.930 . S
H2521 C2537 0.959 . S
H2522 C2537 0.959 . S
H2523 C2537 0.961 . S
H2524 C2538 0.960 . S
H2525 C2538 0.961 . S
H2526 C2538 0.959 . S
H2527 C2541 0.929 . S
H2528 C2542 0.931 . S
H2529 C2544 0.930 . S
C2530 H2518 0.930 . S
C2530 C2531 1.399 . S
C2530 C2535 1.399 . S
C2531 C2530 1.399 . S
C2531 C2532 1.376 . S
C2532 H2519 0.930 . S
C2532 C2531 1.376 . S
C2532 C2533 1.388 . S
C2533 H2520 0.930 . S
C2533 C2532 1.388 . S
C2533 C2534 1.390 . S
C2534 C2533 1.390 . S
C2534 C2535 1.394 . S
C2534 C2540 1.465 . S
C2535 C2530 1.399 . S
C2535 C2534 1.394 . S
C2535 C2536 1.516 . S
C2536 C2535 1.516 . S
C2536 C2537 1.502 . S
C2536 C2538 1.561 . S
C2536 C2539 1.526 . S
C2537 H2521 0.959 . S
C2537 H2522 0.959 . S
C2537 H2523 0.961 . S
C2537 C2536 1.502 . S
C2538 H2524 0.960 . S
C2538 H2525 0.961 . S
C2538 H2526 0.959 . S
C2538 C2536 1.561 . S
C2539 C2536 1.526 . S
C2539 C2540 1.396 . S
C2539 C2544 1.390 . S
C2540 C2534 1.465 . S
C2540 C2539 1.396 . S
C2540 C2541 1.399 . S
C2541 H2527 0.929 . S
C2541 C2540 1.399 . S
C2541 C2542 1.385 . S
C2542 H2528 0.931 . S
C2542 C2541 1.385 . S
C2542 C2543 1.389 . S
C2543 C2542 1.389 . S
C2543 C2544 1.387 . S
C2544 H2529 0.930 . S
C2544 C2539 1.390 . S
C2544 C2543 1.387 . S
H2545 C2557 0.930 . S
H2546 C2559 0.930 . S
H2547 C2560 0.930 . S
H2548 C2564 0.959 . S
H2549 C2564 0.959 . S
H2550 C2564 0.961 . S
H2551 C2565 0.960 . S
H2552 C2565 0.961 . S
H2553 C2565 0.959 . S
H2554 C2568 0.929 . S
H2555 C2569 0.931 . S
H2556 C2571 0.930 . S
C2557 H2545 0.930 . S
C2557 C2558 1.399 . S
C2557 C2562 1.399 . S
C2558 C2557 1.399 . S
C2558 C2559 1.376 . S
C2559 H2546 0.930 . S
C2559 C2558 1.376 . S
C2559 C2560 1.388 . S
C2560 H2547 0.930 . S
C2560 C2559 1.388 . S
C2560 C2561 1.390 . S
C2561 C2560 1.390 . S
C2561 C2562 1.394 . S
C2561 C2567 1.465 . S
C2562 C2557 1.399 . S
C2562 C2561 1.394 . S
C2562 C2563 1.516 . S
C2563 C2562 1.516 . S
C2563 C2564 1.502 . S
C2563 C2565 1.561 . S
C2563 C2566 1.526 . S
C2564 H2548 0.959 . S
C2564 H2549 0.959 . S
C2564 H2550 0.961 . S
C2564 C2563 1.502 . S
C2565 H2551 0.960 . S
C2565 H2552 0.961 . S
C2565 H2553 0.959 . S
C2565 C2563 1.561 . S
C2566 C2563 1.526 . S
C2566 C2567 1.396 . S
C2566 C2571 1.390 . S
C2567 C2561 1.465 . S
C2567 C2566 1.396 . S
C2567 C2568 1.399 . S
C2568 H2554 0.929 . S
C2568 C2567 1.399 . S
C2568 C2569 1.385 . S
C2569 H2555 0.931 . S
C2569 C2568 1.385 . S
C2569 C2570 1.389 . S
C2570 C2569 1.389 . S
C2570 C2571 1.387 . S
C2571 H2556 0.930 . S
C2571 C2566 1.390 . S
C2571 C2570 1.387 . S
H2572 C2584 0.930 . S
H2573 C2586 0.930 . S
H2574 C2587 0.930 . S
H2575 C2591 0.959 . S
H2576 C2591 0.959 . S
H2577 C2591 0.961 . S
H2578 C2592 0.960 . S
H2579 C2592 0.961 . S
H2580 C2592 0.959 . S
H2581 C2595 0.929 . S
H2582 C2596 0.931 . S
H2583 C2598 0.930 . S
C2584 H2572 0.930 . S
C2584 C2585 1.399 . S
C2584 C2589 1.399 . S
C2585 C2584 1.399 . S
C2585 C2586 1.376 . S
C2586 H2573 0.930 . S
C2586 C2585 1.376 . S
C2586 C2587 1.388 . S
C2587 H2574 0.930 . S
C2587 C2586 1.388 . S
C2587 C2588 1.390 . S
C2588 C2587 1.390 . S
C2588 C2589 1.394 . S
C2588 C2594 1.465 . S
C2589 C2584 1.399 . S
C2589 C2588 1.394 . S
C2589 C2590 1.516 . S
C2590 C2589 1.516 . S
C2590 C2591 1.502 . S
C2590 C2592 1.561 . S
C2590 C2593 1.526 . S
C2591 H2575 0.959 . S
C2591 H2576 0.959 . S
C2591 H2577 0.961 . S
C2591 C2590 1.502 . S
C2592 H2578 0.960 . S
C2592 H2579 0.961 . S
C2592 H2580 0.959 . S
C2592 C2590 1.561 . S
C2593 C2590 1.526 . S
C2593 C2594 1.396 . S
C2593 C2598 1.390 . S
C2594 C2588 1.465 . S
C2594 C2593 1.396 . S
C2594 C2595 1.399 . S
C2595 H2581 0.929 . S
C2595 C2594 1.399 . S
C2595 C2596 1.385 . S
C2596 H2582 0.931 . S
C2596 C2595 1.385 . S
C2596 C2597 1.389 . S
C2597 C2596 1.389 . S
C2597 C2598 1.387 . S
C2598 H2583 0.930 . S
C2598 C2593 1.390 . S
C2598 C2597 1.387 . S
H2599 C2611 0.930 . S
H2600 C2613 0.930 . S
H2601 C2614 0.930 . S
H2602 C2618 0.959 . S
H2603 C2618 0.959 . S
H2604 C2618 0.961 . S
H2605 C2619 0.960 . S
H2606 C2619 0.961 . S
H2607 C2619 0.959 . S
H2608 C2622 0.929 . S
H2609 C2623 0.931 . S
H2610 C2625 0.930 . S
C2611 H2599 0.930 . S
C2611 C2612 1.399 . S
C2611 C2616 1.399 . S
C2612 C2611 1.399 . S
C2612 C2613 1.376 . S
C2613 H2600 0.930 . S
C2613 C2612 1.376 . S
C2613 C2614 1.388 . S
C2614 H2601 0.930 . S
C2614 C2613 1.388 . S
C2614 C2615 1.390 . S
C2615 C2614 1.390 . S
C2615 C2616 1.394 . S
C2615 C2621 1.465 . S
C2616 C2611 1.399 . S
C2616 C2615 1.394 . S
C2616 C2617 1.516 . S
C2617 C2616 1.516 . S
C2617 C2618 1.502 . S
C2617 C2619 1.561 . S
C2617 C2620 1.526 . S
C2618 H2602 0.959 . S
C2618 H2603 0.959 . S
C2618 H2604 0.961 . S
C2618 C2617 1.502 . S
C2619 H2605 0.960 . S
C2619 H2606 0.961 . S
C2619 H2607 0.959 . S
C2619 C2617 1.561 . S
C2620 C2617 1.526 . S
C2620 C2621 1.396 . S
C2620 C2625 1.390 . S
C2621 C2615 1.465 . S
C2621 C2620 1.396 . S
C2621 C2622 1.399 . S
C2622 H2608 0.929 . S
C2622 C2621 1.399 . S
C2622 C2623 1.385 . S
C2623 H2609 0.931 . S
C2623 C2622 1.385 . S
C2623 C2624 1.389 . S
C2624 C2623 1.389 . S
C2624 C2625 1.387 . S
C2625 H2610 0.930 . S
C2625 C2620 1.390 . S
C2625 C2624 1.387 . S
H2626 C2638 0.930 . S
H2627 C2640 0.930 . S
H2628 C2641 0.930 . S
H2629 C2645 0.959 . S
H2630 C2645 0.959 . S
H2631 C2645 0.961 . S
H2632 C2646 0.960 . S
H2633 C2646 0.961 . S
H2634 C2646 0.959 . S
H2635 C2649 0.929 . S
H2636 C2650 0.931 . S
H2637 C2652 0.930 . S
C2638 H2626 0.930 . S
C2638 C2639 1.399 . S
C2638 C2643 1.399 . S
C2639 C2638 1.399 . S
C2639 C2640 1.376 . S
C2640 H2627 0.930 . S
C2640 C2639 1.376 . S
C2640 C2641 1.388 . S
C2641 H2628 0.930 . S
C2641 C2640 1.388 . S
C2641 C2642 1.390 . S
C2642 C2641 1.390 . S
C2642 C2643 1.394 . S
C2642 C2648 1.465 . S
C2643 C2638 1.399 . S
C2643 C2642 1.394 . S
C2643 C2644 1.516 . S
C2644 C2643 1.516 . S
C2644 C2645 1.502 . S
C2644 C2646 1.561 . S
C2644 C2647 1.526 . S
C2645 H2629 0.959 . S
C2645 H2630 0.959 . S
C2645 H2631 0.961 . S
C2645 C2644 1.502 . S
C2646 H2632 0.960 . S
C2646 H2633 0.961 . S
C2646 H2634 0.959 . S
C2646 C2644 1.561 . S
C2647 C2644 1.526 . S
C2647 C2648 1.396 . S
C2647 C2652 1.390 . S
C2648 C2642 1.465 . S
C2648 C2647 1.396 . S
C2648 C2649 1.399 . S
C2649 H2635 0.929 . S
C2649 C2648 1.399 . S
C2649 C2650 1.385 . S
C2650 H2636 0.931 . S
C2650 C2649 1.385 . S
C2650 C2651 1.389 . S
C2651 C2650 1.389 . S
C2651 C2652 1.387 . S
C2652 H2637 0.930 . S
C2652 C2647 1.390 . S
C2652 C2651 1.387 . S
H2653 C2665 0.930 . S
H2654 C2667 0.930 . S
H2655 C2668 0.930 . S
H2656 C2672 0.959 . S
H2657 C2672 0.959 . S
H2658 C2672 0.961 . S
H2659 C2673 0.960 . S
H2660 C2673 0.961 . S
H2661 C2673 0.959 . S
H2662 C2676 0.929 . S
H2663 C2677 0.931 . S
H2664 C2679 0.930 . S
C2665 H2653 0.930 . S
C2665 C2666 1.399 . S
C2665 C2670 1.399 . S
C2666 C2665 1.399 . S
C2666 C2667 1.376 . S
C2667 H2654 0.930 . S
C2667 C2666 1.376 . S
C2667 C2668 1.388 . S
C2668 H2655 0.930 . S
C2668 C2667 1.388 . S
C2668 C2669 1.390 . S
C2669 C2668 1.390 . S
C2669 C2670 1.394 . S
C2669 C2675 1.465 . S
C2670 C2665 1.399 . S
C2670 C2669 1.394 . S
C2670 C2671 1.516 . S
C2671 C2670 1.516 . S
C2671 C2672 1.502 . S
C2671 C2673 1.561 . S
C2671 C2674 1.526 . S
C2672 H2656 0.959 . S
C2672 H2657 0.959 . S
C2672 H2658 0.961 . S
C2672 C2671 1.502 . S
C2673 H2659 0.960 . S
C2673 H2660 0.961 . S
C2673 H2661 0.959 . S
C2673 C2671 1.561 . S
C2674 C2671 1.526 . S
C2674 C2675 1.396 . S
C2674 C2679 1.390 . S
C2675 C2669 1.465 . S
C2675 C2674 1.396 . S
C2675 C2676 1.399 . S
C2676 H2662 0.929 . S
C2676 C2675 1.399 . S
C2676 C2677 1.385 . S
C2677 H2663 0.931 . S
C2677 C2676 1.385 . S
C2677 C2678 1.389 . S
C2678 C2677 1.389 . S
C2678 C2679 1.387 . S
C2679 H2664 0.930 . S
C2679 C2674 1.390 . S
C2679 C2678 1.387 . S
H2680 C2692 0.930 . S
H2681 C2694 0.930 . S
H2682 C2695 0.930 . S
H2683 C2699 0.959 . S
H2684 C2699 0.959 . S
H2685 C2699 0.961 . S
H2686 C2700 0.960 . S
H2687 C2700 0.961 . S
H2688 C2700 0.959 . S
H2689 C2703 0.929 . S
H2690 C2704 0.931 . S
H2691 C2706 0.930 . S
C2692 H2680 0.930 . S
C2692 C2693 1.399 . S
C2692 C2697 1.399 . S
C2693 C2692 1.399 . S
C2693 C2694 1.376 . S
C2694 H2681 0.930 . S
C2694 C2693 1.376 . S
C2694 C2695 1.388 . S
C2695 H2682 0.930 . S
C2695 C2694 1.388 . S
C2695 C2696 1.390 . S
C2696 C2695 1.390 . S
C2696 C2697 1.394 . S
C2696 C2702 1.465 . S
C2697 C2692 1.399 . S
C2697 C2696 1.394 . S
C2697 C2698 1.516 . S
C2698 C2697 1.516 . S
C2698 C2699 1.502 . S
C2698 C2700 1.561 . S
C2698 C2701 1.526 . S
C2699 H2683 0.959 . S
C2699 H2684 0.959 . S
C2699 H2685 0.961 . S
C2699 C2698 1.502 . S
C2700 H2686 0.960 . S
C2700 H2687 0.961 . S
C2700 H2688 0.959 . S
C2700 C2698 1.561 . S
C2701 C2698 1.526 . S
C2701 C2702 1.396 . S
C2701 C2706 1.390 . S
C2702 C2696 1.465 . S
C2702 C2701 1.396 . S
C2702 C2703 1.399 . S
C2703 H2689 0.929 . S
C2703 C2702 1.399 . S
C2703 C2704 1.385 . S
C2704 H2690 0.931 . S
C2704 C2703 1.385 . S
C2704 C2705 1.389 . S
C2705 C2704 1.389 . S
C2705 C2706 1.387 . S
C2706 H2691 0.930 . S
C2706 C2701 1.390 . S
C2706 C2705 1.387 . S
H2707 C2719 0.930 . S
H2708 C2721 0.930 . S
H2709 C2722 0.930 . S
H2710 C2726 0.959 . S
H2711 C2726 0.959 . S
H2712 C2726 0.961 . S
H2713 C2727 0.960 . S
H2714 C2727 0.961 . S
H2715 C2727 0.959 . S
H2716 C2730 0.929 . S
H2717 C2731 0.931 . S
H2718 C2733 0.930 . S
C2719 H2707 0.930 . S
C2719 C2720 1.399 . S
C2719 C2724 1.399 . S
C2720 C2719 1.399 . S
C2720 C2721 1.376 . S
C2721 H2708 0.930 . S
C2721 C2720 1.376 . S
C2721 C2722 1.388 . S
C2722 H2709 0.930 . S
C2722 C2721 1.388 . S
C2722 C2723 1.390 . S
C2723 C2722 1.390 . S
C2723 C2724 1.394 . S
C2723 C2729 1.465 . S
C2724 C2719 1.399 . S
C2724 C2723 1.394 . S
C2724 C2725 1.516 . S
C2725 C2724 1.516 . S
C2725 C2726 1.502 . S
C2725 C2727 1.561 . S
C2725 C2728 1.526 . S
C2726 H2710 0.959 . S
C2726 H2711 0.959 . S
C2726 H2712 0.961 . S
C2726 C2725 1.502 . S
C2727 H2713 0.960 . S
C2727 H2714 0.961 . S
C2727 H2715 0.959 . S
C2727 C2725 1.561 . S
C2728 C2725 1.526 . S
C2728 C2729 1.396 . S
C2728 C2733 1.390 . S
C2729 C2723 1.465 . S
C2729 C2728 1.396 . S
C2729 C2730 1.399 . S
C2730 H2716 0.929 . S
C2730 C2729 1.399 . S
C2730 C2731 1.385 . S
C2731 H2717 0.931 . S
C2731 C2730 1.385 . S
C2731 C2732 1.389 . S
C2732 C2731 1.389 . S
C2732 C2733 1.387 . S
C2733 H2718 0.930 . S
C2733 C2728 1.390 . S
C2733 C2732 1.387 . S
H2734 C2746 0.930 . S
H2735 C2748 0.930 . S
H2736 C2749 0.930 . S
H2737 C2753 0.959 . S
H2738 C2753 0.959 . S
H2739 C2753 0.961 . S
H2740 C2754 0.960 . S
H2741 C2754 0.961 . S
H2742 C2754 0.959 . S
H2743 C2757 0.929 . S
H2744 C2758 0.931 . S
H2745 C2760 0.930 . S
C2746 H2734 0.930 . S
C2746 C2747 1.399 . S
C2746 C2751 1.399 . S
C2747 C2746 1.399 . S
C2747 C2748 1.376 . S
C2748 H2735 0.930 . S
C2748 C2747 1.376 . S
C2748 C2749 1.388 . S
C2749 H2736 0.930 . S
C2749 C2748 1.388 . S
C2749 C2750 1.390 . S
C2750 C2749 1.390 . S
C2750 C2751 1.394 . S
C2750 C2756 1.465 . S
C2751 C2746 1.399 . S
C2751 C2750 1.394 . S
C2751 C2752 1.516 . S
C2752 C2751 1.516 . S
C2752 C2753 1.502 . S
C2752 C2754 1.561 . S
C2752 C2755 1.526 . S
C2753 H2737 0.959 . S
C2753 H2738 0.959 . S
C2753 H2739 0.961 . S
C2753 C2752 1.502 . S
C2754 H2740 0.960 . S
C2754 H2741 0.961 . S
C2754 H2742 0.959 . S
C2754 C2752 1.561 . S
C2755 C2752 1.526 . S
C2755 C2756 1.396 . S
C2755 C2760 1.390 . S
C2756 C2750 1.465 . S
C2756 C2755 1.396 . S
C2756 C2757 1.399 . S
C2757 H2743 0.929 . S
C2757 C2756 1.399 . S
C2757 C2758 1.385 . S
C2758 H2744 0.931 . S
C2758 C2757 1.385 . S
C2758 C2759 1.389 . S
C2759 C2758 1.389 . S
C2759 C2760 1.387 . S
C2760 H2745 0.930 . S
C2760 C2755 1.390 . S
C2760 C2759 1.387 . S
H2761 C2773 0.930 . S
H2762 C2775 0.930 . S
H2763 C2776 0.930 . S
H2764 C2780 0.986 . S
H2765 C2780 0.959 . S
H2766 C2780 0.961 . S
H2767 C2781 0.960 . S
H2768 C2781 0.961 . S
H2769 C2781 0.959 . S
H2770 C2784 0.929 . S
H2771 C2785 0.931 . S
H2772 C2787 0.930 1_556 S
C2773 H2761 0.930 . S
C2773 C2774 1.399 1_556 S
C2773 C2778 1.399 1_556 S
C2774 C2773 1.399 1_554 S
C2774 C2775 1.376 . S
C2775 H2762 0.930 . S
C2775 C2774 1.376 . S
C2775 C2776 1.388 . S
C2776 H2763 0.930 . S
C2776 C2775 1.388 . S
C2776 C2777 1.390 . S
C2777 C2776 1.390 . S
C2777 C2778 1.394 . S
C2777 C2783 1.465 . S
C2778 C2773 1.399 1_554 S
C2778 C2777 1.394 . S
C2778 C2779 1.516 1_554 S
C2779 C2778 1.516 1_556 S
C2779 C2780 1.502 . S
C2779 C2781 1.561 . S
C2779 C2782 1.526 1_556 S
C2780 H2764 0.986 . S
C2780 H2765 0.959 . S
C2780 H2766 0.961 . S
C2780 C2779 1.502 . S
C2781 H2767 0.960 . S
C2781 H2768 0.961 . S
C2781 H2769 0.959 . S
C2781 C2779 1.561 . S
C2782 C2779 1.526 1_554 S
C2782 C2783 1.396 . S
C2782 C2787 1.390 . S
C2783 C2777 1.465 . S
C2783 C2782 1.396 . S
C2783 C2784 1.399 . S
C2784 H2770 0.929 . S
C2784 C2783 1.399 . S
C2784 C2785 1.385 . S
C2785 H2771 0.931 . S
C2785 C2784 1.385 . S
C2785 C2786 1.389 . S
C2786 C2785 1.389 . S
C2786 C2787 1.387 . S
C2787 H2772 0.930 1_554 S
C2787 C2782 1.390 . S
C2787 C2786 1.387 . S
H2788 C2800 0.930 . S
H2789 C2802 0.930 . S
H2790 C2803 0.930 . S
H2791 C2807 0.959 . S
H2792 C2807 0.959 . S
H2793 C2807 0.961 . S
H2794 C2808 0.960 . S
H2795 C2808 0.961 . S
H2796 C2808 0.959 . S
H2797 C2811 0.929 . S
H2798 C2812 0.931 . S
H2799 C2814 0.930 . S
C2800 H2788 0.930 . S
C2800 C2801 1.399 . S
C2800 C2805 1.399 . S
C2801 C2800 1.399 . S
C2801 C2802 1.376 . S
C2802 H2789 0.930 . S
C2802 C2801 1.376 . S
C2802 C2803 1.388 . S
C2803 H2790 0.930 . S
C2803 C2802 1.388 . S
C2803 C2804 1.390 . S
C2804 C2803 1.390 . S
C2804 C2805 1.394 . S
C2804 C2810 1.465 . S
C2805 C2800 1.399 . S
C2805 C2804 1.394 . S
C2805 C2806 1.516 . S
C2806 C2805 1.516 . S
C2806 C2807 1.502 . S
C2806 C2808 1.561 . S
C2806 C2809 1.526 . S
C2807 H2791 0.959 . S
C2807 H2792 0.959 . S
C2807 H2793 0.961 . S
C2807 C2806 1.502 . S
C2808 H2794 0.960 . S
C2808 H2795 0.961 . S
C2808 H2796 0.959 . S
C2808 C2806 1.561 . S
C2809 C2806 1.526 . S
C2809 C2810 1.396 . S
C2809 C2814 1.390 . S
C2810 C2804 1.465 . S
C2810 C2809 1.396 . S
C2810 C2811 1.399 . S
C2811 H2797 0.929 . S
C2811 C2810 1.399 . S
C2811 C2812 1.385 . S
C2812 H2798 0.931 . S
C2812 C2811 1.385 . S
C2812 C2813 1.389 . S
C2813 C2812 1.389 . S
C2813 C2814 1.387 . S
C2814 H2799 0.930 . S
C2814 C2809 1.390 . S
C2814 C2813 1.387 . S
H2815 C2827 0.930 . S
H2816 C2829 0.930 . S
H2817 C2830 0.930 . S
H2818 C2834 0.959 . S
H2819 C2834 0.959 . S
H2820 C2834 0.961 . S
H2821 C2835 0.960 . S
H2822 C2835 0.961 . S
H2823 C2835 0.959 . S
H2824 C2838 0.929 . S
H2825 C2839 0.931 . S
H2826 C2841 0.930 . S
C2827 H2815 0.930 . S
C2827 C2828 1.399 . S
C2827 C2832 1.399 . S
C2828 C2827 1.399 . S
C2828 C2829 1.376 . S
C2829 H2816 0.930 . S
C2829 C2828 1.376 . S
C2829 C2830 1.388 . S
C2830 H2817 0.930 . S
C2830 C2829 1.388 . S
C2830 C2831 1.390 . S
C2831 C2830 1.390 . S
C2831 C2832 1.394 . S
C2831 C2837 1.465 . S
C2832 C2827 1.399 . S
C2832 C2831 1.394 . S
C2832 C2833 1.516 . S
C2833 C2832 1.516 . S
C2833 C2834 1.502 . S
C2833 C2835 1.561 . S
C2833 C2836 1.526 . S
C2834 H2818 0.959 . S
C2834 H2819 0.959 . S
C2834 H2820 0.961 . S
C2834 C2833 1.502 . S
C2835 H2821 0.960 . S
C2835 H2822 0.961 . S
C2835 H2823 0.959 . S
C2835 C2833 1.561 . S
C2836 C2833 1.526 . S
C2836 C2837 1.396 . S
C2836 C2841 1.390 . S
C2837 C2831 1.465 . S
C2837 C2836 1.396 . S
C2837 C2838 1.399 . S
C2838 H2824 0.929 . S
C2838 C2837 1.399 . S
C2838 C2839 1.385 . S
C2839 H2825 0.931 . S
C2839 C2838 1.385 . S
C2839 C2840 1.389 . S
C2840 C2839 1.389 . S
C2840 C2841 1.387 . S
C2841 H2826 0.930 . S
C2841 C2836 1.390 . S
C2841 C2840 1.387 . S
H2842 C2854 0.930 . S
H2843 C2856 0.930 . S
H2844 C2857 0.930 . S
H2845 C2861 0.959 . S
H2846 C2861 0.959 . S
H2847 C2861 0.961 . S
H2848 C2862 0.960 . S
H2849 C2862 0.961 . S
H2850 C2862 0.959 . S
H2851 C2865 0.929 . S
H2852 C2866 0.931 . S
H2853 C2868 0.930 . S
C2854 H2842 0.930 . S
C2854 C2855 1.399 . S
C2854 C2859 1.399 . S
C2855 C2854 1.399 . S
C2855 C2856 1.376 . S
C2856 H2843 0.930 . S
C2856 C2855 1.376 . S
C2856 C2857 1.388 . S
C2857 H2844 0.930 . S
C2857 C2856 1.388 . S
C2857 C2858 1.390 . S
C2858 C2857 1.390 . S
C2858 C2859 1.394 . S
C2858 C2864 1.465 . S
C2859 C2854 1.399 . S
C2859 C2858 1.394 . S
C2859 C2860 1.516 . S
C2860 C2859 1.516 . S
C2860 C2861 1.502 . S
C2860 C2862 1.561 . S
C2860 C2863 1.526 . S
C2861 H2845 0.959 . S
C2861 H2846 0.959 . S
C2861 H2847 0.961 . S
C2861 C2860 1.502 . S
C2862 H2848 0.960 . S
C2862 H2849 0.961 . S
C2862 H2850 0.959 . S
C2862 C2860 1.561 . S
C2863 C2860 1.526 . S
C2863 C2864 1.396 . S
C2863 C2868 1.390 . S
C2864 C2858 1.465 . S
C2864 C2863 1.396 . S
C2864 C2865 1.399 . S
C2865 H2851 0.929 . S
C2865 C2864 1.399 . S
C2865 C2866 1.385 . S
C2866 H2852 0.931 . S
C2866 C2865 1.385 . S
C2866 C2867 1.389 . S
C2867 C2866 1.389 . S
C2867 C2868 1.387 . S
C2868 H2853 0.930 . S
C2868 C2863 1.390 . S
C2868 C2867 1.387 . S
H2869 C2881 0.930 . S
H2870 C2883 0.930 . S
H2871 C2884 0.930 . S
H2872 C2888 0.959 . S
H2873 C2888 0.959 . S
H2874 C2888 0.961 . S
H2875 C2889 0.960 . S
H2876 C2889 0.961 . S
H2877 C2889 0.959 . S
H2878 C2892 0.929 . S
H2879 C2893 0.931 . S
H2880 C2895 0.930 . S
C2881 H2869 0.930 . S
C2881 C2882 1.399 . S
C2881 C2886 1.399 . S
C2882 C2881 1.399 . S
C2882 C2883 1.376 . S
C2883 H2870 0.930 . S
C2883 C2882 1.376 . S
C2883 C2884 1.388 . S
C2884 H2871 0.930 . S
C2884 C2883 1.388 . S
C2884 C2885 1.390 . S
C2885 C2884 1.390 . S
C2885 C2886 1.394 . S
C2885 C2891 1.465 . S
C2886 C2881 1.399 . S
C2886 C2885 1.394 . S
C2886 C2887 1.516 . S
C2887 C2886 1.516 . S
C2887 C2888 1.502 . S
C2887 C2889 1.561 . S
C2887 C2890 1.526 . S
C2888 H2872 0.959 . S
C2888 H2873 0.959 . S
C2888 H2874 0.961 . S
C2888 C2887 1.502 . S
C2889 H2875 0.960 . S
C2889 H2876 0.961 . S
C2889 H2877 0.959 . S
C2889 C2887 1.561 . S
C2890 C2887 1.526 . S
C2890 C2891 1.396 . S
C2890 C2895 1.390 . S
C2891 C2885 1.465 . S
C2891 C2890 1.396 . S
C2891 C2892 1.399 . S
C2892 H2878 0.929 . S
C2892 C2891 1.399 . S
C2892 C2893 1.385 . S
C2893 H2879 0.931 . S
C2893 C2892 1.385 . S
C2893 C2894 1.389 . S
C2894 C2893 1.389 . S
C2894 C2895 1.387 . S
C2895 H2880 0.930 . S
C2895 C2890 1.390 . S
C2895 C2894 1.387 . S
H2896 C2908 0.930 . S
H2897 C2910 0.930 . S
H2898 C2911 0.930 . S
H2899 C2915 0.959 . S
H2900 C2915 0.959 . S
H2901 C2915 0.961 . S
H2902 C2916 0.960 . S
H2903 C2916 0.961 . S
H2904 C2916 0.959 . S
H2905 C2919 0.929 . S
H2906 C2920 0.931 . S
H2907 C2922 0.930 . S
C2908 H2896 0.930 . S
C2908 C2909 1.399 . S
C2908 C2913 1.399 . S
C2909 C2908 1.399 . S
C2909 C2910 1.376 . S
C2910 H2897 0.930 . S
C2910 C2909 1.376 . S
C2910 C2911 1.388 . S
C2911 H2898 0.930 . S
C2911 C2910 1.388 . S
C2911 C2912 1.390 . S
C2912 C2911 1.390 . S
C2912 C2913 1.394 . S
C2912 C2918 1.465 . S
C2913 C2908 1.399 . S
C2913 C2912 1.394 . S
C2913 C2914 1.516 . S
C2914 C2913 1.516 . S
C2914 C2915 1.502 . S
C2914 C2916 1.561 . S
C2914 C2917 1.526 . S
C2915 H2899 0.959 . S
C2915 H2900 0.959 . S
C2915 H2901 0.961 . S
C2915 C2914 1.502 . S
C2916 H2902 0.960 . S
C2916 H2903 0.961 . S
C2916 H2904 0.959 . S
C2916 C2914 1.561 . S
C2917 C2914 1.526 . S
C2917 C2918 1.396 . S
C2917 C2922 1.390 . S
C2918 C2912 1.465 . S
C2918 C2917 1.396 . S
C2918 C2919 1.399 . S
C2919 H2905 0.929 . S
C2919 C2918 1.399 . S
C2919 C2920 1.385 . S
C2920 H2906 0.931 . S
C2920 C2919 1.385 . S
C2920 C2921 1.389 . S
C2921 C2920 1.389 . S
C2921 C2922 1.387 . S
C2922 H2907 0.930 . S
C2922 C2917 1.390 . S
C2922 C2921 1.387 . S
H2923 C2935 0.930 . S
H2924 C2937 0.930 . S
H2925 C2938 0.930 . S
H2926 C2942 0.959 . S
H2927 C2942 0.959 . S
H2928 C2942 0.961 . S
H2929 C2943 0.960 . S
H2930 C2943 0.961 . S
H2931 C2943 0.959 . S
H2932 C2946 0.929 . S
H2933 C2947 0.931 . S
H2934 C2949 0.930 . S
C2935 H2923 0.930 . S
C2935 C2936 1.399 . S
C2935 C2940 1.399 . S
C2936 C2935 1.399 . S
C2936 C2937 1.376 . S
C2937 H2924 0.930 . S
C2937 C2936 1.376 . S
C2937 C2938 1.388 . S
C2938 H2925 0.930 . S
C2938 C2937 1.388 . S
C2938 C2939 1.390 . S
C2939 C2938 1.390 . S
C2939 C2940 1.394 . S
C2939 C2945 1.465 . S
C2940 C2935 1.399 . S
C2940 C2939 1.394 . S
C2940 C2941 1.516 . S
C2941 C2940 1.516 . S
C2941 C2942 1.502 . S
C2941 C2943 1.561 . S
C2941 C2944 1.526 . S
C2942 H2926 0.959 . S
C2942 H2927 0.959 . S
C2942 H2928 0.961 . S
C2942 C2941 1.502 . S
C2943 H2929 0.960 . S
C2943 H2930 0.961 . S
C2943 H2931 0.959 . S
C2943 C2941 1.561 . S
C2944 C2941 1.526 . S
C2944 C2945 1.396 . S
C2944 C2949 1.390 . S
C2945 C2939 1.465 . S
C2945 C2944 1.396 . S
C2945 C2946 1.399 . S
C2946 H2932 0.929 . S
C2946 C2945 1.399 . S
C2946 C2947 1.385 . S
C2947 H2933 0.931 . S
C2947 C2946 1.385 . S
C2947 C2948 1.389 . S
C2948 C2947 1.389 . S
C2948 C2949 1.387 . S
C2949 H2934 0.930 . S
C2949 C2944 1.390 . S
C2949 C2948 1.387 . S
H2950 C2962 0.930 . S
H2951 C2964 0.930 . S
H2952 C2965 0.930 . S
H2953 C2969 0.959 . S
H2954 C2969 0.959 . S
H2955 C2969 0.961 . S
H2956 C2970 0.960 . S
H2957 C2970 0.961 . S
H2958 C2970 0.959 . S
H2959 C2973 0.929 . S
H2960 C2974 0.931 . S
H2961 C2976 0.930 . S
C2962 H2950 0.930 . S
C2962 C2963 1.399 . S
C2962 C2967 1.399 . S
C2963 C2962 1.399 . S
C2963 C2964 1.376 . S
C2964 H2951 0.930 . S
C2964 C2963 1.376 . S
C2964 C2965 1.388 . S
C2965 H2952 0.930 . S
C2965 C2964 1.388 . S
C2965 C2966 1.390 . S
C2966 C2965 1.390 . S
C2966 C2967 1.394 . S
C2966 C2972 1.465 . S
C2967 C2962 1.399 . S
C2967 C2966 1.394 . S
C2967 C2968 1.516 . S
C2968 C2967 1.516 . S
C2968 C2969 1.502 . S
C2968 C2970 1.561 . S
C2968 C2971 1.526 . S
C2969 H2953 0.959 . S
C2969 H2954 0.959 . S
C2969 H2955 0.961 . S
C2969 C2968 1.502 . S
C2970 H2956 0.960 . S
C2970 H2957 0.961 . S
C2970 H2958 0.959 . S
C2970 C2968 1.561 . S
C2971 C2968 1.526 . S
C2971 C2972 1.396 . S
C2971 C2976 1.390 . S
C2972 C2966 1.465 . S
C2972 C2971 1.396 . S
C2972 C2973 1.399 . S
C2973 H2959 0.929 . S
C2973 C2972 1.399 . S
C2973 C2974 1.385 . S
C2974 H2960 0.931 . S
C2974 C2973 1.385 . S
C2974 C2975 1.389 . S
C2975 C2974 1.389 . S
C2975 C2976 1.387 . S
C2976 H2961 0.930 . S
C2976 C2971 1.390 . S
C2976 C2975 1.387 . S
H2977 C2989 0.930 . S
H2978 C2991 0.930 . S
H2979 C2992 0.930 . S
H2980 C2996 0.959 . S
H2981 C2996 0.959 . S
H2982 C2996 0.961 . S
H2983 C2997 0.960 . S
H2984 C2997 0.961 . S
H2985 C2997 0.959 . S
H2986 C3000 0.929 . S
H2987 C3001 0.931 . S
H2988 C3003 0.930 . S
C2989 H2977 0.930 . S
C2989 C2990 1.399 . S
C2989 C2994 1.399 . S
C2990 C2989 1.399 . S
C2990 C2991 1.376 . S
C2991 H2978 0.930 . S
C2991 C2990 1.376 . S
C2991 C2992 1.388 . S
C2992 H2979 0.930 . S
C2992 C2991 1.388 . S
C2992 C2993 1.390 . S
C2993 C2992 1.390 . S
C2993 C2994 1.394 . S
C2993 C2999 1.465 . S
C2994 C2989 1.399 . S
C2994 C2993 1.394 . S
C2994 C2995 1.516 . S
C2995 C2994 1.516 . S
C2995 C2996 1.502 . S
C2995 C2997 1.561 . S
C2995 C2998 1.526 . S
C2996 H2980 0.959 . S
C2996 H2981 0.959 . S
C2996 H2982 0.961 . S
C2996 C2995 1.502 . S
C2997 H2983 0.960 . S
C2997 H2984 0.961 . S
C2997 H2985 0.959 . S
C2997 C2995 1.561 . S
C2998 C2995 1.526 . S
C2998 C2999 1.396 . S
C2998 C3003 1.390 . S
C2999 C2993 1.465 . S
C2999 C2998 1.396 . S
C2999 C3000 1.399 . S
C3000 H2986 0.929 . S
C3000 C2999 1.399 . S
C3000 C3001 1.385 . S
C3001 H2987 0.931 . S
C3001 C3000 1.385 . S
C3001 C3002 1.389 . S
C3002 C3001 1.389 . S
C3002 C3003 1.387 . S
C3003 H2988 0.930 . S
C3003 C2998 1.390 . S
C3003 C3002 1.387 . S
H3004 C3016 0.930 . S
H3005 C3018 0.930 . S
H3006 C3019 0.930 . S
H3007 C3023 0.959 . S
H3008 C3023 0.959 . S
H3009 C3023 0.961 . S
H3010 C3024 0.960 . S
H3011 C3024 0.961 . S
H3012 C3024 0.959 . S
H3013 C3027 0.929 1_554 S
H3014 C3028 0.931 1_554 S
H3015 C3030 0.930 . S
C3016 H3004 0.930 . S
C3016 C3017 1.399 . S
C3016 C3021 1.399 . S
C3017 C3016 1.399 . S
C3017 C3018 1.376 . S
C3018 H3005 0.930 . S
C3018 C3017 1.376 . S
C3018 C3019 1.388 . S
C3019 H3006 0.930 . S
C3019 C3018 1.388 . S
C3019 C3020 1.390 . S
C3020 C3019 1.390 . S
C3020 C3021 1.394 . S
C3020 C3026 1.465 . S
C3021 C3016 1.399 . S
C3021 C3020 1.394 . S
C3021 C3022 1.516 . S
C3022 C3021 1.516 . S
C3022 C3023 1.502 . S
C3022 C3024 1.561 . S
C3022 C3025 1.526 . S
C3023 H3007 0.959 . S
C3023 H3008 0.959 . S
C3023 H3009 0.961 . S
C3023 C3022 1.502 . S
C3024 H3010 0.960 . S
C3024 H3011 0.961 . S
C3024 H3012 0.959 . S
C3024 C3022 1.561 . S
C3025 C3022 1.526 . S
C3025 C3026 1.396 . S
C3025 C3030 1.390 . S
C3026 C3020 1.465 . S
C3026 C3025 1.396 . S
C3026 C3027 1.399 . S
C3027 H3013 0.929 1_556 S
C3027 C3026 1.399 . S
C3027 C3028 1.385 . S
C3028 H3014 0.931 1_556 S
C3028 C3027 1.385 . S
C3028 C3029 1.389 . S
C3029 C3028 1.389 . S
C3029 C3030 1.387 . S
C3030 H3015 0.930 . S
C3030 C3025 1.390 . S
C3030 C3029 1.387 . S
H3031 C3043 0.930 . S
H3032 C3045 0.930 . S
H3033 C3046 0.930 . S
H3034 C3050 0.959 . S
H3035 C3050 0.959 . S
H3036 C3050 0.961 . S
H3037 C3051 0.960 . S
H3038 C3051 0.961 . S
H3039 C3051 0.959 . S
H3040 C3054 0.929 . S
H3041 C3055 0.931 . S
H3042 C3057 0.930 . S
C3043 H3031 0.930 . S
C3043 C3044 1.399 . S
C3043 C3048 1.399 . S
C3044 C3043 1.399 . S
C3044 C3045 1.376 . S
C3045 H3032 0.930 . S
C3045 C3044 1.376 . S
C3045 C3046 1.388 . S
C3046 H3033 0.930 . S
C3046 C3045 1.388 . S
C3046 C3047 1.390 . S
C3047 C3046 1.390 . S
C3047 C3048 1.394 . S
C3047 C3053 1.465 . S
C3048 C3043 1.399 . S
C3048 C3047 1.394 . S
C3048 C3049 1.516 . S
C3049 C3048 1.516 . S
C3049 C3050 1.502 . S
C3049 C3051 1.561 . S
C3049 C3052 1.526 . S
C3050 H3034 0.959 . S
C3050 H3035 0.959 . S
C3050 H3036 0.961 . S
C3050 C3049 1.502 . S
C3051 H3037 0.960 . S
C3051 H3038 0.961 . S
C3051 H3039 0.959 . S
C3051 C3049 1.561 . S
C3052 C3049 1.526 . S
C3052 C3053 1.396 . S
C3052 C3057 1.390 . S
C3053 C3047 1.465 . S
C3053 C3052 1.396 . S
C3053 C3054 1.399 . S
C3054 H3040 0.929 . S
C3054 C3053 1.399 . S
C3054 C3055 1.385 . S
C3055 H3041 0.931 . S
C3055 C3054 1.385 . S
C3055 C3056 1.389 . S
C3056 C3055 1.389 . S
C3056 C3057 1.387 . S
C3057 H3042 0.930 . S
C3057 C3052 1.390 . S
C3057 C3056 1.387 . S
H3058 C3070 0.930 . S
H3059 C3072 0.930 . S
H3060 C3073 0.930 . S
H3061 C3077 0.981 . S
H3062 C3077 0.973 1_455 S
H3063 C3077 0.962 . S
H3064 C3078 0.960 . S
H3065 C3078 0.961 . S
H3066 C3078 0.959 . S
H3067 C3081 0.929 . S
H3068 C3082 0.931 . S
H3069 C3084 0.930 . S
C3070 H3058 0.930 . S
C3070 C3071 1.399 . S
C3070 C3075 1.399 . S
C3071 C3070 1.399 . S
C3071 C3072 1.376 . S
C3072 H3059 0.930 . S
C3072 C3071 1.376 . S
C3072 C3073 1.388 . S
C3073 H3060 0.930 . S
C3073 C3072 1.388 . S
C3073 C3074 1.390 . S
C3074 C3073 1.390 . S
C3074 C3075 1.394 . S
C3074 C3080 1.465 . S
C3075 C3070 1.399 . S
C3075 C3074 1.394 . S
C3075 C3076 1.516 . S
C3076 C3075 1.516 . S
C3076 C3077 1.476 1_455 S
C3076 C3078 1.561 . S
C3076 C3079 1.526 . S
C3077 H3061 0.981 . S
C3077 H3062 0.973 1_655 S
C3077 H3063 0.962 . S
C3077 C3076 1.476 1_655 S
C3078 H3064 0.960 . S
C3078 H3065 0.961 . S
C3078 H3066 0.959 . S
C3078 C3076 1.561 . S
C3079 C3076 1.526 . S
C3079 C3080 1.396 . S
C3079 C3084 1.390 . S
C3080 C3074 1.465 . S
C3080 C3079 1.396 . S
C3080 C3081 1.399 . S
C3081 H3067 0.929 . S
C3081 C3080 1.399 . S
C3081 C3082 1.385 . S
C3082 H3068 0.931 . S
C3082 C3081 1.385 . S
C3082 C3083 1.389 . S
C3083 C3082 1.389 . S
C3083 C3084 1.387 . S
C3084 H3069 0.930 . S
C3084 C3079 1.390 . S
C3084 C3083 1.387 . S
H3085 C3097 0.930 . S
H3086 C3099 0.930 . S
H3087 C3100 0.930 . S
H3088 C3104 0.959 . S
H3089 C3104 0.959 . S
H3090 C3104 0.961 . S
H3091 C3105 0.960 . S
H3092 C3105 0.961 . S
H3093 C3105 0.959 . S
H3094 C3108 0.929 . S
H3095 C3109 0.931 . S
H3096 C3111 0.930 . S
C3097 H3085 0.930 . S
C3097 C3098 1.399 . S
C3097 C3102 1.399 . S
C3098 C3097 1.399 . S
C3098 C3099 1.376 . S
C3099 H3086 0.930 . S
C3099 C3098 1.376 . S
C3099 C3100 1.388 . S
C3100 H3087 0.930 . S
C3100 C3099 1.388 . S
C3100 C3101 1.390 . S
C3101 C3100 1.390 . S
C3101 C3102 1.394 . S
C3101 C3107 1.465 . S
C3102 C3097 1.399 . S
C3102 C3101 1.394 . S
C3102 C3103 1.516 . S
C3103 C3102 1.516 . S
C3103 C3104 1.502 . S
C3103 C3105 1.561 . S
C3103 C3106 1.526 . S
C3104 H3088 0.959 . S
C3104 H3089 0.959 . S
C3104 H3090 0.961 . S
C3104 C3103 1.502 . S
C3105 H3091 0.960 . S
C3105 H3092 0.961 . S
C3105 H3093 0.959 . S
C3105 C3103 1.561 . S
C3106 C3103 1.526 . S
C3106 C3107 1.396 . S
C3106 C3111 1.390 . S
C3107 C3101 1.465 . S
C3107 C3106 1.396 . S
C3107 C3108 1.399 . S
C3108 H3094 0.929 . S
C3108 C3107 1.399 . S
C3108 C3109 1.385 . S
C3109 H3095 0.931 . S
C3109 C3108 1.385 . S
C3109 C3110 1.389 . S
C3110 C3109 1.389 . S
C3110 C3111 1.387 . S
C3111 H3096 0.930 . S
C3111 C3106 1.390 . S
C3111 C3110 1.387 . S
H3112 C3124 0.930 . S
H3113 C3126 0.930 . S
H3114 C3127 0.930 . S
H3115 C3131 0.959 . S
H3116 C3131 0.959 . S
H3117 C3131 0.961 . S
H3118 C3132 0.960 . S
H3119 C3132 0.961 . S
H3120 C3132 0.959 . S
H3121 C3135 0.929 . S
H3122 C3136 0.931 . S
H3123 C3138 0.930 . S
C3124 H3112 0.930 . S
C3124 C3125 1.399 . S
C3124 C3129 1.399 . S
C3125 C3124 1.399 . S
C3125 C3126 1.376 . S
C3126 H3113 0.930 . S
C3126 C3125 1.376 . S
C3126 C3127 1.388 . S
C3127 H3114 0.930 . S
C3127 C3126 1.388 . S
C3127 C3128 1.390 . S
C3128 C3127 1.390 . S
C3128 C3129 1.394 . S
C3128 C3134 1.465 . S
C3129 C3124 1.399 . S
C3129 C3128 1.394 . S
C3129 C3130 1.516 . S
C3130 C3129 1.516 . S
C3130 C3131 1.502 . S
C3130 C3132 1.561 . S
C3130 C3133 1.526 . S
C3131 H3115 0.959 . S
C3131 H3116 0.959 . S
C3131 H3117 0.961 . S
C3131 C3130 1.502 . S
C3132 H3118 0.960 . S
C3132 H3119 0.961 . S
C3132 H3120 0.959 . S
C3132 C3130 1.561 . S
C3133 C3130 1.526 . S
C3133 C3134 1.396 . S
C3133 C3138 1.390 . S
C3134 C3128 1.465 . S
C3134 C3133 1.396 . S
C3134 C3135 1.399 . S
C3135 H3121 0.929 . S
C3135 C3134 1.399 . S
C3135 C3136 1.385 . S
C3136 H3122 0.931 . S
C3136 C3135 1.385 . S
C3136 C3137 1.389 . S
C3137 C3136 1.389 . S
C3137 C3138 1.387 . S
C3138 H3123 0.930 . S
C3138 C3133 1.390 . S
C3138 C3137 1.387 . S
H3139 C3151 0.930 . S
H3140 C3153 0.930 . S
H3141 C3154 0.930 . S
H3142 C3158 0.959 . S
H3143 C3158 0.959 . S
H3144 C3158 0.961 . S
H3145 C3159 0.960 . S
H3146 C3159 0.961 . S
H3147 C3159 0.959 . S
H3148 C3162 0.929 . S
H3149 C3163 0.931 . S
H3150 C3165 0.930 . S
C3151 H3139 0.930 . S
C3151 C3152 1.399 . S
C3151 C3156 1.399 . S
C3152 C3151 1.399 . S
C3152 C3153 1.376 . S
C3153 H3140 0.930 . S
C3153 C3152 1.376 . S
C3153 C3154 1.388 . S
C3154 H3141 0.930 . S
C3154 C3153 1.388 . S
C3154 C3155 1.390 . S
C3155 C3154 1.390 . S
C3155 C3156 1.394 . S
C3155 C3161 1.465 . S
C3156 C3151 1.399 . S
C3156 C3155 1.394 . S
C3156 C3157 1.516 . S
C3157 C3156 1.516 . S
C3157 C3158 1.502 . S
C3157 C3159 1.561 . S
C3157 C3160 1.526 . S
C3158 H3142 0.959 . S
C3158 H3143 0.959 . S
C3158 H3144 0.961 . S
C3158 C3157 1.502 . S
C3159 H3145 0.960 . S
C3159 H3146 0.961 . S
C3159 H3147 0.959 . S
C3159 C3157 1.561 . S
C3160 C3157 1.526 . S
C3160 C3161 1.396 . S
C3160 C3165 1.390 . S
C3161 C3155 1.465 . S
C3161 C3160 1.396 . S
C3161 C3162 1.399 . S
C3162 H3148 0.929 . S
C3162 C3161 1.399 . S
C3162 C3163 1.385 . S
C3163 H3149 0.931 . S
C3163 C3162 1.385 . S
C3163 C3164 1.389 . S
C3164 C3163 1.389 . S
C3164 C3165 1.387 . S
C3165 H3150 0.930 . S
C3165 C3160 1.390 . S
C3165 C3164 1.387 . S
H3166 C3178 0.930 . S
H3167 C3180 0.930 . S
H3168 C3181 0.930 . S
H3169 C3185 0.959 . S
H3170 C3185 0.959 . S
H3171 C3185 0.961 . S
H3172 C3186 0.960 . S
H3173 C3186 0.961 . S
H3174 C3186 0.959 . S
H3175 C3189 0.929 . S
H3176 C3190 0.931 . S
H3177 C3192 0.930 . S
C3178 H3166 0.930 . S
C3178 C3179 1.399 . S
C3178 C3183 1.399 . S
C3179 C3178 1.399 . S
C3179 C3180 1.376 . S
C3180 H3167 0.930 . S
C3180 C3179 1.376 . S
C3180 C3181 1.388 . S
C3181 H3168 0.930 . S
C3181 C3180 1.388 . S
C3181 C3182 1.390 . S
C3182 C3181 1.390 . S
C3182 C3183 1.394 . S
C3182 C3188 1.465 . S
C3183 C3178 1.399 . S
C3183 C3182 1.394 . S
C3183 C3184 1.516 . S
C3184 C3183 1.516 . S
C3184 C3185 1.502 . S
C3184 C3186 1.561 . S
C3184 C3187 1.526 . S
C3185 H3169 0.959 . S
C3185 H3170 0.959 . S
C3185 H3171 0.961 . S
C3185 C3184 1.502 . S
C3186 H3172 0.960 . S
C3186 H3173 0.961 . S
C3186 H3174 0.959 . S
C3186 C3184 1.561 . S
C3187 C3184 1.526 . S
C3187 C3188 1.396 . S
C3187 C3192 1.390 . S
C3188 C3182 1.465 . S
C3188 C3187 1.396 . S
C3188 C3189 1.399 1_655 S
C3189 H3175 0.929 . S
C3189 C3188 1.399 1_455 S
C3189 C3190 1.385 . S
C3190 H3176 0.931 . S
C3190 C3189 1.385 . S
C3190 C3191 1.389 . S
C3191 C3190 1.389 . S
C3191 C3192 1.387 1_455 S
C3192 H3177 0.930 . S
C3192 C3187 1.390 . S
C3192 C3191 1.387 1_655 S
H3193 C3205 0.930 . S
H3194 C3207 0.930 . S
H3195 C3208 0.930 . S
H3196 C3212 0.959 . S
H3197 C3212 0.959 . S
H3198 C3212 0.961 . S
H3199 C3213 0.960 . S
H3200 C3213 0.961 . S
H3201 C3213 0.959 . S
H3202 C3216 0.929 . S
H3203 C3217 0.931 . S
H3204 C3219 0.930 . S
C3205 H3193 0.930 . S
C3205 C3206 1.399 . S
C3205 C3210 1.399 . S
C3206 C3205 1.399 . S
C3206 C3207 1.376 . S
C3207 H3194 0.930 . S
C3207 C3206 1.376 . S
C3207 C3208 1.388 . S
C3208 H3195 0.930 . S
C3208 C3207 1.388 . S
C3208 C3209 1.390 . S
C3209 C3208 1.390 . S
C3209 C3210 1.394 . S
C3209 C3215 1.465 . S
C3210 C3205 1.399 . S
C3210 C3209 1.394 . S
C3210 C3211 1.516 . S
C3211 C3210 1.516 . S
C3211 C3212 1.502 . S
C3211 C3213 1.561 . S
C3211 C3214 1.526 . S
C3212 H3196 0.959 . S
C3212 H3197 0.959 . S
C3212 H3198 0.961 . S
C3212 C3211 1.502 . S
C3213 H3199 0.960 . S
C3213 H3200 0.961 . S
C3213 H3201 0.959 . S
C3213 C3211 1.561 . S
C3214 C3211 1.526 . S
C3214 C3215 1.396 . S
C3214 C3219 1.390 . S
C3215 C3209 1.465 . S
C3215 C3214 1.396 . S
C3215 C3216 1.399 . S
C3216 H3202 0.929 . S
C3216 C3215 1.399 . S
C3216 C3217 1.385 . S
C3217 H3203 0.931 . S
C3217 C3216 1.385 . S
C3217 C3218 1.389 . S
C3218 C3217 1.389 . S
C3218 C3219 1.387 . S
C3219 H3204 0.930 . S
C3219 C3214 1.390 . S
C3219 C3218 1.387 . S
H3220 C3232 0.930 . S
H3221 C3234 0.930 . S
H3222 C3235 0.930 . S
H3223 C3239 0.959 . S
H3224 C3239 0.959 . S
H3225 C3239 0.961 . S
H3226 C3240 0.960 . S
H3227 C3240 0.961 . S
H3228 C3240 0.959 . S
H3229 C3243 0.929 . S
H3230 C3244 0.931 . S
H3231 C3246 0.930 . S
C3232 H3220 0.930 . S
C3232 C3233 1.399 . S
C3232 C3237 1.399 . S
C3233 C3232 1.399 . S
C3233 C3234 1.376 . S
C3234 H3221 0.930 . S
C3234 C3233 1.376 . S
C3234 C3235 1.388 . S
C3235 H3222 0.930 . S
C3235 C3234 1.388 . S
C3235 C3236 1.390 . S
C3236 C3235 1.390 . S
C3236 C3237 1.394 . S
C3236 C3242 1.465 . S
C3237 C3232 1.399 . S
C3237 C3236 1.394 . S
C3237 C3238 1.516 . S
C3238 C3237 1.516 . S
C3238 C3239 1.502 . S
C3238 C3240 1.561 . S
C3238 C3241 1.526 . S
C3239 H3223 0.959 . S
C3239 H3224 0.959 . S
C3239 H3225 0.961 . S
C3239 C3238 1.502 . S
C3240 H3226 0.960 . S
C3240 H3227 0.961 . S
C3240 H3228 0.959 . S
C3240 C3238 1.561 . S
C3241 C3238 1.526 . S
C3241 C3242 1.396 . S
C3241 C3246 1.390 . S
C3242 C3236 1.465 . S
C3242 C3241 1.396 . S
C3242 C3243 1.399 . S
C3243 H3229 0.929 . S
C3243 C3242 1.399 . S
C3243 C3244 1.385 . S
C3244 H3230 0.931 . S
C3244 C3243 1.385 . S
C3244 C3245 1.389 . S
C3245 C3244 1.389 . S
C3245 C3246 1.387 . S
C3246 H3231 0.930 . S
C3246 C3241 1.390 . S
C3246 C3245 1.387 . S
H3247 C3259 0.930 . S
H3248 C3261 0.930 . S
H3249 C3262 0.930 . S
H3250 C3266 0.959 . S
H3251 C3266 0.959 . S
H3252 C3266 0.961 . S
H3253 C3267 0.960 . S
H3254 C3267 0.961 . S
H3255 C3267 0.959 . S
H3256 C3270 0.929 . S
H3257 C3271 0.931 . S
H3258 C3273 0.930 . S
C3259 H3247 0.930 . S
C3259 C3260 1.399 . S
C3259 C3264 1.399 . S
C3260 C3259 1.399 . S
C3260 C3261 1.376 . S
C3261 H3248 0.930 . S
C3261 C3260 1.376 . S
C3261 C3262 1.388 . S
C3262 H3249 0.930 . S
C3262 C3261 1.388 . S
C3262 C3263 1.390 . S
C3263 C3262 1.390 . S
C3263 C3264 1.394 . S
C3263 C3269 1.465 . S
C3264 C3259 1.399 . S
C3264 C3263 1.394 . S
C3264 C3265 1.516 . S
C3265 C3264 1.516 . S
C3265 C3266 1.502 . S
C3265 C3267 1.561 . S
C3265 C3268 1.526 . S
C3266 H3250 0.959 . S
C3266 H3251 0.959 . S
C3266 H3252 0.961 . S
C3266 C3265 1.502 . S
C3267 H3253 0.960 . S
C3267 H3254 0.961 . S
C3267 H3255 0.959 . S
C3267 C3265 1.561 . S
C3268 C3265 1.526 . S
C3268 C3269 1.396 . S
C3268 C3273 1.390 . S
C3269 C3263 1.465 . S
C3269 C3268 1.396 . S
C3269 C3270 1.399 . S
C3270 H3256 0.929 . S
C3270 C3269 1.399 . S
C3270 C3271 1.385 . S
C3271 H3257 0.931 . S
C3271 C3270 1.385 . S
C3271 C3272 1.389 . S
C3272 C3271 1.389 . S
C3272 C3273 1.387 . S
C3273 H3258 0.930 . S
C3273 C3268 1.390 . S
C3273 C3272 1.387 . S
H3274 C3286 0.930 . S
H3275 C3288 0.930 . S
H3276 C3289 0.930 . S
H3277 C3293 0.959 . S
H3278 C3293 0.959 . S
H3279 C3293 0.961 . S
H3280 C3294 0.960 . S
H3281 C3294 0.961 . S
H3282 C3294 0.959 . S
H3283 C3297 0.929 . S
H3284 C3298 0.931 . S
H3285 C3300 0.932 . S
C3286 H3274 0.930 . S
C3286 C3287 1.399 . S
C3286 C3291 1.399 . S
C3287 C3286 1.399 . S
C3287 C3288 1.376 . S
C3288 H3275 0.930 . S
C3288 C3287 1.376 . S
C3288 C3289 1.388 . S
C3289 H3276 0.930 . S
C3289 C3288 1.388 . S
C3289 C3290 1.390 . S
C3290 C3289 1.390 . S
C3290 C3291 1.394 . S
C3290 C3296 1.465 . S
C3291 C3286 1.399 . S
C3291 C3290 1.394 . S
C3291 C3292 1.516 . S
C3292 C3291 1.516 . S
C3292 C3293 1.502 1_655 S
C3292 C3294 1.561 . S
C3292 C3295 1.526 . S
C3293 H3277 0.959 . S
C3293 H3278 0.959 . S
C3293 H3279 0.961 . S
C3293 C3292 1.502 1_455 S
C3294 H3280 0.960 . S
C3294 H3281 0.961 . S
C3294 H3282 0.959 . S
C3294 C3292 1.561 . S
C3295 C3292 1.526 . S
C3295 C3296 1.396 . S
C3295 C3300 1.388 1_655 S
C3296 C3290 1.465 . S
C3296 C3295 1.396 . S
C3296 C3297 1.399 . S
C3297 H3283 0.929 . S
C3297 C3296 1.399 . S
C3297 C3298 1.385 . S
C3298 H3284 0.931 . S
C3298 C3297 1.385 . S
C3298 C3299 1.389 . S
C3299 C3298 1.389 . S
C3299 C3300 1.387 1_655 S
C3300 H3285 0.932 . S
C3300 C3295 1.388 1_455 S
C3300 C3299 1.387 1_455 S
H3301 C3313 0.930 . S
H3302 C3315 0.930 . S
H3303 C3316 0.930 . S
H3304 C3320 0.959 . S
H3305 C3320 0.959 . S
H3306 C3320 0.961 . S
H3307 C3321 0.960 . S
H3308 C3321 0.961 . S
H3309 C3321 0.959 . S
H3310 C3324 0.929 . S
H3311 C3325 0.931 . S
H3312 C3327 0.930 . S
C3313 H3301 0.930 . S
C3313 C3314 1.399 . S
C3313 C3318 1.399 . S
C3314 C3313 1.399 . S
C3314 C3315 1.376 . S
C3315 H3302 0.930 . S
C3315 C3314 1.376 . S
C3315 C3316 1.388 . S
C3316 H3303 0.930 . S
C3316 C3315 1.388 . S
C3316 C3317 1.390 . S
C3317 C3316 1.390 . S
C3317 C3318 1.394 . S
C3317 C3323 1.465 . S
C3318 C3313 1.399 . S
C3318 C3317 1.394 . S
C3318 C3319 1.516 . S
C3319 C3318 1.516 . S
C3319 C3320 1.502 . S
C3319 C3321 1.561 . S
C3319 C3322 1.526 . S
C3320 H3304 0.959 . S
C3320 H3305 0.959 . S
C3320 H3306 0.961 . S
C3320 C3319 1.502 . S
C3321 H3307 0.960 . S
C3321 H3308 0.961 . S
C3321 H3309 0.959 . S
C3321 C3319 1.561 . S
C3322 C3319 1.526 . S
C3322 C3323 1.396 . S
C3322 C3327 1.390 . S
C3323 C3317 1.465 . S
C3323 C3322 1.396 . S
C3323 C3324 1.399 . S
C3324 H3310 0.929 . S
C3324 C3323 1.399 . S
C3324 C3325 1.385 . S
C3325 H3311 0.931 . S
C3325 C3324 1.385 . S
C3325 C3326 1.389 . S
C3326 C3325 1.389 . S
C3326 C3327 1.387 . S
C3327 H3312 0.930 . S
C3327 C3322 1.390 . S
C3327 C3326 1.387 . S
H3328 C3340 0.930 . S
H3329 C3342 0.930 . S
H3330 C3343 0.930 . S
H3331 C3347 0.959 . S
H3332 C3347 0.959 . S
H3333 C3347 0.961 . S
H3334 C3348 0.960 . S
H3335 C3348 0.961 . S
H3336 C3348 0.959 . S
H3337 C3351 0.929 . S
H3338 C3352 0.931 . S
H3339 C3354 0.930 . S
C3340 H3328 0.930 . S
C3340 C3341 1.399 . S
C3340 C3345 1.399 . S
C3341 C3340 1.399 . S
C3341 C3342 1.376 . S
C3342 H3329 0.930 . S
C3342 C3341 1.376 . S
C3342 C3343 1.388 . S
C3343 H3330 0.930 . S
C3343 C3342 1.388 . S
C3343 C3344 1.390 . S
C3344 C3343 1.390 . S
C3344 C3345 1.394 . S
C3344 C3350 1.465 . S
C3345 C3340 1.399 . S
C3345 C3344 1.394 . S
C3345 C3346 1.516 . S
C3346 C3345 1.516 . S
C3346 C3347 1.502 . S
C3346 C3348 1.561 . S
C3346 C3349 1.526 . S
C3347 H3331 0.959 . S
C3347 H3332 0.959 . S
C3347 H3333 0.961 . S
C3347 C3346 1.502 . S
C3348 H3334 0.960 . S
C3348 H3335 0.961 . S
C3348 H3336 0.959 . S
C3348 C3346 1.561 . S
C3349 C3346 1.526 . S
C3349 C3350 1.396 . S
C3349 C3354 1.390 . S
C3350 C3344 1.465 . S
C3350 C3349 1.396 . S
C3350 C3351 1.399 . S
C3351 H3337 0.929 . S
C3351 C3350 1.399 . S
C3351 C3352 1.385 . S
C3352 H3338 0.931 . S
C3352 C3351 1.385 . S
C3352 C3353 1.389 . S
C3353 C3352 1.389 . S
C3353 C3354 1.387 . S
C3354 H3339 0.930 . S
C3354 C3349 1.390 . S
C3354 C3353 1.387 . S
H3355 C3367 0.930 . S
H3356 C3369 0.930 . S
H3357 C3370 0.930 . S
H3358 C3374 0.959 . S
H3359 C3374 0.959 . S
H3360 C3374 0.961 . S
H3361 C3375 0.960 . S
H3362 C3375 0.961 . S
H3363 C3375 0.959 . S
H3364 C3378 0.929 . S
H3365 C3379 0.931 . S
H3366 C3381 0.930 . S
C3367 H3355 0.930 . S
C3367 C3368 1.399 . S
C3367 C3372 1.399 . S
C3368 C3367 1.399 . S
C3368 C3369 1.376 . S
C3369 H3356 0.930 . S
C3369 C3368 1.376 . S
C3369 C3370 1.388 . S
C3370 H3357 0.930 . S
C3370 C3369 1.388 . S
C3370 C3371 1.390 . S
C3371 C3370 1.390 . S
C3371 C3372 1.394 . S
C3371 C3377 1.465 . S
C3372 C3367 1.399 . S
C3372 C3371 1.394 . S
C3372 C3373 1.516 . S
C3373 C3372 1.516 . S
C3373 C3374 1.502 . S
C3373 C3375 1.561 . S
C3373 C3376 1.526 . S
C3374 H3358 0.959 . S
C3374 H3359 0.959 . S
C3374 H3360 0.961 . S
C3374 C3373 1.502 . S
C3375 H3361 0.960 . S
C3375 H3362 0.961 . S
C3375 H3363 0.959 . S
C3375 C3373 1.561 . S
C3376 C3373 1.526 . S
C3376 C3377 1.396 . S
C3376 C3381 1.390 . S
C3377 C3371 1.465 . S
C3377 C3376 1.396 . S
C3377 C3378 1.399 . S
C3378 H3364 0.929 . S
C3378 C3377 1.399 . S
C3378 C3379 1.385 . S
C3379 H3365 0.931 . S
C3379 C3378 1.385 . S
C3379 C3380 1.389 . S
C3380 C3379 1.389 . S
C3380 C3381 1.387 . S
C3381 H3366 0.930 . S
C3381 C3376 1.390 . S
C3381 C3380 1.387 . S
H3382 C3394 0.930 . S
H3383 C3396 0.930 . S
H3384 C3397 0.930 . S
H3385 C3401 0.959 . S
H3386 C3401 0.959 . S
H3387 C3401 0.961 . S
H3388 C3402 0.960 . S
H3389 C3402 0.961 . S
H3390 C3402 0.959 . S
H3391 C3405 0.929 . S
H3392 C3406 0.931 . S
H3393 C3408 0.930 . S
C3394 H3382 0.930 . S
C3394 C3395 1.399 . S
C3394 C3399 1.399 . S
C3395 C3394 1.399 . S
C3395 C3396 1.376 . S
C3396 H3383 0.930 . S
C3396 C3395 1.376 . S
C3396 C3397 1.388 . S
C3397 H3384 0.930 . S
C3397 C3396 1.388 . S
C3397 C3398 1.390 . S
C3398 C3397 1.390 . S
C3398 C3399 1.394 . S
C3398 C3404 1.465 . S
C3399 C3394 1.399 . S
C3399 C3398 1.394 . S
C3399 C3400 1.516 . S
C3400 C3399 1.516 . S
C3400 C3401 1.502 . S
C3400 C3402 1.561 . S
C3400 C3403 1.526 . S
C3401 H3385 0.959 . S
C3401 H3386 0.959 . S
C3401 H3387 0.961 . S
C3401 C3400 1.502 . S
C3402 H3388 0.960 . S
C3402 H3389 0.961 . S
C3402 H3390 0.959 . S
C3402 C3400 1.561 . S
C3403 C3400 1.526 . S
C3403 C3404 1.396 . S
C3403 C3408 1.390 . S
C3404 C3398 1.465 . S
C3404 C3403 1.396 . S
C3404 C3405 1.399 . S
C3405 H3391 0.929 . S
C3405 C3404 1.399 . S
C3405 C3406 1.385 . S
C3406 H3392 0.931 . S
C3406 C3405 1.385 . S
C3406 C3407 1.389 . S
C3407 C3406 1.389 . S
C3407 C3408 1.387 . S
C3408 H3393 0.930 . S
C3408 C3403 1.390 . S
C3408 C3407 1.387 . S
H3409 C3421 0.930 . S
H3410 C3423 0.930 . S
H3411 C3424 0.930 . S
H3412 C3428 0.959 . S
H3413 C3428 0.959 . S
H3414 C3428 0.961 . S
H3415 C3429 0.960 . S
H3416 C3429 0.961 . S
H3417 C3429 0.959 . S
H3418 C3432 0.929 . S
H3419 C3433 0.931 . S
H3420 C3435 0.930 . S
C3421 H3409 0.930 . S
C3421 C3422 1.399 . S
C3421 C3426 1.399 . S
C3422 C3421 1.399 . S
C3422 C3423 1.376 . S
C3423 H3410 0.930 . S
C3423 C3422 1.376 . S
C3423 C3424 1.388 . S
C3424 H3411 0.930 . S
C3424 C3423 1.388 . S
C3424 C3425 1.390 . S
C3425 C3424 1.390 . S
C3425 C3426 1.394 . S
C3425 C3431 1.465 . S
C3426 C3421 1.399 . S
C3426 C3425 1.394 . S
C3426 C3427 1.516 . S
C3427 C3426 1.516 . S
C3427 C3428 1.502 . S
C3427 C3429 1.561 . S
C3427 C3430 1.526 . S
C3428 H3412 0.959 . S
C3428 H3413 0.959 . S
C3428 H3414 0.961 . S
C3428 C3427 1.502 . S
C3429 H3415 0.960 . S
C3429 H3416 0.961 . S
C3429 H3417 0.959 . S
C3429 C3427 1.561 . S
C3430 C3427 1.526 . S
C3430 C3431 1.396 . S
C3430 C3435 1.390 . S
C3431 C3425 1.465 . S
C3431 C3430 1.396 . S
C3431 C3432 1.399 . S
C3432 H3418 0.929 . S
C3432 C3431 1.399 . S
C3432 C3433 1.385 . S
C3433 H3419 0.931 . S
C3433 C3432 1.385 . S
C3433 C3434 1.389 . S
C3434 C3433 1.389 . S
C3434 C3435 1.387 . S
C3435 H3420 0.930 . S
C3435 C3430 1.390 . S
C3435 C3434 1.387 . S
H3436 C3448 0.930 . S
H3437 C3450 0.930 . S
H3438 C3451 0.930 . S
H3439 C3455 0.959 . S
H3440 C3455 0.959 . S
H3441 C3455 0.961 . S
H3442 C3456 0.960 . S
H3443 C3456 0.961 . S
H3444 C3456 0.959 . S
H3445 C3459 0.929 . S
H3446 C3460 0.931 . S
H3447 C3462 0.930 . S
C3448 H3436 0.930 . S
C3448 C3449 1.399 . S
C3448 C3453 1.399 . S
C3449 C3448 1.399 . S
C3449 C3450 1.376 . S
C3450 H3437 0.930 . S
C3450 C3449 1.376 . S
C3450 C3451 1.388 . S
C3451 H3438 0.930 . S
C3451 C3450 1.388 . S
C3451 C3452 1.390 . S
C3452 C3451 1.390 . S
C3452 C3453 1.394 . S
C3452 C3458 1.465 . S
C3453 C3448 1.399 . S
C3453 C3452 1.394 . S
C3453 C3454 1.516 . S
C3454 C3453 1.516 . S
C3454 C3455 1.502 . S
C3454 C3456 1.561 . S
C3454 C3457 1.526 . S
C3455 H3439 0.959 . S
C3455 H3440 0.959 . S
C3455 H3441 0.961 . S
C3455 C3454 1.502 . S
C3456 H3442 0.960 . S
C3456 H3443 0.961 . S
C3456 H3444 0.959 . S
C3456 C3454 1.561 . S
C3457 C3454 1.526 . S
C3457 C3458 1.396 . S
C3457 C3462 1.390 . S
C3458 C3452 1.465 . S
C3458 C3457 1.396 . S
C3458 C3459 1.399 . S
C3459 H3445 0.929 . S
C3459 C3458 1.399 . S
C3459 C3460 1.385 . S
C3460 H3446 0.931 . S
C3460 C3459 1.385 . S
C3460 C3461 1.389 . S
C3461 C3460 1.389 . S
C3461 C3462 1.387 . S
C3462 H3447 0.930 . S
C3462 C3457 1.390 . S
C3462 C3461 1.387 . S
H3463 C3475 0.930 . S
H3464 C3477 0.930 . S
H3465 C3478 0.930 1_556 S
H3466 C3482 0.959 . S
H3467 C3482 0.959 . S
H3468 C3482 0.961 . S
H3469 C3483 0.960 . S
H3470 C3483 0.961 . S
H3471 C3483 0.959 . S
H3472 C3486 0.929 . S
H3473 C3487 0.931 . S
H3474 C3489 0.930 . S
C3475 H3463 0.930 . S
C3475 C3476 1.399 . S
C3475 C3480 1.399 . S
C3476 C3475 1.399 . S
C3476 C3477 1.376 . S
C3477 H3464 0.930 . S
C3477 C3476 1.376 . S
C3477 C3478 1.388 . S
C3478 H3465 0.930 1_554 S
C3478 C3477 1.388 . S
C3478 C3479 1.390 . S
C3479 C3478 1.390 . S
C3479 C3480 1.394 . S
C3479 C3485 1.465 . S
C3480 C3475 1.399 . S
C3480 C3479 1.394 . S
C3480 C3481 1.516 . S
C3481 C3480 1.516 . S
C3481 C3482 1.502 . S
C3481 C3483 1.561 . S
C3481 C3484 1.526 . S
C3482 H3466 0.959 . S
C3482 H3467 0.959 . S
C3482 H3468 0.961 . S
C3482 C3481 1.502 . S
C3483 H3469 0.960 . S
C3483 H3470 0.961 . S
C3483 H3471 0.959 . S
C3483 C3481 1.561 . S
C3484 C3481 1.526 . S
C3484 C3485 1.396 . S
C3484 C3489 1.390 . S
C3485 C3479 1.465 . S
C3485 C3484 1.396 . S
C3485 C3486 1.399 1_554 S
C3486 H3472 0.929 . S
C3486 C3485 1.399 1_556 S
C3486 C3487 1.385 . S
C3487 H3473 0.931 . S
C3487 C3486 1.385 . S
C3487 C3488 1.389 1_556 S
C3488 C3487 1.389 1_554 S
C3488 C3489 1.387 . S
C3489 H3474 0.930 . S
C3489 C3484 1.390 . S
C3489 C3488 1.387 . S
H3490 C3502 0.930 . S
H3491 C3504 0.930 . S
H3492 C3505 0.930 . S
H3493 C3509 0.959 . S
H3494 C3509 0.959 . S
H3495 C3509 0.961 . S
H3496 C3510 0.960 . S
H3497 C3510 0.961 . S
H3498 C3510 0.959 . S
H3499 C3513 0.929 . S
H3500 C3514 0.931 . S
H3501 C3516 0.930 . S
C3502 H3490 0.930 . S
C3502 C3503 1.399 . S
C3502 C3507 1.399 . S
C3503 C3502 1.399 . S
C3503 C3504 1.376 . S
C3504 H3491 0.930 . S
C3504 C3503 1.376 . S
C3504 C3505 1.388 . S
C3505 H3492 0.930 . S
C3505 C3504 1.388 . S
C3505 C3506 1.390 . S
C3506 C3505 1.390 . S
C3506 C3507 1.394 . S
C3506 C3512 1.465 . S
C3507 C3502 1.399 . S
C3507 C3506 1.394 . S
C3507 C3508 1.516 . S
C3508 C3507 1.516 . S
C3508 C3509 1.502 . S
C3508 C3510 1.561 . S
C3508 C3511 1.526 . S
C3509 H3493 0.959 . S
C3509 H3494 0.959 . S
C3509 H3495 0.961 . S
C3509 C3508 1.502 . S
C3510 H3496 0.960 . S
C3510 H3497 0.961 . S
C3510 H3498 0.959 . S
C3510 C3508 1.561 . S
C3511 C3508 1.526 . S
C3511 C3512 1.396 . S
C3511 C3516 1.390 . S
C3512 C3506 1.465 . S
C3512 C3511 1.396 . S
C3512 C3513 1.399 . S
C3513 H3499 0.929 . S
C3513 C3512 1.399 . S
C3513 C3514 1.385 . S
C3514 H3500 0.931 . S
C3514 C3513 1.385 . S
C3514 C3515 1.389 . S
C3515 C3514 1.389 . S
C3515 C3516 1.387 . S
C3516 H3501 0.930 . S
C3516 C3511 1.390 . S
C3516 C3515 1.387 . S
H3517 C3529 0.930 . S
H3518 C3531 0.930 . S
H3519 C3532 0.930 . S
H3520 C3536 0.959 . S
H3521 C3536 0.959 . S
H3522 C3536 0.961 . S
H3523 C3537 0.960 . S
H3524 C3537 0.961 . S
H3525 C3537 0.959 . S
H3526 C3540 0.929 . S
H3527 C3541 0.931 . S
H3528 C3543 0.930 . S
C3529 H3517 0.930 . S
C3529 C3530 1.399 . S
C3529 C3534 1.399 . S
C3530 C3529 1.399 . S
C3530 C3531 1.376 . S
C3531 H3518 0.930 . S
C3531 C3530 1.376 . S
C3531 C3532 1.388 . S
C3532 H3519 0.930 . S
C3532 C3531 1.388 . S
C3532 C3533 1.390 . S
C3533 C3532 1.390 . S
C3533 C3534 1.394 . S
C3533 C3539 1.465 . S
C3534 C3529 1.399 . S
C3534 C3533 1.394 . S
C3534 C3535 1.516 . S
C3535 C3534 1.516 . S
C3535 C3536 1.502 . S
C3535 C3537 1.561 . S
C3535 C3538 1.526 . S
C3536 H3520 0.959 . S
C3536 H3521 0.959 . S
C3536 H3522 0.961 . S
C3536 C3535 1.502 . S
C3537 H3523 0.960 . S
C3537 H3524 0.961 . S
C3537 H3525 0.959 . S
C3537 C3535 1.561 . S
C3538 C3535 1.526 . S
C3538 C3539 1.396 . S
C3538 C3543 1.390 . S
C3539 C3533 1.465 . S
C3539 C3538 1.396 . S
C3539 C3540 1.399 . S
C3540 H3526 0.929 . S
C3540 C3539 1.399 . S
C3540 C3541 1.385 . S
C3541 H3527 0.931 . S
C3541 C3540 1.385 . S
C3541 C3542 1.389 . S
C3542 C3541 1.389 . S
C3542 C3543 1.387 . S
C3543 H3528 0.930 . S
C3543 C3538 1.390 . S
C3543 C3542 1.387 . S
C965 C101 2.333 . S
C977 C322 2.252 . S
C992 C57 2.020 . S
C1004 C370 2.066 . S
C1019 C73 1.332 . S
C1031 C402 1.414 . S
C1058 C447 1.527 . S
C1046 C78 1.530 . S
C1073 C21 0.963 . S
C1085 C487 0.985 . S
C1112 C522 1.078 . S
C1100 C31 1.079 . S
C1139 C561 1.174 . S
C1127 C49 1.175 . S
C1154 C0 1.180 . S
C1166 C598 1.170 . S
C1193 C330 2.050 . S
C1181 C218 2.042 1_545 S
C1208 C229 0.668 . S
C1220 C367 0.497 . S
C1247 C410 2.394 . S
C1235 C257 2.421 . S
C1274 C442 1.155 . S
C1262 C164 1.094 1_556 S
C1289 C216 1.294 . S
C1301 C482 1.310 . S
C1328 C530 0.344 . S
C1316 C231 0.544 . S
C1355 C571 1.965 1_556 S
C1343 C255 2.046 . S
C1382 C601 1.957 . S
C1370 C166 1.985 . S
C1409 C327 1.233 . S
C1397 C143 1.304 1_556 S
C1424 C265 2.118 . S
C1436 C650 2.152 . S
C1463 C687 1.108 . S
C1451 C299 1.157 . S
C1490 C718 0.608 . S
C1478 C291 0.514 . S
C1505 C104 2.688 . S
C1517 C611 2.640 . S
C1532 C117 1.300 . S
C1544 C407 1.409 . S
C1559 C304 1.660 . S
C1571 C770 1.672 . S
C1598 C802 1.780 . S
C1586 C278 1.750 . S
C1625 C331 2.247 . S
C1613 C60 2.322 . S
C1652 C801 1.967 . S
C1640 C96 1.932 . S
C1667 C88 1.309 . S
C1679 C411 1.284 . S
C1694 C65 1.541 . S
C1706 C758 1.529 . S
C1733 C478 0.871 1_655 S
C1721 C10 0.897 . S
C1748 C44 0.945 . S
C1760 C691 0.939 . S
C1787 C570 1.202 . S
C1775 C34 1.132 . S
C1814 C847 1.120 . S
C1802 C13 1.108 . S
C1841 C321 1.985 . S
C1829 C138 1.999 . S
C1868 C798 0.395 . S
C1856 C296 0.457 . S
C1883 C112 2.234 . S
C1895 C401 2.333 . S
C1910 C270 1.055 . S
C1922 C771 1.069 . S
C1937 C140 1.191 . S
C1949 C491 1.203 . S
C1976 C681 0.265 . S
C1964 C294 0.671 . S
C1991 C114 1.987 . S
C2003 C562 1.883 . S
C2018 C268 1.936 1_556 S
C2030 C850 1.975 . S
C2045 C169 1.421 . S
C2057 C318 1.396 . S
C2072 C161 2.039 . S
C2084 C641 2.070 . S
C2099 C234 1.154 . S
C2111 C518 1.154 . S
C2126 C226 0.524 . S
C2138 C727 0.641 . S
C2165 C842 2.604 . S
C2153 C247 2.605 . S
C2180 C195 1.315 . S
C2192 C398 1.301 . S
C2219 C441 1.609 . S
C2207 C239 1.604 . S
C2246 C371 1.700 . S
C2234 C187 1.637 . S
C2261 C75 2.339 . S
C2273 C882 2.262 . S
C2300 C810 2.055 . S
C2288 C83 2.038 . S
C2315 C99 1.352 . S
C2327 C922 1.404 . S
C2342 C52 1.471 1_655 S
C2354 C767 1.572 . S
C2369 C47 0.952 . S
C2381 C647 0.992 . S
C2408 C682 1.049 . S
C2396 C5 0.956 . S
C2435 C721 1.162 . S
C2423 C23 1.193 . S
C2462 C838 1.153 . S
C2450 C26 1.093 . S
C2489 C890 2.046 . S
C2477 C244 2.038 . S
C2504 C177 0.692 . S
C2516 C807 0.472 . S
C2543 C930 2.385 . S
C2531 C192 2.422 . S
C2570 C762 1.153 . S
C2558 C203 1.089 . S
C2597 C642 1.310 . S
C2585 C242 1.294 . S
C2612 C179 0.545 . S
C2624 C690 0.344 . S
C2651 C731 1.967 . S
C2639 C190 2.044 . S
C2666 C205 1.985 . S
C2678 C841 1.960 . S
C2705 C887 1.299 . S
C2693 C286 1.222 . S
C2720 C122 2.102 . S
C2732 C490 2.168 . S
C2759 C527 1.106 . S
C2747 C130 1.164 . S
C2786 C558 0.625 . S
C2774 C148 0.524 . S
C2813 C851 2.674 . S
C2801 C273 2.660 . S
C2828 C260 1.376 . S
C2840 C927 1.356 . S
C2867 C450 1.677 . S
C2855 C135 1.649 . S
C2894 C362 1.811 . S
C2882 C109 1.800 . S
C2909 C86 2.324 . S
C2921 C891 2.249 . S
C2948 C361 1.967 . S
C2936 C70 1.933 . S
C2963 C62 1.326 . S
C2975 C931 1.329 . S
C2990 C91 1.546 . S
C3002 C438 1.526 . S
C3017 C36 0.895 . S
C3029 C638 0.886 . S
C3056 C531 0.939 . S
C3044 C18 0.909 . S
C3071 C8 1.190 . S
C3083 C730 1.164 . S
C3098 C39 1.127 . S
C3110 C607 1.142 . S
C3137 C881 1.981 . S
C3125 C307 1.997 . S
C3152 C153 0.512 . S
C3164 C358 0.378 . S
C3191 C921 2.306 . S
C3179 C281 2.256 . S
C3206 C127 1.040 . S
C3218 C451 1.005 . S
C3233 C309 1.186 . S
C3245 C651 1.170 . S
C3272 C521 0.358 . S
C3260 C151 0.572 . S
C3287 C283 1.985 . S
C3299 C722 1.895 1_655 S
C3326 C610 1.961 . S
C3314 C125 1.952 . S
C3353 C878 1.288 . S
C3341 C221 1.453 . S
C3380 C481 2.066 1_565 S
C3368 C200 2.042 . S
C3395 C208 1.145 . S
C3407 C678 1.122 . S
C3434 C567 0.641 . S
C3422 C174 0.524 . S
C3449 C182 2.582 . S
C3461 C602 2.583 . S
C3476 C156 1.354 . S
C3488 C918 1.359 . S
C3515 C761 1.583 . S
C3503 C213 1.618 . S
C3542 C811 1.707 . S
C3530 C252 1.668 . S
