# Generated by pormake.
# Topology zzz, (3,6)-cn, num edge types: 1
# Building blocks:
#     Node 0, Type 0, BuildingBlock: OLANEW_clean_sbu_2, # of connection points: 3
#     Node 1, Type 0, BuildingBlock: OLANEW_clean_sbu_2, # of connection points: 3
#     Node 2, Type 0, BuildingBlock: OLANEW_clean_sbu_2, # of connection points: 3
#     Node 3, Type 0, BuildingBlock: OLANEW_clean_sbu_2, # of connection points: 3
#     Node 4, Type 0, BuildingBlock: OLANEW_clean_sbu_2, # of connection points: 3
#     Node 5, Type 0, BuildingBlock: OLANEW_clean_sbu_2, # of connection points: 3
#     Node 6, Type 0, BuildingBlock: OLANEW_clean_sbu_2, # of connection points: 3
#     Node 7, Type 0, BuildingBlock: OLANEW_clean_sbu_2, # of connection points: 3
#     Node 8, Type 1, BuildingBlock: BETDIP_clean_sbu_0, # of connection points: 6
#     Node 9, Type 1, BuildingBlock: BETDIP_clean_sbu_0, # of connection points: 6
#     Node 10, Type 1, BuildingBlock: BETDIP_clean_sbu_0, # of connection points: 6
#     Node 11, Type 1, BuildingBlock: BETDIP_clean_sbu_0, # of connection points: 6
#     Edge 12, Type (0, 1), BuildingBlock: XIVTED_clean_linker_0, # of connection points: 2
#     Edge 13, Type (0, 1), BuildingBlock: XIVTED_clean_linker_0, # of connection points: 2
#     Edge 14, Type (0, 1), BuildingBlock: XIVTED_clean_linker_0, # of connection points: 2
#     Edge 15, Type (0, 1), BuildingBlock: XIVTED_clean_linker_0, # of connection points: 2
#     Edge 16, Type (0, 1), BuildingBlock: XIVTED_clean_linker_0, # of connection points: 2
#     Edge 17, Type (0, 1), BuildingBlock: XIVTED_clean_linker_0, # of connection points: 2
#     Edge 18, Type (0, 1), BuildingBlock: XIVTED_clean_linker_0, # of connection points: 2
#     Edge 19, Type (0, 1), BuildingBlock: XIVTED_clean_linker_0, # of connection points: 2
#     Edge 20, Type (0, 1), BuildingBlock: XIVTED_clean_linker_0, # of connection points: 2
#     Edge 21, Type (0, 1), BuildingBlock: XIVTED_clean_linker_0, # of connection points: 2
#     Edge 22, Type (0, 1), BuildingBlock: XIVTED_clean_linker_0, # of connection points: 2
#     Edge 23, Type (0, 1), BuildingBlock: XIVTED_clean_linker_0, # of connection points: 2
#     Edge 24, Type (0, 1), BuildingBlock: XIVTED_clean_linker_0, # of connection points: 2
#     Edge 25, Type (0, 1), BuildingBlock: XIVTED_clean_linker_0, # of connection points: 2
#     Edge 26, Type (0, 1), BuildingBlock: XIVTED_clean_linker_0, # of connection points: 2
#     Edge 27, Type (0, 1), BuildingBlock: XIVTED_clean_linker_0, # of connection points: 2
#     Edge 28, Type (0, 1), BuildingBlock: XIVTED_clean_linker_0, # of connection points: 2
#     Edge 29, Type (0, 1), BuildingBlock: XIVTED_clean_linker_0, # of connection points: 2
#     Edge 30, Type (0, 1), BuildingBlock: XIVTED_clean_linker_0, # of connection points: 2
#     Edge 31, Type (0, 1), BuildingBlock: XIVTED_clean_linker_0, # of connection points: 2
#     Edge 32, Type (0, 1), BuildingBlock: XIVTED_clean_linker_0, # of connection points: 2
#     Edge 33, Type (0, 1), BuildingBlock: XIVTED_clean_linker_0, # of connection points: 2
#     Edge 34, Type (0, 1), BuildingBlock: XIVTED_clean_linker_0, # of connection points: 2
#     Edge 35, Type (0, 1), BuildingBlock: XIVTED_clean_linker_0, # of connection points: 2
# Relax obj value: 0.242
# Max RMSD: 0.169
# Mean RMSD: 0.158
data_MOF--net-zzz--node1-OLANEW_clean_sbu_2--node2-BETDIP_clean_sbu_0--edge1-XIVTED_clean_linker_0
_symmetry_space_group_name_H-M    P1
_symmetry_Int_Tables_number       1
_symmetry_cell_setting            triclinic
loop_
_symmetry_equiv_pos_as_xyz
'x, y, z'
_cell_length_a     56.332208
_cell_length_b     56.359549
_cell_length_c     15.39618
_cell_angle_alpha  89.7323
_cell_angle_beta   89.906924
_cell_angle_gamma 89.987235
loop_
_atom_site_label
_atom_site_type_symbol
_atom_site_fract_x
_atom_site_fract_y
_atom_site_fract_z
_atom_type_partial_charge
O0 O 0.72809 0.62802 0.2077 0.0
Cd1 Cd 0.68872 0.64269 0.24651 0.0
O2 O 0.72194 0.59794 0.29604 0.0
Cd3 Cd 0.73593 0.56648 0.36209 0.0
O4 O 0.76528 0.54454 0.40789 0.0
C5 C 0.77112 0.54525 0.48747 0.0
O6 O 0.75831 0.55804 0.54114 0.0
C7 C 0.735 0.60851 0.24054 0.0
C8 C 0.65533 0.61598 0.15645 0.0
O9 O 0.66432 0.63484 0.12325 0.0
O10 O 0.66163 0.61007 0.23353 0.0
O11 O 0.85771 0.72242 0.13322 0.0
Cd12 Cd 0.84479 0.68346 0.1855 0.0
O13 O 0.88757 0.72022 0.22466 0.0
Cd14 Cd 0.9172 0.73934 0.28338 0.0
O15 O 0.93336 0.7724 0.32719 0.0
C16 C 0.92476 0.78155 0.3956 0.0
O17 O 0.90785 0.77016 0.43739 0.0
C18 C 0.87652 0.73123 0.1649 0.0
C19 C 0.87029 0.6482 0.09964 0.0
O20 O 0.85043 0.65576 0.06991 0.0
O21 O 0.87788 0.65699 0.17101 0.0
O22 O 0.77658 0.85672 0.12961 0.0
Cd23 Cd 0.81586 0.8399 0.15401 0.0
O24 O 0.78038 0.87637 0.25165 0.0
Cd25 Cd 0.76511 0.89997 0.34921 0.0
O26 O 0.73761 0.92003 0.41668 0.0
C27 C 0.71646 0.91541 0.39376 0.0
O28 O 0.7128 0.89875 0.33593 0.0
C29 C 0.76867 0.87188 0.18309 0.0
C30 C 0.84747 0.86856 0.06238 0.0
O31 O 0.83863 0.8499 0.02787 0.0
O32 O 0.84205 0.87315 0.14141 0.0
O33 O 0.63423 0.77542 0.17289 0.0
Cd34 Cd 0.65048 0.81504 0.19511 0.0
O35 O 0.62211 0.77357 0.3086 0.0
Cd36 Cd 0.60568 0.75265 0.4125 0.0
O37 O 0.59024 0.72204 0.47921 0.0
C38 C 0.59518 0.70169 0.44885 0.0
O39 O 0.60974 0.70017 0.38236 0.0
C40 C 0.62344 0.76445 0.23337 0.0
C41 C 0.62543 0.84707 0.09149 0.0
O42 O 0.64414 0.83672 0.0631 0.0
O43 O 0.61885 0.84265 0.16962 0.0
O44 O 0.25813 0.57409 0.3181 0.0
Cd45 Cd 0.29826 0.58727 0.283 0.0
O46 O 0.25551 0.55523 0.19404 0.0
Cd47 Cd 0.23566 0.53258 0.10536 0.0
O48 O 0.20231 0.51919 0.05397 0.0
C49 C 0.1954 0.52505 0.97842 0.0
O50 O 0.20941 0.538 0.92901 0.0
C51 C 0.24611 0.56174 0.26527 0.0
C52 C 0.33245 0.56504 0.38518 0.0
O53 O 0.32069 0.58288 0.41342 0.0
O54 O 0.32802 0.55756 0.30842 0.0
O55 O 0.0743 0.26423 0.29587 0.0
Cd56 Cd 0.08838 0.30409 0.26054 0.0
O57 O 0.07846 0.25296 0.16028 0.0
Cd58 Cd 0.0724 0.2267 0.05854 0.0
O59 O 0.06093 0.19545 0.98669 0.0
C60 C 0.04353 0.18378 0.01752 0.0
O61 O 0.03303 0.19143 0.0883 0.0
C62 C 0.07274 0.24821 0.23839 0.0
C63 C 0.06593 0.33776 0.36441 0.0
O64 O 0.05735 0.33201 0.29038 0.0
O65 O 0.08521 0.32771 0.38896 0.0
O66 O 0.24101 0.95205 0.24696 0.0
Cd67 Cd 0.20192 0.94241 0.19004 0.0
O68 O 0.24607 0.98002 0.14902 0.0
Cd69 Cd 0.27001 0.00367 0.07849 0.0
O70 O 0.30574 0.01281 0.03633 0.0
C71 C 0.31118 0.01137 0.95652 0.0
O72 O 0.2946 0.00591 0.90012 0.0
C73 C 0.25389 0.96814 0.21338 0.0
C74 C 0.16612 0.95786 0.30039 0.0
O75 O 0.17741 0.93855 0.31555 0.0
O76 O 0.17171 0.96997 0.23272 0.0
O77 O 0.43444 0.23343 0.28385 0.0
Cd78 Cd 0.41943 0.19495 0.2374 0.0
O79 O 0.40442 0.25196 0.2227 0.0
Cd80 Cd 0.39017 0.28602 0.17967 0.0
O81 O 0.40147 0.32108 0.13638 0.0
C82 C 0.4192 0.32097 0.08529 0.0
O83 O 0.42818 0.30048 0.06138 0.0
C84 C 0.42355 0.25258 0.26635 0.0
C85 C 0.44183 0.15934 0.33267 0.0
O86 O 0.45021 0.1662 0.2593 0.0
O87 O 0.42265 0.16904 0.35996 0.0
Tb88 Tb 0.98854 0.97383 0.77519 0.0
Tb89 Tb 0.97585 0.99693 0.60215 0.0
C90 C 0.98751 0.94904 0.91098 0.0
C91 C 0.97529 0.92679 0.9342 0.0
C92 C 0.96405 0.92457 0.01513 0.0
C93 C 0.95216 0.90362 0.03748 0.0
C94 C 0.95126 0.88452 0.97898 0.0
C95 C 0.96214 0.88706 0.89717 0.0
C96 C 0.97411 0.90791 0.87521 0.0
C97 C 0.02495 0.9844 0.67484 0.0
C98 C 0.97143 0.94242 0.61373 0.0
C99 C 0.97466 0.02203 0.46704 0.0
C100 C 0.98558 0.04466 0.4404 0.0
C101 C 0.00899 0.05035 0.46382 0.0
C102 C 0.01873 0.07229 0.44028 0.0
C103 C 0.00512 0.08899 0.39403 0.0
C104 C 0.98171 0.08321 0.37075 0.0
C105 C 0.97207 0.06119 0.3935 0.0
C106 C 0.93967 0.9847 0.70201 0.0
C107 C 0.99364 0.02811 0.76304 0.0
O108 O 0.97372 0.96739 0.89822 0.0
O109 O 0.00432 0.94753 0.85238 0.0
O110 O 0.00503 0.97686 0.65048 0.0
O111 O 0.02563 0.98445 0.75906 0.0
O112 O 0.97293 0.945 0.69909 0.0
O113 O 0.9751 0.96029 0.55929 0.0
O114 O 0.98904 0.00397 0.47748 0.0
O115 O 0.95883 0.02346 0.52914 0.0
O116 O 0.95929 0.99314 0.72548 0.0
O117 O 0.93924 0.98443 0.61785 0.0
O118 O 0.99232 0.02565 0.67752 0.0
O119 O 0.98974 0.01025 0.81693 0.0
H120 H 0.96459 0.93902 0.06127 0.0
H121 H 0.94412 0.90222 0.10123 0.0
H122 H 0.96136 0.87294 0.84979 0.0
H123 H 0.98248 0.90919 0.81204 0.0
H124 H 0.01968 0.03798 0.50105 0.0
H125 H 0.03671 0.07639 0.45993 0.0
H126 H 0.97089 0.09568 0.33453 0.0
H127 H 0.95396 0.05715 0.37515 0.0
Tb128 Tb 0.53652 0.00236 0.79944 0.0
Tb129 Tb 0.51801 0.99269 0.617 0.0
C130 C 0.55857 0.99915 0.94038 0.0
C131 C 0.58015 0.98637 0.96896 0.0
C132 C 0.57811 0.96732 0.02767 0.0
C133 C 0.59819 0.9546 0.0537 0.0
C134 C 0.6208 0.96085 0.02232 0.0
C135 C 0.62286 0.98 0.96395 0.0
C136 C 0.60275 0.99259 0.93733 0.0
C137 C 0.5251 0.04002 0.70813 0.0
C138 C 0.5718 0.99192 0.64107 0.0
C139 C 0.49622 0.99438 0.47476 0.0
C140 C 0.47121 0.99167 0.45001 0.0
C141 C 0.463 0.00173 0.37232 0.0
C142 C 0.43915 -0.00055 0.34873 0.0
C143 C 0.42316 0.98704 0.40258 0.0
C144 C 0.4315 0.97714 0.48081 0.0
C145 C 0.45531 0.97947 0.50439 0.0
C146 C 0.52927 0.95496 0.71025 0.0
C147 C 0.48168 0.00217 0.77476 0.0
O148 O 0.54036 0.9858 0.92068 0.0
O149 O 0.56143 0.01676 0.88534 0.0
O150 O 0.53494 0.02154 0.67992 0.0
O151 O 0.52298 0.03861 0.79189 0.0
O152 O 0.56746 0.9895 0.72542 0.0
O153 O 0.55493 0.99814 0.58602 0.0
O154 O 0.50109 0.01313 0.52116 0.0
O155 O 0.50665 0.97527 0.50465 0.0
O156 O 0.51955 0.97366 0.73652 0.0
O157 O 0.53162 0.95628 0.62662 0.0
O158 O 0.48552 -8e-05 0.69025 0.0
O159 O 0.49906 0.00158 0.83253 0.0
H160 H 0.56091 0.96217 0.05312 0.0
H161 H 0.59605 0.94003 0.09917 0.0
H162 H 0.63999 0.98501 0.93763 0.0
H163 H 0.60496 0.00707 0.89153 0.0
H164 H 0.47504 0.01129 0.32983 0.0
H165 H 0.4333 0.0071 0.28773 0.0
H166 H 0.41956 0.9678 0.5243 0.0
H167 H 0.46129 0.97178 0.56515 0.0
Tb168 Tb 0.50315 0.52462 0.86741 0.0
Tb169 Tb 0.51566 0.49976 0.69867 0.0
C170 C 0.5047 0.54944 0.00231 0.0
C171 C 0.51751 0.57115 0.02883 0.0
C172 C 0.53706 0.5695 0.08516 0.0
C173 C 0.5494 0.58987 0.11015 0.0
C174 C 0.5421 0.61234 0.08074 0.0
C175 C 0.52245 0.61402 0.02502 0.0
C176 C 0.51031 0.59365 0.99913 0.0
C177 C 0.46707 0.51688 0.76284 0.0
C178 C 0.52425 0.5539 0.70558 0.0
C179 C 0.51624 0.47488 0.56362 0.0
C180 C 0.50595 0.45215 0.53404 0.0
C181 C 0.482 0.45045 0.50926 0.0
C182 C 0.47279 0.42898 0.47915 0.0
C183 C 0.48729 0.40871 0.47315 0.0
C184 C 0.51123 0.41048 0.49807 0.0
C185 C 0.52046 0.43197 0.52768 0.0
C186 C 0.55167 0.50948 0.8017 0.0
C187 C 0.49319 0.47076 0.85857 0.0
O188 O 0.51765 0.53041 0.99083 0.0
O189 O 0.48842 0.55185 0.94223 0.0
O190 O 0.48783 0.52262 0.74056 0.0
O191 O 0.4656 0.51708 0.84692 0.0
O192 O 0.52122 0.55229 0.79089 0.0
O193 O 0.52006 0.53585 0.65322 0.0
O194 O 0.50158 0.49263 0.57572 0.0
O195 O 0.53239 0.47351 0.62454 0.0
O196 O 0.53124 0.50271 0.82397 0.0
O197 O 0.55289 0.50933 0.71766 0.0
O198 O 0.49707 0.47233 0.77381 0.0
O199 O 0.49695 0.48871 0.91167 0.0
H200 H 0.5428 0.55244 0.11006 0.0
H201 H 0.56439 0.58808 0.15372 0.0
H202 H 0.5166 0.6311 0.00062 0.0
H203 H 0.4953 0.59562 0.95585 0.0
H204 H 0.47036 0.46572 0.51244 0.0
H205 H 0.45437 0.4284 0.45926 0.0
H206 H 0.52285 0.39519 0.49554 0.0
H207 H 0.53904 0.43278 0.54562 0.0
Tb208 Tb 0.97278 0.49552 0.83304 0.0
Tb209 Tb 0.98633 0.50504 0.64421 0.0
C210 C 0.95292 0.49828 0.97839 0.0
C211 C 0.93034 0.50893 0.00757 0.0
C212 C 0.93061 0.52677 0.07085 0.0
C213 C 0.90954 0.5379 0.09627 0.0
C214 C 0.88775 0.53132 0.05902 0.0
C215 C 0.88755 0.51348 0.99542 0.0
C216 C 0.9086 0.50239 0.97004 0.0
C217 C 0.98751 0.45853 0.74542 0.0
C218 C 0.93339 0.49885 0.68373 0.0
C219 C 0.00656 0.50417 0.49872 0.0
C220 C 0.03082 0.51035 0.47154 0.0
C221 C 0.04082 0.49994 0.39756 0.0
C222 C 0.06432 0.50496 0.37414 0.0
C223 C 0.07821 0.52034 0.42486 0.0
C224 C 0.06797 0.53085 0.49863 0.0
C225 C 0.04451 0.52592 0.52165 0.0
C226 C 0.97118 0.54206 0.73215 0.0
C227 C 0.02628 0.50367 0.79464 0.0
O228 O 0.96894 0.51342 0.95117 0.0
O229 O 0.95155 0.47949 0.92865 0.0
O230 O 0.97472 0.47512 0.71698 0.0
O231 O 0.99102 0.46127 0.82805 0.0
O232 O 0.93914 0.5028 0.76592 0.0
O233 O 0.94976 0.49463 0.62401 0.0
O234 O 0.00486 0.48563 0.54985 0.0
O235 O 0.99341 0.52187 0.52538 0.0
O236 O 0.98399 0.52539 0.75977 0.0
O237 O 0.96793 0.53925 0.6495 0.0
O238 O 0.02079 0.50429 0.71089 0.0
O239 O 0.01001 0.50209 0.85631 0.0
H240 H 0.94718 0.53222 0.10027 0.0
H241 H 0.91031 0.55144 0.14587 0.0
H242 H 0.87115 0.5083 0.96419 0.0
H243 H 0.90782 0.48888 0.92034 0.0
H244 H 0.03055 0.48775 0.35852 0.0
H245 H 0.07176 0.49642 0.3174 0.0
H246 H 0.07806 0.54301 0.53841 0.0
H247 H 0.03712 0.53415 0.57912 0.0
H248 H 0.16076 0.94787 0.47266 0.0
H249 H 0.02689 0.98126 0.49822 0.0
H250 H 0.12752 0.98504 0.25952 0.0
H251 H 0.0713 0.98816 0.72455 0.0
H252 H 0.06243 0.97919 0.40729 0.0
H253 H 0.12713 0.95856 0.56585 0.0
C254 C 0.14643 0.95837 0.44571 0.0
C255 C 0.14679 0.96552 0.35837 0.0
C256 C 0.06435 0.98155 0.47671 0.0
C257 C 0.10833 0.97741 0.46376 0.0
C258 C 0.04409 0.98285 0.52856 0.0
C259 C 0.04616 0.98516 0.61881 0.0
C260 C 0.08679 0.98179 0.51586 0.0
C261 C 0.06895 0.98644 0.65509 0.0
C262 C 0.12738 0.96457 0.49893 0.0
C263 C 0.12788 0.97922 0.32663 0.0
N264 N 0.08845 0.98433 0.60357 0.0
N265 N 0.10915 0.98441 0.37901 0.0
H266 H 0.48121 0.13332 0.28932 0.0
H267 H 0.49008 0.07046 0.75551 0.0
H268 H 0.43084 0.14431 0.49694 0.0
H269 H 0.53419 0.05094 0.53813 0.0
H270 H 0.46977 0.09946 0.66348 0.0
H271 H 0.50213 0.10446 0.38053 0.0
C272 C 0.47451 0.12963 0.35397 0.0
C273 C 0.45424 0.14125 0.38558 0.0
C274 C 0.48389 0.08887 0.63573 0.0
C275 C 0.47818 0.10841 0.49037 0.0
C276 C 0.49556 0.07243 0.68837 0.0
C277 C 0.51369 0.05829 0.65393 0.0
C278 C 0.49055 0.09132 0.54817 0.0
C279 C 0.52012 0.06145 0.56668 0.0
C280 C 0.48647 0.11316 0.40597 0.0
C281 C 0.44637 0.13577 0.46982 0.0
N282 N 0.50853 0.07764 0.51658 0.0
N283 N 0.4584 0.11981 0.51933 0.0
H284 H 0.37039 0.53853 0.33136 0.0
H285 H 0.42042 0.51621 0.8095 0.0
H286 H 0.33678 0.56631 0.56152 0.0
H287 H 0.46639 0.52257 0.58624 0.0
H288 H 0.38621 0.52447 0.71604 0.0
H289 H 0.40258 0.5227 0.42214 0.0
C290 C 0.36966 0.54105 0.40101 0.0
C291 C 0.35104 0.5539 0.43909 0.0
C292 C 0.40379 0.52374 0.68753 0.0
C293 C 0.38742 0.53563 0.54266 0.0
C294 C 0.42327 0.51896 0.74058 0.0
C295 C 0.44625 0.51879 0.70542 0.0
C296 C 0.40732 0.52803 0.59861 0.0
C297 C 0.44896 0.52242 0.61576 0.0
C298 C 0.38802 0.53211 0.45251 0.0
C299 C 0.35094 0.55671 0.52956 0.0
N300 N 0.4297 0.52696 0.56528 0.0
N301 N 0.36885 0.54762 0.57836 0.0
H302 H 0.02604 0.36374 0.32776 0.0
H303 H 0.02394 0.42904 0.78903 0.0
H304 H 0.07824 0.35183 0.52828 0.0
H305 H 0.97566 0.44566 0.5804 0.0
H306 H 0.04286 0.39918 0.69699 0.0
H307 H 0.00631 0.39259 0.42137 0.0
C308 C 0.03336 0.36718 0.39147 0.0
C309 C 0.05385 0.35536 0.42017 0.0
C310 C 0.02813 0.40934 0.67125 0.0
C311 C 0.03129 0.38833 0.52782 0.0
C312 C 0.01728 0.42629 0.72387 0.0
C313 C 0.99837 0.43987 0.6918 0.0
C314 C 0.01986 0.40586 0.58616 0.0
C315 C 0.99038 0.43567 0.6071 0.0
C316 C 0.02208 0.38367 0.4449 0.0
C317 C 0.06252 0.36055 0.50339 0.0
N318 N 0.0012 0.41905 0.55706 0.0
N319 N 0.05119 0.37662 0.55427 0.0
H320 H 0.86397 0.86273 0.8966 0.0
H321 H 0.93141 0.98764 0.87637 0.0
H322 H 0.86515 0.91177 0.11117 0.0
H323 H 0.91486 0.94579 0.65082 0.0
H324 H 0.91056 0.95846 0.96761 0.0
H325 H 0.88679 0.89112 0.80993 0.0
C326 C 0.86905 0.87945 0.92555 0.0
C327 C 0.86248 0.88496 0.01105 0.0
C328 C 0.91141 0.95574 0.8981 0.0
C329 C 0.88849 0.91758 0.91202 0.0
C330 C 0.92329 0.97233 0.84626 0.0
C331 C 0.925 0.96892 0.75645 0.0
C332 C 0.90116 0.93567 0.85945 0.0
C333 C 0.9139 0.94907 0.71997 0.0
C334 C 0.88203 0.89567 0.87597 0.0
C335 C 0.86974 0.90683 0.04539 0.0
N336 N 0.9026 0.93309 0.77169 0.0
N337 N 0.88232 0.92237 0.99569 0.0
H338 H 0.63403 0.85888 0.9217 0.0
H339 H 0.52075 0.94426 0.88032 0.0
H340 H 0.58516 0.87197 0.13242 0.0
H341 H 0.56746 0.92779 0.66693 0.0
H342 H 0.54452 0.91849 0.97495 0.0
H343 H 0.61039 0.88488 0.82855 0.0
C344 C 0.61832 0.86722 0.94842 0.0
C345 C 0.61154 0.86318 0.03499 0.0
C346 C 0.54954 0.92044 0.90738 0.0
C347 C 0.58433 0.89297 0.92849 0.0
C348 C 0.53604 0.93518 0.85359 0.0
C349 C 0.54231 0.9382 0.7662 0.0
C350 C 0.56942 0.90862 0.87322 0.0
C351 C 0.562 0.92581 0.73403 0.0
C352 C 0.60481 0.88206 0.89513 0.0
C353 C 0.59104 0.87453 0.06607 0.0
N354 N 0.57492 0.91163 0.78765 0.0
N355 N 0.57816 0.8889 0.01286 0.0
H356 H 0.64364 0.62045 0.98509 0.0
H357 H 0.55902 0.50617 0.97709 0.0
H358 H 0.63003 0.57711 0.2117 0.0
H359 H 0.58021 0.5456 0.74924 0.0
H360 H 0.58366 0.53251 0.0663 0.0
H361 H 0.61843 0.59425 0.89985 0.0
C362 C 0.63528 0.60545 0.01704 0.0
C363 C 0.63903 0.60091 0.10561 0.0
C364 C 0.58291 0.53536 0.99677 0.0
C365 C 0.6102 0.57069 0.00809 0.0
C366 C 0.56887 0.52038 0.94609 0.0
C367 C 0.56752 0.52388 0.85613 0.0
C368 C 0.59546 0.55404 0.95692 0.0
C369 C 0.58082 0.54228 0.81853 0.0
C370 C 0.62093 0.59044 0.96822 0.0
C371 C 0.62769 0.58122 0.14349 0.0
N372 N 0.59409 0.55676 0.86915 0.0
N373 N 0.6138 0.5668 0.09448 0.0
H374 H 0.91362 0.62938 0.14288 0.0
H375 H 0.92797 0.56056 0.69241 0.0
H376 H 0.85938 0.62696 0.94533 0.0
H377 H 0.98007 0.5575 0.89689 0.0
H378 H 0.90239 0.58447 0.78572 0.0
H379 H 0.93782 0.60222 0.05644 0.0
C380 C 0.90675 0.62307 0.08152 0.0
C381 C 0.8845 0.6306 0.051 0.0
C382 C 0.91939 0.57858 0.81046 0.0
C383 C 0.91219 0.59967 0.95148 0.0
C384 C 0.93406 0.56508 0.75696 0.0
C385 C 0.95612 0.55715 0.78726 0.0
C386 C 0.92698 0.58445 0.89456 0.0
C387 C 0.96307 0.5632 0.87163 0.0
C388 C 0.92059 0.60758 0.03218 0.0
C389 C 0.87647 0.62176 0.97121 0.0
N390 N 0.94857 0.57659 0.92238 0.0
N391 N 0.89036 0.60689 0.92406 0.0
H392 H 0.08953 0.20498 0.18756 0.0
H393 H 0.98427 0.13243 0.41369 0.0
H394 H 0.03545 0.23787 0.3446 0.0
H395 H 0.04866 0.09916 0.32341 0.0
H396 H 0.00102 0.17123 0.37669 0.0
H397 H 0.07334 0.16591 0.22579 0.0
C398 C 0.07413 0.20392 0.22958 0.0
C399 C 0.06352 0.22458 0.26197 0.0
C400 C 0.01151 0.15545 0.36513 0.0
C401 C 0.04502 0.18014 0.30627 0.0
C402 C 0.00191 0.13331 0.38568 0.0
C403 C 0.01511 0.11258 0.37155 0.0
C404 C 0.03441 0.15688 0.32927 0.0
C405 C 0.03798 0.11474 0.336 0.0
C406 C 0.06503 0.18167 0.25197 0.0
C407 C 0.04401 0.22231 0.31796 0.0
N408 N 0.04687 0.1365 0.31565 0.0
N409 N 0.03523 0.20048 0.33772 0.0
H410 H 0.27858 0.00984 0.22857 0.0
H411 H 0.39557 0.94719 0.4149 0.0
H412 H 0.28438 0.93454 0.27467 0.0
H413 H 0.39332 0.02041 0.33194 0.0
H414 H 0.35403 0.94283 0.37273 0.0
H415 H 0.31987 0.01466 0.27412 0.0
C416 C 0.28869 0.99427 0.24695 0.0
C417 C 0.27834 0.97166 0.24513 0.0
C418 C 0.3626 0.95986 0.36372 0.0
C419 C 0.32526 0.97711 0.30052 0.0
C420 C 0.38628 0.9624 0.38826 0.0
C421 C 0.39793 0.98421 0.37702 0.0
C422 C 0.35038 0.9793 0.32801 0.0
C423 C 0.38511 0.00321 0.34092 0.0
C424 C 0.31216 0.99706 0.27387 0.0
C425 C 0.29179 0.95226 0.27427 0.0
N426 N 0.36201 0.00032 0.31787 0.0
N427 N 0.3146 0.95541 0.30041 0.0
H428 H 0.46973 0.26725 0.26164 0.0
H429 H 0.44325 0.38951 0.5043 0.0
H430 H 0.39961 0.28953 0.33844 0.0
H431 H 0.50898 0.3756 0.36899 0.0
H432 H 0.42766 0.35185 0.45171 0.0
H433 H 0.48543 0.30564 0.30978 0.0
C434 C 0.45768 0.28028 0.28853 0.0
C435 C 0.43334 0.27549 0.29497 0.0
C436 C 0.44548 0.35707 0.43335 0.0
C437 C 0.45104 0.31912 0.35088 0.0
C438 C 0.45437 0.37866 0.463 0.0
C439 C 0.47751 0.38583 0.44115 0.0
C440 C 0.45984 0.34237 0.38197 0.0
C441 C 0.4912 0.37069 0.38879 0.0
C442 C 0.46658 0.30217 0.3156 0.0
C443 C 0.41843 0.29281 0.33065 0.0
N444 N 0.48219 0.34966 0.36123 0.0
N445 N 0.42752 0.31385 0.35747 0.0
H446 H 0.20754 0.56104 0.15769 0.0
H447 H 0.11656 0.52326 0.53348 0.0
H448 H 0.22835 0.54893 0.42349 0.0
H449 H 0.09706 0.52896 0.26317 0.0
H450 H 0.15748 0.533 0.49472 0.0
H451 H 0.16695 0.54944 0.19479 0.0
C452 C 0.20364 0.55542 0.2235 0.0
C453 C 0.22145 0.55511 0.287 0.0
C454 C 0.14428 0.53208 0.4438 0.0
C455 C 0.17483 0.54286 0.33105 0.0
C456 C 0.12087 0.52665 0.46595 0.0
C457 C 0.1033 0.52542 0.40151 0.0
C458 C 0.15022 0.53643 0.35655 0.0
C459 C 0.11004 0.52953 0.31488 0.0
C460 C 0.1804 0.54911 0.24496 0.0
C461 C 0.21515 0.5491 0.37243 0.0
N462 N 0.13293 0.53495 0.295 0.0
N463 N 0.19237 0.54315 0.39196 0.0
H464 H 0.85304 0.77345 0.14237 0.0
H465 H 0.9662 0.83936 0.94331 0.0
H466 H 0.92145 0.74018 0.11273 0.0
H467 H 0.91023 0.87773 0.07278 0.0
H468 H 0.94686 0.80217 0.98316 0.0
H469 H 0.87061 0.81144 0.09479 0.0
C470 C 0.87169 0.77418 0.12525 0.0
C471 C 0.88597 0.7539 0.13215 0.0
C472 C 0.93874 0.81875 0.00246 0.0
C473 C 0.90593 0.79674 0.07718 0.0
C474 C 0.94967 0.84001 0.97917 0.0
C475 C 0.93962 0.86179 0.00356 0.0
C476 C 0.91746 0.81915 0.04992 0.0
C477 C 0.91847 0.8614 0.05208 0.0
C478 C 0.88169 0.79577 0.09872 0.0
C479 C 0.90998 0.75558 0.10922 0.0
N480 N 0.90798 0.84042 0.07326 0.0
N481 N 0.91922 0.77661 0.08258 0.0
H482 H 0.76044 0.9191 0.2012 0.0
H483 H 0.6258 0.91284 0.03826 0.0
H484 H 0.72721 0.85425 0.11756 0.0
H485 H 0.66439 0.97823 0.06909 0.0
H486 H 0.66141 0.89069 0.08029 0.0
H487 H 0.72413 0.94081 0.16534 0.0
C488 C 0.74533 0.90941 0.17632 0.0
C489 C 0.74655 0.88483 0.16388 0.0
C490 C 0.66209 0.90988 0.07783 0.0
C491 C 0.70511 0.90952 0.12145 0.0
C492 C 0.64175 0.92249 0.05431 0.0
C493 C 0.64216 0.94734 0.04968 0.0
C494 C 0.683 0.92226 0.0977 0.0
C495 C 0.66336 0.95905 0.0706 0.0
C496 C 0.7247 0.92182 0.15506 0.0
C497 C 0.7268 0.87319 0.12885 0.0
N498 N 0.68291 0.94642 0.09384 0.0
N499 N 0.70679 0.88562 0.10935 0.0
H500 H 0.57887 0.75087 0.27897 0.0
H501 H 0.58997 0.62002 0.08564 0.0
H502 H 0.64149 0.72659 0.14485 0.0
H503 H 0.52299 0.65395 0.13872 0.0
H504 H 0.61058 0.65666 0.12646 0.0
H505 H 0.55932 0.71317 0.24635 0.0
C506 C 0.58856 0.73742 0.24344 0.0
C507 C 0.61188 0.74157 0.21552 0.0
C508 C 0.59138 0.65606 0.1291 0.0
C509 C 0.58967 0.69859 0.17743 0.0
C510 C 0.57968 0.63516 0.10636 0.0
C511 C 0.55481 0.63405 0.10819 0.0
C512 C 0.57806 0.67588 0.15496 0.0
C513 C 0.54219 0.65417 0.13521 0.0
C514 C 0.57736 0.71604 0.22422 0.0
C515 C 0.62351 0.7239 0.16785 0.0
N516 N 0.55395 0.67424 0.15771 0.0
N517 N 0.61233 0.70304 0.15075 0.0
H518 H 0.77709 0.63117 0.20697 0.0
H519 H 0.8445 0.51039 0.08647 0.0
H520 H 0.74432 0.56207 0.20838 0.0
H521 H 0.87969 0.57828 0.09585 0.0
H522 H 0.80753 0.5295 0.12927 0.0
H523 H 0.81477 0.61275 0.16292 0.0
C524 C 0.77791 0.61212 0.1985 0.0
C525 C 0.75783 0.59799 0.21371 0.0
C526 C 0.82331 0.54029 0.12184 0.0
C527 C 0.80054 0.57687 0.16283 0.0
C528 C 0.84443 0.52939 0.09684 0.0
C529 C 0.86523 0.5428 0.08667 0.0
C530 C 0.82286 0.56486 0.1367 0.0
C531 C 0.86412 0.56728 0.10306 0.0
C532 C 0.79937 0.60162 0.17361 0.0
C533 C 0.75964 0.57347 0.20063 0.0
N534 N 0.84327 0.57756 0.12696 0.0
N535 N 0.7806 0.5637 0.17618 0.0
H536 H 0.05504 0.1667 0.85625 0.0
H537 H 0.99015 0.04248 0.93179 0.0
H538 H 0.0144 0.14985 0.08636 0.0
H539 H 0.01231 0.06679 0.67787 0.0
H540 H 0.0018 0.08067 0.99212 0.0
H541 H 0.04234 0.12908 0.79207 0.0
C542 C 0.04343 0.15511 0.89318 0.0
C543 C 0.03572 0.16143 0.97669 0.0
C544 C 0.00404 0.07769 0.92315 0.0
C545 C 0.02132 0.11839 0.90404 0.0
C546 C 0.99747 0.05584 0.88864 0.0
C547 C 0.00027 0.0514 0.7996 0.0
C548 C 0.01375 0.09519 0.86855 0.0
C549 C 0.00977 0.06946 0.74686 0.0
C550 C 0.03614 0.1337 0.85643 0.0
C551 C 0.02067 0.14577 0.0216 0.0
N552 N 0.01631 0.09054 0.78224 0.0
N553 N 0.01407 0.12493 0.98491 0.0
H554 H 0.32888 0.01057 0.79114 0.0
H555 H 0.46479 0.00661 0.94187 0.0
H556 H 0.35065 0.01605 0.05912 0.0
H557 H 0.44185 0.00499 0.67432 0.0
H558 H 0.42334 0.01128 0.98688 0.0
H559 H 0.37051 0.0101 0.74753 0.0
C560 C 0.34241 0.01185 0.84081 0.0
C561 C 0.33626 0.01323 0.9289 0.0
C562 C 0.42744 0.00995 0.91834 0.0
C563 C 0.38404 0.01249 0.8795 0.0
C564 C 0.4511 0.00723 0.89261 0.0
C565 C 0.45685 0.00521 0.80421 0.0
C566 C 0.40945 0.01062 0.8552 0.0
C567 C 0.43834 0.00627 0.74326 0.0
C568 C 0.36621 0.01155 0.81588 0.0
C569 C 0.35458 0.01492 0.9904 0.0
N570 N 0.41553 0.00883 0.76993 0.0
N571 N 0.37766 0.01434 0.96457 0.0
H572 H 0.41302 0.3659 0.14946 0.0
H573 H 0.4909 0.42761 0.77871 0.0
H574 H 0.45008 0.32686 0.95042 0.0
H575 H 0.47272 0.46296 0.01807 0.0
H576 H 0.47308 0.39121 0.83514 0.0
H577 H 0.43174 0.40251 0.09659 0.0
C578 C 0.42499 0.36505 0.09445 0.0
C579 C 0.42995 0.34333 0.05402 0.0
C580 C 0.47309 0.4069 0.8755 0.0
C581 C 0.45131 0.38502 0.99332 0.0
C582 C 0.48322 0.42772 0.84327 0.0
C583 C 0.48333 0.44838 0.8938 0.0
C584 C 0.46271 0.40676 0.95846 0.0
C585 C 0.47313 0.44742 0.97705 0.0
C586 C 0.43576 0.3859 0.06467 0.0
C587 C 0.44577 0.3432 0.98355 0.0
N588 N 0.46309 0.42697 0.00661 0.0
N589 N 0.45578 0.36374 0.95516 0.0
H590 H 0.15906 0.50687 0.07626 0.0
H591 H 0.06486 0.51016 0.68837 0.0
H592 H 0.1761 0.53056 0.81642 0.0
H593 H 0.04552 0.50074 0.9579 0.0
H594 H 0.10636 0.51362 0.7312 0.0
H595 H 0.11812 0.50018 0.03067 0.0
C596 C 0.15426 0.51045 0.00936 0.0
C597 C 0.17103 0.51933 0.95001 0.0
C598 C 0.09303 0.5108 0.78095 0.0
C599 C 0.12415 0.51179 0.8976 0.0
C600 C 0.06928 0.50884 0.75657 0.0
C601 C 0.05157 0.50537 0.81966 0.0
C602 C 0.09919 0.50908 0.86906 0.0
C603 C 0.0585 0.50357 0.907 0.0
C604 C 0.13084 0.50674 0.98353 0.0
C605 C 0.16374 0.52378 0.86437 0.0
N606 N 0.08176 0.50545 0.92909 0.0
N607 N 0.14083 0.51999 0.84073 0.0
H608 H 0.95265 0.81414 0.30978 0.0
H609 H 0.94967 0.90659 0.70228 0.0
H610 H 0.91471 0.80274 0.55022 0.0
H611 H 0.97712 0.92471 0.44861 0.0
H612 H 0.93912 0.86747 0.64907 0.0
H613 H 0.9642 0.85364 0.36085 0.0
C614 C 0.94687 0.81987 0.37346 0.0
C615 C 0.93272 0.8051 0.42594 0.0
C616 C 0.94746 0.87994 0.60481 0.0
C617 C 0.94582 0.85018 0.48447 0.0
C618 C 0.95365 0.90229 0.63537 0.0
C619 C 0.96454 0.91889 0.58005 0.0
C620 C 0.95222 0.87397 0.5181 0.0
C621 C 0.96875 0.91243 0.49344 0.0
C622 C 0.95337 0.84245 0.40233 0.0
C623 C 0.92559 0.81351 0.50751 0.0
N624 N 0.96268 0.89039 0.46512 0.0
N625 N 0.93225 0.83543 0.53424 0.0
H626 H 0.67312 0.92161 0.31984 0.0
H627 H 0.61211 0.97959 0.73108 0.0
H628 H 0.71381 0.93985 0.54723 0.0
H629 H 0.58449 0.98722 0.47083 0.0
H630 H 0.64878 0.96306 0.6702 0.0
H631 H 0.63923 0.94311 0.37939 0.0
C632 C 0.67488 0.93012 0.38248 0.0
C633 C 0.69621 0.92887 0.42903 0.0
C634 C 0.63476 0.96866 0.62665 0.0
C635 C 0.65748 0.9534 0.49769 0.0
C636 C 0.61385 0.97809 0.66123 0.0
C637 C 0.59514 0.98473 0.60599 0.0
C638 C 0.63675 0.96552 0.5365 0.0
C639 C 0.59837 0.98233 0.51603 0.0
C640 C 0.6556 0.94252 0.41614 0.0
C641 C 0.69764 0.94044 0.50939 0.0
N642 N 0.61863 0.97266 0.48423 0.0
N643 N 0.6784 0.95205 0.54178 0.0
H644 H 0.59379 0.65746 0.37753 0.0
H645 H 0.53185 0.59623 0.78837 0.0
H646 H 0.57176 0.69662 0.60414 0.0
H647 H 0.53831 0.5625 0.53805 0.0
H648 H 0.54866 0.6325 0.72598 0.0
H649 H 0.57587 0.62173 0.43945 0.0
C650 C 0.58525 0.65852 0.44052 0.0
C651 C 0.58435 0.68003 0.48598 0.0
C652 C 0.54627 0.61719 0.6847 0.0
C653 C 0.56381 0.63916 0.55724 0.0
C654 C 0.5367 0.59645 0.72024 0.0
C655 C 0.53359 0.57627 0.6683 0.0
C656 C 0.55301 0.61769 0.59684 0.0
C657 C 0.54028 0.57762 0.58053 0.0
C658 C 0.57493 0.63813 0.47564 0.0
C659 C 0.57285 0.6804 0.56692 0.0
N660 N 0.54976 0.59793 0.54772 0.0
N661 N 0.56313 0.66023 0.60021 0.0
H662 H 0.80472 0.52223 0.38984 0.0
H663 H 0.89592 0.51217 0.78524 0.0
H664 H 0.78856 0.54302 0.65297 0.0
H665 H 0.91354 0.49211 0.52258 0.0
H666 H 0.85532 0.51978 0.73985 0.0
H667 H 0.84326 0.50743 0.43899 0.0
C668 C 0.80915 0.52345 0.45812 0.0
C669 C 0.79344 0.53405 0.51732 0.0
C670 C 0.86796 0.5135 0.69215 0.0
C671 C 0.83757 0.51725 0.57381 0.0
C672 C 0.89121 0.50902 0.71817 0.0
C673 C 0.90825 0.50144 0.6577 0.0
C674 C 0.86161 0.51054 0.60475 0.0
C675 C 0.90104 0.49798 0.57143 0.0
C676 C 0.83119 0.51504 0.48607 0.0
C677 C 0.80015 0.53514 0.60492 0.0
N678 N 0.87828 0.5027 0.54739 0.0
N679 N 0.82175 0.527 0.63035 0.0
loop_
_geom_bond_atom_site_label_1
_geom_bond_atom_site_label_2
_geom_bond_distance
_geom_bond_site_symmetry_2
_ccdc_geom_bond_type
O0 Cd1 2.300 . S
O0 C7 1.275 . S
Cd1 O0 2.300 . S
Cd1 O9 2.381 . S
Cd1 O10 2.378 . S
O2 Cd3 2.385 . S
O2 C7 1.255 . S
Cd3 O2 2.385 . S
Cd3 O4 2.317 . S
O4 Cd3 2.317 . S
O4 C5 1.232 . S
C5 O4 1.232 . S
C5 O6 1.218 . S
O6 C5 1.218 . S
C7 O0 1.275 . S
C7 O2 1.255 . S
C8 O9 1.258 . S
C8 O10 1.256 . S
O9 Cd1 2.381 . S
O9 C8 1.258 . S
O10 Cd1 2.378 . S
O10 C8 1.256 . S
O11 Cd12 2.300 1_655 S
O11 C18 1.275 1_655 S
Cd12 O11 2.300 1_455 S
Cd12 O20 2.381 1_455 S
Cd12 O21 2.378 . S
O13 Cd14 2.385 . S
O13 C18 1.255 . S
Cd14 O13 2.385 . S
Cd14 O15 2.317 . S
O15 Cd14 2.317 . S
O15 C16 1.232 . S
C16 O15 1.232 . S
C16 O17 1.218 . S
O17 C16 1.218 . S
C18 O11 1.275 1_455 S
C18 O13 1.255 . S
C19 O20 1.258 1_455 S
C19 O21 1.256 . S
O20 Cd12 2.381 1_655 S
O20 C19 1.258 1_655 S
O21 Cd12 2.378 . S
O21 C19 1.256 . S
O22 Cd23 2.300 1_565 S
O22 C29 1.275 1_565 S
Cd23 O22 2.300 1_545 S
Cd23 O31 2.381 1_545 S
Cd23 O32 2.378 . S
O24 Cd25 2.385 . S
O24 C29 1.255 . S
Cd25 O24 2.385 . S
Cd25 O26 2.317 . S
O26 Cd25 2.317 . S
O26 C27 1.232 . S
C27 O26 1.232 . S
C27 O28 1.218 . S
O28 C27 1.218 . S
C29 O22 1.275 1_545 S
C29 O24 1.255 . S
C30 O31 1.258 1_545 S
C30 O32 1.256 . S
O31 Cd23 2.381 1_565 S
O31 C30 1.258 1_565 S
O32 Cd23 2.378 . S
O32 C30 1.256 . S
O33 Cd34 2.300 . S
O33 C40 1.275 . S
Cd34 O33 2.300 . S
Cd34 O42 2.381 . S
Cd34 O43 2.378 . S
O35 Cd36 2.385 . S
O35 C40 1.255 . S
Cd36 O35 2.385 . S
Cd36 O37 2.317 . S
O37 Cd36 2.317 . S
O37 C38 1.232 . S
C38 O37 1.232 . S
C38 O39 1.218 . S
O39 C38 1.218 . S
C40 O33 1.275 . S
C40 O35 1.255 . S
C41 O42 1.258 . S
C41 O43 1.256 . S
O42 Cd34 2.381 . S
O42 C41 1.258 . S
O43 Cd34 2.378 . S
O43 C41 1.256 . S
O44 Cd45 2.300 . S
O44 C51 1.275 . S
Cd45 O44 2.300 . S
Cd45 O53 2.381 . S
Cd45 O54 2.378 . S
O46 Cd47 2.385 1_554 S
O46 C51 1.255 . S
Cd47 O46 2.385 1_556 S
Cd47 O48 2.317 . S
O48 Cd47 2.317 . S
O48 C49 1.232 . S
C49 O48 1.232 . S
C49 O50 1.218 . S
O50 C49 1.218 . S
C51 O44 1.275 . S
C51 O46 1.255 . S
C52 O53 1.258 . S
C52 O54 1.256 . S
O53 Cd45 2.381 . S
O53 C52 1.258 . S
O54 Cd45 2.378 . S
O54 C52 1.256 . S
O55 Cd56 2.300 1_655 S
O55 C62 1.275 1_655 S
Cd56 O55 2.300 1_455 S
Cd56 O64 2.381 1_455 S
Cd56 O65 2.378 . S
O57 Cd58 2.391 . S
O57 C62 1.255 . S
Cd58 O57 2.391 . S
Cd58 O59 2.312 1_554 S
O59 Cd58 2.312 1_556 S
O59 C60 1.232 . S
C60 O59 1.232 . S
C60 O61 1.218 . S
O61 C60 1.218 . S
C62 O55 1.275 1_455 S
C62 O57 1.255 . S
C63 O64 1.258 1_455 S
C63 O65 1.256 . S
O64 Cd56 2.381 1_655 S
O64 C63 1.258 1_655 S
O65 Cd56 2.378 . S
O65 C63 1.256 . S
O66 Cd67 2.300 1_565 S
O66 C73 1.275 1_565 S
Cd67 O66 2.300 1_545 S
Cd67 O75 2.381 1_545 S
Cd67 O76 2.378 . S
O68 Cd69 2.385 1_554 S
O68 C73 1.255 . S
Cd69 O68 2.385 1_556 S
Cd69 O70 2.317 . S
O70 Cd69 2.317 . S
O70 C71 1.232 . S
C71 O70 1.232 . S
C71 O72 1.218 . S
O72 C71 1.218 . S
C73 O66 1.275 1_545 S
C73 O68 1.255 . S
C74 O75 1.258 1_545 S
C74 O76 1.256 . S
O75 Cd67 2.381 1_565 S
O75 C74 1.258 1_565 S
O76 Cd67 2.378 . S
O76 C74 1.256 . S
O77 Cd78 2.300 . S
O77 C84 1.275 . S
Cd78 O77 2.300 . S
Cd78 O86 2.381 . S
Cd78 O87 2.378 . S
O79 Cd80 2.385 1_554 S
O79 C84 1.255 . S
Cd80 O79 2.385 1_556 S
Cd80 O81 2.317 . S
O81 Cd80 2.317 . S
O81 C82 1.232 . S
C82 O81 1.232 . S
C82 O83 1.218 . S
O83 C82 1.218 . S
C84 O77 1.275 . S
C84 O79 1.255 . S
C85 O86 1.258 . S
C85 O87 1.256 . S
O86 Cd78 2.381 . S
O86 C85 1.258 . S
O87 Cd78 2.378 . S
O87 C85 1.256 . S
Tb88 C90 2.809 . S
Tb88 O108 2.484 . S
Tb88 O109 2.440 . S
Tb88 O110 2.658 1_565 S
Tb88 O111 2.409 . S
Tb88 O112 2.378 . S
Tb88 O116 2.325 1_455 S
Tb88 O119 2.341 1_565 S
Tb89 C99 2.809 . S
Tb89 O110 2.325 1_655 S
Tb89 O113 2.341 1_545 S
Tb89 O114 2.501 . S
Tb89 O115 2.440 . S
Tb89 O116 2.658 1_545 S
Tb89 O117 2.409 . S
Tb89 O118 2.378 . S
C90 Tb88 2.809 . S
C90 C91 1.514 . S
C90 O108 1.248 . S
C90 O109 1.266 . S
C91 C90 1.514 . S
C91 C92 1.359 . S
C91 C96 1.348 . S
C92 C91 1.359 . S
C92 C93 1.380 1_556 S
C92 H120 0.929 1_455 S
C93 C92 1.380 1_554 S
C93 C94 1.347 . S
C93 H121 0.931 1_455 S
C94 C93 1.347 . S
C94 C95 1.369 1_554 S
C95 C94 1.369 1_556 S
C95 C96 1.408 . S
C95 H122 0.930 . S
C96 C91 1.348 . S
C96 C95 1.408 . S
C96 H123 0.930 . S
C97 O110 1.281 1_565 S
C97 O111 1.254 . S
C98 O112 1.236 1_655 S
C98 O113 1.266 . S
C99 Tb89 2.809 . S
C99 C100 1.514 . S
C99 O114 1.286 . S
C99 O115 1.266 . S
C100 C99 1.514 . S
C100 C101 1.359 . S
C100 C105 1.348 . S
C101 C100 1.359 . S
C101 C102 1.380 . S
C101 H124 0.929 1_655 S
C102 C101 1.380 . S
C102 C103 1.347 . S
C102 H125 0.931 1_655 S
C103 C102 1.347 . S
C103 C104 1.369 . S
C104 C103 1.369 . S
C104 C105 1.408 . S
C104 H126 0.930 . S
C105 C100 1.348 . S
C105 C104 1.408 . S
C105 H127 0.930 . S
C106 O116 1.281 1_545 S
C106 O117 1.254 . S
C107 O118 1.236 1_455 S
C107 O119 1.266 . S
O108 Tb88 2.484 . S
O108 C90 1.248 . S
O109 Tb88 2.440 . S
O109 C90 1.266 . S
O110 Tb88 2.658 1_545 S
O110 Tb89 2.325 1_455 S
O110 C97 1.281 1_545 S
O111 Tb88 2.409 . S
O111 C97 1.254 . S
O112 Tb88 2.378 . S
O112 C98 1.236 1_455 S
O113 Tb89 2.341 1_565 S
O113 C98 1.266 . S
O114 Tb89 2.501 . S
O114 C99 1.286 . S
O115 Tb89 2.440 . S
O115 C99 1.266 . S
O116 Tb88 2.325 1_655 S
O116 Tb89 2.658 1_565 S
O116 C106 1.281 1_565 S
O117 Tb89 2.409 . S
O117 C106 1.254 . S
O118 Tb89 2.378 . S
O118 C107 1.236 1_655 S
O119 Tb88 2.341 1_545 S
O119 C107 1.266 . S
H120 C92 0.929 1_655 S
H121 C93 0.931 1_655 S
H122 C95 0.930 . S
H123 C96 0.930 . S
H124 C101 0.929 1_455 S
H125 C102 0.931 1_455 S
H126 C104 0.930 . S
H127 C105 0.930 . S
Tb128 C130 2.809 . S
Tb128 O148 2.499 . S
Tb128 O149 2.440 . S
Tb128 O150 2.658 . S
Tb128 O151 2.409 . S
Tb128 O152 2.378 . S
Tb128 O156 2.325 1_545 S
Tb128 O159 2.341 . S
Tb129 C139 2.809 . S
Tb129 O150 2.325 1_565 S
Tb129 O153 2.341 . S
Tb129 O154 2.494 . S
Tb129 O155 2.440 . S
Tb129 O156 2.658 . S
Tb129 O157 2.409 . S
Tb129 O158 2.378 . S
C130 Tb128 2.809 . S
C130 C131 1.514 . S
C130 O148 1.281 . S
C130 O149 1.266 . S
C131 C130 1.514 . S
C131 C132 1.359 . S
C131 C136 1.348 . S
C132 C131 1.359 . S
C132 C133 1.380 1_556 S
C132 H160 0.929 1_545 S
C133 C132 1.380 1_554 S
C133 C134 1.347 . S
C133 H161 0.931 1_545 S
C134 C133 1.347 . S
C134 C135 1.369 1_554 S
C135 C134 1.369 1_556 S
C135 C136 1.408 . S
C135 H162 0.930 . S
C136 C131 1.348 . S
C136 C135 1.408 . S
C136 H163 0.930 . S
C137 O150 1.281 . S
C137 O151 1.254 . S
C138 O152 1.236 1_565 S
C138 O153 1.266 . S
C139 Tb129 2.809 . S
C139 C140 1.514 . S
C139 O154 1.271 . S
C139 O155 1.266 . S
C140 C139 1.514 . S
C140 C141 1.359 . S
C140 C145 1.348 . S
C141 C140 1.359 . S
C141 C142 1.380 . S
C141 H164 0.929 1_565 S
C142 C141 1.380 . S
C142 C143 1.347 . S
C142 H165 0.931 1_565 S
C143 C142 1.347 . S
C143 C144 1.369 . S
C144 C143 1.369 . S
C144 C145 1.408 . S
C144 H166 0.930 . S
C145 C140 1.348 . S
C145 C144 1.408 . S
C145 H167 0.930 . S
C146 O156 1.281 . S
C146 O157 1.254 . S
C147 O158 1.236 1_545 S
C147 O159 1.266 . S
O148 Tb128 2.499 . S
O148 C130 1.281 . S
O149 Tb128 2.440 . S
O149 C130 1.266 . S
O150 Tb128 2.658 . S
O150 Tb129 2.325 1_545 S
O150 C137 1.281 . S
O151 Tb128 2.409 . S
O151 C137 1.254 . S
O152 Tb128 2.378 . S
O152 C138 1.236 1_545 S
O153 Tb129 2.341 . S
O153 C138 1.266 . S
O154 Tb129 2.494 . S
O154 C139 1.271 . S
O155 Tb129 2.440 . S
O155 C139 1.266 . S
O156 Tb128 2.325 1_565 S
O156 Tb129 2.658 . S
O156 C146 1.281 . S
O157 Tb129 2.409 . S
O157 C146 1.254 . S
O158 Tb129 2.378 . S
O158 C147 1.236 1_565 S
O159 Tb128 2.341 . S
O159 C147 1.266 . S
H160 C132 0.929 1_565 S
H161 C133 0.931 1_565 S
H162 C135 0.930 . S
H163 C136 0.930 . S
H164 C141 0.929 1_545 S
H165 C142 0.931 1_545 S
H166 C144 0.930 . S
H167 C145 0.930 . S
Tb168 C170 2.809 . S
Tb168 O188 2.484 . S
Tb168 O189 2.440 . S
Tb168 O190 2.658 . S
Tb168 O191 2.409 . S
Tb168 O192 2.378 . S
Tb168 O196 2.325 . S
Tb168 O199 2.341 . S
Tb169 C179 2.809 . S
Tb169 O190 2.325 . S
Tb169 O193 2.341 . S
Tb169 O194 2.484 . S
Tb169 O195 2.440 . S
Tb169 O196 2.658 . S
Tb169 O197 2.409 . S
Tb169 O198 2.378 . S
C170 Tb168 2.809 . S
C170 C171 1.514 . S
C170 O188 1.248 . S
C170 O189 1.266 . S
C171 C170 1.514 . S
C171 C172 1.359 . S
C171 C176 1.348 . S
C172 C171 1.359 . S
C172 C173 1.380 1_556 S
C172 H200 0.929 . S
C173 C172 1.380 1_554 S
C173 C174 1.347 . S
C173 H201 0.931 . S
C174 C173 1.347 . S
C174 C175 1.369 1_554 S
C175 C174 1.369 1_556 S
C175 C176 1.408 . S
C175 H202 0.930 . S
C176 C171 1.348 . S
C176 C175 1.408 . S
C176 H203 0.930 . S
C177 O190 1.281 . S
C177 O191 1.254 . S
C178 O192 1.236 . S
C178 O193 1.266 . S
C179 Tb169 2.809 . S
C179 C180 1.514 . S
C179 O194 1.248 . S
C179 O195 1.266 . S
C180 C179 1.514 . S
C180 C181 1.359 . S
C180 C185 1.348 . S
C181 C180 1.359 . S
C181 C182 1.380 . S
C181 H204 0.929 . S
C182 C181 1.380 . S
C182 C183 1.347 . S
C182 H205 0.931 . S
C183 C182 1.347 . S
C183 C184 1.369 . S
C184 C183 1.369 . S
C184 C185 1.408 . S
C184 H206 0.930 . S
C185 C180 1.348 . S
C185 C184 1.408 . S
C185 H207 0.930 . S
C186 O196 1.281 . S
C186 O197 1.254 . S
C187 O198 1.236 . S
C187 O199 1.266 . S
O188 Tb168 2.484 . S
O188 C170 1.248 . S
O189 Tb168 2.440 . S
O189 C170 1.266 . S
O190 Tb168 2.658 . S
O190 Tb169 2.325 . S
O190 C177 1.281 . S
O191 Tb168 2.409 . S
O191 C177 1.254 . S
O192 Tb168 2.378 . S
O192 C178 1.236 . S
O193 Tb169 2.341 . S
O193 C178 1.266 . S
O194 Tb169 2.484 . S
O194 C179 1.248 . S
O195 Tb169 2.440 . S
O195 C179 1.266 . S
O196 Tb168 2.325 . S
O196 Tb169 2.658 . S
O196 C186 1.281 . S
O197 Tb169 2.409 . S
O197 C186 1.254 . S
O198 Tb169 2.378 . S
O198 C187 1.236 . S
O199 Tb168 2.341 . S
O199 C187 1.266 . S
H200 C172 0.929 . S
H201 C173 0.931 . S
H202 C175 0.930 . S
H203 C176 0.930 . S
H204 C181 0.929 . S
H205 C182 0.931 . S
H206 C184 0.930 . S
H207 C185 0.930 . S
Tb208 C210 2.809 . S
Tb208 O228 2.484 . S
Tb208 O229 2.440 . S
Tb208 O230 2.658 1_655 S
Tb208 O231 2.409 . S
Tb208 O232 2.378 . S
Tb208 O236 2.325 . S
Tb208 O239 2.341 1_655 S
Tb209 C219 2.809 . S
Tb209 O230 2.325 . S
Tb209 O233 2.341 1_455 S
Tb209 O234 2.484 . S
Tb209 O235 2.440 . S
Tb209 O236 2.658 1_455 S
Tb209 O237 2.409 . S
Tb209 O238 2.378 . S
C210 Tb208 2.809 . S
C210 C211 1.514 . S
C210 O228 1.248 . S
C210 O229 1.266 . S
C211 C210 1.514 . S
C211 C212 1.359 . S
C211 C216 1.348 . S
C212 C211 1.359 . S
C212 C213 1.380 1_556 S
C212 H240 0.929 . S
C213 C212 1.380 1_554 S
C213 C214 1.347 . S
C213 H241 0.931 . S
C214 C213 1.347 . S
C214 C215 1.369 1_554 S
C215 C214 1.369 1_556 S
C215 C216 1.408 . S
C215 H242 0.930 . S
C216 C211 1.348 . S
C216 C215 1.408 . S
C216 H243 0.930 . S
C217 O230 1.272 1_655 S
C217 O231 1.267 . S
C218 O232 1.236 . S
C218 O233 1.266 . S
C219 Tb209 2.809 . S
C219 C220 1.514 . S
C219 O234 1.248 . S
C219 O235 1.266 . S
C220 C219 1.514 . S
C220 C221 1.359 . S
C220 C225 1.348 . S
C221 C220 1.359 . S
C221 C222 1.380 . S
C221 H244 0.929 . S
C222 C221 1.380 . S
C222 C223 1.347 . S
C222 H245 0.931 . S
C223 C222 1.347 . S
C223 C224 1.369 . S
C224 C223 1.369 . S
C224 C225 1.408 . S
C224 H246 0.930 . S
C225 C220 1.348 . S
C225 C224 1.408 . S
C225 H247 0.930 . S
C226 O236 1.268 1_455 S
C226 O237 1.272 . S
C227 O238 1.236 . S
C227 O239 1.266 . S
O228 Tb208 2.484 . S
O228 C210 1.248 . S
O229 Tb208 2.440 . S
O229 C210 1.266 . S
O230 Tb208 2.658 1_455 S
O230 Tb209 2.325 . S
O230 C217 1.272 1_455 S
O231 Tb208 2.409 . S
O231 C217 1.267 . S
O232 Tb208 2.378 . S
O232 C218 1.236 . S
O233 Tb209 2.341 1_655 S
O233 C218 1.266 . S
O234 Tb209 2.484 . S
O234 C219 1.248 . S
O235 Tb209 2.440 . S
O235 C219 1.266 . S
O236 Tb208 2.325 . S
O236 Tb209 2.658 1_655 S
O236 C226 1.268 1_655 S
O237 Tb209 2.409 . S
O237 C226 1.272 . S
O238 Tb209 2.378 . S
O238 C227 1.236 . S
O239 Tb208 2.341 1_455 S
O239 C227 1.266 . S
H240 C212 0.929 . S
H241 C213 0.931 . S
H242 C215 0.930 . S
H243 C216 0.930 . S
H244 C221 0.929 . S
H245 C222 0.931 . S
H246 C224 0.930 . S
H247 C225 0.930 . S
H248 C254 0.930 . S
H249 C258 0.930 . S
H250 C263 0.929 . S
H251 C261 0.929 . S
H252 C256 0.929 . S
H253 C262 0.929 . S
C254 H248 0.930 . S
C254 C255 1.372 . S
C254 C262 1.378 . S
C255 C254 1.372 . S
C255 C263 1.428 1_565 S
C256 H252 0.929 . S
C256 C258 1.378 . S
C256 C260 1.380 . S
C257 C260 1.461 1_565 S
C257 C262 1.358 . S
C257 N265 1.419 1_565 S
C258 H249 0.930 . S
C258 C256 1.378 . S
C258 C259 1.394 . S
C259 C258 1.394 . S
C259 C261 1.406 1_545 S
C260 C256 1.380 . S
C260 C257 1.461 1_545 S
C260 N264 1.398 1_545 S
C261 H251 0.929 . S
C261 C259 1.406 1_565 S
C261 N264 1.384 . S
C262 H253 0.929 . S
C262 C254 1.378 . S
C262 C257 1.358 . S
C263 H250 0.929 . S
C263 C255 1.428 1_545 S
C263 N265 1.384 . S
N264 C260 1.398 1_565 S
N264 C261 1.384 . S
N265 C257 1.419 1_545 S
N265 C263 1.384 . S
H266 C272 0.930 . S
H267 C276 0.930 . S
H268 C281 0.929 . S
H269 C279 0.929 . S
H270 C274 0.929 . S
H271 C280 0.929 . S
C272 H266 0.930 . S
C272 C273 1.367 . S
C272 C280 1.378 . S
C273 C272 1.367 . S
C273 C281 1.433 . S
C274 H270 0.929 . S
C274 C276 1.378 . S
C274 C278 1.350 . S
C275 C278 1.463 . S
C275 C280 1.350 . S
C275 N283 1.427 . S
C276 H267 0.930 . S
C276 C274 1.378 . S
C276 C277 1.367 . S
C277 C276 1.367 . S
C277 C279 1.433 . S
C278 C274 1.350 . S
C278 C275 1.463 . S
C278 N282 1.427 . S
C279 H269 0.929 . S
C279 C277 1.433 . S
C279 N282 1.384 . S
C280 H271 0.929 . S
C280 C272 1.378 . S
C280 C275 1.350 . S
C281 H268 0.929 . S
C281 C273 1.433 . S
C281 N283 1.384 . S
N282 C278 1.427 . S
N282 C279 1.384 . S
N283 C275 1.427 . S
N283 C281 1.384 . S
H284 C290 0.930 . S
H285 C294 0.930 . S
H286 C299 0.929 . S
H287 C297 0.929 . S
H288 C292 0.929 . S
H289 C298 0.929 . S
C290 H284 0.930 . S
C290 C291 1.367 . S
C290 C298 1.378 . S
C291 C290 1.367 . S
C291 C299 1.433 . S
C292 H288 0.929 . S
C292 C294 1.378 . S
C292 C296 1.350 . S
C293 C296 1.463 . S
C293 C298 1.350 . S
C293 N301 1.427 . S
C294 H285 0.930 . S
C294 C292 1.378 . S
C294 C295 1.367 . S
C295 C294 1.367 . S
C295 C297 1.433 . S
C296 C292 1.350 . S
C296 C293 1.463 . S
C296 N300 1.427 . S
C297 H287 0.929 . S
C297 C295 1.433 . S
C297 N300 1.384 . S
C298 H289 0.929 . S
C298 C290 1.378 . S
C298 C293 1.350 . S
C299 H286 0.929 . S
C299 C291 1.433 . S
C299 N301 1.384 . S
N300 C296 1.427 . S
N300 C297 1.384 . S
N301 C293 1.427 . S
N301 C299 1.384 . S
H302 C308 0.930 . S
H303 C312 0.930 . S
H304 C317 0.929 . S
H305 C315 0.929 . S
H306 C310 0.929 . S
H307 C316 0.929 . S
C308 H302 0.930 . S
C308 C309 1.373 . S
C308 C316 1.378 . S
C309 C308 1.373 . S
C309 C317 1.427 1_655 S
C310 H306 0.929 . S
C310 C312 1.378 . S
C310 C314 1.350 . S
C311 C314 1.462 1_655 S
C311 C316 1.351 . S
C311 N319 1.426 1_655 S
C312 H303 0.930 . S
C312 C310 1.378 . S
C312 C313 1.367 . S
C313 C312 1.367 . S
C313 C315 1.433 1_455 S
C314 C310 1.350 . S
C314 C311 1.462 1_455 S
C314 N318 1.427 1_455 S
C315 H305 0.929 . S
C315 C313 1.433 1_655 S
C315 N318 1.384 . S
C316 H307 0.929 . S
C316 C308 1.378 . S
C316 C311 1.351 . S
C317 H304 0.929 . S
C317 C309 1.427 1_455 S
C317 N319 1.384 . S
N318 C314 1.427 1_655 S
N318 C315 1.384 . S
N319 C311 1.426 1_455 S
N319 C317 1.384 . S
H320 C326 0.930 . S
H321 C330 0.930 . S
H322 C335 0.929 . S
H323 C333 0.929 . S
H324 C328 0.929 . S
H325 C334 0.929 . S
C326 H320 0.930 . S
C326 C327 1.378 . S
C326 C334 1.378 . S
C327 C326 1.378 . S
C327 C335 1.422 1_565 S
C328 H324 0.929 . S
C328 C330 1.378 . S
C328 C332 1.367 1_556 S
C329 C332 1.461 1_565 S
C329 C334 1.374 . S
C329 N337 1.403 1_565 S
C330 H321 0.930 . S
C330 C328 1.378 . S
C330 C331 1.372 . S
C331 C330 1.372 . S
C331 C333 1.428 1_545 S
C332 C328 1.367 1_554 S
C332 C329 1.461 1_545 S
C332 N336 1.410 1_545 S
C333 H323 0.929 . S
C333 C331 1.428 1_565 S
C333 N336 1.384 1_556 S
C334 H325 0.929 . S
C334 C326 1.378 . S
C334 C329 1.374 . S
C335 H322 0.929 . S
C335 C327 1.422 1_545 S
C335 N337 1.384 . S
N336 C332 1.410 1_565 S
N336 C333 1.384 1_554 S
N337 C329 1.403 1_545 S
N337 C335 1.384 . S
H338 C344 0.930 . S
H339 C348 0.930 . S
H340 C353 0.929 . S
H341 C351 0.929 . S
H342 C346 0.929 . S
H343 C352 0.929 . S
C344 H338 0.930 . S
C344 C345 1.367 . S
C344 C352 1.378 . S
C345 C344 1.367 . S
C345 C353 1.433 . S
C346 H342 0.929 . S
C346 C348 1.378 . S
C346 C350 1.350 1_556 S
C347 C350 1.463 . S
C347 C352 1.350 . S
C347 N355 1.427 . S
C348 H339 0.930 . S
C348 C346 1.378 . S
C348 C349 1.367 . S
C349 C348 1.367 . S
C349 C351 1.433 . S
C350 C346 1.350 1_554 S
C350 C347 1.463 . S
C350 N354 1.427 . S
C351 H341 0.929 . S
C351 C349 1.433 . S
C351 N354 1.384 1_556 S
C352 H343 0.929 . S
C352 C344 1.378 . S
C352 C347 1.350 . S
C353 H340 0.929 . S
C353 C345 1.433 . S
C353 N355 1.384 . S
N354 C350 1.427 . S
N354 C351 1.384 1_554 S
N355 C347 1.427 . S
N355 C353 1.384 . S
H356 C362 0.930 . S
H357 C366 0.930 . S
H358 C371 0.929 . S
H359 C369 0.929 . S
H360 C364 0.929 1_554 S
H361 C370 0.929 . S
C362 H356 0.930 . S
C362 C363 1.367 . S
C362 C370 1.378 . S
C363 C362 1.367 . S
C363 C371 1.433 . S
C364 H360 0.929 1_556 S
C364 C366 1.378 . S
C364 C368 1.350 1_556 S
C365 C368 1.463 . S
C365 C370 1.350 . S
C365 N373 1.427 . S
C366 H357 0.930 . S
C366 C364 1.378 . S
C366 C367 1.367 . S
C367 C366 1.367 . S
C367 C369 1.433 . S
C368 C364 1.350 1_554 S
C368 C365 1.463 . S
C368 N372 1.427 1_554 S
C369 H359 0.929 . S
C369 C367 1.433 . S
C369 N372 1.384 . S
C370 H361 0.929 . S
C370 C362 1.378 . S
C370 C365 1.350 . S
C371 H358 0.929 . S
C371 C363 1.433 . S
C371 N373 1.384 . S
N372 C368 1.427 1_556 S
N372 C369 1.384 . S
N373 C365 1.427 . S
N373 C371 1.384 . S
H374 C380 0.930 . S
H375 C384 0.930 . S
H376 C389 0.929 . S
H377 C387 0.929 . S
H378 C382 0.929 . S
H379 C388 0.929 . S
C380 H374 0.930 . S
C380 C381 1.365 . S
C380 C388 1.378 . S
C381 C380 1.365 . S
C381 C389 1.435 1_455 S
C382 H378 0.929 . S
C382 C384 1.378 . S
C382 C386 1.350 1_556 S
C383 C386 1.463 . S
C383 C388 1.348 1_655 S
C383 N391 1.429 . S
C384 H375 0.930 . S
C384 C382 1.378 . S
C384 C385 1.367 . S
C385 C384 1.367 . S
C385 C387 1.433 1_655 S
C386 C382 1.350 1_554 S
C386 C383 1.463 . S
C386 N390 1.427 1_655 S
C387 H377 0.929 . S
C387 C385 1.433 1_455 S
C387 N390 1.384 1_556 S
C388 H379 0.929 . S
C388 C380 1.378 . S
C388 C383 1.348 1_455 S
C389 H376 0.929 . S
C389 C381 1.435 1_655 S
C389 N391 1.384 . S
N390 C386 1.427 1_455 S
N390 C387 1.384 1_554 S
N391 C383 1.429 . S
N391 C389 1.384 . S
H392 C398 0.930 . S
H393 C402 0.930 . S
H394 C407 0.929 . S
H395 C405 0.929 . S
H396 C400 0.929 . S
H397 C406 0.929 . S
C398 H392 0.930 . S
C398 C399 1.367 . S
C398 C406 1.378 . S
C399 C398 1.367 . S
C399 C407 1.433 1_455 S
C400 H396 0.929 . S
C400 C402 1.378 . S
C400 C404 1.350 . S
C401 C404 1.463 . S
C401 C406 1.350 1_655 S
C401 N409 1.427 . S
C402 H393 0.930 . S
C402 C400 1.378 . S
C402 C403 1.367 . S
C403 C402 1.367 . S
C403 C405 1.433 . S
C404 C400 1.350 . S
C404 C401 1.463 . S
C404 N408 1.427 . S
C405 H395 0.929 . S
C405 C403 1.433 . S
C405 N408 1.384 . S
C406 H397 0.929 . S
C406 C398 1.378 . S
C406 C401 1.350 1_455 S
C407 H394 0.929 . S
C407 C399 1.433 1_655 S
C407 N409 1.384 . S
N408 C404 1.427 . S
N408 C405 1.384 . S
N409 C401 1.427 . S
N409 C407 1.384 . S
H410 C416 0.930 . S
H411 C420 0.930 . S
H412 C425 0.929 . S
H413 C423 0.929 . S
H414 C418 0.929 . S
H415 C424 0.929 . S
C416 H410 0.930 . S
C416 C417 1.367 . S
C416 C424 1.378 . S
C417 C416 1.367 . S
C417 C425 1.433 1_545 S
C418 H414 0.929 . S
C418 C420 1.378 . S
C418 C422 1.350 . S
C419 C422 1.463 . S
C419 C424 1.350 1_565 S
C419 N427 1.427 . S
C420 H411 0.930 . S
C420 C418 1.378 . S
C420 C421 1.367 . S
C421 C420 1.367 . S
C421 C423 1.433 . S
C422 C418 1.350 . S
C422 C419 1.463 . S
C422 N426 1.427 . S
C423 H413 0.929 . S
C423 C421 1.433 . S
C423 N426 1.384 . S
C424 H415 0.929 . S
C424 C416 1.378 . S
C424 C419 1.350 1_545 S
C425 H412 0.929 . S
C425 C417 1.433 1_565 S
C425 N427 1.384 . S
N426 C422 1.427 . S
N426 C423 1.384 . S
N427 C419 1.427 . S
N427 C425 1.384 . S
H428 C434 0.930 . S
H429 C438 0.930 . S
H430 C443 0.929 . S
H431 C441 0.929 . S
H432 C436 0.929 . S
H433 C442 0.929 . S
C434 H428 0.930 . S
C434 C435 1.367 . S
C434 C442 1.378 . S
C435 C434 1.367 . S
C435 C443 1.433 . S
C436 H432 0.929 . S
C436 C438 1.378 . S
C436 C440 1.350 . S
C437 C440 1.463 . S
C437 C442 1.350 . S
C437 N445 1.427 . S
C438 H429 0.930 . S
C438 C436 1.378 . S
C438 C439 1.367 . S
C439 C438 1.367 . S
C439 C441 1.433 . S
C440 C436 1.350 . S
C440 C437 1.463 . S
C440 N444 1.427 . S
C441 H431 0.929 . S
C441 C439 1.433 . S
C441 N444 1.384 . S
C442 H433 0.929 . S
C442 C434 1.378 . S
C442 C437 1.350 . S
C443 H430 0.929 . S
C443 C435 1.433 . S
C443 N445 1.384 . S
N444 C440 1.427 . S
N444 C441 1.384 . S
N445 C437 1.427 . S
N445 C443 1.384 . S
H446 C452 0.930 . S
H447 C456 0.930 . S
H448 C461 0.929 . S
H449 C459 0.929 . S
H450 C454 0.929 . S
H451 C460 0.929 . S
C452 H446 0.930 . S
C452 C453 1.367 . S
C452 C460 1.378 . S
C453 C452 1.367 . S
C453 C461 1.433 . S
C454 H450 0.929 . S
C454 C456 1.378 . S
C454 C458 1.350 . S
C455 C458 1.463 . S
C455 C460 1.350 . S
C455 N463 1.427 . S
C456 H447 0.930 . S
C456 C454 1.378 . S
C456 C457 1.367 . S
C457 C456 1.367 . S
C457 C459 1.433 . S
C458 C454 1.350 . S
C458 C455 1.463 . S
C458 N462 1.427 . S
C459 H449 0.929 . S
C459 C457 1.433 . S
C459 N462 1.384 . S
C460 H451 0.929 . S
C460 C452 1.378 . S
C460 C455 1.350 . S
C461 H448 0.929 . S
C461 C453 1.433 . S
C461 N463 1.384 . S
N462 C458 1.427 . S
N462 C459 1.384 . S
N463 C455 1.427 . S
N463 C461 1.384 . S
H464 C470 0.930 . S
H465 C474 0.930 . S
H466 C479 0.929 . S
H467 C477 0.934 1_655 S
H468 C472 0.929 . S
H469 C478 0.929 . S
C470 H464 0.930 . S
C470 C471 1.367 . S
C470 C478 1.378 . S
C471 C470 1.367 . S
C471 C479 1.433 1_655 S
C472 H468 0.929 . S
C472 C474 1.378 . S
C472 C476 1.350 . S
C473 C476 1.463 . S
C473 C478 1.350 1_455 S
C473 N481 1.427 . S
C474 H465 0.930 . S
C474 C472 1.378 . S
C474 C475 1.367 . S
C475 C474 1.367 . S
C475 C477 1.433 . S
C476 C472 1.350 . S
C476 C473 1.463 . S
C476 N480 1.455 . S
C477 H467 0.934 1_455 S
C477 C475 1.433 . S
C477 N480 1.394 . S
C478 H469 0.929 . S
C478 C470 1.378 . S
C478 C473 1.350 1_655 S
C479 H466 0.929 . S
C479 C471 1.433 1_455 S
C479 N481 1.384 . S
N480 C476 1.455 . S
N480 C477 1.394 . S
N481 C473 1.427 . S
N481 C479 1.384 . S
H482 C488 0.930 . S
H483 C492 0.930 1_565 S
H484 C497 0.929 . S
H485 C495 0.929 . S
H486 C490 0.940 . S
H487 C496 0.929 . S
C488 H482 0.930 . S
C488 C489 1.363 1_545 S
C488 C496 1.378 . S
C489 C488 1.363 1_565 S
C489 C497 1.436 . S
C490 H486 0.940 . S
C490 C492 1.375 1_565 S
C490 C494 1.341 1_565 S
C491 C494 1.463 . S
C491 C496 1.350 . S
C491 N499 1.427 1_545 S
C492 H483 0.930 1_545 S
C492 C490 1.375 1_545 S
C492 C493 1.367 . S
C493 C492 1.367 . S
C493 C495 1.433 . S
C494 C490 1.341 1_545 S
C494 C491 1.463 . S
C494 N498 1.427 . S
C495 H485 0.929 . S
C495 C493 1.433 . S
C495 N498 1.384 . S
C496 H487 0.929 . S
C496 C488 1.378 . S
C496 C491 1.350 . S
C497 H484 0.929 . S
C497 C489 1.436 . S
C497 N499 1.384 . S
N498 C494 1.427 . S
N498 C495 1.384 . S
N499 C491 1.427 1_565 S
N499 C497 1.384 . S
H500 C506 0.930 . S
H501 C510 0.930 . S
H502 C515 0.929 . S
H503 C513 0.929 . S
H504 C508 0.929 . S
H505 C514 0.929 . S
C506 H500 0.930 . S
C506 C507 1.367 . S
C506 C514 1.378 . S
C507 C506 1.367 . S
C507 C515 1.433 . S
C508 H504 0.929 . S
C508 C510 1.378 . S
C508 C512 1.350 . S
C509 C512 1.463 . S
C509 C514 1.350 . S
C509 N517 1.427 . S
C510 H501 0.930 . S
C510 C508 1.378 . S
C510 C511 1.367 . S
C511 C510 1.367 . S
C511 C513 1.433 . S
C512 C508 1.350 . S
C512 C509 1.463 . S
C512 N516 1.427 . S
C513 H503 0.929 . S
C513 C511 1.433 . S
C513 N516 1.384 . S
C514 H505 0.929 . S
C514 C506 1.378 . S
C514 C509 1.350 . S
C515 H502 0.929 . S
C515 C507 1.433 . S
C515 N517 1.384 . S
N516 C512 1.427 . S
N516 C513 1.384 . S
N517 C509 1.427 . S
N517 C515 1.384 . S
H518 C524 0.930 . S
H519 C528 0.930 . S
H520 C533 0.929 . S
H521 C531 0.929 . S
H522 C526 0.929 . S
H523 C532 0.929 . S
C524 H518 0.930 . S
C524 C525 1.367 . S
C524 C532 1.378 . S
C525 C524 1.367 . S
C525 C533 1.433 . S
C526 H522 0.929 . S
C526 C528 1.378 . S
C526 C530 1.350 . S
C527 C530 1.463 . S
C527 C532 1.350 . S
C527 N535 1.427 . S
C528 H519 0.930 . S
C528 C526 1.378 . S
C528 C529 1.367 . S
C529 C528 1.367 . S
C529 C531 1.433 . S
C530 C526 1.350 . S
C530 C527 1.463 . S
C530 N534 1.427 . S
C531 H521 0.929 . S
C531 C529 1.433 . S
C531 N534 1.384 . S
C532 H523 0.929 . S
C532 C524 1.378 . S
C532 C527 1.350 . S
C533 H520 0.929 . S
C533 C525 1.433 . S
C533 N535 1.384 . S
N534 C530 1.427 . S
N534 C531 1.384 . S
N535 C527 1.427 . S
N535 C533 1.384 . S
H536 C542 0.930 . S
H537 C546 0.930 . S
H538 C551 0.929 . S
H539 C549 0.929 . S
H540 C544 0.929 . S
H541 C550 0.929 . S
C542 H536 0.930 . S
C542 C543 1.367 . S
C542 C550 1.378 . S
C543 C542 1.367 . S
C543 C551 1.433 1_455 S
C544 H540 0.929 . S
C544 C546 1.378 . S
C544 C548 1.350 1_655 S
C545 C548 1.463 . S
C545 C550 1.350 . S
C545 N553 1.427 1_455 S
C546 H537 0.930 . S
C546 C544 1.378 . S
C546 C547 1.367 1_655 S
C547 C546 1.367 1_455 S
C547 C549 1.433 . S
C548 C544 1.350 1_455 S
C548 C545 1.463 . S
C548 N552 1.427 . S
C549 H539 0.929 . S
C549 C547 1.433 . S
C549 N552 1.384 . S
C550 H541 0.929 . S
C550 C542 1.378 . S
C550 C545 1.350 . S
C551 H538 0.929 . S
C551 C543 1.433 1_655 S
C551 N553 1.384 . S
N552 C548 1.427 . S
N552 C549 1.384 . S
N553 C545 1.427 1_655 S
N553 C551 1.384 . S
H554 C560 0.930 . S
H555 C564 0.930 . S
H556 C569 0.929 . S
H557 C567 0.931 . S
H558 C562 0.929 . S
H559 C568 0.929 . S
C560 H554 0.930 . S
C560 C561 1.367 1_565 S
C560 C568 1.378 . S
C561 C560 1.367 1_545 S
C561 C569 1.433 . S
C562 H558 0.929 . S
C562 C564 1.378 . S
C562 C566 1.350 . S
C563 C566 1.463 . S
C563 C568 1.350 1_545 S
C563 N571 1.427 . S
C564 H555 0.930 . S
C564 C562 1.378 . S
C564 C565 1.367 . S
C565 C564 1.367 . S
C565 C567 1.433 . S
C566 C562 1.350 . S
C566 C563 1.463 . S
C566 N570 1.427 . S
C567 H557 0.931 . S
C567 C565 1.433 . S
C567 N570 1.384 . S
C568 H559 0.929 . S
C568 C560 1.378 . S
C568 C563 1.350 1_565 S
C569 H556 0.929 . S
C569 C561 1.433 . S
C569 N571 1.384 . S
N570 C566 1.427 . S
N570 C567 1.384 . S
N571 C563 1.427 . S
N571 C569 1.384 . S
H572 C578 0.930 . S
H573 C582 0.930 . S
H574 C587 0.929 . S
H575 C585 0.929 . S
H576 C580 0.929 . S
H577 C586 0.929 . S
C578 H572 0.930 . S
C578 C579 1.367 . S
C578 C586 1.378 . S
C579 C578 1.367 . S
C579 C587 1.433 . S
C580 H576 0.929 . S
C580 C582 1.378 . S
C580 C584 1.350 . S
C581 C584 1.463 . S
C581 C586 1.350 . S
C581 N589 1.427 . S
C582 H573 0.930 . S
C582 C580 1.378 . S
C582 C583 1.367 . S
C583 C582 1.367 . S
C583 C585 1.433 . S
C584 C580 1.350 . S
C584 C581 1.463 . S
C584 N588 1.427 . S
C585 H575 0.929 . S
C585 C583 1.433 . S
C585 N588 1.384 . S
C586 H577 0.929 . S
C586 C578 1.378 . S
C586 C581 1.350 . S
C587 H574 0.929 . S
C587 C579 1.433 . S
C587 N589 1.384 . S
N588 C584 1.427 . S
N588 C585 1.384 . S
N589 C581 1.427 . S
N589 C587 1.384 . S
H590 C596 0.930 . S
H591 C600 0.930 . S
H592 C605 0.929 . S
H593 C603 0.929 . S
H594 C598 0.929 . S
H595 C604 0.929 . S
C596 H590 0.930 . S
C596 C597 1.367 . S
C596 C604 1.378 . S
C597 C596 1.367 . S
C597 C605 1.433 . S
C598 H594 0.929 . S
C598 C600 1.378 . S
C598 C602 1.350 . S
C599 C602 1.463 . S
C599 C604 1.350 . S
C599 N607 1.427 . S
C600 H591 0.930 . S
C600 C598 1.378 . S
C600 C601 1.367 . S
C601 C600 1.367 . S
C601 C603 1.433 . S
C602 C598 1.350 . S
C602 C599 1.463 . S
C602 N606 1.427 . S
C603 H593 0.929 . S
C603 C601 1.433 . S
C603 N606 1.384 . S
C604 H595 0.929 . S
C604 C596 1.378 . S
C604 C599 1.350 . S
C605 H592 0.929 . S
C605 C597 1.433 . S
C605 N607 1.384 . S
N606 C602 1.427 . S
N606 C603 1.384 . S
N607 C599 1.427 . S
N607 C605 1.384 . S
H608 C614 0.930 . S
H609 C618 0.930 . S
H610 C623 0.929 . S
H611 C621 0.940 . S
H612 C616 0.929 . S
H613 C622 0.929 . S
C614 H608 0.930 . S
C614 C615 1.367 1_455 S
C614 C622 1.378 . S
C615 C614 1.367 1_655 S
C615 C623 1.433 . S
C616 H612 0.929 . S
C616 C618 1.378 . S
C616 C620 1.350 . S
C617 C620 1.463 . S
C617 C622 1.350 1_655 S
C617 N625 1.427 . S
C618 H609 0.930 . S
C618 C616 1.378 . S
C618 C619 1.367 . S
C619 C618 1.367 . S
C619 C621 1.421 1_655 S
C620 C616 1.350 . S
C620 C617 1.463 . S
C620 N624 1.427 1_655 S
C621 H611 0.940 . S
C621 C619 1.421 1_455 S
C621 N624 1.386 . S
C622 H613 0.929 . S
C622 C614 1.378 . S
C622 C617 1.350 1_455 S
C623 H610 0.929 . S
C623 C615 1.433 . S
C623 N625 1.384 . S
N624 C620 1.427 1_455 S
N624 C621 1.386 . S
N625 C617 1.427 . S
N625 C623 1.384 . S
H626 C632 0.930 . S
H627 C636 0.930 . S
H628 C641 0.929 . S
H629 C639 0.929 . S
H630 C634 0.929 . S
H631 C640 0.929 . S
C632 H626 0.930 . S
C632 C633 1.367 . S
C632 C640 1.378 . S
C633 C632 1.367 . S
C633 C641 1.433 1_565 S
C634 H630 0.929 . S
C634 C636 1.378 . S
C634 C638 1.350 1_545 S
C635 C638 1.463 . S
C635 C640 1.350 . S
C635 N643 1.427 1_565 S
C636 H627 0.930 . S
C636 C634 1.378 . S
C636 C637 1.367 1_545 S
C637 C636 1.367 1_565 S
C637 C639 1.433 . S
C638 C634 1.350 1_565 S
C638 C635 1.463 . S
C638 N642 1.427 . S
C639 H629 0.929 . S
C639 C637 1.433 . S
C639 N642 1.384 . S
C640 H631 0.929 . S
C640 C632 1.378 . S
C640 C635 1.350 . S
C641 H628 0.929 . S
C641 C633 1.433 1_545 S
C641 N643 1.384 . S
N642 C638 1.427 . S
N642 C639 1.384 . S
N643 C635 1.427 1_545 S
N643 C641 1.384 . S
H644 C650 0.930 . S
H645 C654 0.930 . S
H646 C659 0.929 . S
H647 C657 0.929 . S
H648 C652 0.929 . S
H649 C658 0.929 . S
C650 H644 0.930 . S
C650 C651 1.367 . S
C650 C658 1.378 . S
C651 C650 1.367 . S
C651 C659 1.433 . S
C652 H648 0.929 . S
C652 C654 1.378 . S
C652 C656 1.350 . S
C653 C656 1.463 . S
C653 C658 1.350 . S
C653 N661 1.427 . S
C654 H645 0.930 . S
C654 C652 1.378 . S
C654 C655 1.367 . S
C655 C654 1.367 . S
C655 C657 1.433 . S
C656 C652 1.350 . S
C656 C653 1.463 . S
C656 N660 1.427 . S
C657 H647 0.929 . S
C657 C655 1.433 . S
C657 N660 1.384 . S
C658 H649 0.929 . S
C658 C650 1.378 . S
C658 C653 1.350 . S
C659 H646 0.929 . S
C659 C651 1.433 . S
C659 N661 1.384 . S
N660 C656 1.427 . S
N660 C657 1.384 . S
N661 C653 1.427 . S
N661 C659 1.384 . S
H662 C668 0.930 . S
H663 C672 0.930 . S
H664 C677 0.929 . S
H665 C675 0.929 . S
H666 C670 0.929 . S
H667 C676 0.929 . S
C668 H662 0.930 . S
C668 C669 1.367 . S
C668 C676 1.378 . S
C669 C668 1.367 . S
C669 C677 1.433 . S
C670 H666 0.929 . S
C670 C672 1.378 . S
C670 C674 1.350 . S
C671 C674 1.463 . S
C671 C676 1.350 . S
C671 N679 1.427 . S
C672 H663 0.930 . S
C672 C670 1.378 . S
C672 C673 1.367 . S
C673 C672 1.367 . S
C673 C675 1.433 . S
C674 C670 1.350 . S
C674 C671 1.463 . S
C674 N678 1.427 . S
C675 H665 0.929 . S
C675 C673 1.433 . S
C675 N678 1.384 . S
C676 H667 0.929 . S
C676 C668 1.378 . S
C676 C671 1.350 . S
C677 H664 0.929 . S
C677 C669 1.433 . S
C677 N679 1.384 . S
N678 C674 1.427 . S
N678 C675 1.384 . S
N679 C671 1.427 . S
N679 C677 1.384 . S
C255 C74 1.772 1_565 S
C259 C97 1.875 1_545 S
C277 C137 1.890 . S
C273 C85 1.782 . S
C295 C177 1.891 . S
C291 C52 1.790 . S
C313 C217 1.882 1_455 S
C309 C63 1.785 1_655 S
C331 C106 1.877 . S
C327 C30 1.783 1_565 S
C345 C41 1.797 . S
C349 C146 1.889 . S
C363 C8 1.798 . S
C367 C186 1.891 . S
C381 C19 1.787 . S
C385 C226 1.881 1_655 S
C403 C103 0.595 . S
C399 C62 0.570 . S
C421 C143 0.605 . S
C417 C73 0.579 . S
C439 C183 0.601 . S
C435 C84 0.602 . S
C453 C51 0.587 . S
C457 C223 0.588 . S
C471 C18 0.627 1_655 S
C475 C94 0.601 . S
C493 C134 0.584 . S
C489 C29 0.594 1_565 S
C511 C174 0.592 . S
C507 C40 0.607 . S
C525 C7 0.630 . S
C529 C214 0.609 . S
C543 C60 1.741 . S
C547 C107 2.258 . S
C561 C71 1.726 . S
C565 C147 2.240 . S
C583 C187 2.225 . S
C579 C82 1.683 . S
C601 C227 2.251 . S
C597 C49 1.701 . S
C615 C16 1.793 1_655 S
C619 C98 2.274 . S
C637 C138 2.235 . S
C633 C27 1.785 1_565 S
C655 C178 2.220 . S
C651 C38 1.791 . S
C669 C5 1.802 . S
C673 C218 2.255 . S
