# Generated by pormake.
# Topology zzz, (3,6)-cn, num edge types: 1
# Building blocks:
#     Node 0, Type 0, BuildingBlock: OLANEW_clean_sbu_2, # of connection points: 3
#     Node 1, Type 0, BuildingBlock: OLANEW_clean_sbu_2, # of connection points: 3
#     Node 2, Type 0, BuildingBlock: OLANEW_clean_sbu_2, # of connection points: 3
#     Node 3, Type 0, BuildingBlock: OLANEW_clean_sbu_2, # of connection points: 3
#     Node 4, Type 0, BuildingBlock: OLANEW_clean_sbu_2, # of connection points: 3
#     Node 5, Type 0, BuildingBlock: OLANEW_clean_sbu_2, # of connection points: 3
#     Node 6, Type 0, BuildingBlock: OLANEW_clean_sbu_2, # of connection points: 3
#     Node 7, Type 0, BuildingBlock: OLANEW_clean_sbu_2, # of connection points: 3
#     Node 8, Type 1, BuildingBlock: KUMBUR_clean_sbu_1, # of connection points: 6
#     Node 9, Type 1, BuildingBlock: KUMBUR_clean_sbu_1, # of connection points: 6
#     Node 10, Type 1, BuildingBlock: KUMBUR_clean_sbu_1, # of connection points: 6
#     Node 11, Type 1, BuildingBlock: KUMBUR_clean_sbu_1, # of connection points: 6
#     Edge 12, Type (0, 1), BuildingBlock: EYOCIG_clean_linker_4, # of connection points: 2
#     Edge 13, Type (0, 1), BuildingBlock: EYOCIG_clean_linker_4, # of connection points: 2
#     Edge 14, Type (0, 1), BuildingBlock: EYOCIG_clean_linker_4, # of connection points: 2
#     Edge 15, Type (0, 1), BuildingBlock: EYOCIG_clean_linker_4, # of connection points: 2
#     Edge 16, Type (0, 1), BuildingBlock: EYOCIG_clean_linker_4, # of connection points: 2
#     Edge 17, Type (0, 1), BuildingBlock: EYOCIG_clean_linker_4, # of connection points: 2
#     Edge 18, Type (0, 1), BuildingBlock: EYOCIG_clean_linker_4, # of connection points: 2
#     Edge 19, Type (0, 1), BuildingBlock: EYOCIG_clean_linker_4, # of connection points: 2
#     Edge 20, Type (0, 1), BuildingBlock: EYOCIG_clean_linker_4, # of connection points: 2
#     Edge 21, Type (0, 1), BuildingBlock: EYOCIG_clean_linker_4, # of connection points: 2
#     Edge 22, Type (0, 1), BuildingBlock: EYOCIG_clean_linker_4, # of connection points: 2
#     Edge 23, Type (0, 1), BuildingBlock: EYOCIG_clean_linker_4, # of connection points: 2
#     Edge 24, Type (0, 1), BuildingBlock: EYOCIG_clean_linker_4, # of connection points: 2
#     Edge 25, Type (0, 1), BuildingBlock: EYOCIG_clean_linker_4, # of connection points: 2
#     Edge 26, Type (0, 1), BuildingBlock: EYOCIG_clean_linker_4, # of connection points: 2
#     Edge 27, Type (0, 1), BuildingBlock: EYOCIG_clean_linker_4, # of connection points: 2
#     Edge 28, Type (0, 1), BuildingBlock: EYOCIG_clean_linker_4, # of connection points: 2
#     Edge 29, Type (0, 1), BuildingBlock: EYOCIG_clean_linker_4, # of connection points: 2
#     Edge 30, Type (0, 1), BuildingBlock: EYOCIG_clean_linker_4, # of connection points: 2
#     Edge 31, Type (0, 1), BuildingBlock: EYOCIG_clean_linker_4, # of connection points: 2
#     Edge 32, Type (0, 1), BuildingBlock: EYOCIG_clean_linker_4, # of connection points: 2
#     Edge 33, Type (0, 1), BuildingBlock: EYOCIG_clean_linker_4, # of connection points: 2
#     Edge 34, Type (0, 1), BuildingBlock: EYOCIG_clean_linker_4, # of connection points: 2
#     Edge 35, Type (0, 1), BuildingBlock: EYOCIG_clean_linker_4, # of connection points: 2
# Relax obj value: 0.177
# Max RMSD: 0.114
# Mean RMSD: 0.088
data_MOF--net-zzz--node1-OLANEW_clean_sbu_2--node2-KUMBUR_clean_sbu_1--edge1-EYOCIG_clean_linker_4
_symmetry_space_group_name_H-M    P1
_symmetry_Int_Tables_number       1
_symmetry_cell_setting            triclinic
loop_
_symmetry_equiv_pos_as_xyz
'x, y, z'
_cell_length_a     43.938342
_cell_length_b     43.958514
_cell_length_c     14.450675
_cell_angle_alpha  90.030749
_cell_angle_beta   89.788357
_cell_angle_gamma 90.908819
loop_
_atom_site_label
_atom_site_type_symbol
_atom_site_fract_x
_atom_site_fract_y
_atom_site_fract_z
_atom_type_partial_charge
O0 O 0.73298 0.54819 0.19273 0.0
Cd1 Cd 0.6848 0.54074 0.2712 0.0
O2 O 0.74099 0.51683 0.30539 0.0
Cd3 Cd 0.76457 0.48883 0.40267 0.0
O4 O 0.7946 0.49447 0.51853 0.0
C5 C 0.8097 0.51914 0.51152 0.0
O6 O 0.80354 0.538 0.44398 0.0
C7 C 0.75129 0.53195 0.23701 0.0
C8 C 0.6434 0.52536 0.13754 0.0
O9 O 0.64991 0.55319 0.15554 0.0
O10 O 0.65577 0.50426 0.18475 0.0
O11 O 0.95924 0.73588 0.18789 0.0
Cd12 Cd 0.96793 0.6893 0.27106 0.0
O13 O 0.99297 0.74568 0.29324 0.0
Cd14 Cd 0.01898 0.775 0.38023 0.0
O15 O 0.98865 0.80359 0.45582 0.0
C16 C -0.00158 0.81527 0.52982 0.0
O17 O 0.02475 0.80678 0.56258 0.0
C18 C 0.97657 0.75489 0.2273 0.0
C19 C 0.98373 0.64836 0.13782 0.0
O20 O 0.95584 0.65361 0.15651 0.0
O21 O 0.00476 0.66166 0.18471 0.0
O22 O 0.77512 0.96607 0.1915 0.0
Cd23 Cd 0.82121 0.97233 0.27775 0.0
O24 O 0.76318 -0.00273 0.30132 0.0
Cd25 Cd 0.73894 0.02575 0.39667 0.0
O26 O 0.71378 0.0175 0.5224 0.0
C27 C 0.69744 0.99386 0.51089 0.0
O28 O 0.70152 0.9773 0.43643 0.0
C29 C 0.75571 0.98308 0.22807 0.0
C30 C 0.86188 0.98743 0.14142 0.0
O31 O 0.85536 0.95964 0.15985 0.0
O32 O 0.85029 0.0086 0.19055 0.0
O33 O 0.54541 0.78195 0.18685 0.0
Cd34 Cd 0.53987 0.82905 0.27386 0.0
O35 O 0.51417 0.77059 0.29836 0.0
Cd36 Cd 0.49018 0.74068 0.38929 0.0
O37 O 0.52008 0.71375 0.47102 0.0
C38 C 0.50811 0.69976 0.53826 0.0
O39 O 0.47997 0.70569 0.5619 0.0
C40 C 0.52935 0.7622 0.2284 0.0
C41 C 0.52634 0.87366 0.14854 0.0
O42 O 0.55389 0.86662 0.16555 0.0
O43 O 0.50471 0.86042 0.19343 0.0
O44 O 0.26931 0.47254 0.20164 0.0
Cd45 Cd 0.31651 0.46672 0.11678 0.0
O46 O 0.26016 0.45084 0.0706 0.0
Cd47 Cd 0.24062 0.43778 0.94105 0.0
O48 O 0.2139 0.46014 0.83883 0.0
C49 C 0.18629 0.45418 0.85637 0.0
O50 O 0.17929 0.43462 0.92187 0.0
C51 C 0.24997 0.46255 0.14464 0.0
C52 C 0.36074 0.47853 0.24194 0.0
O53 O 0.35024 0.50013 0.19268 0.0
O54 O 0.35144 0.45114 0.22848 0.0
O55 O 0.0371 0.2747 0.20299 0.0
Cd56 Cd 0.04368 0.32174 0.11739 0.0
O57 O 0.05935 0.26636 0.0724 0.0
Cd58 Cd 0.07234 0.24682 0.94343 0.0
O59 O 0.04843 0.22015 0.8429 0.0
C60 C 0.05477 0.19267 0.85721 0.0
O61 O 0.0754 0.18588 0.91888 0.0
C62 C 0.04717 0.25574 0.14559 0.0
C63 C 0.03187 0.36613 0.2411 0.0
O64 O 0.01027 0.35483 0.19211 0.0
O65 O 0.05925 0.35752 0.22807 0.0
O66 O 0.22779 0.03902 0.20078 0.0
Cd67 Cd 0.18464 0.05014 0.10756 0.0
O68 O 0.24453 0.06802 0.09085 0.0
Cd69 Cd 0.2743 0.08572 0.98722 0.0
O70 O 0.29788 0.05154 0.91191 0.0
C71 C 0.31188 0.05936 0.83935 0.0
O72 O 0.30794 0.08663 0.80507 0.0
C73 C 0.24999 0.05195 0.16162 0.0
C74 C 0.14167 0.03995 0.2369 0.0
O75 O 0.15021 0.01822 0.18434 0.0
O76 O 0.15165 0.0671 0.22297 0.0
O77 O 0.46942 0.23573 0.19086 0.0
Cd78 Cd 0.46451 0.18855 0.10305 0.0
O79 O 0.44046 0.24812 0.07669 0.0
Cd80 Cd 0.42421 0.2766 0.96989 0.0
O81 O 0.45803 0.30438 0.90367 0.0
C82 C 0.45068 0.31744 0.82971 0.0
O83 O 0.42436 0.31095 0.79139 0.0
C84 C 0.45606 0.25625 0.14638 0.0
C85 C 0.4728 0.14171 0.22454 0.0
O86 O 0.49571 0.15517 0.18682 0.0
O87 O 0.44587 0.14948 0.20193 0.0
Tb88 Tb 0.97281 0.0279 0.58239 0.0
C89 C 0.08231 0.01912 0.89381 0.0
N90 N 0.07852 0.00407 0.81234 0.0
C91 C 0.13242 0.00755 0.78386 0.0
C92 C 0.11133 0.02944 0.92282 0.0
C93 C 0.10309 -0.00186 0.75723 0.0
C94 C 0.13655 0.02343 0.86673 0.0
C95 C 0.06025 0.0375 0.037 0.0
C96 C 0.05702 0.02349 0.94955 0.0
C97 C 0.08884 0.0489 0.06446 0.0
C98 C 0.11427 0.04506 0.00716 0.0
Tb99 Tb 0.02978 0.98768 0.78094 0.0
N100 N 0.02949 0.01288 0.9197 0.0
C101 C 0.03481 0.03897 0.09515 0.0
C102 C 0.00502 0.01297 0.97822 0.0
C103 C 0.00719 0.02622 0.06608 0.0
H104 H 0.1003 0.98537 0.69388 0.0
H105 H 0.98765 0.02614 0.11191 0.0
H106 H 0.90227 0.03047 0.66676 0.0
H107 H 0.01633 0.98877 0.25345 0.0
H108 H 0.98405 0.0018 0.95973 0.0
H109 H 0.03646 0.04904 0.16347 0.0
H110 H 0.01942 0.01369 0.40509 0.0
H111 H 0.15186 0.00242 0.74066 0.0
H112 H 0.09149 0.06046 0.13021 0.0
H113 H 0.13615 0.054 0.02899 0.0
H114 H 0.85114 0.01166 0.62153 0.0
H115 H 0.15926 0.03063 0.88723 0.0
H116 H 0.96792 0.9649 0.20212 0.0
N117 N 0.92441 0.01149 0.54942 0.0
C118 C 0.92106 0.99573 0.46912 0.0
C119 C 0.87068 0.00677 0.57852 0.0
C120 C 0.89238 0.98427 0.44123 0.0
C121 C 0.89974 0.01725 0.60417 0.0
C122 C 0.86701 0.98999 0.49705 0.0
N123 N 0.97386 0.00251 0.44404 0.0
C124 C -0.00148 0.00237 0.38626 0.0
C125 C 0.94372 0.97674 0.32758 0.0
C126 C 0.94654 0.99141 0.41408 0.0
C127 C 0.96928 0.97542 0.26987 0.0
C128 C -0.00332 0.98871 0.29885 0.0
H129 H 0.84451 0.98189 0.47739 0.0
H130 H 0.86852 0.9574 0.33844 0.0
H131 H 0.91306 0.95223 0.23605 0.0
O132 O 0.99023 0.06452 0.50408 0.0
O133 O 0.9691 0.97846 0.59505 0.0
O134 O 0.01639 0.96694 0.64965 0.0
O135 O 0.94283 0.0637 0.55048 0.0
O136 O 0.02244 0.03038 0.56488 0.0
O137 O 0.0465 0.98988 0.63855 0.0
O138 O 0.01348 0.95141 0.86188 0.0
O139 O 0.03256 0.03747 0.76905 0.0
O140 O 0.98492 0.04721 0.71535 0.0
O141 O 0.06045 0.95227 0.81117 0.0
O142 O 0.98008 0.98469 0.80075 0.0
O143 O 0.95542 0.02457 0.72484 0.0
C144 C 0.98875 0.95882 0.62576 0.0
C145 C 0.95974 0.10764 0.4581 0.0
C146 C 0.97814 0.14815 0.35562 0.0
C147 C 0.95082 0.16358 0.36931 0.0
C148 C 0.93247 0.1234 0.47058 0.0
C149 C 0.92812 0.15123 0.42646 0.0
C150 C 0.98266 0.12022 0.40027 0.0
C151 C 0.04597 0.01292 0.58016 0.0
C152 C 0.96415 0.07815 0.50472 0.0
C153 C 0.88998 0.96766 0.35855 0.0
C154 C 0.91544 0.96434 0.30101 0.0
C155 C 0.01208 0.05642 0.73866 0.0
C156 C 0.04453 0.90879 0.90629 0.0
C157 C 0.02595 0.86812 0.00644 0.0
C158 C 0.05355 0.85301 0.99502 0.0
C159 C 0.07221 0.89354 0.89588 0.0
C160 C 0.02137 0.89592 0.96209 0.0
C161 C 0.0766 0.86572 0.94008 0.0
C162 C 0.95641 0.0021 0.78586 0.0
C163 C 0.03964 0.93794 0.8592 0.0
H164 H 0.94704 0.18524 0.33578 0.0
H165 H 0.91452 0.11426 0.51455 0.0
H166 H 0.90707 0.16329 0.4366 0.0
H167 H 0.00385 0.10837 0.38987 0.0
H168 H 0.05727 0.83136 0.02873 0.0
H169 H 0.09038 0.90302 0.85343 0.0
H170 H -0.00011 0.9074 0.971 0.0
H171 H 0.09789 0.85397 0.93169 0.0
Tb172 Tb 0.52092 0.03815 0.78169 0.0
C173 C 0.4879 0.9061 0.55864 0.0
N174 N 0.50283 0.93194 0.5316 0.0
C175 C 0.53646 0.90229 0.43736 0.0
C176 C 0.49654 0.87726 0.52538 0.0
C177 C 0.5268 0.93043 0.47122 0.0
C178 C 0.52135 0.87559 0.46478 0.0
C179 C 0.44541 0.88274 0.64085 0.0
C180 C 0.46308 0.90874 0.61709 0.0
C181 C 0.45407 0.85394 0.60875 0.0
C182 C 0.47974 0.85117 0.55172 0.0
Tb183 Tb 0.48322 0.97671 0.58539 0.0
N184 N 0.45546 0.93698 0.64703 0.0
C185 C 0.41898 0.88663 0.69346 0.0
C186 C 0.42926 0.94088 0.69644 0.0
C187 C 0.41072 0.91586 0.72053 0.0
H188 H 0.538 0.95093 0.44667 0.0
H189 H 0.38984 0.91919 0.75892 0.0
H190 H 0.4659 0.06397 0.91933 0.0
H191 H 0.61445 0.09561 0.60848 0.0
H192 H 0.42194 0.96329 0.71516 0.0
H193 H 0.40448 0.86735 0.71175 0.0
H194 H 0.58215 0.05152 0.65152 0.0
H195 H 0.5553 0.90126 0.38903 0.0
H196 H 0.44085 0.83373 0.62655 0.0
H197 H 0.486 0.82886 0.52674 0.0
H198 H 0.44895 0.1136 0.97835 0.0
H199 H 0.5287 0.8539 0.43772 0.0
H200 H 0.60003 0.14743 0.65657 0.0
N201 N 0.50134 0.08295 0.83546 0.0
C202 C 0.51645 0.10877 0.80911 0.0
C203 C 0.4678 0.11258 0.93009 0.0
C204 C 0.50793 0.1376 0.84286 0.0
C205 C 0.47728 0.08447 0.8955 0.0
C206 C 0.48312 0.13926 0.90349 0.0
N207 N 0.54886 0.07787 0.72063 0.0
C208 C 0.575 0.07394 0.6709 0.0
C209 C 0.55908 0.13208 0.72741 0.0
C210 C 0.54131 0.10611 0.75084 0.0
C211 C 0.58548 0.12818 0.67468 0.0
C212 C 0.59361 0.09895 0.64712 0.0
H213 H 0.47592 0.16092 0.93123 0.0
H214 H 0.51866 0.18595 0.84221 0.0
H215 H 0.56378 0.18106 0.74228 0.0
O216 O 0.56268 0.02427 0.83696 0.0
O217 O 0.50288 0.05878 0.65556 0.0
O218 O 0.50719 0.0192 0.55361 0.0
O219 O 0.52903 0.04753 0.92273 0.0
O220 O 0.55095 0.00762 0.70665 0.0
O221 O 0.53121 0.99007 0.56543 0.0
O222 O 0.44121 0.99047 0.53057 0.0
O223 O 0.50093 0.95606 0.71204 0.0
O224 O 0.49746 0.99553 0.8152 0.0
O225 O 0.47486 0.96749 0.44441 0.0
O226 O 0.45327 0.00739 0.66058 0.0
O227 O 0.4733 0.02386 0.80282 0.0
C228 C 0.49804 0.04658 0.57376 0.0
C229 C 0.5763 0.03316 0.99788 0.0
C230 C 0.62381 0.01727 0.06717 0.0
C231 C 0.61408 0.02849 0.15274 0.0
C232 C 0.56679 0.04404 0.08455 0.0
C233 C 0.58568 0.04176 0.16138 0.0
C234 C 0.60516 0.01981 0.98912 0.0
C235 C 0.55332 0.99359 0.62675 0.0
C236 C 0.5557 0.03508 0.91816 0.0
C237 C 0.52485 0.16365 0.81694 0.0
C238 C 0.5505 0.16088 0.75985 0.0
C239 C 0.50597 0.96799 0.79417 0.0
C240 C 0.4272 0.98115 0.36965 0.0
C241 C 0.37896 0.99536 0.30009 0.0
C242 C 0.38948 0.98524 0.21411 0.0
C243 C 0.43747 0.97174 0.28222 0.0
C244 C 0.39752 0.99278 0.37876 0.0
C245 C 0.4186 0.97358 0.20523 0.0
C246 C 0.4509 0.01983 0.74286 0.0
C247 C 0.44797 0.97949 0.44945 0.0
H248 H 0.62841 0.02673 0.21338 0.0
H249 H 0.54466 0.05418 0.09322 0.0
H250 H 0.57822 0.05011 0.22801 0.0
H251 H 0.61288 0.01122 0.92284 0.0
H252 H 0.37544 0.98721 0.15292 0.0
H253 H 0.46025 0.96314 0.27299 0.0
H254 H 0.38935 0.00068 0.44535 0.0
H255 H 0.42677 0.96645 0.13804 0.0
Tb256 Tb 0.53125 0.48672 0.58296 0.0
C257 C 0.42169 0.49717 0.89388 0.0
N258 N 0.42591 0.51227 0.81259 0.0
C259 C 0.37207 0.50933 0.78371 0.0
C260 C 0.39245 0.48723 0.92283 0.0
C261 C 0.40157 0.51854 0.75747 0.0
C262 C 0.3675 0.49347 0.86647 0.0
C263 C 0.44312 0.47844 0.03698 0.0
C264 C 0.44675 0.49248 0.94966 0.0
C265 C 0.41428 0.46758 0.06465 0.0
C266 C 0.38901 0.47186 0.00755 0.0
Tb267 Tb 0.47493 0.52823 0.78161 0.0
N268 N 0.47446 0.50288 0.92005 0.0
C269 C 0.46842 0.47659 0.09502 0.0
C270 C 0.49873 0.5026 0.97872 0.0
C271 C 0.49623 0.48916 0.06624 0.0
H272 H 0.40467 0.53138 0.69436 0.0
H273 H 0.51564 0.48903 0.11213 0.0
H274 H 0.60147 0.4837 0.66814 0.0
H275 H 0.48918 0.52617 0.25411 0.0
H276 H 0.51975 0.51381 0.9606 0.0
H277 H 0.46651 0.46643 0.16318 0.0
H278 H 0.48552 0.50118 0.40573 0.0
H279 H 0.35284 0.51466 0.74036 0.0
H280 H 0.41125 0.45621 0.13063 0.0
H281 H 0.36686 0.46359 0.03004 0.0
H282 H 0.65291 0.50202 0.62332 0.0
H283 H 0.34465 0.4865 0.88673 0.0
H284 H 0.5379 0.54975 0.20319 0.0
N285 N 0.57988 0.50293 0.55076 0.0
C286 C 0.58365 0.51866 0.47051 0.0
C287 C 0.63356 0.5071 0.58017 0.0
C288 C 0.61256 0.5297 0.44258 0.0
C289 C 0.60432 0.49692 0.60564 0.0
C290 C 0.63768 0.52374 0.4986 0.0
N291 N 0.53088 0.51238 0.44519 0.0
C292 C 0.50645 0.51256 0.38713 0.0
C293 C 0.56162 0.53782 0.32885 0.0
C294 C 0.55839 0.52325 0.41541 0.0
C295 C 0.53624 0.53932 0.271 0.0
C296 C 0.50866 0.52619 0.29976 0.0
H297 H 0.66033 0.53154 0.47899 0.0
H298 H 0.63721 0.55566 0.33868 0.0
H299 H 0.59288 0.56165 0.23688 0.0
O300 O 0.51383 0.45066 0.50189 0.0
O301 O 0.53597 0.53608 0.59676 0.0
O302 O 0.48874 0.54898 0.65056 0.0
O303 O 0.56091 0.45075 0.54971 0.0
O304 O 0.48151 0.48474 0.568 0.0
O305 O 0.4584 0.5264 0.63915 0.0
O306 O 0.49169 0.56408 0.86364 0.0
O307 O 0.47183 0.47842 0.7703 0.0
O308 O 0.5193 0.46649 0.71527 0.0
O309 O 0.44486 0.56412 0.81323 0.0
O310 O 0.52465 0.53029 0.80002 0.0
O311 O 0.54818 0.4893 0.72565 0.0
C312 C 0.5166 0.55628 0.62613 0.0
C313 C 0.54427 0.40735 0.45463 0.0
C314 C 0.52581 0.36627 0.35404 0.0
C315 C 0.55334 0.35117 0.36663 0.0
C316 C 0.57169 0.39179 0.466 0.0
C317 C 0.57613 0.36389 0.4222 0.0
C318 C 0.52128 0.39444 0.39794 0.0
C319 C 0.45874 0.50343 0.58031 0.0
C320 C 0.53974 0.43672 0.50254 0.0
C321 C 0.61546 0.54604 0.35947 0.0
C322 C 0.59015 0.54974 0.30208 0.0
C323 C 0.492 0.4586 0.74249 0.0
C324 C 0.46122 0.60716 0.90983 0.0
C325 C 0.48023 0.64782 0.00964 0.0
C326 C 0.45263 0.66297 0.99958 0.0
C327 C 0.43359 0.62256 0.90093 0.0
C328 C 0.48458 0.61993 0.9649 0.0
C329 C 0.42941 0.65035 0.94563 0.0
C330 C 0.54754 0.51171 0.78695 0.0
C331 C 0.46578 0.57798 0.86174 0.0
H332 H 0.55715 0.32936 0.33386 0.0
H333 H 0.58967 0.40108 0.50917 0.0
H334 H 0.59727 0.35199 0.43172 0.0
H335 H 0.49993 0.40606 0.38863 0.0
H336 H 0.44906 0.68464 0.03346 0.0
H337 H 0.41527 0.61322 0.85918 0.0
H338 H 0.50604 0.60837 0.97265 0.0
H339 H 0.40815 0.66221 0.93829 0.0
Tb340 Tb 0.02269 0.53703 0.58182 0.0
C341 C 0.01227 0.42712 0.89564 0.0
N342 N -0.00283 0.43079 0.8146 0.0
C343 C -0.00019 0.37705 0.7856 0.0
C344 C 0.02197 0.39818 0.92463 0.0
C345 C 0.99076 0.40624 0.7595 0.0
C346 C 0.0156 0.37301 0.86829 0.0
C347 C 0.03118 0.44929 0.03835 0.0
C348 C 0.01726 0.45241 0.95104 0.0
C349 C 0.04172 0.42074 0.06626 0.0
C350 C 0.03726 0.39527 0.00929 0.0
Tb351 Tb 0.98207 0.47934 0.78259 0.0
N352 N 0.00724 0.47982 0.92108 0.0
C353 C 0.03327 0.47476 0.09612 0.0
C354 C 0.00789 0.5043 0.97929 0.0
C355 C 0.02115 0.50226 0.06692 0.0
H356 H 0.97798 0.40893 0.69642 0.0
H357 H 0.02153 0.52181 0.11251 0.0
H358 H 0.02674 0.6075 0.66648 0.0
H359 H 0.98322 0.49379 0.25266 0.0
H360 H -0.00281 0.52516 0.96073 0.0
H361 H 0.04332 0.47322 0.16432 0.0
H362 H 0.00781 0.49072 0.40439 0.0
H363 H 0.99441 0.35763 0.74221 0.0
H364 H 0.053 0.41811 0.13224 0.0
H365 H 0.04532 0.37335 0.03185 0.0
H366 H 0.00879 0.65843 0.62204 0.0
H367 H 0.02244 0.35038 0.88849 0.0
H368 H 0.96031 0.54197 0.20172 0.0
N369 N 0.00731 0.58532 0.54927 0.0
C370 C 0.99159 0.58864 0.46921 0.0
C371 C 0.00357 0.63892 0.57886 0.0
C372 C 0.98079 0.61725 0.44145 0.0
C373 C 0.01355 0.60996 0.60409 0.0
C374 C 0.98694 0.64256 0.4975 0.0
N375 N -0.00264 0.53602 0.44371 0.0
C376 C -0.00311 0.51149 0.3857 0.0
C377 C 0.97234 0.56605 0.32749 0.0
C378 C 0.9868 0.56323 0.41404 0.0
C379 C 0.97066 0.5406 0.26953 0.0
C380 C 0.98342 0.51333 0.29827 0.0
H381 H 0.97929 0.66499 0.47807 0.0
H382 H 0.95496 0.64114 0.33807 0.0
H383 H 0.94875 0.59662 0.23586 0.0
O384 O 0.05877 0.51956 0.50345 0.0
O385 O 0.9729 0.53963 0.59542 0.0
O386 O 0.96257 0.49213 0.65069 0.0
O387 O 0.05936 0.56707 0.54799 0.0
O388 O 0.02452 0.48752 0.56388 0.0
O389 O 0.98438 0.46218 0.64034 0.0
O390 O 0.94601 0.49633 0.86109 0.0
O391 O 0.03182 0.47739 0.77 0.0
O392 O 0.04244 0.52498 0.71405 0.0
O393 O 0.94554 0.44893 0.81482 0.0
O394 O 0.9803 0.52897 0.80235 0.0
O395 O 0.02019 0.55435 0.7242 0.0
C396 C 0.95367 0.51935 0.62924 0.0
C397 C 0.10302 0.54978 0.45613 0.0
C398 C 0.14355 0.53071 0.35615 0.0
C399 C 0.15972 0.55814 0.36843 0.0
C400 C 0.11958 0.57712 0.46706 0.0
C401 C 0.14778 0.58119 0.42354 0.0
C402 C 0.11522 0.52646 0.40037 0.0
C403 C 0.00713 0.46346 0.58024 0.0
C404 C 0.07331 0.54558 0.50337 0.0
C405 C 0.96448 0.61967 0.35851 0.0
C406 C 0.96064 0.59425 0.30094 0.0
C407 C 0.05114 0.49788 0.73764 0.0
C408 C 0.90215 0.46587 0.90754 0.0
C409 C 0.86237 0.48485 0.00884 0.0
C410 C 0.84605 0.45747 0.99763 0.0
C411 C 0.88562 0.43845 0.89745 0.0
C412 C 0.89032 0.48917 0.96354 0.0
C413 C 0.85765 0.43438 0.94223 0.0
C414 C -0.00203 0.55293 0.78636 0.0
C415 C 0.93166 0.47021 0.86045 0.0
H416 H 0.18165 0.56176 0.33528 0.0
H417 H 0.11083 0.59533 0.50957 0.0
H418 H 0.16044 0.60231 0.43256 0.0
H419 H 0.1028 0.50517 0.39127 0.0
H420 H 0.82433 0.45391 0.03215 0.0
H421 H 0.89427 0.4202 0.85491 0.0
H422 H 0.9028 0.51045 0.9724 0.0
H423 H 0.84495 0.41325 0.93419 0.0
C424 C 0.10658 0.02754 0.37843 0.0
C425 C 0.12265 0.03352 0.3139 0.0
C426 C 0.08793 0.02053 0.45399 0.0
C427 C 0.0699 0.01548 0.5144 0.0
C428 C 0.48159 0.10218 0.35788 0.0
C429 C 0.4773 0.12021 0.29703 0.0
C430 C 0.487 0.0828 0.43326 0.0
C431 C 0.492 0.0666 0.4983 0.0
C432 C 0.39817 0.49094 0.37748 0.0
C433 C 0.38105 0.48522 0.3155 0.0
C434 C 0.41737 0.49728 0.45211 0.0
C435 C 0.43526 0.50159 0.51312 0.0
C436 C 0.01939 0.40362 0.37585 0.0
C437 C 0.02514 0.38647 0.31422 0.0
C438 C 0.0131 0.42251 0.45099 0.0
C439 C 0.00885 0.44006 0.51279 0.0
C440 C 0.89702 -0.00231 0.99763 0.0
C441 C 0.88089 0.99439 0.06407 0.0
C442 C 0.91588 -7e-05 0.91941 0.0
C443 C 0.93378 0.00179 0.85674 0.0
C444 C 0.51663 0.912 0.01265 0.0
C445 C 0.52003 0.8944 0.07526 0.0
C446 C 0.51343 0.93119 0.93555 0.0
C447 C 0.51008 0.94744 0.86957 0.0
C448 C 0.60684 0.5149 0.99791 0.0
C449 C 0.62365 0.51829 0.06242 0.0
C450 C 0.58765 0.51278 0.92085 0.0
C451 C 0.56989 0.51143 0.85812 0.0
C452 C 0.99429 0.61247 0.99701 0.0
C453 C 0.99091 0.62903 0.06206 0.0
C454 C -0.00353 0.59342 0.91952 0.0
C455 C -0.00192 0.5756 0.85688 0.0
C456 C 0.03253 0.19997 0.19404 0.0
C457 C 0.04126 0.22383 0.16104 0.0
C458 C 0.01747 0.17694 0.24629 0.0
C459 C 0.00132 0.16179 0.29684 0.0
C460 C 0.3022 0.03644 0.23369 0.0
C461 C 0.28002 0.04548 0.19392 0.0
C462 C 0.32721 0.02309 0.27841 0.0
C463 C 0.35048 0.01111 0.3015 0.0
C464 C 0.47112 0.31161 0.20222 0.0
C465 C 0.46218 0.28777 0.16924 0.0
C466 C 0.48621 0.33548 0.25107 0.0
C467 C 0.50233 0.35166 0.29866 0.0
C468 C 0.19461 0.47644 0.19622 0.0
C469 C 0.21819 0.46807 0.16178 0.0
C470 C 0.17186 0.49121 0.24896 0.0
C471 C 0.15679 0.50733 0.29863 0.0
C472 C 0.98 0.81097 0.16314 0.0
C473 C 0.97884 0.78552 0.19374 0.0
C474 C 0.98858 0.83712 0.11278 0.0
C475 C 0.00271 0.85425 0.06332 0.0
C476 C 0.70405 0.98844 0.13855 0.0
C477 C 0.72712 0.98694 0.18279 0.0
C478 C 0.67722 0.99395 0.08891 0.0
C479 C 0.653 0.00316 0.06395 0.0
C480 C 0.52606 0.70611 0.16259 0.0
C481 C 0.52725 0.73156 0.19375 0.0
C482 C 0.51764 0.67959 0.11331 0.0
C483 C 0.50368 0.66196 0.06503 0.0
C484 C 0.80734 0.52876 0.17259 0.0
C485 C 0.78212 0.52937 0.20536 0.0
C486 C 0.83306 0.52128 0.11929 0.0
C487 C 0.84972 0.50782 0.06781 0.0
C488 C 0.02772 0.14518 0.78608 0.0
C489 C 0.03819 0.16882 0.8131 0.0
C490 C 0.02034 0.11488 0.76567 0.0
C491 C 0.01662 0.08814 0.75338 0.0
C492 C 0.36335 0.03289 0.80354 0.0
C493 C 0.33963 0.04445 0.82146 0.0
C494 C 0.39401 0.02632 0.79004 0.0
C495 C 0.42059 0.02398 0.77406 0.0
C496 C 0.47634 0.36994 0.7912 0.0
C497 C 0.46506 0.34582 0.81025 0.0
C498 C 0.4834 0.40059 0.77546 0.0
C499 C 0.48674 0.42724 0.7611 0.0
C500 C 0.1393 0.48071 0.7845 0.0
C501 C 0.16261 0.47023 0.81184 0.0
C502 C 0.1094 0.4889 0.76368 0.0
C503 C 0.08287 0.49339 0.75132 0.0
C504 C 0.98011 0.86939 0.57742 0.0
C505 C 0.98755 0.84453 0.55331 0.0
C506 C 0.97905 0.90062 0.59593 0.0
C507 C 0.98255 0.92741 0.60851 0.0
C508 C 0.64256 0.98871 0.57847 0.0
C509 C 0.66825 0.99278 0.55307 0.0
C510 C 0.61091 0.98704 0.58915 0.0
C511 C 0.58387 0.98882 0.5982 0.0
C512 C 0.527 0.64568 0.58254 0.0
C513 C 0.51987 0.67073 0.55969 0.0
C514 C 0.52777 0.61433 0.5988 0.0
C515 C 0.52381 0.58754 0.61001 0.0
C516 C 0.86339 0.52474 0.58908 0.0
C517 C 0.83868 0.52144 0.55507 0.0
C518 C 0.8946 0.52558 0.60984 0.0
C519 C 0.92175 0.5238 0.61752 0.0
loop_
_geom_bond_atom_site_label_1
_geom_bond_atom_site_label_2
_geom_bond_distance
_geom_bond_site_symmetry_2
_ccdc_geom_bond_type
O0 Cd1 2.300 . S
O0 C7 1.275 . S
Cd1 O0 2.300 . S
Cd1 O9 2.381 . S
Cd1 O10 2.378 . S
O2 Cd3 2.385 . S
O2 C7 1.255 . S
Cd3 O2 2.385 . S
Cd3 O4 2.317 . S
O4 Cd3 2.317 . S
O4 C5 1.232 . S
C5 O4 1.232 . S
C5 O6 1.218 . S
O6 C5 1.218 . S
C7 O0 1.275 . S
C7 O2 1.255 . S
C8 O9 1.258 . S
C8 O10 1.256 . S
O9 Cd1 2.381 . S
O9 C8 1.258 . S
O10 Cd1 2.378 . S
O10 C8 1.256 . S
O11 Cd12 2.300 . S
O11 C18 1.275 . S
Cd12 O11 2.300 . S
Cd12 O20 2.381 . S
Cd12 O21 2.378 1_655 S
O13 Cd14 2.385 . S
O13 C18 1.255 1_455 S
Cd14 O13 2.385 . S
Cd14 O15 2.324 . S
O15 Cd14 2.324 . S
O15 C16 1.229 1_455 S
C16 O15 1.229 1_655 S
C16 O17 1.218 1_655 S
O17 C16 1.218 1_455 S
C18 O11 1.275 . S
C18 O13 1.255 1_655 S
C19 O20 1.258 . S
C19 O21 1.256 1_655 S
O20 Cd12 2.381 . S
O20 C19 1.258 . S
O21 Cd12 2.378 1_455 S
O21 C19 1.256 1_455 S
O22 Cd23 2.303 . S
O22 C29 1.275 . S
Cd23 O22 2.303 . S
Cd23 O31 2.384 . S
Cd23 O32 2.378 1_565 S
O24 Cd25 2.385 . S
O24 C29 1.255 1_545 S
Cd25 O24 2.385 . S
Cd25 O26 2.317 . S
O26 Cd25 2.317 . S
O26 C27 1.232 1_545 S
C27 O26 1.232 1_565 S
C27 O28 1.218 1_565 S
O28 C27 1.218 1_545 S
C29 O22 1.275 . S
C29 O24 1.255 1_565 S
C30 O31 1.258 . S
C30 O32 1.256 1_565 S
O31 Cd23 2.384 . S
O31 C30 1.258 . S
O32 Cd23 2.378 1_545 S
O32 C30 1.256 1_545 S
O33 Cd34 2.300 . S
O33 C40 1.275 . S
Cd34 O33 2.300 . S
Cd34 O42 2.381 . S
Cd34 O43 2.378 . S
O35 Cd36 2.385 . S
O35 C40 1.255 . S
Cd36 O35 2.385 . S
Cd36 O37 2.317 . S
O37 Cd36 2.317 . S
O37 C38 1.232 . S
C38 O37 1.232 . S
C38 O39 1.218 . S
O39 C38 1.218 . S
C40 O33 1.275 . S
C40 O35 1.255 . S
C41 O42 1.258 . S
C41 O43 1.256 . S
O42 Cd34 2.381 . S
O42 C41 1.258 . S
O43 Cd34 2.378 . S
O43 C41 1.256 . S
O44 Cd45 2.300 . S
O44 C51 1.275 . S
Cd45 O44 2.300 . S
Cd45 O53 2.381 . S
Cd45 O54 2.378 . S
O46 Cd47 2.385 1_554 S
O46 C51 1.255 . S
Cd47 O46 2.385 1_556 S
Cd47 O48 2.317 . S
O48 Cd47 2.317 . S
O48 C49 1.232 . S
C49 O48 1.232 . S
C49 O50 1.218 . S
O50 C49 1.218 . S
C51 O44 1.275 . S
C51 O46 1.255 . S
C52 O53 1.258 . S
C52 O54 1.256 . S
O53 Cd45 2.381 . S
O53 C52 1.258 . S
O54 Cd45 2.378 . S
O54 C52 1.256 . S
O55 Cd56 2.300 . S
O55 C62 1.275 . S
Cd56 O55 2.300 . S
Cd56 O64 2.381 . S
Cd56 O65 2.378 . S
O57 Cd58 2.385 1_554 S
O57 C62 1.255 . S
Cd58 O57 2.385 1_556 S
Cd58 O59 2.317 . S
O59 Cd58 2.317 . S
O59 C60 1.232 . S
C60 O59 1.232 . S
C60 O61 1.218 . S
O61 C60 1.218 . S
C62 O55 1.275 . S
C62 O57 1.255 . S
C63 O64 1.258 . S
C63 O65 1.256 . S
O64 Cd56 2.381 . S
O64 C63 1.258 . S
O65 Cd56 2.378 . S
O65 C63 1.256 . S
O66 Cd67 2.300 . S
O66 C73 1.275 . S
Cd67 O66 2.300 . S
Cd67 O75 2.381 . S
Cd67 O76 2.378 . S
O68 Cd69 2.385 1_554 S
O68 C73 1.255 . S
Cd69 O68 2.385 1_556 S
Cd69 O70 2.317 . S
O70 Cd69 2.317 . S
O70 C71 1.232 . S
C71 O70 1.232 . S
C71 O72 1.218 . S
O72 C71 1.218 . S
C73 O66 1.275 . S
C73 O68 1.255 . S
C74 O75 1.258 . S
C74 O76 1.256 . S
O75 Cd67 2.381 . S
O75 C74 1.258 . S
O76 Cd67 2.378 . S
O76 C74 1.256 . S
O77 Cd78 2.300 . S
O77 C84 1.275 . S
Cd78 O77 2.300 . S
Cd78 O86 2.381 . S
Cd78 O87 2.378 . S
O79 Cd80 2.385 1_554 S
O79 C84 1.255 . S
Cd80 O79 2.385 1_556 S
Cd80 O81 2.317 . S
O81 Cd80 2.317 . S
O81 C82 1.232 . S
C82 O81 1.232 . S
C82 O83 1.218 . S
O83 C82 1.218 . S
C84 O77 1.275 . S
C84 O79 1.255 . S
C85 O86 1.258 . S
C85 O87 1.256 . S
O86 Cd78 2.381 . S
O86 C85 1.258 . S
O87 Cd78 2.378 . S
O87 C85 1.256 . S
Tb88 N117 2.617 . S
Tb88 N123 2.572 . S
Tb88 O132 2.465 . S
Tb88 O133 2.387 1_545 S
Tb88 O135 2.428 . S
Tb88 O136 2.308 1_655 S
Tb88 O140 2.349 1_655 S
Tb88 O143 2.393 . S
Tb88 C152 2.802 . S
C89 N90 1.379 . S
C89 C92 1.416 . S
C89 C96 1.424 . S
N90 C89 1.379 . S
N90 C93 1.334 . S
N90 Tb99 2.617 1_545 S
C91 C93 1.390 . S
C91 C94 1.339 . S
C91 H111 0.930 . S
C92 C89 1.416 . S
C92 C94 1.416 . S
C92 C98 1.448 1_556 S
C93 N90 1.334 . S
C93 C91 1.390 . S
C93 H104 0.930 1_545 S
C94 C91 1.339 . S
C94 C92 1.416 . S
C94 H115 0.930 . S
C95 C96 1.413 1_554 S
C95 C97 1.427 . S
C95 C101 1.416 . S
C96 C89 1.424 . S
C96 C95 1.413 1_556 S
C96 N100 1.361 . S
C97 C95 1.427 . S
C97 C98 1.328 . S
C97 H112 0.929 . S
C98 C92 1.448 1_554 S
C98 C97 1.328 . S
C98 H113 0.930 . S
Tb99 N90 2.617 1_565 S
Tb99 N100 2.572 1_565 S
Tb99 O134 2.349 . S
Tb99 O137 2.393 . S
Tb99 O138 2.465 . S
Tb99 O139 2.387 1_565 S
Tb99 O141 2.428 . S
Tb99 O142 2.308 1_465 S
Tb99 C163 2.802 . S
N100 C96 1.361 . S
N100 Tb99 2.572 1_545 S
N100 C102 1.340 1_556 S
C101 C95 1.416 . S
C101 C103 1.332 . S
C101 H109 0.931 . S
C102 N100 1.340 1_554 S
C102 C103 1.407 . S
C102 H108 0.930 1_454 S
C103 C101 1.332 . S
C103 C102 1.407 . S
C103 H105 0.926 1_455 S
H104 C93 0.930 1_565 S
H105 C103 0.926 1_655 S
H106 C121 0.930 . S
H107 C128 0.929 1_455 S
H108 C102 0.930 1_656 S
H109 C101 0.931 . S
H110 C124 0.930 1_455 S
H111 C91 0.930 . S
H112 C97 0.929 . S
H113 C98 0.930 . S
H114 C119 0.930 . S
H115 C94 0.930 . S
H116 C127 0.931 . S
N117 Tb88 2.617 . S
N117 C118 1.379 . S
N117 C121 1.334 . S
C118 N117 1.379 . S
C118 C120 1.416 1_545 S
C118 C126 1.422 1_545 S
C119 H114 0.930 . S
C119 C121 1.390 . S
C119 C122 1.339 1_545 S
C120 C118 1.416 1_565 S
C120 C122 1.416 . S
C120 C153 1.448 . S
C121 H106 0.930 . S
C121 N117 1.334 . S
C121 C119 1.390 . S
C122 C119 1.339 1_565 S
C122 C120 1.416 . S
C122 H129 0.930 . S
N123 Tb88 2.572 . S
N123 C124 1.340 . S
N123 C126 1.354 1_545 S
C124 H110 0.930 1_655 S
C124 N123 1.340 . S
C124 C128 1.407 1_545 S
C125 C126 1.421 . S
C125 C127 1.416 . S
C125 C154 1.427 . S
C126 C118 1.422 1_565 S
C126 N123 1.354 1_565 S
C126 C125 1.421 . S
C127 H116 0.931 . S
C127 C125 1.416 . S
C127 C128 1.332 . S
C128 H107 0.929 1_655 S
C128 C124 1.407 1_565 S
C128 C127 1.332 . S
H129 C122 0.930 . S
H130 C153 0.930 . S
H131 C154 0.929 . S
O132 Tb88 2.465 . S
O132 C152 1.264 . S
O133 Tb88 2.387 1_565 S
O133 C144 1.264 . S
O134 Tb99 2.349 . S
O134 C144 1.243 1_455 S
O135 Tb88 2.428 . S
O135 C152 1.256 . S
O136 Tb88 2.308 1_455 S
O136 C151 1.266 . S
O137 Tb99 2.393 . S
O137 C151 1.248 1_565 S
O138 Tb99 2.465 . S
O138 C163 1.264 . S
O139 Tb99 2.387 1_545 S
O139 C155 1.264 . S
O140 Tb88 2.349 1_455 S
O140 C155 1.243 . S
O141 Tb99 2.428 . S
O141 C163 1.256 . S
O142 Tb99 2.308 1_645 S
O142 C162 1.266 . S
O143 Tb88 2.393 . S
O143 C162 1.248 . S
C144 O133 1.264 . S
C144 O134 1.243 1_655 S
C145 C148 1.399 . S
C145 C150 1.383 . S
C145 C152 1.496 . S
C146 C147 1.399 . S
C146 C150 1.389 . S
C147 C146 1.399 . S
C147 C149 1.380 . S
C147 H164 0.929 . S
C148 C145 1.399 . S
C148 C149 1.392 . S
C148 H165 0.929 . S
C149 C147 1.380 . S
C149 C148 1.392 . S
C149 H166 0.929 . S
C150 C145 1.383 . S
C150 C146 1.389 . S
C150 H167 0.931 1_655 S
C151 O136 1.266 . S
C151 O137 1.248 1_545 S
C152 Tb88 2.802 . S
C152 O132 1.264 . S
C152 O135 1.256 . S
C152 C145 1.496 . S
C153 C120 1.448 . S
C153 H130 0.930 . S
C153 C154 1.328 . S
C154 C125 1.427 . S
C154 H131 0.929 . S
C154 C153 1.328 . S
C155 O139 1.264 . S
C155 O140 1.243 . S
C156 C159 1.399 . S
C156 C160 1.383 . S
C156 C163 1.496 . S
C157 C158 1.399 . S
C157 C160 1.389 1_554 S
C158 C157 1.399 . S
C158 C161 1.380 1_554 S
C158 H168 0.929 . S
C159 C156 1.399 . S
C159 C161 1.392 . S
C159 H169 0.929 . S
C160 C156 1.383 . S
C160 C157 1.389 1_556 S
C160 H170 0.931 . S
C161 C158 1.380 1_556 S
C161 C159 1.392 . S
C161 H171 0.929 . S
C162 O142 1.266 . S
C162 O143 1.248 . S
C163 Tb99 2.802 . S
C163 O138 1.264 . S
C163 O141 1.256 . S
C163 C156 1.496 . S
H164 C147 0.929 . S
H165 C148 0.929 . S
H166 C149 0.929 . S
H167 C150 0.931 1_455 S
H168 C158 0.929 . S
H169 C159 0.929 . S
H170 C160 0.931 . S
H171 C161 0.929 . S
Tb172 N201 2.617 . S
Tb172 N207 2.572 . S
Tb172 O216 2.465 . S
Tb172 O217 2.387 . S
Tb172 O219 2.428 . S
Tb172 O220 2.308 . S
Tb172 O224 2.349 1_545 S
Tb172 O227 2.393 . S
Tb172 C236 2.802 . S
C173 N174 1.379 . S
C173 C176 1.416 . S
C173 C180 1.424 . S
N174 C173 1.379 . S
N174 C177 1.334 . S
N174 Tb183 2.617 . S
C175 C177 1.390 . S
C175 C178 1.339 . S
C175 H195 0.930 . S
C176 C173 1.416 . S
C176 C178 1.416 . S
C176 C182 1.448 . S
C177 N174 1.334 . S
C177 C175 1.390 . S
C177 H188 0.930 . S
C178 C175 1.339 . S
C178 C176 1.416 . S
C178 H199 0.930 . S
C179 C180 1.413 . S
C179 C181 1.427 . S
C179 C185 1.416 . S
C180 C173 1.424 . S
C180 C179 1.413 . S
C180 N184 1.361 . S
C181 C179 1.427 . S
C181 C182 1.328 . S
C181 H196 0.929 . S
C182 C176 1.448 . S
C182 C181 1.328 . S
C182 H197 0.930 . S
Tb183 N174 2.617 . S
Tb183 N184 2.572 . S
Tb183 O218 2.349 1_565 S
Tb183 O221 2.393 . S
Tb183 O222 2.465 . S
Tb183 O223 2.387 . S
Tb183 O225 2.428 . S
Tb183 O226 2.308 1_565 S
Tb183 C247 2.802 . S
N184 C180 1.361 . S
N184 Tb183 2.572 . S
N184 C186 1.340 . S
C185 C179 1.416 . S
C185 C187 1.332 . S
C185 H193 0.931 . S
C186 N184 1.340 . S
C186 C187 1.407 . S
C186 H192 0.930 . S
C187 C185 1.332 . S
C187 C186 1.407 . S
C187 H189 0.929 . S
H188 C177 0.930 . S
H189 C187 0.929 . S
H190 C205 0.930 . S
H191 C212 0.929 . S
H192 C186 0.930 . S
H193 C185 0.931 . S
H194 C208 0.930 . S
H195 C175 0.930 . S
H196 C181 0.929 . S
H197 C182 0.930 . S
H198 C203 0.930 . S
H199 C178 0.930 . S
H200 C211 0.931 . S
N201 Tb172 2.617 . S
N201 C202 1.379 . S
N201 C205 1.334 . S
C202 N201 1.379 . S
C202 C204 1.416 . S
C202 C210 1.424 . S
C203 H198 0.930 . S
C203 C205 1.390 . S
C203 C206 1.339 . S
C204 C202 1.416 . S
C204 C206 1.416 . S
C204 C237 1.448 . S
C205 H190 0.930 . S
C205 N201 1.334 . S
C205 C203 1.390 . S
C206 C203 1.339 . S
C206 C204 1.416 . S
C206 H213 0.930 . S
N207 Tb172 2.572 . S
N207 C208 1.340 . S
N207 C210 1.361 . S
C208 H194 0.930 . S
C208 N207 1.340 . S
C208 C212 1.407 . S
C209 C210 1.413 . S
C209 C211 1.416 . S
C209 C238 1.427 . S
C210 C202 1.424 . S
C210 N207 1.361 . S
C210 C209 1.413 . S
C211 H200 0.931 . S
C211 C209 1.416 . S
C211 C212 1.332 . S
C212 H191 0.929 . S
C212 C208 1.407 . S
C212 C211 1.332 . S
H213 C206 0.930 . S
H214 C237 0.930 . S
H215 C238 0.929 . S
O216 Tb172 2.465 . S
O216 C236 1.264 . S
O217 Tb172 2.387 . S
O217 C228 1.264 . S
O218 Tb183 2.349 1_545 S
O218 C228 1.243 . S
O219 Tb172 2.428 . S
O219 C236 1.256 . S
O220 Tb172 2.308 . S
O220 C235 1.259 1_545 S
O221 Tb183 2.393 . S
O221 C235 1.253 . S
O222 Tb183 2.465 . S
O222 C247 1.264 . S
O223 Tb183 2.387 . S
O223 C239 1.264 . S
O224 Tb172 2.349 1_565 S
O224 C239 1.243 . S
O225 Tb183 2.428 . S
O225 C247 1.256 . S
O226 Tb183 2.308 1_545 S
O226 C246 1.266 . S
O227 Tb172 2.393 . S
O227 C246 1.248 . S
C228 O217 1.264 . S
C228 O218 1.243 . S
C229 C232 1.399 . S
C229 C234 1.383 1_554 S
C229 C236 1.496 1_554 S
C230 C231 1.399 . S
C230 C234 1.389 1_554 S
C231 C230 1.399 . S
C231 C233 1.380 . S
C231 H248 0.929 . S
C232 C229 1.399 . S
C232 C233 1.392 . S
C232 H249 0.929 . S
C233 C231 1.380 . S
C233 C232 1.392 . S
C233 H250 0.929 . S
C234 C229 1.383 1_556 S
C234 C230 1.389 1_556 S
C234 H251 0.931 . S
C235 O220 1.259 1_565 S
C235 O221 1.253 . S
C236 Tb172 2.802 . S
C236 O216 1.264 . S
C236 O219 1.256 . S
C236 C229 1.496 1_556 S
C237 C204 1.448 . S
C237 H214 0.930 . S
C237 C238 1.328 . S
C238 C209 1.427 . S
C238 H215 0.929 . S
C238 C237 1.328 . S
C239 O223 1.264 . S
C239 O224 1.243 . S
C240 C243 1.399 . S
C240 C244 1.377 1_565 S
C240 C247 1.496 . S
C241 C242 1.399 1_545 S
C241 C244 1.390 . S
C242 C241 1.399 1_565 S
C242 C245 1.380 . S
C242 H252 0.929 . S
C243 C240 1.399 . S
C243 C245 1.392 . S
C243 H253 0.929 . S
C244 C240 1.377 1_545 S
C244 C241 1.390 . S
C244 H254 0.936 . S
C245 C242 1.380 . S
C245 C243 1.392 . S
C245 H255 0.929 . S
C246 O226 1.266 . S
C246 O227 1.248 . S
C247 Tb183 2.802 . S
C247 O222 1.264 . S
C247 O225 1.256 . S
C247 C240 1.496 . S
H248 C231 0.929 . S
H249 C232 0.929 . S
H250 C233 0.929 . S
H251 C234 0.931 . S
H252 C242 0.929 . S
H253 C243 0.929 . S
H254 C244 0.936 . S
H255 C245 0.929 . S
Tb256 N285 2.617 . S
Tb256 N291 2.572 . S
Tb256 O300 2.465 . S
Tb256 O301 2.387 . S
Tb256 O303 2.428 . S
Tb256 O304 2.308 . S
Tb256 O308 2.349 . S
Tb256 O311 2.393 . S
Tb256 C320 2.802 . S
C257 N258 1.379 . S
C257 C260 1.416 . S
C257 C264 1.424 . S
N258 C257 1.379 . S
N258 C261 1.334 . S
N258 Tb267 2.617 . S
C259 C261 1.390 . S
C259 C262 1.339 . S
C259 H279 0.930 . S
C260 C257 1.416 . S
C260 C262 1.416 . S
C260 C266 1.448 1_556 S
C261 N258 1.334 . S
C261 C259 1.390 . S
C261 H272 0.930 . S
C262 C259 1.339 . S
C262 C260 1.416 . S
C262 H283 0.930 . S
C263 C264 1.413 1_554 S
C263 C265 1.427 . S
C263 C269 1.416 . S
C264 C257 1.424 . S
C264 C263 1.413 1_556 S
C264 N268 1.361 . S
C265 C263 1.427 . S
C265 C266 1.328 . S
C265 H280 0.929 . S
C266 C260 1.448 1_554 S
C266 C265 1.328 . S
C266 H281 0.930 . S
Tb267 N258 2.617 . S
Tb267 N268 2.572 . S
Tb267 O302 2.349 . S
Tb267 O305 2.393 . S
Tb267 O306 2.465 . S
Tb267 O307 2.387 . S
Tb267 O309 2.428 . S
Tb267 O310 2.308 . S
Tb267 C331 2.802 . S
N268 C264 1.361 . S
N268 Tb267 2.572 . S
N268 C270 1.340 1_556 S
C269 C263 1.416 . S
C269 C271 1.332 . S
C269 H277 0.931 . S
C270 N268 1.340 1_554 S
C270 C271 1.407 . S
C270 H276 0.930 1_554 S
C271 C269 1.332 . S
C271 C270 1.407 . S
C271 H273 0.929 . S
H272 C261 0.930 . S
H273 C271 0.929 . S
H274 C289 0.930 . S
H275 C296 0.929 . S
H276 C270 0.930 1_556 S
H277 C269 0.931 . S
H278 C292 0.930 . S
H279 C259 0.930 . S
H280 C265 0.929 . S
H281 C266 0.930 . S
H282 C287 0.930 . S
H283 C262 0.930 . S
H284 C295 0.931 . S
N285 Tb256 2.617 . S
N285 C286 1.379 . S
N285 C289 1.334 . S
C286 N285 1.379 . S
C286 C288 1.416 . S
C286 C294 1.424 . S
C287 H282 0.930 . S
C287 C289 1.390 . S
C287 C290 1.339 . S
C288 C286 1.416 . S
C288 C290 1.416 . S
C288 C321 1.448 . S
C289 H274 0.930 . S
C289 N285 1.334 . S
C289 C287 1.390 . S
C290 C287 1.339 . S
C290 C288 1.416 . S
C290 H297 0.930 . S
N291 Tb256 2.572 . S
N291 C292 1.340 . S
N291 C294 1.361 . S
C292 H278 0.930 . S
C292 N291 1.340 . S
C292 C296 1.407 . S
C293 C294 1.413 . S
C293 C295 1.416 . S
C293 C322 1.427 . S
C294 C286 1.424 . S
C294 N291 1.361 . S
C294 C293 1.413 . S
C295 H284 0.931 . S
C295 C293 1.416 . S
C295 C296 1.332 . S
C296 H275 0.929 . S
C296 C292 1.407 . S
C296 C295 1.332 . S
H297 C290 0.930 . S
H298 C321 0.930 . S
H299 C322 0.929 . S
O300 Tb256 2.465 . S
O300 C320 1.264 . S
O301 Tb256 2.387 . S
O301 C312 1.264 . S
O302 Tb267 2.349 . S
O302 C312 1.243 . S
O303 Tb256 2.428 . S
O303 C320 1.256 . S
O304 Tb256 2.308 . S
O304 C319 1.266 . S
O305 Tb267 2.393 . S
O305 C319 1.248 . S
O306 Tb267 2.465 . S
O306 C331 1.264 . S
O307 Tb267 2.387 . S
O307 C323 1.264 . S
O308 Tb256 2.349 . S
O308 C323 1.243 . S
O309 Tb267 2.428 . S
O309 C331 1.256 . S
O310 Tb267 2.308 . S
O310 C330 1.266 . S
O311 Tb256 2.393 . S
O311 C330 1.248 . S
C312 O301 1.264 . S
C312 O302 1.243 . S
C313 C316 1.399 . S
C313 C318 1.383 . S
C313 C320 1.496 . S
C314 C315 1.399 . S
C314 C318 1.389 . S
C315 C314 1.399 . S
C315 C317 1.380 . S
C315 H332 0.929 . S
C316 C313 1.399 . S
C316 C317 1.392 . S
C316 H333 0.929 . S
C317 C315 1.380 . S
C317 C316 1.392 . S
C317 H334 0.929 . S
C318 C313 1.383 . S
C318 C314 1.389 . S
C318 H335 0.931 . S
C319 O304 1.266 . S
C319 O305 1.248 . S
C320 Tb256 2.802 . S
C320 O300 1.264 . S
C320 O303 1.256 . S
C320 C313 1.496 . S
C321 C288 1.448 . S
C321 H298 0.930 . S
C321 C322 1.328 . S
C322 C293 1.427 . S
C322 H299 0.929 . S
C322 C321 1.328 . S
C323 O307 1.264 . S
C323 O308 1.243 . S
C324 C327 1.399 . S
C324 C328 1.383 . S
C324 C331 1.496 . S
C325 C326 1.399 . S
C325 C328 1.389 1_554 S
C326 C325 1.399 . S
C326 C329 1.380 1_554 S
C326 H336 0.929 . S
C327 C324 1.399 . S
C327 C329 1.392 . S
C327 H337 0.929 . S
C328 C324 1.383 . S
C328 C325 1.389 1_556 S
C328 H338 0.931 . S
C329 C326 1.380 1_556 S
C329 C327 1.392 . S
C329 H339 0.929 . S
C330 O310 1.266 . S
C330 O311 1.248 . S
C331 Tb267 2.802 . S
C331 O306 1.264 . S
C331 O309 1.256 . S
C331 C324 1.496 . S
H332 C315 0.929 . S
H333 C316 0.929 . S
H334 C317 0.929 . S
H335 C318 0.931 . S
H336 C326 0.929 . S
H337 C327 0.929 . S
H338 C328 0.931 . S
H339 C329 0.929 . S
Tb340 N369 2.617 . S
Tb340 N375 2.572 . S
Tb340 O384 2.465 . S
Tb340 O385 2.387 1_455 S
Tb340 O387 2.428 . S
Tb340 O388 2.308 . S
Tb340 O392 2.349 . S
Tb340 O395 2.393 . S
Tb340 C404 2.802 . S
C341 N342 1.372 1_455 S
C341 C344 1.416 . S
C341 C348 1.424 . S
N342 C341 1.372 1_655 S
N342 C345 1.336 . S
N342 Tb351 2.621 . S
C343 C345 1.390 1_455 S
C343 C346 1.339 . S
C343 H363 0.930 . S
C344 C341 1.416 . S
C344 C346 1.416 . S
C344 C350 1.448 1_556 S
C345 N342 1.336 . S
C345 C343 1.390 1_655 S
C345 H356 0.930 . S
C346 C343 1.339 . S
C346 C344 1.416 . S
C346 H367 0.930 . S
C347 C348 1.413 1_554 S
C347 C349 1.427 . S
C347 C353 1.416 . S
C348 C341 1.424 . S
C348 C347 1.413 1_556 S
C348 N352 1.361 . S
C349 C347 1.427 . S
C349 C350 1.328 . S
C349 H364 0.929 . S
C350 C344 1.448 1_554 S
C350 C349 1.328 . S
C350 H365 0.930 . S
Tb351 N342 2.621 . S
Tb351 N352 2.572 1_655 S
Tb351 O386 2.349 . S
Tb351 O389 2.393 . S
Tb351 O390 2.465 . S
Tb351 O391 2.387 1_655 S
Tb351 O393 2.428 . S
Tb351 O394 2.305 1_655 S
Tb351 C415 2.802 . S
N352 C348 1.361 . S
N352 Tb351 2.572 1_455 S
N352 C354 1.340 1_556 S
C353 C347 1.416 . S
C353 C355 1.332 . S
C353 H361 0.931 . S
C354 N352 1.340 1_554 S
C354 C355 1.407 . S
C354 H360 0.930 1_554 S
C355 C353 1.332 . S
C355 C354 1.407 . S
C355 H357 0.929 . S
H356 C345 0.930 . S
H357 C355 0.929 . S
H358 C373 0.930 . S
H359 C380 0.929 . S
H360 C354 0.930 1_556 S
H361 C353 0.931 . S
H362 C376 0.930 . S
H363 C343 0.930 . S
H364 C349 0.929 . S
H365 C350 0.930 . S
H366 C371 0.930 . S
H367 C346 0.930 . S
H368 C379 0.931 . S
N369 Tb340 2.617 . S
N369 C370 1.396 . S
N369 C373 1.334 . S
C370 N369 1.396 . S
C370 C372 1.403 1_455 S
C370 C378 1.420 1_455 S
C371 H366 0.930 . S
C371 C373 1.390 . S
C371 C374 1.339 1_455 S
C372 C370 1.403 1_655 S
C372 C374 1.416 . S
C372 C405 1.448 . S
C373 H358 0.930 . S
C373 N369 1.334 . S
C373 C371 1.390 . S
C374 C371 1.339 1_655 S
C374 C372 1.416 . S
C374 H381 0.930 . S
N375 Tb340 2.572 . S
N375 C376 1.340 . S
N375 C378 1.361 1_455 S
C376 H362 0.930 . S
C376 N375 1.340 . S
C376 C380 1.407 1_455 S
C377 C378 1.413 . S
C377 C379 1.416 . S
C377 C406 1.427 . S
C378 C370 1.420 1_655 S
C378 N375 1.361 1_655 S
C378 C377 1.413 . S
C379 H368 0.931 . S
C379 C377 1.416 . S
C379 C380 1.332 . S
C380 H359 0.929 . S
C380 C376 1.407 1_655 S
C380 C379 1.332 . S
H381 C374 0.930 . S
H382 C405 0.930 . S
H383 C406 0.929 . S
O384 Tb340 2.465 . S
O384 C404 1.264 . S
O385 Tb340 2.387 1_655 S
O385 C396 1.264 . S
O386 Tb351 2.349 . S
O386 C396 1.243 . S
O387 Tb340 2.428 . S
O387 C404 1.256 . S
O388 Tb340 2.308 . S
O388 C403 1.266 . S
O389 Tb351 2.393 . S
O389 C403 1.248 1_655 S
O390 Tb351 2.465 . S
O390 C415 1.264 . S
O391 Tb351 2.387 1_455 S
O391 C407 1.264 . S
O392 Tb340 2.349 . S
O392 C407 1.243 . S
O393 Tb351 2.428 . S
O393 C415 1.256 . S
O394 Tb351 2.305 1_455 S
O394 C414 1.269 . S
O395 Tb340 2.393 . S
O395 C414 1.248 . S
C396 O385 1.264 . S
C396 O386 1.243 . S
C397 C400 1.399 . S
C397 C402 1.383 . S
C397 C404 1.496 . S
C398 C399 1.399 . S
C398 C402 1.389 . S
C399 C398 1.399 . S
C399 C401 1.380 . S
C399 H416 0.929 . S
C400 C397 1.399 . S
C400 C401 1.392 . S
C400 H417 0.929 . S
C401 C399 1.380 . S
C401 C400 1.392 . S
C401 H418 0.929 . S
C402 C397 1.383 . S
C402 C398 1.389 . S
C402 H419 0.931 . S
C403 O388 1.266 . S
C403 O389 1.248 1_455 S
C404 Tb340 2.802 . S
C404 O384 1.264 . S
C404 O387 1.256 . S
C404 C397 1.496 . S
C405 C372 1.448 . S
C405 H382 0.930 . S
C405 C406 1.328 . S
C406 C377 1.427 . S
C406 H383 0.929 . S
C406 C405 1.328 . S
C407 O391 1.264 . S
C407 O392 1.243 . S
C408 C411 1.399 . S
C408 C412 1.383 . S
C408 C415 1.496 . S
C409 C410 1.399 . S
C409 C412 1.389 1_554 S
C410 C409 1.399 . S
C410 C413 1.380 1_554 S
C410 H420 0.929 . S
C411 C408 1.399 . S
C411 C413 1.392 . S
C411 H421 0.929 . S
C412 C408 1.383 . S
C412 C409 1.389 1_556 S
C412 H422 0.931 . S
C413 C410 1.380 1_556 S
C413 C411 1.392 . S
C413 H423 0.929 . S
C414 O394 1.269 . S
C414 O395 1.248 . S
C415 Tb351 2.802 . S
C415 O390 1.264 . S
C415 O393 1.256 . S
C415 C408 1.496 . S
H416 C399 0.929 . S
H417 C400 0.929 . S
H418 C401 0.929 . S
H419 C402 0.931 . S
H420 C410 0.929 . S
H421 C411 0.929 . S
H422 C412 0.931 . S
H423 C413 0.929 . S
C424 C425 1.170 . S
C424 C426 1.380 . S
C425 C424 1.170 . S
C426 C424 1.380 . S
C426 C427 1.170 . S
C427 C426 1.170 . S
C428 C429 1.170 . S
C428 C430 1.380 . S
C429 C428 1.170 . S
C430 C428 1.380 . S
C430 C431 1.170 . S
C431 C430 1.170 . S
C432 C433 1.170 . S
C432 C434 1.380 . S
C433 C432 1.170 . S
C434 C432 1.380 . S
C434 C435 1.170 . S
C435 C434 1.170 . S
C436 C437 1.170 . S
C436 C438 1.380 . S
C437 C436 1.170 . S
C438 C436 1.380 . S
C438 C439 1.170 . S
C439 C438 1.170 . S
C440 C441 1.170 . S
C440 C442 1.380 1_554 S
C441 C440 1.170 . S
C442 C440 1.380 1_556 S
C442 C443 1.170 . S
C443 C442 1.170 . S
C444 C445 1.170 . S
C444 C446 1.380 1_554 S
C445 C444 1.170 . S
C446 C444 1.380 1_556 S
C446 C447 1.170 . S
C447 C446 1.170 . S
C448 C449 1.170 . S
C448 C450 1.380 1_554 S
C449 C448 1.170 . S
C450 C448 1.380 1_556 S
C450 C451 1.170 . S
C451 C450 1.170 . S
C452 C453 1.170 . S
C452 C454 1.380 1_554 S
C453 C452 1.170 . S
C454 C452 1.380 1_556 S
C454 C455 1.170 . S
C455 C454 1.170 . S
C456 C457 1.170 . S
C456 C458 1.380 . S
C457 C456 1.170 . S
C458 C456 1.380 . S
C458 C459 1.185 . S
C459 C458 1.185 . S
C460 C461 1.170 . S
C460 C462 1.380 . S
C461 C460 1.170 . S
C462 C460 1.380 . S
C462 C463 1.170 . S
C463 C462 1.170 . S
C464 C465 1.170 . S
C464 C466 1.380 . S
C465 C464 1.170 . S
C466 C464 1.380 . S
C466 C467 1.170 . S
C467 C466 1.170 . S
C468 C469 1.170 . S
C468 C470 1.380 . S
C469 C468 1.170 . S
C470 C468 1.380 . S
C470 C471 1.170 . S
C471 C470 1.170 . S
C472 C473 1.170 . S
C472 C474 1.380 1_655 S
C473 C472 1.170 . S
C474 C472 1.380 1_455 S
C474 C475 1.170 . S
C475 C474 1.170 . S
C476 C477 1.170 . S
C476 C478 1.380 1_565 S
C477 C476 1.170 . S
C478 C476 1.380 1_545 S
C478 C479 1.170 . S
C479 C478 1.170 . S
C480 C481 1.170 . S
C480 C482 1.380 . S
C481 C480 1.170 . S
C482 C480 1.380 . S
C482 C483 1.170 . S
C483 C482 1.170 . S
C484 C485 1.170 . S
C484 C486 1.380 . S
C485 C484 1.170 . S
C486 C484 1.380 . S
C486 C487 1.170 . S
C487 C486 1.170 . S
C488 C489 1.170 . S
C488 C490 1.380 . S
C489 C488 1.170 . S
C490 C488 1.380 . S
C490 C491 1.170 . S
C491 C490 1.170 . S
C492 C493 1.170 . S
C492 C494 1.380 . S
C493 C492 1.170 . S
C494 C492 1.380 . S
C494 C495 1.170 . S
C495 C494 1.170 . S
C496 C497 1.170 . S
C496 C498 1.380 . S
C497 C496 1.170 . S
C498 C496 1.380 . S
C498 C499 1.170 . S
C499 C498 1.170 . S
C500 C501 1.170 . S
C500 C502 1.380 . S
C501 C500 1.170 . S
C502 C500 1.380 . S
C502 C503 1.170 . S
C503 C502 1.170 . S
C504 C505 1.170 . S
C504 C506 1.380 . S
C505 C504 1.170 . S
C506 C504 1.380 . S
C506 C507 1.170 . S
C507 C506 1.170 . S
C508 C509 1.170 . S
C508 C510 1.380 . S
C509 C508 1.170 . S
C510 C508 1.380 . S
C510 C511 1.170 . S
C511 C510 1.170 . S
C512 C513 1.170 . S
C512 C514 1.380 . S
C513 C512 1.170 . S
C514 C512 1.380 . S
C514 C515 1.170 . S
C515 C514 1.170 . S
C516 C517 1.170 . S
C516 C518 1.380 . S
C517 C516 1.170 . S
C518 C516 1.380 . S
C518 C519 1.170 . S
C519 C518 1.170 . S
C425 C74 1.935 . S
C427 C151 2.078 . S
C431 C228 2.059 . S
C429 C85 1.971 . S
C435 C319 2.062 . S
C433 C52 1.928 . S
C439 C403 2.044 . S
C437 C63 1.954 . S
C443 C162 2.067 1_565 S
C441 C30 1.927 . S
C445 C41 1.941 . S
C447 C239 2.059 . S
C449 C8 1.889 . S
C451 C330 2.076 . S
C453 C19 1.884 . S
C455 C414 2.063 1_655 S
C459 C146 0.774 1_455 S
C457 C62 0.819 . S
C463 C241 0.814 . S
C461 C73 0.771 . S
C467 C314 0.801 . S
C465 C84 0.825 . S
C469 C51 0.799 . S
C471 C398 0.818 . S
C473 C18 0.757 . S
C475 C157 0.765 . S
C479 C230 0.731 . S
C477 C29 0.775 . S
C483 C325 0.817 . S
C481 C40 0.842 . S
C485 C7 0.811 . S
C487 C409 0.819 . S
C489 C60 1.808 . S
C491 C155 2.218 . S
C493 C71 1.761 . S
C495 C246 2.271 . S
C499 C323 2.243 . S
C497 C82 1.767 . S
C503 C407 2.234 . S
C501 C49 1.782 . S
C505 C16 1.696 . S
C507 C144 2.232 . S
C511 C235 2.272 . S
C509 C27 1.704 . S
C515 C312 2.238 . S
C513 C38 1.728 . S
C517 C5 1.698 . S
C519 C396 2.233 . S
