# Generated by pormake.
# Topology gar, (4,6)-cn, num edge types: 1
# Building blocks:
#     Node 0, Type 0, BuildingBlock: NAHDIM_clean_sbu_0, # of connection points: 4
#     Node 1, Type 0, BuildingBlock: NAHDIM_clean_sbu_0, # of connection points: 4
#     Node 2, Type 0, BuildingBlock: NAHDIM_clean_sbu_0, # of connection points: 4
#     Node 3, Type 0, BuildingBlock: NAHDIM_clean_sbu_0, # of connection points: 4
#     Node 4, Type 0, BuildingBlock: NAHDIM_clean_sbu_0, # of connection points: 4
#     Node 5, Type 0, BuildingBlock: NAHDIM_clean_sbu_0, # of connection points: 4
#     Node 6, Type 0, BuildingBlock: NAHDIM_clean_sbu_0, # of connection points: 4
#     Node 7, Type 0, BuildingBlock: NAHDIM_clean_sbu_0, # of connection points: 4
#     Node 8, Type 0, BuildingBlock: NAHDIM_clean_sbu_0, # of connection points: 4
#     Node 9, Type 0, BuildingBlock: NAHDIM_clean_sbu_0, # of connection points: 4
#     Node 10, Type 0, BuildingBlock: NAHDIM_clean_sbu_0, # of connection points: 4
#     Node 11, Type 0, BuildingBlock: NAHDIM_clean_sbu_0, # of connection points: 4
#     Node 12, Type 0, BuildingBlock: NAHDIM_clean_sbu_0, # of connection points: 4
#     Node 13, Type 0, BuildingBlock: NAHDIM_clean_sbu_0, # of connection points: 4
#     Node 14, Type 0, BuildingBlock: NAHDIM_clean_sbu_0, # of connection points: 4
#     Node 15, Type 0, BuildingBlock: NAHDIM_clean_sbu_0, # of connection points: 4
#     Node 16, Type 0, BuildingBlock: NAHDIM_clean_sbu_0, # of connection points: 4
#     Node 17, Type 0, BuildingBlock: NAHDIM_clean_sbu_0, # of connection points: 4
#     Node 18, Type 0, BuildingBlock: NAHDIM_clean_sbu_0, # of connection points: 4
#     Node 19, Type 0, BuildingBlock: NAHDIM_clean_sbu_0, # of connection points: 4
#     Node 20, Type 0, BuildingBlock: NAHDIM_clean_sbu_0, # of connection points: 4
#     Node 21, Type 0, BuildingBlock: NAHDIM_clean_sbu_0, # of connection points: 4
#     Node 22, Type 0, BuildingBlock: NAHDIM_clean_sbu_0, # of connection points: 4
#     Node 23, Type 0, BuildingBlock: NAHDIM_clean_sbu_0, # of connection points: 4
#     Node 24, Type 1, BuildingBlock: KUMBOL_clean_sbu_1, # of connection points: 6
#     Node 25, Type 1, BuildingBlock: KUMBOL_clean_sbu_1, # of connection points: 6
#     Node 26, Type 1, BuildingBlock: KUMBOL_clean_sbu_1, # of connection points: 6
#     Node 27, Type 1, BuildingBlock: KUMBOL_clean_sbu_1, # of connection points: 6
#     Node 28, Type 1, BuildingBlock: KUMBOL_clean_sbu_1, # of connection points: 6
#     Node 29, Type 1, BuildingBlock: KUMBOL_clean_sbu_1, # of connection points: 6
#     Node 30, Type 1, BuildingBlock: KUMBOL_clean_sbu_1, # of connection points: 6
#     Node 31, Type 1, BuildingBlock: KUMBOL_clean_sbu_1, # of connection points: 6
#     Node 32, Type 1, BuildingBlock: KUMBOL_clean_sbu_1, # of connection points: 6
#     Node 33, Type 1, BuildingBlock: KUMBOL_clean_sbu_1, # of connection points: 6
#     Node 34, Type 1, BuildingBlock: KUMBOL_clean_sbu_1, # of connection points: 6
#     Node 35, Type 1, BuildingBlock: KUMBOL_clean_sbu_1, # of connection points: 6
#     Node 36, Type 1, BuildingBlock: KUMBOL_clean_sbu_1, # of connection points: 6
#     Node 37, Type 1, BuildingBlock: KUMBOL_clean_sbu_1, # of connection points: 6
#     Node 38, Type 1, BuildingBlock: KUMBOL_clean_sbu_1, # of connection points: 6
#     Node 39, Type 1, BuildingBlock: KUMBOL_clean_sbu_1, # of connection points: 6
#     Edge 40, Type (0, 1), BuildingBlock: XUDNAN_clean_linker_2, # of connection points: 2
#     Edge 41, Type (0, 1), BuildingBlock: XUDNAN_clean_linker_2, # of connection points: 2
#     Edge 42, Type (0, 1), BuildingBlock: XUDNAN_clean_linker_2, # of connection points: 2
#     Edge 43, Type (0, 1), BuildingBlock: XUDNAN_clean_linker_2, # of connection points: 2
#     Edge 44, Type (0, 1), BuildingBlock: XUDNAN_clean_linker_2, # of connection points: 2
#     Edge 45, Type (0, 1), BuildingBlock: XUDNAN_clean_linker_2, # of connection points: 2
#     Edge 46, Type (0, 1), BuildingBlock: XUDNAN_clean_linker_2, # of connection points: 2
#     Edge 47, Type (0, 1), BuildingBlock: XUDNAN_clean_linker_2, # of connection points: 2
#     Edge 48, Type (0, 1), BuildingBlock: XUDNAN_clean_linker_2, # of connection points: 2
#     Edge 49, Type (0, 1), BuildingBlock: XUDNAN_clean_linker_2, # of connection points: 2
#     Edge 50, Type (0, 1), BuildingBlock: XUDNAN_clean_linker_2, # of connection points: 2
#     Edge 51, Type (0, 1), BuildingBlock: XUDNAN_clean_linker_2, # of connection points: 2
#     Edge 52, Type (0, 1), BuildingBlock: XUDNAN_clean_linker_2, # of connection points: 2
#     Edge 53, Type (0, 1), BuildingBlock: XUDNAN_clean_linker_2, # of connection points: 2
#     Edge 54, Type (0, 1), BuildingBlock: XUDNAN_clean_linker_2, # of connection points: 2
#     Edge 55, Type (0, 1), BuildingBlock: XUDNAN_clean_linker_2, # of connection points: 2
#     Edge 56, Type (0, 1), BuildingBlock: XUDNAN_clean_linker_2, # of connection points: 2
#     Edge 57, Type (0, 1), BuildingBlock: XUDNAN_clean_linker_2, # of connection points: 2
#     Edge 58, Type (0, 1), BuildingBlock: XUDNAN_clean_linker_2, # of connection points: 2
#     Edge 59, Type (0, 1), BuildingBlock: XUDNAN_clean_linker_2, # of connection points: 2
#     Edge 60, Type (0, 1), BuildingBlock: XUDNAN_clean_linker_2, # of connection points: 2
#     Edge 61, Type (0, 1), BuildingBlock: XUDNAN_clean_linker_2, # of connection points: 2
#     Edge 62, Type (0, 1), BuildingBlock: XUDNAN_clean_linker_2, # of connection points: 2
#     Edge 63, Type (0, 1), BuildingBlock: XUDNAN_clean_linker_2, # of connection points: 2
#     Edge 64, Type (0, 1), BuildingBlock: XUDNAN_clean_linker_2, # of connection points: 2
#     Edge 65, Type (0, 1), BuildingBlock: XUDNAN_clean_linker_2, # of connection points: 2
#     Edge 66, Type (0, 1), BuildingBlock: XUDNAN_clean_linker_2, # of connection points: 2
#     Edge 67, Type (0, 1), BuildingBlock: XUDNAN_clean_linker_2, # of connection points: 2
#     Edge 68, Type (0, 1), BuildingBlock: XUDNAN_clean_linker_2, # of connection points: 2
#     Edge 69, Type (0, 1), BuildingBlock: XUDNAN_clean_linker_2, # of connection points: 2
#     Edge 70, Type (0, 1), BuildingBlock: XUDNAN_clean_linker_2, # of connection points: 2
#     Edge 71, Type (0, 1), BuildingBlock: XUDNAN_clean_linker_2, # of connection points: 2
#     Edge 72, Type (0, 1), BuildingBlock: XUDNAN_clean_linker_2, # of connection points: 2
#     Edge 73, Type (0, 1), BuildingBlock: XUDNAN_clean_linker_2, # of connection points: 2
#     Edge 74, Type (0, 1), BuildingBlock: XUDNAN_clean_linker_2, # of connection points: 2
#     Edge 75, Type (0, 1), BuildingBlock: XUDNAN_clean_linker_2, # of connection points: 2
#     Edge 76, Type (0, 1), BuildingBlock: XUDNAN_clean_linker_2, # of connection points: 2
#     Edge 77, Type (0, 1), BuildingBlock: XUDNAN_clean_linker_2, # of connection points: 2
#     Edge 78, Type (0, 1), BuildingBlock: XUDNAN_clean_linker_2, # of connection points: 2
#     Edge 79, Type (0, 1), BuildingBlock: XUDNAN_clean_linker_2, # of connection points: 2
#     Edge 80, Type (0, 1), BuildingBlock: XUDNAN_clean_linker_2, # of connection points: 2
#     Edge 81, Type (0, 1), BuildingBlock: XUDNAN_clean_linker_2, # of connection points: 2
#     Edge 82, Type (0, 1), BuildingBlock: XUDNAN_clean_linker_2, # of connection points: 2
#     Edge 83, Type (0, 1), BuildingBlock: XUDNAN_clean_linker_2, # of connection points: 2
#     Edge 84, Type (0, 1), BuildingBlock: XUDNAN_clean_linker_2, # of connection points: 2
#     Edge 85, Type (0, 1), BuildingBlock: XUDNAN_clean_linker_2, # of connection points: 2
#     Edge 86, Type (0, 1), BuildingBlock: XUDNAN_clean_linker_2, # of connection points: 2
#     Edge 87, Type (0, 1), BuildingBlock: XUDNAN_clean_linker_2, # of connection points: 2
#     Edge 88, Type (0, 1), BuildingBlock: XUDNAN_clean_linker_2, # of connection points: 2
#     Edge 89, Type (0, 1), BuildingBlock: XUDNAN_clean_linker_2, # of connection points: 2
#     Edge 90, Type (0, 1), BuildingBlock: XUDNAN_clean_linker_2, # of connection points: 2
#     Edge 91, Type (0, 1), BuildingBlock: XUDNAN_clean_linker_2, # of connection points: 2
#     Edge 92, Type (0, 1), BuildingBlock: XUDNAN_clean_linker_2, # of connection points: 2
#     Edge 93, Type (0, 1), BuildingBlock: XUDNAN_clean_linker_2, # of connection points: 2
#     Edge 94, Type (0, 1), BuildingBlock: XUDNAN_clean_linker_2, # of connection points: 2
#     Edge 95, Type (0, 1), BuildingBlock: XUDNAN_clean_linker_2, # of connection points: 2
#     Edge 96, Type (0, 1), BuildingBlock: XUDNAN_clean_linker_2, # of connection points: 2
#     Edge 97, Type (0, 1), BuildingBlock: XUDNAN_clean_linker_2, # of connection points: 2
#     Edge 98, Type (0, 1), BuildingBlock: XUDNAN_clean_linker_2, # of connection points: 2
#     Edge 99, Type (0, 1), BuildingBlock: XUDNAN_clean_linker_2, # of connection points: 2
#     Edge 100, Type (0, 1), BuildingBlock: XUDNAN_clean_linker_2, # of connection points: 2
#     Edge 101, Type (0, 1), BuildingBlock: XUDNAN_clean_linker_2, # of connection points: 2
#     Edge 102, Type (0, 1), BuildingBlock: XUDNAN_clean_linker_2, # of connection points: 2
#     Edge 103, Type (0, 1), BuildingBlock: XUDNAN_clean_linker_2, # of connection points: 2
#     Edge 104, Type (0, 1), BuildingBlock: XUDNAN_clean_linker_2, # of connection points: 2
#     Edge 105, Type (0, 1), BuildingBlock: XUDNAN_clean_linker_2, # of connection points: 2
#     Edge 106, Type (0, 1), BuildingBlock: XUDNAN_clean_linker_2, # of connection points: 2
#     Edge 107, Type (0, 1), BuildingBlock: XUDNAN_clean_linker_2, # of connection points: 2
#     Edge 108, Type (0, 1), BuildingBlock: XUDNAN_clean_linker_2, # of connection points: 2
#     Edge 109, Type (0, 1), BuildingBlock: XUDNAN_clean_linker_2, # of connection points: 2
#     Edge 110, Type (0, 1), BuildingBlock: XUDNAN_clean_linker_2, # of connection points: 2
#     Edge 111, Type (0, 1), BuildingBlock: XUDNAN_clean_linker_2, # of connection points: 2
#     Edge 112, Type (0, 1), BuildingBlock: XUDNAN_clean_linker_2, # of connection points: 2
#     Edge 113, Type (0, 1), BuildingBlock: XUDNAN_clean_linker_2, # of connection points: 2
#     Edge 114, Type (0, 1), BuildingBlock: XUDNAN_clean_linker_2, # of connection points: 2
#     Edge 115, Type (0, 1), BuildingBlock: XUDNAN_clean_linker_2, # of connection points: 2
#     Edge 116, Type (0, 1), BuildingBlock: XUDNAN_clean_linker_2, # of connection points: 2
#     Edge 117, Type (0, 1), BuildingBlock: XUDNAN_clean_linker_2, # of connection points: 2
#     Edge 118, Type (0, 1), BuildingBlock: XUDNAN_clean_linker_2, # of connection points: 2
#     Edge 119, Type (0, 1), BuildingBlock: XUDNAN_clean_linker_2, # of connection points: 2
#     Edge 120, Type (0, 1), BuildingBlock: XUDNAN_clean_linker_2, # of connection points: 2
#     Edge 121, Type (0, 1), BuildingBlock: XUDNAN_clean_linker_2, # of connection points: 2
#     Edge 122, Type (0, 1), BuildingBlock: XUDNAN_clean_linker_2, # of connection points: 2
#     Edge 123, Type (0, 1), BuildingBlock: XUDNAN_clean_linker_2, # of connection points: 2
#     Edge 124, Type (0, 1), BuildingBlock: XUDNAN_clean_linker_2, # of connection points: 2
#     Edge 125, Type (0, 1), BuildingBlock: XUDNAN_clean_linker_2, # of connection points: 2
#     Edge 126, Type (0, 1), BuildingBlock: XUDNAN_clean_linker_2, # of connection points: 2
#     Edge 127, Type (0, 1), BuildingBlock: XUDNAN_clean_linker_2, # of connection points: 2
#     Edge 128, Type (0, 1), BuildingBlock: XUDNAN_clean_linker_2, # of connection points: 2
#     Edge 129, Type (0, 1), BuildingBlock: XUDNAN_clean_linker_2, # of connection points: 2
#     Edge 130, Type (0, 1), BuildingBlock: XUDNAN_clean_linker_2, # of connection points: 2
#     Edge 131, Type (0, 1), BuildingBlock: XUDNAN_clean_linker_2, # of connection points: 2
#     Edge 132, Type (0, 1), BuildingBlock: XUDNAN_clean_linker_2, # of connection points: 2
#     Edge 133, Type (0, 1), BuildingBlock: XUDNAN_clean_linker_2, # of connection points: 2
#     Edge 134, Type (0, 1), BuildingBlock: XUDNAN_clean_linker_2, # of connection points: 2
#     Edge 135, Type (0, 1), BuildingBlock: XUDNAN_clean_linker_2, # of connection points: 2
# Relax obj value: 0.083
# Max RMSD: 0.199
# Mean RMSD: 0.135
data_MOF--net-gar--node1-NAHDIM_clean_sbu_0--node2-KUMBOL_clean_sbu_1--edge1-XUDNAN_clean_linker_2
_symmetry_space_group_name_H-M    P1
_symmetry_Int_Tables_number       1
_symmetry_cell_setting            triclinic
loop_
_symmetry_equiv_pos_as_xyz
'x, y, z'
_cell_length_a     61.172139
_cell_length_b     60.25011
_cell_length_c     55.070053
_cell_angle_alpha  96.470809
_cell_angle_beta   96.66671
_cell_angle_gamma 101.89898
loop_
_atom_site_label
_atom_site_type_symbol
_atom_site_fract_x
_atom_site_fract_y
_atom_site_fract_z
_atom_type_partial_charge
C0 C 0.09718 0.30714 0.34061 0.0
O1 O 0.0946 0.29374 0.35778 0.0
O2 O 0.04758 0.28514 0.36873 0.0
Zn3 Zn 0.05001 0.31527 0.35393 0.0
O4 O 0.05444 0.34193 0.38396 0.0
C5 C 0.99758 0.29817 0.33256 0.0
O6 O 0.99983 0.27785 0.33744 0.0
O7 O 0.08113 0.31779 0.33518 0.0
C8 C 0.05145 0.36226 0.38269 0.0
O9 O 0.04696 0.36834 0.36081 0.0
C10 C 0.04486 0.28329 0.39107 0.0
O11 O 0.04298 0.30142 0.40565 0.0
O12 O 0.01558 0.31454 0.33575 0.0
C13 C 0.97812 0.76334 0.7186 0.0
O14 O 0.98027 0.77504 0.69995 0.0
O15 O 0.01685 0.71647 0.68291 0.0
Zn16 Zn 0.02277 0.74904 0.70455 0.0
O17 O 0.02468 0.77215 0.67946 0.0
C18 C 0.07514 0.76453 0.72057 0.0
O19 O 0.07445 0.77675 0.70231 0.0
O20 O 0.99343 0.75197 0.72421 0.0
C21 C 0.02839 0.79379 0.6855 0.0
O22 O 0.03148 0.80213 0.70904 0.0
C23 C 0.02892 0.71294 0.66594 0.0
O24 O 0.04439 0.73015 0.66174 0.0
O25 O 0.05625 0.75311 0.72559 0.0
C26 C 0.59842 0.8123 0.84405 0.0
O27 O 0.60119 0.81296 0.86815 0.0
O28 O 0.54606 0.78667 0.8714 0.0
Zn29 Zn 0.54986 0.81571 0.85452 0.0
O30 O 0.55851 0.84614 0.88021 0.0
C31 C 0.49803 0.8018 0.825 0.0
O32 O 0.50138 0.78291 0.81314 0.0
O33 O 0.57864 0.81357 0.83345 0.0
C34 C 0.5465 0.85145 0.89666 0.0
O35 O 0.52837 0.83637 0.89925 0.0
C36 C 0.55251 0.78417 0.89357 0.0
O37 O 0.5632 0.80224 0.90931 0.0
O38 O 0.51481 0.81542 0.83942 0.0
C39 C 0.481 0.26736 0.22414 0.0
O40 O 0.49058 0.28771 0.21947 0.0
O41 O 0.5181 0.21678 0.18154 0.0
Zn42 Zn 0.52195 0.24964 0.20195 0.0
O43 O 0.52187 0.27207 0.17586 0.0
C44 C 0.57059 0.2454 0.22366 0.0
O45 O 0.56348 0.22365 0.21454 0.0
O46 O 0.4912 0.25074 0.21983 0.0
C47 C 0.52822 0.29381 0.18132 0.0
O48 O 0.53529 0.30255 0.20455 0.0
C49 C 0.52938 0.21403 0.16367 0.0
O50 O 0.54307 0.23206 0.15828 0.0
O51 O 0.55629 0.2585 0.22222 0.0
C52 C 0.02572 0.78793 0.13186 0.0
O53 O 0.01888 0.77591 0.10987 0.0
O54 O 0.05987 0.76453 0.08927 0.0
Zn55 Zn 0.06887 0.79849 0.11136 0.0
O56 O 0.06369 0.8291 0.09491 0.0
C57 C 0.10772 0.79036 0.14689 0.0
O58 O 0.09201 0.77352 0.15142 0.0
O59 O 0.04649 0.79825 0.13733 0.0
C60 C 0.06754 0.83991 0.07629 0.0
O61 O 0.07816 0.83122 0.05948 0.0
C62 C 0.07229 0.74957 0.08861 0.0
O63 O 0.09312 0.75585 0.10002 0.0
O64 O 0.10214 0.80318 0.13114 0.0
C65 C 0.54791 0.76873 0.42203 0.0
O66 O 0.55218 0.75446 0.43737 0.0
O67 O 0.51041 0.73901 0.46235 0.0
Zn68 Zn 0.50806 0.77193 0.44863 0.0
O69 O 0.51379 0.80443 0.47272 0.0
C70 C 0.46466 0.7589 0.40912 0.0
O71 O 0.47229 0.74224 0.39794 0.0
O72 O 0.53069 0.77743 0.42354 0.0
C73 C 0.51708 0.82317 0.46294 0.0
O74 O 0.51804 0.82145 0.43912 0.0
C75 C 0.5097 0.73293 0.48402 0.0
O76 O 0.50709 0.7482 0.50182 0.0
O77 O 0.4762 0.77078 0.42897 0.0
C78 C 0.52648 0.28848 0.63442 0.0
O79 O 0.52102 0.27413 0.61375 0.0
O80 O 0.56357 0.26455 0.59744 0.0
Zn81 Zn 0.57041 0.30004 0.61548 0.0
O82 O 0.56537 0.32965 0.59657 0.0
C83 C 0.61387 0.29078 0.64162 0.0
O84 O 0.60592 0.27015 0.62929 0.0
O85 O 0.54659 0.30064 0.6396 0.0
C86 C 0.57189 0.34179 0.57967 0.0
O87 O 0.58684 0.33563 0.56659 0.0
C88 C 0.56546 0.25593 0.57556 0.0
O89 O 0.57152 0.27017 0.55991 0.0
O90 O 0.6025 0.30621 0.63835 0.0
C91 C 0.04991 0.2693 0.92536 0.0
O92 O 0.05415 0.25546 0.94122 0.0
O93 O 0.01359 0.24003 0.96435 0.0
Zn94 Zn 1.00845 0.27132 0.94922 0.0
O95 O 0.01116 0.30416 0.97202 0.0
C96 C 0.9617 0.27409 0.9259 0.0
O97 O 0.96208 0.28893 0.94543 0.0
O98 O 0.03245 0.27771 0.92605 0.0
C99 C 0.01441 0.32288 0.9622 0.0
O100 O 0.01621 0.32116 0.93856 0.0
C101 C 1.00756 0.23118 0.98343 0.0
O102 O 0.99668 0.24239 0.99795 0.0
O103 O 0.97834 0.26436 0.92461 0.0
C104 C 0.37249 0.06527 0.33959 0.0
O105 O 0.39322 0.06776 0.35062 0.0
O106 O 0.39632 0.03289 0.28761 0.0
Zn107 Zn 0.37983 0.02455 0.31591 0.0
O108 O 0.40001 0.02148 0.34463 0.0
C109 C 0.35369 0.98491 0.28528 0.0
O110 O 0.36128 0.99474 0.26688 0.0
O111 O 0.36306 0.04707 0.32524 0.0
C112 C 0.40364 1.00208 0.34829 0.0
O113 O 0.39479 0.98392 0.33192 0.0
C114 C 0.41498 0.02701 0.28676 0.0
O115 O 0.42324 0.01743 0.30491 0.0
O116 O 0.3587 0.99526 0.30707 0.0
C117 C 0.30746 0.1613 0.51906 0.0
O118 O 0.31322 0.18297 0.52881 0.0
O119 O 0.26777 0.19037 0.54608 0.0
Zn120 Zn 0.26401 0.17226 0.51124 0.0
O121 O 0.26854 0.18958 0.48166 0.0
C122 C 0.21783 0.15911 0.51663 0.0
O123 O 0.22239 0.18104 0.52525 0.0
O124 O 0.28687 0.15244 0.51079 0.0
C125 C 0.2701 0.21016 0.47742 0.0
O126 O 0.26765 0.22583 0.49485 0.0
C127 C 0.27679 0.21034 0.55756 0.0
O128 O 0.28793 0.22585 0.5459 0.0
O129 O 0.2329 0.15087 0.50704 0.0
C130 C 0.1648 0.01403 0.80069 0.0
O131 O 0.16023 0.01688 0.82341 0.0
O132 O 0.12461 0.04906 0.7561 0.0
Zn133 Zn 0.14226 0.05177 0.79027 0.0
O134 O 0.12147 0.04303 0.8158 0.0
C135 C 0.17196 0.09467 0.7836 0.0
O136 O 0.16963 0.08395 0.761 0.0
O137 O 0.16016 0.0276 0.78578 0.0
C138 C 0.12123 0.05626 0.83544 0.0
O139 O 0.1343 0.07694 0.83923 0.0
C140 C 0.10507 0.05316 0.75249 0.0
O141 O 0.09568 0.05959 0.77158 0.0
O142 O 0.16219 0.08428 0.79968 0.0
C143 C 0.26044 0.95553 0.97873 0.0
O144 O 0.25797 0.93326 0.97346 0.0
O145 O 0.29067 0.93174 0.02668 0.0
Zn146 Zn 0.30095 0.94923 0.99934 0.0
O147 O 0.30222 0.92775 0.96986 0.0
C148 C 0.34354 0.96515 0.02916 0.0
O149 O 0.33535 0.94906 0.04193 0.0
O150 O 0.27918 0.96746 0.9898 0.0
C151 C 0.32036 0.9275 0.96095 0.0
O152 O 0.33908 0.94209 0.97111 0.0
C153 C 0.2937 0.91149 0.02617 0.0
O154 O 0.30146 0.90237 0.0071 0.0
O155 O 0.33139 0.96909 0.01057 0.0
C156 C 0.26237 0.40326 0.04929 0.0
O157 O 0.25845 0.38147 0.052 0.0
O158 O 0.30592 0.38003 0.0791 0.0
Zn159 Zn 0.30515 0.39356 0.04651 0.0
O160 O 0.29448 0.37118 0.01437 0.0
C161 C 0.35176 0.42278 0.05872 0.0
O162 O 0.35056 0.42108 0.08212 0.0
O163 O 0.28227 0.41335 0.04697 0.0
C164 C 0.30657 0.36079 0.00184 0.0
O165 O 0.32749 0.36152 0.01124 0.0
C166 C 0.30088 0.35856 0.07949 0.0
O167 O 0.29692 0.34481 0.05842 0.0
O168 O 0.33511 0.41285 0.04245 0.0
C169 C 0.81742 0.11947 0.0777 0.0
O170 O 0.81671 0.14045 0.0864 0.0
O171 O 0.77338 0.1378 0.09886 0.0
Zn172 Zn 0.7735 0.12006 0.06633 0.0
O173 O 0.77756 0.14205 0.04151 0.0
C174 C 0.72982 0.11352 0.06105 0.0
O175 O 0.73808 0.13572 0.06471 0.0
O176 O 0.79917 0.10516 0.06875 0.0
C177 C 0.76929 0.13822 0.01886 0.0
O178 O 0.75745 0.11773 0.0092 0.0
C179 C 0.7782 0.15947 0.10102 0.0
O180 O 0.78547 0.16983 0.08282 0.0
O181 O 0.74299 0.09992 0.0585 0.0
C182 C 0.20251 0.50073 0.22503 0.0
O183 O 0.18286 0.49519 0.21082 0.0
O184 O 0.16676 0.5395 0.21491 0.0
Zn185 Zn 0.18908 0.54126 0.24385 0.0
O186 O 0.17305 0.53475 0.2724 0.0
C187 C 0.21307 0.58391 0.23367 0.0
O188 O 0.20554 0.57512 0.21056 0.0
O189 O 0.20824 0.5198 0.23887 0.0
C190 C 0.17395 0.55168 0.28864 0.0
O191 O 0.1855 0.57199 0.28611 0.0
C192 C 0.15484 0.5543 0.21681 0.0
O193 O 0.15761 0.56845 0.23745 0.0
O194 O 0.20869 0.57221 0.25081 0.0
C195 C 0.76743 0.91626 0.55277 0.0
O196 O 0.76038 0.90068 0.56667 0.0
O197 O 0.7951 0.87297 0.5718 0.0
Zn198 Zn 0.80542 0.89368 0.54664 0.0
O199 O 0.80194 0.8774 0.51155 0.0
C200 C 0.85216 0.91327 0.54287 0.0
O201 O 0.84751 0.89845 0.52257 0.0
O202 O 0.78551 0.91617 0.54356 0.0
C203 C 0.80339 0.85784 0.50128 0.0
O204 O 0.8081 0.84245 0.51494 0.0
C205 C 0.80902 0.86865 0.58866 0.0
O206 O 0.83072 0.87658 0.58879 0.0
O207 O 0.83719 0.9135 0.55706 0.0
C208 C 0.91006 0.05447 0.25749 0.0
O209 O 0.92442 0.06143 0.24248 0.0
O210 O 0.94803 0.02234 0.2319 0.0
Zn211 Zn 0.93479 0.01832 0.26406 0.0
O212 O 0.95782 0.02835 0.29583 0.0
C213 C 0.90262 0.9726 0.24962 0.0
O214 O 0.89558 0.97951 0.22891 0.0
O215 O 0.91151 0.03688 0.2677 0.0
C216 C 0.96092 0.01386 0.31035 0.0
O217 O 0.9512 0.99217 0.30333 0.0
C218 C 0.96738 0.01809 0.23059 0.0
O219 O 0.97782 0.0118 0.25 0.0
O220 O 0.91859 0.98566 0.26477 0.0
C221 C 0.3186 0.62025 0.5785 0.0
O222 O 0.31929 0.6415 0.58754 0.0
O223 O 0.27409 0.64533 0.59177 0.0
Zn224 Zn 0.273 0.62034 0.56413 0.0
O225 O 0.27331 0.63411 0.53285 0.0
C226 C 0.22798 0.60211 0.56698 0.0
O227 O 0.23035 0.62183 0.58101 0.0
O228 O 0.29986 0.60721 0.5688 0.0
C229 C 0.25884 0.646 0.52841 0.0
O230 O 0.24378 0.64737 0.54333 0.0
C231 C 0.28339 0.66585 0.58987 0.0
O232 O 0.2924 0.67038 0.56998 0.0
O233 O 0.24514 0.5964 0.55966 0.0
C234 C 0.42249 0.56463 0.76746 0.0
O235 O 0.44436 0.57236 0.77376 0.0
O236 O 0.45048 0.5246 0.73143 0.0
Zn237 Zn 0.43379 0.52 0.7609 0.0
O238 O 0.45543 0.52358 0.79347 0.0
C239 C 0.41422 0.47139 0.76392 0.0
O240 O 0.43292 0.47218 0.77869 0.0
O241 O 0.41453 0.54322 0.76211 0.0
C242 C 0.44815 0.51994 0.81378 0.0
O243 O 0.42626 0.51385 0.8138 0.0
C244 C 0.46545 0.51345 0.72729 0.0
O245 O 0.47036 0.49962 0.74288 0.0
O246 O 0.41168 0.48908 0.7543 0.0
C247 C 0.70288 1.00179 0.73197 0.0
O248 O 0.68317 0.99857 0.71819 0.0
O249 O 0.67465 0.04159 0.71843 0.0
Zn250 Zn 0.69446 0.04449 0.74903 0.0
O251 O 0.67661 0.04157 0.77654 0.0
C252 C 0.7167 0.0888 0.74187 0.0
O253 O 0.70611 0.08287 0.71919 0.0
O254 O 0.71071 0.0204 0.74633 0.0
C255 C 0.67406 0.06029 0.78753 0.0
O256 O 0.68146 0.0796 0.77919 0.0
C257 C 0.66017 0.05336 0.71414 0.0
O258 O 0.65809 0.06986 0.73084 0.0
O259 O 0.71608 0.07406 0.75651 0.0
C260 C 0.80681 0.65628 0.01057 0.0
O261 O 0.80008 0.6548 0.98679 0.0
O262 O 0.76783 0.69873 0.04899 0.0
Zn263 Zn 0.76864 0.67742 0.01773 0.0
O264 O 0.77389 0.69173 0.98684 0.0
C265 C 0.7238 0.65396 0.02233 0.0
O266 O 0.72634 0.67111 0.04013 0.0
O267 O 0.79538 0.664 0.02605 0.0
C268 C 0.77235 0.71106 0.98058 0.0
O269 O 0.76613 0.7261 0.99594 0.0
C270 C 0.78259 0.71703 0.057 0.0
O271 O 0.79829 0.72415 0.04351 0.0
O272 O 0.73986 0.6527 0.00989 0.0
C273 C 0.86864 0.56693 0.83375 0.0
O274 O 0.8904 0.57279 0.84181 0.0
O275 O 0.89592 0.53334 0.78656 0.0
Zn276 Zn 0.8801 0.52655 0.81563 0.0
O277 O 0.90158 0.52798 0.84606 0.0
C278 C 0.85742 0.48151 0.78971 0.0
O279 O 0.86303 0.48872 0.76918 0.0
O280 O 0.86027 0.54724 0.82181 0.0
C281 C 0.90716 0.5094 0.84995 0.0
O282 O 0.90064 0.49131 0.83308 0.0
C283 C 0.91425 0.52696 0.7849 0.0
O284 O 0.92309 0.51751 0.8028 0.0
O285 O 0.86145 0.49528 0.80963 0.0
C286 C 0.75822 0.45683 0.48074 0.0
O287 O 0.75638 0.43455 0.4774 0.0
O288 O 0.79636 0.43802 0.52636 0.0
Zn289 Zn 0.80034 0.45297 0.49598 0.0
O290 O 0.79738 0.43077 0.46651 0.0
C291 C 0.84507 0.4715 0.51597 0.0
O292 O 0.83958 0.45947 0.53367 0.0
O293 O 0.77714 0.46993 0.48944 0.0
C294 C 0.81144 0.41893 0.4613 0.0
O295 O 0.82971 0.42004 0.47692 0.0
C296 C 0.79314 0.41655 0.52652 0.0
O297 O 0.79076 0.40284 0.50564 0.0
O298 O 0.83011 0.47273 0.49864 0.0
C299 C 0.65177 0.5069 0.29396 0.0
O300 O 0.62978 0.50476 0.29054 0.0
O301 O 0.62833 0.54586 0.26322 0.0
Zn302 Zn 0.64718 0.55221 0.29826 0.0
O303 O 0.62784 0.54895 0.3265 0.0
C304 C 0.66189 0.59939 0.29295 0.0
O305 O 0.64122 0.59413 0.28127 0.0
O306 O 0.66443 0.5269 0.29875 0.0
C307 C 0.62025 0.5654 0.33634 0.0
O308 O 0.62433 0.58505 0.32769 0.0
C309 C 0.61091 0.55236 0.25409 0.0
O310 O 0.60097 0.56494 0.26832 0.0
O311 O 0.6695 0.58386 0.30277 0.0
C312 C 0.98735 0.97061 0.98293 0.0
C313 C 0.96901 0.94849 0.01215 0.0
C314 C 0.98136 0.9693 0.00646 0.0
C315 C 0.96287 0.9291 0.99404 0.0
C316 C 0.98077 0.95123 0.96458 0.0
C317 C 0.96865 0.93049 0.97031 0.0
N318 N 0.999 0.99096 0.97779 0.0
C319 C 1.00363 0.99326 0.95441 0.0
C320 C 0.98614 0.95336 0.94081 0.0
C321 C 0.99748 0.97451 0.93568 0.0
Gd322 Gd 0.06675 0.04857 0.04535 0.0
Gd323 Gd 1.0057 0.02199 0.00977 0.0
N324 N 0.98719 0.98847 0.02359 0.0
C325 C 0.96266 0.94791 0.03571 0.0
C326 C 0.9795 0.98829 0.04588 0.0
C327 C 0.96773 0.96797 0.05254 0.0
H328 H 0.98144 1.00383 0.05827 0.0
H329 H 0.96203 0.96795 0.07043 0.0
H330 H 0.09278 0.06722 0.99926 0.0
H331 H 0.01115 0.00979 0.94982 0.0
H332 H 0.11128 0.10421 0.98736 0.0
H333 H 0.9532 0.93226 0.04078 0.0
H334 H 0.95331 0.91303 0.99808 0.0
H335 H 0.05498 0.06039 0.10314 0.0
H336 H 0.9812 0.93893 0.92618 0.0
H337 H 1.00114 0.97649 0.91718 0.0
H338 H 0.11038 0.15921 0.05654 0.0
H339 H 0.96343 0.91547 0.95642 0.0
H340 H 0.0783 0.13232 0.12591 0.0
H341 H 0.05997 0.09404 0.13458 0.0
N342 N 0.06805 0.07949 0.07582 0.0
C343 C 0.07872 0.1003 0.07086 0.0
C344 C 0.06165 0.07707 0.09848 0.0
C345 C 0.07546 0.11765 0.11168 0.0
C346 C 0.065 0.0961 0.11661 0.0
C347 C 0.08263 0.11996 0.08869 0.0
H348 H 0.09714 0.15641 0.09677 0.0
N349 N 0.08266 0.08257 0.03126 0.0
C350 C 0.08604 0.1019 0.04793 0.0
C351 C 0.10606 0.124 0.02013 0.0
C352 C 0.09768 0.12318 0.04265 0.0
C353 C 0.09247 0.083 0.01033 0.0
C354 C 0.10372 0.10377 0.00408 0.0
O355 O 0.02549 0.99411 0.01774 0.0
O356 O 0.05607 0.01022 0.0481 0.0
O357 O 0.10128 0.04764 0.04156 0.0
O358 O 0.09113 0.05094 0.07793 0.0
O359 O 1.00895 0.03639 0.05095 0.0
O360 O 0.04275 0.02924 0.06668 0.0
O361 O 0.04163 0.07193 0.04056 0.0
O362 O 0.02043 0.05878 0.00298 0.0
O363 O 0.97431 0.03224 0.017 0.0
O364 O 0.97961 0.0201 0.97952 0.0
O365 O 0.06534 0.03199 0.00576 0.0
O366 O 0.03149 0.0367 0.98641 0.0
C367 C 0.04204 0.99216 0.03459 0.0
C368 C 0.0224 0.03168 0.0693 0.0
C369 C 0.12264 0.03451 0.0734 0.0
C370 C 0.15364 0.01659 0.06527 0.0
C371 C 0.14208 0.01876 0.10602 0.0
C372 C 0.12544 0.03011 0.09796 0.0
C373 C 0.15626 0.01213 0.08983 0.0
C374 C 0.13657 0.02739 0.05717 0.0
C375 C 0.1074 0.04895 0.06525 0.0
C376 C 0.10137 0.14278 0.06029 0.0
C377 C 0.09388 0.14117 0.08323 0.0
H378 H 0.11519 0.13998 0.01543 0.0
C379 C 0.03081 0.07608 0.02 0.0
C380 C 0.05164 0.03259 0.98567 0.0
C381 C 0.9436 0.0287 0.98289 0.0
C382 C 0.91112 0.04531 0.9853 0.0
C383 C 0.91338 0.02088 0.94816 0.0
C384 C 0.93424 0.01789 0.95884 0.0
C385 C 0.90187 0.03479 0.96128 0.0
C386 C 0.93176 0.04206 0.99618 0.0
C387 C 0.96608 0.02691 0.99359 0.0
H388 H 0.14431 0.01555 0.125 0.0
H389 H 0.11515 0.03583 0.11104 0.0
H390 H 0.1695 1.00397 0.09662 0.0
H391 H 0.1344 0.03065 0.03817 0.0
H392 H 0.90629 0.01266 0.92961 0.0
H393 H 0.94311 0.00732 0.94823 0.0
H394 H 0.88589 0.03742 0.95277 0.0
H395 H 0.93893 0.05065 0.01464 0.0
C396 C 0.32246 0.74105 0.2168 0.0
C397 C 0.29195 0.72274 0.18423 0.0
C398 C 0.30105 0.73972 0.20484 0.0
C399 C 0.30453 0.70695 0.17636 0.0
C400 C 0.3352 0.72517 0.20902 0.0
C401 C 0.32609 0.70809 0.18881 0.0
N402 N 0.33054 0.75737 0.23664 0.0
C403 C 0.35184 0.75941 0.24878 0.0
C404 C 0.35665 0.72676 0.22195 0.0
C405 C 0.36506 0.74408 0.24184 0.0
Gd406 Gd 0.27084 0.78626 0.31038 0.0
Gd407 Gd 0.3068 0.78159 0.24937 0.0
N408 N 0.28895 0.75463 0.21373 0.0
C409 C 0.27044 0.72209 0.17211 0.0
C410 C 0.26823 0.75447 0.20113 0.0
C411 C 0.25867 0.73822 0.18042 0.0
H412 H 0.25884 0.76698 0.20625 0.0
H413 H 0.24222 0.73825 0.17078 0.0
H414 H 0.31114 0.79749 0.36077 0.0
H415 H 0.35892 0.77301 0.26386 0.0
H416 H 0.33125 0.83062 0.3911 0.0
H417 H 0.26292 0.70944 0.15615 0.0
H418 H 0.29773 0.69375 0.1607 0.0
H419 H 0.21976 0.79599 0.29255 0.0
H420 H 0.36689 0.71484 0.21665 0.0
H421 H 0.38175 0.74567 0.25181 0.0
H422 H 0.28918 0.88809 0.37808 0.0
H423 H 0.33558 0.69573 0.18265 0.0
H424 H 0.21899 0.86418 0.32382 0.0
H425 H 0.20009 0.82782 0.2972 0.0
N426 N 0.24966 0.81435 0.31587 0.0
C427 C 0.26009 0.83397 0.33107 0.0
C428 C 0.22827 0.81186 0.304 0.0
C429 C 0.22778 0.85035 0.32169 0.0
C430 C 0.21704 0.82983 0.30668 0.0
C431 C 0.24947 0.85255 0.33436 0.0
H432 H 0.2527 0.8869 0.3533 0.0
N433 N 0.28968 0.81598 0.34226 0.0
C434 C 0.28083 0.83484 0.34466 0.0
C435 C 0.31028 0.85286 0.37845 0.0
C436 C 0.29116 0.85402 0.36246 0.0
C437 C 0.30638 0.8137 0.35997 0.0
C438 C 0.31746 0.8323 0.37772 0.0
O439 O 0.29422 0.75641 0.2739 0.0
O440 O 0.25935 0.75429 0.28356 0.0
O441 O 0.27443 0.76122 0.33474 0.0
O442 O 0.24503 0.77714 0.33367 0.0
O443 O 0.27175 0.79016 0.24354 0.0
O444 O 0.24796 0.77904 0.27279 0.0
O445 O 0.28147 0.81505 0.28992 0.0
O446 O 0.31562 0.81002 0.28109 0.0
O447 O 0.30587 0.8089 0.227 0.0
O448 O 0.33793 0.80223 0.24197 0.0
O449 O 0.30832 0.78439 0.31825 0.0
O450 O 0.32773 0.77719 0.28491 0.0
C451 C 0.27352 0.74509 0.27226 0.0
C452 C 0.25161 0.78597 0.25116 0.0
C453 C 0.24459 0.74489 0.35579 0.0
C454 C 0.24641 0.72306 0.38994 0.0
C455 C 0.21158 0.71707 0.3616 0.0
C456 C 0.22193 0.73369 0.34823 0.0
C457 C 0.22377 0.71174 0.38241 0.0
C458 C 0.25673 0.73951 0.3766 0.0
C459 C 0.25615 0.76348 0.344 0.0
C460 C 0.28131 0.87309 0.36477 0.0
C461 C 0.2605 0.87237 0.35073 0.0
H462 H 0.31869 0.86717 0.39241 0.0
C463 C 0.30222 0.8232 0.28727 0.0
C464 C 0.32637 0.78013 0.30887 0.0
C465 C 0.33749 0.82054 0.20598 0.0
C466 C 0.33547 0.83842 0.16832 0.0
C467 C 0.37056 0.82925 0.18535 0.0
C468 C 0.36023 0.8204 0.20448 0.0
C469 C 0.35842 0.83843 0.16758 0.0
C470 C 0.32511 0.82941 0.18771 0.0
C471 C 0.32781 0.81439 0.22825 0.0
H472 H 0.19402 0.70855 0.35608 0.0
H473 H 0.21227 0.73794 0.33235 0.0
H474 H 0.21546 0.69923 0.39297 0.0
H475 H 0.27413 0.74852 0.38278 0.0
H476 H 0.38821 0.82948 0.18461 0.0
H477 H 0.37031 0.81409 0.2185 0.0
H478 H 0.36726 0.84596 0.15353 0.0
H479 H 0.30758 0.82958 0.1888 0.0
C480 C 0.58922 0.08595 0.48474 0.0
C481 C 0.6165 0.11224 0.51649 0.0
C482 C 0.60069 0.09127 0.50897 0.0
C483 C 0.6207 0.12786 0.49961 0.0
C484 C 0.59372 0.10163 0.46779 0.0
C485 C 0.60938 0.12257 0.47538 0.0
N486 N 0.57405 0.06547 0.47767 0.0
C487 C 0.5638 0.05932 0.45376 0.0
C488 C 0.58259 0.09572 0.44353 0.0
C489 C 0.5677 0.07446 0.43647 0.0
Gd490 Gd 0.51083 0.03667 0.54137 0.0
Gd491 Gd 0.57114 0.04168 0.50858 0.0
N492 N 0.59609 0.07611 0.5253 0.0
C493 C 0.62784 0.11682 0.54075 0.0
C494 C 0.60797 0.07988 0.54842 0.0
C495 C 0.62371 0.10046 0.55669 0.0
H496 H 0.60589 0.06675 0.56014 0.0
H497 H 0.63294 0.10351 0.57519 0.0
H498 H 0.46928 0.01597 0.49452 0.0
H499 H 0.55302 0.04262 0.44753 0.0
H500 H 0.43955 0.98084 0.48082 0.0
H501 H 0.64015 0.13271 0.54717 0.0
H502 H 0.63282 0.14403 0.50507 0.0
H503 H 0.53116 0.0344 0.60186 0.0
H504 H 0.58567 0.1073 0.42998 0.0
H505 H 0.55946 0.06956 0.41758 0.0
H506 H 0.44422 0.93737 0.54824 0.0
H507 H 0.613 0.13477 0.46256 0.0
H508 H 0.49764 0.97049 0.62004 0.0
H509 H 0.52568 0.00718 0.6314 0.0
N510 N 0.50795 0.01267 0.57237 0.0
C511 C 0.49147 0.99308 0.56622 0.0
C512 C 0.51961 0.01811 0.59578 0.0
C513 C 0.50029 0.9822 0.60656 0.0
C514 C 0.51622 1.00284 0.613 0.0
C515 C 0.48745 0.97722 0.58311 0.0
H516 H 0.46741 0.94469 0.58903 0.0
N517 N 0.48206 1.00436 0.52699 0.0
C518 C 0.47817 0.98887 0.54304 0.0
C519 C 0.4473 0.96568 0.51348 0.0
C520 C 0.46086 0.96886 0.53645 0.0
C521 C 0.4678 1.00225 0.50554 0.0
C522 C 0.45055 0.98265 0.49813 0.0
O523 O 0.56039 0.07532 0.5221 0.0
O524 O 0.53202 0.07342 0.5476 0.0
O525 O 0.48152 0.0513 0.52932 0.0
O526 O 0.49204 0.04852 0.56825 0.0
O527 O 0.55903 0.02995 0.54204 0.0
O528 O 0.54254 0.04985 0.56761 0.0
O529 O 0.51918 1.00191 0.52655 0.0
O530 O 0.55127 1.00394 0.50593 0.0
O531 O 0.60084 0.0301 0.52349 0.0
O532 O 0.59407 0.03273 0.48437 0.0
O533 O 0.52067 0.04551 0.50496 0.0
O534 O 0.54085 0.02638 0.4818 0.0
C535 C 0.54807 0.08503 0.53674 0.0
C536 C 0.56065 0.04347 0.56235 0.0
C537 C 0.45917 0.06397 0.56102 0.0
C538 C 0.42798 0.08327 0.5552 0.0
C539 C 0.43933 0.07298 0.59538 0.0
C540 C 0.45609 0.06367 0.58595 0.0
C541 C 0.42541 0.08278 0.58018 0.0
C542 C 0.44478 0.07358 0.54547 0.0
C543 C 0.47771 0.05445 0.55224 0.0
C544 C 0.45736 0.95288 0.55306 0.0
C545 C 0.47057 0.95706 0.5763 0.0
H546 H 0.43383 0.95055 0.50777 0.0
C547 C 0.53332 0.99212 0.51438 0.0
C548 C 0.52149 0.03015 0.4865 0.0
C549 C 0.61391 1.00491 0.49498 0.0
C550 C 0.64329 0.98325 0.49715 0.0
C551 C 0.60924 0.96916 0.46767 0.0
C552 C 0.60086 0.988 0.47622 0.0
C553 C 0.63031 0.96669 0.47817 0.0
C554 C 0.6351 1.00238 0.50553 0.0
C555 C 0.6069 0.02642 0.50167 0.0
H556 H 0.43716 0.07264 0.61457 0.0
H557 H 0.4667 0.05626 0.59836 0.0
H558 H 0.41241 0.08987 0.58794 0.0
H559 H 0.44689 0.07395 0.52624 0.0
H560 H 0.59959 0.95668 0.45254 0.0
H561 H 0.58455 0.9897 0.46762 0.0
H562 H 0.63667 0.95206 0.47125 0.0
H563 H 0.64547 0.01555 0.51967 0.0
C564 C 0.23339 0.30791 0.72015 0.0
C565 C 0.21324 0.27138 0.69659 0.0
C566 C 0.22687 0.2841 0.7181 0.0
C567 C 0.2065 0.28279 0.67712 0.0
C568 C 0.22647 0.31939 0.70068 0.0
C569 C 0.21308 0.30669 0.67916 0.0
N570 N 0.24624 0.31985 0.74124 0.0
C571 C 0.25239 0.34321 0.74428 0.0
C572 C 0.23303 0.34333 0.70351 0.0
C573 C 0.24598 0.35528 0.72543 0.0
Gd574 Gd 0.31425 0.27715 0.7831 0.0
Gd575 Gd 0.25488 0.29781 0.77181 0.0
N576 N 0.23387 0.27341 0.73713 0.0
C577 C 0.20652 0.24758 0.69544 0.0
C578 C 0.22641 0.25042 0.73661 0.0
C579 C 0.21293 0.23709 0.71565 0.0
H580 H 0.23057 0.24233 0.75236 0.0
H581 H 0.20735 0.21877 0.71517 0.0
H582 H 0.3525 0.32526 0.79835 0.0
H583 H 0.26187 0.35261 0.76145 0.0
H584 H 0.37943 0.34654 0.83486 0.0
H585 H 0.19603 0.2372 0.67924 0.0
H586 H 0.19602 0.27328 0.66047 0.0
H587 H 0.29875 0.22213 0.7934 0.0
H588 H 0.228 0.35275 0.68898 0.0
H589 H 0.2509 0.37379 0.72789 0.0
H590 H 0.37561 0.29251 0.89294 0.0
H591 H 0.20759 0.31523 0.66403 0.0
H592 H 0.3281 0.21779 0.86654 0.0
H593 H 0.30364 0.19962 0.82743 0.0
N594 N 0.31846 0.25344 0.81373 0.0
C595 C 0.33266 0.2635 0.83473 0.0
C596 C 0.30861 0.23061 0.81072 0.0
C597 C 0.32554 0.22796 0.85187 0.0
C598 C 0.31169 0.21765 0.82984 0.0
C599 C 0.33656 0.25105 0.85438 0.0
H600 H 0.35492 0.25257 0.89087 0.0
N601 N 0.34018 0.29747 0.81667 0.0
C602 C 0.34408 0.28612 0.83611 0.0
C603 C 0.37216 0.31915 0.85677 0.0
C604 C 0.35996 0.29678 0.8569 0.0
C605 C 0.35345 0.31824 0.81543 0.0
C606 C 0.3692 0.32977 0.8357 0.0
O607 O 0.27132 0.28777 0.73803 0.0
O608 O 0.28883 0.25993 0.75014 0.0
O609 O 0.34177 0.28588 0.76009 0.0
O610 O 0.33588 0.25412 0.77627 0.0
O611 O 0.25746 0.2686 0.79381 0.0
O612 O 0.28157 0.25013 0.7751 0.0
O613 O 0.30153 0.29168 0.81779 0.0
O614 O 0.2789 0.31611 0.80562 0.0
O615 O 0.2255 0.28485 0.78964 0.0
O616 O 0.23041 0.3184 0.77821 0.0
O617 O 0.31536 0.31117 0.76817 0.0
O618 O 0.28533 0.32732 0.77842 0.0
C619 C 0.28068 0.27035 0.73275 0.0
C620 C 0.26463 0.24995 0.78781 0.0
C621 C 0.36759 0.25913 0.75345 0.0
C622 C 0.40044 0.26305 0.7308 0.0
C623 C 0.38983 0.22995 0.75198 0.0
C624 C 0.37182 0.23821 0.75961 0.0
C625 C 0.404 0.2422 0.73786 0.0
C626 C 0.3822 0.27178 0.739 0.0
C627 C 0.34829 0.26698 0.76337 0.0
C628 C 0.36354 0.2846 0.87674 0.0
C629 C 0.35177 0.26184 0.87555 0.0
H630 H 0.38453 0.32797 0.87238 0.0
C631 C 0.29004 0.30756 0.82287 0.0
C632 C 0.30517 0.3285 0.77078 0.0
C633 C 0.20844 0.31235 0.81072 0.0
C634 C 0.17763 0.31031 0.83576 0.0
C635 C 0.20982 0.34266 0.84438 0.0
C636 C 0.21915 0.33361 0.82463 0.0
C637 C 0.1892 0.33113 0.84991 0.0
C638 C 0.18743 0.30074 0.81629 0.0
C639 C 0.21781 0.30344 0.78889 0.0
H640 H 0.39288 0.21392 0.75714 0.0
H641 H 0.36127 0.22807 0.77067 0.0
H642 H 0.41805 0.2353 0.73255 0.0
H643 H 0.37932 0.28795 0.73405 0.0
H644 H 0.2183 0.35902 0.855 0.0
H645 H 0.23441 0.34361 0.81979 0.0
H646 H 0.18187 0.33883 0.86481 0.0
H647 H 0.17842 0.28485 0.80503 0.0
C648 C 0.01295 0.09218 0.5745 0.0
C649 C 0.04594 0.11964 0.59653 0.0
C650 C 0.03569 0.10245 0.57656 0.0
C651 C 0.03322 0.12565 0.61488 0.0
C652 C 0.99992 0.09875 0.59243 0.0
C653 C 0.01027 0.1152 0.61285 0.0
N654 N 1.00352 0.07601 0.55481 0.0
C655 C 0.98075 0.06743 0.55061 0.0
C656 C 0.9768 0.08878 0.5891 0.0
C657 C 0.96712 0.07337 0.56786 0.0
Gd658 Gd 0.04304 1.00105 0.52698 0.0
Gd659 Gd 0.02828 0.06559 0.52827 0.0
N660 N 0.04771 0.0958 0.5589 0.0
C661 C 0.06863 0.13043 0.59732 0.0
C662 C 0.06936 0.10726 0.55874 0.0
C663 C 0.08026 0.1245 0.57809 0.0
H664 H 0.07821 0.10342 0.54353 0.0
H665 H 0.09758 0.13328 0.57807 0.0
H666 H 0.99372 0.96549 0.50796 0.0
H667 H 0.97293 0.05601 0.53395 0.0
H668 H 0.97394 0.93902 0.47024 0.0
H669 H 0.07711 0.14375 0.61231 0.0
H670 H 0.04089 0.1386 0.63052 0.0
H671 H 0.09888 0.01419 0.51939 0.0
H672 H 0.96621 0.09332 0.60246 0.0
H673 H 0.94914 0.06609 0.56473 0.0
H674 H 0.02968 0.94272 0.4155 0.0
H675 H 1.00058 0.12025 0.62695 0.0
H676 H 0.10371 0.98806 0.44551 0.0
H677 H 0.12152 0.01003 0.48606 0.0
N678 N 0.06744 0.99787 0.49714 0.0
C679 C 0.0576 0.98436 0.47546 0.0
C680 C 0.09033 0.00601 0.50141 0.0
C681 C 0.09338 0.99063 0.45983 0.0
C682 C 0.10348 1.0031 0.48267 0.0
C683 C 0.07032 0.98049 0.45622 0.0
H684 H 0.06946 0.9628 0.41947 0.0
N685 N 0.0232 0.9766 0.49196 0.0
C686 C 0.03503 0.97302 0.47302 0.0
C687 C 1.00237 0.94578 0.45044 0.0
C688 C 0.02478 0.95768 0.45157 0.0
C689 C 1.00197 0.96388 0.49177 0.0
C690 C 0.991 0.9487 0.47074 0.0
O691 O 0.03316 0.05238 0.5653 0.0
O692 O 0.05588 0.02552 0.56261 0.0
O693 O 0.03035 0.97426 0.54886 0.0
O694 O 0.06036 0.97365 0.53218 0.0
O695 O 0.06411 0.06375 0.52339 0.0
O696 O 0.07331 0.03137 0.53847 0.0
O697 O 0.02178 0.00998 0.49427 0.0
O698 O 0.04172 0.0459 0.49898 0.0
O699 O 0.03649 0.09676 0.51181 0.0
O700 O 1.00372 0.07375 0.50061 0.0
O701 O 0.0117 0.00635 0.54247 0.0
O702 O 0.99953 0.03384 0.52129 0.0
C703 C 0.04681 0.04036 0.57536 0.0
C704 C 0.07868 0.05228 0.53234 0.0
C705 C 0.05678 0.9549 0.56739 0.0
C706 C 0.05723 0.92425 0.59308 0.0
C707 C 0.08791 0.95825 0.60016 0.0
C708 C 0.07735 0.96728 0.581 0.0
C709 C 0.07797 0.93696 0.60619 0.0
C710 C 0.04677 0.93326 0.5734 0.0
C711 C 0.04654 0.96365 0.54587 0.0
C712 C 0.03728 0.95438 0.43218 0.0
C713 C 0.05993 0.96587 0.43443 0.0
H714 H 0.99387 0.93389 0.43423 0.0
C715 C 0.02802 0.02882 0.48482 0.0
C716 C 0.99616 0.0173 0.53519 0.0
C717 C 1.00746 0.1132 0.49466 0.0
C718 C 1.00928 0.14911 0.4771 0.0
C719 C 0.97914 0.13531 0.50068 0.0
C720 C 0.98798 0.11619 0.50453 0.0
C721 C 0.98966 0.15164 0.48714 0.0
C722 C 0.01802 0.12967 0.48091 0.0
C723 C 0.01705 0.09301 0.49796 0.0
H724 H 0.10393 0.96775 0.61036 0.0
H725 H 0.08544 0.98379 0.57654 0.0
H726 H 0.08661 0.93029 0.62108 0.0
H727 H 0.03092 0.92357 0.56291 0.0
H728 H 0.96397 0.13745 0.50814 0.0
H729 H 0.97958 0.10375 0.51509 0.0
H730 H 0.98218 0.16609 0.48416 0.0
H731 H 0.03312 0.12739 0.47333 0.0
C732 C 0.24153 0.7297 0.8279 0.0
C733 C 0.21874 0.69759 0.79873 0.0
C734 C 0.23766 0.7161 0.80485 0.0
C735 C 0.20371 0.69296 0.81589 0.0
C736 C 0.22638 0.72504 0.84508 0.0
C737 C 0.20749 0.70665 0.83894 0.0
N738 N 0.2599 0.74755 0.8334 0.0
C739 C 0.2645 0.76073 0.85602 0.0
C740 C 0.23066 0.73896 0.868 0.0
C741 C 0.24984 0.7568 0.87351 0.0
Gd742 Gd 0.28399 0.80937 0.77026 0.0
Gd743 Gd 0.2835 0.75052 0.80278 0.0
N744 N 0.25189 0.72146 0.78809 0.0
C745 C 0.2153 0.6845 0.77535 0.0
C746 C 0.24926 0.70825 0.76581 0.0
C747 C 0.23074 0.68975 0.75889 0.0
H748 H 0.26201 0.71144 0.75397 0.0
H749 H 0.22861 0.67933 0.74107 0.0
H750 H 0.30589 0.85372 0.8138 0.0
H751 H 0.27968 0.77395 0.86112 0.0
H752 H 0.34036 0.88485 0.82407 0.0
H753 H 0.20096 0.67016 0.76995 0.0
H754 H 0.18904 0.67888 0.81147 0.0
H755 H 0.27655 0.79393 0.70871 0.0
H756 H 0.21941 0.73592 0.88168 0.0
H757 H 0.2535 0.76737 0.89137 0.0
H758 H 0.37715 0.87909 0.75181 0.0
H759 H 0.19569 0.70286 0.85193 0.0
H760 H 0.33572 0.8272 0.68127 0.0
H761 H 0.29815 0.80066 0.67396 0.0
N762 N 0.30222 0.81547 0.73554 0.0
C763 C 0.32211 0.83126 0.73962 0.0
C764 C 0.29309 0.80528 0.71215 0.0
C765 C 0.32643 0.82416 0.69661 0.0
C766 C 0.30519 0.8092 0.6924 0.0
C767 C 0.33492 0.83584 0.72035 0.0
H768 H 0.36546 0.85613 0.71068 0.0
N769 N 0.31518 0.84029 0.78029 0.0
C770 C 0.32873 0.84423 0.7627 0.0
C771 C 0.35292 0.87627 0.79003 0.0
C772 C 0.34826 0.86205 0.76725 0.0
C773 C 0.31834 0.85538 0.80139 0.0
C774 C 0.33756 0.87326 0.80694 0.0
O775 O 0.24914 0.76069 0.79208 0.0
O776 O 0.25167 0.78178 0.75949 0.0
O777 O 0.26747 0.83555 0.78564 0.0
O778 O 0.2641 0.82565 0.74604 0.0
O779 O 0.29353 0.74996 0.76485 0.0
O780 O 0.27549 0.77513 0.74693 0.0
O781 O 0.3202 0.80509 0.78453 0.0
O782 O 0.3191 0.77141 0.80241 0.0
O783 O 0.29562 0.71937 0.79456 0.0
O784 O 0.297 0.73472 0.83301 0.0
O785 O 0.27626 0.80294 0.808 0.0
O786 O 0.29907 0.78324 0.82729 0.0
C787 C 0.23955 0.77024 0.7742 0.0
C788 C 0.2886 0.76057 0.74617 0.0
C789 C 0.26227 0.8634 0.75941 0.0
C790 C 0.24565 0.89654 0.75684 0.0
C791 C 0.28042 0.89523 0.7401 0.0
C792 C 0.27996 0.87373 0.74742 0.0
C793 C 0.26324 0.90652 0.74457 0.0
C794 C 0.2453 0.87504 0.76446 0.0
C795 C 0.25974 0.83949 0.76381 0.0
C796 C 0.36188 0.86568 0.74859 0.0
C797 C 0.35522 0.85259 0.72517 0.0
H798 H 0.36773 0.89023 0.79425 0.0
C799 C 0.33025 0.79009 0.79493 0.0
C800 C 0.29205 0.80206 0.82565 0.0
C801 C 0.31123 0.69997 0.82657 0.0
C802 C 0.33201 0.67002 0.81927 0.0
C803 C 0.32346 0.68072 0.86037 0.0
C804 C 0.31258 0.69701 0.85158 0.0
C805 C 0.3333 0.66741 0.84439 0.0
C806 C 0.32067 0.68611 0.81031 0.0
C807 C 0.30116 0.71833 0.81791 0.0
H808 H 0.29387 0.90295 0.73049 0.0
H809 H 0.29299 0.86489 0.74299 0.0
H810 H 0.26356 0.923 0.73833 0.0
H811 H 0.23134 0.86698 0.77325 0.0
H812 H 0.32451 0.67858 0.87969 0.0
H813 H 0.30539 0.70744 0.86442 0.0
H814 H 0.34189 0.655 0.85161 0.0
H815 H 0.31998 0.68838 0.791 0.0
C816 C 0.58317 0.99791 0.09209 0.0
C817 C 0.60473 0.02945 0.12258 0.0
C818 C 0.58624 0.0202 0.10386 0.0
C819 C 0.61967 0.01579 0.12978 0.0
C820 C 0.5983 0.98422 0.09916 0.0
C821 C 0.61645 0.99323 0.11813 0.0
N822 N 0.56582 0.98983 0.0733 0.0
C823 C 0.56211 0.96788 0.0616 0.0
C824 C 0.59487 0.96192 0.08679 0.0
C825 C 0.57664 0.9537 0.06801 0.0
Gd826 Gd 0.53874 0.0508 0.99921 0.0
Gd827 Gd 0.54215 0.01484 0.06408 0.0
N828 N 0.57204 0.03333 0.0957 0.0
C829 C 0.60802 0.05236 0.13305 0.0
C830 C 0.57538 0.05577 0.10578 0.0
C831 C 0.59332 0.06558 0.12454 0.0
H832 H 0.56479 0.06644 0.09898 0.0
H833 H 0.59592 0.08343 0.13224 0.0
H834 H 0.5222 0.99889 0.96041 0.0
H835 H 0.54772 0.96103 0.04753 0.0
H836 H 0.49061 0.97933 0.9295 0.0
H837 H 0.62207 0.06011 0.14739 0.0
H838 H 0.63395 0.0226 0.14413 0.0
H839 H 0.53469 0.10532 0.00641 0.0
H840 H 0.60613 0.95089 0.09166 0.0
H841 H 0.57368 0.93637 0.05855 0.0
H842 H 0.4464 0.03516 0.91772 0.0
H843 H 0.62824 0.98297 0.12375 0.0
H844 H 0.4747 0.11091 0.96146 0.0
H845 H 0.50855 0.12876 0.99189 0.0
N846 N 0.51596 0.07455 0.98435 0.0
C847 C 0.49797 0.0646 0.96704 0.0
C848 C 0.52007 0.09736 0.99297 0.0
C849 C 0.48623 0.10058 0.96765 0.0
C850 C 0.5053 0.11071 0.98481 0.0
C851 C 0.48241 0.07728 0.95844 0.0
H852 H 0.4514 0.07581 0.93426 0.0
N853 N 0.51103 0.03028 0.96593 0.0
C854 C 0.49533 0.04177 0.95764 0.0
C855 C 0.47493 0.00814 0.92963 0.0
C856 C 0.47679 0.03096 0.93946 0.0
C857 C 0.50964 0.00821 0.95546 0.0
C858 C 0.4916 0.99685 0.93742 0.0
O859 O 0.57694 0.03143 0.0586 0.0
O860 O 0.55364 0.04004 0.03151 0.0
O861 O 0.56566 0.04942 0.97765 0.0
O862 O 0.56189 0.08232 0.99495 0.0
O863 O 0.53222 0.05041 0.06933 0.0
O864 O 0.54008 0.07245 0.03666 0.0
O865 O 0.50547 0.04155 0.01205 0.0
O866 O 0.51709 0.01355 0.02999 0.0
O867 O 0.52414 0.01557 0.09593 0.0
O868 O 0.5211 0.98345 0.07136 0.0
O869 O 0.548 0.01579 0.99421 0.0
O870 O 0.54227 0.99316 0.02652 0.0
C871 C 0.57448 0.0425 0.04045 0.0
C872 C 0.53423 0.06982 0.05908 0.0
C873 C 0.57385 0.07968 0.95562 0.0
C874 C 0.59118 0.07715 0.9186 0.0
C875 C 0.55789 0.09295 0.91901 0.0
C876 C 0.55732 0.08934 0.94358 0.0
C877 C 0.57465 0.08661 0.90637 0.0
C878 C 0.59094 0.07406 0.9432 0.0
C879 C 0.57188 0.07159 0.97934 0.0
C880 C 0.46083 0.04328 0.93146 0.0
C881 C 0.46367 0.06642 0.94087 0.0
H882 H 0.46096 0.99924 0.91567 0.0
C883 C 0.5025 0.02657 0.02738 0.0
C884 C 0.54716 0.99637 0.00393 0.0
C885 C 0.49996 0.98128 0.10576 0.0
C886 C 0.47647 0.98164 0.13842 0.0
C887 C 0.47675 0.94573 0.11352 0.0
C888 C 0.49228 0.95741 0.10019 0.0
C889 C 0.46878 0.95774 0.13246 0.0
C890 C 0.49207 0.99332 0.12493 0.0
C891 C 0.51526 0.99368 0.0908 0.0
H892 H 0.54513 0.10032 0.90966 0.0
H893 H 0.54375 0.09352 0.95278 0.0
H894 H 0.57493 0.08931 0.88728 0.0
H895 H 0.60357 0.06632 0.95238 0.0
H896 H 0.47076 0.92735 0.10907 0.0
H897 H 0.4981 0.94778 0.08539 0.0
H898 H 0.45646 0.94832 0.14233 0.0
H899 H 0.49814 0.01172 0.12943 0.0
C900 C 0.35678 0.33792 0.32673 0.0
C901 C 0.37815 0.35644 0.2972 0.0
C902 C 0.35771 0.34406 0.30317 0.0
C903 C 0.39717 0.36352 0.31542 0.0
C904 C 0.37604 0.34466 0.34492 0.0
C905 C 0.3961 0.35771 0.33922 0.0
N906 N 0.33718 0.32519 0.33179 0.0
C907 C 0.33561 0.31921 0.35481 0.0
C908 C 0.37457 0.33822 0.36841 0.0
C909 C 0.35426 0.3254 0.37335 0.0
Gd910 Gd 0.27641 0.26023 0.26591 0.0
Gd911 Gd 0.30579 0.32128 0.30154 0.0
N912 N 0.33901 0.33693 0.2858 0.0
C913 C 0.37908 0.36079 0.27289 0.0
C914 C 0.34035 0.33994 0.26176 0.0
C915 C 0.36025 0.35206 0.255 0.0
H916 H 0.3265 0.33262 0.24748 0.0
H917 H 0.36109 0.35452 0.23594 0.0
H918 H 0.25858 0.24034 0.31655 0.0
H919 H 0.31974 0.31073 0.35943 0.0
H920 H 0.22372 0.22009 0.32956 0.0
H921 H 0.39448 0.37015 0.26756 0.0
H922 H 0.41292 0.3732 0.31118 0.0
H923 H 0.26529 0.25733 0.20413 0.0
H924 H 0.38894 0.34321 0.3829 0.0
H925 H 0.35278 0.32075 0.39161 0.0
H926 H 0.17007 0.20364 0.2558 0.0
H927 H 0.41098 0.36319 0.35303 0.0
H928 H 0.19621 0.22352 0.18094 0.0
H929 H 0.23331 0.24229 0.17093 0.0
N930 N 0.24622 0.2488 0.23309 0.0
C931 C 0.22622 0.23766 0.23886 0.0
C932 C 0.24897 0.24991 0.20891 0.0
C933 C 0.21007 0.23056 0.1957 0.0
C934 C 0.23096 0.24114 0.18997 0.0
C935 C 0.20755 0.22842 0.22031 0.0
H936 H 0.17277 0.20939 0.21269 0.0
N937 N 0.24354 0.24154 0.28024 0.0
C938 C 0.22481 0.23401 0.26311 0.0
C939 C 0.20407 0.21709 0.29381 0.0
C940 C 0.20456 0.22157 0.26947 0.0
C941 C 0.24348 0.23574 0.30353 0.0
C942 C 0.2237 0.22404 0.31086 0.0
O943 O 0.33016 0.29796 0.29188 0.0
O944 O 0.3105 0.27737 0.25582 0.0
O945 O 0.28413 0.2278 0.27433 0.0
O946 O 0.28158 0.23606 0.23648 0.0
O947 O 0.29161 0.32514 0.26251 0.0
O948 O 0.27734 0.28804 0.24159 0.0
O949 O 0.25291 0.27729 0.28796 0.0
O950 O 0.26733 0.31591 0.28911 0.0
O951 O 0.31196 0.3583 0.30753 0.0
O952 O 0.29926 0.33877 0.3356 0.0
O953 O 0.29906 0.26354 0.30207 0.0
O954 O 0.29056 0.29409 0.3236 0.0
C955 C 0.32969 0.28469 0.2709 0.0
C956 C 0.28244 0.31054 0.24236 0.0
C957 C 0.28822 0.19902 0.24127 0.0
C958 C 0.29905 0.16386 0.24928 0.0
C959 C 0.28465 0.16837 0.20754 0.0
C960 C 0.28218 0.19028 0.21609 0.0
C961 C 0.29285 0.15505 0.22407 0.0
C962 C 0.29712 0.18607 0.25753 0.0
C963 C 0.28428 0.22112 0.25098 0.0
C964 C 0.18572 0.21324 0.25124 0.0
C965 C 0.18724 0.21655 0.2267 0.0
H966 H 0.18882 0.20769 0.29941 0.0
C967 C 0.2504 0.29865 0.29086 0.0
C968 C 0.29555 0.27396 0.32292 0.0
C969 C 0.28958 0.37422 0.334 0.0
C970 C 0.26621 0.39969 0.32044 0.0
C971 C 0.27206 0.39498 0.36372 0.0
C972 C 0.28568 0.37964 0.35836 0.0
C973 C 0.26246 0.40514 0.34488 0.0
C974 C 0.27957 0.38406 0.31506 0.0
C975 C 0.30474 0.35895 0.32891 0.0
H976 H 0.27986 0.16156 0.18817 0.0
H977 H 0.27522 0.20018 0.20317 0.0
H978 H 0.29405 0.13786 0.21717 0.0
H979 H 0.30257 0.19341 0.27672 0.0
H980 H 0.26915 0.39918 0.38253 0.0
H981 H 0.29333 0.37216 0.37322 0.0
H982 H 0.25215 0.41722 0.34935 0.0
H983 H 0.28272 0.38018 0.29625 0.0
C984 C 0.51348 0.58594 0.08445 0.0
C985 C 0.54682 0.61244 0.10732 0.0
C986 C 0.53628 0.59628 0.08656 0.0
C987 C 0.53427 0.61774 0.1261 0.0
C988 C 0.50082 0.5913 0.10325 0.0
C989 C 0.51136 0.60715 0.1241 0.0
N990 N 0.50367 0.5708 0.06395 0.0
C991 C 0.48113 0.56103 0.06073 0.0
C992 C 0.47787 0.58073 0.10041 0.0
C993 C 0.46798 0.5656 0.07902 0.0
Gd994 Gd 0.54629 0.50388 0.02649 0.0
Gd995 Gd 0.52734 0.56529 0.03425 0.0
N996 N 0.54818 0.59045 0.06836 0.0
C997 C 0.56966 0.62283 0.10852 0.0
C998 C 0.57011 0.60124 0.06888 0.0
C999 C 0.58128 0.61735 0.08913 0.0
H1000 H 0.57871 0.59794 0.05335 0.0
H1001 H 0.59872 0.62585 0.08968 0.0
H1002 H 0.4937 0.47284 0.00977 0.0
H1003 H 0.47303 0.55019 0.0438 0.0
H1004 H 0.47047 0.44853 0.97291 0.0
H1005 H 0.57837 0.63536 0.12413 0.0
H1006 H 0.54212 0.63004 0.14222 0.0
H1007 H 0.59995 0.51444 0.01518 0.0
H1008 H 0.46758 0.58438 0.11445 0.0
H1009 H 0.45014 0.55769 0.07645 0.0
H1010 H 0.52324 0.44354 0.91555 0.0
H1011 H 0.50189 0.61148 0.13871 0.0
H1012 H 0.6006 0.48186 0.94216 0.0
H1013 H 0.62087 0.50585 0.98086 0.0
N1014 N 0.56802 0.49661 0.99551 0.0
C1015 C 0.55655 0.48311 0.97455 0.0
C1016 C 0.59084 0.50451 0.9981 0.0
C1017 C 0.59127 0.48587 0.95701 0.0
C1018 C 0.60278 0.49944 0.97882 0.0
C1019 C 0.56791 0.47737 0.95472 0.0
H1020 H 0.56412 0.4586 0.91797 0.0
N1021 N 0.52278 0.48102 0.99237 0.0
C1022 C 0.53332 0.47499 0.97298 0.0
C1023 C 0.49804 0.45142 0.95153 0.0
C1024 C 0.5211 0.46039 0.95182 0.0
C1025 C 0.50089 0.47078 0.99303 0.0
C1026 C 0.48799 0.45633 0.97242 0.0
O1027 O 0.53784 0.55117 0.07011 0.0
O1028 O 0.56287 0.52878 0.06014 0.0
O1029 O 0.53495 0.47498 0.04655 0.0
O1030 O 0.56692 0.47933 0.03265 0.0
O1031 O 0.56009 0.56428 0.01915 0.0
O1032 O 0.57472 0.5355 0.03565 0.0
O1033 O 0.54024 0.52083 0.99202 0.0
O1034 O 0.51262 0.54035 0.99949 0.0
O1035 O 0.53785 0.59502 0.01431 0.0
O1036 O 0.50407 0.5862 0.02478 0.0
O1037 O 0.51444 0.50657 0.04326 0.0
O1038 O 0.50041 0.53318 0.0231 0.0
C1039 C 0.5529 0.53913 0.07644 0.0
C1040 C 0.57671 0.55401 0.02458 0.0
C1041 C 0.5622 0.45503 0.06394 0.0
C1042 C 0.55927 0.42215 0.08713 0.0
C1043 C 0.5948 0.45014 0.09084 0.0
C1044 C 0.58496 0.46258 0.07452 0.0
C1045 C 0.58211 0.43016 0.09712 0.0
C1046 C 0.54935 0.43459 0.07027 0.0
C1047 C 0.55276 0.46667 0.0441 0.0
C1048 C 0.53236 0.45472 0.93197 0.0
C1049 C 0.55567 0.46324 0.93339 0.0
H1050 H 0.48807 0.44003 0.93568 0.0
C1051 C 0.52412 0.53082 0.98424 0.0
C1052 C 0.49759 0.51548 0.03512 0.0
C1053 C 0.51115 0.62006 0.00467 0.0
C1054 C 0.51542 0.65176 0.97992 0.0
C1055 C 0.48468 0.64523 0.00428 0.0
C1056 C 0.492 0.62661 0.01247 0.0
C1057 C 0.49629 0.65774 0.98821 0.0
C1058 C 0.52292 0.63276 0.98813 0.0
C1059 C 0.51812 0.6001 0.01443 0.0
H1060 H 0.61245 0.4559 0.0985 0.0
H1061 H 0.59536 0.47786 0.06975 0.0
H1062 H 0.59023 0.42073 0.1097 0.0
H1063 H 0.53188 0.42831 0.06197 0.0
H1064 H 0.4699 0.65 0.01045 0.0
H1065 H 0.4826 0.61739 0.02513 0.0
H1066 H 0.49022 0.67212 0.98202 0.0
H1067 H 0.53764 0.62798 0.98177 0.0
C1068 C 0.73848 0.23435 0.32773 0.0
C1069 C 0.71027 0.20528 0.29985 0.0
C1070 C 0.7314 0.22094 0.30472 0.0
C1071 C 0.6954 0.20482 0.31742 0.0
C1072 C 0.7241 0.23249 0.34606 0.0
C1073 C 0.70224 0.21849 0.34042 0.0
N1074 N 0.76014 0.24699 0.33307 0.0
C1075 C 0.76911 0.25523 0.3572 0.0
C1076 C 0.73255 0.24356 0.37002 0.0
C1077 C 0.7553 0.25443 0.37574 0.0
Gd1078 Gd 0.78887 0.3161 0.26985 0.0
Gd1079 Gd 0.77979 0.24901 0.29832 0.0
N1080 N 0.74605 0.22154 0.28796 0.0
C1081 C 0.70529 0.18959 0.27809 0.0
C1082 C 0.74256 0.20441 0.26858 0.0
C1083 C 0.72183 0.18868 0.26277 0.0
H1084 H 0.75585 0.20278 0.2577 0.0
H1085 H 0.71879 0.17564 0.2468 0.0
H1086 H 0.81527 0.34881 0.32276 0.0
H1087 H 0.78695 0.26244 0.36251 0.0
H1088 H 0.85072 0.37773 0.33708 0.0
H1089 H 0.68929 0.17724 0.27374 0.0
H1090 H 0.67897 0.19316 0.31384 0.0
H1091 H 0.78142 0.31404 0.20699 0.0
H1092 H 0.72202 0.24257 0.38456 0.0
H1093 H 0.76236 0.2618 0.39457 0.0
H1094 H 0.88707 0.3836 0.26477 0.0
H1095 H 0.69093 0.21715 0.3542 0.0
H1096 H 0.84429 0.34734 0.18725 0.0
H1097 H 0.80491 0.32544 0.17508 0.0
N1098 N 0.80808 0.32711 0.23697 0.0
C1099 C 0.82901 0.34091 0.24417 0.0
C1100 C 0.79886 0.32295 0.21256 0.0
C1101 C 0.83423 0.34194 0.20136 0.0
C1102 C 0.81201 0.3296 0.19441 0.0
C1103 C 0.84273 0.34844 0.22645 0.0
H1104 H 0.87487 0.36877 0.22083 0.0
N1105 N 0.82208 0.34301 0.28595 0.0
C1106 C 0.83604 0.34929 0.26919 0.0
C1107 C 0.86215 0.37535 0.3015 0.0
C1108 C 0.85674 0.36532 0.27673 0.0
C1109 C 0.82683 0.35333 0.3099 0.0
C1110 C 0.84688 0.36975 0.31801 0.0
O1111 O 0.74666 0.25556 0.27723 0.0
O1112 O 0.75316 0.29328 0.26709 0.0
O1113 O 0.78139 0.34777 0.28654 0.0
O1114 O 0.76446 0.33117 0.25022 0.0
O1115 O 0.78496 0.26972 0.2683 0.0
O1116 O 0.78721 0.28934 0.23798 0.0
O1117 O 0.82103 0.30582 0.28848 0.0
O1118 O 0.81712 0.26941 0.3027 0.0
O1119 O 0.79685 0.2255 0.27872 0.0
O1120 O 0.78771 0.22068 0.31505 0.0
O1121 O 0.7757 0.29765 0.29996 0.0
O1122 O 0.79168 0.27957 0.32737 0.0
C1123 C 0.73946 0.27337 0.26904 0.0
C1124 C 0.785 0.26934 0.24471 0.0
C1125 C 0.76677 0.37053 0.25897 0.0
C1126 C 0.74686 0.40103 0.25409 0.0
C1127 C 0.77789 0.39786 0.23112 0.0
C1128 C 0.78087 0.37865 0.24204 0.0
C1129 C 0.76079 0.40889 0.2369 0.0
C1130 C 0.75003 0.38197 0.26526 0.0
C1131 C 0.76684 0.34845 0.26753 0.0
C1132 C 0.87097 0.37158 0.25923 0.0
C1133 C 0.86402 0.36311 0.23419 0.0
H1134 H 0.87781 0.38786 0.30791 0.0
C1135 C 0.82951 0.2893 0.2982 0.0
C1136 C 0.78671 0.29855 0.32176 0.0
C1137 C 0.81975 0.20853 0.30585 0.0
C1138 C 0.84182 0.17963 0.30937 0.0
C1139 C 0.85348 0.216 0.3362 0.0
C1140 C 0.83503 0.22321 0.32489 0.0
C1141 C 0.85684 0.19422 0.32857 0.0
C1142 C 0.82338 0.18686 0.29792 0.0
C1143 C 0.79811 0.21386 0.2973 0.0
H1144 H 0.78849 0.40388 0.21772 0.0
H1145 H 0.79364 0.36978 0.23672 0.0
H1146 H 0.75826 0.42339 0.22781 0.0
H1147 H 0.73873 0.37537 0.27787 0.0
H1148 H 0.86501 0.22719 0.35112 0.0
H1149 H 0.83221 0.23983 0.33164 0.0
H1150 H 0.87108 0.18872 0.33763 0.0
H1151 H 0.81139 0.17527 0.28361 0.0
C1152 C 0.0921 0.50356 0.5975 0.0
C1153 C 0.11422 0.537 0.62507 0.0
C1154 C 0.09547 0.52661 0.60708 0.0
C1155 C 0.1293 0.52391 0.63353 0.0
C1156 C 0.10751 0.49053 0.60559 0.0
C1157 C 0.12601 0.50079 0.62375 0.0
N1158 N 0.07401 0.49399 0.57998 0.0
C1159 C 0.07029 0.47154 0.56996 0.0
C1160 C 0.10394 0.46757 0.59511 0.0
C1161 C 0.08524 0.45805 0.57721 0.0
Gd1162 Gd 0.04058 0.54775 0.50115 0.0
Gd1163 Gd 0.04945 0.51784 0.57016 0.0
N1164 N 0.08103 0.53909 0.59786 0.0
C1165 C 0.11747 0.56034 0.63379 0.0
C1166 C 0.08436 0.56195 0.60609 0.0
C1167 C 0.10252 0.57286 0.62419 0.0
H1168 H 0.07332 0.57199 0.59865 0.0
H1169 H 0.10501 0.59097 0.63066 0.0
H1170 H 0.03162 0.50351 0.45435 0.0
H1171 H 0.05534 0.46378 0.55708 0.0
H1172 H 1.0022 0.4844 0.42006 0.0
H1173 H 0.1316 0.56891 0.6477 0.0
H1174 H 0.14374 0.5316 0.6474 0.0
H1175 H 0.03607 0.60222 0.50918 0.0
H1176 H 0.11543 0.45703 0.60079 0.0
H1177 H 0.08216 0.44023 0.56924 0.0
H1178 H 0.95058 0.53442 0.4165 0.0
H1179 H 0.13795 0.491 0.63026 0.0
H1180 H 0.97461 0.60768 0.46692 0.0
H1181 H 1.00895 0.62541 0.49675 0.0
N1182 N 0.01675 0.57138 0.48775 0.0
C1183 C 0.99893 0.56182 0.47019 0.0
C1184 C 0.02098 0.59418 0.49643 0.0
C1185 C 0.98635 0.59737 0.47255 0.0
C1186 C 1.00572 0.60744 0.48932 0.0
C1187 C 0.98304 0.5744 0.46226 0.0
H1188 H 0.95248 0.57325 0.43743 0.0
N1189 N 0.01497 0.52986 0.46525 0.0
C1190 C 0.99799 0.54023 0.45846 0.0
C1191 C 0.98207 0.5095 0.42505 0.0
C1192 C 0.98094 0.53028 0.4384 0.0
C1193 C 0.01711 0.51062 0.4509 0.0
C1194 C 1.00055 0.49991 0.43098 0.0
O1195 O 0.08273 0.53206 0.55956 0.0
O1196 O 0.0573 0.53932 0.53371 0.0
O1197 O 0.06701 0.54687 0.47848 0.0
O1198 O 0.06515 0.57895 0.49945 0.0
O1199 O 0.03933 0.55305 0.57241 0.0
O1200 O 0.03918 0.57139 0.53636 0.0
O1201 O 0.01215 0.535 0.52139 0.0
O1202 O 0.01892 0.50434 0.54116 0.0
O1203 O 0.02812 0.52386 0.59805 0.0
O1204 O 0.04011 0.4924 0.59394 0.0
O1205 O 0.04611 0.511 0.49651 0.0
O1206 O 0.04538 0.49333 0.5331 0.0
C1207 C 0.07851 0.54041 0.53982 0.0
C1208 C 0.03717 0.57065 0.56022 0.0
C1209 C 0.07415 0.57948 0.45885 0.0
C1210 C 0.08296 0.57762 0.41705 0.0
C1211 C 0.06341 0.60624 0.43238 0.0
C1212 C 0.0641 0.59806 0.45512 0.0
C1213 C 0.07284 0.5961 0.41336 0.0
C1214 C 0.08361 0.56943 0.43975 0.0
C1215 C 0.07362 0.56912 0.48165 0.0
C1216 C 0.964 0.54193 0.43161 0.0
C1217 C 0.96507 0.56402 0.44352 0.0
H1218 H 0.96936 0.5013 0.40949 0.0
C1219 C 1.00648 0.51389 0.52609 0.0
C1220 C 0.04641 0.49313 0.50879 0.0
C1221 C 1.00542 0.49077 0.60909 0.0
C1222 C 0.97489 0.48761 0.63384 0.0
C1223 C 0.97669 0.4555 0.60388 0.0
C1224 C 0.99626 0.46831 0.59718 0.0
C1225 C 0.96608 0.46503 0.62227 0.0
C1226 C 0.99449 0.50039 0.6271 0.0
C1227 C 0.0274 0.50378 0.60502 0.0
H1228 H 0.0556 0.62048 0.42951 0.0
H1229 H 0.05668 0.60619 0.46958 0.0
H1230 H 0.07239 0.60273 0.39586 0.0
H1231 H 0.0917 0.55532 0.44264 0.0
H1232 H 0.96979 0.43812 0.5949 0.0
H1233 H 1.00443 0.4605 0.58314 0.0
H1234 H 0.951 0.45483 0.62741 0.0
H1235 H 1.00183 0.51754 0.63667 0.0
C1236 C 0.736 0.81261 0.22101 0.0
C1237 C 0.71622 0.77787 0.19382 0.0
C1238 C 0.72906 0.78876 0.21657 0.0
C1239 C 0.70994 0.79116 0.17596 0.0
C1240 C 0.73013 0.82591 0.20284 0.0
C1241 C 0.71687 0.81508 0.18045 0.0
N1242 N 0.74885 0.82276 0.24282 0.0
C1243 C 0.75647 0.84599 0.24762 0.0
C1244 C 0.7379 0.84975 0.20761 0.0
C1245 C 0.7512 0.8598 0.23005 0.0
Gd1246 Gd 0.81378 0.77543 0.28178 0.0
Gd1247 Gd 0.75501 0.79799 0.27129 0.0
N1248 N 0.7357 0.77621 0.23402 0.0
C1249 C 0.71032 0.75391 0.18951 0.0
C1250 C 0.73006 0.75287 0.22982 0.0
C1251 C 0.71739 0.74138 0.20753 0.0
H1252 H 0.73575 0.74303 0.24321 0.0
H1253 H 0.71315 0.72284 0.20424 0.0
H1254 H 0.8504 0.82553 0.29678 0.0
H1255 H 0.76612 0.85398 0.26524 0.0
H1256 H 0.87624 0.84794 0.33325 0.0
H1257 H 0.70054 0.74493 0.17223 0.0
H1258 H 0.69993 0.78307 0.15847 0.0
H1259 H 0.80357 0.72064 0.2919 0.0
H1260 H 0.73376 0.86053 0.19409 0.0
H1261 H 0.75721 0.87821 0.23392 0.0
H1262 H 0.87391 0.79538 0.39287 0.0
H1263 H 0.71207 0.82505 0.16637 0.0
H1264 H 0.83149 0.71841 0.36632 0.0
H1265 H 0.80917 0.69865 0.32653 0.0
N1266 N 0.81996 0.75268 0.31279 0.0
C1267 C 0.83335 0.76361 0.33397 0.0
C1268 C 0.81204 0.72953 0.30966 0.0
C1269 C 0.82842 0.7282 0.35143 0.0
C1270 C 0.81575 0.71699 0.32904 0.0
C1271 C 0.83785 0.75171 0.35393 0.0
H1272 H 0.85566 0.75467 0.39097 0.0
N1273 N 0.83928 0.79726 0.31522 0.0
C1274 C 0.84354 0.78657 0.33513 0.0
C1275 C 0.86989 0.82087 0.35573 0.0
C1276 C 0.85862 0.79822 0.35615 0.0
C1277 C 0.85169 0.81847 0.31384 0.0
C1278 C 0.86677 0.83086 0.33425 0.0
O1279 O 0.77297 0.79046 0.23854 0.0
O1280 O 0.78845 0.76044 0.24786 0.0
O1281 O 0.84216 0.7852 0.26014 0.0
O1282 O 0.83476 0.75204 0.27324 0.0
O1283 O 0.75813 0.76814 0.29209 0.0
O1284 O 0.78155 0.74718 0.27553 0.0
O1285 O 0.80093 0.78947 0.31674 0.0
O1286 O 0.77779 0.8143 0.30641 0.0
O1287 O 0.72427 0.78451 0.28621 0.0
O1288 O 0.73139 0.81943 0.27912 0.0
O1289 O 0.81404 0.8094 0.26663 0.0
O1290 O 0.78619 0.82624 0.28148 0.0
C1291 C 0.7821 0.77323 0.23194 0.0
C1292 C 0.76266 0.74834 0.28456 0.0
C1293 C 0.86727 0.75811 0.25156 0.0
C1294 C 0.90044 0.76278 0.22933 0.0
C1295 C 0.88876 0.72835 0.24807 0.0
C1296 C 0.87093 0.73658 0.25627 0.0
C1297 C 0.90334 0.74125 0.23483 0.0
C1298 C 0.88236 0.77146 0.23809 0.0
C1299 C 0.84796 0.76571 0.26181 0.0
C1300 C 0.86252 0.78668 0.37645 0.0
C1301 C 0.85212 0.76348 0.37536 0.0
H1302 H 0.8817 0.83041 0.37146 0.0
C1303 C 0.79045 0.80604 0.32258 0.0
C1304 C 0.80584 0.82742 0.27355 0.0
C1305 C 0.70942 0.81102 0.31107 0.0
C1306 C 0.67868 0.81012 0.33616 0.0
C1307 C 0.7154 0.83552 0.35053 0.0
C1308 C 0.72356 0.82762 0.32932 0.0
C1309 C 0.69314 0.82689 0.35393 0.0
C1310 C 0.68688 0.80219 0.31462 0.0
C1311 C 0.71775 0.80377 0.2879 0.0
H1312 H 0.89132 0.71181 0.25207 0.0
H1313 H 0.86003 0.72591 0.26658 0.0
H1314 H 0.91717 0.73431 0.22892 0.0
H1315 H 0.87996 0.78811 0.23426 0.0
H1316 H 0.72635 0.84853 0.36433 0.0
H1317 H 0.74084 0.83471 0.32701 0.0
H1318 H 0.6871 0.83344 0.37041 0.0
H1319 H 0.67574 0.78949 0.3006 0.0
C1320 C 0.82337 0.24137 0.71269 0.0
C1321 C 0.79191 0.22253 0.68114 0.0
C1322 C 0.80181 0.24013 0.70081 0.0
C1323 C 0.804 0.20613 0.67369 0.0
C1324 C 0.83583 0.22534 0.7048 0.0
C1325 C 0.82594 0.20759 0.68542 0.0
N1326 N 0.83216 0.25828 0.73192 0.0
C1327 C 0.85392 0.26115 0.74289 0.0
C1328 C 0.85787 0.22768 0.71662 0.0
C1329 C 0.86704 0.24585 0.73552 0.0
Gd1330 Gd 0.77327 0.28098 0.81045 0.0
Gd1331 Gd 0.80804 0.28161 0.74468 0.0
N1332 N 0.79027 0.2558 0.70907 0.0
C1333 C 0.7701 0.22188 0.66966 0.0
C1334 C 0.76947 0.25593 0.69711 0.0
C1335 C 0.75899 0.23886 0.67746 0.0
H1336 H 0.76082 0.26908 0.70261 0.0
H1337 H 0.74234 0.23878 0.66833 0.0
H1338 H 0.81276 0.28952 0.86045 0.0
H1339 H 0.8612 0.27524 0.75742 0.0
H1340 H 0.83194 0.3213 0.89337 0.0
H1341 H 0.76185 0.20858 0.65457 0.0
H1342 H 0.79659 0.19235 0.65876 0.0
H1343 H 0.72166 0.2893 0.79263 0.0
H1344 H 0.86802 0.21574 0.71109 0.0
H1345 H 0.8842 0.24802 0.74451 0.0
H1346 H 0.78552 0.37647 0.88752 0.0
H1347 H 0.83516 0.19495 0.67932 0.0
H1348 H 0.71691 0.35407 0.82997 0.0
H1349 H 0.70038 0.31953 0.7994 0.0
N1350 N 0.7501 0.30672 0.81873 0.0
C1351 C 0.75898 0.32501 0.83634 0.0
C1352 C 0.72908 0.3043 0.80595 0.0
C1353 C 0.72632 0.34084 0.82709 0.0
C1354 C 0.71693 0.32137 0.80982 0.0
C1355 C 0.74753 0.34275 0.84082 0.0
H1356 H 0.74913 0.37555 0.8625 0.0
N1357 N 0.78929 0.30765 0.84581 0.0
C1358 C 0.77943 0.3256 0.85021 0.0
C1359 C 0.80874 0.34265 0.88433 0.0
C1360 C 0.78903 0.34382 0.8693 0.0
C1361 C 0.80702 0.30528 0.86193 0.0
C1362 C 0.81744 0.32298 0.88103 0.0
O1363 O 0.78899 0.24594 0.74592 0.0
O1364 O 0.78567 0.26625 0.77899 0.0
O1365 O 0.77462 0.25654 0.83608 0.0
O1366 O 0.74275 0.25654 0.81445 0.0
O1367 O 0.77292 0.29079 0.74303 0.0
O1368 O 0.75101 0.27539 0.7726 0.0
O1369 O 0.78344 0.31522 0.79815 0.0
O1370 O 0.81107 0.30368 0.78081 0.0
O1371 O 0.80553 0.30796 0.7213 0.0
O1372 O 0.8383 0.30341 0.73659 0.0
O1373 O 0.81021 0.27626 0.81664 0.0
O1374 O 0.82905 0.27691 0.781 0.0
C1375 C 0.78099 0.24617 0.76639 0.0
C1376 C 0.75345 0.28472 0.75192 0.0
C1377 C 0.7421 0.24526 0.85465 0.0
C1378 C 0.74372 0.23512 0.89633 0.0
C1379 C 0.71019 0.24545 0.87707 0.0
C1380 C 0.72018 0.24869 0.85581 0.0
C1381 C 0.72194 0.23887 0.89732 0.0
C1382 C 0.75365 0.23809 0.8749 0.0
C1383 C 0.75293 0.24829 0.83233 0.0
C1384 C 0.77826 0.36212 0.87318 0.0
C1385 C 0.75751 0.36157 0.85898 0.0
H1386 H 0.81673 0.3563 0.89918 0.0
C1387 C 0.79952 0.31926 0.78454 0.0
C1388 C 0.82807 0.27488 0.80493 0.0
C1389 C 0.83542 0.31708 0.698 0.0
C1390 C 0.83406 0.33528 0.66084 0.0
C1391 C 0.86023 0.31059 0.66784 0.0
C1392 C 0.85244 0.30664 0.69015 0.0
C1393 C 0.85102 0.32475 0.65315 0.0
C1394 C 0.82645 0.33152 0.68335 0.0
C1395 C 0.8273 0.31392 0.72171 0.0
H1396 H 0.69326 0.24797 0.87782 0.0
H1397 H 0.71072 0.25379 0.84034 0.0
H1398 H 0.71385 0.23622 0.91357 0.0
H1399 H 0.77038 0.23489 0.87409 0.0
H1400 H 0.87344 0.30268 0.66193 0.0
H1401 H 0.85981 0.29556 0.70123 0.0
H1402 H 0.85731 0.32771 0.63592 0.0
H1403 H 0.81336 0.33966 0.68935 0.0
C1404 C 0.85478 0.83126 0.82891 0.0
C1405 C 0.87622 0.85177 0.80069 0.0
C1406 C 0.8557 0.83904 0.80609 0.0
C1407 C 0.89572 0.85627 0.81822 0.0
C1408 C 0.87431 0.83612 0.84671 0.0
C1409 C 0.89475 0.84854 0.84119 0.0
N1410 N 0.83464 0.81966 0.83401 0.0
C1411 C 0.83283 0.81319 0.85678 0.0
C1412 C 0.8726 0.82891 0.86983 0.0
C1413 C 0.85174 0.81746 0.8749 0.0
Gd1414 Gd 0.77554 0.75873 0.76329 0.0
Gd1415 Gd 0.80337 0.81735 0.80397 0.0
N1416 N 0.83638 0.83506 0.78966 0.0
C1417 C 0.87635 0.86047 0.77822 0.0
C1418 C 0.83616 0.84518 0.76876 0.0
C1419 C 0.85616 0.85746 0.76239 0.0
H1420 H 0.82046 0.84508 0.75776 0.0
H1421 H 0.8559 0.86539 0.74578 0.0
H1422 H 0.75501 0.74082 0.81441 0.0
H1423 H 0.81664 0.80597 0.86151 0.0
H1424 H 0.71896 0.7227 0.82589 0.0
H1425 H 0.89173 0.87041 0.77343 0.0
H1426 H 0.91155 0.86616 0.81441 0.0
H1427 H 0.76449 0.76769 0.70442 0.0
H1428 H 0.88716 0.83254 0.88406 0.0
H1429 H 0.85007 0.81245 0.89299 0.0
H1430 H 0.66719 0.71104 0.75107 0.0
H1431 H 0.90986 0.85256 0.85471 0.0
H1432 H 0.69455 0.73834 0.67952 0.0
H1433 H 0.73188 0.75852 0.67132 0.0
N1434 N 0.74539 0.75472 0.73166 0.0
C1435 C 0.72502 0.74355 0.73661 0.0
C1436 C 0.74802 0.76007 0.70858 0.0
C1437 C 0.70865 0.74297 0.69434 0.0
C1438 C 0.72968 0.75445 0.68965 0.0
C1439 C 0.70611 0.73735 0.71799 0.0
H1440 H 0.67073 0.72038 0.70922 0.0
N1441 N 0.74165 0.74396 0.77797 0.0
C1442 C 0.72307 0.73807 0.76034 0.0
C1443 C 0.70057 0.72134 0.78979 0.0
C1444 C 0.70208 0.72652 0.76583 0.0
C1445 C 0.74034 0.73805 0.80104 0.0
C1446 C 0.7198 0.72715 0.80746 0.0
O1447 O 0.82833 0.79446 0.79452 0.0
O1448 O 0.81244 0.77135 0.75778 0.0
O1449 O 0.77731 0.724 0.76817 0.0
O1450 O 0.77386 0.73361 0.73142 0.0
O1451 O 0.7861 0.81797 0.76495 0.0
O1452 O 0.79215 0.78578 0.74258 0.0
O1453 O 0.75115 0.78241 0.771 0.0
O1454 O 0.76582 0.80484 0.80831 0.0
O1455 O 0.80226 0.85255 0.80183 0.0
O1456 O 0.80428 0.84062 0.83745 0.0
O1457 O 0.79387 0.7582 0.80148 0.0
O1458 O 0.78761 0.78971 0.82448 0.0
C1459 C 0.8303 0.78169 0.774 0.0
C1460 C 0.78843 0.80644 0.74394 0.0
C1461 C 0.79329 0.70438 0.73791 0.0
C1462 C 0.81197 0.67385 0.74633 0.0
C1463 C 0.82137 0.69537 0.71295 0.0
C1464 C 0.80577 0.70856 0.71835 0.0
C1465 C 0.82468 0.67816 0.72707 0.0
C1466 C 0.79625 0.68681 0.75148 0.0
C1467 C 0.77685 0.71768 0.74462 0.0
C1468 C 0.68333 0.72018 0.74723 0.0
C1469 C 0.68535 0.72551 0.72338 0.0
H1470 H 0.68476 0.71251 0.79471 0.0
C1471 C 0.7483 0.79463 0.79146 0.0
C1472 C 0.79207 0.76933 0.82285 0.0
C1473 C 0.78731 0.8721 0.83335 0.0
C1474 C 0.7635 0.89818 0.82314 0.0
C1475 C 0.77476 0.8949 0.86598 0.0
C1476 C 0.78689 0.87865 0.85857 0.0
C1477 C 0.76334 0.90495 0.84831 0.0
C1478 C 0.77519 0.88164 0.81577 0.0
C1479 C 0.80252 0.85769 0.82551 0.0
H1480 H 0.83101 0.6986 0.69793 0.0
H1481 H 0.80359 0.72195 0.70734 0.0
H1482 H 0.83701 0.66822 0.72299 0.0
H1483 H 0.78667 0.68356 0.76662 0.0
H1484 H 0.7747 0.90013 0.88542 0.0
H1485 H 0.79641 0.8717 0.87251 0.0
H1486 H 0.75456 0.91805 0.85421 0.0
H1487 H 0.7758 0.87723 0.79625 0.0
C1488 C 0.49136 0.46743 0.48665 0.0
C1489 C 0.47037 0.44544 0.51438 0.0
C1490 C 0.48225 0.46646 0.50875 0.0
C1491 C 0.46724 0.42548 0.49739 0.0
C1492 C 0.48769 0.44736 0.46938 0.0
C1493 C 0.47573 0.42647 0.47492 0.0
N1494 N 0.50268 0.48801 0.48149 0.0
C1495 C 0.50871 0.48972 0.45849 0.0
C1496 C 0.49538 0.44895 0.44656 0.0
C1497 C 0.50569 0.47026 0.44101 0.0
Gd1498 Gd 0.56461 0.54654 0.54005 0.0
Gd1499 Gd 0.50203 0.51966 0.5106 0.0
N1500 N 0.48504 0.4861 0.5248 0.0
C1501 C 0.46166 0.44514 0.53679 0.0
C1502 C 0.47583 0.48607 0.54622 0.0
C1503 C 0.46439 0.46554 0.55276 0.0
H1504 H 0.47693 0.5019 0.55803 0.0
H1505 H 0.45733 0.46553 0.56989 0.0
H1506 H 0.59166 0.56205 0.49307 0.0
H1507 H 0.51445 0.50606 0.4526 0.0
H1508 H 0.6126 0.59746 0.48051 0.0
H1509 H 0.4525 0.4293 0.54177 0.0
H1510 H 0.45796 0.40923 0.5013 0.0
H1511 H 0.55252 0.56195 0.59778 0.0
H1512 H 0.49264 0.43398 0.43274 0.0
H1513 H 0.5106 0.47185 0.42291 0.0
H1514 H 0.61412 0.65549 0.54816 0.0
H1515 H 0.47271 0.41097 0.46178 0.0
H1516 H 0.57826 0.63361 0.61702 0.0
H1517 H 0.55823 0.59665 0.62718 0.0
N1518 N 0.56552 0.57896 0.56876 0.0
C1519 C 0.57791 0.59895 0.5634 0.0
C1520 C 0.55924 0.57798 0.59175 0.0
C1521 C 0.57476 0.61846 0.60333 0.0
C1522 C 0.56329 0.59768 0.60906 0.0
C1523 C 0.58255 0.61925 0.58049 0.0
H1524 H 0.5993 0.6552 0.58771 0.0
N1525 N 0.58355 0.57907 0.52556 0.0
C1526 C 0.58709 0.59902 0.54129 0.0
C1527 C 0.60882 0.6189 0.51311 0.0
C1528 C 0.59999 0.61946 0.53546 0.0
C1529 C 0.59297 0.57822 0.50432 0.0
C1530 C 0.60533 0.59817 0.4975 0.0
O1531 O 0.52008 0.49603 0.53148 0.0
O1532 O 0.55822 0.50705 0.53023 0.0
O1533 O 0.60025 0.54813 0.54109 0.0
O1534 O 0.585 0.54496 0.57443 0.0
O1535 O 0.50491 0.53735 0.54967 0.0
O1536 O 0.53975 0.53157 0.56399 0.0
O1537 O 0.54667 0.57161 0.52078 0.0
O1538 O 0.50866 0.55856 0.52205 0.0
O1539 O 0.46647 0.51828 0.5115 0.0
O1540 O 0.47978 0.5193 0.47685 0.0
O1541 O 0.56072 0.52834 0.50122 0.0
O1542 O 0.52682 0.53608 0.48684 0.0
C1543 C 0.54031 0.49134 0.53296 0.0
C1544 C 0.5197 0.53457 0.5677 0.0
C1545 C 0.618 0.53083 0.57205 0.0
C1546 C 0.64872 0.51268 0.56401 0.0
C1547 C 0.63501 0.5119 0.60353 0.0
C1548 C 0.61927 0.52445 0.59588 0.0
C1549 C 0.64979 0.50603 0.58767 0.0
C1550 C 0.63262 0.52466 0.55625 0.0
C1551 C 0.60332 0.54594 0.56444 0.0
C1552 C 0.60405 0.63969 0.55223 0.0
C1553 C 0.59552 0.63955 0.57472 0.0
H1554 H 0.61874 0.63428 0.50797 0.0
C1555 C 0.52596 0.57513 0.51977 0.0
C1556 C 0.54692 0.53287 0.48334 0.0
C1557 C 0.44569 0.53136 0.47894 0.0
C1558 C 0.41891 0.55481 0.48674 0.0
C1559 C 0.42048 0.53882 0.44485 0.0
C1560 C 0.43775 0.52852 0.45354 0.0
C1561 C 0.41091 0.55185 0.46145 0.0
C1562 C 0.4363 0.54472 0.49548 0.0
C1563 C 0.46202 0.51838 0.48783 0.0
H1564 H 0.63603 0.50709 0.6219 0.0
H1565 H 0.60841 0.52946 0.60868 0.0
H1566 H 0.66226 0.49675 0.59399 0.0
H1567 H 0.63176 0.52949 0.53783 0.0
H1568 H 0.4143 0.53643 0.4253 0.0
H1569 H 0.4446 0.51795 0.44049 0.0
H1570 H 0.39728 0.55951 0.45465 0.0
H1571 H 0.44201 0.54686 0.51518 0.0
C1572 C 0.09165 0.58604 0.98872 0.0
C1573 C 0.11898 0.61006 0.022 0.0
C1574 C 0.10327 0.58935 0.01268 0.0
C1575 C 0.12286 0.62748 0.00711 0.0
C1576 C 0.09642 0.60325 0.97343 0.0
C1577 C 0.11174 0.62403 0.98286 0.0
N1578 N 0.07661 0.56579 0.98003 0.0
C1579 C 0.06801 0.56098 0.95539 0.0
C1580 C 0.08624 0.59887 0.9488 0.0
C1581 C 0.07234 0.57751 0.93967 0.0
Gd1582 Gd 1.00776 0.53624 0.03813 0.0
Gd1583 Gd 0.07198 0.53957 0.00915 0.0
N1584 N 0.09912 0.57235 0.02698 0.0
C1585 C 0.13056 0.61255 0.04597 0.0
C1586 C 0.11136 0.57411 0.04968 0.0
C1587 C 0.12693 0.59439 0.05975 0.0
H1588 H 0.10934 0.55974 0.05984 0.0
H1589 H 0.13628 0.5959 0.07802 0.0
H1590 H 0.96541 0.51207 0.99257 0.0
H1591 H 0.05841 0.54427 0.94705 0.0
H1592 H 0.93599 0.47631 0.98238 0.0
H1593 H 0.1427 0.62823 0.05379 0.0
H1594 H 0.13478 0.64354 0.01401 0.0
H1595 H 0.0259 0.54113 0.10098 0.0
H1596 H 0.08967 0.61155 0.93646 0.0
H1597 H 0.06526 0.57357 0.92033 0.0
H1598 H 0.94335 0.43869 0.05413 0.0
H1599 H 0.11539 0.63743 0.97139 0.0
H1600 H 0.9961 0.47813 0.12416 0.0
H1601 H 0.02197 0.51628 0.13303 0.0
N1602 N 1.00406 0.51655 0.07265 0.0
C1603 C 0.98854 0.49618 0.06786 0.0
C1604 C 0.01521 0.52422 0.09608 0.0
C1605 C 0.99804 0.4888 0.10963 0.0
C1606 C 0.01272 0.5103 0.11468 0.0
C1607 C 0.98535 0.4817 0.08622 0.0
H1608 H 0.96691 0.44941 0.09471 0.0
N1609 N 0.97816 0.5041 0.02724 0.0
C1610 C 0.9751 0.48997 0.04476 0.0
C1611 C 0.94453 0.46428 0.01687 0.0
C1612 C 0.95843 0.46938 0.03976 0.0
C1613 C 0.96392 0.49986 0.00549 0.0
C1614 C 0.94706 0.47978 0.99984 0.0
O1615 O 0.06379 0.57344 0.02789 0.0
O1616 O 0.02497 0.56646 0.01998 0.0
O1617 O 0.97909 0.5485 0.02225 0.0
O1618 O 0.99508 0.56111 0.06034 0.0
O1619 O 0.05995 0.52995 0.04475 0.0
O1620 O 0.03855 0.55073 0.06487 0.0
O1621 O 0.0146 0.50073 0.02454 0.0
O1622 O 0.05074 0.50302 0.01149 0.0
O1623 O 0.10224 0.52677 0.02169 0.0
O1624 O 0.09003 0.52584 0.9824 0.0
O1625 O 0.02883 0.53732 0.00907 0.0
O1626 O 0.04387 0.52699 0.97787 0.0
C1627 C 0.04469 0.5808 0.02822 0.0
C1628 C 0.05788 0.54513 0.06294 0.0
C1629 C 0.95647 0.56004 0.05106 0.0
C1630 C 0.92461 0.57761 0.05534 0.0
C1631 C 0.92792 0.54429 0.07531 0.0
C1632 C 0.94799 0.54363 0.06578 0.0
C1633 C 0.91634 0.56134 0.07031 0.0
C1634 C 0.94458 0.57679 0.04555 0.0
C1635 C 0.97853 0.56116 0.04299 0.0
C1636 C 0.95591 0.45468 0.05777 0.0
C1637 C 0.96934 0.4608 0.08088 0.0
H1638 H 0.93149 0.44867 0.0124 0.0
C1639 C 0.03097 0.49129 0.01653 0.0
C1640 C 0.02556 0.52924 0.98589 0.0
C1641 C 0.12376 0.51207 0.99062 0.0
C1642 C 0.15347 0.49112 0.99722 0.0
C1643 C 0.14628 0.50522 0.95814 0.0
C1644 C 0.12904 0.51439 0.96671 0.0
C1645 C 0.15848 0.4937 0.97329 0.0
C1646 C 0.13598 0.50029 0.00587 0.0
C1647 C 0.10505 0.5215 0.99878 0.0
H1648 H 0.9215 0.5318 0.08688 0.0
H1649 H 0.95711 0.53067 0.07029 0.0
H1650 H 0.90097 0.56188 0.07812 0.0
H1651 H 0.95126 0.58966 0.03443 0.0
H1652 H 0.15012 0.50698 0.93967 0.0
H1653 H 0.11981 0.5233 0.95454 0.0
H1654 H 0.17165 0.48644 0.96616 0.0
H1655 H 0.13191 0.49822 0.02424 0.0
H1656 H 1.00898 0.18838 0.95545 0.0
H1657 H 0.02027 0.22432 0.03018 0.0
H1658 H 0.02799 0.18988 0.04631 0.0
H1659 H 0.98009 0.1339 0.97041 0.0
H1660 H 0.99222 0.11626 0.94954 0.0
H1661 H 0.9891 0.14414 0.94286 0.0
H1662 H 0.03173 0.15564 0.94002 0.0
H1663 H 0.03492 0.12773 0.9466 0.0
H1664 H 0.05195 0.15314 0.96555 0.0
H1665 H 0.03386 0.15156 0.05552 0.0
H1666 H 0.03619 0.11156 0.05722 0.0
H1667 H 0.02025 0.09697 0.97738 0.0
C1668 C 0.01348 0.18911 0.97516 0.0
C1669 C 0.0142 0.20968 0.99144 0.0
C1670 C 0.01963 0.20925 0.01714 0.0
C1671 C 0.02409 0.18959 0.02659 0.0
C1672 C 0.02292 0.16972 0.01035 0.0
C1673 C 0.01771 0.16914 0.98514 0.0
C1674 C 0.01676 0.14484 0.97221 0.0
C1675 C 0.99313 0.13415 0.9579 0.0
C1676 C 0.03491 0.14537 0.95507 0.0
C1677 C 0.02195 0.13202 0.99409 0.0
C1678 C 0.0257 0.14701 0.01582 0.0
C1679 C 0.03096 0.13974 0.03856 0.0
C1680 C 0.03238 0.11677 0.03932 0.0
C1681 C 0.02859 0.10059 0.01758 0.0
C1682 C 0.02318 0.10857 0.99452 0.0
H1683 H 0.12464 0.76286 0.17785 0.0
H1684 H 0.14519 0.82516 0.14593 0.0
H1685 H 0.18389 0.83047 0.16841 0.0
H1686 H 0.15608 0.78148 0.23763 0.0
H1687 H 0.16362 0.75449 0.24108 0.0
H1688 H 0.138 0.75511 0.22168 0.0
H1689 H 0.15098 0.73313 0.18479 0.0
H1690 H 0.17661 0.73234 0.20414 0.0
H1691 H 0.178 0.74435 0.17569 0.0
H1692 H 0.2212 0.82841 0.19461 0.0
H1693 H 0.25221 0.82052 0.22284 0.0
H1694 H 0.207 0.76071 0.23984 0.0
C1695 C 0.13722 0.77768 0.17549 0.0
C1696 C 0.13155 0.79366 0.15998 0.0
C1697 C 0.14884 0.81264 0.15754 0.0
C1698 C 0.17097 0.81578 0.1703 0.0
C1699 C 0.17584 0.79976 0.18551 0.0
C1700 C 0.15938 0.78105 0.18809 0.0
C1701 C 0.16885 0.76634 0.20562 0.0
C1702 C 0.15586 0.76424 0.22782 0.0
C1703 C 0.16858 0.74263 0.19174 0.0
C1704 C 0.19296 0.78013 0.21348 0.0
C1705 C 0.19682 0.79906 0.20116 0.0
C1706 C 0.21813 0.81376 0.20445 0.0
C1707 C 0.23573 0.80913 0.22067 0.0
C1708 C 0.23215 0.79027 0.23417 0.0
C1709 C 0.2103 0.77559 0.23037 0.0
H1710 H 0.53803 0.86481 0.45098 0.0
H1711 H 0.49981 0.83618 0.50596 0.0
H1712 H 0.49967 0.87564 0.52497 0.0
H1713 H 0.57266 0.91348 0.49376 0.0
H1714 H 0.57394 0.9329 0.47125 0.0
H1715 H 0.57138 0.9028 0.46155 0.0
H1716 H 0.53544 0.90102 0.43121 0.0
H1717 H 0.53816 0.93131 0.43981 0.0
H1718 H 0.5123 0.91149 0.44224 0.0
H1719 H 0.50249 0.91986 0.53668 0.0
H1720 H 0.51019 0.96197 0.54166 0.0
H1721 H 0.54743 0.96212 0.47948 0.0
C1722 C 0.52972 0.86672 0.46716 0.0
C1723 C 0.51892 0.84697 0.47684 0.0
C1724 C 0.50843 0.85069 0.49817 0.0
C1725 C 0.50815 0.8732 0.50901 0.0
C1726 C 0.51869 0.89217 0.49867 0.0
C1727 C 0.52958 0.88903 0.47839 0.0
C1728 C 0.54033 0.91208 0.47113 0.0
C1729 C 0.56613 0.91547 0.4746 0.0
C1730 C 0.531 0.91408 0.44451 0.0
C1731 C 0.53311 0.92892 0.48971 0.0
C1732 C 0.52069 0.91709 0.50555 0.0
C1733 C 0.51216 0.92899 0.52419 0.0
C1734 C 0.51639 0.9532 0.5267 0.0
C1735 C 0.529 0.96597 0.51075 0.0
C1736 C 0.53761 0.9533 0.49207 0.0
H1737 H 0.48846 0.25646 0.63713 0.0
H1738 H 0.52455 0.3252 0.66873 0.0
H1739 H 0.49394 0.32855 0.69402 0.0
H1740 H 0.43208 0.2648 0.63372 0.0
H1741 H 0.42088 0.23738 0.64284 0.0
H1742 H 0.44521 0.24106 0.62693 0.0
H1743 H 0.4681 0.22713 0.66256 0.0
H1744 H 0.44371 0.223 0.67833 0.0
H1745 H 0.47006 0.24098 0.69375 0.0
H1746 H 0.45833 0.32306 0.71718 0.0
H1747 H 0.42517 0.30804 0.73761 0.0
H1748 H 0.41325 0.24354 0.68934 0.0
C1749 C 0.48994 0.27231 0.64925 0.0
C1750 C 0.50892 0.2906 0.65079 0.0
C1751 C 0.51025 0.31088 0.66727 0.0
C1752 C 0.49282 0.31298 0.68158 0.0
C1753 C 0.4742 0.29458 0.67942 0.0
C1754 C 0.47294 0.27455 0.6638 0.0
C1755 C 0.45217 0.25659 0.66574 0.0
C1756 C 0.43667 0.24956 0.64082 0.0
C1757 C 0.45891 0.2357 0.67568 0.0
C1758 C 0.44149 0.26963 0.68445 0.0
C1759 C 0.45432 0.29152 0.69235 0.0
C1760 C 0.44818 0.30597 0.7109 0.0
C1761 C 0.42914 0.29742 0.72226 0.0
C1762 C 0.41648 0.27463 0.71506 0.0
C1763 C 0.42243 0.26109 0.69522 0.0
H1764 H 0.03441 0.84051 0.69292 0.0
H1765 H 0.02423 0.78294 0.63477 0.0
H1766 H 0.02654 0.8097 0.60361 0.0
H1767 H 1.00233 0.87469 0.65814 0.0
H1768 H 0.02141 0.90131 0.67169 0.0
H1769 H 0.01719 0.87744 0.68895 0.0
H1770 H 0.06029 0.87937 0.69516 0.0
H1771 H 0.06464 0.90335 0.67821 0.0
H1772 H 0.07485 0.87823 0.66854 0.0
H1773 H 0.03224 0.84415 0.57882 0.0
H1774 H 0.04301 0.88194 0.56418 0.0
H1775 H 0.04936 0.91586 0.63909 0.0
C1776 C 0.03246 0.83341 0.67363 0.0
C1777 C 0.02912 0.80954 0.66639 0.0
C1778 C 0.02676 0.80113 0.64087 0.0
C1779 C 0.02797 0.81622 0.623 0.0
C1780 C 0.0314 0.83971 0.63087 0.0
C1781 C 0.03358 0.84816 0.65566 0.0
C1782 C 0.03819 0.87405 0.65971 0.0
C1783 C 0.01862 0.88236 0.67025 0.0
C1784 C 0.06084 0.88434 0.67638 0.0
C1785 C 0.03918 0.87905 0.63351 0.0
C1786 C 0.0348 0.85912 0.61693 0.0
C1787 C 0.03555 0.8598 0.59172 0.0
C1788 C 0.04156 0.88132 0.58351 0.0
C1789 C 0.04706 0.9018 0.60054 0.0
C1790 C 0.04527 0.90049 0.62568 0.0
H1791 H 0.4629 0.79176 0.78515 0.0
H1792 H 0.47761 0.81825 0.86316 0.0
H1793 H 0.43723 0.81865 0.86366 0.0
H1794 H 0.42121 0.82714 0.77063 0.0
H1795 H 0.40344 0.80513 0.74766 0.0
H1796 H 0.43339 0.80672 0.75335 0.0
H1797 H 0.42557 0.7646 0.76176 0.0
H1798 H 0.39563 0.76297 0.75617 0.0
H1799 H 0.40817 0.75626 0.78491 0.0
H1800 H 0.39359 0.80988 0.85674 0.0
H1801 H 0.35281 0.80091 0.84194 0.0
H1802 H 0.36573 0.78811 0.76665 0.0
C1803 C 0.45771 0.79802 0.80229 0.0
C1804 C 0.47388 0.80506 0.8242 0.0
C1805 C 0.46601 0.813 0.84609 0.0
C1806 C 0.4429 0.81311 0.84656 0.0
C1807 C 0.42749 0.80584 0.8248 0.0
C1808 C 0.4347 0.79908 0.80286 0.0
C1809 C 0.41468 0.79293 0.7819 0.0
C1810 C 0.41841 0.80893 0.76221 0.0
C1811 C 0.41079 0.76769 0.77051 0.0
C1812 C 0.39503 0.79698 0.79543 0.0
C1813 C 0.40282 0.80384 0.82032 0.0
C1814 C 0.38765 0.80575 0.83713 0.0
C1815 C 0.36428 0.80105 0.82842 0.0
C1816 C 0.35572 0.79589 0.80284 0.0
C1817 C 0.37157 0.79348 0.78616 0.0
H1818 H 0.53573 0.17054 0.17226 0.0
H1819 H 0.51457 0.20867 0.11505 0.0
H1820 H 0.51112 0.1751 0.08366 0.0
H1821 H 0.5701 0.14243 0.1372 0.0
H1822 H 0.56314 0.11525 0.14847 0.0
H1823 H 0.56169 0.14117 0.16742 0.0
H1824 H 0.52004 0.12402 0.17124 0.0
H1825 H 0.52142 0.09795 0.15245 0.0
H1826 H 0.5 0.11322 0.14367 0.0
H1827 H 0.51026 0.13836 0.0582 0.0
H1828 H 0.51482 0.10121 0.03925 0.0
H1829 H 0.53924 0.08559 0.1109 0.0
C1830 C 0.52978 0.17149 0.1532 0.0
C1831 C 0.52484 0.19217 0.14618 0.0
C1832 C 0.518 0.193 0.12093 0.0
C1833 C 0.51602 0.17398 0.10293 0.0
C1834 C 0.52119 0.15402 0.11024 0.0
C1835 C 0.528 0.15251 0.1347 0.0
C1836 C 0.53388 0.12922 0.13687 0.0
C1837 C 0.55868 0.1322 0.14816 0.0
C1838 C 0.51788 0.11527 0.15196 0.0
C1839 C 0.52977 0.11825 0.10981 0.0
C1840 C 0.52212 0.13293 0.09503 0.0
C1841 C 0.51674 0.12698 0.06959 0.0
C1842 C 0.51983 0.10588 0.05881 0.0
C1843 C 0.52889 0.09076 0.0729 0.0
C1844 C 0.53314 0.09682 0.09911 0.0
H1845 H 0.13106 0.28271 0.34724 0.0
H1846 H 0.11428 0.33636 0.30733 0.0
H1847 H 0.15073 0.34009 0.29054 0.0
H1848 H 0.19099 0.30732 0.36294 0.0
H1849 H 0.19901 0.28011 0.35944 0.0
H1850 H 0.17183 0.28182 0.36813 0.0
H1851 H 0.15219 0.25127 0.33087 0.0
H1852 H 0.17938 0.24945 0.32234 0.0
H1853 H 0.15817 0.25576 0.30026 0.0
H1854 H 0.19199 0.33922 0.27984 0.0
H1855 H 0.2295 0.33166 0.27388 0.0
H1856 H 0.21833 0.27651 0.3182 0.0
C1857 C 0.13482 0.29527 0.33487 0.0
C1858 C 0.11916 0.30931 0.32888 0.0
C1859 C 0.12544 0.32534 0.31249 0.0
C1860 C 0.14636 0.32759 0.30284 0.0
C1861 C 0.16132 0.31363 0.30938 0.0
C1862 C 0.15556 0.29757 0.3249 0.0
C1863 C 0.17437 0.28444 0.32913 0.0
C1864 C 0.18465 0.28866 0.35653 0.0
C1865 C 0.16548 0.2587 0.3201 0.0
C1866 C 0.19158 0.29522 0.31332 0.0
C1867 C 0.18398 0.31238 0.30243 0.0
C1868 C 0.19768 0.32559 0.28817 0.0
C1869 C 0.21921 0.3212 0.28489 0.0
C1870 C 0.22728 0.30329 0.2952 0.0
C1871 C 0.21289 0.29012 0.3096 0.0
H1872 H 0.9543 0.03576 0.18757 0.0
H1873 H 1.00417 1.00214 0.22115 0.0
H1874 H 0.02197 1.00195 0.18361 0.0
H1875 H 0.94879 0.00632 0.12511 0.0
H1876 H 0.94703 0.03109 0.11007 0.0
H1877 H 0.93736 0.0289 0.13959 0.0
H1878 H 0.96413 0.06795 0.15762 0.0
H1879 H 0.97378 0.07021 0.1281 0.0
H1880 H 0.99383 0.07207 0.15536 0.0
H1881 H 0.03448 1.00441 0.14402 0.0
H1882 H 0.04301 0.01082 0.10313 0.0
H1883 H 0.98626 0.04362 0.09179 0.0
C1884 C 0.96895 0.02836 0.18693 0.0
C1885 C 0.97776 0.01886 0.20746 0.0
C1886 C 0.99705 0.00952 0.20589 0.0
C1887 C 1.00731 0.00928 0.18455 0.0
C1888 C 0.99828 0.01858 0.16476 0.0
C1889 C 0.9797 0.02814 0.16556 0.0
C1890 C 0.97413 0.03734 0.14134 0.0
C1891 C 0.95041 0.02518 0.12826 0.0
C1892 C 0.97661 0.06345 0.14588 0.0
C1893 C 0.99234 0.03103 0.1269 0.0
C1894 C 1.00592 0.02026 0.1411 0.0
C1895 C 0.02399 0.0128 0.13267 0.0
C1896 C 0.02861 0.01654 0.10915 0.0
C1897 C 0.01525 0.02761 0.09379 0.0
C1898 C 0.99669 0.03493 0.10285 0.0
H1899 H 0.26778 0.63836 0.48124 0.0
H1900 H 0.25856 0.69085 0.53724 0.0
H1901 H 0.26556 0.71959 0.5089 0.0
H1902 H 0.3096 0.67744 0.4495 0.0
H1903 H 0.2967 0.66259 0.41936 0.0
H1904 H 0.29724 0.64717 0.44559 0.0
H1905 H 0.25366 0.63296 0.437 0.0
H1906 H 0.25323 0.64766 0.41047 0.0
H1907 H 0.23631 0.65364 0.43408 0.0
H1908 H 0.26805 0.74111 0.47404 0.0
H1909 H 0.25726 0.75176 0.43305 0.0
H1910 H 0.26173 0.68511 0.3982 0.0
C1911 C 0.26781 0.65606 0.48754 0.0
C1912 C 0.26285 0.66265 0.51124 0.0
C1913 C 0.26233 0.68566 0.51898 0.0
C1914 C 0.26669 0.70212 0.50321 0.0
C1915 C 0.27135 0.69519 0.47974 0.0
C1916 C 0.27154 0.67261 0.47172 0.0
C1917 C 0.27255 0.66879 0.44429 0.0
C1918 C 0.29538 0.6637 0.4394 0.0
C1919 C 0.25275 0.64965 0.43069 0.0
C1920 C 0.27057 0.69212 0.43782 0.0
C1921 C 0.2714 0.70748 0.45877 0.0
C1922 C 0.2677 0.72941 0.4575 0.0
C1923 C 0.26152 0.73529 0.43426 0.0
C1924 C 0.25857 0.71902 0.41293 0.0
C1925 C 0.26413 0.69768 0.41452 0.0
H1926 H 0.63811 0.08201 0.6912 0.0
H1927 H 0.65229 0.01396 0.68267 0.0
H1928 H 0.63056 0.00552 0.64116 0.0
H1929 H 0.58238 0.06691 0.66297 0.0
H1930 H 0.58333 0.09155 0.64699 0.0
H1931 H 0.60207 0.09356 0.67524 0.0
H1932 H 0.63653 0.10724 0.65283 0.0
H1933 H 0.61774 0.10524 0.62451 0.0
H1934 H 0.64017 0.08999 0.62528 0.0
H1935 H 0.60656 1.00332 0.60263 0.0
H1936 H 0.57895 0.00693 0.56806 0.0
H1937 H 0.57884 0.07576 0.6015 0.0
C1938 C 0.63662 0.0654 0.6805 0.0
C1939 C 0.64673 0.04863 0.6899 0.0
C1940 C 0.64469 0.02708 0.67555 0.0
C1941 C 0.63253 0.02214 0.65198 0.0
C1942 C 0.62282 0.03903 0.64315 0.0
C1943 C 0.62467 0.06022 0.65678 0.0
C1944 C 0.61151 0.07474 0.64312 0.0
C1945 C 0.59376 0.0821 0.65797 0.0
C1946 C 0.62744 0.09553 0.63603 0.0
C1947 C 0.60078 0.05769 0.62063 0.0
C1948 C 0.6082 0.03753 0.62072 0.0
C1949 C 0.60072 0.01905 0.6021 0.0
C1950 C 0.58508 0.02127 0.58268 0.0
C1951 C 0.57705 0.04165 0.58255 0.0
C1952 C 0.58483 0.06004 0.60164 0.0
H1953 H 0.32288 0.33024 0.97124 0.0
H1954 H 0.27258 0.37162 0.97202 0.0
H1955 H 0.26265 0.36153 0.9269 0.0
H1956 H 0.34209 0.3439 0.91656 0.0
H1957 H 0.34519 0.31584 0.90473 0.0
H1958 H 0.34754 0.32408 0.93751 0.0
H1959 H 0.31592 0.28926 0.94094 0.0
H1960 H 0.3139 0.2802 0.90826 0.0
H1961 H 0.28915 0.28445 0.92138 0.0
H1962 H 0.26196 0.35177 0.88166 0.0
H1963 H 0.26616 0.33802 0.83923 0.0
H1964 H 0.31334 0.2988 0.86648 0.0
C1965 C 0.30946 0.33679 0.96196 0.0
C1966 C 0.29854 0.35178 0.97528 0.0
C1967 C 0.28112 0.36002 0.96238 0.0
C1968 C 0.2754 0.35446 0.93668 0.0
C1969 C 0.28687 0.34019 0.92406 0.0
C1970 C 0.3031 0.33093 0.93625 0.0
C1971 C 0.31294 0.3162 0.918 0.0
C1972 C 0.33846 0.32557 0.9193 0.0
C1973 C 0.30766 0.29103 0.92241 0.0
C1974 C 0.30016 0.31921 0.89363 0.0
C1975 C 0.28538 0.3333 0.89771 0.0
C1976 C 0.27298 0.34017 0.8783 0.0
C1977 C 0.27539 0.33213 0.85413 0.0
C1978 C 0.28954 0.31677 0.84914 0.0
C1979 C 0.30219 0.3103 0.86938 0.0
H1980 H 0.96594 0.98689 0.34645 0.0
H1981 H 0.98345 0.05736 0.33233 0.0
H1982 H 1.00231 0.06905 0.37558 0.0
H1983 H 0.95305 0.99858 0.40731 0.0
H1984 H 0.96491 0.97611 0.4188 0.0
H1985 H 0.95361 0.97332 0.38665 0.0
H1986 H 0.99206 0.96774 0.37363 0.0
H1987 H 1.00218 0.96925 0.40583 0.0
H1988 H 0.01759 0.98817 0.38749 0.0
H1989 H 0.02039 0.07248 0.42046 0.0
H1990 H 0.03465 0.06781 0.46289 0.0
H1991 H 1.00205 0.99562 0.44829 0.0
C1992 C 0.97384 1.0048 0.3523 0.0
C1993 C 0.97334 0.02118 0.33584 0.0
C1994 C 0.98375 0.04445 0.34448 0.0
C1995 C 0.99446 0.05125 0.36904 0.0
C1996 C 0.99448 0.0346 0.38477 0.0
C1997 C 0.98435 0.01188 0.3767 0.0
C1998 C 0.98644 0.9973 0.39717 0.0
C1999 C 0.9631 0.98565 0.40281 0.0
C2000 C 1.00043 0.97959 0.39062 0.0
C2001 C 0.99904 0.01536 0.41829 0.0
C2002 C 1.00385 0.03673 0.41068 0.0
C2003 C 0.0164 0.05587 0.42662 0.0
C2004 C 0.02429 0.05306 0.45083 0.0
C2005 C 0.01911 0.03142 0.45923 0.0
C2006 C 1.00618 0.0124 0.44263 0.0
H2007 H 0.25987 0.66565 0.62897 0.0
H2008 H 0.31448 0.70633 0.59839 0.0
H2009 H 0.32226 0.73513 0.6357 0.0
H2010 H 0.23903 0.71253 0.65598 0.0
H2011 H 0.23253 0.69954 0.68297 0.0
H2012 H 0.23181 0.68176 0.65423 0.0
H2013 H 0.26008 0.66103 0.67599 0.0
H2014 H 0.26106 0.67902 0.70472 0.0
H2015 H 0.28676 0.67761 0.69223 0.0
H2016 H 0.32684 0.75692 0.67836 0.0
H2017 H 0.32285 0.77418 0.72029 0.0
H2018 H 0.2609 0.72349 0.71823 0.0
C2019 C 0.27339 0.68067 0.63011 0.0
C2020 C 0.28674 0.68377 0.61105 0.0
C2021 C 0.30412 0.7037 0.61293 0.0
C2022 C 0.30876 0.72004 0.63405 0.0
C2023 C 0.2956 0.71626 0.65277 0.0
C2024 C 0.27796 0.69734 0.65079 0.0
C2025 C 0.26586 0.69776 0.67316 0.0
C2026 C 0.24083 0.69793 0.66615 0.0
C2027 C 0.26861 0.67766 0.68735 0.0
C2028 C 0.27905 0.72023 0.68758 0.0
C2029 C 0.29674 0.73015 0.67608 0.0
C2030 C 0.31272 0.74967 0.6873 0.0
C2031 C 0.31031 0.75936 0.71089 0.0
C2032 C 0.2915 0.75011 0.72206 0.0
C2033 C 0.27561 0.73055 0.71021 0.0
H2034 H 0.63809 0.03284 0.80173 0.0
H2035 H 0.6951 0.08978 0.82758 0.0
H2036 H 0.68417 0.09208 0.86921 0.0
H2037 H 0.60021 0.05577 0.82764 0.0
H2038 H 0.5839 0.03025 0.83658 0.0
H2039 H 0.59985 0.0279 0.81148 0.0
H2040 H 0.62032 1.00053 0.8335 0.0
H2041 H 0.60457 1.0032 0.85901 0.0
H2042 H 0.63498 0.00964 0.86448 0.0
H2043 H 0.66513 0.09294 0.90469 0.0
H2044 H 0.63501 0.09802 0.92942 0.0
H2045 H 0.58775 0.04342 0.88028 0.0
C2046 C 0.64851 0.04522 0.81653 0.0
C2047 C 0.66749 0.06094 0.812 0.0
C2048 C 0.68053 0.07758 0.8311 0.0
C2049 C 0.6747 0.0787 0.85481 0.0
C2050 C 0.65568 0.06321 0.85889 0.0
C2051 C 0.64249 0.04698 0.84022 0.0
C2052 C 0.62042 0.03589 0.84812 0.0
C2053 C 0.59991 0.03761 0.82988 0.0
C2054 C 0.62006 0.01083 0.85149 0.0
C2055 C 0.62217 0.05056 0.87276 0.0
C2056 C 0.64335 0.06492 0.87935 0.0
C2057 C 0.64861 0.08159 0.90006 0.0
C2058 C 0.63145 0.08452 0.9138 0.0
C2059 C 0.60938 0.07131 0.90619 0.0
C2060 C 0.60473 0.05361 0.8861 0.0
H2061 H 0.31549 0.37846 0.12863 0.0
H2062 H 0.27468 0.31722 0.08266 0.0
H2063 H 0.26287 0.3018 0.11964 0.0
H2064 H 0.33573 0.34902 0.17746 0.0
H2065 H 0.33488 0.37091 0.20228 0.0
H2066 H 0.33923 0.3785 0.17223 0.0
H2067 H 0.30492 0.39755 0.17157 0.0
H2068 H 0.30031 0.38963 0.2015 0.0
H2069 H 0.27788 0.38097 0.1758 0.0
H2070 H 0.25108 0.29532 0.16016 0.0
H2071 H 0.24982 0.2912 0.20381 0.0
H2072 H 0.3039 0.35135 0.2257 0.0
C2073 C 0.30409 0.3618 0.12643 0.0
C2074 C 0.29576 0.34917 0.10258 0.0
C2075 C 0.28118 0.32731 0.10056 0.0
C2076 C 0.27417 0.31846 0.12148 0.0
C2077 C 0.28216 0.33143 0.14452 0.0
C2078 C 0.29735 0.35228 0.1474 0.0
C2079 C 0.30446 0.36154 0.1748 0.0
C2080 C 0.3301 0.36519 0.18211 0.0
C2081 C 0.29642 0.38375 0.1813 0.0
C2082 C 0.29154 0.34214 0.18662 0.0
C2083 C 0.27797 0.32567 0.16858 0.0
C2084 C 0.26264 0.30734 0.1744 0.0
C2085 C 0.26242 0.30474 0.19924 0.0
C2086 C 0.27857 0.31904 0.21803 0.0
C2087 C 0.29234 0.33905 0.21177 0.0
H2088 H 0.22856 0.93954 0.00514 0.0
H2089 H 0.25047 0.99369 0.96208 0.0
H2090 H 0.22218 0.0141 0.97697 0.0
H2091 H 0.16844 0.94113 0.00334 0.0
H2092 H 0.1691 0.93749 0.03546 0.0
H2093 H 0.18729 0.92514 0.01712 0.0
H2094 H 0.22194 0.9465 0.04897 0.0
H2095 H 0.204 0.95935 0.06714 0.0
H2096 H 0.22721 0.97723 0.05627 0.0
H2097 H 0.19568 0.03057 0.00093 0.0
H2098 H 0.17208 0.04194 0.03135 0.0
H2099 H 0.16928 0.97733 0.06011 0.0
C2100 C 0.22647 0.95507 0.99785 0.0
C2101 C 0.24072 0.96477 0.98177 0.0
C2102 C 0.23893 0.98585 0.97379 0.0
C2103 C 0.2231 0.99751 0.98225 0.0
C2104 C 0.20983 0.98792 0.99901 0.0
C2105 C 0.21142 0.96718 0.00675 0.0
C2106 C 0.19811 0.96227 0.02767 0.0
C2107 C 0.17962 0.9402 0.02045 0.0
C2108 C 0.21375 0.96128 0.0514 0.0
C2109 C 0.18833 0.98323 0.03021 0.0
C2110 C 0.19532 0.99786 0.01361 0.0
C2111 C 0.18971 0.01907 0.01368 0.0
C2112 C 0.17631 0.02532 0.031 0.0
C2113 C 0.16865 0.01033 0.04787 0.0
C2114 C 0.17488 0.98911 0.04747 0.0
H2115 H 0.69426 0.64305 0.05447 0.0
H2116 H 0.7055 0.62512 0.97914 0.0
H2117 H 0.66896 0.59658 0.97126 0.0
H2118 H 0.66996 0.58627 0.06508 0.0
H2119 H 0.65007 0.59549 0.08346 0.0
H2120 H 0.67673 0.61458 0.08256 0.0
H2121 H 0.65593 0.64539 0.06826 0.0
H2122 H 0.62943 0.62634 0.06955 0.0
H2123 H 0.63457 0.63781 0.04142 0.0
H2124 H 0.6295 0.57199 0.97138 0.0
H2125 H 0.59256 0.5512 0.98059 0.0
H2126 H 0.61042 0.58224 0.05708 0.0
C2127 C 0.68909 0.6331 0.0363 0.0
C2128 C 0.70258 0.6363 0.01737 0.0
C2129 C 0.69536 0.62283 0.99391 0.0
C2130 C 0.67465 0.60667 0.98927 0.0
C2131 C 0.6617 0.60401 0.00843 0.0
C2132 C 0.66885 0.61668 0.03156 0.0
C2133 C 0.65217 0.61054 0.0492 0.0
C2134 C 0.66288 0.60115 0.07138 0.0
C2135 C 0.64246 0.63127 0.05758 0.0
C2136 C 0.63455 0.59213 0.03259 0.0
C2137 C 0.64001 0.58893 0.00895 0.0
C2138 C 0.6253 0.57405 0.98993 0.0
C2139 C 0.60448 0.5623 0.99529 0.0
C2140 C 0.59904 0.56504 0.01953 0.0
C2141 C 0.61436 0.57982 0.03843 0.0
H2142 H 0.6893 0.49491 0.31726 0.0
H2143 H 0.63544 0.47385 0.25523 0.0
H2144 H 0.65197 0.44165 0.24076 0.0
H2145 H 0.73377 0.48381 0.28901 0.0
H2146 H 0.74701 0.47129 0.31336 0.0
H2147 H 0.72984 0.49132 0.32061 0.0
H2148 H 0.70514 0.46143 0.34212 0.0
H2149 H 0.72225 0.44121 0.33483 0.0
H2150 H 0.69216 0.43348 0.32533 0.0
H2151 H 0.67676 0.41589 0.22948 0.0
H2152 H 0.70758 0.39574 0.22377 0.0
H2153 H 0.74407 0.43046 0.29453 0.0
C2154 C 0.68089 0.48324 0.30088 0.0
C2155 C 0.66117 0.4868 0.28723 0.0
C2156 C 0.65048 0.47125 0.26597 0.0
C2157 C 0.65971 0.45291 0.25763 0.0
C2158 C 0.67926 0.44993 0.27122 0.0
C2159 C 0.68951 0.46427 0.29271 0.0
C2160 C 0.71065 0.45722 0.30342 0.0
C2161 C 0.73154 0.4771 0.30677 0.0
C2162 C 0.70735 0.44778 0.32788 0.0
C2163 C 0.71175 0.43824 0.28332 0.0
C2164 C 0.69317 0.43401 0.26522 0.0
C2165 C 0.69114 0.4186 0.24378 0.0
C2166 C 0.70869 0.40737 0.24061 0.0
C2167 C 0.72788 0.41161 0.25879 0.0
C2168 C 0.7293 0.42685 0.2806 0.0
H2169 H 0.8814 0.47902 0.55161 0.0
H2170 H 0.86162 0.47965 0.47332 0.0
H2171 H 0.90149 0.48684 0.46708 0.0
H2172 H 0.93096 0.5248 0.55854 0.0
H2173 H 0.94692 0.51191 0.58038 0.0
H2174 H 0.91668 0.50663 0.57837 0.0
H2175 H 0.91491 0.46295 0.57112 0.0
H2176 H 0.94506 0.4683 0.57204 0.0
H2177 H 0.92693 0.45115 0.54556 0.0
H2178 H 0.94248 0.49195 0.46879 0.0
H2179 H 0.98378 0.50188 0.48 0.0
H2180 H 0.97703 0.50044 0.55709 0.0
C2181 C 0.88552 0.4809 0.53324 0.0
C2182 C 0.86865 0.47881 0.51298 0.0
C2183 C 0.87446 0.48141 0.48913 0.0
C2184 C 0.89696 0.48521 0.48533 0.0
C2185 C 0.91316 0.48652 0.50559 0.0
C2186 C 0.90786 0.485 0.52915 0.0
C2187 C 0.92865 0.48808 0.54787 0.0
C2188 C 0.93094 0.50911 0.56743 0.0
C2189 C 0.92885 0.46629 0.55984 0.0
C2190 C 0.94645 0.49185 0.53113 0.0
C2191 C 0.93708 0.49037 0.50675 0.0
C2192 C 0.95006 0.49345 0.48783 0.0
C2193 C 0.97338 0.49934 0.49428 0.0
C2194 C 0.98309 0.50251 0.51921 0.0
C2195 C 0.96969 0.49791 0.53783 0.0
H2196 H 0.37256 0.0799 0.2963 0.0
H2197 H 0.35298 0.09324 0.36872 0.0
H2198 H 0.3319 0.12128 0.35336 0.0
H2199 H 0.3784 0.13618 0.27808 0.0
H2200 H 0.36579 0.12504 0.24667 0.0
H2201 H 0.38107 0.10838 0.26448 0.0
H2202 H 0.346 0.07455 0.25587 0.0
H2203 H 0.33048 0.09119 0.23832 0.0
H2204 H 0.31942 0.0791 0.26404 0.0
H2205 H 0.30989 0.14385 0.32845 0.0
H2206 H 0.29141 0.1629 0.29738 0.0
H2207 H 0.32681 0.13441 0.24175 0.0
C2208 C 0.36445 0.0894 0.30911 0.0
C2209 C 0.36456 0.08521 0.33368 0.0
C2210 C 0.35332 0.09699 0.34997 0.0
C2211 C 0.34122 0.1126 0.34132 0.0
C2212 C 0.34066 0.11565 0.31651 0.0
C2213 C 0.35213 0.10446 0.30072 0.0
C2214 C 0.34761 0.10916 0.27455 0.0
C2215 C 0.36952 0.12038 0.26543 0.0
C2216 C 0.33515 0.08719 0.25719 0.0
C2217 C 0.33236 0.12549 0.27813 0.0
C2218 C 0.32816 0.12866 0.30229 0.0
C2219 C 0.3134 0.14191 0.30961 0.0
C2220 C 0.3031 0.1527 0.29183 0.0
C2221 C 0.30803 0.15047 0.26721 0.0
C2222 C 0.32262 0.13643 0.26032 0.0
H2223 H 0.34924 0.17044 0.54623 0.0
H2224 H 0.30468 0.12091 0.48897 0.0
H2225 H 0.33385 0.09794 0.48724 0.0
H2226 H 0.40287 0.16665 0.52451 0.0
H2227 H 0.41736 0.16873 0.55539 0.0
H2228 H 0.39408 0.18249 0.54998 0.0
H2229 H 0.3736 0.16056 0.58182 0.0
H2230 H 0.39694 0.14708 0.58756 0.0
H2231 H 0.36881 0.12975 0.57827 0.0
H2232 H 0.36719 0.07898 0.49422 0.0
H2233 H 0.39933 0.06405 0.51254 0.0
H2234 H 0.42121 0.12609 0.56514 0.0
C2235 C 0.34574 0.15497 0.53301 0.0
C2236 C 0.32481 0.14755 0.51759 0.0
C2237 C 0.32066 0.12691 0.50095 0.0
C2238 C 0.33719 0.11387 0.4997 0.0
C2239 C 0.3577 0.12167 0.51526 0.0
C2240 C 0.36188 0.14167 0.53175 0.0
C2241 C 0.38416 0.14523 0.54829 0.0
C2242 C 0.40059 0.16708 0.54429 0.0
C2243 C 0.38066 0.14567 0.57558 0.0
C2244 C 0.3918 0.12399 0.53881 0.0
C2245 C 0.37656 0.1107 0.5195 0.0
C2246 C 0.37938 0.0894 0.50911 0.0
C2247 C 0.39773 0.08111 0.51945 0.0
C2248 C 0.41269 0.09405 0.54007 0.0
C2249 C 0.41011 0.11605 0.54916 0.0
H2250 H 0.7088 0.61682 0.30082 0.0
H2251 H 0.64419 0.63625 0.28877 0.0
H2252 H 0.66356 0.67569 0.28725 0.0
H2253 H 0.73921 0.67303 0.33893 0.0
H2254 H 0.76506 0.67332 0.32617 0.0
H2255 H 0.74674 0.64642 0.32899 0.0
H2256 H 0.74501 0.63322 0.28226 0.0
H2257 H 0.76325 0.66008 0.27935 0.0
H2258 H 0.73613 0.65075 0.26024 0.0
H2259 H 0.68805 0.71177 0.28479 0.0
H2260 H 0.71755 0.74428 0.2809 0.0
H2261 H 0.76804 0.70405 0.29275 0.0
C2262 C 0.69886 0.62954 0.29835 0.0
C2263 C 0.67489 0.62335 0.2949 0.0
C2264 C 0.66248 0.64042 0.29136 0.0
C2265 C 0.67332 0.66298 0.29056 0.0
C2266 C 0.69673 0.66847 0.2934 0.0
C2267 C 0.70955 0.65249 0.29736 0.0
C2268 C 0.73459 0.66348 0.29874 0.0
C2269 C 0.74715 0.66409 0.32475 0.0
C2270 C 0.74537 0.65114 0.27896 0.0
C2271 C 0.73342 0.68759 0.2936 0.0
C2272 C 0.71136 0.68994 0.2913 0.0
C2273 C 0.70547 0.71025 0.28682 0.0
C2274 C 0.72257 0.72886 0.28481 0.0
C2275 C 0.74549 0.72732 0.28671 0.0
C2276 C 0.75092 0.70615 0.29106 0.0
H2277 H 0.83527 0.44589 0.75377 0.0
H2278 H 0.86594 0.46195 0.83071 0.0
H2279 H 0.8599 0.42139 0.83437 0.0
H2280 H 0.79067 0.40425 0.76743 0.0
H2281 H 0.78728 0.38519 0.73891 0.0
H2282 H 0.79832 0.41541 0.73981 0.0
H2283 H 0.83389 0.40686 0.72252 0.0
H2284 H 0.82285 0.3766 0.72167 0.0
H2285 H 0.85044 0.38986 0.7383 0.0
H2286 H 0.84872 0.38076 0.83195 0.0
H2287 H 0.82751 0.34058 0.82476 0.0
H2288 H 0.79952 0.34938 0.75135 0.0
C2289 C 0.84103 0.44071 0.77115 0.0
C2290 C 0.85194 0.45702 0.7916 0.0
C2291 C 0.85839 0.44982 0.81446 0.0
C2292 C 0.85507 0.42674 0.81679 0.0
C2293 C 0.84444 0.41107 0.79639 0.0
C2294 C 0.8369 0.41756 0.77417 0.0
C2295 C 0.82234 0.39724 0.75683 0.0
C2296 C 0.79823 0.40074 0.75037 0.0
C2297 C 0.83304 0.39236 0.73345 0.0
C2298 C 0.82279 0.37865 0.77307 0.0
C2299 C 0.83613 0.38706 0.79556 0.0
C2300 C 0.83833 0.3738 0.81439 0.0
C2301 C 0.8262 0.35123 0.81028 0.0
C2302 C 0.81207 0.34256 0.7877 0.0
C2303 C 0.81043 0.35607 0.76868 0.0
H2304 H 0.07283 0.86692 0.03816 0.0
H2305 H 0.04636 0.86508 0.10781 0.0
H2306 H 0.03576 0.90215 0.10365 0.0
H2307 H 0.09652 0.92742 0.0457 0.0
H2308 H 0.08888 0.93049 0.01384 0.0
H2309 H 0.09367 0.90352 0.0218 0.0
H2310 H 0.05389 0.8831 0.99914 0.0
H2311 H 0.04901 0.91008 0.99124 0.0
H2312 H 0.02957 0.89296 0.00763 0.0
H2313 H 0.02826 0.94066 0.09194 0.0
H2314 H 0.02597 0.9765 0.07487 0.0
H2315 H 0.05778 0.9547 0.01298 0.0
C2316 C 0.06473 0.87418 0.05259 0.0
C2317 C 0.06054 0.86258 0.07347 0.0
C2318 C 0.04986 0.87316 0.09166 0.0
C2319 C 0.04372 0.89438 0.0894 0.0
C2320 C 0.04816 0.90526 0.06872 0.0
C2321 C 0.05842 0.89545 0.05058 0.0
C2322 C 0.06155 0.91084 0.03029 0.0
C2323 C 0.08665 0.91851 0.02777 0.0
C2324 C 0.04769 0.89851 0.00561 0.0
C2325 C 0.05207 0.93115 0.0401 0.0
C2326 C 0.04416 0.9274 0.06218 0.0
C2327 C 0.03459 0.94363 0.07477 0.0
C2328 C 0.03347 0.96416 0.06498 0.0
C2329 C 0.04197 0.9689 0.04278 0.0
C2330 C 0.05113 0.95182 0.03001 0.0
H2331 H 0.92307 0.29125 0.92364 0.0
H2332 H 0.95738 0.24837 0.88013 0.0
H2333 H 0.92701 0.24353 0.84482 0.0
H2334 H 0.86582 0.25942 0.89914 0.0
H2335 H 0.8545 0.28478 0.89967 0.0
H2336 H 0.87851 0.28416 0.92169 0.0
H2337 H 0.9013 0.32047 0.90761 0.0
H2338 H 0.87736 0.3212 0.88561 0.0
H2339 H 0.90422 0.32056 0.87541 0.0
H2340 H 0.89227 0.24352 0.81375 0.0
H2341 H 0.85709 0.24866 0.79028 0.0
H2342 H 0.84741 0.29397 0.85293 0.0
C2343 C 0.9242 0.2807 0.90676 0.0
C2344 C 0.94274 0.27011 0.90487 0.0
C2345 C 0.94339 0.25655 0.88227 0.0
C2346 C 0.92618 0.25372 0.86204 0.0
C2347 C 0.90824 0.26449 0.86454 0.0
C2348 C 0.90715 0.2777 0.88639 0.0
C2349 C 0.88625 0.28771 0.88426 0.0
C2350 C 0.87033 0.27847 0.90226 0.0
C2351 C 0.89268 0.31405 0.88846 0.0
C2352 C 0.87596 0.27849 0.85766 0.0
C2353 C 0.88871 0.26488 0.84667 0.0
C2354 C 0.88227 0.25422 0.82227 0.0
C2355 C 0.86232 0.25743 0.80893 0.0
C2356 C 0.84901 0.27145 0.8197 0.0
C2357 C 0.85628 0.28227 0.84437 0.0
H2358 H 0.56605 0.21807 0.60257 0.0
H2359 H 0.55469 0.23479 0.52817 0.0
H2360 H 0.54983 0.1943 0.51133 0.0
H2361 H 0.59761 0.17423 0.58646 0.0
H2362 H 0.58616 0.15525 0.60715 0.0
H2363 H 0.58855 0.18568 0.61429 0.0
H2364 H 0.54592 0.17878 0.61754 0.0
H2365 H 0.54351 0.14834 0.61063 0.0
H2366 H 0.52577 0.16234 0.59205 0.0
H2367 H 0.54873 0.15226 0.50135 0.0
H2368 H 0.54688 0.11074 0.49948 0.0
H2369 H 0.55616 0.11805 0.57944 0.0
C2370 C 0.56227 0.21317 0.58276 0.0
C2371 C 0.56086 0.23021 0.56682 0.0
C2372 C 0.55612 0.22262 0.54099 0.0
C2373 C 0.55331 0.19944 0.53111 0.0
C2374 C 0.55528 0.18332 0.54705 0.0
C2375 C 0.55943 0.18969 0.57237 0.0
C2376 C 0.56088 0.16847 0.58503 0.0
C2377 C 0.58471 0.17107 0.59908 0.0
C2378 C 0.54294 0.16424 0.60234 0.0
C2379 C 0.55616 0.1493 0.56294 0.0
C2380 C 0.55358 0.15854 0.54123 0.0
C2381 C 0.55043 0.14485 0.51829 0.0
C2382 C 0.54949 0.12118 0.51737 0.0
C2383 C 0.55106 0.11081 0.53916 0.0
C2384 C 0.55453 0.12526 0.56235 0.0
H2385 H 0.58623 0.7532 0.41414 0.0
H2386 H 0.54533 0.79921 0.38869 0.0
H2387 H 0.5722 0.81124 0.35991 0.0
H2388 H 0.63891 0.78917 0.41479 0.0
H2389 H 0.65249 0.76683 0.40399 0.0
H2390 H 0.62882 0.7602 0.42051 0.0
H2391 H 0.60804 0.72922 0.38405 0.0
H2392 H 0.63162 0.73593 0.36727 0.0
H2393 H 0.60373 0.73702 0.35349 0.0
H2394 H 0.60534 0.82055 0.3361 0.0
H2395 H 0.64263 0.82773 0.32139 0.0
H2396 H 0.66209 0.77604 0.36246 0.0
C2397 C 0.58271 0.76559 0.40231 0.0
C2398 C 0.56351 0.77517 0.40373 0.0
C2399 C 0.55978 0.79149 0.38796 0.0
C2400 C 0.57495 0.79839 0.37145 0.0
C2401 C 0.59378 0.78873 0.37068 0.0
C2402 C 0.59767 0.77264 0.38569 0.0
C2403 C 0.6198 0.76582 0.38233 0.0
C2404 C 0.63596 0.77082 0.40686 0.0
C2405 C 0.61554 0.74049 0.37112 0.0
C2406 C 0.62836 0.78141 0.36403 0.0
C2407 C 0.61284 0.7941 0.35706 0.0
C2408 C 0.61742 0.81044 0.34117 0.0
C2409 C 0.63857 0.81434 0.33278 0.0
C2410 C 0.65495 0.80208 0.34037 0.0
C2411 C 0.64959 0.78517 0.35587 0.0
H2412 H 0.03682 0.27359 0.43712 0.0
H2413 H 0.04987 0.2424 0.36688 0.0
H2414 H 0.04627 0.20517 0.38277 0.0
H2415 H 0.06632 0.23968 0.47615 0.0
H2416 H 0.04586 0.23807 0.4973 0.0
H2417 H 0.05181 0.2626 0.48122 0.0
H2418 H 0.00934 0.25595 0.46399 0.0
H2419 H 1.00326 0.23152 0.48007 0.0
H2420 H 0.99484 0.22842 0.44717 0.0
H2421 H 0.0385 0.17044 0.4059 0.0
H2422 H 0.02523 0.14167 0.43279 0.0
H2423 H 0.01716 0.19595 0.48748 0.0
C2424 C 0.03921 0.25903 0.42511 0.0
C2425 C 0.04362 0.26099 0.4007 0.0
C2426 C 0.04646 0.24139 0.38563 0.0
C2427 C 0.04455 0.22016 0.39456 0.0
C2428 C 0.03992 0.2188 0.41865 0.0
C2429 C 0.03734 0.23778 0.4337 0.0
C2430 C 0.03109 0.23164 0.45831 0.0
C2431 C 0.04989 0.24372 0.4795 0.0
C2432 C 1.00828 0.23721 0.46262 0.0
C2433 C 0.02953 0.20605 0.45443 0.0
C2434 C 0.03518 0.19897 0.43169 0.0
C2435 C 0.0342 0.17588 0.4238 0.0
C2436 C 0.02672 0.15965 0.43925 0.0
C2437 C 0.01998 0.1665 0.4622 0.0
C2438 C 0.02196 0.19011 0.46997 0.0
H2439 H 0.60334 0.22057 0.23515 0.0
H2440 H 0.59551 0.29033 0.23335 0.0
H2441 H 0.63687 0.30428 0.24499 0.0
H2442 H 0.64933 0.23456 0.28868 0.0
H2443 H 0.66333 0.21315 0.27641 0.0
H2444 H 0.63316 0.20902 0.26918 0.0
H2445 H 0.63699 0.20357 0.22259 0.0
H2446 H 0.6672 0.20821 0.23009 0.0
H2447 H 0.65516 0.22575 0.21023 0.0
H2448 H 0.67978 0.3106 0.25447 0.0
H2449 H 0.71964 0.30959 0.26354 0.0
H2450 H 0.70126 0.23568 0.26091 0.0
C2451 C 0.61021 0.23886 0.23745 0.0
C2452 C 0.59567 0.2543 0.23325 0.0
C2453 C 0.60581 0.27803 0.23653 0.0
C2454 C 0.62947 0.28612 0.24308 0.0
C2455 C 0.64318 0.27043 0.24668 0.0
C2456 C 0.63388 0.24727 0.24432 0.0
C2457 C 0.65249 0.23406 0.24938 0.0
C2458 C 0.64938 0.22198 0.27228 0.0
C2459 C 0.65298 0.21688 0.22672 0.0
C2460 C 0.67382 0.25329 0.2543 0.0
C2461 C 0.6679 0.27411 0.25265 0.0
C2462 C 0.68441 0.29436 0.25588 0.0
C2463 C 0.70731 0.29349 0.26096 0.0
C2464 C 0.71427 0.27252 0.26299 0.0
C2465 C 0.69694 0.25208 0.25966 0.0
H2466 H 0.52898 0.86549 0.9385 0.0
H2467 H 0.57499 0.891 0.88855 0.0
H2468 H 0.58086 0.93016 0.91117 0.0
H2469 H 0.503 0.91317 0.94523 0.0
H2470 H 0.50105 0.91276 0.97759 0.0
H2471 H 0.50098 0.88668 0.95803 0.0
H2472 H 0.53509 0.88073 0.98712 0.0
H2473 H 0.53525 0.90682 0.00677 0.0
H2474 H 0.5604 0.90313 0.99421 0.0
H2475 H 0.5798 0.96729 0.93786 0.0
H2476 H 0.57382 0.99862 0.96744 0.0
H2477 H 0.52973 0.94931 0.00175 0.0
C2478 C 0.54048 0.87925 0.93241 0.0
C2479 C 0.55155 0.87493 0.91159 0.0
C2480 C 0.56641 0.89361 0.90442 0.0
C2481 C 0.56979 0.91601 0.91716 0.0
C2482 C 0.55846 0.91965 0.9374 0.0
C2483 C 0.5443 0.90171 0.94518 0.0
C2484 C 0.53414 0.91026 0.9675 0.0
C2485 C 0.50826 0.90543 0.96174 0.0
C2486 C 0.54167 0.89959 0.99025 0.0
C2487 C 0.54446 0.93586 0.97086 0.0
C2488 C 0.55839 0.94088 0.95322 0.0
C2489 C 0.56912 0.96341 0.95187 0.0
C2490 C 0.56556 0.98118 0.96882 0.0
C2491 C 0.55148 0.97662 0.98727 0.0
C2492 C 0.54094 0.95348 0.98829 0.0
H2493 H 0.94663 0.79059 0.71335 0.0
H2494 H 0.96137 0.73629 0.75349 0.0
H2495 H 0.9263 0.73561 0.77242 0.0
H2496 H 0.9231 0.82008 0.76288 0.0
H2497 H 0.90221 0.82803 0.74178 0.0
H2498 H 0.92865 0.82462 0.73216 0.0
H2499 H 0.90707 0.7952 0.69481 0.0
H2500 H 0.88062 0.79857 0.70434 0.0
H2501 H 0.88677 0.77051 0.69997 0.0
H2502 H 0.88755 0.7405 0.78645 0.0
H2503 H 0.8512 0.7504 0.79382 0.0
H2504 H 0.8614 0.80156 0.7446 0.0
C2505 C 0.94268 0.77854 0.72623 0.0
C2506 C 0.95729 0.76342 0.73172 0.0
C2507 C 0.95096 0.74814 0.74882 0.0
C2508 C 0.93086 0.74763 0.75969 0.0
C2509 C 0.91689 0.76263 0.75365 0.0
C2510 C 0.92274 0.77794 0.73737 0.0
C2511 C 0.90495 0.79233 0.73381 0.0
C2512 C 0.91535 0.81777 0.74321 0.0
C2513 C 0.89422 0.78894 0.70662 0.0
C2514 C 0.88777 0.78243 0.75005 0.0
C2515 C 0.89507 0.76544 0.76157 0.0
C2516 C 0.88197 0.75386 0.77749 0.0
C2517 C 0.86122 0.75963 0.78165 0.0
C2518 C 0.85318 0.77681 0.76997 0.0
C2519 C 0.86688 0.78834 0.75393 0.0
H2520 H 0.11607 0.08097 0.87845 0.0
H2521 H 0.09555 0.01302 0.83609 0.0
H2522 H 0.07505 0.99916 0.86964 0.0
H2523 H 0.12519 0.06026 0.93574 0.0
H2524 H 0.1161 0.08243 0.95371 0.0
H2525 H 0.12842 0.08834 0.92638 0.0
H2526 H 0.0935 0.10125 0.90698 0.0
H2527 H 0.08115 0.09723 0.93471 0.0
H2528 H 0.06582 0.08301 0.90521 0.0
H2529 H 0.0607 0.99209 0.91112 0.0
H2530 H 0.04911 0.99411 0.95293 0.0
H2531 H 0.07246 0.06788 0.96319 0.0
C2532 C 0.10701 0.06323 0.87597 0.0
C2533 C 0.10749 0.0481 0.85459 0.0
C2534 C 0.09552 0.02496 0.85232 0.0
C2535 C 0.08385 0.01691 0.87131 0.0
C2536 C 0.08413 0.03225 0.89239 0.0
C2537 C 0.09508 0.05502 0.89452 0.0
C2538 C 0.09361 0.06792 0.91923 0.0
C2539 C 0.11722 0.0752 0.93465 0.0
C2540 C 0.08286 0.08856 0.91634 0.0
C2541 C 0.07869 0.04939 0.93002 0.0
C2542 C 0.07439 0.02859 0.91494 0.0
C2543 C 0.06352 0.00843 0.92273 0.0
C2544 C 0.05689 0.00973 0.94643 0.0
C2545 C 0.06002 0.03113 0.96146 0.0
C2546 C 0.07056 0.05118 0.95272 0.0
H2547 H 0.79113 0.37207 0.53381 0.0
H2548 H 0.79998 0.44078 0.57289 0.0
H2549 H 0.80712 0.4263 0.61251 0.0
H2550 H 0.76473 0.34142 0.58213 0.0
H2551 H 0.77901 0.31836 0.57672 0.0
H2552 H 0.7712 0.33338 0.5517 0.0
H2553 H 0.81274 0.34263 0.54338 0.0
H2554 H 0.82066 0.32764 0.56824 0.0
H2555 H 0.8347 0.35704 0.56822 0.0
H2556 H 0.81713 0.40526 0.64735 0.0
H2557 H 0.83057 0.37925 0.67448 0.0
H2558 H 0.81597 0.32479 0.61246 0.0
C2559 C 0.79399 0.38398 0.55072 0.0
C2560 C 0.79481 0.4075 0.55028 0.0
C2561 C 0.79906 0.42262 0.5728 0.0
C2562 C 0.80307 0.41457 0.59541 0.0
C2563 C 0.80259 0.39135 0.59516 0.0
C2564 C 0.79805 0.37625 0.57341 0.0
C2565 C 0.80043 0.35253 0.57798 0.0
C2566 C 0.77747 0.33541 0.57177 0.0
C2567 C 0.8182 0.34451 0.56361 0.0
C2568 C 0.80829 0.35698 0.60548 0.0
C2569 C 0.80884 0.3793 0.61519 0.0
C2570 C 0.8165 0.38766 0.64003 0.0
C2571 C 0.8241 0.37285 0.65526 0.0
C2572 C 0.82433 0.3502 0.64535 0.0
C2573 C 0.81601 0.34211 0.62031 0.0
H2574 H 0.42697 0.03754 0.382 0.0
H2575 H 0.41453 0.96351 0.36367 0.0
H2576 H 0.44173 0.96223 0.40015 0.0
H2577 H 0.48507 0.04596 0.39906 0.0
H2578 H 0.48682 0.0693 0.42323 0.0
H2579 H 0.46497 0.06398 0.39709 0.0
H2580 H 0.4346 0.06098 0.42663 0.0
H2581 H 0.45644 0.06623 0.45283 0.0
H2582 H 0.43399 0.04091 0.44863 0.0
H2583 H 0.47352 0.96983 0.43461 0.0
H2584 H 0.50614 0.98564 0.46726 0.0
H2585 H 0.4951 0.05407 0.46386 0.0
C2586 C 0.4296 0.02095 0.3858 0.0
C2587 C 0.41872 1.00059 0.37021 0.0
C2588 C 0.42283 0.97928 0.37555 0.0
C2589 C 0.4381 0.97839 0.39617 0.0
C2590 C 0.44875 0.99892 0.41099 0.0
C2591 C 0.44459 0.01977 0.40611 0.0
C2592 C 0.45932 0.03955 0.42368 0.0
C2593 C 0.47496 0.05563 0.40994 0.0
C2594 C 0.44523 0.05267 0.43885 0.0
C2595 C 0.4724 0.02655 0.43935 0.0
C2596 C 0.46631 1.00317 0.4316 0.0
C2597 C 0.47804 0.98798 0.44136 0.0
C2598 C 0.49647 0.99705 0.45966 0.0
C2599 C 0.5022 0.0208 0.46815 0.0
C2600 C 0.49018 0.03573 0.45803 0.0
H2601 H 0.76745 0.69948 0.09777 0.0
H2602 H 0.79952 0.76239 0.07283 0.0
H2603 H 0.80244 0.78319 0.11476 0.0
H2604 H 0.7359 0.72505 0.14168 0.0
H2605 H 0.74058 0.70644 0.16424 0.0
H2606 H 0.73947 0.69659 0.13189 0.0
H2607 H 0.77889 0.68731 0.14094 0.0
H2608 H 0.78012 0.69729 0.17326 0.0
H2609 H 0.80232 0.7095 0.15665 0.0
H2610 H 0.80125 0.79748 0.15861 0.0
H2611 H 0.79835 0.80409 0.20308 0.0
H2612 H 0.77023 0.73166 0.2015 0.0
C2613 C 0.7748 0.7177 0.10111 0.0
C2614 C 0.78307 0.72944 0.08196 0.0
C2615 C 0.79303 0.75313 0.08717 0.0
C2616 C 0.79473 0.76508 0.11092 0.0
C2617 C 0.7867 0.75304 0.12942 0.0
C2618 C 0.77707 0.72985 0.12495 0.0
C2619 C 0.7708 0.72096 0.14859 0.0
C2620 C 0.74516 0.71171 0.14646 0.0
C2621 C 0.78382 0.70268 0.15525 0.0
C2622 C 0.77855 0.74277 0.16698 0.0
C2623 C 0.78732 0.76109 0.15534 0.0
C2624 C 0.79466 0.78324 0.16799 0.0
C2625 C 0.79297 0.78684 0.1932 0.0
C2626 C 0.7845 0.76834 0.20566 0.0
C2627 C 0.77729 0.74598 0.19243 0.0
H2628 H 0.10598 0.02474 0.70948 0.0
H2629 H 0.07993 0.08258 0.73836 0.0
H2630 H 0.06258 0.08513 0.69642 0.0
H2631 H 0.11861 0.04255 0.65194 0.0
H2632 H 0.10824 0.01474 0.63369 0.0
H2633 H 0.11883 0.01693 0.66598 0.0
H2634 H 0.08113 0.99161 0.67299 0.0
H2635 H 0.07044 0.98939 0.64069 0.0
H2636 H 0.05501 0.99983 0.66378 0.0
H2637 H 0.04746 0.08147 0.65264 0.0
H2638 H 0.0355 0.07219 0.60818 0.0
H2639 H 0.07163 0.0173 0.60529 0.0
C2640 C 0.09658 0.03789 0.70684 0.0
C2641 C 0.09424 0.05354 0.72715 0.0
C2642 C 0.0817 0.07035 0.72313 0.0
C2643 C 0.07186 0.07196 0.69937 0.0
C2644 C 0.07431 0.05635 0.67979 0.0
C2645 C 0.08614 0.03944 0.68311 0.0
C2646 C 0.08537 0.02449 0.65862 0.0
C2647 C 0.10919 0.02472 0.65219 0.0
C2648 C 0.07221 0.99987 0.65906 0.0
C2649 C 0.07231 0.03652 0.64104 0.0
C2650 C 0.0658 0.05452 0.6539 0.0
C2651 C 0.05273 0.06763 0.64228 0.0
C2652 C 0.04619 0.06237 0.61677 0.0
C2653 C 0.05321 0.04464 0.60273 0.0
C2654 C 0.06633 0.03135 0.61524 0.0
H2655 H 0.82419 0.37833 0.45113 0.0
H2656 H 0.78589 0.42417 0.41992 0.0
H2657 H 0.77333 0.39657 0.38195 0.0
H2658 H 0.8439 0.35821 0.39702 0.0
H2659 H 0.8402 0.32892 0.40292 0.0
H2660 H 0.84532 0.35179 0.42831 0.0
H2661 H 0.80862 0.33227 0.44397 0.0
H2662 H 0.8033 0.30949 0.41835 0.0
H2663 H 0.78224 0.32576 0.42349 0.0
H2664 H 0.76341 0.36411 0.34896 0.0
H2665 H 0.76138 0.33032 0.31876 0.0
H2666 H 0.80922 0.30705 0.36891 0.0
C2667 C 0.81336 0.38255 0.43616 0.0
C2668 C 0.80597 0.40321 0.43825 0.0
C2669 C 0.79157 0.40825 0.41857 0.0
C2670 C 0.78424 0.39269 0.39706 0.0
C2671 C 0.79138 0.37223 0.39575 0.0
C2672 C 0.80572 0.3671 0.41455 0.0
C2673 C 0.8111 0.34398 0.4079 0.0
C2674 C 0.83665 0.34586 0.4091 0.0
C2675 C 0.80071 0.32687 0.42441 0.0
C2676 C 0.79898 0.33791 0.38175 0.0
C2677 C 0.78691 0.35399 0.37565 0.0
C2678 C 0.77328 0.35169 0.35315 0.0
C2679 C 0.77261 0.33271 0.33598 0.0
C2680 C 0.78642 0.31712 0.34097 0.0
C2681 C 0.79919 0.31927 0.36441 0.0
H2682 H 0.43545 0.99473 0.26877 0.0
H2683 H 0.41551 0.05707 0.25254 0.0
H2684 H 0.43133 0.05396 0.21296 0.0
H2685 H 0.48683 1.00179 0.24328 0.0
H2686 H 0.48199 0.97196 0.23068 0.0
H2687 H 0.47031 0.9802 0.25795 0.0
H2688 H 0.43011 0.95908 0.23663 0.0
H2689 H 0.44167 0.95054 0.20938 0.0
H2690 H 0.41942 0.96601 0.20719 0.0
H2691 H 0.449 0.04267 0.17454 0.0
H2692 H 0.46403 0.02321 0.14019 0.0
H2693 H 0.47107 0.96835 0.18317 0.0
C2694 C 0.43481 0.00801 0.25715 0.0
C2695 C 0.42485 0.02641 0.26377 0.0
C2696 C 0.42343 0.04298 0.24772 0.0
C2697 C 0.43235 0.04135 0.22533 0.0
C2698 C 0.44213 0.02282 0.21934 0.0
C2699 C 0.44306 0.00635 0.23475 0.0
C2700 C 0.45268 0.98714 0.22364 0.0
C2701 C 0.47424 0.98518 0.23985 0.0
C2702 C 0.43492 0.96436 0.21894 0.0
C2703 C 0.4577 0.99558 0.19977 0.0
C2704 C 0.4515 0.01612 0.19741 0.0
C2705 C 0.45393 0.0266 0.17626 0.0
C2706 C 0.46257 0.0155 0.15694 0.0
C2707 C 0.46851 0.99417 0.15902 0.0
C2708 C 0.46635 0.98444 0.18089 0.0
H2709 H 0.77426 0.75169 0.96151 0.0
H2710 H 0.78216 0.68198 0.9436 0.0
H2711 H 0.79041 0.69001 0.90232 0.0
H2712 H 0.74638 0.75724 0.90385 0.0
H2713 H 0.76073 0.78657 0.90392 0.0
H2714 H 0.75715 0.77576 0.93268 0.0
H2715 H 0.80044 0.78806 0.94645 0.0
H2716 H 0.80414 0.79864 0.9175 0.0
H2717 H 0.81915 0.77767 0.92724 0.0
H2718 H 0.79739 0.70548 0.86254 0.0
H2719 H 0.79976 0.72641 0.82653 0.0
H2720 H 0.78393 0.78463 0.86934 0.0
C2721 C 0.77783 0.73815 0.94897 0.0
C2722 C 0.77758 0.71623 0.95589 0.0
C2723 C 0.78234 0.69897 0.93885 0.0
C2724 C 0.78712 0.70336 0.91533 0.0
C2725 C 0.78723 0.72514 0.90909 0.0
C2726 C 0.78266 0.74224 0.92539 0.0
C2727 C 0.78313 0.76392 0.91378 0.0
C2728 C 0.76049 0.77128 0.91354 0.0
C2729 C 0.80288 0.78322 0.92703 0.0
C2730 C 0.78729 0.75588 0.888 0.0
C2731 C 0.79042 0.73375 0.88592 0.0
C2732 C 0.795 0.72286 0.86398 0.0
C2733 C 0.7963 0.7349 0.8436 0.0
C2734 C 0.79245 0.75739 0.84509 0.0
C2735 C 0.78768 0.76779 0.86763 0.0
H2736 H 0.83431 0.08152 0.08093 0.0
H2737 H 0.84546 0.14758 0.05476 0.0
H2738 H 0.87395 0.13669 0.03057 0.0
H2739 H 0.8964 0.07657 0.08268 0.0
H2740 H 0.88763 0.04601 0.07369 0.0
H2741 H 0.87148 0.06077 0.09267 0.0
H2742 H 0.83569 0.04362 0.06086 0.0
H2743 H 0.85166 0.02934 0.04138 0.0
H2744 H 0.8357 0.04866 0.02919 0.0
H2745 H 0.89328 0.11586 0.00235 0.0
H2746 H 0.90946 0.08828 0.97721 0.0
H2747 H 0.88871 0.03686 0.02396 0.0
C2748 C 0.84364 0.09396 0.07101 0.0
C2749 C 0.83815 0.11534 0.06972 0.0
C2750 C 0.85 0.13128 0.05625 0.0
C2751 C 0.86607 0.12522 0.04239 0.0
C2752 C 0.87043 0.10354 0.04303 0.0
C2753 C 0.86024 0.08843 0.05768 0.0
C2754 C 0.86697 0.06569 0.05377 0.0
C2755 C 0.88149 0.06205 0.07708 0.0
C2756 C 0.84626 0.04567 0.04581 0.0
C2757 C 0.88082 0.06975 0.03307 0.0
C2758 C 0.88274 0.09176 0.02732 0.0
C2759 C 0.89264 0.09882 0.00714 0.0
C2760 C 0.90141 0.08309 0.99282 0.0
C2761 C 0.9001 0.0608 0.99894 0.0
C2762 C 0.88984 0.05401 0.01926 0.0
H2763 H 0.39077 0.44781 0.08798 0.0
H2764 H 0.35909 0.42802 0.01159 0.0
H2765 H 0.3925 0.45062 0.99791 0.0
H2766 H 0.41844 0.50605 0.08044 0.0
H2767 H 0.44351 0.5064 0.1013 0.0
H2768 H 0.4167 0.4894 0.10566 0.0
H2769 H 0.43345 0.45316 0.10414 0.0
H2770 H 0.46029 0.4701 0.09996 0.0
H2771 H 0.44678 0.44518 0.07796 0.0
H2772 H 0.42791 0.4768 0.9923 0.0
H2773 H 0.46611 0.50114 0.99482 0.0
H2774 H 0.47698 0.50116 0.07402 0.0
C2775 C 0.39086 0.44825 0.06839 0.0
C2776 C 0.37219 0.43624 0.05089 0.0
C2777 C 0.37305 0.4372 0.0254 0.0
C2778 C 0.39195 0.45003 0.0174 0.0
C2779 C 0.4099 0.46181 0.03507 0.0
C2780 C 0.4097 0.46094 0.06001 0.0
C2781 C 0.4316 0.47488 0.07498 0.0
C2782 C 0.4273 0.49539 0.09158 0.0
C2783 C 0.44375 0.45992 0.09014 0.0
C2784 C 0.4444 0.48286 0.05444 0.0
C2785 C 0.4312 0.47575 0.03165 0.0
C2786 C 0.43855 0.48222 0.00998 0.0
C2787 C 0.46016 0.49607 0.01158 0.0
C2788 C 0.47444 0.50238 0.03449 0.0
C2789 C 0.46646 0.49591 0.05624 0.0
H2790 H 0.42942 0.60673 0.79472 0.0
H2791 H 0.38049 0.55784 0.74077 0.0
H2792 H 0.35353 0.58321 0.74323 0.0
H2793 H 0.39127 0.61801 0.83292 0.0
H2794 H 0.40436 0.6479 0.8422 0.0
H2795 H 0.42109 0.62814 0.83263 0.0
H2796 H 0.43443 0.65307 0.79936 0.0
H2797 H 0.41762 0.67292 0.80883 0.0
H2798 H 0.41378 0.65996 0.77705 0.0
H2799 H 0.33061 0.61224 0.75479 0.0
H2800 H 0.31278 0.64012 0.77744 0.0
H2801 H 0.37618 0.66844 0.82515 0.0
C2802 C 0.41327 0.60168 0.78294 0.0
C2803 C 0.40708 0.5805 0.76741 0.0
C2804 C 0.38554 0.57409 0.75277 0.0
C2805 C 0.37021 0.58846 0.7539 0.0
C2806 C 0.37665 0.60909 0.76984 0.0
C2807 C 0.39766 0.6156 0.7842 0.0
C2808 C 0.39947 0.63699 0.80219 0.0
C2809 C 0.40432 0.63247 0.82906 0.0
C2810 C 0.41739 0.65691 0.79651 0.0
C2811 C 0.376 0.64107 0.79639 0.0
C2812 C 0.36321 0.62521 0.77722 0.0
C2813 C 0.34054 0.62488 0.76963 0.0
C2814 C 0.33056 0.64074 0.78251 0.0
C2815 C 0.3432 0.65623 0.80295 0.0
C2816 C 0.36627 0.65675 0.80948 0.0
H2817 H 0.19069 0.6195 0.56022 0.0
H2818 H 0.2155 0.55771 0.54484 0.0
H2819 H 0.17835 0.5382 0.52142 0.0
H2820 H 0.1415 0.59667 0.57482 0.0
H2821 H 0.12543 0.61474 0.56017 0.0
H2822 H 0.15514 0.62483 0.56932 0.0
H2823 H 0.15896 0.63209 0.52414 0.0
H2824 H 0.12907 0.62083 0.51488 0.0
H2825 H 0.14909 0.60879 0.49917 0.0
H2826 H 0.13848 0.52359 0.50744 0.0
H2827 H 0.09861 0.51278 0.51317 0.0
H2828 H 0.09916 0.58342 0.53815 0.0
C2829 C 0.18832 0.60194 0.55163 0.0
C2830 C 0.20571 0.58998 0.5543 0.0
C2831 C 0.20222 0.56709 0.54286 0.0
C2832 C 0.18138 0.55608 0.52914 0.0
C2833 C 0.16451 0.56841 0.5266 0.0
C2834 C 0.16775 0.59085 0.53771 0.0
C2835 C 0.14601 0.59903 0.53607 0.0
C2836 C 0.14178 0.60936 0.56161 0.0
C2837 C 0.14578 0.6162 0.51746 0.0
C2838 C 0.12961 0.57665 0.52596 0.0
C2839 C 0.14071 0.55968 0.51864 0.0
C2840 C 0.1295 0.53679 0.51225 0.0
C2841 C 0.10688 0.53078 0.51549 0.0
C2842 C 0.09617 0.54759 0.52538 0.0
C2843 C 0.1071 0.57076 0.52941 0.0
H2844 H 0.74179 1.00386 0.76141 0.0
H2845 H 0.68803 0.95687 0.71079 0.0
H2846 H 0.70209 0.92424 0.72494 0.0
H2847 H 0.78547 0.96823 0.76244 0.0
H2848 H 0.7937 0.97724 0.79517 0.0
H2849 H 0.7838 0.99643 0.77587 0.0
H2850 H 0.75357 1.00104 0.80407 0.0
H2851 H 0.76279 0.98152 0.82314 0.0
H2852 H 0.73371 0.97597 0.80913 0.0
H2853 H 0.71699 0.89747 0.74996 0.0
H2854 H 0.73219 0.87823 0.78342 0.0
H2855 H 0.77336 0.94347 0.81987 0.0
C2856 C 0.73345 0.98675 0.75253 0.0
C2857 C 0.71386 0.98276 0.73505 0.0
C2858 C 0.70321 0.96019 0.72411 0.0
C2859 C 0.71108 0.94161 0.73202 0.0
C2860 C 0.7295 0.94615 0.75073 0.0
C2861 C 0.74063 0.96822 0.76071 0.0
C2862 C 0.75717 0.96883 0.78345 0.0
C2863 C 0.78148 0.97822 0.77895 0.0
C2864 C 0.75144 0.98264 0.80626 0.0
C2865 C 0.75285 0.94364 0.78545 0.0
C2866 C 0.73728 0.93079 0.76611 0.0
C2867 C 0.72944 0.90727 0.76498 0.0
C2868 C 0.73787 0.89658 0.78411 0.0
C2869 C 0.75347 0.90963 0.80416 0.0
C2870 C 0.76114 0.93334 0.80479 0.0
H2871 H 0.72728 0.92122 0.56808 0.0
H2872 H 0.77597 0.94788 0.52121 0.0
H2873 H 0.75121 0.97231 0.50613 0.0
H2874 H 0.67955 0.9161 0.5269 0.0
H2875 H 0.66231 0.92516 0.54882 0.0
H2876 H 0.6853 0.91246 0.55891 0.0
H2877 H 0.70225 0.94818 0.5916 0.0
H2878 H 0.67925 0.96106 0.58155 0.0
H2879 H 0.708 0.97619 0.58201 0.0
H2880 H 0.71939 0.98965 0.49184 0.0
H2881 H 0.68228 0.99864 0.47953 0.0
H2882 H 0.65437 0.96145 0.53575 0.0
C2883 C 0.73297 0.93258 0.55508 0.0
C2884 C 0.75359 0.93264 0.54588 0.0
C2885 C 0.7603 0.94758 0.52864 0.0
C2886 C 0.74639 0.96162 0.52001 0.0
C2887 C 0.72596 0.96079 0.52904 0.0
C2888 C 0.71932 0.94684 0.54637 0.0
C2889 C 0.69576 0.94787 0.5516 0.0
C2890 C 0.6798 0.92398 0.54622 0.0
C2891 C 0.69636 0.95899 0.57828 0.0
C2892 C 0.68966 0.96335 0.53332 0.0
C2893 C 0.70753 0.97108 0.52092 0.0
C2894 C 0.70544 0.98417 0.5018 0.0
C2895 C 0.68441 0.98918 0.49492 0.0
C2896 C 0.66589 0.98096 0.50705 0.0
C2897 C 0.66859 0.96826 0.5267 0.0
H2898 H 0.40864 0.43618 0.79156 0.0
H2899 H 0.37727 0.46017 0.7278 0.0
H2900 H 0.34545 0.42631 0.7224 0.0
H2901 H 0.39143 0.37549 0.76816 0.0
H2902 H 0.38674 0.36734 0.79791 0.0
H2903 H 0.40761 0.39269 0.79584 0.0
H2904 H 0.3881 0.41711 0.8245 0.0
H2905 H 0.36728 0.39185 0.82686 0.0
H2906 H 0.3585 0.41643 0.81652 0.0
H2907 H 0.31775 0.38817 0.72312 0.0
H2908 H 0.29586 0.35116 0.73192 0.0
H2909 H 0.34197 0.35709 0.79931 0.0
C2910 C 0.3952 0.43425 0.77632 0.0
C2911 C 0.39555 0.45072 0.75997 0.0
C2912 C 0.37742 0.4477 0.74049 0.0
C2913 C 0.35928 0.42851 0.73726 0.0
C2914 C 0.3594 0.41266 0.75385 0.0
C2915 C 0.37682 0.4155 0.77313 0.0
C2916 C 0.37264 0.39653 0.78897 0.0
C2917 C 0.39068 0.38217 0.78764 0.0
C2918 C 0.37155 0.40606 0.8158 0.0
C2919 C 0.34988 0.38291 0.77602 0.0
C2920 C 0.34278 0.39199 0.75535 0.0
C2921 C 0.32303 0.38113 0.73948 0.0
C2922 C 0.31056 0.36029 0.74474 0.0
C2923 C 0.31748 0.35102 0.76606 0.0
C2924 C 0.33695 0.36295 0.7822 0.0
H2925 H 0.21241 0.61603 0.27245 0.0
H2926 H 0.24527 0.60296 0.20825 0.0
H2927 H 0.26974 0.64161 0.21806 0.0
H2928 H 0.20597 0.6684 0.26422 0.0
H2929 H 0.21231 0.68224 0.29581 0.0
H2930 H 0.2019 0.65176 0.28928 0.0
H2931 H 0.23685 0.64607 0.3173 0.0
H2932 H 0.24718 0.67672 0.32368 0.0
H2933 H 0.26476 0.65886 0.31153 0.0
H2934 H 0.2888 0.68036 0.23229 0.0
H2935 H 0.29567 0.72163 0.2443 0.0
H2936 H 0.24526 0.71306 0.29321 0.0
C2937 C 0.22529 0.62126 0.26102 0.0
C2938 C 0.2275 0.60671 0.23987 0.0
C2939 C 0.24369 0.614 0.22459 0.0
C2940 C 0.25786 0.63565 0.23029 0.0
C2941 C 0.25531 0.6497 0.25111 0.0
C2942 C 0.23922 0.64316 0.26614 0.0
C2943 C 0.23729 0.66336 0.28435 0.0
C2944 C 0.21291 0.66662 0.28329 0.0
C2945 C 0.2471 0.6611 0.31077 0.0
C2946 C 0.25249 0.68243 0.27465 0.0
C2947 C 0.26403 0.67372 0.25706 0.0
C2948 C 0.27953 0.68744 0.24564 0.0
C2949 C 0.28283 0.71086 0.25182 0.0
C2950 C 0.26969 0.72034 0.26766 0.0
C2951 C 0.25472 0.70606 0.27997 0.0
H2952 H 0.53301 0.69871 0.46598 0.0
H2953 H 0.48605 0.71138 0.51643 0.0
H2954 H 0.48551 0.67389 0.53006 0.0
H2955 H 0.50962 0.63607 0.44996 0.0
H2956 H 0.5367 0.62875 0.44951 0.0
H2957 H 0.53297 0.65628 0.44219 0.0
H2958 H 0.56609 0.67632 0.47625 0.0
H2959 H 0.56982 0.64883 0.4837 0.0
H2960 H 0.56538 0.66995 0.5074 0.0
H2961 H 0.48863 0.63439 0.53834 0.0
H2962 H 0.49718 0.59661 0.54232 0.0
H2963 H 0.54485 0.6079 0.4901 0.0
C2964 C 0.52238 0.69346 0.47964 0.0
C2965 C 0.50929 0.7085 0.48979 0.0
C2966 C 0.49615 0.70067 0.50808 0.0
C2967 C 0.4957 0.67917 0.51604 0.0
C2968 C 0.50875 0.66501 0.50604 0.0
C2969 C 0.52204 0.67177 0.48834 0.0
C2970 C 0.53498 0.65306 0.48156 0.0
C2971 C 0.52817 0.64294 0.45417 0.0
C2972 C 0.56059 0.66262 0.48758 0.0
C2973 C 0.52694 0.63505 0.49828 0.0
C2974 C 0.51151 0.64236 0.5119 0.0
C2975 C 0.50082 0.62865 0.52786 0.0
C2976 C 0.50579 0.60701 0.53 0.0
C2977 C 0.52178 0.59888 0.51679 0.0
C2978 C 0.53268 0.61344 0.50078 0.0
H2979 H 0.64201 0.26113 0.65031 0.0
H2980 H 0.63483 0.32998 0.67441 0.0
H2981 H 0.66938 0.33588 0.70502 0.0
H2982 H 0.66116 0.24765 0.70958 0.0
H2983 H 0.68088 0.23185 0.69846 0.0
H2984 H 0.65607 0.23337 0.67821 0.0
H2985 H 0.68094 0.24979 0.64646 0.0
H2986 H 0.70557 0.24764 0.66656 0.0
H2987 H 0.70356 0.27469 0.65651 0.0
H2988 H 0.70536 0.33386 0.73386 0.0
H2989 H 0.73867 0.32437 0.75712 0.0
H2990 H 0.72193 0.25655 0.71485 0.0
C2991 C 0.64764 0.27754 0.66193 0.0
C2992 C 0.6354 0.29511 0.65972 0.0
C2993 C 0.6437 0.31624 0.67548 0.0
C2994 C 0.66338 0.31972 0.69302 0.0
C2995 C 0.67485 0.30196 0.69475 0.0
C2996 C 0.66725 0.28129 0.67949 0.0
C2997 C 0.68255 0.26489 0.68492 0.0
C2998 C 0.66937 0.24315 0.69329 0.0
C2999 C 0.69383 0.25891 0.66226 0.0
C3000 C 0.69981 0.2793 0.70592 0.0
C3001 C 0.69518 0.30073 0.71123 0.0
C3002 C 0.70898 0.31712 0.72975 0.0
C3003 C 0.72788 0.31157 0.74296 0.0
C3004 C 0.7329 0.28974 0.73796 0.0
C3005 C 0.71853 0.27339 0.71919 0.0
H3006 H 0.02909 0.36487 0.94681 0.0
H3007 H 1.00307 0.33569 0.00891 0.0
H3008 H 1.00402 0.37494 0.02939 0.0
H3009 H 0.06758 0.41479 0.98206 0.0
H3010 H 0.06278 0.43327 0.95936 0.0
H3011 H 0.05963 0.40303 0.94989 0.0
H3012 H 0.01888 0.40043 0.92885 0.0
H3013 H 0.02191 0.43065 0.93833 0.0
H3014 H 0.99896 0.41034 0.94666 0.0
H3015 H 1.006 0.41914 0.04197 0.0
H3016 H 0.01237 0.46149 0.04686 0.0
H3017 H 0.03975 0.46178 0.97783 0.0
C3018 C 0.02361 0.36656 0.96479 0.0
C3019 C 0.01592 0.34669 0.97605 0.0
C3020 C 1.00909 0.35024 0.9997 0.0
C3021 C 0.0095 0.37264 0.01146 0.0
C3022 C 0.01701 0.39172 0.99964 0.0
C3023 C 0.0242 0.38876 0.97688 0.0
C3024 C 0.03193 0.41187 0.96802 0.0
C3025 C 0.05697 0.41598 0.96464 0.0
C3026 C 0.01704 0.41341 0.94404 0.0
C3027 C 0.02825 0.42851 0.98935 0.0
C3028 C 0.0192 0.41659 0.00726 0.0
C3029 C 0.01331 0.42838 0.02805 0.0
C3030 C 0.01691 0.4526 0.03066 0.0
C3031 C 0.02679 0.46532 0.01294 0.0
C3032 C 0.03252 0.45283 0.99201 0.0
H3033 H 0.98577 0.75793 0.13238 0.0
H3034 H 0.0273 0.82225 0.1706 0.0
H3035 H 0.99769 0.82574 0.19727 0.0
H3036 H 0.93168 0.77157 0.13263 0.0
H3037 H 0.91804 0.74356 0.13847 0.0
H3038 H 0.9422 0.74682 0.12228 0.0
H3039 H 0.96301 0.72713 0.15442 0.0
H3040 H 0.93873 0.72337 0.17038 0.0
H3041 H 0.96604 0.73804 0.18677 0.0
H3042 H 0.96222 0.82087 0.22082 0.0
H3043 H 0.92837 0.80627 0.2404 0.0
H3044 H 0.91109 0.74573 0.18555 0.0
C3045 C 0.98868 0.77284 0.14629 0.0
C3046 C 1.0089 0.78985 0.14925 0.0
C3047 C 0.01204 0.80889 0.168 0.0
C3048 C 0.99519 0.81109 0.18312 0.0
C3049 C 0.97529 0.79401 0.17947 0.0
C3050 C 0.97226 0.77512 0.16163 0.0
C3051 C 0.95027 0.7583 0.1621 0.0
C3052 C 0.93462 0.75487 0.1374 0.0
C3053 C 0.95478 0.73536 0.16881 0.0
C3054 C 0.94099 0.77069 0.18263 0.0
C3055 C 0.95552 0.7913 0.19261 0.0
C3056 C 0.95075 0.80482 0.21291 0.0
C3057 C 0.93131 0.79656 0.22378 0.0
C3058 C 0.91688 0.77496 0.21439 0.0
C3059 C 0.92156 0.76246 0.193 0.0
H3060 H 0.53465 0.34064 0.1883 0.0
H3061 H 0.52143 0.28244 0.13049 0.0
H3062 H 0.52307 0.30887 0.09898 0.0
H3063 H 0.5021 0.3754 0.15389 0.0
H3064 H 0.52183 0.40181 0.16681 0.0
H3065 H 0.51753 0.37819 0.18442 0.0
H3066 H 0.56041 0.37911 0.18959 0.0
H3067 H 0.56485 0.40287 0.17235 0.0
H3068 H 0.57431 0.37732 0.16252 0.0
H3069 H 0.52951 0.34297 0.07377 0.0
H3070 H 0.54181 0.38026 0.05859 0.0
H3071 H 0.55039 0.4153 0.13323 0.0
C3072 C 0.53186 0.33334 0.16901 0.0
C3073 C 0.52793 0.30936 0.16197 0.0
C3074 C 0.52438 0.30069 0.13644 0.0
C3075 C 0.52523 0.31562 0.11838 0.0
C3076 C 0.52936 0.33923 0.12604 0.0
C3077 C 0.53248 0.34794 0.15083 0.0
C3078 C 0.5377 0.3739 0.15457 0.0
C3079 C 0.51866 0.38285 0.16558 0.0
C3080 C 0.56068 0.38387 0.1707 0.0
C3081 C 0.53823 0.37861 0.12818 0.0
C3082 C 0.53288 0.35847 0.1118 0.0
C3083 C 0.5334 0.35877 0.08649 0.0
C3084 C 0.54024 0.38003 0.07796 0.0
C3085 C 0.54671 0.40067 0.09471 0.0
C3086 C 0.54513 0.39982 0.11999 0.0
H3087 H 0.95769 0.26591 0.31304 0.0
H3088 H 0.98226 0.33852 0.3386 0.0
H3089 H 0.94285 0.34362 0.33322 0.0
H3090 H 0.9119 0.27335 0.2659 0.0
H3091 H 0.89278 0.24749 0.27021 0.0
H3092 H 0.92283 0.24961 0.27543 0.0
H3093 H 0.92017 0.23995 0.31991 0.0
H3094 H 0.89016 0.23742 0.31399 0.0
H3095 H 0.90666 0.25664 0.34026 0.0
H3096 H 0.89961 0.34032 0.32745 0.0
H3097 H 0.85815 0.32981 0.31881 0.0
H3098 H 0.86013 0.2597 0.29443 0.0
C3099 C 0.95489 0.283 0.31727 0.0
C3100 C 0.97363 0.30187 0.32628 0.0
C3101 C 0.9687 0.32378 0.33147 0.0
C3102 C 0.94615 0.32679 0.3286 0.0
C3103 C 0.92822 0.30783 0.32007 0.0
C3104 C 0.93238 0.28638 0.31405 0.0
C3105 C 0.91004 0.26893 0.30463 0.0
C3106 C 0.90935 0.25927 0.27743 0.0
C3107 C 0.90657 0.2496 0.3207 0.0
C3108 C 0.89252 0.28362 0.30722 0.0
C3109 C 0.9035 0.30607 0.31601 0.0
C3110 C 0.89112 0.32284 0.32014 0.0
C3111 C 0.86729 0.31678 0.31484 0.0
C3112 C 0.85526 0.29418 0.3052 0.0
C3113 C 0.86838 0.27726 0.30172 0.0
H3114 H 0.03802 0.67053 0.67366 0.0
H3115 H 0.01091 0.70677 0.61791 0.0
H3116 H 1.00784 0.6734 0.58619 0.0
H3117 H 0.07233 0.64513 0.63706 0.0
H3118 H 0.0676 0.61788 0.64846 0.0
H3119 H 0.06514 0.64321 0.66772 0.0
H3120 H 0.02451 0.62364 0.67308 0.0
H3121 H 0.02692 0.59812 0.65402 0.0
H3122 H 1.004 0.61178 0.64611 0.0
H3123 H 1.00792 0.6366 0.5603 0.0
H3124 H 0.01392 0.60015 0.54112 0.0
H3125 H 0.04453 0.58751 0.61157 0.0
C3126 C 0.03078 0.67107 0.6549 0.0
C3127 C 0.02401 0.69109 0.6484 0.0
C3128 C 0.01559 0.69149 0.62344 0.0
C3129 C 0.01386 0.6726 0.60527 0.0
C3130 C 0.02084 0.65326 0.61211 0.0
C3131 C 0.02915 0.65225 0.63629 0.0
C3132 C 0.03677 0.62975 0.63807 0.0
C3133 C 0.06196 0.63427 0.64844 0.0
C3134 C 0.02219 0.61495 0.65376 0.0
C3135 C 0.03226 0.61878 0.61104 0.0
C3136 C 0.02258 0.63255 0.59664 0.0
C3137 C 0.01611 0.62607 0.57136 0.0
C3138 C 0.02015 0.60543 0.56036 0.0
C3139 C 0.0314 0.59145 0.57398 0.0
C3140 C 0.0368 0.598 0.60007 0.0
H3141 H 0.64252 0.81267 0.86423 0.0
H3142 H 0.60118 0.8057 0.79314 0.0
H3143 H 0.63418 0.80039 0.77247 0.0
H3144 H 0.69439 0.84442 0.84788 0.0
H3145 H 0.71231 0.83033 0.8661 0.0
H3146 H 0.68548 0.83318 0.87501 0.0
H3147 H 0.67388 0.78929 0.87438 0.0
H3148 H 0.70069 0.78637 0.86545 0.0
H3149 H 0.67484 0.7705 0.84681 0.0
H3150 H 0.67292 0.79407 0.75937 0.0
H3151 H 0.71194 0.79055 0.75546 0.0
H3152 H 0.72922 0.80371 0.8351 0.0
C3153 C 0.64022 0.8101 0.84425 0.0
C3154 C 0.61865 0.80968 0.83054 0.0
C3155 C 0.61707 0.8062 0.80438 0.0
C3156 C 0.63591 0.80309 0.79242 0.0
C3157 C 0.65673 0.80353 0.80658 0.0
C3158 C 0.65894 0.80712 0.83203 0.0
C3159 C 0.68312 0.80704 0.84319 0.0
C3160 C 0.69449 0.83012 0.85898 0.0
C3161 C 0.68313 0.78712 0.85836 0.0
C3162 C 0.69449 0.80329 0.82018 0.0
C3163 C 0.67884 0.80089 0.79921 0.0
C3164 C 0.68513 0.79625 0.77582 0.0
C3165 C 0.70758 0.79424 0.77377 0.0
C3166 C 0.72431 0.79718 0.79482 0.0
C3167 C 0.71732 0.80178 0.81843 0.0
H3168 H 0.46243 0.54301 0.69233 0.0
H3169 H 0.49248 0.48645 0.71034 0.0
H3170 H 0.50904 0.48642 0.67182 0.0
H3171 H 0.44798 0.52561 0.62757 0.0
H3172 H 0.45601 0.5538 0.61885 0.0
H3173 H 0.447 0.55057 0.6485 0.0
H3174 H 0.48438 0.5777 0.67017 0.0
H3175 H 0.49343 0.58107 0.64053 0.0
H3176 H 0.5109 0.57141 0.66391 0.0
H3177 H 0.52278 0.49218 0.63267 0.0
H3178 H 0.53266 0.50285 0.59314 0.0
H3179 H 0.49235 0.55424 0.59696 0.0
C3180 C 0.47258 0.5307 0.68817 0.0
C3181 C 0.47611 0.51467 0.70444 0.0
C3182 C 0.48957 0.49893 0.69835 0.0
C3183 C 0.49905 0.49875 0.67645 0.0
C3184 C 0.49512 0.51453 0.6608 0.0
C3185 C 0.48237 0.53035 0.66627 0.0
C3186 C 0.48109 0.5454 0.64589 0.0
C3187 C 0.45655 0.54372 0.63453 0.0
C3188 C 0.49316 0.57037 0.65571 0.0
C3189 C 0.4941 0.53466 0.62763 0.0
C3190 C 0.50245 0.51728 0.63713 0.0
C3191 C 0.51607 0.50549 0.62484 0.0
C3192 C 0.52141 0.51157 0.60221 0.0
C3193 C 0.51259 0.52876 0.59146 0.0
C3194 C 0.49872 0.54053 0.60438 0.0
H3195 H 0.76787 0.13602 0.96882 0.0
H3196 H 0.77531 0.18357 0.03607 0.0
H3197 H 0.77623 0.21553 0.01163 0.0
H3198 H 0.80483 0.17797 0.93602 0.0
H3199 H 0.78763 0.16671 0.90664 0.0
H3200 H 0.79087 0.1481 0.92964 0.0
H3201 H 0.74737 0.1363 0.92767 0.0
H3202 H 0.74407 0.15457 0.90454 0.0
H3203 H 0.73163 0.15827 0.93243 0.0
H3204 H 0.76946 0.24063 0.98004 0.0
H3205 H 0.7562 0.2571 0.94336 0.0
H3206 H 0.75608 0.19435 0.89649 0.0
C3207 C 0.77013 0.15324 0.97835 0.0
C3208 C 0.77156 0.15738 0.00425 0.0
C3209 C 0.77442 0.18008 0.01621 0.0
C3210 C 0.77504 0.19836 0.0025 0.0
C3211 C 0.77336 0.1937 0.97692 0.0
C3212 C 0.77131 0.17175 0.96498 0.0
C3213 C 0.76835 0.17116 0.93724 0.0
C3214 C 0.78916 0.16566 0.92676 0.0
C3215 C 0.74655 0.15407 0.92476 0.0
C3216 C 0.76692 0.19572 0.93542 0.0
C3217 C 0.77044 0.2086 0.95855 0.0
C3218 C 0.76729 0.23095 0.9618 0.0
C3219 C 0.75968 0.24014 0.94097 0.0
C3220 C 0.75544 0.22698 0.91732 0.0
C3221 C 0.75981 0.20484 0.91441 0.0
H3222 H 0.13704 0.52281 0.17641 0.0
H3223 H 0.14074 0.59303 0.20823 0.0
H3224 H 0.11915 0.59932 0.16986 0.0
H3225 H 0.14185 0.53264 0.11373 0.0
H3226 H 0.12138 0.50688 0.10028 0.0
H3227 H 0.13803 0.50792 0.12977 0.0
H3228 H 0.10153 0.49646 0.14957 0.0
H3229 H 0.0849 0.49496 0.12 0.0
H3230 H 0.0802 0.51302 0.14637 0.0
H3231 H 0.09638 0.59765 0.12945 0.0
H3232 H 0.07063 0.58699 0.0899 0.0
H3233 H 0.08235 0.51814 0.08436 0.0
C3234 C 0.13335 0.53952 0.17523 0.0
C3235 C 0.14053 0.55751 0.19502 0.0
C3236 C 0.13519 0.57904 0.19316 0.0
C3237 C 0.12319 0.58283 0.17144 0.0
C3238 C 0.11667 0.56484 0.15207 0.0
C3239 C 0.12126 0.54352 0.15383 0.0
C3240 C 0.11096 0.52665 0.13097 0.0
C3241 C 0.12915 0.51803 0.11792 0.0
C3242 C 0.09336 0.5066 0.13711 0.0
C3243 C 0.09991 0.5419 0.11609 0.0
C3244 C 0.10351 0.56389 0.12854 0.0
C3245 C 0.09359 0.5806 0.11935 0.0
C3246 C 0.07904 0.57443 0.09707 0.0
C3247 C 0.07498 0.55192 0.08441 0.0
C3248 C 0.08579 0.53559 0.09366 0.0
H3249 H 0.80635 0.81854 0.47121 0.0
H3250 H 0.79408 0.88689 0.46908 0.0
H3251 H 0.79049 0.88082 0.42387 0.0
H3252 H 0.83935 0.81806 0.42084 0.0
H3253 H 0.82714 0.78845 0.40875 0.0
H3254 H 0.82883 0.79818 0.44118 0.0
H3255 H 0.78555 0.78231 0.43782 0.0
H3256 H 0.78412 0.77303 0.40528 0.0
H3257 H 0.76672 0.7919 0.41571 0.0
H3258 H 0.78867 0.8684 0.3796 0.0
H3259 H 0.78719 0.84947 0.33746 0.0
H3260 H 0.80063 0.7886 0.36622 0.0
C3261 C 0.80288 0.83219 0.46121 0.0
C3262 C 0.80061 0.85327 0.47387 0.0
C3263 C 0.79597 0.87064 0.46 0.0
C3264 C 0.79391 0.86738 0.43423 0.0
C3265 C 0.79648 0.84663 0.42238 0.0
C3266 C 0.80072 0.82922 0.43525 0.0
C3267 C 0.80244 0.80853 0.41755 0.0
C3268 C 0.82585 0.80301 0.42238 0.0
C3269 C 0.78359 0.78771 0.41919 0.0
C3270 C 0.79893 0.81731 0.39287 0.0
C3271 C 0.79541 0.83931 0.3963 0.0
C3272 C 0.79137 0.85116 0.37663 0.0
C3273 C 0.79054 0.84019 0.35271 0.0
C3274 C 0.7937 0.81748 0.34844 0.0
C3275 C 0.79832 0.806 0.36889 0.0
H3276 H 0.43737 0.51351 0.85994 0.0
H3277 H 0.49472 0.53162 0.82086 0.0
H3278 H 0.52058 0.53542 0.85993 0.0
H3279 H 0.45928 0.55236 0.91489 0.0
H3280 H 0.44768 0.53299 0.93517 0.0
H3281 H 0.43387 0.53067 0.904 0.0
H3282 H 0.43635 0.48801 0.8962 0.0
H3283 H 0.45015 0.49028 0.92742 0.0
H3284 H 0.46343 0.48066 0.90191 0.0
H3285 H 0.54031 0.53611 0.90388 0.0
H3286 H 0.55165 0.53692 0.9488 0.0
H3287 H 0.48126 0.521 0.95903 0.0
C3288 C 0.45536 0.51823 0.85949 0.0
C3289 C 0.46395 0.52221 0.83718 0.0
C3290 C 0.48767 0.5284 0.83761 0.0
C3291 C 0.50251 0.53056 0.85974 0.0
C3292 C 0.49344 0.52648 0.88137 0.0
C3293 C 0.47038 0.52054 0.88138 0.0
C3294 C 0.46481 0.5176 0.90713 0.0
C3295 C 0.45057 0.53442 0.9158 0.0
C3296 C 0.45298 0.49266 0.90822 0.0
C3297 C 0.48826 0.52344 0.92178 0.0
C3298 C 0.50463 0.52798 0.90656 0.0
C3299 C 0.52758 0.53278 0.91591 0.0
C3300 C 0.53388 0.53316 0.94139 0.0
C3301 C 0.51732 0.52937 0.95732 0.0
C3302 C 0.49426 0.52438 0.9473 0.0
H3303 H 0.79915 0.20315 0.1186 0.0
H3304 H 0.74897 0.14565 0.13294 0.0
H3305 H 0.74332 0.16869 0.17087 0.0
H3306 H 0.82602 0.21948 0.17773 0.0
H3307 H 0.83114 0.24994 0.17694 0.0
H3308 H 0.82848 0.23062 0.14887 0.0
H3309 H 0.79617 0.24755 0.12889 0.0
H3310 H 0.799 0.26729 0.15682 0.0
H3311 H 0.77203 0.24867 0.1445 0.0
H3312 H 0.74165 0.19947 0.20532 0.0
H3313 H 0.74967 0.23302 0.238 0.0
H3314 H 0.80672 0.26498 0.20585 0.0
C3315 C 0.78677 0.19555 0.12957 0.0
C3316 C 0.77448 0.17284 0.12315 0.0
C3317 C 0.7586 0.16314 0.1379 0.0
C3318 C 0.7551 0.1761 0.15919 0.0
C3319 C 0.76779 0.19844 0.16525 0.0
C3320 C 0.78345 0.208 0.15101 0.0
C3321 C 0.79645 0.23151 0.16271 0.0
C3322 C 0.82204 0.23294 0.16682 0.0
C3323 C 0.79056 0.24983 0.14732 0.0
C3324 C 0.78688 0.23292 0.18663 0.0
C3325 C 0.7695 0.21433 0.18715 0.0
C3326 C 0.75617 0.21337 0.20595 0.0
C3327 C 0.76133 0.23176 0.22506 0.0
C3328 C 0.78057 0.2494 0.22617 0.0
C3329 C 0.79304 0.25046 0.20633 0.0
H3330 H 0.16998 0.58585 0.32272 0.0
H3331 H 0.14709 0.51255 0.29953 0.0
H3332 H 0.12205 0.51034 0.33189 0.0
H3333 H 0.16876 0.58546 0.38835 0.0
H3334 H 0.15884 0.61166 0.3916 0.0
H3335 H 0.17642 0.60668 0.36841 0.0
H3336 H 0.14604 0.61312 0.33457 0.0
H3337 H 0.12827 0.61805 0.35751 0.0
H3338 H 0.11763 0.59615 0.3313 0.0
H3339 H 0.0982 0.51717 0.36575 0.0
H3340 H 0.07713 0.5326 0.39721 0.0
H3341 H 0.11549 0.60125 0.39527 0.0
C3342 C 0.16004 0.56921 0.32463 0.0
C3343 C 0.16049 0.54936 0.30883 0.0
C3344 C 0.147 0.52796 0.31169 0.0
C3345 C 0.1328 0.52654 0.32996 0.0
C3346 C 0.13247 0.54668 0.34496 0.0
C3347 C 0.14579 0.56756 0.3424 0.0
C3348 C 0.14145 0.58701 0.35941 0.0
C3349 C 0.16262 0.59836 0.37805 0.0
C3350 C 0.13283 0.6046 0.34482 0.0
C3351 C 0.12323 0.57396 0.37171 0.0
C3352 C 0.11839 0.55068 0.3635 0.0
C3353 C 0.10185 0.53536 0.37231 0.0
C3354 C 0.08998 0.54421 0.38998 0.0
C3355 C 0.0946 0.56808 0.39805 0.0
C3356 C 0.11144 0.583 0.38891 0.0
H3357 H 0.83447 0.8617 0.63013 0.0
H3358 H 0.76522 0.84938 0.59425 0.0
H3359 H 0.75199 0.83281 0.63054 0.0
H3360 H 0.8308 0.81153 0.65968 0.0
H3361 H 0.84866 0.82664 0.68747 0.0
H3362 H 0.85205 0.83688 0.65839 0.0
H3363 H 0.8464 0.8767 0.67675 0.0
H3364 H 0.8431 0.86629 0.70571 0.0
H3365 H 0.82143 0.87828 0.69073 0.0
H3366 H 0.74651 0.82066 0.67327 0.0
H3367 H 0.74981 0.80906 0.71521 0.0
H3368 H 0.82262 0.82494 0.71963 0.0
C3369 C 0.81652 0.85525 0.62966 0.0
C3370 C 0.80091 0.85689 0.60931 0.0
C3371 C 0.77754 0.84841 0.60967 0.0
C3372 C 0.76985 0.83902 0.63024 0.0
C3373 C 0.78574 0.83822 0.65029 0.0
C3374 C 0.80861 0.84582 0.64991 0.0
C3375 C 0.8223 0.84371 0.67386 0.0
C3376 C 0.83945 0.82878 0.66957 0.0
C3377 C 0.83399 0.86766 0.68756 0.0
C3378 C 0.80376 0.83235 0.68726 0.0
C3379 C 0.78268 0.83024 0.67392 0.0
C3380 C 0.76297 0.82202 0.68368 0.0
C3381 C 0.76497 0.81557 0.7075 0.0
C3382 C 0.78645 0.81646 0.72074 0.0
C3383 C 0.806 0.82468 0.71026 0.0
H3384 H 0.72133 0.43728 0.49861 0.0
H3385 H 0.75199 0.49775 0.46865 0.0
H3386 H 0.72291 0.51736 0.48238 0.0
H3387 H 0.66095 0.44316 0.49103 0.0
H3388 H 0.65754 0.43442 0.52088 0.0
H3389 H 0.67633 0.42308 0.5025 0.0
H3390 H 0.70884 0.43698 0.5391 0.0
H3391 H 0.6905 0.44892 0.55742 0.0
H3392 H 0.71639 0.46687 0.55193 0.0
H3393 H 0.69625 0.53245 0.50612 0.0
H3394 H 0.67198 0.54184 0.53672 0.0
H3395 H 0.66028 0.47191 0.55312 0.0
C3396 C 0.72104 0.45414 0.49366 0.0
C3397 C 0.73822 0.46596 0.48207 0.0
C3398 C 0.73842 0.48846 0.47708 0.0
C3399 C 0.72207 0.49965 0.48483 0.0
C3400 C 0.70607 0.48801 0.49768 0.0
C3401 C 0.70536 0.46569 0.50197 0.0
C3402 C 0.68947 0.4585 0.52007 0.0
C3403 C 0.6699 0.43862 0.50788 0.0
C3404 C 0.70207 0.45247 0.54349 0.0
C3405 C 0.68161 0.48035 0.5256 0.0
C3406 C 0.69121 0.49708 0.51237 0.0
C3407 C 0.68813 0.51935 0.51611 0.0
C3408 C 0.67448 0.52452 0.53357 0.0
C3409 C 0.66426 0.50745 0.547 0.0
C3410 C 0.66794 0.48518 0.54303 0.0
H3411 H 0.19201 0.11821 0.49042 0.0
H3412 H 0.19829 0.16574 0.55755 0.0
H3413 H 0.16633 0.14026 0.57077 0.0
H3414 H 0.13153 0.10527 0.47999 0.0
H3415 H 0.12855 0.07553 0.468 0.0
H3416 H 0.15344 0.09625 0.46477 0.0
H3417 H 0.17818 0.07207 0.48639 0.0
H3418 H 0.15324 0.05154 0.49013 0.0
H3419 H 0.17363 0.06511 0.51667 0.0
H3420 H 0.13513 0.1093 0.57802 0.0
H3421 H 0.10011 0.07927 0.57412 0.0
H3422 H 0.1096 0.05471 0.49994 0.0
C3423 C 0.18667 0.1231 0.50794 0.0
C3424 C 0.19777 0.14384 0.52311 0.0
C3425 C 0.19006 0.14994 0.54566 0.0
C3426 C 0.17207 0.13546 0.55348 0.0
C3427 C 0.16165 0.11505 0.53838 0.0
C3428 C 0.16816 0.10909 0.51576 0.0
C3429 C 0.15242 0.08722 0.50213 0.0
C3430 C 0.14079 0.09133 0.47726 0.0
C3431 C 0.16514 0.06785 0.49862 0.0
C3432 C 0.1358 0.08236 0.52036 0.0
C3433 C 0.1421 0.0981 0.54158 0.0
C3434 C 0.12992 0.09693 0.56145 0.0
C3435 C 0.11018 0.07979 0.55916 0.0
C3436 C 0.10237 0.06479 0.53684 0.0
C3437 C 0.11553 0.06576 0.51736 0.0
H3438 H 0.19003 0.98856 0.82588 0.0
H3439 H 0.15594 0.99282 0.75345 0.0
H3440 H 0.16823 0.95883 0.73604 0.0
H3441 H 0.23806 0.97538 0.80528 0.0
H3442 H 0.24243 0.95578 0.82685 0.0
H3443 H 0.22801 0.97815 0.83474 0.0
H3444 H 0.19385 0.9479 0.84276 0.0
H3445 H 0.20815 0.92536 0.8347 0.0
H3446 H 0.18045 0.92452 0.81881 0.0
H3447 H 0.18714 0.92775 0.72519 0.0
H3448 H 0.21411 0.90261 0.72115 0.0
H3449 H 0.23683 0.91783 0.79991 0.0
C3450 C 0.18487 0.98202 0.80647 0.0
C3451 C 0.17207 0.9933 0.791 0.0
C3452 C 0.16592 0.98455 0.7656 0.0
C3453 C 0.17259 0.96509 0.75557 0.0
C3454 C 0.18548 0.95454 0.77113 0.0
C3455 C 0.1917 0.96268 0.79602 0.0
C3456 C 0.20771 0.94954 0.80793 0.0
C3457 C 0.23039 0.96568 0.81936 0.0
C3458 C 0.19688 0.93603 0.82719 0.0
C3459 C 0.21025 0.93357 0.7856 0.0
C3460 C 0.1968 0.93641 0.76472 0.0
C3461 C 0.19747 0.92503 0.74144 0.0
C3462 C 0.21279 0.91086 0.73928 0.0
C3463 C 0.22718 0.90827 0.76026 0.0
C3464 C 0.22554 0.91926 0.78377 0.0
H3465 H 0.37029 0.9829 0.99673 0.0
H3466 H 0.37055 0.97191 0.07333 0.0
H3467 H 0.41152 0.98881 0.08178 0.0
H3468 H 0.4217 0.96635 0.99028 0.0
H3469 H 0.43078 0.9869 0.97008 0.0
H3470 H 0.40113 0.97613 0.97047 0.0
H3471 H 0.39605 0.01777 0.98007 0.0
H3472 H 0.42576 0.02854 0.97979 0.0
H3473 H 0.41303 0.03638 0.00647 0.0
H3474 H 0.45189 0.00661 0.08192 0.0
H3475 H 0.49023 0.02162 0.07256 0.0
H3476 H 0.464 0.0169 0.99536 0.0
C3477 C 0.37889 0.98453 0.01539 0.0
C3478 C 0.36739 0.97659 0.03458 0.0
C3479 C 0.3792 0.97821 0.05856 0.0
C3480 C 0.40235 0.98779 0.06351 0.0
C3481 C 0.41325 0.99531 0.04416 0.0
C3482 C 0.40201 0.99361 0.02052 0.0
C3483 C 0.41805 1.00119 0.00261 0.0
C3484 C 0.4179 0.98146 0.98217 0.0
C3485 C 0.41291 0.02222 0.9916 0.0
C3486 C 0.44 0.0073 0.01996 0.0
C3487 C 0.43684 1.00407 0.04387 0.0
C3488 C 0.45465 0.00878 0.06319 0.0
C3489 C 0.47638 0.01673 0.05773 0.0
C3490 C 0.47991 0.01912 0.03327 0.0
C3491 C 0.46155 0.0148 0.01423 0.0
H3492 H 0.88433 0.61179 0.8313 0.0
H3493 H 0.82305 0.56012 0.82949 0.0
H3494 H 0.8006 0.58551 0.81188 0.0
H3495 H 0.85773 0.66453 0.83978 0.0
H3496 H 0.87556 0.67839 0.81951 0.0
H3497 H 0.88582 0.65975 0.83932 0.0
H3498 H 0.89497 0.63612 0.80102 0.0
H3499 H 0.88412 0.65402 0.78097 0.0
H3500 H 0.87271 0.62354 0.77582 0.0
H3501 H 0.78633 0.61133 0.78578 0.0
H3502 H 0.78057 0.63828 0.75616 0.0
H3503 H 0.85139 0.67211 0.77306 0.0
C3504 C 0.86609 0.60647 0.82863 0.0
C3505 C 0.85529 0.58427 0.83189 0.0
C3506 C 0.83148 0.5773 0.82729 0.0
C3507 C 0.81863 0.59158 0.81729 0.0
C3508 C 0.82994 0.61271 0.81229 0.0
C3509 C 0.85312 0.62038 0.81825 0.0
C3510 C 0.86159 0.64184 0.80724 0.0
C3511 C 0.8707 0.66235 0.82768 0.0
C3512 C 0.87938 0.63865 0.79027 0.0
C3513 C 0.83988 0.64398 0.79267 0.0
C3514 C 0.82173 0.6274 0.79633 0.0
C3515 C 0.80027 0.62477 0.78323 0.0
C3516 C 0.79722 0.63985 0.76628 0.0
C3517 C 0.81567 0.65686 0.76238 0.0
C3518 C 0.83718 0.65898 0.77569 0.0
H3519 H 0.83048 0.62909 0.98574 0.0
H3520 H 0.83142 0.67016 0.05607 0.0
H3521 H 0.8661 0.65916 0.07265 0.0
H3522 H 0.84521 0.58317 0.00953 0.0
H3523 H 0.86299 0.57666 0.98703 0.0
H3524 H 0.84068 0.59094 0.97896 0.0
H3525 H 0.86954 0.62398 0.96639 0.0
H3526 H 0.89203 0.60981 0.97455 0.0
H3527 H 0.8938 0.63885 0.98826 0.0
H3528 H 0.89663 0.64 0.08378 0.0
H3529 H 0.92083 0.61225 0.08913 0.0
H3530 H 0.90119 0.58335 0.01209 0.0
C3531 C 0.83832 0.63614 0.00443 0.0
C3532 C 0.82827 0.65044 0.01964 0.0
C3533 C 0.83875 0.65905 0.04414 0.0
C3534 C 0.85859 0.65311 0.05366 0.0
C3535 C 0.86784 0.63861 0.03845 0.0
C3536 C 0.85814 0.63021 0.01434 0.0
C3537 C 0.87016 0.61289 0.00294 0.0
C3538 C 0.85378 0.58954 0.99412 0.0
C3539 C 0.8821 0.62193 0.98178 0.0
C3540 C 0.88711 0.61184 0.02494 0.0
C3541 C 0.88583 0.62731 0.045 0.0
C3542 C 0.89817 0.62814 0.06813 0.0
C3543 C 0.91174 0.61232 0.07105 0.0
C3544 C 0.91278 0.59598 0.05098 0.0
C3545 C 0.90085 0.59608 0.0275 0.0
H3546 H 0.20019 0.11863 0.75566 0.0
H3547 H 0.17408 0.12525 0.82547 0.0
H3548 H 0.19564 0.16555 0.8348 0.0
H3549 H 0.25622 0.15236 0.77791 0.0
H3550 H 0.259 0.16498 0.74995 0.0
H3551 H 0.24133 0.13686 0.74875 0.0
H3552 H 0.20734 0.15043 0.72723 0.0
H3553 H 0.225 0.17852 0.7283 0.0
H3554 H 0.19921 0.17527 0.74167 0.0
H3555 H 0.21869 0.20615 0.83517 0.0
H3556 H 0.24281 0.24242 0.82765 0.0
H3557 H 0.25579 0.20807 0.7591 0.0
C3558 C 0.19901 0.12849 0.77297 0.0
C3559 C 0.18539 0.1187 0.78983 0.0
C3560 C 0.18443 0.13228 0.81228 0.0
C3561 C 0.19659 0.15522 0.81771 0.0
C3562 C 0.20982 0.1643 0.80063 0.0
C3563 C 0.2112 0.15126 0.77878 0.0
C3564 C 0.22676 0.16491 0.76358 0.0
C3565 C 0.24703 0.15413 0.75984 0.0
C3566 C 0.2138 0.16742 0.73873 0.0
C3567 C 0.234 0.18767 0.78025 0.0
C3568 C 0.22383 0.18712 0.8014 0.0
C3569 C 0.22693 0.20662 0.81882 0.0
C3570 C 0.24063 0.22713 0.8144 0.0
C3571 C 0.25139 0.22792 0.79299 0.0
C3572 C 0.24818 0.20783 0.77589 0.0
H3573 H 0.35521 0.95517 0.31848 0.0
H3574 H 0.32693 0.96079 0.24391 0.0
H3575 H 0.30843 0.91963 0.23785 0.0
H3576 H 0.36974 0.90275 0.303 0.0
H3577 H 0.36358 0.89159 0.33107 0.0
H3578 H 0.37208 0.92203 0.33119 0.0
H3579 H 0.33564 0.92754 0.34877 0.0
H3580 H 0.32747 0.89707 0.34884 0.0
H3581 H 0.30852 0.91166 0.33287 0.0
H3582 H 0.29407 0.87918 0.23931 0.0
H3583 H 0.28687 0.83898 0.24686 0.0
H3584 H 0.32779 0.85889 0.31871 0.0
C3585 C 0.3448 0.94783 0.30102 0.0
C3586 C 0.34208 0.96095 0.28165 0.0
C3587 C 0.32893 0.95082 0.25887 0.0
C3588 C 0.31832 0.92765 0.25538 0.0
C3589 C 0.3215 0.91517 0.27476 0.0
C3590 C 0.33459 0.92473 0.29708 0.0
C3591 C 0.33723 0.90693 0.31386 0.0
C3592 C 0.36214 0.90577 0.32012 0.0
C3593 C 0.32656 0.91106 0.33746 0.0
C3594 C 0.32387 0.88585 0.2971 0.0
C3595 C 0.31457 0.89115 0.27493 0.0
C3596 C 0.30138 0.8747 0.25642 0.0
C3597 C 0.29762 0.85205 0.26066 0.0
C3598 C 0.30759 0.8464 0.28278 0.0
C3599 C 0.32067 0.86324 0.30138 0.0
H3600 H 0.58352 0.37216 0.54559 0.0
H3601 H 0.54164 0.36179 0.60351 0.0
H3602 H 0.52908 0.39752 0.59716 0.0
H3603 H 0.60233 0.43301 0.559 0.0
H3604 H 0.60055 0.43817 0.52729 0.0
H3605 H 0.60535 0.41119 0.53516 0.0
H3606 H 0.57038 0.38965 0.50406 0.0
H3607 H 0.56555 0.41663 0.49606 0.0
H3608 H 0.54348 0.39686 0.5065 0.0
H3609 H 0.51947 0.43425 0.58296 0.0
H3610 H 0.51671 0.46972 0.5659 0.0
H3611 H 0.56776 0.46004 0.51988 0.0
C3612 C 0.57164 0.37729 0.55698 0.0
C3613 C 0.56365 0.3636 0.57521 0.0
C3614 C 0.5481 0.37143 0.58944 0.0
C3615 C 0.54081 0.39189 0.5859 0.0
C3616 C 0.54908 0.40486 0.56796 0.0
C3617 C 0.56424 0.39787 0.55374 0.0
C3618 C 0.57065 0.41518 0.53585 0.0
C3619 C 0.59625 0.42497 0.53956 0.0
C3620 C 0.56202 0.40391 0.50903 0.0
C3621 C 0.55784 0.43369 0.54317 0.0
C3622 C 0.54484 0.42683 0.5611 0.0
C3623 C 0.53007 0.43987 0.5694 0.0
C3624 C 0.52874 0.46033 0.55961 0.0
C3625 C 0.54269 0.46878 0.54222 0.0
C3626 C 0.5574 0.45487 0.5338 0.0
H3627 H 0.43419 0.73618 0.36792 0.0
H3628 H 0.44745 0.79607 0.42379 0.0
H3629 H 0.41416 0.80781 0.40401 0.0
H3630 H 0.41529 0.7633 0.31664 0.0
H3631 H 0.39342 0.73889 0.30249 0.0
H3632 H 0.41823 0.73476 0.3209 0.0
H3633 H 0.39312 0.71195 0.34856 0.0
H3634 H 0.36828 0.7159 0.33007 0.0
H3635 H 0.37285 0.7248 0.36296 0.0
H3636 H 0.38033 0.81424 0.37722 0.0
H3637 H 0.34715 0.81349 0.3468 0.0
H3638 H 0.35376 0.74874 0.30901 0.0
C3639 C 0.43006 0.75172 0.37609 0.0
C3640 C 0.44365 0.76516 0.3976 0.0
C3641 C 0.43746 0.78536 0.40751 0.0
C3642 C 0.41855 0.79225 0.39632 0.0
C3643 C 0.4057 0.77876 0.37515 0.0
C3644 C 0.41106 0.75882 0.36518 0.0
C3645 C 0.39419 0.74741 0.34235 0.0
C3646 C 0.406 0.74601 0.31923 0.0
C3647 C 0.38135 0.7236 0.34623 0.0
C3648 C 0.37859 0.76406 0.34107 0.0
C3649 C 0.38565 0.78206 0.36015 0.0
C3650 C 0.37438 0.79991 0.36261 0.0
C3651 C 0.35523 0.79915 0.34549 0.0
C3652 C 0.34706 0.78052 0.32633 0.0
C3653 C 0.35928 0.76298 0.32381 0.0
H3654 H 0.09374 0.71335 0.09105 0.0
H3655 H 0.03142 0.72877 0.05885 0.0
H3656 H 0.01804 0.68805 0.03993 0.0
H3657 H 0.10037 0.67252 0.04078 0.0
H3658 H 0.11078 0.65405 0.06066 0.0
H3659 H 0.11525 0.68424 0.07124 0.0
H3660 H 0.09603 0.67499 0.10954 0.0
H3661 H 0.09138 0.64476 0.09884 0.0
H3662 H 0.06792 0.65721 0.10524 0.0
H3663 H 0.01115 0.64438 0.02497 0.0
H3664 H 0.01157 0.60352 0.01499 0.0
H3665 H 0.07885 0.61611 0.05614 0.0
C3666 C 0.07728 0.70833 0.07991 0.0
C3667 C 0.06376 0.72478 0.07648 0.0
C3668 C 0.04224 0.71692 0.06189 0.0
C3669 C 0.03449 0.69367 0.05103 0.0
C3670 C 0.04828 0.67805 0.05487 0.0
C3671 C 0.06925 0.68515 0.06904 0.0
C3672 C 0.08067 0.66493 0.07082 0.0
C3673 C 0.1031 0.6692 0.06024 0.0
C3674 C 0.08422 0.6602 0.0977 0.0
C3675 C 0.06322 0.64537 0.05485 0.0
C3676 C 0.0445 0.65327 0.04611 0.0
C3677 C 0.02584 0.63825 0.03169 0.0
C3678 C 0.02625 0.61487 0.02609 0.0
C3679 C 0.04529 0.60619 0.03444 0.0
C3680 C 0.06408 0.62195 0.04905 0.0
H3681 H 0.09034 0.2568 0.9209 0.0
H3682 H 0.04441 0.29462 0.88755 0.0
H3683 H 0.07012 0.30454 0.85708 0.0
H3684 H 0.14043 0.2954 0.9169 0.0
H3685 H 0.15625 0.27395 0.90974 0.0
H3686 H 0.13305 0.26771 0.927 0.0
H3687 H 0.11455 0.23213 0.89468 0.0
H3688 H 0.13764 0.23843 0.87713 0.0
H3689 H 0.10905 0.2355 0.86259 0.0
H3690 H 0.10204 0.31275 0.83208 0.0
H3691 H 0.13905 0.32133 0.81704 0.0
H3692 H 0.16477 0.27901 0.86686 0.0
C3693 C 0.08552 0.26694 0.90701 0.0
C3694 C 0.06523 0.27485 0.90665 0.0
C3695 C 0.05977 0.28829 0.88826 0.0
C3696 C 0.07424 0.29391 0.87074 0.0
C3697 C 0.09412 0.28591 0.87169 0.0
C3698 C 0.09981 0.27277 0.88941 0.0
C3699 C 0.12291 0.26769 0.88747 0.0
C3700 C 0.13911 0.27674 0.91171 0.0
C3701 C 0.12092 0.2419 0.88003 0.0
C3702 C 0.12984 0.28101 0.86675 0.0
C3703 C 0.11269 0.29085 0.85743 0.0
C3704 C 0.11544 0.30486 0.83899 0.0
C3705 C 0.13644 0.30954 0.83044 0.0
C3706 C 0.15448 0.30041 0.84042 0.0
C3707 C 0.15099 0.28563 0.85846 0.0
H3708 H 0.56171 0.7728 0.94019 0.0
H3709 H 0.53282 0.74286 0.86499 0.0
H3710 H 0.52498 0.70447 0.87816 0.0
H3711 H 0.58731 0.7252 0.95586 0.0
H3712 H 0.58087 0.72789 0.98704 0.0
H3713 H 0.58593 0.75277 0.97136 0.0
H3714 H 0.54711 0.76076 0.97918 0.0
H3715 H 0.54214 0.7362 0.99522 0.0
H3716 H 0.52199 0.73842 0.96949 0.0
H3717 H 0.51831 0.66928 0.90024 0.0
H3718 H 0.51008 0.6416 0.92984 0.0
H3719 H 0.54274 0.69449 0.99046 0.0
C3720 C 0.55396 0.75817 0.9264 0.0
C3721 C 0.54806 0.76096 0.90148 0.0
C3722 C 0.53765 0.74127 0.88416 0.0
C3723 C 0.53321 0.71932 0.89145 0.0
C3724 C 0.53933 0.71719 0.91615 0.0
C3725 C 0.54936 0.73615 0.93338 0.0
C3726 C 0.55296 0.72948 0.95905 0.0
C3727 C 0.57828 0.73411 0.96891 0.0
C3728 C 0.54029 0.74195 0.97677 0.0
C3729 C 0.5427 0.70395 0.95379 0.0
C3730 C 0.53538 0.69707 0.92884 0.0
C3731 C 0.52432 0.67445 0.91974 0.0
C3732 C 0.51992 0.65875 0.93662 0.0
C3733 C 0.52641 0.66574 0.96231 0.0
C3734 C 0.53835 0.68852 0.97085 0.0
H3735 H 0.11734 0.79246 0.71934 0.0
H3736 H 0.08586 0.73286 0.7503 0.0
H3737 H 0.12374 0.72847 0.7677 0.0
H3738 H 0.16465 0.77334 0.70158 0.0
H3739 H 0.18464 0.80036 0.71078 0.0
H3740 H 0.15521 0.79982 0.70214 0.0
H3741 H 0.15454 0.82355 0.7441 0.0
H3742 H 0.18405 0.8243 0.75278 0.0
H3743 H 0.16381 0.81351 0.7723 0.0
H3744 H 0.166 0.7304 0.78164 0.0
H3745 H 0.20732 0.73786 0.78994 0.0
H3746 H 0.21253 0.79506 0.74841 0.0
C3747 C 0.1183 0.77855 0.72998 0.0
C3748 C 0.09815 0.76299 0.73335 0.0
C3749 C 0.10063 0.74516 0.74749 0.0
C3750 C 0.12225 0.7425 0.75742 0.0
C3751 C 0.14162 0.75793 0.75345 0.0
C3752 C 0.13982 0.77578 0.74024 0.0
C3753 C 0.16333 0.79003 0.73866 0.0
C3754 C 0.16718 0.79092 0.71168 0.0
C3755 C 0.16662 0.81429 0.75279 0.0
C3756 C 0.17871 0.77667 0.75175 0.0
C3757 C 0.16578 0.75858 0.7607 0.0
C3758 C 0.17609 0.74441 0.77438 0.0
C3759 C 0.1999 0.74869 0.77893 0.0
C3760 C 0.21385 0.76655 0.76939 0.0
C3761 C 0.20275 0.78083 0.75564 0.0
H3762 H 0.05856 0.4095 0.38793 0.0
H3763 H 0.04323 0.35225 0.42896 0.0
H3764 H 0.03974 0.37898 0.46525 0.0
H3765 H 0.09309 0.44936 0.43897 0.0
H3766 H 0.08338 0.47379 0.42952 0.0
H3767 H 0.08391 0.45003 0.40679 0.0
H3768 H 0.04138 0.44611 0.3916 0.0
H3769 H 0.04085 0.46981 0.41444 0.0
H3770 H 0.02153 0.44263 0.41339 0.0
H3771 H 0.03468 0.41251 0.49629 0.0
H3772 H 0.03373 0.44926 0.52048 0.0
H3773 H 0.05903 0.48525 0.46202 0.0
C3774 C 0.0546 0.40255 0.4046 0.0
C3775 C 0.05116 0.37859 0.40542 0.0
C3776 C 0.04609 0.37041 0.42774 0.0
C3777 C 0.04393 0.38552 0.44846 0.0
C3778 C 0.04724 0.40898 0.44692 0.0
C3779 C 0.0529 0.41747 0.42565 0.0
C3780 C 0.05641 0.44347 0.42901 0.0
C3781 C 0.08065 0.45483 0.4259 0.0
C3782 C 0.03901 0.45094 0.41104 0.0
C3783 C 0.05212 0.44837 0.45555 0.0
C3784 C 0.04623 0.42821 0.46535 0.0
C3785 C 0.03987 0.42837 0.48892 0.0
C3786 C 0.03971 0.44952 0.50279 0.0
C3787 C 0.04659 0.47061 0.49366 0.0
C3788 C 0.0531 0.46972 0.46965 0.0
H3789 H 0.46107 0.30043 0.24674 0.0
H3790 H 0.44689 0.22777 0.21995 0.0
H3791 H 0.40762 0.22422 0.2292 0.0
H3792 H 0.42704 0.29541 0.29791 0.0
H3793 H 0.41801 0.32169 0.29456 0.0
H3794 H 0.44489 0.3183 0.28623 0.0
H3795 H 0.43329 0.32765 0.24252 0.0
H3796 H 0.40639 0.33094 0.25075 0.0
H3797 H 0.40756 0.31105 0.22419 0.0
H3798 H 0.36756 0.22974 0.23813 0.0
H3799 H 0.33379 0.2424 0.25007 0.0
H3800 H 0.37453 0.31063 0.2752 0.0
C3801 C 0.44986 0.28362 0.24305 0.0
C3802 C 0.45759 0.26432 0.23247 0.0
C3803 C 0.44192 0.24284 0.22811 0.0
C3804 C 0.41935 0.24071 0.23323 0.0
C3805 C 0.4123 0.26012 0.24325 0.0
C3806 C 0.42736 0.28112 0.24859 0.0
C3807 C 0.41574 0.29933 0.25971 0.0
C3808 C 0.4271 0.30927 0.28618 0.0
C3809 C 0.41575 0.31837 0.24331 0.0
C3810 C 0.39172 0.2855 0.25958 0.0
C3811 C 0.38999 0.26295 0.24966 0.0
C3812 C 0.36909 0.24731 0.24623 0.0
C3813 C 0.34979 0.25472 0.25305 0.0
C3814 C 0.35104 0.27758 0.26391 0.0
C3815 C 0.37264 0.29302 0.26732 0.0
H3816 H 0.61539 0.53095 0.3665 0.0
H3817 H 0.59536 0.59434 0.35413 0.0
H3818 H 0.57407 0.59181 0.38928 0.0
H3819 H 0.5622 0.503 0.38582 0.0
H3820 H 0.57567 0.48965 0.40923 0.0
H3821 H 0.58877 0.49541 0.38223 0.0
H3822 H 0.62519 0.51854 0.41011 0.0
H3823 H 0.6122 0.51279 0.43714 0.0
H3824 H 0.62351 0.54193 0.43283 0.0
H3825 H 0.55462 0.58291 0.42496 0.0
H3826 H 0.53981 0.56917 0.46155 0.0
H3827 H 0.57358 0.51264 0.45402 0.0
C3828 C 0.60637 0.54418 0.37111 0.0
C3829 C 0.60702 0.56285 0.35735 0.0
C3830 C 0.59518 0.5799 0.36422 0.0
C3831 C 0.58295 0.5786 0.38418 0.0
C3832 C 0.58272 0.56019 0.39738 0.0
C3833 C 0.59416 0.54329 0.39133 0.0
C3834 C 0.59147 0.52577 0.40932 0.0
C3835 C 0.57878 0.50205 0.39584 0.0
C3836 C 0.61447 0.52471 0.42317 0.0
C3837 C 0.57719 0.53583 0.42661 0.0
C3838 C 0.57205 0.55545 0.41894 0.0
C3839 C 0.55858 0.56761 0.43121 0.0
C3840 C 0.55018 0.55962 0.45194 0.0
C3841 C 0.55563 0.53994 0.46069 0.0
C3842 C 0.56936 0.52787 0.44785 0.0
H3843 H 0.31673 0.87955 0.03787 0.0
H3844 H 0.2712 0.91941 0.06575 0.0
H3845 H 0.27413 0.90258 0.10485 0.0
H3846 H 0.29938 0.82853 0.06484 0.0
H3847 H 0.32788 0.82504 0.07211 0.0
H3848 H 0.32048 0.83892 0.04604 0.0
H3849 H 0.35232 0.87468 0.06365 0.0
H3850 H 0.35993 0.86092 0.08972 0.0
H3851 H 0.35302 0.88859 0.09455 0.0
H3852 H 0.28477 0.88281 0.14215 0.0
H3853 H 0.30264 0.8635 0.17376 0.0
H3854 H 0.33998 0.8364 0.1194 0.0
C3855 C 0.30687 0.88434 0.05189 0.0
C3856 C 0.29337 0.90038 0.04866 0.0
C3857 C 0.28144 0.90688 0.06784 0.0
C3858 C 0.28301 0.89743 0.09005 0.0
C3859 C 0.29676 0.88177 0.0927 0.0
C3860 C 0.30855 0.87546 0.07409 0.0
C3861 C 0.32374 0.86001 0.08191 0.0
C3862 C 0.31747 0.83673 0.06524 0.0
C3863 C 0.34872 0.87175 0.08249 0.0
C3864 C 0.31821 0.85788 0.10762 0.0
C3865 C 0.30284 0.87069 0.11378 0.0
C3866 C 0.29661 0.87251 0.13737 0.0
C3867 C 0.30675 0.86133 0.15517 0.0
C3868 C 0.32286 0.84843 0.14917 0.0
C3869 C 0.32804 0.84633 0.12484 0.0
H3870 H 0.93443 0.54488 0.88165 0.0
H3871 H 0.91144 0.47081 0.86932 0.0
H3872 H 0.93656 0.46813 0.90673 0.0
H3873 H 0.99126 0.54417 0.8999 0.0
H3874 H 0.99689 0.56965 0.92223 0.0
H3875 H 0.97539 0.56593 0.89596 0.0
H3876 H 0.94607 0.57149 0.92533 0.0
H3877 H 0.96755 0.57508 0.95166 0.0
H3878 H 0.94185 0.55346 0.94917 0.0
H3879 H 0.96837 0.47282 0.93992 0.0
H3880 H 1.00281 0.48538 0.97072 0.0
H3881 H 1.00236 0.55627 0.96449 0.0
C3882 C 0.93434 0.52817 0.88717 0.0
C3883 C 0.92111 0.50805 0.87283 0.0
C3884 C 0.92168 0.48639 0.88014 0.0
C3885 C 0.93572 0.4847 0.90137 0.0
C3886 C 0.94891 0.50483 0.91491 0.0
C3887 C 0.94829 0.52617 0.90825 0.0
C3888 C 0.96566 0.54491 0.92471 0.0
C3889 C 0.98333 0.55686 0.90982 0.0
C3890 C 0.9546 0.56224 0.93855 0.0
C3891 C 0.97579 0.53075 0.94192 0.0
C3892 C 0.96625 0.50761 0.93558 0.0
C3893 C 0.9754 0.49088 0.94588 0.0
C3894 C 0.99482 0.49809 0.9633 0.0
C3895 C 1.00394 0.52167 0.97072 0.0
C3896 C 0.99446 0.53819 0.96005 0.0
H3897 H 0.2912 0.25193 0.58828 0.0
H3898 H 0.25682 0.18105 0.58715 0.0
H3899 H 0.25292 0.18928 0.63106 0.0
H3900 H 0.32207 0.2593 0.64942 0.0
H3901 H 0.3194 0.28838 0.6573 0.0
H3902 H 0.31934 0.27714 0.62556 0.0
H3903 H 0.28088 0.28769 0.61356 0.0
H3904 H 0.28086 0.29891 0.64531 0.0
H3905 H 0.25738 0.27702 0.62919 0.0
H3906 H 0.25494 0.20421 0.6757 0.0
H3907 H 0.26103 0.2256 0.71778 0.0
H3908 H 0.29132 0.28768 0.6903 0.0
C3909 C 0.28279 0.23815 0.59724 0.0
C3910 C 0.27441 0.21578 0.58411 0.0
C3911 C 0.26348 0.1983 0.59665 0.0
C3912 C 0.26114 0.2028 0.62166 0.0
C3913 C 0.26964 0.22494 0.63403 0.0
C3914 C 0.28012 0.2424 0.62227 0.0
C3915 C 0.28786 0.26464 0.64005 0.0
C3916 C 0.3137 0.27285 0.64327 0.0
C3917 C 0.27603 0.28316 0.63151 0.0
C3918 C 0.28009 0.25693 0.66359 0.0
C3919 C 0.26983 0.23387 0.65968 0.0
C3920 C 0.26264 0.22234 0.67888 0.0
C3921 C 0.26618 0.23461 0.70272 0.0
C3922 C 0.27627 0.25831 0.70714 0.0
C3923 C 0.2831 0.26967 0.68725 0.0
H3924 H 0.59251 0.5787 0.22294 0.0
H3925 H 0.61084 0.513 0.22446 0.0
H3926 H 0.59662 0.50254 0.17988 0.0
H3927 H 0.54202 0.56109 0.1791 0.0
H3928 H 0.54748 0.58561 0.16291 0.0
H3929 H 0.55869 0.58813 0.19508 0.0
H3930 H 0.59905 0.60291 0.18522 0.0
H3931 H 0.58787 0.60067 0.15306 0.0
H3932 H 0.60987 0.5862 0.16215 0.0
H3933 H 0.5802 0.49876 0.1358 0.0
H3934 H 0.56491 0.50265 0.09361 0.0
H3935 H 0.5579 0.57131 0.11886 0.0
C3936 C 0.59333 0.56205 0.21386 0.0
C3937 C 0.60246 0.54646 0.22724 0.0
C3938 C 0.60382 0.52511 0.21462 0.0
C3939 C 0.59575 0.51903 0.18932 0.0
C3940 C 0.58675 0.53466 0.17669 0.0
C3941 C 0.5858 0.5559 0.18835 0.0
C3942 C 0.57638 0.56987 0.16993 0.0
C3943 C 0.55486 0.57656 0.17719 0.0
C3944 C 0.59436 0.59118 0.16745 0.0
C3945 C 0.5713 0.55276 0.14635 0.0
C3946 C 0.57764 0.53267 0.15081 0.0
C3947 C 0.57524 0.51443 0.1321 0.0
C3948 C 0.56652 0.51682 0.10814 0.0
C3949 C 0.56012 0.53726 0.10278 0.0
C3950 C 0.5623 0.55539 0.12231 0.0
H3951 H 0.28522 0.89265 0.93896 0.0
H3952 H 0.35545 0.92348 0.93564 0.0
H3953 H 0.35561 0.89382 0.90099 0.0
H3954 H 0.29003 0.83396 0.92517 0.0
H3955 H 0.26252 0.8247 0.90694 0.0
H3956 H 0.26772 0.8481 0.93185 0.0
H3957 H 0.25434 0.87421 0.90158 0.0
H3958 H 0.24895 0.85084 0.87668 0.0
H3959 H 0.26738 0.87772 0.8741 0.0
H3960 H 0.34888 0.86077 0.86842 0.0
H3961 H 0.33414 0.82791 0.8358 0.0
H3962 H 0.2681 0.8191 0.85897 0.0
C3963 C 0.30063 0.89323 0.93091 0.0
C3964 C 0.32039 0.91028 0.93995 0.0
C3965 C 0.3402 0.91047 0.92902 0.0
C3966 C 0.34047 0.89372 0.90941 0.0
C3967 C 0.32081 0.87704 0.90115 0.0
C3968 C 0.30119 0.8767 0.91135 0.0
C3969 C 0.28234 0.85694 0.89875 0.0
C3970 C 0.27524 0.83993 0.91675 0.0
C3971 C 0.26207 0.86545 0.88707 0.0
C3972 C 0.29433 0.84668 0.87939 0.0
C3973 C 0.31665 0.85822 0.8816 0.0
C3974 C 0.33149 0.8515 0.86656 0.0
C3975 C 0.32318 0.83255 0.84851 0.0
C3976 C 0.3003 0.82111 0.84533 0.0
C3977 C 0.28564 0.82804 0.86097 0.0
H3978 H 0.93209 0.49338 0.76429 0.0
H3979 H 0.91589 0.55848 0.75269 0.0
H3980 H 0.93046 0.55601 0.71244 0.0
H3981 H 0.9827 0.49946 0.73655 0.0
H3982 H 0.97648 0.46992 0.72255 0.0
H3983 H 0.96596 0.47768 0.75078 0.0
H3984 H 0.92511 0.45843 0.73024 0.0
H3985 H 0.93546 0.45053 0.70195 0.0
H3986 H 0.91396 0.46698 0.70187 0.0
H3987 H 0.94739 0.54627 0.67395 0.0
H3988 H 0.96283 0.52887 0.63866 0.0
H3989 H 0.96508 0.46903 0.67505 0.0
C3990 C 0.93194 0.50728 0.75342 0.0
C3991 C 0.92337 0.52633 0.76153 0.0
C3992 C 0.92266 0.54387 0.74664 0.0
C3993 C 0.93088 0.5426 0.72389 0.0
C3994 C 0.93918 0.52344 0.71634 0.0
C3995 C 0.93948 0.50598 0.73055 0.0
C3996 C 0.94795 0.4866 0.71779 0.0
C3997 C 0.96956 0.48323 0.73281 0.0
C3998 C 0.92952 0.46432 0.71266 0.0
C3999 C 0.95268 0.49596 0.69419 0.0
C4000 C 0.9477 0.51729 0.69375 0.0
C4001 C 0.95115 0.52949 0.67398 0.0
C4002 C 0.95987 0.51952 0.65409 0.0
C4003 C 0.96469 0.49754 0.65415 0.0
C4004 C 0.96103 0.48566 0.67442 0.0
H4005 H 0.27378 0.25214 0.46036 0.0
H4006 H 0.27907 0.18201 0.43904 0.0
H4007 H 0.28868 0.19165 0.39873 0.0
H4008 H 0.24759 0.26081 0.40255 0.0
H4009 H 0.26287 0.29005 0.40417 0.0
H4010 H 0.25808 0.27815 0.43213 0.0
H4011 H 0.30115 0.28886 0.44728 0.0
H4012 H 0.30606 0.3006 0.41918 0.0
H4013 H 0.32004 0.27864 0.4282 0.0
H4014 H 0.29826 0.20879 0.36085 0.0
H4015 H 0.30264 0.23096 0.32614 0.0
H4016 H 0.28734 0.28896 0.36994 0.0
C4017 C 0.27703 0.23883 0.44726 0.0
C4018 C 0.27568 0.21629 0.45304 0.0
C4019 C 0.28001 0.1994 0.43522 0.0
C4020 C 0.2856 0.20473 0.41225 0.0
C4021 C 0.28684 0.22705 0.40719 0.0
C4022 C 0.28252 0.24381 0.42407 0.0
C4023 C 0.28412 0.26622 0.41346 0.0
C4024 C 0.26183 0.27426 0.41304 0.0
C4025 C 0.30402 0.28467 0.42789 0.0
C4026 C 0.28882 0.25904 0.38758 0.0
C4027 C 0.29116 0.23663 0.38473 0.0
C4028 C 0.29635 0.22634 0.36284 0.0
C4029 C 0.29884 0.23914 0.34319 0.0
C4030 C 0.2954 0.26183 0.34512 0.0
C4031 C 0.29039 0.27184 0.36779 0.0
H4032 H 0.32346 0.57712 0.56425 0.0
H4033 H 0.3601 0.64815 0.58037 0.0
H4034 H 0.39223 0.63776 0.56241 0.0
H4035 H 0.37489 0.55126 0.57336 0.0
H4036 H 0.36265 0.52844 0.54839 0.0
H4037 H 0.34473 0.54062 0.56732 0.0
H4038 H 0.32204 0.54903 0.52806 0.0
H4039 H 0.34006 0.53742 0.50902 0.0
H4040 H 0.33658 0.56626 0.5076 0.0
H4041 H 0.41681 0.62153 0.53635 0.0
H4042 H 0.43402 0.5993 0.50623 0.0
H4043 H 0.38133 0.53909 0.50667 0.0
C4044 C 0.3386 0.59031 0.56487 0.0
C4045 C 0.33944 0.61336 0.57375 0.0
C4046 C 0.3593 0.6303 0.57396 0.0
C4047 C 0.3776 0.62458 0.56374 0.0
C4048 C 0.3758 0.60186 0.55392 0.0
C4049 C 0.35699 0.58488 0.55482 0.0
C4050 C 0.35829 0.56227 0.54077 0.0
C4051 C 0.36027 0.5446 0.55851 0.0
C4052 C 0.33805 0.55325 0.52015 0.0
C4053 C 0.38002 0.56963 0.53041 0.0
C4054 C 0.39008 0.59241 0.53863 0.0
C4055 C 0.40944 0.60356 0.53019 0.0
C4056 C 0.41893 0.59099 0.51302 0.0
C4057 C 0.40873 0.56782 0.5044 0.0
C4058 C 0.38923 0.55691 0.51323 0.0
H4059 H 0.88455 0.92 0.51273 0.0
H4060 H 0.86788 0.94715 0.58291 0.0
H4061 H 0.90242 0.9782 0.58832 0.0
H4062 H 0.94489 0.93267 0.53191 0.0
H4063 H 0.95126 0.93937 0.50216 0.0
H4064 H 0.92582 0.91896 0.50438 0.0
H4065 H 0.90191 0.94254 0.48059 0.0
H4066 H 0.92718 0.96304 0.478 0.0
H4067 H 0.90469 0.97245 0.49174 0.0
H4068 H 0.94042 0.00551 0.58626 0.0
H4069 H 0.97687 0.02662 0.57621 0.0
H4070 H 0.96477 0.98423 0.50506 0.0
C4071 C 0.88813 0.93236 0.52935 0.0
C4072 C 0.87349 0.93107 0.54742 0.0
C4073 C 0.87889 0.94771 0.56884 0.0
C4074 C 0.89844 0.96544 0.57204 0.0
C4075 C 0.91229 0.96636 0.55357 0.0
C4076 C 0.90728 0.95021 0.53265 0.0
C4077 C 0.92468 0.95479 0.51542 0.0
C4078 C 0.9374 0.93529 0.51334 0.0
C4079 C 0.91396 0.95843 0.48993 0.0
C4080 C 0.93986 0.97663 0.52928 0.0
C4081 C 0.9329 0.98275 0.55162 0.0
C4082 C 0.94566 1.00114 0.56857 0.0
C4083 C 0.96617 0.01319 0.56264 0.0
C4084 C 0.97316 0.00737 0.53961 0.0
C4085 C 0.95961 0.98917 0.52263 0.0
H4086 H 0.90225 0.09339 0.23989 0.0
H4087 H 0.88131 0.04663 0.29162 0.0
H4088 H 0.8573 0.07161 0.30704 0.0
H4089 H 0.90796 0.14332 0.27874 0.0
H4090 H 0.89699 0.15918 0.25615 0.0
H4091 H 0.90981 0.13601 0.24648 0.0
H4092 H 0.8734 0.11645 0.21631 0.0
H4093 H 0.86041 0.13964 0.22592 0.0
H4094 H 0.84672 0.11052 0.22786 0.0
H4095 H 0.84051 0.10424 0.3213 0.0
H4096 H 0.83092 0.14186 0.33194 0.0
H4097 H 0.86137 0.16665 0.27019 0.0
C4098 C 0.89221 0.08813 0.25404 0.0
C4099 C 0.89369 0.06808 0.26455 0.0
C4100 C 0.88044 0.0619 0.28323 0.0
C4101 C 0.86666 0.07593 0.29208 0.0
C4102 C 0.86604 0.09589 0.2818 0.0
C4103 C 0.87822 0.10185 0.26296 0.0
C4104 C 0.8759 0.12505 0.25638 0.0
C4105 C 0.89904 0.14187 0.25965 0.0
C4106 C 0.86336 0.12277 0.23005 0.0
C4107 C 0.86163 0.13176 0.2754 0.0
C4108 C 0.85581 0.11456 0.28966 0.0
C4109 C 0.84447 0.11762 0.30991 0.0
C4110 C 0.83919 0.13895 0.31589 0.0
C4111 C 0.84529 0.1567 0.30162 0.0
C4112 C 0.85624 0.15299 0.28095 0.0
H4113 H 0.70256 0.0749 0.03379 0.0
H4114 H 0.70319 0.1338 0.08735 0.0
H4115 H 0.66167 0.1244 0.08189 0.0
H4116 H 0.6546 0.07957 0.99284 0.0
H4117 H 0.64274 0.04923 0.98573 0.0
H4118 H 0.67284 0.0596 0.99383 0.0
H4119 H 0.67368 0.03523 0.02992 0.0
H4120 H 0.64394 0.02377 0.02074 0.0
H4121 H 0.65438 0.0371 0.05207 0.0
H4122 H 0.62127 0.11067 0.06941 0.0
H4123 H 0.583 0.08645 0.05946 0.0
H4124 H 0.60775 0.03598 0.01449 0.0
C4125 C 0.69385 0.08555 0.04451 0.0
C4126 C 0.70571 0.10531 0.06047 0.0
C4127 C 0.69409 0.1189 0.07452 0.0
C4128 C 0.67062 0.11381 0.07147 0.0
C4129 C 0.65928 0.09519 0.05426 0.0
C4130 C 0.67035 0.08078 0.04161 0.0
C4131 C 0.65386 0.06128 0.02511 0.0
C4132 C 0.65616 0.0625 0.99776 0.0
C4133 C 0.65663 0.03798 0.03242 0.0
C4134 C 0.6319 0.06678 0.03101 0.0
C4135 C 0.63552 0.08687 0.04723 0.0
C4136 C 0.61806 0.09506 0.05647 0.0
C4137 C 0.59636 0.08144 0.05035 0.0
C4138 C 0.59274 0.0599 0.03571 0.0
C4139 C 0.61033 0.05287 0.02496 0.0
H4140 H 0.23581 0.50477 0.26307 0.0
H4141 H 0.19672 0.45705 0.20053 0.0
H4142 H 0.2129 0.42601 0.21606 0.0
H4143 H 0.28549 0.47939 0.27268 0.0
H4144 H 0.28674 0.48471 0.30575 0.0
H4145 H 0.27631 0.50376 0.28668 0.0
H4146 H 0.23939 0.49754 0.3062 0.0
H4147 H 0.2494 0.4782 0.32502 0.0
H4148 H 0.22284 0.46886 0.30492 0.0
H4149 H 0.22904 0.39964 0.24156 0.0
H4150 H 0.24364 0.37988 0.27487 0.0
H4151 H 0.26924 0.44528 0.32148 0.0
C4152 C 0.23119 0.48802 0.252 0.0
C4153 C 0.21516 0.48327 0.23045 0.0
C4154 C 0.20916 0.461 0.21697 0.0
C4155 C 0.21825 0.44334 0.22566 0.0
C4156 C 0.23307 0.44843 0.2478 0.0
C4157 C 0.23948 0.47029 0.26074 0.0
C4158 C 0.25266 0.47092 0.2858 0.0
C4159 C 0.27674 0.48555 0.28783 0.0
C4160 C 0.24032 0.47937 0.30669 0.0
C4161 C 0.25252 0.44586 0.28514 0.0
C4162 C 0.24142 0.43317 0.26301 0.0
C4163 C 0.23803 0.40941 0.25882 0.0
C4164 C 0.24625 0.39837 0.27779 0.0
C4165 C 0.25734 0.41118 0.30062 0.0
C4166 C 0.26062 0.43516 0.30422 0.0
H4167 H 0.26306 0.4465 0.03732 0.0
H4168 H 0.21883 0.38676 0.05627 0.0
H4169 H 0.1866 0.40522 0.05014 0.0
H4170 H 0.23408 0.48966 0.06519 0.0
H4171 H 0.23826 0.5069 0.04071 0.0
H4172 H 0.25857 0.49042 0.0497 0.0
H4173 H 0.25378 0.47044 0.00452 0.0
H4174 H 0.23363 0.48695 0.99547 0.0
H4175 H 0.22594 0.45612 0.98918 0.0
H4176 H 0.15851 0.42859 0.03847 0.0
H4177 H 0.13671 0.45424 0.01955 0.0
H4178 H 0.19905 0.4983 0.0079 0.0
C4179 C 0.2467 0.4375 0.0407 0.0
C4180 C 0.24352 0.41524 0.04746 0.0
C4181 C 0.22173 0.40387 0.05123 0.0
C4182 C 0.20331 0.41426 0.0479 0.0
C4183 C 0.20694 0.43608 0.04095 0.0
C4184 C 0.2281 0.4476 0.0374 0.0
C4185 C 0.22711 0.47008 0.028 0.0
C4186 C 0.24029 0.49047 0.04704 0.0
C4187 C 0.23561 0.47092 0.0028 0.0
C4188 C 0.20201 0.46887 0.02576 0.0
C4189 C 0.19069 0.44941 0.03387 0.0
C4190 C 0.16722 0.44406 0.03239 0.0
C4191 C 0.15499 0.45872 0.02176 0.0
C4192 C 0.16631 0.47818 0.01245 0.0
C4193 C 0.19009 0.48355 0.01505 0.0
H4194 H 0.86919 0.93824 0.22156 0.0
H4195 H 0.90839 0.95823 0.29468 0.0
H4196 H 0.88646 0.9243 0.3087 0.0
H4197 H 0.81596 0.91548 0.24253 0.0
H4198 H 0.80717 0.89201 0.21764 0.0
H4199 H 0.82532 0.91836 0.21296 0.0
H4200 H 0.8548 0.89611 0.19913 0.0
H4201 H 0.8366 0.8697 0.20341 0.0
H4202 H 0.86525 0.87764 0.21905 0.0
H4203 H 0.85764 0.89097 0.31628 0.0
H4204 H 0.82944 0.85468 0.31437 0.0
H4205 H 0.81292 0.85233 0.23537 0.0
C4206 C 0.87323 0.93541 0.24047 0.0
C4207 C 0.89043 0.95106 0.25704 0.0
C4208 C 0.89527 0.94662 0.28161 0.0
C4209 C 0.8828 0.92744 0.28985 0.0
C4210 C 0.86568 0.91267 0.27326 0.0
C4211 C 0.86115 0.91607 0.24895 0.0
C4212 C 0.84229 0.89694 0.23482 0.0
C4213 C 0.82146 0.90626 0.22649 0.0
C4214 C 0.85023 0.88435 0.2128 0.0
C4215 C 0.83767 0.88187 0.25476 0.0
C4216 C 0.85068 0.89188 0.27704 0.0
C4217 C 0.84791 0.88255 0.29879 0.0
C4218 C 0.83201 0.86196 0.29754 0.0
C4219 C 0.82024 0.8503 0.27456 0.0
C4220 C 0.82258 0.8606 0.25297 0.0
H4221 H 0.71144 0.12568 0.7194 0.0
H4222 H 0.7389 0.10618 0.78813 0.0
H4223 H 0.75048 0.14675 0.80627 0.0
H4224 H 0.75466 0.17061 0.71798 0.0
H4225 H 0.73762 0.18858 0.70487 0.0
H4226 H 0.72778 0.15805 0.69931 0.0
H4227 H 0.69095 0.16234 0.71689 0.0
H4228 H 0.70115 0.19301 0.72301 0.0
H4229 H 0.69273 0.17724 0.74759 0.0
H4230 H 0.76679 0.1877 0.81307 0.0
H4231 H 0.78666 0.22635 0.80745 0.0
H4232 H 0.74507 0.22058 0.73708 0.0
C4233 C 0.71966 0.12994 0.73835 0.0
C4234 C 0.7245 0.11294 0.75228 0.0
C4235 C 0.73524 0.11907 0.77705 0.0
C4236 C 0.74155 0.142 0.78765 0.0
C4237 C 0.73664 0.15843 0.77335 0.0
C4238 C 0.72586 0.15269 0.74926 0.0
C4239 C 0.72533 0.17358 0.73672 0.0
C4240 C 0.73705 0.17264 0.71338 0.0
C4241 C 0.70109 0.17672 0.73071 0.0
C4242 C 0.73878 0.19182 0.75699 0.0
C4243 C 0.74484 0.18281 0.7782 0.0
C4244 C 0.76122 0.19535 0.79728 0.0
C4245 C 0.77226 0.21731 0.79414 0.0
C4246 C 0.76619 0.22644 0.77257 0.0
C4247 C 0.74889 0.214 0.75423 0.0
loop_
_geom_bond_atom_site_label_1
_geom_bond_atom_site_label_2
_geom_bond_distance
_geom_bond_site_symmetry_2
_ccdc_geom_bond_type
C0 O1 1.160 . S
C0 O7 1.185 . S
O1 C0 1.160 . S
O2 Zn3 1.899 . S
O2 C10 1.284 . S
Zn3 O2 1.899 . S
Zn3 O4 2.032 . S
Zn3 O7 2.086 . S
Zn3 O12 1.977 . S
O4 Zn3 2.032 . S
O4 C8 1.278 . S
C5 O6 1.203 . S
C5 O12 1.267 1_655 S
O6 C5 1.203 . S
O7 C0 1.185 . S
O7 Zn3 2.086 . S
C8 O4 1.278 . S
C8 O9 1.211 . S
O9 C8 1.211 . S
C10 O2 1.284 . S
C10 O11 1.273 . S
O11 C10 1.273 . S
O12 Zn3 1.977 . S
O12 C5 1.267 1_455 S
C13 O14 1.160 . S
C13 O20 1.185 . S
O14 C13 1.160 . S
O15 Zn16 1.899 . S
O15 C23 1.284 . S
Zn16 O15 1.899 . S
Zn16 O17 2.032 . S
Zn16 O20 2.086 1_455 S
Zn16 O25 1.977 . S
O17 Zn16 2.032 . S
O17 C21 1.278 . S
C18 O19 1.203 . S
C18 O25 1.267 . S
O19 C18 1.203 . S
O20 C13 1.185 . S
O20 Zn16 2.086 1_655 S
C21 O17 1.278 . S
C21 O22 1.211 . S
O22 C21 1.211 . S
C23 O15 1.284 . S
C23 O24 1.273 . S
O24 C23 1.273 . S
O25 Zn16 1.977 . S
O25 C18 1.267 . S
C26 O27 1.160 . S
C26 O33 1.185 . S
O27 C26 1.160 . S
O28 Zn29 1.899 . S
O28 C36 1.284 . S
Zn29 O28 1.899 . S
Zn29 O30 2.032 . S
Zn29 O33 2.086 . S
Zn29 O38 1.977 . S
O30 Zn29 2.032 . S
O30 C34 1.278 . S
C31 O32 1.203 . S
C31 O38 1.267 . S
O32 C31 1.203 . S
O33 C26 1.185 . S
O33 Zn29 2.086 . S
C34 O30 1.278 . S
C34 O35 1.211 . S
O35 C34 1.211 . S
C36 O28 1.284 . S
C36 O37 1.273 . S
O37 C36 1.273 . S
O38 Zn29 1.977 . S
O38 C31 1.267 . S
C39 O40 1.160 . S
C39 O46 1.185 . S
O40 C39 1.160 . S
O41 Zn42 1.899 . S
O41 C49 1.284 . S
Zn42 O41 1.899 . S
Zn42 O43 2.032 . S
Zn42 O46 2.086 . S
Zn42 O51 1.977 . S
O43 Zn42 2.032 . S
O43 C47 1.278 . S
C44 O45 1.203 . S
C44 O51 1.267 . S
O45 C44 1.203 . S
O46 C39 1.185 . S
O46 Zn42 2.086 . S
C47 O43 1.278 . S
C47 O48 1.211 . S
O48 C47 1.211 . S
C49 O41 1.284 . S
C49 O50 1.273 . S
O50 C49 1.273 . S
O51 Zn42 1.977 . S
O51 C44 1.267 . S
C52 O53 1.160 . S
C52 O59 1.185 . S
O53 C52 1.160 . S
O54 Zn55 1.899 . S
O54 C62 1.284 . S
Zn55 O54 1.899 . S
Zn55 O56 2.032 . S
Zn55 O59 2.086 . S
Zn55 O64 1.977 . S
O56 Zn55 2.032 . S
O56 C60 1.278 . S
C57 O58 1.203 . S
C57 O64 1.267 . S
O58 C57 1.203 . S
O59 C52 1.185 . S
O59 Zn55 2.086 . S
C60 O56 1.278 . S
C60 O61 1.211 . S
O61 C60 1.211 . S
C62 O54 1.284 . S
C62 O63 1.273 . S
O63 C62 1.273 . S
O64 Zn55 1.977 . S
O64 C57 1.267 . S
C65 O66 1.160 . S
C65 O72 1.185 . S
O66 C65 1.160 . S
O67 Zn68 1.899 . S
O67 C75 1.284 . S
Zn68 O67 1.899 . S
Zn68 O69 2.032 . S
Zn68 O72 2.086 . S
Zn68 O77 1.977 . S
O69 Zn68 2.032 . S
O69 C73 1.278 . S
C70 O71 1.203 . S
C70 O77 1.267 . S
O71 C70 1.203 . S
O72 C65 1.185 . S
O72 Zn68 2.086 . S
C73 O69 1.278 . S
C73 O74 1.211 . S
O74 C73 1.211 . S
C75 O67 1.284 . S
C75 O76 1.273 . S
O76 C75 1.273 . S
O77 Zn68 1.977 . S
O77 C70 1.267 . S
C78 O79 1.160 . S
C78 O85 1.185 . S
O79 C78 1.160 . S
O80 Zn81 1.899 . S
O80 C88 1.284 . S
Zn81 O80 1.899 . S
Zn81 O82 2.032 . S
Zn81 O85 2.086 . S
Zn81 O90 1.977 . S
O82 Zn81 2.032 . S
O82 C86 1.278 . S
C83 O84 1.203 . S
C83 O90 1.267 . S
O84 C83 1.203 . S
O85 C78 1.185 . S
O85 Zn81 2.086 . S
C86 O82 1.278 . S
C86 O87 1.211 . S
O87 C86 1.211 . S
C88 O80 1.284 . S
C88 O89 1.273 . S
O89 C88 1.273 . S
O90 Zn81 1.977 . S
O90 C83 1.267 . S
C91 O92 1.160 . S
C91 O98 1.185 . S
O92 C91 1.160 . S
O93 Zn94 1.899 1_655 S
O93 C101 1.283 . S
Zn94 O93 1.899 1_455 S
Zn94 O95 2.032 . S
Zn94 O98 2.086 . S
Zn94 O103 1.977 1_455 S
O95 Zn94 2.032 . S
O95 C99 1.278 . S
C96 O97 1.203 . S
C96 O103 1.267 . S
O97 C96 1.203 . S
O98 C91 1.185 . S
O98 Zn94 2.086 . S
C99 O95 1.278 . S
C99 O100 1.211 1_455 S
O100 C99 1.211 1_655 S
C101 O93 1.283 . S
C101 O102 1.273 . S
O102 C101 1.273 . S
O103 Zn94 1.977 1_655 S
O103 C96 1.267 . S
C104 O105 1.160 . S
C104 O111 1.185 . S
O105 C104 1.160 . S
O106 Zn107 1.899 . S
O106 C114 1.284 . S
Zn107 O106 1.899 . S
Zn107 O108 2.032 . S
Zn107 O111 2.086 . S
Zn107 O116 1.977 1_545 S
O108 Zn107 2.032 . S
O108 C112 1.278 . S
C109 O110 1.203 . S
C109 O116 1.267 . S
O110 C109 1.203 . S
O111 C104 1.185 . S
O111 Zn107 2.086 . S
C112 O108 1.278 . S
C112 O113 1.211 1_545 S
O113 C112 1.211 1_565 S
C114 O106 1.284 . S
C114 O115 1.277 . S
O115 C114 1.277 . S
O116 Zn107 1.977 1_565 S
O116 C109 1.267 . S
C117 O118 1.160 . S
C117 O124 1.185 . S
O118 C117 1.160 . S
O119 Zn120 1.899 . S
O119 C127 1.284 . S
Zn120 O119 1.899 . S
Zn120 O121 2.032 . S
Zn120 O124 2.086 . S
Zn120 O129 1.977 . S
O121 Zn120 2.032 . S
O121 C125 1.278 . S
C122 O123 1.203 . S
C122 O129 1.267 . S
O123 C122 1.203 . S
O124 C117 1.185 . S
O124 Zn120 2.086 . S
C125 O121 1.278 . S
C125 O126 1.211 . S
O126 C125 1.211 . S
C127 O119 1.284 . S
C127 O128 1.273 . S
O128 C127 1.273 . S
O129 Zn120 1.977 . S
O129 C122 1.267 . S
C130 O131 1.160 1_545 S
C130 O137 1.185 . S
O131 C130 1.160 1_565 S
O132 Zn133 1.899 . S
O132 C140 1.284 . S
Zn133 O132 1.899 . S
Zn133 O134 2.032 . S
Zn133 O137 2.086 . S
Zn133 O142 1.977 . S
O134 Zn133 2.032 . S
O134 C138 1.278 . S
C135 O136 1.203 . S
C135 O142 1.267 . S
O136 C135 1.203 . S
O137 C130 1.185 . S
O137 Zn133 2.086 . S
C138 O134 1.278 . S
C138 O139 1.211 . S
O139 C138 1.211 . S
C140 O132 1.284 . S
C140 O141 1.273 . S
O141 C140 1.273 . S
O142 Zn133 1.977 . S
O142 C135 1.267 . S
C143 O144 1.160 . S
C143 O150 1.185 1_554 S
O144 C143 1.160 . S
O145 Zn146 1.899 . S
O145 C153 1.284 . S
Zn146 O145 1.899 . S
Zn146 O147 2.032 1_554 S
Zn146 O150 2.086 1_554 S
Zn146 O155 1.989 . S
O147 Zn146 2.032 1_556 S
O147 C151 1.278 . S
C148 O149 1.203 . S
C148 O155 1.278 . S
O149 C148 1.203 . S
O150 C143 1.185 1_556 S
O150 Zn146 2.086 1_556 S
C151 O147 1.278 . S
C151 O152 1.211 . S
O152 C151 1.211 . S
C153 O145 1.284 . S
C153 O154 1.273 . S
O154 C153 1.273 . S
O155 Zn146 1.989 . S
O155 C148 1.278 . S
C156 O157 1.160 . S
C156 O163 1.185 . S
O157 C156 1.160 . S
O158 Zn159 1.899 . S
O158 C166 1.284 . S
Zn159 O158 1.899 . S
Zn159 O160 2.032 . S
Zn159 O163 2.086 . S
Zn159 O168 1.977 . S
O160 Zn159 2.032 . S
O160 C164 1.278 . S
C161 O162 1.203 . S
C161 O168 1.267 . S
O162 C161 1.203 . S
O163 C156 1.185 . S
O163 Zn159 2.086 . S
C164 O160 1.278 . S
C164 O165 1.211 . S
O165 C164 1.211 . S
C166 O158 1.284 . S
C166 O167 1.273 . S
O167 C166 1.273 . S
O168 Zn159 1.977 . S
O168 C161 1.267 . S
C169 O170 1.160 . S
C169 O176 1.185 . S
O170 C169 1.160 . S
O171 Zn172 1.899 . S
O171 C179 1.284 . S
Zn172 O171 1.899 . S
Zn172 O173 2.032 . S
Zn172 O176 2.086 . S
Zn172 O181 1.977 . S
O173 Zn172 2.032 . S
O173 C177 1.278 . S
C174 O175 1.203 . S
C174 O181 1.267 . S
O175 C174 1.203 . S
O176 C169 1.185 . S
O176 Zn172 2.086 . S
C177 O173 1.278 . S
C177 O178 1.211 . S
O178 C177 1.211 . S
C179 O171 1.284 . S
C179 O180 1.273 . S
O180 C179 1.273 . S
O181 Zn172 1.977 . S
O181 C174 1.267 . S
C182 O183 1.160 . S
C182 O189 1.185 . S
O183 C182 1.160 . S
O184 Zn185 1.899 . S
O184 C192 1.284 . S
Zn185 O184 1.899 . S
Zn185 O186 2.032 . S
Zn185 O189 2.086 . S
Zn185 O194 1.977 . S
O186 Zn185 2.032 . S
O186 C190 1.278 . S
C187 O188 1.203 . S
C187 O194 1.267 . S
O188 C187 1.203 . S
O189 C182 1.185 . S
O189 Zn185 2.086 . S
C190 O186 1.278 . S
C190 O191 1.211 . S
O191 C190 1.211 . S
C192 O184 1.284 . S
C192 O193 1.273 . S
O193 C192 1.273 . S
O194 Zn185 1.977 . S
O194 C187 1.267 . S
C195 O196 1.160 . S
C195 O202 1.185 . S
O196 C195 1.160 . S
O197 Zn198 1.899 . S
O197 C205 1.284 . S
Zn198 O197 1.899 . S
Zn198 O199 2.032 . S
Zn198 O202 2.086 . S
Zn198 O207 1.977 . S
O199 Zn198 2.032 . S
O199 C203 1.278 . S
C200 O201 1.203 . S
C200 O207 1.267 . S
O201 C200 1.203 . S
O202 C195 1.185 . S
O202 Zn198 2.086 . S
C203 O199 1.278 . S
C203 O204 1.211 . S
O204 C203 1.211 . S
C205 O197 1.284 . S
C205 O206 1.273 . S
O206 C205 1.273 . S
O207 Zn198 1.977 . S
O207 C200 1.267 . S
C208 O209 1.160 . S
C208 O215 1.185 . S
O209 C208 1.160 . S
O210 Zn211 1.899 . S
O210 C218 1.284 . S
Zn211 O210 1.899 . S
Zn211 O212 2.032 . S
Zn211 O215 2.086 . S
Zn211 O220 1.977 1_545 S
O212 Zn211 2.032 . S
O212 C216 1.278 . S
C213 O214 1.203 . S
C213 O220 1.267 . S
O214 C213 1.203 . S
O215 C208 1.185 . S
O215 Zn211 2.086 . S
C216 O212 1.278 . S
C216 O217 1.211 1_545 S
O217 C216 1.211 1_565 S
C218 O210 1.284 . S
C218 O219 1.273 . S
O219 C218 1.273 . S
O220 Zn211 1.977 1_565 S
O220 C213 1.267 . S
C221 O222 1.160 . S
C221 O228 1.185 . S
O222 C221 1.160 . S
O223 Zn224 1.899 . S
O223 C231 1.284 . S
Zn224 O223 1.899 . S
Zn224 O225 2.032 . S
Zn224 O228 2.086 . S
Zn224 O233 1.977 . S
O225 Zn224 2.032 . S
O225 C229 1.278 . S
C226 O227 1.203 . S
C226 O233 1.267 . S
O227 C226 1.203 . S
O228 C221 1.185 . S
O228 Zn224 2.086 . S
C229 O225 1.278 . S
C229 O230 1.211 . S
O230 C229 1.211 . S
C231 O223 1.284 . S
C231 O232 1.273 . S
O232 C231 1.273 . S
O233 Zn224 1.977 . S
O233 C226 1.267 . S
C234 O235 1.160 . S
C234 O241 1.185 . S
O235 C234 1.160 . S
O236 Zn237 1.899 . S
O236 C244 1.284 . S
Zn237 O236 1.899 . S
Zn237 O238 2.032 . S
Zn237 O241 2.086 . S
Zn237 O246 1.977 . S
O238 Zn237 2.032 . S
O238 C242 1.278 . S
C239 O240 1.203 . S
C239 O246 1.267 . S
O240 C239 1.203 . S
O241 C234 1.185 . S
O241 Zn237 2.086 . S
C242 O238 1.278 . S
C242 O243 1.211 . S
O243 C242 1.211 . S
C244 O236 1.284 . S
C244 O245 1.273 . S
O245 C244 1.273 . S
O246 Zn237 1.977 . S
O246 C239 1.267 . S
C247 O248 1.160 . S
C247 O254 1.185 . S
O248 C247 1.160 . S
O249 Zn250 1.899 . S
O249 C257 1.284 . S
Zn250 O249 1.899 . S
Zn250 O251 2.032 . S
Zn250 O254 2.086 . S
Zn250 O259 1.977 . S
O251 Zn250 2.032 . S
O251 C255 1.278 . S
C252 O253 1.203 . S
C252 O259 1.267 . S
O253 C252 1.203 . S
O254 C247 1.185 . S
O254 Zn250 2.086 . S
C255 O251 1.278 . S
C255 O256 1.211 . S
O256 C255 1.211 . S
C257 O249 1.284 . S
C257 O258 1.273 . S
O258 C257 1.273 . S
O259 Zn250 1.977 . S
O259 C252 1.267 . S
C260 O261 1.160 . S
C260 O267 1.185 . S
O261 C260 1.160 . S
O262 Zn263 1.899 . S
O262 C270 1.284 . S
Zn263 O262 1.899 . S
Zn263 O264 2.032 1_554 S
Zn263 O267 2.086 . S
Zn263 O272 1.977 . S
O264 Zn263 2.032 1_556 S
O264 C268 1.278 . S
C265 O266 1.203 . S
C265 O272 1.267 . S
O266 C265 1.203 . S
O267 C260 1.185 . S
O267 Zn263 2.086 . S
C268 O264 1.278 . S
C268 O269 1.211 . S
O269 C268 1.211 . S
C270 O262 1.284 . S
C270 O271 1.273 . S
O271 C270 1.273 . S
O272 Zn263 1.977 . S
O272 C265 1.267 . S
C273 O274 1.160 . S
C273 O280 1.185 . S
O274 C273 1.160 . S
O275 Zn276 1.899 . S
O275 C283 1.284 . S
Zn276 O275 1.899 . S
Zn276 O277 2.032 . S
Zn276 O280 2.086 . S
Zn276 O285 1.977 . S
O277 Zn276 2.032 . S
O277 C281 1.278 . S
C278 O279 1.203 . S
C278 O285 1.267 . S
O279 C278 1.203 . S
O280 C273 1.185 . S
O280 Zn276 2.086 . S
C281 O277 1.278 . S
C281 O282 1.211 . S
O282 C281 1.211 . S
C283 O275 1.284 . S
C283 O284 1.273 . S
O284 C283 1.273 . S
O285 Zn276 1.977 . S
O285 C278 1.267 . S
C286 O287 1.160 . S
C286 O293 1.185 . S
O287 C286 1.160 . S
O288 Zn289 1.899 . S
O288 C296 1.284 . S
Zn289 O288 1.899 . S
Zn289 O290 2.032 . S
Zn289 O293 2.086 . S
Zn289 O298 1.977 . S
O290 Zn289 2.032 . S
O290 C294 1.278 . S
C291 O292 1.203 . S
C291 O298 1.267 . S
O292 C291 1.203 . S
O293 C286 1.185 . S
O293 Zn289 2.086 . S
C294 O290 1.278 . S
C294 O295 1.211 . S
O295 C294 1.211 . S
C296 O288 1.284 . S
C296 O297 1.273 . S
O297 C296 1.273 . S
O298 Zn289 1.977 . S
O298 C291 1.267 . S
C299 O300 1.160 . S
C299 O306 1.185 . S
O300 C299 1.160 . S
O301 Zn302 1.899 . S
O301 C309 1.284 . S
Zn302 O301 1.899 . S
Zn302 O303 2.032 . S
Zn302 O306 2.086 . S
Zn302 O311 1.977 . S
O303 Zn302 2.032 . S
O303 C307 1.278 . S
C304 O305 1.203 . S
C304 O311 1.267 . S
O305 C304 1.203 . S
O306 C299 1.185 . S
O306 Zn302 2.086 . S
C307 O303 1.278 . S
C307 O308 1.211 . S
O308 C307 1.211 . S
C309 O301 1.284 . S
C309 O310 1.273 . S
O310 C309 1.273 . S
O311 Zn302 1.977 . S
O311 C304 1.267 . S
C312 C314 1.421 1_556 S
C312 C316 1.415 . S
C312 N318 1.369 . S
C313 C314 1.422 . S
C313 C315 1.417 1_554 S
C313 C325 1.422 . S
C314 C312 1.421 1_554 S
C314 C313 1.422 . S
C314 N324 1.360 . S
C315 C313 1.417 1_556 S
C315 C317 1.329 . S
C315 H334 0.930 . S
C316 C312 1.415 . S
C316 C317 1.437 . S
C316 C320 1.413 . S
C317 C315 1.329 . S
C317 C316 1.437 . S
C317 H339 0.929 . S
N318 C312 1.369 . S
N318 C319 1.338 . S
N318 Gd323 2.622 1_566 S
C319 N318 1.338 . S
C319 C321 1.378 . S
C319 H331 0.929 . S
C320 C316 1.413 . S
C320 C321 1.348 . S
C320 H336 0.931 . S
C321 C319 1.378 . S
C321 C320 1.348 . S
C321 H337 0.930 . S
Gd322 N342 2.622 . S
Gd322 N349 2.570 . S
Gd322 O356 2.314 1_545 S
Gd322 O357 2.468 . S
Gd322 O358 2.427 . S
Gd322 O360 2.388 . S
Gd322 O361 2.386 . S
Gd322 O365 2.307 . S
Gd322 C375 2.805 . S
Gd323 N318 2.622 1_544 S
Gd323 N324 2.570 1_545 S
Gd323 O355 2.386 1_645 S
Gd323 O359 2.307 1_655 S
Gd323 O362 2.353 1_655 S
Gd323 O363 2.468 . S
Gd323 O364 2.427 1_554 S
Gd323 O366 2.388 1_654 S
Gd323 C387 2.805 1_554 S
N324 C314 1.360 . S
N324 Gd323 2.570 1_565 S
N324 C326 1.343 . S
C325 C313 1.422 . S
C325 C327 1.321 . S
C325 H333 0.931 . S
C326 N324 1.343 . S
C326 C327 1.390 . S
C326 H328 0.931 . S
C327 C325 1.321 . S
C327 C326 1.390 . S
C327 H329 0.930 . S
H328 C326 0.931 . S
H329 C327 0.930 . S
H330 C353 0.931 1_556 S
H331 C319 0.929 . S
H332 C354 0.930 1_556 S
H333 C325 0.931 . S
H334 C315 0.930 . S
H335 C344 0.929 . S
H336 C320 0.931 . S
H337 C321 0.930 . S
H338 C376 0.930 . S
H339 C317 0.929 . S
H340 C345 0.931 . S
H341 C346 0.930 . S
N342 Gd322 2.622 . S
N342 C343 1.369 . S
N342 C344 1.338 . S
C343 N342 1.369 . S
C343 C347 1.415 . S
C343 C350 1.422 . S
C344 H335 0.929 . S
C344 N342 1.338 . S
C344 C346 1.378 . S
C345 H340 0.931 . S
C345 C346 1.348 . S
C345 C347 1.413 . S
C346 H341 0.930 . S
C346 C344 1.378 . S
C346 C345 1.348 . S
C347 C343 1.415 . S
C347 C345 1.413 . S
C347 C377 1.437 . S
H348 C377 0.929 . S
N349 Gd322 2.570 . S
N349 C350 1.359 . S
N349 C353 1.343 . S
C350 C343 1.422 . S
C350 N349 1.359 . S
C350 C352 1.421 . S
C351 C352 1.422 . S
C351 C354 1.321 . S
C351 H378 0.931 . S
C352 C350 1.421 . S
C352 C351 1.422 . S
C352 C376 1.417 . S
C353 H330 0.931 1_554 S
C353 N349 1.343 . S
C353 C354 1.390 . S
C354 H332 0.930 1_554 S
C354 C351 1.321 . S
C354 C353 1.390 . S
O355 Gd323 2.386 1_465 S
O355 C367 1.265 . S
O356 Gd322 2.314 1_565 S
O356 C367 1.265 . S
O357 Gd322 2.468 . S
O357 C375 1.263 . S
O358 Gd322 2.427 . S
O358 C375 1.252 . S
O359 Gd323 2.307 1_455 S
O359 C368 1.261 . S
O360 Gd322 2.388 . S
O360 C368 1.252 . S
O361 Gd322 2.386 . S
O361 C379 1.265 . S
O362 Gd323 2.353 1_455 S
O362 C379 1.242 . S
O363 Gd323 2.468 . S
O363 C387 1.263 1_554 S
O364 Gd323 2.427 1_556 S
O364 C387 1.252 . S
O365 Gd322 2.307 . S
O365 C380 1.261 1_554 S
O366 Gd323 2.388 1_456 S
O366 C380 1.252 . S
C367 O355 1.265 . S
C367 O356 1.265 . S
C368 O359 1.261 . S
C368 O360 1.252 . S
C369 C372 1.394 . S
C369 C374 1.370 . S
C369 C375 1.500 . S
C370 C373 1.383 . S
C370 C374 1.395 . S
C371 C372 1.396 . S
C371 C373 1.365 . S
C371 H388 0.929 . S
C372 C369 1.394 . S
C372 C371 1.396 . S
C372 H389 0.930 . S
C373 C370 1.383 . S
C373 C371 1.365 . S
C373 H390 0.909 1_545 S
C374 C369 1.370 . S
C374 C370 1.395 . S
C374 H391 0.930 . S
C375 Gd322 2.805 . S
C375 O357 1.263 . S
C375 O358 1.252 . S
C375 C369 1.500 . S
C376 H338 0.930 . S
C376 C352 1.417 . S
C376 C377 1.329 . S
C377 C347 1.437 . S
C377 H348 0.929 . S
C377 C376 1.329 . S
H378 C351 0.931 . S
C379 O361 1.265 . S
C379 O362 1.242 . S
C380 O365 1.261 1_556 S
C380 O366 1.252 . S
C381 C384 1.394 . S
C381 C386 1.370 1_556 S
C381 C387 1.500 . S
C382 C385 1.383 1_554 S
C382 C386 1.395 . S
C383 C384 1.396 . S
C383 C385 1.365 . S
C383 H392 0.929 . S
C384 C381 1.394 . S
C384 C383 1.396 . S
C384 H393 0.930 . S
C385 C382 1.383 1_556 S
C385 C383 1.365 . S
C385 H394 0.931 . S
C386 C381 1.370 1_554 S
C386 C382 1.395 . S
C386 H395 0.930 . S
C387 Gd323 2.805 1_556 S
C387 O363 1.263 1_556 S
C387 O364 1.252 . S
C387 C381 1.500 . S
H388 C371 0.929 . S
H389 C372 0.930 . S
H390 C373 0.909 1_565 S
H391 C374 0.930 . S
H392 C383 0.929 . S
H393 C384 0.930 . S
H394 C385 0.931 . S
H395 C386 0.930 . S
C396 C398 1.422 . S
C396 C400 1.415 . S
C396 N402 1.369 . S
C397 C398 1.421 . S
C397 C399 1.417 . S
C397 C409 1.422 . S
C398 C396 1.422 . S
C398 C397 1.421 . S
C398 N408 1.359 . S
C399 C397 1.417 . S
C399 C401 1.329 . S
C399 H418 0.930 . S
C400 C396 1.415 . S
C400 C401 1.437 . S
C400 C404 1.413 . S
C401 C399 1.329 . S
C401 C400 1.437 . S
C401 H423 0.929 . S
N402 C396 1.369 . S
N402 C403 1.338 . S
N402 Gd407 2.622 . S
C403 N402 1.338 . S
C403 C405 1.378 . S
C403 H415 0.929 . S
C404 C400 1.413 . S
C404 C405 1.348 . S
C404 H420 0.931 . S
C405 C403 1.378 . S
C405 C404 1.348 . S
C405 H421 0.930 . S
Gd406 N426 2.622 . S
Gd406 N433 2.570 . S
Gd406 O440 2.353 . S
Gd406 O441 2.468 . S
Gd406 O442 2.427 . S
Gd406 O444 2.388 . S
Gd406 O445 2.386 . S
Gd406 O449 2.307 . S
Gd406 C459 2.805 . S
Gd407 N402 2.622 . S
Gd407 N408 2.570 . S
Gd407 O439 2.386 . S
Gd407 O443 2.307 . S
Gd407 O446 2.353 . S
Gd407 O447 2.468 . S
Gd407 O448 2.427 . S
Gd407 O450 2.388 . S
Gd407 C471 2.805 . S
N408 C398 1.359 . S
N408 Gd407 2.570 . S
N408 C410 1.343 . S
C409 C397 1.422 . S
C409 C411 1.321 . S
C409 H417 0.931 . S
C410 N408 1.343 . S
C410 C411 1.390 . S
C410 H412 0.931 . S
C411 C409 1.321 . S
C411 C410 1.390 . S
C411 H413 0.930 . S
H412 C410 0.931 . S
H413 C411 0.930 . S
H414 C437 0.931 . S
H415 C403 0.929 . S
H416 C438 0.930 . S
H417 C409 0.931 . S
H418 C399 0.930 . S
H419 C428 0.929 . S
H420 C404 0.931 . S
H421 C405 0.930 . S
H422 C460 0.930 . S
H423 C401 0.929 . S
H424 C429 0.931 . S
H425 C430 0.930 . S
N426 Gd406 2.622 . S
N426 C427 1.369 . S
N426 C428 1.338 . S
C427 N426 1.369 . S
C427 C431 1.415 . S
C427 C434 1.422 . S
C428 H419 0.929 . S
C428 N426 1.338 . S
C428 C430 1.378 . S
C429 H424 0.931 . S
C429 C430 1.348 . S
C429 C431 1.413 . S
C430 H425 0.930 . S
C430 C428 1.378 . S
C430 C429 1.348 . S
C431 C427 1.415 . S
C431 C429 1.413 . S
C431 C461 1.437 . S
H432 C461 0.929 . S
N433 Gd406 2.570 . S
N433 C434 1.359 . S
N433 C437 1.343 . S
C434 C427 1.422 . S
C434 N433 1.359 . S
C434 C436 1.421 . S
C435 C436 1.422 . S
C435 C438 1.321 . S
C435 H462 0.931 . S
C436 C434 1.421 . S
C436 C435 1.422 . S
C436 C460 1.417 . S
C437 H414 0.931 . S
C437 N433 1.343 . S
C437 C438 1.390 . S
C438 H416 0.930 . S
C438 C435 1.321 . S
C438 C437 1.390 . S
O439 Gd407 2.386 . S
O439 C451 1.265 . S
O440 Gd406 2.353 . S
O440 C451 1.242 . S
O441 Gd406 2.468 . S
O441 C459 1.263 . S
O442 Gd406 2.427 . S
O442 C459 1.252 . S
O443 Gd407 2.307 . S
O443 C452 1.261 . S
O444 Gd406 2.388 . S
O444 C452 1.252 . S
O445 Gd406 2.386 . S
O445 C463 1.265 . S
O446 Gd407 2.353 . S
O446 C463 1.242 . S
O447 Gd407 2.468 . S
O447 C471 1.263 . S
O448 Gd407 2.427 . S
O448 C471 1.252 . S
O449 Gd406 2.307 . S
O449 C464 1.261 . S
O450 Gd407 2.388 . S
O450 C464 1.252 . S
C451 O439 1.265 . S
C451 O440 1.242 . S
C452 O443 1.261 . S
C452 O444 1.252 . S
C453 C456 1.394 . S
C453 C458 1.370 . S
C453 C459 1.500 . S
C454 C457 1.383 . S
C454 C458 1.395 . S
C455 C456 1.396 . S
C455 C457 1.365 . S
C455 H472 0.929 . S
C456 C453 1.394 . S
C456 C455 1.396 . S
C456 H473 0.930 . S
C457 C454 1.383 . S
C457 C455 1.365 . S
C457 H474 0.931 . S
C458 C453 1.370 . S
C458 C454 1.395 . S
C458 H475 0.930 . S
C459 Gd406 2.805 . S
C459 O441 1.263 . S
C459 O442 1.252 . S
C459 C453 1.500 . S
C460 H422 0.930 . S
C460 C436 1.417 . S
C460 C461 1.329 . S
C461 C431 1.437 . S
C461 H432 0.929 . S
C461 C460 1.329 . S
H462 C435 0.931 . S
C463 O445 1.265 . S
C463 O446 1.242 . S
C464 O449 1.261 . S
C464 O450 1.252 . S
C465 C468 1.394 . S
C465 C470 1.370 . S
C465 C471 1.500 . S
C466 C469 1.383 . S
C466 C470 1.395 . S
C467 C468 1.396 . S
C467 C469 1.365 . S
C467 H476 0.929 . S
C468 C465 1.394 . S
C468 C467 1.396 . S
C468 H477 0.930 . S
C469 C466 1.383 . S
C469 C467 1.365 . S
C469 H478 0.931 . S
C470 C465 1.370 . S
C470 C466 1.395 . S
C470 H479 0.930 . S
C471 Gd407 2.805 . S
C471 O447 1.263 . S
C471 O448 1.252 . S
C471 C465 1.500 . S
H472 C455 0.929 . S
H473 C456 0.930 . S
H474 C457 0.931 . S
H475 C458 0.930 . S
H476 C467 0.929 . S
H477 C468 0.930 . S
H478 C469 0.931 . S
H479 C470 0.930 . S
C480 C482 1.422 . S
C480 C484 1.415 . S
C480 N486 1.369 . S
C481 C482 1.421 . S
C481 C483 1.417 . S
C481 C493 1.422 . S
C482 C480 1.422 . S
C482 C481 1.421 . S
C482 N492 1.359 . S
C483 C481 1.417 . S
C483 C485 1.329 . S
C483 H502 0.930 . S
C484 C480 1.415 . S
C484 C485 1.437 . S
C484 C488 1.413 . S
C485 C483 1.329 . S
C485 C484 1.437 . S
C485 H507 0.929 . S
N486 C480 1.369 . S
N486 C487 1.338 . S
N486 Gd491 2.622 . S
C487 N486 1.338 . S
C487 C489 1.378 . S
C487 H499 0.929 . S
C488 C484 1.413 . S
C488 C489 1.348 . S
C488 H504 0.931 . S
C489 C487 1.378 . S
C489 C488 1.348 . S
C489 H505 0.930 . S
Gd490 N510 2.622 . S
Gd490 N517 2.570 1_545 S
Gd490 O524 2.353 . S
Gd490 O525 2.468 . S
Gd490 O526 2.427 . S
Gd490 O528 2.388 . S
Gd490 O529 2.386 1_545 S
Gd490 O533 2.307 . S
Gd490 C543 2.805 . S
Gd491 N486 2.622 . S
Gd491 N492 2.570 . S
Gd491 O523 2.386 . S
Gd491 O527 2.307 . S
Gd491 O530 2.353 1_545 S
Gd491 O531 2.468 . S
Gd491 O532 2.427 . S
Gd491 O534 2.388 . S
Gd491 C555 2.805 . S
N492 C482 1.359 . S
N492 Gd491 2.570 . S
N492 C494 1.343 . S
C493 C481 1.422 . S
C493 C495 1.321 . S
C493 H501 0.931 . S
C494 N492 1.343 . S
C494 C495 1.390 . S
C494 H496 0.931 . S
C495 C493 1.321 . S
C495 C494 1.390 . S
C495 H497 0.930 . S
H496 C494 0.931 . S
H497 C495 0.930 . S
H498 C521 0.910 1_545 S
H499 C487 0.929 . S
H500 C522 0.930 . S
H501 C493 0.931 . S
H502 C483 0.930 . S
H503 C512 0.929 . S
H504 C488 0.931 . S
H505 C489 0.930 . S
H506 C544 0.930 . S
H507 C485 0.929 . S
H508 C513 0.931 . S
H509 C514 0.930 . S
N510 Gd490 2.622 . S
N510 C511 1.369 1_545 S
N510 C512 1.338 . S
C511 N510 1.369 1_565 S
C511 C515 1.415 . S
C511 C518 1.422 . S
C512 H503 0.929 . S
C512 N510 1.338 . S
C512 C514 1.378 1_545 S
C513 H508 0.931 . S
C513 C514 1.348 . S
C513 C515 1.413 . S
C514 H509 0.930 . S
C514 C512 1.378 1_565 S
C514 C513 1.348 . S
C515 C511 1.415 . S
C515 C513 1.413 . S
C515 C545 1.437 . S
H516 C545 0.929 . S
N517 Gd490 2.570 1_565 S
N517 C518 1.359 . S
N517 C521 1.343 . S
C518 C511 1.422 . S
C518 N517 1.359 . S
C518 C520 1.421 . S
C519 C520 1.422 . S
C519 C522 1.321 . S
C519 H546 0.931 . S
C520 C518 1.421 . S
C520 C519 1.422 . S
C520 C544 1.417 . S
C521 H498 0.910 1_565 S
C521 N517 1.343 . S
C521 C522 1.390 . S
C522 H500 0.930 . S
C522 C519 1.321 . S
C522 C521 1.390 . S
O523 Gd491 2.386 . S
O523 C535 1.265 . S
O524 Gd490 2.353 . S
O524 C535 1.242 . S
O525 Gd490 2.468 . S
O525 C543 1.263 . S
O526 Gd490 2.427 . S
O526 C543 1.252 . S
O527 Gd491 2.307 . S
O527 C536 1.261 . S
O528 Gd490 2.388 . S
O528 C536 1.252 . S
O529 Gd490 2.386 1_565 S
O529 C547 1.265 . S
O530 Gd491 2.353 1_565 S
O530 C547 1.242 . S
O531 Gd491 2.468 . S
O531 C555 1.263 . S
O532 Gd491 2.427 . S
O532 C555 1.252 . S
O533 Gd490 2.307 . S
O533 C548 1.261 . S
O534 Gd491 2.388 . S
O534 C548 1.252 . S
C535 O523 1.265 . S
C535 O524 1.242 . S
C536 O527 1.261 . S
C536 O528 1.252 . S
C537 C540 1.394 . S
C537 C542 1.370 . S
C537 C543 1.500 . S
C538 C541 1.383 . S
C538 C542 1.395 . S
C539 C540 1.396 . S
C539 C541 1.365 . S
C539 H556 0.929 . S
C540 C537 1.394 . S
C540 C539 1.396 . S
C540 H557 0.930 . S
C541 C538 1.383 . S
C541 C539 1.365 . S
C541 H558 0.931 . S
C542 C537 1.370 . S
C542 C538 1.395 . S
C542 H559 0.930 . S
C543 Gd490 2.805 . S
C543 O525 1.263 . S
C543 O526 1.252 . S
C543 C537 1.500 . S
C544 H506 0.930 . S
C544 C520 1.417 . S
C544 C545 1.329 . S
C545 C515 1.437 . S
C545 H516 0.929 . S
C545 C544 1.329 . S
H546 C519 0.931 . S
C547 O529 1.265 . S
C547 O530 1.242 . S
C548 O533 1.261 . S
C548 O534 1.252 . S
C549 C552 1.399 . S
C549 C554 1.384 . S
C549 C555 1.480 1_565 S
C550 C553 1.383 . S
C550 C554 1.395 . S
C551 C552 1.396 . S
C551 C553 1.365 . S
C551 H560 0.929 . S
C552 C549 1.399 . S
C552 C551 1.396 . S
C552 H561 0.930 . S
C553 C550 1.383 . S
C553 C551 1.365 . S
C553 H562 0.931 . S
C554 C549 1.384 . S
C554 C550 1.395 . S
C554 H563 0.930 . S
C555 Gd491 2.805 . S
C555 O531 1.263 . S
C555 O532 1.252 . S
C555 C549 1.480 1_545 S
H556 C539 0.929 . S
H557 C540 0.930 . S
H558 C541 0.931 . S
H559 C542 0.930 . S
H560 C551 0.929 . S
H561 C552 0.930 . S
H562 C553 0.931 . S
H563 C554 0.930 . S
C564 C566 1.422 . S
C564 C568 1.415 . S
C564 N570 1.369 . S
C565 C566 1.421 . S
C565 C567 1.417 . S
C565 C577 1.422 . S
C566 C564 1.422 . S
C566 C565 1.421 . S
C566 N576 1.359 . S
C567 C565 1.417 . S
C567 C569 1.329 . S
C567 H586 0.930 . S
C568 C564 1.415 . S
C568 C569 1.437 . S
C568 C572 1.413 . S
C569 C567 1.329 . S
C569 C568 1.437 . S
C569 H591 0.929 . S
N570 C564 1.369 . S
N570 C571 1.338 . S
N570 Gd575 2.622 . S
C571 N570 1.338 . S
C571 C573 1.378 . S
C571 H583 0.929 . S
C572 C568 1.413 . S
C572 C573 1.348 . S
C572 H588 0.931 . S
C573 C571 1.378 . S
C573 C572 1.348 . S
C573 H589 0.930 . S
Gd574 N594 2.622 . S
Gd574 N601 2.570 . S
Gd574 O608 2.353 . S
Gd574 O609 2.468 . S
Gd574 O610 2.427 . S
Gd574 O612 2.388 . S
Gd574 O613 2.386 . S
Gd574 O617 2.307 . S
Gd574 C627 2.805 . S
Gd575 N570 2.622 . S
Gd575 N576 2.570 . S
Gd575 O607 2.386 . S
Gd575 O611 2.307 . S
Gd575 O614 2.353 . S
Gd575 O615 2.468 . S
Gd575 O616 2.427 . S
Gd575 O618 2.388 . S
Gd575 C639 2.805 . S
N576 C566 1.359 . S
N576 Gd575 2.570 . S
N576 C578 1.343 . S
C577 C565 1.422 . S
C577 C579 1.321 . S
C577 H585 0.931 . S
C578 N576 1.343 . S
C578 C579 1.390 . S
C578 H580 0.931 . S
C579 C577 1.321 . S
C579 C578 1.390 . S
C579 H581 0.930 . S
H580 C578 0.931 . S
H581 C579 0.930 . S
H582 C605 0.931 . S
H583 C571 0.929 . S
H584 C606 0.930 . S
H585 C577 0.931 . S
H586 C567 0.930 . S
H587 C596 0.929 . S
H588 C572 0.931 . S
H589 C573 0.930 . S
H590 C628 0.930 . S
H591 C569 0.929 . S
H592 C597 0.931 . S
H593 C598 0.930 . S
N594 Gd574 2.622 . S
N594 C595 1.369 . S
N594 C596 1.338 . S
C595 N594 1.369 . S
C595 C599 1.415 . S
C595 C602 1.422 . S
C596 H587 0.929 . S
C596 N594 1.338 . S
C596 C598 1.378 . S
C597 H592 0.931 . S
C597 C598 1.348 . S
C597 C599 1.413 . S
C598 H593 0.930 . S
C598 C596 1.378 . S
C598 C597 1.348 . S
C599 C595 1.415 . S
C599 C597 1.413 . S
C599 C629 1.437 . S
H600 C629 0.929 . S
N601 Gd574 2.570 . S
N601 C602 1.359 . S
N601 C605 1.343 . S
C602 C595 1.422 . S
C602 N601 1.359 . S
C602 C604 1.421 . S
C603 C604 1.422 . S
C603 C606 1.321 . S
C603 H630 0.931 . S
C604 C602 1.421 . S
C604 C603 1.422 . S
C604 C628 1.417 . S
C605 H582 0.931 . S
C605 N601 1.343 . S
C605 C606 1.390 . S
C606 H584 0.930 . S
C606 C603 1.321 . S
C606 C605 1.390 . S
O607 Gd575 2.386 . S
O607 C619 1.265 . S
O608 Gd574 2.353 . S
O608 C619 1.242 . S
O609 Gd574 2.468 . S
O609 C627 1.263 . S
O610 Gd574 2.427 . S
O610 C627 1.252 . S
O611 Gd575 2.307 . S
O611 C620 1.261 . S
O612 Gd574 2.388 . S
O612 C620 1.252 . S
O613 Gd574 2.386 . S
O613 C631 1.265 . S
O614 Gd575 2.353 . S
O614 C631 1.242 . S
O615 Gd575 2.468 . S
O615 C639 1.263 . S
O616 Gd575 2.427 . S
O616 C639 1.252 . S
O617 Gd574 2.307 . S
O617 C632 1.261 . S
O618 Gd575 2.388 . S
O618 C632 1.252 . S
C619 O607 1.265 . S
C619 O608 1.242 . S
C620 O611 1.261 . S
C620 O612 1.252 . S
C621 C624 1.394 . S
C621 C626 1.370 . S
C621 C627 1.500 . S
C622 C625 1.383 . S
C622 C626 1.395 . S
C623 C624 1.396 . S
C623 C625 1.365 . S
C623 H640 0.929 . S
C624 C621 1.394 . S
C624 C623 1.396 . S
C624 H641 0.930 . S
C625 C622 1.383 . S
C625 C623 1.365 . S
C625 H642 0.931 . S
C626 C621 1.370 . S
C626 C622 1.395 . S
C626 H643 0.930 . S
C627 Gd574 2.805 . S
C627 O609 1.263 . S
C627 O610 1.252 . S
C627 C621 1.500 . S
C628 H590 0.930 . S
C628 C604 1.417 . S
C628 C629 1.329 . S
C629 C599 1.437 . S
C629 H600 0.929 . S
C629 C628 1.329 . S
H630 C603 0.931 . S
C631 O613 1.265 . S
C631 O614 1.242 . S
C632 O617 1.261 . S
C632 O618 1.252 . S
C633 C636 1.394 . S
C633 C638 1.370 . S
C633 C639 1.500 . S
C634 C637 1.383 . S
C634 C638 1.395 . S
C635 C636 1.396 . S
C635 C637 1.365 . S
C635 H644 0.929 . S
C636 C633 1.394 . S
C636 C635 1.396 . S
C636 H645 0.930 . S
C637 C634 1.383 . S
C637 C635 1.365 . S
C637 H646 0.931 . S
C638 C633 1.370 . S
C638 C634 1.395 . S
C638 H647 0.930 . S
C639 Gd575 2.805 . S
C639 O615 1.263 . S
C639 O616 1.252 . S
C639 C633 1.500 . S
H640 C623 0.929 . S
H641 C624 0.930 . S
H642 C625 0.931 . S
H643 C626 0.930 . S
H644 C635 0.929 . S
H645 C636 0.930 . S
H646 C637 0.931 . S
H647 C638 0.930 . S
C648 C650 1.422 . S
C648 C652 1.415 1_455 S
C648 N654 1.369 1_455 S
C649 C650 1.421 . S
C649 C651 1.417 . S
C649 C661 1.422 . S
C650 C648 1.422 . S
C650 C649 1.421 . S
C650 N660 1.359 . S
C651 C649 1.417 . S
C651 C653 1.329 . S
C651 H670 0.930 . S
C652 C648 1.415 1_655 S
C652 C653 1.437 1_655 S
C652 C656 1.413 . S
C653 C651 1.329 . S
C653 C652 1.437 1_455 S
C653 H675 0.929 1_455 S
N654 C648 1.369 1_655 S
N654 C655 1.338 . S
N654 Gd659 2.622 1_655 S
C655 N654 1.338 . S
C655 C657 1.378 . S
C655 H667 0.929 . S
C656 C652 1.413 . S
C656 C657 1.348 . S
C656 H672 0.931 . S
C657 C655 1.378 . S
C657 C656 1.348 . S
C657 H673 0.930 . S
Gd658 N678 2.611 1_545 S
Gd658 N685 2.552 1_545 S
Gd658 O692 2.362 . S
Gd658 O693 2.444 1_545 S
Gd658 O694 2.405 1_545 S
Gd658 O696 2.406 . S
Gd658 O697 2.402 . S
Gd658 O701 2.316 . S
Gd658 C711 2.780 1_545 S
Gd659 N654 2.622 1_455 S
Gd659 N660 2.570 . S
Gd659 O691 2.386 . S
Gd659 O695 2.307 . S
Gd659 O698 2.353 . S
Gd659 O699 2.468 . S
Gd659 O700 2.427 1_455 S
Gd659 O702 2.388 1_455 S
Gd659 C723 2.805 . S
N660 C650 1.359 . S
N660 Gd659 2.570 . S
N660 C662 1.343 . S
C661 C649 1.422 . S
C661 C663 1.321 . S
C661 H669 0.931 . S
C662 N660 1.343 . S
C662 C663 1.390 . S
C662 H664 0.931 . S
C663 C661 1.321 . S
C663 C662 1.390 . S
C663 H665 0.930 . S
H664 C662 0.931 . S
H665 C663 0.930 . S
H666 C689 0.931 . S
H667 C655 0.929 . S
H668 C690 0.930 . S
H669 C661 0.931 . S
H670 C651 0.930 . S
H671 C680 0.929 1_545 S
H672 C656 0.931 . S
H673 C657 0.930 . S
H674 C712 0.930 . S
H675 C653 0.929 1_655 S
H676 C681 0.931 . S
H677 C682 0.930 . S
N678 Gd658 2.611 1_565 S
N678 C679 1.369 . S
N678 C680 1.338 . S
C679 N678 1.369 . S
C679 C683 1.415 . S
C679 C686 1.422 . S
C680 H671 0.929 1_565 S
C680 N678 1.338 . S
C680 C682 1.378 . S
C681 H676 0.931 . S
C681 C682 1.348 . S
C681 C683 1.413 . S
C682 H677 0.930 . S
C682 C680 1.378 . S
C682 C681 1.348 . S
C683 C679 1.415 . S
C683 C681 1.413 . S
C683 C713 1.437 . S
H684 C713 0.929 . S
N685 Gd658 2.552 1_565 S
N685 C686 1.359 . S
N685 C689 1.343 1_455 S
C686 C679 1.422 . S
C686 N685 1.359 . S
C686 C688 1.421 . S
C687 C688 1.422 1_655 S
C687 C690 1.321 . S
C687 H714 0.931 . S
C688 C686 1.421 . S
C688 C687 1.422 1_455 S
C688 C712 1.417 . S
C689 H666 0.931 . S
C689 N685 1.343 1_655 S
C689 C690 1.390 . S
C690 H668 0.930 . S
C690 C687 1.321 . S
C690 C689 1.390 . S
O691 Gd659 2.386 . S
O691 C703 1.265 . S
O692 Gd658 2.362 . S
O692 C703 1.242 . S
O693 Gd658 2.444 1_565 S
O693 C711 1.263 . S
O694 Gd658 2.405 1_565 S
O694 C711 1.252 . S
O695 Gd659 2.307 . S
O695 C704 1.261 . S
O696 Gd658 2.406 . S
O696 C704 1.252 . S
O697 Gd658 2.402 . S
O697 C715 1.265 . S
O698 Gd659 2.353 . S
O698 C715 1.242 . S
O699 Gd659 2.468 . S
O699 C723 1.263 . S
O700 Gd659 2.427 1_655 S
O700 C723 1.252 1_655 S
O701 Gd658 2.316 . S
O701 C716 1.261 1_455 S
O702 Gd659 2.388 1_655 S
O702 C716 1.252 . S
C703 O691 1.265 . S
C703 O692 1.242 . S
C704 O695 1.261 . S
C704 O696 1.252 . S
C705 C708 1.394 . S
C705 C710 1.370 . S
C705 C711 1.500 . S
C706 C709 1.383 . S
C706 C710 1.395 . S
C707 C708 1.396 . S
C707 C709 1.365 . S
C707 H724 0.929 . S
C708 C705 1.394 . S
C708 C707 1.396 . S
C708 H725 0.930 . S
C709 C706 1.383 . S
C709 C707 1.365 . S
C709 H726 0.931 . S
C710 C705 1.370 . S
C710 C706 1.395 . S
C710 H727 0.930 . S
C711 Gd658 2.780 1_565 S
C711 O693 1.263 . S
C711 O694 1.252 . S
C711 C705 1.500 . S
C712 H674 0.930 . S
C712 C688 1.417 . S
C712 C713 1.329 . S
C713 C683 1.437 . S
C713 H684 0.929 . S
C713 C712 1.329 . S
H714 C687 0.931 . S
C715 O697 1.265 . S
C715 O698 1.242 . S
C716 O701 1.261 1_655 S
C716 O702 1.252 . S
C717 C720 1.394 1_455 S
C717 C722 1.370 . S
C717 C723 1.500 . S
C718 C721 1.383 1_455 S
C718 C722 1.395 . S
C719 C720 1.396 . S
C719 C721 1.365 . S
C719 H728 0.929 . S
C720 C717 1.394 1_655 S
C720 C719 1.396 . S
C720 H729 0.930 . S
C721 C718 1.383 1_655 S
C721 C719 1.365 . S
C721 H730 0.931 . S
C722 C717 1.370 . S
C722 C718 1.395 . S
C722 H731 0.930 . S
C723 Gd659 2.805 . S
C723 O699 1.263 . S
C723 O700 1.252 1_455 S
C723 C717 1.500 . S
H724 C707 0.929 . S
H725 C708 0.930 . S
H726 C709 0.931 . S
H727 C710 0.930 . S
H728 C719 0.929 . S
H729 C720 0.930 . S
H730 C721 0.931 . S
H731 C722 0.930 . S
C732 C734 1.422 . S
C732 C736 1.415 . S
C732 N738 1.369 . S
C733 C734 1.421 . S
C733 C735 1.417 . S
C733 C745 1.422 . S
C734 C732 1.422 . S
C734 C733 1.421 . S
C734 N744 1.359 . S
C735 C733 1.417 . S
C735 C737 1.329 . S
C735 H754 0.930 . S
C736 C732 1.415 . S
C736 C737 1.437 . S
C736 C740 1.413 . S
C737 C735 1.329 . S
C737 C736 1.437 . S
C737 H759 0.929 . S
N738 C732 1.369 . S
N738 C739 1.338 . S
N738 Gd743 2.622 . S
C739 N738 1.338 . S
C739 C741 1.378 . S
C739 H751 0.929 . S
C740 C736 1.413 . S
C740 C741 1.348 . S
C740 H756 0.931 . S
C741 C739 1.378 . S
C741 C740 1.348 . S
C741 H757 0.930 . S
Gd742 N762 2.622 . S
Gd742 N769 2.570 . S
Gd742 O776 2.353 . S
Gd742 O777 2.468 . S
Gd742 O778 2.427 . S
Gd742 O780 2.388 . S
Gd742 O781 2.386 . S
Gd742 O785 2.307 . S
Gd742 C795 2.805 . S
Gd743 N738 2.622 . S
Gd743 N744 2.570 . S
Gd743 O775 2.386 . S
Gd743 O779 2.307 . S
Gd743 O782 2.353 . S
Gd743 O783 2.468 . S
Gd743 O784 2.427 . S
Gd743 O786 2.388 . S
Gd743 C807 2.805 . S
N744 C734 1.359 . S
N744 Gd743 2.570 . S
N744 C746 1.343 . S
C745 C733 1.422 . S
C745 C747 1.321 . S
C745 H753 0.931 . S
C746 N744 1.343 . S
C746 C747 1.390 . S
C746 H748 0.931 . S
C747 C745 1.321 . S
C747 C746 1.390 . S
C747 H749 0.930 . S
H748 C746 0.931 . S
H749 C747 0.930 . S
H750 C773 0.931 . S
H751 C739 0.929 . S
H752 C774 0.930 . S
H753 C745 0.931 . S
H754 C735 0.930 . S
H755 C764 0.929 . S
H756 C740 0.931 . S
H757 C741 0.930 . S
H758 C796 0.930 . S
H759 C737 0.929 . S
H760 C765 0.931 . S
H761 C766 0.930 . S
N762 Gd742 2.622 . S
N762 C763 1.369 . S
N762 C764 1.338 . S
C763 N762 1.369 . S
C763 C767 1.415 . S
C763 C770 1.422 . S
C764 H755 0.929 . S
C764 N762 1.338 . S
C764 C766 1.378 . S
C765 H760 0.931 . S
C765 C766 1.348 . S
C765 C767 1.413 . S
C766 H761 0.930 . S
C766 C764 1.378 . S
C766 C765 1.348 . S
C767 C763 1.415 . S
C767 C765 1.413 . S
C767 C797 1.437 . S
H768 C797 0.929 . S
N769 Gd742 2.570 . S
N769 C770 1.359 . S
N769 C773 1.343 . S
C770 C763 1.422 . S
C770 N769 1.359 . S
C770 C772 1.421 . S
C771 C772 1.422 . S
C771 C774 1.321 . S
C771 H798 0.931 . S
C772 C770 1.421 . S
C772 C771 1.422 . S
C772 C796 1.417 . S
C773 H750 0.931 . S
C773 N769 1.343 . S
C773 C774 1.390 . S
C774 H752 0.930 . S
C774 C771 1.321 . S
C774 C773 1.390 . S
O775 Gd743 2.386 . S
O775 C787 1.265 . S
O776 Gd742 2.353 . S
O776 C787 1.242 . S
O777 Gd742 2.468 . S
O777 C795 1.263 . S
O778 Gd742 2.427 . S
O778 C795 1.252 . S
O779 Gd743 2.307 . S
O779 C788 1.261 . S
O780 Gd742 2.388 . S
O780 C788 1.252 . S
O781 Gd742 2.386 . S
O781 C799 1.265 . S
O782 Gd743 2.353 . S
O782 C799 1.242 . S
O783 Gd743 2.468 . S
O783 C807 1.263 . S
O784 Gd743 2.427 . S
O784 C807 1.252 . S
O785 Gd742 2.307 . S
O785 C800 1.261 . S
O786 Gd743 2.388 . S
O786 C800 1.252 . S
C787 O775 1.265 . S
C787 O776 1.242 . S
C788 O779 1.261 . S
C788 O780 1.252 . S
C789 C792 1.394 . S
C789 C794 1.370 . S
C789 C795 1.500 . S
C790 C793 1.383 . S
C790 C794 1.395 . S
C791 C792 1.396 . S
C791 C793 1.365 . S
C791 H808 0.929 . S
C792 C789 1.394 . S
C792 C791 1.396 . S
C792 H809 0.930 . S
C793 C790 1.383 . S
C793 C791 1.365 . S
C793 H810 0.931 . S
C794 C789 1.370 . S
C794 C790 1.395 . S
C794 H811 0.930 . S
C795 Gd742 2.805 . S
C795 O777 1.263 . S
C795 O778 1.252 . S
C795 C789 1.500 . S
C796 H758 0.930 . S
C796 C772 1.417 . S
C796 C797 1.329 . S
C797 C767 1.437 . S
C797 H768 0.929 . S
C797 C796 1.329 . S
H798 C771 0.931 . S
C799 O781 1.265 . S
C799 O782 1.242 . S
C800 O785 1.261 . S
C800 O786 1.252 . S
C801 C804 1.394 . S
C801 C806 1.370 . S
C801 C807 1.500 . S
C802 C805 1.383 . S
C802 C806 1.395 . S
C803 C804 1.396 . S
C803 C805 1.365 . S
C803 H812 0.929 . S
C804 C801 1.394 . S
C804 C803 1.396 . S
C804 H813 0.930 . S
C805 C802 1.383 . S
C805 C803 1.365 . S
C805 H814 0.931 . S
C806 C801 1.370 . S
C806 C802 1.395 . S
C806 H815 0.930 . S
C807 Gd743 2.805 . S
C807 O783 1.263 . S
C807 O784 1.252 . S
C807 C801 1.500 . S
H808 C791 0.929 . S
H809 C792 0.930 . S
H810 C793 0.931 . S
H811 C794 0.930 . S
H812 C803 0.929 . S
H813 C804 0.930 . S
H814 C805 0.931 . S
H815 C806 0.930 . S
C816 C818 1.422 1_565 S
C816 C820 1.415 . S
C816 N822 1.369 . S
C817 C818 1.421 . S
C817 C819 1.417 . S
C817 C829 1.422 . S
C818 C816 1.422 1_545 S
C818 C817 1.421 . S
C818 N828 1.359 . S
C819 C817 1.417 . S
C819 C821 1.329 1_545 S
C819 H838 0.930 . S
C820 C816 1.415 . S
C820 C821 1.437 . S
C820 C824 1.413 . S
C821 C819 1.329 1_565 S
C821 C820 1.437 . S
C821 H843 0.929 . S
N822 C816 1.369 . S
N822 C823 1.338 . S
N822 Gd827 2.622 1_565 S
C823 N822 1.338 . S
C823 C825 1.378 . S
C823 H835 0.929 . S
C824 C820 1.413 . S
C824 C825 1.348 . S
C824 H840 0.931 . S
C825 C823 1.378 . S
C825 C824 1.348 . S
C825 H841 0.930 . S
Gd826 N846 2.630 . S
Gd826 N853 2.589 . S
Gd826 O860 2.343 1_556 S
Gd826 O861 2.491 . S
Gd826 O862 2.446 . S
Gd826 O864 2.368 1_556 S
Gd826 O865 2.373 1_556 S
Gd826 O869 2.302 1_556 S
Gd826 C879 2.828 . S
Gd827 N822 2.622 1_545 S
Gd827 N828 2.570 . S
Gd827 O859 2.386 . S
Gd827 O863 2.307 . S
Gd827 O866 2.353 . S
Gd827 O867 2.468 . S
Gd827 O868 2.427 1_545 S
Gd827 O870 2.388 1_545 S
Gd827 C891 2.805 1_545 S
N828 C818 1.359 . S
N828 Gd827 2.570 . S
N828 C830 1.343 . S
C829 C817 1.422 . S
C829 C831 1.321 . S
C829 H837 0.931 . S
C830 N828 1.343 . S
C830 C831 1.390 . S
C830 H832 0.931 . S
C831 C829 1.321 . S
C831 C830 1.390 . S
C831 H833 0.930 . S
H832 C830 0.931 . S
H833 C831 0.930 . S
H834 C857 0.931 1_565 S
H835 C823 0.929 . S
H836 C858 0.930 . S
H837 C829 0.931 . S
H838 C819 0.930 . S
H839 C848 0.929 1_554 S
H840 C824 0.931 . S
H841 C825 0.930 . S
H842 C880 0.930 . S
H843 C821 0.929 . S
H844 C849 0.931 . S
H845 C850 0.930 . S
N846 Gd826 2.630 . S
N846 C847 1.369 . S
N846 C848 1.338 . S
C847 N846 1.369 . S
C847 C851 1.415 . S
C847 C854 1.422 . S
C848 H839 0.929 1_556 S
C848 N846 1.338 . S
C848 C850 1.378 . S
C849 H844 0.931 . S
C849 C850 1.348 . S
C849 C851 1.413 . S
C850 H845 0.930 . S
C850 C848 1.378 . S
C850 C849 1.348 . S
C851 C847 1.415 . S
C851 C849 1.413 . S
C851 C881 1.437 . S
H852 C881 0.929 . S
N853 Gd826 2.589 . S
N853 C854 1.359 . S
N853 C857 1.343 . S
C854 C847 1.422 . S
C854 N853 1.359 . S
C854 C856 1.421 . S
C855 C856 1.422 . S
C855 C858 1.321 1_545 S
C855 H882 0.931 1_545 S
C856 C854 1.421 . S
C856 C855 1.422 . S
C856 C880 1.417 . S
C857 H834 0.931 1_545 S
C857 N853 1.343 . S
C857 C858 1.390 1_545 S
C858 H836 0.930 . S
C858 C855 1.321 1_565 S
C858 C857 1.390 1_565 S
O859 Gd827 2.386 . S
O859 C871 1.265 . S
O860 Gd826 2.343 1_554 S
O860 C871 1.242 . S
O861 Gd826 2.491 . S
O861 C879 1.263 . S
O862 Gd826 2.446 . S
O862 C879 1.252 . S
O863 Gd827 2.307 . S
O863 C872 1.261 . S
O864 Gd826 2.368 1_554 S
O864 C872 1.252 . S
O865 Gd826 2.373 1_554 S
O865 C883 1.265 . S
O866 Gd827 2.353 . S
O866 C883 1.242 . S
O867 Gd827 2.468 . S
O867 C891 1.263 1_545 S
O868 Gd827 2.427 1_565 S
O868 C891 1.252 . S
O869 Gd826 2.302 1_554 S
O869 C884 1.261 1_545 S
O870 Gd827 2.388 1_565 S
O870 C884 1.252 . S
C871 O859 1.265 . S
C871 O860 1.242 . S
C872 O863 1.261 . S
C872 O864 1.252 . S
C873 C876 1.394 . S
C873 C878 1.370 . S
C873 C879 1.500 . S
C874 C877 1.383 . S
C874 C878 1.395 . S
C875 C876 1.396 . S
C875 C877 1.365 . S
C875 H892 0.929 . S
C876 C873 1.394 . S
C876 C875 1.396 . S
C876 H893 0.930 . S
C877 C874 1.383 . S
C877 C875 1.365 . S
C877 H894 0.931 . S
C878 C873 1.370 . S
C878 C874 1.395 . S
C878 H895 0.930 . S
C879 Gd826 2.828 . S
C879 O861 1.263 . S
C879 O862 1.252 . S
C879 C873 1.500 . S
C880 H842 0.930 . S
C880 C856 1.417 . S
C880 C881 1.329 . S
C881 C851 1.437 . S
C881 H852 0.929 . S
C881 C880 1.329 . S
H882 C855 0.931 1_565 S
C883 O865 1.265 . S
C883 O866 1.242 . S
C884 O869 1.261 1_565 S
C884 O870 1.252 . S
C885 C888 1.394 . S
C885 C890 1.370 1_565 S
C885 C891 1.500 . S
C886 C889 1.394 . S
C886 C890 1.392 1_565 S
C887 C888 1.396 . S
C887 C889 1.365 . S
C887 H896 0.929 . S
C888 C885 1.394 . S
C888 C887 1.396 . S
C888 H897 0.930 . S
C889 C886 1.394 . S
C889 C887 1.365 . S
C889 H898 0.931 . S
C890 C885 1.370 1_545 S
C890 C886 1.392 1_545 S
C890 H899 0.930 . S
C891 Gd827 2.805 1_565 S
C891 O867 1.263 1_565 S
C891 O868 1.252 . S
C891 C885 1.500 . S
H892 C875 0.929 . S
H893 C876 0.930 . S
H894 C877 0.931 . S
H895 C878 0.930 . S
H896 C887 0.929 . S
H897 C888 0.930 . S
H898 C889 0.931 . S
H899 C890 0.930 . S
C900 C902 1.422 . S
C900 C904 1.415 . S
C900 N906 1.369 . S
C901 C902 1.421 . S
C901 C903 1.417 . S
C901 C913 1.422 . S
C902 C900 1.422 . S
C902 C901 1.421 . S
C902 N912 1.359 . S
C903 C901 1.417 . S
C903 C905 1.329 . S
C903 H922 0.930 . S
C904 C900 1.415 . S
C904 C905 1.437 . S
C904 C908 1.413 . S
C905 C903 1.329 . S
C905 C904 1.437 . S
C905 H927 0.929 . S
N906 C900 1.369 . S
N906 C907 1.338 . S
N906 Gd911 2.622 . S
C907 N906 1.338 . S
C907 C909 1.378 . S
C907 H919 0.929 . S
C908 C904 1.413 . S
C908 C909 1.348 . S
C908 H924 0.931 . S
C909 C907 1.378 . S
C909 C908 1.348 . S
C909 H925 0.930 . S
Gd910 N930 2.622 . S
Gd910 N937 2.570 . S
Gd910 O944 2.353 . S
Gd910 O945 2.468 . S
Gd910 O946 2.427 . S
Gd910 O948 2.388 . S
Gd910 O949 2.386 . S
Gd910 O953 2.307 . S
Gd910 C963 2.805 . S
Gd911 N906 2.622 . S
Gd911 N912 2.570 . S
Gd911 O943 2.386 . S
Gd911 O947 2.307 . S
Gd911 O950 2.353 . S
Gd911 O951 2.468 . S
Gd911 O952 2.427 . S
Gd911 O954 2.388 . S
Gd911 C975 2.805 . S
N912 C902 1.359 . S
N912 Gd911 2.570 . S
N912 C914 1.343 . S
C913 C901 1.422 . S
C913 C915 1.321 . S
C913 H921 0.931 . S
C914 N912 1.343 . S
C914 C915 1.390 . S
C914 H916 0.931 . S
C915 C913 1.321 . S
C915 C914 1.390 . S
C915 H917 0.930 . S
H916 C914 0.931 . S
H917 C915 0.930 . S
H918 C941 0.931 . S
H919 C907 0.929 . S
H920 C942 0.930 . S
H921 C913 0.931 . S
H922 C903 0.930 . S
H923 C932 0.929 . S
H924 C908 0.931 . S
H925 C909 0.930 . S
H926 C964 0.930 . S
H927 C905 0.929 . S
H928 C933 0.931 . S
H929 C934 0.930 . S
N930 Gd910 2.622 . S
N930 C931 1.369 . S
N930 C932 1.338 . S
C931 N930 1.369 . S
C931 C935 1.415 . S
C931 C938 1.422 . S
C932 H923 0.929 . S
C932 N930 1.338 . S
C932 C934 1.378 . S
C933 H928 0.931 . S
C933 C934 1.348 . S
C933 C935 1.413 . S
C934 H929 0.930 . S
C934 C932 1.378 . S
C934 C933 1.348 . S
C935 C931 1.415 . S
C935 C933 1.413 . S
C935 C965 1.437 . S
H936 C965 0.929 . S
N937 Gd910 2.570 . S
N937 C938 1.359 . S
N937 C941 1.343 . S
C938 C931 1.422 . S
C938 N937 1.359 . S
C938 C940 1.421 . S
C939 C940 1.422 . S
C939 C942 1.321 . S
C939 H966 0.931 . S
C940 C938 1.421 . S
C940 C939 1.422 . S
C940 C964 1.417 . S
C941 H918 0.931 . S
C941 N937 1.343 . S
C941 C942 1.390 . S
C942 H920 0.930 . S
C942 C939 1.321 . S
C942 C941 1.390 . S
O943 Gd911 2.386 . S
O943 C955 1.265 . S
O944 Gd910 2.353 . S
O944 C955 1.242 . S
O945 Gd910 2.468 . S
O945 C963 1.263 . S
O946 Gd910 2.427 . S
O946 C963 1.252 . S
O947 Gd911 2.307 . S
O947 C956 1.261 . S
O948 Gd910 2.388 . S
O948 C956 1.252 . S
O949 Gd910 2.386 . S
O949 C967 1.265 . S
O950 Gd911 2.353 . S
O950 C967 1.242 . S
O951 Gd911 2.468 . S
O951 C975 1.263 . S
O952 Gd911 2.427 . S
O952 C975 1.252 . S
O953 Gd910 2.307 . S
O953 C968 1.261 . S
O954 Gd911 2.388 . S
O954 C968 1.252 . S
C955 O943 1.265 . S
C955 O944 1.242 . S
C956 O947 1.261 . S
C956 O948 1.252 . S
C957 C960 1.394 . S
C957 C962 1.370 . S
C957 C963 1.500 . S
C958 C961 1.383 . S
C958 C962 1.395 . S
C959 C960 1.396 . S
C959 C961 1.365 . S
C959 H976 0.929 . S
C960 C957 1.394 . S
C960 C959 1.396 . S
C960 H977 0.930 . S
C961 C958 1.383 . S
C961 C959 1.365 . S
C961 H978 0.931 . S
C962 C957 1.370 . S
C962 C958 1.395 . S
C962 H979 0.930 . S
C963 Gd910 2.805 . S
C963 O945 1.263 . S
C963 O946 1.252 . S
C963 C957 1.500 . S
C964 H926 0.930 . S
C964 C940 1.417 . S
C964 C965 1.329 . S
C965 C935 1.437 . S
C965 H936 0.929 . S
C965 C964 1.329 . S
H966 C939 0.931 . S
C967 O949 1.265 . S
C967 O950 1.242 . S
C968 O953 1.261 . S
C968 O954 1.252 . S
C969 C972 1.394 . S
C969 C974 1.370 . S
C969 C975 1.500 . S
C970 C973 1.383 . S
C970 C974 1.395 . S
C971 C972 1.396 . S
C971 C973 1.365 . S
C971 H980 0.929 . S
C972 C969 1.394 . S
C972 C971 1.396 . S
C972 H981 0.930 . S
C973 C970 1.383 . S
C973 C971 1.365 . S
C973 H982 0.931 . S
C974 C969 1.370 . S
C974 C970 1.395 . S
C974 H983 0.930 . S
C975 Gd911 2.805 . S
C975 O951 1.263 . S
C975 O952 1.252 . S
C975 C969 1.500 . S
H976 C959 0.929 . S
H977 C960 0.930 . S
H978 C961 0.931 . S
H979 C962 0.930 . S
H980 C971 0.929 . S
H981 C972 0.930 . S
H982 C973 0.931 . S
H983 C974 0.930 . S
C984 C986 1.422 . S
C984 C988 1.415 . S
C984 N990 1.369 . S
C985 C986 1.421 . S
C985 C987 1.417 . S
C985 C997 1.422 . S
C986 C984 1.422 . S
C986 C985 1.421 . S
C986 N996 1.359 . S
C987 C985 1.417 . S
C987 C989 1.329 . S
C987 H1006 0.930 . S
C988 C984 1.415 . S
C988 C989 1.437 . S
C988 C992 1.413 . S
C989 C987 1.329 . S
C989 C988 1.437 . S
C989 H1011 0.929 . S
N990 C984 1.369 . S
N990 C991 1.338 . S
N990 Gd995 2.622 . S
C991 N990 1.338 . S
C991 C993 1.378 . S
C991 H1003 0.929 . S
C992 C988 1.413 . S
C992 C993 1.348 . S
C992 H1008 0.931 . S
C993 C991 1.378 . S
C993 C992 1.348 . S
C993 H1009 0.930 . S
Gd994 N1014 2.622 1_554 S
Gd994 N1021 2.570 1_554 S
Gd994 O1028 2.353 . S
Gd994 O1029 2.468 . S
Gd994 O1030 2.427 . S
Gd994 O1032 2.388 . S
Gd994 O1033 2.386 1_554 S
Gd994 O1037 2.307 . S
Gd994 C1047 2.805 . S
Gd995 N990 2.622 . S
Gd995 N996 2.570 . S
Gd995 O1027 2.386 . S
Gd995 O1031 2.307 . S
Gd995 O1034 2.353 1_554 S
Gd995 O1035 2.468 . S
Gd995 O1036 2.427 . S
Gd995 O1038 2.388 . S
Gd995 C1059 2.805 . S
N996 C986 1.359 . S
N996 Gd995 2.570 . S
N996 C998 1.343 . S
C997 C985 1.422 . S
C997 C999 1.321 . S
C997 H1005 0.931 . S
C998 N996 1.343 . S
C998 C999 1.390 . S
C998 H1000 0.931 . S
C999 C997 1.321 . S
C999 C998 1.390 . S
C999 H1001 0.930 . S
H1000 C998 0.931 . S
H1001 C999 0.930 . S
H1002 C1025 0.931 1_554 S
H1003 C991 0.929 . S
H1004 C1026 0.930 . S
H1005 C997 0.931 . S
H1006 C987 0.930 . S
H1007 C1016 0.929 1_554 S
H1008 C992 0.931 . S
H1009 C993 0.930 . S
H1010 C1048 0.930 . S
H1011 C989 0.929 . S
H1012 C1017 0.931 . S
H1013 C1018 0.930 . S
N1014 Gd994 2.622 1_556 S
N1014 C1015 1.369 . S
N1014 C1016 1.338 . S
C1015 N1014 1.369 . S
C1015 C1019 1.415 . S
C1015 C1022 1.422 . S
C1016 H1007 0.929 1_556 S
C1016 N1014 1.338 . S
C1016 C1018 1.378 . S
C1017 H1012 0.931 . S
C1017 C1018 1.348 . S
C1017 C1019 1.413 . S
C1018 H1013 0.930 . S
C1018 C1016 1.378 . S
C1018 C1017 1.348 . S
C1019 C1015 1.415 . S
C1019 C1017 1.413 . S
C1019 C1049 1.437 . S
H1020 C1049 0.929 . S
N1021 Gd994 2.570 1_556 S
N1021 C1022 1.359 . S
N1021 C1025 1.343 . S
C1022 C1015 1.422 . S
C1022 N1021 1.359 . S
C1022 C1024 1.421 . S
C1023 C1024 1.422 . S
C1023 C1026 1.321 . S
C1023 H1050 0.931 . S
C1024 C1022 1.421 . S
C1024 C1023 1.422 . S
C1024 C1048 1.417 . S
C1025 H1002 0.931 1_556 S
C1025 N1021 1.343 . S
C1025 C1026 1.390 . S
C1026 H1004 0.930 . S
C1026 C1023 1.321 . S
C1026 C1025 1.390 . S
O1027 Gd995 2.386 . S
O1027 C1039 1.265 . S
O1028 Gd994 2.353 . S
O1028 C1039 1.242 . S
O1029 Gd994 2.468 . S
O1029 C1047 1.263 . S
O1030 Gd994 2.427 . S
O1030 C1047 1.252 . S
O1031 Gd995 2.307 . S
O1031 C1040 1.261 . S
O1032 Gd994 2.388 . S
O1032 C1040 1.252 . S
O1033 Gd994 2.386 1_556 S
O1033 C1051 1.265 . S
O1034 Gd995 2.353 1_556 S
O1034 C1051 1.242 . S
O1035 Gd995 2.468 . S
O1035 C1059 1.263 . S
O1036 Gd995 2.427 . S
O1036 C1059 1.252 . S
O1037 Gd994 2.307 . S
O1037 C1052 1.261 . S
O1038 Gd995 2.388 . S
O1038 C1052 1.252 . S
C1039 O1027 1.265 . S
C1039 O1028 1.242 . S
C1040 O1031 1.261 . S
C1040 O1032 1.252 . S
C1041 C1044 1.394 . S
C1041 C1046 1.370 . S
C1041 C1047 1.500 . S
C1042 C1045 1.383 . S
C1042 C1046 1.395 . S
C1043 C1044 1.396 . S
C1043 C1045 1.365 . S
C1043 H1060 0.929 . S
C1044 C1041 1.394 . S
C1044 C1043 1.396 . S
C1044 H1061 0.930 . S
C1045 C1042 1.383 . S
C1045 C1043 1.365 . S
C1045 H1062 0.931 . S
C1046 C1041 1.370 . S
C1046 C1042 1.395 . S
C1046 H1063 0.930 . S
C1047 Gd994 2.805 . S
C1047 O1029 1.263 . S
C1047 O1030 1.252 . S
C1047 C1041 1.500 . S
C1048 H1010 0.930 . S
C1048 C1024 1.417 . S
C1048 C1049 1.329 . S
C1049 C1019 1.437 . S
C1049 H1020 0.929 . S
C1049 C1048 1.329 . S
H1050 C1023 0.931 . S
C1051 O1033 1.265 . S
C1051 O1034 1.242 . S
C1052 O1037 1.261 . S
C1052 O1038 1.252 . S
C1053 C1056 1.394 . S
C1053 C1058 1.370 . S
C1053 C1059 1.500 1_556 S
C1054 C1057 1.383 . S
C1054 C1058 1.395 . S
C1055 C1056 1.396 . S
C1055 C1057 1.365 . S
C1055 H1064 0.929 . S
C1056 C1053 1.394 . S
C1056 C1055 1.396 . S
C1056 H1065 0.930 1_556 S
C1057 C1054 1.383 . S
C1057 C1055 1.365 . S
C1057 H1066 0.931 . S
C1058 C1053 1.370 . S
C1058 C1054 1.395 . S
C1058 H1067 0.930 . S
C1059 Gd995 2.805 . S
C1059 O1035 1.263 . S
C1059 O1036 1.252 . S
C1059 C1053 1.500 1_554 S
H1060 C1043 0.929 . S
H1061 C1044 0.930 . S
H1062 C1045 0.931 . S
H1063 C1046 0.930 . S
H1064 C1055 0.929 . S
H1065 C1056 0.930 1_554 S
H1066 C1057 0.931 . S
H1067 C1058 0.930 . S
C1068 C1070 1.422 . S
C1068 C1072 1.415 . S
C1068 N1074 1.369 . S
C1069 C1070 1.421 . S
C1069 C1071 1.417 . S
C1069 C1081 1.422 . S
C1070 C1068 1.422 . S
C1070 C1069 1.421 . S
C1070 N1080 1.359 . S
C1071 C1069 1.417 . S
C1071 C1073 1.329 . S
C1071 H1090 0.930 . S
C1072 C1068 1.415 . S
C1072 C1073 1.437 . S
C1072 C1076 1.413 . S
C1073 C1071 1.329 . S
C1073 C1072 1.437 . S
C1073 H1095 0.929 . S
N1074 C1068 1.369 . S
N1074 C1075 1.338 . S
N1074 Gd1079 2.622 . S
C1075 N1074 1.338 . S
C1075 C1077 1.378 . S
C1075 H1087 0.929 . S
C1076 C1072 1.413 . S
C1076 C1077 1.348 . S
C1076 H1092 0.931 . S
C1077 C1075 1.378 . S
C1077 C1076 1.348 . S
C1077 H1093 0.930 . S
Gd1078 N1098 2.622 . S
Gd1078 N1105 2.570 . S
Gd1078 O1112 2.353 . S
Gd1078 O1113 2.468 . S
Gd1078 O1114 2.427 . S
Gd1078 O1116 2.388 . S
Gd1078 O1117 2.386 . S
Gd1078 O1121 2.307 . S
Gd1078 C1131 2.805 . S
Gd1079 N1074 2.622 . S
Gd1079 N1080 2.570 . S
Gd1079 O1111 2.386 . S
Gd1079 O1115 2.307 . S
Gd1079 O1118 2.353 . S
Gd1079 O1119 2.468 . S
Gd1079 O1120 2.427 . S
Gd1079 O1122 2.388 . S
Gd1079 C1143 2.805 . S
N1080 C1070 1.359 . S
N1080 Gd1079 2.570 . S
N1080 C1082 1.343 . S
C1081 C1069 1.422 . S
C1081 C1083 1.321 . S
C1081 H1089 0.931 . S
C1082 N1080 1.343 . S
C1082 C1083 1.390 . S
C1082 H1084 0.931 . S
C1083 C1081 1.321 . S
C1083 C1082 1.390 . S
C1083 H1085 0.930 . S
H1084 C1082 0.931 . S
H1085 C1083 0.930 . S
H1086 C1109 0.931 . S
H1087 C1075 0.929 . S
H1088 C1110 0.930 . S
H1089 C1081 0.931 . S
H1090 C1071 0.930 . S
H1091 C1100 0.929 . S
H1092 C1076 0.931 . S
H1093 C1077 0.930 . S
H1094 C1132 0.930 . S
H1095 C1073 0.929 . S
H1096 C1101 0.931 . S
H1097 C1102 0.930 . S
N1098 Gd1078 2.622 . S
N1098 C1099 1.369 . S
N1098 C1100 1.338 . S
C1099 N1098 1.369 . S
C1099 C1103 1.415 . S
C1099 C1106 1.422 . S
C1100 H1091 0.929 . S
C1100 N1098 1.338 . S
C1100 C1102 1.378 . S
C1101 H1096 0.931 . S
C1101 C1102 1.348 . S
C1101 C1103 1.413 . S
C1102 H1097 0.930 . S
C1102 C1100 1.378 . S
C1102 C1101 1.348 . S
C1103 C1099 1.415 . S
C1103 C1101 1.413 . S
C1103 C1133 1.437 . S
H1104 C1133 0.929 . S
N1105 Gd1078 2.570 . S
N1105 C1106 1.359 . S
N1105 C1109 1.343 . S
C1106 C1099 1.422 . S
C1106 N1105 1.359 . S
C1106 C1108 1.421 . S
C1107 C1108 1.422 . S
C1107 C1110 1.321 . S
C1107 H1134 0.931 . S
C1108 C1106 1.421 . S
C1108 C1107 1.422 . S
C1108 C1132 1.417 . S
C1109 H1086 0.931 . S
C1109 N1105 1.343 . S
C1109 C1110 1.390 . S
C1110 H1088 0.930 . S
C1110 C1107 1.321 . S
C1110 C1109 1.390 . S
O1111 Gd1079 2.386 . S
O1111 C1123 1.265 . S
O1112 Gd1078 2.353 . S
O1112 C1123 1.242 . S
O1113 Gd1078 2.468 . S
O1113 C1131 1.263 . S
O1114 Gd1078 2.427 . S
O1114 C1131 1.252 . S
O1115 Gd1079 2.307 . S
O1115 C1124 1.261 . S
O1116 Gd1078 2.388 . S
O1116 C1124 1.252 . S
O1117 Gd1078 2.386 . S
O1117 C1135 1.265 . S
O1118 Gd1079 2.353 . S
O1118 C1135 1.242 . S
O1119 Gd1079 2.468 . S
O1119 C1143 1.263 . S
O1120 Gd1079 2.427 . S
O1120 C1143 1.252 . S
O1121 Gd1078 2.307 . S
O1121 C1136 1.261 . S
O1122 Gd1079 2.388 . S
O1122 C1136 1.252 . S
C1123 O1111 1.265 . S
C1123 O1112 1.242 . S
C1124 O1115 1.261 . S
C1124 O1116 1.252 . S
C1125 C1128 1.394 . S
C1125 C1130 1.370 . S
C1125 C1131 1.500 . S
C1126 C1129 1.383 . S
C1126 C1130 1.395 . S
C1127 C1128 1.396 . S
C1127 C1129 1.365 . S
C1127 H1144 0.929 . S
C1128 C1125 1.394 . S
C1128 C1127 1.396 . S
C1128 H1145 0.930 . S
C1129 C1126 1.383 . S
C1129 C1127 1.365 . S
C1129 H1146 0.931 . S
C1130 C1125 1.370 . S
C1130 C1126 1.395 . S
C1130 H1147 0.930 . S
C1131 Gd1078 2.805 . S
C1131 O1113 1.263 . S
C1131 O1114 1.252 . S
C1131 C1125 1.500 . S
C1132 H1094 0.930 . S
C1132 C1108 1.417 . S
C1132 C1133 1.329 . S
C1133 C1103 1.437 . S
C1133 H1104 0.929 . S
C1133 C1132 1.329 . S
H1134 C1107 0.931 . S
C1135 O1117 1.265 . S
C1135 O1118 1.242 . S
C1136 O1121 1.261 . S
C1136 O1122 1.252 . S
C1137 C1140 1.394 . S
C1137 C1142 1.370 . S
C1137 C1143 1.500 . S
C1138 C1141 1.383 . S
C1138 C1142 1.395 . S
C1139 C1140 1.396 . S
C1139 C1141 1.365 . S
C1139 H1148 0.929 . S
C1140 C1137 1.394 . S
C1140 C1139 1.396 . S
C1140 H1149 0.930 . S
C1141 C1138 1.383 . S
C1141 C1139 1.365 . S
C1141 H1150 0.931 . S
C1142 C1137 1.370 . S
C1142 C1138 1.395 . S
C1142 H1151 0.930 . S
C1143 Gd1079 2.805 . S
C1143 O1119 1.263 . S
C1143 O1120 1.252 . S
C1143 C1137 1.500 . S
H1144 C1127 0.929 . S
H1145 C1128 0.930 . S
H1146 C1129 0.931 . S
H1147 C1130 0.930 . S
H1148 C1139 0.929 . S
H1149 C1140 0.930 . S
H1150 C1141 0.931 . S
H1151 C1142 0.930 . S
C1152 C1154 1.422 . S
C1152 C1156 1.415 . S
C1152 N1158 1.369 . S
C1153 C1154 1.421 . S
C1153 C1155 1.417 . S
C1153 C1165 1.422 . S
C1154 C1152 1.422 . S
C1154 C1153 1.421 . S
C1154 N1164 1.359 . S
C1155 C1153 1.417 . S
C1155 C1157 1.329 . S
C1155 H1174 0.930 . S
C1156 C1152 1.415 . S
C1156 C1157 1.437 . S
C1156 C1160 1.413 . S
C1157 C1155 1.329 . S
C1157 C1156 1.437 . S
C1157 H1179 0.929 . S
N1158 C1152 1.369 . S
N1158 C1159 1.338 . S
N1158 Gd1163 2.622 . S
C1159 N1158 1.338 . S
C1159 C1161 1.378 . S
C1159 H1171 0.929 . S
C1160 C1156 1.413 . S
C1160 C1161 1.348 . S
C1160 H1176 0.931 . S
C1161 C1159 1.378 . S
C1161 C1160 1.348 . S
C1161 H1177 0.930 . S
Gd1162 N1182 2.622 . S
Gd1162 N1189 2.570 1_455 S
Gd1162 O1196 2.353 . S
Gd1162 O1197 2.468 . S
Gd1162 O1198 2.427 . S
Gd1162 O1200 2.388 . S
Gd1162 O1201 2.386 1_455 S
Gd1162 O1205 2.307 . S
Gd1162 C1215 2.805 . S
Gd1163 N1158 2.622 . S
Gd1163 N1164 2.570 . S
Gd1163 O1195 2.386 . S
Gd1163 O1199 2.307 . S
Gd1163 O1202 2.353 1_455 S
Gd1163 O1203 2.468 . S
Gd1163 O1204 2.427 . S
Gd1163 O1206 2.388 . S
Gd1163 C1227 2.805 . S
N1164 C1154 1.359 . S
N1164 Gd1163 2.570 . S
N1164 C1166 1.343 . S
C1165 C1153 1.422 . S
C1165 C1167 1.321 . S
C1165 H1173 0.931 . S
C1166 N1164 1.343 . S
C1166 C1167 1.390 . S
C1166 H1168 0.931 . S
C1167 C1165 1.321 . S
C1167 C1166 1.390 . S
C1167 H1169 0.930 . S
H1168 C1166 0.931 . S
H1169 C1167 0.930 . S
H1170 C1193 0.931 1_455 S
H1171 C1159 0.929 . S
H1172 C1194 0.930 . S
H1173 C1165 0.931 . S
H1174 C1155 0.930 . S
H1175 C1184 0.929 . S
H1176 C1160 0.931 . S
H1177 C1161 0.930 . S
H1178 C1216 0.930 . S
H1179 C1157 0.929 . S
H1180 C1185 0.931 . S
H1181 C1186 0.930 . S
N1182 Gd1162 2.622 . S
N1182 C1183 1.369 1_455 S
N1182 C1184 1.338 . S
C1183 N1182 1.369 1_655 S
C1183 C1187 1.415 . S
C1183 C1190 1.422 . S
C1184 H1175 0.929 . S
C1184 N1182 1.338 . S
C1184 C1186 1.378 1_455 S
C1185 H1180 0.931 . S
C1185 C1186 1.348 . S
C1185 C1187 1.413 . S
C1186 H1181 0.930 . S
C1186 C1184 1.378 1_655 S
C1186 C1185 1.348 . S
C1187 C1183 1.415 . S
C1187 C1185 1.413 . S
C1187 C1217 1.437 . S
H1188 C1217 0.929 . S
N1189 Gd1162 2.570 1_655 S
N1189 C1190 1.359 . S
N1189 C1193 1.343 . S
C1190 C1183 1.422 . S
C1190 N1189 1.359 . S
C1190 C1192 1.421 . S
C1191 C1192 1.422 . S
C1191 C1194 1.321 . S
C1191 H1218 0.931 . S
C1192 C1190 1.421 . S
C1192 C1191 1.422 . S
C1192 C1216 1.417 . S
C1193 H1170 0.931 1_655 S
C1193 N1189 1.343 . S
C1193 C1194 1.390 . S
C1194 H1172 0.930 . S
C1194 C1191 1.321 . S
C1194 C1193 1.390 . S
O1195 Gd1163 2.386 . S
O1195 C1207 1.265 . S
O1196 Gd1162 2.353 . S
O1196 C1207 1.242 . S
O1197 Gd1162 2.468 . S
O1197 C1215 1.263 . S
O1198 Gd1162 2.427 . S
O1198 C1215 1.252 . S
O1199 Gd1163 2.307 . S
O1199 C1208 1.261 . S
O1200 Gd1162 2.388 . S
O1200 C1208 1.252 . S
O1201 Gd1162 2.386 1_655 S
O1201 C1219 1.265 . S
O1202 Gd1163 2.353 1_655 S
O1202 C1219 1.242 . S
O1203 Gd1163 2.468 . S
O1203 C1227 1.263 . S
O1204 Gd1163 2.427 . S
O1204 C1227 1.252 . S
O1205 Gd1162 2.307 . S
O1205 C1220 1.261 . S
O1206 Gd1163 2.388 . S
O1206 C1220 1.252 . S
C1207 O1195 1.265 . S
C1207 O1196 1.242 . S
C1208 O1199 1.261 . S
C1208 O1200 1.252 . S
C1209 C1212 1.394 . S
C1209 C1214 1.370 . S
C1209 C1215 1.500 . S
C1210 C1213 1.383 . S
C1210 C1214 1.395 . S
C1211 C1212 1.396 . S
C1211 C1213 1.365 . S
C1211 H1228 0.929 . S
C1212 C1209 1.394 . S
C1212 C1211 1.396 . S
C1212 H1229 0.930 . S
C1213 C1210 1.383 . S
C1213 C1211 1.365 . S
C1213 H1230 0.931 . S
C1214 C1209 1.370 . S
C1214 C1210 1.395 . S
C1214 H1231 0.930 . S
C1215 Gd1162 2.805 . S
C1215 O1197 1.263 . S
C1215 O1198 1.252 . S
C1215 C1209 1.500 . S
C1216 H1178 0.930 . S
C1216 C1192 1.417 . S
C1216 C1217 1.329 . S
C1217 C1187 1.437 . S
C1217 H1188 0.929 . S
C1217 C1216 1.329 . S
H1218 C1191 0.931 . S
C1219 O1201 1.265 . S
C1219 O1202 1.242 . S
C1220 O1205 1.261 . S
C1220 O1206 1.252 . S
C1221 C1224 1.394 . S
C1221 C1226 1.370 . S
C1221 C1227 1.500 1_655 S
C1222 C1225 1.383 . S
C1222 C1226 1.395 . S
C1223 C1224 1.396 . S
C1223 C1225 1.365 . S
C1223 H1232 0.929 . S
C1224 C1221 1.394 . S
C1224 C1223 1.396 . S
C1224 H1233 0.930 . S
C1225 C1222 1.383 . S
C1225 C1223 1.365 . S
C1225 H1234 0.931 . S
C1226 C1221 1.370 . S
C1226 C1222 1.395 . S
C1226 H1235 0.930 . S
C1227 Gd1163 2.805 . S
C1227 O1203 1.263 . S
C1227 O1204 1.252 . S
C1227 C1221 1.500 1_455 S
H1228 C1211 0.929 . S
H1229 C1212 0.930 . S
H1230 C1213 0.931 . S
H1231 C1214 0.930 . S
H1232 C1223 0.929 . S
H1233 C1224 0.930 . S
H1234 C1225 0.931 . S
H1235 C1226 0.930 . S
C1236 C1238 1.422 . S
C1236 C1240 1.415 . S
C1236 N1242 1.369 . S
C1237 C1238 1.421 . S
C1237 C1239 1.417 . S
C1237 C1249 1.422 . S
C1238 C1236 1.422 . S
C1238 C1237 1.421 . S
C1238 N1248 1.359 . S
C1239 C1237 1.417 . S
C1239 C1241 1.329 . S
C1239 H1258 0.930 . S
C1240 C1236 1.415 . S
C1240 C1241 1.437 . S
C1240 C1244 1.413 . S
C1241 C1239 1.329 . S
C1241 C1240 1.437 . S
C1241 H1263 0.929 . S
N1242 C1236 1.369 . S
N1242 C1243 1.338 . S
N1242 Gd1247 2.622 . S
C1243 N1242 1.338 . S
C1243 C1245 1.378 . S
C1243 H1255 0.929 . S
C1244 C1240 1.413 . S
C1244 C1245 1.348 . S
C1244 H1260 0.931 . S
C1245 C1243 1.378 . S
C1245 C1244 1.348 . S
C1245 H1261 0.930 . S
Gd1246 N1266 2.622 . S
Gd1246 N1273 2.570 . S
Gd1246 O1280 2.353 . S
Gd1246 O1281 2.468 . S
Gd1246 O1282 2.427 . S
Gd1246 O1284 2.388 . S
Gd1246 O1285 2.386 . S
Gd1246 O1289 2.307 . S
Gd1246 C1299 2.805 . S
Gd1247 N1242 2.622 . S
Gd1247 N1248 2.570 . S
Gd1247 O1279 2.386 . S
Gd1247 O1283 2.307 . S
Gd1247 O1286 2.353 . S
Gd1247 O1287 2.468 . S
Gd1247 O1288 2.427 . S
Gd1247 O1290 2.388 . S
Gd1247 C1311 2.805 . S
N1248 C1238 1.359 . S
N1248 Gd1247 2.570 . S
N1248 C1250 1.343 . S
C1249 C1237 1.422 . S
C1249 C1251 1.321 . S
C1249 H1257 0.931 . S
C1250 N1248 1.343 . S
C1250 C1251 1.390 . S
C1250 H1252 0.931 . S
C1251 C1249 1.321 . S
C1251 C1250 1.390 . S
C1251 H1253 0.930 . S
H1252 C1250 0.931 . S
H1253 C1251 0.930 . S
H1254 C1277 0.931 . S
H1255 C1243 0.929 . S
H1256 C1278 0.930 . S
H1257 C1249 0.931 . S
H1258 C1239 0.930 . S
H1259 C1268 0.929 . S
H1260 C1244 0.931 . S
H1261 C1245 0.930 . S
H1262 C1300 0.930 . S
H1263 C1241 0.929 . S
H1264 C1269 0.931 . S
H1265 C1270 0.930 . S
N1266 Gd1246 2.622 . S
N1266 C1267 1.369 . S
N1266 C1268 1.338 . S
C1267 N1266 1.369 . S
C1267 C1271 1.415 . S
C1267 C1274 1.422 . S
C1268 H1259 0.929 . S
C1268 N1266 1.338 . S
C1268 C1270 1.378 . S
C1269 H1264 0.931 . S
C1269 C1270 1.348 . S
C1269 C1271 1.413 . S
C1270 H1265 0.930 . S
C1270 C1268 1.378 . S
C1270 C1269 1.348 . S
C1271 C1267 1.415 . S
C1271 C1269 1.413 . S
C1271 C1301 1.437 . S
H1272 C1301 0.929 . S
N1273 Gd1246 2.570 . S
N1273 C1274 1.359 . S
N1273 C1277 1.343 . S
C1274 C1267 1.422 . S
C1274 N1273 1.359 . S
C1274 C1276 1.421 . S
C1275 C1276 1.422 . S
C1275 C1278 1.321 . S
C1275 H1302 0.931 . S
C1276 C1274 1.421 . S
C1276 C1275 1.422 . S
C1276 C1300 1.417 . S
C1277 H1254 0.931 . S
C1277 N1273 1.343 . S
C1277 C1278 1.390 . S
C1278 H1256 0.930 . S
C1278 C1275 1.321 . S
C1278 C1277 1.390 . S
O1279 Gd1247 2.386 . S
O1279 C1291 1.265 . S
O1280 Gd1246 2.353 . S
O1280 C1291 1.242 . S
O1281 Gd1246 2.468 . S
O1281 C1299 1.263 . S
O1282 Gd1246 2.427 . S
O1282 C1299 1.252 . S
O1283 Gd1247 2.307 . S
O1283 C1292 1.261 . S
O1284 Gd1246 2.388 . S
O1284 C1292 1.252 . S
O1285 Gd1246 2.386 . S
O1285 C1303 1.265 . S
O1286 Gd1247 2.353 . S
O1286 C1303 1.242 . S
O1287 Gd1247 2.468 . S
O1287 C1311 1.263 . S
O1288 Gd1247 2.427 . S
O1288 C1311 1.252 . S
O1289 Gd1246 2.307 . S
O1289 C1304 1.261 . S
O1290 Gd1247 2.388 . S
O1290 C1304 1.252 . S
C1291 O1279 1.265 . S
C1291 O1280 1.242 . S
C1292 O1283 1.261 . S
C1292 O1284 1.252 . S
C1293 C1296 1.394 . S
C1293 C1298 1.370 . S
C1293 C1299 1.500 . S
C1294 C1297 1.383 . S
C1294 C1298 1.395 . S
C1295 C1296 1.396 . S
C1295 C1297 1.365 . S
C1295 H1312 0.929 . S
C1296 C1293 1.394 . S
C1296 C1295 1.396 . S
C1296 H1313 0.930 . S
C1297 C1294 1.383 . S
C1297 C1295 1.365 . S
C1297 H1314 0.931 . S
C1298 C1293 1.370 . S
C1298 C1294 1.395 . S
C1298 H1315 0.930 . S
C1299 Gd1246 2.805 . S
C1299 O1281 1.263 . S
C1299 O1282 1.252 . S
C1299 C1293 1.500 . S
C1300 H1262 0.930 . S
C1300 C1276 1.417 . S
C1300 C1301 1.329 . S
C1301 C1271 1.437 . S
C1301 H1272 0.929 . S
C1301 C1300 1.329 . S
H1302 C1275 0.931 . S
C1303 O1285 1.265 . S
C1303 O1286 1.242 . S
C1304 O1289 1.261 . S
C1304 O1290 1.252 . S
C1305 C1308 1.394 . S
C1305 C1310 1.370 . S
C1305 C1311 1.500 . S
C1306 C1309 1.383 . S
C1306 C1310 1.395 . S
C1307 C1308 1.396 . S
C1307 C1309 1.365 . S
C1307 H1316 0.929 . S
C1308 C1305 1.394 . S
C1308 C1307 1.396 . S
C1308 H1317 0.930 . S
C1309 C1306 1.383 . S
C1309 C1307 1.365 . S
C1309 H1318 0.931 . S
C1310 C1305 1.370 . S
C1310 C1306 1.395 . S
C1310 H1319 0.930 . S
C1311 Gd1247 2.805 . S
C1311 O1287 1.263 . S
C1311 O1288 1.252 . S
C1311 C1305 1.500 . S
H1312 C1295 0.929 . S
H1313 C1296 0.930 . S
H1314 C1297 0.931 . S
H1315 C1298 0.930 . S
H1316 C1307 0.929 . S
H1317 C1308 0.930 . S
H1318 C1309 0.931 . S
H1319 C1310 0.930 . S
C1320 C1322 1.422 . S
C1320 C1324 1.415 . S
C1320 N1326 1.369 . S
C1321 C1322 1.421 . S
C1321 C1323 1.417 . S
C1321 C1333 1.422 . S
C1322 C1320 1.422 . S
C1322 C1321 1.421 . S
C1322 N1332 1.359 . S
C1323 C1321 1.417 . S
C1323 C1325 1.329 . S
C1323 H1342 0.930 . S
C1324 C1320 1.415 . S
C1324 C1325 1.437 . S
C1324 C1328 1.413 . S
C1325 C1323 1.329 . S
C1325 C1324 1.437 . S
C1325 H1347 0.929 . S
N1326 C1320 1.369 . S
N1326 C1327 1.338 . S
N1326 Gd1331 2.622 . S
C1327 N1326 1.338 . S
C1327 C1329 1.378 . S
C1327 H1339 0.929 . S
C1328 C1324 1.413 . S
C1328 C1329 1.348 . S
C1328 H1344 0.931 . S
C1329 C1327 1.378 . S
C1329 C1328 1.348 . S
C1329 H1345 0.930 . S
Gd1330 N1350 2.622 . S
Gd1330 N1357 2.570 . S
Gd1330 O1364 2.353 . S
Gd1330 O1365 2.468 . S
Gd1330 O1366 2.427 . S
Gd1330 O1368 2.388 . S
Gd1330 O1369 2.386 . S
Gd1330 O1373 2.307 . S
Gd1330 C1383 2.805 . S
Gd1331 N1326 2.622 . S
Gd1331 N1332 2.570 . S
Gd1331 O1363 2.386 . S
Gd1331 O1367 2.307 . S
Gd1331 O1370 2.353 . S
Gd1331 O1371 2.468 . S
Gd1331 O1372 2.427 . S
Gd1331 O1374 2.388 . S
Gd1331 C1395 2.805 . S
N1332 C1322 1.359 . S
N1332 Gd1331 2.570 . S
N1332 C1334 1.343 . S
C1333 C1321 1.422 . S
C1333 C1335 1.321 . S
C1333 H1341 0.931 . S
C1334 N1332 1.343 . S
C1334 C1335 1.390 . S
C1334 H1336 0.931 . S
C1335 C1333 1.321 . S
C1335 C1334 1.390 . S
C1335 H1337 0.930 . S
H1336 C1334 0.931 . S
H1337 C1335 0.930 . S
H1338 C1361 0.931 . S
H1339 C1327 0.929 . S
H1340 C1362 0.930 . S
H1341 C1333 0.931 . S
H1342 C1323 0.930 . S
H1343 C1352 0.929 . S
H1344 C1328 0.931 . S
H1345 C1329 0.930 . S
H1346 C1384 0.930 . S
H1347 C1325 0.929 . S
H1348 C1353 0.931 . S
H1349 C1354 0.930 . S
N1350 Gd1330 2.622 . S
N1350 C1351 1.369 . S
N1350 C1352 1.338 . S
C1351 N1350 1.369 . S
C1351 C1355 1.415 . S
C1351 C1358 1.422 . S
C1352 H1343 0.929 . S
C1352 N1350 1.338 . S
C1352 C1354 1.378 . S
C1353 H1348 0.931 . S
C1353 C1354 1.348 . S
C1353 C1355 1.413 . S
C1354 H1349 0.930 . S
C1354 C1352 1.378 . S
C1354 C1353 1.348 . S
C1355 C1351 1.415 . S
C1355 C1353 1.413 . S
C1355 C1385 1.437 . S
H1356 C1385 0.929 . S
N1357 Gd1330 2.570 . S
N1357 C1358 1.359 . S
N1357 C1361 1.343 . S
C1358 C1351 1.422 . S
C1358 N1357 1.359 . S
C1358 C1360 1.421 . S
C1359 C1360 1.422 . S
C1359 C1362 1.321 . S
C1359 H1386 0.931 . S
C1360 C1358 1.421 . S
C1360 C1359 1.422 . S
C1360 C1384 1.417 . S
C1361 H1338 0.931 . S
C1361 N1357 1.343 . S
C1361 C1362 1.390 . S
C1362 H1340 0.930 . S
C1362 C1359 1.321 . S
C1362 C1361 1.390 . S
O1363 Gd1331 2.386 . S
O1363 C1375 1.265 . S
O1364 Gd1330 2.353 . S
O1364 C1375 1.242 . S
O1365 Gd1330 2.468 . S
O1365 C1383 1.263 . S
O1366 Gd1330 2.427 . S
O1366 C1383 1.252 . S
O1367 Gd1331 2.307 . S
O1367 C1376 1.261 . S
O1368 Gd1330 2.388 . S
O1368 C1376 1.252 . S
O1369 Gd1330 2.386 . S
O1369 C1387 1.265 . S
O1370 Gd1331 2.353 . S
O1370 C1387 1.242 . S
O1371 Gd1331 2.468 . S
O1371 C1395 1.263 . S
O1372 Gd1331 2.427 . S
O1372 C1395 1.252 . S
O1373 Gd1330 2.307 . S
O1373 C1388 1.261 . S
O1374 Gd1331 2.388 . S
O1374 C1388 1.252 . S
C1375 O1363 1.265 . S
C1375 O1364 1.242 . S
C1376 O1367 1.261 . S
C1376 O1368 1.252 . S
C1377 C1380 1.394 . S
C1377 C1382 1.370 . S
C1377 C1383 1.500 . S
C1378 C1381 1.383 . S
C1378 C1382 1.395 . S
C1379 C1380 1.396 . S
C1379 C1381 1.365 . S
C1379 H1396 0.929 . S
C1380 C1377 1.394 . S
C1380 C1379 1.396 . S
C1380 H1397 0.930 . S
C1381 C1378 1.383 . S
C1381 C1379 1.365 . S
C1381 H1398 0.931 . S
C1382 C1377 1.370 . S
C1382 C1378 1.395 . S
C1382 H1399 0.930 . S
C1383 Gd1330 2.805 . S
C1383 O1365 1.263 . S
C1383 O1366 1.252 . S
C1383 C1377 1.500 . S
C1384 H1346 0.930 . S
C1384 C1360 1.417 . S
C1384 C1385 1.329 . S
C1385 C1355 1.437 . S
C1385 H1356 0.929 . S
C1385 C1384 1.329 . S
H1386 C1359 0.931 . S
C1387 O1369 1.265 . S
C1387 O1370 1.242 . S
C1388 O1373 1.261 . S
C1388 O1374 1.252 . S
C1389 C1392 1.394 . S
C1389 C1394 1.370 . S
C1389 C1395 1.500 . S
C1390 C1393 1.383 . S
C1390 C1394 1.395 . S
C1391 C1392 1.396 . S
C1391 C1393 1.365 . S
C1391 H1400 0.929 . S
C1392 C1389 1.394 . S
C1392 C1391 1.396 . S
C1392 H1401 0.930 . S
C1393 C1390 1.383 . S
C1393 C1391 1.365 . S
C1393 H1402 0.931 . S
C1394 C1389 1.370 . S
C1394 C1390 1.395 . S
C1394 H1403 0.930 . S
C1395 Gd1331 2.805 . S
C1395 O1371 1.263 . S
C1395 O1372 1.252 . S
C1395 C1389 1.500 . S
H1396 C1379 0.929 . S
H1397 C1380 0.930 . S
H1398 C1381 0.931 . S
H1399 C1382 0.930 . S
H1400 C1391 0.929 . S
H1401 C1392 0.930 . S
H1402 C1393 0.931 . S
H1403 C1394 0.930 . S
C1404 C1406 1.422 . S
C1404 C1408 1.415 . S
C1404 N1410 1.369 . S
C1405 C1406 1.421 . S
C1405 C1407 1.417 . S
C1405 C1417 1.422 . S
C1406 C1404 1.422 . S
C1406 C1405 1.421 . S
C1406 N1416 1.359 . S
C1407 C1405 1.417 . S
C1407 C1409 1.329 . S
C1407 H1426 0.930 . S
C1408 C1404 1.415 . S
C1408 C1409 1.437 . S
C1408 C1412 1.413 . S
C1409 C1407 1.329 . S
C1409 C1408 1.437 . S
C1409 H1431 0.929 . S
N1410 C1404 1.369 . S
N1410 C1411 1.338 . S
N1410 Gd1415 2.622 . S
C1411 N1410 1.338 . S
C1411 C1413 1.378 . S
C1411 H1423 0.929 . S
C1412 C1408 1.413 . S
C1412 C1413 1.348 . S
C1412 H1428 0.931 . S
C1413 C1411 1.378 . S
C1413 C1412 1.348 . S
C1413 H1429 0.930 . S
Gd1414 N1434 2.622 . S
Gd1414 N1441 2.570 . S
Gd1414 O1448 2.353 . S
Gd1414 O1449 2.468 . S
Gd1414 O1450 2.427 . S
Gd1414 O1452 2.388 . S
Gd1414 O1453 2.386 . S
Gd1414 O1457 2.307 . S
Gd1414 C1467 2.805 . S
Gd1415 N1410 2.622 . S
Gd1415 N1416 2.570 . S
Gd1415 O1447 2.386 . S
Gd1415 O1451 2.307 . S
Gd1415 O1454 2.353 . S
Gd1415 O1455 2.468 . S
Gd1415 O1456 2.427 . S
Gd1415 O1458 2.388 . S
Gd1415 C1479 2.805 . S
N1416 C1406 1.359 . S
N1416 Gd1415 2.570 . S
N1416 C1418 1.343 . S
C1417 C1405 1.422 . S
C1417 C1419 1.321 . S
C1417 H1425 0.931 . S
C1418 N1416 1.343 . S
C1418 C1419 1.390 . S
C1418 H1420 0.931 . S
C1419 C1417 1.321 . S
C1419 C1418 1.390 . S
C1419 H1421 0.930 . S
H1420 C1418 0.931 . S
H1421 C1419 0.930 . S
H1422 C1445 0.931 . S
H1423 C1411 0.929 . S
H1424 C1446 0.930 . S
H1425 C1417 0.931 . S
H1426 C1407 0.930 . S
H1427 C1436 0.929 . S
H1428 C1412 0.931 . S
H1429 C1413 0.930 . S
H1430 C1468 0.930 . S
H1431 C1409 0.929 . S
H1432 C1437 0.931 . S
H1433 C1438 0.930 . S
N1434 Gd1414 2.622 . S
N1434 C1435 1.369 . S
N1434 C1436 1.338 . S
C1435 N1434 1.369 . S
C1435 C1439 1.415 . S
C1435 C1442 1.422 . S
C1436 H1427 0.929 . S
C1436 N1434 1.338 . S
C1436 C1438 1.378 . S
C1437 H1432 0.931 . S
C1437 C1438 1.348 . S
C1437 C1439 1.413 . S
C1438 H1433 0.930 . S
C1438 C1436 1.378 . S
C1438 C1437 1.348 . S
C1439 C1435 1.415 . S
C1439 C1437 1.413 . S
C1439 C1469 1.437 . S
H1440 C1469 0.929 . S
N1441 Gd1414 2.570 . S
N1441 C1442 1.359 . S
N1441 C1445 1.343 . S
C1442 C1435 1.422 . S
C1442 N1441 1.359 . S
C1442 C1444 1.421 . S
C1443 C1444 1.422 . S
C1443 C1446 1.321 . S
C1443 H1470 0.931 . S
C1444 C1442 1.421 . S
C1444 C1443 1.422 . S
C1444 C1468 1.417 . S
C1445 H1422 0.931 . S
C1445 N1441 1.343 . S
C1445 C1446 1.390 . S
C1446 H1424 0.930 . S
C1446 C1443 1.321 . S
C1446 C1445 1.390 . S
O1447 Gd1415 2.386 . S
O1447 C1459 1.265 . S
O1448 Gd1414 2.353 . S
O1448 C1459 1.242 . S
O1449 Gd1414 2.468 . S
O1449 C1467 1.263 . S
O1450 Gd1414 2.427 . S
O1450 C1467 1.252 . S
O1451 Gd1415 2.307 . S
O1451 C1460 1.261 . S
O1452 Gd1414 2.388 . S
O1452 C1460 1.252 . S
O1453 Gd1414 2.386 . S
O1453 C1471 1.265 . S
O1454 Gd1415 2.353 . S
O1454 C1471 1.242 . S
O1455 Gd1415 2.468 . S
O1455 C1479 1.263 . S
O1456 Gd1415 2.427 . S
O1456 C1479 1.252 . S
O1457 Gd1414 2.307 . S
O1457 C1472 1.261 . S
O1458 Gd1415 2.388 . S
O1458 C1472 1.252 . S
C1459 O1447 1.265 . S
C1459 O1448 1.242 . S
C1460 O1451 1.261 . S
C1460 O1452 1.252 . S
C1461 C1464 1.394 . S
C1461 C1466 1.370 . S
C1461 C1467 1.500 . S
C1462 C1465 1.383 . S
C1462 C1466 1.395 . S
C1463 C1464 1.396 . S
C1463 C1465 1.365 . S
C1463 H1480 0.929 . S
C1464 C1461 1.394 . S
C1464 C1463 1.396 . S
C1464 H1481 0.930 . S
C1465 C1462 1.383 . S
C1465 C1463 1.365 . S
C1465 H1482 0.931 . S
C1466 C1461 1.370 . S
C1466 C1462 1.395 . S
C1466 H1483 0.930 . S
C1467 Gd1414 2.805 . S
C1467 O1449 1.263 . S
C1467 O1450 1.252 . S
C1467 C1461 1.500 . S
C1468 H1430 0.930 . S
C1468 C1444 1.417 . S
C1468 C1469 1.329 . S
C1469 C1439 1.437 . S
C1469 H1440 0.929 . S
C1469 C1468 1.329 . S
H1470 C1443 0.931 . S
C1471 O1453 1.265 . S
C1471 O1454 1.242 . S
C1472 O1457 1.261 . S
C1472 O1458 1.252 . S
C1473 C1476 1.394 . S
C1473 C1478 1.370 . S
C1473 C1479 1.500 . S
C1474 C1477 1.383 . S
C1474 C1478 1.395 . S
C1475 C1476 1.396 . S
C1475 C1477 1.365 . S
C1475 H1484 0.929 . S
C1476 C1473 1.394 . S
C1476 C1475 1.396 . S
C1476 H1485 0.930 . S
C1477 C1474 1.383 . S
C1477 C1475 1.365 . S
C1477 H1486 0.931 . S
C1478 C1473 1.370 . S
C1478 C1474 1.395 . S
C1478 H1487 0.930 . S
C1479 Gd1415 2.805 . S
C1479 O1455 1.263 . S
C1479 O1456 1.252 . S
C1479 C1473 1.500 . S
H1480 C1463 0.929 . S
H1481 C1464 0.930 . S
H1482 C1465 0.931 . S
H1483 C1466 0.930 . S
H1484 C1475 0.929 . S
H1485 C1476 0.930 . S
H1486 C1477 0.931 . S
H1487 C1478 0.930 . S
C1488 C1490 1.422 . S
C1488 C1492 1.415 . S
C1488 N1494 1.369 . S
C1489 C1490 1.421 . S
C1489 C1491 1.417 . S
C1489 C1501 1.422 . S
C1490 C1488 1.422 . S
C1490 C1489 1.421 . S
C1490 N1500 1.359 . S
C1491 C1489 1.417 . S
C1491 C1493 1.329 . S
C1491 H1510 0.930 . S
C1492 C1488 1.415 . S
C1492 C1493 1.437 . S
C1492 C1496 1.413 . S
C1493 C1491 1.329 . S
C1493 C1492 1.437 . S
C1493 H1515 0.929 . S
N1494 C1488 1.369 . S
N1494 C1495 1.338 . S
N1494 Gd1499 2.622 . S
C1495 N1494 1.338 . S
C1495 C1497 1.378 . S
C1495 H1507 0.929 . S
C1496 C1492 1.413 . S
C1496 C1497 1.348 . S
C1496 H1512 0.931 . S
C1497 C1495 1.378 . S
C1497 C1496 1.348 . S
C1497 H1513 0.930 . S
Gd1498 N1518 2.622 . S
Gd1498 N1525 2.570 . S
Gd1498 O1532 2.353 . S
Gd1498 O1533 2.468 . S
Gd1498 O1534 2.427 . S
Gd1498 O1536 2.388 . S
Gd1498 O1537 2.386 . S
Gd1498 O1541 2.307 . S
Gd1498 C1551 2.805 . S
Gd1499 N1494 2.622 . S
Gd1499 N1500 2.570 . S
Gd1499 O1531 2.386 . S
Gd1499 O1535 2.307 . S
Gd1499 O1538 2.353 . S
Gd1499 O1539 2.468 . S
Gd1499 O1540 2.427 . S
Gd1499 O1542 2.388 . S
Gd1499 C1563 2.805 . S
N1500 C1490 1.359 . S
N1500 Gd1499 2.570 . S
N1500 C1502 1.343 . S
C1501 C1489 1.422 . S
C1501 C1503 1.321 . S
C1501 H1509 0.931 . S
C1502 N1500 1.343 . S
C1502 C1503 1.390 . S
C1502 H1504 0.931 . S
C1503 C1501 1.321 . S
C1503 C1502 1.390 . S
C1503 H1505 0.930 . S
H1504 C1502 0.931 . S
H1505 C1503 0.930 . S
H1506 C1529 0.931 . S
H1507 C1495 0.929 . S
H1508 C1530 0.930 . S
H1509 C1501 0.931 . S
H1510 C1491 0.930 . S
H1511 C1520 0.929 . S
H1512 C1496 0.931 . S
H1513 C1497 0.930 . S
H1514 C1552 0.930 . S
H1515 C1493 0.929 . S
H1516 C1521 0.931 . S
H1517 C1522 0.930 . S
N1518 Gd1498 2.622 . S
N1518 C1519 1.369 . S
N1518 C1520 1.338 . S
C1519 N1518 1.369 . S
C1519 C1523 1.415 . S
C1519 C1526 1.422 . S
C1520 H1511 0.929 . S
C1520 N1518 1.338 . S
C1520 C1522 1.378 . S
C1521 H1516 0.931 . S
C1521 C1522 1.348 . S
C1521 C1523 1.413 . S
C1522 H1517 0.930 . S
C1522 C1520 1.378 . S
C1522 C1521 1.348 . S
C1523 C1519 1.415 . S
C1523 C1521 1.413 . S
C1523 C1553 1.437 . S
H1524 C1553 0.929 . S
N1525 Gd1498 2.570 . S
N1525 C1526 1.359 . S
N1525 C1529 1.343 . S
C1526 C1519 1.422 . S
C1526 N1525 1.359 . S
C1526 C1528 1.421 . S
C1527 C1528 1.422 . S
C1527 C1530 1.321 . S
C1527 H1554 0.931 . S
C1528 C1526 1.421 . S
C1528 C1527 1.422 . S
C1528 C1552 1.417 . S
C1529 H1506 0.931 . S
C1529 N1525 1.343 . S
C1529 C1530 1.390 . S
C1530 H1508 0.930 . S
C1530 C1527 1.321 . S
C1530 C1529 1.390 . S
O1531 Gd1499 2.386 . S
O1531 C1543 1.265 . S
O1532 Gd1498 2.353 . S
O1532 C1543 1.242 . S
O1533 Gd1498 2.468 . S
O1533 C1551 1.263 . S
O1534 Gd1498 2.427 . S
O1534 C1551 1.252 . S
O1535 Gd1499 2.307 . S
O1535 C1544 1.261 . S
O1536 Gd1498 2.388 . S
O1536 C1544 1.252 . S
O1537 Gd1498 2.386 . S
O1537 C1555 1.265 . S
O1538 Gd1499 2.353 . S
O1538 C1555 1.242 . S
O1539 Gd1499 2.468 . S
O1539 C1563 1.263 . S
O1540 Gd1499 2.427 . S
O1540 C1563 1.252 . S
O1541 Gd1498 2.307 . S
O1541 C1556 1.261 . S
O1542 Gd1499 2.388 . S
O1542 C1556 1.252 . S
C1543 O1531 1.265 . S
C1543 O1532 1.242 . S
C1544 O1535 1.261 . S
C1544 O1536 1.252 . S
C1545 C1548 1.394 . S
C1545 C1550 1.370 . S
C1545 C1551 1.500 . S
C1546 C1549 1.383 . S
C1546 C1550 1.395 . S
C1547 C1548 1.396 . S
C1547 C1549 1.365 . S
C1547 H1564 0.929 . S
C1548 C1545 1.394 . S
C1548 C1547 1.396 . S
C1548 H1565 0.930 . S
C1549 C1546 1.383 . S
C1549 C1547 1.365 . S
C1549 H1566 0.931 . S
C1550 C1545 1.370 . S
C1550 C1546 1.395 . S
C1550 H1567 0.930 . S
C1551 Gd1498 2.805 . S
C1551 O1533 1.263 . S
C1551 O1534 1.252 . S
C1551 C1545 1.500 . S
C1552 H1514 0.930 . S
C1552 C1528 1.417 . S
C1552 C1553 1.329 . S
C1553 C1523 1.437 . S
C1553 H1524 0.929 . S
C1553 C1552 1.329 . S
H1554 C1527 0.931 . S
C1555 O1537 1.265 . S
C1555 O1538 1.242 . S
C1556 O1541 1.261 . S
C1556 O1542 1.252 . S
C1557 C1560 1.394 . S
C1557 C1562 1.370 . S
C1557 C1563 1.500 . S
C1558 C1561 1.383 . S
C1558 C1562 1.395 . S
C1559 C1560 1.396 . S
C1559 C1561 1.365 . S
C1559 H1568 0.929 . S
C1560 C1557 1.394 . S
C1560 C1559 1.396 . S
C1560 H1569 0.930 . S
C1561 C1558 1.383 . S
C1561 C1559 1.365 . S
C1561 H1570 0.931 . S
C1562 C1557 1.370 . S
C1562 C1558 1.395 . S
C1562 H1571 0.930 . S
C1563 Gd1499 2.805 . S
C1563 O1539 1.263 . S
C1563 O1540 1.252 . S
C1563 C1557 1.500 . S
H1564 C1547 0.929 . S
H1565 C1548 0.930 . S
H1566 C1549 0.931 . S
H1567 C1550 0.930 . S
H1568 C1559 0.929 . S
H1569 C1560 0.930 . S
H1570 C1561 0.931 . S
H1571 C1562 0.930 . S
C1572 C1574 1.422 1_556 S
C1572 C1576 1.415 . S
C1572 N1578 1.369 . S
C1573 C1574 1.421 . S
C1573 C1575 1.417 1_554 S
C1573 C1585 1.422 . S
C1574 C1572 1.422 1_554 S
C1574 C1573 1.421 . S
C1574 N1584 1.359 . S
C1575 C1573 1.417 1_556 S
C1575 C1577 1.329 . S
C1575 H1594 0.931 . S
C1576 C1572 1.415 . S
C1576 C1577 1.437 . S
C1576 C1580 1.413 . S
C1577 C1575 1.329 . S
C1577 C1576 1.437 . S
C1577 H1599 0.929 . S
N1578 C1572 1.369 . S
N1578 C1579 1.338 . S
N1578 Gd1583 2.622 1_556 S
C1579 N1578 1.338 . S
C1579 C1581 1.378 . S
C1579 H1591 0.929 . S
C1580 C1576 1.413 . S
C1580 C1581 1.348 . S
C1580 H1596 0.931 . S
C1581 C1579 1.378 . S
C1581 C1580 1.348 . S
C1581 H1597 0.930 . S
Gd1582 N1602 2.622 1_455 S
Gd1582 N1609 2.570 1_455 S
Gd1582 O1616 2.353 . S
Gd1582 O1617 2.468 1_455 S
Gd1582 O1618 2.427 1_455 S
Gd1582 O1620 2.388 . S
Gd1582 O1621 2.386 . S
Gd1582 O1625 2.307 . S
Gd1582 C1635 2.805 1_455 S
Gd1583 N1578 2.622 1_554 S
Gd1583 N1584 2.570 . S
Gd1583 O1615 2.386 . S
Gd1583 O1619 2.307 . S
Gd1583 O1622 2.353 . S
Gd1583 O1623 2.468 . S
Gd1583 O1624 2.427 1_554 S
Gd1583 O1626 2.388 1_554 S
Gd1583 C1647 2.805 1_554 S
N1584 C1574 1.359 . S
N1584 Gd1583 2.570 . S
N1584 C1586 1.343 . S
C1585 C1573 1.422 . S
C1585 C1587 1.321 . S
C1585 H1593 0.931 . S
C1586 N1584 1.343 . S
C1586 C1587 1.390 . S
C1586 H1588 0.931 . S
C1587 C1585 1.321 . S
C1587 C1586 1.390 . S
C1587 H1589 0.930 . S
H1588 C1586 0.931 . S
H1589 C1587 0.930 . S
H1590 C1613 0.931 1_556 S
H1591 C1579 0.929 . S
H1592 C1614 0.930 . S
H1593 C1585 0.931 . S
H1594 C1575 0.931 . S
H1595 C1604 0.948 . S
H1596 C1580 0.931 . S
H1597 C1581 0.930 . S
H1598 C1636 0.930 . S
H1599 C1577 0.929 . S
H1600 C1605 0.931 . S
H1601 C1606 0.930 1_455 S
N1602 Gd1582 2.622 1_655 S
N1602 C1603 1.369 . S
N1602 C1604 1.326 1_655 S
C1603 N1602 1.369 . S
C1603 C1607 1.415 . S
C1603 C1610 1.422 . S
C1604 H1595 0.948 . S
C1604 N1602 1.326 1_455 S
C1604 C1606 1.373 1_455 S
C1605 H1600 0.931 . S
C1605 C1606 1.348 . S
C1605 C1607 1.413 . S
C1606 H1601 0.930 1_655 S
C1606 C1604 1.373 1_655 S
C1606 C1605 1.348 . S
C1607 C1603 1.415 . S
C1607 C1605 1.413 . S
C1607 C1637 1.437 . S
H1608 C1637 0.929 . S
N1609 Gd1582 2.570 1_655 S
N1609 C1610 1.359 . S
N1609 C1613 1.343 . S
C1610 C1603 1.422 . S
C1610 N1609 1.359 . S
C1610 C1612 1.421 . S
C1611 C1612 1.422 . S
C1611 C1614 1.321 1_554 S
C1611 H1638 0.931 . S
C1612 C1610 1.421 . S
C1612 C1611 1.422 . S
C1612 C1636 1.417 . S
C1613 H1590 0.931 1_554 S
C1613 N1609 1.343 . S
C1613 C1614 1.390 1_554 S
C1614 H1592 0.930 . S
C1614 C1611 1.321 1_556 S
C1614 C1613 1.390 1_556 S
O1615 Gd1583 2.386 . S
O1615 C1627 1.265 . S
O1616 Gd1582 2.353 . S
O1616 C1627 1.242 . S
O1617 Gd1582 2.468 1_655 S
O1617 C1635 1.263 . S
O1618 Gd1582 2.427 1_655 S
O1618 C1635 1.252 . S
O1619 Gd1583 2.307 . S
O1619 C1628 1.261 . S
O1620 Gd1582 2.388 . S
O1620 C1628 1.252 . S
O1621 Gd1582 2.386 . S
O1621 C1639 1.265 . S
O1622 Gd1583 2.353 . S
O1622 C1639 1.242 . S
O1623 Gd1583 2.468 . S
O1623 C1647 1.263 1_554 S
O1624 Gd1583 2.427 1_556 S
O1624 C1647 1.252 . S
O1625 Gd1582 2.307 . S
O1625 C1640 1.261 1_554 S
O1626 Gd1583 2.388 1_556 S
O1626 C1640 1.252 . S
C1627 O1615 1.265 . S
C1627 O1616 1.242 . S
C1628 O1619 1.261 . S
C1628 O1620 1.252 . S
C1629 C1632 1.394 . S
C1629 C1634 1.370 . S
C1629 C1635 1.500 . S
C1630 C1633 1.383 . S
C1630 C1634 1.395 . S
C1631 C1632 1.396 . S
C1631 C1633 1.365 . S
C1631 H1648 0.929 . S
C1632 C1629 1.394 . S
C1632 C1631 1.396 . S
C1632 H1649 0.930 . S
C1633 C1630 1.383 . S
C1633 C1631 1.365 . S
C1633 H1650 0.931 . S
C1634 C1629 1.370 . S
C1634 C1630 1.395 . S
C1634 H1651 0.930 . S
C1635 Gd1582 2.805 1_655 S
C1635 O1617 1.263 . S
C1635 O1618 1.252 . S
C1635 C1629 1.500 . S
C1636 H1598 0.930 . S
C1636 C1612 1.417 . S
C1636 C1637 1.329 . S
C1637 C1607 1.437 . S
C1637 H1608 0.929 . S
C1637 C1636 1.329 . S
H1638 C1611 0.931 . S
C1639 O1621 1.265 . S
C1639 O1622 1.242 . S
C1640 O1625 1.261 1_556 S
C1640 O1626 1.252 . S
C1641 C1644 1.394 . S
C1641 C1646 1.370 1_556 S
C1641 C1647 1.500 . S
C1642 C1645 1.383 1_554 S
C1642 C1646 1.395 . S
C1643 C1644 1.396 . S
C1643 C1645 1.365 . S
C1643 H1652 0.929 . S
C1644 C1641 1.394 . S
C1644 C1643 1.396 . S
C1644 H1653 0.930 . S
C1645 C1642 1.383 1_556 S
C1645 C1643 1.365 . S
C1645 H1654 0.931 . S
C1646 C1641 1.370 1_554 S
C1646 C1642 1.395 . S
C1646 H1655 0.930 . S
C1647 Gd1583 2.805 1_556 S
C1647 O1623 1.263 1_556 S
C1647 O1624 1.252 . S
C1647 C1641 1.500 . S
H1648 C1631 0.929 . S
H1649 C1632 0.930 . S
H1650 C1633 0.931 . S
H1651 C1634 0.930 . S
H1652 C1643 0.929 . S
H1653 C1644 0.930 . S
H1654 C1645 0.931 . S
H1655 C1646 0.930 . S
H1656 C1668 0.929 . S
H1657 C1670 0.930 . S
H1658 C1671 0.930 . S
H1659 C1675 0.959 . S
H1660 C1675 0.959 . S
H1661 C1675 0.961 . S
H1662 C1676 0.960 . S
H1663 C1676 0.961 . S
H1664 C1676 0.959 . S
H1665 C1679 0.929 . S
H1666 C1680 0.931 . S
H1667 C1682 0.930 . S
C1668 H1656 0.929 . S
C1668 C1669 1.408 1_655 S
C1668 C1673 1.401 1_655 S
C1669 C1668 1.408 1_455 S
C1669 C1670 1.383 1_556 S
C1670 H1657 0.930 . S
C1670 C1669 1.383 1_554 S
C1670 C1671 1.388 . S
C1671 H1658 0.930 . S
C1671 C1670 1.388 . S
C1671 C1672 1.390 . S
C1672 C1671 1.390 . S
C1672 C1673 1.394 1_554 S
C1672 C1678 1.465 . S
C1673 C1668 1.401 1_455 S
C1673 C1672 1.394 1_556 S
C1673 C1674 1.516 . S
C1674 C1673 1.516 . S
C1674 C1675 1.502 1_455 S
C1674 C1676 1.561 . S
C1674 C1677 1.526 . S
C1675 H1659 0.959 . S
C1675 H1660 0.959 . S
C1675 H1661 0.961 . S
C1675 C1674 1.502 1_655 S
C1676 H1662 0.960 . S
C1676 H1663 0.961 . S
C1676 H1664 0.959 . S
C1676 C1674 1.561 . S
C1677 C1674 1.526 . S
C1677 C1678 1.396 1_556 S
C1677 C1682 1.390 . S
C1678 C1672 1.465 . S
C1678 C1677 1.396 1_554 S
C1678 C1679 1.399 . S
C1679 H1665 0.929 . S
C1679 C1678 1.399 . S
C1679 C1680 1.385 . S
C1680 H1666 0.931 . S
C1680 C1679 1.385 . S
C1680 C1681 1.389 . S
C1681 C1680 1.389 . S
C1681 C1682 1.387 1_554 S
C1682 H1667 0.930 . S
C1682 C1677 1.390 . S
C1682 C1681 1.387 1_556 S
H1683 C1695 0.930 . S
H1684 C1697 0.930 . S
H1685 C1698 0.930 . S
H1686 C1702 0.959 . S
H1687 C1702 0.959 . S
H1688 C1702 0.961 . S
H1689 C1703 0.960 . S
H1690 C1703 0.961 . S
H1691 C1703 0.959 . S
H1692 C1706 0.929 . S
H1693 C1707 0.931 . S
H1694 C1709 0.930 . S
C1695 H1683 0.930 . S
C1695 C1696 1.399 . S
C1695 C1700 1.399 . S
C1696 C1695 1.399 . S
C1696 C1697 1.376 . S
C1697 H1684 0.930 . S
C1697 C1696 1.376 . S
C1697 C1698 1.388 . S
C1698 H1685 0.930 . S
C1698 C1697 1.388 . S
C1698 C1699 1.390 . S
C1699 C1698 1.390 . S
C1699 C1700 1.394 . S
C1699 C1705 1.465 . S
C1700 C1695 1.399 . S
C1700 C1699 1.394 . S
C1700 C1701 1.516 . S
C1701 C1700 1.516 . S
C1701 C1702 1.502 . S
C1701 C1703 1.561 . S
C1701 C1704 1.526 . S
C1702 H1686 0.959 . S
C1702 H1687 0.959 . S
C1702 H1688 0.961 . S
C1702 C1701 1.502 . S
C1703 H1689 0.960 . S
C1703 H1690 0.961 . S
C1703 H1691 0.959 . S
C1703 C1701 1.561 . S
C1704 C1701 1.526 . S
C1704 C1705 1.396 . S
C1704 C1709 1.390 . S
C1705 C1699 1.465 . S
C1705 C1704 1.396 . S
C1705 C1706 1.399 . S
C1706 H1692 0.929 . S
C1706 C1705 1.399 . S
C1706 C1707 1.385 . S
C1707 H1693 0.931 . S
C1707 C1706 1.385 . S
C1707 C1708 1.389 . S
C1708 C1707 1.389 . S
C1708 C1709 1.387 . S
C1709 H1694 0.930 . S
C1709 C1704 1.390 . S
C1709 C1708 1.387 . S
H1710 C1722 0.930 . S
H1711 C1724 0.930 . S
H1712 C1725 0.930 . S
H1713 C1729 0.959 . S
H1714 C1729 0.959 . S
H1715 C1729 0.961 . S
H1716 C1730 0.960 . S
H1717 C1730 0.961 . S
H1718 C1730 0.959 . S
H1719 C1733 0.929 . S
H1720 C1734 0.931 . S
H1721 C1736 0.930 . S
C1722 H1710 0.930 . S
C1722 C1723 1.399 . S
C1722 C1727 1.399 . S
C1723 C1722 1.399 . S
C1723 C1724 1.376 . S
C1724 H1711 0.930 . S
C1724 C1723 1.376 . S
C1724 C1725 1.388 . S
C1725 H1712 0.930 . S
C1725 C1724 1.388 . S
C1725 C1726 1.390 . S
C1726 C1725 1.390 . S
C1726 C1727 1.394 . S
C1726 C1732 1.465 . S
C1727 C1722 1.399 . S
C1727 C1726 1.394 . S
C1727 C1728 1.516 . S
C1728 C1727 1.516 . S
C1728 C1729 1.502 . S
C1728 C1730 1.561 . S
C1728 C1731 1.526 . S
C1729 H1713 0.959 . S
C1729 H1714 0.959 . S
C1729 H1715 0.961 . S
C1729 C1728 1.502 . S
C1730 H1716 0.960 . S
C1730 H1717 0.961 . S
C1730 H1718 0.959 . S
C1730 C1728 1.561 . S
C1731 C1728 1.526 . S
C1731 C1732 1.396 . S
C1731 C1736 1.390 . S
C1732 C1726 1.465 . S
C1732 C1731 1.396 . S
C1732 C1733 1.399 . S
C1733 H1719 0.929 . S
C1733 C1732 1.399 . S
C1733 C1734 1.385 . S
C1734 H1720 0.931 . S
C1734 C1733 1.385 . S
C1734 C1735 1.389 . S
C1735 C1734 1.389 . S
C1735 C1736 1.387 . S
C1736 H1721 0.930 . S
C1736 C1731 1.390 . S
C1736 C1735 1.387 . S
H1737 C1749 0.930 . S
H1738 C1751 0.930 . S
H1739 C1752 0.930 . S
H1740 C1756 0.959 . S
H1741 C1756 0.959 . S
H1742 C1756 0.961 . S
H1743 C1757 0.960 . S
H1744 C1757 0.961 . S
H1745 C1757 0.959 . S
H1746 C1760 0.929 . S
H1747 C1761 0.931 . S
H1748 C1763 0.930 . S
C1749 H1737 0.930 . S
C1749 C1750 1.399 . S
C1749 C1754 1.399 . S
C1750 C1749 1.399 . S
C1750 C1751 1.376 . S
C1751 H1738 0.930 . S
C1751 C1750 1.376 . S
C1751 C1752 1.388 . S
C1752 H1739 0.930 . S
C1752 C1751 1.388 . S
C1752 C1753 1.390 . S
C1753 C1752 1.390 . S
C1753 C1754 1.394 . S
C1753 C1759 1.465 . S
C1754 C1749 1.399 . S
C1754 C1753 1.394 . S
C1754 C1755 1.516 . S
C1755 C1754 1.516 . S
C1755 C1756 1.502 . S
C1755 C1757 1.561 . S
C1755 C1758 1.526 . S
C1756 H1740 0.959 . S
C1756 H1741 0.959 . S
C1756 H1742 0.961 . S
C1756 C1755 1.502 . S
C1757 H1743 0.960 . S
C1757 H1744 0.961 . S
C1757 H1745 0.959 . S
C1757 C1755 1.561 . S
C1758 C1755 1.526 . S
C1758 C1759 1.396 . S
C1758 C1763 1.390 . S
C1759 C1753 1.465 . S
C1759 C1758 1.396 . S
C1759 C1760 1.399 . S
C1760 H1746 0.929 . S
C1760 C1759 1.399 . S
C1760 C1761 1.385 . S
C1761 H1747 0.931 . S
C1761 C1760 1.385 . S
C1761 C1762 1.389 . S
C1762 C1761 1.389 . S
C1762 C1763 1.387 . S
C1763 H1748 0.930 . S
C1763 C1758 1.390 . S
C1763 C1762 1.387 . S
H1764 C1776 0.930 . S
H1765 C1778 0.930 . S
H1766 C1779 0.930 . S
H1767 C1783 0.959 1_655 S
H1768 C1783 0.959 . S
H1769 C1783 0.961 . S
H1770 C1784 0.960 . S
H1771 C1784 0.961 . S
H1772 C1784 0.959 . S
H1773 C1787 0.929 . S
H1774 C1788 0.931 . S
H1775 C1790 0.930 . S
C1776 H1764 0.930 . S
C1776 C1777 1.399 . S
C1776 C1781 1.399 . S
C1777 C1776 1.399 . S
C1777 C1778 1.376 . S
C1778 H1765 0.930 . S
C1778 C1777 1.376 . S
C1778 C1779 1.388 . S
C1779 H1766 0.930 . S
C1779 C1778 1.388 . S
C1779 C1780 1.390 . S
C1780 C1779 1.390 . S
C1780 C1781 1.394 . S
C1780 C1786 1.465 . S
C1781 C1776 1.399 . S
C1781 C1780 1.394 . S
C1781 C1782 1.516 . S
C1782 C1781 1.516 . S
C1782 C1783 1.502 . S
C1782 C1784 1.561 . S
C1782 C1785 1.526 . S
C1783 H1767 0.959 1_455 S
C1783 H1768 0.959 . S
C1783 H1769 0.961 . S
C1783 C1782 1.502 . S
C1784 H1770 0.960 . S
C1784 H1771 0.961 . S
C1784 H1772 0.959 . S
C1784 C1782 1.561 . S
C1785 C1782 1.526 . S
C1785 C1786 1.396 . S
C1785 C1790 1.390 . S
C1786 C1780 1.465 . S
C1786 C1785 1.396 . S
C1786 C1787 1.399 . S
C1787 H1773 0.929 . S
C1787 C1786 1.399 . S
C1787 C1788 1.385 . S
C1788 H1774 0.931 . S
C1788 C1787 1.385 . S
C1788 C1789 1.389 . S
C1789 C1788 1.389 . S
C1789 C1790 1.387 . S
C1790 H1775 0.930 . S
C1790 C1785 1.390 . S
C1790 C1789 1.387 . S
H1791 C1803 0.930 . S
H1792 C1805 0.930 . S
H1793 C1806 0.930 . S
H1794 C1810 0.959 . S
H1795 C1810 0.959 . S
H1796 C1810 0.961 . S
H1797 C1811 0.960 . S
H1798 C1811 0.961 . S
H1799 C1811 0.959 . S
H1800 C1814 0.929 . S
H1801 C1815 0.931 . S
H1802 C1817 0.930 . S
C1803 H1791 0.930 . S
C1803 C1804 1.399 . S
C1803 C1808 1.399 . S
C1804 C1803 1.399 . S
C1804 C1805 1.376 . S
C1805 H1792 0.930 . S
C1805 C1804 1.376 . S
C1805 C1806 1.388 . S
C1806 H1793 0.930 . S
C1806 C1805 1.388 . S
C1806 C1807 1.390 . S
C1807 C1806 1.390 . S
C1807 C1808 1.394 . S
C1807 C1813 1.465 . S
C1808 C1803 1.399 . S
C1808 C1807 1.394 . S
C1808 C1809 1.516 . S
C1809 C1808 1.516 . S
C1809 C1810 1.502 . S
C1809 C1811 1.561 . S
C1809 C1812 1.526 . S
C1810 H1794 0.959 . S
C1810 H1795 0.959 . S
C1810 H1796 0.961 . S
C1810 C1809 1.502 . S
C1811 H1797 0.960 . S
C1811 H1798 0.961 . S
C1811 H1799 0.959 . S
C1811 C1809 1.561 . S
C1812 C1809 1.526 . S
C1812 C1813 1.396 . S
C1812 C1817 1.390 . S
C1813 C1807 1.465 . S
C1813 C1812 1.396 . S
C1813 C1814 1.399 . S
C1814 H1800 0.929 . S
C1814 C1813 1.399 . S
C1814 C1815 1.385 . S
C1815 H1801 0.931 . S
C1815 C1814 1.385 . S
C1815 C1816 1.389 . S
C1816 C1815 1.389 . S
C1816 C1817 1.387 . S
C1817 H1802 0.930 . S
C1817 C1812 1.390 . S
C1817 C1816 1.387 . S
H1818 C1830 0.930 . S
H1819 C1832 0.930 . S
H1820 C1833 0.930 . S
H1821 C1837 0.959 . S
H1822 C1837 0.959 . S
H1823 C1837 0.961 . S
H1824 C1838 0.960 . S
H1825 C1838 0.961 . S
H1826 C1838 0.959 . S
H1827 C1841 0.929 . S
H1828 C1842 0.931 . S
H1829 C1844 0.930 . S
C1830 H1818 0.930 . S
C1830 C1831 1.399 . S
C1830 C1835 1.399 . S
C1831 C1830 1.399 . S
C1831 C1832 1.376 . S
C1832 H1819 0.930 . S
C1832 C1831 1.376 . S
C1832 C1833 1.388 . S
C1833 H1820 0.930 . S
C1833 C1832 1.388 . S
C1833 C1834 1.390 . S
C1834 C1833 1.390 . S
C1834 C1835 1.394 . S
C1834 C1840 1.465 . S
C1835 C1830 1.399 . S
C1835 C1834 1.394 . S
C1835 C1836 1.516 . S
C1836 C1835 1.516 . S
C1836 C1837 1.502 . S
C1836 C1838 1.561 . S
C1836 C1839 1.526 . S
C1837 H1821 0.959 . S
C1837 H1822 0.959 . S
C1837 H1823 0.961 . S
C1837 C1836 1.502 . S
C1838 H1824 0.960 . S
C1838 H1825 0.961 . S
C1838 H1826 0.959 . S
C1838 C1836 1.561 . S
C1839 C1836 1.526 . S
C1839 C1840 1.396 . S
C1839 C1844 1.390 . S
C1840 C1834 1.465 . S
C1840 C1839 1.396 . S
C1840 C1841 1.399 . S
C1841 H1827 0.929 . S
C1841 C1840 1.399 . S
C1841 C1842 1.385 . S
C1842 H1828 0.931 . S
C1842 C1841 1.385 . S
C1842 C1843 1.389 . S
C1843 C1842 1.389 . S
C1843 C1844 1.387 . S
C1844 H1829 0.930 . S
C1844 C1839 1.390 . S
C1844 C1843 1.387 . S
H1845 C1857 0.930 . S
H1846 C1859 0.930 . S
H1847 C1860 0.930 . S
H1848 C1864 0.959 . S
H1849 C1864 0.959 . S
H1850 C1864 0.961 . S
H1851 C1865 0.960 . S
H1852 C1865 0.961 . S
H1853 C1865 0.959 . S
H1854 C1868 0.929 . S
H1855 C1869 0.931 . S
H1856 C1871 0.930 . S
C1857 H1845 0.930 . S
C1857 C1858 1.399 . S
C1857 C1862 1.399 . S
C1858 C1857 1.399 . S
C1858 C1859 1.376 . S
C1859 H1846 0.930 . S
C1859 C1858 1.376 . S
C1859 C1860 1.388 . S
C1860 H1847 0.930 . S
C1860 C1859 1.388 . S
C1860 C1861 1.390 . S
C1861 C1860 1.390 . S
C1861 C1862 1.394 . S
C1861 C1867 1.465 . S
C1862 C1857 1.399 . S
C1862 C1861 1.394 . S
C1862 C1863 1.516 . S
C1863 C1862 1.516 . S
C1863 C1864 1.502 . S
C1863 C1865 1.561 . S
C1863 C1866 1.526 . S
C1864 H1848 0.959 . S
C1864 H1849 0.959 . S
C1864 H1850 0.961 . S
C1864 C1863 1.502 . S
C1865 H1851 0.960 . S
C1865 H1852 0.961 . S
C1865 H1853 0.959 . S
C1865 C1863 1.561 . S
C1866 C1863 1.526 . S
C1866 C1867 1.396 . S
C1866 C1871 1.390 . S
C1867 C1861 1.465 . S
C1867 C1866 1.396 . S
C1867 C1868 1.399 . S
C1868 H1854 0.929 . S
C1868 C1867 1.399 . S
C1868 C1869 1.385 . S
C1869 H1855 0.931 . S
C1869 C1868 1.385 . S
C1869 C1870 1.389 . S
C1870 C1869 1.389 . S
C1870 C1871 1.387 . S
C1871 H1856 0.930 . S
C1871 C1866 1.390 . S
C1871 C1870 1.387 . S
H1872 C1884 0.930 . S
H1873 C1886 0.930 . S
H1874 C1887 0.930 1_455 S
H1875 C1891 0.959 . S
H1876 C1891 0.959 . S
H1877 C1891 0.961 . S
H1878 C1892 0.960 . S
H1879 C1892 0.961 . S
H1880 C1892 0.959 . S
H1881 C1895 0.929 . S
H1882 C1896 0.931 . S
H1883 C1898 0.930 . S
C1884 H1872 0.930 . S
C1884 C1885 1.399 . S
C1884 C1889 1.399 . S
C1885 C1884 1.399 . S
C1885 C1886 1.376 . S
C1886 H1873 0.930 . S
C1886 C1885 1.376 . S
C1886 C1887 1.388 . S
C1887 H1874 0.930 1_655 S
C1887 C1886 1.388 . S
C1887 C1888 1.390 . S
C1888 C1887 1.390 . S
C1888 C1889 1.394 . S
C1888 C1894 1.465 . S
C1889 C1884 1.399 . S
C1889 C1888 1.394 . S
C1889 C1890 1.516 . S
C1890 C1889 1.516 . S
C1890 C1891 1.502 . S
C1890 C1892 1.561 . S
C1890 C1893 1.526 . S
C1891 H1875 0.959 . S
C1891 H1876 0.959 . S
C1891 H1877 0.961 . S
C1891 C1890 1.502 . S
C1892 H1878 0.960 . S
C1892 H1879 0.961 . S
C1892 H1880 0.959 . S
C1892 C1890 1.561 . S
C1893 C1890 1.526 . S
C1893 C1894 1.396 . S
C1893 C1898 1.390 . S
C1894 C1888 1.465 . S
C1894 C1893 1.396 . S
C1894 C1895 1.399 1_655 S
C1895 H1881 0.929 . S
C1895 C1894 1.399 1_455 S
C1895 C1896 1.385 . S
C1896 H1882 0.931 . S
C1896 C1895 1.385 . S
C1896 C1897 1.389 . S
C1897 C1896 1.389 . S
C1897 C1898 1.387 1_455 S
C1898 H1883 0.930 . S
C1898 C1893 1.390 . S
C1898 C1897 1.387 1_655 S
H1899 C1911 0.930 . S
H1900 C1913 0.930 . S
H1901 C1914 0.930 . S
H1902 C1918 0.959 . S
H1903 C1918 0.959 . S
H1904 C1918 0.961 . S
H1905 C1919 0.960 . S
H1906 C1919 0.961 . S
H1907 C1919 0.959 . S
H1908 C1922 0.929 . S
H1909 C1923 0.931 . S
H1910 C1925 0.930 . S
C1911 H1899 0.930 . S
C1911 C1912 1.399 . S
C1911 C1916 1.399 . S
C1912 C1911 1.399 . S
C1912 C1913 1.376 . S
C1913 H1900 0.930 . S
C1913 C1912 1.376 . S
C1913 C1914 1.388 . S
C1914 H1901 0.930 . S
C1914 C1913 1.388 . S
C1914 C1915 1.390 . S
C1915 C1914 1.390 . S
C1915 C1916 1.394 . S
C1915 C1921 1.465 . S
C1916 C1911 1.399 . S
C1916 C1915 1.394 . S
C1916 C1917 1.516 . S
C1917 C1916 1.516 . S
C1917 C1918 1.502 . S
C1917 C1919 1.561 . S
C1917 C1920 1.526 . S
C1918 H1902 0.959 . S
C1918 H1903 0.959 . S
C1918 H1904 0.961 . S
C1918 C1917 1.502 . S
C1919 H1905 0.960 . S
C1919 H1906 0.961 . S
C1919 H1907 0.959 . S
C1919 C1917 1.561 . S
C1920 C1917 1.526 . S
C1920 C1921 1.396 . S
C1920 C1925 1.390 . S
C1921 C1915 1.465 . S
C1921 C1920 1.396 . S
C1921 C1922 1.399 . S
C1922 H1908 0.929 . S
C1922 C1921 1.399 . S
C1922 C1923 1.385 . S
C1923 H1909 0.931 . S
C1923 C1922 1.385 . S
C1923 C1924 1.389 . S
C1924 C1923 1.389 . S
C1924 C1925 1.387 . S
C1925 H1910 0.930 . S
C1925 C1920 1.390 . S
C1925 C1924 1.387 . S
H1926 C1938 0.930 . S
H1927 C1940 0.930 . S
H1928 C1941 0.930 . S
H1929 C1945 0.959 . S
H1930 C1945 0.959 . S
H1931 C1945 0.961 . S
H1932 C1946 0.960 . S
H1933 C1946 0.961 . S
H1934 C1946 0.959 . S
H1935 C1949 0.929 1_565 S
H1936 C1950 0.931 1_565 S
H1937 C1952 0.930 . S
C1938 H1926 0.930 . S
C1938 C1939 1.399 . S
C1938 C1943 1.399 . S
C1939 C1938 1.399 . S
C1939 C1940 1.376 . S
C1940 H1927 0.930 . S
C1940 C1939 1.376 . S
C1940 C1941 1.388 . S
C1941 H1928 0.930 . S
C1941 C1940 1.388 . S
C1941 C1942 1.390 . S
C1942 C1941 1.390 . S
C1942 C1943 1.394 . S
C1942 C1948 1.465 . S
C1943 C1938 1.399 . S
C1943 C1942 1.394 . S
C1943 C1944 1.516 . S
C1944 C1943 1.516 . S
C1944 C1945 1.502 . S
C1944 C1946 1.561 . S
C1944 C1947 1.526 . S
C1945 H1929 0.959 . S
C1945 H1930 0.959 . S
C1945 H1931 0.961 . S
C1945 C1944 1.502 . S
C1946 H1932 0.960 . S
C1946 H1933 0.961 . S
C1946 H1934 0.959 . S
C1946 C1944 1.561 . S
C1947 C1944 1.526 . S
C1947 C1948 1.396 . S
C1947 C1952 1.390 . S
C1948 C1942 1.465 . S
C1948 C1947 1.396 . S
C1948 C1949 1.399 . S
C1949 H1935 0.929 1_545 S
C1949 C1948 1.399 . S
C1949 C1950 1.385 . S
C1950 H1936 0.931 1_545 S
C1950 C1949 1.385 . S
C1950 C1951 1.389 . S
C1951 C1950 1.389 . S
C1951 C1952 1.387 . S
C1952 H1937 0.930 . S
C1952 C1947 1.390 . S
C1952 C1951 1.387 . S
H1953 C1965 0.930 . S
H1954 C1967 0.930 . S
H1955 C1968 0.930 . S
H1956 C1972 0.959 . S
H1957 C1972 0.959 . S
H1958 C1972 0.961 . S
H1959 C1973 0.960 . S
H1960 C1973 0.961 . S
H1961 C1973 0.959 . S
H1962 C1976 0.929 . S
H1963 C1977 0.931 . S
H1964 C1979 0.930 . S
C1965 H1953 0.930 . S
C1965 C1966 1.399 . S
C1965 C1970 1.399 . S
C1966 C1965 1.399 . S
C1966 C1967 1.376 . S
C1967 H1954 0.930 . S
C1967 C1966 1.376 . S
C1967 C1968 1.388 . S
C1968 H1955 0.930 . S
C1968 C1967 1.388 . S
C1968 C1969 1.390 . S
C1969 C1968 1.390 . S
C1969 C1970 1.394 . S
C1969 C1975 1.465 . S
C1970 C1965 1.399 . S
C1970 C1969 1.394 . S
C1970 C1971 1.516 . S
C1971 C1970 1.516 . S
C1971 C1972 1.502 . S
C1971 C1973 1.561 . S
C1971 C1974 1.526 . S
C1972 H1956 0.959 . S
C1972 H1957 0.959 . S
C1972 H1958 0.961 . S
C1972 C1971 1.502 . S
C1973 H1959 0.960 . S
C1973 H1960 0.961 . S
C1973 H1961 0.959 . S
C1973 C1971 1.561 . S
C1974 C1971 1.526 . S
C1974 C1975 1.396 . S
C1974 C1979 1.390 . S
C1975 C1969 1.465 . S
C1975 C1974 1.396 . S
C1975 C1976 1.399 . S
C1976 H1962 0.929 . S
C1976 C1975 1.399 . S
C1976 C1977 1.385 . S
C1977 H1963 0.931 . S
C1977 C1976 1.385 . S
C1977 C1978 1.389 . S
C1978 C1977 1.389 . S
C1978 C1979 1.387 . S
C1979 H1964 0.930 . S
C1979 C1974 1.390 . S
C1979 C1978 1.387 . S
H1980 C1992 0.930 1_565 S
H1981 C1994 0.930 . S
H1982 C1995 0.930 . S
H1983 C1999 0.959 . S
H1984 C1999 0.959 . S
H1985 C1999 0.961 . S
H1986 C2000 0.960 . S
H1987 C2000 0.961 . S
H1988 C2000 0.959 1_455 S
H1989 C2003 0.929 . S
H1990 C2004 0.931 . S
H1991 C2006 0.930 1_565 S
C1992 H1980 0.930 1_545 S
C1992 C1993 1.399 . S
C1992 C1997 1.399 . S
C1993 C1992 1.399 . S
C1993 C1994 1.376 . S
C1994 H1981 0.930 . S
C1994 C1993 1.376 . S
C1994 C1995 1.388 . S
C1995 H1982 0.930 . S
C1995 C1994 1.388 . S
C1995 C1996 1.390 . S
C1996 C1995 1.390 . S
C1996 C1997 1.394 . S
C1996 C2002 1.465 . S
C1997 C1992 1.399 . S
C1997 C1996 1.394 . S
C1997 C1998 1.516 1_545 S
C1998 C1997 1.516 1_565 S
C1998 C1999 1.502 . S
C1998 C2000 1.561 . S
C1998 C2001 1.526 1_565 S
C1999 H1983 0.959 . S
C1999 H1984 0.959 . S
C1999 H1985 0.961 . S
C1999 C1998 1.502 . S
C2000 H1986 0.960 . S
C2000 H1987 0.961 . S
C2000 H1988 0.959 1_655 S
C2000 C1998 1.561 . S
C2001 C1998 1.526 1_545 S
C2001 C2002 1.396 . S
C2001 C2006 1.390 . S
C2002 C1996 1.465 . S
C2002 C2001 1.396 . S
C2002 C2003 1.399 1_655 S
C2003 H1989 0.929 . S
C2003 C2002 1.399 1_455 S
C2003 C2004 1.385 . S
C2004 H1990 0.931 . S
C2004 C2003 1.385 . S
C2004 C2005 1.389 . S
C2005 C2004 1.389 . S
C2005 C2006 1.387 1_455 S
C2006 H1991 0.930 1_545 S
C2006 C2001 1.390 . S
C2006 C2005 1.387 1_655 S
H2007 C2019 0.930 . S
H2008 C2021 0.930 . S
H2009 C2022 0.930 . S
H2010 C2026 0.959 . S
H2011 C2026 0.959 . S
H2012 C2026 0.961 . S
H2013 C2027 0.960 . S
H2014 C2027 0.961 . S
H2015 C2027 0.959 . S
H2016 C2030 0.929 . S
H2017 C2031 0.931 . S
H2018 C2033 0.930 . S
C2019 H2007 0.930 . S
C2019 C2020 1.399 . S
C2019 C2024 1.399 . S
C2020 C2019 1.399 . S
C2020 C2021 1.376 . S
C2021 H2008 0.930 . S
C2021 C2020 1.376 . S
C2021 C2022 1.388 . S
C2022 H2009 0.930 . S
C2022 C2021 1.388 . S
C2022 C2023 1.390 . S
C2023 C2022 1.390 . S
C2023 C2024 1.394 . S
C2023 C2029 1.465 . S
C2024 C2019 1.399 . S
C2024 C2023 1.394 . S
C2024 C2025 1.516 . S
C2025 C2024 1.516 . S
C2025 C2026 1.502 . S
C2025 C2027 1.561 . S
C2025 C2028 1.526 . S
C2026 H2010 0.959 . S
C2026 H2011 0.959 . S
C2026 H2012 0.961 . S
C2026 C2025 1.502 . S
C2027 H2013 0.960 . S
C2027 H2014 0.961 . S
C2027 H2015 0.959 . S
C2027 C2025 1.561 . S
C2028 C2025 1.526 . S
C2028 C2029 1.396 . S
C2028 C2033 1.390 . S
C2029 C2023 1.465 . S
C2029 C2028 1.396 . S
C2029 C2030 1.399 . S
C2030 H2016 0.929 . S
C2030 C2029 1.399 . S
C2030 C2031 1.385 . S
C2031 H2017 0.931 . S
C2031 C2030 1.385 . S
C2031 C2032 1.389 . S
C2032 C2031 1.389 . S
C2032 C2033 1.387 . S
C2033 H2018 0.930 . S
C2033 C2028 1.390 . S
C2033 C2032 1.387 . S
H2034 C2046 0.930 . S
H2035 C2048 0.930 . S
H2036 C2049 0.930 . S
H2037 C2053 0.959 . S
H2038 C2053 0.959 . S
H2039 C2053 0.961 . S
H2040 C2054 0.960 1_565 S
H2041 C2054 0.961 1_565 S
H2042 C2054 0.959 . S
H2043 C2057 0.929 . S
H2044 C2058 0.931 . S
H2045 C2060 0.930 . S
C2046 H2034 0.930 . S
C2046 C2047 1.399 . S
C2046 C2051 1.399 . S
C2047 C2046 1.399 . S
C2047 C2048 1.376 . S
C2048 H2035 0.930 . S
C2048 C2047 1.376 . S
C2048 C2049 1.388 . S
C2049 H2036 0.930 . S
C2049 C2048 1.388 . S
C2049 C2050 1.390 . S
C2050 C2049 1.390 . S
C2050 C2051 1.394 . S
C2050 C2056 1.465 . S
C2051 C2046 1.399 . S
C2051 C2050 1.394 . S
C2051 C2052 1.516 . S
C2052 C2051 1.516 . S
C2052 C2053 1.502 . S
C2052 C2054 1.561 . S
C2052 C2055 1.526 . S
C2053 H2037 0.959 . S
C2053 H2038 0.959 . S
C2053 H2039 0.961 . S
C2053 C2052 1.502 . S
C2054 H2040 0.960 1_545 S
C2054 H2041 0.961 1_545 S
C2054 H2042 0.959 . S
C2054 C2052 1.561 . S
C2055 C2052 1.526 . S
C2055 C2056 1.396 . S
C2055 C2060 1.390 . S
C2056 C2050 1.465 . S
C2056 C2055 1.396 . S
C2056 C2057 1.399 . S
C2057 H2043 0.929 . S
C2057 C2056 1.399 . S
C2057 C2058 1.385 . S
C2058 H2044 0.931 . S
C2058 C2057 1.385 . S
C2058 C2059 1.389 . S
C2059 C2058 1.389 . S
C2059 C2060 1.387 . S
C2060 H2045 0.930 . S
C2060 C2055 1.390 . S
C2060 C2059 1.387 . S
H2061 C2073 0.930 . S
H2062 C2075 0.930 . S
H2063 C2076 0.930 . S
H2064 C2080 0.959 . S
H2065 C2080 0.959 . S
H2066 C2080 0.961 . S
H2067 C2081 0.960 . S
H2068 C2081 0.961 . S
H2069 C2081 0.959 . S
H2070 C2084 0.929 . S
H2071 C2085 0.931 . S
H2072 C2087 0.930 . S
C2073 H2061 0.930 . S
C2073 C2074 1.399 . S
C2073 C2078 1.399 . S
C2074 C2073 1.399 . S
C2074 C2075 1.376 . S
C2075 H2062 0.930 . S
C2075 C2074 1.376 . S
C2075 C2076 1.388 . S
C2076 H2063 0.930 . S
C2076 C2075 1.388 . S
C2076 C2077 1.390 . S
C2077 C2076 1.390 . S
C2077 C2078 1.394 . S
C2077 C2083 1.465 . S
C2078 C2073 1.399 . S
C2078 C2077 1.394 . S
C2078 C2079 1.516 . S
C2079 C2078 1.516 . S
C2079 C2080 1.502 . S
C2079 C2081 1.561 . S
C2079 C2082 1.526 . S
C2080 H2064 0.959 . S
C2080 H2065 0.959 . S
C2080 H2066 0.961 . S
C2080 C2079 1.502 . S
C2081 H2067 0.960 . S
C2081 H2068 0.961 . S
C2081 H2069 0.959 . S
C2081 C2079 1.561 . S
C2082 C2079 1.526 . S
C2082 C2083 1.396 . S
C2082 C2087 1.390 . S
C2083 C2077 1.465 . S
C2083 C2082 1.396 . S
C2083 C2084 1.399 . S
C2084 H2070 0.929 . S
C2084 C2083 1.399 . S
C2084 C2085 1.385 . S
C2085 H2071 0.931 . S
C2085 C2084 1.385 . S
C2085 C2086 1.389 . S
C2086 C2085 1.389 . S
C2086 C2087 1.387 . S
C2087 H2072 0.930 . S
C2087 C2082 1.390 . S
C2087 C2086 1.387 . S
H2088 C2100 0.930 . S
H2089 C2102 0.930 . S
H2090 C2103 0.930 1_545 S
H2091 C2107 0.959 . S
H2092 C2107 0.959 . S
H2093 C2107 0.961 . S
H2094 C2108 0.960 . S
H2095 C2108 0.961 . S
H2096 C2108 0.959 . S
H2097 C2111 0.929 1_556 S
H2098 C2112 0.931 . S
H2099 C2114 0.930 . S
C2100 H2088 0.930 . S
C2100 C2101 1.399 1_554 S
C2100 C2105 1.399 . S
C2101 C2100 1.399 1_556 S
C2101 C2102 1.376 . S
C2102 H2089 0.930 . S
C2102 C2101 1.376 . S
C2102 C2103 1.388 . S
C2103 H2090 0.930 1_565 S
C2103 C2102 1.388 . S
C2103 C2104 1.390 1_556 S
C2104 C2103 1.390 1_554 S
C2104 C2105 1.394 . S
C2104 C2110 1.465 . S
C2105 C2100 1.399 . S
C2105 C2104 1.394 . S
C2105 C2106 1.516 . S
C2106 C2105 1.516 . S
C2106 C2107 1.502 . S
C2106 C2108 1.561 . S
C2106 C2109 1.526 . S
C2107 H2091 0.959 . S
C2107 H2092 0.959 . S
C2107 H2093 0.961 . S
C2107 C2106 1.502 . S
C2108 H2094 0.960 . S
C2108 H2095 0.961 . S
C2108 H2096 0.959 . S
C2108 C2106 1.561 . S
C2109 C2106 1.526 . S
C2109 C2110 1.396 . S
C2109 C2114 1.390 . S
C2110 C2104 1.465 . S
C2110 C2109 1.396 . S
C2110 C2111 1.399 1_565 S
C2111 H2097 0.929 1_554 S
C2111 C2110 1.399 1_545 S
C2111 C2112 1.385 . S
C2112 H2098 0.931 . S
C2112 C2111 1.385 . S
C2112 C2113 1.381 1_545 S
C2113 C2112 1.381 1_565 S
C2113 C2114 1.398 . S
C2114 H2099 0.930 . S
C2114 C2109 1.390 . S
C2114 C2113 1.398 . S
H2115 C2127 0.930 . S
H2116 C2129 0.930 . S
H2117 C2130 0.930 . S
H2118 C2134 0.959 . S
H2119 C2134 0.959 . S
H2120 C2134 0.961 . S
H2121 C2135 0.960 . S
H2122 C2135 0.961 . S
H2123 C2135 0.959 . S
H2124 C2138 0.929 . S
H2125 C2139 0.931 . S
H2126 C2141 0.930 . S
C2127 H2115 0.930 . S
C2127 C2128 1.399 . S
C2127 C2132 1.399 . S
C2128 C2127 1.399 . S
C2128 C2129 1.376 1_554 S
C2129 H2116 0.930 . S
C2129 C2128 1.376 1_556 S
C2129 C2130 1.388 . S
C2130 H2117 0.930 . S
C2130 C2129 1.388 . S
C2130 C2131 1.390 1_556 S
C2131 C2130 1.390 1_554 S
C2131 C2132 1.394 . S
C2131 C2137 1.465 . S
C2132 C2127 1.399 . S
C2132 C2131 1.394 . S
C2132 C2133 1.516 . S
C2133 C2132 1.516 . S
C2133 C2134 1.502 . S
C2133 C2135 1.561 . S
C2133 C2136 1.526 . S
C2134 H2118 0.959 . S
C2134 H2119 0.959 . S
C2134 H2120 0.961 . S
C2134 C2133 1.502 . S
C2135 H2121 0.960 . S
C2135 H2122 0.961 . S
C2135 H2123 0.959 . S
C2135 C2133 1.561 . S
C2136 C2133 1.526 . S
C2136 C2137 1.396 . S
C2136 C2141 1.390 . S
C2137 C2131 1.465 . S
C2137 C2136 1.396 . S
C2137 C2138 1.399 1_554 S
C2138 H2124 0.929 . S
C2138 C2137 1.399 1_556 S
C2138 C2139 1.385 . S
C2139 H2125 0.931 . S
C2139 C2138 1.385 . S
C2139 C2140 1.389 1_556 S
C2140 C2139 1.389 1_554 S
C2140 C2141 1.387 . S
C2141 H2126 0.930 . S
C2141 C2136 1.390 . S
C2141 C2140 1.387 . S
H2142 C2154 0.930 . S
H2143 C2156 0.930 . S
H2144 C2157 0.930 . S
H2145 C2161 0.959 . S
H2146 C2161 0.959 . S
H2147 C2161 0.961 . S
H2148 C2162 0.960 . S
H2149 C2162 0.961 . S
H2150 C2162 0.959 . S
H2151 C2165 0.929 . S
H2152 C2166 0.931 . S
H2153 C2168 0.930 . S
C2154 H2142 0.930 . S
C2154 C2155 1.399 . S
C2154 C2159 1.399 . S
C2155 C2154 1.399 . S
C2155 C2156 1.376 . S
C2156 H2143 0.930 . S
C2156 C2155 1.376 . S
C2156 C2157 1.388 . S
C2157 H2144 0.930 . S
C2157 C2156 1.388 . S
C2157 C2158 1.390 . S
C2158 C2157 1.390 . S
C2158 C2159 1.394 . S
C2158 C2164 1.465 . S
C2159 C2154 1.399 . S
C2159 C2158 1.394 . S
C2159 C2160 1.516 . S
C2160 C2159 1.516 . S
C2160 C2161 1.502 . S
C2160 C2162 1.561 . S
C2160 C2163 1.526 . S
C2161 H2145 0.959 . S
C2161 H2146 0.959 . S
C2161 H2147 0.961 . S
C2161 C2160 1.502 . S
C2162 H2148 0.960 . S
C2162 H2149 0.961 . S
C2162 H2150 0.959 . S
C2162 C2160 1.561 . S
C2163 C2160 1.526 . S
C2163 C2164 1.396 . S
C2163 C2168 1.390 . S
C2164 C2158 1.465 . S
C2164 C2163 1.396 . S
C2164 C2165 1.399 . S
C2165 H2151 0.929 . S
C2165 C2164 1.399 . S
C2165 C2166 1.385 . S
C2166 H2152 0.931 . S
C2166 C2165 1.385 . S
C2166 C2167 1.389 . S
C2167 C2166 1.389 . S
C2167 C2168 1.387 . S
C2168 H2153 0.930 . S
C2168 C2163 1.390 . S
C2168 C2167 1.387 . S
H2169 C2181 0.930 . S
H2170 C2183 0.930 . S
H2171 C2184 0.930 . S
H2172 C2188 0.959 . S
H2173 C2188 0.959 . S
H2174 C2188 0.961 . S
H2175 C2189 0.960 . S
H2176 C2189 0.961 . S
H2177 C2189 0.959 . S
H2178 C2192 0.929 . S
H2179 C2193 0.931 . S
H2180 C2195 0.930 . S
C2181 H2169 0.930 . S
C2181 C2182 1.399 . S
C2181 C2186 1.399 . S
C2182 C2181 1.399 . S
C2182 C2183 1.376 . S
C2183 H2170 0.930 . S
C2183 C2182 1.376 . S
C2183 C2184 1.388 . S
C2184 H2171 0.930 . S
C2184 C2183 1.388 . S
C2184 C2185 1.390 . S
C2185 C2184 1.390 . S
C2185 C2186 1.394 . S
C2185 C2191 1.465 . S
C2186 C2181 1.399 . S
C2186 C2185 1.394 . S
C2186 C2187 1.516 . S
C2187 C2186 1.516 . S
C2187 C2188 1.502 . S
C2187 C2189 1.561 . S
C2187 C2190 1.526 . S
C2188 H2172 0.959 . S
C2188 H2173 0.959 . S
C2188 H2174 0.961 . S
C2188 C2187 1.502 . S
C2189 H2175 0.960 . S
C2189 H2176 0.961 . S
C2189 H2177 0.959 . S
C2189 C2187 1.561 . S
C2190 C2187 1.526 . S
C2190 C2191 1.396 . S
C2190 C2195 1.390 . S
C2191 C2185 1.465 . S
C2191 C2190 1.396 . S
C2191 C2192 1.399 . S
C2192 H2178 0.929 . S
C2192 C2191 1.399 . S
C2192 C2193 1.385 . S
C2193 H2179 0.931 . S
C2193 C2192 1.385 . S
C2193 C2194 1.389 . S
C2194 C2193 1.389 . S
C2194 C2195 1.387 . S
C2195 H2180 0.930 . S
C2195 C2190 1.390 . S
C2195 C2194 1.387 . S
H2196 C2208 0.930 . S
H2197 C2210 0.930 . S
H2198 C2211 0.930 . S
H2199 C2215 0.959 . S
H2200 C2215 0.959 . S
H2201 C2215 0.961 . S
H2202 C2216 0.960 . S
H2203 C2216 0.961 . S
H2204 C2216 0.959 . S
H2205 C2219 0.929 . S
H2206 C2220 0.931 . S
H2207 C2222 0.930 . S
C2208 H2196 0.930 . S
C2208 C2209 1.399 . S
C2208 C2213 1.399 . S
C2209 C2208 1.399 . S
C2209 C2210 1.376 . S
C2210 H2197 0.930 . S
C2210 C2209 1.376 . S
C2210 C2211 1.388 . S
C2211 H2198 0.930 . S
C2211 C2210 1.388 . S
C2211 C2212 1.390 . S
C2212 C2211 1.390 . S
C2212 C2213 1.394 . S
C2212 C2218 1.465 . S
C2213 C2208 1.399 . S
C2213 C2212 1.394 . S
C2213 C2214 1.516 . S
C2214 C2213 1.516 . S
C2214 C2215 1.502 . S
C2214 C2216 1.561 . S
C2214 C2217 1.526 . S
C2215 H2199 0.959 . S
C2215 H2200 0.959 . S
C2215 H2201 0.961 . S
C2215 C2214 1.502 . S
C2216 H2202 0.960 . S
C2216 H2203 0.961 . S
C2216 H2204 0.959 . S
C2216 C2214 1.561 . S
C2217 C2214 1.526 . S
C2217 C2218 1.396 . S
C2217 C2222 1.390 . S
C2218 C2212 1.465 . S
C2218 C2217 1.396 . S
C2218 C2219 1.399 . S
C2219 H2205 0.929 . S
C2219 C2218 1.399 . S
C2219 C2220 1.385 . S
C2220 H2206 0.931 . S
C2220 C2219 1.385 . S
C2220 C2221 1.389 . S
C2221 C2220 1.389 . S
C2221 C2222 1.387 . S
C2222 H2207 0.930 . S
C2222 C2217 1.390 . S
C2222 C2221 1.387 . S
H2223 C2235 0.930 . S
H2224 C2237 0.930 . S
H2225 C2238 0.930 . S
H2226 C2242 0.959 . S
H2227 C2242 0.959 . S
H2228 C2242 0.961 . S
H2229 C2243 0.960 . S
H2230 C2243 0.961 . S
H2231 C2243 0.959 . S
H2232 C2246 0.929 . S
H2233 C2247 0.931 . S
H2234 C2249 0.930 . S
C2235 H2223 0.930 . S
C2235 C2236 1.399 . S
C2235 C2240 1.399 . S
C2236 C2235 1.399 . S
C2236 C2237 1.376 . S
C2237 H2224 0.930 . S
C2237 C2236 1.376 . S
C2237 C2238 1.388 . S
C2238 H2225 0.930 . S
C2238 C2237 1.388 . S
C2238 C2239 1.390 . S
C2239 C2238 1.390 . S
C2239 C2240 1.394 . S
C2239 C2245 1.465 . S
C2240 C2235 1.399 . S
C2240 C2239 1.394 . S
C2240 C2241 1.516 . S
C2241 C2240 1.516 . S
C2241 C2242 1.502 . S
C2241 C2243 1.561 . S
C2241 C2244 1.526 . S
C2242 H2226 0.959 . S
C2242 H2227 0.959 . S
C2242 H2228 0.961 . S
C2242 C2241 1.502 . S
C2243 H2229 0.960 . S
C2243 H2230 0.961 . S
C2243 H2231 0.959 . S
C2243 C2241 1.561 . S
C2244 C2241 1.526 . S
C2244 C2245 1.396 . S
C2244 C2249 1.390 . S
C2245 C2239 1.465 . S
C2245 C2244 1.396 . S
C2245 C2246 1.399 . S
C2246 H2232 0.929 . S
C2246 C2245 1.399 . S
C2246 C2247 1.385 . S
C2247 H2233 0.931 . S
C2247 C2246 1.385 . S
C2247 C2248 1.389 . S
C2248 C2247 1.389 . S
C2248 C2249 1.387 . S
C2249 H2234 0.930 . S
C2249 C2244 1.390 . S
C2249 C2248 1.387 . S
H2250 C2262 0.930 . S
H2251 C2264 0.930 . S
H2252 C2265 0.930 . S
H2253 C2269 0.959 . S
H2254 C2269 0.959 . S
H2255 C2269 0.961 . S
H2256 C2270 0.960 . S
H2257 C2270 0.961 . S
H2258 C2270 0.959 . S
H2259 C2273 0.929 . S
H2260 C2274 0.931 . S
H2261 C2276 0.930 . S
C2262 H2250 0.930 . S
C2262 C2263 1.399 . S
C2262 C2267 1.399 . S
C2263 C2262 1.399 . S
C2263 C2264 1.376 . S
C2264 H2251 0.930 . S
C2264 C2263 1.376 . S
C2264 C2265 1.388 . S
C2265 H2252 0.930 . S
C2265 C2264 1.388 . S
C2265 C2266 1.390 . S
C2266 C2265 1.390 . S
C2266 C2267 1.394 . S
C2266 C2272 1.465 . S
C2267 C2262 1.399 . S
C2267 C2266 1.394 . S
C2267 C2268 1.516 . S
C2268 C2267 1.516 . S
C2268 C2269 1.502 . S
C2268 C2270 1.561 . S
C2268 C2271 1.526 . S
C2269 H2253 0.959 . S
C2269 H2254 0.959 . S
C2269 H2255 0.961 . S
C2269 C2268 1.502 . S
C2270 H2256 0.960 . S
C2270 H2257 0.961 . S
C2270 H2258 0.959 . S
C2270 C2268 1.561 . S
C2271 C2268 1.526 . S
C2271 C2272 1.396 . S
C2271 C2276 1.390 . S
C2272 C2266 1.465 . S
C2272 C2271 1.396 . S
C2272 C2273 1.399 . S
C2273 H2259 0.929 . S
C2273 C2272 1.399 . S
C2273 C2274 1.385 . S
C2274 H2260 0.931 . S
C2274 C2273 1.385 . S
C2274 C2275 1.389 . S
C2275 C2274 1.389 . S
C2275 C2276 1.387 . S
C2276 H2261 0.930 . S
C2276 C2271 1.390 . S
C2276 C2275 1.387 . S
H2277 C2289 0.930 . S
H2278 C2291 0.930 . S
H2279 C2292 0.930 . S
H2280 C2296 0.959 . S
H2281 C2296 0.959 . S
H2282 C2296 0.961 . S
H2283 C2297 0.960 . S
H2284 C2297 0.961 . S
H2285 C2297 0.959 . S
H2286 C2300 0.929 . S
H2287 C2301 0.931 . S
H2288 C2303 0.930 . S
C2289 H2277 0.930 . S
C2289 C2290 1.399 . S
C2289 C2294 1.399 . S
C2290 C2289 1.399 . S
C2290 C2291 1.376 . S
C2291 H2278 0.930 . S
C2291 C2290 1.376 . S
C2291 C2292 1.388 . S
C2292 H2279 0.930 . S
C2292 C2291 1.388 . S
C2292 C2293 1.390 . S
C2293 C2292 1.390 . S
C2293 C2294 1.394 . S
C2293 C2299 1.465 . S
C2294 C2289 1.399 . S
C2294 C2293 1.394 . S
C2294 C2295 1.516 . S
C2295 C2294 1.516 . S
C2295 C2296 1.502 . S
C2295 C2297 1.561 . S
C2295 C2298 1.526 . S
C2296 H2280 0.959 . S
C2296 H2281 0.959 . S
C2296 H2282 0.961 . S
C2296 C2295 1.502 . S
C2297 H2283 0.960 . S
C2297 H2284 0.961 . S
C2297 H2285 0.959 . S
C2297 C2295 1.561 . S
C2298 C2295 1.526 . S
C2298 C2299 1.396 . S
C2298 C2303 1.390 . S
C2299 C2293 1.465 . S
C2299 C2298 1.396 . S
C2299 C2300 1.399 . S
C2300 H2286 0.929 . S
C2300 C2299 1.399 . S
C2300 C2301 1.385 . S
C2301 H2287 0.931 . S
C2301 C2300 1.385 . S
C2301 C2302 1.389 . S
C2302 C2301 1.389 . S
C2302 C2303 1.387 . S
C2303 H2288 0.930 . S
C2303 C2298 1.390 . S
C2303 C2302 1.387 . S
H2304 C2316 0.930 . S
H2305 C2318 0.930 . S
H2306 C2319 0.930 . S
H2307 C2323 0.959 . S
H2308 C2323 0.959 . S
H2309 C2323 0.961 . S
H2310 C2324 0.960 . S
H2311 C2324 0.961 1_556 S
H2312 C2324 0.959 . S
H2313 C2327 0.929 . S
H2314 C2328 0.931 . S
H2315 C2330 0.930 . S
C2316 H2304 0.930 . S
C2316 C2317 1.399 . S
C2316 C2321 1.399 . S
C2317 C2316 1.399 . S
C2317 C2318 1.376 . S
C2318 H2305 0.930 . S
C2318 C2317 1.376 . S
C2318 C2319 1.388 . S
C2319 H2306 0.930 . S
C2319 C2318 1.388 . S
C2319 C2320 1.390 . S
C2320 C2319 1.390 . S
C2320 C2321 1.394 . S
C2320 C2326 1.465 . S
C2321 C2316 1.399 . S
C2321 C2320 1.394 . S
C2321 C2322 1.516 . S
C2322 C2321 1.516 . S
C2322 C2323 1.502 . S
C2322 C2324 1.561 . S
C2322 C2325 1.526 . S
C2323 H2307 0.959 . S
C2323 H2308 0.959 . S
C2323 H2309 0.961 . S
C2323 C2322 1.502 . S
C2324 H2310 0.960 . S
C2324 H2311 0.961 1_554 S
C2324 H2312 0.959 . S
C2324 C2322 1.561 . S
C2325 C2322 1.526 . S
C2325 C2326 1.396 . S
C2325 C2330 1.390 . S
C2326 C2320 1.465 . S
C2326 C2325 1.396 . S
C2326 C2327 1.399 . S
C2327 H2313 0.929 . S
C2327 C2326 1.399 . S
C2327 C2328 1.385 . S
C2328 H2314 0.931 . S
C2328 C2327 1.385 . S
C2328 C2329 1.389 . S
C2329 C2328 1.389 . S
C2329 C2330 1.387 . S
C2330 H2315 0.930 . S
C2330 C2325 1.390 . S
C2330 C2329 1.387 . S
H2331 C2343 0.930 . S
H2332 C2345 0.930 . S
H2333 C2346 0.930 . S
H2334 C2350 0.959 . S
H2335 C2350 0.959 . S
H2336 C2350 0.961 . S
H2337 C2351 0.960 . S
H2338 C2351 0.961 . S
H2339 C2351 0.959 . S
H2340 C2354 0.929 . S
H2341 C2355 0.931 . S
H2342 C2357 0.930 . S
C2343 H2331 0.930 . S
C2343 C2344 1.399 . S
C2343 C2348 1.399 . S
C2344 C2343 1.399 . S
C2344 C2345 1.376 . S
C2345 H2332 0.930 . S
C2345 C2344 1.376 . S
C2345 C2346 1.388 . S
C2346 H2333 0.930 . S
C2346 C2345 1.388 . S
C2346 C2347 1.390 . S
C2347 C2346 1.390 . S
C2347 C2348 1.394 . S
C2347 C2353 1.465 . S
C2348 C2343 1.399 . S
C2348 C2347 1.394 . S
C2348 C2349 1.516 . S
C2349 C2348 1.516 . S
C2349 C2350 1.502 . S
C2349 C2351 1.561 . S
C2349 C2352 1.526 . S
C2350 H2334 0.959 . S
C2350 H2335 0.959 . S
C2350 H2336 0.961 . S
C2350 C2349 1.502 . S
C2351 H2337 0.960 . S
C2351 H2338 0.961 . S
C2351 H2339 0.959 . S
C2351 C2349 1.561 . S
C2352 C2349 1.526 . S
C2352 C2353 1.396 . S
C2352 C2357 1.390 . S
C2353 C2347 1.465 . S
C2353 C2352 1.396 . S
C2353 C2354 1.399 . S
C2354 H2340 0.929 . S
C2354 C2353 1.399 . S
C2354 C2355 1.385 . S
C2355 H2341 0.931 . S
C2355 C2354 1.385 . S
C2355 C2356 1.389 . S
C2356 C2355 1.389 . S
C2356 C2357 1.387 . S
C2357 H2342 0.930 . S
C2357 C2352 1.390 . S
C2357 C2356 1.387 . S
H2358 C2370 0.930 . S
H2359 C2372 0.930 . S
H2360 C2373 0.930 . S
H2361 C2377 0.959 . S
H2362 C2377 0.959 . S
H2363 C2377 0.961 . S
H2364 C2378 0.960 . S
H2365 C2378 0.961 . S
H2366 C2378 0.959 . S
H2367 C2381 0.929 . S
H2368 C2382 0.931 . S
H2369 C2384 0.930 . S
C2370 H2358 0.930 . S
C2370 C2371 1.399 . S
C2370 C2375 1.399 . S
C2371 C2370 1.399 . S
C2371 C2372 1.376 . S
C2372 H2359 0.930 . S
C2372 C2371 1.376 . S
C2372 C2373 1.388 . S
C2373 H2360 0.930 . S
C2373 C2372 1.388 . S
C2373 C2374 1.390 . S
C2374 C2373 1.390 . S
C2374 C2375 1.394 . S
C2374 C2380 1.465 . S
C2375 C2370 1.399 . S
C2375 C2374 1.394 . S
C2375 C2376 1.516 . S
C2376 C2375 1.516 . S
C2376 C2377 1.502 . S
C2376 C2378 1.561 . S
C2376 C2379 1.526 . S
C2377 H2361 0.959 . S
C2377 H2362 0.959 . S
C2377 H2363 0.961 . S
C2377 C2376 1.502 . S
C2378 H2364 0.960 . S
C2378 H2365 0.961 . S
C2378 H2366 0.959 . S
C2378 C2376 1.561 . S
C2379 C2376 1.526 . S
C2379 C2380 1.396 . S
C2379 C2384 1.390 . S
C2380 C2374 1.465 . S
C2380 C2379 1.396 . S
C2380 C2381 1.399 . S
C2381 H2367 0.929 . S
C2381 C2380 1.399 . S
C2381 C2382 1.385 . S
C2382 H2368 0.931 . S
C2382 C2381 1.385 . S
C2382 C2383 1.389 . S
C2383 C2382 1.389 . S
C2383 C2384 1.387 . S
C2384 H2369 0.930 . S
C2384 C2379 1.390 . S
C2384 C2383 1.387 . S
H2385 C2397 0.930 . S
H2386 C2399 0.930 . S
H2387 C2400 0.930 . S
H2388 C2404 0.959 . S
H2389 C2404 0.959 . S
H2390 C2404 0.961 . S
H2391 C2405 0.960 . S
H2392 C2405 0.961 . S
H2393 C2405 0.959 . S
H2394 C2408 0.929 . S
H2395 C2409 0.931 . S
H2396 C2411 0.930 . S
C2397 H2385 0.930 . S
C2397 C2398 1.399 . S
C2397 C2402 1.399 . S
C2398 C2397 1.399 . S
C2398 C2399 1.376 . S
C2399 H2386 0.930 . S
C2399 C2398 1.376 . S
C2399 C2400 1.388 . S
C2400 H2387 0.930 . S
C2400 C2399 1.388 . S
C2400 C2401 1.390 . S
C2401 C2400 1.390 . S
C2401 C2402 1.394 . S
C2401 C2407 1.465 . S
C2402 C2397 1.399 . S
C2402 C2401 1.394 . S
C2402 C2403 1.516 . S
C2403 C2402 1.516 . S
C2403 C2404 1.502 . S
C2403 C2405 1.561 . S
C2403 C2406 1.526 . S
C2404 H2388 0.959 . S
C2404 H2389 0.959 . S
C2404 H2390 0.961 . S
C2404 C2403 1.502 . S
C2405 H2391 0.960 . S
C2405 H2392 0.961 . S
C2405 H2393 0.959 . S
C2405 C2403 1.561 . S
C2406 C2403 1.526 . S
C2406 C2407 1.396 . S
C2406 C2411 1.390 . S
C2407 C2401 1.465 . S
C2407 C2406 1.396 . S
C2407 C2408 1.399 . S
C2408 H2394 0.929 . S
C2408 C2407 1.399 . S
C2408 C2409 1.385 . S
C2409 H2395 0.931 . S
C2409 C2408 1.385 . S
C2409 C2410 1.389 . S
C2410 C2409 1.389 . S
C2410 C2411 1.387 . S
C2411 H2396 0.930 . S
C2411 C2406 1.390 . S
C2411 C2410 1.387 . S
H2412 C2424 0.930 . S
H2413 C2426 0.930 . S
H2414 C2427 0.930 . S
H2415 C2431 0.959 . S
H2416 C2431 0.959 . S
H2417 C2431 0.961 . S
H2418 C2432 0.933 1_655 S
H2419 C2432 0.953 1_655 S
H2420 C2432 0.938 1_655 S
H2421 C2435 0.929 . S
H2422 C2436 0.931 . S
H2423 C2438 0.930 . S
C2424 H2412 0.930 . S
C2424 C2425 1.399 . S
C2424 C2429 1.399 . S
C2425 C2424 1.399 . S
C2425 C2426 1.376 . S
C2426 H2413 0.930 . S
C2426 C2425 1.376 . S
C2426 C2427 1.388 . S
C2427 H2414 0.930 . S
C2427 C2426 1.388 . S
C2427 C2428 1.390 . S
C2428 C2427 1.390 . S
C2428 C2429 1.394 . S
C2428 C2434 1.465 . S
C2429 C2424 1.399 . S
C2429 C2428 1.394 . S
C2429 C2430 1.516 . S
C2430 C2429 1.516 . S
C2430 C2431 1.502 . S
C2430 C2432 1.607 . S
C2430 C2433 1.526 . S
C2431 H2415 0.959 . S
C2431 H2416 0.959 . S
C2431 H2417 0.961 . S
C2431 C2430 1.502 . S
C2432 H2418 0.933 1_455 S
C2432 H2419 0.953 1_455 S
C2432 H2420 0.938 1_455 S
C2432 C2430 1.607 . S
C2433 C2430 1.526 . S
C2433 C2434 1.396 . S
C2433 C2438 1.390 . S
C2434 C2428 1.465 . S
C2434 C2433 1.396 . S
C2434 C2435 1.399 . S
C2435 H2421 0.929 . S
C2435 C2434 1.399 . S
C2435 C2436 1.385 . S
C2436 H2422 0.931 . S
C2436 C2435 1.385 . S
C2436 C2437 1.389 . S
C2437 C2436 1.389 . S
C2437 C2438 1.387 . S
C2438 H2423 0.930 . S
C2438 C2433 1.390 . S
C2438 C2437 1.387 . S
H2439 C2451 0.930 . S
H2440 C2453 0.930 . S
H2441 C2454 0.930 . S
H2442 C2458 0.959 . S
H2443 C2458 0.959 . S
H2444 C2458 0.961 . S
H2445 C2459 0.960 . S
H2446 C2459 0.961 . S
H2447 C2459 0.959 . S
H2448 C2462 0.929 . S
H2449 C2463 0.931 . S
H2450 C2465 0.930 . S
C2451 H2439 0.930 . S
C2451 C2452 1.399 . S
C2451 C2456 1.399 . S
C2452 C2451 1.399 . S
C2452 C2453 1.376 . S
C2453 H2440 0.930 . S
C2453 C2452 1.376 . S
C2453 C2454 1.388 . S
C2454 H2441 0.930 . S
C2454 C2453 1.388 . S
C2454 C2455 1.390 . S
C2455 C2454 1.390 . S
C2455 C2456 1.394 . S
C2455 C2461 1.465 . S
C2456 C2451 1.399 . S
C2456 C2455 1.394 . S
C2456 C2457 1.516 . S
C2457 C2456 1.516 . S
C2457 C2458 1.502 . S
C2457 C2459 1.561 . S
C2457 C2460 1.526 . S
C2458 H2442 0.959 . S
C2458 H2443 0.959 . S
C2458 H2444 0.961 . S
C2458 C2457 1.502 . S
C2459 H2445 0.960 . S
C2459 H2446 0.961 . S
C2459 H2447 0.959 . S
C2459 C2457 1.561 . S
C2460 C2457 1.526 . S
C2460 C2461 1.396 . S
C2460 C2465 1.390 . S
C2461 C2455 1.465 . S
C2461 C2460 1.396 . S
C2461 C2462 1.399 . S
C2462 H2448 0.929 . S
C2462 C2461 1.399 . S
C2462 C2463 1.385 . S
C2463 H2449 0.931 . S
C2463 C2462 1.385 . S
C2463 C2464 1.389 . S
C2464 C2463 1.389 . S
C2464 C2465 1.387 . S
C2465 H2450 0.930 . S
C2465 C2460 1.390 . S
C2465 C2464 1.387 . S
H2466 C2478 0.930 . S
H2467 C2480 0.930 . S
H2468 C2481 0.930 . S
H2469 C2485 0.959 . S
H2470 C2485 0.959 . S
H2471 C2485 0.961 . S
H2472 C2486 0.960 . S
H2473 C2486 0.961 1_554 S
H2474 C2486 0.959 . S
H2475 C2489 0.929 . S
H2476 C2490 0.931 . S
H2477 C2492 0.930 . S
C2478 H2466 0.930 . S
C2478 C2479 1.399 . S
C2478 C2483 1.399 . S
C2479 C2478 1.399 . S
C2479 C2480 1.376 . S
C2480 H2467 0.930 . S
C2480 C2479 1.376 . S
C2480 C2481 1.388 . S
C2481 H2468 0.930 . S
C2481 C2480 1.388 . S
C2481 C2482 1.390 . S
C2482 C2481 1.390 . S
C2482 C2483 1.394 . S
C2482 C2488 1.465 . S
C2483 C2478 1.399 . S
C2483 C2482 1.394 . S
C2483 C2484 1.516 . S
C2484 C2483 1.516 . S
C2484 C2485 1.502 . S
C2484 C2486 1.561 . S
C2484 C2487 1.526 . S
C2485 H2469 0.959 . S
C2485 H2470 0.959 . S
C2485 H2471 0.961 . S
C2485 C2484 1.502 . S
C2486 H2472 0.960 . S
C2486 H2473 0.961 1_556 S
C2486 H2474 0.959 . S
C2486 C2484 1.561 . S
C2487 C2484 1.526 . S
C2487 C2488 1.396 . S
C2487 C2492 1.390 . S
C2488 C2482 1.465 . S
C2488 C2487 1.396 . S
C2488 C2489 1.399 . S
C2489 H2475 0.929 . S
C2489 C2488 1.399 . S
C2489 C2490 1.385 . S
C2490 H2476 0.931 . S
C2490 C2489 1.385 . S
C2490 C2491 1.389 . S
C2491 C2490 1.389 . S
C2491 C2492 1.387 . S
C2492 H2477 0.930 . S
C2492 C2487 1.390 . S
C2492 C2491 1.387 . S
H2493 C2505 0.930 . S
H2494 C2507 0.930 . S
H2495 C2508 0.930 . S
H2496 C2512 0.959 . S
H2497 C2512 0.959 . S
H2498 C2512 0.961 . S
H2499 C2513 0.960 . S
H2500 C2513 0.961 . S
H2501 C2513 0.959 . S
H2502 C2516 0.929 . S
H2503 C2517 0.931 . S
H2504 C2519 0.930 . S
C2505 H2493 0.930 . S
C2505 C2506 1.399 . S
C2505 C2510 1.399 . S
C2506 C2505 1.399 . S
C2506 C2507 1.376 . S
C2507 H2494 0.930 . S
C2507 C2506 1.376 . S
C2507 C2508 1.388 . S
C2508 H2495 0.930 . S
C2508 C2507 1.388 . S
C2508 C2509 1.390 . S
C2509 C2508 1.390 . S
C2509 C2510 1.394 . S
C2509 C2515 1.465 . S
C2510 C2505 1.399 . S
C2510 C2509 1.394 . S
C2510 C2511 1.516 . S
C2511 C2510 1.516 . S
C2511 C2512 1.502 . S
C2511 C2513 1.561 . S
C2511 C2514 1.526 . S
C2512 H2496 0.959 . S
C2512 H2497 0.959 . S
C2512 H2498 0.961 . S
C2512 C2511 1.502 . S
C2513 H2499 0.960 . S
C2513 H2500 0.961 . S
C2513 H2501 0.959 . S
C2513 C2511 1.561 . S
C2514 C2511 1.526 . S
C2514 C2515 1.396 . S
C2514 C2519 1.390 . S
C2515 C2509 1.465 . S
C2515 C2514 1.396 . S
C2515 C2516 1.399 . S
C2516 H2502 0.929 . S
C2516 C2515 1.399 . S
C2516 C2517 1.385 . S
C2517 H2503 0.931 . S
C2517 C2516 1.385 . S
C2517 C2518 1.389 . S
C2518 C2517 1.389 . S
C2518 C2519 1.387 . S
C2519 H2504 0.930 . S
C2519 C2514 1.390 . S
C2519 C2518 1.387 . S
H2520 C2532 0.930 . S
H2521 C2534 0.930 . S
H2522 C2535 0.960 . S
H2523 C2539 0.959 . S
H2524 C2539 0.959 . S
H2525 C2539 0.961 . S
H2526 C2540 0.960 . S
H2527 C2540 0.961 . S
H2528 C2540 0.959 . S
H2529 C2543 0.929 1_565 S
H2530 C2544 0.931 1_565 S
H2531 C2546 0.930 . S
C2532 H2520 0.930 . S
C2532 C2533 1.399 . S
C2532 C2537 1.399 . S
C2533 C2532 1.399 . S
C2533 C2534 1.376 . S
C2534 H2521 0.930 . S
C2534 C2533 1.376 . S
C2534 C2535 1.388 . S
C2535 H2522 0.960 . S
C2535 C2534 1.388 . S
C2535 C2536 1.390 . S
C2536 C2535 1.390 . S
C2536 C2537 1.394 . S
C2536 C2542 1.465 . S
C2537 C2532 1.399 . S
C2537 C2536 1.394 . S
C2537 C2538 1.516 . S
C2538 C2537 1.516 . S
C2538 C2539 1.502 . S
C2538 C2540 1.561 . S
C2538 C2541 1.526 . S
C2539 H2523 0.959 . S
C2539 H2524 0.959 . S
C2539 H2525 0.961 . S
C2539 C2538 1.502 . S
C2540 H2526 0.960 . S
C2540 H2527 0.961 . S
C2540 H2528 0.959 . S
C2540 C2538 1.561 . S
C2541 C2538 1.526 . S
C2541 C2542 1.396 . S
C2541 C2546 1.390 . S
C2542 C2536 1.465 . S
C2542 C2541 1.396 . S
C2542 C2543 1.399 . S
C2543 H2529 0.929 1_545 S
C2543 C2542 1.399 . S
C2543 C2544 1.385 . S
C2544 H2530 0.931 1_545 S
C2544 C2543 1.385 . S
C2544 C2545 1.389 . S
C2545 C2544 1.389 . S
C2545 C2546 1.387 . S
C2546 H2531 0.930 . S
C2546 C2541 1.390 . S
C2546 C2545 1.387 . S
H2547 C2559 0.930 . S
H2548 C2561 0.930 . S
H2549 C2562 0.930 . S
H2550 C2566 0.959 . S
H2551 C2566 0.959 . S
H2552 C2566 0.961 . S
H2553 C2567 0.960 . S
H2554 C2567 0.961 . S
H2555 C2567 0.959 . S
H2556 C2570 0.929 . S
H2557 C2571 0.931 . S
H2558 C2573 0.930 . S
C2559 H2547 0.930 . S
C2559 C2560 1.399 . S
C2559 C2564 1.399 . S
C2560 C2559 1.399 . S
C2560 C2561 1.376 . S
C2561 H2548 0.930 . S
C2561 C2560 1.376 . S
C2561 C2562 1.388 . S
C2562 H2549 0.930 . S
C2562 C2561 1.388 . S
C2562 C2563 1.390 . S
C2563 C2562 1.390 . S
C2563 C2564 1.394 . S
C2563 C2569 1.465 . S
C2564 C2559 1.399 . S
C2564 C2563 1.394 . S
C2564 C2565 1.516 . S
C2565 C2564 1.516 . S
C2565 C2566 1.502 . S
C2565 C2567 1.561 . S
C2565 C2568 1.526 . S
C2566 H2550 0.959 . S
C2566 H2551 0.959 . S
C2566 H2552 0.961 . S
C2566 C2565 1.502 . S
C2567 H2553 0.960 . S
C2567 H2554 0.961 . S
C2567 H2555 0.959 . S
C2567 C2565 1.561 . S
C2568 C2565 1.526 . S
C2568 C2569 1.396 . S
C2568 C2573 1.390 . S
C2569 C2563 1.465 . S
C2569 C2568 1.396 . S
C2569 C2570 1.399 . S
C2570 H2556 0.929 . S
C2570 C2569 1.399 . S
C2570 C2571 1.385 . S
C2571 H2557 0.931 . S
C2571 C2570 1.385 . S
C2571 C2572 1.389 . S
C2572 C2571 1.389 . S
C2572 C2573 1.387 . S
C2573 H2558 0.930 . S
C2573 C2568 1.390 . S
C2573 C2572 1.387 . S
H2574 C2586 0.930 . S
H2575 C2588 0.930 . S
H2576 C2589 0.930 . S
H2577 C2593 0.959 . S
H2578 C2593 0.959 . S
H2579 C2593 0.961 . S
H2580 C2594 0.960 . S
H2581 C2594 0.961 . S
H2582 C2594 0.959 . S
H2583 C2597 0.929 . S
H2584 C2598 0.931 1_565 S
H2585 C2600 0.930 . S
C2586 H2574 0.930 . S
C2586 C2587 1.399 . S
C2586 C2591 1.399 . S
C2587 C2586 1.399 . S
C2587 C2588 1.376 1_545 S
C2588 H2575 0.930 . S
C2588 C2587 1.376 1_565 S
C2588 C2589 1.388 . S
C2589 H2576 0.930 . S
C2589 C2588 1.388 . S
C2589 C2590 1.390 1_565 S
C2590 C2589 1.390 1_545 S
C2590 C2591 1.394 . S
C2590 C2596 1.465 . S
C2591 C2586 1.399 . S
C2591 C2590 1.394 . S
C2591 C2592 1.516 . S
C2592 C2591 1.516 . S
C2592 C2593 1.502 . S
C2592 C2594 1.561 . S
C2592 C2595 1.526 . S
C2593 H2577 0.959 . S
C2593 H2578 0.959 . S
C2593 H2579 0.961 . S
C2593 C2592 1.502 . S
C2594 H2580 0.960 . S
C2594 H2581 0.961 . S
C2594 H2582 0.959 . S
C2594 C2592 1.561 . S
C2595 C2592 1.526 . S
C2595 C2596 1.396 . S
C2595 C2600 1.390 . S
C2596 C2590 1.465 . S
C2596 C2595 1.396 . S
C2596 C2597 1.399 1_545 S
C2597 H2583 0.929 . S
C2597 C2596 1.399 1_565 S
C2597 C2598 1.385 1_565 S
C2598 H2584 0.931 1_545 S
C2598 C2597 1.385 1_545 S
C2598 C2599 1.389 . S
C2599 C2598 1.389 . S
C2599 C2600 1.387 . S
C2600 H2585 0.930 . S
C2600 C2595 1.390 . S
C2600 C2599 1.387 . S
H2601 C2613 0.930 . S
H2602 C2615 0.930 . S
H2603 C2616 0.930 . S
H2604 C2620 0.959 . S
H2605 C2620 0.959 . S
H2606 C2620 0.961 . S
H2607 C2621 0.960 . S
H2608 C2621 0.961 . S
H2609 C2621 0.959 . S
H2610 C2624 0.929 . S
H2611 C2625 0.931 . S
H2612 C2627 0.930 . S
C2613 H2601 0.930 . S
C2613 C2614 1.399 . S
C2613 C2618 1.399 . S
C2614 C2613 1.399 . S
C2614 C2615 1.376 . S
C2615 H2602 0.930 . S
C2615 C2614 1.376 . S
C2615 C2616 1.388 . S
C2616 H2603 0.930 . S
C2616 C2615 1.388 . S
C2616 C2617 1.390 . S
C2617 C2616 1.390 . S
C2617 C2618 1.394 . S
C2617 C2623 1.465 . S
C2618 C2613 1.399 . S
C2618 C2617 1.394 . S
C2618 C2619 1.516 . S
C2619 C2618 1.516 . S
C2619 C2620 1.502 . S
C2619 C2621 1.561 . S
C2619 C2622 1.526 . S
C2620 H2604 0.959 . S
C2620 H2605 0.959 . S
C2620 H2606 0.961 . S
C2620 C2619 1.502 . S
C2621 H2607 0.960 . S
C2621 H2608 0.961 . S
C2621 H2609 0.959 . S
C2621 C2619 1.561 . S
C2622 C2619 1.526 . S
C2622 C2623 1.396 . S
C2622 C2627 1.390 . S
C2623 C2617 1.465 . S
C2623 C2622 1.396 . S
C2623 C2624 1.399 . S
C2624 H2610 0.929 . S
C2624 C2623 1.399 . S
C2624 C2625 1.385 . S
C2625 H2611 0.931 . S
C2625 C2624 1.385 . S
C2625 C2626 1.389 . S
C2626 C2625 1.389 . S
C2626 C2627 1.387 . S
C2627 H2612 0.930 . S
C2627 C2622 1.390 . S
C2627 C2626 1.387 . S
H2628 C2640 0.930 . S
H2629 C2642 0.930 . S
H2630 C2643 0.930 . S
H2631 C2647 0.959 . S
H2632 C2647 0.959 1_565 S
H2633 C2647 0.961 1_565 S
H2634 C2648 0.960 . S
H2635 C2648 0.961 . S
H2636 C2648 0.959 . S
H2637 C2651 0.929 . S
H2638 C2652 0.931 . S
H2639 C2654 0.930 . S
C2640 H2628 0.930 . S
C2640 C2641 1.399 . S
C2640 C2645 1.399 . S
C2641 C2640 1.399 . S
C2641 C2642 1.376 . S
C2642 H2629 0.930 . S
C2642 C2641 1.376 . S
C2642 C2643 1.388 . S
C2643 H2630 0.930 . S
C2643 C2642 1.388 . S
C2643 C2644 1.390 . S
C2644 C2643 1.390 . S
C2644 C2645 1.394 . S
C2644 C2650 1.465 . S
C2645 C2640 1.399 . S
C2645 C2644 1.394 . S
C2645 C2646 1.516 . S
C2646 C2645 1.516 . S
C2646 C2647 1.502 . S
C2646 C2648 1.561 1_545 S
C2646 C2649 1.526 . S
C2647 H2631 0.959 . S
C2647 H2632 0.959 1_545 S
C2647 H2633 0.961 1_545 S
C2647 C2646 1.502 . S
C2648 H2634 0.960 . S
C2648 H2635 0.961 . S
C2648 H2636 0.959 . S
C2648 C2646 1.561 1_565 S
C2649 C2646 1.526 . S
C2649 C2650 1.396 . S
C2649 C2654 1.390 . S
C2650 C2644 1.465 . S
C2650 C2649 1.396 . S
C2650 C2651 1.399 . S
C2651 H2637 0.929 . S
C2651 C2650 1.399 . S
C2651 C2652 1.385 . S
C2652 H2638 0.931 . S
C2652 C2651 1.385 . S
C2652 C2653 1.389 . S
C2653 C2652 1.389 . S
C2653 C2654 1.387 . S
C2654 H2639 0.930 . S
C2654 C2649 1.390 . S
C2654 C2653 1.387 . S
H2655 C2667 0.930 . S
H2656 C2669 0.930 . S
H2657 C2670 0.930 . S
H2658 C2674 0.959 . S
H2659 C2674 0.959 . S
H2660 C2674 0.961 . S
H2661 C2675 0.960 . S
H2662 C2675 0.961 . S
H2663 C2675 0.959 . S
H2664 C2678 0.929 . S
H2665 C2679 0.931 . S
H2666 C2681 0.930 . S
C2667 H2655 0.930 . S
C2667 C2668 1.399 . S
C2667 C2672 1.399 . S
C2668 C2667 1.399 . S
C2668 C2669 1.376 . S
C2669 H2656 0.930 . S
C2669 C2668 1.376 . S
C2669 C2670 1.388 . S
C2670 H2657 0.930 . S
C2670 C2669 1.388 . S
C2670 C2671 1.390 . S
C2671 C2670 1.390 . S
C2671 C2672 1.394 . S
C2671 C2677 1.465 . S
C2672 C2667 1.399 . S
C2672 C2671 1.394 . S
C2672 C2673 1.516 . S
C2673 C2672 1.516 . S
C2673 C2674 1.502 . S
C2673 C2675 1.561 . S
C2673 C2676 1.526 . S
C2674 H2658 0.959 . S
C2674 H2659 0.959 . S
C2674 H2660 0.961 . S
C2674 C2673 1.502 . S
C2675 H2661 0.960 . S
C2675 H2662 0.961 . S
C2675 H2663 0.959 . S
C2675 C2673 1.561 . S
C2676 C2673 1.526 . S
C2676 C2677 1.396 . S
C2676 C2681 1.390 . S
C2677 C2671 1.465 . S
C2677 C2676 1.396 . S
C2677 C2678 1.399 . S
C2678 H2664 0.929 . S
C2678 C2677 1.399 . S
C2678 C2679 1.385 . S
C2679 H2665 0.931 . S
C2679 C2678 1.385 . S
C2679 C2680 1.389 . S
C2680 C2679 1.389 . S
C2680 C2681 1.387 . S
C2681 H2666 0.930 . S
C2681 C2676 1.390 . S
C2681 C2680 1.387 . S
H2682 C2694 0.930 . S
H2683 C2696 0.930 . S
H2684 C2697 0.930 . S
H2685 C2701 0.959 . S
H2686 C2701 0.959 . S
H2687 C2701 0.961 . S
H2688 C2702 0.960 . S
H2689 C2702 0.961 . S
H2690 C2702 0.959 . S
H2691 C2705 0.929 . S
H2692 C2706 0.931 . S
H2693 C2708 0.930 . S
C2694 H2682 0.930 . S
C2694 C2695 1.399 1_565 S
C2694 C2699 1.399 . S
C2695 C2694 1.399 1_545 S
C2695 C2696 1.376 . S
C2696 H2683 0.930 . S
C2696 C2695 1.376 . S
C2696 C2697 1.388 . S
C2697 H2684 0.930 . S
C2697 C2696 1.388 . S
C2697 C2698 1.390 . S
C2698 C2697 1.390 . S
C2698 C2699 1.394 1_545 S
C2698 C2704 1.465 . S
C2699 C2694 1.399 . S
C2699 C2698 1.394 1_565 S
C2699 C2700 1.516 . S
C2700 C2699 1.516 . S
C2700 C2701 1.502 . S
C2700 C2702 1.561 . S
C2700 C2703 1.526 . S
C2701 H2685 0.959 . S
C2701 H2686 0.959 . S
C2701 H2687 0.961 . S
C2701 C2700 1.502 . S
C2702 H2688 0.960 . S
C2702 H2689 0.961 . S
C2702 H2690 0.959 . S
C2702 C2700 1.561 . S
C2703 C2700 1.526 . S
C2703 C2704 1.396 1_565 S
C2703 C2708 1.390 . S
C2704 C2698 1.465 . S
C2704 C2703 1.396 1_545 S
C2704 C2705 1.399 . S
C2705 H2691 0.929 . S
C2705 C2704 1.399 . S
C2705 C2706 1.385 . S
C2706 H2692 0.931 . S
C2706 C2705 1.385 . S
C2706 C2707 1.389 . S
C2707 C2706 1.389 . S
C2707 C2708 1.387 1_545 S
C2708 H2693 0.930 . S
C2708 C2703 1.390 . S
C2708 C2707 1.387 1_565 S
H2709 C2721 0.930 . S
H2710 C2723 0.930 . S
H2711 C2724 0.930 . S
H2712 C2728 0.959 . S
H2713 C2728 0.959 . S
H2714 C2728 0.961 . S
H2715 C2729 0.960 . S
H2716 C2729 0.961 . S
H2717 C2729 0.959 . S
H2718 C2732 0.929 . S
H2719 C2733 0.931 . S
H2720 C2735 0.930 . S
C2721 H2709 0.930 . S
C2721 C2722 1.399 . S
C2721 C2726 1.399 . S
C2722 C2721 1.399 . S
C2722 C2723 1.376 . S
C2723 H2710 0.930 . S
C2723 C2722 1.376 . S
C2723 C2724 1.388 . S
C2724 H2711 0.930 . S
C2724 C2723 1.388 . S
C2724 C2725 1.390 . S
C2725 C2724 1.390 . S
C2725 C2726 1.394 . S
C2725 C2731 1.465 . S
C2726 C2721 1.399 . S
C2726 C2725 1.394 . S
C2726 C2727 1.516 . S
C2727 C2726 1.516 . S
C2727 C2728 1.502 . S
C2727 C2729 1.561 . S
C2727 C2730 1.526 . S
C2728 H2712 0.959 . S
C2728 H2713 0.959 . S
C2728 H2714 0.961 . S
C2728 C2727 1.502 . S
C2729 H2715 0.960 . S
C2729 H2716 0.961 . S
C2729 H2717 0.959 . S
C2729 C2727 1.561 . S
C2730 C2727 1.526 . S
C2730 C2731 1.396 . S
C2730 C2735 1.390 . S
C2731 C2725 1.465 . S
C2731 C2730 1.396 . S
C2731 C2732 1.399 . S
C2732 H2718 0.929 . S
C2732 C2731 1.399 . S
C2732 C2733 1.385 . S
C2733 H2719 0.931 . S
C2733 C2732 1.385 . S
C2733 C2734 1.389 . S
C2734 C2733 1.389 . S
C2734 C2735 1.387 . S
C2735 H2720 0.930 . S
C2735 C2730 1.390 . S
C2735 C2734 1.387 . S
H2736 C2748 0.930 . S
H2737 C2750 0.930 . S
H2738 C2751 0.930 . S
H2739 C2755 0.959 . S
H2740 C2755 0.959 . S
H2741 C2755 0.961 . S
H2742 C2756 0.960 . S
H2743 C2756 0.961 . S
H2744 C2756 0.959 . S
H2745 C2759 0.929 1_556 S
H2746 C2760 0.931 1_556 S
H2747 C2762 0.930 . S
C2748 H2736 0.930 . S
C2748 C2749 1.399 . S
C2748 C2753 1.399 . S
C2749 C2748 1.399 . S
C2749 C2750 1.376 . S
C2750 H2737 0.930 . S
C2750 C2749 1.376 . S
C2750 C2751 1.388 . S
C2751 H2738 0.930 . S
C2751 C2750 1.388 . S
C2751 C2752 1.390 . S
C2752 C2751 1.390 . S
C2752 C2753 1.394 . S
C2752 C2758 1.465 . S
C2753 C2748 1.399 . S
C2753 C2752 1.394 . S
C2753 C2754 1.516 . S
C2754 C2753 1.516 . S
C2754 C2755 1.502 . S
C2754 C2756 1.561 . S
C2754 C2757 1.526 . S
C2755 H2739 0.959 . S
C2755 H2740 0.959 . S
C2755 H2741 0.961 . S
C2755 C2754 1.502 . S
C2756 H2742 0.960 . S
C2756 H2743 0.961 . S
C2756 H2744 0.959 . S
C2756 C2754 1.561 . S
C2757 C2754 1.526 . S
C2757 C2758 1.396 . S
C2757 C2762 1.390 . S
C2758 C2752 1.465 . S
C2758 C2757 1.396 . S
C2758 C2759 1.399 . S
C2759 H2745 0.929 1_554 S
C2759 C2758 1.399 . S
C2759 C2760 1.385 . S
C2760 H2746 0.931 1_554 S
C2760 C2759 1.385 . S
C2760 C2761 1.389 . S
C2761 C2760 1.389 . S
C2761 C2762 1.387 . S
C2762 H2747 0.930 . S
C2762 C2757 1.390 . S
C2762 C2761 1.387 . S
H2763 C2775 0.930 . S
H2764 C2777 0.930 . S
H2765 C2778 0.930 . S
H2766 C2782 0.959 . S
H2767 C2782 0.959 . S
H2768 C2782 0.961 . S
H2769 C2783 0.960 . S
H2770 C2783 0.961 . S
H2771 C2783 0.959 . S
H2772 C2786 0.929 1_556 S
H2773 C2787 0.931 . S
H2774 C2789 0.930 . S
C2775 H2763 0.930 . S
C2775 C2776 1.399 . S
C2775 C2780 1.399 . S
C2776 C2775 1.399 . S
C2776 C2777 1.376 . S
C2777 H2764 0.930 . S
C2777 C2776 1.376 . S
C2777 C2778 1.388 . S
C2778 H2765 0.930 . S
C2778 C2777 1.388 . S
C2778 C2779 1.390 . S
C2779 C2778 1.390 . S
C2779 C2780 1.394 . S
C2779 C2785 1.465 . S
C2780 C2775 1.399 . S
C2780 C2779 1.394 . S
C2780 C2781 1.516 . S
C2781 C2780 1.516 . S
C2781 C2782 1.502 . S
C2781 C2783 1.561 . S
C2781 C2784 1.526 . S
C2782 H2766 0.959 . S
C2782 H2767 0.959 . S
C2782 H2768 0.961 . S
C2782 C2781 1.502 . S
C2783 H2769 0.960 . S
C2783 H2770 0.961 . S
C2783 H2771 0.959 . S
C2783 C2781 1.561 . S
C2784 C2781 1.526 . S
C2784 C2785 1.396 . S
C2784 C2789 1.390 . S
C2785 C2779 1.465 . S
C2785 C2784 1.396 . S
C2785 C2786 1.399 . S
C2786 H2772 0.929 1_554 S
C2786 C2785 1.399 . S
C2786 C2787 1.385 . S
C2787 H2773 0.931 . S
C2787 C2786 1.385 . S
C2787 C2788 1.389 . S
C2788 C2787 1.389 . S
C2788 C2789 1.387 . S
C2789 H2774 0.930 . S
C2789 C2784 1.390 . S
C2789 C2788 1.387 . S
H2790 C2802 0.930 . S
H2791 C2804 0.930 . S
H2792 C2805 0.930 . S
H2793 C2809 0.959 . S
H2794 C2809 0.959 . S
H2795 C2809 0.961 . S
H2796 C2810 0.960 . S
H2797 C2810 0.961 . S
H2798 C2810 0.959 . S
H2799 C2813 0.929 . S
H2800 C2814 0.931 . S
H2801 C2816 0.930 . S
C2802 H2790 0.930 . S
C2802 C2803 1.399 . S
C2802 C2807 1.399 . S
C2803 C2802 1.399 . S
C2803 C2804 1.376 . S
C2804 H2791 0.930 . S
C2804 C2803 1.376 . S
C2804 C2805 1.388 . S
C2805 H2792 0.930 . S
C2805 C2804 1.388 . S
C2805 C2806 1.390 . S
C2806 C2805 1.390 . S
C2806 C2807 1.394 . S
C2806 C2812 1.465 . S
C2807 C2802 1.399 . S
C2807 C2806 1.394 . S
C2807 C2808 1.516 . S
C2808 C2807 1.516 . S
C2808 C2809 1.502 . S
C2808 C2810 1.561 . S
C2808 C2811 1.526 . S
C2809 H2793 0.959 . S
C2809 H2794 0.959 . S
C2809 H2795 0.961 . S
C2809 C2808 1.502 . S
C2810 H2796 0.960 . S
C2810 H2797 0.961 . S
C2810 H2798 0.959 . S
C2810 C2808 1.561 . S
C2811 C2808 1.526 . S
C2811 C2812 1.396 . S
C2811 C2816 1.390 . S
C2812 C2806 1.465 . S
C2812 C2811 1.396 . S
C2812 C2813 1.399 . S
C2813 H2799 0.929 . S
C2813 C2812 1.399 . S
C2813 C2814 1.385 . S
C2814 H2800 0.931 . S
C2814 C2813 1.385 . S
C2814 C2815 1.389 . S
C2815 C2814 1.389 . S
C2815 C2816 1.387 . S
C2816 H2801 0.930 . S
C2816 C2811 1.390 . S
C2816 C2815 1.387 . S
H2817 C2829 0.930 . S
H2818 C2831 0.930 . S
H2819 C2832 0.930 . S
H2820 C2836 0.959 . S
H2821 C2836 0.959 . S
H2822 C2836 0.961 . S
H2823 C2837 0.960 . S
H2824 C2837 0.961 . S
H2825 C2837 0.959 . S
H2826 C2840 0.929 . S
H2827 C2841 0.931 . S
H2828 C2843 0.930 . S
C2829 H2817 0.930 . S
C2829 C2830 1.399 . S
C2829 C2834 1.399 . S
C2830 C2829 1.399 . S
C2830 C2831 1.376 . S
C2831 H2818 0.930 . S
C2831 C2830 1.376 . S
C2831 C2832 1.388 . S
C2832 H2819 0.930 . S
C2832 C2831 1.388 . S
C2832 C2833 1.390 . S
C2833 C2832 1.390 . S
C2833 C2834 1.394 . S
C2833 C2839 1.465 . S
C2834 C2829 1.399 . S
C2834 C2833 1.394 . S
C2834 C2835 1.516 . S
C2835 C2834 1.516 . S
C2835 C2836 1.502 . S
C2835 C2837 1.561 . S
C2835 C2838 1.526 . S
C2836 H2820 0.959 . S
C2836 H2821 0.959 . S
C2836 H2822 0.961 . S
C2836 C2835 1.502 . S
C2837 H2823 0.960 . S
C2837 H2824 0.961 . S
C2837 H2825 0.959 . S
C2837 C2835 1.561 . S
C2838 C2835 1.526 . S
C2838 C2839 1.396 . S
C2838 C2843 1.390 . S
C2839 C2833 1.465 . S
C2839 C2838 1.396 . S
C2839 C2840 1.399 . S
C2840 H2826 0.929 . S
C2840 C2839 1.399 . S
C2840 C2841 1.385 . S
C2841 H2827 0.931 . S
C2841 C2840 1.385 . S
C2841 C2842 1.389 . S
C2842 C2841 1.389 . S
C2842 C2843 1.387 . S
C2843 H2828 0.930 . S
C2843 C2838 1.390 . S
C2843 C2842 1.387 . S
H2844 C2856 0.930 . S
H2845 C2858 0.930 . S
H2846 C2859 0.930 . S
H2847 C2863 0.959 . S
H2848 C2863 0.959 . S
H2849 C2863 0.961 1_545 S
H2850 C2864 0.960 1_545 S
H2851 C2864 0.961 . S
H2852 C2864 0.959 . S
H2853 C2867 0.929 . S
H2854 C2868 0.931 . S
H2855 C2870 0.930 . S
C2856 H2844 0.930 . S
C2856 C2857 1.399 . S
C2856 C2861 1.399 1_545 S
C2857 C2856 1.399 . S
C2857 C2858 1.376 1_545 S
C2858 H2845 0.930 . S
C2858 C2857 1.376 1_565 S
C2858 C2859 1.388 . S
C2859 H2846 0.930 . S
C2859 C2858 1.388 . S
C2859 C2860 1.390 . S
C2860 C2859 1.390 . S
C2860 C2861 1.394 . S
C2860 C2866 1.465 . S
C2861 C2856 1.399 1_565 S
C2861 C2860 1.394 . S
C2861 C2862 1.516 . S
C2862 C2861 1.516 . S
C2862 C2863 1.502 . S
C2862 C2864 1.561 . S
C2862 C2865 1.526 . S
C2863 H2847 0.959 . S
C2863 H2848 0.959 . S
C2863 H2849 0.961 1_565 S
C2863 C2862 1.502 . S
C2864 H2850 0.960 1_565 S
C2864 H2851 0.961 . S
C2864 H2852 0.959 . S
C2864 C2862 1.561 . S
C2865 C2862 1.526 . S
C2865 C2866 1.396 . S
C2865 C2870 1.390 . S
C2866 C2860 1.465 . S
C2866 C2865 1.396 . S
C2866 C2867 1.399 . S
C2867 H2853 0.929 . S
C2867 C2866 1.399 . S
C2867 C2868 1.385 . S
C2868 H2854 0.931 . S
C2868 C2867 1.385 . S
C2868 C2869 1.389 . S
C2869 C2868 1.389 . S
C2869 C2870 1.387 . S
C2870 H2855 0.930 . S
C2870 C2865 1.390 . S
C2870 C2869 1.387 . S
H2871 C2883 0.930 . S
H2872 C2885 0.930 . S
H2873 C2886 0.930 . S
H2874 C2890 0.959 . S
H2875 C2890 0.959 . S
H2876 C2890 0.961 . S
H2877 C2891 0.960 . S
H2878 C2891 0.961 . S
H2879 C2891 0.959 . S
H2880 C2894 0.929 . S
H2881 C2895 0.931 . S
H2882 C2897 0.930 . S
C2883 H2871 0.930 . S
C2883 C2884 1.399 . S
C2883 C2888 1.399 . S
C2884 C2883 1.399 . S
C2884 C2885 1.376 . S
C2885 H2872 0.930 . S
C2885 C2884 1.376 . S
C2885 C2886 1.388 . S
C2886 H2873 0.930 . S
C2886 C2885 1.388 . S
C2886 C2887 1.390 . S
C2887 C2886 1.390 . S
C2887 C2888 1.394 . S
C2887 C2893 1.465 . S
C2888 C2883 1.399 . S
C2888 C2887 1.394 . S
C2888 C2889 1.516 . S
C2889 C2888 1.516 . S
C2889 C2890 1.502 . S
C2889 C2891 1.561 . S
C2889 C2892 1.526 . S
C2890 H2874 0.959 . S
C2890 H2875 0.959 . S
C2890 H2876 0.961 . S
C2890 C2889 1.502 . S
C2891 H2877 0.960 . S
C2891 H2878 0.961 . S
C2891 H2879 0.959 . S
C2891 C2889 1.561 . S
C2892 C2889 1.526 . S
C2892 C2893 1.396 . S
C2892 C2897 1.390 . S
C2893 C2887 1.465 . S
C2893 C2892 1.396 . S
C2893 C2894 1.399 . S
C2894 H2880 0.929 . S
C2894 C2893 1.399 . S
C2894 C2895 1.385 . S
C2895 H2881 0.931 . S
C2895 C2894 1.385 . S
C2895 C2896 1.389 . S
C2896 C2895 1.389 . S
C2896 C2897 1.387 . S
C2897 H2882 0.930 . S
C2897 C2892 1.390 . S
C2897 C2896 1.387 . S
H2898 C2910 0.930 . S
H2899 C2912 0.930 . S
H2900 C2913 0.930 . S
H2901 C2917 0.959 . S
H2902 C2917 0.959 . S
H2903 C2917 0.961 . S
H2904 C2918 0.960 . S
H2905 C2918 0.961 . S
H2906 C2918 0.959 . S
H2907 C2921 0.929 . S
H2908 C2922 0.931 . S
H2909 C2924 0.930 . S
C2910 H2898 0.930 . S
C2910 C2911 1.399 . S
C2910 C2915 1.399 . S
C2911 C2910 1.399 . S
C2911 C2912 1.376 . S
C2912 H2899 0.930 . S
C2912 C2911 1.376 . S
C2912 C2913 1.388 . S
C2913 H2900 0.930 . S
C2913 C2912 1.388 . S
C2913 C2914 1.390 . S
C2914 C2913 1.390 . S
C2914 C2915 1.394 . S
C2914 C2920 1.465 . S
C2915 C2910 1.399 . S
C2915 C2914 1.394 . S
C2915 C2916 1.516 . S
C2916 C2915 1.516 . S
C2916 C2917 1.502 . S
C2916 C2918 1.561 . S
C2916 C2919 1.526 . S
C2917 H2901 0.959 . S
C2917 H2902 0.959 . S
C2917 H2903 0.961 . S
C2917 C2916 1.502 . S
C2918 H2904 0.960 . S
C2918 H2905 0.961 . S
C2918 H2906 0.959 . S
C2918 C2916 1.561 . S
C2919 C2916 1.526 . S
C2919 C2920 1.396 . S
C2919 C2924 1.390 . S
C2920 C2914 1.465 . S
C2920 C2919 1.396 . S
C2920 C2921 1.399 . S
C2921 H2907 0.929 . S
C2921 C2920 1.399 . S
C2921 C2922 1.385 . S
C2922 H2908 0.931 . S
C2922 C2921 1.385 . S
C2922 C2923 1.389 . S
C2923 C2922 1.389 . S
C2923 C2924 1.387 . S
C2924 H2909 0.930 . S
C2924 C2919 1.390 . S
C2924 C2923 1.387 . S
H2925 C2937 0.930 . S
H2926 C2939 0.930 . S
H2927 C2940 0.930 . S
H2928 C2944 0.959 . S
H2929 C2944 0.959 . S
H2930 C2944 0.961 . S
H2931 C2945 0.960 . S
H2932 C2945 0.961 . S
H2933 C2945 0.959 . S
H2934 C2948 0.929 . S
H2935 C2949 0.931 . S
H2936 C2951 0.930 . S
C2937 H2925 0.930 . S
C2937 C2938 1.399 . S
C2937 C2942 1.399 . S
C2938 C2937 1.399 . S
C2938 C2939 1.376 . S
C2939 H2926 0.930 . S
C2939 C2938 1.376 . S
C2939 C2940 1.388 . S
C2940 H2927 0.930 . S
C2940 C2939 1.388 . S
C2940 C2941 1.390 . S
C2941 C2940 1.390 . S
C2941 C2942 1.394 . S
C2941 C2947 1.465 . S
C2942 C2937 1.399 . S
C2942 C2941 1.394 . S
C2942 C2943 1.516 . S
C2943 C2942 1.516 . S
C2943 C2944 1.502 . S
C2943 C2945 1.561 . S
C2943 C2946 1.526 . S
C2944 H2928 0.959 . S
C2944 H2929 0.959 . S
C2944 H2930 0.961 . S
C2944 C2943 1.502 . S
C2945 H2931 0.960 . S
C2945 H2932 0.961 . S
C2945 H2933 0.959 . S
C2945 C2943 1.561 . S
C2946 C2943 1.526 . S
C2946 C2947 1.396 . S
C2946 C2951 1.390 . S
C2947 C2941 1.465 . S
C2947 C2946 1.396 . S
C2947 C2948 1.399 . S
C2948 H2934 0.929 . S
C2948 C2947 1.399 . S
C2948 C2949 1.385 . S
C2949 H2935 0.931 . S
C2949 C2948 1.385 . S
C2949 C2950 1.389 . S
C2950 C2949 1.389 . S
C2950 C2951 1.387 . S
C2951 H2936 0.930 . S
C2951 C2946 1.390 . S
C2951 C2950 1.387 . S
H2952 C2964 0.930 . S
H2953 C2966 0.930 . S
H2954 C2967 0.930 . S
H2955 C2971 0.959 . S
H2956 C2971 0.959 . S
H2957 C2971 0.961 . S
H2958 C2972 0.960 . S
H2959 C2972 0.961 . S
H2960 C2972 0.959 . S
H2961 C2975 0.929 . S
H2962 C2976 0.931 . S
H2963 C2978 0.930 . S
C2964 H2952 0.930 . S
C2964 C2965 1.399 . S
C2964 C2969 1.399 . S
C2965 C2964 1.399 . S
C2965 C2966 1.376 . S
C2966 H2953 0.930 . S
C2966 C2965 1.376 . S
C2966 C2967 1.388 . S
C2967 H2954 0.930 . S
C2967 C2966 1.388 . S
C2967 C2968 1.390 . S
C2968 C2967 1.390 . S
C2968 C2969 1.394 . S
C2968 C2974 1.465 . S
C2969 C2964 1.399 . S
C2969 C2968 1.394 . S
C2969 C2970 1.516 . S
C2970 C2969 1.516 . S
C2970 C2971 1.502 . S
C2970 C2972 1.561 . S
C2970 C2973 1.526 . S
C2971 H2955 0.959 . S
C2971 H2956 0.959 . S
C2971 H2957 0.961 . S
C2971 C2970 1.502 . S
C2972 H2958 0.960 . S
C2972 H2959 0.961 . S
C2972 H2960 0.959 . S
C2972 C2970 1.561 . S
C2973 C2970 1.526 . S
C2973 C2974 1.396 . S
C2973 C2978 1.390 . S
C2974 C2968 1.465 . S
C2974 C2973 1.396 . S
C2974 C2975 1.399 . S
C2975 H2961 0.929 . S
C2975 C2974 1.399 . S
C2975 C2976 1.385 . S
C2976 H2962 0.931 . S
C2976 C2975 1.385 . S
C2976 C2977 1.389 . S
C2977 C2976 1.389 . S
C2977 C2978 1.387 . S
C2978 H2963 0.930 . S
C2978 C2973 1.390 . S
C2978 C2977 1.387 . S
H2979 C2991 0.930 . S
H2980 C2993 0.930 . S
H2981 C2994 0.930 . S
H2982 C2998 0.959 . S
H2983 C2998 0.959 . S
H2984 C2998 0.961 . S
H2985 C2999 0.960 . S
H2986 C2999 0.961 . S
H2987 C2999 0.959 . S
H2988 C3002 0.929 . S
H2989 C3003 0.931 . S
H2990 C3005 0.930 . S
C2991 H2979 0.930 . S
C2991 C2992 1.399 . S
C2991 C2996 1.399 . S
C2992 C2991 1.399 . S
C2992 C2993 1.376 . S
C2993 H2980 0.930 . S
C2993 C2992 1.376 . S
C2993 C2994 1.388 . S
C2994 H2981 0.930 . S
C2994 C2993 1.388 . S
C2994 C2995 1.390 . S
C2995 C2994 1.390 . S
C2995 C2996 1.394 . S
C2995 C3001 1.465 . S
C2996 C2991 1.399 . S
C2996 C2995 1.394 . S
C2996 C2997 1.516 . S
C2997 C2996 1.516 . S
C2997 C2998 1.502 . S
C2997 C2999 1.561 . S
C2997 C3000 1.526 . S
C2998 H2982 0.959 . S
C2998 H2983 0.959 . S
C2998 H2984 0.961 . S
C2998 C2997 1.502 . S
C2999 H2985 0.960 . S
C2999 H2986 0.961 . S
C2999 H2987 0.959 . S
C2999 C2997 1.561 . S
C3000 C2997 1.526 . S
C3000 C3001 1.396 . S
C3000 C3005 1.390 . S
C3001 C2995 1.465 . S
C3001 C3000 1.396 . S
C3001 C3002 1.399 . S
C3002 H2988 0.929 . S
C3002 C3001 1.399 . S
C3002 C3003 1.385 . S
C3003 H2989 0.931 . S
C3003 C3002 1.385 . S
C3003 C3004 1.389 . S
C3004 C3003 1.389 . S
C3004 C3005 1.387 . S
C3005 H2990 0.930 . S
C3005 C3000 1.390 . S
C3005 C3004 1.387 . S
H3006 C3018 0.930 . S
H3007 C3020 0.930 1_655 S
H3008 C3021 0.930 1_655 S
H3009 C3025 0.959 . S
H3010 C3025 0.959 . S
H3011 C3025 0.961 . S
H3012 C3026 0.960 . S
H3013 C3026 0.961 . S
H3014 C3026 0.959 1_655 S
H3015 C3029 0.929 . S
H3016 C3030 0.931 . S
H3017 C3032 0.930 . S
C3018 H3006 0.930 . S
C3018 C3019 1.399 . S
C3018 C3023 1.399 . S
C3019 C3018 1.399 . S
C3019 C3020 1.376 1_556 S
C3020 H3007 0.930 1_455 S
C3020 C3019 1.376 1_554 S
C3020 C3021 1.388 . S
C3021 H3008 0.930 1_455 S
C3021 C3020 1.388 . S
C3021 C3022 1.390 . S
C3022 C3021 1.390 . S
C3022 C3023 1.394 1_554 S
C3022 C3028 1.465 . S
C3023 C3018 1.399 . S
C3023 C3022 1.394 1_556 S
C3023 C3024 1.516 . S
C3024 C3023 1.516 . S
C3024 C3025 1.502 . S
C3024 C3026 1.561 . S
C3024 C3027 1.526 . S
C3025 H3009 0.959 . S
C3025 H3010 0.959 . S
C3025 H3011 0.961 . S
C3025 C3024 1.502 . S
C3026 H3012 0.960 . S
C3026 H3013 0.961 . S
C3026 H3014 0.959 1_455 S
C3026 C3024 1.561 . S
C3027 C3024 1.526 . S
C3027 C3028 1.396 1_556 S
C3027 C3032 1.390 . S
C3028 C3022 1.465 . S
C3028 C3027 1.396 1_554 S
C3028 C3029 1.399 . S
C3029 H3015 0.929 . S
C3029 C3028 1.399 . S
C3029 C3030 1.385 . S
C3030 H3016 0.931 . S
C3030 C3029 1.385 . S
C3030 C3031 1.389 . S
C3031 C3030 1.389 . S
C3031 C3032 1.387 1_554 S
C3032 H3017 0.930 . S
C3032 C3027 1.390 . S
C3032 C3031 1.387 1_556 S
H3033 C3045 0.930 . S
H3034 C3047 0.930 . S
H3035 C3048 0.930 . S
H3036 C3052 0.959 . S
H3037 C3052 0.959 . S
H3038 C3052 0.961 . S
H3039 C3053 0.960 . S
H3040 C3053 0.961 . S
H3041 C3053 0.959 . S
H3042 C3056 0.929 . S
H3043 C3057 0.931 . S
H3044 C3059 0.930 . S
C3045 H3033 0.930 . S
C3045 C3046 1.417 . S
C3045 C3050 1.399 . S
C3046 C3045 1.417 . S
C3046 C3047 1.381 1_655 S
C3047 H3034 0.930 . S
C3047 C3046 1.381 1_455 S
C3047 C3048 1.388 1_455 S
C3048 H3035 0.930 . S
C3048 C3047 1.388 1_655 S
C3048 C3049 1.390 . S
C3049 C3048 1.390 . S
C3049 C3050 1.394 . S
C3049 C3055 1.465 . S
C3050 C3045 1.399 . S
C3050 C3049 1.394 . S
C3050 C3051 1.516 . S
C3051 C3050 1.516 . S
C3051 C3052 1.502 . S
C3051 C3053 1.561 . S
C3051 C3054 1.526 . S
C3052 H3036 0.959 . S
C3052 H3037 0.959 . S
C3052 H3038 0.961 . S
C3052 C3051 1.502 . S
C3053 H3039 0.960 . S
C3053 H3040 0.961 . S
C3053 H3041 0.959 . S
C3053 C3051 1.561 . S
C3054 C3051 1.526 . S
C3054 C3055 1.396 . S
C3054 C3059 1.390 . S
C3055 C3049 1.465 . S
C3055 C3054 1.396 . S
C3055 C3056 1.399 . S
C3056 H3042 0.929 . S
C3056 C3055 1.399 . S
C3056 C3057 1.385 . S
C3057 H3043 0.931 . S
C3057 C3056 1.385 . S
C3057 C3058 1.389 . S
C3058 C3057 1.389 . S
C3058 C3059 1.387 . S
C3059 H3044 0.930 . S
C3059 C3054 1.390 . S
C3059 C3058 1.387 . S
H3060 C3072 0.930 . S
H3061 C3074 0.930 . S
H3062 C3075 0.930 . S
H3063 C3079 0.959 . S
H3064 C3079 0.959 . S
H3065 C3079 0.961 . S
H3066 C3080 0.960 . S
H3067 C3080 0.961 . S
H3068 C3080 0.959 . S
H3069 C3083 0.929 . S
H3070 C3084 0.931 . S
H3071 C3086 0.930 . S
C3072 H3060 0.930 . S
C3072 C3073 1.399 . S
C3072 C3077 1.399 . S
C3073 C3072 1.399 . S
C3073 C3074 1.376 . S
C3074 H3061 0.930 . S
C3074 C3073 1.376 . S
C3074 C3075 1.388 . S
C3075 H3062 0.930 . S
C3075 C3074 1.388 . S
C3075 C3076 1.390 . S
C3076 C3075 1.390 . S
C3076 C3077 1.394 . S
C3076 C3082 1.465 . S
C3077 C3072 1.399 . S
C3077 C3076 1.394 . S
C3077 C3078 1.516 . S
C3078 C3077 1.516 . S
C3078 C3079 1.502 . S
C3078 C3080 1.561 . S
C3078 C3081 1.526 . S
C3079 H3063 0.959 . S
C3079 H3064 0.959 . S
C3079 H3065 0.961 . S
C3079 C3078 1.502 . S
C3080 H3066 0.960 . S
C3080 H3067 0.961 . S
C3080 H3068 0.959 . S
C3080 C3078 1.561 . S
C3081 C3078 1.526 . S
C3081 C3082 1.396 . S
C3081 C3086 1.390 . S
C3082 C3076 1.465 . S
C3082 C3081 1.396 . S
C3082 C3083 1.399 . S
C3083 H3069 0.929 . S
C3083 C3082 1.399 . S
C3083 C3084 1.385 . S
C3084 H3070 0.931 . S
C3084 C3083 1.385 . S
C3084 C3085 1.389 . S
C3085 C3084 1.389 . S
C3085 C3086 1.387 . S
C3086 H3071 0.930 . S
C3086 C3081 1.390 . S
C3086 C3085 1.387 . S
H3087 C3099 0.930 . S
H3088 C3101 0.930 . S
H3089 C3102 0.930 . S
H3090 C3106 0.959 . S
H3091 C3106 0.959 . S
H3092 C3106 0.961 . S
H3093 C3107 0.960 . S
H3094 C3107 0.961 . S
H3095 C3107 0.959 . S
H3096 C3110 0.929 . S
H3097 C3111 0.931 . S
H3098 C3113 0.930 . S
C3099 H3087 0.930 . S
C3099 C3100 1.399 . S
C3099 C3104 1.399 . S
C3100 C3099 1.399 . S
C3100 C3101 1.376 . S
C3101 H3088 0.930 . S
C3101 C3100 1.376 . S
C3101 C3102 1.388 . S
C3102 H3089 0.930 . S
C3102 C3101 1.388 . S
C3102 C3103 1.390 . S
C3103 C3102 1.390 . S
C3103 C3104 1.394 . S
C3103 C3109 1.465 . S
C3104 C3099 1.399 . S
C3104 C3103 1.394 . S
C3104 C3105 1.516 . S
C3105 C3104 1.516 . S
C3105 C3106 1.502 . S
C3105 C3107 1.561 . S
C3105 C3108 1.526 . S
C3106 H3090 0.959 . S
C3106 H3091 0.959 . S
C3106 H3092 0.961 . S
C3106 C3105 1.502 . S
C3107 H3093 0.960 . S
C3107 H3094 0.961 . S
C3107 H3095 0.959 . S
C3107 C3105 1.561 . S
C3108 C3105 1.526 . S
C3108 C3109 1.396 . S
C3108 C3113 1.390 . S
C3109 C3103 1.465 . S
C3109 C3108 1.396 . S
C3109 C3110 1.399 . S
C3110 H3096 0.929 . S
C3110 C3109 1.399 . S
C3110 C3111 1.385 . S
C3111 H3097 0.931 . S
C3111 C3110 1.385 . S
C3111 C3112 1.389 . S
C3112 C3111 1.389 . S
C3112 C3113 1.387 . S
C3113 H3098 0.930 . S
C3113 C3108 1.390 . S
C3113 C3112 1.387 . S
H3114 C3126 0.930 . S
H3115 C3128 0.944 . S
H3116 C3129 0.934 . S
H3117 C3133 0.959 . S
H3118 C3133 0.959 . S
H3119 C3133 0.961 . S
H3120 C3134 0.960 . S
H3121 C3134 0.961 . S
H3122 C3134 0.959 1_655 S
H3123 C3137 0.929 . S
H3124 C3138 0.931 . S
H3125 C3140 0.930 . S
C3126 H3114 0.930 . S
C3126 C3127 1.399 . S
C3126 C3131 1.399 . S
C3127 C3126 1.399 . S
C3127 C3128 1.376 . S
C3128 H3115 0.944 . S
C3128 C3127 1.376 . S
C3128 C3129 1.388 . S
C3129 H3116 0.934 . S
C3129 C3128 1.388 . S
C3129 C3130 1.390 . S
C3130 C3129 1.390 . S
C3130 C3131 1.394 . S
C3130 C3136 1.465 . S
C3131 C3126 1.399 . S
C3131 C3130 1.394 . S
C3131 C3132 1.516 . S
C3132 C3131 1.516 . S
C3132 C3133 1.502 . S
C3132 C3134 1.561 . S
C3132 C3135 1.526 . S
C3133 H3117 0.959 . S
C3133 H3118 0.959 . S
C3133 H3119 0.961 . S
C3133 C3132 1.502 . S
C3134 H3120 0.960 . S
C3134 H3121 0.961 . S
C3134 H3122 0.959 1_455 S
C3134 C3132 1.561 . S
C3135 C3132 1.526 . S
C3135 C3136 1.396 . S
C3135 C3140 1.390 . S
C3136 C3130 1.465 . S
C3136 C3135 1.396 . S
C3136 C3137 1.399 . S
C3137 H3123 0.929 . S
C3137 C3136 1.399 . S
C3137 C3138 1.385 . S
C3138 H3124 0.931 . S
C3138 C3137 1.385 . S
C3138 C3139 1.389 . S
C3139 C3138 1.389 . S
C3139 C3140 1.387 . S
C3140 H3125 0.930 . S
C3140 C3135 1.390 . S
C3140 C3139 1.387 . S
H3141 C3153 0.930 . S
H3142 C3155 0.930 . S
H3143 C3156 0.930 . S
H3144 C3160 0.959 . S
H3145 C3160 0.959 . S
H3146 C3160 0.961 . S
H3147 C3161 0.960 . S
H3148 C3161 0.961 . S
H3149 C3161 0.959 . S
H3150 C3164 0.929 . S
H3151 C3165 0.931 . S
H3152 C3167 0.930 . S
C3153 H3141 0.930 . S
C3153 C3154 1.399 . S
C3153 C3158 1.399 . S
C3154 C3153 1.399 . S
C3154 C3155 1.376 . S
C3155 H3142 0.930 . S
C3155 C3154 1.376 . S
C3155 C3156 1.388 . S
C3156 H3143 0.930 . S
C3156 C3155 1.388 . S
C3156 C3157 1.390 . S
C3157 C3156 1.390 . S
C3157 C3158 1.394 . S
C3157 C3163 1.465 . S
C3158 C3153 1.399 . S
C3158 C3157 1.394 . S
C3158 C3159 1.516 . S
C3159 C3158 1.516 . S
C3159 C3160 1.502 . S
C3159 C3161 1.561 . S
C3159 C3162 1.526 . S
C3160 H3144 0.959 . S
C3160 H3145 0.959 . S
C3160 H3146 0.961 . S
C3160 C3159 1.502 . S
C3161 H3147 0.960 . S
C3161 H3148 0.961 . S
C3161 H3149 0.959 . S
C3161 C3159 1.561 . S
C3162 C3159 1.526 . S
C3162 C3163 1.396 . S
C3162 C3167 1.390 . S
C3163 C3157 1.465 . S
C3163 C3162 1.396 . S
C3163 C3164 1.399 . S
C3164 H3150 0.929 . S
C3164 C3163 1.399 . S
C3164 C3165 1.385 . S
C3165 H3151 0.931 . S
C3165 C3164 1.385 . S
C3165 C3166 1.389 . S
C3166 C3165 1.389 . S
C3166 C3167 1.387 . S
C3167 H3152 0.930 . S
C3167 C3162 1.390 . S
C3167 C3166 1.387 . S
H3168 C3180 0.930 . S
H3169 C3182 0.930 . S
H3170 C3183 0.930 . S
H3171 C3187 0.959 . S
H3172 C3187 0.959 . S
H3173 C3187 0.961 . S
H3174 C3188 0.960 . S
H3175 C3188 0.961 . S
H3176 C3188 0.959 . S
H3177 C3191 0.929 . S
H3178 C3192 0.931 . S
H3179 C3194 0.930 . S
C3180 H3168 0.930 . S
C3180 C3181 1.399 . S
C3180 C3185 1.399 . S
C3181 C3180 1.399 . S
C3181 C3182 1.376 . S
C3182 H3169 0.930 . S
C3182 C3181 1.376 . S
C3182 C3183 1.388 . S
C3183 H3170 0.930 . S
C3183 C3182 1.388 . S
C3183 C3184 1.390 . S
C3184 C3183 1.390 . S
C3184 C3185 1.394 . S
C3184 C3190 1.465 . S
C3185 C3180 1.399 . S
C3185 C3184 1.394 . S
C3185 C3186 1.516 . S
C3186 C3185 1.516 . S
C3186 C3187 1.502 . S
C3186 C3188 1.561 . S
C3186 C3189 1.526 . S
C3187 H3171 0.959 . S
C3187 H3172 0.959 . S
C3187 H3173 0.961 . S
C3187 C3186 1.502 . S
C3188 H3174 0.960 . S
C3188 H3175 0.961 . S
C3188 H3176 0.959 . S
C3188 C3186 1.561 . S
C3189 C3186 1.526 . S
C3189 C3190 1.396 . S
C3189 C3194 1.390 . S
C3190 C3184 1.465 . S
C3190 C3189 1.396 . S
C3190 C3191 1.399 . S
C3191 H3177 0.929 . S
C3191 C3190 1.399 . S
C3191 C3192 1.385 . S
C3192 H3178 0.931 . S
C3192 C3191 1.385 . S
C3192 C3193 1.389 . S
C3193 C3192 1.389 . S
C3193 C3194 1.387 . S
C3194 H3179 0.930 . S
C3194 C3189 1.390 . S
C3194 C3193 1.387 . S
H3195 C3207 0.930 . S
H3196 C3209 0.930 . S
H3197 C3210 0.930 . S
H3198 C3214 0.959 . S
H3199 C3214 0.959 . S
H3200 C3214 0.961 . S
H3201 C3215 0.960 . S
H3202 C3215 0.961 . S
H3203 C3215 0.959 . S
H3204 C3218 0.929 . S
H3205 C3219 0.931 . S
H3206 C3221 0.930 . S
C3207 H3195 0.930 . S
C3207 C3208 1.399 1_556 S
C3207 C3212 1.399 . S
C3208 C3207 1.399 1_554 S
C3208 C3209 1.376 . S
C3209 H3196 0.930 . S
C3209 C3208 1.376 . S
C3209 C3210 1.388 . S
C3210 H3197 0.930 . S
C3210 C3209 1.388 . S
C3210 C3211 1.390 1_554 S
C3211 C3210 1.390 1_556 S
C3211 C3212 1.394 . S
C3211 C3217 1.465 . S
C3212 C3207 1.399 . S
C3212 C3211 1.394 . S
C3212 C3213 1.516 . S
C3213 C3212 1.516 . S
C3213 C3214 1.502 . S
C3213 C3215 1.561 . S
C3213 C3216 1.526 . S
C3214 H3198 0.959 . S
C3214 H3199 0.959 . S
C3214 H3200 0.961 . S
C3214 C3213 1.502 . S
C3215 H3201 0.960 . S
C3215 H3202 0.961 . S
C3215 H3203 0.959 . S
C3215 C3213 1.561 . S
C3216 C3213 1.526 . S
C3216 C3217 1.396 . S
C3216 C3221 1.390 . S
C3217 C3211 1.465 . S
C3217 C3216 1.396 . S
C3217 C3218 1.399 . S
C3218 H3204 0.929 . S
C3218 C3217 1.399 . S
C3218 C3219 1.385 . S
C3219 H3205 0.931 . S
C3219 C3218 1.385 . S
C3219 C3220 1.389 . S
C3220 C3219 1.389 . S
C3220 C3221 1.387 . S
C3221 H3206 0.930 . S
C3221 C3216 1.390 . S
C3221 C3220 1.387 . S
H3222 C3234 0.930 . S
H3223 C3236 0.930 . S
H3224 C3237 0.930 . S
H3225 C3241 0.959 . S
H3226 C3241 0.959 . S
H3227 C3241 0.961 . S
H3228 C3242 0.960 . S
H3229 C3242 0.961 . S
H3230 C3242 0.959 . S
H3231 C3245 0.929 . S
H3232 C3246 0.931 . S
H3233 C3248 0.930 . S
C3234 H3222 0.930 . S
C3234 C3235 1.399 . S
C3234 C3239 1.399 . S
C3235 C3234 1.399 . S
C3235 C3236 1.376 . S
C3236 H3223 0.930 . S
C3236 C3235 1.376 . S
C3236 C3237 1.388 . S
C3237 H3224 0.930 . S
C3237 C3236 1.388 . S
C3237 C3238 1.390 . S
C3238 C3237 1.390 . S
C3238 C3239 1.394 . S
C3238 C3244 1.465 . S
C3239 C3234 1.399 . S
C3239 C3238 1.394 . S
C3239 C3240 1.516 . S
C3240 C3239 1.516 . S
C3240 C3241 1.502 . S
C3240 C3242 1.561 . S
C3240 C3243 1.526 . S
C3241 H3225 0.959 . S
C3241 H3226 0.959 . S
C3241 H3227 0.961 . S
C3241 C3240 1.502 . S
C3242 H3228 0.960 . S
C3242 H3229 0.961 . S
C3242 H3230 0.959 . S
C3242 C3240 1.561 . S
C3243 C3240 1.526 . S
C3243 C3244 1.396 . S
C3243 C3248 1.390 . S
C3244 C3238 1.465 . S
C3244 C3243 1.396 . S
C3244 C3245 1.399 . S
C3245 H3231 0.929 . S
C3245 C3244 1.399 . S
C3245 C3246 1.385 . S
C3246 H3232 0.931 . S
C3246 C3245 1.385 . S
C3246 C3247 1.389 . S
C3247 C3246 1.389 . S
C3247 C3248 1.387 . S
C3248 H3233 0.930 . S
C3248 C3243 1.390 . S
C3248 C3247 1.387 . S
H3249 C3261 0.930 . S
H3250 C3263 0.930 . S
H3251 C3264 0.930 . S
H3252 C3268 0.959 . S
H3253 C3268 0.959 . S
H3254 C3268 0.961 . S
H3255 C3269 0.960 . S
H3256 C3269 0.961 . S
H3257 C3269 0.959 . S
H3258 C3272 0.929 . S
H3259 C3273 0.931 . S
H3260 C3275 0.930 . S
C3261 H3249 0.930 . S
C3261 C3262 1.399 . S
C3261 C3266 1.399 . S
C3262 C3261 1.399 . S
C3262 C3263 1.376 . S
C3263 H3250 0.930 . S
C3263 C3262 1.376 . S
C3263 C3264 1.388 . S
C3264 H3251 0.930 . S
C3264 C3263 1.388 . S
C3264 C3265 1.390 . S
C3265 C3264 1.390 . S
C3265 C3266 1.394 . S
C3265 C3271 1.465 . S
C3266 C3261 1.399 . S
C3266 C3265 1.394 . S
C3266 C3267 1.516 . S
C3267 C3266 1.516 . S
C3267 C3268 1.502 . S
C3267 C3269 1.561 . S
C3267 C3270 1.526 . S
C3268 H3252 0.959 . S
C3268 H3253 0.959 . S
C3268 H3254 0.961 . S
C3268 C3267 1.502 . S
C3269 H3255 0.960 . S
C3269 H3256 0.961 . S
C3269 H3257 0.959 . S
C3269 C3267 1.561 . S
C3270 C3267 1.526 . S
C3270 C3271 1.396 . S
C3270 C3275 1.390 . S
C3271 C3265 1.465 . S
C3271 C3270 1.396 . S
C3271 C3272 1.399 . S
C3272 H3258 0.929 . S
C3272 C3271 1.399 . S
C3272 C3273 1.385 . S
C3273 H3259 0.931 . S
C3273 C3272 1.385 . S
C3273 C3274 1.389 . S
C3274 C3273 1.389 . S
C3274 C3275 1.387 . S
C3275 H3260 0.930 . S
C3275 C3270 1.390 . S
C3275 C3274 1.387 . S
H3276 C3288 0.930 . S
H3277 C3290 0.930 . S
H3278 C3291 0.930 . S
H3279 C3295 0.959 . S
H3280 C3295 0.959 . S
H3281 C3295 0.961 . S
H3282 C3296 0.960 . S
H3283 C3296 0.961 . S
H3284 C3296 0.959 . S
H3285 C3299 0.929 . S
H3286 C3300 0.931 . S
H3287 C3302 0.930 . S
C3288 H3276 0.930 . S
C3288 C3289 1.399 . S
C3288 C3293 1.399 . S
C3289 C3288 1.399 . S
C3289 C3290 1.376 . S
C3290 H3277 0.930 . S
C3290 C3289 1.376 . S
C3290 C3291 1.388 . S
C3291 H3278 0.930 . S
C3291 C3290 1.388 . S
C3291 C3292 1.390 . S
C3292 C3291 1.390 . S
C3292 C3293 1.394 . S
C3292 C3298 1.465 . S
C3293 C3288 1.399 . S
C3293 C3292 1.394 . S
C3293 C3294 1.516 . S
C3294 C3293 1.516 . S
C3294 C3295 1.502 . S
C3294 C3296 1.561 . S
C3294 C3297 1.526 . S
C3295 H3279 0.959 . S
C3295 H3280 0.959 . S
C3295 H3281 0.961 . S
C3295 C3294 1.502 . S
C3296 H3282 0.960 . S
C3296 H3283 0.961 . S
C3296 H3284 0.959 . S
C3296 C3294 1.561 . S
C3297 C3294 1.526 . S
C3297 C3298 1.396 . S
C3297 C3302 1.390 . S
C3298 C3292 1.465 . S
C3298 C3297 1.396 . S
C3298 C3299 1.399 . S
C3299 H3285 0.929 . S
C3299 C3298 1.399 . S
C3299 C3300 1.385 . S
C3300 H3286 0.931 . S
C3300 C3299 1.385 . S
C3300 C3301 1.389 . S
C3301 C3300 1.389 . S
C3301 C3302 1.387 . S
C3302 H3287 0.930 . S
C3302 C3297 1.390 . S
C3302 C3301 1.387 . S
H3303 C3315 0.930 . S
H3304 C3317 0.930 . S
H3305 C3318 0.930 . S
H3306 C3322 0.959 . S
H3307 C3322 0.959 . S
H3308 C3322 0.961 . S
H3309 C3323 0.960 . S
H3310 C3323 0.961 . S
H3311 C3323 0.959 . S
H3312 C3326 0.929 . S
H3313 C3327 0.931 . S
H3314 C3329 0.930 . S
C3315 H3303 0.930 . S
C3315 C3316 1.399 . S
C3315 C3320 1.399 . S
C3316 C3315 1.399 . S
C3316 C3317 1.376 . S
C3317 H3304 0.930 . S
C3317 C3316 1.376 . S
C3317 C3318 1.388 . S
C3318 H3305 0.930 . S
C3318 C3317 1.388 . S
C3318 C3319 1.390 . S
C3319 C3318 1.390 . S
C3319 C3320 1.394 . S
C3319 C3325 1.465 . S
C3320 C3315 1.399 . S
C3320 C3319 1.394 . S
C3320 C3321 1.516 . S
C3321 C3320 1.516 . S
C3321 C3322 1.502 . S
C3321 C3323 1.561 . S
C3321 C3324 1.526 . S
C3322 H3306 0.959 . S
C3322 H3307 0.959 . S
C3322 H3308 0.961 . S
C3322 C3321 1.502 . S
C3323 H3309 0.960 . S
C3323 H3310 0.961 . S
C3323 H3311 0.959 . S
C3323 C3321 1.561 . S
C3324 C3321 1.526 . S
C3324 C3325 1.396 . S
C3324 C3329 1.390 . S
C3325 C3319 1.465 . S
C3325 C3324 1.396 . S
C3325 C3326 1.399 . S
C3326 H3312 0.929 . S
C3326 C3325 1.399 . S
C3326 C3327 1.385 . S
C3327 H3313 0.931 . S
C3327 C3326 1.385 . S
C3327 C3328 1.389 . S
C3328 C3327 1.389 . S
C3328 C3329 1.387 . S
C3329 H3314 0.930 . S
C3329 C3324 1.390 . S
C3329 C3328 1.387 . S
H3330 C3342 0.930 . S
H3331 C3344 0.930 . S
H3332 C3345 0.930 . S
H3333 C3349 0.959 . S
H3334 C3349 0.959 . S
H3335 C3349 0.961 . S
H3336 C3350 0.960 . S
H3337 C3350 0.961 . S
H3338 C3350 0.959 . S
H3339 C3353 0.929 . S
H3340 C3354 0.931 . S
H3341 C3356 0.930 . S
C3342 H3330 0.930 . S
C3342 C3343 1.399 . S
C3342 C3347 1.399 . S
C3343 C3342 1.399 . S
C3343 C3344 1.376 . S
C3344 H3331 0.930 . S
C3344 C3343 1.376 . S
C3344 C3345 1.388 . S
C3345 H3332 0.930 . S
C3345 C3344 1.388 . S
C3345 C3346 1.390 . S
C3346 C3345 1.390 . S
C3346 C3347 1.394 . S
C3346 C3352 1.465 . S
C3347 C3342 1.399 . S
C3347 C3346 1.394 . S
C3347 C3348 1.516 . S
C3348 C3347 1.516 . S
C3348 C3349 1.502 . S
C3348 C3350 1.561 . S
C3348 C3351 1.526 . S
C3349 H3333 0.959 . S
C3349 H3334 0.959 . S
C3349 H3335 0.961 . S
C3349 C3348 1.502 . S
C3350 H3336 0.960 . S
C3350 H3337 0.961 . S
C3350 H3338 0.959 . S
C3350 C3348 1.561 . S
C3351 C3348 1.526 . S
C3351 C3352 1.396 . S
C3351 C3356 1.390 . S
C3352 C3346 1.465 . S
C3352 C3351 1.396 . S
C3352 C3353 1.399 . S
C3353 H3339 0.929 . S
C3353 C3352 1.399 . S
C3353 C3354 1.385 . S
C3354 H3340 0.931 . S
C3354 C3353 1.385 . S
C3354 C3355 1.389 . S
C3355 C3354 1.389 . S
C3355 C3356 1.387 . S
C3356 H3341 0.930 . S
C3356 C3351 1.390 . S
C3356 C3355 1.387 . S
H3357 C3369 0.930 . S
H3358 C3371 0.930 . S
H3359 C3372 0.930 . S
H3360 C3376 0.959 . S
H3361 C3376 0.959 . S
H3362 C3376 0.961 . S
H3363 C3377 0.960 . S
H3364 C3377 0.961 . S
H3365 C3377 0.959 . S
H3366 C3380 0.929 . S
H3367 C3381 0.931 . S
H3368 C3383 0.930 . S
C3369 H3357 0.930 . S
C3369 C3370 1.399 . S
C3369 C3374 1.399 . S
C3370 C3369 1.399 . S
C3370 C3371 1.376 . S
C3371 H3358 0.930 . S
C3371 C3370 1.376 . S
C3371 C3372 1.388 . S
C3372 H3359 0.930 . S
C3372 C3371 1.388 . S
C3372 C3373 1.390 . S
C3373 C3372 1.390 . S
C3373 C3374 1.394 . S
C3373 C3379 1.465 . S
C3374 C3369 1.399 . S
C3374 C3373 1.394 . S
C3374 C3375 1.516 . S
C3375 C3374 1.516 . S
C3375 C3376 1.502 . S
C3375 C3377 1.561 . S
C3375 C3378 1.526 . S
C3376 H3360 0.959 . S
C3376 H3361 0.959 . S
C3376 H3362 0.961 . S
C3376 C3375 1.502 . S
C3377 H3363 0.960 . S
C3377 H3364 0.961 . S
C3377 H3365 0.959 . S
C3377 C3375 1.561 . S
C3378 C3375 1.526 . S
C3378 C3379 1.396 . S
C3378 C3383 1.390 . S
C3379 C3373 1.465 . S
C3379 C3378 1.396 . S
C3379 C3380 1.399 . S
C3380 H3366 0.929 . S
C3380 C3379 1.399 . S
C3380 C3381 1.385 . S
C3381 H3367 0.931 . S
C3381 C3380 1.385 . S
C3381 C3382 1.389 . S
C3382 C3381 1.389 . S
C3382 C3383 1.387 . S
C3383 H3368 0.930 . S
C3383 C3378 1.390 . S
C3383 C3382 1.387 . S
H3384 C3396 0.930 . S
H3385 C3398 0.930 . S
H3386 C3399 0.930 . S
H3387 C3403 0.959 . S
H3388 C3403 0.959 . S
H3389 C3403 0.961 . S
H3390 C3404 0.960 . S
H3391 C3404 0.961 . S
H3392 C3404 0.959 . S
H3393 C3407 0.929 . S
H3394 C3408 0.931 . S
H3395 C3410 0.930 . S
C3396 H3384 0.930 . S
C3396 C3397 1.399 . S
C3396 C3401 1.399 . S
C3397 C3396 1.399 . S
C3397 C3398 1.376 . S
C3398 H3385 0.930 . S
C3398 C3397 1.376 . S
C3398 C3399 1.388 . S
C3399 H3386 0.930 . S
C3399 C3398 1.388 . S
C3399 C3400 1.390 . S
C3400 C3399 1.390 . S
C3400 C3401 1.394 . S
C3400 C3406 1.465 . S
C3401 C3396 1.399 . S
C3401 C3400 1.394 . S
C3401 C3402 1.516 . S
C3402 C3401 1.516 . S
C3402 C3403 1.502 . S
C3402 C3404 1.561 . S
C3402 C3405 1.526 . S
C3403 H3387 0.959 . S
C3403 H3388 0.959 . S
C3403 H3389 0.961 . S
C3403 C3402 1.502 . S
C3404 H3390 0.960 . S
C3404 H3391 0.961 . S
C3404 H3392 0.959 . S
C3404 C3402 1.561 . S
C3405 C3402 1.526 . S
C3405 C3406 1.396 . S
C3405 C3410 1.390 . S
C3406 C3400 1.465 . S
C3406 C3405 1.396 . S
C3406 C3407 1.399 . S
C3407 H3393 0.929 . S
C3407 C3406 1.399 . S
C3407 C3408 1.385 . S
C3408 H3394 0.931 . S
C3408 C3407 1.385 . S
C3408 C3409 1.389 . S
C3409 C3408 1.389 . S
C3409 C3410 1.387 . S
C3410 H3395 0.930 . S
C3410 C3405 1.390 . S
C3410 C3409 1.387 . S
H3411 C3423 0.930 . S
H3412 C3425 0.930 . S
H3413 C3426 0.930 . S
H3414 C3430 0.959 . S
H3415 C3430 0.959 . S
H3416 C3430 0.961 . S
H3417 C3431 0.960 . S
H3418 C3431 0.961 . S
H3419 C3431 0.959 . S
H3420 C3434 0.929 . S
H3421 C3435 0.931 . S
H3422 C3437 0.930 . S
C3423 H3411 0.930 . S
C3423 C3424 1.399 . S
C3423 C3428 1.399 . S
C3424 C3423 1.399 . S
C3424 C3425 1.376 . S
C3425 H3412 0.930 . S
C3425 C3424 1.376 . S
C3425 C3426 1.388 . S
C3426 H3413 0.930 . S
C3426 C3425 1.388 . S
C3426 C3427 1.390 . S
C3427 C3426 1.390 . S
C3427 C3428 1.394 . S
C3427 C3433 1.465 . S
C3428 C3423 1.399 . S
C3428 C3427 1.394 . S
C3428 C3429 1.516 . S
C3429 C3428 1.516 . S
C3429 C3430 1.502 . S
C3429 C3431 1.561 . S
C3429 C3432 1.526 . S
C3430 H3414 0.959 . S
C3430 H3415 0.959 . S
C3430 H3416 0.961 . S
C3430 C3429 1.502 . S
C3431 H3417 0.960 . S
C3431 H3418 0.961 . S
C3431 H3419 0.959 . S
C3431 C3429 1.561 . S
C3432 C3429 1.526 . S
C3432 C3433 1.396 . S
C3432 C3437 1.390 . S
C3433 C3427 1.465 . S
C3433 C3432 1.396 . S
C3433 C3434 1.399 . S
C3434 H3420 0.929 . S
C3434 C3433 1.399 . S
C3434 C3435 1.385 . S
C3435 H3421 0.931 . S
C3435 C3434 1.385 . S
C3435 C3436 1.389 . S
C3436 C3435 1.389 . S
C3436 C3437 1.387 . S
C3437 H3422 0.930 . S
C3437 C3432 1.390 . S
C3437 C3436 1.387 . S
H3438 C3450 0.930 . S
H3439 C3452 0.930 . S
H3440 C3453 0.930 . S
H3441 C3457 0.959 . S
H3442 C3457 0.959 . S
H3443 C3457 0.961 . S
H3444 C3458 0.960 . S
H3445 C3458 0.961 . S
H3446 C3458 0.959 . S
H3447 C3461 0.929 . S
H3448 C3462 0.931 . S
H3449 C3464 0.930 . S
C3450 H3438 0.930 . S
C3450 C3451 1.399 . S
C3450 C3455 1.399 . S
C3451 C3450 1.399 . S
C3451 C3452 1.376 . S
C3452 H3439 0.930 . S
C3452 C3451 1.376 . S
C3452 C3453 1.388 . S
C3453 H3440 0.930 . S
C3453 C3452 1.388 . S
C3453 C3454 1.390 . S
C3454 C3453 1.390 . S
C3454 C3455 1.394 . S
C3454 C3460 1.465 . S
C3455 C3450 1.399 . S
C3455 C3454 1.394 . S
C3455 C3456 1.516 . S
C3456 C3455 1.516 . S
C3456 C3457 1.502 . S
C3456 C3458 1.561 . S
C3456 C3459 1.526 . S
C3457 H3441 0.959 . S
C3457 H3442 0.959 . S
C3457 H3443 0.961 . S
C3457 C3456 1.502 . S
C3458 H3444 0.960 . S
C3458 H3445 0.961 . S
C3458 H3446 0.959 . S
C3458 C3456 1.561 . S
C3459 C3456 1.526 . S
C3459 C3460 1.396 . S
C3459 C3464 1.390 . S
C3460 C3454 1.465 . S
C3460 C3459 1.396 . S
C3460 C3461 1.399 . S
C3461 H3447 0.929 . S
C3461 C3460 1.399 . S
C3461 C3462 1.385 . S
C3462 H3448 0.931 . S
C3462 C3461 1.385 . S
C3462 C3463 1.389 . S
C3463 C3462 1.389 . S
C3463 C3464 1.387 . S
C3464 H3449 0.930 . S
C3464 C3459 1.390 . S
C3464 C3463 1.387 . S
H3465 C3477 0.930 . S
H3466 C3479 0.930 . S
H3467 C3480 0.930 . S
H3468 C3484 0.959 . S
H3469 C3484 0.959 . S
H3470 C3484 0.961 . S
H3471 C3485 0.960 . S
H3472 C3485 0.961 . S
H3473 C3485 0.959 . S
H3474 C3488 0.929 . S
H3475 C3489 0.931 . S
H3476 C3491 0.930 1_556 S
C3477 H3465 0.930 . S
C3477 C3478 1.399 1_556 S
C3477 C3482 1.399 1_556 S
C3478 C3477 1.399 1_554 S
C3478 C3479 1.376 . S
C3479 H3466 0.930 . S
C3479 C3478 1.376 . S
C3479 C3480 1.388 . S
C3480 H3467 0.930 . S
C3480 C3479 1.388 . S
C3480 C3481 1.390 . S
C3481 C3480 1.390 . S
C3481 C3482 1.394 . S
C3481 C3487 1.465 . S
C3482 C3477 1.399 1_554 S
C3482 C3481 1.394 . S
C3482 C3483 1.516 1_554 S
C3483 C3482 1.516 1_556 S
C3483 C3484 1.502 . S
C3483 C3485 1.561 1_565 S
C3483 C3486 1.526 1_556 S
C3484 H3468 0.959 . S
C3484 H3469 0.959 . S
C3484 H3470 0.961 . S
C3484 C3483 1.502 . S
C3485 H3471 0.960 . S
C3485 H3472 0.961 . S
C3485 H3473 0.959 . S
C3485 C3483 1.561 1_545 S
C3486 C3483 1.526 1_554 S
C3486 C3487 1.396 . S
C3486 C3491 1.390 1_565 S
C3487 C3481 1.465 . S
C3487 C3486 1.396 . S
C3487 C3488 1.399 . S
C3488 H3474 0.929 . S
C3488 C3487 1.399 . S
C3488 C3489 1.385 1_565 S
C3489 H3475 0.931 . S
C3489 C3488 1.385 1_545 S
C3489 C3490 1.389 . S
C3490 C3489 1.389 . S
C3490 C3491 1.387 . S
C3491 H3476 0.930 1_554 S
C3491 C3486 1.390 1_545 S
C3491 C3490 1.387 . S
H3492 C3504 0.930 . S
H3493 C3506 0.930 . S
H3494 C3507 0.930 . S
H3495 C3511 0.959 . S
H3496 C3511 0.959 . S
H3497 C3511 0.961 . S
H3498 C3512 0.960 . S
H3499 C3512 0.961 . S
H3500 C3512 0.959 . S
H3501 C3515 0.929 . S
H3502 C3516 0.931 . S
H3503 C3518 0.930 . S
C3504 H3492 0.930 . S
C3504 C3505 1.399 . S
C3504 C3509 1.399 . S
C3505 C3504 1.399 . S
C3505 C3506 1.376 . S
C3506 H3493 0.930 . S
C3506 C3505 1.376 . S
C3506 C3507 1.388 . S
C3507 H3494 0.930 . S
C3507 C3506 1.388 . S
C3507 C3508 1.390 . S
C3508 C3507 1.390 . S
C3508 C3509 1.394 . S
C3508 C3514 1.465 . S
C3509 C3504 1.399 . S
C3509 C3508 1.394 . S
C3509 C3510 1.516 . S
C3510 C3509 1.516 . S
C3510 C3511 1.502 . S
C3510 C3512 1.561 . S
C3510 C3513 1.526 . S
C3511 H3495 0.959 . S
C3511 H3496 0.959 . S
C3511 H3497 0.961 . S
C3511 C3510 1.502 . S
C3512 H3498 0.960 . S
C3512 H3499 0.961 . S
C3512 H3500 0.959 . S
C3512 C3510 1.561 . S
C3513 C3510 1.526 . S
C3513 C3514 1.396 . S
C3513 C3518 1.390 . S
C3514 C3508 1.465 . S
C3514 C3513 1.396 . S
C3514 C3515 1.399 . S
C3515 H3501 0.929 . S
C3515 C3514 1.399 . S
C3515 C3516 1.385 . S
C3516 H3502 0.931 . S
C3516 C3515 1.385 . S
C3516 C3517 1.389 . S
C3517 C3516 1.389 . S
C3517 C3518 1.387 . S
C3518 H3503 0.930 . S
C3518 C3513 1.390 . S
C3518 C3517 1.387 . S
H3519 C3531 0.913 1_556 S
H3520 C3533 0.930 . S
H3521 C3534 0.930 . S
H3522 C3538 0.959 . S
H3523 C3538 0.959 . S
H3524 C3538 0.961 . S
H3525 C3539 0.960 . S
H3526 C3539 0.961 . S
H3527 C3539 0.959 . S
H3528 C3542 0.929 . S
H3529 C3543 0.931 . S
H3530 C3545 0.930 1_556 S
C3531 H3519 0.913 1_554 S
C3531 C3532 1.411 . S
C3531 C3536 1.404 . S
C3532 C3531 1.411 . S
C3532 C3533 1.376 . S
C3533 H3520 0.930 . S
C3533 C3532 1.376 . S
C3533 C3534 1.388 . S
C3534 H3521 0.930 . S
C3534 C3533 1.388 . S
C3534 C3535 1.390 . S
C3535 C3534 1.390 . S
C3535 C3536 1.394 . S
C3535 C3541 1.465 . S
C3536 C3531 1.404 . S
C3536 C3535 1.394 . S
C3536 C3537 1.516 1_554 S
C3537 C3536 1.516 1_556 S
C3537 C3538 1.502 . S
C3537 C3539 1.561 . S
C3537 C3540 1.526 1_556 S
C3538 H3522 0.959 . S
C3538 H3523 0.959 . S
C3538 H3524 0.961 . S
C3538 C3537 1.502 . S
C3539 H3525 0.960 . S
C3539 H3526 0.961 . S
C3539 H3527 0.959 . S
C3539 C3537 1.561 . S
C3540 C3537 1.526 1_554 S
C3540 C3541 1.396 . S
C3540 C3545 1.390 . S
C3541 C3535 1.465 . S
C3541 C3540 1.396 . S
C3541 C3542 1.399 . S
C3542 H3528 0.929 . S
C3542 C3541 1.399 . S
C3542 C3543 1.385 . S
C3543 H3529 0.931 . S
C3543 C3542 1.385 . S
C3543 C3544 1.389 . S
C3544 C3543 1.389 . S
C3544 C3545 1.387 . S
C3545 H3530 0.930 1_554 S
C3545 C3540 1.390 . S
C3545 C3544 1.387 . S
H3546 C3558 0.930 . S
H3547 C3560 0.930 . S
H3548 C3561 0.930 . S
H3549 C3565 0.959 . S
H3550 C3565 0.959 . S
H3551 C3565 0.961 . S
H3552 C3566 0.960 . S
H3553 C3566 0.961 . S
H3554 C3566 0.959 . S
H3555 C3569 0.929 . S
H3556 C3570 0.931 . S
H3557 C3572 0.930 . S
C3558 H3546 0.930 . S
C3558 C3559 1.399 . S
C3558 C3563 1.399 . S
C3559 C3558 1.399 . S
C3559 C3560 1.376 . S
C3560 H3547 0.930 . S
C3560 C3559 1.376 . S
C3560 C3561 1.388 . S
C3561 H3548 0.930 . S
C3561 C3560 1.388 . S
C3561 C3562 1.390 . S
C3562 C3561 1.390 . S
C3562 C3563 1.394 . S
C3562 C3568 1.465 . S
C3563 C3558 1.399 . S
C3563 C3562 1.394 . S
C3563 C3564 1.516 . S
C3564 C3563 1.516 . S
C3564 C3565 1.502 . S
C3564 C3566 1.561 . S
C3564 C3567 1.526 . S
C3565 H3549 0.959 . S
C3565 H3550 0.959 . S
C3565 H3551 0.961 . S
C3565 C3564 1.502 . S
C3566 H3552 0.960 . S
C3566 H3553 0.961 . S
C3566 H3554 0.959 . S
C3566 C3564 1.561 . S
C3567 C3564 1.526 . S
C3567 C3568 1.396 . S
C3567 C3572 1.390 . S
C3568 C3562 1.465 . S
C3568 C3567 1.396 . S
C3568 C3569 1.399 . S
C3569 H3555 0.929 . S
C3569 C3568 1.399 . S
C3569 C3570 1.385 . S
C3570 H3556 0.931 . S
C3570 C3569 1.385 . S
C3570 C3571 1.389 . S
C3571 C3570 1.389 . S
C3571 C3572 1.387 . S
C3572 H3557 0.930 . S
C3572 C3567 1.390 . S
C3572 C3571 1.387 . S
H3573 C3585 0.930 . S
H3574 C3587 0.930 . S
H3575 C3588 0.930 . S
H3576 C3592 0.959 . S
H3577 C3592 0.959 . S
H3578 C3592 0.961 . S
H3579 C3593 0.960 . S
H3580 C3593 0.961 . S
H3581 C3593 0.959 . S
H3582 C3596 0.929 . S
H3583 C3597 0.931 . S
H3584 C3599 0.930 . S
C3585 H3573 0.930 . S
C3585 C3586 1.399 . S
C3585 C3590 1.399 . S
C3586 C3585 1.399 . S
C3586 C3587 1.376 . S
C3587 H3574 0.930 . S
C3587 C3586 1.376 . S
C3587 C3588 1.388 . S
C3588 H3575 0.930 . S
C3588 C3587 1.388 . S
C3588 C3589 1.390 . S
C3589 C3588 1.390 . S
C3589 C3590 1.394 . S
C3589 C3595 1.465 . S
C3590 C3585 1.399 . S
C3590 C3589 1.394 . S
C3590 C3591 1.516 . S
C3591 C3590 1.516 . S
C3591 C3592 1.502 . S
C3591 C3593 1.561 . S
C3591 C3594 1.526 . S
C3592 H3576 0.959 . S
C3592 H3577 0.959 . S
C3592 H3578 0.961 . S
C3592 C3591 1.502 . S
C3593 H3579 0.960 . S
C3593 H3580 0.961 . S
C3593 H3581 0.959 . S
C3593 C3591 1.561 . S
C3594 C3591 1.526 . S
C3594 C3595 1.396 . S
C3594 C3599 1.390 . S
C3595 C3589 1.465 . S
C3595 C3594 1.396 . S
C3595 C3596 1.399 . S
C3596 H3582 0.929 . S
C3596 C3595 1.399 . S
C3596 C3597 1.385 . S
C3597 H3583 0.931 . S
C3597 C3596 1.385 . S
C3597 C3598 1.389 . S
C3598 C3597 1.389 . S
C3598 C3599 1.387 . S
C3599 H3584 0.930 . S
C3599 C3594 1.390 . S
C3599 C3598 1.387 . S
H3600 C3612 0.930 . S
H3601 C3614 0.930 . S
H3602 C3615 0.930 . S
H3603 C3619 0.959 . S
H3604 C3619 0.959 . S
H3605 C3619 0.961 . S
H3606 C3620 0.960 . S
H3607 C3620 0.961 . S
H3608 C3620 0.959 . S
H3609 C3623 0.929 . S
H3610 C3624 0.931 . S
H3611 C3626 0.930 . S
C3612 H3600 0.930 . S
C3612 C3613 1.399 . S
C3612 C3617 1.399 . S
C3613 C3612 1.399 . S
C3613 C3614 1.376 . S
C3614 H3601 0.930 . S
C3614 C3613 1.376 . S
C3614 C3615 1.388 . S
C3615 H3602 0.930 . S
C3615 C3614 1.388 . S
C3615 C3616 1.390 . S
C3616 C3615 1.390 . S
C3616 C3617 1.394 . S
C3616 C3622 1.465 . S
C3617 C3612 1.399 . S
C3617 C3616 1.394 . S
C3617 C3618 1.516 . S
C3618 C3617 1.516 . S
C3618 C3619 1.502 . S
C3618 C3620 1.561 . S
C3618 C3621 1.526 . S
C3619 H3603 0.959 . S
C3619 H3604 0.959 . S
C3619 H3605 0.961 . S
C3619 C3618 1.502 . S
C3620 H3606 0.960 . S
C3620 H3607 0.961 . S
C3620 H3608 0.959 . S
C3620 C3618 1.561 . S
C3621 C3618 1.526 . S
C3621 C3622 1.396 . S
C3621 C3626 1.390 . S
C3622 C3616 1.465 . S
C3622 C3621 1.396 . S
C3622 C3623 1.399 . S
C3623 H3609 0.929 . S
C3623 C3622 1.399 . S
C3623 C3624 1.385 . S
C3624 H3610 0.931 . S
C3624 C3623 1.385 . S
C3624 C3625 1.389 . S
C3625 C3624 1.389 . S
C3625 C3626 1.387 . S
C3626 H3611 0.930 . S
C3626 C3621 1.390 . S
C3626 C3625 1.387 . S
H3627 C3639 0.930 . S
H3628 C3641 0.930 . S
H3629 C3642 0.930 . S
H3630 C3646 0.959 . S
H3631 C3646 0.959 . S
H3632 C3646 0.961 . S
H3633 C3647 0.960 . S
H3634 C3647 0.961 . S
H3635 C3647 0.959 . S
H3636 C3650 0.929 . S
H3637 C3651 0.931 . S
H3638 C3653 0.930 . S
C3639 H3627 0.930 . S
C3639 C3640 1.399 . S
C3639 C3644 1.399 . S
C3640 C3639 1.399 . S
C3640 C3641 1.376 . S
C3641 H3628 0.930 . S
C3641 C3640 1.376 . S
C3641 C3642 1.388 . S
C3642 H3629 0.930 . S
C3642 C3641 1.388 . S
C3642 C3643 1.390 . S
C3643 C3642 1.390 . S
C3643 C3644 1.394 . S
C3643 C3649 1.465 . S
C3644 C3639 1.399 . S
C3644 C3643 1.394 . S
C3644 C3645 1.516 . S
C3645 C3644 1.516 . S
C3645 C3646 1.502 . S
C3645 C3647 1.561 . S
C3645 C3648 1.526 . S
C3646 H3630 0.959 . S
C3646 H3631 0.959 . S
C3646 H3632 0.961 . S
C3646 C3645 1.502 . S
C3647 H3633 0.960 . S
C3647 H3634 0.961 . S
C3647 H3635 0.959 . S
C3647 C3645 1.561 . S
C3648 C3645 1.526 . S
C3648 C3649 1.396 . S
C3648 C3653 1.390 . S
C3649 C3643 1.465 . S
C3649 C3648 1.396 . S
C3649 C3650 1.399 . S
C3650 H3636 0.929 . S
C3650 C3649 1.399 . S
C3650 C3651 1.385 . S
C3651 H3637 0.931 . S
C3651 C3650 1.385 . S
C3651 C3652 1.389 . S
C3652 C3651 1.389 . S
C3652 C3653 1.387 . S
C3653 H3638 0.930 . S
C3653 C3648 1.390 . S
C3653 C3652 1.387 . S
H3654 C3666 0.930 . S
H3655 C3668 0.930 . S
H3656 C3669 0.930 . S
H3657 C3673 0.959 . S
H3658 C3673 0.959 . S
H3659 C3673 0.961 . S
H3660 C3674 0.960 . S
H3661 C3674 0.961 . S
H3662 C3674 0.959 . S
H3663 C3677 0.929 . S
H3664 C3678 0.931 . S
H3665 C3680 0.930 . S
C3666 H3654 0.930 . S
C3666 C3667 1.399 . S
C3666 C3671 1.399 . S
C3667 C3666 1.399 . S
C3667 C3668 1.376 . S
C3668 H3655 0.930 . S
C3668 C3667 1.376 . S
C3668 C3669 1.388 . S
C3669 H3656 0.930 . S
C3669 C3668 1.388 . S
C3669 C3670 1.390 . S
C3670 C3669 1.390 . S
C3670 C3671 1.394 . S
C3670 C3676 1.465 . S
C3671 C3666 1.399 . S
C3671 C3670 1.394 . S
C3671 C3672 1.516 . S
C3672 C3671 1.516 . S
C3672 C3673 1.502 . S
C3672 C3674 1.561 . S
C3672 C3675 1.526 . S
C3673 H3657 0.959 . S
C3673 H3658 0.959 . S
C3673 H3659 0.961 . S
C3673 C3672 1.502 . S
C3674 H3660 0.960 . S
C3674 H3661 0.961 . S
C3674 H3662 0.959 . S
C3674 C3672 1.561 . S
C3675 C3672 1.526 . S
C3675 C3676 1.396 . S
C3675 C3680 1.390 . S
C3676 C3670 1.465 . S
C3676 C3675 1.396 . S
C3676 C3677 1.399 . S
C3677 H3663 0.929 . S
C3677 C3676 1.399 . S
C3677 C3678 1.385 . S
C3678 H3664 0.931 . S
C3678 C3677 1.385 . S
C3678 C3679 1.389 . S
C3679 C3678 1.389 . S
C3679 C3680 1.387 . S
C3680 H3665 0.930 . S
C3680 C3675 1.390 . S
C3680 C3679 1.387 . S
H3681 C3693 0.930 . S
H3682 C3695 0.930 . S
H3683 C3696 0.930 . S
H3684 C3700 0.959 . S
H3685 C3700 0.959 . S
H3686 C3700 0.961 . S
H3687 C3701 0.960 . S
H3688 C3701 0.961 . S
H3689 C3701 0.959 . S
H3690 C3704 0.929 . S
H3691 C3705 0.931 . S
H3692 C3707 0.930 . S
C3693 H3681 0.930 . S
C3693 C3694 1.399 . S
C3693 C3698 1.399 . S
C3694 C3693 1.399 . S
C3694 C3695 1.376 . S
C3695 H3682 0.930 . S
C3695 C3694 1.376 . S
C3695 C3696 1.388 . S
C3696 H3683 0.930 . S
C3696 C3695 1.388 . S
C3696 C3697 1.390 . S
C3697 C3696 1.390 . S
C3697 C3698 1.394 . S
C3697 C3703 1.465 . S
C3698 C3693 1.399 . S
C3698 C3697 1.394 . S
C3698 C3699 1.516 . S
C3699 C3698 1.516 . S
C3699 C3700 1.502 . S
C3699 C3701 1.561 . S
C3699 C3702 1.526 . S
C3700 H3684 0.959 . S
C3700 H3685 0.959 . S
C3700 H3686 0.961 . S
C3700 C3699 1.502 . S
C3701 H3687 0.960 . S
C3701 H3688 0.961 . S
C3701 H3689 0.959 . S
C3701 C3699 1.561 . S
C3702 C3699 1.526 . S
C3702 C3703 1.396 . S
C3702 C3707 1.390 . S
C3703 C3697 1.465 . S
C3703 C3702 1.396 . S
C3703 C3704 1.399 . S
C3704 H3690 0.929 . S
C3704 C3703 1.399 . S
C3704 C3705 1.385 . S
C3705 H3691 0.931 . S
C3705 C3704 1.385 . S
C3705 C3706 1.389 . S
C3706 C3705 1.389 . S
C3706 C3707 1.387 . S
C3707 H3692 0.930 . S
C3707 C3702 1.390 . S
C3707 C3706 1.387 . S
H3708 C3720 0.930 . S
H3709 C3722 0.930 . S
H3710 C3723 0.930 . S
H3711 C3727 0.959 . S
H3712 C3727 0.959 . S
H3713 C3727 0.961 . S
H3714 C3728 0.960 . S
H3715 C3728 0.961 . S
H3716 C3728 0.959 . S
H3717 C3731 0.929 . S
H3718 C3732 0.931 . S
H3719 C3734 0.930 . S
C3720 H3708 0.930 . S
C3720 C3721 1.399 . S
C3720 C3725 1.399 . S
C3721 C3720 1.399 . S
C3721 C3722 1.376 . S
C3722 H3709 0.930 . S
C3722 C3721 1.376 . S
C3722 C3723 1.388 . S
C3723 H3710 0.930 . S
C3723 C3722 1.388 . S
C3723 C3724 1.390 . S
C3724 C3723 1.390 . S
C3724 C3725 1.394 . S
C3724 C3730 1.465 . S
C3725 C3720 1.399 . S
C3725 C3724 1.394 . S
C3725 C3726 1.516 . S
C3726 C3725 1.516 . S
C3726 C3727 1.502 . S
C3726 C3728 1.561 . S
C3726 C3729 1.526 . S
C3727 H3711 0.959 . S
C3727 H3712 0.959 . S
C3727 H3713 0.961 . S
C3727 C3726 1.502 . S
C3728 H3714 0.960 . S
C3728 H3715 0.961 . S
C3728 H3716 0.959 . S
C3728 C3726 1.561 . S
C3729 C3726 1.526 . S
C3729 C3730 1.396 . S
C3729 C3734 1.390 . S
C3730 C3724 1.465 . S
C3730 C3729 1.396 . S
C3730 C3731 1.399 . S
C3731 H3717 0.929 . S
C3731 C3730 1.399 . S
C3731 C3732 1.385 . S
C3732 H3718 0.931 . S
C3732 C3731 1.385 . S
C3732 C3733 1.389 . S
C3733 C3732 1.389 . S
C3733 C3734 1.387 . S
C3734 H3719 0.930 . S
C3734 C3729 1.390 . S
C3734 C3733 1.387 . S
H3735 C3747 0.930 . S
H3736 C3749 0.930 . S
H3737 C3750 0.930 . S
H3738 C3754 0.959 . S
H3739 C3754 0.959 . S
H3740 C3754 0.961 . S
H3741 C3755 0.960 . S
H3742 C3755 0.961 . S
H3743 C3755 0.959 . S
H3744 C3758 0.929 . S
H3745 C3759 0.931 . S
H3746 C3761 0.930 . S
C3747 H3735 0.930 . S
C3747 C3748 1.399 . S
C3747 C3752 1.399 . S
C3748 C3747 1.399 . S
C3748 C3749 1.376 . S
C3749 H3736 0.930 . S
C3749 C3748 1.376 . S
C3749 C3750 1.388 . S
C3750 H3737 0.930 . S
C3750 C3749 1.388 . S
C3750 C3751 1.390 . S
C3751 C3750 1.390 . S
C3751 C3752 1.394 . S
C3751 C3757 1.465 . S
C3752 C3747 1.399 . S
C3752 C3751 1.394 . S
C3752 C3753 1.516 . S
C3753 C3752 1.516 . S
C3753 C3754 1.502 . S
C3753 C3755 1.561 . S
C3753 C3756 1.526 . S
C3754 H3738 0.959 . S
C3754 H3739 0.959 . S
C3754 H3740 0.961 . S
C3754 C3753 1.502 . S
C3755 H3741 0.960 . S
C3755 H3742 0.961 . S
C3755 H3743 0.959 . S
C3755 C3753 1.561 . S
C3756 C3753 1.526 . S
C3756 C3757 1.396 . S
C3756 C3761 1.390 . S
C3757 C3751 1.465 . S
C3757 C3756 1.396 . S
C3757 C3758 1.399 . S
C3758 H3744 0.929 . S
C3758 C3757 1.399 . S
C3758 C3759 1.385 . S
C3759 H3745 0.931 . S
C3759 C3758 1.385 . S
C3759 C3760 1.389 . S
C3760 C3759 1.389 . S
C3760 C3761 1.387 . S
C3761 H3746 0.930 . S
C3761 C3756 1.390 . S
C3761 C3760 1.387 . S
H3762 C3774 0.930 . S
H3763 C3776 0.930 . S
H3764 C3777 0.930 . S
H3765 C3781 0.959 . S
H3766 C3781 0.959 . S
H3767 C3781 0.961 . S
H3768 C3782 0.960 . S
H3769 C3782 0.961 . S
H3770 C3782 0.959 . S
H3771 C3785 0.929 . S
H3772 C3786 0.931 . S
H3773 C3788 0.930 . S
C3774 H3762 0.930 . S
C3774 C3775 1.399 . S
C3774 C3779 1.399 . S
C3775 C3774 1.399 . S
C3775 C3776 1.376 . S
C3776 H3763 0.930 . S
C3776 C3775 1.376 . S
C3776 C3777 1.388 . S
C3777 H3764 0.930 . S
C3777 C3776 1.388 . S
C3777 C3778 1.390 . S
C3778 C3777 1.390 . S
C3778 C3779 1.394 . S
C3778 C3784 1.465 . S
C3779 C3774 1.399 . S
C3779 C3778 1.394 . S
C3779 C3780 1.516 . S
C3780 C3779 1.516 . S
C3780 C3781 1.502 . S
C3780 C3782 1.561 . S
C3780 C3783 1.526 . S
C3781 H3765 0.959 . S
C3781 H3766 0.959 . S
C3781 H3767 0.961 . S
C3781 C3780 1.502 . S
C3782 H3768 0.960 . S
C3782 H3769 0.961 . S
C3782 H3770 0.959 . S
C3782 C3780 1.561 . S
C3783 C3780 1.526 . S
C3783 C3784 1.396 . S
C3783 C3788 1.390 . S
C3784 C3778 1.465 . S
C3784 C3783 1.396 . S
C3784 C3785 1.399 . S
C3785 H3771 0.929 . S
C3785 C3784 1.399 . S
C3785 C3786 1.385 . S
C3786 H3772 0.931 . S
C3786 C3785 1.385 . S
C3786 C3787 1.389 . S
C3787 C3786 1.389 . S
C3787 C3788 1.387 . S
C3788 H3773 0.930 . S
C3788 C3783 1.390 . S
C3788 C3787 1.387 . S
H3789 C3801 0.930 . S
H3790 C3803 0.930 . S
H3791 C3804 0.930 . S
H3792 C3808 0.959 . S
H3793 C3808 0.959 . S
H3794 C3808 0.961 . S
H3795 C3809 0.960 . S
H3796 C3809 0.961 . S
H3797 C3809 0.959 . S
H3798 C3812 0.929 . S
H3799 C3813 0.931 . S
H3800 C3815 0.930 . S
C3801 H3789 0.930 . S
C3801 C3802 1.399 . S
C3801 C3806 1.399 . S
C3802 C3801 1.399 . S
C3802 C3803 1.376 . S
C3803 H3790 0.930 . S
C3803 C3802 1.376 . S
C3803 C3804 1.388 . S
C3804 H3791 0.930 . S
C3804 C3803 1.388 . S
C3804 C3805 1.390 . S
C3805 C3804 1.390 . S
C3805 C3806 1.394 . S
C3805 C3811 1.465 . S
C3806 C3801 1.399 . S
C3806 C3805 1.394 . S
C3806 C3807 1.516 . S
C3807 C3806 1.516 . S
C3807 C3808 1.502 . S
C3807 C3809 1.561 . S
C3807 C3810 1.526 . S
C3808 H3792 0.959 . S
C3808 H3793 0.959 . S
C3808 H3794 0.961 . S
C3808 C3807 1.502 . S
C3809 H3795 0.960 . S
C3809 H3796 0.961 . S
C3809 H3797 0.959 . S
C3809 C3807 1.561 . S
C3810 C3807 1.526 . S
C3810 C3811 1.396 . S
C3810 C3815 1.390 . S
C3811 C3805 1.465 . S
C3811 C3810 1.396 . S
C3811 C3812 1.399 . S
C3812 H3798 0.929 . S
C3812 C3811 1.399 . S
C3812 C3813 1.385 . S
C3813 H3799 0.931 . S
C3813 C3812 1.385 . S
C3813 C3814 1.389 . S
C3814 C3813 1.389 . S
C3814 C3815 1.387 . S
C3815 H3800 0.930 . S
C3815 C3810 1.390 . S
C3815 C3814 1.387 . S
H3816 C3828 0.930 . S
H3817 C3830 0.930 . S
H3818 C3831 0.930 . S
H3819 C3835 0.959 . S
H3820 C3835 0.959 . S
H3821 C3835 0.961 . S
H3822 C3836 0.960 . S
H3823 C3836 0.961 . S
H3824 C3836 0.959 . S
H3825 C3839 0.929 . S
H3826 C3840 0.931 . S
H3827 C3842 0.930 . S
C3828 H3816 0.930 . S
C3828 C3829 1.399 . S
C3828 C3833 1.399 . S
C3829 C3828 1.399 . S
C3829 C3830 1.376 . S
C3830 H3817 0.930 . S
C3830 C3829 1.376 . S
C3830 C3831 1.388 . S
C3831 H3818 0.930 . S
C3831 C3830 1.388 . S
C3831 C3832 1.390 . S
C3832 C3831 1.390 . S
C3832 C3833 1.394 . S
C3832 C3838 1.465 . S
C3833 C3828 1.399 . S
C3833 C3832 1.394 . S
C3833 C3834 1.516 . S
C3834 C3833 1.516 . S
C3834 C3835 1.502 . S
C3834 C3836 1.561 . S
C3834 C3837 1.526 . S
C3835 H3819 0.959 . S
C3835 H3820 0.959 . S
C3835 H3821 0.961 . S
C3835 C3834 1.502 . S
C3836 H3822 0.960 . S
C3836 H3823 0.961 . S
C3836 H3824 0.959 . S
C3836 C3834 1.561 . S
C3837 C3834 1.526 . S
C3837 C3838 1.396 . S
C3837 C3842 1.390 . S
C3838 C3832 1.465 . S
C3838 C3837 1.396 . S
C3838 C3839 1.399 . S
C3839 H3825 0.929 . S
C3839 C3838 1.399 . S
C3839 C3840 1.385 . S
C3840 H3826 0.931 . S
C3840 C3839 1.385 . S
C3840 C3841 1.389 . S
C3841 C3840 1.389 . S
C3841 C3842 1.387 . S
C3842 H3827 0.930 . S
C3842 C3837 1.390 . S
C3842 C3841 1.387 . S
H3843 C3855 0.930 . S
H3844 C3857 0.930 . S
H3845 C3858 0.930 . S
H3846 C3862 0.959 . S
H3847 C3862 0.959 . S
H3848 C3862 0.961 . S
H3849 C3863 0.960 . S
H3850 C3863 0.961 . S
H3851 C3863 0.959 . S
H3852 C3866 0.929 . S
H3853 C3867 0.931 . S
H3854 C3869 0.930 . S
C3855 H3843 0.930 . S
C3855 C3856 1.399 . S
C3855 C3860 1.399 . S
C3856 C3855 1.399 . S
C3856 C3857 1.376 . S
C3857 H3844 0.930 . S
C3857 C3856 1.376 . S
C3857 C3858 1.388 . S
C3858 H3845 0.930 . S
C3858 C3857 1.388 . S
C3858 C3859 1.390 . S
C3859 C3858 1.390 . S
C3859 C3860 1.394 . S
C3859 C3865 1.465 . S
C3860 C3855 1.399 . S
C3860 C3859 1.394 . S
C3860 C3861 1.516 . S
C3861 C3860 1.516 . S
C3861 C3862 1.502 . S
C3861 C3863 1.561 . S
C3861 C3864 1.526 . S
C3862 H3846 0.959 . S
C3862 H3847 0.959 . S
C3862 H3848 0.961 . S
C3862 C3861 1.502 . S
C3863 H3849 0.960 . S
C3863 H3850 0.961 . S
C3863 H3851 0.959 . S
C3863 C3861 1.561 . S
C3864 C3861 1.526 . S
C3864 C3865 1.396 . S
C3864 C3869 1.390 . S
C3865 C3859 1.465 . S
C3865 C3864 1.396 . S
C3865 C3866 1.399 . S
C3866 H3852 0.929 . S
C3866 C3865 1.399 . S
C3866 C3867 1.385 . S
C3867 H3853 0.931 . S
C3867 C3866 1.385 . S
C3867 C3868 1.389 . S
C3868 C3867 1.389 . S
C3868 C3869 1.387 . S
C3869 H3854 0.930 . S
C3869 C3864 1.390 . S
C3869 C3868 1.387 . S
H3870 C3882 0.930 . S
H3871 C3884 0.930 . S
H3872 C3885 0.930 . S
H3873 C3889 0.959 . S
H3874 C3889 0.959 . S
H3875 C3889 0.961 . S
H3876 C3890 0.960 . S
H3877 C3890 0.961 . S
H3878 C3890 0.959 . S
H3879 C3893 0.929 . S
H3880 C3894 0.931 . S
H3881 C3896 0.926 1_455 S
C3882 H3870 0.930 . S
C3882 C3883 1.399 . S
C3882 C3887 1.399 . S
C3883 C3882 1.399 . S
C3883 C3884 1.376 . S
C3884 H3871 0.930 . S
C3884 C3883 1.376 . S
C3884 C3885 1.388 . S
C3885 H3872 0.930 . S
C3885 C3884 1.388 . S
C3885 C3886 1.390 . S
C3886 C3885 1.390 . S
C3886 C3887 1.394 . S
C3886 C3892 1.465 . S
C3887 C3882 1.399 . S
C3887 C3886 1.394 . S
C3887 C3888 1.516 . S
C3888 C3887 1.516 . S
C3888 C3889 1.502 . S
C3888 C3890 1.561 . S
C3888 C3891 1.526 . S
C3889 H3873 0.959 . S
C3889 H3874 0.959 . S
C3889 H3875 0.961 . S
C3889 C3888 1.502 . S
C3890 H3876 0.960 . S
C3890 H3877 0.961 . S
C3890 H3878 0.959 . S
C3890 C3888 1.561 . S
C3891 C3888 1.526 . S
C3891 C3892 1.396 . S
C3891 C3896 1.390 . S
C3892 C3886 1.465 . S
C3892 C3891 1.396 . S
C3892 C3893 1.399 . S
C3893 H3879 0.929 . S
C3893 C3892 1.399 . S
C3893 C3894 1.385 . S
C3894 H3880 0.931 . S
C3894 C3893 1.385 . S
C3894 C3895 1.389 . S
C3895 C3894 1.389 . S
C3895 C3896 1.387 . S
C3896 H3881 0.926 1_655 S
C3896 C3891 1.390 . S
C3896 C3895 1.387 . S
H3897 C3909 0.930 . S
H3898 C3911 0.930 . S
H3899 C3912 0.930 . S
H3900 C3916 0.959 . S
H3901 C3916 0.959 . S
H3902 C3916 0.961 . S
H3903 C3917 0.960 . S
H3904 C3917 0.961 . S
H3905 C3917 0.959 . S
H3906 C3920 0.929 . S
H3907 C3921 0.931 . S
H3908 C3923 0.930 . S
C3909 H3897 0.930 . S
C3909 C3910 1.399 . S
C3909 C3914 1.399 . S
C3910 C3909 1.399 . S
C3910 C3911 1.376 . S
C3911 H3898 0.930 . S
C3911 C3910 1.376 . S
C3911 C3912 1.388 . S
C3912 H3899 0.930 . S
C3912 C3911 1.388 . S
C3912 C3913 1.390 . S
C3913 C3912 1.390 . S
C3913 C3914 1.394 . S
C3913 C3919 1.465 . S
C3914 C3909 1.399 . S
C3914 C3913 1.394 . S
C3914 C3915 1.516 . S
C3915 C3914 1.516 . S
C3915 C3916 1.502 . S
C3915 C3917 1.561 . S
C3915 C3918 1.526 . S
C3916 H3900 0.959 . S
C3916 H3901 0.959 . S
C3916 H3902 0.961 . S
C3916 C3915 1.502 . S
C3917 H3903 0.960 . S
C3917 H3904 0.961 . S
C3917 H3905 0.959 . S
C3917 C3915 1.561 . S
C3918 C3915 1.526 . S
C3918 C3919 1.396 . S
C3918 C3923 1.390 . S
C3919 C3913 1.465 . S
C3919 C3918 1.396 . S
C3919 C3920 1.399 . S
C3920 H3906 0.929 . S
C3920 C3919 1.399 . S
C3920 C3921 1.385 . S
C3921 H3907 0.931 . S
C3921 C3920 1.385 . S
C3921 C3922 1.389 . S
C3922 C3921 1.389 . S
C3922 C3923 1.387 . S
C3923 H3908 0.930 . S
C3923 C3918 1.390 . S
C3923 C3922 1.387 . S
H3924 C3936 0.930 . S
H3925 C3938 0.930 . S
H3926 C3939 0.930 . S
H3927 C3943 0.959 . S
H3928 C3943 0.959 . S
H3929 C3943 0.961 . S
H3930 C3944 0.960 . S
H3931 C3944 0.961 . S
H3932 C3944 0.959 . S
H3933 C3947 0.929 . S
H3934 C3948 0.931 . S
H3935 C3950 0.930 . S
C3936 H3924 0.930 . S
C3936 C3937 1.399 . S
C3936 C3941 1.399 . S
C3937 C3936 1.399 . S
C3937 C3938 1.376 . S
C3938 H3925 0.930 . S
C3938 C3937 1.376 . S
C3938 C3939 1.388 . S
C3939 H3926 0.930 . S
C3939 C3938 1.388 . S
C3939 C3940 1.390 . S
C3940 C3939 1.390 . S
C3940 C3941 1.394 . S
C3940 C3946 1.465 . S
C3941 C3936 1.399 . S
C3941 C3940 1.394 . S
C3941 C3942 1.516 . S
C3942 C3941 1.516 . S
C3942 C3943 1.502 . S
C3942 C3944 1.561 . S
C3942 C3945 1.526 . S
C3943 H3927 0.959 . S
C3943 H3928 0.959 . S
C3943 H3929 0.961 . S
C3943 C3942 1.502 . S
C3944 H3930 0.960 . S
C3944 H3931 0.961 . S
C3944 H3932 0.959 . S
C3944 C3942 1.561 . S
C3945 C3942 1.526 . S
C3945 C3946 1.396 . S
C3945 C3950 1.390 . S
C3946 C3940 1.465 . S
C3946 C3945 1.396 . S
C3946 C3947 1.399 . S
C3947 H3933 0.929 . S
C3947 C3946 1.399 . S
C3947 C3948 1.385 . S
C3948 H3934 0.931 . S
C3948 C3947 1.385 . S
C3948 C3949 1.389 . S
C3949 C3948 1.389 . S
C3949 C3950 1.387 . S
C3950 H3935 0.930 . S
C3950 C3945 1.390 . S
C3950 C3949 1.387 . S
H3951 C3963 0.930 . S
H3952 C3965 0.930 . S
H3953 C3966 0.930 . S
H3954 C3970 0.959 . S
H3955 C3970 0.959 . S
H3956 C3970 0.961 . S
H3957 C3971 0.960 . S
H3958 C3971 0.961 . S
H3959 C3971 0.959 . S
H3960 C3974 0.929 . S
H3961 C3975 0.931 . S
H3962 C3977 0.930 . S
C3963 H3951 0.930 . S
C3963 C3964 1.399 . S
C3963 C3968 1.399 . S
C3964 C3963 1.399 . S
C3964 C3965 1.376 . S
C3965 H3952 0.930 . S
C3965 C3964 1.376 . S
C3965 C3966 1.388 . S
C3966 H3953 0.930 . S
C3966 C3965 1.388 . S
C3966 C3967 1.390 . S
C3967 C3966 1.390 . S
C3967 C3968 1.394 . S
C3967 C3973 1.465 . S
C3968 C3963 1.399 . S
C3968 C3967 1.394 . S
C3968 C3969 1.516 . S
C3969 C3968 1.516 . S
C3969 C3970 1.502 . S
C3969 C3971 1.561 . S
C3969 C3972 1.526 . S
C3970 H3954 0.959 . S
C3970 H3955 0.959 . S
C3970 H3956 0.961 . S
C3970 C3969 1.502 . S
C3971 H3957 0.960 . S
C3971 H3958 0.961 . S
C3971 H3959 0.959 . S
C3971 C3969 1.561 . S
C3972 C3969 1.526 . S
C3972 C3973 1.396 . S
C3972 C3977 1.390 . S
C3973 C3967 1.465 . S
C3973 C3972 1.396 . S
C3973 C3974 1.399 . S
C3974 H3960 0.929 . S
C3974 C3973 1.399 . S
C3974 C3975 1.385 . S
C3975 H3961 0.931 . S
C3975 C3974 1.385 . S
C3975 C3976 1.389 . S
C3976 C3975 1.389 . S
C3976 C3977 1.387 . S
C3977 H3962 0.930 . S
C3977 C3972 1.390 . S
C3977 C3976 1.387 . S
H3978 C3990 0.930 . S
H3979 C3992 0.930 . S
H3980 C3993 0.930 . S
H3981 C3997 0.959 . S
H3982 C3997 0.959 . S
H3983 C3997 0.961 . S
H3984 C3998 0.960 . S
H3985 C3998 0.961 . S
H3986 C3998 0.959 . S
H3987 C4001 0.929 . S
H3988 C4002 0.931 . S
H3989 C4004 0.930 . S
C3990 H3978 0.930 . S
C3990 C3991 1.399 . S
C3990 C3995 1.399 . S
C3991 C3990 1.399 . S
C3991 C3992 1.376 . S
C3992 H3979 0.930 . S
C3992 C3991 1.376 . S
C3992 C3993 1.388 . S
C3993 H3980 0.930 . S
C3993 C3992 1.388 . S
C3993 C3994 1.390 . S
C3994 C3993 1.390 . S
C3994 C3995 1.394 . S
C3994 C4000 1.465 . S
C3995 C3990 1.399 . S
C3995 C3994 1.394 . S
C3995 C3996 1.516 . S
C3996 C3995 1.516 . S
C3996 C3997 1.502 . S
C3996 C3998 1.561 . S
C3996 C3999 1.526 . S
C3997 H3981 0.959 . S
C3997 H3982 0.959 . S
C3997 H3983 0.961 . S
C3997 C3996 1.502 . S
C3998 H3984 0.960 . S
C3998 H3985 0.961 . S
C3998 H3986 0.959 . S
C3998 C3996 1.561 . S
C3999 C3996 1.526 . S
C3999 C4000 1.396 . S
C3999 C4004 1.390 . S
C4000 C3994 1.465 . S
C4000 C3999 1.396 . S
C4000 C4001 1.399 . S
C4001 H3987 0.929 . S
C4001 C4000 1.399 . S
C4001 C4002 1.385 . S
C4002 H3988 0.931 . S
C4002 C4001 1.385 . S
C4002 C4003 1.389 . S
C4003 C4002 1.389 . S
C4003 C4004 1.387 . S
C4004 H3989 0.930 . S
C4004 C3999 1.390 . S
C4004 C4003 1.387 . S
H4005 C4017 0.930 . S
H4006 C4019 0.930 . S
H4007 C4020 0.930 . S
H4008 C4024 0.959 . S
H4009 C4024 0.959 . S
H4010 C4024 0.961 . S
H4011 C4025 0.960 . S
H4012 C4025 0.961 . S
H4013 C4025 0.959 . S
H4014 C4028 0.929 . S
H4015 C4029 0.931 . S
H4016 C4031 0.930 . S
C4017 H4005 0.930 . S
C4017 C4018 1.399 . S
C4017 C4022 1.399 . S
C4018 C4017 1.399 . S
C4018 C4019 1.376 . S
C4019 H4006 0.930 . S
C4019 C4018 1.376 . S
C4019 C4020 1.388 . S
C4020 H4007 0.930 . S
C4020 C4019 1.388 . S
C4020 C4021 1.390 . S
C4021 C4020 1.390 . S
C4021 C4022 1.394 . S
C4021 C4027 1.465 . S
C4022 C4017 1.399 . S
C4022 C4021 1.394 . S
C4022 C4023 1.516 . S
C4023 C4022 1.516 . S
C4023 C4024 1.502 . S
C4023 C4025 1.561 . S
C4023 C4026 1.526 . S
C4024 H4008 0.959 . S
C4024 H4009 0.959 . S
C4024 H4010 0.961 . S
C4024 C4023 1.502 . S
C4025 H4011 0.960 . S
C4025 H4012 0.961 . S
C4025 H4013 0.959 . S
C4025 C4023 1.561 . S
C4026 C4023 1.526 . S
C4026 C4027 1.396 . S
C4026 C4031 1.390 . S
C4027 C4021 1.465 . S
C4027 C4026 1.396 . S
C4027 C4028 1.399 . S
C4028 H4014 0.929 . S
C4028 C4027 1.399 . S
C4028 C4029 1.385 . S
C4029 H4015 0.931 . S
C4029 C4028 1.385 . S
C4029 C4030 1.389 . S
C4030 C4029 1.389 . S
C4030 C4031 1.387 . S
C4031 H4016 0.930 . S
C4031 C4026 1.390 . S
C4031 C4030 1.387 . S
H4032 C4044 0.930 . S
H4033 C4046 0.930 . S
H4034 C4047 0.930 . S
H4035 C4051 0.959 . S
H4036 C4051 0.959 . S
H4037 C4051 0.961 . S
H4038 C4052 0.960 . S
H4039 C4052 0.961 . S
H4040 C4052 0.959 . S
H4041 C4055 0.929 . S
H4042 C4056 0.931 . S
H4043 C4058 0.930 . S
C4044 H4032 0.930 . S
C4044 C4045 1.399 . S
C4044 C4049 1.399 . S
C4045 C4044 1.399 . S
C4045 C4046 1.376 . S
C4046 H4033 0.930 . S
C4046 C4045 1.376 . S
C4046 C4047 1.388 . S
C4047 H4034 0.930 . S
C4047 C4046 1.388 . S
C4047 C4048 1.390 . S
C4048 C4047 1.390 . S
C4048 C4049 1.394 . S
C4048 C4054 1.465 . S
C4049 C4044 1.399 . S
C4049 C4048 1.394 . S
C4049 C4050 1.516 . S
C4050 C4049 1.516 . S
C4050 C4051 1.502 . S
C4050 C4052 1.561 . S
C4050 C4053 1.526 . S
C4051 H4035 0.959 . S
C4051 H4036 0.959 . S
C4051 H4037 0.961 . S
C4051 C4050 1.502 . S
C4052 H4038 0.960 . S
C4052 H4039 0.961 . S
C4052 H4040 0.959 . S
C4052 C4050 1.561 . S
C4053 C4050 1.526 . S
C4053 C4054 1.396 . S
C4053 C4058 1.390 . S
C4054 C4048 1.465 . S
C4054 C4053 1.396 . S
C4054 C4055 1.399 . S
C4055 H4041 0.929 . S
C4055 C4054 1.399 . S
C4055 C4056 1.385 . S
C4056 H4042 0.931 . S
C4056 C4055 1.385 . S
C4056 C4057 1.389 . S
C4057 C4056 1.389 . S
C4057 C4058 1.387 . S
C4058 H4043 0.930 . S
C4058 C4053 1.390 . S
C4058 C4057 1.387 . S
H4059 C4071 0.930 . S
H4060 C4073 0.930 . S
H4061 C4074 0.930 . S
H4062 C4078 0.959 . S
H4063 C4078 0.959 . S
H4064 C4078 0.961 . S
H4065 C4079 0.960 . S
H4066 C4079 0.961 . S
H4067 C4079 0.959 . S
H4068 C4082 0.929 1_545 S
H4069 C4083 0.931 . S
H4070 C4085 0.930 . S
C4071 H4059 0.930 . S
C4071 C4072 1.399 . S
C4071 C4076 1.399 . S
C4072 C4071 1.399 . S
C4072 C4073 1.376 . S
C4073 H4060 0.930 . S
C4073 C4072 1.376 . S
C4073 C4074 1.388 . S
C4074 H4061 0.930 . S
C4074 C4073 1.388 . S
C4074 C4075 1.390 . S
C4075 C4074 1.390 . S
C4075 C4076 1.394 . S
C4075 C4081 1.465 . S
C4076 C4071 1.399 . S
C4076 C4075 1.394 . S
C4076 C4077 1.516 . S
C4077 C4076 1.516 . S
C4077 C4078 1.502 . S
C4077 C4079 1.561 . S
C4077 C4080 1.526 . S
C4078 H4062 0.959 . S
C4078 H4063 0.959 . S
C4078 H4064 0.961 . S
C4078 C4077 1.502 . S
C4079 H4065 0.960 . S
C4079 H4066 0.961 . S
C4079 H4067 0.959 . S
C4079 C4077 1.561 . S
C4080 C4077 1.526 . S
C4080 C4081 1.396 . S
C4080 C4085 1.390 . S
C4081 C4075 1.465 . S
C4081 C4080 1.396 . S
C4081 C4082 1.399 . S
C4082 H4068 0.929 1_565 S
C4082 C4081 1.399 . S
C4082 C4083 1.385 1_565 S
C4083 H4069 0.931 . S
C4083 C4082 1.385 1_545 S
C4083 C4084 1.389 1_545 S
C4084 C4083 1.389 1_565 S
C4084 C4085 1.387 . S
C4085 H4070 0.930 . S
C4085 C4080 1.390 . S
C4085 C4084 1.387 . S
H4086 C4098 0.930 . S
H4087 C4100 0.930 . S
H4088 C4101 0.930 . S
H4089 C4105 0.959 . S
H4090 C4105 0.959 . S
H4091 C4105 0.961 . S
H4092 C4106 0.960 . S
H4093 C4106 0.961 . S
H4094 C4106 0.959 . S
H4095 C4109 0.929 . S
H4096 C4110 0.931 . S
H4097 C4112 0.930 . S
C4098 H4086 0.930 . S
C4098 C4099 1.399 . S
C4098 C4103 1.399 . S
C4099 C4098 1.399 . S
C4099 C4100 1.376 . S
C4100 H4087 0.930 . S
C4100 C4099 1.376 . S
C4100 C4101 1.388 . S
C4101 H4088 0.930 . S
C4101 C4100 1.388 . S
C4101 C4102 1.390 . S
C4102 C4101 1.390 . S
C4102 C4103 1.394 . S
C4102 C4108 1.465 . S
C4103 C4098 1.399 . S
C4103 C4102 1.394 . S
C4103 C4104 1.516 . S
C4104 C4103 1.516 . S
C4104 C4105 1.502 . S
C4104 C4106 1.561 . S
C4104 C4107 1.526 . S
C4105 H4089 0.959 . S
C4105 H4090 0.959 . S
C4105 H4091 0.961 . S
C4105 C4104 1.502 . S
C4106 H4092 0.960 . S
C4106 H4093 0.961 . S
C4106 H4094 0.959 . S
C4106 C4104 1.561 . S
C4107 C4104 1.526 . S
C4107 C4108 1.396 . S
C4107 C4112 1.390 . S
C4108 C4102 1.465 . S
C4108 C4107 1.396 . S
C4108 C4109 1.399 . S
C4109 H4095 0.929 . S
C4109 C4108 1.399 . S
C4109 C4110 1.385 . S
C4110 H4096 0.931 . S
C4110 C4109 1.385 . S
C4110 C4111 1.389 . S
C4111 C4110 1.389 . S
C4111 C4112 1.387 . S
C4112 H4097 0.930 . S
C4112 C4107 1.390 . S
C4112 C4111 1.387 . S
H4113 C4125 0.930 . S
H4114 C4127 0.930 . S
H4115 C4128 0.930 . S
H4116 C4132 0.959 . S
H4117 C4132 0.959 . S
H4118 C4132 0.961 . S
H4119 C4133 0.960 . S
H4120 C4133 0.961 . S
H4121 C4133 0.959 . S
H4122 C4136 0.929 . S
H4123 C4137 0.931 . S
H4124 C4139 0.930 . S
C4125 H4113 0.930 . S
C4125 C4126 1.399 . S
C4125 C4130 1.399 . S
C4126 C4125 1.399 . S
C4126 C4127 1.376 . S
C4127 H4114 0.930 . S
C4127 C4126 1.376 . S
C4127 C4128 1.388 . S
C4128 H4115 0.930 . S
C4128 C4127 1.388 . S
C4128 C4129 1.390 . S
C4129 C4128 1.390 . S
C4129 C4130 1.394 . S
C4129 C4135 1.465 . S
C4130 C4125 1.399 . S
C4130 C4129 1.394 . S
C4130 C4131 1.516 . S
C4131 C4130 1.516 . S
C4131 C4132 1.502 1_554 S
C4131 C4133 1.561 . S
C4131 C4134 1.526 . S
C4132 H4116 0.959 . S
C4132 H4117 0.959 . S
C4132 H4118 0.961 . S
C4132 C4131 1.502 1_556 S
C4133 H4119 0.960 . S
C4133 H4120 0.961 . S
C4133 H4121 0.959 . S
C4133 C4131 1.561 . S
C4134 C4131 1.526 . S
C4134 C4135 1.396 . S
C4134 C4139 1.390 . S
C4135 C4129 1.465 . S
C4135 C4134 1.396 . S
C4135 C4136 1.399 . S
C4136 H4122 0.929 . S
C4136 C4135 1.399 . S
C4136 C4137 1.385 . S
C4137 H4123 0.931 . S
C4137 C4136 1.385 . S
C4137 C4138 1.389 . S
C4138 C4137 1.389 . S
C4138 C4139 1.387 . S
C4139 H4124 0.930 . S
C4139 C4134 1.390 . S
C4139 C4138 1.387 . S
H4140 C4152 0.930 . S
H4141 C4154 0.930 . S
H4142 C4155 0.930 . S
H4143 C4159 0.959 . S
H4144 C4159 0.959 . S
H4145 C4159 0.961 . S
H4146 C4160 0.960 . S
H4147 C4160 0.961 . S
H4148 C4160 0.959 . S
H4149 C4163 0.929 . S
H4150 C4164 0.931 . S
H4151 C4166 0.930 . S
C4152 H4140 0.930 . S
C4152 C4153 1.399 . S
C4152 C4157 1.399 . S
C4153 C4152 1.399 . S
C4153 C4154 1.376 . S
C4154 H4141 0.930 . S
C4154 C4153 1.376 . S
C4154 C4155 1.388 . S
C4155 H4142 0.930 . S
C4155 C4154 1.388 . S
C4155 C4156 1.390 . S
C4156 C4155 1.390 . S
C4156 C4157 1.394 . S
C4156 C4162 1.465 . S
C4157 C4152 1.399 . S
C4157 C4156 1.394 . S
C4157 C4158 1.516 . S
C4158 C4157 1.516 . S
C4158 C4159 1.502 . S
C4158 C4160 1.561 . S
C4158 C4161 1.526 . S
C4159 H4143 0.959 . S
C4159 H4144 0.959 . S
C4159 H4145 0.961 . S
C4159 C4158 1.502 . S
C4160 H4146 0.960 . S
C4160 H4147 0.961 . S
C4160 H4148 0.959 . S
C4160 C4158 1.561 . S
C4161 C4158 1.526 . S
C4161 C4162 1.396 . S
C4161 C4166 1.390 . S
C4162 C4156 1.465 . S
C4162 C4161 1.396 . S
C4162 C4163 1.399 . S
C4163 H4149 0.929 . S
C4163 C4162 1.399 . S
C4163 C4164 1.385 . S
C4164 H4150 0.931 . S
C4164 C4163 1.385 . S
C4164 C4165 1.389 . S
C4165 C4164 1.389 . S
C4165 C4166 1.387 . S
C4166 H4151 0.930 . S
C4166 C4161 1.390 . S
C4166 C4165 1.387 . S
H4167 C4179 0.930 . S
H4168 C4181 0.930 . S
H4169 C4182 0.930 . S
H4170 C4186 0.959 . S
H4171 C4186 0.959 . S
H4172 C4186 0.961 . S
H4173 C4187 0.962 1_554 S
H4174 C4187 0.961 . S
H4175 C4187 0.959 . S
H4176 C4190 0.929 . S
H4177 C4191 0.931 . S
H4178 C4193 0.930 . S
C4179 H4167 0.930 . S
C4179 C4180 1.399 . S
C4179 C4184 1.399 . S
C4180 C4179 1.399 . S
C4180 C4181 1.376 . S
C4181 H4168 0.930 . S
C4181 C4180 1.376 . S
C4181 C4182 1.388 . S
C4182 H4169 0.930 . S
C4182 C4181 1.388 . S
C4182 C4183 1.390 . S
C4183 C4182 1.390 . S
C4183 C4184 1.394 . S
C4183 C4189 1.465 . S
C4184 C4179 1.399 . S
C4184 C4183 1.394 . S
C4184 C4185 1.516 . S
C4185 C4184 1.516 . S
C4185 C4186 1.502 . S
C4185 C4187 1.561 1_554 S
C4185 C4188 1.526 . S
C4186 H4170 0.959 . S
C4186 H4171 0.959 . S
C4186 H4172 0.961 . S
C4186 C4185 1.502 . S
C4187 H4173 0.962 1_556 S
C4187 H4174 0.961 . S
C4187 H4175 0.959 . S
C4187 C4185 1.561 1_556 S
C4188 C4185 1.526 . S
C4188 C4189 1.396 . S
C4188 C4193 1.390 . S
C4189 C4183 1.465 . S
C4189 C4188 1.396 . S
C4189 C4190 1.399 . S
C4190 H4176 0.929 . S
C4190 C4189 1.399 . S
C4190 C4191 1.385 . S
C4191 H4177 0.931 . S
C4191 C4190 1.385 . S
C4191 C4192 1.389 . S
C4192 C4191 1.389 . S
C4192 C4193 1.387 . S
C4193 H4178 0.930 . S
C4193 C4188 1.390 . S
C4193 C4192 1.387 . S
H4194 C4206 0.930 . S
H4195 C4208 0.930 . S
H4196 C4209 0.930 . S
H4197 C4213 0.959 . S
H4198 C4213 0.959 . S
H4199 C4213 0.961 . S
H4200 C4214 0.960 . S
H4201 C4214 0.961 . S
H4202 C4214 0.959 . S
H4203 C4217 0.929 . S
H4204 C4218 0.931 . S
H4205 C4220 0.930 . S
C4206 H4194 0.930 . S
C4206 C4207 1.399 . S
C4206 C4211 1.399 . S
C4207 C4206 1.399 . S
C4207 C4208 1.376 . S
C4208 H4195 0.930 . S
C4208 C4207 1.376 . S
C4208 C4209 1.388 . S
C4209 H4196 0.930 . S
C4209 C4208 1.388 . S
C4209 C4210 1.390 . S
C4210 C4209 1.390 . S
C4210 C4211 1.394 . S
C4210 C4216 1.465 . S
C4211 C4206 1.399 . S
C4211 C4210 1.394 . S
C4211 C4212 1.516 . S
C4212 C4211 1.516 . S
C4212 C4213 1.502 . S
C4212 C4214 1.561 . S
C4212 C4215 1.526 . S
C4213 H4197 0.959 . S
C4213 H4198 0.959 . S
C4213 H4199 0.961 . S
C4213 C4212 1.502 . S
C4214 H4200 0.960 . S
C4214 H4201 0.961 . S
C4214 H4202 0.959 . S
C4214 C4212 1.561 . S
C4215 C4212 1.526 . S
C4215 C4216 1.396 . S
C4215 C4220 1.390 . S
C4216 C4210 1.465 . S
C4216 C4215 1.396 . S
C4216 C4217 1.399 . S
C4217 H4203 0.929 . S
C4217 C4216 1.399 . S
C4217 C4218 1.385 . S
C4218 H4204 0.931 . S
C4218 C4217 1.385 . S
C4218 C4219 1.389 . S
C4219 C4218 1.389 . S
C4219 C4220 1.387 . S
C4220 H4205 0.930 . S
C4220 C4215 1.390 . S
C4220 C4219 1.387 . S
H4221 C4233 0.930 . S
H4222 C4235 0.930 . S
H4223 C4236 0.930 . S
H4224 C4240 0.959 . S
H4225 C4240 0.959 . S
H4226 C4240 0.961 . S
H4227 C4241 0.960 . S
H4228 C4241 0.961 . S
H4229 C4241 0.959 . S
H4230 C4244 0.929 . S
H4231 C4245 0.931 . S
H4232 C4247 0.930 . S
C4233 H4221 0.930 . S
C4233 C4234 1.399 . S
C4233 C4238 1.399 . S
C4234 C4233 1.399 . S
C4234 C4235 1.376 . S
C4235 H4222 0.930 . S
C4235 C4234 1.376 . S
C4235 C4236 1.388 . S
C4236 H4223 0.930 . S
C4236 C4235 1.388 . S
C4236 C4237 1.390 . S
C4237 C4236 1.390 . S
C4237 C4238 1.394 . S
C4237 C4243 1.465 . S
C4238 C4233 1.399 . S
C4238 C4237 1.394 . S
C4238 C4239 1.516 . S
C4239 C4238 1.516 . S
C4239 C4240 1.502 . S
C4239 C4241 1.561 . S
C4239 C4242 1.526 . S
C4240 H4224 0.959 . S
C4240 H4225 0.959 . S
C4240 H4226 0.961 . S
C4240 C4239 1.502 . S
C4241 H4227 0.960 . S
C4241 H4228 0.961 . S
C4241 H4229 0.959 . S
C4241 C4239 1.561 . S
C4242 C4239 1.526 . S
C4242 C4243 1.396 . S
C4242 C4247 1.390 . S
C4243 C4237 1.465 . S
C4243 C4242 1.396 . S
C4243 C4244 1.399 . S
C4244 H4230 0.929 . S
C4244 C4243 1.399 . S
C4244 C4245 1.385 . S
C4245 H4231 0.931 . S
C4245 C4244 1.385 . S
C4245 C4246 1.389 . S
C4246 C4245 1.389 . S
C4246 C4247 1.387 . S
C4247 H4232 0.930 . S
C4247 C4242 1.390 . S
C4247 C4246 1.387 . S
C1669 C101 2.172 1_455 S
C1681 C379 2.201 . S
C1696 C57 1.855 . S
C1708 C452 1.896 . S
C1723 C73 1.862 . S
C1735 C547 1.979 . S
C1762 C622 1.403 . S
C1750 C78 1.458 . S
C1777 C21 1.521 . S
C1789 C706 1.412 . S
C1816 C799 1.925 . S
C1804 C31 1.768 . S
C1843 C872 1.902 . S
C1831 C49 1.897 . S
C1858 C0 2.005 . S
C1870 C967 2.104 . S
C1897 C368 1.641 . S
C1885 C218 1.703 . S
C1912 C229 0.902 . S
C1924 C454 0.839 . S
C1951 C536 1.141 . S
C1939 C257 1.127 . S
C1978 C631 1.624 . S
C1966 C164 1.583 1_556 S
C1993 C216 1.588 . S
C2005 C715 1.605 . S
C2032 C788 1.136 . S
C2020 C231 1.107 . S
C2059 C874 0.817 . S
C2047 C255 0.880 . S
C2086 C956 1.645 . S
C2074 C166 1.677 . S
C2113 C370 0.994 1_565 S
C2101 C143 1.004 1_556 S
C2128 C265 1.666 . S
C2140 C1040 1.687 . S
C2167 C1126 1.204 . S
C2155 C299 1.246 . S
C2194 C1219 0.869 . S
C2182 C291 0.844 . S
C2209 C104 0.974 . S
C2221 C958 0.970 . S
C2236 C117 1.337 . S
C2248 C538 1.319 . S
C2263 C304 1.559 . S
C2275 C1292 1.608 . S
C2302 C1387 0.765 . S
C2290 C278 0.702 . S
C2329 C367 2.145 . S
C2317 C60 2.108 . S
C2356 C1388 1.783 . S
C2344 C96 1.806 . S
C2371 C88 1.880 . S
C2383 C535 1.868 . S
C2398 C65 1.401 . S
C2410 C1306 1.251 . S
C2437 C718 1.379 . S
C2425 C10 1.490 . S
C2452 C44 1.719 . S
C2464 C1123 1.821 . S
C2491 C884 1.835 1_556 S
C2479 C34 1.789 . S
C2518 C1459 2.029 . S
C2506 C13 2.002 . S
C2545 C380 1.594 . S
C2533 C138 1.630 . S
C2572 C1390 0.800 . S
C2560 C296 0.883 . S
C2587 C112 1.000 . S
C2599 C548 1.001 . S
C2614 C270 1.548 . S
C2626 C1291 1.535 . S
C2641 C140 1.520 . S
C2653 C703 1.528 . S
C2680 C1136 1.070 . S
C2668 C294 1.077 . S
C2695 C114 0.872 . S
C2707 C886 0.905 1_545 S
C2722 C268 1.591 . S
C2734 C1472 1.584 . S
C2749 C169 0.972 . S
C2761 C382 0.895 . S
C2776 C161 1.589 . S
C2788 C1052 1.588 . S
C2803 C234 1.289 . S
C2815 C802 1.290 . S
C2830 C226 0.837 . S
C2842 C1207 0.758 . S
C2869 C1474 0.914 . S
C2857 C247 0.881 . S
C2884 C195 1.338 . S
C2896 C550 1.229 . S
C2923 C632 1.533 . S
C2911 C239 1.557 . S
C2950 C451 0.673 . S
C2938 C187 0.713 . S
C2965 C75 2.193 . S
C2977 C1555 2.196 . S
C3004 C1376 1.892 . S
C2992 C83 1.873 . S
C3019 C99 1.876 . S
C3031 C1639 1.976 . S
C3046 C52 1.435 1_655 S
C3058 C1294 1.398 . S
C3073 C47 1.520 . S
C3085 C1042 1.410 . S
C3112 C1135 1.929 . S
C3100 C5 1.782 . S
C3139 C1208 1.903 . S
C3127 C23 1.898 . S
C3166 C1471 2.110 . S
C3154 C26 1.983 . S
C3193 C1544 1.636 . S
C3181 C244 1.710 . S
C3208 C177 0.905 . S
C3220 C1378 0.847 . S
C3247 C1628 1.074 . S
C3235 C192 1.094 . S
C3274 C1303 1.630 . S
C3262 C203 1.562 . S
C3301 C1051 1.609 . S
C3289 C242 1.565 . S
C3316 C179 1.144 . S
C3328 C1124 1.113 . S
C3355 C1210 0.961 . S
C3343 C190 0.957 . S
C3370 C205 1.678 . S
C3382 C1460 1.666 . S
C3409 C1546 0.981 . S
C3397 C286 0.986 . S
C3424 C122 1.622 . S
C3436 C704 1.664 . S
C3463 C790 1.201 . S
C3451 C130 1.241 1_565 S
C3490 C883 0.847 . S
C3478 C148 0.838 . S
C3517 C1462 0.877 . S
C3505 C273 0.877 . S
C3532 C260 1.272 . S
C3544 C1630 1.230 . S
C3571 C620 1.630 . S
C3559 C135 1.585 . S
C3598 C463 0.730 . S
C3586 C109 0.788 . S
C3613 C86 2.109 . S
C3625 C1543 2.145 . S
C3652 C464 1.780 . S
C3640 C70 1.781 . S
C3667 C62 1.875 . S
C3679 C1627 1.866 . S
C3694 C91 1.397 . S
C3706 C634 1.259 . S
C3721 C36 1.483 . S
C3733 C1054 1.336 . S
C3760 C787 1.835 . S
C3748 C18 1.751 . S
C3775 C8 1.740 . S
C3787 C1220 1.806 . S
C3802 C39 1.986 . S
C3814 C955 2.027 . S
C3841 C1556 1.552 . S
C3829 C307 1.594 . S
C3856 C153 0.880 . S
C3868 C466 0.895 . S
C3895 C1640 1.007 1_655 S
C3883 C281 1.009 . S
C3910 C127 1.542 . S
C3922 C619 1.550 . S
C3937 C309 1.528 . S
C3949 C1039 1.514 . S
C3976 C800 1.029 . S
C3964 C151 1.036 . S
C3991 C283 0.871 . S
C4003 C1222 0.914 . S
C4030 C968 1.582 . S
C4018 C125 1.590 . S
C4057 C1558 0.928 . S
C4045 C221 0.951 . S
C4084 C716 1.603 1_565 S
C4072 C200 1.623 . S
C4099 C208 1.317 . S
C4111 C1138 1.207 . S
C4138 C871 0.783 . S
C4126 C174 0.735 . S
C4153 C182 0.881 . S
C4165 C970 0.933 . S
C4180 C156 1.316 . S
C4192 C1642 1.254 . S
C4219 C1304 1.528 . S
C4207 C213 1.520 . S
C4246 C1375 0.648 . S
C4234 C252 0.680 . S
